5i3p_A_1003_1_5i3p+A+1003+1
     RDKit          3D

 33 35  0  0  0  0  0  0  0  0999 V2000
  -15.4970  -43.7610  -21.5670 C   0  0  0  0  0  0  0  0  0  0  0  0
  -14.5890  -42.9950  -20.8480 C   0  0  0  0  0  0  0  0  0  0  0  0
  -14.5950  -43.0200  -19.4630 C   0  0  0  0  0  0  0  0  0  0  0  0
  -13.7000  -42.3430  -18.6770 O   0  0  0  0  0  0  0  0  0  0  0  0
  -17.0530  -44.1860  -14.6170 O   0  0  0  0  0  0  0  0  0  0  0  0
  -14.1550  -38.9170  -16.1040 O   0  0  0  0  0  0  0  0  0  0  0  0
  -13.8840  -40.1190  -14.0760 C   0  0  0  0  0  0  0  0  0  0  0  0
  -14.2390  -41.1750  -13.2430 C   0  0  0  0  0  0  0  0  0  0  0  0
  -15.2710  -42.0430  -13.5930 C   0  0  0  0  0  0  0  0  0  0  0  0
  -16.4450  -44.5480  -19.5110 C   0  0  0  0  0  0  0  0  0  0  0  0
  -16.4420  -44.5630  -20.9040 C   0  0  0  0  0  0  0  0  0  0  0  0
  -17.4200  -45.4210  -21.5990 C   0  0  0  0  0  0  0  0  0  0  0  0
  -17.9620  -46.6110  -21.1720 C   0  0  0  0  0  0  0  0  0  0  0  0
  -18.8820  -47.1560  -22.0690 C   0  0  0  0  0  0  0  0  0  0  0  0
  -19.0440  -46.4060  -23.1910 C   0  0  0  0  0  0  0  0  0  0  0  0
  -19.8060  -46.6590  -24.3610 C   0  0  0  0  0  0  0  0  0  0  0  0
  -20.3640  -46.7470  -25.4100 C   0  0  0  0  0  0  0  0  0  0  0  0
  -20.9730  -46.8050  -26.7390 C   0  0  0  0  0  0  0  0  0  0  0  0
  -14.9140  -44.2600  -16.5240 O   0  0  0  0  0  0  0  0  0  0  0  0
  -15.7460  -43.7990  -17.3020 C   0  0  0  0  0  0  0  0  0  0  0  0
  -16.9230  -43.2280  -16.8550 N   0  0  0  0  0  0  0  0  0  0  0  0
  -17.2310  -42.9340  -15.2860 S   0  0  0  0  0  0  0  0  0  0  0  0
  -18.4860  -42.2470  -15.1990 O   0  0  0  0  0  0  0  0  0  0  0  0
  -15.9590  -41.8270  -14.7790 C   0  0  0  0  0  0  0  0  0  0  0  0
  -14.5760  -39.9260  -15.2660 C   0  0  0  0  0  0  0  0  0  0  0  0
  -14.8680  -38.6970  -17.3270 C   0  0  0  0  0  0  0  0  0  0  0  0
  -15.6240  -40.7660  -15.6090 C   0  0  0  0  0  0  0  0  0  0  0  0
  -15.5390  -43.7830  -18.7770 C   0  0  0  0  0  0  0  0  0  0  0  0
  -12.8060  -41.4270  -19.3080 C   0  0  0  0  0  0  0  0  0  0  0  0
  -15.5260  -43.8010  -22.9370 O   0  0  0  0  0  0  0  0  0  0  0  0
  -14.5990  -42.9860  -23.6530 C   0  0  0  0  0  0  0  0  0  0  0  0
  -18.0730  -44.9810  -23.1380 S   0  0  0  0  0  0  0  0  0  0  0  0
  -21.8360  -45.7140  -26.9630 O   0  0  0  0  0  0  0  0  0  0  0  0
 18 33  1  0
 18 17  1  0
 17 16  3  0
 16 15  1  0
 15 14  2  0
 15 32  1  0
 14 13  1  0
 13 12  2  0
 32 12  1  0
 12 11  1  0
 11 10  1  0
 11  1  2  0
 30  1  1  0
 30 31  1  0
 10 28  2  0
  1  2  1  0
 28 20  1  0
 28  3  1  0
  2  3  2  0
 21 20  1  0
 21 22  1  0
 20 19  2  0
  5 22  2  0
 23 22  2  0
  3  4  1  0
 22 24  1  0
  4 29  1  0
 24 27  2  0
 24  9  1  0
 27 25  1  0
  9  8  2  0
 26  6  1  0
 25  6  1  0
 25  7  2  0
  8  7  1  0
M  END
$$$$

