FLAVI-RDRP-DLS-JA001
dcSeeSAR  09212416393D 1   1.00000     0.00000     0
SeeSAR 13.0.1 dcn76311
 35 37  0  0  0  0            999 V2000
  -12.8554  -39.2020  -23.2143 N   0  0  0  0  0  0  0  0  0  0  0  0
  -14.5680  -40.5617  -22.3011 C   0  0  0  0  0  0  0  0  0  0  0  0
  -13.1201  -40.1455  -22.1233 C   0  0  0  0  0  0  0  0  0  0  0  0
  -14.8154  -40.1929  -23.7460 C   0  0  0  0  0  0  0  0  0  0  0  0
  -14.0790  -39.0697  -23.9746 N   0  0  0  0  0  0  0  0  0  0  0  0
  -18.4888  -38.2915  -27.2671 N   0  0  0  0  0  0  0  0  0  0  0  0
  -18.8513  -36.0014  -26.2930 C   0  0  0  0  0  0  0  0  0  0  0  0
  -18.1609  -37.3494  -26.4221 C   0  0  0  0  0  0  0  0  0  0  0  0
  -17.6742  -39.4110  -27.1533 C   0  0  0  0  0  0  0  0  0  0  0  0
  -16.6992  -39.3592  -26.2076 C   0  0  0  0  0  0  0  0  0  0  0  0
  -15.7345  -40.3702  -25.8961 N   0  0  0  0  0  0  0  0  0  0  0  0
  -16.3690  -42.0323  -24.1777 C   0  0  0  0  0  0  0  0  0  0  0  0
  -15.6595  -43.1767  -23.8306 C   0  0  0  0  0  0  0  0  0  0  0  0
  -17.7109  -44.3245  -23.3571 C   0  0  0  0  0  0  0  0  0  0  0  0
  -18.4313  -43.1855  -23.7009 C   0  0  0  0  0  0  0  0  0  0  0  0
  -17.7592  -42.0381  -24.1117 C   0  0  0  0  0  0  0  0  0  0  0  0
  -19.7587  -43.2246  -23.6280 F   0  0  0  0  0  0  0  0  0  0  0  0
  -15.6137  -40.8289  -24.6109 C   0  0  0  0  0  0  0  0  0  0  0  0
  -16.3215  -44.3290  -23.4191 C   0  0  0  0  0  0  0  0  0  0  0  0
  -16.8352  -37.8313  -25.4371 S   0  0  0  0  0  0  0  0  0  0  0  0
  -18.3764  -35.4297  -25.5232 H   0  0  0  0  0  0  0  0  0  0  0  0
  -18.7824  -35.4751  -27.2221 H   0  0  0  0  0  0  0  0  0  0  0  0
  -19.8809  -36.1505  -26.0429 H   0  0  0  0  0  0  0  0  0  0  0  0
  -14.5907  -43.1711  -23.8808 H   0  0  0  0  0  0  0  0  0  0  0  0
  -18.2304  -45.2053  -23.0420 H   0  0  0  0  0  0  0  0  0  0  0  0
  -18.3111  -41.1607  -24.3767 H   0  0  0  0  0  0  0  0  0  0  0  0
  -15.1490  -40.7416  -26.6167 H   0  0  0  0  0  0  0  0  0  0  0  0
  -15.2138  -40.0184  -21.6435 H   0  0  0  0  0  0  0  0  0  0  0  0
  -14.6950  -41.6117  -22.1390 H   0  0  0  0  0  0  0  0  0  0  0  0
  -12.9797  -39.6713  -21.1745 H   0  0  0  0  0  0  0  0  0  0  0  0
  -12.4736  -40.9950  -22.1966 H   0  0  0  0  0  0  0  0  0  0  0  0
  -12.1247  -39.5523  -23.8002 H   0  0  0  0  0  0  0  0  0  0  0  0
  -14.3360  -38.2991  -24.5579 H   0  0  0  0  0  0  0  0  0  0  0  0
  -15.7695  -45.2063  -23.1540 H   0  0  0  0  0  0  0  0  0  0  0  0
  -17.8074  -40.2696  -27.7778 H   0  0  0  0  0  0  0  0  0  0  0  0
  1  3  1  0  0  0  0
  1  5  1  0  0  0  0
  2  3  1  0  0  0  0
  2  4  1  0  0  0  0
  4  5  1  0  0  0  0
  6  8  2  0  0  0  0
  6  9  1  0  0  0  0
  7  8  1  0  0  0  0
  8 20  1  0  0  0  0
  9 10  2  0  0  0  0
 10 11  1  0  0  0  0
 10 20  1  0  0  0  0
 11 18  1  0  0  0  0
 12 13  2  0  0  0  0
 12 16  1  0  0  0  0
 12 18  1  0  0  0  0
 13 19  1  0  0  0  0
 14 15  1  0  0  0  0
 14 19  2  0  0  0  0
 15 16  2  0  0  0  0
 15 17  1  0  0  0  0
  7 21  1  0  0  0  0
  7 22  1  0  0  0  0
  7 23  1  0  0  0  0
 13 24  1  0  0  0  0
 14 25  1  0  0  0  0
 16 26  1  0  0  0  0
 11 27  1  0  0  0  0
  4 18  2  0  0  0  0
  2 28  1  0  0  0  0
  2 29  1  0  0  0  0
  3 30  1  0  0  0  0
  3 31  1  0  0  0  0
  1 32  1  0  0  0  0
  5 33  1  0  0  0  0
 19 34  1  0  0  0  0
  9 35  1  0  0  0  0
M  END
> <BIOSOLVEIT.HYDE_ATOM_SCORES [kJ/mol]>
# Atom-ID; Total; Rec-Desolv; Rec-IA; Lig-Desolv; Lig-IA
1;-3.0391;1.5645;-2.7760;10.3626;-12.1903
2;0.0000;0.0000;0.0000;0.0000;0.0000
3;-2.0318;-1.0837;0.0000;-0.9480;0.0000
4;-0.1601;0.0000;0.0000;-0.1601;0.0000
5;-2.6753;7.7775;-9.2776;6.9515;-8.1268
6;-3.2753;6.4701;-8.3087;6.8721;-8.3087
7;-1.7702;-0.5986;0.0000;-1.1716;0.0000
8;-0.0768;0.0000;0.0000;-0.0768;0.0000
9;5.5749;6.8349;0.0000;-1.2600;0.0000
10;-0.6483;-0.4469;0.0000;-0.2014;0.0000
11;5.6740;-1.3353;0.0000;7.0093;0.0000
12;0.0000;0.0000;0.0000;0.0000;0.0000
13;-0.9547;0.0000;0.0000;-0.9547;0.0000
14;0.5072;0.9062;0.0000;-0.3991;0.0000
15;-0.2766;-0.1998;0.0000;-0.0768;0.0000
16;-0.0594;0.0000;0.0000;-0.0594;0.0000
17;-0.7202;-0.3725;0.0000;-0.3478;0.0000
18;-0.1665;0.0000;0.0000;-0.1665;0.0000
19;-3.2250;-2.0706;0.0000;-1.1544;0.0000
20;-0.2605;0.0000;0.0000;-0.2605;0.0000

> <BIOSOLVEIT.HYDE_ESTIMATED_AFFINITY_LOWER_BOUNDARY [nM]>
4337879.052621

> <BIOSOLVEIT.HYDE_ESTIMATED_AFFINITY_UPPER_BOUNDARY [nM]>
430993931.448645

> <BIOSOLVEIT.HYDE_LIGAND_EFFICIENCY range: ++, +, 0, -, -->
--

> <BIOSOLVEIT.HYDE_LIGAND_LIPOPHILIC_EFFICIENCY range: ++, +, 0, -, -->
--

> <BIOSOLVEIT.INTER_CLASH range: red, yellow, green>
green

> <BIOSOLVEIT.INTRA_CLASH range: red, yellow, green>
green

> <BIOSOLVEIT.LOGP>
2.86922

> <BIOSOLVEIT.MOLECULAR_WEIGHT>
290.364

> <BIOSOLVEIT.MOLECULE_CHECKSUM>
LTcuNzg2NDQ7MC4zODkzMjI=

> <BIOSOLVEIT.TORSION_QUALITY range: red, yellow, green, not rotatable>
yellow

> <BIOSOLVEIT.TPSA>
48.98

> <BIOSOLVEIT.OPTIBRIUM.2D6 affinity category>
medium

> <BIOSOLVEIT.OPTIBRIUM.BBB category>
+

> <BIOSOLVEIT.OPTIBRIUM.2C9 pKi>
4.96228

> <BIOSOLVEIT.OPTIBRIUM.hERG pIC50>
5.04123

> <BIOSOLVEIT.OPTIBRIUM.HIA category>
+

> <BIOSOLVEIT.OPTIBRIUM.BBB log([brain]:[blood])>
-0.609921

> <BIOSOLVEIT.OPTIBRIUM.logD>
1.67726

> <BIOSOLVEIT.OPTIBRIUM.logP>
2.32738

> <BIOSOLVEIT.OPTIBRIUM.logS>
2.11898

> <BIOSOLVEIT.OPTIBRIUM.logS @ pH7.4>
1.89371

> <BIOSOLVEIT.OPTIBRIUM.P-gp category>
no

> <BIOSOLVEIT.OPTIBRIUM.PPB90 category>
low

$$$$
FLAVI-RDRP-DLS-JA002
dcSeeSAR  09212416393D 1   1.00000     0.00000     0
SeeSAR 13.0.1 dcn76311
 36 38  0  0  0  0            999 V2000
  -13.0112  -38.6237  -23.5280 N   0  0  0  0  0  0  0  0  0  0  0  0
  -13.8959  -41.0955  -20.9251 C   0  0  0  0  0  0  0  0  0  0  0  0
  -13.7091  -40.2499  -22.1742 C   0  0  0  0  0  0  0  0  0  0  0  0
  -12.9231  -39.0652  -22.2930 C   0  0  0  0  0  0  0  0  0  0  0  0
  -14.2534  -40.4703  -23.3976 C   0  0  0  0  0  0  0  0  0  0  0  0
  -13.8209  -39.4629  -24.2374 N   0  0  0  0  0  0  0  0  0  0  0  0
  -14.5407  -41.9203  -21.1459 H   0  0  0  0  0  0  0  0  0  0  0  0
  -12.9458  -41.4632  -20.5979 H   0  0  0  0  0  0  0  0  0  0  0  0
  -14.3327  -40.4984  -20.1520 H   0  0  0  0  0  0  0  0  0  0  0  0
  -12.3561  -38.6113  -21.5071 H   0  0  0  0  0  0  0  0  0  0  0  0
  -16.9557  -44.2846  -22.0653 N   0  0  0  0  0  0  0  0  0  0  0  0
  -18.1145  -45.8580  -23.2545 O   0  0  0  0  0  0  0  0  0  0  0  0
  -15.4710  -41.7868  -25.0930 C   0  0  0  0  0  0  0  0  0  0  0  0
  -15.1521  -41.5991  -23.7526 C   0  0  0  0  0  0  0  0  0  0  0  0
  -16.3114  -42.8402  -25.4362 C   0  0  0  0  0  0  0  0  0  0  0  0
  -16.8028  -43.6672  -24.4320 C   0  0  0  0  0  0  0  0  0  0  0  0
  -16.4521  -43.4350  -23.1066 C   0  0  0  0  0  0  0  0  0  0  0  0
  -17.7252  -45.3965  -22.1887 C   0  0  0  0  0  0  0  0  0  0  0  0
  -18.1065  -46.0837  -20.8826 C   0  0  2  0  0  0  0  0  0  0  0  0
  -19.4095  -45.5689  -20.3113 C   0  0  0  0  0  0  0  0  0  0  0  0
  -19.1724  -45.6308  -18.8158 C   0  0  0  0  0  0  0  0  0  0  0  0
  -17.6976  -45.3621  -18.6995 C   0  0  0  0  0  0  0  0  0  0  0  0
  -15.6396  -42.4117  -22.8030 N   0  0  0  0  0  0  0  0  0  0  0  0
  -17.0913  -45.9020  -19.8759 O   0  0  0  0  0  0  0  0  0  0  0  0
  -16.7091  -44.0251  -21.1316 H   0  0  0  0  0  0  0  0  0  0  0  0
  -16.5763  -43.0120  -26.4586 H   0  0  0  0  0  0  0  0  0  0  0  0
  -17.4506  -44.4821  -24.6791 H   0  0  0  0  0  0  0  0  0  0  0  0
  -18.2113  -47.1318  -21.0708 H   0  0  0  0  0  0  0  0  0  0  0  0
  -20.2290  -46.1948  -20.5973 H   0  0  0  0  0  0  0  0  0  0  0  0
  -19.5993  -44.5651  -20.6296 H   0  0  0  0  0  0  0  0  0  0  0  0
  -19.4200  -46.5961  -18.4261 H   0  0  0  0  0  0  0  0  0  0  0  0
  -19.7417  -44.8829  -18.3042 H   0  0  0  0  0  0  0  0  0  0  0  0
  -17.3027  -45.8404  -17.8277 H   0  0  0  0  0  0  0  0  0  0  0  0
  -17.5174  -44.3091  -18.6411 H   0  0  0  0  0  0  0  0  0  0  0  0
  -15.0779  -41.1344  -25.8444 H   0  0  0  0  0  0  0  0  0  0  0  0
  -14.0606  -39.3648  -25.2033 H   0  0  0  0  0  0  0  0  0  0  0  0
  1  4  2  0  0  0  0
  1  6  1  0  0  0  0
  2  3  1  0  0  0  0
  3  4  1  0  0  0  0
  3  5  2  0  0  0  0
  5  6  1  0  0  0  0
  2  7  1  0  0  0  0
  2  8  1  0  0  0  0
  2  9  1  0  0  0  0
  4 10  1  0  0  0  0
 14  5  1  0  0  0  0
 11 17  1  0  0  0  0
 11 18  1  0  0  0  0
 12 18  2  0  0  0  0
 13 14  2  0  0  0  0
 13 15  1  0  0  0  0
 14 23  1  0  0  0  0
 15 16  2  0  0  0  0
 16 17  1  0  0  0  0
 17 23  2  0  0  0  0
 18 19  1  0  0  0  0
 19 20  1  0  0  0  0
 19 24  1  0  0  0  0
 20 21  1  0  0  0  0
 21 22  1  0  0  0  0
 22 24  1  0  0  0  0
 11 25  1  0  0  0  0
 15 26  1  0  0  0  0
 16 27  1  0  0  0  0
 19 28  1  0  0  0  0
 20 29  1  0  0  0  0
 20 30  1  0  0  0  0
 21 31  1  0  0  0  0
 21 32  1  0  0  0  0
 22 33  1  0  0  0  0
 22 34  1  0  0  0  0
 13 35  1  0  0  0  0
  6 36  1  0  0  0  0
M  END
> <BIOSOLVEIT.HYDE_ATOM_SCORES [kJ/mol]>
# Atom-ID; Total; Rec-Desolv; Rec-IA; Lig-Desolv; Lig-IA
1;-1.8630;7.6433;-8.7516;6.9115;-7.6661
2;-0.4098;-0.0539;0.0000;-0.3559;0.0000
3;-0.2105;0.0000;0.0000;-0.2105;0.0000
4;-0.2970;0.0149;0.0000;-0.3119;0.0000
5;-1.3506;-0.9954;0.0000;-0.3552;0.0000
6;0.1698;-0.0681;0.0000;0.2379;0.0000
11;0.0000;0.0000;0.0000;0.0000;0.0000
12;0.6235;-1.5878;0.0000;2.2113;0.0000
13;-1.8843;-1.2051;0.0000;-0.6791;0.0000
14;-0.1244;0.0000;0.0000;-0.1244;0.0000
15;-1.6971;-0.4949;0.0000;-1.2023;0.0000
16;-1.3912;-0.3086;0.0000;-1.0826;0.0000
17;-0.0948;0.0000;0.0000;-0.0948;0.0000
18;-0.2584;0.0000;0.0000;-0.2584;0.0000
19;-0.6463;-0.1876;0.0000;-0.4587;0.0000
20;-2.6226;-1.5799;0.0000;-1.0427;0.0000
21;1.0311;1.9974;0.0000;-0.9663;0.0000
22;1.7891;2.4986;0.0000;-0.7095;0.0000
23;0.0000;0.0000;0.0000;0.0000;0.0000
24;-1.7387;1.6359;-1.9244;8.1718;-9.6220

> <BIOSOLVEIT.HYDE_ESTIMATED_AFFINITY_LOWER_BOUNDARY [nM]>
1198510.253445

> <BIOSOLVEIT.HYDE_ESTIMATED_AFFINITY_UPPER_BOUNDARY [nM]>
119079079.833184

> <BIOSOLVEIT.HYDE_LIGAND_EFFICIENCY range: ++, +, 0, -, -->
--

> <BIOSOLVEIT.HYDE_LIGAND_LIPOPHILIC_EFFICIENCY range: ++, +, 0, -, -->
--

> <BIOSOLVEIT.INTER_CLASH range: red, yellow, green>
green

> <BIOSOLVEIT.INTRA_CLASH range: red, yellow, green>
yellow

> <BIOSOLVEIT.LOGP>
1.89762

> <BIOSOLVEIT.MOLECULAR_WEIGHT>
272.306

> <BIOSOLVEIT.MOLECULE_CHECKSUM>
LTEwLjk3NTE7MC41NDg3NTc=

> <BIOSOLVEIT.TORSION_QUALITY range: red, yellow, green, not rotatable>
green

> <BIOSOLVEIT.TPSA>
79.9

> <BIOSOLVEIT.OPTIBRIUM.2D6 affinity category>
low

> <BIOSOLVEIT.OPTIBRIUM.BBB category>
-

> <BIOSOLVEIT.OPTIBRIUM.2C9 pKi>
4.35495

> <BIOSOLVEIT.OPTIBRIUM.hERG pIC50>
3.57597

> <BIOSOLVEIT.OPTIBRIUM.HIA category>
+

> <BIOSOLVEIT.OPTIBRIUM.BBB log([brain]:[blood])>
-0.555574

> <BIOSOLVEIT.OPTIBRIUM.logD>
1.52121

> <BIOSOLVEIT.OPTIBRIUM.logP>
1.52121

> <BIOSOLVEIT.OPTIBRIUM.logS>
2.76582

> <BIOSOLVEIT.OPTIBRIUM.logS @ pH7.4>
2.76582

> <BIOSOLVEIT.OPTIBRIUM.P-gp category>
no

> <BIOSOLVEIT.OPTIBRIUM.PPB90 category>
low

$$$$
FLAVI-RDRP-DLS-JA003
dcSeeSAR  09212416393D 1   1.00000     0.00000     0
SeeSAR 13.0.1 dcn76311
 31 33  0  0  0  0            999 V2000
  -15.7823  -40.4254  -26.9993 C   0  0  0  0  0  0  0  0  0  0  0  0
  -17.4066  -41.8532  -26.1090 C   0  0  0  0  0  0  0  0  0  0  0  0
  -16.9897  -41.0064  -27.0616 N   0  0  0  0  0  0  0  0  0  0  0  0
  -16.6142  -44.2095  -21.9337 N   0  0  0  0  0  0  0  0  0  0  0  0
  -14.9260  -40.6893  -25.9356 C   0  0  0  0  0  0  0  0  0  0  0  0
  -17.8157  -45.7267  -23.1531 O   0  0  0  0  0  0  0  0  0  0  0  0
  -15.3366  -41.5647  -24.9353 C   0  0  0  0  0  0  0  0  0  0  0  0
  -14.5321  -41.8724  -23.8435 C   0  0  0  0  0  0  0  0  0  0  0  0
  -16.5927  -42.1553  -25.0218 C   0  0  0  0  0  0  0  0  0  0  0  0
  -17.0025  -43.0289  -24.0205 C   0  0  0  0  0  0  0  0  0  0  0  0
  -16.1591  -43.3032  -22.9501 C   0  0  0  0  0  0  0  0  0  0  0  0
  -17.3833  -45.3186  -22.0823 C   0  0  0  0  0  0  0  0  0  0  0  0
  -17.7053  -46.0753  -20.7987 C   0  0  2  0  0  0  0  0  0  0  0  0
  -19.1420  -45.8951  -20.3602 C   0  0  0  0  0  0  0  0  0  0  0  0
  -19.0378  -45.8933  -18.8482 C   0  0  0  0  0  0  0  0  0  0  0  0
  -17.6910  -45.2701  -18.6066 C   0  0  0  0  0  0  0  0  0  0  0  0
  -14.9527  -42.7190  -22.8916 N   0  0  0  0  0  0  0  0  0  0  0  0
  -16.8638  -45.6472  -19.7097 O   0  0  0  0  0  0  0  0  0  0  0  0
  -16.3290  -43.9973  -20.9991 H   0  0  0  0  0  0  0  0  0  0  0  0
  -13.5627  -41.4270  -23.7613 H   0  0  0  0  0  0  0  0  0  0  0  0
  -17.9667  -43.4897  -24.0740 H   0  0  0  0  0  0  0  0  0  0  0  0
  -17.5326  -47.1174  -20.9690 H   0  0  0  0  0  0  0  0  0  0  0  0
  -19.7532  -46.7038  -20.7028 H   0  0  0  0  0  0  0  0  0  0  0  0
  -19.5409  -44.9696  -20.7195 H   0  0  0  0  0  0  0  0  0  0  0  0
  -19.0772  -46.8889  -18.4582 H   0  0  0  0  0  0  0  0  0  0  0  0
  -19.8178  -45.3070  -18.4091 H   0  0  0  0  0  0  0  0  0  0  0  0
  -17.2743  -45.6345  -17.6909 H   0  0  0  0  0  0  0  0  0  0  0  0
  -17.7799  -44.2049  -18.5590 H   0  0  0  0  0  0  0  0  0  0  0  0
  -18.3752  -42.3014  -26.1859 H   0  0  0  0  0  0  0  0  0  0  0  0
  -15.4756  -39.7540  -27.7739 H   0  0  0  0  0  0  0  0  0  0  0  0
  -13.9633  -40.2246  -25.8870 H   0  0  0  0  0  0  0  0  0  0  0  0
  1  3  1  0  0  0  0
  2  3  2  0  0  0  0
  4 11  1  0  0  0  0
  4 12  1  0  0  0  0
  5  7  1  0  0  0  0
  6 12  2  0  0  0  0
  7  8  1  0  0  0  0
  7  9  2  0  0  0  0
  8 17  2  0  0  0  0
  9 10  1  0  0  0  0
 10 11  2  0  0  0  0
 11 17  1  0  0  0  0
 12 13  1  0  0  0  0
 13 14  1  0  0  0  0
 13 18  1  0  0  0  0
 14 15  1  0  0  0  0
 15 16  1  0  0  0  0
 16 18  1  0  0  0  0
  4 19  1  0  0  0  0
  8 20  1  0  0  0  0
 10 21  1  0  0  0  0
 13 22  1  0  0  0  0
 14 23  1  0  0  0  0
 14 24  1  0  0  0  0
 15 25  1  0  0  0  0
 15 26  1  0  0  0  0
 16 27  1  0  0  0  0
 16 28  1  0  0  0  0
  5  1  2  0  0  0  0
  9  2  1  0  0  0  0
  2 29  1  0  0  0  0
  1 30  1  0  0  0  0
  5 31  1  0  0  0  0
M  END
> <BIOSOLVEIT.HYDE_ATOM_SCORES [kJ/mol]>
# Atom-ID; Total; Rec-Desolv; Rec-IA; Lig-Desolv; Lig-IA
1;-3.3823;-2.0461;0.0000;-1.3362;0.0000
2;-1.5639;-0.6363;0.0000;-0.9276;0.0000
3;-1.5175;6.9169;-7.7268;7.0192;-7.7268
4;0.0000;0.0000;0.0000;0.0000;0.0000
5;-3.6960;-2.4628;0.0000;-1.2332;0.0000
6;-0.8808;-2.5667;0.0000;1.6859;0.0000
7;-0.2338;0.0000;0.0000;-0.2338;0.0000
8;-1.6705;-0.7698;0.0000;-0.9007;0.0000
9;-0.0663;0.0000;0.0000;-0.0663;0.0000
10;-0.5856;0.0000;0.0000;-0.5856;0.0000
11;-0.3395;0.0000;0.0000;-0.3395;0.0000
12;-0.3292;0.0000;0.0000;-0.3292;0.0000
13;-0.3432;0.0000;0.0000;-0.3432;0.0000
14;-2.3657;-1.2757;0.0000;-1.0901;0.0000
15;1.5920;2.7458;0.0000;-1.1538;0.0000
16;1.9709;2.5156;0.0000;-0.5447;0.0000
17;0.1266;0.1477;0.0000;-0.0211;0.0000
18;-1.7310;1.6359;-1.9244;8.1795;-9.6220

> <BIOSOLVEIT.HYDE_ESTIMATED_AFFINITY_LOWER_BOUNDARY [nM]>
207699.040063

> <BIOSOLVEIT.HYDE_ESTIMATED_AFFINITY_UPPER_BOUNDARY [nM]>
20636127.644177

> <BIOSOLVEIT.HYDE_LIGAND_EFFICIENCY range: ++, +, 0, -, -->
-

> <BIOSOLVEIT.HYDE_LIGAND_LIPOPHILIC_EFFICIENCY range: ++, +, 0, -, -->
--

> <BIOSOLVEIT.INTER_CLASH range: red, yellow, green>
green

> <BIOSOLVEIT.INTRA_CLASH range: red, yellow, green>
green

> <BIOSOLVEIT.LOGP>
1.7473

> <BIOSOLVEIT.MOLECULAR_WEIGHT>
243.265

> <BIOSOLVEIT.MOLECULE_CHECKSUM>
LTE1LjMyMDE7MC44NTExMTg=

> <BIOSOLVEIT.TORSION_QUALITY range: red, yellow, green, not rotatable>
green

> <BIOSOLVEIT.TPSA>
64.11

> <BIOSOLVEIT.OPTIBRIUM.2D6 affinity category>
medium

> <BIOSOLVEIT.OPTIBRIUM.BBB category>
-

> <BIOSOLVEIT.OPTIBRIUM.2C9 pKi>
4.28054

> <BIOSOLVEIT.OPTIBRIUM.hERG pIC50>
4.16149

> <BIOSOLVEIT.OPTIBRIUM.HIA category>
+

> <BIOSOLVEIT.OPTIBRIUM.BBB log([brain]:[blood])>
-0.320414

> <BIOSOLVEIT.OPTIBRIUM.logD>
1.13936

> <BIOSOLVEIT.OPTIBRIUM.logP>
1.13936

> <BIOSOLVEIT.OPTIBRIUM.logS>
2.57045

> <BIOSOLVEIT.OPTIBRIUM.logS @ pH7.4>
2.57045

> <BIOSOLVEIT.OPTIBRIUM.P-gp category>
no

> <BIOSOLVEIT.OPTIBRIUM.PPB90 category>
low

$$$$
FLAVI-RDRP-DLS-JA004
dcSeeSAR  09212416393D 1   1.00000     0.00000     0
SeeSAR 13.0.1 dcn76311
 32 34  0  0  0  0            999 V2000
  -16.0900  -40.1946  -26.8809 C   0  0  0  0  0  0  0  0  0  0  0  0
  -17.5932  -41.8011  -26.0877 C   0  0  0  0  0  0  0  0  0  0  0  0
  -17.2205  -40.9043  -27.0126 N   0  0  0  0  0  0  0  0  0  0  0  0
  -16.7768  -44.0962  -21.8831 N   0  0  0  0  0  0  0  0  0  0  0  0
  -15.2697  -40.3729  -25.7719 C   0  0  0  0  0  0  0  0  0  0  0  0
  -17.7922  -45.6939  -23.1671 O   0  0  0  0  0  0  0  0  0  0  0  0
  -15.6356  -41.2978  -24.7992 C   0  0  0  0  0  0  0  0  0  0  0  0
  -14.8636  -41.5256  -23.6652 C   0  0  0  0  0  0  0  0  0  0  0  0
  -16.8121  -42.0223  -24.9579 C   0  0  0  0  0  0  0  0  0  0  0  0
  -17.1775  -42.9453  -23.9841 C   0  0  0  0  0  0  0  0  0  0  0  0
  -16.3692  -43.1355  -22.8692 C   0  0  0  0  0  0  0  0  0  0  0  0
  -17.4369  -45.2669  -22.0754 C   0  0  0  0  0  0  0  0  0  0  0  0
  -17.7350  -46.0713  -20.8152 C   0  0  2  0  0  0  0  0  0  0  0  0
  -19.1673  -45.9201  -20.3520 C   0  0  0  0  0  0  0  0  0  0  0  0
  -19.0430  -45.9705  -18.8423 C   0  0  0  0  0  0  0  0  0  0  0  0
  -17.6986  -45.3437  -18.5965 C   0  0  0  0  0  0  0  0  0  0  0  0
  -15.2399  -42.4225  -22.7414 N   0  0  0  0  0  0  0  0  0  0  0  0
  -16.8829  -45.6740  -19.7229 O   0  0  0  0  0  0  0  0  0  0  0  0
  -16.5455  -43.8752  -20.9356 H   0  0  0  0  0  0  0  0  0  0  0  0
  -13.9553  -40.9770  -23.5274 H   0  0  0  0  0  0  0  0  0  0  0  0
  -18.0805  -43.5089  -24.0930 H   0  0  0  0  0  0  0  0  0  0  0  0
  -17.5554  -47.1051  -21.0244 H   0  0  0  0  0  0  0  0  0  0  0  0
  -19.7758  -46.7219  -20.7148 H   0  0  0  0  0  0  0  0  0  0  0  0
  -19.5791  -44.9862  -20.6731 H   0  0  0  0  0  0  0  0  0  0  0  0
  -19.0684  -46.9795  -18.4872 H   0  0  0  0  0  0  0  0  0  0  0  0
  -19.8222  -45.4073  -18.3726 H   0  0  0  0  0  0  0  0  0  0  0  0
  -17.2665  -45.7361  -17.6997 H   0  0  0  0  0  0  0  0  0  0  0  0
  -17.7963  -44.2816  -18.5101 H   0  0  0  0  0  0  0  0  0  0  0  0
  -18.5006  -42.3524  -26.2203 H   0  0  0  0  0  0  0  0  0  0  0  0
  -15.8171  -39.4860  -27.6348 H   0  0  0  0  0  0  0  0  0  0  0  0
  -14.1032  -39.6385  -25.6374 O   0  0  0  0  0  0  0  0  0  0  0  0
  -14.6636  -42.5635  -21.9364 H   0  0  0  0  0  0  0  0  0  0  0  0
  1  3  2  0  0  0  0
  2  3  1  0  0  0  0
  4 11  1  0  0  0  0
  4 12  1  0  0  0  0
  5  7  1  0  0  0  0
  6 12  2  0  0  0  0
  7  8  2  0  0  0  0
  7  9  1  0  0  0  0
  8 17  1  0  0  0  0
  9 10  1  0  0  0  0
 10 11  2  0  0  0  0
 11 17  1  0  0  0  0
 12 13  1  0  0  0  0
 13 14  1  0  0  0  0
 13 18  1  0  0  0  0
 14 15  1  0  0  0  0
 15 16  1  0  0  0  0
 16 18  1  0  0  0  0
  4 19  1  0  0  0  0
  8 20  1  0  0  0  0
 10 21  1  0  0  0  0
 13 22  1  0  0  0  0
 14 23  1  0  0  0  0
 14 24  1  0  0  0  0
 15 25  1  0  0  0  0
 15 26  1  0  0  0  0
 16 27  1  0  0  0  0
 16 28  1  0  0  0  0
  5  1  1  0  0  0  0
  9  2  2  0  0  0  0
  2 29  1  0  0  0  0
  1 30  1  0  0  0  0
  5 31  2  0  0  0  0
 17 32  1  0  0  0  0
M  END
> <BIOSOLVEIT.HYDE_ATOM_SCORES [kJ/mol]>
# Atom-ID; Total; Rec-Desolv; Rec-IA; Lig-Desolv; Lig-IA
1;-3.2156;-2.0582;0.0000;-1.1573;0.0000
2;-1.5526;-0.6783;0.0000;-0.8743;0.0000
3;-1.2426;6.8949;-7.5826;7.0277;-7.5826
4;0.0000;0.0000;0.0000;0.0000;0.0000
5;-2.3096;-1.8936;0.0000;-0.4160;0.0000
6;-0.1510;-1.8890;0.0000;1.7380;0.0000
7;-0.2394;0.0000;0.0000;-0.2394;0.0000
8;-1.0774;-0.5119;0.0000;-0.5655;0.0000
9;-0.0658;0.0000;0.0000;-0.0658;0.0000
10;-0.4866;0.0000;0.0000;-0.4866;0.0000
11;-0.1818;0.0000;0.0000;-0.1818;0.0000
12;-0.2595;0.0000;0.0000;-0.2595;0.0000
13;-0.2986;0.0000;0.0000;-0.2986;0.0000
14;-2.3522;-1.2433;0.0000;-1.1089;0.0000
15;2.1408;3.2403;0.0000;-1.0995;0.0000
16;1.9060;2.5156;0.0000;-0.6096;0.0000
17;0.0011;0.0011;0.0000;0.0000;0.0000
18;-1.7310;1.6359;-1.9244;8.1795;-9.6220
31;0.9882;8.3379;-8.4958;10.4300;-9.2839

> <BIOSOLVEIT.HYDE_ESTIMATED_AFFINITY_LOWER_BOUNDARY [nM]>
1046837.717735

> <BIOSOLVEIT.HYDE_ESTIMATED_AFFINITY_UPPER_BOUNDARY [nM]>
104009516.651430

> <BIOSOLVEIT.HYDE_LIGAND_EFFICIENCY range: ++, +, 0, -, -->
--

> <BIOSOLVEIT.HYDE_LIGAND_LIPOPHILIC_EFFICIENCY range: ++, +, 0, -, -->
--

> <BIOSOLVEIT.INTER_CLASH range: red, yellow, green>
green

> <BIOSOLVEIT.INTRA_CLASH range: red, yellow, green>
green

> <BIOSOLVEIT.LOGP>
0.1475

> <BIOSOLVEIT.MOLECULAR_WEIGHT>
259.264

> <BIOSOLVEIT.MOLECULE_CHECKSUM>
LTExLjMxMDY7MC41OTUyOTI=

> <BIOSOLVEIT.TORSION_QUALITY range: red, yellow, green, not rotatable>
yellow

> <BIOSOLVEIT.TPSA>
79.79

> <BIOSOLVEIT.OPTIBRIUM.2D6 affinity category>
low

> <BIOSOLVEIT.OPTIBRIUM.BBB category>
-

> <BIOSOLVEIT.OPTIBRIUM.2C9 pKi>
4.61416

> <BIOSOLVEIT.OPTIBRIUM.hERG pIC50>
4.09764

> <BIOSOLVEIT.OPTIBRIUM.HIA category>
+

> <BIOSOLVEIT.OPTIBRIUM.BBB log([brain]:[blood])>
-0.874801

> <BIOSOLVEIT.OPTIBRIUM.logD>
0.87975

> <BIOSOLVEIT.OPTIBRIUM.logP>
0.87975

> <BIOSOLVEIT.OPTIBRIUM.logS>
2.3245

> <BIOSOLVEIT.OPTIBRIUM.logS @ pH7.4>
2.3245

> <BIOSOLVEIT.OPTIBRIUM.P-gp category>
no

> <BIOSOLVEIT.OPTIBRIUM.PPB90 category>
low

$$$$
FLAVI-RDRP-DLS-JA005
dcSeeSAR  09212416393D 1   1.00000     0.00000     0
SeeSAR 13.0.1 dcn76311
 33 35  0  0  0  0            999 V2000
  -16.1565  -40.2896  -26.7459 C   0  0  0  0  0  0  0  0  0  0  0  0
  -17.6993  -41.9025  -26.0472 C   0  0  0  0  0  0  0  0  0  0  0  0
  -17.2770  -40.9997  -26.9445 N   0  0  0  0  0  0  0  0  0  0  0  0
  -17.1148  -44.2224  -21.8177 N   0  0  0  0  0  0  0  0  0  0  0  0
  -15.3989  -40.4738  -25.5941 C   0  0  0  0  0  0  0  0  0  0  0  0
  -18.0319  -45.8256  -23.1671 O   0  0  0  0  0  0  0  0  0  0  0  0
  -15.8171  -41.4051  -24.6488 C   0  0  0  0  0  0  0  0  0  0  0  0
  -15.1089  -41.6390  -23.4751 C   0  0  0  0  0  0  0  0  0  0  0  0
  -16.9819  -42.1297  -24.8770 C   0  0  0  0  0  0  0  0  0  0  0  0
  -17.3996  -43.0591  -23.9307 C   0  0  0  0  0  0  0  0  0  0  0  0
  -16.6543  -43.2552  -22.7738 C   0  0  0  0  0  0  0  0  0  0  0  0
  -17.7505  -45.3985  -22.0541 C   0  0  0  0  0  0  0  0  0  0  0  0
  -18.1206  -46.2091  -20.8172 C   0  0  2  0  0  0  0  0  0  0  0  0
  -19.4501  -45.7957  -20.2252 C   0  0  0  0  0  0  0  0  0  0  0  0
  -19.2297  -45.9761  -18.7366 C   0  0  0  0  0  0  0  0  0  0  0  0
  -17.7683  -45.6617  -18.5745 C   0  0  0  0  0  0  0  0  0  0  0  0
  -15.5348  -42.5420  -22.5790 N   0  0  0  0  0  0  0  0  0  0  0  0
  -17.1261  -46.0752  -19.7827 O   0  0  0  0  0  0  0  0  0  0  0  0
  -16.9461  -44.0020  -20.8570 H   0  0  0  0  0  0  0  0  0  0  0  0
  -14.2104  -41.0904  -23.2837 H   0  0  0  0  0  0  0  0  0  0  0  0
  -18.2944  -43.6229  -24.0930 H   0  0  0  0  0  0  0  0  0  0  0  0
  -18.1812  -47.2405  -21.0954 H   0  0  0  0  0  0  0  0  0  0  0  0
  -20.2403  -46.4260  -20.5763 H   0  0  0  0  0  0  0  0  0  0  0  0
  -19.6757  -44.7765  -20.4600 H   0  0  0  0  0  0  0  0  0  0  0  0
  -19.4435  -46.9800  -18.4344 H   0  0  0  0  0  0  0  0  0  0  0  0
  -19.8346  -45.2972  -18.1726 H   0  0  0  0  0  0  0  0  0  0  0  0
  -17.3656  -46.1971  -17.7402 H   0  0  0  0  0  0  0  0  0  0  0  0
  -17.6309  -44.6112  -18.4241 H   0  0  0  0  0  0  0  0  0  0  0  0
  -18.5972  -42.4539  -26.2333 H   0  0  0  0  0  0  0  0  0  0  0  0
  -15.8431  -39.5762  -27.4791 H   0  0  0  0  0  0  0  0  0  0  0  0
  -14.2009  -39.7126  -25.3832 N   0  0  0  0  0  0  0  0  0  0  0  0
  -13.9061  -39.0448  -26.0666 H   0  0  0  0  0  0  0  0  0  0  0  0
  -13.6609  -39.8499  -24.5528 H   0  0  0  0  0  0  0  0  0  0  0  0
  1  3  1  0  0  0  0
  2  3  2  0  0  0  0
  4 11  1  0  0  0  0
  4 12  1  0  0  0  0
  5  7  1  0  0  0  0
  6 12  2  0  0  0  0
  7  8  1  0  0  0  0
  7  9  2  0  0  0  0
  8 17  2  0  0  0  0
  9 10  1  0  0  0  0
 10 11  2  0  0  0  0
 11 17  1  0  0  0  0
 12 13  1  0  0  0  0
 13 14  1  0  0  0  0
 13 18  1  0  0  0  0
 14 15  1  0  0  0  0
 15 16  1  0  0  0  0
 16 18  1  0  0  0  0
  4 19  1  0  0  0  0
  8 20  1  0  0  0  0
 10 21  1  0  0  0  0
 13 22  1  0  0  0  0
 14 23  1  0  0  0  0
 14 24  1  0  0  0  0
 15 25  1  0  0  0  0
 15 26  1  0  0  0  0
 16 27  1  0  0  0  0
 16 28  1  0  0  0  0
  5  1  2  0  0  0  0
  9  2  1  0  0  0  0
  2 29  1  0  0  0  0
  1 30  1  0  0  0  0
  5 31  1  0  0  0  0
 31 32  1  0  0  0  0
 31 33  1  0  0  0  0
M  END
> <BIOSOLVEIT.HYDE_ATOM_SCORES [kJ/mol]>
# Atom-ID; Total; Rec-Desolv; Rec-IA; Lig-Desolv; Lig-IA
1;-3.1238;-2.0582;0.0000;-1.0656;0.0000
2;-1.4016;-0.5273;0.0000;-0.8743;0.0000
3;-2.1944;6.8949;-8.0574;7.0254;-8.0574
4;0.0000;0.0000;0.0000;0.0000;0.0000
5;-2.1543;-1.8046;0.0000;-0.3497;0.0000
6;0.1918;-1.7190;0.0000;1.9108;0.0000
7;-0.2233;0.0000;0.0000;-0.2233;0.0000
8;-0.4585;0.0000;0.0000;-0.4585;0.0000
9;-0.0663;0.0000;0.0000;-0.0663;0.0000
10;-0.4782;0.0000;0.0000;-0.4782;0.0000
11;-0.1568;0.0000;0.0000;-0.1568;0.0000
12;-0.2180;0.0000;0.0000;-0.2180;0.0000
13;-0.6804;-0.2699;0.0000;-0.4105;0.0000
14;-2.9273;-1.7637;0.0000;-1.1635;0.0000
15;3.6424;4.7969;0.0000;-1.1545;0.0000
16;1.7714;2.4959;0.0000;-0.7244;0.0000
17;0.0000;0.0000;0.0000;0.0000;0.0000
18;-0.8086;1.6359;-1.7703;8.1774;-8.8515
31;-0.1752;-0.6435;-0.3965;1.5594;-0.6946

> <BIOSOLVEIT.HYDE_ESTIMATED_AFFINITY_LOWER_BOUNDARY [nM]>
1935567.459368

> <BIOSOLVEIT.HYDE_ESTIMATED_AFFINITY_UPPER_BOUNDARY [nM]>
192310071.068747

> <BIOSOLVEIT.HYDE_LIGAND_EFFICIENCY range: ++, +, 0, -, -->
--

> <BIOSOLVEIT.HYDE_LIGAND_LIPOPHILIC_EFFICIENCY range: ++, +, 0, -, -->
--

> <BIOSOLVEIT.INTER_CLASH range: red, yellow, green>
green

> <BIOSOLVEIT.INTRA_CLASH range: red, yellow, green>
green

> <BIOSOLVEIT.LOGP>
1.3295

> <BIOSOLVEIT.MOLECULAR_WEIGHT>
258.28

> <BIOSOLVEIT.MOLECULE_CHECKSUM>
LTkuNzg2OTI7MC41MTUxMDE=

> <BIOSOLVEIT.TORSION_QUALITY range: red, yellow, green, not rotatable>
green

> <BIOSOLVEIT.TPSA>
90.13

> <BIOSOLVEIT.OPTIBRIUM.2D6 affinity category>
medium

> <BIOSOLVEIT.OPTIBRIUM.BBB category>
-

> <BIOSOLVEIT.OPTIBRIUM.2C9 pKi>
4.46703

> <BIOSOLVEIT.OPTIBRIUM.hERG pIC50>
3.85821

> <BIOSOLVEIT.OPTIBRIUM.HIA category>
+

> <BIOSOLVEIT.OPTIBRIUM.BBB log([brain]:[blood])>
-0.555615

> <BIOSOLVEIT.OPTIBRIUM.logD>
0.595003

> <BIOSOLVEIT.OPTIBRIUM.logP>
0.642559

> <BIOSOLVEIT.OPTIBRIUM.logS>
2.45617

> <BIOSOLVEIT.OPTIBRIUM.logS @ pH7.4>
2.19073

> <BIOSOLVEIT.OPTIBRIUM.P-gp category>
yes

> <BIOSOLVEIT.OPTIBRIUM.PPB90 category>
low

$$$$
FLAVI-RDRP-DLS-JA006
dcSeeSAR  09212416393D 1   1.00000     0.00000     0
SeeSAR 13.0.1 dcn76311
 33 35  0  0  0  0            999 V2000
  -16.2463  -40.8879  -26.8320 C   0  0  0  0  0  0  0  0  0  0  0  0
  -17.9703  -42.1505  -25.8816 C   0  0  0  0  0  0  0  0  0  0  0  0
  -17.5072  -41.3450  -26.8486 N   0  0  0  0  0  0  0  0  0  0  0  0
  -17.2595  -44.5944  -21.7421 N   0  0  0  0  0  0  0  0  0  0  0  0
  -15.3809  -41.2411  -25.8021 C   0  0  0  0  0  0  0  0  0  0  0  0
  -18.2433  -46.2652  -22.9558 O   0  0  0  0  0  0  0  0  0  0  0  0
  -15.8387  -42.0759  -24.7877 C   0  0  0  0  0  0  0  0  0  0  0  0
  -15.0281  -42.4678  -23.7278 C   0  0  0  0  0  0  0  0  0  0  0  0
  -17.1500  -42.5377  -24.8267 C   0  0  0  0  0  0  0  0  0  0  0  0
  -17.6068  -43.3708  -23.8113 C   0  0  0  0  0  0  0  0  0  0  0  0
  -16.7550  -43.7332  -22.7742 C   0  0  0  0  0  0  0  0  0  0  0  0
  -17.9458  -45.7577  -21.8815 C   0  0  0  0  0  0  0  0  0  0  0  0
  -18.3538  -46.4431  -20.5824 C   0  0  2  0  0  0  0  0  0  0  0  0
  -19.6834  -45.9499  -20.0554 C   0  0  0  0  0  0  0  0  0  0  0  0
  -19.4914  -45.9967  -18.5527 C   0  0  0  0  0  0  0  0  0  0  0  0
  -18.0264  -45.6984  -18.3933 C   0  0  0  0  0  0  0  0  0  0  0  0
  -15.4949  -43.2727  -22.7614 N   0  0  0  0  0  0  0  0  0  0  0  0
  -17.3737  -46.2345  -19.5465 O   0  0  0  0  0  0  0  0  0  0  0  0
  -17.0833  -44.3005  -20.8025 H   0  0  0  0  0  0  0  0  0  0  0  0
  -14.0166  -42.1218  -23.6824 H   0  0  0  0  0  0  0  0  0  0  0  0
  -18.6135  -43.7328  -23.8282 H   0  0  0  0  0  0  0  0  0  0  0  0
  -18.4325  -47.4943  -20.7658 H   0  0  0  0  0  0  0  0  0  0  0  0
  -20.4814  -46.5936  -20.3616 H   0  0  0  0  0  0  0  0  0  0  0  0
  -19.8826  -44.9522  -20.3869 H   0  0  0  0  0  0  0  0  0  0  0  0
  -19.7321  -46.9640  -18.1636 H   0  0  0  0  0  0  0  0  0  0  0  0
  -20.0905  -45.2568  -18.0645 H   0  0  0  0  0  0  0  0  0  0  0  0
  -17.6493  -46.1627  -17.5061 H   0  0  0  0  0  0  0  0  0  0  0  0
  -17.8686  -44.6416  -18.3375 H   0  0  0  0  0  0  0  0  0  0  0  0
  -18.9811  -42.4991  -25.9217 H   0  0  0  0  0  0  0  0  0  0  0  0
  -15.7868  -40.0280  -27.8849 N   0  0  0  0  0  0  0  0  0  0  0  0
  -14.3754  -40.8754  -25.7901 H   0  0  0  0  0  0  0  0  0  0  0  0
  -14.8475  -39.6850  -27.8762 H   0  0  0  0  0  0  0  0  0  0  0  0
  -16.4057  -39.7718  -28.6273 H   0  0  0  0  0  0  0  0  0  0  0  0
  1  3  1  0  0  0  0
  2  3  2  0  0  0  0
  4 11  1  0  0  0  0
  4 12  1  0  0  0  0
  5  7  1  0  0  0  0
  6 12  2  0  0  0  0
  7  8  1  0  0  0  0
  7  9  2  0  0  0  0
  8 17  2  0  0  0  0
  9 10  1  0  0  0  0
 10 11  2  0  0  0  0
 11 17  1  0  0  0  0
 12 13  1  0  0  0  0
 13 14  1  0  0  0  0
 13 18  1  0  0  0  0
 14 15  1  0  0  0  0
 15 16  1  0  0  0  0
 16 18  1  0  0  0  0
  4 19  1  0  0  0  0
  8 20  1  0  0  0  0
 10 21  1  0  0  0  0
 13 22  1  0  0  0  0
 14 23  1  0  0  0  0
 14 24  1  0  0  0  0
 15 25  1  0  0  0  0
 15 26  1  0  0  0  0
 16 27  1  0  0  0  0
 16 28  1  0  0  0  0
  5  1  2  0  0  0  0
  9  2  1  0  0  0  0
  2 29  1  0  0  0  0
  1 30  1  0  0  0  0
  5 31  1  0  0  0  0
 30 32  1  0  0  0  0
 30 33  1  0  0  0  0
M  END
> <BIOSOLVEIT.HYDE_ATOM_SCORES [kJ/mol]>
# Atom-ID; Total; Rec-Desolv; Rec-IA; Lig-Desolv; Lig-IA
1;-0.1326;0.0000;0.0000;-0.1326;0.0000
2;-1.4781;-0.6995;0.0000;-0.7786;0.0000
3;-0.2337;7.1649;-7.1957;6.9927;-7.1957
4;0.0000;0.0000;0.0000;0.0000;0.0000
5;-3.2489;-2.2415;0.0000;-1.0074;0.0000
6;3.4010;-1.7484;0.0000;5.1494;0.0000
7;-0.0576;0.0000;0.0000;-0.0576;0.0000
8;-1.2522;-0.4015;0.0000;-0.8507;0.0000
9;-0.4684;-0.2615;0.0000;-0.2069;0.0000
10;-0.4259;0.0000;0.0000;-0.4259;0.0000
11;-0.3140;0.0000;0.0000;-0.3140;0.0000
12;-0.2700;0.0000;0.0000;-0.2700;0.0000
13;-0.8292;-0.2699;0.0000;-0.5593;0.0000
14;-3.0835;-1.9050;0.0000;-1.1785;0.0000
15;4.2395;5.2291;0.0000;-0.9896;0.0000
16;1.6814;2.4959;0.0000;-0.8145;0.0000
17;-0.8405;-0.7958;0.0000;-0.0447;0.0000
18;-1.1886;1.6359;-1.8310;8.1616;-9.1550
30;-0.7517;0.9160;-1.8757;7.8089;-7.6009

> <BIOSOLVEIT.HYDE_ESTIMATED_AFFINITY_LOWER_BOUNDARY [nM]>
10814501.404635

> <BIOSOLVEIT.HYDE_ESTIMATED_AFFINITY_UPPER_BOUNDARY [nM]>
1074484654.943118

> <BIOSOLVEIT.HYDE_LIGAND_EFFICIENCY range: ++, +, 0, -, -->
--

> <BIOSOLVEIT.HYDE_LIGAND_LIPOPHILIC_EFFICIENCY range: ++, +, 0, -, -->
--

> <BIOSOLVEIT.INTER_CLASH range: red, yellow, green>
green

> <BIOSOLVEIT.INTRA_CLASH range: red, yellow, green>
green

> <BIOSOLVEIT.LOGP>
1.3295

> <BIOSOLVEIT.MOLECULAR_WEIGHT>
258.28

> <BIOSOLVEIT.MOLECULE_CHECKSUM>
LTUuNTIxOTE7MC4yOTA2Mjc=

> <BIOSOLVEIT.TORSION_QUALITY range: red, yellow, green, not rotatable>
green

> <BIOSOLVEIT.TPSA>
90.13

> <BIOSOLVEIT.OPTIBRIUM.2D6 affinity category>
medium

> <BIOSOLVEIT.OPTIBRIUM.BBB category>
-

> <BIOSOLVEIT.OPTIBRIUM.2C9 pKi>
4.45857

> <BIOSOLVEIT.OPTIBRIUM.hERG pIC50>
3.86102

> <BIOSOLVEIT.OPTIBRIUM.HIA category>
+

> <BIOSOLVEIT.OPTIBRIUM.BBB log([brain]:[blood])>
-0.564178

> <BIOSOLVEIT.OPTIBRIUM.logD>
0.613142

> <BIOSOLVEIT.OPTIBRIUM.logP>
0.642559

> <BIOSOLVEIT.OPTIBRIUM.logS>
2.45617

> <BIOSOLVEIT.OPTIBRIUM.logS @ pH7.4>
2.20463

> <BIOSOLVEIT.OPTIBRIUM.P-gp category>
yes

> <BIOSOLVEIT.OPTIBRIUM.PPB90 category>
low

$$$$
FLAVI-RDRP-DLS-JA007
dcSeeSAR  09212416393D 1   1.00000     0.00000     0
SeeSAR 13.0.1 dcn76311
 32 34  0  0  0  0            999 V2000
  -16.1416  -40.6661  -27.0221 C   0  0  0  0  0  0  0  0  0  0  0  0
  -17.7595  -42.0096  -25.9990 C   0  0  0  0  0  0  0  0  0  0  0  0
  -17.3711  -41.2017  -26.9963 N   0  0  0  0  0  0  0  0  0  0  0  0
  -16.7992  -44.2974  -21.8209 N   0  0  0  0  0  0  0  0  0  0  0  0
  -15.2318  -40.9379  -26.0059 C   0  0  0  0  0  0  0  0  0  0  0  0
  -17.8480  -45.9788  -22.9634 O   0  0  0  0  0  0  0  0  0  0  0  0
  -15.6121  -41.7736  -24.9606 C   0  0  0  0  0  0  0  0  0  0  0  0
  -14.7538  -42.0866  -23.9121 C   0  0  0  0  0  0  0  0  0  0  0  0
  -16.8920  -42.3175  -24.9558 C   0  0  0  0  0  0  0  0  0  0  0  0
  -17.2714  -43.1513  -23.9096 C   0  0  0  0  0  0  0  0  0  0  0  0
  -16.3744  -43.4329  -22.8857 C   0  0  0  0  0  0  0  0  0  0  0  0
  -17.4826  -45.4672  -21.9123 C   0  0  0  0  0  0  0  0  0  0  0  0
  -17.7945  -46.1546  -20.5879 C   0  0  2  0  0  0  0  0  0  0  0  0
  -19.2580  -46.0656  -20.2150 C   0  0  0  0  0  0  0  0  0  0  0  0
  -19.2169  -45.9468  -18.7046 C   0  0  0  0  0  0  0  0  0  0  0  0
  -17.9367  -45.1963  -18.4630 C   0  0  0  0  0  0  0  0  0  0  0  0
  -15.1460  -42.8942  -22.9152 N   0  0  0  0  0  0  0  0  0  0  0  0
  -17.0366  -45.5800  -19.5049 O   0  0  0  0  0  0  0  0  0  0  0  0
  -16.5620  -44.0007  -20.8958 H   0  0  0  0  0  0  0  0  0  0  0  0
  -13.7655  -41.6769  -23.9002 H   0  0  0  0  0  0  0  0  0  0  0  0
  -18.2533  -43.5761  -23.8928 H   0  0  0  0  0  0  0  0  0  0  0  0
  -17.5304  -47.1880  -20.6736 H   0  0  0  0  0  0  0  0  0  0  0  0
  -19.7863  -46.9455  -20.5175 H   0  0  0  0  0  0  0  0  0  0  0  0
  -19.7159  -45.2051  -20.6563 H   0  0  0  0  0  0  0  0  0  0  0  0
  -19.1908  -46.9117  -18.2429 H   0  0  0  0  0  0  0  0  0  0  0  0
  -20.0597  -45.3989  -18.3383 H   0  0  0  0  0  0  0  0  0  0  0  0
  -17.5299  -45.4577  -17.5085 H   0  0  0  0  0  0  0  0  0  0  0  0
  -18.1145  -44.1418  -18.4982 H   0  0  0  0  0  0  0  0  0  0  0  0
  -18.7470  -42.4218  -26.0056 H   0  0  0  0  0  0  0  0  0  0  0  0
  -15.7752  -39.8362  -28.0688 O   0  0  0  0  0  0  0  0  0  0  0  0
  -14.2515  -40.5097  -26.0277 H   0  0  0  0  0  0  0  0  0  0  0  0
  -16.3992  -39.6960  -28.8376 H   0  0  0  0  0  0  0  0  0  0  0  0
  1  3  1  0  0  0  0
  2  3  2  0  0  0  0
  4 11  1  0  0  0  0
  4 12  1  0  0  0  0
  5  7  1  0  0  0  0
  6 12  2  0  0  0  0
  7  8  1  0  0  0  0
  7  9  2  0  0  0  0
  8 17  2  0  0  0  0
  9 10  1  0  0  0  0
 10 11  2  0  0  0  0
 11 17  1  0  0  0  0
 12 13  1  0  0  0  0
 13 14  1  0  0  0  0
 13 18  1  0  0  0  0
 14 15  1  0  0  0  0
 15 16  1  0  0  0  0
 16 18  1  0  0  0  0
  4 19  1  0  0  0  0
  8 20  1  0  0  0  0
 10 21  1  0  0  0  0
 13 22  1  0  0  0  0
 14 23  1  0  0  0  0
 14 24  1  0  0  0  0
 15 25  1  0  0  0  0
 15 26  1  0  0  0  0
 16 27  1  0  0  0  0
 16 28  1  0  0  0  0
  5  1  2  0  0  0  0
  9  2  1  0  0  0  0
  2 29  1  0  0  0  0
  1 30  1  0  0  0  0
  5 31  1  0  0  0  0
 30 32  1  0  0  0  0
M  END
> <BIOSOLVEIT.HYDE_ATOM_SCORES [kJ/mol]>
# Atom-ID; Total; Rec-Desolv; Rec-IA; Lig-Desolv; Lig-IA
1;-0.1610;0.0000;0.0000;-0.1610;0.0000
2;-1.7009;-0.8317;0.0000;-0.8691;0.0000
3;-0.6711;7.1338;-7.3935;6.9820;-7.3935
4;0.0000;0.0000;0.0000;0.0000;0.0000
5;-2.4827;-1.4608;0.0000;-1.0219;0.0000
6;1.0119;-1.7710;0.0000;2.7829;0.0000
7;-0.0914;0.0000;0.0000;-0.0914;0.0000
8;-2.0807;-1.1753;0.0000;-0.9054;0.0000
9;-0.1079;0.0000;0.0000;-0.1079;0.0000
10;-0.5160;0.0000;0.0000;-0.5160;0.0000
11;-0.2986;0.0000;0.0000;-0.2986;0.0000
12;-0.2526;0.0000;0.0000;-0.2526;0.0000
13;-0.3237;0.0000;0.0000;-0.3237;0.0000
14;-3.0157;-1.7348;0.0000;-1.2809;0.0000
15;3.6451;4.6107;0.0000;-0.9656;0.0000
16;1.9011;2.4874;0.0000;-0.5862;0.0000
17;-0.4971;-0.4524;0.0000;-0.0447;0.0000
18;-2.8854;8.1795;-9.6222;8.1795;-9.6222
30;-2.8174;-0.2706;-1.9746;4.3038;-4.8760

> <BIOSOLVEIT.HYDE_ESTIMATED_AFFINITY_LOWER_BOUNDARY [nM]>
905593.551882

> <BIOSOLVEIT.HYDE_ESTIMATED_AFFINITY_UPPER_BOUNDARY [nM]>
89976073.672336

> <BIOSOLVEIT.HYDE_LIGAND_EFFICIENCY range: ++, +, 0, -, -->
--

> <BIOSOLVEIT.HYDE_LIGAND_LIPOPHILIC_EFFICIENCY range: ++, +, 0, -, -->
--

> <BIOSOLVEIT.INTER_CLASH range: red, yellow, green>
green

> <BIOSOLVEIT.INTRA_CLASH range: red, yellow, green>
green

> <BIOSOLVEIT.LOGP>
1.4529

> <BIOSOLVEIT.MOLECULAR_WEIGHT>
259.264

> <BIOSOLVEIT.MOLECULE_CHECKSUM>
LTExLjY2OTk7MC42MTQyMDM=

> <BIOSOLVEIT.TORSION_QUALITY range: red, yellow, green, not rotatable>
green

> <BIOSOLVEIT.TPSA>
84.34

> <BIOSOLVEIT.OPTIBRIUM.2D6 affinity category>
low

> <BIOSOLVEIT.OPTIBRIUM.BBB category>
-

> <BIOSOLVEIT.OPTIBRIUM.2C9 pKi>
4.61416

> <BIOSOLVEIT.OPTIBRIUM.hERG pIC50>
4.12899

> <BIOSOLVEIT.OPTIBRIUM.HIA category>
+

> <BIOSOLVEIT.OPTIBRIUM.BBB log([brain]:[blood])>
-0.882491

> <BIOSOLVEIT.OPTIBRIUM.logD>
0.87975

> <BIOSOLVEIT.OPTIBRIUM.logP>
0.87975

> <BIOSOLVEIT.OPTIBRIUM.logS>
2.3245

> <BIOSOLVEIT.OPTIBRIUM.logS @ pH7.4>
2.3245

> <BIOSOLVEIT.OPTIBRIUM.P-gp category>
yes

> <BIOSOLVEIT.OPTIBRIUM.PPB90 category>
low

$$$$
FLAVI-RDRP-DLS-JA008
dcSeeSAR  09212416393D 1   1.00000     0.00000     0
SeeSAR 13.0.1 dcn76311
 33 35  0  0  0  0            999 V2000
  -16.1395  -40.6539  -27.0407 C   0  0  0  0  0  0  0  0  0  0  0  0
  -17.7417  -42.0022  -25.9994 C   0  0  0  0  0  0  0  0  0  0  0  0
  -17.3649  -41.1982  -27.0043 N   0  0  0  0  0  0  0  0  0  0  0  0
  -16.7410  -44.2547  -21.8116 N   0  0  0  0  0  0  0  0  0  0  0  0
  -15.2220  -40.9122  -26.0280 C   0  0  0  0  0  0  0  0  0  0  0  0
  -17.7587  -45.9656  -22.9385 O   0  0  0  0  0  0  0  0  0  0  0  0
  -15.5902  -41.7436  -24.9749 C   0  0  0  0  0  0  0  0  0  0  0  0
  -14.7237  -42.0432  -23.9293 C   0  0  0  0  0  0  0  0  0  0  0  0
  -16.8661  -42.2967  -24.9592 C   0  0  0  0  0  0  0  0  0  0  0  0
  -17.2334  -43.1263  -23.9052 C   0  0  0  0  0  0  0  0  0  0  0  0
  -16.3285  -43.3945  -22.8846 C   0  0  0  0  0  0  0  0  0  0  0  0
  -17.4043  -45.4368  -21.8921 C   0  0  0  0  0  0  0  0  0  0  0  0
  -17.7062  -46.1128  -20.5663 C   0  0  2  0  0  0  0  0  0  0  0  0
  -19.1716  -45.9756  -20.2165 C   0  0  0  0  0  0  0  0  0  0  0  0
  -19.1171  -45.9640  -18.7034 C   0  0  0  0  0  0  0  0  0  0  0  0
  -17.9032  -45.1006  -18.4496 C   0  0  0  0  0  0  0  0  0  0  0  0
  -15.1043  -42.8470  -22.9248 N   0  0  0  0  0  0  0  0  0  0  0  0
  -16.9358  -45.4972  -19.4784 N   0  0  0  0  0  0  0  0  0  0  0  0
  -16.5108  -43.9445  -20.8893 H   0  0  0  0  0  0  0  0  0  0  0  0
  -13.7383  -41.6263  -23.9258 H   0  0  0  0  0  0  0  0  0  0  0  0
  -18.2121  -43.5580  -23.8800 H   0  0  0  0  0  0  0  0  0  0  0  0
  -17.4547  -47.1507  -20.6337 H   0  0  0  0  0  0  0  0  0  0  0  0
  -19.7406  -46.8052  -20.5814 H   0  0  0  0  0  0  0  0  0  0  0  0
  -19.5822  -45.0651  -20.6005 H   0  0  0  0  0  0  0  0  0  0  0  0
  -18.9839  -46.9501  -18.3098 H   0  0  0  0  0  0  0  0  0  0  0  0
  -20.0002  -45.5290  -18.2842 H   0  0  0  0  0  0  0  0  0  0  0  0
  -17.5090  -45.2833  -17.4718 H   0  0  0  0  0  0  0  0  0  0  0  0
  -18.1516  -44.0643  -18.5461 H   0  0  0  0  0  0  0  0  0  0  0  0
  -18.7261  -42.4217  -25.9976 H   0  0  0  0  0  0  0  0  0  0  0  0
  -15.7852  -39.8285  -28.0950 O   0  0  0  0  0  0  0  0  0  0  0  0
  -14.2450  -40.4770  -26.0583 H   0  0  0  0  0  0  0  0  0  0  0  0
  -16.4186  -39.6902  -28.8564 H   0  0  0  0  0  0  0  0  0  0  0  0
  -16.2835  -46.1554  -19.1026 H   0  0  0  0  0  0  0  0  0  0  0  0
  1  3  1  0  0  0  0
  2  3  2  0  0  0  0
  4 11  1  0  0  0  0
  4 12  1  0  0  0  0
  5  7  1  0  0  0  0
  6 12  2  0  0  0  0
  7  8  1  0  0  0  0
  7  9  2  0  0  0  0
  8 17  2  0  0  0  0
  9 10  1  0  0  0  0
 10 11  2  0  0  0  0
 11 17  1  0  0  0  0
 12 13  1  0  0  0  0
 13 14  1  0  0  0  0
 13 18  1  0  0  0  0
 14 15  1  0  0  0  0
 15 16  1  0  0  0  0
 16 18  1  0  0  0  0
  4 19  1  0  0  0  0
  8 20  1  0  0  0  0
 10 21  1  0  0  0  0
 13 22  1  0  0  0  0
 14 23  1  0  0  0  0
 14 24  1  0  0  0  0
 15 25  1  0  0  0  0
 15 26  1  0  0  0  0
 16 27  1  0  0  0  0
 16 28  1  0  0  0  0
  5  1  2  0  0  0  0
  9  2  1  0  0  0  0
  2 29  1  0  0  0  0
  1 30  1  0  0  0  0
  5 31  1  0  0  0  0
 30 32  1  0  0  0  0
 18 33  1  0  0  0  0
M  END
> <BIOSOLVEIT.HYDE_ATOM_SCORES [kJ/mol]>
# Atom-ID; Total; Rec-Desolv; Rec-IA; Lig-Desolv; Lig-IA
1;-0.1609;0.0000;0.0000;-0.1609;0.0000
2;-1.7127;-0.8435;0.0000;-0.8691;0.0000
3;-0.8437;7.1338;-7.4798;6.9820;-7.4798
4;0.0000;0.0000;0.0000;0.0000;0.0000
5;-2.4892;-1.4673;0.0000;-1.0219;0.0000
6;0.6188;-2.3057;0.0000;2.9245;0.0000
7;-0.0914;0.0000;0.0000;-0.0914;0.0000
8;-2.2010;-1.2583;0.0000;-0.9427;0.0000
9;-0.1079;0.0000;0.0000;-0.1079;0.0000
10;-0.4776;0.0000;0.0000;-0.4776;0.0000
11;-0.3002;0.0000;0.0000;-0.3002;0.0000
12;-0.2507;0.0000;0.0000;-0.2507;0.0000
13;-0.2705;0.0000;0.0000;-0.2705;0.0000
14;-2.5729;-1.3787;0.0000;-1.1942;0.0000
15;3.5220;4.5608;0.0000;-1.0387;0.0000
16;1.9230;2.4662;0.0000;-0.5432;0.0000
17;0.1060;0.1507;0.0000;-0.0447;0.0000
18;-2.1161;1.6359;-1.9244;10.3626;-12.1902
30;-2.9067;-0.3326;-1.9825;4.3038;-4.8955

> <BIOSOLVEIT.HYDE_ESTIMATED_AFFINITY_LOWER_BOUNDARY [nM]>
1362355.021592

> <BIOSOLVEIT.HYDE_ESTIMATED_AFFINITY_UPPER_BOUNDARY [nM]>
135358026.275563

> <BIOSOLVEIT.HYDE_LIGAND_EFFICIENCY range: ++, +, 0, -, -->
--

> <BIOSOLVEIT.HYDE_LIGAND_LIPOPHILIC_EFFICIENCY range: ++, +, 0, -, -->
--

> <BIOSOLVEIT.INTER_CLASH range: red, yellow, green>
green

> <BIOSOLVEIT.INTRA_CLASH range: red, yellow, green>
green

> <BIOSOLVEIT.LOGP>
1.0259

> <BIOSOLVEIT.MOLECULAR_WEIGHT>
258.28

> <BIOSOLVEIT.MOLECULE_CHECKSUM>
LTEwLjY1NzU7MC41NjA5MjE=

> <BIOSOLVEIT.TORSION_QUALITY range: red, yellow, green, not rotatable>
green

> <BIOSOLVEIT.TPSA>
87.14

> <BIOSOLVEIT.OPTIBRIUM.2D6 affinity category>
low

> <BIOSOLVEIT.OPTIBRIUM.BBB category>
-

> <BIOSOLVEIT.OPTIBRIUM.2C9 pKi>
4.46916

> <BIOSOLVEIT.OPTIBRIUM.hERG pIC50>
4.33271

> <BIOSOLVEIT.OPTIBRIUM.HIA category>
+

> <BIOSOLVEIT.OPTIBRIUM.BBB log([brain]:[blood])>
-0.491523

> <BIOSOLVEIT.OPTIBRIUM.logD>
-0.33679

> <BIOSOLVEIT.OPTIBRIUM.logP>
0.418201

> <BIOSOLVEIT.OPTIBRIUM.logS>
3.59914

> <BIOSOLVEIT.OPTIBRIUM.logS @ pH7.4>
2.76018

> <BIOSOLVEIT.OPTIBRIUM.P-gp category>
yes

> <BIOSOLVEIT.OPTIBRIUM.PPB90 category>
low

$$$$
FLAVI-RDRP-DLS-JA009
dcSeeSAR  09212416393D 1   1.00000     0.00000     0
SeeSAR 13.0.1 dcn76311
 31 33  0  0  0  0            999 V2000
  -16.1525  -40.6503  -27.0031 C   0  0  0  0  0  0  0  0  0  0  0  0
  -17.7736  -42.0164  -26.0153 C   0  0  0  0  0  0  0  0  0  0  0  0
  -17.3822  -41.1862  -26.9930 N   0  0  0  0  0  0  0  0  0  0  0  0
  -16.8256  -44.3983  -21.8873 N   0  0  0  0  0  0  0  0  0  0  0  0
  -15.2457  -40.9453  -25.9906 C   0  0  0  0  0  0  0  0  0  0  0  0
  -17.9650  -45.9970  -23.0611 O   0  0  0  0  0  0  0  0  0  0  0  0
  -15.6291  -41.8043  -24.9657 C   0  0  0  0  0  0  0  0  0  0  0  0
  -14.7740  -42.1411  -23.9220 C   0  0  0  0  0  0  0  0  0  0  0  0
  -16.9092  -42.3479  -24.9768 C   0  0  0  0  0  0  0  0  0  0  0  0
  -17.2916  -43.2052  -23.9509 C   0  0  0  0  0  0  0  0  0  0  0  0
  -16.3976  -43.5100  -22.9310 C   0  0  0  0  0  0  0  0  0  0  0  0
  -17.5535  -45.5386  -22.0025 C   0  0  0  0  0  0  0  0  0  0  0  0
  -17.8552  -46.2636  -20.6967 C   0  0  2  0  0  0  0  0  0  0  0  0
  -19.2535  -45.9616  -20.1991 C   0  0  0  0  0  0  0  0  0  0  0  0
  -19.0665  -46.2336  -18.7784 N   0  0  0  0  0  0  0  0  0  0  0  0
  -17.8173  -45.5025  -18.5413 C   0  0  0  0  0  0  0  0  0  0  0  0
  -15.1691  -42.9710  -22.9449 N   0  0  0  0  0  0  0  0  0  0  0  0
  -16.9980  -45.8387  -19.6505 O   0  0  0  0  0  0  0  0  0  0  0  0
  -16.5533  -44.1453  -20.9588 H   0  0  0  0  0  0  0  0  0  0  0  0
  -13.7855  -41.7320  -23.8980 H   0  0  0  0  0  0  0  0  0  0  0  0
  -18.2736  -43.6300  -23.9466 H   0  0  0  0  0  0  0  0  0  0  0  0
  -17.7474  -47.3183  -20.8406 H   0  0  0  0  0  0  0  0  0  0  0  0
  -19.9823  -46.6108  -20.6374 H   0  0  0  0  0  0  0  0  0  0  0  0
  -19.5296  -44.9434  -20.3777 H   0  0  0  0  0  0  0  0  0  0  0  0
  -17.3624  -45.8167  -17.6252 H   0  0  0  0  0  0  0  0  0  0  0  0
  -17.9958  -44.4481  -18.5077 H   0  0  0  0  0  0  0  0  0  0  0  0
  -18.7610  -42.4281  -26.0340 H   0  0  0  0  0  0  0  0  0  0  0  0
  -15.7832  -39.7971  -28.0296 O   0  0  0  0  0  0  0  0  0  0  0  0
  -14.2653  -40.5168  -25.9999 H   0  0  0  0  0  0  0  0  0  0  0  0
  -16.3897  -39.6664  -28.8137 H   0  0  0  0  0  0  0  0  0  0  0  0
  -19.8190  -45.8707  -18.2289 H   0  0  0  0  0  0  0  0  0  0  0  0
  1  3  1  0  0  0  0
  2  3  2  0  0  0  0
  4 11  1  0  0  0  0
  4 12  1  0  0  0  0
  5  7  1  0  0  0  0
  6 12  2  0  0  0  0
  7  8  1  0  0  0  0
  7  9  2  0  0  0  0
  8 17  2  0  0  0  0
  9 10  1  0  0  0  0
 10 11  2  0  0  0  0
 11 17  1  0  0  0  0
 12 13  1  0  0  0  0
 13 14  1  0  0  0  0
 13 18  1  0  0  0  0
 14 15  1  0  0  0  0
 15 16  1  0  0  0  0
 16 18  1  0  0  0  0
  4 19  1  0  0  0  0
  8 20  1  0  0  0  0
 10 21  1  0  0  0  0
 13 22  1  0  0  0  0
 14 23  1  0  0  0  0
 14 24  1  0  0  0  0
 16 25  1  0  0  0  0
 16 26  1  0  0  0  0
  5  1  2  0  0  0  0
  9  2  1  0  0  0  0
  2 27  1  0  0  0  0
  1 28  1  0  0  0  0
  5 29  1  0  0  0  0
 28 30  1  0  0  0  0
 15 31  1  0  0  0  0
M  END
> <BIOSOLVEIT.HYDE_ATOM_SCORES [kJ/mol]>
# Atom-ID; Total; Rec-Desolv; Rec-IA; Lig-Desolv; Lig-IA
1;-0.1610;0.0000;0.0000;-0.1610;0.0000
2;-1.6642;-0.7579;0.0000;-0.9064;0.0000
3;0.1381;7.1338;-6.9888;6.9820;-6.9888
4;0.0000;0.0000;0.0000;0.0000;0.0000
5;-3.2698;-2.2106;0.0000;-1.0592;0.0000
6;0.7177;-1.8479;0.0000;2.5655;0.0000
7;-0.0914;0.0000;0.0000;-0.0914;0.0000
8;-2.0238;-1.1184;0.0000;-0.9054;0.0000
9;-0.1079;0.0000;0.0000;-0.1079;0.0000
10;-0.5573;0.0000;0.0000;-0.5573;0.0000
11;-0.2931;0.0000;0.0000;-0.2931;0.0000
12;-0.3010;0.0000;0.0000;-0.3010;0.0000
13;-0.4173;0.0000;0.0000;-0.4173;0.0000
14;-2.4982;-1.2978;0.0000;-1.2004;0.0000
15;4.7412;1.9985;0.0000;2.7427;0.0000
16;1.8837;2.4697;0.0000;-0.5860;0.0000
17;-0.5521;-0.5074;0.0000;-0.0447;0.0000
18;-1.5177;1.6359;-1.8888;8.1795;-9.4442
28;-1.8681;0.4947;-1.9260;4.3192;-4.7560

> <BIOSOLVEIT.HYDE_ESTIMATED_AFFINITY_LOWER_BOUNDARY [nM]>
3719168.579780

> <BIOSOLVEIT.HYDE_ESTIMATED_AFFINITY_UPPER_BOUNDARY [nM]>
369521387.866045

> <BIOSOLVEIT.HYDE_LIGAND_EFFICIENCY range: ++, +, 0, -, -->
--

> <BIOSOLVEIT.HYDE_LIGAND_LIPOPHILIC_EFFICIENCY range: ++, +, 0, -, -->
--

> <BIOSOLVEIT.INTER_CLASH range: red, yellow, green>
green

> <BIOSOLVEIT.INTRA_CLASH range: red, yellow, green>
green

> <BIOSOLVEIT.LOGP>
0.2198

> <BIOSOLVEIT.MOLECULAR_WEIGHT>
260.252

> <BIOSOLVEIT.MOLECULE_CHECKSUM>
LTguMTY3OTI7MC40Mjk4OQ==

> <BIOSOLVEIT.TORSION_QUALITY range: red, yellow, green, not rotatable>
green

> <BIOSOLVEIT.TPSA>
96.37

> <BIOSOLVEIT.OPTIBRIUM.2D6 affinity category>
low

> <BIOSOLVEIT.OPTIBRIUM.BBB category>
-

> <BIOSOLVEIT.OPTIBRIUM.2C9 pKi>
4.29198

> <BIOSOLVEIT.OPTIBRIUM.hERG pIC50>
3.738

> <BIOSOLVEIT.OPTIBRIUM.HIA category>
+

> <BIOSOLVEIT.OPTIBRIUM.BBB log([brain]:[blood])>
-0.550637

> <BIOSOLVEIT.OPTIBRIUM.logD>
-0.0907639

> <BIOSOLVEIT.OPTIBRIUM.logP>
0.0287948

> <BIOSOLVEIT.OPTIBRIUM.logS>
3.48859

> <BIOSOLVEIT.OPTIBRIUM.logS @ pH7.4>
2.77949

> <BIOSOLVEIT.OPTIBRIUM.P-gp category>
no

> <BIOSOLVEIT.OPTIBRIUM.PPB90 category>
low

$$$$
FLAVI-RDRP-DLS-JA010
dcSeeSAR  09212416393D 1   1.00000     0.00000     0
SeeSAR 13.0.1 dcn76311
 31 33  0  0  0  0            999 V2000
  -16.2531  -40.7693  -26.7822 C   0  0  0  0  0  0  0  0  0  0  0  0
  -17.8565  -42.1514  -25.7878 C   0  0  0  0  0  0  0  0  0  0  0  0
  -17.4617  -41.3512  -26.7889 N   0  0  0  0  0  0  0  0  0  0  0  0
  -16.9679  -44.3078  -21.5248 N   0  0  0  0  0  0  0  0  0  0  0  0
  -15.3725  -40.9835  -25.7272 C   0  0  0  0  0  0  0  0  0  0  0  0
  -17.9761  -46.0167  -22.6630 O   0  0  0  0  0  0  0  0  0  0  0  0
  -15.7599  -41.8099  -24.6773 C   0  0  0  0  0  0  0  0  0  0  0  0
  -14.9304  -42.0664  -23.5910 C   0  0  0  0  0  0  0  0  0  0  0  0
  -17.0177  -42.4024  -24.7066 C   0  0  0  0  0  0  0  0  0  0  0  0
  -17.4043  -43.2271  -23.6558 C   0  0  0  0  0  0  0  0  0  0  0  0
  -16.5363  -43.4513  -22.5933 C   0  0  0  0  0  0  0  0  0  0  0  0
  -17.6348  -45.4873  -21.6126 C   0  0  0  0  0  0  0  0  0  0  0  0
  -17.9590  -46.1602  -20.2886 C   0  0  2  0  0  0  0  0  0  0  0  0
  -19.2175  -45.5742  -19.6843 C   0  0  0  0  0  0  0  0  0  0  0  0
  -18.9356  -45.8316  -18.2254 C   0  0  0  0  0  0  0  0  0  0  0  0
  -17.5608  -45.3410  -18.1885 N   0  0  0  0  0  0  0  0  0  0  0  0
  -15.3289  -42.8664  -22.5905 N   0  0  0  0  0  0  0  0  0  0  0  0
  -16.9458  -45.9459  -19.3247 O   0  0  0  0  0  0  0  0  0  0  0  0
  -16.7498  -43.9966  -20.5997 H   0  0  0  0  0  0  0  0  0  0  0  0
  -13.9593  -41.6188  -23.5525 H   0  0  0  0  0  0  0  0  0  0  0  0
  -18.3694  -43.6889  -23.6649 H   0  0  0  0  0  0  0  0  0  0  0  0
  -18.0909  -47.2108  -20.4429 H   0  0  0  0  0  0  0  0  0  0  0  0
  -20.0961  -46.0858  -20.0175 H   0  0  0  0  0  0  0  0  0  0  0  0
  -19.3119  -44.5293  -19.8944 H   0  0  0  0  0  0  0  0  0  0  0  0
  -18.8268  -42.6013  -25.8209 H   0  0  0  0  0  0  0  0  0  0  0  0
  -15.8794  -39.9493  -27.8339 O   0  0  0  0  0  0  0  0  0  0  0  0
  -14.4089  -40.5183  -25.7231 H   0  0  0  0  0  0  0  0  0  0  0  0
  -16.5041  -39.8041  -28.6011 H   0  0  0  0  0  0  0  0  0  0  0  0
  -19.0009  -46.8706  -17.9781 H   0  0  0  0  0  0  0  0  0  0  0  0
  -19.5824  -45.2709  -17.5835 H   0  0  0  0  0  0  0  0  0  0  0  0
  -17.5376  -44.3438  -18.2609 H   0  0  0  0  0  0  0  0  0  0  0  0
  1  3  1  0  0  0  0
  2  3  2  0  0  0  0
  4 11  1  0  0  0  0
  4 12  1  0  0  0  0
  5  7  1  0  0  0  0
  6 12  2  0  0  0  0
  7  8  1  0  0  0  0
  7  9  2  0  0  0  0
  8 17  2  0  0  0  0
  9 10  1  0  0  0  0
 10 11  2  0  0  0  0
 11 17  1  0  0  0  0
 12 13  1  0  0  0  0
 13 14  1  0  0  0  0
 13 18  1  0  0  0  0
 14 15  1  0  0  0  0
 15 16  1  0  0  0  0
 16 18  1  0  0  0  0
  4 19  1  0  0  0  0
  8 20  1  0  0  0  0
 10 21  1  0  0  0  0
 13 22  1  0  0  0  0
 14 23  1  0  0  0  0
 14 24  1  0  0  0  0
  5  1  2  0  0  0  0
  9  2  1  0  0  0  0
  2 25  1  0  0  0  0
  1 26  1  0  0  0  0
  5 27  1  0  0  0  0
 26 28  1  0  0  0  0
 15 29  1  0  0  0  0
 15 30  1  0  0  0  0
 16 31  1  0  0  0  0
M  END
> <BIOSOLVEIT.HYDE_ATOM_SCORES [kJ/mol]>
# Atom-ID; Total; Rec-Desolv; Rec-IA; Lig-Desolv; Lig-IA
1;-0.1532;0.0000;0.0000;-0.1532;0.0000
2;-1.7171;-0.8480;0.0000;-0.8691;0.0000
3;-2.0176;7.1649;-8.0962;7.0100;-8.0962
4;0.0000;0.0000;0.0000;0.0000;0.0000
5;-3.1346;-2.2588;0.0000;-0.8758;0.0000
6;1.1066;-2.0744;0.0000;3.1811;0.0000
7;-0.0582;0.0000;0.0000;-0.0582;0.0000
8;-1.3817;-0.6453;0.0000;-0.7364;0.0000
9;-0.2553;-0.1475;0.0000;-0.1078;0.0000
10;-0.4719;0.0000;0.0000;-0.4719;0.0000
11;-0.1983;0.0000;0.0000;-0.1983;0.0000
12;-0.1950;0.0000;0.0000;-0.1950;0.0000
13;-0.5754;-0.1354;0.0000;-0.4400;0.0000
14;-1.4586;-0.6624;0.0000;-0.7962;0.0000
15;5.6315;6.9043;0.0000;-1.2728;0.0000
16;-3.3123;6.9439;-8.4286;10.3626;-12.1902
17;-0.4897;-0.4746;0.0000;-0.0151;0.0000
18;-2.8960;8.1795;-9.6222;8.1689;-9.6222
26;-1.2995;0.8892;-1.8875;4.3597;-4.6609

> <BIOSOLVEIT.HYDE_ESTIMATED_AFFINITY_LOWER_BOUNDARY [nM]>
499450.722295

> <BIOSOLVEIT.HYDE_ESTIMATED_AFFINITY_UPPER_BOUNDARY [nM]>
49623382.246420

> <BIOSOLVEIT.HYDE_LIGAND_EFFICIENCY range: ++, +, 0, -, -->
--

> <BIOSOLVEIT.HYDE_LIGAND_LIPOPHILIC_EFFICIENCY range: ++, +, 0, -, -->
--

> <BIOSOLVEIT.INTER_CLASH range: red, yellow, green>
green

> <BIOSOLVEIT.INTRA_CLASH range: red, yellow, green>
green

> <BIOSOLVEIT.LOGP>
0.5674

> <BIOSOLVEIT.MOLECULAR_WEIGHT>
260.252

> <BIOSOLVEIT.MOLECULE_CHECKSUM>
LTEzLjE0NTswLjY5MTg0NA==

> <BIOSOLVEIT.TORSION_QUALITY range: red, yellow, green, not rotatable>
green

> <BIOSOLVEIT.TPSA>
96.37

> <BIOSOLVEIT.OPTIBRIUM.2D6 affinity category>
low

> <BIOSOLVEIT.OPTIBRIUM.BBB category>
-

> <BIOSOLVEIT.OPTIBRIUM.2C9 pKi>
4.26294

> <BIOSOLVEIT.OPTIBRIUM.hERG pIC50>
3.57873

> <BIOSOLVEIT.OPTIBRIUM.HIA category>
+

> <BIOSOLVEIT.OPTIBRIUM.BBB log([brain]:[blood])>
-1.02658

> <BIOSOLVEIT.OPTIBRIUM.logD>
0.572019

> <BIOSOLVEIT.OPTIBRIUM.logP>
0.572019

> <BIOSOLVEIT.OPTIBRIUM.logS>
2.15997

> <BIOSOLVEIT.OPTIBRIUM.logS @ pH7.4>
2.15997

> <BIOSOLVEIT.OPTIBRIUM.P-gp category>
yes

> <BIOSOLVEIT.OPTIBRIUM.PPB90 category>
low

$$$$
FLAVI-RDRP-DLS-JA011
dcSeeSAR  09212416393D 1   1.00000     0.00000     0
SeeSAR 13.0.1 dcn76311
 33 35  0  0  0  0            999 V2000
  -16.2974  -40.7499  -26.8502 C   0  0  0  0  0  0  0  0  0  0  0  0
  -17.9938  -41.9231  -25.7476 C   0  0  0  0  0  0  0  0  0  0  0  0
  -17.5447  -41.2420  -26.8118 N   0  0  0  0  0  0  0  0  0  0  0  0
  -17.2527  -43.7645  -21.3129 N   0  0  0  0  0  0  0  0  0  0  0  0
  -15.4321  -40.9356  -25.7773 C   0  0  0  0  0  0  0  0  0  0  0  0
  -17.3858  -45.7179  -22.5995 C   0  0  0  0  0  0  0  0  0  0  0  0
  -15.8756  -41.6393  -24.6620 C   0  0  0  0  0  0  0  0  0  0  0  0
  -15.0642  -41.8607  -23.5545 C   0  0  0  0  0  0  0  0  0  0  0  0
  -17.1728  -42.1404  -24.6455 C   0  0  0  0  0  0  0  0  0  0  0  0
  -17.6153  -42.8421  -23.5296 C   0  0  0  0  0  0  0  0  0  0  0  0
  -16.7634  -43.0363  -22.4484 C   0  0  0  0  0  0  0  0  0  0  0  0
  -17.5230  -45.1031  -21.4223 C   0  0  0  0  0  0  0  0  0  0  0  0
  -17.9790  -45.8886  -20.2034 C   0  0  2  0  0  0  0  0  0  0  0  0
  -19.2798  -45.3323  -19.6643 C   0  0  0  0  0  0  0  0  0  0  0  0
  -19.1391  -45.7307  -18.2165 C   0  0  0  0  0  0  0  0  0  0  0  0
  -17.7668  -45.2773  -18.0075 N   0  0  0  0  0  0  0  0  0  0  0  0
  -15.5171  -42.5414  -22.4909 N   0  0  0  0  0  0  0  0  0  0  0  0
  -17.0572  -45.7881  -19.1348 O   0  0  0  0  0  0  0  0  0  0  0  0
  -17.3964  -43.2950  -20.4418 H   0  0  0  0  0  0  0  0  0  0  0  0
  -14.0634  -41.4824  -23.5506 H   0  0  0  0  0  0  0  0  0  0  0  0
  -18.6112  -43.2325  -23.5031 H   0  0  0  0  0  0  0  0  0  0  0  0
  -18.1109  -46.9169  -20.4680 H   0  0  0  0  0  0  0  0  0  0  0  0
  -20.1307  -45.7904  -20.1235 H   0  0  0  0  0  0  0  0  0  0  0  0
  -19.3393  -44.2705  -19.7821 H   0  0  0  0  0  0  0  0  0  0  0  0
  -18.9939  -42.3035  -25.7459 H   0  0  0  0  0  0  0  0  0  0  0  0
  -15.8680  -40.0518  -27.9667 O   0  0  0  0  0  0  0  0  0  0  0  0
  -14.4376  -40.5422  -25.8092 H   0  0  0  0  0  0  0  0  0  0  0  0
  -16.5059  -39.8606  -28.7126 H   0  0  0  0  0  0  0  0  0  0  0  0
  -19.2421  -46.7864  -18.0758 H   0  0  0  0  0  0  0  0  0  0  0  0
  -19.8350  -45.2173  -17.5864 H   0  0  0  0  0  0  0  0  0  0  0  0
  -17.7227  -44.2787  -17.9828 H   0  0  0  0  0  0  0  0  0  0  0  0
  -17.5969  -46.7633  -22.6849 H   0  0  0  0  0  0  0  0  0  0  0  0
  -17.0647  -45.1650  -23.4575 H   0  0  0  0  0  0  0  0  0  0  0  0
  1  3  1  0  0  0  0
  2  3  2  0  0  0  0
  4 11  1  0  0  0  0
  4 12  1  0  0  0  0
  5  7  1  0  0  0  0
  6 12  2  0  0  0  0
  7  8  1  0  0  0  0
  7  9  2  0  0  0  0
  8 17  2  0  0  0  0
  9 10  1  0  0  0  0
 10 11  2  0  0  0  0
 11 17  1  0  0  0  0
 12 13  1  0  0  0  0
 13 14  1  0  0  0  0
 13 18  1  0  0  0  0
 14 15  1  0  0  0  0
 15 16  1  0  0  0  0
 16 18  1  0  0  0  0
  4 19  1  0  0  0  0
  8 20  1  0  0  0  0
 10 21  1  0  0  0  0
 13 22  1  0  0  0  0
 14 23  1  0  0  0  0
 14 24  1  0  0  0  0
  5  1  2  0  0  0  0
  9  2  1  0  0  0  0
  2 25  1  0  0  0  0
  1 26  1  0  0  0  0
  5 27  1  0  0  0  0
 26 28  1  0  0  0  0
 15 29  1  0  0  0  0
 15 30  1  0  0  0  0
 16 31  1  0  0  0  0
  6 32  1  0  0  0  0
  6 33  1  0  0  0  0
M  END
> <BIOSOLVEIT.HYDE_ATOM_SCORES [kJ/mol]>
# Atom-ID; Total; Rec-Desolv; Rec-IA; Lig-Desolv; Lig-IA
1;-0.1331;0.0000;0.0000;-0.1331;0.0000
2;-0.7979;-0.0922;0.0000;-0.7057;0.0000
3;-2.3248;6.5944;-7.9540;6.9887;-7.9540
4;0.0000;0.0000;0.0000;0.0000;0.0000
5;-2.9335;-1.9270;0.0000;-1.0065;0.0000
6;-2.5549;-1.1918;0.0000;-1.3630;0.0000
7;-0.0250;0.0000;0.0000;-0.0250;0.0000
8;-1.0052;-0.4443;0.0000;-0.5610;0.0000
9;-0.0818;0.0000;0.0000;-0.0818;0.0000
10;-0.0248;0.0000;0.0000;-0.0248;0.0000
11;0.0000;0.0000;0.0000;0.0000;0.0000
12;0.0000;0.0000;0.0000;0.0000;0.0000
13;-0.3699;0.0000;0.0000;-0.3699;0.0000
14;-2.0378;-1.2843;0.0000;-0.7535;0.0000
15;4.3049;5.5994;0.0000;-1.2944;0.0000
16;-2.0457;8.2108;-8.4287;10.3626;-12.1904
17;0.0000;0.0000;0.0000;0.0000;0.0000
18;-2.8999;8.1795;-9.6220;8.1647;-9.6220
26;-2.6639;0.0711;-2.0064;4.2258;-4.9545

> <BIOSOLVEIT.HYDE_ESTIMATED_AFFINITY_LOWER_BOUNDARY [nM]>
165168.547330

> <BIOSOLVEIT.HYDE_ESTIMATED_AFFINITY_UPPER_BOUNDARY [nM]>
16410471.730967

> <BIOSOLVEIT.HYDE_LIGAND_EFFICIENCY range: ++, +, 0, -, -->
--

> <BIOSOLVEIT.HYDE_LIGAND_LIPOPHILIC_EFFICIENCY range: ++, +, 0, -, -->
--

> <BIOSOLVEIT.INTER_CLASH range: red, yellow, green>
green

> <BIOSOLVEIT.INTRA_CLASH range: red, yellow, green>
green

> <BIOSOLVEIT.LOGP>
1.5545

> <BIOSOLVEIT.MOLECULAR_WEIGHT>
258.28

> <BIOSOLVEIT.MOLECULE_CHECKSUM>
LTE1Ljg4ODE7MC44MzYyMTY=

> <BIOSOLVEIT.TORSION_QUALITY range: red, yellow, green, not rotatable>
green

> <BIOSOLVEIT.TPSA>
79.3

> <BIOSOLVEIT.OPTIBRIUM.2D6 affinity category>
medium

> <BIOSOLVEIT.OPTIBRIUM.BBB category>
-

> <BIOSOLVEIT.OPTIBRIUM.2C9 pKi>
4.5477

> <BIOSOLVEIT.OPTIBRIUM.hERG pIC50>
4.53004

> <BIOSOLVEIT.OPTIBRIUM.HIA category>
+

> <BIOSOLVEIT.OPTIBRIUM.BBB log([brain]:[blood])>
-1.09427

> <BIOSOLVEIT.OPTIBRIUM.logD>
0.985873

> <BIOSOLVEIT.OPTIBRIUM.logP>
0.985873

> <BIOSOLVEIT.OPTIBRIUM.logS>
2.27845

> <BIOSOLVEIT.OPTIBRIUM.logS @ pH7.4>
2.27845

> <BIOSOLVEIT.OPTIBRIUM.P-gp category>
no

> <BIOSOLVEIT.OPTIBRIUM.PPB90 category>
low

$$$$
FLAVI-RDRP-DLS-JA012
dcSeeSAR  09212416393D 1   1.00000     0.00000     0
SeeSAR 13.0.1 dcn76311
 34 36  0  0  0  0            999 V2000
  -16.4298  -40.8200  -26.7194 C   0  0  0  0  0  0  0  0  0  0  0  0
  -18.1742  -41.9452  -25.6421 C   0  0  0  0  0  0  0  0  0  0  0  0
  -17.6937  -41.2687  -26.6955 N   0  0  0  0  0  0  0  0  0  0  0  0
  -17.5310  -43.8595  -21.2230 N   0  0  0  0  0  0  0  0  0  0  0  0
  -15.5795  -41.0474  -25.6425 C   0  0  0  0  0  0  0  0  0  0  0  0
  -17.4775  -45.8534  -22.4519 C   0  0  0  0  0  0  0  0  0  0  0  0
  -16.0556  -41.7473  -24.5384 C   0  0  0  0  0  0  0  0  0  0  0  0
  -15.2608  -42.0089  -23.4276 C   0  0  0  0  0  0  0  0  0  0  0  0
  -17.3696  -42.2030  -24.5367 C   0  0  0  0  0  0  0  0  0  0  0  0
  -17.8447  -42.9009  -23.4319 C   0  0  0  0  0  0  0  0  0  0  0  0
  -17.0082  -43.1365  -22.3469 C   0  0  0  0  0  0  0  0  0  0  0  0
  -17.6926  -45.2179  -21.2976 C   0  0  0  0  0  0  0  0  0  0  0  0
  -18.1166  -46.0017  -20.0661 C   0  0  2  0  0  0  0  0  0  0  0  0
  -19.4553  -45.5129  -19.5554 C   0  0  0  0  0  0  0  0  0  0  0  0
  -19.3099  -45.8692  -18.0972 C   0  0  0  0  0  0  0  0  0  0  0  0
  -17.9702  -45.3293  -17.8828 N   0  0  0  0  0  0  0  0  0  0  0  0
  -15.7451  -42.6850  -22.3749 N   0  0  0  0  0  0  0  0  0  0  0  0
  -17.2165  -45.8217  -18.9894 O   0  0  0  0  0  0  0  0  0  0  0  0
  -17.7775  -43.3720  -20.3855 H   0  0  0  0  0  0  0  0  0  0  0  0
  -14.2475  -41.6658  -23.4124 H   0  0  0  0  0  0  0  0  0  0  0  0
  -18.8536  -43.2566  -23.4168 H   0  0  0  0  0  0  0  0  0  0  0  0
  -18.1830  -47.0418  -20.3081 H   0  0  0  0  0  0  0  0  0  0  0  0
  -20.2711  -46.0317  -20.0137 H   0  0  0  0  0  0  0  0  0  0  0  0
  -19.5770  -44.4595  -19.6987 H   0  0  0  0  0  0  0  0  0  0  0  0
  -19.1870  -42.2905  -25.6518 H   0  0  0  0  0  0  0  0  0  0  0  0
  -15.9513  -40.1002  -27.8649 N   0  0  0  0  0  0  0  0  0  0  0  0
  -14.5717  -40.6887  -25.6630 H   0  0  0  0  0  0  0  0  0  0  0  0
  -19.3512  -46.9257  -17.9331 H   0  0  0  0  0  0  0  0  0  0  0  0
  -20.0436  -45.3846  -17.4875 H   0  0  0  0  0  0  0  0  0  0  0  0
  -17.9865  -44.3294  -17.8809 H   0  0  0  0  0  0  0  0  0  0  0  0
  -17.6037  -46.9143  -22.5101 H   0  0  0  0  0  0  0  0  0  0  0  0
  -17.1790  -45.3018  -23.3187 H   0  0  0  0  0  0  0  0  0  0  0  0
  -15.0097  -39.7640  -27.8867 H   0  0  0  0  0  0  0  0  0  0  0  0
  -16.5594  -39.9347  -28.6413 H   0  0  0  0  0  0  0  0  0  0  0  0
  1  3  1  0  0  0  0
  2  3  2  0  0  0  0
  4 11  1  0  0  0  0
  4 12  1  0  0  0  0
  5  7  1  0  0  0  0
  6 12  2  0  0  0  0
  7  8  1  0  0  0  0
  7  9  2  0  0  0  0
  8 17  2  0  0  0  0
  9 10  1  0  0  0  0
 10 11  2  0  0  0  0
 11 17  1  0  0  0  0
 12 13  1  0  0  0  0
 13 14  1  0  0  0  0
 13 18  1  0  0  0  0
 14 15  1  0  0  0  0
 15 16  1  0  0  0  0
 16 18  1  0  0  0  0
  4 19  1  0  0  0  0
  8 20  1  0  0  0  0
 10 21  1  0  0  0  0
 13 22  1  0  0  0  0
 14 23  1  0  0  0  0
 14 24  1  0  0  0  0
  5  1  2  0  0  0  0
  9  2  1  0  0  0  0
  2 25  1  0  0  0  0
  1 26  1  0  0  0  0
  5 27  1  0  0  0  0
 15 28  1  0  0  0  0
 15 29  1  0  0  0  0
 16 30  1  0  0  0  0
  6 31  1  0  0  0  0
  6 32  1  0  0  0  0
 26 33  1  0  0  0  0
 26 34  1  0  0  0  0
M  END
> <BIOSOLVEIT.HYDE_ATOM_SCORES [kJ/mol]>
# Atom-ID; Total; Rec-Desolv; Rec-IA; Lig-Desolv; Lig-IA
1;-0.1160;0.0000;0.0000;-0.1160;0.0000
2;-0.7152;-0.0844;0.0000;-0.6308;0.0000
3;-0.6751;6.5729;-7.1204;6.9927;-7.1204
4;0.0000;0.0000;0.0000;0.0000;0.0000
5;-2.4523;-1.5598;0.0000;-0.8925;0.0000
6;-2.6130;-1.1523;0.0000;-1.4607;0.0000
7;0.0000;0.0000;0.0000;0.0000;0.0000
8;-0.9803;-0.4028;0.0000;-0.5776;0.0000
9;-0.0748;0.0000;0.0000;-0.0748;0.0000
10;-0.0908;0.0000;0.0000;-0.0908;0.0000
11;0.0000;0.0000;0.0000;0.0000;0.0000
12;0.0000;0.0000;0.0000;0.0000;0.0000
13;-0.4256;-0.0533;0.0000;-0.3723;0.0000
14;-2.4137;-1.5484;0.0000;-0.8653;0.0000
15;4.0110;5.3705;0.0000;-1.3595;0.0000
16;-2.2898;8.2193;-8.6813;10.3626;-12.1904
17;0.0000;0.0000;0.0000;0.0000;0.0000
18;-1.7511;1.6359;-1.9244;8.1591;-9.6218
26;-1.3055;0.9021;-1.9882;7.8375;-8.0568

> <BIOSOLVEIT.HYDE_ESTIMATED_AFFINITY_LOWER_BOUNDARY [nM]>
730577.281478

> <BIOSOLVEIT.HYDE_ESTIMATED_AFFINITY_UPPER_BOUNDARY [nM]>
72587172.429531

> <BIOSOLVEIT.HYDE_LIGAND_EFFICIENCY range: ++, +, 0, -, -->
--

> <BIOSOLVEIT.HYDE_LIGAND_LIPOPHILIC_EFFICIENCY range: ++, +, 0, -, -->
--

> <BIOSOLVEIT.INTER_CLASH range: red, yellow, green>
green

> <BIOSOLVEIT.INTRA_CLASH range: red, yellow, green>
green

> <BIOSOLVEIT.LOGP>
1.4311

> <BIOSOLVEIT.MOLECULAR_WEIGHT>
257.296

> <BIOSOLVEIT.MOLECULE_CHECKSUM>
LTEyLjIwMjI7MC42NDIyMjI=

> <BIOSOLVEIT.TORSION_QUALITY range: red, yellow, green, not rotatable>
green

> <BIOSOLVEIT.TPSA>
85.09

> <BIOSOLVEIT.OPTIBRIUM.2D6 affinity category>
medium

> <BIOSOLVEIT.OPTIBRIUM.BBB category>
-

> <BIOSOLVEIT.OPTIBRIUM.2C9 pKi>
4.58287

> <BIOSOLVEIT.OPTIBRIUM.hERG pIC50>
4.27781

> <BIOSOLVEIT.OPTIBRIUM.HIA category>
+

> <BIOSOLVEIT.OPTIBRIUM.BBB log([brain]:[blood])>
-0.738073

> <BIOSOLVEIT.OPTIBRIUM.logD>
1.06133

> <BIOSOLVEIT.OPTIBRIUM.logP>
0.721798

> <BIOSOLVEIT.OPTIBRIUM.logS>
2.40117

> <BIOSOLVEIT.OPTIBRIUM.logS @ pH7.4>
2.02913

> <BIOSOLVEIT.OPTIBRIUM.P-gp category>
yes

> <BIOSOLVEIT.OPTIBRIUM.PPB90 category>
low

$$$$
FLAVI-RDRP-DLS-JA013
dcSeeSAR  09212416393D 1   1.00000     0.00000     0
SeeSAR 13.0.1 dcn76311
 21 22  0  0  0  0            999 V2000
  -17.2681  -44.2103  -22.0050 C   0  0  0  0  0  0  0  0  0  0  0  0
  -16.2823  -42.8298  -23.9776 C   0  0  0  0  0  0  0  0  0  0  0  0
  -16.4838  -38.9538  -27.5663 N   0  0  0  0  0  0  0  0  0  0  0  0
  -16.0106  -40.2251  -27.3752 C   0  0  0  0  0  0  0  0  0  0  0  0
  -15.4081  -40.9791  -25.2498 C   0  0  0  0  0  0  0  0  0  0  0  0
  -15.2277  -40.2175  -24.0389 C   0  0  0  0  0  0  0  0  0  0  0  0
  -15.5843  -40.7736  -22.7883 C   0  0  0  0  0  0  0  0  0  0  0  0
  -16.0954  -42.0594  -22.7326 C   0  0  0  0  0  0  0  0  0  0  0  0
  -15.9398  -42.2832  -25.1877 C   0  0  0  0  0  0  0  0  0  0  0  0
  -16.4655  -41.1599  -28.0417 O   0  0  0  0  0  0  0  0  0  0  0  0
  -15.0755  -40.4492  -26.4854 O   0  0  0  0  0  0  0  0  0  0  0  0
  -16.6114  -42.9921  -21.4656 O   0  0  0  0  0  0  0  0  0  0  0  0
  -17.9225  -44.9886  -21.3830 O   0  0  0  0  0  0  0  0  0  0  0  0
  -16.9166  -44.2809  -23.6010 S   0  0  0  0  0  0  0  0  0  0  0  0
  -14.6846  -38.8908  -24.1028 N   0  0  0  0  0  0  0  0  0  0  0  0
  -15.4599  -40.2043  -21.8909 H   0  0  0  0  0  0  0  0  0  0  0  0
  -16.0764  -42.8475  -26.0864 H   0  0  0  0  0  0  0  0  0  0  0  0
  -16.1154  -38.1967  -27.0267 H   0  0  0  0  0  0  0  0  0  0  0  0
  -17.1976  -38.7827  -28.2455 H   0  0  0  0  0  0  0  0  0  0  0  0
  -14.5587  -38.3611  -23.2641 H   0  0  0  0  0  0  0  0  0  0  0  0
  -14.4319  -38.4960  -24.9862 H   0  0  0  0  0  0  0  0  0  0  0  0
  1 12  1  0  0  0  0
  1 13  2  0  0  0  0
  1 14  1  0  0  0  0
  2  8  2  0  0  0  0
  2  9  1  0  0  0  0
  2 14  1  0  0  0  0
  3  4  1  0  0  0  0
  4 10  2  0  0  0  0
  4 11  1  0  0  0  0
  5  6  1  0  0  0  0
  5  9  2  0  0  0  0
  5 11  1  0  0  0  0
  6  7  2  0  0  0  0
  7  8  1  0  0  0  0
  8 12  1  0  0  0  0
  6 15  1  0  0  0  0
  7 16  1  0  0  0  0
  9 17  1  0  0  0  0
  3 18  1  0  0  0  0
  3 19  1  0  0  0  0
 15 20  1  0  0  0  0
 15 21  1  0  0  0  0
M  END
> <BIOSOLVEIT.HYDE_ATOM_SCORES [kJ/mol]>
# Atom-ID; Total; Rec-Desolv; Rec-IA; Lig-Desolv; Lig-IA
1;-0.0323;0.0000;0.0000;-0.0323;0.0000
2;-0.0085;0.0000;0.0000;-0.0085;0.0000
3;0.6205;-1.5921;0.0000;3.1413;-0.9287
4;-0.4774;0.0000;0.0000;-0.4774;0.0000
5;-0.3305;0.0000;0.0000;-0.3305;0.0000
6;-0.4562;-0.2227;0.0000;-0.2335;0.0000
7;-0.0174;0.0000;0.0000;-0.0174;0.0000
8;0.0000;0.0000;0.0000;0.0000;0.0000
9;-1.1676;0.0000;0.0000;-1.1676;0.0000
10;-2.6167;5.8800;-8.4286;10.3319;-10.4000
11;-3.2828;-2.7776;0.0000;-0.5053;0.0000
12;0.0000;0.0000;0.0000;0.0000;0.0000
13;0.3398;-0.0372;0.0000;0.3770;0.0000
14;-3.1681;-1.8735;0.0000;-1.2947;0.0000
15;-1.2973;7.7940;-8.5290;6.9087;-7.4710

> <BIOSOLVEIT.HYDE_ESTIMATED_AFFINITY_LOWER_BOUNDARY [nM]>
760770.702052

> <BIOSOLVEIT.HYDE_ESTIMATED_AFFINITY_UPPER_BOUNDARY [nM]>
75587067.281249

> <BIOSOLVEIT.HYDE_LIGAND_EFFICIENCY range: ++, +, 0, -, -->
--

> <BIOSOLVEIT.HYDE_LIGAND_LIPOPHILIC_EFFICIENCY range: ++, +, 0, -, -->
--

> <BIOSOLVEIT.INTER_CLASH range: red, yellow, green>
green

> <BIOSOLVEIT.INTRA_CLASH range: red, yellow, green>
green

> <BIOSOLVEIT.LOGP>
1.3308

> <BIOSOLVEIT.MOLECULAR_WEIGHT>
226.21

> <BIOSOLVEIT.MOLECULE_CHECKSUM>
LTEyLjEwMTg7MC44MDY3ODk=

> <BIOSOLVEIT.TORSION_QUALITY range: red, yellow, green, not rotatable>
yellow

> <BIOSOLVEIT.TPSA>
104.64

> <BIOSOLVEIT.OPTIBRIUM.2D6 affinity category>
low

> <BIOSOLVEIT.OPTIBRIUM.BBB category>
-

> <BIOSOLVEIT.OPTIBRIUM.2C9 pKi>
3.86067

> <BIOSOLVEIT.OPTIBRIUM.hERG pIC50>
3.81835

> <BIOSOLVEIT.OPTIBRIUM.HIA category>
+

> <BIOSOLVEIT.OPTIBRIUM.BBB log([brain]:[blood])>
-1.05818

> <BIOSOLVEIT.OPTIBRIUM.logD>
0.360549

> <BIOSOLVEIT.OPTIBRIUM.logP>
0.500343

> <BIOSOLVEIT.OPTIBRIUM.logS>
2.82007

> <BIOSOLVEIT.OPTIBRIUM.logS @ pH7.4>
4.2887

> <BIOSOLVEIT.OPTIBRIUM.P-gp category>
no

> <BIOSOLVEIT.OPTIBRIUM.PPB90 category>
low

$$$$
FLAVI-RDRP-DLS-JA014
dcSeeSAR  09212416393D 1   1.00000     0.00000     0
SeeSAR 13.0.1 dcn76311
 33 35  0  0  0  0            999 V2000
  -16.9291  -45.6338  -21.5794 C   0  0  2  0  0  0  0  0  0  0  0  0
  -18.3358  -46.1579  -21.7293 C   0  0  0  0  0  0  0  0  0  0  0  0
  -18.6071  -46.6830  -20.3401 C   0  0  0  0  0  0  0  0  0  0  0  0
  -17.8935  -45.6163  -19.5444 C   0  0  0  0  0  0  0  0  0  0  0  0
  -16.6366  -45.6656  -20.1874 O   0  0  0  0  0  0  0  0  0  0  0  0
  -18.3873  -46.9380  -22.4597 H   0  0  0  0  0  0  0  0  0  0  0  0
  -19.0184  -45.3771  -21.9928 H   0  0  0  0  0  0  0  0  0  0  0  0
  -18.1801  -47.6519  -20.1865 H   0  0  0  0  0  0  0  0  0  0  0  0
  -19.6538  -46.7155  -20.1202 H   0  0  0  0  0  0  0  0  0  0  0  0
  -17.8237  -45.8688  -18.5069 H   0  0  0  0  0  0  0  0  0  0  0  0
  -18.3600  -44.6590  -19.6478 H   0  0  0  0  0  0  0  0  0  0  0  0
  -16.9887  -44.2008  -22.0611 C   0  0  1  0  0  0  0  0  0  0  0  0
  -16.1393  -42.7734  -24.1535 C   0  0  0  0  0  0  0  0  0  0  0  0
  -16.8561  -38.8317  -27.4203 N   0  0  0  0  0  0  0  0  0  0  0  0
  -16.2260  -40.0459  -27.3458 C   0  0  0  0  0  0  0  0  0  0  0  0
  -15.3091  -40.9073  -25.3766 C   0  0  0  0  0  0  0  0  0  0  0  0
  -14.7052  -40.5116  -24.1871 C   0  0  0  0  0  0  0  0  0  0  0  0
  -14.8420  -41.2882  -23.0274 C   0  0  0  0  0  0  0  0  0  0  0  0
  -15.5584  -42.4830  -22.9420 C   0  0  0  0  0  0  0  0  0  0  0  0
  -16.0574  -42.0771  -25.3533 C   0  0  0  0  0  0  0  0  0  0  0  0
  -16.6380  -40.9974  -28.0166 O   0  0  0  0  0  0  0  0  0  0  0  0
  -15.1866  -40.1976  -26.5630 O   0  0  0  0  0  0  0  0  0  0  0  0
  -15.8215  -43.4077  -21.9285 O   0  0  0  0  0  0  0  0  0  0  0  0
  -17.0002  -44.2848  -23.8549 S   0  0  0  0  0  0  0  0  0  0  0  0
  -13.9457  -39.2948  -24.2269 N   0  0  0  0  0  0  0  0  0  0  0  0
  -14.3598  -40.9375  -22.1389 H   0  0  0  0  0  0  0  0  0  0  0  0
  -16.5551  -42.4312  -26.2319 H   0  0  0  0  0  0  0  0  0  0  0  0
  -16.5225  -38.0612  -26.8770 H   0  0  0  0  0  0  0  0  0  0  0  0
  -17.6496  -38.7159  -28.0178 H   0  0  0  0  0  0  0  0  0  0  0  0
  -13.4900  -38.9625  -23.4011 H   0  0  0  0  0  0  0  0  0  0  0  0
  -13.8722  -38.7789  -25.0805 H   0  0  0  0  0  0  0  0  0  0  0  0
  -16.2286  -46.2126  -22.1445 H   0  0  0  0  0  0  0  0  0  0  0  0
  -17.8532  -43.6947  -21.6852 H   0  0  0  0  0  0  0  0  0  0  0  0
  1  2  1  0  0  0  0
  1  5  1  0  0  0  0
  2  3  1  0  0  0  0
  3  4  1  0  0  0  0
  4  5  1  0  0  0  0
  2  6  1  0  0  0  0
  2  7  1  0  0  0  0
  3  8  1  0  0  0  0
  3  9  1  0  0  0  0
  4 10  1  0  0  0  0
  4 11  1  0  0  0  0
 12 23  1  0  0  0  0
 12 24  1  0  0  0  0
 13 19  2  0  0  0  0
 13 20  1  0  0  0  0
 13 24  1  0  0  0  0
 14 15  1  0  0  0  0
 15 21  2  0  0  0  0
 15 22  1  0  0  0  0
 16 17  1  0  0  0  0
 16 20  2  0  0  0  0
 16 22  1  0  0  0  0
 17 18  2  0  0  0  0
 18 19  1  0  0  0  0
 19 23  1  0  0  0  0
 17 25  1  0  0  0  0
 18 26  1  0  0  0  0
 20 27  1  0  0  0  0
 14 28  1  0  0  0  0
 14 29  1  0  0  0  0
 25 30  1  0  0  0  0
 25 31  1  0  0  0  0
  1 12  1  0  0  0  0
  1 32  1  0  0  0  0
 12 33  1  0  0  0  0
M  END
> <BIOSOLVEIT.HYDE_ATOM_SCORES [kJ/mol]>
# Atom-ID; Total; Rec-Desolv; Rec-IA; Lig-Desolv; Lig-IA
1;-1.6750;-1.0038;0.0000;-0.6712;0.0000
2;-1.5749;-0.8386;0.0000;-0.7364;0.0000
3;-3.1843;-1.6964;0.0000;-1.4879;0.0000
4;1.3342;1.5262;0.0000;-0.1920;0.0000
5;-1.7312;1.6359;-1.9244;8.1795;-9.6221
12;0.0000;0.0000;0.0000;0.0000;0.0000
13;-0.0977;0.0000;0.0000;-0.0977;0.0000
14;0.9308;-0.3893;0.0000;1.3201;0.0000
15;-1.9440;-1.4415;0.0000;-0.5024;0.0000
16;-0.3321;0.0000;0.0000;-0.3321;0.0000
17;-0.6969;-0.4149;0.0000;-0.2821;0.0000
18;-0.2834;0.0000;0.0000;-0.2834;0.0000
19;0.0000;0.0000;0.0000;0.0000;0.0000
20;-3.1282;-2.0625;0.0000;-1.0657;0.0000
21;-2.7178;5.7590;-8.4287;10.3521;-10.4001
22;-0.4382;0.0000;0.0000;-0.4382;0.0000
23;0.0000;0.0000;0.0000;0.0000;0.0000
24;-2.4792;-1.8526;0.0000;-0.6266;0.0000
25;-2.4502;6.8608;-8.5960;6.8147;-7.5297

> <BIOSOLVEIT.HYDE_ESTIMATED_AFFINITY_LOWER_BOUNDARY [nM]>
23392.903502

> <BIOSOLVEIT.HYDE_ESTIMATED_AFFINITY_UPPER_BOUNDARY [nM]>
2324223.272724

> <BIOSOLVEIT.HYDE_LIGAND_EFFICIENCY range: ++, +, 0, -, -->
-

> <BIOSOLVEIT.HYDE_LIGAND_LIPOPHILIC_EFFICIENCY range: ++, +, 0, -, -->
--

> <BIOSOLVEIT.INTER_CLASH range: red, yellow, green>
green

> <BIOSOLVEIT.INTRA_CLASH range: red, yellow, green>
green

> <BIOSOLVEIT.LOGP>
1.7159

> <BIOSOLVEIT.MOLECULAR_WEIGHT>
282.318

> <BIOSOLVEIT.MOLECULE_CHECKSUM>
LTIwLjczMzM7MS4wOTEyMw==

> <BIOSOLVEIT.TORSION_QUALITY range: red, yellow, green, not rotatable>
yellow

> <BIOSOLVEIT.TPSA>
96.8

> <BIOSOLVEIT.OPTIBRIUM.2D6 affinity category>
medium

> <BIOSOLVEIT.OPTIBRIUM.BBB category>
-

> <BIOSOLVEIT.OPTIBRIUM.2C9 pKi>
4.46921

> <BIOSOLVEIT.OPTIBRIUM.hERG pIC50>
4.11358

> <BIOSOLVEIT.OPTIBRIUM.HIA category>
+

> <BIOSOLVEIT.OPTIBRIUM.BBB log([brain]:[blood])>
-0.330003

> <BIOSOLVEIT.OPTIBRIUM.logD>
0.891933

> <BIOSOLVEIT.OPTIBRIUM.logP>
1.48687

> <BIOSOLVEIT.OPTIBRIUM.logS>
1.68186

> <BIOSOLVEIT.OPTIBRIUM.logS @ pH7.4>
2.55966

> <BIOSOLVEIT.OPTIBRIUM.P-gp category>
no

> <BIOSOLVEIT.OPTIBRIUM.PPB90 category>
low

$$$$
FLAVI-RDRP-DLS-JA015
dcSeeSAR  09212416393D 1   1.00000     0.00000     0
SeeSAR 13.0.1 dcn76311
 33 35  0  0  0  0            999 V2000
  -17.7081  -45.3517  -19.7901 C   0  0  0  0  0  0  0  0  0  0  0  0
  -18.9108  -44.5092  -19.4344 C   0  0  0  0  0  0  0  0  0  0  0  0
  -19.5673  -45.4980  -18.5092 C   0  0  0  0  0  0  0  0  0  0  0  0
  -18.3612  -45.9469  -17.8231 N   0  0  0  0  0  0  0  0  0  0  0  0
  -17.6001  -46.3396  -18.9558 O   0  0  0  0  0  0  0  0  0  0  0  0
  -19.5169  -44.2823  -20.2866 H   0  0  0  0  0  0  0  0  0  0  0  0
  -18.6408  -43.6012  -18.9369 H   0  0  0  0  0  0  0  0  0  0  0  0
  -20.0534  -46.2905  -19.0388 H   0  0  0  0  0  0  0  0  0  0  0  0
  -20.2647  -45.0327  -17.8445 H   0  0  0  0  0  0  0  0  0  0  0  0
  -18.5425  -46.7142  -17.2079 H   0  0  0  0  0  0  0  0  0  0  0  0
  -17.0837  -43.9391  -21.7211 C   0  0  2  0  0  0  0  0  0  0  0  0
  -16.0436  -42.7464  -23.8586 C   0  0  0  0  0  0  0  0  0  0  0  0
  -16.4745  -38.9747  -27.5555 N   0  0  0  0  0  0  0  0  0  0  0  0
  -16.0013  -40.2357  -27.3051 C   0  0  0  0  0  0  0  0  0  0  0  0
  -15.2705  -40.9638  -25.2096 C   0  0  0  0  0  0  0  0  0  0  0  0
  -14.9946  -40.2967  -24.0192 C   0  0  0  0  0  0  0  0  0  0  0  0
  -15.2498  -40.8832  -22.7799 C   0  0  0  0  0  0  0  0  0  0  0  0
  -15.7957  -42.1591  -22.6411 C   0  0  0  0  0  0  0  0  0  0  0  0
  -15.8168  -42.2365  -25.1295 C   0  0  0  0  0  0  0  0  0  0  0  0
  -16.5007  -41.2079  -27.8799 O   0  0  0  0  0  0  0  0  0  0  0  0
  -15.0193  -40.4102  -26.4558 O   0  0  0  0  0  0  0  0  0  0  0  0
  -16.1129  -42.9325  -21.5262 O   0  0  0  0  0  0  0  0  0  0  0  0
  -16.7091  -44.3280  -23.4385 S   0  0  0  0  0  0  0  0  0  0  0  0
  -14.4325  -38.9803  -24.1203 N   0  0  0  0  0  0  0  0  0  0  0  0
  -15.0160  -40.3289  -21.8951 H   0  0  0  0  0  0  0  0  0  0  0  0
  -16.0528  -42.8000  -26.0080 H   0  0  0  0  0  0  0  0  0  0  0  0
  -16.0701  -38.1873  -27.0900 H   0  0  0  0  0  0  0  0  0  0  0  0
  -17.2242  -38.8415  -28.2037 H   0  0  0  0  0  0  0  0  0  0  0  0
  -14.2180  -38.4632  -23.2917 H   0  0  0  0  0  0  0  0  0  0  0  0
  -14.2554  -38.5798  -25.0193 H   0  0  0  0  0  0  0  0  0  0  0  0
  -18.0740  -43.5463  -21.6204 H   0  0  0  0  0  0  0  0  0  0  0  0
  -16.8688  -45.1305  -20.8021 C   0  0  0  0  0  0  0  0  0  0  0  0
  -16.0439  -45.7917  -20.9674 H   0  0  0  0  0  0  0  0  0  0  0  0
  1  2  1  0  0  0  0
  1  5  1  0  0  0  0
  2  3  1  0  0  0  0
  3  4  1  0  0  0  0
  4  5  1  0  0  0  0
  2  6  1  0  0  0  0
  2  7  1  0  0  0  0
  3  8  1  0  0  0  0
  3  9  1  0  0  0  0
  4 10  1  0  0  0  0
 11 22  1  0  0  0  0
 11 23  1  0  0  0  0
 12 18  2  0  0  0  0
 12 19  1  0  0  0  0
 12 23  1  0  0  0  0
 13 14  1  0  0  0  0
 14 20  2  0  0  0  0
 14 21  1  0  0  0  0
 15 16  1  0  0  0  0
 15 19  2  0  0  0  0
 15 21  1  0  0  0  0
 16 17  2  0  0  0  0
 17 18  1  0  0  0  0
 18 22  1  0  0  0  0
 16 24  1  0  0  0  0
 17 25  1  0  0  0  0
 19 26  1  0  0  0  0
 13 27  1  0  0  0  0
 13 28  1  0  0  0  0
 24 29  1  0  0  0  0
 24 30  1  0  0  0  0
 11 31  1  0  0  0  0
 11 32  1  0  0  0  0
 32  1  2  0  0  0  0
 32 33  1  0  0  0  0
M  END
> <BIOSOLVEIT.HYDE_ATOM_SCORES [kJ/mol]>
# Atom-ID; Total; Rec-Desolv; Rec-IA; Lig-Desolv; Lig-IA
1;0.0000;0.0000;0.0000;0.0000;0.0000
2;-0.0869;0.0000;0.0000;-0.0869;0.0000
3;5.2515;6.4775;0.0000;-1.2260;0.0000
4;0.8317;8.2574;-7.8371;11.7462;-11.3348
5;-2.9687;-0.0638;-1.9233;4.1515;-5.1332
11;0.0000;0.0000;0.0000;0.0000;0.0000
12;-0.0099;0.0000;0.0000;-0.0099;0.0000
13;1.2959;-1.5921;0.0000;3.5941;-0.7061
14;-0.4242;0.0000;0.0000;-0.4242;0.0000
15;-0.3960;0.0000;0.0000;-0.3960;0.0000
16;-0.6348;-0.3319;0.0000;-0.3030;0.0000
17;-0.1063;0.0000;0.0000;-0.1063;0.0000
18;0.0000;0.0000;0.0000;0.0000;0.0000
19;-1.1086;0.0000;0.0000;-1.1086;0.0000
20;-2.6327;5.8363;-8.4287;10.3598;-10.4001
21;-2.5604;-2.0625;0.0000;-0.4978;0.0000
22;0.0000;0.0000;0.0000;0.0000;0.0000
23;-2.5578;-1.9497;0.0000;-0.6082;0.0000
24;-1.3103;-0.3897;-0.7578;1.1649;-1.3277
32;-0.3614;0.0000;0.0000;-0.3614;0.0000

> <BIOSOLVEIT.HYDE_ESTIMATED_AFFINITY_LOWER_BOUNDARY [nM]>
3962074.699014

> <BIOSOLVEIT.HYDE_ESTIMATED_AFFINITY_UPPER_BOUNDARY [nM]>
393655546.986600

> <BIOSOLVEIT.HYDE_LIGAND_EFFICIENCY range: ++, +, 0, -, -->
--

> <BIOSOLVEIT.HYDE_LIGAND_LIPOPHILIC_EFFICIENCY range: ++, +, 0, -, -->
--

> <BIOSOLVEIT.INTER_CLASH range: red, yellow, green>
green

> <BIOSOLVEIT.INTRA_CLASH range: red, yellow, green>
green

> <BIOSOLVEIT.LOGP>
1.3457

> <BIOSOLVEIT.MOLECULAR_WEIGHT>
295.317

> <BIOSOLVEIT.MOLECULE_CHECKSUM>
LTguMDExMDg7MC40MDA1NTQ=

> <BIOSOLVEIT.TORSION_QUALITY range: red, yellow, green, not rotatable>
yellow

> <BIOSOLVEIT.TPSA>
108.83

> <BIOSOLVEIT.OPTIBRIUM.2D6 affinity category>
medium

> <BIOSOLVEIT.OPTIBRIUM.BBB category>
-

> <BIOSOLVEIT.OPTIBRIUM.2C9 pKi>
4.51099

> <BIOSOLVEIT.OPTIBRIUM.hERG pIC50>
3.96899

> <BIOSOLVEIT.OPTIBRIUM.HIA category>
+

> <BIOSOLVEIT.OPTIBRIUM.BBB log([brain]:[blood])>
-0.328549

> <BIOSOLVEIT.OPTIBRIUM.logD>
0.94055

> <BIOSOLVEIT.OPTIBRIUM.logP>
1.18348

> <BIOSOLVEIT.OPTIBRIUM.logS>
1.68235

> <BIOSOLVEIT.OPTIBRIUM.logS @ pH7.4>
3.50096

> <BIOSOLVEIT.OPTIBRIUM.P-gp category>
no

> <BIOSOLVEIT.OPTIBRIUM.PPB90 category>
low

$$$$
FLAVI-RDRP-DLS-JA016
dcSeeSAR  09212416393D 1   1.00000     0.00000     0
SeeSAR 13.0.1 dcn76311
 35 37  0  0  0  0            999 V2000
  -17.8145  -45.7841  -20.3624 C   0  0  2  0  0  0  0  0  0  0  0  0
  -18.2461  -44.4212  -19.8662 C   0  0  0  0  0  0  0  0  0  0  0  0
  -18.6286  -44.8592  -18.4791 C   0  0  0  0  0  0  0  0  0  0  0  0
  -17.3209  -45.4480  -18.2108 N   0  0  0  0  0  0  0  0  0  0  0  0
  -17.3006  -46.4484  -19.2252 O   0  0  0  0  0  0  0  0  0  0  0  0
  -19.0746  -44.0266  -20.4163 H   0  0  0  0  0  0  0  0  0  0  0  0
  -17.4461  -43.7106  -19.8675 H   0  0  0  0  0  0  0  0  0  0  0  0
  -19.4256  -45.5729  -18.4648 H   0  0  0  0  0  0  0  0  0  0  0  0
  -18.8678  -44.0442  -17.8284 H   0  0  0  0  0  0  0  0  0  0  0  0
  -16.5820  -44.7841  -18.3267 H   0  0  0  0  0  0  0  0  0  0  0  0
  -16.8733  -44.1936  -22.0167 C   0  0  2  0  0  0  0  0  0  0  0  0
  -16.0809  -42.7952  -24.1356 C   0  0  0  0  0  0  0  0  0  0  0  0
  -16.9098  -38.8638  -27.3753 N   0  0  0  0  0  0  0  0  0  0  0  0
  -16.2571  -40.0664  -27.3067 C   0  0  0  0  0  0  0  0  0  0  0  0
  -15.3033  -40.9213  -25.3538 C   0  0  0  0  0  0  0  0  0  0  0  0
  -14.7029  -40.5090  -24.1674 C   0  0  0  0  0  0  0  0  0  0  0  0
  -14.8084  -41.2617  -22.9981 C   0  0  0  0  0  0  0  0  0  0  0  0
  -15.5153  -42.4620  -22.9284 C   0  0  0  0  0  0  0  0  0  0  0  0
  -16.0211  -42.1085  -25.3402 C   0  0  0  0  0  0  0  0  0  0  0  0
  -16.6579  -41.0252  -27.9739 O   0  0  0  0  0  0  0  0  0  0  0  0
  -15.2080  -40.1991  -26.5335 O   0  0  0  0  0  0  0  0  0  0  0  0
  -15.7346  -43.3680  -21.8924 O   0  0  0  0  0  0  0  0  0  0  0  0
  -16.8992  -44.3270  -23.8118 S   0  0  0  0  0  0  0  0  0  0  0  0
  -13.9666  -39.2776  -24.1983 N   0  0  0  0  0  0  0  0  0  0  0  0
  -14.3250  -40.9018  -22.1139 H   0  0  0  0  0  0  0  0  0  0  0  0
  -16.5069  -42.4780  -26.2191 H   0  0  0  0  0  0  0  0  0  0  0  0
  -16.5854  -38.0872  -26.8352 H   0  0  0  0  0  0  0  0  0  0  0  0
  -17.7107  -38.7625  -27.9655 H   0  0  0  0  0  0  0  0  0  0  0  0
  -13.5185  -38.9421  -23.3697 H   0  0  0  0  0  0  0  0  0  0  0  0
  -13.9018  -38.7551  -25.0485 H   0  0  0  0  0  0  0  0  0  0  0  0
  -17.7504  -43.7005  -21.6526 H   0  0  0  0  0  0  0  0  0  0  0  0
  -16.6814  -45.5425  -21.3429 C   0  0  0  0  0  0  0  0  0  0  0  0
  -18.6237  -46.3227  -20.8097 H   0  0  0  0  0  0  0  0  0  0  0  0
  -15.7486  -45.5499  -20.8189 H   0  0  0  0  0  0  0  0  0  0  0  0
  -16.6802  -46.3144  -22.0839 H   0  0  0  0  0  0  0  0  0  0  0  0
  1  2  1  0  0  0  0
  1  5  1  0  0  0  0
  2  3  1  0  0  0  0
  3  4  1  0  0  0  0
  4  5  1  0  0  0  0
  2  6  1  0  0  0  0
  2  7  1  0  0  0  0
  3  8  1  0  0  0  0
  3  9  1  0  0  0  0
  4 10  1  0  0  0  0
 11 22  1  0  0  0  0
 11 23  1  0  0  0  0
 12 18  2  0  0  0  0
 12 19  1  0  0  0  0
 12 23  1  0  0  0  0
 13 14  1  0  0  0  0
 14 20  2  0  0  0  0
 14 21  1  0  0  0  0
 15 16  1  0  0  0  0
 15 19  2  0  0  0  0
 15 21  1  0  0  0  0
 16 17  2  0  0  0  0
 17 18  1  0  0  0  0
 18 22  1  0  0  0  0
 16 24  1  0  0  0  0
 17 25  1  0  0  0  0
 19 26  1  0  0  0  0
 13 27  1  0  0  0  0
 13 28  1  0  0  0  0
 24 29  1  0  0  0  0
 24 30  1  0  0  0  0
 11 31  1  0  0  0  0
 11 32  1  0  0  0  0
 32  1  1  0  0  0  0
  1 33  1  0  0  0  0
 32 34  1  0  0  0  0
 32 35  1  0  0  0  0
M  END
> <BIOSOLVEIT.HYDE_ATOM_SCORES [kJ/mol]>
# Atom-ID; Total; Rec-Desolv; Rec-IA; Lig-Desolv; Lig-IA
1;-0.6906;-0.4441;0.0000;-0.2465;0.0000
2;-0.0202;0.0000;0.0000;-0.0202;0.0000
3;1.6065;2.2157;0.0000;-0.6092;0.0000
4;-3.3210;6.9354;-8.4286;10.3626;-12.1903
5;-2.5423;6.9929;-9.6223;9.7094;-9.6223
11;0.0000;0.0000;0.0000;0.0000;0.0000
12;-0.0662;0.0000;0.0000;-0.0662;0.0000
13;0.8285;-0.3893;0.0000;1.2178;0.0000
14;-1.8584;-1.3740;0.0000;-0.4843;0.0000
15;-0.3152;0.0000;0.0000;-0.3152;0.0000
16;-0.6954;-0.4149;0.0000;-0.2806;0.0000
17;-0.2818;0.0011;0.0000;-0.2829;0.0000
18;0.0000;0.0000;0.0000;0.0000;0.0000
19;-3.1281;-2.0625;0.0000;-1.0656;0.0000
20;-2.7149;5.7590;-8.4287;10.3550;-10.4001
21;-0.4424;0.0000;0.0000;-0.4424;0.0000
22;0.0000;0.0000;0.0000;0.0000;0.0000
23;-2.2181;-1.6355;0.0000;-0.5827;0.0000
24;-3.0252;6.8745;-8.9144;6.8234;-7.8087
32;-1.7434;-0.9551;0.0000;-0.7883;0.0000

> <BIOSOLVEIT.HYDE_ESTIMATED_AFFINITY_LOWER_BOUNDARY [nM]>
21924.757143

> <BIOSOLVEIT.HYDE_ESTIMATED_AFFINITY_UPPER_BOUNDARY [nM]>
2178354.251558

> <BIOSOLVEIT.HYDE_LIGAND_EFFICIENCY range: ++, +, 0, -, -->
-

> <BIOSOLVEIT.HYDE_LIGAND_LIPOPHILIC_EFFICIENCY range: ++, +, 0, -, -->
-

> <BIOSOLVEIT.INTER_CLASH range: red, yellow, green>
green

> <BIOSOLVEIT.INTRA_CLASH range: red, yellow, green>
green

> <BIOSOLVEIT.LOGP>
1.2205

> <BIOSOLVEIT.MOLECULAR_WEIGHT>
297.333

> <BIOSOLVEIT.MOLECULE_CHECKSUM>
LTIwLjg5NDsxLjA0NDc=

> <BIOSOLVEIT.TORSION_QUALITY range: red, yellow, green, not rotatable>
red

> <BIOSOLVEIT.TPSA>
108.83

> <BIOSOLVEIT.OPTIBRIUM.2D6 affinity category>
medium

> <BIOSOLVEIT.OPTIBRIUM.BBB category>
-

> <BIOSOLVEIT.OPTIBRIUM.2C9 pKi>
4.43948

> <BIOSOLVEIT.OPTIBRIUM.hERG pIC50>
3.85529

> <BIOSOLVEIT.OPTIBRIUM.HIA category>
+

> <BIOSOLVEIT.OPTIBRIUM.BBB log([brain]:[blood])>
-0.462001

> <BIOSOLVEIT.OPTIBRIUM.logD>
0.713193

> <BIOSOLVEIT.OPTIBRIUM.logP>
1.20973

> <BIOSOLVEIT.OPTIBRIUM.logS>
1.702

> <BIOSOLVEIT.OPTIBRIUM.logS @ pH7.4>
3.02273

> <BIOSOLVEIT.OPTIBRIUM.P-gp category>
no

> <BIOSOLVEIT.OPTIBRIUM.PPB90 category>
low

$$$$
FLAVI-RDRP-DLS-JA017
dcSeeSAR  09212416393D 1   1.00000     0.00000     0
SeeSAR 13.0.1 dcn76311
 40 43  0  0  0  0            999 V2000
  -18.6654  -37.9611  -27.0627 N   0  0  0  0  0  0  0  0  0  0  0  0
  -18.0622  -35.5899  -26.3587 C   0  0  0  0  0  0  0  0  0  0  0  0
  -17.8071  -37.0636  -26.6301 C   0  0  0  0  0  0  0  0  0  0  0  0
  -18.1870  -39.2585  -27.2399 C   0  0  0  0  0  0  0  0  0  0  0  0
  -16.8681  -39.3914  -26.9277 C   0  0  0  0  0  0  0  0  0  0  0  0
  -16.2948  -37.8517  -26.4254 S   0  0  0  0  0  0  0  0  0  0  0  0
  -17.1598  -35.1291  -26.0148 H   0  0  0  0  0  0  0  0  0  0  0  0
  -18.3858  -35.1121  -27.2597 H   0  0  0  0  0  0  0  0  0  0  0  0
  -18.8206  -35.4911  -25.6104 H   0  0  0  0  0  0  0  0  0  0  0  0
  -18.7947  -40.0682  -27.5862 H   0  0  0  0  0  0  0  0  0  0  0  0
  -17.7021  -45.2806  -19.2955 C   0  0  0  0  0  0  0  0  0  0  0  0
  -18.9857  -44.5076  -19.1018 C   0  0  0  0  0  0  0  0  0  0  0  0
  -19.7100  -45.5450  -18.2868 C   0  0  0  0  0  0  0  0  0  0  0  0
  -18.5879  -45.9428  -17.4443 N   0  0  0  0  0  0  0  0  0  0  0  0
  -17.6577  -46.2760  -18.4642 O   0  0  0  0  0  0  0  0  0  0  0  0
  -19.4797  -44.2975  -20.0274 H   0  0  0  0  0  0  0  0  0  0  0  0
  -18.8360  -43.5957  -18.5624 H   0  0  0  0  0  0  0  0  0  0  0  0
  -20.0752  -46.3522  -18.8867 H   0  0  0  0  0  0  0  0  0  0  0  0
  -20.5165  -45.1279  -17.7207 H   0  0  0  0  0  0  0  0  0  0  0  0
  -18.8111  -46.7291  -16.8680 H   0  0  0  0  0  0  0  0  0  0  0  0
  -16.8933  -43.8043  -21.1067 C   0  0  2  0  0  0  0  0  0  0  0  0
  -15.9928  -42.8380  -23.4150 C   0  0  0  0  0  0  0  0  0  0  0  0
  -16.0329  -40.6197  -27.0017 C   0  0  0  0  0  0  0  0  0  0  0  0
  -15.1440  -41.2321  -24.9320 C   0  0  0  0  0  0  0  0  0  0  0  0
  -14.5951  -40.5997  -23.8199 C   0  0  0  0  0  0  0  0  0  0  0  0
  -14.7607  -41.1142  -22.5342 C   0  0  0  0  0  0  0  0  0  0  0  0
  -15.4802  -42.2791  -22.2689 C   0  0  0  0  0  0  0  0  0  0  0  0
  -15.8719  -42.3949  -24.7248 C   0  0  0  0  0  0  0  0  0  0  0  0
  -16.3234  -41.5168  -27.7992 O   0  0  0  0  0  0  0  0  0  0  0  0
  -14.9890  -40.7501  -26.2211 O   0  0  0  0  0  0  0  0  0  0  0  0
  -15.7545  -42.9698  -21.0901 O   0  0  0  0  0  0  0  0  0  0  0  0
  -16.8381  -44.2795  -22.8422 S   0  0  0  0  0  0  0  0  0  0  0  0
  -13.8477  -39.3969  -24.0519 N   0  0  0  0  0  0  0  0  0  0  0  0
  -14.3152  -40.5914  -21.7139 H   0  0  0  0  0  0  0  0  0  0  0  0
  -16.3202  -42.9262  -25.5383 H   0  0  0  0  0  0  0  0  0  0  0  0
  -13.4351  -38.9085  -23.2830 H   0  0  0  0  0  0  0  0  0  0  0  0
  -13.7395  -39.0472  -24.9825 H   0  0  0  0  0  0  0  0  0  0  0  0
  -17.7819  -43.2509  -20.8850 H   0  0  0  0  0  0  0  0  0  0  0  0
  -16.7440  -44.9988  -20.1787 C   0  0  0  0  0  0  0  0  0  0  0  0
  -15.8700  -45.6136  -20.2345 H   0  0  0  0  0  0  0  0  0  0  0  0
  1  3  2  0  0  0  0
  1  4  1  0  0  0  0
  2  3  1  0  0  0  0
  3  6  1  0  0  0  0
  4  5  2  0  0  0  0
  5  6  1  0  0  0  0
  2  7  1  0  0  0  0
  2  8  1  0  0  0  0
  2  9  1  0  0  0  0
  4 10  1  0  0  0  0
 11 12  1  0  0  0  0
 11 15  1  0  0  0  0
 12 13  1  0  0  0  0
 13 14  1  0  0  0  0
 14 15  1  0  0  0  0
 12 16  1  0  0  0  0
 12 17  1  0  0  0  0
 13 18  1  0  0  0  0
 13 19  1  0  0  0  0
 14 20  1  0  0  0  0
 21 31  1  0  0  0  0
 21 32  1  0  0  0  0
 22 27  2  0  0  0  0
 22 28  1  0  0  0  0
 22 32  1  0  0  0  0
 23 29  2  0  0  0  0
 23 30  1  0  0  0  0
 24 25  1  0  0  0  0
 24 28  2  0  0  0  0
 24 30  1  0  0  0  0
 25 26  2  0  0  0  0
 26 27  1  0  0  0  0
 27 31  1  0  0  0  0
 25 33  1  0  0  0  0
 26 34  1  0  0  0  0
 28 35  1  0  0  0  0
 33 36  1  0  0  0  0
 33 37  1  0  0  0  0
 21 38  1  0  0  0  0
 21 39  1  0  0  0  0
 39 11  2  0  0  0  0
 39 40  1  0  0  0  0
 23  5  1  0  0  0  0
M  END
> <BIOSOLVEIT.HYDE_ATOM_SCORES [kJ/mol]>
# Atom-ID; Total; Rec-Desolv; Rec-IA; Lig-Desolv; Lig-IA
1;-2.7444;6.1429;-7.9370;6.9866;-7.9370
2;-1.5023;-0.5716;0.0000;-0.9307;0.0000
3;-0.2464;0.0000;0.0000;-0.2464;0.0000
4;-1.5459;-0.3562;0.0000;-1.1897;0.0000
5;-0.2834;0.0000;0.0000;-0.2834;0.0000
6;-0.9442;-0.7936;-0.0578;-0.0209;-0.0719
11;0.0000;0.0000;0.0000;0.0000;0.0000
12;0.0000;0.0000;0.0000;0.0000;0.0000
13;5.4580;6.6261;0.0000;-1.1681;0.0000
14;1.7634;2.4914;-2.7640;12.1674;-10.1314
15;-2.8026;0.0742;-1.9119;4.1380;-5.1029
21;0.0000;0.0000;0.0000;0.0000;0.0000
22;-0.0850;0.0000;0.0000;-0.0850;0.0000
23;-0.4008;0.0000;0.0000;-0.4008;0.0000
24;-0.3370;0.0000;0.0000;-0.3370;0.0000
25;-0.8905;-0.5049;0.0000;-0.3857;0.0000
26;-0.1887;0.0000;0.0000;-0.1887;0.0000
27;0.0000;0.0000;0.0000;0.0000;0.0000
28;-1.2373;-0.2800;0.0000;-0.9573;0.0000
29;-2.5884;5.9106;-8.4285;10.3294;-10.3999
30;-2.4344;-1.9813;0.0000;-0.4531;0.0000
31;0.0000;0.0000;0.0000;0.0000;0.0000
32;-1.8755;-1.4424;0.0000;-0.4332;0.0000
33;-0.6204;0.2128;-1.0484;1.1336;-0.9184
39;-0.1675;0.0000;0.0000;-0.1675;0.0000

> <BIOSOLVEIT.HYDE_ESTIMATED_AFFINITY_LOWER_BOUNDARY [nM]>
328025.572001

> <BIOSOLVEIT.HYDE_ESTIMATED_AFFINITY_UPPER_BOUNDARY [nM]>
32591280.018935

> <BIOSOLVEIT.HYDE_LIGAND_EFFICIENCY range: ++, +, 0, -, -->
--

> <BIOSOLVEIT.HYDE_LIGAND_LIPOPHILIC_EFFICIENCY range: ++, +, 0, -, -->
--

> <BIOSOLVEIT.INTER_CLASH range: red, yellow, green>
green

> <BIOSOLVEIT.INTRA_CLASH range: red, yellow, green>
green

> <BIOSOLVEIT.LOGP>
2.87232

> <BIOSOLVEIT.MOLECULAR_WEIGHT>
377.442

> <BIOSOLVEIT.MOLECULE_CHECKSUM>
LTE0LjE4NzI7MC41Njc0ODk=

> <BIOSOLVEIT.TORSION_QUALITY range: red, yellow, green, not rotatable>
red

> <BIOSOLVEIT.TPSA>
95.7

> <BIOSOLVEIT.OPTIBRIUM.2D6 affinity category>
medium

> <BIOSOLVEIT.OPTIBRIUM.BBB category>
-

> <BIOSOLVEIT.OPTIBRIUM.2C9 pKi>
5.44624

> <BIOSOLVEIT.OPTIBRIUM.hERG pIC50>
4.77733

> <BIOSOLVEIT.OPTIBRIUM.HIA category>
+

> <BIOSOLVEIT.OPTIBRIUM.BBB log([brain]:[blood])>
-0.328259

> <BIOSOLVEIT.OPTIBRIUM.logD>
1.91467

> <BIOSOLVEIT.OPTIBRIUM.logP>
2.65717

> <BIOSOLVEIT.OPTIBRIUM.logS>
0.624278

> <BIOSOLVEIT.OPTIBRIUM.logS @ pH7.4>
3.24785

> <BIOSOLVEIT.OPTIBRIUM.P-gp category>
no

> <BIOSOLVEIT.OPTIBRIUM.PPB90 category>
high

$$$$
FLAVI-RDRP-DLS-JA018
dcSeeSAR  09212416393D 1   1.00000     0.00000     0
SeeSAR 13.0.1 dcn76311
 39 42  0  0  0  0            999 V2000
  -18.6568  -38.0665  -27.0428 N   0  0  0  0  0  0  0  0  0  0  0  0
  -17.9777  -35.7151  -26.3415 C   0  0  0  0  0  0  0  0  0  0  0  0
  -17.7889  -37.2085  -26.5529 C   0  0  0  0  0  0  0  0  0  0  0  0
  -18.2439  -39.3943  -27.1436 C   0  0  0  0  0  0  0  0  0  0  0  0
  -16.9700  -39.5948  -26.7059 C   0  0  0  0  0  0  0  0  0  0  0  0
  -16.3528  -38.0772  -26.1886 S   0  0  0  0  0  0  0  0  0  0  0  0
  -17.0846  -35.2980  -25.9255 H   0  0  0  0  0  0  0  0  0  0  0  0
  -18.1871  -35.2457  -27.2800 H   0  0  0  0  0  0  0  0  0  0  0  0
  -18.7946  -35.5503  -25.6703 H   0  0  0  0  0  0  0  0  0  0  0  0
  -18.8652  -40.1769  -27.5261 H   0  0  0  0  0  0  0  0  0  0  0  0
  -17.7944  -44.5211  -18.7327 C   0  0  0  0  0  0  0  0  0  0  0  0
  -19.1711  -44.4501  -19.3510 C   0  0  0  0  0  0  0  0  0  0  0  0
  -19.7079  -45.7280  -18.7646 C   0  0  0  0  0  0  0  0  0  0  0  0
  -19.1499  -45.5725  -17.4261 N   0  0  0  0  0  0  0  0  0  0  0  0
  -17.7850  -45.4001  -17.7782 O   0  0  0  0  0  0  0  0  0  0  0  0
  -19.1404  -44.4728  -20.4203 H   0  0  0  0  0  0  0  0  0  0  0  0
  -19.7201  -43.5903  -19.0281 H   0  0  0  0  0  0  0  0  0  0  0  0
  -19.3309  -46.5955  -19.2648 H   0  0  0  0  0  0  0  0  0  0  0  0
  -20.7774  -45.7559  -18.7592 H   0  0  0  0  0  0  0  0  0  0  0  0
  -19.2926  -46.3864  -16.8627 H   0  0  0  0  0  0  0  0  0  0  0  0
  -16.8542  -42.7896  -20.2266 C   0  0  2  0  0  0  0  0  0  0  0  0
  -16.0667  -42.3729  -22.7324 C   0  0  0  0  0  0  0  0  0  0  0  0
  -16.2079  -40.8715  -26.6723 C   0  0  0  0  0  0  0  0  0  0  0  0
  -15.2076  -41.1774  -24.5855 C   0  0  0  0  0  0  0  0  0  0  0  0
  -14.5139  -40.4074  -23.6560 C   0  0  0  0  0  0  0  0  0  0  0  0
  -14.6169  -40.6511  -22.2867 C   0  0  0  0  0  0  0  0  0  0  0  0
  -15.4127  -41.6646  -21.7531 C   0  0  0  0  0  0  0  0  0  0  0  0
  -16.0164  -42.1989  -24.1086 C   0  0  0  0  0  0  0  0  0  0  0  0
  -16.6022  -41.8435  -27.3242 O   0  0  0  0  0  0  0  0  0  0  0  0
  -15.1182  -40.9650  -25.9511 O   0  0  0  0  0  0  0  0  0  0  0  0
  -15.6482  -42.0891  -20.4469 O   0  0  0  0  0  0  0  0  0  0  0  0
  -16.9863  -43.5858  -21.8359 S   0  0  0  0  0  0  0  0  0  0  0  0
  -13.7132  -39.3902  -24.1484 O   0  0  0  0  0  0  0  0  0  0  0  0
  -14.0598  -40.0322  -21.6148 H   0  0  0  0  0  0  0  0  0  0  0  0
  -16.5764  -42.8244  -24.7720 H   0  0  0  0  0  0  0  0  0  0  0  0
  -17.6684  -42.1155  -20.0603 H   0  0  0  0  0  0  0  0  0  0  0  0
  -16.7351  -43.7972  -19.0949 C   0  0  0  0  0  0  0  0  0  0  0  0
  -15.8010  -43.9256  -18.5891 H   0  0  0  0  0  0  0  0  0  0  0  0
  -12.7272  -39.4054  -23.9828 H   0  0  0  0  0  0  0  0  0  0  0  0
  1  3  2  0  0  0  0
  1  4  1  0  0  0  0
  2  3  1  0  0  0  0
  3  6  1  0  0  0  0
  4  5  2  0  0  0  0
  5  6  1  0  0  0  0
  2  7  1  0  0  0  0
  2  8  1  0  0  0  0
  2  9  1  0  0  0  0
  4 10  1  0  0  0  0
 11 12  1  0  0  0  0
 11 15  1  0  0  0  0
 12 13  1  0  0  0  0
 13 14  1  0  0  0  0
 14 15  1  0  0  0  0
 12 16  1  0  0  0  0
 12 17  1  0  0  0  0
 13 18  1  0  0  0  0
 13 19  1  0  0  0  0
 14 20  1  0  0  0  0
 21 31  1  0  0  0  0
 21 32  1  0  0  0  0
 22 27  2  0  0  0  0
 22 28  1  0  0  0  0
 22 32  1  0  0  0  0
 23 29  2  0  0  0  0
 23 30  1  0  0  0  0
 24 25  1  0  0  0  0
 24 28  2  0  0  0  0
 24 30  1  0  0  0  0
 25 26  2  0  0  0  0
 26 27  1  0  0  0  0
 27 31  1  0  0  0  0
 25 33  1  0  0  0  0
 26 34  1  0  0  0  0
 28 35  1  0  0  0  0
 21 36  1  0  0  0  0
 21 37  1  0  0  0  0
 37 11  2  0  0  0  0
 37 38  1  0  0  0  0
 23  5  1  0  0  0  0
 33 39  1  0  0  0  0
M  END
> <BIOSOLVEIT.HYDE_ATOM_SCORES [kJ/mol]>
# Atom-ID; Total; Rec-Desolv; Rec-IA; Lig-Desolv; Lig-IA
1;-3.6782;6.1659;-8.4216;6.9992;-8.4216
2;-1.5319;-0.5716;0.0000;-0.9603;0.0000
3;-0.1680;0.0000;0.0000;-0.1680;0.0000
4;-1.4787;-0.3020;0.0000;-1.1767;0.0000
5;-0.2441;0.0000;0.0000;-0.2441;0.0000
6;-1.0605;-1.1337;0.0000;0.0732;0.0000
11;0.0000;0.0000;0.0000;0.0000;0.0000
12;-0.0227;0.0000;0.0000;-0.0227;0.0000
13;3.2519;4.8102;0.0000;-1.5584;0.0000
14;-1.9246;6.9817;-8.3699;11.5690;-12.1055
15;-1.7654;6.9439;-7.9303;4.0537;-4.8326
21;0.0000;0.0000;0.0000;0.0000;0.0000
22;0.0000;0.0000;0.0000;0.0000;0.0000
23;-0.3173;0.0000;0.0000;-0.3173;0.0000
24;-0.2335;0.0000;0.0000;-0.2335;0.0000
25;-0.2817;0.0000;0.0000;-0.2817;0.0000
26;-0.0981;0.0000;0.0000;-0.0981;0.0000
27;0.0000;0.0000;0.0000;0.0000;0.0000
28;-0.5941;-0.3048;0.0000;-0.2893;0.0000
29;-2.2561;5.9845;-8.3328;10.3739;-10.2817
30;-2.1819;-1.6854;0.0000;-0.4965;0.0000
31;0.0000;0.0000;0.0000;0.0000;0.0000
32;-0.0690;0.0000;0.0000;-0.0690;0.0000
33;-2.8501;7.8216;-9.8123;4.6288;-5.4882
37;0.0000;0.0000;0.0000;0.0000;0.0000

> <BIOSOLVEIT.HYDE_ESTIMATED_AFFINITY_LOWER_BOUNDARY [nM]>
69356.926373

> <BIOSOLVEIT.HYDE_ESTIMATED_AFFINITY_UPPER_BOUNDARY [nM]>
6891020.705770

> <BIOSOLVEIT.HYDE_LIGAND_EFFICIENCY range: ++, +, 0, -, -->
--

> <BIOSOLVEIT.HYDE_LIGAND_LIPOPHILIC_EFFICIENCY range: ++, +, 0, -, -->
--

> <BIOSOLVEIT.INTER_CLASH range: red, yellow, green>
green

> <BIOSOLVEIT.INTRA_CLASH range: red, yellow, green>
green

> <BIOSOLVEIT.LOGP>
2.99572

> <BIOSOLVEIT.MOLECULAR_WEIGHT>
378.426

> <BIOSOLVEIT.MOLECULE_CHECKSUM>
LTE4LjAzOTE7MC43MjE1NjQ=

> <BIOSOLVEIT.TORSION_QUALITY range: red, yellow, green, not rotatable>
yellow

> <BIOSOLVEIT.TPSA>
89.91

> <BIOSOLVEIT.OPTIBRIUM.2D6 affinity category>
high

> <BIOSOLVEIT.OPTIBRIUM.BBB category>
-

> <BIOSOLVEIT.OPTIBRIUM.2C9 pKi>
5.52313

> <BIOSOLVEIT.OPTIBRIUM.hERG pIC50>
5.02488

> <BIOSOLVEIT.OPTIBRIUM.HIA category>
+

> <BIOSOLVEIT.OPTIBRIUM.BBB log([brain]:[blood])>
-0.538399

> <BIOSOLVEIT.OPTIBRIUM.logD>
2.96379

> <BIOSOLVEIT.OPTIBRIUM.logP>
2.96379

> <BIOSOLVEIT.OPTIBRIUM.logS>
0.940483

> <BIOSOLVEIT.OPTIBRIUM.logS @ pH7.4>
0.940483

> <BIOSOLVEIT.OPTIBRIUM.P-gp category>
no

> <BIOSOLVEIT.OPTIBRIUM.PPB90 category>
high

$$$$
FLAVI-RDRP-DLS-JA019
dcSeeSAR  09212416393D 1   1.00000     0.00000     0
SeeSAR 13.0.1 dcn76311
 40 43  0  0  0  0            999 V2000
  -18.5797  -37.9883  -27.1270 N   0  0  0  0  0  0  0  0  0  0  0  0
  -17.5067  -35.7719  -26.6270 C   0  0  0  0  0  0  0  0  0  0  0  0
  -17.5127  -37.2751  -26.8524 C   0  0  0  0  0  0  0  0  0  0  0  0
  -18.1950  -39.3111  -27.2633 C   0  0  0  0  0  0  0  0  0  0  0  0
  -16.8484  -39.3667  -27.0602 C   0  0  0  0  0  0  0  0  0  0  0  0
  -16.3978  -38.0885  -26.7958 N   0  0  0  0  0  0  0  0  0  0  0  0
  -16.5085  -35.4462  -26.4210 H   0  0  0  0  0  0  0  0  0  0  0  0
  -17.8690  -35.2783  -27.5044 H   0  0  0  0  0  0  0  0  0  0  0  0
  -18.1383  -35.5332  -25.7970 H   0  0  0  0  0  0  0  0  0  0  0  0
  -18.8367  -40.1376  -27.4869 H   0  0  0  0  0  0  0  0  0  0  0  0
  -17.6568  -45.2261  -19.4019 C   0  0  0  0  0  0  0  0  0  0  0  0
  -18.9226  -44.4297  -19.1866 C   0  0  0  0  0  0  0  0  0  0  0  0
  -19.6584  -45.4607  -18.3740 C   0  0  0  0  0  0  0  0  0  0  0  0
  -18.5356  -45.8892  -17.5479 N   0  0  0  0  0  0  0  0  0  0  0  0
  -17.6232  -46.2304  -18.5811 O   0  0  0  0  0  0  0  0  0  0  0  0
  -19.4222  -44.2006  -20.1046 H   0  0  0  0  0  0  0  0  0  0  0  0
  -18.7489  -43.5265  -18.6399 H   0  0  0  0  0  0  0  0  0  0  0  0
  -20.0462  -46.2543  -18.9777 H   0  0  0  0  0  0  0  0  0  0  0  0
  -20.4503  -45.0335  -17.7949 H   0  0  0  0  0  0  0  0  0  0  0  0
  -18.7683  -46.6766  -16.9769 H   0  0  0  0  0  0  0  0  0  0  0  0
  -16.8383  -43.7478  -21.2073 C   0  0  2  0  0  0  0  0  0  0  0  0
  -15.9629  -42.7876  -23.5278 C   0  0  0  0  0  0  0  0  0  0  0  0
  -16.0125  -40.5928  -27.1146 C   0  0  0  0  0  0  0  0  0  0  0  0
  -15.1024  -41.1937  -25.0508 C   0  0  0  0  0  0  0  0  0  0  0  0
  -14.5100  -40.5873  -23.9464 C   0  0  0  0  0  0  0  0  0  0  0  0
  -14.6611  -41.1082  -22.6615 C   0  0  0  0  0  0  0  0  0  0  0  0
  -15.4082  -42.2541  -22.3893 C   0  0  0  0  0  0  0  0  0  0  0  0
  -15.8591  -42.3365  -24.8364 C   0  0  0  0  0  0  0  0  0  0  0  0
  -16.3072  -41.5070  -27.8909 O   0  0  0  0  0  0  0  0  0  0  0  0
  -14.9628  -40.7048  -26.3390 O   0  0  0  0  0  0  0  0  0  0  0  0
  -15.6755  -42.9469  -21.2101 O   0  0  0  0  0  0  0  0  0  0  0  0
  -16.8367  -44.2091  -22.9475 S   0  0  0  0  0  0  0  0  0  0  0  0
  -13.7603  -39.4459  -24.1773 O   0  0  0  0  0  0  0  0  0  0  0  0
  -14.1819  -40.6058  -21.8474 H   0  0  0  0  0  0  0  0  0  0  0  0
  -16.3410  -42.8474  -25.6436 H   0  0  0  0  0  0  0  0  0  0  0  0
  -17.7050  -43.1709  -20.9608 H   0  0  0  0  0  0  0  0  0  0  0  0
  -16.7029  -44.9544  -20.2929 C   0  0  0  0  0  0  0  0  0  0  0  0
  -15.8420  -45.5859  -20.3643 H   0  0  0  0  0  0  0  0  0  0  0  0
  -12.7835  -39.4376  -23.9636 H   0  0  0  0  0  0  0  0  0  0  0  0
  -15.4572  -37.8091  -26.6029 H   0  0  0  0  0  0  0  0  0  0  0  0
  1  3  2  0  0  0  0
  1  4  1  0  0  0  0
  2  3  1  0  0  0  0
  3  6  1  0  0  0  0
  4  5  2  0  0  0  0
  5  6  1  0  0  0  0
  2  7  1  0  0  0  0
  2  8  1  0  0  0  0
  2  9  1  0  0  0  0
  4 10  1  0  0  0  0
 11 12  1  0  0  0  0
 11 15  1  0  0  0  0
 12 13  1  0  0  0  0
 13 14  1  0  0  0  0
 14 15  1  0  0  0  0
 12 16  1  0  0  0  0
 12 17  1  0  0  0  0
 13 18  1  0  0  0  0
 13 19  1  0  0  0  0
 14 20  1  0  0  0  0
 21 31  1  0  0  0  0
 21 32  1  0  0  0  0
 22 27  2  0  0  0  0
 22 28  1  0  0  0  0
 22 32  1  0  0  0  0
 23 29  2  0  0  0  0
 23 30  1  0  0  0  0
 24 25  1  0  0  0  0
 24 28  2  0  0  0  0
 24 30  1  0  0  0  0
 25 26  2  0  0  0  0
 26 27  1  0  0  0  0
 27 31  1  0  0  0  0
 25 33  1  0  0  0  0
 26 34  1  0  0  0  0
 28 35  1  0  0  0  0
 21 36  1  0  0  0  0
 21 37  1  0  0  0  0
 37 11  2  0  0  0  0
 37 38  1  0  0  0  0
 23  5  1  0  0  0  0
 33 39  1  0  0  0  0
  6 40  1  0  0  0  0
M  END
> <BIOSOLVEIT.HYDE_ATOM_SCORES [kJ/mol]>
# Atom-ID; Total; Rec-Desolv; Rec-IA; Lig-Desolv; Lig-IA
1;-1.3895;6.0101;-7.1932;6.9867;-7.1932
2;-1.8758;-0.5080;0.0000;-1.3678;0.0000
3;-0.2962;0.0000;0.0000;-0.2962;0.0000
4;-1.2800;-0.1342;0.0000;-1.1458;0.0000
5;-0.5204;-0.1816;0.0000;-0.3388;0.0000
6;0.3302;-0.9130;-0.5762;6.8667;-5.0474
11;0.0000;0.0000;0.0000;0.0000;0.0000
12;0.0000;0.0000;0.0000;0.0000;0.0000
13;5.4580;6.6261;0.0000;-1.1681;0.0000
14;1.1883;8.2233;-8.5715;11.9626;-10.4262
15;-2.8484;0.0742;-1.9244;4.1380;-5.1361
21;0.0000;0.0000;0.0000;0.0000;0.0000
22;-0.1071;0.0000;0.0000;-0.1071;0.0000
23;-0.4286;0.0000;0.0000;-0.4286;0.0000
24;-0.3389;0.0000;0.0000;-0.3389;0.0000
25;-0.9341;-0.5464;0.0000;-0.3877;0.0000
26;-0.2626;0.0000;0.0000;-0.2626;0.0000
27;0.0000;0.0000;0.0000;0.0000;0.0000
28;-1.2945;-0.3484;0.0000;-0.9462;0.0000
29;-2.6117;5.9046;-8.4285;10.3122;-10.3999
30;-2.4829;-2.0309;0.0000;-0.4520;0.0000
31;0.0000;0.0000;0.0000;0.0000;0.0000
32;-1.9511;-1.4035;0.0000;-0.5476;0.0000
33;-2.8063;7.7715;-9.7636;4.5839;-5.3981
37;-0.1664;0.0000;0.0000;-0.1664;0.0000

> <BIOSOLVEIT.HYDE_ESTIMATED_AFFINITY_LOWER_BOUNDARY [nM]>
224092.935266

> <BIOSOLVEIT.HYDE_ESTIMATED_AFFINITY_UPPER_BOUNDARY [nM]>
22264958.060927

> <BIOSOLVEIT.HYDE_LIGAND_EFFICIENCY range: ++, +, 0, -, -->
--

> <BIOSOLVEIT.HYDE_LIGAND_LIPOPHILIC_EFFICIENCY range: ++, +, 0, -, -->
--

> <BIOSOLVEIT.INTER_CLASH range: red, yellow, green>
green

> <BIOSOLVEIT.INTRA_CLASH range: red, yellow, green>
green

> <BIOSOLVEIT.LOGP>
2.26232

> <BIOSOLVEIT.MOLECULAR_WEIGHT>
361.376

> <BIOSOLVEIT.MOLECULE_CHECKSUM>
LTE1LjEzMTg7MC42MDUyNzI=

> <BIOSOLVEIT.TORSION_QUALITY range: red, yellow, green, not rotatable>
red

> <BIOSOLVEIT.TPSA>
105.7

> <BIOSOLVEIT.OPTIBRIUM.2D6 affinity category>
high

> <BIOSOLVEIT.OPTIBRIUM.BBB category>
-

> <BIOSOLVEIT.OPTIBRIUM.2C9 pKi>
5.24221

> <BIOSOLVEIT.OPTIBRIUM.hERG pIC50>
4.24275

> <BIOSOLVEIT.OPTIBRIUM.HIA category>
+

> <BIOSOLVEIT.OPTIBRIUM.BBB log([brain]:[blood])>
-0.416472

> <BIOSOLVEIT.OPTIBRIUM.logD>
2.30201

> <BIOSOLVEIT.OPTIBRIUM.logP>
2.30201

> <BIOSOLVEIT.OPTIBRIUM.logS>
1.01379

> <BIOSOLVEIT.OPTIBRIUM.logS @ pH7.4>
1.01379

> <BIOSOLVEIT.OPTIBRIUM.P-gp category>
no

> <BIOSOLVEIT.OPTIBRIUM.PPB90 category>
high

$$$$
