FLAVI-RDRP-DLS-JA020
dcSeeSAR  09252409193D 1   1.00000     0.00000     0
SeeSAR 13.0.1 dcn76311
 48 50  0  0  0  0            999 V2000
  -16.8716  -40.9602  -23.3590 C   0  0  0  0  0  0  0  0  0  0  0  0
  -17.4295  -38.1000  -26.8602 C   0  0  0  0  0  0  0  0  0  0  0  0
  -17.1574  -39.5664  -27.2771 C   0  0  0  0  0  0  0  0  0  0  0  0
  -15.8699  -40.4451  -25.5071 C   0  0  0  0  0  0  0  0  0  0  0  0
  -14.6341  -40.3626  -24.8738 C   0  0  0  0  0  0  0  0  0  0  0  0
  -14.5165  -40.5754  -23.5042 C   0  0  0  0  0  0  0  0  0  0  0  0
  -15.6332  -40.8764  -22.7316 C   0  0  0  0  0  0  0  0  0  0  0  0
  -16.9839  -40.7470  -24.7289 C   0  0  0  0  0  0  0  0  0  0  0  0
  -17.9440  -40.1610  -27.9554 O   0  0  0  0  0  0  0  0  0  0  0  0
  -15.9808  -40.2322  -26.8733 O   0  0  0  0  0  0  0  0  0  0  0  0
  -15.5286  -41.0908  -21.3673 O   0  0  0  0  0  0  0  0  0  0  0  0
  -16.6182  -37.7433  -26.2606 H   0  0  0  0  0  0  0  0  0  0  0  0
  -17.5206  -37.4914  -27.7356 H   0  0  0  0  0  0  0  0  0  0  0  0
  -18.3376  -38.0522  -26.2964 H   0  0  0  0  0  0  0  0  0  0  0  0
  -13.7615  -40.1321  -25.4484 H   0  0  0  0  0  0  0  0  0  0  0  0
  -13.5552  -40.5069  -23.0393 H   0  0  0  0  0  0  0  0  0  0  0  0
  -17.9452  -40.8164  -25.1935 H   0  0  0  0  0  0  0  0  0  0  0  0
  -17.7441  -41.1904  -22.7839 H   0  0  0  0  0  0  0  0  0  0  0  0
  -15.9745  -44.7173  -19.3130 C   0  0  0  0  0  0  0  0  0  0  0  0
  -14.9504  -43.7287  -18.7794 C   0  0  1  0  0  0  0  0  0  0  0  0
  -15.2027  -42.3441  -19.3551 C   0  0  2  0  0  0  0  0  0  0  0  0
  -15.1798  -42.3768  -20.8752 C   0  0  1  0  0  0  0  0  0  0  0  0
  -16.1884  -43.3830  -21.4058 C   0  0  0  0  0  0  0  0  0  0  0  0
  -15.9174  -44.7644  -20.8315 C   0  0  2  0  0  0  0  0  0  0  0  0
  -14.4663  -40.2085  -18.1907 C   0  0  0  0  0  0  0  0  0  0  0  0
  -15.0376  -43.7142  -17.2619 C   0  0  0  0  0  0  0  0  0  0  0  0
  -16.9446  -45.7475  -21.3685 C   0  0  0  0  0  0  0  0  0  0  0  0
  -17.0757  -46.9933  -20.8237 C   0  0  0  0  0  0  0  0  0  0  0  0
  -17.9206  -47.8094  -21.4733 C   0  0  0  0  0  0  0  0  0  0  0  0
  -18.4825  -47.2984  -22.5638 C   0  0  0  0  0  0  0  0  0  0  0  0
  -14.2152  -41.4265  -18.9088 O   0  0  0  0  0  0  0  0  0  0  0  0
  -15.9626  -43.1351  -16.6496 O   0  0  0  0  0  0  0  0  0  0  0  0
  -14.1656  -44.2951  -16.5671 O   0  5  0  0  0  0  0  0  0  0  0  0
  -17.9455  -45.7067  -22.7564 S   0  0  0  0  0  0  0  0  0  0  0  0
  -16.9531  -44.4132  -19.0053 H   0  0  0  0  0  0  0  0  0  0  0  0
  -15.7638  -45.6905  -18.9212 H   0  0  0  0  0  0  0  0  0  0  0  0
  -13.9721  -44.0520  -19.0680 H   0  0  0  0  0  0  0  0  0  0  0  0
  -16.1637  -42.0037  -19.0305 H   0  0  0  0  0  0  0  0  0  0  0  0
  -16.1157  -43.4249  -22.4725 H   0  0  0  0  0  0  0  0  0  0  0  0
  -14.9411  -45.0813  -21.1334 H   0  0  0  0  0  0  0  0  0  0  0  0
  -13.5380  -39.7181  -17.9844 H   0  0  0  0  0  0  0  0  0  0  0  0
  -15.0850  -39.5666  -18.7825 H   0  0  0  0  0  0  0  0  0  0  0  0
  -14.9633  -40.4333  -17.2701 H   0  0  0  0  0  0  0  0  0  0  0  0
  -16.5450  -47.2956  -19.9452 H   0  0  0  0  0  0  0  0  0  0  0  0
  -18.1275  -48.8035  -21.1360 H   0  0  0  0  0  0  0  0  0  0  0  0
  -19.1623  -47.8098  -23.2128 H   0  0  0  0  0  0  0  0  0  0  0  0
  -17.1741  -43.0734  -21.1274 H   0  0  0  0  0  0  0  0  0  0  0  0
  -14.1991  -42.6377  -21.2144 H   0  0  0  0  0  0  0  0  0  0  0  0
  1  7  2  0  0  0  0
  1  8  1  0  0  0  0
  2  3  1  0  0  0  0
  3  9  2  0  0  0  0
  3 10  1  0  0  0  0
  4  5  1  0  0  0  0
  4  8  2  0  0  0  0
  4 10  1  0  0  0  0
  5  6  2  0  0  0  0
  6  7  1  0  0  0  0
  7 11  1  0  0  0  0
  2 12  1  0  0  0  0
  2 13  1  0  0  0  0
  2 14  1  0  0  0  0
  5 15  1  0  0  0  0
  6 16  1  0  0  0  0
  8 17  1  0  0  0  0
  1 18  1  0  0  0  0
 19 20  1  0  0  0  0
 19 24  1  0  0  0  0
 20 21  1  0  0  0  0
 20 26  1  0  0  0  0
 21 22  1  0  0  0  0
 21 31  1  0  0  0  0
 22 23  1  0  0  0  0
 23 24  1  0  0  0  0
 24 27  1  0  0  0  0
 25 31  1  0  0  0  0
 26 32  2  0  0  0  0
 26 33  1  0  0  0  0
 27 28  2  0  0  0  0
 27 34  1  0  0  0  0
 28 29  1  0  0  0  0
 29 30  2  0  0  0  0
 30 34  1  0  0  0  0
 19 35  1  0  0  0  0
 19 36  1  0  0  0  0
 20 37  1  0  0  0  0
 21 38  1  0  0  0  0
 23 39  1  0  0  0  0
 24 40  1  0  0  0  0
 25 41  1  0  0  0  0
 25 42  1  0  0  0  0
 25 43  1  0  0  0  0
 28 44  1  0  0  0  0
 29 45  1  0  0  0  0
 30 46  1  0  0  0  0
 23 47  1  0  0  0  0
 22 11  1  0  0  0  0
 22 48  1  0  0  0  0
M  CHG  1  33  -1
M  END
> <BIOSOLVEIT.HYDE_ATOM_SCORES [kJ/mol]>
# Atom-ID; Total; Rec-Desolv; Rec-IA; Lig-Desolv; Lig-IA
1;0.0000;0.0000;0.0000;0.0000;0.0000
2;-2.3055;-0.5487;0.0000;-1.7568;0.0000
3;-0.2626;0.0000;0.0000;-0.2626;0.0000
4;-0.0836;0.0000;0.0000;-0.0836;0.0000
5;-2.1539;-0.8602;0.0000;-1.2937;0.0000
6;-0.8020;-0.3995;0.0000;-0.4025;0.0000
7;0.0000;0.0000;0.0000;0.0000;0.0000
8;0.0000;0.0000;0.0000;0.0000;0.0000
9;2.4224;11.0387;-8.4191;10.4043;-10.6015
10;-1.9220;-1.5831;0.0000;-0.3389;0.0000
11;0.0000;0.0000;0.0000;0.0000;0.0000
19;-0.1843;0.0000;0.0000;-0.1843;0.0000
20;-0.1485;0.0000;0.0000;-0.1485;0.0000
21;0.0000;0.0000;0.0000;0.0000;0.0000
22;0.0000;0.0000;0.0000;0.0000;0.0000
23;0.0000;0.0000;0.0000;0.0000;0.0000
24;-0.5942;-0.2992;0.0000;-0.2949;0.0000
25;0.0000;0.0000;0.0000;0.0000;0.0000
26;-0.1640;0.0000;0.0000;-0.1640;0.0000
27;-0.2684;0.0000;0.0000;-0.2684;0.0000
28;-1.0415;-0.2458;0.0000;-0.7957;0.0000
29;-6.2871;-4.6675;0.0000;-1.6195;0.0000
30;-5.6432;-3.9900;0.0000;-1.6532;0.0000
31;0.0000;0.0000;0.0000;0.0000;0.0000
32;0.1399;0.3363;0.0000;-0.1964;0.0000
33;-2.4988;7.0762;-8.4288;3.9902;-5.1364
34;-1.5422;-0.9724;0.0000;-0.5699;0.0000

> <BIOSOLVEIT.HYDE_ESTIMATED_AFFINITY_LOWER_BOUNDARY [nM]>
7683.437994

> <BIOSOLVEIT.HYDE_ESTIMATED_AFFINITY_UPPER_BOUNDARY [nM]>
763394.992775

> <BIOSOLVEIT.HYDE_LIGAND_EFFICIENCY range: ++, +, 0, -, -->
-

> <BIOSOLVEIT.HYDE_LIGAND_LIPOPHILIC_EFFICIENCY range: ++, +, 0, -, -->
--

> <BIOSOLVEIT.INTER_CLASH range: red, yellow, green>
green

> <BIOSOLVEIT.INTRA_CLASH range: red, yellow, green>
green

> <BIOSOLVEIT.LOGP>
2.3795

> <BIOSOLVEIT.MOLECULAR_WEIGHT>
389.445

> <BIOSOLVEIT.MOLECULE_CHECKSUM>
LTIzLjQ5MzM7MC44NzAxMjI=

> <BIOSOLVEIT.TORSION_QUALITY range: red, yellow, green, not rotatable>
red

> <BIOSOLVEIT.TPSA>
84.89

> <BIOSOLVEIT.OPTIBRIUM.2D6 affinity category>
very high

> <BIOSOLVEIT.OPTIBRIUM.BBB category>
-

> <BIOSOLVEIT.OPTIBRIUM.2C9 pKi>
5.07212

> <BIOSOLVEIT.OPTIBRIUM.hERG pIC50>
4.32985

> <BIOSOLVEIT.OPTIBRIUM.HIA category>
+

> <BIOSOLVEIT.OPTIBRIUM.BBB log([brain]:[blood])>
-1.0129

> <BIOSOLVEIT.OPTIBRIUM.logD>
0.319925

> <BIOSOLVEIT.OPTIBRIUM.logP>
3.8663

> <BIOSOLVEIT.OPTIBRIUM.logS>
1.12156

> <BIOSOLVEIT.OPTIBRIUM.logS @ pH7.4>
2.46138

> <BIOSOLVEIT.OPTIBRIUM.P-gp category>
yes

> <BIOSOLVEIT.OPTIBRIUM.PPB90 category>
high

$$$$
FLAVI-RDRP-DLS-JA021
dcSeeSAR  09252409193D 1   1.00000     0.00000     0
SeeSAR 13.0.1 dcn76311
 44 47  0  0  0  0            999 V2000
  -15.0082  -43.6253  -21.3735 C   0  0  0  0  0  0  0  0  0  0  0  0
  -15.2794  -42.3768  -23.4401 C   0  0  0  0  0  0  0  0  0  0  0  0
  -17.9697  -39.7048  -26.0127 C   0  0  0  0  0  0  0  0  0  0  0  0
  -16.7095  -40.2956  -26.6917 C   0  0  0  0  0  0  0  0  0  0  0  0
  -15.1973  -40.5628  -24.9040 C   0  0  0  0  0  0  0  0  0  0  0  0
  -14.6746  -39.7536  -23.9012 C   0  0  0  0  0  0  0  0  0  0  0  0
  -14.4514  -40.2594  -22.6294 C   0  0  0  0  0  0  0  0  0  0  0  0
  -14.7670  -41.5932  -22.4222 C   0  0  0  0  0  0  0  0  0  0  0  0
  -15.5149  -41.8936  -24.7147 C   0  0  0  0  0  0  0  0  0  0  0  0
  -16.8093  -40.9692  -27.6760 O   0  0  0  0  0  0  0  0  0  0  0  0
  -15.4205  -40.0528  -26.1722 O   0  0  0  0  0  0  0  0  0  0  0  0
  -14.6179  -42.3307  -21.1931 C   0  0  0  0  0  0  0  0  0  0  0  0
  -15.5784  -44.0000  -22.9499 S   0  0  0  0  0  0  0  0  0  0  0  0
  -17.6789  -39.1365  -25.1540 H   0  0  0  0  0  0  0  0  0  0  0  0
  -18.4825  -39.0692  -26.7041 H   0  0  0  0  0  0  0  0  0  0  0  0
  -18.6183  -40.5004  -25.7109 H   0  0  0  0  0  0  0  0  0  0  0  0
  -14.4424  -38.7308  -24.1129 H   0  0  0  0  0  0  0  0  0  0  0  0
  -14.0545  -39.6491  -21.8453 H   0  0  0  0  0  0  0  0  0  0  0  0
  -15.9138  -42.5058  -25.4964 H   0  0  0  0  0  0  0  0  0  0  0  0
  -14.9707  -44.1927  -19.0391 C   0  0  0  0  0  0  0  0  0  0  0  0
  -13.7734  -43.2581  -19.0215 C   0  0  1  0  0  0  0  0  0  0  0  0
  -14.1138  -41.9984  -19.7989 C   0  0  1  0  0  0  0  0  0  0  0  0
  -15.0318  -44.8155  -20.4216 C   0  0  1  0  0  0  0  0  0  0  0  0
  -11.7123  -41.4226  -20.3991 C   0  0  0  0  0  0  0  0  0  0  0  0
  -13.4728  -42.8436  -17.5904 C   0  0  0  0  0  0  0  0  0  0  0  0
  -16.2741  -45.6788  -20.5694 C   0  0  0  0  0  0  0  0  0  0  0  0
  -16.1858  -47.0419  -20.5688 C   0  0  0  0  0  0  0  0  0  0  0  0
  -17.3326  -47.6837  -20.8420 C   0  0  0  0  0  0  0  0  0  0  0  0
  -18.3763  -46.9027  -21.1002 C   0  0  0  0  0  0  0  0  0  0  0  0
  -13.0028  -41.1156  -19.8485 O   0  0  0  0  0  0  0  0  0  0  0  0
  -13.9146  -41.7837  -17.0931 O   0  0  0  0  0  0  0  0  0  0  0  0
  -12.7578  -43.5687  -16.8528 O   0  5  0  0  0  0  0  0  0  0  0  0
  -17.8946  -45.2881  -20.9578 S   0  0  0  0  0  0  0  0  0  0  0  0
  -15.8679  -43.6431  -18.8444 H   0  0  0  0  0  0  0  0  0  0  0  0
  -14.8517  -44.9554  -18.2981 H   0  0  0  0  0  0  0  0  0  0  0  0
  -12.9214  -43.7403  -19.4536 H   0  0  0  0  0  0  0  0  0  0  0  0
  -11.0711  -40.5715  -20.3013 H   0  0  0  0  0  0  0  0  0  0  0  0
  -11.2877  -42.2515  -19.8721 H   0  0  0  0  0  0  0  0  0  0  0  0
  -11.8166  -41.6737  -21.4340 H   0  0  0  0  0  0  0  0  0  0  0  0
  -15.2713  -47.5591  -20.3660 H   0  0  0  0  0  0  0  0  0  0  0  0
  -17.4017  -48.7514  -20.8511 H   0  0  0  0  0  0  0  0  0  0  0  0
  -19.3591  -47.2397  -21.3558 H   0  0  0  0  0  0  0  0  0  0  0  0
  -14.9035  -41.4984  -19.2781 H   0  0  0  0  0  0  0  0  0  0  0  0
  -14.1603  -45.4157  -20.5804 H   0  0  0  0  0  0  0  0  0  0  0  0
  1 12  2  0  0  0  0
  1 13  1  0  0  0  0
  2  8  2  0  0  0  0
  2  9  1  0  0  0  0
  2 13  1  0  0  0  0
  3  4  1  0  0  0  0
  4 10  2  0  0  0  0
  4 11  1  0  0  0  0
  5  6  1  0  0  0  0
  5  9  2  0  0  0  0
  5 11  1  0  0  0  0
  6  7  2  0  0  0  0
  7  8  1  0  0  0  0
  8 12  1  0  0  0  0
  3 14  1  0  0  0  0
  3 15  1  0  0  0  0
  3 16  1  0  0  0  0
  6 17  1  0  0  0  0
  7 18  1  0  0  0  0
  9 19  1  0  0  0  0
 20 21  1  0  0  0  0
 20 23  1  0  0  0  0
 21 22  1  0  0  0  0
 21 25  1  0  0  0  0
 22 30  1  0  0  0  0
 23 26  1  0  0  0  0
 24 30  1  0  0  0  0
 25 31  2  0  0  0  0
 25 32  1  0  0  0  0
 26 27  2  0  0  0  0
 26 33  1  0  0  0  0
 27 28  1  0  0  0  0
 28 29  2  0  0  0  0
 29 33  1  0  0  0  0
 20 34  1  0  0  0  0
 20 35  1  0  0  0  0
 21 36  1  0  0  0  0
 24 37  1  0  0  0  0
 24 38  1  0  0  0  0
 24 39  1  0  0  0  0
 27 40  1  0  0  0  0
 28 41  1  0  0  0  0
 29 42  1  0  0  0  0
 22 12  1  0  0  0  0
 22 43  1  0  0  0  0
  1 23  1  0  0  0  0
 23 44  1  0  0  0  0
M  CHG  1  32  -1
M  END
> <BIOSOLVEIT.HYDE_ATOM_SCORES [kJ/mol]>
# Atom-ID; Total; Rec-Desolv; Rec-IA; Lig-Desolv; Lig-IA
1;0.0000;0.0000;0.0000;0.0000;0.0000
2;-0.1657;0.0000;0.0000;-0.1657;0.0000
3;0.3448;0.7062;0.0000;-0.3614;0.0000
4;-0.1501;0.0000;0.0000;-0.1501;0.0000
5;-0.2260;0.0000;0.0000;-0.2260;0.0000
6;-0.9262;-0.0709;0.0000;-0.8554;0.0000
7;-0.2865;0.0000;0.0000;-0.2865;0.0000
8;-0.1543;0.0000;0.0000;-0.1543;0.0000
9;-2.4096;-1.6678;0.0000;-0.7418;0.0000
10;-2.6499;5.8393;-8.4287;10.3396;-10.4001
11;-1.2167;-0.8171;0.0000;-0.3996;0.0000
12;0.0000;0.0000;0.0000;0.0000;0.0000
13;-0.9811;-0.9948;0.0000;0.0137;0.0000
20;-0.3972;0.0045;0.0000;-0.4017;0.0000
21;-0.2818;0.0000;0.0000;-0.2818;0.0000
22;0.0000;0.0000;0.0000;0.0000;0.0000
23;-1.3524;-0.9042;0.0000;-0.4482;0.0000
24;-2.9252;-0.6464;0.0000;-2.2788;0.0000
25;0.0000;0.0000;0.0000;0.0000;0.0000
26;0.0000;0.0000;0.0000;0.0000;0.0000
27;-3.2148;-1.9121;0.0000;-1.3027;0.0000
28;-3.9915;-2.4300;0.0000;-1.5615;0.0000
29;-2.4077;-1.1900;0.0000;-1.2178;0.0000
30;0.0000;0.0000;0.0000;0.0000;0.0000
31;0.0000;0.0000;0.0000;0.0000;0.0000
32;-1.8628;13.8830;-14.4487;3.8339;-5.1310
33;0.0000;0.0000;0.0000;0.0000;0.0000

> <BIOSOLVEIT.HYDE_ESTIMATED_AFFINITY_LOWER_BOUNDARY [nM]>
3315.379027

> <BIOSOLVEIT.HYDE_ESTIMATED_AFFINITY_UPPER_BOUNDARY [nM]>
329402.508409

> <BIOSOLVEIT.HYDE_LIGAND_EFFICIENCY range: ++, +, 0, -, -->
-

> <BIOSOLVEIT.HYDE_LIGAND_LIPOPHILIC_EFFICIENCY range: ++, +, 0, -, -->
--

> <BIOSOLVEIT.INTER_CLASH range: red, yellow, green>
green

> <BIOSOLVEIT.INTRA_CLASH range: red, yellow, green>
green

> <BIOSOLVEIT.LOGP>
3.4773

> <BIOSOLVEIT.MOLECULAR_WEIGHT>
401.479

> <BIOSOLVEIT.MOLECULE_CHECKSUM>
LTI1LjU3Njg7MC45NDcyOTE=

> <BIOSOLVEIT.TORSION_QUALITY range: red, yellow, green, not rotatable>
red

> <BIOSOLVEIT.TPSA>
75.66

> <BIOSOLVEIT.OPTIBRIUM.2D6 affinity category>
very high

> <BIOSOLVEIT.OPTIBRIUM.BBB category>
-

> <BIOSOLVEIT.OPTIBRIUM.2C9 pKi>
5.43916

> <BIOSOLVEIT.OPTIBRIUM.hERG pIC50>
4.46654

> <BIOSOLVEIT.OPTIBRIUM.HIA category>
+

> <BIOSOLVEIT.OPTIBRIUM.BBB log([brain]:[blood])>
-1.16396

> <BIOSOLVEIT.OPTIBRIUM.logD>
1.54798

> <BIOSOLVEIT.OPTIBRIUM.logP>
4.31613

> <BIOSOLVEIT.OPTIBRIUM.logS>
0.242408

> <BIOSOLVEIT.OPTIBRIUM.logS @ pH7.4>
1.72436

> <BIOSOLVEIT.OPTIBRIUM.P-gp category>
no

> <BIOSOLVEIT.OPTIBRIUM.PPB90 category>
high

$$$$
FLAVI-RDRP-DLS-JA022
dcSeeSAR  09252409193D 1   1.00000     0.00000     0
SeeSAR 13.0.1 dcn76311
 46 49  0  0  0  0            999 V2000
  -16.1599  -42.9440  -20.9071 C   0  0  1  0  0  0  0  0  0  0  0  0
  -15.4555  -42.0689  -23.3477 C   0  0  0  0  0  0  0  0  0  0  0  0
  -17.4105  -39.1076  -26.5294 C   0  0  0  0  0  0  0  0  0  0  0  0
  -16.4299  -40.2412  -26.9185 C   0  0  0  0  0  0  0  0  0  0  0  0
  -15.0082  -40.5899  -25.0715 C   0  0  0  0  0  0  0  0  0  0  0  0
  -14.3572  -39.7932  -24.1291 C   0  0  0  0  0  0  0  0  0  0  0  0
  -14.2616  -40.1520  -22.7900 C   0  0  0  0  0  0  0  0  0  0  0  0
  -14.8104  -41.3657  -22.3697 C   0  0  0  0  0  0  0  0  0  0  0  0
  -15.5950  -41.7828  -24.6903 C   0  0  0  0  0  0  0  0  0  0  0  0
  -16.7751  -41.1151  -27.6599 O   0  0  0  0  0  0  0  0  0  0  0  0
  -15.1124  -40.2695  -26.4149 O   0  0  0  0  0  0  0  0  0  0  0  0
  -14.8748  -42.1511  -21.0631 C   0  0  1  0  0  0  0  0  0  0  0  0
  -16.0914  -43.5301  -22.5992 S   0  0  0  0  0  0  0  0  0  0  0  0
  -16.9223  -38.4266  -25.8639 H   0  0  0  0  0  0  0  0  0  0  0  0
  -17.7196  -38.5853  -27.4107 H   0  0  0  0  0  0  0  0  0  0  0  0
  -18.2670  -39.5276  -26.0448 H   0  0  0  0  0  0  0  0  0  0  0  0
  -13.9156  -38.8725  -24.4491 H   0  0  0  0  0  0  0  0  0  0  0  0
  -13.7736  -39.5067  -22.0898 H   0  0  0  0  0  0  0  0  0  0  0  0
  -16.1099  -42.4250  -25.3738 H   0  0  0  0  0  0  0  0  0  0  0  0
  -15.2425  -44.1147  -19.0127 C   0  0  0  0  0  0  0  0  0  0  0  0
  -14.0784  -43.1383  -19.0396 C   0  0  1  0  0  0  0  0  0  0  0  0
  -14.5044  -41.8047  -19.6361 C   0  0  1  0  0  0  0  0  0  0  0  0
  -15.7056  -44.3211  -20.4420 C   0  0  1  0  0  0  0  0  0  0  0  0
  -13.3043  -39.6106  -19.1832 C   0  0  0  0  0  0  0  0  0  0  0  0
  -13.5976  -42.9431  -17.6110 C   0  0  0  0  0  0  0  0  0  0  0  0
  -16.8549  -45.3126  -20.3625 C   0  0  0  0  0  0  0  0  0  0  0  0
  -16.7428  -46.5620  -20.9030 C   0  0  0  0  0  0  0  0  0  0  0  0
  -17.8705  -47.2897  -20.8856 C   0  0  0  0  0  0  0  0  0  0  0  0
  -18.9348  -46.6811  -20.3730 C   0  0  0  0  0  0  0  0  0  0  0  0
  -13.3573  -40.9678  -19.6499 O   0  0  0  0  0  0  0  0  0  0  0  0
  -14.0135  -42.0121  -16.8855 O   0  0  0  0  0  0  0  0  0  0  0  0
  -12.7523  -43.7271  -17.1094 O   0  5  0  0  0  0  0  0  0  0  0  0
  -18.4814  -45.1350  -19.8603 S   0  0  0  0  0  0  0  0  0  0  0  0
  -16.0414  -43.7129  -18.4253 H   0  0  0  0  0  0  0  0  0  0  0  0
  -14.9261  -45.0473  -18.5941 H   0  0  0  0  0  0  0  0  0  0  0  0
  -13.2845  -43.5507  -19.6266 H   0  0  0  0  0  0  0  0  0  0  0  0
  -12.3144  -39.2265  -19.3151 H   0  0  0  0  0  0  0  0  0  0  0  0
  -13.9956  -39.0143  -19.7413 H   0  0  0  0  0  0  0  0  0  0  0  0
  -13.5636  -39.5799  -18.1456 H   0  0  0  0  0  0  0  0  0  0  0  0
  -15.8251  -46.9326  -21.3098 H   0  0  0  0  0  0  0  0  0  0  0  0
  -17.9099  -48.2917  -21.2590 H   0  0  0  0  0  0  0  0  0  0  0  0
  -19.9164  -47.1002  -20.2972 H   0  0  0  0  0  0  0  0  0  0  0  0
  -17.0457  -42.4911  -20.5135 H   0  0  0  0  0  0  0  0  0  0  0  0
  -14.9130  -44.6953  -21.0558 H   0  0  0  0  0  0  0  0  0  0  0  0
  -15.3202  -41.3644  -19.1016 H   0  0  0  0  0  0  0  0  0  0  0  0
  -14.1775  -42.9368  -21.2665 H   0  0  0  0  0  0  0  0  0  0  0  0
  1 12  1  0  0  0  0
  1 13  1  0  0  0  0
  2  8  2  0  0  0  0
  2  9  1  0  0  0  0
  2 13  1  0  0  0  0
  3  4  1  0  0  0  0
  4 10  2  0  0  0  0
  4 11  1  0  0  0  0
  5  6  1  0  0  0  0
  5  9  2  0  0  0  0
  5 11  1  0  0  0  0
  6  7  2  0  0  0  0
  7  8  1  0  0  0  0
  8 12  1  0  0  0  0
  3 14  1  0  0  0  0
  3 15  1  0  0  0  0
  3 16  1  0  0  0  0
  6 17  1  0  0  0  0
  7 18  1  0  0  0  0
  9 19  1  0  0  0  0
 20 21  1  0  0  0  0
 20 23  1  0  0  0  0
 21 22  1  0  0  0  0
 21 25  1  0  0  0  0
 22 30  1  0  0  0  0
 23 26  1  0  0  0  0
 24 30  1  0  0  0  0
 25 31  2  0  0  0  0
 25 32  1  0  0  0  0
 26 27  2  0  0  0  0
 26 33  1  0  0  0  0
 27 28  1  0  0  0  0
 28 29  2  0  0  0  0
 29 33  1  0  0  0  0
 20 34  1  0  0  0  0
 20 35  1  0  0  0  0
 21 36  1  0  0  0  0
 24 37  1  0  0  0  0
 24 38  1  0  0  0  0
 24 39  1  0  0  0  0
 27 40  1  0  0  0  0
 28 41  1  0  0  0  0
 29 42  1  0  0  0  0
  1 23  1  0  0  0  0
  1 43  1  0  0  0  0
 23 44  1  0  0  0  0
 12 22  1  0  0  0  0
 22 45  1  0  0  0  0
 12 46  1  0  0  0  0
M  CHG  1  32  -1
M  END
> <BIOSOLVEIT.HYDE_ATOM_SCORES [kJ/mol]>
# Atom-ID; Total; Rec-Desolv; Rec-IA; Lig-Desolv; Lig-IA
1;0.0000;0.0000;0.0000;0.0000;0.0000
2;-0.0995;0.0000;0.0000;-0.0995;0.0000
3;-0.1024;1.0530;0.0000;-1.1553;0.0000
4;-0.2654;0.0000;0.0000;-0.2654;0.0000
5;-0.3107;0.0000;0.0000;-0.3107;0.0000
6;-1.6924;-0.5256;0.0000;-1.1667;0.0000
7;-0.9837;-0.6140;0.0000;-0.3697;0.0000
8;-0.1026;0.0000;0.0000;-0.1026;0.0000
9;-0.5818;0.0000;0.0000;-0.5818;0.0000
10;-2.6238;5.7913;-8.4135;10.3797;-10.3813
11;-3.4955;-2.9259;0.0000;-0.5697;0.0000
12;0.0217;0.0217;0.0000;0.0000;0.0000
13;-0.3091;-0.4871;0.0000;0.1780;0.0000
20;0.5427;0.9145;0.0000;-0.3718;0.0000
21;-0.0914;0.0000;0.0000;-0.0914;0.0000
22;0.0000;0.0000;0.0000;0.0000;0.0000
23;-0.2057;0.0000;0.0000;-0.2057;0.0000
24;0.0000;0.0000;0.0000;0.0000;0.0000
25;0.0000;0.0000;0.0000;0.0000;0.0000
26;0.0000;0.0000;0.0000;0.0000;0.0000
27;-3.5629;-2.4195;0.0000;-1.1433;0.0000
28;-2.2138;-1.3872;0.0000;-0.8266;0.0000
29;-3.8618;-2.4897;0.0000;-1.3720;0.0000
30;0.3169;0.0000;0.0000;0.3169;0.0000
31;0.0000;0.0000;0.0000;0.0000;0.0000
32;0.2040;13.5632;-12.4901;4.6937;-5.5627
33;0.2056;0.2056;0.0000;0.0000;0.0000

> <BIOSOLVEIT.HYDE_ESTIMATED_AFFINITY_LOWER_BOUNDARY [nM]>
38232.894284

> <BIOSOLVEIT.HYDE_ESTIMATED_AFFINITY_UPPER_BOUNDARY [nM]>
3798664.097846

> <BIOSOLVEIT.HYDE_LIGAND_EFFICIENCY range: ++, +, 0, -, -->
--

> <BIOSOLVEIT.HYDE_LIGAND_LIPOPHILIC_EFFICIENCY range: ++, +, 0, -, -->
--

> <BIOSOLVEIT.INTER_CLASH range: red, yellow, green>
green

> <BIOSOLVEIT.INTRA_CLASH range: red, yellow, green>
green

> <BIOSOLVEIT.LOGP>
2.7999

> <BIOSOLVEIT.MOLECULAR_WEIGHT>
403.495

> <BIOSOLVEIT.MOLECULE_CHECKSUM>
LTE5LjUxNTU7MC43MjI3OTY=

> <BIOSOLVEIT.TORSION_QUALITY range: red, yellow, green, not rotatable>
yellow

> <BIOSOLVEIT.TPSA>
75.66

> <BIOSOLVEIT.OPTIBRIUM.2D6 affinity category>
very high

> <BIOSOLVEIT.OPTIBRIUM.BBB category>
-

> <BIOSOLVEIT.OPTIBRIUM.2C9 pKi>
5.28881

> <BIOSOLVEIT.OPTIBRIUM.hERG pIC50>
4.13638

> <BIOSOLVEIT.OPTIBRIUM.HIA category>
+

> <BIOSOLVEIT.OPTIBRIUM.BBB log([brain]:[blood])>
-1.07005

> <BIOSOLVEIT.OPTIBRIUM.logD>
1.37119

> <BIOSOLVEIT.OPTIBRIUM.logP>
4.07855

> <BIOSOLVEIT.OPTIBRIUM.logS>
0.521779

> <BIOSOLVEIT.OPTIBRIUM.logS @ pH7.4>
1.90111

> <BIOSOLVEIT.OPTIBRIUM.P-gp category>
yes

> <BIOSOLVEIT.OPTIBRIUM.PPB90 category>
high

$$$$
FLAVI-RDRP-DLS-JA023
dcSeeSAR  09252409193D 1   1.00000     0.00000     0
SeeSAR 13.0.1 dcn76311
 47 50  0  0  0  0            999 V2000
  -15.0572  -41.6783  -23.2557 C   0  0  0  0  0  0  0  0  0  0  0  0
  -17.3501  -38.9905  -26.7917 C   0  0  0  0  0  0  0  0  0  0  0  0
  -16.4082  -40.1843  -27.0842 C   0  0  0  0  0  0  0  0  0  0  0  0
  -15.0137  -40.3748  -25.1938 C   0  0  0  0  0  0  0  0  0  0  0  0
  -14.7727  -39.2876  -24.3530 C   0  0  0  0  0  0  0  0  0  0  0  0
  -14.7033  -39.4402  -22.9686 C   0  0  0  0  0  0  0  0  0  0  0  0
  -14.8845  -40.6684  -22.3494 C   0  0  0  0  0  0  0  0  0  0  0  0
  -15.1499  -41.6304  -24.6320 C   0  0  0  0  0  0  0  0  0  0  0  0
  -16.7796  -41.0998  -27.7598 O   0  0  0  0  0  0  0  0  0  0  0  0
  -15.0958  -40.2202  -26.5678 O   0  0  0  0  0  0  0  0  0  0  0  0
  -14.9125  -40.9504  -20.9914 O   0  0  0  0  0  0  0  0  0  0  0  0
  -15.2265  -43.3582  -22.7693 S   0  0  0  0  0  0  0  0  0  0  0  0
  -16.8424  -38.2781  -26.1758 H   0  0  0  0  0  0  0  0  0  0  0  0
  -17.6347  -38.5266  -27.7131 H   0  0  0  0  0  0  0  0  0  0  0  0
  -18.2242  -39.3418  -26.2844 H   0  0  0  0  0  0  0  0  0  0  0  0
  -14.6381  -38.3157  -24.7797 H   0  0  0  0  0  0  0  0  0  0  0  0
  -14.5035  -38.5808  -22.3633 H   0  0  0  0  0  0  0  0  0  0  0  0
  -15.3158  -42.5060  -25.2241 H   0  0  0  0  0  0  0  0  0  0  0  0
  -15.8899  -44.6425  -19.2329 C   0  0  0  0  0  0  0  0  0  0  0  0
  -14.8314  -43.8006  -18.5361 C   0  0  1  0  0  0  0  0  0  0  0  0
  -14.8842  -42.3615  -19.0291 C   0  0  2  0  0  0  0  0  0  0  0  0
  -14.6872  -42.2659  -20.5356 C   0  0  1  0  0  0  0  0  0  0  0  0
  -15.8091  -43.1357  -21.0876 C   0  0  2  0  0  0  0  0  0  0  0  0
  -15.6849  -44.6002  -20.7323 C   0  0  2  0  0  0  0  0  0  0  0  0
  -14.1194  -40.4059  -17.5973 C   0  0  0  0  0  0  0  0  0  0  0  0
  -15.0474  -43.8566  -17.0326 C   0  0  0  0  0  0  0  0  0  0  0  0
  -16.7934  -45.4451  -21.3387 C   0  0  0  0  0  0  0  0  0  0  0  0
  -17.1024  -46.6721  -20.8239 C   0  0  0  0  0  0  0  0  0  0  0  0
  -18.0040  -47.3718  -21.5304 C   0  0  0  0  0  0  0  0  0  0  0  0
  -18.4419  -46.7835  -22.6386 C   0  0  0  0  0  0  0  0  0  0  0  0
  -13.8911  -41.6082  -18.3488 O   0  0  0  0  0  0  0  0  0  0  0  0
  -15.9707  -43.2312  -16.4647 O   0  0  0  0  0  0  0  0  0  0  0  0
  -14.2895  -44.5464  -16.3043 O   0  5  0  0  0  0  0  0  0  0  0  0
  -17.7076  -45.2664  -22.7745 S   0  0  0  0  0  0  0  0  0  0  0  0
  -16.8599  -44.2572  -18.9974 H   0  0  0  0  0  0  0  0  0  0  0  0
  -15.8163  -45.6547  -18.8941 H   0  0  0  0  0  0  0  0  0  0  0  0
  -13.8669  -44.2059  -18.7604 H   0  0  0  0  0  0  0  0  0  0  0  0
  -15.8437  -41.9549  -18.7862 H   0  0  0  0  0  0  0  0  0  0  0  0
  -14.7212  -44.9806  -20.9996 H   0  0  0  0  0  0  0  0  0  0  0  0
  -13.1921  -40.0553  -17.1949 H   0  0  0  0  0  0  0  0  0  0  0  0
  -14.5354  -39.6576  -18.2392 H   0  0  0  0  0  0  0  0  0  0  0  0
  -14.8011  -40.6089  -16.7979 H   0  0  0  0  0  0  0  0  0  0  0  0
  -16.6590  -47.0471  -19.9253 H   0  0  0  0  0  0  0  0  0  0  0  0
  -18.3468  -48.3374  -21.2223 H   0  0  0  0  0  0  0  0  0  0  0  0
  -19.1434  -47.2008  -23.3305 H   0  0  0  0  0  0  0  0  0  0  0  0
  -16.7929  -42.7252  -20.9955 H   0  0  0  0  0  0  0  0  0  0  0  0
  -13.7248  -42.6274  -20.8320 H   0  0  0  0  0  0  0  0  0  0  0  0
  1  7  2  0  0  0  0
  1  8  1  0  0  0  0
  1 12  1  0  0  0  0
  2  3  1  0  0  0  0
  3  9  2  0  0  0  0
  3 10  1  0  0  0  0
  4  5  1  0  0  0  0
  4  8  2  0  0  0  0
  4 10  1  0  0  0  0
  5  6  2  0  0  0  0
  6  7  1  0  0  0  0
  7 11  1  0  0  0  0
  2 13  1  0  0  0  0
  2 14  1  0  0  0  0
  2 15  1  0  0  0  0
  5 16  1  0  0  0  0
  6 17  1  0  0  0  0
  8 18  1  0  0  0  0
 19 20  1  0  0  0  0
 19 24  1  0  0  0  0
 20 21  1  0  0  0  0
 20 26  1  0  0  0  0
 21 22  1  0  0  0  0
 21 31  1  0  0  0  0
 22 23  1  0  0  0  0
 23 24  1  0  0  0  0
 24 27  1  0  0  0  0
 25 31  1  0  0  0  0
 26 32  2  0  0  0  0
 26 33  1  0  0  0  0
 27 28  2  0  0  0  0
 27 34  1  0  0  0  0
 28 29  1  0  0  0  0
 29 30  2  0  0  0  0
 30 34  1  0  0  0  0
 19 35  1  0  0  0  0
 19 36  1  0  0  0  0
 20 37  1  0  0  0  0
 21 38  1  0  0  0  0
 24 39  1  0  0  0  0
 25 40  1  0  0  0  0
 25 41  1  0  0  0  0
 25 42  1  0  0  0  0
 28 43  1  0  0  0  0
 29 44  1  0  0  0  0
 30 45  1  0  0  0  0
 12 23  1  0  0  0  0
 23 46  1  0  0  0  0
 11 22  1  0  0  0  0
 22 47  1  0  0  0  0
M  CHG  1  33  -1
M  END
> <BIOSOLVEIT.HYDE_ATOM_SCORES [kJ/mol]>
# Atom-ID; Total; Rec-Desolv; Rec-IA; Lig-Desolv; Lig-IA
1;-1.2019;-0.9816;0.0000;-0.2203;0.0000
2;-0.5678;0.9709;0.0000;-1.5386;0.0000
3;-0.3057;0.0000;0.0000;-0.3057;0.0000
4;-1.1397;-0.8942;0.0000;-0.2455;0.0000
5;-0.4530;0.3988;0.0000;-0.8518;0.0000
6;-0.1787;0.0000;0.0000;-0.1787;0.0000
7;-0.0781;0.0000;0.0000;-0.0781;0.0000
8;-0.7422;0.0000;0.0000;-0.7422;0.0000
9;-2.4197;5.9694;-8.4032;10.3827;-10.3686
10;-3.9396;-3.3555;0.0000;-0.5840;0.0000
11;0.0000;0.0000;0.0000;0.0000;0.0000
12;-0.0452;-0.2720;0.0000;0.2268;0.0000
19;-0.1300;0.0000;0.0000;-0.1300;0.0000
20;-0.2595;0.0000;0.0000;-0.2595;0.0000
21;0.0000;0.0000;0.0000;0.0000;0.0000
22;0.0000;0.0000;0.0000;0.0000;0.0000
23;0.0000;0.0000;0.0000;0.0000;0.0000
24;-0.6133;-0.3930;0.0000;-0.2203;0.0000
25;0.0000;0.0000;0.0000;0.0000;0.0000
26;-0.1878;0.0000;0.0000;-0.1878;0.0000
27;-0.1089;0.0000;0.0000;-0.1089;0.0000
28;-0.9944;-0.2790;0.0000;-0.7154;0.0000
29;-8.0227;-6.5617;0.0000;-1.4610;0.0000
30;-3.7125;-2.2874;0.0000;-1.4251;0.0000
31;0.0000;0.0000;0.0000;0.0000;0.0000
32;0.4566;0.2144;0.0000;0.2422;0.0000
33;-2.3663;6.9121;-8.4287;4.2866;-5.1363
34;-1.6897;-1.0101;0.0000;-0.6796;0.0000

> <BIOSOLVEIT.HYDE_ESTIMATED_AFFINITY_LOWER_BOUNDARY [nM]>
834.264760

> <BIOSOLVEIT.HYDE_ESTIMATED_AFFINITY_UPPER_BOUNDARY [nM]>
82889.136438

> <BIOSOLVEIT.HYDE_LIGAND_EFFICIENCY range: ++, +, 0, -, -->
-

> <BIOSOLVEIT.HYDE_LIGAND_LIPOPHILIC_EFFICIENCY range: ++, +, 0, -, -->
-

> <BIOSOLVEIT.INTER_CLASH range: red, yellow, green>
green

> <BIOSOLVEIT.INTRA_CLASH range: red, yellow, green>
yellow

> <BIOSOLVEIT.LOGP>
2.4637

> <BIOSOLVEIT.MOLECULAR_WEIGHT>
419.494

> <BIOSOLVEIT.MOLECULE_CHECKSUM>
LTI4Ljk5NzM7MS4wMzU2Mg==

> <BIOSOLVEIT.TORSION_QUALITY range: red, yellow, green, not rotatable>
yellow

> <BIOSOLVEIT.TPSA>
84.89

> <BIOSOLVEIT.OPTIBRIUM.2D6 affinity category>
very high

> <BIOSOLVEIT.OPTIBRIUM.BBB category>
-

> <BIOSOLVEIT.OPTIBRIUM.2C9 pKi>
5.4255

> <BIOSOLVEIT.OPTIBRIUM.hERG pIC50>
4.14799

> <BIOSOLVEIT.OPTIBRIUM.HIA category>
+

> <BIOSOLVEIT.OPTIBRIUM.BBB log([brain]:[blood])>
-1.00604

> <BIOSOLVEIT.OPTIBRIUM.logD>
1.06907

> <BIOSOLVEIT.OPTIBRIUM.logP>
3.77289

> <BIOSOLVEIT.OPTIBRIUM.logS>
0.623372

> <BIOSOLVEIT.OPTIBRIUM.logS @ pH7.4>
2.07558

> <BIOSOLVEIT.OPTIBRIUM.P-gp category>
yes

> <BIOSOLVEIT.OPTIBRIUM.PPB90 category>
high

$$$$
FLAVI-RDRP-DLS-JA024
dcSeeSAR  09252409193D 1   1.00000     0.00000     0
SeeSAR 13.0.1 dcn76311
 46 49  0  0  0  0            999 V2000
  -15.6429  -42.1586  -23.6404 C   0  0  0  0  0  0  0  0  0  0  0  0
  -17.4944  -38.9686  -27.0139 C   0  0  0  0  0  0  0  0  0  0  0  0
  -16.4247  -40.0705  -27.2126 C   0  0  0  0  0  0  0  0  0  0  0  0
  -15.3180  -40.4678  -25.1702 C   0  0  0  0  0  0  0  0  0  0  0  0
  -15.1893  -39.5805  -24.1059 C   0  0  0  0  0  0  0  0  0  0  0  0
  -15.2978  -40.0220  -22.7932 C   0  0  0  0  0  0  0  0  0  0  0  0
  -15.5357  -41.3645  -22.5175 C   0  0  0  0  0  0  0  0  0  0  0  0
  -15.5532  -41.8122  -24.9721 C   0  0  0  0  0  0  0  0  0  0  0  0
  -16.6065  -40.9602  -27.9922 O   0  0  0  0  0  0  0  0  0  0  0  0
  -15.2150  -40.0507  -26.4868 O   0  0  0  0  0  0  0  0  0  0  0  0
  -15.9148  -43.8062  -23.0703 S   0  0  0  0  0  0  0  0  0  0  0  0
  -17.1524  -38.2673  -26.2818 H   0  0  0  0  0  0  0  0  0  0  0  0
  -17.6619  -38.4627  -27.9416 H   0  0  0  0  0  0  0  0  0  0  0  0
  -18.4082  -39.4147  -26.6809 H   0  0  0  0  0  0  0  0  0  0  0  0
  -15.0042  -38.5449  -24.3012 H   0  0  0  0  0  0  0  0  0  0  0  0
  -15.1978  -39.3242  -21.9882 H   0  0  0  0  0  0  0  0  0  0  0  0
  -15.6560  -42.5158  -25.7717 H   0  0  0  0  0  0  0  0  0  0  0  0
  -16.9142  -43.7817  -19.1292 C   0  0  0  0  0  0  0  0  0  0  0  0
  -16.2280  -42.4626  -18.8088 C   0  0  1  0  0  0  0  0  0  0  0  0
  -16.3689  -41.5052  -19.9805 C   0  0  2  0  0  0  0  0  0  0  0  0
  -15.6809  -42.1152  -21.1957 C   0  0  1  0  0  0  0  0  0  0  0  0
  -16.5307  -43.3371  -21.4475 C   0  0  2  0  0  0  0  0  0  0  0  0
  -16.2845  -44.3762  -20.3720 C   0  0  2  0  0  0  0  0  0  0  0  0
  -16.3807  -38.9923  -19.6000 C   0  0  0  0  0  0  0  0  0  0  0  0
  -16.8491  -41.8718  -17.5536 C   0  0  0  0  0  0  0  0  0  0  0  0
  -16.9881  -45.6886  -20.6762 C   0  0  0  0  0  0  0  0  0  0  0  0
  -16.3967  -46.8855  -20.3875 C   0  0  0  0  0  0  0  0  0  0  0  0
  -17.0607  -47.9659  -20.8273 C   0  0  0  0  0  0  0  0  0  0  0  0
  -18.1778  -47.7141  -21.5017 C   0  0  0  0  0  0  0  0  0  0  0  0
  -15.7497  -40.2825  -19.6092 O   0  0  0  0  0  0  0  0  0  0  0  0
  -17.9510  -42.2597  -17.1050 O   0  0  0  0  0  0  0  0  0  0  0  0
  -16.2609  -40.9592  -16.9195 O   0  5  0  0  0  0  0  0  0  0  0  0
  -18.4159  -46.0407  -21.5519 S   0  0  0  0  0  0  0  0  0  0  0  0
  -17.9564  -43.6114  -19.3016 H   0  0  0  0  0  0  0  0  0  0  0  0
  -16.7942  -44.4572  -18.3082 H   0  0  0  0  0  0  0  0  0  0  0  0
  -15.1888  -42.6447  -18.6308 H   0  0  0  0  0  0  0  0  0  0  0  0
  -17.4044  -41.3393  -20.1931 H   0  0  0  0  0  0  0  0  0  0  0  0
  -15.2358  -44.5323  -20.2284 H   0  0  0  0  0  0  0  0  0  0  0  0
  -15.6772  -38.2535  -19.2775 H   0  0  0  0  0  0  0  0  0  0  0  0
  -16.7208  -38.7547  -20.5862 H   0  0  0  0  0  0  0  0  0  0  0  0
  -17.2144  -39.0079  -18.9294 H   0  0  0  0  0  0  0  0  0  0  0  0
  -15.4735  -46.9565  -19.8512 H   0  0  0  0  0  0  0  0  0  0  0  0
  -16.7142  -48.9621  -20.6473 H   0  0  0  0  0  0  0  0  0  0  0  0
  -18.8202  -48.4487  -21.9404 H   0  0  0  0  0  0  0  0  0  0  0  0
  -17.5674  -43.0765  -21.4947 H   0  0  0  0  0  0  0  0  0  0  0  0
  -14.7087  -42.4450  -20.8943 H   0  0  0  0  0  0  0  0  0  0  0  0
  1  7  2  0  0  0  0
  1  8  1  0  0  0  0
  1 11  1  0  0  0  0
  2  3  1  0  0  0  0
  3  9  2  0  0  0  0
  3 10  1  0  0  0  0
  4  5  1  0  0  0  0
  4  8  2  0  0  0  0
  4 10  1  0  0  0  0
  5  6  2  0  0  0  0
  6  7  1  0  0  0  0
  2 12  1  0  0  0  0
  2 13  1  0  0  0  0
  2 14  1  0  0  0  0
  5 15  1  0  0  0  0
  6 16  1  0  0  0  0
  8 17  1  0  0  0  0
 18 19  1  0  0  0  0
 18 23  1  0  0  0  0
 19 20  1  0  0  0  0
 19 25  1  0  0  0  0
 20 21  1  0  0  0  0
 20 30  1  0  0  0  0
 21 22  1  0  0  0  0
 22 23  1  0  0  0  0
 23 26  1  0  0  0  0
 24 30  1  0  0  0  0
 25 31  2  0  0  0  0
 25 32  1  0  0  0  0
 26 27  2  0  0  0  0
 26 33  1  0  0  0  0
 27 28  1  0  0  0  0
 28 29  2  0  0  0  0
 29 33  1  0  0  0  0
 18 34  1  0  0  0  0
 18 35  1  0  0  0  0
 19 36  1  0  0  0  0
 20 37  1  0  0  0  0
 23 38  1  0  0  0  0
 24 39  1  0  0  0  0
 24 40  1  0  0  0  0
 24 41  1  0  0  0  0
 27 42  1  0  0  0  0
 28 43  1  0  0  0  0
 29 44  1  0  0  0  0
 11 22  1  0  0  0  0
 22 45  1  0  0  0  0
  7 21  1  0  0  0  0
 21 46  1  0  0  0  0
M  CHG  1  32  -1
M  END
> <BIOSOLVEIT.HYDE_ATOM_SCORES [kJ/mol]>
# Atom-ID; Total; Rec-Desolv; Rec-IA; Lig-Desolv; Lig-IA
1;-0.1197;0.0000;0.0000;-0.1197;0.0000
2;0.1190;1.7742;0.0000;-1.6552;0.0000
3;-0.3627;0.0000;0.0000;-0.3627;0.0000
4;-1.0970;-0.7963;0.0000;-0.3007;0.0000
5;-0.1542;0.6166;0.0000;-0.7709;0.0000
6;-0.1021;0.0000;0.0000;-0.1021;0.0000
7;-0.0312;0.0000;0.0000;-0.0312;0.0000
8;-2.9970;-2.0873;0.0000;-0.9098;0.0000
9;-2.3931;6.0593;-8.4181;10.3528;-10.3870
10;-2.1293;-1.5553;0.0000;-0.5741;0.0000
11;-1.1915;-0.9089;0.0000;-0.2825;0.0000
18;-0.1879;0.0000;0.0000;-0.1879;0.0000
19;0.0000;0.0000;0.0000;0.0000;0.0000
20;0.0000;0.0000;0.0000;0.0000;0.0000
21;0.0000;0.0000;0.0000;0.0000;0.0000
22;0.0000;0.0000;0.0000;0.0000;0.0000
23;0.0000;0.0000;0.0000;0.0000;0.0000
24;0.0000;0.0000;0.0000;0.0000;0.0000
25;-0.0171;0.0000;0.0000;-0.0171;0.0000
26;0.0000;0.0000;0.0000;0.0000;0.0000
27;-1.0384;-0.3186;0.0000;-0.7198;0.0000
28;-6.1669;-4.4579;0.0000;-1.7091;0.0000
29;-3.4056;-1.5145;0.0000;-1.8911;0.0000
30;0.0000;0.0000;0.0000;0.0000;0.0000
31;0.4182;0.6787;0.0000;-0.2605;0.0000
32;0.0000;0.0000;0.0000;0.0000;0.0000
33;-2.4969;-1.9754;0.0000;-0.5215;0.0000

> <BIOSOLVEIT.HYDE_ESTIMATED_AFFINITY_LOWER_BOUNDARY [nM]>
7290.051789

> <BIOSOLVEIT.HYDE_ESTIMATED_AFFINITY_UPPER_BOUNDARY [nM]>
724309.747463

> <BIOSOLVEIT.HYDE_LIGAND_EFFICIENCY range: ++, +, 0, -, -->
-

> <BIOSOLVEIT.HYDE_LIGAND_LIPOPHILIC_EFFICIENCY range: ++, +, 0, -, -->
--

> <BIOSOLVEIT.INTER_CLASH range: red, yellow, green>
green

> <BIOSOLVEIT.INTRA_CLASH range: red, yellow, green>
green

> <BIOSOLVEIT.LOGP>
2.7999

> <BIOSOLVEIT.MOLECULAR_WEIGHT>
403.495

> <BIOSOLVEIT.MOLECULE_CHECKSUM>
LTIzLjYyMzY7MC44NzQ5NDc=

> <BIOSOLVEIT.TORSION_QUALITY range: red, yellow, green, not rotatable>
yellow

> <BIOSOLVEIT.TPSA>
75.66

> <BIOSOLVEIT.OPTIBRIUM.2D6 affinity category>
very high

> <BIOSOLVEIT.OPTIBRIUM.BBB category>
-

> <BIOSOLVEIT.OPTIBRIUM.2C9 pKi>
5.28881

> <BIOSOLVEIT.OPTIBRIUM.hERG pIC50>
4.13638

> <BIOSOLVEIT.OPTIBRIUM.HIA category>
+

> <BIOSOLVEIT.OPTIBRIUM.BBB log([brain]:[blood])>
-1.07005

> <BIOSOLVEIT.OPTIBRIUM.logD>
1.37119

> <BIOSOLVEIT.OPTIBRIUM.logP>
4.07855

> <BIOSOLVEIT.OPTIBRIUM.logS>
0.521779

> <BIOSOLVEIT.OPTIBRIUM.logS @ pH7.4>
1.90111

> <BIOSOLVEIT.OPTIBRIUM.P-gp category>
yes

> <BIOSOLVEIT.OPTIBRIUM.PPB90 category>
high

$$$$
FLAVI-RDRP-DLS-JA025
dcSeeSAR  09252409193D 1   1.00000     0.00000     0
SeeSAR 13.0.1 dcn76311
 56 58  0  0  0  0            999 V2000
  -17.3956  -39.3752  -27.5143 N   0  0  0  0  0  0  0  0  0  0  0  0
  -16.4360  -39.1248  -26.6114 C   0  0  0  0  0  0  0  0  0  0  0  0
  -15.6762  -38.1434  -26.6940 O   0  0  0  0  0  0  0  0  0  0  0  0
  -16.6343  -41.4354  -25.8102 C   0  0  0  0  0  0  0  0  0  0  0  0
  -16.5384  -42.2949  -24.5726 C   0  0  0  0  0  0  0  0  0  0  0  0
  -14.8481  -40.8153  -23.6651 C   0  0  0  0  0  0  0  0  0  0  0  0
  -14.9237  -39.9449  -24.8849 C   0  0  0  0  0  0  0  0  0  0  0  0
  -14.5594  -43.2940  -23.2461 C   0  0  0  0  0  0  0  0  0  0  0  0
  -16.2456  -40.0507  -25.5144 N   0  0  0  0  0  0  0  0  0  0  0  0
  -15.2013  -42.2007  -23.9903 N   0  3  1  0  0  0  0  0  0  0  0  0
  -17.9846  -40.1765  -27.4090 H   0  0  0  0  0  0  0  0  0  0  0  0
  -17.5222  -38.7607  -28.2929 H   0  0  0  0  0  0  0  0  0  0  0  0
  -17.6424  -41.4478  -26.1688 H   0  0  0  0  0  0  0  0  0  0  0  0
  -15.9834  -41.8294  -26.5624 H   0  0  0  0  0  0  0  0  0  0  0  0
  -16.7385  -43.3131  -24.8339 H   0  0  0  0  0  0  0  0  0  0  0  0
  -17.2596  -41.9623  -23.8554 H   0  0  0  0  0  0  0  0  0  0  0  0
  -15.5281  -40.4442  -22.9270 H   0  0  0  0  0  0  0  0  0  0  0  0
  -13.8514  -40.7894  -23.2771 H   0  0  0  0  0  0  0  0  0  0  0  0
  -14.1754  -40.2543  -25.5845 H   0  0  0  0  0  0  0  0  0  0  0  0
  -14.7490  -38.9277  -24.6025 H   0  0  0  0  0  0  0  0  0  0  0  0
  -15.7598  -43.5721  -19.0262 C   0  0  0  0  0  0  0  0  0  0  0  0
  -14.5662  -42.7517  -18.5668 C   0  0  1  0  0  0  0  0  0  0  0  0
  -13.7751  -42.2855  -19.7778 C   0  0  2  0  0  0  0  0  0  0  0  0
  -13.2423  -43.4934  -20.5308 C   0  0  0  0  0  0  0  0  0  0  0  0
  -14.4201  -44.3338  -20.9965 C   0  0  2  0  0  0  0  0  0  0  0  0
  -15.2445  -44.7757  -19.7984 C   0  0  2  0  0  0  0  0  0  0  0  0
  -11.7035  -40.8973  -20.2687 C   0  0  0  0  0  0  0  0  0  0  0  0
  -15.0790  -41.5649  -17.7675 C   0  0  0  0  0  0  0  0  0  0  0  0
  -16.4446  -45.5537  -20.3131 C   0  0  0  0  0  0  0  0  0  0  0  0
  -17.6745  -44.9666  -20.4055 C   0  0  0  0  0  0  0  0  0  0  0  0
  -18.6738  -45.7962  -20.7444 C   0  0  0  0  0  0  0  0  0  0  0  0
  -18.3276  -47.0682  -20.9124 C   0  0  0  0  0  0  0  0  0  0  0  0
  -12.6778  -41.4743  -19.3851 O   0  0  0  0  0  0  0  0  0  0  0  0
  -15.4683  -40.5079  -18.3128 O   0  0  0  0  0  0  0  0  0  0  0  0
  -15.1269  -41.6138  -16.5121 O   0  5  0  0  0  0  0  0  0  0  0  0
  -16.6615  -47.2147  -20.6644 S   0  0  0  0  0  0  0  0  0  0  0  0
  -16.3854  -42.9775  -19.6586 H   0  0  0  0  0  0  0  0  0  0  0  0
  -16.3212  -43.9008  -18.1766 H   0  0  0  0  0  0  0  0  0  0  0  0
  -13.9393  -43.3550  -17.9439 H   0  0  0  0  0  0  0  0  0  0  0  0
  -14.4168  -41.7226  -20.4230 H   0  0  0  0  0  0  0  0  0  0  0  0
  -12.6181  -44.0745  -19.8843 H   0  0  0  0  0  0  0  0  0  0  0  0
  -12.6743  -43.1685  -21.3774 H   0  0  0  0  0  0  0  0  0  0  0  0
  -14.6541  -45.3963  -19.1571 H   0  0  0  0  0  0  0  0  0  0  0  0
  -10.9934  -40.3356  -19.6986 H   0  0  0  0  0  0  0  0  0  0  0  0
  -11.1981  -41.6765  -20.7999 H   0  0  0  0  0  0  0  0  0  0  0  0
  -12.1934  -40.2501  -20.9658 H   0  0  0  0  0  0  0  0  0  0  0  0
  -17.8296  -43.9241  -20.2214 H   0  0  0  0  0  0  0  0  0  0  0  0
  -19.6805  -45.4564  -20.8708 H   0  0  0  0  0  0  0  0  0  0  0  0
  -18.9933  -47.8676  -21.1632 H   0  0  0  0  0  0  0  0  0  0  0  0
  -14.0582  -45.1960  -21.5166 H   0  0  0  0  0  0  0  0  0  0  0  0
  -15.2902  -43.5088  -21.9307 C   0  0  0  0  0  0  0  0  0  0  0  0
  -13.5386  -43.0406  -23.0497 H   0  0  0  0  0  0  0  0  0  0  0  0
  -14.5987  -44.1918  -23.8267 H   0  0  0  0  0  0  0  0  0  0  0  0
  -15.4989  -42.5612  -21.4797 H   0  0  0  0  0  0  0  0  0  0  0  0
  -16.2085  -44.0269  -22.1133 H   0  0  0  0  0  0  0  0  0  0  0  0
  -14.6755  -42.2825  -24.8370 H   0  0  0  0  0  0  0  0  0  0  0  0
  1  2  1  0  0  0  0
  2  3  2  0  0  0  0
  2  9  1  0  0  0  0
  4  5  1  0  0  0  0
  4  9  1  0  0  0  0
  5 10  1  0  0  0  0
  6  7  1  0  0  0  0
  6 10  1  0  0  0  0
  7  9  1  0  0  0  0
  8 10  1  0  0  0  0
  1 11  1  0  0  0  0
  1 12  1  0  0  0  0
  4 13  1  0  0  0  0
  4 14  1  0  0  0  0
  5 15  1  0  0  0  0
  5 16  1  0  0  0  0
  6 17  1  0  0  0  0
  6 18  1  0  0  0  0
  7 19  1  0  0  0  0
  7 20  1  0  0  0  0
 21 22  1  0  0  0  0
 21 26  1  0  0  0  0
 22 23  1  0  0  0  0
 22 28  1  0  0  0  0
 23 24  1  0  0  0  0
 23 33  1  0  0  0  0
 24 25  1  0  0  0  0
 25 26  1  0  0  0  0
 26 29  1  0  0  0  0
 27 33  1  0  0  0  0
 28 34  2  0  0  0  0
 28 35  1  0  0  0  0
 29 30  2  0  0  0  0
 29 36  1  0  0  0  0
 30 31  1  0  0  0  0
 31 32  2  0  0  0  0
 32 36  1  0  0  0  0
 21 37  1  0  0  0  0
 21 38  1  0  0  0  0
 22 39  1  0  0  0  0
 23 40  1  0  0  0  0
 24 41  1  0  0  0  0
 24 42  1  0  0  0  0
 26 43  1  0  0  0  0
 27 44  1  0  0  0  0
 27 45  1  0  0  0  0
 27 46  1  0  0  0  0
 30 47  1  0  0  0  0
 31 48  1  0  0  0  0
 32 49  1  0  0  0  0
 25 50  1  0  0  0  0
 25 51  1  0  0  0  0
  8 51  1  0  0  0  0
  8 52  1  0  0  0  0
  8 53  1  0  0  0  0
 51 54  1  0  0  0  0
 51 55  1  0  0  0  0
 10 56  1  0  0  0  0
M  CHG  2  10   1  35  -1
M  END
> <BIOSOLVEIT.HYDE_ATOM_SCORES [kJ/mol]>
# Atom-ID; Total; Rec-Desolv; Rec-IA; Lig-Desolv; Lig-IA
1;5.4974;6.4014;0.0000;7.4086;-8.3126
2;-0.0609;0.0000;0.0000;-0.0609;0.0000
3;-4.1815;7.1317;-9.6223;8.7093;-10.4002
4;-1.7750;-0.6834;0.0000;-1.0916;0.0000
5;-0.9550;-0.3720;0.0000;-0.5829;0.0000
6;-0.6011;0.0000;0.0000;-0.6011;0.0000
7;-1.7114;-0.6322;0.0000;-1.0792;0.0000
8;-5.1254;-3.0767;0.0000;-2.0487;0.0000
9;0.0000;0.0000;0.0000;0.0000;0.0000
10;8.3767;-1.9813;0.0000;10.3580;0.0000
21;0.5446;0.5861;0.0000;-0.0415;0.0000
22;-0.1349;0.0000;0.0000;-0.1349;0.0000
23;0.0000;0.0000;0.0000;0.0000;0.0000
24;-0.0045;1.5282;0.0000;-1.5327;0.0000
25;-2.3829;-1.5071;0.0000;-0.8757;0.0000
26;1.9796;2.2704;0.0000;-0.2908;0.0000
27;-3.1963;-1.2761;0.0000;-1.9202;0.0000
28;0.0000;0.0000;0.0000;0.0000;0.0000
29;0.0000;0.0000;0.0000;0.0000;0.0000
30;0.0000;0.0000;0.0000;0.0000;0.0000
31;-0.7997;-0.3991;0.0000;-0.4007;0.0000
32;-5.0492;-3.6370;0.0000;-1.4122;0.0000
33;0.1224;0.0000;0.0000;0.1224;0.0000
34;0.0000;0.0000;0.0000;0.0000;0.0000
35;0.0000;0.0000;0.0000;0.0000;0.0000
36;-2.4676;-1.8872;0.0000;-0.5804;0.0000
51;-0.0148;0.0000;0.0000;-0.0148;0.0000

> <BIOSOLVEIT.HYDE_ESTIMATED_AFFINITY_LOWER_BOUNDARY [nM]>
812229.486904

> <BIOSOLVEIT.HYDE_ESTIMATED_AFFINITY_UPPER_BOUNDARY [nM]>
80699801.804681

> <BIOSOLVEIT.HYDE_LIGAND_EFFICIENCY range: ++, +, 0, -, -->
--

> <BIOSOLVEIT.HYDE_LIGAND_LIPOPHILIC_EFFICIENCY range: ++, +, 0, -, -->
-

> <BIOSOLVEIT.INTER_CLASH range: red, yellow, green>
green

> <BIOSOLVEIT.INTRA_CLASH range: red, yellow, green>
green

> <BIOSOLVEIT.LOGP>
-0.7079

> <BIOSOLVEIT.MOLECULAR_WEIGHT>
395.52

> <BIOSOLVEIT.MOLECULE_CHECKSUM>
LTExLjkzOTY7MC40NDIyMDc=

> <BIOSOLVEIT.TORSION_QUALITY range: red, yellow, green, not rotatable>
green

> <BIOSOLVEIT.TPSA>
100.13

> <BIOSOLVEIT.OPTIBRIUM.2D6 affinity category>
medium

> <BIOSOLVEIT.OPTIBRIUM.BBB category>
-

> <BIOSOLVEIT.OPTIBRIUM.2C9 pKi>
4.58606

> <BIOSOLVEIT.OPTIBRIUM.hERG pIC50>
3.74639

> <BIOSOLVEIT.OPTIBRIUM.HIA category>
+

> <BIOSOLVEIT.OPTIBRIUM.BBB log([brain]:[blood])>
-1.7848

> <BIOSOLVEIT.OPTIBRIUM.logD>
-0.830686

> <BIOSOLVEIT.OPTIBRIUM.logP>
-2.81698

> <BIOSOLVEIT.OPTIBRIUM.logS>
3.59543

> <BIOSOLVEIT.OPTIBRIUM.logS @ pH7.4>
2.82246

> <BIOSOLVEIT.OPTIBRIUM.P-gp category>
yes

> <BIOSOLVEIT.OPTIBRIUM.PPB90 category>
low

$$$$
FLAVI-RDRP-DLS-JA026
dcSeeSAR  09252409193D 1   1.00000     0.00000     0
SeeSAR 13.0.1 dcn76311
 50 52  0  0  0  0            999 V2000
  -17.7789  -38.4782  -26.5171 N   0  0  0  0  0  0  0  0  0  0  0  0
  -16.5555  -38.8619  -26.1231 C   0  0  0  0  0  0  0  0  0  0  0  0
  -15.5143  -38.4156  -26.6370 O   0  0  0  0  0  0  0  0  0  0  0  0
  -17.4881  -40.8269  -24.9360 C   0  0  0  0  0  0  0  0  0  0  0  0
  -17.6383  -41.2514  -23.4789 C   0  0  0  0  0  0  0  0  0  0  0  0
  -15.5731  -40.2711  -22.8381 C   0  0  0  0  0  0  0  0  0  0  0  0
  -15.2688  -39.7762  -24.2475 C   0  0  0  0  0  0  0  0  0  0  0  0
  -16.4410  -39.8100  -25.1409 N   0  0  0  0  0  0  0  0  0  0  0  0
  -16.3559  -41.5209  -22.8024 N   0  0  0  0  0  0  0  0  0  0  0  0
  -18.5897  -38.8629  -26.0760 H   0  0  0  0  0  0  0  0  0  0  0  0
  -17.8801  -37.8074  -27.2518 H   0  0  0  0  0  0  0  0  0  0  0  0
  -18.4218  -40.4256  -25.2709 H   0  0  0  0  0  0  0  0  0  0  0  0
  -17.2417  -41.6904  -25.5179 H   0  0  0  0  0  0  0  0  0  0  0  0
  -18.2307  -42.1419  -23.4463 H   0  0  0  0  0  0  0  0  0  0  0  0
  -18.1410  -40.4692  -22.9496 H   0  0  0  0  0  0  0  0  0  0  0  0
  -16.1263  -39.5117  -22.3259 H   0  0  0  0  0  0  0  0  0  0  0  0
  -14.6456  -40.4393  -22.3319 H   0  0  0  0  0  0  0  0  0  0  0  0
  -14.5034  -40.3950  -24.6673 H   0  0  0  0  0  0  0  0  0  0  0  0
  -14.9176  -38.7674  -24.1852 H   0  0  0  0  0  0  0  0  0  0  0  0
  -16.5966  -44.3523  -20.4882 C   0  0  0  0  0  0  0  0  0  0  0  0
  -15.4139  -44.3832  -19.7072 C   0  0  1  0  0  0  0  0  0  0  0  0
  -14.6504  -43.2202  -19.9152 C   0  0  2  0  0  0  0  0  0  0  0  0
  -14.5035  -42.9428  -21.2925 C   0  0  0  0  0  0  0  0  0  0  0  0
  -15.3251  -43.5426  -22.2791 C   0  0  1  0  0  0  0  0  0  0  0  0
  -16.4691  -44.3293  -21.9103 C   0  0  2  0  0  0  0  0  0  0  0  0
  -12.4932  -42.1057  -19.3300 C   0  0  0  0  0  0  0  0  0  0  0  0
  -15.6348  -44.6617  -18.3338 C   0  0  0  0  0  0  0  0  0  0  0  0
  -17.7096  -44.3427  -22.4913 C   0  0  0  0  0  0  0  0  0  0  0  0
  -18.8389  -44.1866  -21.7388 C   0  0  0  0  0  0  0  0  0  0  0  0
  -19.9914  -44.3540  -22.4061 C   0  0  0  0  0  0  0  0  0  0  0  0
  -19.8666  -44.6739  -23.6898 C   0  0  0  0  0  0  0  0  0  0  0  0
  -15.6536  -42.6503  -23.3338 O   0  0  0  0  0  0  0  0  0  0  0  0
  -13.4302  -43.1934  -19.2917 O   0  0  0  0  0  0  0  0  0  0  0  0
  -16.7782  -44.6599  -17.8254 O   0  0  0  0  0  0  0  0  0  0  0  0
  -14.6691  -44.9236  -17.5726 O   0  5  0  0  0  0  0  0  0  0  0  0
  -18.2217  -44.7318  -24.0774 S   0  0  0  0  0  0  0  0  0  0  0  0
  -17.1404  -43.4755  -20.2048 H   0  0  0  0  0  0  0  0  0  0  0  0
  -17.1658  -45.2224  -20.2354 H   0  0  0  0  0  0  0  0  0  0  0  0
  -14.8285  -45.1951  -20.0853 H   0  0  0  0  0  0  0  0  0  0  0  0
  -15.2166  -42.4108  -19.5038 H   0  0  0  0  0  0  0  0  0  0  0  0
  -13.4970  -43.2053  -21.5434 H   0  0  0  0  0  0  0  0  0  0  0  0
  -14.6335  -41.8861  -21.3989 H   0  0  0  0  0  0  0  0  0  0  0  0
  -14.6750  -44.2522  -22.7466 H   0  0  0  0  0  0  0  0  0  0  0  0
  -16.1242  -45.3217  -22.1130 H   0  0  0  0  0  0  0  0  0  0  0  0
  -11.6275  -42.3602  -18.7550 H   0  0  0  0  0  0  0  0  0  0  0  0
  -12.2057  -41.9181  -20.3435 H   0  0  0  0  0  0  0  0  0  0  0  0
  -12.9483  -41.2282  -18.9202 H   0  0  0  0  0  0  0  0  0  0  0  0
  -18.8070  -43.9489  -20.6961 H   0  0  0  0  0  0  0  0  0  0  0  0
  -20.9458  -44.2378  -21.9363 H   0  0  0  0  0  0  0  0  0  0  0  0
  -20.6736  -44.8633  -24.3665 H   0  0  0  0  0  0  0  0  0  0  0  0
  1  2  1  0  0  0  0
  2  3  2  0  0  0  0
  2  8  1  0  0  0  0
  4  5  1  0  0  0  0
  4  8  1  0  0  0  0
  5  9  1  0  0  0  0
  6  7  1  0  0  0  0
  6  9  1  0  0  0  0
  7  8  1  0  0  0  0
  1 10  1  0  0  0  0
  1 11  1  0  0  0  0
  4 12  1  0  0  0  0
  4 13  1  0  0  0  0
  5 14  1  0  0  0  0
  5 15  1  0  0  0  0
  6 16  1  0  0  0  0
  6 17  1  0  0  0  0
  7 18  1  0  0  0  0
  7 19  1  0  0  0  0
 20 21  1  0  0  0  0
 20 25  1  0  0  0  0
 21 22  1  0  0  0  0
 21 27  1  0  0  0  0
 22 23  1  0  0  0  0
 22 33  1  0  0  0  0
 23 24  1  0  0  0  0
 24 25  1  0  0  0  0
 24 32  1  0  0  0  0
 25 28  1  0  0  0  0
 26 33  1  0  0  0  0
 27 34  2  0  0  0  0
 27 35  1  0  0  0  0
 28 29  2  0  0  0  0
 28 36  1  0  0  0  0
 29 30  1  0  0  0  0
 30 31  2  0  0  0  0
 31 36  1  0  0  0  0
 20 37  1  0  0  0  0
 20 38  1  0  0  0  0
 21 39  1  0  0  0  0
 22 40  1  0  0  0  0
 23 41  1  0  0  0  0
 23 42  1  0  0  0  0
 24 43  1  0  0  0  0
 25 44  1  0  0  0  0
 26 45  1  0  0  0  0
 26 46  1  0  0  0  0
 26 47  1  0  0  0  0
 29 48  1  0  0  0  0
 30 49  1  0  0  0  0
 31 50  1  0  0  0  0
  9 32  1  0  0  0  0
M  CHG  1  35  -1
M  END
> <BIOSOLVEIT.HYDE_ATOM_SCORES [kJ/mol]>
# Atom-ID; Total; Rec-Desolv; Rec-IA; Lig-Desolv; Lig-IA
1;3.0332;1.7388;0.0000;1.2944;0.0000
2;-0.0431;0.0000;0.0000;-0.0431;0.0000
3;-2.0159;7.3620;-9.4182;10.2198;-10.1795
4;0.4781;0.7080;0.0000;-0.2300;0.0000
5;0.0000;0.0000;0.0000;0.0000;0.0000
6;0.0000;0.0000;0.0000;0.0000;0.0000
7;-1.1613;-0.4035;0.0000;-0.7578;0.0000
8;0.0000;0.0000;0.0000;0.0000;0.0000
9;0.0000;0.0000;0.0000;0.0000;0.0000
20;0.0000;0.0000;0.0000;0.0000;0.0000
21;-0.7109;-0.5265;0.0000;-0.1844;0.0000
22;0.0000;0.0000;0.0000;0.0000;0.0000
23;-1.0634;-0.3643;0.0000;-0.6991;0.0000
24;-1.0796;-0.5707;0.0000;-0.5088;0.0000
25;-0.9205;-0.4921;0.0000;-0.4284;0.0000
26;-1.6578;-0.3277;0.0000;-1.3301;0.0000
27;0.0000;0.0000;0.0000;0.0000;0.0000
28;0.0000;0.0000;0.0000;0.0000;0.0000
29;0.0000;0.0000;0.0000;0.0000;0.0000
30;-3.2254;-2.0177;0.0000;-1.2077;0.0000
31;-0.8215;-0.0346;0.0000;-0.7870;0.0000
32;6.4543;-0.1437;0.0000;6.5980;0.0000
33;3.9185;0.0000;0.0000;3.9185;0.0000
34;-2.5735;6.9260;-8.4252;4.0600;-5.1342
35;-1.0687;6.8294;-7.7885;4.6366;-4.7462
36;-3.0560;6.0269;-7.8208;-0.1521;-1.1100

> <BIOSOLVEIT.HYDE_ESTIMATED_AFFINITY_LOWER_BOUNDARY [nM]>
10267374.000567

> <BIOSOLVEIT.HYDE_ESTIMATED_AFFINITY_UPPER_BOUNDARY [nM]>
1020124312.475742

> <BIOSOLVEIT.HYDE_LIGAND_EFFICIENCY range: ++, +, 0, -, -->
--

> <BIOSOLVEIT.HYDE_LIGAND_LIPOPHILIC_EFFICIENCY range: ++, +, 0, -, -->
--

> <BIOSOLVEIT.INTER_CLASH range: red, yellow, green>
green

> <BIOSOLVEIT.INTRA_CLASH range: red, yellow, green>
green

> <BIOSOLVEIT.LOGP>
0.0031

> <BIOSOLVEIT.MOLECULAR_WEIGHT>
382.458

> <BIOSOLVEIT.MOLECULE_CHECKSUM>
LTUuNjUwNjE7MC4yMTczMzE=

> <BIOSOLVEIT.TORSION_QUALITY range: red, yellow, green, not rotatable>
yellow

> <BIOSOLVEIT.TPSA>
108.16

> <BIOSOLVEIT.OPTIBRIUM.2D6 affinity category>
medium

> <BIOSOLVEIT.OPTIBRIUM.BBB category>
-

> <BIOSOLVEIT.OPTIBRIUM.2C9 pKi>
4.89636

> <BIOSOLVEIT.OPTIBRIUM.hERG pIC50>
3.76115

> <BIOSOLVEIT.OPTIBRIUM.HIA category>
-

> <BIOSOLVEIT.OPTIBRIUM.BBB log([brain]:[blood])>
-1.60191

> <BIOSOLVEIT.OPTIBRIUM.logD>
-0.803426

> <BIOSOLVEIT.OPTIBRIUM.logP>
1.68545

> <BIOSOLVEIT.OPTIBRIUM.logS>
2.68878

> <BIOSOLVEIT.OPTIBRIUM.logS @ pH7.4>
2.21181

> <BIOSOLVEIT.OPTIBRIUM.P-gp category>
yes

> <BIOSOLVEIT.OPTIBRIUM.PPB90 category>
low

$$$$
FLAVI-RDRP-DLS-JA027
dcSeeSAR  09252409193D 1   1.00000     0.00000     0
SeeSAR 13.0.1 dcn76311
 54 56  0  0  0  0            999 V2000
  -17.5286  -39.0489  -27.5025 N   0  0  0  0  0  0  0  0  0  0  0  0
  -16.9216  -38.4406  -26.4727 C   0  0  0  0  0  0  0  0  0  0  0  0
  -15.9826  -37.6391  -26.6254 O   0  0  0  0  0  0  0  0  0  0  0  0
  -17.9032  -40.1018  -24.9573 C   0  0  0  0  0  0  0  0  0  0  0  0
  -18.4475  -40.2876  -23.5611 C   0  0  0  0  0  0  0  0  0  0  0  0
  -16.9034  -38.6171  -22.7274 C   0  0  0  0  0  0  0  0  0  0  0  0
  -16.3445  -38.4143  -24.1049 C   0  0  0  0  0  0  0  0  0  0  0  0
  -17.3451  -40.6226  -21.2489 C   0  0  0  0  0  0  0  0  0  0  0  0
  -17.3451  -38.7540  -25.1240 N   0  0  0  0  0  0  0  0  0  0  0  0
  -17.4189  -39.9806  -22.5692 N   0  3  1  0  0  0  0  0  0  0  0  0
  -18.2801  -39.6867  -27.3342 H   0  0  0  0  0  0  0  0  0  0  0  0
  -17.2298  -38.8644  -28.4389 H   0  0  0  0  0  0  0  0  0  0  0  0
  -18.6939  -40.2440  -25.6640 H   0  0  0  0  0  0  0  0  0  0  0  0
  -17.1338  -40.8244  -25.1328 H   0  0  0  0  0  0  0  0  0  0  0  0
  -18.7645  -41.3020  -23.4382 H   0  0  0  0  0  0  0  0  0  0  0  0
  -19.2819  -39.6333  -23.4180 H   0  0  0  0  0  0  0  0  0  0  0  0
  -17.6993  -37.9204  -22.5658 H   0  0  0  0  0  0  0  0  0  0  0  0
  -16.1303  -38.4489  -22.0071 H   0  0  0  0  0  0  0  0  0  0  0  0
  -15.4865  -39.0409  -24.2320 H   0  0  0  0  0  0  0  0  0  0  0  0
  -16.0583  -37.3899  -24.2209 H   0  0  0  0  0  0  0  0  0  0  0  0
  -16.0144  -44.0108  -18.8072 C   0  0  0  0  0  0  0  0  0  0  0  0
  -15.1575  -43.1689  -18.0546 C   0  0  1  0  0  0  0  0  0  0  0  0
  -15.5949  -41.8333  -18.1142 C   0  0  2  0  0  0  0  0  0  0  0  0
  -15.8729  -41.4436  -19.4432 C   0  0  0  0  0  0  0  0  0  0  0  0
  -16.0413  -42.3837  -20.4900 C   0  0  1  0  0  0  0  0  0  0  0  0
  -16.1142  -43.7919  -20.2147 C   0  0  2  0  0  0  0  0  0  0  0  0
  -15.1871  -39.9325  -16.5462 C   0  0  0  0  0  0  0  0  0  0  0  0
  -14.9256  -43.6164  -16.7285 C   0  0  0  0  0  0  0  0  0  0  0  0
  -16.9508  -44.7211  -20.7744 C   0  0  0  0  0  0  0  0  0  0  0  0
  -17.6166  -45.6250  -19.9964 C   0  0  0  0  0  0  0  0  0  0  0  0
  -18.2956  -46.5638  -20.6741 C   0  0  0  0  0  0  0  0  0  0  0  0
  -18.1988  -46.4945  -21.9978 C   0  0  0  0  0  0  0  0  0  0  0  0
  -17.0543  -42.0032  -21.4095 O   0  0  0  0  0  0  0  0  0  0  0  0
  -14.7766  -40.9145  -17.5103 O   0  0  0  0  0  0  0  0  0  0  0  0
  -15.6116  -43.2223  -15.7589 O   0  0  0  0  0  0  0  0  0  0  0  0
  -14.0060  -44.4383  -16.4841 O   0  5  0  0  0  0  0  0  0  0  0  0
  -17.2356  -45.1651  -22.4026 S   0  0  0  0  0  0  0  0  0  0  0  0
  -16.9984  -43.9063  -18.4000 H   0  0  0  0  0  0  0  0  0  0  0  0
  -15.6749  -45.0155  -18.6664 H   0  0  0  0  0  0  0  0  0  0  0  0
  -14.2081  -43.1935  -18.5474 H   0  0  0  0  0  0  0  0  0  0  0  0
  -16.5264  -41.7979  -17.5890 H   0  0  0  0  0  0  0  0  0  0  0  0
  -15.0664  -40.8069  -19.7417 H   0  0  0  0  0  0  0  0  0  0  0  0
  -16.7793  -40.8763  -19.4038 H   0  0  0  0  0  0  0  0  0  0  0  0
  -15.1400  -42.2875  -21.0586 H   0  0  0  0  0  0  0  0  0  0  0  0
  -15.1574  -44.1290  -20.5548 H   0  0  0  0  0  0  0  0  0  0  0  0
  -14.3401  -39.3516  -16.2459 H   0  0  0  0  0  0  0  0  0  0  0  0
  -15.9234  -39.2904  -16.9825 H   0  0  0  0  0  0  0  0  0  0  0  0
  -15.6036  -40.4238  -15.6917 H   0  0  0  0  0  0  0  0  0  0  0  0
  -17.5982  -45.5878  -18.9272 H   0  0  0  0  0  0  0  0  0  0  0  0
  -18.8755  -47.3166  -20.1823 H   0  0  0  0  0  0  0  0  0  0  0  0
  -18.6549  -47.1686  -22.6923 H   0  0  0  0  0  0  0  0  0  0  0  0
  -18.2827  -40.5119  -20.7456 H   0  0  0  0  0  0  0  0  0  0  0  0
  -16.5728  -40.1605  -20.6703 H   0  0  0  0  0  0  0  0  0  0  0  0
  -16.6598  -40.4667  -23.0021 H   0  0  0  0  0  0  0  0  0  0  0  0
  1  2  1  0  0  0  0
  2  3  2  0  0  0  0
  2  9  1  0  0  0  0
  4  5  1  0  0  0  0
  4  9  1  0  0  0  0
  5 10  1  0  0  0  0
  6  7  1  0  0  0  0
  6 10  1  0  0  0  0
  7  9  1  0  0  0  0
  8 10  1  0  0  0  0
  1 11  1  0  0  0  0
  1 12  1  0  0  0  0
  4 13  1  0  0  0  0
  4 14  1  0  0  0  0
  5 15  1  0  0  0  0
  5 16  1  0  0  0  0
  6 17  1  0  0  0  0
  6 18  1  0  0  0  0
  7 19  1  0  0  0  0
  7 20  1  0  0  0  0
 21 22  1  0  0  0  0
 21 26  1  0  0  0  0
 22 23  1  0  0  0  0
 22 28  1  0  0  0  0
 23 24  1  0  0  0  0
 23 34  1  0  0  0  0
 24 25  1  0  0  0  0
 25 26  1  0  0  0  0
 25 33  1  0  0  0  0
 26 29  1  0  0  0  0
 27 34  1  0  0  0  0
 28 35  2  0  0  0  0
 28 36  1  0  0  0  0
 29 30  2  0  0  0  0
 29 37  1  0  0  0  0
 30 31  1  0  0  0  0
 31 32  2  0  0  0  0
 32 37  1  0  0  0  0
 21 38  1  0  0  0  0
 21 39  1  0  0  0  0
 22 40  1  0  0  0  0
 23 41  1  0  0  0  0
 24 42  1  0  0  0  0
 24 43  1  0  0  0  0
 25 44  1  0  0  0  0
 26 45  1  0  0  0  0
 27 46  1  0  0  0  0
 27 47  1  0  0  0  0
 27 48  1  0  0  0  0
 30 49  1  0  0  0  0
 31 50  1  0  0  0  0
 32 51  1  0  0  0  0
  8 33  1  0  0  0  0
  8 52  1  0  0  0  0
  8 53  1  0  0  0  0
 10 54  1  0  0  0  0
M  CHG  2  10   1  36  -1
M  END
> <BIOSOLVEIT.HYDE_ATOM_SCORES [kJ/mol]>
# Atom-ID; Total; Rec-Desolv; Rec-IA; Lig-Desolv; Lig-IA
1;2.1660;3.1584;0.0000;6.7634;-7.7558
2;-0.0424;0.0000;0.0000;-0.0424;0.0000
3;-2.6992;7.4685;-9.5521;9.7086;-10.3243
4;0.0000;0.0000;0.0000;0.0000;0.0000
5;0.0000;0.0000;0.0000;0.0000;0.0000
6;0.0000;0.0000;0.0000;0.0000;0.0000
7;-0.3351;0.0000;0.0000;-0.3351;0.0000
8;0.0000;0.0000;0.0000;0.0000;0.0000
9;0.0000;0.0000;0.0000;0.0000;0.0000
10;0.0000;0.0000;0.0000;0.0000;0.0000
21;-0.0970;0.0000;0.0000;-0.0970;0.0000
22;0.0000;0.0000;0.0000;0.0000;0.0000
23;0.0000;0.0000;0.0000;0.0000;0.0000
24;0.0000;0.0000;0.0000;0.0000;0.0000
25;0.0000;0.0000;0.0000;0.0000;0.0000
26;0.0000;0.0000;0.0000;0.0000;0.0000
27;0.0000;0.0000;0.0000;0.0000;0.0000
28;-0.1954;0.0000;0.0000;-0.1954;0.0000
29;0.0000;0.0000;0.0000;0.0000;0.0000
30;-0.0422;0.0000;0.0000;-0.0422;0.0000
31;-3.0879;-1.9773;0.0000;-1.1106;0.0000
32;-6.3084;-5.2334;0.0000;-1.0750;0.0000
33;0.0000;0.0000;0.0000;0.0000;0.0000
34;0.0000;0.0000;0.0000;0.0000;0.0000
35;1.0415;0.9676;0.0000;0.0739;0.0000
36;-2.2911;7.2742;-8.4287;3.9997;-5.1363
37;-1.2838;-0.6222;0.0000;-0.6616;0.0000

> <BIOSOLVEIT.HYDE_ESTIMATED_AFFINITY_LOWER_BOUNDARY [nM]>
493426.351089

> <BIOSOLVEIT.HYDE_ESTIMATED_AFFINITY_UPPER_BOUNDARY [nM]>
49024825.348139

> <BIOSOLVEIT.HYDE_LIGAND_EFFICIENCY range: ++, +, 0, -, -->
--

> <BIOSOLVEIT.HYDE_LIGAND_LIPOPHILIC_EFFICIENCY range: ++, +, 0, -, -->
0

> <BIOSOLVEIT.INTER_CLASH range: red, yellow, green>
green

> <BIOSOLVEIT.INTRA_CLASH range: red, yellow, green>
green

> <BIOSOLVEIT.LOGP>
-1.3715

> <BIOSOLVEIT.MOLECULAR_WEIGHT>
397.492

> <BIOSOLVEIT.MOLECULE_CHECKSUM>
LTEzLjE3NTE7MC40ODc5Njc=

> <BIOSOLVEIT.TORSION_QUALITY range: red, yellow, green, not rotatable>
red

> <BIOSOLVEIT.TPSA>
109.36

> <BIOSOLVEIT.OPTIBRIUM.2D6 affinity category>
medium

> <BIOSOLVEIT.OPTIBRIUM.BBB category>
-

> <BIOSOLVEIT.OPTIBRIUM.2C9 pKi>
4.71915

> <BIOSOLVEIT.OPTIBRIUM.hERG pIC50>
3.48549

> <BIOSOLVEIT.OPTIBRIUM.HIA category>
-

> <BIOSOLVEIT.OPTIBRIUM.BBB log([brain]:[blood])>
-1.81383

> <BIOSOLVEIT.OPTIBRIUM.logD>
-0.895145

> <BIOSOLVEIT.OPTIBRIUM.logP>
-3.29844

> <BIOSOLVEIT.OPTIBRIUM.logS>
3.69674

> <BIOSOLVEIT.OPTIBRIUM.logS @ pH7.4>
2.93892

> <BIOSOLVEIT.OPTIBRIUM.P-gp category>
yes

> <BIOSOLVEIT.OPTIBRIUM.PPB90 category>
low

$$$$
FLAVI-RDRP-DLS-JA028
dcSeeSAR  09252409193D 1   1.00000     0.00000     0
SeeSAR 13.0.1 dcn76311
 48 50  0  0  0  0            999 V2000
  -18.6754  -38.1675  -27.1096 N   0  0  0  0  0  0  0  0  0  0  0  0
  -18.1834  -35.8741  -26.3606 C   0  0  0  0  0  0  0  0  0  0  0  0
  -17.8283  -37.2935  -26.6496 C   0  0  0  0  0  0  0  0  0  0  0  0
  -18.0494  -39.3880  -27.2573 C   0  0  0  0  0  0  0  0  0  0  0  0
  -16.7482  -39.4609  -26.9152 C   0  0  0  0  0  0  0  0  0  0  0  0
  -15.8461  -40.6534  -26.9521 C   0  0  0  0  0  0  0  0  0  0  0  0
  -16.4769  -41.8654  -24.7892 C   0  0  0  0  0  0  0  0  0  0  0  0
  -16.1419  -41.9511  -23.4442 C   0  0  0  0  0  0  0  0  0  0  0  0
  -18.2265  -43.0970  -23.0838 C   0  0  0  0  0  0  0  0  0  0  0  0
  -18.5708  -43.0152  -24.4321 C   0  0  0  0  0  0  0  0  0  0  0  0
  -17.6690  -42.3859  -25.2851 C   0  0  0  0  0  0  0  0  0  0  0  0
  -19.7081  -43.5098  -24.9122 F   0  0  0  0  0  0  0  0  0  0  0  0
  -15.5309  -41.2122  -25.6480 N   0  0  0  0  0  0  0  0  0  0  0  0
  -17.0336  -42.5776  -22.5831 C   0  0  0  0  0  0  0  0  0  0  0  0
  -16.2248  -37.9029  -26.3702 S   0  0  0  0  0  0  0  0  0  0  0  0
  -17.3207  -35.3584  -25.9931 H   0  0  0  0  0  0  0  0  0  0  0  0
  -18.5256  -35.4023  -27.2578 H   0  0  0  0  0  0  0  0  0  0  0  0
  -18.9583  -35.8433  -25.6235 H   0  0  0  0  0  0  0  0  0  0  0  0
  -18.5760  -40.2423  -27.6285 H   0  0  0  0  0  0  0  0  0  0  0  0
  -14.9295  -40.3645  -27.4222 H   0  0  0  0  0  0  0  0  0  0  0  0
  -16.3217  -41.4141  -27.5354 H   0  0  0  0  0  0  0  0  0  0  0  0
  -15.2209  -41.5452  -23.0808 H   0  0  0  0  0  0  0  0  0  0  0  0
  -18.9033  -43.5765  -22.4078 H   0  0  0  0  0  0  0  0  0  0  0  0
  -17.8932  -42.3016  -26.3280 H   0  0  0  0  0  0  0  0  0  0  0  0
  -14.5872  -41.1358  -25.3261 H   0  0  0  0  0  0  0  0  0  0  0  0
  -16.9681  -43.8942  -19.0040 C   0  0  0  0  0  0  0  0  0  0  0  0
  -15.4649  -43.9343  -18.7803 C   0  0  1  0  0  0  0  0  0  0  0  0
  -14.7865  -42.7619  -19.4722 C   0  0  2  0  0  0  0  0  0  0  0  0
  -15.1359  -42.7348  -20.9521 C   0  0  0  0  0  0  0  0  0  0  0  0
  -16.6463  -42.6606  -21.1155 C   0  0  2  0  0  0  0  0  0  0  0  0
  -17.2859  -43.8898  -20.4907 C   0  0  0  0  0  0  0  0  0  0  0  0
  -12.4277  -41.8837  -19.8248 C   0  0  0  0  0  0  0  0  0  0  0  0
  -15.2073  -43.9029  -17.2827 C   0  0  0  0  0  0  0  0  0  0  0  0
  -13.3793  -42.8169  -19.2897 O   0  0  0  0  0  0  0  0  0  0  0  0
  -15.9699  -43.3145  -16.4838 O   0  0  0  0  0  0  0  0  0  0  0  0
  -14.2009  -44.4787  -16.7962 O   0  5  0  0  0  0  0  0  0  0  0  0
  -17.3673  -43.0081  -18.5561 H   0  0  0  0  0  0  0  0  0  0  0  0
  -17.4144  -44.7548  -18.5511 H   0  0  0  0  0  0  0  0  0  0  0  0
  -15.0773  -44.8472  -19.1815 H   0  0  0  0  0  0  0  0  0  0  0  0
  -15.1460  -41.8577  -19.0272 H   0  0  0  0  0  0  0  0  0  0  0  0
  -14.7697  -43.6240  -21.4212 H   0  0  0  0  0  0  0  0  0  0  0  0
  -14.6853  -41.8789  -21.4093 H   0  0  0  0  0  0  0  0  0  0  0  0
  -18.3459  -43.8576  -20.6335 H   0  0  0  0  0  0  0  0  0  0  0  0
  -11.4407  -42.1711  -19.5280 H   0  0  0  0  0  0  0  0  0  0  0  0
  -12.4924  -41.8810  -20.8928 H   0  0  0  0  0  0  0  0  0  0  0  0
  -12.6410  -40.9037  -19.4521 H   0  0  0  0  0  0  0  0  0  0  0  0
  -16.8914  -44.7737  -20.9469 H   0  0  0  0  0  0  0  0  0  0  0  0
  -17.0071  -41.7882  -20.6118 H   0  0  0  0  0  0  0  0  0  0  0  0
  1  3  2  0  0  0  0
  1  4  1  0  0  0  0
  2  3  1  0  0  0  0
  3 15  1  0  0  0  0
  4  5  2  0  0  0  0
  5  6  1  0  0  0  0
  5 15  1  0  0  0  0
  6 13  1  0  0  0  0
  7  8  2  0  0  0  0
  7 11  1  0  0  0  0
  7 13  1  0  0  0  0
  8 14  1  0  0  0  0
  9 10  1  0  0  0  0
  9 14  2  0  0  0  0
 10 11  2  0  0  0  0
 10 12  1  0  0  0  0
  2 16  1  0  0  0  0
  2 17  1  0  0  0  0
  2 18  1  0  0  0  0
  4 19  1  0  0  0  0
  6 20  1  0  0  0  0
  6 21  1  0  0  0  0
  8 22  1  0  0  0  0
  9 23  1  0  0  0  0
 11 24  1  0  0  0  0
 13 25  1  0  0  0  0
 26 27  1  0  0  0  0
 26 31  1  0  0  0  0
 27 28  1  0  0  0  0
 27 33  1  0  0  0  0
 28 29  1  0  0  0  0
 28 34  1  0  0  0  0
 29 30  1  0  0  0  0
 30 31  1  0  0  0  0
 32 34  1  0  0  0  0
 33 35  2  0  0  0  0
 33 36  1  0  0  0  0
 26 37  1  0  0  0  0
 26 38  1  0  0  0  0
 27 39  1  0  0  0  0
 28 40  1  0  0  0  0
 29 41  1  0  0  0  0
 29 42  1  0  0  0  0
 31 43  1  0  0  0  0
 32 44  1  0  0  0  0
 32 45  1  0  0  0  0
 32 46  1  0  0  0  0
 31 47  1  0  0  0  0
 30 14  1  0  0  0  0
 30 48  1  0  0  0  0
M  CHG  1  36  -1
M  END
> <BIOSOLVEIT.HYDE_ATOM_SCORES [kJ/mol]>
# Atom-ID; Total; Rec-Desolv; Rec-IA; Lig-Desolv; Lig-IA
1;-3.3243;6.1802;-8.2441;6.9837;-8.2441
2;-1.5315;-0.6152;0.0000;-0.9162;0.0000
3;-0.3063;0.0000;0.0000;-0.3063;0.0000
4;-2.0173;-0.5859;0.0000;-1.4314;0.0000
5;-0.2429;0.0000;0.0000;-0.2429;0.0000
6;-2.7640;-0.7805;0.0000;-1.9835;0.0000
7;0.0000;0.0000;0.0000;0.0000;0.0000
8;0.0000;0.0000;0.0000;0.0000;0.0000
9;-0.0590;0.0000;0.0000;-0.0590;0.0000
10;-0.4208;-0.2100;0.0000;-0.2108;0.0000
11;8.4917;9.6013;0.0000;-1.1096;0.0000
12;-1.7778;-1.1391;0.0000;-0.6387;0.0000
13;5.6430;-1.4084;0.0000;7.0514;0.0000
14;0.0000;0.0000;0.0000;0.0000;0.0000
15;-3.8422;6.7728;-9.5310;0.1009;-1.1849
26;-0.1396;0.0000;0.0000;-0.1396;0.0000
27;0.0000;0.0000;0.0000;0.0000;0.0000
28;0.0000;0.0000;0.0000;0.0000;0.0000
29;0.0000;0.0000;0.0000;0.0000;0.0000
30;0.0000;0.0000;0.0000;0.0000;0.0000
31;0.0000;0.0000;0.0000;0.0000;0.0000
32;-2.6436;-1.2181;0.0000;-1.4255;0.0000
33;-0.2042;0.0000;0.0000;-0.2042;0.0000
34;2.6567;0.0000;0.0000;2.6567;0.0000
35;0.3581;0.6752;0.0000;-0.3171;0.0000
36;-2.6573;6.9159;-8.4287;3.9919;-5.1364

> <BIOSOLVEIT.HYDE_ESTIMATED_AFFINITY_LOWER_BOUNDARY [nM]>
13428084.465590

> <BIOSOLVEIT.HYDE_ESTIMATED_AFFINITY_UPPER_BOUNDARY [nM]>
1334159584.774993

> <BIOSOLVEIT.HYDE_LIGAND_EFFICIENCY range: ++, +, 0, -, -->
--

> <BIOSOLVEIT.HYDE_LIGAND_LIPOPHILIC_EFFICIENCY range: ++, +, 0, -, -->
--

> <BIOSOLVEIT.INTER_CLASH range: red, yellow, green>
green

> <BIOSOLVEIT.INTRA_CLASH range: red, yellow, green>
green

> <BIOSOLVEIT.LOGP>
2.85132

> <BIOSOLVEIT.MOLECULAR_WEIGHT>
377.457

> <BIOSOLVEIT.MOLECULE_CHECKSUM>
LTQuOTg1MzE7MC4xOTE3NDM=

> <BIOSOLVEIT.TORSION_QUALITY range: red, yellow, green, not rotatable>
green

> <BIOSOLVEIT.TPSA>
74.28

> <BIOSOLVEIT.OPTIBRIUM.2D6 affinity category>
very high

> <BIOSOLVEIT.OPTIBRIUM.BBB category>
-

> <BIOSOLVEIT.OPTIBRIUM.2C9 pKi>
5.15729

> <BIOSOLVEIT.OPTIBRIUM.hERG pIC50>
4.60201

> <BIOSOLVEIT.OPTIBRIUM.HIA category>
+

> <BIOSOLVEIT.OPTIBRIUM.BBB log([brain]:[blood])>
-1.37799

> <BIOSOLVEIT.OPTIBRIUM.logD>
0.384542

> <BIOSOLVEIT.OPTIBRIUM.logP>
3.95306

> <BIOSOLVEIT.OPTIBRIUM.logS>
1.5046

> <BIOSOLVEIT.OPTIBRIUM.logS @ pH7.4>
1.99121

> <BIOSOLVEIT.OPTIBRIUM.P-gp category>
yes

> <BIOSOLVEIT.OPTIBRIUM.PPB90 category>
high

$$$$
FLAVI-RDRP-DLS-JA029
dcSeeSAR  09252409193D 1   1.00000     0.00000     0
SeeSAR 13.0.1 dcn76311
 48 50  0  0  0  0            999 V2000
  -18.5916  -38.2286  -27.1127 N   0  0  0  0  0  0  0  0  0  0  0  0
  -17.8103  -35.9719  -26.5124 C   0  0  0  0  0  0  0  0  0  0  0  0
  -17.6577  -37.4491  -26.6507 C   0  0  0  0  0  0  0  0  0  0  0  0
  -18.1523  -39.5363  -27.1025 C   0  0  0  0  0  0  0  0  0  0  0  0
  -16.9086  -39.7671  -26.6386 C   0  0  0  0  0  0  0  0  0  0  0  0
  -16.2017  -41.0775  -26.4956 C   0  0  0  0  0  0  0  0  0  0  0  0
  -17.1366  -42.4587  -24.5557 C   0  0  0  0  0  0  0  0  0  0  0  0
  -16.8124  -43.0648  -23.3459 C   0  0  0  0  0  0  0  0  0  0  0  0
  -18.8906  -44.1120  -23.3404 C   0  0  0  0  0  0  0  0  0  0  0  0
  -19.2693  -43.5314  -24.5508 C   0  0  0  0  0  0  0  0  0  0  0  0
  -18.3635  -42.6792  -25.1771 C   0  0  0  0  0  0  0  0  0  0  0  0
  -20.4525  -43.7596  -25.1138 F   0  0  0  0  0  0  0  0  0  0  0  0
  -16.1522  -41.5912  -25.1369 N   0  0  0  0  0  0  0  0  0  0  0  0
  -17.6978  -43.8836  -22.7614 N   0  3  0  0  0  0  0  0  0  0  0  0
  -16.1944  -38.2585  -26.1778 S   0  0  0  0  0  0  0  0  0  0  0  0
  -16.9096  -35.5563  -26.1115 H   0  0  0  0  0  0  0  0  0  0  0  0
  -18.0050  -35.5421  -27.4727 H   0  0  0  0  0  0  0  0  0  0  0  0
  -18.6259  -35.7578  -25.8538 H   0  0  0  0  0  0  0  0  0  0  0  0
  -18.7743  -40.3351  -27.4488 H   0  0  0  0  0  0  0  0  0  0  0  0
  -15.1972  -40.9548  -26.8431 H   0  0  0  0  0  0  0  0  0  0  0  0
  -16.7052  -41.7972  -27.1067 H   0  0  0  0  0  0  0  0  0  0  0  0
  -15.8643  -42.8788  -22.8862 H   0  0  0  0  0  0  0  0  0  0  0  0
  -19.5792  -44.7682  -22.8507 H   0  0  0  0  0  0  0  0  0  0  0  0
  -18.6027  -42.2080  -26.1075 H   0  0  0  0  0  0  0  0  0  0  0  0
  -15.3768  -41.3208  -24.5664 H   0  0  0  0  0  0  0  0  0  0  0  0
  -17.3769  -46.5676  -20.1275 C   0  0  0  0  0  0  0  0  0  0  0  0
  -15.8832  -46.4811  -19.8567 C   0  0  1  0  0  0  0  0  0  0  0  0
  -15.4363  -45.0291  -19.9337 C   0  0  2  0  0  0  0  0  0  0  0  0
  -15.7975  -44.4133  -21.2765 C   0  0  0  0  0  0  0  0  0  0  0  0
  -17.3013  -44.5015  -21.4872 C   0  0  2  0  0  0  0  0  0  0  0  0
  -17.7185  -45.9635  -21.4804 C   0  0  0  0  0  0  0  0  0  0  0  0
  -13.2090  -43.8055  -19.9661 C   0  0  0  0  0  0  0  0  0  0  0  0
  -15.6166  -47.0575  -18.4757 C   0  0  0  0  0  0  0  0  0  0  0  0
  -14.0359  -44.9518  -19.7116 O   0  0  0  0  0  0  0  0  0  0  0  0
  -16.3933  -46.8739  -17.5119 O   0  0  0  0  0  0  0  0  0  0  0  0
  -14.5883  -47.7480  -18.2601 O   0  5  0  0  0  0  0  0  0  0  0  0
  -17.9031  -46.0349  -19.3630 H   0  0  0  0  0  0  0  0  0  0  0  0
  -17.6762  -47.5949  -20.1169 H   0  0  0  0  0  0  0  0  0  0  0  0
  -15.3553  -47.0550  -20.5895 H   0  0  0  0  0  0  0  0  0  0  0  0
  -15.9337  -44.4789  -19.1625 H   0  0  0  0  0  0  0  0  0  0  0  0
  -15.2960  -44.9441  -22.0586 H   0  0  0  0  0  0  0  0  0  0  0  0
  -15.4949  -43.3870  -21.2910 H   0  0  0  0  0  0  0  0  0  0  0  0
  -18.7722  -46.0371  -21.6508 H   0  0  0  0  0  0  0  0  0  0  0  0
  -12.1959  -44.0318  -19.7066 H   0  0  0  0  0  0  0  0  0  0  0  0
  -13.2627  -43.5502  -21.0038 H   0  0  0  0  0  0  0  0  0  0  0  0
  -13.5522  -42.9804  -19.3776 H   0  0  0  0  0  0  0  0  0  0  0  0
  -17.1950  -46.4899  -22.2510 H   0  0  0  0  0  0  0  0  0  0  0  0
  -17.7959  -43.9943  -20.6853 H   0  0  0  0  0  0  0  0  0  0  0  0
  1  3  2  0  0  0  0
  1  4  1  0  0  0  0
  2  3  1  0  0  0  0
  3 15  1  0  0  0  0
  4  5  2  0  0  0  0
  5  6  1  0  0  0  0
  5 15  1  0  0  0  0
  6 13  1  0  0  0  0
  7  8  2  0  0  0  0
  7 11  1  0  0  0  0
  7 13  1  0  0  0  0
  8 14  1  0  0  0  0
  9 10  1  0  0  0  0
  9 14  2  0  0  0  0
 10 11  2  0  0  0  0
 10 12  1  0  0  0  0
  2 16  1  0  0  0  0
  2 17  1  0  0  0  0
  2 18  1  0  0  0  0
  4 19  1  0  0  0  0
  6 20  1  0  0  0  0
  6 21  1  0  0  0  0
  8 22  1  0  0  0  0
  9 23  1  0  0  0  0
 11 24  1  0  0  0  0
 13 25  1  0  0  0  0
 26 27  1  0  0  0  0
 26 31  1  0  0  0  0
 27 28  1  0  0  0  0
 27 33  1  0  0  0  0
 28 29  1  0  0  0  0
 28 34  1  0  0  0  0
 29 30  1  0  0  0  0
 30 31  1  0  0  0  0
 32 34  1  0  0  0  0
 33 35  2  0  0  0  0
 33 36  1  0  0  0  0
 26 37  1  0  0  0  0
 26 38  1  0  0  0  0
 27 39  1  0  0  0  0
 28 40  1  0  0  0  0
 29 41  1  0  0  0  0
 29 42  1  0  0  0  0
 31 43  1  0  0  0  0
 32 44  1  0  0  0  0
 32 45  1  0  0  0  0
 32 46  1  0  0  0  0
 31 47  1  0  0  0  0
 30 14  1  0  0  0  0
 30 48  1  0  0  0  0
M  CHG  2  14   1  36  -1
M  END
> <BIOSOLVEIT.HYDE_ATOM_SCORES [kJ/mol]>
# Atom-ID; Total; Rec-Desolv; Rec-IA; Lig-Desolv; Lig-IA
1;-2.8146;7.0754;-8.4283;6.9666;-8.4283
2;-2.3841;-1.2840;0.0000;-1.1002;0.0000
3;-0.3251;-0.0521;0.0000;-0.2730;0.0000
4;5.1269;6.3820;0.0000;-1.2551;0.0000
5;-0.1453;0.0000;0.0000;-0.1453;0.0000
6;-3.2736;-1.7208;0.0000;-1.5528;0.0000
7;-0.1037;0.0000;0.0000;-0.1037;0.0000
8;-0.4695;0.0000;0.0000;-0.4695;0.0000
9;-0.8229;0.0000;0.0000;-0.8229;0.0000
10;-0.2328;0.0000;0.0000;-0.2328;0.0000
11;4.7005;5.7632;0.0000;-1.0627;0.0000
12;-1.5719;-0.8973;0.0000;-0.6746;0.0000
13;0.1124;0.1264;0.0000;-0.0140;0.0000
14;-0.7884;-0.7884;0.0000;0.0000;0.0000
15;-3.6767;6.9696;-9.5909;0.1369;-1.1923
26;-1.3180;-0.4537;0.0000;-0.8643;0.0000
27;-0.8886;0.0000;0.0000;-0.8886;0.0000
28;0.0000;0.0000;0.0000;0.0000;0.0000
29;-1.0782;-0.4112;0.0000;-0.6670;0.0000
30;0.0000;0.0000;0.0000;0.0000;0.0000
31;-3.8561;-2.6023;0.0000;-1.2538;0.0000
32;-2.6473;-0.7341;0.0000;-1.9132;0.0000
33;-0.1086;0.0000;0.0000;-0.1086;0.0000
34;4.9077;-1.5214;0.0000;6.4291;0.0000
35;-0.9421;-0.6420;-0.6151;0.6898;-0.3748
36;0.6067;0.0057;-0.6925;1.7155;-0.4220

> <BIOSOLVEIT.HYDE_ESTIMATED_AFFINITY_LOWER_BOUNDARY [nM]>
741197.987281

> <BIOSOLVEIT.HYDE_ESTIMATED_AFFINITY_UPPER_BOUNDARY [nM]>
73642402.345650

> <BIOSOLVEIT.HYDE_LIGAND_EFFICIENCY range: ++, +, 0, -, -->
--

> <BIOSOLVEIT.HYDE_LIGAND_LIPOPHILIC_EFFICIENCY range: ++, +, 0, -, -->
--

> <BIOSOLVEIT.INTER_CLASH range: red, yellow, green>
green

> <BIOSOLVEIT.INTRA_CLASH range: red, yellow, green>
green

> <BIOSOLVEIT.LOGP>
1.59632

> <BIOSOLVEIT.MOLECULAR_WEIGHT>
379.453

> <BIOSOLVEIT.MOLECULE_CHECKSUM>
LTEyLjE2NjQ7MC40Njc5NA==

> <BIOSOLVEIT.TORSION_QUALITY range: red, yellow, green, not rotatable>
green

> <BIOSOLVEIT.TPSA>
78.16

> <BIOSOLVEIT.OPTIBRIUM.2D6 affinity category>
very high

> <BIOSOLVEIT.OPTIBRIUM.BBB category>
-

> <BIOSOLVEIT.OPTIBRIUM.2C9 pKi>
5.07292

> <BIOSOLVEIT.OPTIBRIUM.hERG pIC50>
4.59527

> <BIOSOLVEIT.OPTIBRIUM.HIA category>
-

> <BIOSOLVEIT.OPTIBRIUM.BBB log([brain]:[blood])>
-1.50467

> <BIOSOLVEIT.OPTIBRIUM.logD>
-0.67155

> <BIOSOLVEIT.OPTIBRIUM.logP>
3.5901

> <BIOSOLVEIT.OPTIBRIUM.logS>
1.57298

> <BIOSOLVEIT.OPTIBRIUM.logS @ pH7.4>
2.19332

> <BIOSOLVEIT.OPTIBRIUM.P-gp category>
yes

> <BIOSOLVEIT.OPTIBRIUM.PPB90 category>
high

$$$$
FLAVI-RDRP-DLS-JA030
dcSeeSAR  09252409193D 1   1.00000     0.00000     0
SeeSAR 13.0.1 dcn76311
 56 58  0  0  0  0            999 V2000
  -18.7528  -38.3648  -27.1555 N   0  0  0  0  0  0  0  0  0  0  0  0
  -15.5966  -40.2864  -26.3406 C   0  0  0  0  0  0  0  0  0  0  0  0
  -16.7466  -39.3165  -26.2261 C   0  0  0  0  0  0  0  0  0  0  0  0
  -16.8479  -38.4529  -25.1526 C   0  0  0  0  0  0  0  0  0  0  0  0
  -17.8822  -37.5363  -25.0935 C   0  0  0  0  0  0  0  0  0  0  0  0
  -18.8047  -37.5252  -26.1147 C   0  0  0  0  0  0  0  0  0  0  0  0
  -17.7325  -39.2337  -27.1944 C   0  0  0  0  0  0  0  0  0  0  0  0
  -16.3945  -42.6040  -25.6518 C   0  0  0  0  0  0  0  0  0  0  0  0
  -15.0220  -41.1970  -24.0335 C   0  0  0  0  0  0  0  0  0  0  0  0
  -15.6710  -41.3625  -25.3420 N   0  3  2  0  0  0  0  0  0  0  0  0
  -14.6803  -39.7513  -26.2019 H   0  0  0  0  0  0  0  0  0  0  0  0
  -15.6106  -40.7224  -27.3176 H   0  0  0  0  0  0  0  0  0  0  0  0
  -16.1247  -38.4932  -24.3650 H   0  0  0  0  0  0  0  0  0  0  0  0
  -17.9630  -36.8530  -24.2742 H   0  0  0  0  0  0  0  0  0  0  0  0
  -19.6010  -36.8116  -26.0745 H   0  0  0  0  0  0  0  0  0  0  0  0
  -17.6767  -39.9051  -28.0257 H   0  0  0  0  0  0  0  0  0  0  0  0
  -16.3424  -43.2661  -24.8128 H   0  0  0  0  0  0  0  0  0  0  0  0
  -17.4184  -42.3767  -25.8638 H   0  0  0  0  0  0  0  0  0  0  0  0
  -15.9494  -43.0729  -26.5044 H   0  0  0  0  0  0  0  0  0  0  0  0
  -15.8645  -44.4080  -19.5557 C   0  0  0  0  0  0  0  0  0  0  0  0
  -14.8235  -43.8510  -18.7710 C   0  0  1  0  0  0  0  0  0  0  0  0
  -14.4749  -42.5726  -19.2428 C   0  0  2  0  0  0  0  0  0  0  0  0
  -14.2922  -42.5752  -20.6436 C   0  0  0  0  0  0  0  0  0  0  0  0
  -14.7639  -43.6266  -21.4682 C   0  0  1  0  0  0  0  0  0  0  0  0
  -15.6107  -44.6591  -20.9382 C   0  0  2  0  0  0  0  0  0  0  0  0
  -14.3952  -42.5150  -23.6085 C   0  0  0  0  0  0  0  0  0  0  0  0
  -12.7852  -40.7478  -19.0127 C   0  0  0  0  0  0  0  0  0  0  0  0
  -15.0748  -43.8760  -17.3750 C   0  0  0  0  0  0  0  0  0  0  0  0
  -16.7111  -45.2319  -21.5193 C   0  0  0  0  0  0  0  0  0  0  0  0
  -17.2269  -46.4034  -21.0426 C   0  0  0  0  0  0  0  0  0  0  0  0
  -18.2182  -46.9274  -21.7804 C   0  0  0  0  0  0  0  0  0  0  0  0
  -18.5332  -46.2480  -22.8782 C   0  0  0  0  0  0  0  0  0  0  0  0
  -15.2538  -43.1724  -22.6881 O   0  0  0  0  0  0  0  0  0  0  0  0
  -13.4023  -41.9851  -18.6242 O   0  0  0  0  0  0  0  0  0  0  0  0
  -16.0571  -43.2963  -16.8607 O   0  0  0  0  0  0  0  0  0  0  0  0
  -14.3023  -44.4936  -16.5987 O   0  5  0  0  0  0  0  0  0  0  0  0
  -17.5572  -44.8699  -22.9623 S   0  0  0  0  0  0  0  0  0  0  0  0
  -16.6951  -43.7355  -19.5033 H   0  0  0  0  0  0  0  0  0  0  0  0
  -16.1331  -45.3421  -19.1083 H   0  0  0  0  0  0  0  0  0  0  0  0
  -13.9662  -44.4711  -18.9304 H   0  0  0  0  0  0  0  0  0  0  0  0
  -15.3167  -41.9408  -19.0502 H   0  0  0  0  0  0  0  0  0  0  0  0
  -13.2361  -42.5201  -20.8062 H   0  0  0  0  0  0  0  0  0  0  0  0
  -14.7560  -41.6817  -21.0060 H   0  0  0  0  0  0  0  0  0  0  0  0
  -13.8711  -44.1509  -21.7382 H   0  0  0  0  0  0  0  0  0  0  0  0
  -14.9361  -45.4881  -20.8878 H   0  0  0  0  0  0  0  0  0  0  0  0
  -11.9711  -40.5325  -18.3524 H   0  0  0  0  0  0  0  0  0  0  0  0
  -12.4192  -40.8309  -20.0146 H   0  0  0  0  0  0  0  0  0  0  0  0
  -13.5053  -39.9582  -18.9603 H   0  0  0  0  0  0  0  0  0  0  0  0
  -16.8677  -46.8684  -20.1483 H   0  0  0  0  0  0  0  0  0  0  0  0
  -18.7205  -47.8307  -21.5034 H   0  0  0  0  0  0  0  0  0  0  0  0
  -19.2809  -46.5270  -23.5909 H   0  0  0  0  0  0  0  0  0  0  0  0
  -15.7507  -40.8986  -23.3091 H   0  0  0  0  0  0  0  0  0  0  0  0
  -14.2619  -40.4472  -24.1046 H   0  0  0  0  0  0  0  0  0  0  0  0
  -14.2520  -43.1356  -24.4683 H   0  0  0  0  0  0  0  0  0  0  0  0
  -13.4503  -42.3270  -23.1430 H   0  0  0  0  0  0  0  0  0  0  0  0
  -16.4518  -41.4319  -24.7210 H   0  0  0  0  0  0  0  0  0  0  0  0
  1  6  2  0  0  0  0
  1  7  1  0  0  0  0
  2  3  1  0  0  0  0
  2 10  1  0  0  0  0
  3  4  1  0  0  0  0
  3  7  2  0  0  0  0
  4  5  2  0  0  0  0
  5  6  1  0  0  0  0
  8 10  1  0  0  0  0
  9 10  1  0  0  0  0
  2 11  1  0  0  0  0
  2 12  1  0  0  0  0
  4 13  1  0  0  0  0
  5 14  1  0  0  0  0
  6 15  1  0  0  0  0
  7 16  1  0  0  0  0
  8 17  1  0  0  0  0
  8 18  1  0  0  0  0
  8 19  1  0  0  0  0
 20 21  1  0  0  0  0
 20 25  1  0  0  0  0
 21 22  1  0  0  0  0
 21 28  1  0  0  0  0
 22 23  1  0  0  0  0
 22 34  1  0  0  0  0
 23 24  1  0  0  0  0
 24 25  1  0  0  0  0
 24 33  1  0  0  0  0
 25 29  1  0  0  0  0
 26 33  1  0  0  0  0
 27 34  1  0  0  0  0
 28 35  2  0  0  0  0
 28 36  1  0  0  0  0
 29 30  2  0  0  0  0
 29 37  1  0  0  0  0
 30 31  1  0  0  0  0
 31 32  2  0  0  0  0
 32 37  1  0  0  0  0
 20 38  1  0  0  0  0
 20 39  1  0  0  0  0
 21 40  1  0  0  0  0
 22 41  1  0  0  0  0
 23 42  1  0  0  0  0
 23 43  1  0  0  0  0
 24 44  1  0  0  0  0
 25 45  1  0  0  0  0
 27 46  1  0  0  0  0
 27 47  1  0  0  0  0
 27 48  1  0  0  0  0
 30 49  1  0  0  0  0
 31 50  1  0  0  0  0
 32 51  1  0  0  0  0
 26  9  1  0  0  0  0
  9 52  1  0  0  0  0
  9 53  1  0  0  0  0
 26 54  1  0  0  0  0
 26 55  1  0  0  0  0
 10 56  1  0  0  0  0
M  CHG  2  10   1  36  -1
M  END
> <BIOSOLVEIT.HYDE_ATOM_SCORES [kJ/mol]>
# Atom-ID; Total; Rec-Desolv; Rec-IA; Lig-Desolv; Lig-IA
1;-3.3731;6.5636;-8.4285;6.9204;-8.4285
2;-3.1841;-1.6779;0.0000;-1.5062;0.0000
3;-0.0090;0.0000;0.0000;-0.0090;0.0000
4;0.3244;0.6533;0.0000;-0.3289;0.0000
5;0.0000;0.0000;0.0000;0.0000;0.0000
6;-0.5802;-0.2322;0.0000;-0.3479;0.0000
7;-1.6342;-0.2234;0.0000;-1.4108;0.0000
8;2.7858;5.1592;0.0000;-2.3734;0.0000
9;-0.4108;0.0000;0.0000;-0.4108;0.0000
10;0.0000;0.0000;0.0000;0.0000;0.0000
20;0.0000;0.0000;0.0000;0.0000;0.0000
21;-0.1791;0.0000;0.0000;-0.1791;0.0000
22;0.0000;0.0000;0.0000;0.0000;0.0000
23;-0.1711;0.0000;0.0000;-0.1711;0.0000
24;0.8255;1.4047;0.0000;-0.5792;0.0000
25;-1.1079;-0.6412;0.0000;-0.4666;0.0000
26;-4.9335;-3.2077;0.0000;-1.7258;0.0000
27;-0.3720;-0.0501;0.0000;-0.3219;0.0000
28;-0.0768;0.0000;0.0000;-0.0768;0.0000
29;-0.2167;0.0000;0.0000;-0.2167;0.0000
30;-0.6616;-0.0657;0.0000;-0.5959;0.0000
31;-7.3510;-6.0226;0.0000;-1.3284;0.0000
32;-4.8482;-3.8537;0.0000;-0.9945;0.0000
33;0.0000;0.0000;0.0000;0.0000;0.0000
34;0.8768;-0.1613;0.0000;1.0381;0.0000
35;0.2751;-0.0927;0.0000;0.3678;0.0000
36;-2.3898;6.9592;-8.4288;4.2162;-5.1364
37;-0.8534;0.0000;0.0000;-0.8534;0.0000

> <BIOSOLVEIT.HYDE_ESTIMATED_AFFINITY_LOWER_BOUNDARY [nM]>
1541.446935

> <BIOSOLVEIT.HYDE_ESTIMATED_AFFINITY_UPPER_BOUNDARY [nM]>
153151.866733

> <BIOSOLVEIT.HYDE_LIGAND_EFFICIENCY range: ++, +, 0, -, -->
-

> <BIOSOLVEIT.HYDE_LIGAND_LIPOPHILIC_EFFICIENCY range: ++, +, 0, -, -->
0

> <BIOSOLVEIT.INTER_CLASH range: red, yellow, green>
green

> <BIOSOLVEIT.INTRA_CLASH range: red, yellow, green>
yellow

> <BIOSOLVEIT.LOGP>
0.5017

> <BIOSOLVEIT.MOLECULAR_WEIGHT>
404.527

> <BIOSOLVEIT.MOLECULE_CHECKSUM>
LTI3LjQ3NTQ7MC45ODEyNjM=

> <BIOSOLVEIT.TORSION_QUALITY range: red, yellow, green, not rotatable>
red

> <BIOSOLVEIT.TPSA>
75.92

$$$$
FLAVI-RDRP-DLS-JA031
dcSeeSAR  09252409193D 1   1.00000     0.00000     0
SeeSAR 13.0.1 dcn76311
 55 58  0  0  0  0            999 V2000
  -19.1853  -37.9293  -23.7712 N   0  0  0  0  0  0  0  0  0  0  0  0
  -16.1202  -38.9001  -25.7664 C   0  0  0  0  0  0  0  0  0  0  0  0
  -17.0129  -38.1992  -24.7722 C   0  0  0  0  0  0  0  0  0  0  0  0
  -16.5371  -37.1636  -23.9917 C   0  0  0  0  0  0  0  0  0  0  0  0
  -17.3863  -36.5009  -23.1238 C   0  0  0  0  0  0  0  0  0  0  0  0
  -18.6972  -36.9129  -23.0503 C   0  0  0  0  0  0  0  0  0  0  0  0
  -18.3439  -38.5452  -24.6140 C   0  0  0  0  0  0  0  0  0  0  0  0
  -16.5601  -41.3851  -26.0155 C   0  0  0  0  0  0  0  0  0  0  0  0
  -16.0875  -42.5227  -25.4310 C   0  0  0  0  0  0  0  0  0  0  0  0
  -15.1159  -42.1183  -24.4573 C   0  0  0  0  0  0  0  0  0  0  0  0
  -15.0177  -40.7607  -24.4677 C   0  0  0  0  0  0  0  0  0  0  0  0
  -15.9079  -40.3146  -25.4273 N   0  0  0  0  0  0  0  0  0  0  0  0
  -15.1717  -38.4051  -25.7855 H   0  0  0  0  0  0  0  0  0  0  0  0
  -16.5721  -38.8426  -26.7345 H   0  0  0  0  0  0  0  0  0  0  0  0
  -15.5093  -36.8734  -24.0584 H   0  0  0  0  0  0  0  0  0  0  0  0
  -17.0326  -35.6880  -22.5246 H   0  0  0  0  0  0  0  0  0  0  0  0
  -19.3574  -36.3963  -22.3854 H   0  0  0  0  0  0  0  0  0  0  0  0
  -18.7250  -39.3546  -25.2010 H   0  0  0  0  0  0  0  0  0  0  0  0
  -17.2993  -41.3298  -26.7871 H   0  0  0  0  0  0  0  0  0  0  0  0
  -16.3850  -43.5256  -25.6560 H   0  0  0  0  0  0  0  0  0  0  0  0
  -14.3790  -40.1588  -23.8555 H   0  0  0  0  0  0  0  0  0  0  0  0
  -15.8352  -44.6144  -19.3824 C   0  0  0  0  0  0  0  0  0  0  0  0
  -14.8060  -43.9917  -18.6326 C   0  0  1  0  0  0  0  0  0  0  0  0
  -14.4547  -42.7545  -19.2023 C   0  0  2  0  0  0  0  0  0  0  0  0
  -14.2541  -42.8702  -20.5958 C   0  0  0  0  0  0  0  0  0  0  0  0
  -14.7122  -43.9868  -21.3381 C   0  0  1  0  0  0  0  0  0  0  0  0
  -15.5630  -44.9760  -20.7367 C   0  0  2  0  0  0  0  0  0  0  0  0
  -14.3200  -43.0480  -23.5555 C   0  0  0  0  0  0  0  0  0  0  0  0
  -12.8059  -40.8831  -19.0702 C   0  0  0  0  0  0  0  0  0  0  0  0
  -15.0750  -43.9042  -17.2424 C   0  0  0  0  0  0  0  0  0  0  0  0
  -16.6543  -45.5983  -21.2831 C   0  0  0  0  0  0  0  0  0  0  0  0
  -17.0968  -46.7952  -20.7961 C   0  0  0  0  0  0  0  0  0  0  0  0
  -18.0869  -47.3628  -21.5025 C   0  0  0  0  0  0  0  0  0  0  0  0
  -18.4717  -46.6944  -22.5847 C   0  0  0  0  0  0  0  0  0  0  0  0
  -15.1877  -43.6350  -22.5969 O   0  0  0  0  0  0  0  0  0  0  0  0
  -13.3918  -42.1146  -18.6200 O   0  0  0  0  0  0  0  0  0  0  0  0
  -16.0560  -43.2738  -16.7883 O   0  0  0  0  0  0  0  0  0  0  0  0
  -14.3208  -44.4685  -16.4097 O   0  5  0  0  0  0  0  0  0  0  0  0
  -17.5660  -45.2707  -22.6940 S   0  0  0  0  0  0  0  0  0  0  0  0
  -16.6682  -43.9430  -19.3952 H   0  0  0  0  0  0  0  0  0  0  0  0
  -16.1070  -45.5101  -18.8641 H   0  0  0  0  0  0  0  0  0  0  0  0
  -13.9450  -44.6194  -18.7301 H   0  0  0  0  0  0  0  0  0  0  0  0
  -15.3007  -42.1123  -19.0722 H   0  0  0  0  0  0  0  0  0  0  0  0
  -13.1961  -42.8245  -20.7490 H   0  0  0  0  0  0  0  0  0  0  0  0
  -14.7156  -42.0107  -21.0354 H   0  0  0  0  0  0  0  0  0  0  0  0
  -13.8146  -44.5280  -21.5533 H   0  0  0  0  0  0  0  0  0  0  0  0
  -14.8869  -45.7956  -20.6105 H   0  0  0  0  0  0  0  0  0  0  0  0
  -11.9927  -40.6189  -18.4270 H   0  0  0  0  0  0  0  0  0  0  0  0
  -12.4449  -41.0046  -20.0701 H   0  0  0  0  0  0  0  0  0  0  0  0
  -13.5436  -40.1084  -19.0490 H   0  0  0  0  0  0  0  0  0  0  0  0
  -16.6850  -47.2464  -19.9175 H   0  0  0  0  0  0  0  0  0  0  0  0
  -18.5357  -48.2903  -21.2141 H   0  0  0  0  0  0  0  0  0  0  0  0
  -19.2295  -47.0056  -23.2730 H   0  0  0  0  0  0  0  0  0  0  0  0
  -13.8683  -43.8174  -24.1462 H   0  0  0  0  0  0  0  0  0  0  0  0
  -13.5577  -42.4906  -23.0525 H   0  0  0  0  0  0  0  0  0  0  0  0
  1  6  2  0  0  0  0
  1  7  1  0  0  0  0
  2  3  1  0  0  0  0
  2 12  1  0  0  0  0
  3  4  1  0  0  0  0
  3  7  2  0  0  0  0
  4  5  2  0  0  0  0
  5  6  1  0  0  0  0
  8  9  2  0  0  0  0
  8 12  1  0  0  0  0
  9 10  1  0  0  0  0
 10 11  2  0  0  0  0
 11 12  1  0  0  0  0
  2 13  1  0  0  0  0
  2 14  1  0  0  0  0
  4 15  1  0  0  0  0
  5 16  1  0  0  0  0
  6 17  1  0  0  0  0
  7 18  1  0  0  0  0
  8 19  1  0  0  0  0
  9 20  1  0  0  0  0
 11 21  1  0  0  0  0
 22 23  1  0  0  0  0
 22 27  1  0  0  0  0
 23 24  1  0  0  0  0
 23 30  1  0  0  0  0
 24 25  1  0  0  0  0
 24 36  1  0  0  0  0
 25 26  1  0  0  0  0
 26 27  1  0  0  0  0
 26 35  1  0  0  0  0
 27 31  1  0  0  0  0
 28 35  1  0  0  0  0
 29 36  1  0  0  0  0
 30 37  2  0  0  0  0
 30 38  1  0  0  0  0
 31 32  2  0  0  0  0
 31 39  1  0  0  0  0
 32 33  1  0  0  0  0
 33 34  2  0  0  0  0
 34 39  1  0  0  0  0
 22 40  1  0  0  0  0
 22 41  1  0  0  0  0
 23 42  1  0  0  0  0
 24 43  1  0  0  0  0
 25 44  1  0  0  0  0
 25 45  1  0  0  0  0
 26 46  1  0  0  0  0
 27 47  1  0  0  0  0
 29 48  1  0  0  0  0
 29 49  1  0  0  0  0
 29 50  1  0  0  0  0
 32 51  1  0  0  0  0
 33 52  1  0  0  0  0
 34 53  1  0  0  0  0
 10 28  1  0  0  0  0
 28 54  1  0  0  0  0
 28 55  1  0  0  0  0
M  CHG  1  38  -1
M  END
> <BIOSOLVEIT.HYDE_ATOM_SCORES [kJ/mol]>
# Atom-ID; Total; Rec-Desolv; Rec-IA; Lig-Desolv; Lig-IA
1;0.0000;0.0000;0.0000;0.0000;0.0000
2;-0.8203;0.0878;0.0000;-0.9081;0.0000
3;0.0000;0.0000;0.0000;0.0000;0.0000
4;-0.2728;0.0000;0.0000;-0.2728;0.0000
5;0.0000;0.0000;0.0000;0.0000;0.0000
6;0.0000;0.0000;0.0000;0.0000;0.0000
7;0.3067;0.3067;0.0000;0.0000;0.0000
8;3.9410;4.5291;0.0000;-0.5881;0.0000
9;-3.7210;-2.3339;0.0000;-1.3872;0.0000
10;-0.1809;0.0000;0.0000;-0.1809;0.0000
11;-0.9403;-0.3953;0.0000;-0.5450;0.0000
12;0.0000;0.0000;0.0000;0.0000;0.0000
22;0.0000;0.0000;0.0000;0.0000;0.0000
23;-0.2533;0.0000;0.0000;-0.2533;0.0000
24;0.0000;0.0000;0.0000;0.0000;0.0000
25;-0.1991;0.0000;0.0000;-0.1991;0.0000
26;-1.4993;-0.8939;0.0000;-0.6054;0.0000
27;-0.4259;0.0000;0.0000;-0.4259;0.0000
28;-2.8521;-0.9379;0.0000;-1.9142;0.0000
29;-0.4119;-0.0557;0.0000;-0.3562;0.0000
30;-0.1128;0.0000;0.0000;-0.1128;0.0000
31;-0.2483;0.0000;0.0000;-0.2483;0.0000
32;-0.9401;-0.2660;0.0000;-0.6740;0.0000
33;-8.0530;-6.6084;0.0000;-1.4447;0.0000
34;-3.6216;-2.2874;0.0000;-1.3343;0.0000
35;-0.0152;0.0000;0.0000;-0.0152;0.0000
36;0.9563;-0.1613;0.0000;1.1176;0.0000
37;0.1998;0.1286;0.0000;0.0712;0.0000
38;-2.4966;6.9026;-8.4286;4.1658;-5.1363
39;-2.0511;-1.2493;0.0000;-0.8018;0.0000

> <BIOSOLVEIT.HYDE_ESTIMATED_AFFINITY_LOWER_BOUNDARY [nM]>
7035.251057

> <BIOSOLVEIT.HYDE_ESTIMATED_AFFINITY_UPPER_BOUNDARY [nM]>
698993.788215

> <BIOSOLVEIT.HYDE_LIGAND_EFFICIENCY range: ++, +, 0, -, -->
--

> <BIOSOLVEIT.HYDE_LIGAND_LIPOPHILIC_EFFICIENCY range: ++, +, 0, -, -->
--

> <BIOSOLVEIT.INTER_CLASH range: red, yellow, green>
green

> <BIOSOLVEIT.INTRA_CLASH range: red, yellow, green>
yellow

> <BIOSOLVEIT.LOGP>
2.8368

> <BIOSOLVEIT.MOLECULAR_WEIGHT>
425.526

> <BIOSOLVEIT.MOLECULE_CHECKSUM>
LTIzLjcxMTg7MC43OTAzOTM=

> <BIOSOLVEIT.TORSION_QUALITY range: red, yellow, green, not rotatable>
green

> <BIOSOLVEIT.TPSA>
76.41

> <BIOSOLVEIT.OPTIBRIUM.2D6 affinity category>
very high

> <BIOSOLVEIT.OPTIBRIUM.BBB category>
-

> <BIOSOLVEIT.OPTIBRIUM.2C9 pKi>
5.34083

> <BIOSOLVEIT.OPTIBRIUM.hERG pIC50>
4.38329

> <BIOSOLVEIT.OPTIBRIUM.HIA category>
+

> <BIOSOLVEIT.OPTIBRIUM.BBB log([brain]:[blood])>
-1.34936

> <BIOSOLVEIT.OPTIBRIUM.logD>
0.607354

> <BIOSOLVEIT.OPTIBRIUM.logP>
3.70018

> <BIOSOLVEIT.OPTIBRIUM.logS>
0.606451

> <BIOSOLVEIT.OPTIBRIUM.logS @ pH7.4>
1.58765

> <BIOSOLVEIT.OPTIBRIUM.P-gp category>
no

> <BIOSOLVEIT.OPTIBRIUM.PPB90 category>
high

$$$$
FLAVI-RDRP-DLS-JA032
dcSeeSAR  09252409193D 1   1.00000     0.00000     0
SeeSAR 13.0.1 dcn76311
 52 54  0  0  0  0            999 V2000
  -19.4215  -38.1362  -26.4812 N   0  0  0  0  0  0  0  0  0  0  0  0
  -16.2788  -40.2205  -26.7942 C   0  0  0  0  0  0  0  0  0  0  0  0
  -17.1954  -39.0509  -26.5330 C   0  0  0  0  0  0  0  0  0  0  0  0
  -16.6924  -37.8171  -26.1684 C   0  0  0  0  0  0  0  0  0  0  0  0
  -17.5470  -36.7451  -25.9843 C   0  0  0  0  0  0  0  0  0  0  0  0
  -18.8971  -36.9490  -26.1551 C   0  0  0  0  0  0  0  0  0  0  0  0
  -18.5694  -39.1547  -26.6668 C   0  0  0  0  0  0  0  0  0  0  0  0
  -16.3785  -42.4494  -25.9485 C   0  0  0  0  0  0  0  0  0  0  0  0
  -14.7097  -40.9181  -25.0805 C   0  0  0  0  0  0  0  0  0  0  0  0
  -16.0801  -41.0530  -25.5990 N   0  3  1  0  0  0  0  0  0  0  0  0
  -15.3287  -39.8477  -27.1154 H   0  0  0  0  0  0  0  0  0  0  0  0
  -16.7047  -40.8251  -27.5675 H   0  0  0  0  0  0  0  0  0  0  0  0
  -15.6391  -37.6903  -26.0282 H   0  0  0  0  0  0  0  0  0  0  0  0
  -17.1676  -35.7814  -25.7157 H   0  0  0  0  0  0  0  0  0  0  0  0
  -19.5590  -36.1190  -26.0207 H   0  0  0  0  0  0  0  0  0  0  0  0
  -18.9767  -40.1071  -26.9350 H   0  0  0  0  0  0  0  0  0  0  0  0
  -15.9005  -43.4064  -24.8655 C   0  0  0  0  0  0  0  0  0  0  0  0
  -15.8877  -42.6908  -26.8681 H   0  0  0  0  0  0  0  0  0  0  0  0
  -17.4360  -42.5599  -26.0689 H   0  0  0  0  0  0  0  0  0  0  0  0
  -16.6500  -44.4605  -20.4609 C   0  0  0  0  0  0  0  0  0  0  0  0
  -15.3321  -44.4732  -19.7039 C   0  0  1  0  0  0  0  0  0  0  0  0
  -14.6559  -43.1312  -19.9404 C   0  0  2  0  0  0  0  0  0  0  0  0
  -14.3708  -42.9113  -21.4254 C   0  0  0  0  0  0  0  0  0  0  0  0
  -15.2328  -43.6421  -22.4609 C   0  0  1  0  0  0  0  0  0  0  0  0
  -16.4183  -44.4702  -21.9725 C   0  0  0  0  0  0  0  0  0  0  0  0
  -14.5237  -41.6853  -23.7809 C   0  0  0  0  0  0  0  0  0  0  0  0
  -12.5846  -41.8718  -19.1770 C   0  0  0  0  0  0  0  0  0  0  0  0
  -15.5831  -44.6408  -18.2141 C   0  0  0  0  0  0  0  0  0  0  0  0
  -15.6570  -42.6749  -23.5549 C   0  0  1  0  0  0  0  0  0  0  0  0
  -13.4555  -43.0136  -19.1909 O   0  0  0  0  0  0  0  0  0  0  0  0
  -16.7247  -44.5394  -17.7117 O   0  0  0  0  0  0  0  0  0  0  0  0
  -14.6320  -44.8909  -17.4309 O   0  5  0  0  0  0  0  0  0  0  0  0
  -17.1958  -43.5788  -20.1971 H   0  0  0  0  0  0  0  0  0  0  0  0
  -17.2174  -45.3259  -20.1891 H   0  0  0  0  0  0  0  0  0  0  0  0
  -14.7099  -45.2663  -20.0630 H   0  0  0  0  0  0  0  0  0  0  0  0
  -15.3251  -42.3622  -19.6151 H   0  0  0  0  0  0  0  0  0  0  0  0
  -13.3564  -43.2053  -21.5974 H   0  0  0  0  0  0  0  0  0  0  0  0
  -14.4751  -41.8632  -21.6134 H   0  0  0  0  0  0  0  0  0  0  0  0
  -14.5755  -44.3394  -22.9369 H   0  0  0  0  0  0  0  0  0  0  0  0
  -17.3013  -44.0917  -22.4438 H   0  0  0  0  0  0  0  0  0  0  0  0
  -11.7577  -42.0617  -18.5250 H   0  0  0  0  0  0  0  0  0  0  0  0
  -12.2230  -41.6869  -20.1670 H   0  0  0  0  0  0  0  0  0  0  0  0
  -13.1242  -41.0159  -18.8288 H   0  0  0  0  0  0  0  0  0  0  0  0
  -16.2592  -45.4841  -22.2752 H   0  0  0  0  0  0  0  0  0  0  0  0
  -14.5055  -39.8827  -24.9044 H   0  0  0  0  0  0  0  0  0  0  0  0
  -14.0240  -41.2980  -25.8089 H   0  0  0  0  0  0  0  0  0  0  0  0
  -13.5976  -42.2197  -23.8213 H   0  0  0  0  0  0  0  0  0  0  0  0
  -14.4999  -40.9912  -22.9670 H   0  0  0  0  0  0  0  0  0  0  0  0
  -14.9881  -43.8659  -25.1836 H   0  0  0  0  0  0  0  0  0  0  0  0
  -16.6446  -44.1597  -24.7119 H   0  0  0  0  0  0  0  0  0  0  0  0
  -16.5430  -42.1536  -23.2578 H   0  0  0  0  0  0  0  0  0  0  0  0
  -16.7211  -40.7558  -24.8914 H   0  0  0  0  0  0  0  0  0  0  0  0
  1  6  2  0  0  0  0
  1  7  1  0  0  0  0
  2  3  1  0  0  0  0
  2 10  1  0  0  0  0
  3  4  1  0  0  0  0
  3  7  2  0  0  0  0
  4  5  2  0  0  0  0
  5  6  1  0  0  0  0
  8 10  1  0  0  0  0
  9 10  1  0  0  0  0
  2 11  1  0  0  0  0
  2 12  1  0  0  0  0
  4 13  1  0  0  0  0
  5 14  1  0  0  0  0
  6 15  1  0  0  0  0
  7 16  1  0  0  0  0
  8 17  1  0  0  0  0
  8 18  1  0  0  0  0
  8 19  1  0  0  0  0
 20 21  1  0  0  0  0
 20 25  1  0  0  0  0
 21 22  1  0  0  0  0
 21 28  1  0  0  0  0
 22 23  1  0  0  0  0
 22 30  1  0  0  0  0
 23 24  1  0  0  0  0
 24 25  1  0  0  0  0
 24 29  1  0  0  0  0
 26 29  1  0  0  0  0
 27 30  1  0  0  0  0
 28 31  2  0  0  0  0
 28 32  1  0  0  0  0
 20 33  1  0  0  0  0
 20 34  1  0  0  0  0
 21 35  1  0  0  0  0
 22 36  1  0  0  0  0
 23 37  1  0  0  0  0
 23 38  1  0  0  0  0
 24 39  1  0  0  0  0
 25 40  1  0  0  0  0
 27 41  1  0  0  0  0
 27 42  1  0  0  0  0
 27 43  1  0  0  0  0
 25 44  1  0  0  0  0
 26  9  1  0  0  0  0
  9 45  1  0  0  0  0
  9 46  1  0  0  0  0
 26 47  1  0  0  0  0
 26 48  1  0  0  0  0
 29 17  1  0  0  0  0
 17 49  1  0  0  0  0
 17 50  1  0  0  0  0
 29 51  1  0  0  0  0
 10 52  1  0  0  0  0
M  CHG  2  10   1  32  -1
M  END
> <BIOSOLVEIT.HYDE_ATOM_SCORES [kJ/mol]>
# Atom-ID; Total; Rec-Desolv; Rec-IA; Lig-Desolv; Lig-IA
1;6.7018;6.7875;0.0000;-0.0856;0.0000
2;-3.4369;-2.1466;0.0000;-1.2903;0.0000
3;-0.4050;-0.2337;0.0000;-0.1713;0.0000
4;-0.3482;0.6138;0.0000;-0.9620;0.0000
5;-0.2300;0.0000;0.0000;-0.2300;0.0000
6;-1.9920;-1.2419;0.0000;-0.7501;0.0000
7;-1.1535;-0.1225;0.0000;-1.0311;0.0000
8;2.7695;4.2440;0.0000;-1.4745;0.0000
9;-1.7342;-0.4663;0.0000;-1.2678;0.0000
10;0.0000;0.0000;0.0000;0.0000;0.0000
17;-3.7186;-2.0834;0.0000;-1.6352;0.0000
20;0.0000;0.0000;0.0000;0.0000;0.0000
21;-1.0758;-0.7823;0.0000;-0.2935;0.0000
22;0.0000;0.0000;0.0000;0.0000;0.0000
23;0.6406;1.1773;0.0000;-0.5367;0.0000
24;-0.4141;0.0000;0.0000;-0.4141;0.0000
25;-1.2264;-0.5471;0.0000;-0.6793;0.0000
26;-1.8270;-1.1053;0.0000;-0.7217;0.0000
27;-1.3353;-0.3745;0.0000;-0.9608;0.0000
28;0.0000;0.0000;0.0000;0.0000;0.0000
29;0.0000;0.0000;0.0000;0.0000;0.0000
30;1.8724;0.0000;0.0000;1.8724;0.0000
31;-2.1148;6.9120;-8.1337;4.0635;-4.9566
32;-1.8333;6.8344;-8.2590;4.6243;-5.0329

> <BIOSOLVEIT.HYDE_ESTIMATED_AFFINITY_LOWER_BOUNDARY [nM]>
1255008.439096

> <BIOSOLVEIT.HYDE_ESTIMATED_AFFINITY_UPPER_BOUNDARY [nM]>
124692508.621361

> <BIOSOLVEIT.HYDE_LIGAND_EFFICIENCY range: ++, +, 0, -, -->
--

> <BIOSOLVEIT.HYDE_LIGAND_LIPOPHILIC_EFFICIENCY range: ++, +, 0, -, -->
--

> <BIOSOLVEIT.INTER_CLASH range: red, yellow, green>
green

> <BIOSOLVEIT.INTRA_CLASH range: red, yellow, green>
green

> <BIOSOLVEIT.LOGP>
0.0577

> <BIOSOLVEIT.MOLECULAR_WEIGHT>
332.441

> <BIOSOLVEIT.MOLECULE_CHECKSUM>
LTEwLjg2MTswLjQ1MjU0

> <BIOSOLVEIT.TORSION_QUALITY range: red, yellow, green, not rotatable>
green

> <BIOSOLVEIT.TPSA>
66.69

> <BIOSOLVEIT.OPTIBRIUM.2D6 affinity category>
medium

> <BIOSOLVEIT.OPTIBRIUM.BBB category>
-

> <BIOSOLVEIT.OPTIBRIUM.2C9 pKi>
4.45239

> <BIOSOLVEIT.OPTIBRIUM.hERG pIC50>
3.92833

> <BIOSOLVEIT.OPTIBRIUM.HIA category>
+

> <BIOSOLVEIT.OPTIBRIUM.BBB log([brain]:[blood])>
-1.24456

> <BIOSOLVEIT.OPTIBRIUM.logD>
-0.846993

> <BIOSOLVEIT.OPTIBRIUM.logP>
-2.56639

> <BIOSOLVEIT.OPTIBRIUM.logS>
3.5674

> <BIOSOLVEIT.OPTIBRIUM.logS @ pH7.4>
2.8774

> <BIOSOLVEIT.OPTIBRIUM.P-gp category>
no

> <BIOSOLVEIT.OPTIBRIUM.PPB90 category>
low

$$$$
