ver_1.2
     RDKit          3D

 20 22  0  0  0  0  0  0  0  0999 V2000
    2.9709    1.6092   -1.8137 C   0  0  0  0  0  0  0  0  0  0  0  0
    3.8059    1.1920   -0.6585 C   0  0  0  0  0  0  0  0  0  0  0  0
    5.0728    1.5136   -0.2332 C   0  0  0  0  0  0  0  0  0  0  0  0
    5.2825    0.8178    0.8787 N   0  0  0  0  0  0  0  0  0  0  0  0
    4.2464    0.0701    1.2047 N   0  0  0  0  0  0  0  0  0  0  0  0
    3.3015    0.2833    0.2575 C   0  0  0  0  0  0  0  0  0  0  0  0
    2.0372   -0.4447    0.3992 C   0  0  0  0  0  0  0  0  0  0  0  0
    1.9803   -1.7847    0.7115 C   0  0  0  0  0  0  0  0  0  0  0  0
    0.8110   -2.5006    0.8524 C   0  0  0  0  0  0  0  0  0  0  0  0
   -0.3847   -1.8374    0.6700 C   0  0  0  0  0  0  0  0  0  0  0  0
   -0.3266   -0.4952    0.3572 C   0  0  0  0  0  0  0  0  0  0  0  0
   -1.5389    0.2291    0.1601 N   0  0  0  0  0  0  0  0  0  0  0  0
   -2.8022   -0.4287    0.2855 C   0  0  0  0  0  0  0  0  0  0  0  0
   -2.8166   -1.6500    0.5711 O   0  0  0  0  0  0  0  0  0  0  0  0
   -4.1429    0.1724    0.1144 C   0  0  0  0  0  0  0  0  0  0  0  0
   -4.9961   -0.5179   -0.9015 C   0  0  0  0  0  0  0  0  0  0  0  0
   -5.1852    0.5882   -1.9478 C   0  0  0  0  0  0  0  0  0  0  0  0
   -4.0215    1.4992   -1.5867 C   0  0  0  0  0  0  0  0  0  0  0  0
   -4.1314    1.5130   -0.1994 O   0  0  0  0  0  0  0  0  0  0  0  0
    0.8377    0.1712    0.2277 N   0  0  0  0  0  0  0  0  0  0  0  0
  1  2  1  0
  2  3  2  0
  3  4  1  0
  4  5  1  0
  5  6  2  0
  6  7  1  0
  7  8  2  0
  8  9  1  0
  9 10  2  0
 10 11  1  0
 11 12  1  0
 12 13  1  0
 13 14  2  0
 13 15  1  0
 15 16  1  0
 16 17  1  0
 17 18  1  0
 18 19  1  0
 11 20  2  0
  6  2  1  0
 20  7  1  0
 19 15  1  0
M  END
>  <ref_url>  (1) 
https://github.com/mwinokan/BulkDock

>  <submitter_name>  (1) 
Max Winokan

>  <submitter_email>  (1) 
max.winokan@diamond.ac.uk

>  <submitter_institution>  (1) 
DLS

>  <generation_date>  (1) 
2024-12-02

>  <method>  (1) 
JA_Primer_SeeSAR

>  <SLURM_JOB_ID>  (1) 
SLURM_JOB_ID

>  <SLURM_JOB_NAME>  (1) 
SLURM_JOB_NAME

>  <csv_name>  (1) 
csv_name

>  <scratch_subdir>  (1) 
scratch_subdir

>  <fragmenstein_runtime>  (1) 
fragmenstein_runtime

>  <fragmenstein_outcome>  (1) 
fragmenstein_outcome

>  <fragmenstein_mode>  (1) 
fragmenstein_mode

>  <fragmenstein_error>  (1) 
fragmenstein_error

>  <exports>  (1) 
exports

>  <HIPPO Pose ID>  (1) 
HIPPO Pose ID

>  <HIPPO Compound ID>  (1) 
HIPPO Compound ID

>  <smiles>  (1) 
smiles

>  <ref_pdb>  (1) 
protein reference

>  <ref_mols>  (1) 
fragment inspirations

>  <original ID>  (1) 
original ID

>  <compound inchikey>  (1) 
compound inchikey

$$$$
55390
     RDKit          3D

 20 22  0  0  0  0  0  0  0  0999 V2000
  -13.2886  -41.8362  -21.0256 C   0  0  0  0  0  0  0  0  0  0  0  0
  -13.1920  -40.5840  -21.8213 C   0  0  0  0  0  0  0  0  0  0  0  0
  -12.3649  -39.5210  -21.5508 C   0  0  0  0  0  0  0  0  0  0  0  0
  -12.5705  -38.6141  -22.5378 N   0  0  0  0  0  0  0  0  0  0  0  0
  -13.4982  -38.9857  -23.4359 N   0  0  0  0  0  0  0  0  0  0  0  0
  -13.8816  -40.2132  -23.0310 C   0  0  0  0  0  0  0  0  0  0  0  0
  -14.8836  -41.0232  -23.7301 C   0  0  0  0  0  0  0  0  0  0  0  0
  -15.2418  -40.8890  -25.0601 C   0  0  0  0  0  0  0  0  0  0  0  0
  -16.2459  -41.7298  -25.5628 C   0  0  0  0  0  0  0  0  0  0  0  0
  -16.8814  -42.6463  -24.7200 C   0  0  0  0  0  0  0  0  0  0  0  0
  -16.4554  -42.6879  -23.4139 C   0  0  0  0  0  0  0  0  0  0  0  0
  -17.0080  -43.3942  -22.3874 N   0  0  0  0  0  0  0  0  0  0  0  0
  -18.3189  -44.2189  -22.3235 C   0  0  0  0  0  0  0  0  0  0  0  0
  -19.0872  -44.4836  -23.1607 O   0  0  0  0  0  0  0  0  0  0  0  0
  -18.4030  -44.5207  -20.8164 C   0  0  1  0  0  0  0  0  0  0  0  0
  -19.4239  -45.5150  -20.3372 C   0  0  0  0  0  0  0  0  0  0  0  0
  -18.8758  -45.7871  -18.9560 C   0  0  0  0  0  0  0  0  0  0  0  0
  -17.3955  -45.9043  -19.2470 C   0  0  0  0  0  0  0  0  0  0  0  0
  -17.1316  -44.9428  -20.2733 O   0  0  0  0  0  0  0  0  0  0  0  0
  -15.4726  -41.9266  -22.9307 N   0  0  0  0  0  0  0  0  0  0  0  0
  1  2  1  0
  2  3  2  0
  3  4  1  0
  4  5  1  0
  5  6  2  0
  6  7  1  0
  7  8  2  0
  8  9  1  0
  9 10  2  0
 10 11  1  0
 11 12  1  0
 12 13  1  0
 13 14  2  0
 15 13  1  6
 15 16  1  0
 16 17  1  0
 17 18  1  0
 18 19  1  0
 11 20  2  0
  6  2  1  0
 20  7  1  0
 19 15  1  0
M  END
>  <csv_name>  (1) 
RdRp_Primergrip_JA_SeeSar_to_bulkdock_split1000_batch000.csv

>  <HIPPO Pose ID>  (1) 
55390

>  <fragmenstein_outcome>  (1) 
acceptable

>  <HIPPO Compound ID>  (1) 
66259

>  <original ID>  (1) 
GXKXWJKZPBGFSI-LLVKDONJSA-N

>  <fragmenstein_error>  (1) 
None

>  <fragmenstein_runtime>  (1) 
2.458714

>  <distance_score>  (1) 
0.97787

>  <energy_score>  (1) 
-39.630882

>  <fragmenstein_mode>  (1) 
expansion

>  <original SMILES>  (1) 
Cc1c[nH]nc1-c1cccc(NC(=O)[C@H]2CCCO2)n1

>  <ref_pdb>  (1) 
6izx-a

>  <name>  (1) 
GXKXWJKZPBGFSI-LLVKDONJSA-N

>  <alias>  (1) 
None

>  <exports>  (1) 
['/opt/xchem-fragalysis-2/maxwin/BulkDock/OUTPUTS/RdRp_Primergrip_JA_SeeSar_to_bulkdock_split1000_batch000_216891.sdf']

>  <inchikey>  (1) 
GXKXWJKZPBGFSI-LLVKDONJSA-N

>  <SLURM_JOB_ID>  (1) 
216891

>  <ref_mols>  (1) 
d0160a,d0254a

>  <SLURM_JOB_NAME>  (1) 
BulkDock.place:Flavi_NS5_RdRp:RdRp_Primergrip_JA_SeeSar_to_bulkdock_split1000_batch000

>  <scratch_subdir>  (1) 
/opt/xchem-fragalysis-2/maxwin/BulkDock/SCRATCH/216891/C66259-P220

>  <tags>  (1) 
['Fragmenstein placed']

$$$$
