Zika_NS5A-x0673_A_1013_1_Zika_NS5A-x0437+A+1201+1
     RDKit          3D

 17 18  0  0  0  0  0  0  0  0999 V2000
    9.4560  -28.5960  -33.3150 F   0  0  0  0  0  0  0  0  0  0  0  0
   10.6700  -28.7700  -33.8850 C   0  0  0  0  0  0  0  0  0  0  0  0
   11.7790  -28.7540  -33.0850 C   0  0  0  0  0  0  0  0  0  0  0  0
   13.0190  -28.8840  -33.6830 C   0  0  0  0  0  0  0  0  0  0  0  0
   10.7380  -28.9250  -35.2420 C   0  0  0  0  0  0  0  0  0  0  0  0
   11.9830  -29.0630  -35.8240 C   0  0  0  0  0  0  0  0  0  0  0  0
   13.1400  -29.0420  -35.0600 C   0  0  0  0  0  0  0  0  0  0  0  0
   14.4950  -29.1860  -35.7110 C   0  0  0  0  0  0  0  0  0  0  0  0
   15.0290  -30.6520  -35.7120 C   0  0  2  0  0  0  0  0  0  0  0  0
   15.7860  -30.9520  -37.0000 C   0  0  0  0  0  0  0  0  0  0  0  0
   15.1650  -30.4590  -38.0750 O   0  0  0  0  0  0  0  0  0  0  0  0
   15.0240  -31.3490  -39.2090 C   0  0  0  0  0  0  0  0  0  0  0  0
   16.8150  -31.5610  -37.0530 O   0  0  0  0  0  0  0  0  0  0  0  0
   13.9580  -31.7690  -35.5680 C   0  0  0  0  0  0  0  0  0  0  0  0
   14.2510  -32.4560  -34.2290 C   0  0  0  0  0  0  0  0  0  0  0  0
   15.6720  -32.1970  -33.9660 N   0  0  0  0  0  0  0  0  0  0  0  0
   15.9120  -30.8470  -34.4580 C   0  0  0  0  0  0  0  0  0  0  0  0
 13 10  2  0
 11 10  1  0
 12 11  1  0
 10  9  1  0
  9  8  1  6
  8  7  1  0
  7  4  2  0
  4  3  1  0
  3  2  2  0
  2  1  1  0
  5  2  1  0
  6  5  2  0
  7  6  1  0
  9 17  1  0
 17 16  1  0
 16 15  1  0
 15 14  1  0
 14  9  1  0
M  END
$$$$

