DNV2_NS5A-x0210_A_1701_1_DNV2_NS5A-x0249+A+1707+1
     RDKit          3D

 16 17  0  0  0  0  0  0  0  0999 V2000
    0.0890  -67.3610  -21.0900 O   0  0  0  0  0  0  0  0  0  0  0  0
   -0.0930  -68.7760  -21.0120 S   0  0  0  0  0  0  0  0  0  0  0  0
    0.1950  -69.5910  -22.1500 O   0  0  0  0  0  0  0  0  0  0  0  0
   -1.7560  -69.0840  -20.5300 C   0  0  0  0  0  0  0  0  0  0  0  0
   -2.3000  -70.3440  -20.7160 C   0  0  0  0  0  0  0  0  0  0  0  0
   -3.5950  -70.5980  -20.3030 C   0  0  0  0  0  0  0  0  0  0  0  0
   -2.5010  -68.0690  -19.9510 C   0  0  0  0  0  0  0  0  0  0  0  0
   -3.7960  -68.3240  -19.5350 C   0  0  0  0  0  0  0  0  0  0  0  0
   -4.3040  -69.5830  -19.7150 C   0  0  0  0  0  0  0  0  0  0  0  0
   -5.5590  -69.8480  -19.2590 F   0  0  0  0  0  0  0  0  0  0  0  0
    0.8700  -69.3080  -19.8010 N   0  0  0  0  0  0  0  0  0  0  0  0
    1.5130  -68.2860  -18.9520 C   0  0  0  0  0  0  0  0  0  0  0  0
    2.0570  -68.9380  -17.7000 C   0  0  0  0  0  0  0  0  0  0  0  0
    2.9890  -70.0010  -18.0440 N   0  0  0  0  0  0  0  0  0  0  0  0
    2.3120  -71.0220  -18.8400 C   0  0  0  0  0  0  0  0  0  0  0  0
    1.7780  -70.4260  -20.1220 C   0  0  0  0  0  0  0  0  0  0  0  0
 10  9  1  0
  9  6  1  0
  6  5  2  0
  5  4  1  0
  7  4  2  0
  8  7  1  0
  9  8  2  0
  4  2  1  0
  3  2  2  0
  2  1  2  0
 11  2  1  0
 11 16  1  0
 16 15  1  0
 15 14  1  0
 14 13  1  0
 13 12  1  0
 12 11  1  0
M  END
$$$$

