Zika_NS5A-x0481_A_1112_1_Zika_NS5A-x0411+A+1104+1
     RDKit          3D

 14 15  0  0  0  0  0  0  0  0999 V2000
  -17.0400  -20.5040  -21.2890 F   0  0  0  0  0  0  0  0  0  0  0  0
  -17.6560  -21.6060  -20.8110 C   0  0  0  0  0  0  0  0  0  0  0  0
  -16.8650  -22.6880  -20.4560 C   0  0  0  0  0  0  0  0  0  0  0  0
  -17.5100  -23.8010  -19.9250 C   0  0  0  0  0  0  0  0  0  0  0  0
  -18.8890  -23.8030  -19.7850 C   0  0  0  0  0  0  0  0  0  0  0  0
  -19.6360  -22.7160  -20.1680 C   0  0  0  0  0  0  0  0  0  0  0  0
  -19.0210  -21.5990  -20.6880 C   0  0  0  0  0  0  0  0  0  0  0  0
  -15.4790  -22.6420  -20.6690 N   0  0  0  0  0  0  0  0  0  0  0  0
  -14.6040  -23.7990  -20.7320 C   0  0  0  0  0  0  0  0  0  0  0  0
  -14.1190  -24.1360  -19.3590 C   0  0  0  0  0  0  0  0  0  0  0  0
  -13.5630  -25.3240  -19.1150 N   0  0  0  0  0  0  0  0  0  0  0  0
  -13.2010  -25.2850  -17.8090 N   0  0  0  0  0  0  0  0  0  0  0  0
  -13.5230  -24.1190  -17.2400 C   0  0  0  0  0  0  0  0  0  0  0  0
  -14.1220  -23.3510  -18.2010 C   0  0  0  0  0  0  0  0  0  0  0  0
  2  1  1  0
  2  7  2  0
  7  6  1  0
  6  5  2  0
  5  4  1  0
  4  3  2  0
  3  2  1  0
  8  3  1  0
  9  8  1  0
 10  9  1  0
 10 14  1  0
 14 13  2  0
 13 12  1  0
 12 11  1  0
 11 10  2  0
M  END
$$$$

