DNV2_NS5A-x0160_A_1701_1_DNV2_NS5A-x0160+A+1701+1
     RDKit          3D

 12 13  0  0  0  0  0  0  0  0999 V2000
  -40.0670  -34.4500  -27.9330 C   0  0  0  0  0  0  0  0  0  0  0  0
  -39.6270  -33.0110  -27.9450 C   0  0  0  0  0  0  0  0  0  0  0  0
  -38.4410  -32.4580  -28.4490 C   0  0  0  0  0  0  0  0  0  0  0  0
  -38.5200  -31.1270  -28.2210 N   0  0  0  0  0  0  0  0  0  0  0  0
  -39.6820  -30.7700  -27.6030 N   0  0  0  0  0  0  0  0  0  0  0  0
  -40.3420  -31.9120  -27.4400 C   0  0  0  0  0  0  0  0  0  0  0  0
  -37.2690  -33.0620  -29.1180 C   0  0  0  0  0  0  0  0  0  0  0  0
  -37.0020  -34.4220  -29.0030 C   0  0  0  0  0  0  0  0  0  0  0  0
  -35.8850  -34.9370  -29.6320 C   0  0  0  0  0  0  0  0  0  0  0  0
  -35.0330  -34.2000  -30.3530 N   0  0  0  0  0  0  0  0  0  0  0  0
  -35.3000  -32.8930  -30.4540 C   0  0  0  0  0  0  0  0  0  0  0  0
  -36.3920  -32.2850  -29.8660 C   0  0  0  0  0  0  0  0  0  0  0  0
  2  1  1  0
  2  6  1  0
  6  5  2  0
  5  4  1  0
  4  3  1  0
  3  2  2  0
  7  3  1  0
  7 12  2  0
 12 11  1  0
 11 10  2  0
 10  9  1  0
  9  8  2  0
  8  7  1  0
M  END
$$$$

