Zika_NS5A-x0875_A_1201_1_Zika_NS5A-x0103+A+1112+1
     RDKit          3D

  7  7  0  0  0  0  0  0  0  0999 V2000
  -13.2970  -44.4980  -20.8500 N   0  0  0  0  0  0  0  0  0  0  0  0
  -12.9480  -43.4330  -21.1000 C   0  0  0  0  0  0  0  0  0  0  0  0
  -12.5670  -42.0860  -21.4400 C   0  0  0  0  0  0  0  0  0  0  0  0
  -11.4280  -41.4770  -20.9270 N   0  0  0  0  0  0  0  0  0  0  0  0
  -11.4740  -40.2420  -21.4030 C   0  0  0  0  0  0  0  0  0  0  0  0
  -12.5480  -40.0400  -22.1920 N   0  0  0  0  0  0  0  0  0  0  0  0
  -13.2460  -41.2020  -22.2300 C   0  0  0  0  0  0  0  0  0  0  0  0
  2  1  3  0
  3  2  1  0
  3  7  2  0
  7  6  1  0
  6  5  1  0
  5  4  2  0
  4  3  1  0
M  END
$$$$

