Zika_NS5A-x0184_A_1112_1_Zika_NS5A-x0136+A+1016+1
     RDKit          3D

 13 13  0  0  0  0  0  0  0  0999 V2000
  -26.9330  -60.1530   -3.2580 O   0  0  0  0  0  0  0  0  0  0  0  0
  -26.0760  -60.9040   -2.8030 C   0  0  0  0  0  0  0  0  0  0  0  0
  -25.8560  -62.2860   -3.4110 C   0  0  0  0  0  0  0  0  0  0  0  0
  -27.1260  -62.9670   -3.5400 N   0  0  0  0  0  0  0  0  0  0  0  0
  -25.2740  -60.5950   -1.7670 N   0  0  0  0  0  0  0  0  0  0  0  0
  -24.8020  -59.3120   -1.4260 C   0  0  0  0  0  0  0  0  0  0  0  0
  -24.1120  -59.0940   -0.2410 C   0  0  0  0  0  0  0  0  0  0  0  0
  -23.6020  -57.8410    0.0490 C   0  0  0  0  0  0  0  0  0  0  0  0
  -24.9990  -58.2510   -2.3030 C   0  0  0  0  0  0  0  0  0  0  0  0
  -24.4890  -57.0010   -2.0130 C   0  0  0  0  0  0  0  0  0  0  0  0
  -23.7750  -56.8000   -0.8490 C   0  0  0  0  0  0  0  0  0  0  0  0
  -23.1450  -55.6120   -0.5890 O   0  0  0  0  0  0  0  0  0  0  0  0
  -23.6150  -54.4280   -1.2390 C   0  0  0  0  0  0  0  0  0  0  0  0
 13 12  1  0
 12 11  1  0
 11  8  2  0
  8  7  1  0
  7  6  2  0
  6  5  1  0
  5  2  1  0
  2  1  2  0
  3  2  1  0
  4  3  1  0
  9  6  1  0
 10  9  2  0
 11 10  1  0
M  END
$$$$

