Zika_NS5A-x0892_A_1301_1_Zika_NS5A-x0411+A+1104+1
     RDKit          3D

 15 16  0  0  0  0  0  0  0  0999 V2000
  -20.4840  -22.5230  -20.5780 C   0  0  0  0  0  0  0  0  0  0  0  0
  -19.5690  -22.4550  -19.5350 C   0  0  0  0  0  0  0  0  0  0  0  0
  -18.1380  -22.6390  -19.9710 C   0  0  0  0  0  0  0  0  0  0  0  0
  -17.5460  -23.8860  -19.9450 C   0  0  0  0  0  0  0  0  0  0  0  0
  -16.2460  -24.0770  -20.3750 C   0  0  0  0  0  0  0  0  0  0  0  0
  -15.4990  -23.0110  -20.8510 C   0  0  0  0  0  0  0  0  0  0  0  0
  -16.0710  -21.7430  -20.8410 C   0  0  0  0  0  0  0  0  0  0  0  0
  -17.3850  -21.5690  -20.4250 C   0  0  0  0  0  0  0  0  0  0  0  0
  -14.1430  -23.1310  -21.2450 N   0  0  0  0  0  0  0  0  0  0  0  0
  -13.0570  -23.8000  -20.8370 C   0  0  0  0  0  0  0  0  0  0  0  0
  -13.3050  -24.3480  -19.1940 S   0  0  0  0  0  0  0  0  0  0  0  0
  -11.7560  -25.1550  -18.9740 C   0  0  0  0  0  0  0  0  0  0  0  0
  -10.5820  -24.5510  -19.6630 C   0  0  0  0  0  0  0  0  0  0  0  0
  -10.7800  -24.5510  -21.1590 C   0  0  0  0  0  0  0  0  0  0  0  0
  -12.0340  -23.9180  -21.5680 N   0  0  0  0  0  0  0  0  0  0  0  0
  2  1  1  0
  3  2  1  0
  3  8  2  0
  8  7  1  0
  7  6  2  0
  9  6  1  0
 10  9  1  0
 10 15  2  0
 15 14  1  0
 14 13  1  0
 13 12  1  0
 12 11  1  0
 11 10  1  0
  6  5  1  0
  5  4  2  0
  4  3  1  0
M  END
$$$$

