Zika_NS5A-x0900_A_1015_1_Zika_NS5A-x0351+A+1112+1
     RDKit          3D

 15 16  0  0  0  0  0  0  0  0999 V2000
  -12.2080  -24.9800  -21.8500 Cl  0  0  0  0  0  0  0  0  0  0  0  0
  -13.4250  -24.1190  -20.9670 C   0  0  0  0  0  0  0  0  0  0  0  0
  -14.0750  -24.7400  -19.9180 C   0  0  0  0  0  0  0  0  0  0  0  0
  -15.1830  -24.1300  -19.3580 C   0  0  0  0  0  0  0  0  0  0  0  0
  -13.8030  -22.8810  -21.4080 C   0  0  0  0  0  0  0  0  0  0  0  0
  -14.9150  -22.2780  -20.8600 C   0  0  0  0  0  0  0  0  0  0  0  0
  -15.6340  -22.9090  -19.8560 C   0  0  0  0  0  0  0  0  0  0  0  0
  -16.8890  -22.3740  -19.4440 N   0  0  0  0  0  0  0  0  0  0  0  0
  -17.1570  -21.0090  -19.5850 C   0  0  0  0  0  0  0  0  0  0  0  0
  -16.3690  -20.0980  -19.3590 O   0  0  0  0  0  0  0  0  0  0  0  0
  -18.4630  -20.8970  -20.0130 N   0  0  0  0  0  0  0  0  0  0  0  0
  -19.1020  -22.1040  -20.0820 C   0  0  0  0  0  0  0  0  0  0  0  0
  -20.2500  -22.2800  -20.4650 O   0  0  0  0  0  0  0  0  0  0  0  0
  -18.1270  -23.1570  -19.5940 C   0  0  1  0  0  0  0  0  0  0  0  0
  -18.0540  -24.3050  -20.5880 C   0  0  0  0  0  0  0  0  0  0  0  0
 14 15  1  6
 14  8  1  0
  9  8  1  0
 10  9  2  0
 11  9  1  0
 12 11  1  0
 14 12  1  0
 13 12  2  0
  8  7  1  0
  7  4  2  0
  4  3  1  0
  3  2  2  0
  2  1  1  0
  5  2  1  0
  6  5  2  0
  7  6  1  0
M  END
$$$$

