DNV2_NS5A-x0253_A_1707_1_DNV2_NS5A-x0249+A+1707+1
     RDKit          3D

 19 20  0  0  0  0  0  0  0  0999 V2000
   -1.9750  -68.4890  -21.6300 F   0  0  0  0  0  0  0  0  0  0  0  0
   -2.8490  -68.7650  -20.6270 C   0  0  0  0  0  0  0  0  0  0  0  0
   -2.8290  -67.9700  -19.5150 C   0  0  0  0  0  0  0  0  0  0  0  0
   -3.6920  -68.2780  -18.4780 C   0  0  0  0  0  0  0  0  0  0  0  0
   -4.5510  -69.3580  -18.5740 C   0  0  0  0  0  0  0  0  0  0  0  0
   -3.6860  -69.8440  -20.7780 C   0  0  0  0  0  0  0  0  0  0  0  0
   -4.5400  -70.1280  -19.7240 C   0  0  0  0  0  0  0  0  0  0  0  0
   -5.6300  -71.5030  -19.8590 S   0  0  0  0  0  0  0  0  0  0  0  0
   -6.6730  -71.3330  -18.8970 O   0  0  0  0  0  0  0  0  0  0  0  0
   -5.9560  -71.6910  -21.2380 O   0  0  0  0  0  0  0  0  0  0  0  0
   -4.7780  -72.8160  -19.3780 N   0  0  0  0  0  0  0  0  0  0  0  0
   -4.7060  -73.1580  -18.0090 C   0  0  0  0  0  0  0  0  0  0  0  0
   -5.7050  -73.8170  -17.2300 C   0  0  0  0  0  0  0  0  0  0  0  0
   -7.0600  -74.3180  -17.6160 C   0  0  0  0  0  0  0  0  0  0  0  0
   -3.6700  -72.9000  -17.1740 C   0  0  0  0  0  0  0  0  0  0  0  0
   -2.3720  -72.2220  -17.4480 C   0  0  0  0  0  0  0  0  0  0  0  0
   -4.0270  -73.3760  -15.9790 N   0  0  0  0  0  0  0  0  0  0  0  0
   -5.2650  -73.9400  -15.9870 N   0  0  0  0  0  0  0  0  0  0  0  0
   -3.2600  -73.3590  -14.7400 C   0  0  0  0  0  0  0  0  0  0  0  0
 14 13  1  0
 13 18  2  0
 18 17  1  0
 19 17  1  0
 17 15  1  0
 16 15  1  0
 15 12  2  0
 13 12  1  0
 12 11  1  0
 11  8  1  0
  9  8  2  0
 10  8  2  0
  8  7  1  0
  7  5  1  0
  5  4  2  0
  4  3  1  0
  3  2  2  0
  2  1  1  0
  6  2  1  0
  7  6  2  0
M  END
$$$$

