Zika_NS5A-x0858_A_1013_1_Zika_NS5A-x0111+A+1112+1
     RDKit          3D

  6  5  0  0  0  0  0  0  0  0999 V2000
   -6.8750  -35.8460  -45.9380 O   0  0  0  0  0  0  0  0  0  0  0  0
   -6.9670  -36.8330  -45.1870 C   0  0  0  0  0  0  0  0  0  0  0  0
   -6.0380  -37.1830  -44.3170 N   0  0  0  0  0  0  0  0  0  0  0  0
   -5.5250  -36.2520  -43.4110 O   0  0  0  0  0  0  0  0  0  0  0  0
   -8.1430  -37.7750  -45.2350 C   0  0  0  0  0  0  0  0  0  0  0  0
   -8.8060  -37.8190  -46.6340 C   0  0  0  0  0  0  0  0  0  0  0  0
  6  5  1  0
  5  2  1  0
  2  1  2  0
  3  2  1  0
  4  3  1  0
M  END
$$$$

