Zika_NS5A-x0920_A_1101_1_Zika_NS5A-x0041+A+1112+1
     RDKit          3D

 11 12  0  0  0  0  0  0  0  0999 V2000
  -36.6530  -14.2210  -23.8390 N   0  0  0  0  0  0  0  0  0  0  0  0
  -35.5760  -13.9830  -24.5750 C   0  0  0  0  0  0  0  0  0  0  0  0
  -34.9140  -14.9000  -25.2460 N   0  0  0  0  0  0  0  0  0  0  0  0
  -33.8710  -14.2190  -25.8720 C   0  0  0  0  0  0  0  0  0  0  0  0
  -33.9140  -12.8700  -25.5360 C   0  0  0  0  0  0  0  0  0  0  0  0
  -35.0300  -12.7260  -24.7180 N   0  0  0  0  0  0  0  0  0  0  0  0
  -35.5320  -11.4560  -24.1950 C   0  0  0  0  0  0  0  0  0  0  0  0
  -32.9840  -11.9560  -26.0140 C   0  0  0  0  0  0  0  0  0  0  0  0
  -32.0070  -12.4270  -26.8830 C   0  0  0  0  0  0  0  0  0  0  0  0
  -31.9710  -13.7690  -27.2580 C   0  0  0  0  0  0  0  0  0  0  0  0
  -32.8940  -14.6790  -26.7500 C   0  0  0  0  0  0  0  0  0  0  0  0
  7  6  1  0
  6  2  1  0
  2  1  1  0
  3  2  2  0
  4  3  1  0
  4 11  2  0
 11 10  1  0
 10  9  2  0
  9  8  1  0
  8  5  2  0
  6  5  1  0
  5  4  1  0
M  END
$$$$

