Zika_NS5A-x0898_A_1013_1_Zika_NS5A-x0136+A+1016+1
     RDKit          3D

 15 16  0  0  0  0  0  0  0  0999 V2000
  -23.4710  -56.0640   -1.6080 O   0  0  0  0  0  0  0  0  0  0  0  0
  -24.5710  -56.3970   -1.2020 C   0  0  0  0  0  0  0  0  0  0  0  0
  -24.9830  -57.8360   -1.3250 C   0  0  0  0  0  0  0  0  0  0  0  0
  -25.8850  -58.2250   -2.3170 C   0  0  0  0  0  0  0  0  0  0  0  0
  -26.1960  -59.5650   -2.5010 C   0  0  0  0  0  0  0  0  0  0  0  0
  -25.6300  -60.5290   -1.6940 C   0  0  0  0  0  0  0  0  0  0  0  0
  -24.7480  -60.1700   -0.6900 C   0  0  0  0  0  0  0  0  0  0  0  0
  -24.4460  -58.8370   -0.5270 C   0  0  0  0  0  0  0  0  0  0  0  0
  -23.5860  -58.4970    0.4550 F   0  0  0  0  0  0  0  0  0  0  0  0
  -25.4170  -55.5250   -0.5990 N   0  0  0  0  0  0  0  0  0  0  0  0
  -25.1230  -54.0940   -0.4460 C   0  0  0  0  0  0  0  0  0  0  0  0
  -25.0440  -53.7360    1.0230 C   0  0  0  0  0  0  0  0  0  0  0  0
  -26.2730  -54.1290    1.7280 N   0  0  0  0  0  0  0  0  0  0  0  0
  -26.5870  -55.5550    1.5240 C   0  0  0  0  0  0  0  0  0  0  0  0
  -26.6850  -55.8820    0.0500 C   0  0  0  0  0  0  0  0  0  0  0  0
  9  8  1  0
  8  7  1  0
  7  6  2  0
  6  5  1  0
  5  4  2  0
  4  3  1  0
  8  3  2  0
  3  2  1  0
  2  1  2  0
 10  2  1  0
 10 15  1  0
 15 14  1  0
 14 13  1  0
 13 12  1  0
 12 11  1  0
 11 10  1  0
M  END
$$$$

