Zika_NS5A-x0486_A_1200_1_Zika_NS5A-x0481+A+1201+1
     RDKit          3D

 16 17  0  0  0  0  0  0  0  0999 V2000
  -28.5790  -66.4260  -26.7530 O   0  0  0  0  0  0  0  0  0  0  0  0
  -29.2710  -65.4350  -26.5610 C   0  0  0  0  0  0  0  0  0  0  0  0
  -29.0080  -64.4980  -25.5970 N   0  0  0  0  0  0  0  0  0  0  0  0
  -27.9220  -64.4560  -24.6880 C   0  0  0  0  0  0  0  0  0  0  0  0
  -27.5720  -63.2200  -24.1370 C   0  0  0  0  0  0  0  0  0  0  0  0
  -26.5380  -63.0430  -23.3070 N   0  0  0  0  0  0  0  0  0  0  0  0
  -25.8050  -64.1210  -23.0010 C   0  0  0  0  0  0  0  0  0  0  0  0
  -26.0730  -65.3910  -23.4860 C   0  0  0  0  0  0  0  0  0  0  0  0
  -27.1510  -65.5610  -24.3380 C   0  0  0  0  0  0  0  0  0  0  0  0
  -30.4040  -65.1470  -27.2800 N   0  0  0  0  0  0  0  0  0  0  0  0
  -30.9700  -65.8940  -28.3420 C   0  0  0  0  0  0  0  0  0  0  0  0
  -30.5670  -67.1930  -28.6380 C   0  0  0  0  0  0  0  0  0  0  0  0
  -31.2180  -67.9120  -29.6270 C   0  0  0  0  0  0  0  0  0  0  0  0
  -32.2640  -67.3460  -30.3270 C   0  0  0  0  0  0  0  0  0  0  0  0
  -32.6540  -66.0530  -30.0520 C   0  0  0  0  0  0  0  0  0  0  0  0
  -32.0090  -65.3200  -29.0670 C   0  0  0  0  0  0  0  0  0  0  0  0
  2  1  2  0
 10  2  1  0
 11 10  1  0
 11 16  2  0
 16 15  1  0
 15 14  2  0
 14 13  1  0
 13 12  2  0
 12 11  1  0
  3  2  1  0
  4  3  1  0
  4  9  2  0
  9  8  1  0
  8  7  2  0
  7  6  1  0
  6  5  2  0
  5  4  1  0
M  END
$$$$

