DNV2_NS5A-x0172_A_1701_1_DNV2_NS5A-x0172+A+1701+1
     RDKit          3D

 10 10  0  0  0  0  0  0  0  0999 V2000
  -24.3700  -26.5510  -20.5350 O   0  0  0  0  0  0  0  0  0  0  0  0
  -23.8650  -27.1060  -19.3140 S   0  0  0  0  0  0  0  0  0  0  0  0
  -22.4710  -27.4110  -19.2180 O   0  0  0  0  0  0  0  0  0  0  0  0
  -24.2870  -26.0220  -18.0040 C   0  0  0  0  0  0  0  0  0  0  0  0
  -24.6560  -28.4930  -19.0550 N   0  0  0  0  0  0  0  0  0  0  0  0
  -26.0970  -28.6660  -19.3050 C   0  0  0  0  0  0  0  0  0  0  0  0
  -26.4730  -30.0850  -19.6860 C   0  0  0  0  0  0  0  0  0  0  0  0
  -27.9720  -30.1380  -19.4560 C   0  0  0  0  0  0  0  0  0  0  0  0
  -28.2670  -29.1310  -18.3580 C   0  0  0  0  0  0  0  0  0  0  0  0
  -26.9640  -28.3930  -18.0820 C   0  0  0  0  0  0  0  0  0  0  0  0
  4  2  1  0
  3  2  2  0
  2  1  2  0
  5  2  1  0
  6  5  1  0
  6 10  1  0
 10  9  1  0
  9  8  1  0
  8  7  1  0
  7  6  1  0
M  END
$$$$

