z0211a_z0764a_1
dcSeeSAR  12172411573D 1   1.00000     0.00000     0
SeeSAR 13.0.1 dcn76311
 34 35  0  0  0  0            999 V2000
  -27.5838  -29.1255  -21.5329 O   0  0  0  0  0  0  0  0  0  0  0  0
  -27.5643  -31.5021  -21.4025 O   0  0  0  0  0  0  0  0  0  0  0  0
  -26.7878  -30.2966  -21.2706 S   0  0  0  0  0  0  0  0  0  0  0  0
  -23.3530  -31.7250  -22.8802 N   0  3  0  0  0  0  0  0  0  0  0  0
  -22.7988  -34.6099  -24.0205 C   0  0  0  0  0  0  0  0  0  0  0  0
  -21.5837  -32.6986  -24.8449 O   0  0  0  0  0  0  0  0  0  0  0  0
  -22.8859  -33.2943  -24.7625 C   0  0  2  0  0  0  0  0  0  0  0  0
  -23.9163  -32.3261  -24.0977 C   0  0  0  0  0  0  0  0  0  0  0  0
  -24.4113  -31.5825  -21.8692 C   0  0  1  0  0  0  0  0  0  0  0  0
  -24.6965  -30.7105  -19.4975 C   0  0  0  0  0  0  0  0  0  0  0  0
  -26.0179  -30.3030  -19.6771 C   0  0  0  0  0  0  0  0  0  0  0  0
  -26.8396  -29.8687  -18.6477 C   0  0  0  0  0  0  0  0  0  0  0  0
  -26.2818  -29.8600  -17.3805 C   0  0  0  0  0  0  0  0  0  0  0  0
  -24.9730  -30.2727  -17.1563 C   0  0  0  0  0  0  0  0  0  0  0  0
  -24.1762  -30.7046  -18.2117 C   0  0  0  0  0  0  0  0  0  0  0  0
  -23.8578  -31.1245  -20.5871 N   0  0  0  0  0  0  0  0  0  0  0  0
  -22.9757  -30.8246  -23.0969 H   0  0  0  0  0  0  0  0  0  0  0  0
  -23.7719  -35.0511  -23.9612 H   0  0  0  0  0  0  0  0  0  0  0  0
  -22.1389  -35.2709  -24.5427 H   0  0  0  0  0  0  0  0  0  0  0  0
  -22.4241  -34.4386  -23.0331 H   0  0  0  0  0  0  0  0  0  0  0  0
  -21.0365  -32.9831  -24.0577 H   0  0  0  0  0  0  0  0  0  0  0  0
  -23.2194  -33.4982  -25.7585 H   0  0  0  0  0  0  0  0  0  0  0  0
  -24.1659  -31.5494  -24.7900 H   0  0  0  0  0  0  0  0  0  0  0  0
  -24.7993  -32.8740  -23.8428 H   0  0  0  0  0  0  0  0  0  0  0  0
  -27.8482  -29.5577  -18.8231 H   0  0  0  0  0  0  0  0  0  0  0  0
  -27.4412  -29.2333  -15.9298 Br  0  0  0  0  0  0  0  0  0  0  0  0
  -24.5752  -30.2578  -16.1631 H   0  0  0  0  0  0  0  0  0  0  0  0
  -23.1722  -31.0289  -18.0335 H   0  0  0  0  0  0  0  0  0  0  0  0
  -22.8649  -31.1005  -20.4697 H   0  0  0  0  0  0  0  0  0  0  0  0
  -25.3566  -30.4969  -22.3614 C   0  0  0  0  0  0  0  0  0  0  0  0
  -24.9355  -32.5067  -21.7424 H   0  0  0  0  0  0  0  0  0  0  0  0
  -24.8241  -29.5699  -22.4063 H   0  0  0  0  0  0  0  0  0  0  0  0
  -25.7020  -30.7577  -23.3400 H   0  0  0  0  0  0  0  0  0  0  0  0
  -22.6276  -32.3132  -22.5229 H   0  0  0  0  0  0  0  0  0  0  0  0
  1  3  2  0  0  0  0
  2  3  2  0  0  0  0
  4  8  1  0  0  0  0
  4  9  1  0  0  0  0
  5  7  1  0  0  0  0
  6  7  1  0  0  0  0
  7  8  1  0  0  0  0
  9 16  1  0  0  0  0
 10 11  2  0  0  0  0
 10 15  1  0  0  0  0
 10 16  1  0  0  0  0
 11 12  1  0  0  0  0
 12 13  2  0  0  0  0
 13 14  1  0  0  0  0
 14 15  2  0  0  0  0
  4 17  1  0  0  0  0
  5 18  1  0  0  0  0
  5 19  1  0  0  0  0
  5 20  1  0  0  0  0
  6 21  1  0  0  0  0
  7 22  1  0  0  0  0
  8 23  1  0  0  0  0
  8 24  1  0  0  0  0
 12 25  1  0  0  0  0
 13 26  1  0  0  0  0
 14 27  1  0  0  0  0
 15 28  1  0  0  0  0
 16 29  1  0  0  0  0
  3 11  1  0  0  0  0
  3 30  1  0  0  0  0
 30  9  1  0  0  0  0
  9 31  1  0  0  0  0
 30 32  1  0  0  0  0
 30 33  1  0  0  0  0
  4 34  1  0  0  0  0
M  CHG  1   4   1
M  END
> <BIOSOLVEIT.HYDE_ATOM_SCORES [kJ/mol]>
# Atom-ID; Total; Rec-Desolv; Rec-IA; Lig-Desolv; Lig-IA
1;0.1573;-2.5678;0.0000;2.7251;0.0000
2;-4.6761;8.7046;-12.1900;2.7787;-3.9695
3;-0.0382;0.0000;0.0000;-0.0382;0.0000
4;-2.7354;8.7673;-10.0662;10.3626;-11.7991
5;-1.4695;-0.8350;0.0000;-0.6346;0.0000
6;-0.2840;-1.6095;0.0000;1.3254;0.0000
7;-0.1730;0.0000;0.0000;-0.1730;0.0000
8;-1.8758;-0.7324;0.0000;-1.1435;0.0000
9;-0.1732;0.0000;0.0000;-0.1732;0.0000
10;-1.4673;-0.8476;0.0000;-0.6197;0.0000
11;-1.4061;-0.9014;0.0000;-0.5047;0.0000
12;-0.8073;0.0000;0.0000;-0.8073;0.0000
13;-2.3199;-2.0485;0.0000;-0.2714;0.0000
14;-1.1174;-0.4216;0.0000;-0.6958;0.0000
15;-1.2864;-0.1903;0.0000;-1.0961;0.0000
16;0.8834;0.0000;0.0000;0.8834;0.0000
26;-5.4285;-3.1442;0.0000;-2.2842;0.0000
30;-1.1966;0.0000;0.0000;-1.1966;0.0000

> <BIOSOLVEIT.HYDE_ESTIMATED_AFFINITY_LOWER_BOUNDARY [nM]>
3540.055913

> <BIOSOLVEIT.HYDE_ESTIMATED_AFFINITY_UPPER_BOUNDARY [nM]>
351725.485448

> <BIOSOLVEIT.HYDE_LIGAND_EFFICIENCY range: ++, +, 0, -, -->
0

> <BIOSOLVEIT.HYDE_LIGAND_LIPOPHILIC_EFFICIENCY range: ++, +, 0, -, -->
0

> <BIOSOLVEIT.INTER_CLASH range: red, yellow, green>
green

> <BIOSOLVEIT.INTRA_CLASH range: red, yellow, green>
green

> <BIOSOLVEIT.LOGP>
0.5692

> <BIOSOLVEIT.MOLECULAR_WEIGHT>
336.227

> <BIOSOLVEIT.MOLECULE_CHECKSUM>
LTI1LjQxNDM7MS40MTE5MQ==

> <BIOSOLVEIT.TORSION_QUALITY range: red, yellow, green, not rotatable>
green

> <BIOSOLVEIT.TPSA>
83.01

> <BIOSOLVEIT.OPTIBRIUM.2D6 affinity category>
medium

> <BIOSOLVEIT.OPTIBRIUM.BBB category>
-

> <BIOSOLVEIT.OPTIBRIUM.2C9 pKi>
4.39035

> <BIOSOLVEIT.OPTIBRIUM.hERG pIC50>
4.27237

> <BIOSOLVEIT.OPTIBRIUM.HIA category>
+

> <BIOSOLVEIT.OPTIBRIUM.BBB log([brain]:[blood])>
-0.181105

> <BIOSOLVEIT.OPTIBRIUM.logD>
0.0530573

> <BIOSOLVEIT.OPTIBRIUM.logP>
1.15745

> <BIOSOLVEIT.OPTIBRIUM.logS>
2.65022

> <BIOSOLVEIT.OPTIBRIUM.logS @ pH7.4>
3.31653

> <BIOSOLVEIT.OPTIBRIUM.P-gp category>
no

> <BIOSOLVEIT.OPTIBRIUM.PPB90 category>
low

$$$$
z0211a_z0764a_2
dcSeeSAR  12172411573D 1   1.00000     0.00000     0
SeeSAR 13.0.1 dcn76311
 35 36  0  0  0  0            999 V2000
  -27.7415  -29.1970  -21.8080 O   0  0  0  0  0  0  0  0  0  0  0  0
  -27.7330  -31.5386  -21.3822 O   0  0  0  0  0  0  0  0  0  0  0  0
  -27.0336  -30.2932  -21.1992 S   0  0  0  0  0  0  0  0  0  0  0  0
  -23.2856  -31.7770  -21.6736 N   0  3  0  0  0  0  0  0  0  0  0  0
  -21.4206  -33.5530  -23.4097 C   0  0  0  0  0  0  0  0  0  0  0  0
  -21.2929  -31.1552  -23.6210 O   0  0  0  0  0  0  0  0  0  0  0  0
  -22.1427  -32.2916  -23.8305 C   0  0  2  0  0  0  0  0  0  0  0  0
  -23.5053  -32.1323  -23.0829 C   0  0  0  0  0  0  0  0  0  0  0  0
  -24.5828  -31.5584  -21.0149 C   0  0  1  0  0  0  0  0  0  0  0  0
  -25.4973  -30.3886  -18.8936 C   0  0  0  0  0  0  0  0  0  0  0  0
  -26.7334  -30.0774  -19.4724 C   0  0  0  0  0  0  0  0  0  0  0  0
  -27.7924  -29.5657  -18.7394 C   0  0  0  0  0  0  0  0  0  0  0  0
  -27.5817  -29.3917  -17.3795 C   0  0  0  0  0  0  0  0  0  0  0  0
  -26.3718  -29.7222  -16.7737 C   0  0  0  0  0  0  0  0  0  0  0  0
  -25.3162  -30.2244  -17.5245 C   0  0  0  0  0  0  0  0  0  0  0  0
  -24.2843  -30.8724  -19.6811 C   0  0  0  0  0  0  0  0  0  0  0  0
  -22.7403  -30.9403  -21.6218 H   0  0  0  0  0  0  0  0  0  0  0  0
  -22.0576  -34.3981  -23.5675 H   0  0  0  0  0  0  0  0  0  0  0  0
  -20.5294  -33.6646  -23.9911 H   0  0  0  0  0  0  0  0  0  0  0  0
  -21.1644  -33.4882  -22.3728 H   0  0  0  0  0  0  0  0  0  0  0  0
  -21.8532  -30.3314  -23.5354 H   0  0  0  0  0  0  0  0  0  0  0  0
  -22.3472  -32.3623  -24.8785 H   0  0  0  0  0  0  0  0  0  0  0  0
  -24.0767  -31.3604  -23.5549 H   0  0  0  0  0  0  0  0  0  0  0  0
  -24.0435  -33.0557  -23.1327 H   0  0  0  0  0  0  0  0  0  0  0  0
  -28.7259  -29.3173  -19.1995 H   0  0  0  0  0  0  0  0  0  0  0  0
  -29.0909  -28.6496  -16.3730 Br  0  0  0  0  0  0  0  0  0  0  0  0
  -26.2542  -29.5880  -15.7187 H   0  0  0  0  0  0  0  0  0  0  0  0
  -24.3862  -30.4786  -17.0605 H   0  0  0  0  0  0  0  0  0  0  0  0
  -25.3621  -30.5520  -21.8460 C   0  0  0  0  0  0  0  0  0  0  0  0
  -25.1236  -32.4723  -20.8828 H   0  0  0  0  0  0  0  0  0  0  0  0
  -24.8395  -29.6183  -21.8380 H   0  0  0  0  0  0  0  0  0  0  0  0
  -25.4318  -30.9131  -22.8508 H   0  0  0  0  0  0  0  0  0  0  0  0
  -23.6636  -30.0240  -19.8808 H   0  0  0  0  0  0  0  0  0  0  0  0
  -23.7511  -31.5677  -19.0672 H   0  0  0  0  0  0  0  0  0  0  0  0
  -22.7996  -32.5205  -21.2142 H   0  0  0  0  0  0  0  0  0  0  0  0
  1  3  2  0  0  0  0
  2  3  2  0  0  0  0
  4  8  1  0  0  0  0
  4  9  1  0  0  0  0
  5  7  1  0  0  0  0
  6  7  1  0  0  0  0
  7  8  1  0  0  0  0
  9 16  1  0  0  0  0
 10 11  2  0  0  0  0
 10 15  1  0  0  0  0
 10 16  1  0  0  0  0
 11 12  1  0  0  0  0
 12 13  2  0  0  0  0
 13 14  1  0  0  0  0
 14 15  2  0  0  0  0
  4 17  1  0  0  0  0
  5 18  1  0  0  0  0
  5 19  1  0  0  0  0
  5 20  1  0  0  0  0
  6 21  1  0  0  0  0
  7 22  1  0  0  0  0
  8 23  1  0  0  0  0
  8 24  1  0  0  0  0
 12 25  1  0  0  0  0
 13 26  1  0  0  0  0
 14 27  1  0  0  0  0
 15 28  1  0  0  0  0
  3 11  1  0  0  0  0
  3 29  1  0  0  0  0
 29  9  1  0  0  0  0
  9 30  1  0  0  0  0
 29 31  1  0  0  0  0
 29 32  1  0  0  0  0
 16 33  1  0  0  0  0
 16 34  1  0  0  0  0
  4 35  1  0  0  0  0
M  CHG  1   4   1
M  END
> <BIOSOLVEIT.HYDE_ATOM_SCORES [kJ/mol]>
# Atom-ID; Total; Rec-Desolv; Rec-IA; Lig-Desolv; Lig-IA
1;-1.0031;-2.2891;0.0000;1.2860;0.0000
2;-5.2442;8.2107;-12.1899;2.7045;-3.9694
3;-0.0382;0.0000;0.0000;-0.0382;0.0000
4;-3.0143;8.8407;-10.2284;10.3626;-11.9892
5;-2.4872;-1.1813;0.0000;-1.3059;0.0000
6;-6.0072;-2.7355;-2.0290;8.1438;-9.3864
7;-0.6913;-0.1859;0.0000;-0.5055;0.0000
8;-0.4380;0.0000;0.0000;-0.4380;0.0000
9;-0.3485;0.0000;0.0000;-0.3485;0.0000
10;-1.3854;-0.9577;0.0000;-0.4278;0.0000
11;-0.4574;0.0000;0.0000;-0.4574;0.0000
12;-0.6173;0.0000;0.0000;-0.6173;0.0000
13;-2.9340;-2.5854;0.0000;-0.3486;0.0000
14;-1.3831;-0.2369;0.0000;-1.1462;0.0000
15;-0.9666;-0.2415;0.0000;-0.7251;0.0000
16;-1.5882;-0.2635;0.0000;-1.3247;0.0000
26;-8.8149;-5.5760;0.0000;-3.2389;0.0000
29;-1.2087;-0.0105;0.0000;-1.1982;0.0000

> <BIOSOLVEIT.HYDE_ESTIMATED_AFFINITY_LOWER_BOUNDARY [nM]>
14.293557

> <BIOSOLVEIT.HYDE_ESTIMATED_AFFINITY_UPPER_BOUNDARY [nM]>
1420.149424

> <BIOSOLVEIT.HYDE_LIGAND_EFFICIENCY range: ++, +, 0, -, -->
++

> <BIOSOLVEIT.HYDE_LIGAND_LIPOPHILIC_EFFICIENCY range: ++, +, 0, -, -->
+

> <BIOSOLVEIT.INTER_CLASH range: red, yellow, green>
green

> <BIOSOLVEIT.INTRA_CLASH range: red, yellow, green>
green

> <BIOSOLVEIT.LOGP>
0.7423

> <BIOSOLVEIT.MOLECULAR_WEIGHT>
335.239

> <BIOSOLVEIT.MOLECULE_CHECKSUM>
LTM5LjA3ODU7Mi4xNzEwMw==

> <BIOSOLVEIT.TORSION_QUALITY range: red, yellow, green, not rotatable>
green

> <BIOSOLVEIT.TPSA>
70.98

> <BIOSOLVEIT.OPTIBRIUM.2D6 affinity category>
medium

> <BIOSOLVEIT.OPTIBRIUM.BBB category>
-

> <BIOSOLVEIT.OPTIBRIUM.2C9 pKi>
4.41232

> <BIOSOLVEIT.OPTIBRIUM.hERG pIC50>
4.42267

> <BIOSOLVEIT.OPTIBRIUM.HIA category>
+

> <BIOSOLVEIT.OPTIBRIUM.BBB log([brain]:[blood])>
-0.27612

> <BIOSOLVEIT.OPTIBRIUM.logD>
0.0188463

> <BIOSOLVEIT.OPTIBRIUM.logP>
1.65083

> <BIOSOLVEIT.OPTIBRIUM.logS>
2.09091

> <BIOSOLVEIT.OPTIBRIUM.logS @ pH7.4>
2.87788

> <BIOSOLVEIT.OPTIBRIUM.P-gp category>
no

> <BIOSOLVEIT.OPTIBRIUM.PPB90 category>
low

$$$$
z0211a_z0764a_3
dcSeeSAR  12172411573D 1   1.00000     0.00000     0
SeeSAR 13.0.1 dcn76311
 35 36  0  0  0  0            999 V2000
  -27.7776  -29.0765  -21.7918 O   0  0  0  0  0  0  0  0  0  0  0  0
  -27.8676  -31.3995  -21.2818 O   0  0  0  0  0  0  0  0  0  0  0  0
  -27.1083  -30.1823  -21.1572 S   0  0  0  0  0  0  0  0  0  0  0  0
  -23.4442  -31.8578  -21.6498 N   0  3  0  0  0  0  0  0  0  0  0  0
  -21.6998  -33.6473  -23.5140 C   0  0  0  0  0  0  0  0  0  0  0  0
  -21.4739  -31.2494  -23.6096 O   0  0  0  0  0  0  0  0  0  0  0  0
  -22.3765  -32.3373  -23.8530 C   0  0  2  0  0  0  0  0  0  0  0  0
  -23.7128  -32.1589  -23.0634 C   0  0  0  0  0  0  0  0  0  0  0  0
  -24.7086  -31.5440  -20.9664 C   0  0  1  0  0  0  0  0  0  0  0  0
  -25.5323  -30.2484  -18.8922 C   0  0  0  0  0  0  0  0  0  0  0  0
  -26.7633  -29.9199  -19.4452 C   0  0  0  0  0  0  0  0  0  0  0  0
  -27.7841  -29.3431  -18.7041 C   0  0  0  0  0  0  0  0  0  0  0  0
  -27.5383  -29.1247  -17.3563 C   0  0  0  0  0  0  0  0  0  0  0  0
  -26.3285  -29.4826  -16.7680 C   0  0  0  0  0  0  0  0  0  0  0  0
  -25.3107  -30.0498  -17.5271 C   0  0  0  0  0  0  0  0  0  0  0  0
  -24.3513  -30.8208  -19.6712 C   0  0  0  0  0  0  0  0  0  0  0  0
  -22.8278  -31.0729  -21.5876 H   0  0  0  0  0  0  0  0  0  0  0  0
  -22.3761  -34.4559  -23.6970 H   0  0  0  0  0  0  0  0  0  0  0  0
  -20.8282  -33.7665  -24.1232 H   0  0  0  0  0  0  0  0  0  0  0  0
  -21.4163  -33.6458  -22.4823 H   0  0  0  0  0  0  0  0  0  0  0  0
  -21.9928  -30.3994  -23.5198 H   0  0  0  0  0  0  0  0  0  0  0  0
  -22.6088  -32.3461  -24.8975 H   0  0  0  0  0  0  0  0  0  0  0  0
  -24.2707  -31.3539  -23.4942 H   0  0  0  0  0  0  0  0  0  0  0  0
  -24.2824  -33.0624  -23.1281 H   0  0  0  0  0  0  0  0  0  0  0  0
  -28.7192  -29.0785  -19.1518 H   0  0  0  0  0  0  0  0  0  0  0  0
  -26.1802  -29.3196  -15.7210 H   0  0  0  0  0  0  0  0  0  0  0  0
  -24.3806  -30.3274  -17.0767 H   0  0  0  0  0  0  0  0  0  0  0  0
  -25.4639  -30.5412  -21.8254 C   0  0  0  0  0  0  0  0  0  0  0  0
  -25.2886  -32.4240  -20.7821 H   0  0  0  0  0  0  0  0  0  0  0  0
  -24.9025  -29.6315  -21.8697 H   0  0  0  0  0  0  0  0  0  0  0  0
  -25.5714  -30.9423  -22.8117 H   0  0  0  0  0  0  0  0  0  0  0  0
  -23.6942  -30.0124  -19.9152 H   0  0  0  0  0  0  0  0  0  0  0  0
  -23.8422  -31.5150  -19.0356 H   0  0  0  0  0  0  0  0  0  0  0  0
  -28.2972  -28.6700  -16.7544 H   0  0  0  0  0  0  0  0  0  0  0  0
  -23.0184  -32.6514  -21.2151 H   0  0  0  0  0  0  0  0  0  0  0  0
  1  3  2  0  0  0  0
  2  3  2  0  0  0  0
  4  8  1  0  0  0  0
  4  9  1  0  0  0  0
  5  7  1  0  0  0  0
  6  7  1  0  0  0  0
  7  8  1  0  0  0  0
  9 16  1  0  0  0  0
 10 11  2  0  0  0  0
 10 15  1  0  0  0  0
 10 16  1  0  0  0  0
 11 12  1  0  0  0  0
 12 13  2  0  0  0  0
 13 14  1  0  0  0  0
 14 15  2  0  0  0  0
  4 17  1  0  0  0  0
  5 18  1  0  0  0  0
  5 19  1  0  0  0  0
  5 20  1  0  0  0  0
  6 21  1  0  0  0  0
  7 22  1  0  0  0  0
  8 23  1  0  0  0  0
  8 24  1  0  0  0  0
 12 25  1  0  0  0  0
 14 26  1  0  0  0  0
 15 27  1  0  0  0  0
  3 11  1  0  0  0  0
  3 28  1  0  0  0  0
 28  9  1  0  0  0  0
  9 29  1  0  0  0  0
 28 30  1  0  0  0  0
 28 31  1  0  0  0  0
 16 32  1  0  0  0  0
 16 33  1  0  0  0  0
 13 34  1  0  0  0  0
  4 35  1  0  0  0  0
M  CHG  1   4   1
M  END
> <BIOSOLVEIT.HYDE_ATOM_SCORES [kJ/mol]>
# Atom-ID; Total; Rec-Desolv; Rec-IA; Lig-Desolv; Lig-IA
1;-0.6378;-2.5626;0.0000;1.9248;0.0000
2;-5.1387;8.2567;-12.1240;2.6766;-3.9480
3;-0.0382;0.0000;0.0000;-0.0382;0.0000
4;-3.2800;8.8407;-10.3507;10.3626;-12.1326
5;-2.3235;-1.1555;0.0000;-1.1679;0.0000
6;-5.9915;-2.6921;-2.0307;8.1252;-9.3939
7;-0.7530;-0.2476;0.0000;-0.5054;0.0000
8;-0.4255;0.0000;0.0000;-0.4255;0.0000
9;-0.3728;0.0000;0.0000;-0.3728;0.0000
10;-1.4845;-0.9846;0.0000;-0.4999;0.0000
11;-0.4803;0.0000;0.0000;-0.4803;0.0000
12;-1.2161;-0.5251;0.0000;-0.6910;0.0000
13;-1.9226;-1.0465;0.0000;-0.8761;0.0000
14;-2.6216;-1.8442;0.0000;-0.7774;0.0000
15;-1.2118;-0.2415;0.0000;-0.9703;0.0000
16;-2.0571;-0.6716;0.0000;-1.3855;0.0000
28;-1.2598;0.0000;0.0000;-1.2598;0.0000

> <BIOSOLVEIT.HYDE_ESTIMATED_AFFINITY_LOWER_BOUNDARY [nM]>
284.771654

> <BIOSOLVEIT.HYDE_ESTIMATED_AFFINITY_UPPER_BOUNDARY [nM]>
28293.747573

> <BIOSOLVEIT.HYDE_LIGAND_EFFICIENCY range: ++, +, 0, -, -->
+

> <BIOSOLVEIT.HYDE_LIGAND_LIPOPHILIC_EFFICIENCY range: ++, +, 0, -, -->
+

> <BIOSOLVEIT.INTER_CLASH range: red, yellow, green>
green

> <BIOSOLVEIT.INTRA_CLASH range: red, yellow, green>
green

> <BIOSOLVEIT.LOGP>
-0.0202

> <BIOSOLVEIT.MOLECULAR_WEIGHT>
256.343

> <BIOSOLVEIT.MOLECULE_CHECKSUM>
LTMxLjY2MTg7MS44NjI0Ng==

> <BIOSOLVEIT.TORSION_QUALITY range: red, yellow, green, not rotatable>
green

> <BIOSOLVEIT.TPSA>
70.98

> <BIOSOLVEIT.OPTIBRIUM.2D6 affinity category>
medium

> <BIOSOLVEIT.OPTIBRIUM.BBB category>
-

> <BIOSOLVEIT.OPTIBRIUM.2C9 pKi>
4.15542

> <BIOSOLVEIT.OPTIBRIUM.hERG pIC50>
4.25874

> <BIOSOLVEIT.OPTIBRIUM.HIA category>
+

> <BIOSOLVEIT.OPTIBRIUM.BBB log([brain]:[blood])>
-0.317866

> <BIOSOLVEIT.OPTIBRIUM.logD>
-0.522049

> <BIOSOLVEIT.OPTIBRIUM.logP>
0.919347

> <BIOSOLVEIT.OPTIBRIUM.logS>
2.82367

> <BIOSOLVEIT.OPTIBRIUM.logS @ pH7.4>
2.95238

> <BIOSOLVEIT.OPTIBRIUM.P-gp category>
no

> <BIOSOLVEIT.OPTIBRIUM.PPB90 category>
low

$$$$
z0483a_z0764a_1
dcSeeSAR  12172411573D 1   1.00000     0.00000     0
SeeSAR 13.0.1 dcn76311
 40 42  0  0  0  0            999 V2000
  -22.9800  -32.3215  -23.9064 N   0  3  1  0  0  0  0  0  0  0  0  0
  -22.4290  -33.3420  -24.8098 C   0  0  0  0  0  0  0  0  0  0  0  0
  -24.2771  -31.8753  -24.4380 C   0  0  0  0  0  0  0  0  0  0  0  0
  -28.8774  -29.1610  -18.6590 C   0  0  0  0  0  0  0  0  0  0  0  0
  -28.0224  -29.9223  -19.4472 C   0  0  0  0  0  0  0  0  0  0  0  0
  -24.8644  -30.8142  -23.5205 C   0  0  0  0  0  0  0  0  0  0  0  0
  -23.7130  -31.8124  -21.6155 C   0  0  0  0  0  0  0  0  0  0  0  0
  -23.1272  -32.8618  -22.5468 C   0  0  0  0  0  0  0  0  0  0  0  0
  -25.6657  -30.4119  -21.2641 C   0  0  2  0  0  0  0  0  0  0  0  0
  -26.7590  -30.3057  -19.0321 C   0  0  0  0  0  0  0  0  0  0  0  0
  -26.3661  -30.0130  -17.7345 C   0  0  0  0  0  0  0  0  0  0  0  0
  -27.2176  -29.2763  -16.9157 C   0  0  0  0  0  0  0  0  0  0  0  0
  -28.4481  -28.8247  -17.3817 C   0  0  0  0  0  0  0  0  0  0  0  0
  -29.2293  -28.0517  -16.6326 F   0  0  0  0  0  0  0  0  0  0  0  0
  -25.0021  -31.3659  -22.1643 N   0  3  1  0  0  0  0  0  0  0  0  0
  -25.8266  -30.9541  -19.9036 N   0  0  0  0  0  0  0  0  0  0  0  0
  -21.4841  -33.6767  -24.4358 H   0  0  0  0  0  0  0  0  0  0  0  0
  -23.1041  -34.1703  -24.8661 H   0  0  0  0  0  0  0  0  0  0  0  0
  -22.2981  -32.9217  -25.7851 H   0  0  0  0  0  0  0  0  0  0  0  0
  -24.9457  -32.7089  -24.4927 H   0  0  0  0  0  0  0  0  0  0  0  0
  -24.1390  -31.4640  -25.4161 H   0  0  0  0  0  0  0  0  0  0  0  0
  -29.8325  -28.8452  -19.0235 H   0  0  0  0  0  0  0  0  0  0  0  0
  -25.8258  -30.5187  -23.8855 H   0  0  0  0  0  0  0  0  0  0  0  0
  -24.2153  -29.9638  -23.4962 H   0  0  0  0  0  0  0  0  0  0  0  0
  -23.0442  -30.9802  -21.5436 H   0  0  0  0  0  0  0  0  0  0  0  0
  -23.8618  -32.2352  -20.6439 H   0  0  0  0  0  0  0  0  0  0  0  0
  -22.1669  -33.1603  -22.1809 H   0  0  0  0  0  0  0  0  0  0  0  0
  -23.7781  -33.7107  -22.5741 H   0  0  0  0  0  0  0  0  0  0  0  0
  -25.4192  -30.3494  -17.3669 H   0  0  0  0  0  0  0  0  0  0  0  0
  -26.9209  -29.0540  -15.9120 H   0  0  0  0  0  0  0  0  0  0  0  0
  -25.3018  -31.7489  -19.5991 H   0  0  0  0  0  0  0  0  0  0  0  0
  -22.3551  -31.5413  -23.8793 H   0  0  0  0  0  0  0  0  0  0  0  0
  -29.5337  -29.6604  -21.6429 O   0  0  0  0  0  0  0  0  0  0  0  0
  -26.9340  -29.7898  -21.8372 C   0  0  0  0  0  0  0  0  0  0  0  0
  -28.6714  -31.8426  -21.2167 O   0  0  0  0  0  0  0  0  0  0  0  0
  -28.4464  -30.4259  -21.0902 S   0  0  0  0  0  0  0  0  0  0  0  0
  -24.9774  -29.5992  -21.1615 H   0  0  0  0  0  0  0  0  0  0  0  0
  -26.8953  -28.7327  -21.6765 H   0  0  0  0  0  0  0  0  0  0  0  0
  -26.9648  -29.9900  -22.8878 H   0  0  0  0  0  0  0  0  0  0  0  0
  -25.5915  -32.1711  -22.2300 H   0  0  0  0  0  0  0  0  0  0  0  0
  1  2  1  0  0  0  0
  1  3  1  0  0  0  0
  1  8  1  0  0  0  0
  3  6  1  0  0  0  0
  4  5  1  0  0  0  0
  4 13  2  0  0  0  0
  5 10  2  0  0  0  0
  6 15  1  0  0  0  0
  7  8  1  0  0  0  0
  7 15  1  0  0  0  0
  9 15  1  0  0  0  0
  9 16  1  0  0  0  0
 10 11  1  0  0  0  0
 10 16  1  0  0  0  0
 11 12  2  0  0  0  0
 12 13  1  0  0  0  0
 13 14  1  0  0  0  0
  2 17  1  0  0  0  0
  2 18  1  0  0  0  0
  2 19  1  0  0  0  0
  3 20  1  0  0  0  0
  3 21  1  0  0  0  0
  4 22  1  0  0  0  0
  6 23  1  0  0  0  0
  6 24  1  0  0  0  0
  7 25  1  0  0  0  0
  7 26  1  0  0  0  0
  8 27  1  0  0  0  0
  8 28  1  0  0  0  0
 11 29  1  0  0  0  0
 12 30  1  0  0  0  0
 16 31  1  0  0  0  0
  1 32  1  0  0  0  0
 33 36  2  0  0  0  0
 34 36  1  0  0  0  0
 35 36  2  0  0  0  0
 36  5  1  0  0  0  0
 34  9  1  0  0  0  0
  9 37  1  0  0  0  0
 34 38  1  0  0  0  0
 34 39  1  0  0  0  0
 15 40  1  0  0  0  0
M  CHG  2   1   1  15   1
M  END
> <BIOSOLVEIT.HYDE_ATOM_SCORES [kJ/mol]>
# Atom-ID; Total; Rec-Desolv; Rec-IA; Lig-Desolv; Lig-IA
1;1.8099;0.0000;0.0000;1.8099;0.0000
2;-1.6172;-0.8488;0.0000;-0.7684;0.0000
3;-2.9331;-1.5508;0.0000;-1.3823;0.0000
4;-1.7521;-0.6084;0.0000;-1.1437;0.0000
5;-0.1708;0.0000;0.0000;-0.1708;0.0000
6;-1.5383;-0.1977;0.0000;-1.3406;0.0000
7;2.2788;3.1380;0.0000;-0.8592;0.0000
8;0.0000;0.0000;0.0000;0.0000;0.0000
9;-1.3478;-0.5301;0.0000;-0.8177;0.0000
10;-0.4602;0.0000;0.0000;-0.4602;0.0000
11;-2.8394;-1.9544;0.0000;-0.8850;0.0000
12;-1.1550;-0.2740;0.0000;-0.8810;0.0000
13;-0.1684;0.0000;0.0000;-0.1684;0.0000
14;-4.8782;-3.3237;0.0000;-1.5545;0.0000
15;2.1190;0.0000;0.0000;2.1190;0.0000
16;1.3384;-0.7110;0.0000;2.0494;0.0000
33;-0.8316;-2.8355;0.0000;2.0038;0.0000
34;-3.3392;-1.8723;0.0000;-1.4669;0.0000
35;-5.5875;7.4968;-11.8058;2.5658;-3.8443
36;-0.0692;0.0000;0.0000;-0.0692;0.0000

> <BIOSOLVEIT.HYDE_ESTIMATED_AFFINITY_LOWER_BOUNDARY [nM]>
19838.482092

> <BIOSOLVEIT.HYDE_ESTIMATED_AFFINITY_UPPER_BOUNDARY [nM]>
1971070.490213

> <BIOSOLVEIT.HYDE_LIGAND_EFFICIENCY range: ++, +, 0, -, -->
-

> <BIOSOLVEIT.HYDE_LIGAND_LIPOPHILIC_EFFICIENCY range: ++, +, 0, -, -->
+

> <BIOSOLVEIT.INTER_CLASH range: red, yellow, green>
yellow

> <BIOSOLVEIT.INTRA_CLASH range: red, yellow, green>
green

> <BIOSOLVEIT.LOGP>
-1.5852

> <BIOSOLVEIT.MOLECULAR_WEIGHT>
301.383

> <BIOSOLVEIT.MOLECULE_CHECKSUM>
LTIxLjE0MTk7MS4wNTcwOQ==

> <BIOSOLVEIT.TORSION_QUALITY range: red, yellow, green, not rotatable>
green

> <BIOSOLVEIT.TPSA>
55.05

> <BIOSOLVEIT.OPTIBRIUM.2D6 affinity category>
medium

> <BIOSOLVEIT.OPTIBRIUM.BBB category>
-

> <BIOSOLVEIT.OPTIBRIUM.2C9 pKi>
4.74534

> <BIOSOLVEIT.OPTIBRIUM.hERG pIC50>
5.13954

> <BIOSOLVEIT.OPTIBRIUM.HIA category>
+

> <BIOSOLVEIT.OPTIBRIUM.BBB log([brain]:[blood])>
-0.402865

> <BIOSOLVEIT.OPTIBRIUM.logD>
-0.270114

> <BIOSOLVEIT.OPTIBRIUM.logP>
-0.467849

> <BIOSOLVEIT.OPTIBRIUM.logS>
4.23587

> <BIOSOLVEIT.OPTIBRIUM.logS @ pH7.4>
4.06067

> <BIOSOLVEIT.OPTIBRIUM.P-gp category>
yes

> <BIOSOLVEIT.OPTIBRIUM.PPB90 category>
low

$$$$
z0483a_z0764a_10
dcSeeSAR  12172411573D 1   1.00000     0.00000     0
SeeSAR 13.0.1 dcn76311
 32 33  0  0  0  0            999 V2000
  -28.8193  -29.4135  -18.4565 C   0  0  0  0  0  0  0  0  0  0  0  0
  -27.9616  -30.0260  -19.3806 C   0  0  0  0  0  0  0  0  0  0  0  0
  -24.7019  -30.7065  -23.6492 C   0  0  0  0  0  0  0  0  0  0  0  0
  -25.7164  -30.2941  -21.4217 C   0  0  2  0  0  0  0  0  0  0  0  0
  -26.6377  -30.3144  -19.0484 C   0  0  0  0  0  0  0  0  0  0  0  0
  -26.1468  -30.0603  -17.7796 C   0  0  0  0  0  0  0  0  0  0  0  0
  -27.0077  -29.4628  -16.8652 C   0  0  0  0  0  0  0  0  0  0  0  0
  -28.3193  -29.1319  -17.1892 C   0  0  0  0  0  0  0  0  0  0  0  0
  -25.3249  -31.3636  -22.4283 C   0  0  0  0  0  0  0  0  0  0  0  0
  -25.6160  -30.8934  -20.0208 C   0  0  0  0  0  0  0  0  0  0  0  0
  -29.8279  -29.1699  -18.7179 H   0  0  0  0  0  0  0  0  0  0  0  0
  -24.7174  -29.6433  -23.5291 H   0  0  0  0  0  0  0  0  0  0  0  0
  -23.3594  -31.1473  -23.7907 O   0  0  0  0  0  0  0  0  0  0  0  0
  -25.1424  -30.3141  -17.5121 H   0  0  0  0  0  0  0  0  0  0  0  0
  -26.6491  -29.2506  -15.8797 H   0  0  0  0  0  0  0  0  0  0  0  0
  -29.6455  -29.6494  -21.4202 O   0  0  0  0  0  0  0  0  0  0  0  0
  -27.0481  -29.6499  -21.7788 C   0  0  0  0  0  0  0  0  0  0  0  0
  -28.6691  -31.8329  -21.2661 O   0  0  0  0  0  0  0  0  0  0  0  0
  -28.5010  -30.4246  -21.0170 S   0  0  0  0  0  0  0  0  0  0  0  0
  -24.9747  -29.5252  -21.4831 H   0  0  0  0  0  0  0  0  0  0  0  0
  -27.0160  -28.6265  -21.4681 H   0  0  0  0  0  0  0  0  0  0  0  0
  -27.1654  -29.6966  -22.8413 H   0  0  0  0  0  0  0  0  0  0  0  0
  -24.6352  -30.7023  -19.6381 H   0  0  0  0  0  0  0  0  0  0  0  0
  -25.7724  -31.9496  -20.0902 H   0  0  0  0  0  0  0  0  0  0  0  0
  -29.2090  -28.4608  -16.1555 C   0  0  0  0  0  0  0  0  0  0  0  0
  -24.6174  -32.0311  -21.9825 H   0  0  0  0  0  0  0  0  0  0  0  0
  -26.1953  -31.9115  -22.7233 H   0  0  0  0  0  0  0  0  0  0  0  0
  -22.7843  -30.6864  -23.1148 H   0  0  0  0  0  0  0  0  0  0  0  0
  -25.2594  -30.9750  -24.5222 H   0  0  0  0  0  0  0  0  0  0  0  0
  -28.6599  -28.3239  -15.2474 H   0  0  0  0  0  0  0  0  0  0  0  0
  -29.5300  -27.5092  -16.5251 H   0  0  0  0  0  0  0  0  0  0  0  0
  -30.0633  -29.0766  -15.9664 H   0  0  0  0  0  0  0  0  0  0  0  0
  1  2  1  0  0  0  0
  1  8  2  0  0  0  0
  2  5  2  0  0  0  0
  3  9  1  0  0  0  0
  4  9  1  0  0  0  0
  4 10  1  0  0  0  0
  5  6  1  0  0  0  0
  5 10  1  0  0  0  0
  6  7  2  0  0  0  0
  7  8  1  0  0  0  0
  1 11  1  0  0  0  0
  3 12  1  0  0  0  0
  3 13  1  0  0  0  0
  6 14  1  0  0  0  0
  7 15  1  0  0  0  0
 16 19  2  0  0  0  0
 17 19  1  0  0  0  0
 18 19  2  0  0  0  0
 19  2  1  0  0  0  0
 17  4  1  0  0  0  0
  4 20  1  0  0  0  0
 17 21  1  0  0  0  0
 17 22  1  0  0  0  0
 10 23  1  0  0  0  0
 10 24  1  0  0  0  0
  8 25  1  0  0  0  0
  9 26  1  0  0  0  0
  9 27  1  0  0  0  0
 13 28  1  0  0  0  0
  3 29  1  0  0  0  0
 25 30  1  0  0  0  0
 25 31  1  0  0  0  0
 25 32  1  0  0  0  0
M  END
> <BIOSOLVEIT.HYDE_ATOM_SCORES [kJ/mol]>
# Atom-ID; Total; Rec-Desolv; Rec-IA; Lig-Desolv; Lig-IA
1;-2.8628;-1.8439;0.0000;-1.0190;0.0000
2;-0.1921;0.0000;0.0000;-0.1921;0.0000
3;-1.6331;-0.1477;0.0000;-1.4854;0.0000
4;-1.2181;-0.4964;0.0000;-0.7217;0.0000
5;-0.3269;0.0000;0.0000;-0.3269;0.0000
6;-0.8641;-0.1008;0.0000;-0.7633;0.0000
7;-3.9514;-3.0375;0.0000;-0.9139;0.0000
8;-0.1669;0.0000;0.0000;-0.1669;0.0000
9;-0.5864;0.0000;0.0000;-0.5864;0.0000
10;-1.7391;-0.6876;0.0000;-1.0515;0.0000
13;-1.9189;9.2655;-10.3994;8.8366;-9.6216
16;-1.0334;-3.0437;0.0000;2.0103;0.0000
17;-3.3547;-1.9383;0.0000;-1.4164;0.0000
18;-3.6554;-2.3120;-0.8304;0.0279;-0.5408
19;-0.0320;0.0000;0.0000;-0.0320;0.0000
25;-8.2055;-4.4418;0.0000;-3.7638;0.0000

> <BIOSOLVEIT.HYDE_ESTIMATED_AFFINITY_LOWER_BOUNDARY [nM]>
275.821629

> <BIOSOLVEIT.HYDE_ESTIMATED_AFFINITY_UPPER_BOUNDARY [nM]>
27404.509620

> <BIOSOLVEIT.HYDE_LIGAND_EFFICIENCY range: ++, +, 0, -, -->
+

> <BIOSOLVEIT.HYDE_LIGAND_LIPOPHILIC_EFFICIENCY range: ++, +, 0, -, -->
0

> <BIOSOLVEIT.INTER_CLASH range: red, yellow, green>
yellow

> <BIOSOLVEIT.INTRA_CLASH range: red, yellow, green>
green

> <BIOSOLVEIT.LOGP>
1.97402

> <BIOSOLVEIT.MOLECULAR_WEIGHT>
240.32

> <BIOSOLVEIT.MOLECULE_CHECKSUM>
LTMxLjc0MTsxLjk4Mzgx

> <BIOSOLVEIT.TORSION_QUALITY range: red, yellow, green, not rotatable>
yellow

> <BIOSOLVEIT.TPSA>
54.37

> <BIOSOLVEIT.OPTIBRIUM.2D6 affinity category>
low

> <BIOSOLVEIT.OPTIBRIUM.BBB category>
+

> <BIOSOLVEIT.OPTIBRIUM.2C9 pKi>
4.26051

> <BIOSOLVEIT.OPTIBRIUM.hERG pIC50>
4.62631

> <BIOSOLVEIT.OPTIBRIUM.HIA category>
+

> <BIOSOLVEIT.OPTIBRIUM.BBB log([brain]:[blood])>
-0.258512

> <BIOSOLVEIT.OPTIBRIUM.logD>
1.30234

> <BIOSOLVEIT.OPTIBRIUM.logP>
1.30234

> <BIOSOLVEIT.OPTIBRIUM.logS>
2.90455

> <BIOSOLVEIT.OPTIBRIUM.logS @ pH7.4>
2.90455

> <BIOSOLVEIT.OPTIBRIUM.P-gp category>
no

> <BIOSOLVEIT.OPTIBRIUM.PPB90 category>
low

$$$$
z0483a_z0764a_2
dcSeeSAR  12172411573D 1   1.00000     0.00000     0
SeeSAR 13.0.1 dcn76311
 43 45  0  0  0  0            999 V2000
  -22.9951  -32.2014  -23.9543 N   0  3  1  0  0  0  0  0  0  0  0  0
  -22.4350  -33.1814  -24.8960 C   0  0  0  0  0  0  0  0  0  0  0  0
  -24.2968  -31.7477  -24.4680 C   0  0  0  0  0  0  0  0  0  0  0  0
  -28.9031  -29.3133  -18.5637 C   0  0  0  0  0  0  0  0  0  0  0  0
  -28.0422  -30.0329  -19.3840 C   0  0  0  0  0  0  0  0  0  0  0  0
  -24.8936  -30.7279  -23.5107 C   0  0  0  0  0  0  0  0  0  0  0  0
  -23.7315  -31.7868  -21.6453 C   0  0  0  0  0  0  0  0  0  0  0  0
  -23.1362  -32.7944  -22.6161 C   0  0  0  0  0  0  0  0  0  0  0  0
  -25.6972  -30.4195  -21.2403 C   0  0  2  0  0  0  0  0  0  0  0  0
  -26.7669  -30.4032  -18.9945 C   0  0  0  0  0  0  0  0  0  0  0  0
  -26.3650  -30.1421  -17.6928 C   0  0  0  0  0  0  0  0  0  0  0  0
  -27.2216  -29.4479  -16.8428 C   0  0  0  0  0  0  0  0  0  0  0  0
  -28.4660  -29.0073  -17.2815 C   0  0  0  0  0  0  0  0  0  0  0  0
  -29.3664  -28.1685  -16.3890 C   0  0  0  0  0  0  0  0  0  0  0  0
  -25.0251  -31.3321  -22.1764 N   0  3  1  0  0  0  0  0  0  0  0  0
  -25.8318  -31.0058  -19.8954 N   0  0  0  0  0  0  0  0  0  0  0  0
  -21.4867  -33.5210  -24.5352 H   0  0  0  0  0  0  0  0  0  0  0  0
  -23.1022  -34.0134  -24.9836 H   0  0  0  0  0  0  0  0  0  0  0  0
  -22.3087  -32.7231  -25.8546 H   0  0  0  0  0  0  0  0  0  0  0  0
  -24.9574  -32.5850  -24.5542 H   0  0  0  0  0  0  0  0  0  0  0  0
  -24.1633  -31.2982  -25.4298 H   0  0  0  0  0  0  0  0  0  0  0  0
  -29.8684  -29.0059  -18.9080 H   0  0  0  0  0  0  0  0  0  0  0  0
  -25.8580  -30.4279  -23.8638 H   0  0  0  0  0  0  0  0  0  0  0  0
  -24.2526  -29.8729  -23.4542 H   0  0  0  0  0  0  0  0  0  0  0  0
  -23.0705  -30.9517  -21.5421 H   0  0  0  0  0  0  0  0  0  0  0  0
  -23.8755  -32.2477  -20.6905 H   0  0  0  0  0  0  0  0  0  0  0  0
  -22.1730  -33.0974  -22.2622 H   0  0  0  0  0  0  0  0  0  0  0  0
  -23.7790  -33.6478  -22.6755 H   0  0  0  0  0  0  0  0  0  0  0  0
  -25.4075  -30.4704  -17.3459 H   0  0  0  0  0  0  0  0  0  0  0  0
  -26.9180  -29.2503  -15.8360 H   0  0  0  0  0  0  0  0  0  0  0  0
  -25.2878  -31.7988  -19.6210 H   0  0  0  0  0  0  0  0  0  0  0  0
  -22.3777  -31.4168  -23.8976 H   0  0  0  0  0  0  0  0  0  0  0  0
  -29.5833  -29.7350  -21.5543 O   0  0  0  0  0  0  0  0  0  0  0  0
  -26.9840  -29.8060  -21.7804 C   0  0  0  0  0  0  0  0  0  0  0  0
  -28.6731  -31.9113  -21.2043 O   0  0  0  0  0  0  0  0  0  0  0  0
  -28.4749  -30.4949  -21.0370 S   0  0  0  0  0  0  0  0  0  0  0  0
  -25.0240  -29.5965  -21.1204 H   0  0  0  0  0  0  0  0  0  0  0  0
  -26.9644  -28.7536  -21.5879 H   0  0  0  0  0  0  0  0  0  0  0  0
  -27.0228  -29.9748  -22.8363 H   0  0  0  0  0  0  0  0  0  0  0  0
  -28.8919  -28.0211  -15.4414 H   0  0  0  0  0  0  0  0  0  0  0  0
  -29.5426  -27.2197  -16.8512 H   0  0  0  0  0  0  0  0  0  0  0  0
  -30.2984  -28.6744  -16.2464 H   0  0  0  0  0  0  0  0  0  0  0  0
  -25.6068  -32.1399  -22.2725 H   0  0  0  0  0  0  0  0  0  0  0  0
  1  2  1  0  0  0  0
  1  3  1  0  0  0  0
  1  8  1  0  0  0  0
  3  6  1  0  0  0  0
  4  5  1  0  0  0  0
  4 13  2  0  0  0  0
  5 10  2  0  0  0  0
  6 15  1  0  0  0  0
  7  8  1  0  0  0  0
  7 15  1  0  0  0  0
  9 15  1  0  0  0  0
  9 16  1  0  0  0  0
 10 11  1  0  0  0  0
 10 16  1  0  0  0  0
 11 12  2  0  0  0  0
 12 13  1  0  0  0  0
 13 14  1  0  0  0  0
  2 17  1  0  0  0  0
  2 18  1  0  0  0  0
  2 19  1  0  0  0  0
  3 20  1  0  0  0  0
  3 21  1  0  0  0  0
  4 22  1  0  0  0  0
  6 23  1  0  0  0  0
  6 24  1  0  0  0  0
  7 25  1  0  0  0  0
  7 26  1  0  0  0  0
  8 27  1  0  0  0  0
  8 28  1  0  0  0  0
 11 29  1  0  0  0  0
 12 30  1  0  0  0  0
 16 31  1  0  0  0  0
  1 32  1  0  0  0  0
 33 36  2  0  0  0  0
 34 36  1  0  0  0  0
 35 36  2  0  0  0  0
 36  5  1  0  0  0  0
 34  9  1  0  0  0  0
  9 37  1  0  0  0  0
 34 38  1  0  0  0  0
 34 39  1  0  0  0  0
 14 40  1  0  0  0  0
 14 41  1  0  0  0  0
 14 42  1  0  0  0  0
 15 43  1  0  0  0  0
M  CHG  2   1   1  15   1
M  END
> <BIOSOLVEIT.HYDE_ATOM_SCORES [kJ/mol]>
# Atom-ID; Total; Rec-Desolv; Rec-IA; Lig-Desolv; Lig-IA
1;2.7666;0.0000;0.0000;2.7666;0.0000
2;-1.8223;-1.0539;0.0000;-0.7684;0.0000
3;-3.1718;-1.8955;0.0000;-1.2763;0.0000
4;-2.1496;-1.0807;0.0000;-1.0689;0.0000
5;-0.1857;0.0000;0.0000;-0.1857;0.0000
6;-1.4329;0.0000;0.0000;-1.4329;0.0000
7;2.2353;3.0946;0.0000;-0.8593;0.0000
8;0.0000;0.0000;0.0000;0.0000;0.0000
9;-1.2639;-0.4577;0.0000;-0.8063;0.0000
10;-0.4161;0.0000;0.0000;-0.4161;0.0000
11;-3.5624;-2.6038;0.0000;-0.9586;0.0000
12;-1.3439;-0.5515;0.0000;-0.7924;0.0000
13;-0.1004;0.0000;0.0000;-0.1004;0.0000
14;-8.0154;-4.2511;0.0000;-3.7643;0.0000
15;2.3566;0.0000;0.0000;2.3566;0.0000
16;1.0556;-0.6695;0.0000;1.7251;0.0000
33;-0.7259;-2.8269;0.0000;2.1009;0.0000
34;-3.1997;-1.7972;0.0000;-1.4025;0.0000
35;-5.5986;7.4066;-11.7789;2.6094;-3.8356
36;-0.0692;0.0000;0.0000;-0.0692;0.0000

> <BIOSOLVEIT.HYDE_ESTIMATED_AFFINITY_LOWER_BOUNDARY [nM]>
4830.675575

> <BIOSOLVEIT.HYDE_ESTIMATED_AFFINITY_UPPER_BOUNDARY [nM]>
479956.179548

> <BIOSOLVEIT.HYDE_LIGAND_EFFICIENCY range: ++, +, 0, -, -->
-

> <BIOSOLVEIT.HYDE_LIGAND_LIPOPHILIC_EFFICIENCY range: ++, +, 0, -, -->
+

> <BIOSOLVEIT.INTER_CLASH range: red, yellow, green>
red

> <BIOSOLVEIT.INTRA_CLASH range: red, yellow, green>
green

> <BIOSOLVEIT.LOGP>
-1.41588

> <BIOSOLVEIT.MOLECULAR_WEIGHT>
297.42

> <BIOSOLVEIT.MOLECULE_CHECKSUM>
LTI0LjY0Mzc7MS4yMzIxOQ==

> <BIOSOLVEIT.TORSION_QUALITY range: red, yellow, green, not rotatable>
green

> <BIOSOLVEIT.TPSA>
55.05

> <BIOSOLVEIT.OPTIBRIUM.2D6 affinity category>
medium

> <BIOSOLVEIT.OPTIBRIUM.BBB category>
-

> <BIOSOLVEIT.OPTIBRIUM.2C9 pKi>
4.52425

> <BIOSOLVEIT.OPTIBRIUM.hERG pIC50>
4.82035

> <BIOSOLVEIT.OPTIBRIUM.HIA category>
+

> <BIOSOLVEIT.OPTIBRIUM.BBB log([brain]:[blood])>
-0.446236

> <BIOSOLVEIT.OPTIBRIUM.logD>
-0.301334

> <BIOSOLVEIT.OPTIBRIUM.logP>
-0.398331

> <BIOSOLVEIT.OPTIBRIUM.logS>
4.63283

> <BIOSOLVEIT.OPTIBRIUM.logS @ pH7.4>
4.00828

> <BIOSOLVEIT.OPTIBRIUM.P-gp category>
yes

> <BIOSOLVEIT.OPTIBRIUM.PPB90 category>
low

$$$$
z0483a_z0764a_3
dcSeeSAR  12172411573D 1   1.00000     0.00000     0
SeeSAR 13.0.1 dcn76311
 44 46  0  0  0  0            999 V2000
  -23.2526  -32.5378  -24.0718 N   0  3  1  0  0  0  0  0  0  0  0  0
  -22.8843  -33.6000  -25.0190 C   0  0  0  0  0  0  0  0  0  0  0  0
  -24.4917  -31.8991  -24.5416 C   0  0  0  0  0  0  0  0  0  0  0  0
  -28.8317  -29.3713  -18.5703 C   0  0  0  0  0  0  0  0  0  0  0  0
  -27.9336  -30.0296  -19.3957 C   0  0  0  0  0  0  0  0  0  0  0  0
  -24.8897  -30.7921  -23.5781 C   0  0  0  0  0  0  0  0  0  0  0  0
  -23.8238  -31.9950  -21.7428 C   0  0  0  0  0  0  0  0  0  0  0  0
  -23.4260  -33.0899  -22.7200 C   0  0  0  0  0  0  0  0  0  0  0  0
  -25.5448  -30.3444  -21.2833 C   0  0  2  0  0  0  0  0  0  0  0  0
  -26.6403  -30.3610  -19.0049 C   0  0  0  0  0  0  0  0  0  0  0  0
  -26.2535  -30.0811  -17.6990 C   0  0  0  0  0  0  0  0  0  0  0  0
  -27.1402  -29.4389  -16.8467 C   0  0  0  0  0  0  0  0  0  0  0  0
  -28.4072  -29.0732  -17.2816 C   0  0  0  0  0  0  0  0  0  0  0  0
  -29.3464  -28.3127  -16.3597 C   0  0  0  0  0  0  0  0  0  0  0  0
  -25.0555  -31.3566  -22.2303 N   0  3  1  0  0  0  0  0  0  0  0  0
  -25.5680  -30.9781  -19.8921 C   0  0  0  0  0  0  0  0  0  0  0  0
  -21.9834  -34.0746  -24.6900 H   0  0  0  0  0  0  0  0  0  0  0  0
  -23.6713  -34.3233  -25.0674 H   0  0  0  0  0  0  0  0  0  0  0  0
  -22.7300  -33.1753  -25.9889 H   0  0  0  0  0  0  0  0  0  0  0  0
  -25.2730  -32.6286  -24.5888 H   0  0  0  0  0  0  0  0  0  0  0  0
  -24.3319  -31.4842  -25.5149 H   0  0  0  0  0  0  0  0  0  0  0  0
  -29.8102  -29.1040  -18.9112 H   0  0  0  0  0  0  0  0  0  0  0  0
  -25.8121  -30.3543  -23.8980 H   0  0  0  0  0  0  0  0  0  0  0  0
  -24.1264  -30.0424  -23.5600 H   0  0  0  0  0  0  0  0  0  0  0  0
  -23.0418  -31.2674  -21.6786 H   0  0  0  0  0  0  0  0  0  0  0  0
  -23.9962  -32.4196  -20.7759 H   0  0  0  0  0  0  0  0  0  0  0  0
  -22.5053  -33.5305  -22.3990 H   0  0  0  0  0  0  0  0  0  0  0  0
  -24.1911  -33.8377  -22.7408 H   0  0  0  0  0  0  0  0  0  0  0  0
  -25.2795  -30.3589  -17.3540 H   0  0  0  0  0  0  0  0  0  0  0  0
  -26.8439  -29.2228  -15.8414 H   0  0  0  0  0  0  0  0  0  0  0  0
  -22.5230  -31.8542  -24.0516 H   0  0  0  0  0  0  0  0  0  0  0  0
  -29.4770  -29.6997  -21.5459 O   0  0  0  0  0  0  0  0  0  0  0  0
  -26.8601  -29.7391  -21.7666 C   0  0  0  0  0  0  0  0  0  0  0  0
  -28.5325  -31.8800  -21.2624 O   0  0  0  0  0  0  0  0  0  0  0  0
  -28.3607  -30.4654  -21.0549 S   0  0  0  0  0  0  0  0  0  0  0  0
  -24.8221  -29.5557  -21.2606 H   0  0  0  0  0  0  0  0  0  0  0  0
  -26.8518  -28.6967  -21.5252 H   0  0  0  0  0  0  0  0  0  0  0  0
  -26.9075  -29.8589  -22.8288 H   0  0  0  0  0  0  0  0  0  0  0  0
  -28.8730  -28.1644  -15.4117 H   0  0  0  0  0  0  0  0  0  0  0  0
  -29.5809  -27.3632  -16.7938 H   0  0  0  0  0  0  0  0  0  0  0  0
  -30.2466  -28.8752  -16.2248 H   0  0  0  0  0  0  0  0  0  0  0  0
  -24.6132  -30.8354  -19.4310 H   0  0  0  0  0  0  0  0  0  0  0  0
  -25.7626  -32.0255  -19.9924 H   0  0  0  0  0  0  0  0  0  0  0  0
  -25.7550  -32.0689  -22.2909 H   0  0  0  0  0  0  0  0  0  0  0  0
  1  2  1  0  0  0  0
  1  3  1  0  0  0  0
  1  8  1  0  0  0  0
  3  6  1  0  0  0  0
  4  5  1  0  0  0  0
  4 13  2  0  0  0  0
  5 10  2  0  0  0  0
  6 15  1  0  0  0  0
  7  8  1  0  0  0  0
  7 15  1  0  0  0  0
  9 15  1  0  0  0  0
  9 16  1  0  0  0  0
 10 11  1  0  0  0  0
 10 16  1  0  0  0  0
 11 12  2  0  0  0  0
 12 13  1  0  0  0  0
 13 14  1  0  0  0  0
  2 17  1  0  0  0  0
  2 18  1  0  0  0  0
  2 19  1  0  0  0  0
  3 20  1  0  0  0  0
  3 21  1  0  0  0  0
  4 22  1  0  0  0  0
  6 23  1  0  0  0  0
  6 24  1  0  0  0  0
  7 25  1  0  0  0  0
  7 26  1  0  0  0  0
  8 27  1  0  0  0  0
  8 28  1  0  0  0  0
 11 29  1  0  0  0  0
 12 30  1  0  0  0  0
  1 31  1  0  0  0  0
 32 35  2  0  0  0  0
 33 35  1  0  0  0  0
 34 35  2  0  0  0  0
 35  5  1  0  0  0  0
 33  9  1  0  0  0  0
  9 36  1  0  0  0  0
 33 37  1  0  0  0  0
 33 38  1  0  0  0  0
 14 39  1  0  0  0  0
 14 40  1  0  0  0  0
 14 41  1  0  0  0  0
 16 42  1  0  0  0  0
 16 43  1  0  0  0  0
 15 44  1  0  0  0  0
M  CHG  2   1   1  15   1
M  END
> <BIOSOLVEIT.HYDE_ATOM_SCORES [kJ/mol]>
# Atom-ID; Total; Rec-Desolv; Rec-IA; Lig-Desolv; Lig-IA
1;0.7693;-0.1585;0.0000;0.9278;0.0000
2;-0.8144;-0.1380;0.0000;-0.6764;0.0000
3;-3.5424;-2.0070;0.0000;-1.5354;0.0000
4;-2.0157;-1.0807;0.0000;-0.9350;0.0000
5;-0.1862;0.0000;0.0000;-0.1862;0.0000
6;-1.3511;-0.0517;0.0000;-1.2994;0.0000
7;2.2791;2.6366;0.0000;-0.3575;0.0000
8;0.0000;0.0000;0.0000;0.0000;0.0000
9;-1.3125;-0.4778;0.0000;-0.8346;0.0000
10;-0.3076;0.0000;0.0000;-0.3076;0.0000
11;-3.2748;-2.5968;0.0000;-0.6780;0.0000
12;-1.5156;-0.5515;0.0000;-0.9641;0.0000
13;-0.1687;0.0000;0.0000;-0.1687;0.0000
14;-7.9885;-4.2139;0.0000;-3.7746;0.0000
15;6.1582;0.0000;0.0000;6.1582;0.0000
16;-1.8204;-0.7940;0.0000;-1.0264;0.0000
32;-0.9563;-2.6803;0.0000;1.7240;0.0000
33;-3.1024;-1.8078;0.0000;-1.2947;0.0000
34;-5.7251;7.7713;-12.1863;2.6581;-3.9683
35;-0.0320;0.0000;0.0000;-0.0320;0.0000

> <BIOSOLVEIT.HYDE_ESTIMATED_AFFINITY_LOWER_BOUNDARY [nM]>
4343.687191

> <BIOSOLVEIT.HYDE_ESTIMATED_AFFINITY_UPPER_BOUNDARY [nM]>
431571.004327

> <BIOSOLVEIT.HYDE_LIGAND_EFFICIENCY range: ++, +, 0, -, -->
-

> <BIOSOLVEIT.HYDE_LIGAND_LIPOPHILIC_EFFICIENCY range: ++, +, 0, -, -->
+

> <BIOSOLVEIT.INTER_CLASH range: red, yellow, green>
yellow

> <BIOSOLVEIT.INTRA_CLASH range: red, yellow, green>
green

> <BIOSOLVEIT.LOGP>
-1.24278

> <BIOSOLVEIT.MOLECULAR_WEIGHT>
296.432

> <BIOSOLVEIT.MOLECULE_CHECKSUM>
LTI0LjkwNzI7MS4yNDUzNg==

> <BIOSOLVEIT.TORSION_QUALITY range: red, yellow, green, not rotatable>
green

> <BIOSOLVEIT.TPSA>
43.02

> <BIOSOLVEIT.OPTIBRIUM.2D6 affinity category>
medium

> <BIOSOLVEIT.OPTIBRIUM.BBB category>
+

> <BIOSOLVEIT.OPTIBRIUM.2C9 pKi>
4.71843

> <BIOSOLVEIT.OPTIBRIUM.hERG pIC50>
5.04142

> <BIOSOLVEIT.OPTIBRIUM.HIA category>
+

> <BIOSOLVEIT.OPTIBRIUM.BBB log([brain]:[blood])>
-0.6145

> <BIOSOLVEIT.OPTIBRIUM.logD>
-0.445611

> <BIOSOLVEIT.OPTIBRIUM.logP>
0.102871

> <BIOSOLVEIT.OPTIBRIUM.logS>
4.22668

> <BIOSOLVEIT.OPTIBRIUM.logS @ pH7.4>
3.70216

> <BIOSOLVEIT.OPTIBRIUM.P-gp category>
no

> <BIOSOLVEIT.OPTIBRIUM.PPB90 category>
low

$$$$
z0483a_z0764a_4
dcSeeSAR  12172411573D 1   1.00000     0.00000     0
SeeSAR 13.0.1 dcn76311
 41 43  0  0  0  0            999 V2000
  -23.7318  -34.7915  -24.3055 N   0  3  1  0  0  0  0  0  0  0  0  0
  -24.0214  -35.9945  -25.0992 C   0  0  0  0  0  0  0  0  0  0  0  0
  -24.5975  -33.6991  -24.7763 C   0  0  0  0  0  0  0  0  0  0  0  0
  -26.6013  -28.9901  -18.9237 C   0  0  0  0  0  0  0  0  0  0  0  0
  -26.1469  -30.0282  -19.7488 C   0  0  0  0  0  0  0  0  0  0  0  0
  -24.3114  -32.4412  -23.9712 C   0  0  0  0  0  0  0  0  0  0  0  0
  -23.6650  -33.8048  -22.0544 C   0  0  0  0  0  0  0  0  0  0  0  0
  -23.9478  -35.0536  -22.8748 C   0  0  0  0  0  0  0  0  0  0  0  0
  -24.3664  -31.5022  -21.7328 C   0  0  2  0  0  0  0  0  0  0  0  0
  -25.0515  -30.8098  -19.3805 C   0  0  0  0  0  0  0  0  0  0  0  0
  -24.4171  -30.6246  -18.1645 C   0  0  0  0  0  0  0  0  0  0  0  0
  -24.8813  -29.5999  -17.3468 C   0  0  0  0  0  0  0  0  0  0  0  0
  -25.9471  -28.7846  -17.7132 C   0  0  0  0  0  0  0  0  0  0  0  0
  -24.5269  -32.7182  -22.5431 N   0  3  1  0  0  0  0  0  0  0  0  0
  -24.4379  -31.8946  -20.2587 C   0  0  0  0  0  0  0  0  0  0  0  0
  -23.3985  -36.7989  -24.7679 H   0  0  0  0  0  0  0  0  0  0  0  0
  -25.0492  -36.2648  -24.9750 H   0  0  0  0  0  0  0  0  0  0  0  0
  -23.8273  -35.7953  -26.1324 H   0  0  0  0  0  0  0  0  0  0  0  0
  -25.6229  -33.9774  -24.6503 H   0  0  0  0  0  0  0  0  0  0  0  0
  -24.4034  -33.5116  -25.8117 H   0  0  0  0  0  0  0  0  0  0  0  0
  -27.4262  -28.3745  -19.2160 H   0  0  0  0  0  0  0  0  0  0  0  0
  -24.9687  -31.6580  -24.2864 H   0  0  0  0  0  0  0  0  0  0  0  0
  -23.2967  -32.1398  -24.1277 H   0  0  0  0  0  0  0  0  0  0  0  0
  -22.6376  -33.5269  -22.1634 H   0  0  0  0  0  0  0  0  0  0  0  0
  -23.8755  -33.9958  -21.0229 H   0  0  0  0  0  0  0  0  0  0  0  0
  -23.2930  -35.8383  -22.5581 H   0  0  0  0  0  0  0  0  0  0  0  0
  -24.9635  -35.3528  -22.7212 H   0  0  0  0  0  0  0  0  0  0  0  0
  -23.5999  -31.2468  -17.8647 H   0  0  0  0  0  0  0  0  0  0  0  0
  -24.4028  -29.4332  -16.4044 H   0  0  0  0  0  0  0  0  0  0  0  0
  -22.7765  -34.5320  -24.4470 H   0  0  0  0  0  0  0  0  0  0  0  0
  -27.6421  -29.2402  -21.8179 O   0  0  0  0  0  0  0  0  0  0  0  0
  -25.3196  -30.4028  -22.1782 C   0  0  0  0  0  0  0  0  0  0  0  0
  -27.6758  -31.5895  -21.3441 O   0  0  0  0  0  0  0  0  0  0  0  0
  -26.9104  -30.3703  -21.3069 S   0  0  0  0  0  0  0  0  0  0  0  0
  -23.3745  -31.1418  -21.9090 H   0  0  0  0  0  0  0  0  0  0  0  0
  -24.8363  -29.4610  -22.0227 H   0  0  0  0  0  0  0  0  0  0  0  0
  -25.5151  -30.5354  -23.2218 H   0  0  0  0  0  0  0  0  0  0  0  0
  -23.4459  -32.0939  -19.9108 H   0  0  0  0  0  0  0  0  0  0  0  0
  -25.0315  -32.7804  -20.1705 H   0  0  0  0  0  0  0  0  0  0  0  0
  -26.2648  -27.9971  -17.0622 H   0  0  0  0  0  0  0  0  0  0  0  0
  -25.4742  -33.0211  -22.4392 H   0  0  0  0  0  0  0  0  0  0  0  0
  1  2  1  0  0  0  0
  1  3  1  0  0  0  0
  1  8  1  0  0  0  0
  3  6  1  0  0  0  0
  4  5  1  0  0  0  0
  4 13  2  0  0  0  0
  5 10  2  0  0  0  0
  6 14  1  0  0  0  0
  7  8  1  0  0  0  0
  7 14  1  0  0  0  0
  9 14  1  0  0  0  0
  9 15  1  0  0  0  0
 10 11  1  0  0  0  0
 10 15  1  0  0  0  0
 11 12  2  0  0  0  0
 12 13  1  0  0  0  0
  2 16  1  0  0  0  0
  2 17  1  0  0  0  0
  2 18  1  0  0  0  0
  3 19  1  0  0  0  0
  3 20  1  0  0  0  0
  4 21  1  0  0  0  0
  6 22  1  0  0  0  0
  6 23  1  0  0  0  0
  7 24  1  0  0  0  0
  7 25  1  0  0  0  0
  8 26  1  0  0  0  0
  8 27  1  0  0  0  0
 11 28  1  0  0  0  0
 12 29  1  0  0  0  0
  1 30  1  0  0  0  0
 31 34  2  0  0  0  0
 32 34  1  0  0  0  0
 33 34  2  0  0  0  0
 34  5  1  0  0  0  0
 32  9  1  0  0  0  0
  9 35  1  0  0  0  0
 32 36  1  0  0  0  0
 32 37  1  0  0  0  0
 15 38  1  0  0  0  0
 15 39  1  0  0  0  0
 13 40  1  0  0  0  0
 14 41  1  0  0  0  0
M  CHG  2   1   1  14   1
M  END
> <BIOSOLVEIT.HYDE_ATOM_SCORES [kJ/mol]>
# Atom-ID; Total; Rec-Desolv; Rec-IA; Lig-Desolv; Lig-IA
1;-0.0453;-0.0460;0.0000;0.0007;0.0000
2;0.0000;0.0000;0.0000;0.0000;0.0000
3;-0.5733;0.0000;0.0000;-0.5733;0.0000
4;-1.5967;-0.7097;0.0000;-0.8869;0.0000
5;-0.2640;0.0000;0.0000;-0.2640;0.0000
6;-2.3247;-1.3352;0.0000;-0.9895;0.0000
7;-0.1390;0.0000;0.0000;-0.1390;0.0000
8;-1.0127;-0.5562;0.0000;-0.4565;0.0000
9;1.4230;1.7556;0.0000;-0.3326;0.0000
10;-1.6684;-1.2224;0.0000;-0.4460;0.0000
11;-2.7185;-1.4386;0.0000;-1.2800;0.0000
12;-1.1566;-0.2373;0.0000;-0.9193;0.0000
13;-3.1214;-2.0087;0.0000;-1.1128;0.0000
14;6.3025;0.0000;0.0000;6.3025;0.0000
15;-2.0874;-1.2136;0.0000;-0.8738;0.0000
31;-1.3396;-2.6374;0.0000;1.2978;0.0000
32;-1.2422;0.0000;0.0000;-1.2422;0.0000
33;-4.9568;8.4857;-12.1904;2.7175;-3.9696
34;-0.0111;0.0000;0.0000;-0.0111;0.0000

> <BIOSOLVEIT.HYDE_ESTIMATED_AFFINITY_LOWER_BOUNDARY [nM]>
127369.853766

> <BIOSOLVEIT.HYDE_ESTIMATED_AFFINITY_UPPER_BOUNDARY [nM]>
12654948.041852

> <BIOSOLVEIT.HYDE_LIGAND_EFFICIENCY range: ++, +, 0, -, -->
-

> <BIOSOLVEIT.HYDE_LIGAND_LIPOPHILIC_EFFICIENCY range: ++, +, 0, -, -->
0

> <BIOSOLVEIT.INTER_CLASH range: red, yellow, green>
green

> <BIOSOLVEIT.INTRA_CLASH range: red, yellow, green>
green

> <BIOSOLVEIT.LOGP>
-1.5512

> <BIOSOLVEIT.MOLECULAR_WEIGHT>
282.405

> <BIOSOLVEIT.MOLECULE_CHECKSUM>
LTE2LjUzMjM7MC44NzAxMjI=

> <BIOSOLVEIT.TORSION_QUALITY range: red, yellow, green, not rotatable>
green

> <BIOSOLVEIT.TPSA>
43.02

> <BIOSOLVEIT.OPTIBRIUM.2D6 affinity category>
medium

> <BIOSOLVEIT.OPTIBRIUM.BBB category>
+

> <BIOSOLVEIT.OPTIBRIUM.2C9 pKi>
4.59231

> <BIOSOLVEIT.OPTIBRIUM.hERG pIC50>
5.00214

> <BIOSOLVEIT.OPTIBRIUM.HIA category>
+

> <BIOSOLVEIT.OPTIBRIUM.BBB log([brain]:[blood])>
-0.622617

> <BIOSOLVEIT.OPTIBRIUM.logD>
-0.621842

> <BIOSOLVEIT.OPTIBRIUM.logP>
-0.226969

> <BIOSOLVEIT.OPTIBRIUM.logS>
4.36261

> <BIOSOLVEIT.OPTIBRIUM.logS @ pH7.4>
3.73747

> <BIOSOLVEIT.OPTIBRIUM.P-gp category>
no

> <BIOSOLVEIT.OPTIBRIUM.PPB90 category>
low

$$$$
z0483a_z0764a_5
dcSeeSAR  12172411573D 1   1.00000     0.00000     0
SeeSAR 13.0.1 dcn76311
 41 43  0  0  0  0            999 V2000
  -23.2990  -32.7934  -24.2038 N   0  3  1  0  0  0  0  0  0  0  0  0
  -23.0181  -33.8873  -25.1448 C   0  0  0  0  0  0  0  0  0  0  0  0
  -24.5091  -32.0875  -24.6525 C   0  0  0  0  0  0  0  0  0  0  0  0
  -28.6022  -29.4703  -18.5753 C   0  0  0  0  0  0  0  0  0  0  0  0
  -27.7147  -30.1066  -19.4540 C   0  0  0  0  0  0  0  0  0  0  0  0
  -24.8165  -30.9470  -23.6948 C   0  0  0  0  0  0  0  0  0  0  0  0
  -23.7790  -32.1889  -21.8693 C   0  0  0  0  0  0  0  0  0  0  0  0
  -23.4715  -33.3176  -22.8408 C   0  0  0  0  0  0  0  0  0  0  0  0
  -25.3867  -30.4327  -21.3914 C   0  0  2  0  0  0  0  0  0  0  0  0
  -26.4113  -30.4114  -19.0608 C   0  0  0  0  0  0  0  0  0  0  0  0
  -25.9725  -30.1499  -17.7745 C   0  0  0  0  0  0  0  0  0  0  0  0
  -26.8630  -29.5287  -16.9054 C   0  0  0  0  0  0  0  0  0  0  0  0
  -28.1538  -29.1817  -17.2903 C   0  0  0  0  0  0  0  0  0  0  0  0
  -24.9823  -31.4840  -22.3359 N   0  3  1  0  0  0  0  0  0  0  0  0
  -25.3573  -31.0172  -19.9809 C   0  0  0  0  0  0  0  0  0  0  0  0
  -22.1393  -34.4109  -24.8312 H   0  0  0  0  0  0  0  0  0  0  0  0
  -23.8478  -34.5627  -25.1644 H   0  0  0  0  0  0  0  0  0  0  0  0
  -22.8631  -33.4845  -26.1239 H   0  0  0  0  0  0  0  0  0  0  0  0
  -25.3335  -32.7694  -24.6708 H   0  0  0  0  0  0  0  0  0  0  0  0
  -24.3491  -31.6948  -25.6349 H   0  0  0  0  0  0  0  0  0  0  0  0
  -29.5944  -29.2144  -18.8834 H   0  0  0  0  0  0  0  0  0  0  0  0
  -25.7188  -30.4587  -23.9986 H   0  0  0  0  0  0  0  0  0  0  0  0
  -24.0098  -30.2442  -23.7054 H   0  0  0  0  0  0  0  0  0  0  0  0
  -22.9537  -31.5089  -21.8340 H   0  0  0  0  0  0  0  0  0  0  0  0
  -23.9523  -32.5907  -20.8929 H   0  0  0  0  0  0  0  0  0  0  0  0
  -22.5709  -33.8085  -22.5360 H   0  0  0  0  0  0  0  0  0  0  0  0
  -24.2799  -34.0185  -22.8330 H   0  0  0  0  0  0  0  0  0  0  0  0
  -24.9848  -30.4159  -17.4604 H   0  0  0  0  0  0  0  0  0  0  0  0
  -26.5446  -29.3105  -15.9074 H   0  0  0  0  0  0  0  0  0  0  0  0
  -22.5297  -32.1546  -24.2104 H   0  0  0  0  0  0  0  0  0  0  0  0
  -29.3016  -29.7281  -21.5697 O   0  0  0  0  0  0  0  0  0  0  0  0
  -26.6912  -29.7725  -21.8136 C   0  0  0  0  0  0  0  0  0  0  0  0
  -28.3674  -31.9243  -21.3488 O   0  0  0  0  0  0  0  0  0  0  0  0
  -28.1881  -30.5159  -21.1081 S   0  0  0  0  0  0  0  0  0  0  0  0
  -24.6310  -29.6762  -21.4285 H   0  0  0  0  0  0  0  0  0  0  0  0
  -26.6566  -28.7463  -21.5131 H   0  0  0  0  0  0  0  0  0  0  0  0
  -26.7627  -29.8299  -22.8797 H   0  0  0  0  0  0  0  0  0  0  0  0
  -24.3913  -30.8367  -19.5576 H   0  0  0  0  0  0  0  0  0  0  0  0
  -25.5271  -32.0716  -20.0455 H   0  0  0  0  0  0  0  0  0  0  0  0
  -29.3444  -28.2833  -16.0188 Br  0  0  0  0  0  0  0  0  0  0  0  0
  -25.7241  -32.1538  -22.3700 H   0  0  0  0  0  0  0  0  0  0  0  0
  1  2  1  0  0  0  0
  1  3  1  0  0  0  0
  1  8  1  0  0  0  0
  3  6  1  0  0  0  0
  4  5  1  0  0  0  0
  4 13  2  0  0  0  0
  5 10  2  0  0  0  0
  6 14  1  0  0  0  0
  7  8  1  0  0  0  0
  7 14  1  0  0  0  0
  9 14  1  0  0  0  0
  9 15  1  0  0  0  0
 10 11  1  0  0  0  0
 10 15  1  0  0  0  0
 11 12  2  0  0  0  0
 12 13  1  0  0  0  0
  2 16  1  0  0  0  0
  2 17  1  0  0  0  0
  2 18  1  0  0  0  0
  3 19  1  0  0  0  0
  3 20  1  0  0  0  0
  4 21  1  0  0  0  0
  6 22  1  0  0  0  0
  6 23  1  0  0  0  0
  7 24  1  0  0  0  0
  7 25  1  0  0  0  0
  8 26  1  0  0  0  0
  8 27  1  0  0  0  0
 11 28  1  0  0  0  0
 12 29  1  0  0  0  0
  1 30  1  0  0  0  0
 31 34  2  0  0  0  0
 32 34  1  0  0  0  0
 33 34  2  0  0  0  0
 34  5  1  0  0  0  0
 32  9  1  0  0  0  0
  9 35  1  0  0  0  0
 32 36  1  0  0  0  0
 32 37  1  0  0  0  0
 15 38  1  0  0  0  0
 15 39  1  0  0  0  0
 13 40  1  0  0  0  0
 14 41  1  0  0  0  0
M  CHG  2   1   1  14   1
M  END
> <BIOSOLVEIT.HYDE_ATOM_SCORES [kJ/mol]>
# Atom-ID; Total; Rec-Desolv; Rec-IA; Lig-Desolv; Lig-IA
1;1.2636;-0.1350;0.0000;1.3987;0.0000
2;-0.5942;-0.1380;0.0000;-0.4563;0.0000
3;-3.3362;-1.9013;0.0000;-1.4349;0.0000
4;-2.0787;-1.0157;0.0000;-1.0630;0.0000
5;-0.2369;0.0000;0.0000;-0.2369;0.0000
6;-1.3050;-0.0420;0.0000;-1.2631;0.0000
7;-0.3952;0.0000;0.0000;-0.3952;0.0000
8;0.0000;0.0000;0.0000;0.0000;0.0000
9;0.8035;1.5807;0.0000;-0.7772;0.0000
10;-0.3471;0.0000;0.0000;-0.3471;0.0000
11;-0.8095;-0.1399;0.0000;-0.6696;0.0000
12;-3.6809;-2.6955;0.0000;-0.9854;0.0000
13;-0.3266;0.0000;0.0000;-0.3266;0.0000
14;7.0086;0.0000;0.0000;7.0086;0.0000
15;-1.5389;-0.5548;0.0000;-0.9841;0.0000
31;-1.5209;-2.6803;0.0000;1.1594;0.0000
32;-3.0440;-1.7416;0.0000;-1.3024;0.0000
33;-5.8275;7.7019;-12.1903;2.6303;-3.9695
34;-0.0320;0.0000;0.0000;-0.0320;0.0000
40;-7.9758;-4.4659;0.0000;-3.5099;0.0000

> <BIOSOLVEIT.HYDE_ESTIMATED_AFFINITY_LOWER_BOUNDARY [nM]>
6329.998331

> <BIOSOLVEIT.HYDE_ESTIMATED_AFFINITY_UPPER_BOUNDARY [nM]>
628922.760138

> <BIOSOLVEIT.HYDE_LIGAND_EFFICIENCY range: ++, +, 0, -, -->
-

> <BIOSOLVEIT.HYDE_LIGAND_LIPOPHILIC_EFFICIENCY range: ++, +, 0, -, -->
0

> <BIOSOLVEIT.INTER_CLASH range: red, yellow, green>
red

> <BIOSOLVEIT.INTRA_CLASH range: red, yellow, green>
green

> <BIOSOLVEIT.LOGP>
-0.7887

> <BIOSOLVEIT.MOLECULAR_WEIGHT>
361.301

> <BIOSOLVEIT.MOLECULE_CHECKSUM>
LTIzLjk3MzY7MS4xOTg2OA==

> <BIOSOLVEIT.TORSION_QUALITY range: red, yellow, green, not rotatable>
green

> <BIOSOLVEIT.TPSA>
43.02

> <BIOSOLVEIT.OPTIBRIUM.2D6 affinity category>
medium

> <BIOSOLVEIT.OPTIBRIUM.BBB category>
+

> <BIOSOLVEIT.OPTIBRIUM.2C9 pKi>
4.70248

> <BIOSOLVEIT.OPTIBRIUM.hERG pIC50>
5.16251

> <BIOSOLVEIT.OPTIBRIUM.HIA category>
+

> <BIOSOLVEIT.OPTIBRIUM.BBB log([brain]:[blood])>
-0.547682

> <BIOSOLVEIT.OPTIBRIUM.logD>
-0.13203

> <BIOSOLVEIT.OPTIBRIUM.logP>
0.391002

> <BIOSOLVEIT.OPTIBRIUM.logS>
3.92287

> <BIOSOLVEIT.OPTIBRIUM.logS @ pH7.4>
3.71683

> <BIOSOLVEIT.OPTIBRIUM.P-gp category>
no

> <BIOSOLVEIT.OPTIBRIUM.PPB90 category>
low

$$$$
z0483a_z0764a_6
dcSeeSAR  12172411573D 1   1.00000     0.00000     0
SeeSAR 13.0.1 dcn76311
 31 32  0  0  0  0            999 V2000
  -24.4848  -32.0687  -24.7564 C   0  0  0  0  0  0  0  0  0  0  0  0
  -28.6594  -29.4543  -18.5838 C   0  0  0  0  0  0  0  0  0  0  0  0
  -27.7893  -30.1072  -19.4677 C   0  0  0  0  0  0  0  0  0  0  0  0
  -24.8103  -30.9635  -23.7649 C   0  0  0  0  0  0  0  0  0  0  0  0
  -25.4860  -30.4747  -21.4270 C   0  0  2  0  0  0  0  0  0  0  0  0
  -26.4857  -30.4260  -19.0861 C   0  0  0  0  0  0  0  0  0  0  0  0
  -26.0302  -30.1623  -17.8061 C   0  0  0  0  0  0  0  0  0  0  0  0
  -26.9037  -29.5245  -16.9318 C   0  0  0  0  0  0  0  0  0  0  0  0
  -28.1941  -29.1634  -17.3055 C   0  0  0  0  0  0  0  0  0  0  0  0
  -25.0917  -31.5729  -22.4011 C   0  0  0  0  0  0  0  0  0  0  0  0
  -25.4491  -31.0508  -20.0133 C   0  0  0  0  0  0  0  0  0  0  0  0
  -24.2867  -31.6398  -25.7164 H   0  0  0  0  0  0  0  0  0  0  0  0
  -23.6225  -32.6062  -24.4210 H   0  0  0  0  0  0  0  0  0  0  0  0
  -29.6515  -29.1877  -18.8832 H   0  0  0  0  0  0  0  0  0  0  0  0
  -25.6726  -30.4261  -24.1003 H   0  0  0  0  0  0  0  0  0  0  0  0
  -23.9788  -30.2939  -23.6916 H   0  0  0  0  0  0  0  0  0  0  0  0
  -25.0429  -30.4389  -17.5006 H   0  0  0  0  0  0  0  0  0  0  0  0
  -26.5722  -29.3043  -15.9386 H   0  0  0  0  0  0  0  0  0  0  0  0
  -29.3932  -29.7216  -21.5692 O   0  0  0  0  0  0  0  0  0  0  0  0
  -26.7864  -29.8006  -21.8399 C   0  0  0  0  0  0  0  0  0  0  0  0
  -28.4846  -31.9281  -21.3442 O   0  0  0  0  0  0  0  0  0  0  0  0
  -28.2851  -30.5206  -21.1141 S   0  0  0  0  0  0  0  0  0  0  0  0
  -24.7212  -29.7279  -21.4768 H   0  0  0  0  0  0  0  0  0  0  0  0
  -26.7357  -28.7730  -21.5462 H   0  0  0  0  0  0  0  0  0  0  0  0
  -26.8696  -29.8635  -22.9048 H   0  0  0  0  0  0  0  0  0  0  0  0
  -24.4766  -30.8800  -19.6012 H   0  0  0  0  0  0  0  0  0  0  0  0
  -25.6329  -32.1033  -20.0695 H   0  0  0  0  0  0  0  0  0  0  0  0
  -29.3599  -28.2423  -16.0273 Br  0  0  0  0  0  0  0  0  0  0  0  0
  -25.3162  -32.7383  -24.8296 H   0  0  0  0  0  0  0  0  0  0  0  0
  -24.2132  -32.0682  -22.0436 H   0  0  0  0  0  0  0  0  0  0  0  0
  -25.8907  -32.2797  -22.4843 H   0  0  0  0  0  0  0  0  0  0  0  0
  1  4  1  0  0  0  0
  2  3  1  0  0  0  0
  2  9  2  0  0  0  0
  3  6  2  0  0  0  0
  4 10  1  0  0  0  0
  5 10  1  0  0  0  0
  5 11  1  0  0  0  0
  6  7  1  0  0  0  0
  6 11  1  0  0  0  0
  7  8  2  0  0  0  0
  8  9  1  0  0  0  0
  1 12  1  0  0  0  0
  1 13  1  0  0  0  0
  2 14  1  0  0  0  0
  4 15  1  0  0  0  0
  4 16  1  0  0  0  0
  7 17  1  0  0  0  0
  8 18  1  0  0  0  0
 19 22  2  0  0  0  0
 20 22  1  0  0  0  0
 21 22  2  0  0  0  0
 22  3  1  0  0  0  0
 20  5  1  0  0  0  0
  5 23  1  0  0  0  0
 20 24  1  0  0  0  0
 20 25  1  0  0  0  0
 11 26  1  0  0  0  0
 11 27  1  0  0  0  0
  9 28  1  0  0  0  0
  1 29  1  0  0  0  0
 10 30  1  0  0  0  0
 10 31  1  0  0  0  0
M  END
> <BIOSOLVEIT.HYDE_ATOM_SCORES [kJ/mol]>
# Atom-ID; Total; Rec-Desolv; Rec-IA; Lig-Desolv; Lig-IA
1;-3.3345;-1.8563;0.0000;-1.4782;0.0000
2;-2.1243;-1.0157;0.0000;-1.1086;0.0000
3;-0.1922;0.0000;0.0000;-0.1922;0.0000
4;0.9811;2.1140;0.0000;-1.1329;0.0000
5;-1.2899;-0.5151;0.0000;-0.7748;0.0000
6;-0.3139;0.0000;0.0000;-0.3139;0.0000
7;-0.9234;-0.1399;0.0000;-0.7835;0.0000
8;-3.5565;-2.6540;0.0000;-0.9025;0.0000
9;-0.3028;0.0000;0.0000;-0.3028;0.0000
10;-0.3921;0.0000;0.0000;-0.3921;0.0000
11;-1.8016;-0.7502;0.0000;-1.0515;0.0000
19;-1.3310;-2.6803;0.0000;1.3493;0.0000
20;-3.0466;-1.7416;0.0000;-1.3050;0.0000
21;-5.8275;7.6459;-12.1816;2.6749;-3.9667
22;-0.0320;0.0000;0.0000;-0.0320;0.0000
28;-7.9892;-4.4244;0.0000;-3.5647;0.0000

> <BIOSOLVEIT.HYDE_ESTIMATED_AFFINITY_LOWER_BOUNDARY [nM]>
306.889212

> <BIOSOLVEIT.HYDE_ESTIMATED_AFFINITY_UPPER_BOUNDARY [nM]>
30491.257660

> <BIOSOLVEIT.HYDE_LIGAND_EFFICIENCY range: ++, +, 0, -, -->
+

> <BIOSOLVEIT.HYDE_LIGAND_LIPOPHILIC_EFFICIENCY range: ++, +, 0, -, -->
--

> <BIOSOLVEIT.INTER_CLASH range: red, yellow, green>
red

> <BIOSOLVEIT.INTRA_CLASH range: red, yellow, green>
green

> <BIOSOLVEIT.LOGP>
3.8458

> <BIOSOLVEIT.MOLECULAR_WEIGHT>
303.218

> <BIOSOLVEIT.MOLECULE_CHECKSUM>
LTMxLjQ3NjQ7MS45NjcyNw==

> <BIOSOLVEIT.TORSION_QUALITY range: red, yellow, green, not rotatable>
green

> <BIOSOLVEIT.TPSA>
34.14

> <BIOSOLVEIT.OPTIBRIUM.2D6 affinity category>
medium

> <BIOSOLVEIT.OPTIBRIUM.BBB category>
+

> <BIOSOLVEIT.OPTIBRIUM.2C9 pKi>
4.64129

> <BIOSOLVEIT.OPTIBRIUM.hERG pIC50>
5.01447

> <BIOSOLVEIT.OPTIBRIUM.HIA category>
+

> <BIOSOLVEIT.OPTIBRIUM.BBB log([brain]:[blood])>
0.16345

> <BIOSOLVEIT.OPTIBRIUM.logD>
3.30072

> <BIOSOLVEIT.OPTIBRIUM.logP>
3.30072

> <BIOSOLVEIT.OPTIBRIUM.logS>
1.63442

> <BIOSOLVEIT.OPTIBRIUM.logS @ pH7.4>
1.63442

> <BIOSOLVEIT.OPTIBRIUM.P-gp category>
no

> <BIOSOLVEIT.OPTIBRIUM.PPB90 category>
low

$$$$
z0483a_z0764a_7
dcSeeSAR  12172411573D 1   1.00000     0.00000     0
SeeSAR 13.0.1 dcn76311
 28 29  0  0  0  0            999 V2000
  -28.4268  -29.6274  -18.3936 C   0  0  0  0  0  0  0  0  0  0  0  0
  -27.6501  -30.1456  -19.4391 C   0  0  0  0  0  0  0  0  0  0  0  0
  -25.2497  -30.4686  -24.1052 N   0  3  0  0  0  0  0  0  0  0  0  0
  -25.6170  -30.1957  -21.7069 C   0  0  2  0  0  0  0  0  0  0  0  0
  -26.2914  -30.4079  -19.2611 C   0  0  0  0  0  0  0  0  0  0  0  0
  -25.6818  -30.2218  -18.0327 C   0  0  0  0  0  0  0  0  0  0  0  0
  -26.4622  -29.7182  -16.9976 C   0  0  0  0  0  0  0  0  0  0  0  0
  -27.8091  -29.4135  -17.1656 C   0  0  0  0  0  0  0  0  0  0  0  0
  -25.2989  -31.1807  -22.8201 C   0  0  0  0  0  0  0  0  0  0  0  0
  -25.3575  -30.8835  -20.3685 C   0  0  0  0  0  0  0  0  0  0  0  0
  -29.4633  -29.4031  -18.5358 H   0  0  0  0  0  0  0  0  0  0  0  0
  -24.6485  -30.4568  -17.8848 H   0  0  0  0  0  0  0  0  0  0  0  0
  -26.0117  -29.5597  -16.0401 H   0  0  0  0  0  0  0  0  0  0  0  0
  -29.5427  -29.6939  -21.2699 O   0  0  0  0  0  0  0  0  0  0  0  0
  -26.9961  -29.5773  -21.8838 C   0  0  0  0  0  0  0  0  0  0  0  0
  -28.4928  -31.8464  -21.3671 O   0  0  0  0  0  0  0  0  0  0  0  0
  -28.3411  -30.4528  -21.0377 S   0  0  0  0  0  0  0  0  0  0  0  0
  -24.9079  -29.3984  -21.7876 H   0  0  0  0  0  0  0  0  0  0  0  0
  -26.9623  -28.5765  -21.5067 H   0  0  0  0  0  0  0  0  0  0  0  0
  -27.2194  -29.5569  -22.9301 H   0  0  0  0  0  0  0  0  0  0  0  0
  -24.3489  -30.6834  -20.0726 H   0  0  0  0  0  0  0  0  0  0  0  0
  -25.4895  -31.9376  -20.4960 H   0  0  0  0  0  0  0  0  0  0  0  0
  -28.8394  -28.6810  -15.6679 Br  0  0  0  0  0  0  0  0  0  0  0  0
  -24.3513  -31.6398  -22.6301 H   0  0  0  0  0  0  0  0  0  0  0  0
  -26.0586  -31.9332  -22.8582 H   0  0  0  0  0  0  0  0  0  0  0  0
  -24.9163  -31.0873  -24.8166 H   0  0  0  0  0  0  0  0  0  0  0  0
  -26.1665  -30.1488  -24.3445 H   0  0  0  0  0  0  0  0  0  0  0  0
  -24.6328  -29.6853  -24.0288 H   0  0  0  0  0  0  0  0  0  0  0  0
  1  2  1  0  0  0  0
  1  8  2  0  0  0  0
  2  5  2  0  0  0  0
  3  9  1  0  0  0  0
  4  9  1  0  0  0  0
  4 10  1  0  0  0  0
  5  6  1  0  0  0  0
  5 10  1  0  0  0  0
  6  7  2  0  0  0  0
  7  8  1  0  0  0  0
  1 11  1  0  0  0  0
  6 12  1  0  0  0  0
  7 13  1  0  0  0  0
 14 17  2  0  0  0  0
 15 17  1  0  0  0  0
 16 17  2  0  0  0  0
 17  2  1  0  0  0  0
 15  4  1  0  0  0  0
  4 18  1  0  0  0  0
 15 19  1  0  0  0  0
 15 20  1  0  0  0  0
 10 21  1  0  0  0  0
 10 22  1  0  0  0  0
  8 23  1  0  0  0  0
  9 24  1  0  0  0  0
  9 25  1  0  0  0  0
  3 26  1  0  0  0  0
  3 27  1  0  0  0  0
  3 28  1  0  0  0  0
M  CHG  1   3   1
M  END
> <BIOSOLVEIT.HYDE_ATOM_SCORES [kJ/mol]>
# Atom-ID; Total; Rec-Desolv; Rec-IA; Lig-Desolv; Lig-IA
1;-2.8389;-1.7849;0.0000;-1.0540;0.0000
2;-0.2860;0.0000;0.0000;-0.2860;0.0000
3;13.7867;8.1673;-0.0971;5.7279;-0.0114
4;0.2099;1.0833;0.0000;-0.8734;0.0000
5;-1.1070;-0.7267;0.0000;-0.3803;0.0000
6;-1.0717;-0.2136;0.0000;-0.8580;0.0000
7;-0.9147;0.0000;0.0000;-0.9147;0.0000
8;-3.1151;-2.6755;0.0000;-0.4396;0.0000
9;-0.6752;0.0000;0.0000;-0.6752;0.0000
10;-1.0377;0.0000;0.0000;-1.0377;0.0000
14;0.1526;-1.5686;0.0000;1.7212;0.0000
15;-4.8175;-3.4721;0.0000;-1.3455;0.0000
16;-3.2159;-1.0118;-1.8683;2.7063;-3.0420
17;-0.0320;0.0000;0.0000;-0.0320;0.0000
23;-7.9447;-4.4363;0.0000;-3.5084;0.0000

> <BIOSOLVEIT.HYDE_ESTIMATED_AFFINITY_LOWER_BOUNDARY [nM]>
549740.719705

> <BIOSOLVEIT.HYDE_ESTIMATED_AFFINITY_UPPER_BOUNDARY [nM]>
54619990.827082

> <BIOSOLVEIT.HYDE_LIGAND_EFFICIENCY range: ++, +, 0, -, -->
-

> <BIOSOLVEIT.HYDE_LIGAND_LIPOPHILIC_EFFICIENCY range: ++, +, 0, -, -->
--

> <BIOSOLVEIT.INTER_CLASH range: red, yellow, green>
red

> <BIOSOLVEIT.INTRA_CLASH range: red, yellow, green>
green

> <BIOSOLVEIT.LOGP>
1.2876

> <BIOSOLVEIT.MOLECULAR_WEIGHT>
291.187

> <BIOSOLVEIT.MOLECULE_CHECKSUM>
LTEyLjkwNzI7MC44NjA0ODE=

> <BIOSOLVEIT.TORSION_QUALITY range: red, yellow, green, not rotatable>
green

> <BIOSOLVEIT.TPSA>
61.78

> <BIOSOLVEIT.OPTIBRIUM.2D6 affinity category>
low

> <BIOSOLVEIT.OPTIBRIUM.BBB category>
+

> <BIOSOLVEIT.OPTIBRIUM.2C9 pKi>
4.28854

> <BIOSOLVEIT.OPTIBRIUM.hERG pIC50>
4.31294

> <BIOSOLVEIT.OPTIBRIUM.HIA category>
+

> <BIOSOLVEIT.OPTIBRIUM.BBB log([brain]:[blood])>
-0.40201

> <BIOSOLVEIT.OPTIBRIUM.logD>
-0.212018

> <BIOSOLVEIT.OPTIBRIUM.logP>
1.33976

> <BIOSOLVEIT.OPTIBRIUM.logS>
2.97721

> <BIOSOLVEIT.OPTIBRIUM.logS @ pH7.4>
3.04735

> <BIOSOLVEIT.OPTIBRIUM.P-gp category>
no

> <BIOSOLVEIT.OPTIBRIUM.PPB90 category>
low

$$$$
z0483a_z0764a_8
dcSeeSAR  12172411573D 1   1.00000     0.00000     0
SeeSAR 13.0.1 dcn76311
 32 33  0  0  0  0            999 V2000
  -24.7781  -31.8839  -24.8570 C   0  0  0  0  0  0  0  0  0  0  0  0
  -28.6549  -29.4685  -18.6195 C   0  0  0  0  0  0  0  0  0  0  0  0
  -27.8051  -30.1591  -19.4946 C   0  0  0  0  0  0  0  0  0  0  0  0
  -24.3653  -31.1763  -23.5767 C   0  0  2  0  0  0  0  0  0  0  0  0
  -25.5129  -30.6227  -21.4466 C   0  0  2  0  0  0  0  0  0  0  0  0
  -26.5128  -30.5148  -19.1076 C   0  0  0  0  0  0  0  0  0  0  0  0
  -26.0503  -30.2509  -17.8302 C   0  0  0  0  0  0  0  0  0  0  0  0
  -26.9039  -29.5754  -16.9645 C   0  0  0  0  0  0  0  0  0  0  0  0
  -28.1817  -29.1777  -17.3440 C   0  0  0  0  0  0  0  0  0  0  0  0
  -25.1529  -31.7442  -22.4073 C   0  0  0  0  0  0  0  0  0  0  0  0
  -25.4958  -31.1831  -20.0262 C   0  0  0  0  0  0  0  0  0  0  0  0
  -24.2237  -31.4843  -25.6803 H   0  0  0  0  0  0  0  0  0  0  0  0
  -24.5772  -32.9310  -24.7665 H   0  0  0  0  0  0  0  0  0  0  0  0
  -29.6377  -29.1739  -18.9233 H   0  0  0  0  0  0  0  0  0  0  0  0
  -24.5663  -30.1292  -23.6673 H   0  0  0  0  0  0  0  0  0  0  0  0
  -22.9771  -31.3742  -23.3530 O   0  0  0  0  0  0  0  0  0  0  0  0
  -25.0726  -30.5552  -17.5202 H   0  0  0  0  0  0  0  0  0  0  0  0
  -26.5664  -29.3543  -15.9735 H   0  0  0  0  0  0  0  0  0  0  0  0
  -29.3940  -29.7471  -21.6025 O   0  0  0  0  0  0  0  0  0  0  0  0
  -26.7908  -29.9123  -21.8690 C   0  0  0  0  0  0  0  0  0  0  0  0
  -28.5564  -31.9787  -21.3507 O   0  0  0  0  0  0  0  0  0  0  0  0
  -28.3124  -30.5757  -21.1368 S   0  0  0  0  0  0  0  0  0  0  0  0
  -24.7247  -29.9013  -21.5040 H   0  0  0  0  0  0  0  0  0  0  0  0
  -26.7076  -28.8835  -21.5871 H   0  0  0  0  0  0  0  0  0  0  0  0
  -26.8750  -29.9849  -22.9332 H   0  0  0  0  0  0  0  0  0  0  0  0
  -24.5187  -31.0386  -19.6148 H   0  0  0  0  0  0  0  0  0  0  0  0
  -25.7130  -32.2298  -20.0704 H   0  0  0  0  0  0  0  0  0  0  0  0
  -29.3187  -28.2051  -16.0782 Br  0  0  0  0  0  0  0  0  0  0  0  0
  -25.8242  -31.7349  -25.0256 H   0  0  0  0  0  0  0  0  0  0  0  0
  -24.5587  -32.4735  -21.8976 H   0  0  0  0  0  0  0  0  0  0  0  0
  -26.0484  -32.2041  -22.7702 H   0  0  0  0  0  0  0  0  0  0  0  0
  -22.6756  -30.7951  -22.5955 H   0  0  0  0  0  0  0  0  0  0  0  0
  1  4  1  0  0  0  0
  2  3  1  0  0  0  0
  2  9  2  0  0  0  0
  3  6  2  0  0  0  0
  4 10  1  0  0  0  0
  5 10  1  0  0  0  0
  5 11  1  0  0  0  0
  6  7  1  0  0  0  0
  6 11  1  0  0  0  0
  7  8  2  0  0  0  0
  8  9  1  0  0  0  0
  1 12  1  0  0  0  0
  1 13  1  0  0  0  0
  2 14  1  0  0  0  0
  4 15  1  0  0  0  0
  4 16  1  0  0  0  0
  7 17  1  0  0  0  0
  8 18  1  0  0  0  0
 19 22  2  0  0  0  0
 20 22  1  0  0  0  0
 21 22  2  0  0  0  0
 22  3  1  0  0  0  0
 20  5  1  0  0  0  0
  5 23  1  0  0  0  0
 20 24  1  0  0  0  0
 20 25  1  0  0  0  0
 11 26  1  0  0  0  0
 11 27  1  0  0  0  0
  9 28  1  0  0  0  0
  1 29  1  0  0  0  0
 10 30  1  0  0  0  0
 10 31  1  0  0  0  0
 16 32  1  0  0  0  0
M  END
> <BIOSOLVEIT.HYDE_ATOM_SCORES [kJ/mol]>
# Atom-ID; Total; Rec-Desolv; Rec-IA; Lig-Desolv; Lig-IA
1;-3.6674;-1.8111;0.0000;-1.8562;0.0000
2;-2.0871;-1.0157;0.0000;-1.0714;0.0000
3;-0.1922;0.0000;0.0000;-0.1922;0.0000
4;-0.4307;0.0000;0.0000;-0.4307;0.0000
5;-1.1886;-0.4823;0.0000;-0.7063;0.0000
6;-0.3793;0.0000;0.0000;-0.3793;0.0000
7;-0.9212;-0.1399;0.0000;-0.7813;0.0000
8;-3.4486;-2.5834;0.0000;-0.8652;0.0000
9;-0.3027;0.0000;0.0000;-0.3027;0.0000
10;-0.2525;0.0000;0.0000;-0.2525;0.0000
11;-1.7858;-0.7502;0.0000;-1.0357;0.0000
16;-1.8709;8.6842;-10.0852;8.8611;-9.3309
19;-1.2379;-2.6803;0.0000;1.4424;0.0000
20;-3.0816;-1.6956;0.0000;-1.3860;0.0000
21;-5.5094;7.6017;-11.8567;2.6064;-3.8609
22;-0.0320;0.0000;0.0000;-0.0320;0.0000
28;-7.7212;-4.1958;0.0000;-3.5254;0.0000

> <BIOSOLVEIT.HYDE_ESTIMATED_AFFINITY_LOWER_BOUNDARY [nM]>
106.133054

> <BIOSOLVEIT.HYDE_ESTIMATED_AFFINITY_UPPER_BOUNDARY [nM]>
10544.946379

> <BIOSOLVEIT.HYDE_LIGAND_EFFICIENCY range: ++, +, 0, -, -->
+

> <BIOSOLVEIT.HYDE_LIGAND_LIPOPHILIC_EFFICIENCY range: ++, +, 0, -, -->
-

> <BIOSOLVEIT.INTER_CLASH range: red, yellow, green>
red

> <BIOSOLVEIT.INTRA_CLASH range: red, yellow, green>
green

> <BIOSOLVEIT.LOGP>
2.8166

> <BIOSOLVEIT.MOLECULAR_WEIGHT>
319.217

> <BIOSOLVEIT.MOLECULE_CHECKSUM>
LTM0LjEwODU7Mi4wMDYzOA==

> <BIOSOLVEIT.TORSION_QUALITY range: red, yellow, green, not rotatable>
green

> <BIOSOLVEIT.TPSA>
54.37

> <BIOSOLVEIT.OPTIBRIUM.2D6 affinity category>
high

> <BIOSOLVEIT.OPTIBRIUM.BBB category>
+

> <BIOSOLVEIT.OPTIBRIUM.2C9 pKi>
4.50113

> <BIOSOLVEIT.OPTIBRIUM.hERG pIC50>
4.80853

> <BIOSOLVEIT.OPTIBRIUM.HIA category>
+

> <BIOSOLVEIT.OPTIBRIUM.BBB log([brain]:[blood])>
-0.0599656

> <BIOSOLVEIT.OPTIBRIUM.logD>
2.18523

> <BIOSOLVEIT.OPTIBRIUM.logP>
2.18523

> <BIOSOLVEIT.OPTIBRIUM.logS>
2.02853

> <BIOSOLVEIT.OPTIBRIUM.logS @ pH7.4>
2.02853

> <BIOSOLVEIT.OPTIBRIUM.P-gp category>
no

> <BIOSOLVEIT.OPTIBRIUM.PPB90 category>
low

$$$$
z0483a_z0764a_9
dcSeeSAR  12172411573D 1   1.00000     0.00000     0
SeeSAR 13.0.1 dcn76311
 29 30  0  0  0  0            999 V2000
  -28.4938  -29.5798  -18.4046 C   0  0  0  0  0  0  0  0  0  0  0  0
  -27.7101  -30.1518  -19.4163 C   0  0  0  0  0  0  0  0  0  0  0  0
  -24.4798  -30.7010  -23.7982 C   0  0  0  0  0  0  0  0  0  0  0  0
  -25.6188  -30.3336  -21.6237 C   0  0  2  0  0  0  0  0  0  0  0  0
  -26.3686  -30.4639  -19.1941 C   0  0  0  0  0  0  0  0  0  0  0  0
  -25.7861  -30.2749  -17.9531 C   0  0  0  0  0  0  0  0  0  0  0  0
  -26.5738  -29.7174  -16.9516 C   0  0  0  0  0  0  0  0  0  0  0  0
  -27.9020  -29.3632  -17.1643 C   0  0  0  0  0  0  0  0  0  0  0  0
  -25.3103  -31.3552  -22.7061 C   0  0  0  0  0  0  0  0  0  0  0  0
  -25.4245  -31.0010  -20.2641 C   0  0  0  0  0  0  0  0  0  0  0  0
  -29.5161  -29.3176  -18.5810 H   0  0  0  0  0  0  0  0  0  0  0  0
  -24.4512  -29.6432  -23.6395 H   0  0  0  0  0  0  0  0  0  0  0  0
  -23.1587  -31.2207  -23.7635 O   0  0  0  0  0  0  0  0  0  0  0  0
  -24.7676  -30.5474  -17.7709 H   0  0  0  0  0  0  0  0  0  0  0  0
  -26.1438  -29.5556  -15.9853 H   0  0  0  0  0  0  0  0  0  0  0  0
  -29.5316  -29.6661  -21.3094 O   0  0  0  0  0  0  0  0  0  0  0  0
  -26.9665  -29.6648  -21.8529 C   0  0  0  0  0  0  0  0  0  0  0  0
  -28.5674  -31.8604  -21.3309 O   0  0  0  0  0  0  0  0  0  0  0  0
  -28.3686  -30.4669  -21.0270 S   0  0  0  0  0  0  0  0  0  0  0  0
  -24.8761  -29.5672  -21.7011 H   0  0  0  0  0  0  0  0  0  0  0  0
  -26.9026  -28.6580  -21.4964 H   0  0  0  0  0  0  0  0  0  0  0  0
  -27.1597  -29.6590  -22.9053 H   0  0  0  0  0  0  0  0  0  0  0  0
  -24.4171  -30.8348  -19.9439 H   0  0  0  0  0  0  0  0  0  0  0  0
  -25.5954  -32.0516  -20.3728 H   0  0  0  0  0  0  0  0  0  0  0  0
  -28.9429  -28.5568  -15.7125 Br  0  0  0  0  0  0  0  0  0  0  0  0
  -24.7627  -32.1704  -22.2815 H   0  0  0  0  0  0  0  0  0  0  0  0
  -26.2255  -31.7195  -23.1240 H   0  0  0  0  0  0  0  0  0  0  0  0
  -22.6168  -30.7093  -23.0965 H   0  0  0  0  0  0  0  0  0  0  0  0
  -24.9191  -30.9068  -24.7520 H   0  0  0  0  0  0  0  0  0  0  0  0
  1  2  1  0  0  0  0
  1  8  2  0  0  0  0
  2  5  2  0  0  0  0
  3  9  1  0  0  0  0
  4  9  1  0  0  0  0
  4 10  1  0  0  0  0
  5  6  1  0  0  0  0
  5 10  1  0  0  0  0
  6  7  2  0  0  0  0
  7  8  1  0  0  0  0
  1 11  1  0  0  0  0
  3 12  1  0  0  0  0
  3 13  1  0  0  0  0
  6 14  1  0  0  0  0
  7 15  1  0  0  0  0
 16 19  2  0  0  0  0
 17 19  1  0  0  0  0
 18 19  2  0  0  0  0
 19  2  1  0  0  0  0
 17  4  1  0  0  0  0
  4 20  1  0  0  0  0
 17 21  1  0  0  0  0
 17 22  1  0  0  0  0
 10 23  1  0  0  0  0
 10 24  1  0  0  0  0
  8 25  1  0  0  0  0
  9 26  1  0  0  0  0
  9 27  1  0  0  0  0
 13 28  1  0  0  0  0
  3 29  1  0  0  0  0
M  END
> <BIOSOLVEIT.HYDE_ATOM_SCORES [kJ/mol]>
# Atom-ID; Total; Rec-Desolv; Rec-IA; Lig-Desolv; Lig-IA
1;-2.6080;-1.5821;0.0000;-1.0259;0.0000
2;-0.2369;0.0000;0.0000;-0.2369;0.0000
3;-2.2767;-0.6814;0.0000;-1.5952;0.0000
4;-1.2251;-0.5151;0.0000;-0.7100;0.0000
5;-1.0738;-0.7267;0.0000;-0.3471;0.0000
6;-0.9607;-0.1399;0.0000;-0.8208;0.0000
7;-3.5962;-2.7272;0.0000;-0.8691;0.0000
8;-0.4273;0.0000;0.0000;-0.4273;0.0000
9;-0.4643;0.0000;0.0000;-0.4643;0.0000
10;-1.0648;0.0000;0.0000;-1.0648;0.0000
13;-1.2664;9.8687;-10.3754;8.8397;-9.5994
16;-1.3953;-2.8795;0.0000;1.4842;0.0000
17;-3.2596;-1.8078;0.0000;-1.4519;0.0000
18;-3.3442;-1.9868;-0.8635;0.0685;-0.5624
19;-0.0692;0.0000;0.0000;-0.0692;0.0000
25;-7.8602;-4.4096;0.0000;-3.4505;0.0000

> <BIOSOLVEIT.HYDE_ESTIMATED_AFFINITY_LOWER_BOUNDARY [nM]>
353.084630

> <BIOSOLVEIT.HYDE_ESTIMATED_AFFINITY_UPPER_BOUNDARY [nM]>
35081.045571

> <BIOSOLVEIT.HYDE_LIGAND_EFFICIENCY range: ++, +, 0, -, -->
+

> <BIOSOLVEIT.HYDE_LIGAND_LIPOPHILIC_EFFICIENCY range: ++, +, 0, -, -->
-

> <BIOSOLVEIT.INTER_CLASH range: red, yellow, green>
red

> <BIOSOLVEIT.INTRA_CLASH range: red, yellow, green>
green

> <BIOSOLVEIT.LOGP>
2.4281

> <BIOSOLVEIT.MOLECULAR_WEIGHT>
305.19

> <BIOSOLVEIT.MOLECULE_CHECKSUM>
LTMxLjEyODg7MS45NDU1NQ==

> <BIOSOLVEIT.TORSION_QUALITY range: red, yellow, green, not rotatable>
red

> <BIOSOLVEIT.TPSA>
54.37

> <BIOSOLVEIT.OPTIBRIUM.2D6 affinity category>
low

> <BIOSOLVEIT.OPTIBRIUM.BBB category>
+

> <BIOSOLVEIT.OPTIBRIUM.2C9 pKi>
4.50949

> <BIOSOLVEIT.OPTIBRIUM.hERG pIC50>
4.75553

> <BIOSOLVEIT.OPTIBRIUM.HIA category>
+

> <BIOSOLVEIT.OPTIBRIUM.BBB log([brain]:[blood])>
-0.24661

> <BIOSOLVEIT.OPTIBRIUM.logD>
1.73604

> <BIOSOLVEIT.OPTIBRIUM.logP>
1.73604

> <BIOSOLVEIT.OPTIBRIUM.logS>
2.42061

> <BIOSOLVEIT.OPTIBRIUM.logS @ pH7.4>
2.42061

> <BIOSOLVEIT.OPTIBRIUM.P-gp category>
no

> <BIOSOLVEIT.OPTIBRIUM.PPB90 category>
low

$$$$
z0483a_z0936a_1
dcSeeSAR  12172411573D 1   1.00000     0.00000     0
SeeSAR 13.0.1 dcn76311
 41 43  0  0  0  0            999 V2000
  -22.6826  -34.1025  -24.9971 N   0  3  1  0  0  0  0  0  0  0  0  0
  -22.4968  -35.2051  -25.9345 C   0  0  0  0  0  0  0  0  0  0  0  0
  -25.2965  -30.8194  -22.5111 O   0  0  0  0  0  0  0  0  0  0  0  0
  -23.9554  -33.4341  -25.2379 C   0  0  0  0  0  0  0  0  0  0  0  0
  -26.5301  -29.6753  -18.7497 C   0  0  0  0  0  0  0  0  0  0  0  0
  -26.0950  -30.4605  -19.7894 C   0  0  0  0  0  0  0  0  0  0  0  0
  -24.1046  -32.2309  -24.3342 C   0  0  0  0  0  0  0  0  0  0  0  0
  -22.7807  -33.4157  -22.6353 C   0  0  0  0  0  0  0  0  0  0  0  0
  -22.6456  -34.5793  -23.6163 C   0  0  0  0  0  0  0  0  0  0  0  0
  -24.5779  -31.7200  -22.0824 C   0  0  0  0  0  0  0  0  0  0  0  0
  -24.8415  -31.0536  -19.6979 C   0  0  0  0  0  0  0  0  0  0  0  0
  -24.0574  -30.8511  -18.5666 C   0  0  0  0  0  0  0  0  0  0  0  0
  -24.5244  -30.0539  -17.5275 C   0  0  0  0  0  0  0  0  0  0  0  0
  -25.7746  -29.4501  -17.6050 C   0  0  0  0  0  0  0  0  0  0  0  0
  -26.2359  -28.6858  -16.6190 F   0  0  0  0  0  0  0  0  0  0  0  0
  -23.9929  -32.6283  -22.9218 N   0  0  0  0  0  0  0  0  0  0  0  0
  -24.3278  -31.8781  -20.7547 N   0  0  0  0  0  0  0  0  0  0  0  0
  -21.5587  -35.6823  -25.7423 H   0  0  0  0  0  0  0  0  0  0  0  0
  -23.2891  -35.9138  -25.8130 H   0  0  0  0  0  0  0  0  0  0  0  0
  -22.5064  -34.8275  -26.9357 H   0  0  0  0  0  0  0  0  0  0  0  0
  -24.7543  -34.1195  -25.0454 H   0  0  0  0  0  0  0  0  0  0  0  0
  -23.9974  -33.1148  -26.2582 H   0  0  0  0  0  0  0  0  0  0  0  0
  -25.0624  -31.7836  -24.4992 H   0  0  0  0  0  0  0  0  0  0  0  0
  -23.3359  -31.5223  -24.5622 H   0  0  0  0  0  0  0  0  0  0  0  0
  -21.9225  -32.7825  -22.7216 H   0  0  0  0  0  0  0  0  0  0  0  0
  -22.8405  -33.8018  -21.6392 H   0  0  0  0  0  0  0  0  0  0  0  0
  -21.7150  -35.0781  -23.4426 H   0  0  0  0  0  0  0  0  0  0  0  0
  -23.4522  -35.2648  -23.4605 H   0  0  0  0  0  0  0  0  0  0  0  0
  -23.0932  -31.3097  -18.4960 H   0  0  0  0  0  0  0  0  0  0  0  0
  -23.9161  -29.9035  -16.6602 H   0  0  0  0  0  0  0  0  0  0  0  0
  -23.7325  -32.6370  -20.4911 H   0  0  0  0  0  0  0  0  0  0  0  0
  -21.9434  -33.4419  -25.1283 H   0  0  0  0  0  0  0  0  0  0  0  0
  -29.4014  -29.4645  -21.1068 C   0  0  0  0  0  0  0  0  0  0  0  0
  -28.1139  -29.7169  -20.3391 C   0  0  0  0  0  0  0  0  0  0  0  0
  -27.8331  -29.1985  -19.1126 C   0  0  0  0  0  0  0  0  0  0  0  0
  -27.0601  -30.4960  -20.7821 N   0  0  0  0  0  0  0  0  0  0  0  0
  -29.3684  -29.9870  -22.0399 H   0  0  0  0  0  0  0  0  0  0  0  0
  -30.2337  -29.8133  -20.5319 H   0  0  0  0  0  0  0  0  0  0  0  0
  -29.5082  -28.4156  -21.2889 H   0  0  0  0  0  0  0  0  0  0  0  0
  -28.4630  -28.5583  -18.5310 H   0  0  0  0  0  0  0  0  0  0  0  0
  -27.0057  -30.9891  -21.6504 H   0  0  0  0  0  0  0  0  0  0  0  0
  1  2  1  0  0  0  0
  1  4  1  0  0  0  0
  1  9  1  0  0  0  0
  3 10  2  0  0  0  0
  4  7  1  0  0  0  0
  5  6  1  0  0  0  0
  5 14  2  0  0  0  0
  6 11  2  0  0  0  0
  7 16  1  0  0  0  0
  8  9  1  0  0  0  0
  8 16  1  0  0  0  0
 10 16  1  0  0  0  0
 10 17  1  0  0  0  0
 11 12  1  0  0  0  0
 11 17  1  0  0  0  0
 12 13  2  0  0  0  0
 13 14  1  0  0  0  0
 14 15  1  0  0  0  0
  2 18  1  0  0  0  0
  2 19  1  0  0  0  0
  2 20  1  0  0  0  0
  4 21  1  0  0  0  0
  4 22  1  0  0  0  0
  7 23  1  0  0  0  0
  7 24  1  0  0  0  0
  8 25  1  0  0  0  0
  8 26  1  0  0  0  0
  9 27  1  0  0  0  0
  9 28  1  0  0  0  0
 12 29  1  0  0  0  0
 13 30  1  0  0  0  0
 17 31  1  0  0  0  0
  1 32  1  0  0  0  0
 33 34  1  0  0  0  0
 34 35  2  0  0  0  0
 34 36  1  0  0  0  0
 33 37  1  0  0  0  0
 33 38  1  0  0  0  0
 33 39  1  0  0  0  0
 35  5  1  0  0  0  0
 35 40  1  0  0  0  0
 36  6  1  0  0  0  0
 36 41  1  0  0  0  0
M  CHG  1   1   1
M  END
> <BIOSOLVEIT.HYDE_ATOM_SCORES [kJ/mol]>
# Atom-ID; Total; Rec-Desolv; Rec-IA; Lig-Desolv; Lig-IA
1;1.2887;0.0000;0.0000;1.2887;0.0000
2;-1.1680;-0.4255;0.0000;-0.7426;0.0000
3;1.5567;1.3503;0.0000;0.2064;0.0000
4;-0.4275;0.0000;0.0000;-0.4275;0.0000
5;-1.8188;-1.2171;0.0000;-0.6017;0.0000
6;-0.7991;0.0000;0.0000;-0.7991;0.0000
7;-2.9152;-1.4807;0.0000;-1.4345;0.0000
8;-0.0962;0.0000;0.0000;-0.0962;0.0000
9;-1.5628;-1.0030;0.0000;-0.5598;0.0000
10;-0.6190;0.0000;0.0000;-0.6190;0.0000
11;-1.7573;-0.9968;0.0000;-0.7605;0.0000
12;-2.4703;-1.2871;0.0000;-1.1832;0.0000
13;-1.3744;-0.3900;0.0000;-0.9844;0.0000
14;-0.3945;0.0000;0.0000;-0.3945;0.0000
15;-1.8758;-1.0613;0.0000;-0.8145;0.0000
16;0.0000;0.0000;0.0000;0.0000;0.0000
17;-0.0950;0.0000;0.0000;-0.0950;0.0000
33;-9.7985;-6.7741;0.0000;-3.0243;0.0000
34;-0.3429;0.0000;0.0000;-0.3429;0.0000
35;-0.7931;0.0000;0.0000;-0.7931;0.0000
36;-1.8148;-1.5747;0.0000;-0.2401;0.0000

> <BIOSOLVEIT.HYDE_ESTIMATED_AFFINITY_LOWER_BOUNDARY [nM]>
1669.296104

> <BIOSOLVEIT.HYDE_ESTIMATED_AFFINITY_UPPER_BOUNDARY [nM]>
165854.437570

> <BIOSOLVEIT.HYDE_LIGAND_EFFICIENCY range: ++, +, 0, -, -->
0

> <BIOSOLVEIT.HYDE_LIGAND_LIPOPHILIC_EFFICIENCY range: ++, +, 0, -, -->
0

> <BIOSOLVEIT.INTER_CLASH range: red, yellow, green>
green

> <BIOSOLVEIT.INTRA_CLASH range: red, yellow, green>
yellow

> <BIOSOLVEIT.LOGP>
0.97762

> <BIOSOLVEIT.MOLECULAR_WEIGHT>
291.348

> <BIOSOLVEIT.MOLECULE_CHECKSUM>
LTI3LjI3Nzg7MS4yOTg5NA==

> <BIOSOLVEIT.TORSION_QUALITY range: red, yellow, green, not rotatable>
green

> <BIOSOLVEIT.TPSA>
52.57

> <BIOSOLVEIT.OPTIBRIUM.2D6 affinity category>
low

> <BIOSOLVEIT.OPTIBRIUM.BBB category>
-

> <BIOSOLVEIT.OPTIBRIUM.2C9 pKi>
4.73958

> <BIOSOLVEIT.OPTIBRIUM.hERG pIC50>
5.30749

> <BIOSOLVEIT.OPTIBRIUM.HIA category>
+

> <BIOSOLVEIT.OPTIBRIUM.BBB log([brain]:[blood])>
-0.868365

> <BIOSOLVEIT.OPTIBRIUM.logD>
0.346937

> <BIOSOLVEIT.OPTIBRIUM.logP>
1.26554

> <BIOSOLVEIT.OPTIBRIUM.logS>
3.14746

> <BIOSOLVEIT.OPTIBRIUM.logS @ pH7.4>
2.94765

> <BIOSOLVEIT.OPTIBRIUM.P-gp category>
yes

> <BIOSOLVEIT.OPTIBRIUM.PPB90 category>
low

$$$$
z0483a_z0936a_2
dcSeeSAR  12172411573D 1   1.00000     0.00000     0
SeeSAR 13.0.1 dcn76311
 42 44  0  0  0  0            999 V2000
  -22.4295  -32.9457  -23.5493 N   0  3  1  0  0  0  0  0  0  0  0  0
  -21.7489  -33.9992  -24.2946 C   0  0  0  0  0  0  0  0  0  0  0  0
  -26.3285  -30.5210  -21.9026 O   0  0  0  0  0  0  0  0  0  0  0  0
  -23.7880  -32.7626  -24.0453 C   0  0  0  0  0  0  0  0  0  0  0  0
  -28.5371  -29.5316  -18.5788 C   0  0  0  0  0  0  0  0  0  0  0  0
  -27.6402  -30.1964  -19.3857 C   0  0  0  0  0  0  0  0  0  0  0  0
  -24.4605  -31.6053  -23.3420 C   0  0  0  0  0  0  0  0  0  0  0  0
  -23.1391  -32.1317  -21.3372 C   0  0  0  0  0  0  0  0  0  0  0  0
  -22.4790  -33.2631  -22.1238 C   0  0  0  0  0  0  0  0  0  0  0  0
  -25.4460  -31.0908  -21.2636 C   0  0  0  0  0  0  0  0  0  0  0  0
  -26.3072  -30.3493  -19.0488 C   0  0  0  0  0  0  0  0  0  0  0  0
  -25.8798  -29.8024  -17.8435 C   0  0  0  0  0  0  0  0  0  0  0  0
  -26.7735  -29.1294  -17.0166 C   0  0  0  0  0  0  0  0  0  0  0  0
  -28.1106  -28.9868  -17.3733 C   0  0  0  0  0  0  0  0  0  0  0  0
  -28.9778  -28.3470  -16.5940 F   0  0  0  0  0  0  0  0  0  0  0  0
  -24.4707  -31.8205  -21.8865 N   0  0  0  0  0  0  0  0  0  0  0  0
  -25.3882  -31.0424  -19.9056 N   0  0  0  0  0  0  0  0  0  0  0  0
  -20.7551  -34.1186  -23.9166 H   0  0  0  0  0  0  0  0  0  0  0  0
  -22.2855  -34.9183  -24.1837 H   0  0  0  0  0  0  0  0  0  0  0  0
  -21.7070  -33.7334  -25.3302 H   0  0  0  0  0  0  0  0  0  0  0  0
  -24.3501  -33.6558  -23.8688 H   0  0  0  0  0  0  0  0  0  0  0  0
  -23.7547  -32.5640  -25.0962 H   0  0  0  0  0  0  0  0  0  0  0  0
  -25.4679  -31.5183  -23.6919 H   0  0  0  0  0  0  0  0  0  0  0  0
  -23.9279  -30.7033  -23.5606 H   0  0  0  0  0  0  0  0  0  0  0  0
  -22.5232  -31.2586  -21.3945 H   0  0  0  0  0  0  0  0  0  0  0  0
  -23.2422  -32.4290  -20.3145 H   0  0  0  0  0  0  0  0  0  0  0  0
  -21.4824  -33.4067  -21.7618 H   0  0  0  0  0  0  0  0  0  0  0  0
  -23.0421  -34.1622  -21.9842 H   0  0  0  0  0  0  0  0  0  0  0  0
  -24.8555  -29.9000  -17.5499 H   0  0  0  0  0  0  0  0  0  0  0  0
  -26.4275  -28.7154  -16.0926 H   0  0  0  0  0  0  0  0  0  0  0  0
  -24.6376  -31.5343  -19.4644 H   0  0  0  0  0  0  0  0  0  0  0  0
  -21.9258  -32.0904  -23.6702 H   0  0  0  0  0  0  0  0  0  0  0  0
  -30.9568  -30.4029  -21.3348 C   0  0  0  0  0  0  0  0  0  0  0  0
  -29.7909  -30.1818  -20.3849 C   0  0  0  0  0  0  0  0  0  0  0  0
  -29.8720  -29.5435  -19.2202 C   0  0  0  0  0  0  0  0  0  0  0  0
  -28.3757  -30.6654  -20.6169 C   0  0  0  0  0  0  0  0  0  0  0  0
  -30.6187  -30.9421  -22.1950 H   0  0  0  0  0  0  0  0  0  0  0  0
  -31.7196  -30.9656  -20.8384 H   0  0  0  0  0  0  0  0  0  0  0  0
  -31.3528  -29.4569  -21.6398 H   0  0  0  0  0  0  0  0  0  0  0  0
  -30.7601  -29.1080  -18.8121 H   0  0  0  0  0  0  0  0  0  0  0  0
  -27.9613  -30.2271  -21.5007 H   0  0  0  0  0  0  0  0  0  0  0  0
  -28.3439  -31.7317  -20.6991 H   0  0  0  0  0  0  0  0  0  0  0  0
  1  2  1  0  0  0  0
  1  4  1  0  0  0  0
  1  9  1  0  0  0  0
  3 10  2  0  0  0  0
  4  7  1  0  0  0  0
  5  6  1  0  0  0  0
  5 14  2  0  0  0  0
  6 11  2  0  0  0  0
  7 16  1  0  0  0  0
  8  9  1  0  0  0  0
  8 16  1  0  0  0  0
 10 16  1  0  0  0  0
 10 17  1  0  0  0  0
 11 12  1  0  0  0  0
 11 17  1  0  0  0  0
 12 13  2  0  0  0  0
 13 14  1  0  0  0  0
 14 15  1  0  0  0  0
  2 18  1  0  0  0  0
  2 19  1  0  0  0  0
  2 20  1  0  0  0  0
  4 21  1  0  0  0  0
  4 22  1  0  0  0  0
  7 23  1  0  0  0  0
  7 24  1  0  0  0  0
  8 25  1  0  0  0  0
  8 26  1  0  0  0  0
  9 27  1  0  0  0  0
  9 28  1  0  0  0  0
 12 29  1  0  0  0  0
 13 30  1  0  0  0  0
 17 31  1  0  0  0  0
  1 32  1  0  0  0  0
 33 34  1  0  0  0  0
 34 35  2  0  0  0  0
 34 36  1  0  0  0  0
 33 37  1  0  0  0  0
 33 38  1  0  0  0  0
 33 39  1  0  0  0  0
 35  5  1  0  0  0  0
 35 40  1  0  0  0  0
 36  6  1  0  0  0  0
 36 41  1  0  0  0  0
 36 42  1  0  0  0  0
M  CHG  1   1   1
M  END
> <BIOSOLVEIT.INTER_CLASH range: red, yellow, green>
red

> <BIOSOLVEIT.INTRA_CLASH range: red, yellow, green>
red

> <BIOSOLVEIT.LOGP>
1.1473

> <BIOSOLVEIT.MOLECULAR_WEIGHT>
290.36

> <BIOSOLVEIT.TORSION_QUALITY range: red, yellow, green, not rotatable>
green

> <BIOSOLVEIT.TPSA>
36.78

> <BIOSOLVEIT.OPTIBRIUM.2D6 affinity category>
low

> <BIOSOLVEIT.OPTIBRIUM.BBB category>
+

> <BIOSOLVEIT.OPTIBRIUM.2C9 pKi>
4.6835

> <BIOSOLVEIT.OPTIBRIUM.hERG pIC50>
5.53584

> <BIOSOLVEIT.OPTIBRIUM.HIA category>
+

> <BIOSOLVEIT.OPTIBRIUM.BBB log([brain]:[blood])>
-0.333662

> <BIOSOLVEIT.OPTIBRIUM.logD>
0.65592

> <BIOSOLVEIT.OPTIBRIUM.logP>
1.38225

> <BIOSOLVEIT.OPTIBRIUM.logS>
3.38015

> <BIOSOLVEIT.OPTIBRIUM.logS @ pH7.4>
2.89712

> <BIOSOLVEIT.OPTIBRIUM.P-gp category>
no

> <BIOSOLVEIT.OPTIBRIUM.PPB90 category>
low

$$$$
z0483a_z0936a_3
dcSeeSAR  12172411573D 1   1.00000     0.00000     0
SeeSAR 13.0.1 dcn76311
 40 42  0  0  0  0            999 V2000
  -22.3679  -32.8099  -23.7833 N   0  3  1  0  0  0  0  0  0  0  0  0
  -21.6599  -33.7880  -24.6022 C   0  0  0  0  0  0  0  0  0  0  0  0
  -26.3293  -30.6273  -21.9565 O   0  0  0  0  0  0  0  0  0  0  0  0
  -23.7348  -32.6361  -24.2595 C   0  0  0  0  0  0  0  0  0  0  0  0
  -28.5287  -29.9600  -18.5985 C   0  0  0  0  0  0  0  0  0  0  0  0
  -27.6268  -30.5463  -19.4794 C   0  0  0  0  0  0  0  0  0  0  0  0
  -24.4382  -31.5513  -23.4755 C   0  0  0  0  0  0  0  0  0  0  0  0
  -23.0876  -32.1716  -21.5175 C   0  0  0  0  0  0  0  0  0  0  0  0
  -22.3979  -33.2253  -22.3828 C   0  0  0  0  0  0  0  0  0  0  0  0
  -25.4252  -31.2113  -21.3623 C   0  0  0  0  0  0  0  0  0  0  0  0
  -26.2934  -30.6507  -19.0985 C   0  0  0  0  0  0  0  0  0  0  0  0
  -25.8503  -30.1849  -17.8654 C   0  0  0  0  0  0  0  0  0  0  0  0
  -26.7658  -29.6016  -16.9953 C   0  0  0  0  0  0  0  0  0  0  0  0
  -28.1048  -29.4885  -17.3611 C   0  0  0  0  0  0  0  0  0  0  0  0
  -24.4319  -31.8657  -22.0381 N   0  0  0  0  0  0  0  0  0  0  0  0
  -25.3598  -31.2541  -20.0043 N   0  0  0  0  0  0  0  0  0  0  0  0
  -20.6603  -33.9016  -24.2378 H   0  0  0  0  0  0  0  0  0  0  0  0
  -22.1669  -34.7290  -24.5520 H   0  0  0  0  0  0  0  0  0  0  0  0
  -21.6333  -33.4509  -25.6174 H   0  0  0  0  0  0  0  0  0  0  0  0
  -24.2676  -33.5565  -24.1421 H   0  0  0  0  0  0  0  0  0  0  0  0
  -23.7147  -32.3652  -25.2945 H   0  0  0  0  0  0  0  0  0  0  0  0
  -27.9523  -30.9100  -20.4316 H   0  0  0  0  0  0  0  0  0  0  0  0
  -25.4501  -31.4725  -23.8140 H   0  0  0  0  0  0  0  0  0  0  0  0
  -23.9354  -30.6202  -23.6342 H   0  0  0  0  0  0  0  0  0  0  0  0
  -22.4995  -31.2777  -21.5176 H   0  0  0  0  0  0  0  0  0  0  0  0
  -23.1745  -32.5412  -20.5171 H   0  0  0  0  0  0  0  0  0  0  0  0
  -21.3948  -33.3618  -22.0361 H   0  0  0  0  0  0  0  0  0  0  0  0
  -22.9318  -34.1491  -22.3025 H   0  0  0  0  0  0  0  0  0  0  0  0
  -24.8202  -30.2739  -17.5898 H   0  0  0  0  0  0  0  0  0  0  0  0
  -24.5914  -31.7511  -19.6013 H   0  0  0  0  0  0  0  0  0  0  0  0
  -21.8918  -31.9328  -23.8477 H   0  0  0  0  0  0  0  0  0  0  0  0
  -26.3170  -29.1372  -15.7637 C   0  0  0  0  0  0  0  0  0  0  0  0
  -27.2278  -28.5520  -14.8908 C   0  0  0  0  0  0  0  0  0  0  0  0
  -28.5695  -28.4278  -15.2348 C   0  0  0  0  0  0  0  0  0  0  0  0
  -28.9973  -28.8992  -16.4716 C   0  0  0  0  0  0  0  0  0  0  0  0
  -26.8915  -28.1923  -13.9408 H   0  0  0  0  0  0  0  0  0  0  0  0
  -29.2634  -27.9756  -14.5573 H   0  0  0  0  0  0  0  0  0  0  0  0
  -30.0282  -28.8071  -16.7429 H   0  0  0  0  0  0  0  0  0  0  0  0
  -25.2862  -29.2288  -15.4917 H   0  0  0  0  0  0  0  0  0  0  0  0
  -29.5584  -29.8707  -18.8754 H   0  0  0  0  0  0  0  0  0  0  0  0
  1  2  1  0  0  0  0
  1  4  1  0  0  0  0
  1  9  1  0  0  0  0
  3 10  2  0  0  0  0
  4  7  1  0  0  0  0
  5  6  1  0  0  0  0
  5 14  2  0  0  0  0
  6 11  2  0  0  0  0
  7 15  1  0  0  0  0
  8  9  1  0  0  0  0
  8 15  1  0  0  0  0
 10 15  1  0  0  0  0
 10 16  1  0  0  0  0
 11 12  1  0  0  0  0
 11 16  1  0  0  0  0
 12 13  2  0  0  0  0
 13 14  1  0  0  0  0
  2 17  1  0  0  0  0
  2 18  1  0  0  0  0
  2 19  1  0  0  0  0
  4 20  1  0  0  0  0
  4 21  1  0  0  0  0
  6 22  1  0  0  0  0
  7 23  1  0  0  0  0
  7 24  1  0  0  0  0
  8 25  1  0  0  0  0
  8 26  1  0  0  0  0
  9 27  1  0  0  0  0
  9 28  1  0  0  0  0
 12 29  1  0  0  0  0
 16 30  1  0  0  0  0
  1 31  1  0  0  0  0
 32 33  2  0  0  0  0
 33 34  1  0  0  0  0
 34 35  2  0  0  0  0
 33 36  1  0  0  0  0
 34 37  1  0  0  0  0
 14 35  1  0  0  0  0
 35 38  1  0  0  0  0
 13 32  1  0  0  0  0
 32 39  1  0  0  0  0
  5 40  1  0  0  0  0
M  CHG  1   1   1
M  END
> <BIOSOLVEIT.INTER_CLASH range: red, yellow, green>
red

> <BIOSOLVEIT.INTRA_CLASH range: red, yellow, green>
yellow

> <BIOSOLVEIT.LOGP>
1.202

> <BIOSOLVEIT.MOLECULAR_WEIGHT>
270.354

> <BIOSOLVEIT.TORSION_QUALITY range: red, yellow, green, not rotatable>
green

> <BIOSOLVEIT.TPSA>
36.78

> <BIOSOLVEIT.OPTIBRIUM.2D6 affinity category>
low

> <BIOSOLVEIT.OPTIBRIUM.BBB category>
+

> <BIOSOLVEIT.OPTIBRIUM.2C9 pKi>
4.43174

> <BIOSOLVEIT.OPTIBRIUM.hERG pIC50>
5.4719

> <BIOSOLVEIT.OPTIBRIUM.HIA category>
+

> <BIOSOLVEIT.OPTIBRIUM.BBB log([brain]:[blood])>
-0.538206

> <BIOSOLVEIT.OPTIBRIUM.logD>
0.842467

> <BIOSOLVEIT.OPTIBRIUM.logP>
1.54825

> <BIOSOLVEIT.OPTIBRIUM.logS>
3.32428

> <BIOSOLVEIT.OPTIBRIUM.logS @ pH7.4>
2.66033

> <BIOSOLVEIT.OPTIBRIUM.P-gp category>
no

> <BIOSOLVEIT.OPTIBRIUM.PPB90 category>
low

$$$$
z0483a_z0936a_4
dcSeeSAR  12172411573D 1   1.00000     0.00000     0
SeeSAR 13.0.1 dcn76311
 43 45  0  0  0  0            999 V2000
  -22.3680  -32.8105  -23.7831 N   0  3  1  0  0  0  0  0  0  0  0  0
  -21.6600  -33.7891  -24.6015 C   0  0  0  0  0  0  0  0  0  0  0  0
  -26.3293  -30.6273  -21.9570 O   0  0  0  0  0  0  0  0  0  0  0  0
  -23.7349  -32.6372  -24.2592 C   0  0  0  0  0  0  0  0  0  0  0  0
  -28.5354  -29.9613  -18.6087 C   0  0  0  0  0  0  0  0  0  0  0  0
  -27.6258  -30.5468  -19.4835 C   0  0  0  0  0  0  0  0  0  0  0  0
  -24.4383  -31.5520  -23.4757 C   0  0  0  0  0  0  0  0  0  0  0  0
  -23.0874  -32.1710  -21.5175 C   0  0  0  0  0  0  0  0  0  0  0  0
  -22.3977  -33.2251  -22.3823 C   0  0  0  0  0  0  0  0  0  0  0  0
  -25.4251  -31.2108  -21.3625 C   0  0  0  0  0  0  0  0  0  0  0  0
  -26.2930  -30.6490  -19.0990 C   0  0  0  0  0  0  0  0  0  0  0  0
  -25.8520  -30.1832  -17.8650 C   0  0  0  0  0  0  0  0  0  0  0  0
  -26.7689  -29.6000  -16.9965 C   0  0  0  0  0  0  0  0  0  0  0  0
  -28.1073  -29.4909  -17.3688 C   0  0  0  0  0  0  0  0  0  0  0  0
  -24.4318  -31.8655  -22.0381 N   0  0  0  0  0  0  0  0  0  0  0  0
  -25.3595  -31.2528  -20.0045 N   0  0  0  0  0  0  0  0  0  0  0  0
  -20.6604  -33.9023  -24.2372 H   0  0  0  0  0  0  0  0  0  0  0  0
  -22.1669  -34.7300  -24.5507 H   0  0  0  0  0  0  0  0  0  0  0  0
  -21.6336  -33.4525  -25.6169 H   0  0  0  0  0  0  0  0  0  0  0  0
  -24.2677  -33.5576  -24.1410 H   0  0  0  0  0  0  0  0  0  0  0  0
  -23.7151  -32.3669  -25.2943 H   0  0  0  0  0  0  0  0  0  0  0  0
  -29.9822  -29.8681  -19.0654 C   0  0  0  0  0  0  0  0  0  0  0  0
  -27.9462  -30.9125  -20.4367 H   0  0  0  0  0  0  0  0  0  0  0  0
  -25.4504  -31.4734  -23.8140 H   0  0  0  0  0  0  0  0  0  0  0  0
  -23.9357  -30.6209  -23.6350 H   0  0  0  0  0  0  0  0  0  0  0  0
  -22.4994  -31.2770  -21.5183 H   0  0  0  0  0  0  0  0  0  0  0  0
  -23.1741  -32.5400  -20.5169 H   0  0  0  0  0  0  0  0  0  0  0  0
  -21.3946  -33.3613  -22.0357 H   0  0  0  0  0  0  0  0  0  0  0  0
  -22.9316  -34.1489  -22.3014 H   0  0  0  0  0  0  0  0  0  0  0  0
  -24.8224  -30.2721  -17.5877 H   0  0  0  0  0  0  0  0  0  0  0  0
  -24.5908  -31.7495  -19.6014 H   0  0  0  0  0  0  0  0  0  0  0  0
  -21.8921  -31.9335  -23.8481 H   0  0  0  0  0  0  0  0  0  0  0  0
  -30.5678  -29.4003  -18.3018 H   0  0  0  0  0  0  0  0  0  0  0  0
  -30.0363  -29.2873  -19.9625 H   0  0  0  0  0  0  0  0  0  0  0  0
  -30.3609  -30.8510  -19.2535 H   0  0  0  0  0  0  0  0  0  0  0  0
  -26.3194  -29.1369  -15.7644 C   0  0  0  0  0  0  0  0  0  0  0  0
  -27.2279  -28.5523  -14.8879 C   0  0  0  0  0  0  0  0  0  0  0  0
  -28.5702  -28.4271  -15.2290 C   0  0  0  0  0  0  0  0  0  0  0  0
  -28.9888  -28.9012  -16.4671 C   0  0  0  0  0  0  0  0  0  0  0  0
  -26.8892  -28.1940  -13.9382 H   0  0  0  0  0  0  0  0  0  0  0  0
  -29.2659  -27.9755  -14.5530 H   0  0  0  0  0  0  0  0  0  0  0  0
  -30.0207  -28.8099  -16.7352 H   0  0  0  0  0  0  0  0  0  0  0  0
  -25.2882  -29.2290  -15.4943 H   0  0  0  0  0  0  0  0  0  0  0  0
  1  2  1  0  0  0  0
  1  4  1  0  0  0  0
  1  9  1  0  0  0  0
  3 10  2  0  0  0  0
  4  7  1  0  0  0  0
  5  6  1  0  0  0  0
  5 14  2  0  0  0  0
  6 11  2  0  0  0  0
  7 15  1  0  0  0  0
  8  9  1  0  0  0  0
  8 15  1  0  0  0  0
 10 15  1  0  0  0  0
 10 16  1  0  0  0  0
 11 12  1  0  0  0  0
 11 16  1  0  0  0  0
 12 13  2  0  0  0  0
 13 14  1  0  0  0  0
  2 17  1  0  0  0  0
  2 18  1  0  0  0  0
  2 19  1  0  0  0  0
  4 20  1  0  0  0  0
  4 21  1  0  0  0  0
  5 22  1  0  0  0  0
  6 23  1  0  0  0  0
  7 24  1  0  0  0  0
  7 25  1  0  0  0  0
  8 26  1  0  0  0  0
  8 27  1  0  0  0  0
  9 28  1  0  0  0  0
  9 29  1  0  0  0  0
 12 30  1  0  0  0  0
 16 31  1  0  0  0  0
  1 32  1  0  0  0  0
 22 33  1  0  0  0  0
 22 34  1  0  0  0  0
 22 35  1  0  0  0  0
 36 37  2  0  0  0  0
 37 38  1  0  0  0  0
 38 39  2  0  0  0  0
 37 40  1  0  0  0  0
 38 41  1  0  0  0  0
 14 39  1  0  0  0  0
 39 42  1  0  0  0  0
 13 36  1  0  0  0  0
 36 43  1  0  0  0  0
M  CHG  1   1   1
M  END
> <BIOSOLVEIT.INTER_CLASH range: red, yellow, green>
red

> <BIOSOLVEIT.INTRA_CLASH range: red, yellow, green>
yellow

> <BIOSOLVEIT.LOGP>
1.51042

> <BIOSOLVEIT.MOLECULAR_WEIGHT>
284.381

> <BIOSOLVEIT.TORSION_QUALITY range: red, yellow, green, not rotatable>
green

> <BIOSOLVEIT.TPSA>
36.78

> <BIOSOLVEIT.OPTIBRIUM.2D6 affinity category>
medium

> <BIOSOLVEIT.OPTIBRIUM.BBB category>
+

> <BIOSOLVEIT.OPTIBRIUM.2C9 pKi>
4.47281

> <BIOSOLVEIT.OPTIBRIUM.hERG pIC50>
5.44167

> <BIOSOLVEIT.OPTIBRIUM.HIA category>
+

> <BIOSOLVEIT.OPTIBRIUM.BBB log([brain]:[blood])>
-0.479661

> <BIOSOLVEIT.OPTIBRIUM.logD>
1.09231

> <BIOSOLVEIT.OPTIBRIUM.logP>
1.94017

> <BIOSOLVEIT.OPTIBRIUM.logS>
3.14806

> <BIOSOLVEIT.OPTIBRIUM.logS @ pH7.4>
2.60922

> <BIOSOLVEIT.OPTIBRIUM.P-gp category>
no

> <BIOSOLVEIT.OPTIBRIUM.PPB90 category>
low

$$$$
z0496a_z0936a_1
dcSeeSAR  12172411573D 1   1.00000     0.00000     0
SeeSAR 13.0.1 dcn76311
 36 38  0  0  0  0            999 V2000
  -25.8785  -28.9267  -25.1706 N   0  0  0  0  0  0  0  0  0  0  0  0
  -26.0140  -26.2904  -20.6943 C   0  0  0  0  0  0  0  0  0  0  0  0
  -26.0586  -27.3616  -21.7536 C   0  0  0  0  0  0  0  0  0  0  0  0
  -31.3284  -30.2383  -20.6495 C   0  0  0  0  0  0  0  0  0  0  0  0
  -29.0540  -29.3545  -21.2037 C   0  0  0  0  0  0  0  0  0  0  0  0
  -26.0050  -28.5661  -23.8910 C   0  0  0  0  0  0  0  0  0  0  0  0
  -26.8498  -28.4767  -21.8443 C   0  0  0  0  0  0  0  0  0  0  0  0
  -27.7725  -28.9981  -20.8042 C   0  0  0  0  0  0  0  0  0  0  0  0
  -27.3905  -29.1351  -19.4725 C   0  0  0  0  0  0  0  0  0  0  0  0
  -28.2883  -29.6292  -18.5308 C   0  0  0  0  0  0  0  0  0  0  0  0
  -29.5752  -29.9939  -18.8984 C   0  0  0  0  0  0  0  0  0  0  0  0
  -29.9204  -29.8439  -20.2344 C   0  0  0  0  0  0  0  0  0  0  0  0
  -26.8160  -29.1523  -23.0495 N   0  0  0  0  0  0  0  0  0  0  0  0
  -25.1928  -27.1654  -23.2376 S   0  0  0  0  0  0  0  0  0  0  0  0
  -25.2403  -28.4394  -25.7666 H   0  0  0  0  0  0  0  0  0  0  0  0
  -26.4218  -29.6841  -25.5327 H   0  0  0  0  0  0  0  0  0  0  0  0
  -25.2687  -25.5666  -20.9502 H   0  0  0  0  0  0  0  0  0  0  0  0
  -26.9689  -25.8119  -20.6305 H   0  0  0  0  0  0  0  0  0  0  0  0
  -25.7727  -26.7323  -19.7502 H   0  0  0  0  0  0  0  0  0  0  0  0
  -31.8660  -30.5929  -19.7951 H   0  0  0  0  0  0  0  0  0  0  0  0
  -31.8311  -29.3872  -21.0593 H   0  0  0  0  0  0  0  0  0  0  0  0
  -31.2793  -31.0124  -21.3865 H   0  0  0  0  0  0  0  0  0  0  0  0
  -29.3633  -29.2556  -22.2232 H   0  0  0  0  0  0  0  0  0  0  0  0
  -26.4015  -28.8590  -19.1715 H   0  0  0  0  0  0  0  0  0  0  0  0
  -30.2726  -30.3749  -18.1820 H   0  0  0  0  0  0  0  0  0  0  0  0
  -27.9284  -29.7930  -17.0999 C   0  0  0  0  0  0  0  0  0  0  0  0
  -26.5924  -30.0040  -16.7757 C   0  0  0  0  0  0  0  0  0  0  0  0
  -26.2375  -30.1599  -15.4391 C   0  0  0  0  0  0  0  0  0  0  0  0
  -27.2130  -30.1037  -14.4490 C   0  0  0  0  0  0  0  0  0  0  0  0
  -28.5490  -29.8923  -14.7738 C   0  0  0  0  0  0  0  0  0  0  0  0
  -28.9039  -29.7363  -16.1099 C   0  0  0  0  0  0  0  0  0  0  0  0
  -25.8480  -30.0459  -17.5432 H   0  0  0  0  0  0  0  0  0  0  0  0
  -25.2141  -30.3231  -15.1730 H   0  0  0  0  0  0  0  0  0  0  0  0
  -26.9319  -30.2248  -13.4237 H   0  0  0  0  0  0  0  0  0  0  0  0
  -29.2936  -29.8503  -14.0065 H   0  0  0  0  0  0  0  0  0  0  0  0
  -29.9273  -29.5726  -16.3760 H   0  0  0  0  0  0  0  0  0  0  0  0
  1  6  1  0  0  0  0
  2  3  1  0  0  0  0
  3  7  2  0  0  0  0
  3 14  1  0  0  0  0
  4 12  1  0  0  0  0
  5  8  1  0  0  0  0
  5 12  2  0  0  0  0
  6 13  2  0  0  0  0
  6 14  1  0  0  0  0
  7  8  1  0  0  0  0
  7 13  1  0  0  0  0
  8  9  2  0  0  0  0
  9 10  1  0  0  0  0
 10 11  2  0  0  0  0
 11 12  1  0  0  0  0
  1 15  1  0  0  0  0
  1 16  1  0  0  0  0
  2 17  1  0  0  0  0
  2 18  1  0  0  0  0
  2 19  1  0  0  0  0
  4 20  1  0  0  0  0
  4 21  1  0  0  0  0
  4 22  1  0  0  0  0
  5 23  1  0  0  0  0
  9 24  1  0  0  0  0
 11 25  1  0  0  0  0
 26 27  2  0  0  0  0
 26 31  1  0  0  0  0
 27 28  1  0  0  0  0
 28 29  2  0  0  0  0
 29 30  1  0  0  0  0
 30 31  2  0  0  0  0
 31 36  1  0  0  0  0
 27 32  1  0  0  0  0
 28 33  1  0  0  0  0
 29 34  1  0  0  0  0
 30 35  1  0  0  0  0
 10 26  1  0  0  0  0
M  END
> <BIOSOLVEIT.INTER_CLASH range: red, yellow, green>
red

> <BIOSOLVEIT.INTRA_CLASH range: red, yellow, green>
green

> <BIOSOLVEIT.LOGP>
4.67614

> <BIOSOLVEIT.MOLECULAR_WEIGHT>
280.392

> <BIOSOLVEIT.TORSION_QUALITY range: red, yellow, green, not rotatable>
green

> <BIOSOLVEIT.TPSA>
38.91

> <BIOSOLVEIT.OPTIBRIUM.2D6 affinity category>
medium

> <BIOSOLVEIT.OPTIBRIUM.BBB category>
+

> <BIOSOLVEIT.OPTIBRIUM.2C9 pKi>
5.6837

> <BIOSOLVEIT.OPTIBRIUM.hERG pIC50>
4.50685

> <BIOSOLVEIT.OPTIBRIUM.HIA category>
+

> <BIOSOLVEIT.OPTIBRIUM.BBB log([brain]:[blood])>
-0.665137

> <BIOSOLVEIT.OPTIBRIUM.logD>
3.04631

> <BIOSOLVEIT.OPTIBRIUM.logP>
4.02956

> <BIOSOLVEIT.OPTIBRIUM.logS>
1.12208

> <BIOSOLVEIT.OPTIBRIUM.logS @ pH7.4>
1.33453

> <BIOSOLVEIT.OPTIBRIUM.P-gp category>
no

> <BIOSOLVEIT.OPTIBRIUM.PPB90 category>
high

$$$$
z0519a_z0936a_1
dcSeeSAR  12172411573D 1   1.00000     0.00000     0
SeeSAR 13.0.1 dcn76311
 36 38  0  0  0  0            999 V2000
  -26.5247  -29.6805  -16.3034 C   0  0  0  0  0  0  0  0  0  0  0  0
  -27.0183  -29.7028  -15.0029 C   0  0  0  0  0  0  0  0  0  0  0  0
  -28.3628  -29.9691  -14.7689 C   0  0  0  0  0  0  0  0  0  0  0  0
  -29.2191  -30.2139  -15.8360 C   0  0  0  0  0  0  0  0  0  0  0  0
  -26.3611  -29.5143  -14.1799 H   0  0  0  0  0  0  0  0  0  0  0  0
  -28.7383  -29.9857  -13.7671 H   0  0  0  0  0  0  0  0  0  0  0  0
  -25.2277  -29.8262  -23.2296 N   0  0  0  0  0  0  0  0  0  0  0  0
  -28.7308  -30.1926  -17.1376 C   0  0  0  0  0  0  0  0  0  0  0  0
  -26.5078  -31.6685  -23.7645 C   0  0  0  0  0  0  0  0  0  0  0  0
  -26.8840  -29.8999  -18.6663 C   0  0  0  0  0  0  0  0  0  0  0  0
  -27.3847  -29.9258  -17.3689 C   0  0  0  0  0  0  0  0  0  0  0  0
  -29.5916  -30.4367  -18.2027 C   0  0  0  0  0  0  0  0  0  0  0  0
  -29.0970  -30.4129  -19.5024 C   0  0  0  0  0  0  0  0  0  0  0  0
  -27.7510  -30.1455  -19.7262 C   0  0  0  0  0  0  0  0  0  0  0  0
  -27.2138  -30.1202  -21.1480 C   0  0  0  0  0  0  0  0  0  0  0  0
  -26.1115  -31.1675  -21.3335 C   0  0  0  0  0  0  0  0  0  0  0  0
  -25.4942  -31.1767  -22.7287 C   0  0  2  0  0  0  0  0  0  0  0  0
  -24.2216  -32.0285  -22.7356 C   0  0  0  0  0  0  0  0  0  0  0  0
  -25.9301  -29.5347  -24.3454 C   0  0  0  0  0  0  0  0  0  0  0  0
  -26.6967  -30.6485  -24.6618 N   0  0  0  0  0  0  0  0  0  0  0  0
  -25.9168  -28.4776  -24.9686 O   0  0  0  0  0  0  0  0  0  0  0  0
  -27.0636  -32.7583  -23.7772 O   0  0  0  0  0  0  0  0  0  0  0  0
  -24.5936  -29.1885  -22.7922 H   0  0  0  0  0  0  0  0  0  0  0  0
  -25.8494  -29.6945  -18.8462 H   0  0  0  0  0  0  0  0  0  0  0  0
  -30.6264  -30.6413  -18.0234 H   0  0  0  0  0  0  0  0  0  0  0  0
  -29.7510  -30.5999  -20.3284 H   0  0  0  0  0  0  0  0  0  0  0  0
  -26.8134  -29.1497  -21.3543 H   0  0  0  0  0  0  0  0  0  0  0  0
  -28.0130  -30.3283  -21.8284 H   0  0  0  0  0  0  0  0  0  0  0  0
  -26.5300  -32.1339  -21.1442 H   0  0  0  0  0  0  0  0  0  0  0  0
  -25.3360  -30.9694  -20.6235 H   0  0  0  0  0  0  0  0  0  0  0  0
  -24.4455  -33.0072  -22.3657 H   0  0  0  0  0  0  0  0  0  0  0  0
  -23.8471  -32.1020  -23.7352 H   0  0  0  0  0  0  0  0  0  0  0  0
  -23.4830  -31.5713  -22.1108 H   0  0  0  0  0  0  0  0  0  0  0  0
  -27.3119  -30.7005  -25.4484 H   0  0  0  0  0  0  0  0  0  0  0  0
  -25.4899  -29.4760  -16.4829 H   0  0  0  0  0  0  0  0  0  0  0  0
  -30.2538  -30.4186  -15.6559 H   0  0  0  0  0  0  0  0  0  0  0  0
  1  2  2  0  0  0  0
  2  3  1  0  0  0  0
  3  4  2  0  0  0  0
  2  5  1  0  0  0  0
  3  6  1  0  0  0  0
  7 17  1  0  0  0  0
  7 19  1  0  0  0  0
  8 11  2  0  0  0  0
  8 12  1  0  0  0  0
  9 17  1  0  0  0  0
  9 20  1  0  0  0  0
  9 22  2  0  0  0  0
 10 11  1  0  0  0  0
 10 14  2  0  0  0  0
 12 13  2  0  0  0  0
 13 14  1  0  0  0  0
 14 15  1  0  0  0  0
 15 16  1  0  0  0  0
 16 17  1  0  0  0  0
 17 18  1  0  0  0  0
 19 20  1  0  0  0  0
 19 21  2  0  0  0  0
  7 23  1  0  0  0  0
 10 24  1  0  0  0  0
 12 25  1  0  0  0  0
 13 26  1  0  0  0  0
 15 27  1  0  0  0  0
 15 28  1  0  0  0  0
 16 29  1  0  0  0  0
 16 30  1  0  0  0  0
 18 31  1  0  0  0  0
 18 32  1  0  0  0  0
 18 33  1  0  0  0  0
 20 34  1  0  0  0  0
 11  1  1  0  0  0  0
  1 35  1  0  0  0  0
  8  4  1  0  0  0  0
  4 36  1  0  0  0  0
M  END
> <BIOSOLVEIT.INTER_CLASH range: red, yellow, green>
red

> <BIOSOLVEIT.INTRA_CLASH range: red, yellow, green>
green

> <BIOSOLVEIT.LOGP>
2.3705

> <BIOSOLVEIT.MOLECULAR_WEIGHT>
268.314

> <BIOSOLVEIT.TORSION_QUALITY range: red, yellow, green, not rotatable>
green

> <BIOSOLVEIT.TPSA>
58.2

> <BIOSOLVEIT.OPTIBRIUM.2D6 affinity category>
low

> <BIOSOLVEIT.OPTIBRIUM.BBB category>
+

> <BIOSOLVEIT.OPTIBRIUM.2C9 pKi>
4.49476

> <BIOSOLVEIT.OPTIBRIUM.hERG pIC50>
4.29138

> <BIOSOLVEIT.OPTIBRIUM.HIA category>
+

> <BIOSOLVEIT.OPTIBRIUM.BBB log([brain]:[blood])>
-0.175654

> <BIOSOLVEIT.OPTIBRIUM.logD>
2.90584

> <BIOSOLVEIT.OPTIBRIUM.logP>
2.90584

> <BIOSOLVEIT.OPTIBRIUM.logS>
1.71655

> <BIOSOLVEIT.OPTIBRIUM.logS @ pH7.4>
1.71655

> <BIOSOLVEIT.OPTIBRIUM.P-gp category>
no

> <BIOSOLVEIT.OPTIBRIUM.PPB90 category>
high

$$$$
z0519a_z0936a_2
dcSeeSAR  12172411573D 1   1.00000     0.00000     0
SeeSAR 13.0.1 dcn76311
 34 36  0  0  0  0            999 V2000
  -31.1156  -30.6620  -19.7443 C   0  0  0  0  0  0  0  0  0  0  0  0
  -30.7479  -30.5373  -18.4361 C   0  0  0  0  0  0  0  0  0  0  0  0
  -29.9786  -30.5472  -20.5281 N   0  0  0  0  0  0  0  0  0  0  0  0
  -32.1110  -30.8211  -20.1032 H   0  0  0  0  0  0  0  0  0  0  0  0
  -24.9156  -29.9695  -23.3694 N   0  0  0  0  0  0  0  0  0  0  0  0
  -28.4733  -30.1526  -17.3163 C   0  0  0  0  0  0  0  0  0  0  0  0
  -26.2943  -31.7261  -23.9461 C   0  0  0  0  0  0  0  0  0  0  0  0
  -26.6350  -29.9766  -18.8634 C   0  0  0  0  0  0  0  0  0  0  0  0
  -27.1154  -29.9718  -17.5583 C   0  0  0  0  0  0  0  0  0  0  0  0
  -29.3275  -30.3361  -18.3982 C   0  0  0  0  0  0  0  0  0  0  0  0
  -28.8856  -30.3473  -19.6988 C   0  0  0  0  0  0  0  0  0  0  0  0
  -27.5226  -30.1632  -19.9187 C   0  0  0  0  0  0  0  0  0  0  0  0
  -26.9569  -30.1591  -21.3294 C   0  0  0  0  0  0  0  0  0  0  0  0
  -25.9167  -31.2700  -21.5033 C   0  0  0  0  0  0  0  0  0  0  0  0
  -25.2735  -31.3053  -22.8863 C   0  0  2  0  0  0  0  0  0  0  0  0
  -24.0550  -32.2328  -22.8766 C   0  0  0  0  0  0  0  0  0  0  0  0
  -25.5768  -29.6267  -24.4957 C   0  0  0  0  0  0  0  0  0  0  0  0
  -26.4031  -30.6891  -24.8372 N   0  0  0  0  0  0  0  0  0  0  0  0
  -25.4871  -28.5673  -25.1087 O   0  0  0  0  0  0  0  0  0  0  0  0
  -26.9148  -32.7799  -23.9797 O   0  0  0  0  0  0  0  0  0  0  0  0
  -24.2528  -29.3751  -22.9138 H   0  0  0  0  0  0  0  0  0  0  0  0
  -25.5914  -29.8380  -19.0545 H   0  0  0  0  0  0  0  0  0  0  0  0
  -26.4943  -29.2130  -21.5188 H   0  0  0  0  0  0  0  0  0  0  0  0
  -27.7536  -30.3126  -22.0269 H   0  0  0  0  0  0  0  0  0  0  0  0
  -26.3967  -32.2106  -21.3311 H   0  0  0  0  0  0  0  0  0  0  0  0
  -25.1448  -31.1251  -20.7766 H   0  0  0  0  0  0  0  0  0  0  0  0
  -24.3451  -33.1991  -22.5202 H   0  0  0  0  0  0  0  0  0  0  0  0
  -23.6659  -32.3209  -23.8695 H   0  0  0  0  0  0  0  0  0  0  0  0
  -23.3026  -31.8266  -22.2334 H   0  0  0  0  0  0  0  0  0  0  0  0
  -27.0046  -30.6973  -25.6361 H   0  0  0  0  0  0  0  0  0  0  0  0
  -26.4405  -29.8291  -16.7403 H   0  0  0  0  0  0  0  0  0  0  0  0
  -28.8535  -30.1504  -16.3161 H   0  0  0  0  0  0  0  0  0  0  0  0
  -31.4015  -30.5817  -17.5901 H   0  0  0  0  0  0  0  0  0  0  0  0
  -29.9510  -30.5998  -21.5264 H   0  0  0  0  0  0  0  0  0  0  0  0
  1  2  2  0  0  0  0
  1  3  1  0  0  0  0
  1  4  1  0  0  0  0
  5 15  1  0  0  0  0
  5 17  1  0  0  0  0
  6  9  2  0  0  0  0
  6 10  1  0  0  0  0
  7 15  1  0  0  0  0
  7 18  1  0  0  0  0
  7 20  2  0  0  0  0
  8  9  1  0  0  0  0
  8 12  2  0  0  0  0
 10 11  2  0  0  0  0
 11 12  1  0  0  0  0
 12 13  1  0  0  0  0
 13 14  1  0  0  0  0
 14 15  1  0  0  0  0
 15 16  1  0  0  0  0
 17 18  1  0  0  0  0
 17 19  2  0  0  0  0
  5 21  1  0  0  0  0
  8 22  1  0  0  0  0
 13 23  1  0  0  0  0
 13 24  1  0  0  0  0
 14 25  1  0  0  0  0
 14 26  1  0  0  0  0
 16 27  1  0  0  0  0
 16 28  1  0  0  0  0
 16 29  1  0  0  0  0
 18 30  1  0  0  0  0
  9 31  1  0  0  0  0
  6 32  1  0  0  0  0
 10  2  1  0  0  0  0
  2 33  1  0  0  0  0
  3 11  1  0  0  0  0
  3 34  1  0  0  0  0
M  END
> <BIOSOLVEIT.INTER_CLASH range: red, yellow, green>
red

> <BIOSOLVEIT.INTRA_CLASH range: red, yellow, green>
green

> <BIOSOLVEIT.LOGP>
1.6986

> <BIOSOLVEIT.MOLECULAR_WEIGHT>
257.292

> <BIOSOLVEIT.TORSION_QUALITY range: red, yellow, green, not rotatable>
green

> <BIOSOLVEIT.TPSA>
73.99

> <BIOSOLVEIT.OPTIBRIUM.2D6 affinity category>
low

> <BIOSOLVEIT.OPTIBRIUM.BBB category>
-

> <BIOSOLVEIT.OPTIBRIUM.2C9 pKi>
4.36871

> <BIOSOLVEIT.OPTIBRIUM.hERG pIC50>
3.69321

> <BIOSOLVEIT.OPTIBRIUM.HIA category>
+

> <BIOSOLVEIT.OPTIBRIUM.BBB log([brain]:[blood])>
-0.427639

> <BIOSOLVEIT.OPTIBRIUM.logD>
1.99968

> <BIOSOLVEIT.OPTIBRIUM.logP>
1.99968

> <BIOSOLVEIT.OPTIBRIUM.logS>
2.4078

> <BIOSOLVEIT.OPTIBRIUM.logS @ pH7.4>
2.4078

> <BIOSOLVEIT.OPTIBRIUM.P-gp category>
no

> <BIOSOLVEIT.OPTIBRIUM.PPB90 category>
low

$$$$
z0519a_z0936a_3
dcSeeSAR  12172411573D 1   1.00000     0.00000     0
SeeSAR 13.0.1 dcn76311
 35 37  0  0  0  0            999 V2000
  -31.2239  -30.6693  -19.6652 C   0  0  0  0  0  0  0  0  0  0  0  0
  -30.8084  -30.5309  -18.4057 C   0  0  0  0  0  0  0  0  0  0  0  0
  -30.0373  -30.5786  -20.6070 C   0  0  0  0  0  0  0  0  0  0  0  0
  -32.2394  -30.8212  -19.9661 H   0  0  0  0  0  0  0  0  0  0  0  0
  -24.8997  -29.9711  -23.3844 N   0  0  0  0  0  0  0  0  0  0  0  0
  -28.4817  -30.1540  -17.3124 C   0  0  0  0  0  0  0  0  0  0  0  0
  -26.2821  -31.7260  -23.9574 C   0  0  0  0  0  0  0  0  0  0  0  0
  -26.6329  -29.9746  -18.8576 C   0  0  0  0  0  0  0  0  0  0  0  0
  -27.1232  -29.9732  -17.5558 C   0  0  0  0  0  0  0  0  0  0  0  0
  -29.3382  -30.3388  -18.3925 C   0  0  0  0  0  0  0  0  0  0  0  0
  -28.8584  -30.3442  -19.6871 C   0  0  0  0  0  0  0  0  0  0  0  0
  -27.5008  -30.1584  -19.9287 C   0  0  0  0  0  0  0  0  0  0  0  0
  -26.9375  -30.1562  -21.3406 C   0  0  0  0  0  0  0  0  0  0  0  0
  -25.8994  -31.2688  -21.5157 C   0  0  0  0  0  0  0  0  0  0  0  0
  -25.2587  -31.3061  -22.8998 C   0  0  2  0  0  0  0  0  0  0  0  0
  -24.0417  -32.2355  -22.8917 C   0  0  0  0  0  0  0  0  0  0  0  0
  -25.5623  -29.6281  -24.5098 C   0  0  0  0  0  0  0  0  0  0  0  0
  -26.3910  -30.6895  -24.8491 N   0  0  0  0  0  0  0  0  0  0  0  0
  -25.4721  -28.5693  -25.1236 O   0  0  0  0  0  0  0  0  0  0  0  0
  -26.9043  -32.7788  -23.9892 O   0  0  0  0  0  0  0  0  0  0  0  0
  -24.2352  -29.3775  -22.9305 H   0  0  0  0  0  0  0  0  0  0  0  0
  -25.5871  -29.8343  -19.0350 H   0  0  0  0  0  0  0  0  0  0  0  0
  -26.4738  -29.2109  -21.5315 H   0  0  0  0  0  0  0  0  0  0  0  0
  -27.7357  -30.3089  -22.0367 H   0  0  0  0  0  0  0  0  0  0  0  0
  -26.3806  -32.2085  -21.3420 H   0  0  0  0  0  0  0  0  0  0  0  0
  -25.1259  -31.1247  -20.7905 H   0  0  0  0  0  0  0  0  0  0  0  0
  -24.3327  -33.2011  -22.5341 H   0  0  0  0  0  0  0  0  0  0  0  0
  -23.6545  -32.3248  -23.8852 H   0  0  0  0  0  0  0  0  0  0  0  0
  -23.2875  -31.8300  -22.2501 H   0  0  0  0  0  0  0  0  0  0  0  0
  -26.9939  -30.6972  -25.6468 H   0  0  0  0  0  0  0  0  0  0  0  0
  -26.4510  -29.8320  -16.7354 H   0  0  0  0  0  0  0  0  0  0  0  0
  -28.8605  -30.1509  -16.3117 H   0  0  0  0  0  0  0  0  0  0  0  0
  -31.4373  -30.5547  -17.5403 H   0  0  0  0  0  0  0  0  0  0  0  0
  -30.1550  -29.7634  -21.2900 H   0  0  0  0  0  0  0  0  0  0  0  0
  -29.9165  -31.4892  -21.1558 H   0  0  0  0  0  0  0  0  0  0  0  0
  1  2  2  0  0  0  0
  1  3  1  0  0  0  0
  1  4  1  0  0  0  0
  5 15  1  0  0  0  0
  5 17  1  0  0  0  0
  6  9  2  0  0  0  0
  6 10  1  0  0  0  0
  7 15  1  0  0  0  0
  7 18  1  0  0  0  0
  7 20  2  0  0  0  0
  8  9  1  0  0  0  0
  8 12  2  0  0  0  0
 10 11  2  0  0  0  0
 11 12  1  0  0  0  0
 12 13  1  0  0  0  0
 13 14  1  0  0  0  0
 14 15  1  0  0  0  0
 15 16  1  0  0  0  0
 17 18  1  0  0  0  0
 17 19  2  0  0  0  0
  5 21  1  0  0  0  0
  8 22  1  0  0  0  0
 13 23  1  0  0  0  0
 13 24  1  0  0  0  0
 14 25  1  0  0  0  0
 14 26  1  0  0  0  0
 16 27  1  0  0  0  0
 16 28  1  0  0  0  0
 16 29  1  0  0  0  0
 18 30  1  0  0  0  0
  9 31  1  0  0  0  0
  6 32  1  0  0  0  0
 10  2  1  0  0  0  0
  2 33  1  0  0  0  0
  3 11  1  0  0  0  0
  3 34  1  0  0  0  0
  3 35  1  0  0  0  0
M  END
> <BIOSOLVEIT.INTER_CLASH range: red, yellow, green>
red

> <BIOSOLVEIT.INTRA_CLASH range: red, yellow, green>
green

> <BIOSOLVEIT.LOGP>
1.7866

> <BIOSOLVEIT.MOLECULAR_WEIGHT>
256.303

> <BIOSOLVEIT.TORSION_QUALITY range: red, yellow, green, not rotatable>
green

> <BIOSOLVEIT.TPSA>
58.2

> <BIOSOLVEIT.OPTIBRIUM.2D6 affinity category>
low

> <BIOSOLVEIT.OPTIBRIUM.BBB category>
+

> <BIOSOLVEIT.OPTIBRIUM.2C9 pKi>
4.56115

> <BIOSOLVEIT.OPTIBRIUM.hERG pIC50>
4.05582

> <BIOSOLVEIT.OPTIBRIUM.HIA category>
+

> <BIOSOLVEIT.OPTIBRIUM.BBB log([brain]:[blood])>
0.0600654

> <BIOSOLVEIT.OPTIBRIUM.logD>
2.25165

> <BIOSOLVEIT.OPTIBRIUM.logP>
2.25165

> <BIOSOLVEIT.OPTIBRIUM.logS>
2.75126

> <BIOSOLVEIT.OPTIBRIUM.logS @ pH7.4>
2.75126

> <BIOSOLVEIT.OPTIBRIUM.P-gp category>
no

> <BIOSOLVEIT.OPTIBRIUM.PPB90 category>
low

$$$$
z0900b_z0936a_1
dcSeeSAR  12172411573D 1   1.00000     0.00000     0
SeeSAR 13.0.1 dcn76311
 31 33  0  0  0  0            999 V2000
  -29.3054  -29.6013  -21.4074 C   0  0  0  0  0  0  0  0  0  0  0  0
  -27.9436  -30.0212  -20.8787 C   0  0  0  0  0  0  0  0  0  0  0  0
  -27.4235  -29.6545  -19.6725 C   0  0  0  0  0  0  0  0  0  0  0  0
  -27.0427  -30.8331  -21.5494 N   0  0  0  0  0  0  0  0  0  0  0  0
  -29.4600  -30.0302  -22.3753 H   0  0  0  0  0  0  0  0  0  0  0  0
  -30.0682  -29.9435  -20.7396 H   0  0  0  0  0  0  0  0  0  0  0  0
  -29.3467  -28.5345  -21.4793 H   0  0  0  0  0  0  0  0  0  0  0  0
  -24.4487  -32.4404  -22.0902 N   0  0  0  0  0  0  0  0  0  0  0  0
  -24.1424  -34.8483  -21.4860 C   0  0  0  0  0  0  0  0  0  0  0  0
  -25.4077  -31.0467  -23.6995 O   0  0  0  0  0  0  0  0  0  0  0  0
  -23.5332  -33.5891  -22.0864 C   0  0  1  0  0  0  0  0  0  0  0  0
  -24.6745  -31.9803  -23.3884 C   0  0  0  0  0  0  0  0  0  0  0  0
  -23.1938  -33.7269  -23.5593 C   0  0  0  0  0  0  0  0  0  0  0  0
  -24.7259  -31.6766  -20.9074 C   0  0  0  0  0  0  0  0  0  0  0  0
  -25.9230  -30.9828  -20.7477 C   0  0  0  0  0  0  0  0  0  0  0  0
  -26.1303  -30.2687  -19.5917 C   0  0  0  0  0  0  0  0  0  0  0  0
  -25.1755  -30.2214  -18.5819 C   0  0  0  0  0  0  0  0  0  0  0  0
  -23.9826  -30.9158  -18.7472 C   0  0  0  0  0  0  0  0  0  0  0  0
  -23.7573  -31.6441  -19.9098 C   0  0  0  0  0  0  0  0  0  0  0  0
  -23.9067  -32.7682  -24.2338 N   0  0  0  0  0  0  0  0  0  0  0  0
  -22.3968  -34.5114  -24.0684 O   0  0  0  0  0  0  0  0  0  0  0  0
  -25.4332  -29.2986  -17.0819 Cl  0  0  0  0  0  0  0  0  0  0  0  0
  -23.4242  -35.6410  -21.5154 H   0  0  0  0  0  0  0  0  0  0  0  0
  -24.4237  -34.6594  -20.4711 H   0  0  0  0  0  0  0  0  0  0  0  0
  -25.0074  -35.1297  -22.0494 H   0  0  0  0  0  0  0  0  0  0  0  0
  -22.6478  -33.3324  -21.5433 H   0  0  0  0  0  0  0  0  0  0  0  0
  -23.2377  -30.8897  -17.9795 H   0  0  0  0  0  0  0  0  0  0  0  0
  -22.8396  -32.1792  -20.0369 H   0  0  0  0  0  0  0  0  0  0  0  0
  -23.8762  -32.6501  -25.2263 H   0  0  0  0  0  0  0  0  0  0  0  0
  -27.8872  -29.0333  -18.9348 H   0  0  0  0  0  0  0  0  0  0  0  0
  -27.1774  -31.2394  -22.4532 H   0  0  0  0  0  0  0  0  0  0  0  0
  1  2  1  0  0  0  0
  2  3  2  0  0  0  0
  2  4  1  0  0  0  0
  1  5  1  0  0  0  0
  1  6  1  0  0  0  0
  1  7  1  0  0  0  0
  8 11  1  0  0  0  0
  8 12  1  0  0  0  0
  8 14  1  0  0  0  0
  9 11  1  0  0  0  0
 10 12  2  0  0  0  0
 11 13  1  0  0  0  0
 12 20  1  0  0  0  0
 13 20  1  0  0  0  0
 13 21  2  0  0  0  0
 14 15  2  0  0  0  0
 14 19  1  0  0  0  0
 15 16  1  0  0  0  0
 16 17  2  0  0  0  0
 17 18  1  0  0  0  0
 17 22  1  0  0  0  0
 18 19  2  0  0  0  0
  9 23  1  0  0  0  0
  9 24  1  0  0  0  0
  9 25  1  0  0  0  0
 11 26  1  0  0  0  0
 18 27  1  0  0  0  0
 19 28  1  0  0  0  0
 20 29  1  0  0  0  0
  3 16  1  0  0  0  0
  3 30  1  0  0  0  0
  4 15  1  0  0  0  0
  4 31  1  0  0  0  0
M  END
> <BIOSOLVEIT.HYDE_ATOM_SCORES [kJ/mol]>
# Atom-ID; Total; Rec-Desolv; Rec-IA; Lig-Desolv; Lig-IA
1;-9.4038;-6.5181;0.0000;-2.8857;0.0000
2;-0.4129;0.0000;0.0000;-0.4129;0.0000
3;-0.8217;0.0000;0.0000;-0.8217;0.0000
4;-3.3327;10.3626;-12.1901;6.9232;-8.4285
8;0.0000;0.0000;0.0000;0.0000;0.0000
9;-2.3717;-0.7466;0.0000;-1.6251;0.0000
10;3.9310;-0.0419;0.0000;3.9729;0.0000
11;0.0000;0.0000;0.0000;0.0000;0.0000
12;-0.6115;0.0000;0.0000;-0.6115;0.0000
13;0.0000;0.0000;0.0000;0.0000;0.0000
14;1.3633;1.5974;0.0000;-0.2341;0.0000
15;-4.2103;-3.3954;0.0000;-0.8149;0.0000
16;-2.4859;-1.8006;0.0000;-0.6853;0.0000
17;-1.7344;-1.0123;0.0000;-0.7220;0.0000
18;-2.6019;-1.3254;0.0000;-1.2764;0.0000
19;-0.8388;0.0000;0.0000;-0.8388;0.0000
20;2.0655;-1.1624;0.0000;3.2279;0.0000
21;1.3955;-0.3219;0.0000;1.7174;0.0000
22;-2.6347;-1.0434;0.0000;-1.5913;0.0000

> <BIOSOLVEIT.HYDE_ESTIMATED_AFFINITY_LOWER_BOUNDARY [nM]>
10559.720897

> <BIOSOLVEIT.HYDE_ESTIMATED_AFFINITY_UPPER_BOUNDARY [nM]>
1049170.705100

> <BIOSOLVEIT.HYDE_LIGAND_EFFICIENCY range: ++, +, 0, -, -->
-

> <BIOSOLVEIT.HYDE_LIGAND_LIPOPHILIC_EFFICIENCY range: ++, +, 0, -, -->
--

> <BIOSOLVEIT.INTER_CLASH range: red, yellow, green>
green

> <BIOSOLVEIT.INTRA_CLASH range: red, yellow, green>
green

> <BIOSOLVEIT.LOGP>
2.57442

> <BIOSOLVEIT.MOLECULAR_WEIGHT>
277.71

> <BIOSOLVEIT.MOLECULE_CHECKSUM>
LTIyLjcwNTsxLjE5NQ==

> <BIOSOLVEIT.TORSION_QUALITY range: red, yellow, green, not rotatable>
green

> <BIOSOLVEIT.TPSA>
65.2

> <BIOSOLVEIT.OPTIBRIUM.2D6 affinity category>
high

> <BIOSOLVEIT.OPTIBRIUM.BBB category>
-

> <BIOSOLVEIT.OPTIBRIUM.2C9 pKi>
5.12384

> <BIOSOLVEIT.OPTIBRIUM.hERG pIC50>
4.25245

> <BIOSOLVEIT.OPTIBRIUM.HIA category>
+

> <BIOSOLVEIT.OPTIBRIUM.BBB log([brain]:[blood])>
-0.0801104

> <BIOSOLVEIT.OPTIBRIUM.logD>
2.65395

> <BIOSOLVEIT.OPTIBRIUM.logP>
2.65395

> <BIOSOLVEIT.OPTIBRIUM.logS>
1.92103

> <BIOSOLVEIT.OPTIBRIUM.logS @ pH7.4>
1.92103

> <BIOSOLVEIT.OPTIBRIUM.P-gp category>
no

> <BIOSOLVEIT.OPTIBRIUM.PPB90 category>
low

$$$$
z0900b_z0936a_2
dcSeeSAR  12172411573D 1   1.00000     0.00000     0
SeeSAR 13.0.1 dcn76311
 32 34  0  0  0  0            999 V2000
  -28.7463  -28.7824  -20.1983 C   0  0  0  0  0  0  0  0  0  0  0  0
  -27.4365  -29.5262  -19.9942 C   0  0  0  0  0  0  0  0  0  0  0  0
  -26.7083  -29.4507  -18.8877 C   0  0  0  0  0  0  0  0  0  0  0  0
  -26.8202  -30.4417  -21.0274 C   0  0  0  0  0  0  0  0  0  0  0  0
  -29.1372  -29.0080  -21.1684 H   0  0  0  0  0  0  0  0  0  0  0  0
  -29.4492  -29.0865  -19.4509 H   0  0  0  0  0  0  0  0  0  0  0  0
  -28.5746  -27.7292  -20.1189 H   0  0  0  0  0  0  0  0  0  0  0  0
  -24.5615  -32.3804  -22.0317 N   0  0  0  0  0  0  0  0  0  0  0  0
  -25.1730  -34.7946  -21.7985 C   0  0  0  0  0  0  0  0  0  0  0  0
  -24.9249  -30.5033  -23.3721 O   0  0  0  0  0  0  0  0  0  0  0  0
  -24.1366  -33.7709  -22.2403 C   0  0  1  0  0  0  0  0  0  0  0  0
  -24.5919  -31.6766  -23.2365 C   0  0  0  0  0  0  0  0  0  0  0  0
  -23.8621  -33.7964  -23.7327 C   0  0  0  0  0  0  0  0  0  0  0  0
  -24.5444  -31.7588  -20.7384 C   0  0  0  0  0  0  0  0  0  0  0  0
  -25.5583  -30.8991  -20.3232 C   0  0  0  0  0  0  0  0  0  0  0  0
  -25.5191  -30.3141  -19.0787 C   0  0  0  0  0  0  0  0  0  0  0  0
  -24.4670  -30.5756  -18.2066 C   0  0  0  0  0  0  0  0  0  0  0  0
  -23.4501  -31.4351  -18.6074 C   0  0  0  0  0  0  0  0  0  0  0  0
  -23.4916  -32.0218  -19.8679 C   0  0  0  0  0  0  0  0  0  0  0  0
  -24.1645  -32.5519  -24.2246 N   0  0  0  0  0  0  0  0  0  0  0  0
  -23.4088  -34.7307  -24.3894 O   0  0  0  0  0  0  0  0  0  0  0  0
  -24.3852  -29.8420  -16.5868 Cl  0  0  0  0  0  0  0  0  0  0  0  0
  -24.7994  -35.7809  -21.9784 H   0  0  0  0  0  0  0  0  0  0  0  0
  -25.3715  -34.6733  -20.7540 H   0  0  0  0  0  0  0  0  0  0  0  0
  -26.0768  -34.6491  -22.3525 H   0  0  0  0  0  0  0  0  0  0  0  0
  -23.2229  -33.9434  -21.7109 H   0  0  0  0  0  0  0  0  0  0  0  0
  -22.6355  -31.6453  -17.9461 H   0  0  0  0  0  0  0  0  0  0  0  0
  -22.7061  -32.6820  -20.1709 H   0  0  0  0  0  0  0  0  0  0  0  0
  -24.0855  -32.3027  -25.1898 H   0  0  0  0  0  0  0  0  0  0  0  0
  -26.9378  -28.8726  -18.0170 H   0  0  0  0  0  0  0  0  0  0  0  0
  -26.5932  -29.9136  -21.9299 H   0  0  0  0  0  0  0  0  0  0  0  0
  -27.4636  -31.2673  -21.2494 H   0  0  0  0  0  0  0  0  0  0  0  0
  1  2  1  0  0  0  0
  2  3  2  0  0  0  0
  2  4  1  0  0  0  0
  1  5  1  0  0  0  0
  1  6  1  0  0  0  0
  1  7  1  0  0  0  0
  8 11  1  0  0  0  0
  8 12  1  0  0  0  0
  8 14  1  0  0  0  0
  9 11  1  0  0  0  0
 10 12  2  0  0  0  0
 11 13  1  0  0  0  0
 12 20  1  0  0  0  0
 13 20  1  0  0  0  0
 13 21  2  0  0  0  0
 14 15  2  0  0  0  0
 14 19  1  0  0  0  0
 15 16  1  0  0  0  0
 16 17  2  0  0  0  0
 17 18  1  0  0  0  0
 17 22  1  0  0  0  0
 18 19  2  0  0  0  0
  9 23  1  0  0  0  0
  9 24  1  0  0  0  0
  9 25  1  0  0  0  0
 11 26  1  0  0  0  0
 18 27  1  0  0  0  0
 19 28  1  0  0  0  0
 20 29  1  0  0  0  0
  3 16  1  0  0  0  0
  3 30  1  0  0  0  0
  4 15  1  0  0  0  0
  4 31  1  0  0  0  0
  4 32  1  0  0  0  0
M  END
> <BIOSOLVEIT.HYDE_ATOM_SCORES [kJ/mol]>
# Atom-ID; Total; Rec-Desolv; Rec-IA; Lig-Desolv; Lig-IA
1;-5.3357;-2.9875;0.0000;-2.3482;0.0000
2;-2.1946;-2.0293;0.0000;-0.1653;0.0000
3;-2.3119;-1.2568;0.0000;-1.0551;0.0000
4;-2.3925;-0.7179;0.0000;-1.6746;0.0000
8;0.0000;0.0000;0.0000;0.0000;0.0000
9;-5.0561;-2.9378;0.0000;-2.1183;0.0000
10;2.7377;1.0896;0.0000;1.6481;0.0000
11;0.0000;0.0000;0.0000;0.0000;0.0000
12;2.1758;2.8856;0.0000;-0.7098;0.0000
13;0.0000;0.0000;0.0000;0.0000;0.0000
14;-0.2400;0.0000;0.0000;-0.2400;0.0000
15;-2.0600;-1.4612;0.0000;-0.5988;0.0000
16;-1.4656;-0.8791;0.0000;-0.5865;0.0000
17;-1.1628;-0.4712;0.0000;-0.6916;0.0000
18;-0.9509;0.1104;0.0000;-1.0613;0.0000
19;-0.5940;0.0000;0.0000;-0.5940;0.0000
20;6.1272;-0.8702;0.0000;6.9974;0.0000
21;-0.0533;-0.0460;0.0000;-0.0073;0.0000
22;-1.8668;-0.5877;0.0000;-1.2791;0.0000

> <BIOSOLVEIT.HYDE_ESTIMATED_AFFINITY_LOWER_BOUNDARY [nM]>
272882.431954

> <BIOSOLVEIT.HYDE_ESTIMATED_AFFINITY_UPPER_BOUNDARY [nM]>
27112483.023259

> <BIOSOLVEIT.HYDE_LIGAND_EFFICIENCY range: ++, +, 0, -, -->
--

> <BIOSOLVEIT.HYDE_LIGAND_LIPOPHILIC_EFFICIENCY range: ++, +, 0, -, -->
--

> <BIOSOLVEIT.INTER_CLASH range: red, yellow, green>
green

> <BIOSOLVEIT.INTRA_CLASH range: red, yellow, green>
green

> <BIOSOLVEIT.LOGP>
2.7441

> <BIOSOLVEIT.MOLECULAR_WEIGHT>
276.722

> <BIOSOLVEIT.MOLECULE_CHECKSUM>
LTE0LjY0MzU7MC43NzA3MQ==

> <BIOSOLVEIT.TORSION_QUALITY range: red, yellow, green, not rotatable>
green

> <BIOSOLVEIT.TPSA>
49.41

> <BIOSOLVEIT.OPTIBRIUM.2D6 affinity category>
high

> <BIOSOLVEIT.OPTIBRIUM.BBB category>
+

> <BIOSOLVEIT.OPTIBRIUM.2C9 pKi>
4.9524

> <BIOSOLVEIT.OPTIBRIUM.hERG pIC50>
4.4234

> <BIOSOLVEIT.OPTIBRIUM.HIA category>
+

> <BIOSOLVEIT.OPTIBRIUM.BBB log([brain]:[blood])>
0.213133

> <BIOSOLVEIT.OPTIBRIUM.logD>
2.66722

> <BIOSOLVEIT.OPTIBRIUM.logP>
2.66722

> <BIOSOLVEIT.OPTIBRIUM.logS>
2.22929

> <BIOSOLVEIT.OPTIBRIUM.logS @ pH7.4>
2.22929

> <BIOSOLVEIT.OPTIBRIUM.P-gp category>
no

> <BIOSOLVEIT.OPTIBRIUM.PPB90 category>
low

$$$$
z0900b_z0936a_3
dcSeeSAR  12172411573D 1   1.00000     0.00000     0
SeeSAR 13.0.1 dcn76311
 30 32  0  0  0  0            999 V2000
  -23.3055  -31.2881  -17.5207 C   0  0  0  0  0  0  0  0  0  0  0  0
  -23.4958  -30.6200  -16.3155 C   0  0  0  0  0  0  0  0  0  0  0  0
  -24.5696  -29.7493  -16.1659 C   0  0  0  0  0  0  0  0  0  0  0  0
  -25.4642  -29.5334  -17.2093 C   0  0  0  0  0  0  0  0  0  0  0  0
  -22.8160  -30.7760  -15.5041 H   0  0  0  0  0  0  0  0  0  0  0  0
  -24.7098  -29.2387  -15.2361 H   0  0  0  0  0  0  0  0  0  0  0  0
  -24.7149  -32.2100  -22.0618 N   0  0  0  0  0  0  0  0  0  0  0  0
  -25.1431  -34.6554  -21.7555 C   0  0  0  0  0  0  0  0  0  0  0  0
  -25.0752  -30.4426  -23.5444 O   0  0  0  0  0  0  0  0  0  0  0  0
  -24.1522  -33.5648  -22.1376 C   0  0  1  0  0  0  0  0  0  0  0  0
  -24.6623  -31.5725  -23.3023 C   0  0  0  0  0  0  0  0  0  0  0  0
  -23.7022  -33.6390  -23.5851 C   0  0  0  0  0  0  0  0  0  0  0  0
  -24.9032  -31.5263  -20.8143 C   0  0  0  0  0  0  0  0  0  0  0  0
  -25.9796  -30.6563  -20.6715 C   0  0  0  0  0  0  0  0  0  0  0  0
  -26.1621  -29.9936  -19.4624 C   0  0  0  0  0  0  0  0  0  0  0  0
  -25.2735  -30.2029  -18.4138 C   0  0  0  0  0  0  0  0  0  0  0  0
  -24.1989  -31.0747  -18.5659 C   0  0  0  0  0  0  0  0  0  0  0  0
  -24.0089  -31.7423  -19.7714 C   0  0  0  0  0  0  0  0  0  0  0  0
  -24.0487  -32.4531  -24.1815 N   0  0  0  0  0  0  0  0  0  0  0  0
  -23.0972  -34.5596  -24.1293 O   0  0  0  0  0  0  0  0  0  0  0  0
  -24.6686  -35.6113  -21.8327 H   0  0  0  0  0  0  0  0  0  0  0  0
  -25.4729  -34.5011  -20.7495 H   0  0  0  0  0  0  0  0  0  0  0  0
  -25.9842  -34.6203  -22.4161 H   0  0  0  0  0  0  0  0  0  0  0  0
  -23.2960  -33.6270  -21.4988 H   0  0  0  0  0  0  0  0  0  0  0  0
  -26.6594  -30.4990  -21.4827 H   0  0  0  0  0  0  0  0  0  0  0  0
  -26.9864  -29.3225  -19.3392 H   0  0  0  0  0  0  0  0  0  0  0  0
  -23.1849  -32.4136  -19.8948 H   0  0  0  0  0  0  0  0  0  0  0  0
  -23.8778  -32.2459  -25.1448 H   0  0  0  0  0  0  0  0  0  0  0  0
  -22.4810  -31.9590  -17.6427 H   0  0  0  0  0  0  0  0  0  0  0  0
  -26.2878  -28.8614  -17.0870 H   0  0  0  0  0  0  0  0  0  0  0  0
  1  2  2  0  0  0  0
  2  3  1  0  0  0  0
  3  4  2  0  0  0  0
  2  5  1  0  0  0  0
  3  6  1  0  0  0  0
  7 10  1  0  0  0  0
  7 11  1  0  0  0  0
  7 13  1  0  0  0  0
  8 10  1  0  0  0  0
  9 11  2  0  0  0  0
 10 12  1  0  0  0  0
 11 19  1  0  0  0  0
 12 19  1  0  0  0  0
 12 20  2  0  0  0  0
 13 14  2  0  0  0  0
 13 18  1  0  0  0  0
 14 15  1  0  0  0  0
 15 16  2  0  0  0  0
 16 17  1  0  0  0  0
 17 18  2  0  0  0  0
  8 21  1  0  0  0  0
  8 22  1  0  0  0  0
  8 23  1  0  0  0  0
 10 24  1  0  0  0  0
 14 25  1  0  0  0  0
 15 26  1  0  0  0  0
 18 27  1  0  0  0  0
 19 28  1  0  0  0  0
  1 17  1  0  0  0  0
  1 29  1  0  0  0  0
  4 16  1  0  0  0  0
  4 30  1  0  0  0  0
M  END
> <BIOSOLVEIT.HYDE_ATOM_SCORES [kJ/mol]>
# Atom-ID; Total; Rec-Desolv; Rec-IA; Lig-Desolv; Lig-IA
1;-2.0994;-1.1930;0.0000;-0.9064;0.0000
2;-1.1534;-0.3389;0.0000;-0.8144;0.0000
3;-2.0566;-0.9833;0.0000;-1.0733;0.0000
4;-2.1944;-1.1389;0.0000;-1.0555;0.0000
7;0.0000;0.0000;0.0000;0.0000;0.0000
8;-4.6113;-2.5055;0.0000;-2.1058;0.0000
9;3.5597;1.4290;0.0000;2.1307;0.0000
10;0.0000;0.0000;0.0000;0.0000;0.0000
11;0.9444;1.7855;0.0000;-0.8410;0.0000
12;0.0000;0.0000;0.0000;0.0000;0.0000
13;-0.2070;0.0000;0.0000;-0.2070;0.0000
14;-1.2524;0.0000;0.0000;-1.2524;0.0000
15;-2.3877;-1.4402;0.0000;-0.9475;0.0000
16;-1.4494;-0.9327;0.0000;-0.5167;0.0000
17;-0.5295;-0.0129;0.0000;-0.5167;0.0000
18;-2.3133;-1.4197;0.0000;-0.8936;0.0000
19;5.7216;-1.2670;0.0000;6.9886;0.0000
20;0.1334;-0.1380;0.0000;0.2714;0.0000

> <BIOSOLVEIT.HYDE_ESTIMATED_AFFINITY_LOWER_BOUNDARY [nM]>
1852766.307425

> <BIOSOLVEIT.HYDE_ESTIMATED_AFFINITY_UPPER_BOUNDARY [nM]>
184083287.064018

> <BIOSOLVEIT.HYDE_LIGAND_EFFICIENCY range: ++, +, 0, -, -->
--

> <BIOSOLVEIT.HYDE_LIGAND_LIPOPHILIC_EFFICIENCY range: ++, +, 0, -, -->
--

> <BIOSOLVEIT.INTER_CLASH range: red, yellow, green>
green

> <BIOSOLVEIT.INTRA_CLASH range: red, yellow, green>
green

> <BIOSOLVEIT.LOGP>
2.2845

> <BIOSOLVEIT.MOLECULAR_WEIGHT>
240.261

> <BIOSOLVEIT.MOLECULE_CHECKSUM>
LTkuODk1MzswLjU0OTczOQ==

> <BIOSOLVEIT.TORSION_QUALITY range: red, yellow, green, not rotatable>
green

> <BIOSOLVEIT.TPSA>
49.41

> <BIOSOLVEIT.OPTIBRIUM.2D6 affinity category>
high

> <BIOSOLVEIT.OPTIBRIUM.BBB category>
+

> <BIOSOLVEIT.OPTIBRIUM.2C9 pKi>
4.34307

> <BIOSOLVEIT.OPTIBRIUM.hERG pIC50>
4.61448

> <BIOSOLVEIT.OPTIBRIUM.HIA category>
+

> <BIOSOLVEIT.OPTIBRIUM.BBB log([brain]:[blood])>
0.0698869

> <BIOSOLVEIT.OPTIBRIUM.logD>
2.40685

> <BIOSOLVEIT.OPTIBRIUM.logP>
2.40685

> <BIOSOLVEIT.OPTIBRIUM.logS>
1.96778

> <BIOSOLVEIT.OPTIBRIUM.logS @ pH7.4>
1.96778

> <BIOSOLVEIT.OPTIBRIUM.P-gp category>
no

> <BIOSOLVEIT.OPTIBRIUM.PPB90 category>
low

$$$$
z0900b_z0936a_4
dcSeeSAR  12172411573D 1   1.00000     0.00000     0
SeeSAR 13.0.1 dcn76311
 33 35  0  0  0  0            999 V2000
  -25.3188  -30.9384  -16.7340 C   0  0  0  0  0  0  0  0  0  0  0  0
  -25.9782  -30.2899  -15.6949 C   0  0  0  0  0  0  0  0  0  0  0  0
  -27.0143  -29.4056  -15.9743 C   0  0  0  0  0  0  0  0  0  0  0  0
  -27.4059  -29.1564  -17.2859 C   0  0  0  0  0  0  0  0  0  0  0  0
  -25.6882  -30.4715  -14.6811 H   0  0  0  0  0  0  0  0  0  0  0  0
  -27.5170  -28.9102  -15.1701 H   0  0  0  0  0  0  0  0  0  0  0  0
  -24.7662  -31.7539  -21.4761 N   0  0  0  0  0  0  0  0  0  0  0  0
  -24.7507  -34.2220  -21.0698 C   0  0  0  0  0  0  0  0  0  0  0  0
  -25.0425  -30.1602  -23.1600 O   0  0  0  0  0  0  0  0  0  0  0  0
  -23.9388  -32.9497  -21.2679 C   0  0  1  0  0  0  0  0  0  0  0  0
  -24.4928  -31.1605  -22.7094 C   0  0  0  0  0  0  0  0  0  0  0  0
  -23.0876  -32.9670  -22.5242 C   0  0  0  0  0  0  0  0  0  0  0  0
  -25.4409  -31.0906  -20.3972 C   0  0  0  0  0  0  0  0  0  0  0  0
  -26.4766  -30.2068  -20.6839 C   0  0  0  0  0  0  0  0  0  0  0  0
  -27.1305  -29.5638  -19.6382 C   0  0  0  0  0  0  0  0  0  0  0  0
  -26.7464  -29.8064  -18.3242 C   0  0  0  0  0  0  0  0  0  0  0  0
  -25.7086  -30.6918  -18.0467 C   0  0  0  0  0  0  0  0  0  0  0  0
  -25.0494  -31.3398  -19.0862 C   0  0  0  0  0  0  0  0  0  0  0  0
  -23.4852  -31.9085  -23.3012 N   0  0  0  0  0  0  0  0  0  0  0  0
  -22.1758  -33.7452  -22.7938 O   0  0  0  0  0  0  0  0  0  0  0  0
  -24.0877  -35.0492  -20.9245 H   0  0  0  0  0  0  0  0  0  0  0  0
  -25.3795  -34.1138  -20.2109 H   0  0  0  0  0  0  0  0  0  0  0  0
  -25.3555  -34.3974  -21.9349 H   0  0  0  0  0  0  0  0  0  0  0  0
  -23.3081  -32.7980  -20.4169 H   0  0  0  0  0  0  0  0  0  0  0  0
  -26.7668  -30.0239  -21.6974 H   0  0  0  0  0  0  0  0  0  0  0  0
  -28.2651  -28.5959  -19.9319 C   0  0  0  0  0  0  0  0  0  0  0  0
  -24.2509  -32.0214  -18.8797 H   0  0  0  0  0  0  0  0  0  0  0  0
  -23.0918  -31.6989  -24.1964 H   0  0  0  0  0  0  0  0  0  0  0  0
  -24.5204  -31.6197  -16.5260 H   0  0  0  0  0  0  0  0  0  0  0  0
  -28.2036  -28.4741  -17.4932 H   0  0  0  0  0  0  0  0  0  0  0  0
  -28.6442  -28.2011  -19.0125 H   0  0  0  0  0  0  0  0  0  0  0  0
  -27.9017  -27.7948  -20.5412 H   0  0  0  0  0  0  0  0  0  0  0  0
  -29.0480  -29.1104  -20.4489 H   0  0  0  0  0  0  0  0  0  0  0  0
  1  2  2  0  0  0  0
  2  3  1  0  0  0  0
  3  4  2  0  0  0  0
  2  5  1  0  0  0  0
  3  6  1  0  0  0  0
  7 10  1  0  0  0  0
  7 11  1  0  0  0  0
  7 13  1  0  0  0  0
  8 10  1  0  0  0  0
  9 11  2  0  0  0  0
 10 12  1  0  0  0  0
 11 19  1  0  0  0  0
 12 19  1  0  0  0  0
 12 20  2  0  0  0  0
 13 14  2  0  0  0  0
 13 18  1  0  0  0  0
 14 15  1  0  0  0  0
 15 16  2  0  0  0  0
 16 17  1  0  0  0  0
 17 18  2  0  0  0  0
  8 21  1  0  0  0  0
  8 22  1  0  0  0  0
  8 23  1  0  0  0  0
 10 24  1  0  0  0  0
 14 25  1  0  0  0  0
 15 26  1  0  0  0  0
 18 27  1  0  0  0  0
 19 28  1  0  0  0  0
  1 17  1  0  0  0  0
  1 29  1  0  0  0  0
  4 16  1  0  0  0  0
  4 30  1  0  0  0  0
 26 31  1  0  0  0  0
 26 32  1  0  0  0  0
 26 33  1  0  0  0  0
M  END
> <BIOSOLVEIT.INTER_CLASH range: red, yellow, green>
red

> <BIOSOLVEIT.INTRA_CLASH range: red, yellow, green>
yellow

> <BIOSOLVEIT.LOGP>
2.59292

> <BIOSOLVEIT.MOLECULAR_WEIGHT>
254.288

> <BIOSOLVEIT.TORSION_QUALITY range: red, yellow, green, not rotatable>
green

> <BIOSOLVEIT.TPSA>
49.41

> <BIOSOLVEIT.OPTIBRIUM.2D6 affinity category>
high

> <BIOSOLVEIT.OPTIBRIUM.BBB category>
+

> <BIOSOLVEIT.OPTIBRIUM.2C9 pKi>
4.81469

> <BIOSOLVEIT.OPTIBRIUM.hERG pIC50>
4.59

> <BIOSOLVEIT.OPTIBRIUM.HIA category>
+

> <BIOSOLVEIT.OPTIBRIUM.BBB log([brain]:[blood])>
0.0938507

> <BIOSOLVEIT.OPTIBRIUM.logD>
2.83796

> <BIOSOLVEIT.OPTIBRIUM.logP>
2.83796

> <BIOSOLVEIT.OPTIBRIUM.logS>
1.77551

> <BIOSOLVEIT.OPTIBRIUM.logS @ pH7.4>
1.77551

> <BIOSOLVEIT.OPTIBRIUM.P-gp category>
no

> <BIOSOLVEIT.OPTIBRIUM.PPB90 category>
high

$$$$
