Zika_NS5A-x0903_A_1302_1_Zika_NS5A-x0351+A+1112+1
     RDKit          3D

 15 17  0  0  0  0  0  0  0  0999 V2000
  -27.2450  -31.9190  -20.2890 O   0  0  0  0  0  0  0  0  0  0  0  0
  -26.9860  -30.7270  -20.3570 C   0  0  0  0  0  0  0  0  0  0  0  0
  -25.9740  -30.1520  -21.0690 N   0  0  0  0  0  0  0  0  0  0  0  0
  -27.7350  -29.6010  -19.6210 C   0  0  2  0  0  0  0  0  0  0  0  0
  -26.9310  -28.4520  -20.0250 N   0  0  0  0  0  0  0  0  0  0  0  0
  -25.9320  -28.7740  -20.8790 C   0  0  0  0  0  0  0  0  0  0  0  0
  -25.1460  -27.9920  -21.4170 O   0  0  0  0  0  0  0  0  0  0  0  0
  -27.8800  -29.7770  -18.1210 C   0  0  0  0  0  0  0  0  0  0  0  0
  -29.2140  -29.9260  -17.7720 C   0  0  0  0  0  0  0  0  0  0  0  0
  -30.0720  -30.0710  -18.9960 C   0  0  0  0  0  0  0  0  0  0  0  0
  -29.2000  -29.4940  -20.1170 C   0  0  0  0  0  0  0  0  0  0  0  0
  -26.8930  -29.7790  -17.1430 C   0  0  0  0  0  0  0  0  0  0  0  0
  -27.2560  -29.9040  -15.8070 C   0  0  0  0  0  0  0  0  0  0  0  0
  -28.5850  -30.0110  -15.4530 C   0  0  0  0  0  0  0  0  0  0  0  0
  -29.5660  -30.0210  -16.4310 C   0  0  0  0  0  0  0  0  0  0  0  0
  7  6  2  0
  6  3  1  0
  3  2  1  0
  2  1  2  0
  4  2  1  0
  4 11  1  6
 11 10  1  0
 10  9  1  0
  9 15  2  0
 15 14  1  0
 14 13  2  0
 13 12  1  0
 12  8  2  0
  9  8  1  0
  8  4  1  0
  5  4  1  0
  6  5  1  0
M  END
$$$$

