Zika_NS5A-x0892_A_1112_1_Zika_NS5A-x0892+A+1112+1
     RDKit          3D

 15 16  0  0  0  0  0  0  0  0999 V2000
  -20.6820  -10.4370  -19.7870 C   0  0  0  0  0  0  0  0  0  0  0  0
  -19.9110   -9.5590  -20.7100 C   0  0  0  0  0  0  0  0  0  0  0  0
  -20.7560   -8.5090  -21.3890 C   0  0  0  0  0  0  0  0  0  0  0  0
  -20.6890   -7.1940  -20.9680 C   0  0  0  0  0  0  0  0  0  0  0  0
  -21.4030   -6.1980  -21.6100 C   0  0  0  0  0  0  0  0  0  0  0  0
  -22.1770   -6.4940  -22.7240 C   0  0  0  0  0  0  0  0  0  0  0  0
  -22.2460   -7.8160  -23.1570 C   0  0  0  0  0  0  0  0  0  0  0  0
  -21.5570   -8.8060  -22.4790 C   0  0  0  0  0  0  0  0  0  0  0  0
  -23.0560   -5.6000  -23.3660 N   0  0  0  0  0  0  0  0  0  0  0  0
  -23.9090   -4.6650  -22.9170 C   0  0  0  0  0  0  0  0  0  0  0  0
  -24.1580   -4.9480  -21.1950 S   0  0  0  0  0  0  0  0  0  0  0  0
  -25.3160   -3.5730  -20.8490 C   0  0  0  0  0  0  0  0  0  0  0  0
  -26.1190   -3.0230  -21.9830 C   0  0  0  0  0  0  0  0  0  0  0  0
  -25.3790   -2.7640  -23.2730 C   0  0  0  0  0  0  0  0  0  0  0  0
  -24.4300   -3.7880  -23.7250 N   0  0  0  0  0  0  0  0  0  0  0  0
  2  1  1  0
  3  2  1  0
  3  8  2  0
  8  7  1  0
  7  6  2  0
  9  6  1  0
 10  9  1  0
 10 15  2  0
 15 14  1  0
 14 13  1  0
 13 12  1  0
 12 11  1  0
 11 10  1  0
  6  5  1  0
  5  4  2  0
  4  3  1  0
M  END
$$$$

