Zika_NS5A-x0987_A_1112_1_Zika_NS5A-x0111+A+1112+1
     RDKit          3D

 13 14  0  0  0  0  0  0  0  0999 V2000
   -7.1030  -42.2250  -45.4070 O   0  0  0  0  0  0  0  0  0  0  0  0
   -6.0690  -41.5670  -45.3350 C   0  0  0  0  0  0  0  0  0  0  0  0
   -5.0460  -41.7780  -46.1610 N   0  0  0  0  0  0  0  0  0  0  0  0
   -5.1520  -42.6840  -47.2890 C   0  0  0  0  0  0  0  0  0  0  0  0
   -5.9120  -40.4940  -44.2930 C   0  0  0  0  0  0  0  0  0  0  0  0
   -5.3200  -39.2500  -44.5830 C   0  0  0  0  0  0  0  0  0  0  0  0
   -4.7190  -38.7910  -45.7280 N   0  0  0  0  0  0  0  0  0  0  0  0
   -4.3010  -37.5020  -45.5140 C   0  0  0  0  0  0  0  0  0  0  0  0
   -4.6140  -37.1110  -44.2530 C   0  0  0  0  0  0  0  0  0  0  0  0
   -5.2650  -38.2170  -43.6230 C   0  0  0  0  0  0  0  0  0  0  0  0
   -5.7910  -38.4590  -42.3520 C   0  0  0  0  0  0  0  0  0  0  0  0
   -6.3560  -39.6890  -42.0490 C   0  0  0  0  0  0  0  0  0  0  0  0
   -6.4210  -40.6940  -43.0050 C   0  0  0  0  0  0  0  0  0  0  0  0
  4  3  1  0
  3  2  1  0
  2  1  2  0
  5  2  1  0
  5 13  2  0
 13 12  1  0
 12 11  2  0
 11 10  1  0
 10  9  1  0
  9  8  2  0
  8  7  1  0
  7  6  1  0
  6  5  1  0
 10  6  2  0
M  END
$$$$

