Zika_NS5A-x0881_A_1201_1_Zika_NS5A-x0351+A+1112+1
     RDKit          3D

 12 13  0  0  0  0  0  0  0  0999 V2000
  -28.8040  -29.7870  -15.6710 N   0  0  0  0  0  0  0  0  0  0  0  0
  -28.2740  -29.9650  -16.8810 C   0  0  0  0  0  0  0  0  0  0  0  0
  -26.8810  -30.1890  -17.0480 C   0  0  0  0  0  0  0  0  0  0  0  0
  -25.9270  -30.2580  -15.8840 C   0  0  0  0  0  0  0  0  0  0  0  0
  -29.1380  -29.9450  -17.9050 N   0  0  0  0  0  0  0  0  0  0  0  0
  -28.6580  -30.0910  -19.1790 C   0  0  0  0  0  0  0  0  0  0  0  0
  -27.2910  -30.2840  -19.4410 C   0  0  0  0  0  0  0  0  0  0  0  0
  -26.4240  -30.3340  -18.3360 C   0  0  0  0  0  0  0  0  0  0  0  0
  -29.5580  -29.9940  -20.2660 C   0  0  0  0  0  0  0  0  0  0  0  0
  -29.0980  -30.0740  -21.5480 C   0  0  0  0  0  0  0  0  0  0  0  0
  -27.7510  -30.2710  -21.8060 C   0  0  0  0  0  0  0  0  0  0  0  0
  -26.8580  -30.3810  -20.7830 C   0  0  0  0  0  0  0  0  0  0  0  0
  4  3  1  0
  3  8  2  0
  8  7  1  0
  7 12  2  0
 12 11  1  0
 11 10  2  0
 10  9  1  0
  9  6  2  0
  7  6  1  0
  6  5  1  0
  5  2  2  0
  3  2  1  0
  2  1  1  0
M  END
$$$$

