Zika_NS5A-x0264_A_1201_1_Zika_NS5A-x0437+A+1201+1
     RDKit          3D

 16 17  0  0  0  0  0  0  0  0999 V2000
    7.7160  -27.7430  -22.8820 F   0  0  0  0  0  0  0  0  0  0  0  0
    8.8570  -28.1680  -23.5040 C   0  0  0  0  0  0  0  0  0  0  0  0
    9.5700  -27.2680  -24.2600 C   0  0  0  0  0  0  0  0  0  0  0  0
   10.6170  -27.7380  -25.0290 C   0  0  0  0  0  0  0  0  0  0  0  0
    9.1660  -29.4980  -23.4420 C   0  0  0  0  0  0  0  0  0  0  0  0
   10.2130  -29.9700  -24.2190 C   0  0  0  0  0  0  0  0  0  0  0  0
   10.9490  -29.1050  -25.0340 C   0  0  0  0  0  0  0  0  0  0  0  0
   11.9920  -29.6000  -25.8640 N   0  0  0  0  0  0  0  0  0  0  0  0
   12.3260  -31.0260  -25.8180 C   0  0  0  0  0  0  0  0  0  0  0  0
   13.7730  -31.2230  -26.1820 C   0  0  0  0  0  0  0  0  0  0  0  0
   12.1940  -29.0870  -27.2250 C   0  0  0  0  0  0  0  0  0  0  0  0
   13.6340  -29.3190  -27.6950 C   0  0  0  0  0  0  0  0  0  0  0  0
   14.0100  -30.7290  -27.5400 N   0  0  0  0  0  0  0  0  0  0  0  0
   14.5980  -31.5930  -28.5120 C   0  0  0  0  0  0  0  0  0  0  0  0
   15.2030  -31.1510  -29.5020 O   0  0  0  0  0  0  0  0  0  0  0  0
   14.4500  -32.8990  -28.2770 N   0  0  0  0  0  0  0  0  0  0  0  0
 16 14  1  0
 15 14  2  0
 14 13  1  0
 13 10  1  0
 10  9  1  0
  9  8  1  0
 11  8  1  0
 12 11  1  0
 13 12  1  0
  8  7  1  0
  7  4  2  0
  4  3  1  0
  3  2  2  0
  2  1  1  0
  5  2  1  0
  6  5  2  0
  7  6  1  0
M  END
$$$$

