QOAMYTSWHMHASV-UHFFFAOYSA-N
     RDKit          3D

 15 16  0  0  0  0  0  0  0  0999 V2000
  -26.1623  -61.4232   -3.3084 C   0  0  0  0  0  0  0  0  0  0  0  0
  -26.0009  -60.7536   -1.9364 C   0  0  0  0  0  0  0  0  0  0  0  0
  -24.8817  -61.4650   -1.1829 C   0  0  0  0  0  0  0  0  0  0  0  0
  -25.7948  -59.3124   -1.9992 N   0  0  0  0  0  0  0  0  0  0  0  0
  -25.0066  -58.5456   -1.1816 C   0  0  0  0  0  0  0  0  0  0  0  0
  -25.0934  -57.2617   -1.6524 C   0  0  0  0  0  0  0  0  0  0  0  0
  -24.3443  -56.2428   -1.1971 N   0  0  0  0  0  0  0  0  0  0  0  0
  -24.7059  -54.9360   -1.0070 C   0  0  0  0  0  0  0  0  0  0  0  0
  -23.7545  -54.1549   -0.6409 N   0  0  0  0  0  0  0  0  0  0  0  0
  -23.8780  -52.7325   -0.3944 C   0  0  0  0  0  0  0  0  0  0  0  0
  -25.0093  -52.0928   -1.1607 C   0  0  0  0  0  0  0  0  0  0  0  0
  -26.3158  -52.7140   -0.7350 C   0  0  0  0  0  0  0  0  0  0  0  0
  -26.3724  -54.4530   -1.1867 S   0  0  0  0  0  0  0  0  0  0  0  0
  -26.0008  -57.3404   -2.7221 C   0  0  0  0  0  0  0  0  0  0  0  0
  -26.4288  -58.5859   -2.9386 N   0  0  0  0  0  0  0  0  0  0  0  0
  1  2  1  0
  2  3  1  0
  2  4  1  0
  4  5  1  0
  5  6  2  0
  6  7  1  0
  7  8  1  0
  8  9  2  0
  9 10  1  0
 10 11  1  0
 11 12  1  0
 12 13  1  0
  6 14  1  0
 14 15  2  0
 15  4  1  0
 13  8  1  0
M  END
>  <id>  (1) 
299

>  <inchikey>  (1) 
QOAMYTSWHMHASV-UHFFFAOYSA-N

>  <alias>  (1) 
None

>  <smiles>  (1) 
CC(C)n1cc(NC2=NCCCS2)cn1

>  <path>  (1) 
/opt/xchem-fragalysis-2/maxwin/BulkDock/SCRATCH/201736/C734-P174/C734-P174.minimised.mol

>  <distance_score>  (1) 
0.95083

>  <energy_score>  (1) 
-35.222787

>  <compound>  (1) 
QOAMYTSWHMHASV-UHFFFAOYSA-N

>  <compound_id>  (1) 
734

>  <target>  (1) 
Flavi_NS5_RdRp

>  <tags>  (1) 
['Knitwork impure merge', 'Enamine_unavailable', 'best elaborated iter1 scaffold poses', 'Fragmenstein', 'Cavity B merge']

>  <inspirations>  (1) 
{P Ã— 2}

>  <subsites>  (1) 
[[1m[4m"Cavity B"[22m[24m]

>  <reference>  (1) 
z0892b

>  <SLURM_JOB_ID>  (1) 
211008

>  <SLURM_JOB_NAME>  (1) 
BulkDock.place:Flavi_NS5_RdRp:RdRp_knitwork_cavity_b_impure_split4000_batch000

>  <csv_name>  (1) 
RdRp_knitwork_cavity_b_impure_split4000_batch000.csv

>  <scratch_subdir>  (1) 
/opt/xchem-fragalysis-2/maxwin/BulkDock/SCRATCH/211008/C299-P174

>  <fragmenstein_runtime>  (1) 
21.583449602127075

>  <fragmenstein_outcome>  (1) 
too moved

>  <fragmenstein_mode>  (1) 
expansion

>  <fragmenstein_error>  (1) 


>  <exports>  (1) 
/opt/xchem-fragalysis-2/maxwin/RdRp_FFF/hippo/iter1_elaborated_scaffold_poses.sdf

>  <Multi-SuCOS>  (1) 
nan

>  <merge_set>  (1) 
nan

$$$$
VUWLOCLKMVGYPC-UHFFFAOYSA-N
     RDKit          3D

 14 14  0  0  0  0  0  0  0  0999 V2000
  -14.3243  -69.4616  -22.8170 C   0  0  0  0  0  0  0  0  0  0  0  0
  -14.9069  -69.6986  -21.4398 C   0  0  0  0  0  0  0  0  0  0  0  0
  -13.6688  -69.8144  -20.1539 S   0  0  0  0  0  0  0  0  0  0  0  0
  -12.8542  -68.6258  -20.1773 O   0  0  0  0  0  0  0  0  0  0  0  0
  -14.3369  -70.2360  -18.9366 O   0  0  0  0  0  0  0  0  0  0  0  0
  -12.7507  -71.1218  -20.6510 N   0  0  0  0  0  0  0  0  0  0  0  0
  -11.3964  -70.8513  -21.2091 C   0  0  0  0  0  0  0  0  0  0  0  0
  -10.2963  -71.1135  -20.2028 C   0  0  0  0  0  0  0  0  0  0  0  0
  -10.6235  -71.8449  -19.0947 N   0  0  0  0  0  0  0  0  0  0  0  0
   -9.6183  -72.1495  -18.2411 C   0  0  0  0  0  0  0  0  0  0  0  0
   -8.2976  -71.7713  -18.4312 C   0  0  0  0  0  0  0  0  0  0  0  0
   -7.9818  -71.0315  -19.5638 C   0  0  0  0  0  0  0  0  0  0  0  0
   -8.9915  -70.7010  -20.4562 C   0  0  0  0  0  0  0  0  0  0  0  0
   -8.6767  -69.9988  -21.5478 F   0  0  0  0  0  0  0  0  0  0  0  0
  1  2  1  0
  2  3  1  0
  3  4  2  0
  3  5  2  0
  3  6  1  0
  6  7  1  0
  7  8  1  0
  8  9  2  0
  9 10  1  0
 10 11  2  0
 11 12  1  0
 12 13  2  0
 13 14  1  0
 13  8  1  0
M  END
>  <id>  (2) 
496

>  <inchikey>  (2) 
VUWLOCLKMVGYPC-UHFFFAOYSA-N

>  <alias>  (2) 
None

>  <smiles>  (2) 
CCS(=O)(=O)NCc1ncccc1F

>  <path>  (2) 
/opt/xchem-fragalysis-2/maxwin/BulkDock/SCRATCH/201738/C791-P17/C791-P17.minimised.mol

>  <distance_score>  (2) 
0.66543

>  <energy_score>  (2) 
-39.773228

>  <compound>  (2) 
VUWLOCLKMVGYPC-UHFFFAOYSA-N

>  <compound_id>  (2) 
791

>  <target>  (2) 
Flavi_NS5_RdRp

>  <tags>  (2) 
['Fragmenstein', 'Knitwork impure merge', 'Cavity B merge']

>  <inspirations>  (2) 
{P Ã— 2}

>  <subsites>  (2) 
None

>  <reference>  (2) 
d0174a

>  <SLURM_JOB_ID>  (2) 
211008

>  <SLURM_JOB_NAME>  (2) 
BulkDock.place:Flavi_NS5_RdRp:RdRp_knitwork_cavity_b_impure_split4000_batch000

>  <csv_name>  (2) 
RdRp_knitwork_cavity_b_impure_split4000_batch000.csv

>  <scratch_subdir>  (2) 
/opt/xchem-fragalysis-2/maxwin/BulkDock/SCRATCH/211008/C496-P199

>  <fragmenstein_runtime>  (2) 
13.425369262695312

>  <fragmenstein_outcome>  (2) 
too moved

>  <fragmenstein_mode>  (2) 
expansion

>  <fragmenstein_error>  (2) 


>  <exports>  (2) 
nan

>  <Multi-SuCOS>  (2) 
nan

>  <merge_set>  (2) 
nan

$$$$
IQFFGYDSWILZBZ-UHFFFAOYSA-N
     RDKit          3D

 18 19  0  0  0  0  0  0  0  0999 V2000
  -14.6703  -69.2999  -22.9966 C   0  0  0  0  0  0  0  0  0  0  0  0
  -14.2653  -70.7300  -22.6132 C   0  0  0  0  0  0  0  0  0  0  0  0
  -15.4292  -71.3177  -21.8034 C   0  0  0  0  0  0  0  0  0  0  0  0
  -14.0675  -71.6058  -23.8706 C   0  0  0  0  0  0  0  0  0  0  0  0
  -13.1380  -71.0959  -24.8112 O   0  0  0  0  0  0  0  0  0  0  0  0
  -13.0673  -70.7582  -21.7439 N   0  0  0  0  0  0  0  0  0  0  0  0
  -12.0306  -69.7063  -21.8899 C   0  0  0  0  0  0  0  0  0  0  0  0
  -11.7559  -69.7759  -23.1061 O   0  0  0  0  0  0  0  0  0  0  0  0
  -11.3375  -70.4907  -20.8017 C   0  0  0  0  0  0  0  0  0  0  0  0
  -11.4679  -70.2223  -19.4477 C   0  0  0  0  0  0  0  0  0  0  0  0
  -10.1863  -70.9640  -18.5795 S   0  0  0  0  0  0  0  0  0  0  0  0
   -9.5254  -71.5036  -20.0619 C   0  0  0  0  0  0  0  0  0  0  0  0
   -8.1030  -72.1080  -20.2628 C   0  0  0  0  0  0  0  0  0  0  0  0
   -7.6713  -72.6699  -21.5013 C   0  0  0  0  0  0  0  0  0  0  0  0
   -6.3701  -73.1077  -21.4448 C   0  0  0  0  0  0  0  0  0  0  0  0
   -5.6577  -72.7883  -19.9240 S   0  0  0  0  0  0  0  0  0  0  0  0
   -7.1117  -72.1242  -19.3115 C   0  0  0  0  0  0  0  0  0  0  0  0
  -10.2872  -71.3322  -21.1164 N   0  0  0  0  0  0  0  0  0  0  0  0
  1  2  1  0
  2  3  1  0
  2  4  1  0
  4  5  1  0
  2  6  1  0
  6  7  1  0
  7  8  2  0
  7  9  1  0
  9 10  2  0
 10 11  1  0
 11 12  1  0
 12 13  1  0
 13 14  1  0
 14 15  2  0
 15 16  1  0
 16 17  1  0
 12 18  2  0
 18  9  1  0
 17 13  2  0
M  END
>  <id>  (3) 
621

>  <inchikey>  (3) 
IQFFGYDSWILZBZ-UHFFFAOYSA-N

>  <alias>  (3) 
None

>  <smiles>  (3) 
CC(C)(CO)NC(=O)c1csc(-c2ccsc2)n1

>  <path>  (3) 
/opt/xchem-fragalysis-2/maxwin/BulkDock/SCRATCH/201741/C1443-P33/C1443-P33.minimised.mol

>  <distance_score>  (3) 
0.806872

>  <energy_score>  (3) 
-6.451584

>  <compound>  (3) 
ASAP-0037700-001

>  <compound_id>  (3) 
1443

>  <target>  (3) 
Flavi_NS5_RdRp

>  <tags>  (3) 
['Fragmenstein', 'Knitwork impure merge', 'Cavity B merge']

>  <inspirations>  (3) 
{P Ã— 2}

>  <subsites>  (3) 
None

>  <reference>  (3) 
d0376a

>  <SLURM_JOB_ID>  (3) 
211008

>  <SLURM_JOB_NAME>  (3) 
BulkDock.place:Flavi_NS5_RdRp:RdRp_knitwork_cavity_b_impure_split4000_batch000

>  <csv_name>  (3) 
RdRp_knitwork_cavity_b_impure_split4000_batch000.csv

>  <scratch_subdir>  (3) 
/opt/xchem-fragalysis-2/maxwin/BulkDock/SCRATCH/211008/C621-P183

>  <fragmenstein_runtime>  (3) 
65.2476589679718

>  <fragmenstein_outcome>  (3) 
too moved

>  <fragmenstein_mode>  (3) 
expansion

>  <fragmenstein_error>  (3) 


>  <exports>  (3) 
nan

>  <Multi-SuCOS>  (3) 
nan

>  <merge_set>  (3) 
nan

$$$$
ZPBHINXHGPMFIS-UHFFFAOYSA-N
     RDKit          3D

 21 22  0  0  0  0  0  0  0  0999 V2000
  -14.5237  -69.3908  -22.7879 C   0  0  0  0  0  0  0  0  0  0  0  0
  -15.0477  -69.5285  -21.3743 C   0  0  0  0  0  0  0  0  0  0  0  0
  -13.7677  -69.7827  -20.1524 S   0  0  0  0  0  0  0  0  0  0  0  0
  -12.8456  -68.6772  -20.2008 O   0  0  0  0  0  0  0  0  0  0  0  0
  -14.4090  -70.1741  -18.9107 O   0  0  0  0  0  0  0  0  0  0  0  0
  -13.0048  -71.1573  -20.6982 N   0  0  0  0  0  0  0  0  0  0  0  0
  -11.7335  -71.0407  -21.4179 C   0  0  0  0  0  0  0  0  0  0  0  0
  -10.4956  -71.1374  -20.5570 C   0  0  0  0  0  0  0  0  0  0  0  0
  -10.4313  -71.9483  -19.4161 C   0  0  0  0  0  0  0  0  0  0  0  0
   -9.2344  -72.0847  -18.7060 C   0  0  0  0  0  0  0  0  0  0  0  0
   -8.0798  -71.4204  -19.1201 C   0  0  0  0  0  0  0  0  0  0  0  0
   -6.9696  -71.6700  -18.3636 O   0  0  0  0  0  0  0  0  0  0  0  0
   -5.8476  -70.8025  -18.5376 C   0  0  0  0  0  0  0  0  0  0  0  0
   -4.9070  -71.1660  -19.6514 C   0  0  0  0  0  0  0  0  0  0  0  0
   -4.5984  -72.4948  -19.9279 C   0  0  0  0  0  0  0  0  0  0  0  0
   -3.6829  -72.7670  -20.9283 C   0  0  0  0  0  0  0  0  0  0  0  0
   -3.0948  -71.7076  -21.6056 C   0  0  0  0  0  0  0  0  0  0  0  0
   -3.4308  -70.4135  -21.2508 C   0  0  0  0  0  0  0  0  0  0  0  0
   -4.3232  -70.1226  -20.2928 N   0  0  0  0  0  0  0  0  0  0  0  0
   -8.1320  -70.6123  -20.2525 C   0  0  0  0  0  0  0  0  0  0  0  0
   -9.3282  -70.4746  -20.9646 C   0  0  0  0  0  0  0  0  0  0  0  0
  1  2  1  0
  2  3  1  0
  3  4  2  0
  3  5  2  0
  3  6  1  0
  6  7  1  0
  7  8  1  0
  8  9  2  0
  9 10  1  0
 10 11  2  0
 11 12  1  0
 12 13  1  0
 13 14  1  0
 14 15  2  0
 15 16  1  0
 16 17  2  0
 17 18  1  0
 18 19  2  0
 11 20  1  0
 20 21  2  0
 21  8  1  0
 19 14  1  0
M  END
>  <id>  (4) 
706

>  <inchikey>  (4) 
ZPBHINXHGPMFIS-UHFFFAOYSA-N

>  <alias>  (4) 
None

>  <smiles>  (4) 
CCS(=O)(=O)NCc1ccc(OCc2ccccn2)cc1

>  <path>  (4) 
/opt/xchem-fragalysis-2/maxwin/BulkDock/SCRATCH/201738/C897-P17/C897-P17.minimised.mol

>  <distance_score>  (4) 
0.963394

>  <energy_score>  (4) 
-36.475766

>  <compound>  (4) 
ZPBHINXHGPMFIS-UHFFFAOYSA-N

>  <compound_id>  (4) 
897

>  <target>  (4) 
Flavi_NS5_RdRp

>  <tags>  (4) 
['Primer grip/N-pocket merge', 'Enamine_Quote_1977854', 'Knitwork impure merge', 'Fragmenstein']

>  <inspirations>  (4) 
{P Ã— 2}

>  <subsites>  (4) 
None

>  <reference>  (4) 
d0174a

>  <SLURM_JOB_ID>  (4) 
211033

>  <SLURM_JOB_NAME>  (4) 
BulkDock.place:Flavi_NS5_RdRp:RdRp_knitwork_primer_grip_n_pocket_impure_split4000_batch001

>  <csv_name>  (4) 
RdRp_knitwork_primer_grip_n_pocket_impure_split4000_batch001.csv

>  <scratch_subdir>  (4) 
/opt/xchem-fragalysis-2/maxwin/BulkDock/SCRATCH/211033/C706-P68

>  <fragmenstein_runtime>  (4) 
26.296600341796875

>  <fragmenstein_outcome>  (4) 
too moved

>  <fragmenstein_mode>  (4) 
expansion

>  <fragmenstein_error>  (4) 


>  <exports>  (4) 
nan

>  <Multi-SuCOS>  (4) 
nan

>  <merge_set>  (4) 
nan

$$$$
FOZSYKGVMKDKBV-SNVBAGLBSA-N
     RDKit          3D

 20 21  0  0  0  0  0  0  0  0999 V2000
  -14.1479  -69.6505  -22.8418 C   0  0  0  0  0  0  0  0  0  0  0  0
  -14.7237  -69.8669  -21.4599 C   0  0  0  0  0  0  0  0  0  0  0  0
  -13.4917  -69.8900  -20.1589 S   0  0  0  0  0  0  0  0  0  0  0  0
  -12.6575  -68.7209  -20.2650 O   0  0  0  0  0  0  0  0  0  0  0  0
  -14.1759  -70.2172  -18.9204 O   0  0  0  0  0  0  0  0  0  0  0  0
  -12.5607  -71.2368  -20.4972 N   0  0  0  0  0  0  0  0  0  0  0  0
  -11.2604  -71.1538  -21.1933 C   0  0  0  0  0  0  0  0  0  0  0  0
  -10.0966  -70.7504  -20.2820 C   0  0  1  0  0  0  0  0  0  0  0  0
  -10.0955  -71.3599  -18.8850 C   0  0  0  0  0  0  0  0  0  0  0  0
   -8.6526  -71.1930  -18.4598 C   0  0  0  0  0  0  0  0  0  0  0  0
   -8.2858  -71.1647  -17.2963 O   0  0  0  0  0  0  0  0  0  0  0  0
   -7.8650  -71.1380  -19.6119 N   0  0  0  0  0  0  0  0  0  0  0  0
   -6.4701  -70.8475  -19.6629 C   0  0  0  0  0  0  0  0  0  0  0  0
   -5.6792  -71.3091  -20.7056 C   0  0  0  0  0  0  0  0  0  0  0  0
   -4.3905  -70.7832  -20.9294 C   0  0  0  0  0  0  0  0  0  0  0  0
   -3.8780  -69.7906  -20.1014 C   0  0  0  0  0  0  0  0  0  0  0  0
   -2.4308  -68.9646  -20.5266 Cl  0  0  0  0  0  0  0  0  0  0  0  0
   -4.5795  -69.4461  -18.9597 C   0  0  0  0  0  0  0  0  0  0  0  0
   -5.8459  -70.0128  -18.7340 C   0  0  0  0  0  0  0  0  0  0  0  0
   -8.7046  -71.1566  -20.8000 C   0  0  0  0  0  0  0  0  0  0  0  0
  1  2  1  0
  2  3  1  0
  3  4  2  0
  3  5  2  0
  3  6  1  0
  6  7  1  0
  8  7  1  6
  8  9  1  0
  9 10  1  0
 10 11  2  0
 10 12  1  0
 12 13  1  0
 13 14  2  0
 14 15  1  0
 15 16  2  0
 16 17  1  0
 16 18  1  0
 18 19  2  0
 12 20  1  0
 20  8  1  0
 19 13  1  0
M  END
>  <id>  (5) 
1092

>  <inchikey>  (5) 
FOZSYKGVMKDKBV-SNVBAGLBSA-N

>  <alias>  (5) 
None

>  <smiles>  (5) 
CCS(=O)(=O)NC[C@H]1CC(=O)N(c2ccc(Cl)cc2)C1

>  <path>  (5) 
/opt/xchem-fragalysis-2/maxwin/BulkDock/SCRATCH/201741/C3075-P45/C3075-P45.minimised.mol

>  <distance_score>  (5) 
0.957905

>  <energy_score>  (5) 
-21.834161

>  <compound>  (5) 
ASAP-0037678-001

>  <compound_id>  (5) 
3075

>  <target>  (5) 
Flavi_NS5_RdRp

>  <tags>  (5) 
['Fragmenstein']

>  <inspirations>  (5) 
{P Ã— 2}

>  <subsites>  (5) 
None

>  <reference>  (5) 
d0566a

>  <SLURM_JOB_ID>  (5) 
nan

>  <SLURM_JOB_NAME>  (5) 
nan

>  <csv_name>  (5) 
nan

>  <scratch_subdir>  (5) 
/opt/xchem-fragalysis-2/maxwin/BulkDock/SCRATCH/201741/C3075-P45

>  <fragmenstein_runtime>  (5) 
19.426135

>  <fragmenstein_outcome>  (5) 
acceptable

>  <fragmenstein_mode>  (5) 
expansion

>  <fragmenstein_error>  (5) 


>  <exports>  (5) 
nan

>  <Multi-SuCOS>  (5) 
nan

>  <merge_set>  (5) 
nan

$$$$
DFFAHRILMAZSJI-CBAPKCEASA-N
     RDKit          3D

 14 15  0  0  0  0  0  0  0  0999 V2000
  -16.1126  -41.2166  -24.7302 O   0  0  0  0  0  0  0  0  0  0  0  0
  -14.9418  -41.1419  -23.9413 C   0  0  1  0  0  0  0  0  0  0  0  0
  -14.3827  -39.7352  -23.8297 C   0  0  0  0  0  0  0  0  0  0  0  0
  -13.5441  -39.7246  -22.6630 O   0  0  0  0  0  0  0  0  0  0  0  0
  -13.9505  -40.8317  -21.8306 C   0  0  0  0  0  0  0  0  0  0  0  0
  -15.1816  -41.4572  -22.4756 C   0  0  2  0  0  0  0  0  0  0  0  0
  -15.3640  -42.9427  -22.1462 C   0  0  0  0  0  0  0  0  0  0  0  0
  -16.7170  -43.3840  -22.5143 N   0  0  0  0  0  0  0  0  0  0  0  0
  -16.9260  -44.8225  -22.4435 C   0  0  0  0  0  0  0  0  0  0  0  0
  -17.2312  -45.2783  -21.0649 C   0  0  0  0  0  0  0  0  0  0  0  0
  -18.4148  -45.5837  -20.4252 C   0  0  0  0  0  0  0  0  0  0  0  0
  -18.0344  -46.0053  -19.1380 C   0  0  0  0  0  0  0  0  0  0  0  0
  -16.7119  -45.9675  -18.9640 N   0  0  0  0  0  0  0  0  0  0  0  0
  -16.2510  -45.5086  -20.1390 N   0  0  0  0  0  0  0  0  0  0  0  0
  2  1  1  6
  2  3  1  0
  3  4  1  0
  4  5  1  0
  5  6  1  0
  6  7  1  6
  7  8  1  0
  8  9  1  0
  9 10  1  0
 10 11  2  0
 11 12  1  0
 12 13  2  0
 13 14  1  0
  6  2  1  0
 14 10  1  0
M  END
>  <id>  (6) 
2078

>  <inchikey>  (6) 
DFFAHRILMAZSJI-CBAPKCEASA-N

>  <alias>  (6) 
None

>  <smiles>  (6) 
O[C@H]1COC[C@@H]1CNCc1ccn[nH]1

>  <path>  (6) 
/opt/xchem-fragalysis-2/maxwin/BulkDock/SCRATCH/202004/C10275-P26/C10275-P26.minimised.mol

>  <distance_score>  (6) 
0.879118

>  <energy_score>  (6) 
-32.711505

>  <compound>  (6) 
DFFAHRILMAZSJI-UHFFFAOYSA-N

>  <compound_id>  (6) 
10275

>  <target>  (6) 
Flavi_NS5_RdRp

>  <tags>  (6) 
['Enamine_unavailable', 'Thumb Site 2 merge', 'Knitwork impure merge', 'Fragmenstein']

>  <inspirations>  (6) 
{P Ã— 2}

>  <subsites>  (6) 
None

>  <reference>  (6) 
d0254a

>  <SLURM_JOB_ID>  (6) 
211013

>  <SLURM_JOB_NAME>  (6) 
BulkDock.place:Flavi_NS5_RdRp:RdRp_knitwork_thumb_site_2_impure_split4000_batch000

>  <csv_name>  (6) 
RdRp_knitwork_thumb_site_2_impure_split4000_batch000.csv

>  <scratch_subdir>  (6) 
/opt/xchem-fragalysis-2/maxwin/BulkDock/SCRATCH/211013/C2078-P50

>  <fragmenstein_runtime>  (6) 
4.999704122543335

>  <fragmenstein_outcome>  (6) 
too moved

>  <fragmenstein_mode>  (6) 
expansion

>  <fragmenstein_error>  (6) 


>  <exports>  (6) 
nan

>  <Multi-SuCOS>  (6) 
nan

>  <merge_set>  (6) 
nan

$$$$
AJQQGJNKKDEODG-UHFFFAOYSA-N
     RDKit          3D

 11 12  0  0  0  0  0  0  0  0999 V2000
  -15.3054  -44.7297  -21.1642 C   0  0  0  0  0  0  0  0  0  0  0  0
  -14.5560  -43.6147  -21.5105 C   0  0  0  0  0  0  0  0  0  0  0  0
  -13.7686  -43.0043  -20.5330 C   0  0  0  0  0  0  0  0  0  0  0  0
  -13.0322  -41.7773  -20.8209 C   0  0  0  0  0  0  0  0  0  0  0  0
  -13.3224  -40.7019  -21.6423 C   0  0  0  0  0  0  0  0  0  0  0  0
  -12.3431  -39.7413  -21.5814 N   0  0  0  0  0  0  0  0  0  0  0  0
  -11.4766  -40.1978  -20.7086 C   0  0  0  0  0  0  0  0  0  0  0  0
  -11.8175  -41.4437  -20.2632 N   0  0  0  0  0  0  0  0  0  0  0  0
  -13.7697  -43.5516  -19.2490 C   0  0  0  0  0  0  0  0  0  0  0  0
  -14.5574  -44.6652  -18.9993 C   0  0  0  0  0  0  0  0  0  0  0  0
  -15.3133  -45.2828  -19.9305 N   0  0  0  0  0  0  0  0  0  0  0  0
  1  2  2  0
  2  3  1  0
  3  4  1  0
  4  5  2  0
  5  6  1  0
  6  7  2  0
  7  8  1  0
  3  9  2  0
  9 10  1  0
 10 11  2  0
 11  1  1  0
  8  4  1  0
M  END
>  <id>  (7) 
3029

>  <inchikey>  (7) 
AJQQGJNKKDEODG-UHFFFAOYSA-N

>  <alias>  (7) 
None

>  <smiles>  (7) 
c1cc(-c2cnc[nH]2)ccn1

>  <path>  (7) 
/opt/xchem-fragalysis-2/maxwin/BulkDock/SCRATCH/201976/C8715-P42/C8715-P42.minimised.mol

>  <distance_score>  (7) 
0.859558

>  <energy_score>  (7) 
-11.85689

>  <compound>  (7) 
AJQQGJNKKDEODG-UHFFFAOYSA-N

>  <compound_id>  (7) 
8715

>  <target>  (7) 
Flavi_NS5_RdRp

>  <tags>  (7) 
['Enamine_Quote_1970815', 'Fragmenstein']

>  <inspirations>  (7) 
{P Ã— 2}

>  <subsites>  (7) 
None

>  <reference>  (7) 
d0472a

>  <SLURM_JOB_ID>  (7) 
nan

>  <SLURM_JOB_NAME>  (7) 
nan

>  <csv_name>  (7) 
nan

>  <scratch_subdir>  (7) 
/opt/xchem-fragalysis-2/maxwin/BulkDock/SCRATCH/201976/C8715-P42

>  <fragmenstein_runtime>  (7) 
1.473443

>  <fragmenstein_outcome>  (7) 
acceptable

>  <fragmenstein_mode>  (7) 
expansion

>  <fragmenstein_error>  (7) 


>  <exports>  (7) 
nan

>  <Multi-SuCOS>  (7) 
nan

>  <merge_set>  (7) 
nan

$$$$
XXQBDXPESCLSQC-SSDOTTSWSA-N
     RDKit          3D

 15 15  0  0  0  0  0  0  0  0999 V2000
  -10.9313  -71.4725  -22.4579 C   0  0  0  0  0  0  0  0  0  0  0  0
  -11.2772  -70.6413  -21.2299 C   0  0  1  0  0  0  0  0  0  0  0  0
  -12.6461  -71.0430  -20.7364 N   0  0  0  0  0  0  0  0  0  0  0  0
  -13.6455  -69.8083  -20.1938 S   0  0  0  0  0  0  0  0  0  0  0  0
  -12.9003  -68.5761  -20.1416 O   0  0  0  0  0  0  0  0  0  0  0  0
  -14.2824  -70.3186  -18.9914 O   0  0  0  0  0  0  0  0  0  0  0  0
  -14.9150  -69.6732  -21.4402 C   0  0  0  0  0  0  0  0  0  0  0  0
  -14.2663  -69.5452  -22.7317 C   0  0  0  0  0  0  0  0  0  0  0  0
  -13.7900  -69.4922  -23.7886 N   0  0  0  0  0  0  0  0  0  0  0  0
  -10.1755  -70.8737  -20.2005 C   0  0  0  0  0  0  0  0  0  0  0  0
  -10.4710  -71.6584  -19.1364 N   0  0  0  0  0  0  0  0  0  0  0  0
   -9.4342  -71.9927  -18.3441 C   0  0  0  0  0  0  0  0  0  0  0  0
   -8.1380  -71.5924  -18.5725 C   0  0  0  0  0  0  0  0  0  0  0  0
   -7.9452  -70.7975  -19.6763 C   0  0  0  0  0  0  0  0  0  0  0  0
   -8.9406  -70.4205  -20.4968 N   0  0  0  0  0  0  0  0  0  0  0  0
  2  1  1  6
  2  3  1  0
  3  4  1  0
  4  5  2  0
  4  6  2  0
  4  7  1  0
  7  8  1  0
  8  9  3  0
  2 10  1  0
 10 11  2  0
 11 12  1  0
 12 13  2  0
 13 14  1  0
 14 15  2  0
 15 10  1  0
M  END
>  <id>  (8) 
4387

>  <inchikey>  (8) 
XXQBDXPESCLSQC-SSDOTTSWSA-N

>  <alias>  (8) 
None

>  <smiles>  (8) 
C[C@@H](NS(=O)(=O)CC#N)c1ncccn1

>  <path>  (8) 
/opt/xchem-fragalysis-2/maxwin/BulkDock/SCRATCH/201749/C2664-P17/C2664-P17.minimised.mol

>  <distance_score>  (8) 
0.77147

>  <energy_score>  (8) 
-33.472931

>  <compound>  (8) 
XXQBDXPESCLSQC-UHFFFAOYSA-N

>  <compound_id>  (8) 
2664

>  <target>  (8) 
Flavi_NS5_RdRp

>  <tags>  (8) 
['Enamine_Quote_1977854', 'Thumb Site 2 merge', 'Knitwork pure merge', 'Fragmenstein']

>  <inspirations>  (8) 
{P Ã— 2}

>  <subsites>  (8) 
None

>  <reference>  (8) 
d0174a

>  <SLURM_JOB_ID>  (8) 
211010

>  <SLURM_JOB_NAME>  (8) 
BulkDock.place:Flavi_NS5_RdRp:RdRp_knitwork_thumb_site_2_pure_split4000_batch000

>  <csv_name>  (8) 
RdRp_knitwork_thumb_site_2_pure_split4000_batch000.csv

>  <scratch_subdir>  (8) 
/opt/xchem-fragalysis-2/maxwin/BulkDock/SCRATCH/211010/C4387-P50

>  <fragmenstein_runtime>  (8) 
4.583714485168457

>  <fragmenstein_outcome>  (8) 
too moved

>  <fragmenstein_mode>  (8) 
expansion

>  <fragmenstein_error>  (8) 


>  <exports>  (8) 
nan

>  <Multi-SuCOS>  (8) 
nan

>  <merge_set>  (8) 
nan

$$$$
KUNYWHXFLWUFPB-UHFFFAOYSA-N
     RDKit          3D

 13 13  0  0  0  0  0  0  0  0999 V2000
  -14.4816  -69.5490  -22.8420 C   0  0  0  0  0  0  0  0  0  0  0  0
  -15.0030  -69.7951  -21.4445 C   0  0  0  0  0  0  0  0  0  0  0  0
  -13.7556  -69.7882  -20.1638 S   0  0  0  0  0  0  0  0  0  0  0  0
  -12.9747  -68.5797  -20.2808 O   0  0  0  0  0  0  0  0  0  0  0  0
  -14.4421  -70.1032  -18.9220 O   0  0  0  0  0  0  0  0  0  0  0  0
  -12.7675  -71.1087  -20.5995 N   0  0  0  0  0  0  0  0  0  0  0  0
  -11.5780  -70.7832  -21.4267 C   0  0  0  0  0  0  0  0  0  0  0  0
  -12.5004  -72.0497  -19.5408 C   0  0  0  0  0  0  0  0  0  0  0  0
  -12.8086  -73.3913  -19.7435 C   0  0  0  0  0  0  0  0  0  0  0  0
  -12.5127  -74.3178  -18.7457 C   0  0  0  0  0  0  0  0  0  0  0  0
  -11.9021  -73.8677  -17.5842 C   0  0  0  0  0  0  0  0  0  0  0  0
  -11.5689  -72.5762  -17.3610 N   0  0  0  0  0  0  0  0  0  0  0  0
  -11.8577  -71.6987  -18.3531 C   0  0  0  0  0  0  0  0  0  0  0  0
  1  2  1  0
  2  3  1  0
  3  4  2  0
  3  5  2  0
  3  6  1  0
  6  7  1  0
  6  8  1  0
  8  9  2  0
  9 10  1  0
 10 11  2  0
 11 12  1  0
 12 13  2  0
 13  8  1  0
M  END
>  <id>  (9) 
4464

>  <inchikey>  (9) 
KUNYWHXFLWUFPB-UHFFFAOYSA-N

>  <alias>  (9) 
None

>  <smiles>  (9) 
CCS(=O)(=O)N(C)c1cccnc1

>  <path>  (9) 
/opt/xchem-fragalysis-2/maxwin/BulkDock/SCRATCH/201745/C1345-P17/C1345-P17.minimised.mol

>  <distance_score>  (9) 
0.638958

>  <energy_score>  (9) 
-34.33625

>  <compound>  (9) 
KUNYWHXFLWUFPB-UHFFFAOYSA-N

>  <compound_id>  (9) 
1345

>  <target>  (9) 
Flavi_NS5_RdRp

>  <tags>  (9) 
['Fragmenstein']

>  <inspirations>  (9) 
{P Ã— 2}

>  <subsites>  (9) 
None

>  <reference>  (9) 
d0174a

>  <SLURM_JOB_ID>  (9) 
nan

>  <SLURM_JOB_NAME>  (9) 
nan

>  <csv_name>  (9) 
nan

>  <scratch_subdir>  (9) 
/opt/xchem-fragalysis-2/maxwin/BulkDock/SCRATCH/201745/C1345-P17

>  <fragmenstein_runtime>  (9) 
1.761821

>  <fragmenstein_outcome>  (9) 
acceptable

>  <fragmenstein_mode>  (9) 
expansion

>  <fragmenstein_error>  (9) 


>  <exports>  (9) 
nan

>  <Multi-SuCOS>  (9) 
nan

>  <merge_set>  (9) 
nan

$$$$
MKHBBPCZLAEZGC-ZDUSSCGKSA-N
     RDKit          3D

 19 20  0  0  0  0  0  0  0  0999 V2000
  -14.6899  -42.6413  -21.8957 O   0  0  0  0  0  0  0  0  0  0  0  0
  -15.3195  -43.2933  -22.7150 C   0  0  0  0  0  0  0  0  0  0  0  0
  -16.2280  -44.3628  -22.2997 C   0  0  0  0  0  0  0  0  0  0  0  0
  -17.0603  -45.3436  -21.9223 C   0  0  0  0  0  0  0  0  0  0  0  0
  -17.5133  -45.4446  -20.5781 C   0  0  0  0  0  0  0  0  0  0  0  0
  -18.6480  -46.0987  -20.1564 C   0  0  0  0  0  0  0  0  0  0  0  0
  -18.7991  -45.9471  -18.4531 S   0  0  0  0  0  0  0  0  0  0  0  0
  -17.3297  -45.0683  -18.4253 C   0  0  0  0  0  0  0  0  0  0  0  0
  -16.7532  -44.8713  -19.5874 N   0  0  0  0  0  0  0  0  0  0  0  0
  -15.2354  -43.0586  -24.0483 O   0  0  0  0  0  0  0  0  0  0  0  0
  -16.4703  -42.7453  -24.7049 C   0  0  0  0  0  0  0  0  0  0  0  0
  -16.1658  -42.0357  -26.0134 C   0  0  0  0  0  0  0  0  0  0  0  0
  -15.2962  -40.7830  -25.8260 C   0  0  0  0  0  0  0  0  0  0  0  0
  -15.9495  -39.5363  -26.4151 C   0  0  0  0  0  0  0  0  0  0  0  0
  -17.0289  -38.9755  -25.4991 C   0  0  1  0  0  0  0  0  0  0  0  0
  -16.5112  -38.1277  -24.3529 C   0  0  0  0  0  0  0  0  0  0  0  0
  -17.7432  -37.3339  -24.0018 C   0  0  0  0  0  0  0  0  0  0  0  0
  -18.3800  -37.0933  -25.3549 C   0  0  0  0  0  0  0  0  0  0  0  0
  -17.9439  -38.1408  -26.2348 O   0  0  0  0  0  0  0  0  0  0  0  0
  1  2  2  0
  2  3  1  0
  3  4  2  3
  4  5  1  0
  5  6  2  0
  6  7  1  0
  7  8  1  0
  8  9  2  0
  2 10  1  0
 10 11  1  0
 11 12  1  0
 12 13  1  0
 13 14  1  0
 15 14  1  6
 15 16  1  0
 16 17  1  0
 17 18  1  0
 18 19  1  0
  9  5  1  0
 19 15  1  0
M  END
>  <id>  (10) 
10933

>  <inchikey>  (10) 
MKHBBPCZLAEZGC-ZDUSSCGKSA-N

>  <alias>  (10) 
None

>  <smiles>  (10) 
O=C(C=Cc1cscn1)OCCCC[C@H]1CCCO1

>  <path>  (10) 
/opt/xchem-fragalysis-2/maxwin/BulkDock/SCRATCH/201974/C9420-P26/C9420-P26.minimised.mol

>  <distance_score>  (10) 
0.933482

>  <energy_score>  (10) 
-2.150412

>  <compound>  (10) 
MKHBBPCZLAEZGC-UHFFFAOYSA-N

>  <compound_id>  (10) 
9420

>  <target>  (10) 
Flavi_NS5_RdRp

>  <tags>  (10) 
['Knitwork impure merge', 'Enamine_unavailable', 'Green Site/RNA tunnel merge', 'Enamine_Quote_1970815', 'Fragmenstein']

>  <inspirations>  (10) 
{P Ã— 2}

>  <subsites>  (10) 
None

>  <reference>  (10) 
d0254a

>  <SLURM_JOB_ID>  (10) 
220454

>  <SLURM_JOB_NAME>  (10) 
BulkDock.place:Flavi_NS5_RdRp:RdRp_knitwork_green_site_rna_tunnel_impure_split4000_batch003

>  <csv_name>  (10) 
RdRp_knitwork_green_site_rna_tunnel_impure_split4000_batch003.csv

>  <scratch_subdir>  (10) 
/opt/xchem-fragalysis-2/maxwin/BulkDock/SCRATCH/220454/C10933-P136

>  <fragmenstein_runtime>  (10) 
2.498628

>  <fragmenstein_outcome>  (10) 
too moved

>  <fragmenstein_mode>  (10) 
expansion

>  <fragmenstein_error>  (10) 


>  <exports>  (10) 
nan

>  <Multi-SuCOS>  (10) 
nan

>  <merge_set>  (10) 
nan

$$$$
QVGDSEZSJSHRTO-UHFFFAOYSA-N
     RDKit          3D

 15 17  0  0  0  0  0  0  0  0999 V2000
  -28.0171  -30.2077  -15.9501 C   0  0  0  0  0  0  0  0  0  0  0  0
  -26.8426  -29.6473  -16.4264 C   0  0  0  0  0  0  0  0  0  0  0  0
  -26.7235  -29.3354  -17.7828 C   0  0  0  0  0  0  0  0  0  0  0  0
  -27.7713  -29.5855  -18.7142 C   0  0  0  0  0  0  0  0  0  0  0  0
  -27.7689  -29.3137  -20.1119 C   0  0  0  0  0  0  0  0  0  0  0  0
  -26.8109  -28.4277  -20.7007 N   0  0  0  0  0  0  0  0  0  0  0  0
  -26.2246  -27.3045  -20.1384 C   0  0  0  0  0  0  0  0  0  0  0  0
  -25.4609  -26.7064  -21.1107 C   0  0  0  0  0  0  0  0  0  0  0  0
  -25.6244  -27.5256  -22.2351 C   0  0  0  0  0  0  0  0  0  0  0  0
  -26.4462  -28.5495  -22.0056 N   0  0  0  0  0  0  0  0  0  0  0  0
  -28.7276  -29.7700  -20.9675 N   0  0  0  0  0  0  0  0  0  0  0  0
  -29.7904  -30.3927  -20.4412 C   0  0  0  0  0  0  0  0  0  0  0  0
  -29.9383  -30.6204  -19.0898 C   0  0  0  0  0  0  0  0  0  0  0  0
  -28.9230  -30.2316  -18.2130 C   0  0  0  0  0  0  0  0  0  0  0  0
  -29.0470  -30.5037  -16.8395 C   0  0  0  0  0  0  0  0  0  0  0  0
  1  2  2  0
  2  3  1  0
  3  4  2  0
  4  5  1  0
  5  6  1  0
  6  7  1  0
  7  8  2  0
  8  9  1  0
  9 10  2  0
  5 11  2  0
 11 12  1  0
 12 13  2  0
 13 14  1  0
 14 15  2  0
 15  1  1  0
 14  4  1  0
 10  6  1  0
M  END
>  <id>  (11) 
27167

>  <inchikey>  (11) 
QVGDSEZSJSHRTO-UHFFFAOYSA-N

>  <alias>  (11) 
None

>  <smiles>  (11) 
c1ccc2c(-n3cccn3)nccc2c1

>  <path>  (11) 
/opt/xchem-fragalysis-2/maxwin/BulkDock/SCRATCH/204032/C29852-P136/C29852-P136.minimised.mol

>  <distance_score>  (11) 
0.68292

>  <energy_score>  (11) 
-38.75544

>  <compound>  (11) 
QVGDSEZSJSHRTO-UHFFFAOYSA-N

>  <compound_id>  (11) 
29852

>  <target>  (11) 
Flavi_NS5_RdRp

>  <tags>  (11) 
['Enamine_unavailable', 'Knitwork impure merge', 'Green Site/RNA tunnel merge', 'Fragmenstein']

>  <inspirations>  (11) 
{P Ã— 2}

>  <subsites>  (11) 
None

>  <reference>  (11) 
z0496a

>  <SLURM_JOB_ID>  (11) 
220462

>  <SLURM_JOB_NAME>  (11) 
BulkDock.place:Flavi_NS5_RdRp:RdRp_knitwork_green_site_rna_tunnel_impure_split4000_batch011

>  <csv_name>  (11) 
RdRp_knitwork_green_site_rna_tunnel_impure_split4000_batch011.csv

>  <scratch_subdir>  (11) 
/opt/xchem-fragalysis-2/maxwin/BulkDock/SCRATCH/220462/C27167-P41

>  <fragmenstein_runtime>  (11) 
5.726854

>  <fragmenstein_outcome>  (11) 
too moved

>  <fragmenstein_mode>  (11) 
expansion

>  <fragmenstein_error>  (11) 


>  <exports>  (11) 
nan

>  <Multi-SuCOS>  (11) 
nan

>  <merge_set>  (11) 
nan

$$$$
IYFJGUVPMIFAOX-UHFFFAOYSA-N
     RDKit          3D

 17 18  0  0  0  0  0  0  0  0999 V2000
  -14.5223  -69.6014  -22.9079 C   0  0  0  0  0  0  0  0  0  0  0  0
  -15.0893  -69.8939  -21.5374 C   0  0  0  0  0  0  0  0  0  0  0  0
  -13.8718  -69.8584  -20.2264 S   0  0  0  0  0  0  0  0  0  0  0  0
  -13.2076  -68.5802  -20.2145 O   0  0  0  0  0  0  0  0  0  0  0  0
  -14.4805  -70.3695  -19.0146 O   0  0  0  0  0  0  0  0  0  0  0  0
  -12.7576  -71.0190  -20.6383 N   0  0  0  0  0  0  0  0  0  0  0  0
  -11.6468  -70.6570  -21.5229 C   0  0  0  0  0  0  0  0  0  0  0  0
  -10.3514  -70.8511  -20.8111 C   0  0  0  0  0  0  0  0  0  0  0  0
   -9.1543  -70.7031  -21.3388 N   0  0  0  0  0  0  0  0  0  0  0  0
   -8.2669  -71.0410  -20.3519 C   0  0  0  0  0  0  0  0  0  0  0  0
   -6.8710  -71.0866  -20.3989 C   0  0  0  0  0  0  0  0  0  0  0  0
   -6.1893  -71.5662  -19.2852 C   0  0  0  0  0  0  0  0  0  0  0  0
   -4.4834  -71.7571  -19.3959 Cl  0  0  0  0  0  0  0  0  0  0  0  0
   -6.8712  -71.9441  -18.1268 C   0  0  0  0  0  0  0  0  0  0  0  0
   -8.2683  -71.8518  -18.0434 C   0  0  0  0  0  0  0  0  0  0  0  0
   -8.9320  -71.4065  -19.1865 C   0  0  0  0  0  0  0  0  0  0  0  0
  -10.2558  -71.2203  -19.4885 N   0  0  0  0  0  0  0  0  0  0  0  0
  1  2  1  0
  2  3  1  0
  3  4  2  0
  3  5  2  0
  3  6  1  0
  6  7  1  0
  7  8  1  0
  8  9  2  0
  9 10  1  0
 10 11  2  0
 11 12  1  0
 12 13  1  0
 12 14  2  0
 14 15  1  0
 15 16  2  0
 16 17  1  0
 17  8  1  0
 16 10  1  0
M  END
>  <id>  (12) 
39466

>  <inchikey>  (12) 
IYFJGUVPMIFAOX-UHFFFAOYSA-N

>  <alias>  (12) 
None

>  <smiles>  (12) 
CCS(=O)(=O)NCc1nc2cc(Cl)ccc2[nH]1

>  <path>  (12) 
/opt/xchem-fragalysis-2/maxwin/BulkDock/SCRATCH/211010/C7755-P53/C7755-P53.minimised.mol

>  <distance_score>  (12) 
0.913523

>  <energy_score>  (12) 
-48.478771

>  <compound>  (12) 
ASAP-0037722-001

>  <compound_id>  (12) 
7755

>  <target>  (12) 
Flavi_NS5_RdRp

>  <tags>  (12) 
['Fragmenstein placed', 'Knitwork pure merge', 'Green Site/RNA tunnel merge']

>  <inspirations>  (12) 
{P Ã— 2}

>  <subsites>  (12) 
None

>  <reference>  (12) 
d0693a

>  <SLURM_JOB_ID>  (12) 
217077

>  <SLURM_JOB_NAME>  (12) 
BulkDock.place:Flavi_NS5_RdRp:RdRp_knitwork_green_site_rna_tunnel_pure_split4000_batch006

>  <csv_name>  (12) 
RdRp_knitwork_green_site_rna_tunnel_pure_split4000_batch006.csv

>  <scratch_subdir>  (12) 
/opt/xchem-fragalysis-2/maxwin/BulkDock/SCRATCH/217077/C39466-P82

>  <fragmenstein_runtime>  (12) 
17.279391

>  <fragmenstein_outcome>  (12) 
too moved

>  <fragmenstein_mode>  (12) 
expansion

>  <fragmenstein_error>  (12) 


>  <exports>  (12) 
nan

>  <Multi-SuCOS>  (12) 
nan

>  <merge_set>  (12) 
nan

$$$$
LGAJFWJWFLCBPR-UHFFFAOYSA-N
     RDKit          3D

 19 20  0  0  0  0  0  0  0  0999 V2000
  -14.6871  -69.3197  -23.1602 C   0  0  0  0  0  0  0  0  0  0  0  0
  -14.2490  -70.7315  -22.7145 C   0  0  0  0  0  0  0  0  0  0  0  0
  -15.3758  -71.2813  -21.8293 C   0  0  0  0  0  0  0  0  0  0  0  0
  -14.0929  -71.6751  -23.9362 C   0  0  0  0  0  0  0  0  0  0  0  0
  -13.1325  -71.2401  -24.8879 O   0  0  0  0  0  0  0  0  0  0  0  0
  -13.0034  -70.7350  -21.8869 N   0  0  0  0  0  0  0  0  0  0  0  0
  -11.9963  -69.6528  -22.0429 C   0  0  0  0  0  0  0  0  0  0  0  0
  -11.8791  -69.6329  -23.2868 O   0  0  0  0  0  0  0  0  0  0  0  0
  -11.2049  -70.4683  -21.0820 C   0  0  0  0  0  0  0  0  0  0  0  0
  -11.0889  -70.3629  -19.7061 C   0  0  0  0  0  0  0  0  0  0  0  0
   -9.9139  -70.8796  -19.1648 N   0  0  0  0  0  0  0  0  0  0  0  0
   -9.1503  -71.3314  -20.1405 C   0  0  0  0  0  0  0  0  0  0  0  0
   -7.7556  -71.6645  -20.0378 C   0  0  0  0  0  0  0  0  0  0  0  0
   -7.0946  -72.7094  -20.6643 C   0  0  0  0  0  0  0  0  0  0  0  0
   -5.6756  -72.6128  -20.5574 C   0  0  0  0  0  0  0  0  0  0  0  0
   -5.3190  -71.4989  -19.8483 C   0  0  0  0  0  0  0  0  0  0  0  0
   -3.7294  -70.9303  -19.5670 Cl  0  0  0  0  0  0  0  0  0  0  0  0
   -6.6399  -70.6448  -19.2250 S   0  0  0  0  0  0  0  0  0  0  0  0
   -9.8773  -71.3623  -21.6971 S   0  0  0  0  0  0  0  0  0  0  0  0
  1  2  1  0
  2  3  1  0
  2  4  1  0
  4  5  1  0
  2  6  1  0
  6  7  1  0
  7  8  2  0
  7  9  1  0
  9 10  2  0
 10 11  1  0
 11 12  2  0
 12 13  1  0
 13 14  2  0
 14 15  1  0
 15 16  2  0
 16 17  1  0
 16 18  1  0
 12 19  1  0
 19  9  1  0
 18 13  1  0
M  END
>  <id>  (13) 
41844

>  <inchikey>  (13) 
LGAJFWJWFLCBPR-UHFFFAOYSA-N

>  <alias>  (13) 
None

>  <smiles>  (13) 
CC(C)(CO)NC(=O)c1cnc(-c2ccc(Cl)s2)s1

>  <path>  (13) 
/opt/xchem-fragalysis-2/maxwin/BulkDock/SCRATCH/211010/C1226-P50/C1226-P50.minimised.mol

>  <distance_score>  (13) 
0.878843

>  <energy_score>  (13) 
-36.405919

>  <compound>  (13) 
LGAJFWJWFLCBPR-UHFFFAOYSA-N

>  <compound_id>  (13) 
1226

>  <target>  (13) 
Flavi_NS5_RdRp

>  <tags>  (13) 
['Fragmenstein placed', 'Knitwork impure merge', 'Green Site/RNA tunnel merge']

>  <inspirations>  (13) 
{P Ã— 2}

>  <subsites>  (13) 
None

>  <reference>  (13) 
d0615a

>  <SLURM_JOB_ID>  (13) 
220457

>  <SLURM_JOB_NAME>  (13) 
BulkDock.place:Flavi_NS5_RdRp:RdRp_knitwork_green_site_rna_tunnel_impure_split4000_batch006

>  <csv_name>  (13) 
RdRp_knitwork_green_site_rna_tunnel_impure_split4000_batch006.csv

>  <scratch_subdir>  (13) 
/opt/xchem-fragalysis-2/maxwin/BulkDock/SCRATCH/220457/C41844-P86

>  <fragmenstein_runtime>  (13) 
10.016854

>  <fragmenstein_outcome>  (13) 
too moved

>  <fragmenstein_mode>  (13) 
expansion

>  <fragmenstein_error>  (13) 


>  <exports>  (13) 
nan

>  <Multi-SuCOS>  (13) 
nan

>  <merge_set>  (13) 
nan

$$$$
HCFQKVQSVAJCEG-SECBINFHSA-N
     RDKit          3D

 18 19  0  0  0  0  0  0  0  0999 V2000
  -14.2709  -69.1059  -23.2113 C   0  0  0  0  0  0  0  0  0  0  0  0
  -14.1657  -70.5301  -22.6478 C   0  0  0  0  0  0  0  0  0  0  0  0
  -15.4177  -70.8044  -21.7930 C   0  0  0  0  0  0  0  0  0  0  0  0
  -14.1442  -71.5886  -23.7922 C   0  0  0  0  0  0  0  0  0  0  0  0
  -13.2335  -71.2954  -24.8410 O   0  0  0  0  0  0  0  0  0  0  0  0
  -12.9866  -70.6671  -21.7605 N   0  0  0  0  0  0  0  0  0  0  0  0
  -11.6977  -70.2741  -22.1382 C   0  0  0  0  0  0  0  0  0  0  0  0
  -11.3279  -70.4657  -23.3003 O   0  0  0  0  0  0  0  0  0  0  0  0
  -10.8163  -70.6589  -21.0956 N   0  0  0  0  0  0  0  0  0  0  0  0
  -11.1048  -71.2474  -19.7954 C   0  0  0  0  0  0  0  0  0  0  0  0
   -9.7484  -71.7289  -19.2847 C   0  0  0  0  0  0  0  0  0  0  0  0
   -8.7389  -70.7777  -19.9379 C   0  0  1  0  0  0  0  0  0  0  0  0
   -7.3431  -71.3047  -20.0759 C   0  0  0  0  0  0  0  0  0  0  0  0
   -6.9176  -72.5527  -20.5905 C   0  0  0  0  0  0  0  0  0  0  0  0
   -5.5506  -72.4880  -20.5726 C   0  0  0  0  0  0  0  0  0  0  0  0
   -5.1631  -71.2928  -20.0715 O   0  0  0  0  0  0  0  0  0  0  0  0
   -6.2842  -70.5486  -19.7419 N   0  0  0  0  0  0  0  0  0  0  0  0
   -9.3868  -70.4630  -21.2885 C   0  0  0  0  0  0  0  0  0  0  0  0
  1  2  1  0
  2  3  1  0
  2  4  1  0
  4  5  1  0
  2  6  1  0
  6  7  1  0
  7  8  2  0
  7  9  1  0
  9 10  1  0
 10 11  1  0
 11 12  1  0
 12 13  1  6
 13 14  1  0
 14 15  2  0
 15 16  1  0
 16 17  1  0
 12 18  1  0
 18  9  1  0
 17 13  2  0
M  END
>  <id>  (14) 
46347

>  <inchikey>  (14) 
HCFQKVQSVAJCEG-SECBINFHSA-N

>  <alias>  (14) 
None

>  <smiles>  (14) 
CC(C)(CO)NC(=O)N1CC[C@@H](c2ccon2)C1

>  <path>  (14) 
/opt/xchem-fragalysis-2/maxwin/BulkDock/SCRATCH/211014/C2576-P22/C2576-P22.minimised.mol

>  <distance_score>  (14) 
0.942626

>  <energy_score>  (14) 
-17.717591

>  <compound>  (14) 
HCFQKVQSVAJCEG-UHFFFAOYSA-N

>  <compound_id>  (14) 
2576

>  <target>  (14) 
Flavi_NS5_RdRp

>  <tags>  (14) 
['Fragmenstein placed', 'iter1 scaffolds', 'Knitwork impure merge', 'Enamine_Order_1968912', 'JA curated YES', 'acceptable', 'Thumb Site 2 merge', 'DF curated NO']

>  <inspirations>  (14) 
{P Ã— 3}

>  <subsites>  (14) 
None

>  <reference>  (14) 
d0248a

>  <SLURM_JOB_ID>  (14) 
211014

>  <SLURM_JOB_NAME>  (14) 
BulkDock.place:Flavi_NS5_RdRp:RdRp_knitwork_thumb_site_2_impure_split4000_batch001

>  <csv_name>  (14) 
RdRp_knitwork_thumb_site_2_impure_split4000_batch001.csv

>  <scratch_subdir>  (14) 
/opt/xchem-fragalysis-2/maxwin/BulkDock/SCRATCH/211014/C2576-P22

>  <fragmenstein_runtime>  (14) 
6.769750118255615

>  <fragmenstein_outcome>  (14) 
acceptable

>  <fragmenstein_mode>  (14) 
expansion

>  <fragmenstein_error>  (14) 


>  <exports>  (14) 
/opt/xchem-fragalysis-2/maxwin/BulkDock/OUTPUTS/RdRp_knitwork_thumb_site_2_impure_split4000_batch001_211014.sdf;/opt/xchem-fragalysis-2/maxwin/BulkDock/OUTPUTS/RdRp_knitwork_thumb_site_2_impure_fragalysis.sdf;/opt/xchem-fragalysis-2/maxwin/RdRp_FFF/quotes/JA_curated_and_manual_ordered.sdf

>  <Multi-SuCOS>  (14) 
nan

>  <merge_set>  (14) 
nan

$$$$
VJAXJNJKELENHP-UHFFFAOYSA-N
     RDKit          3D

 15 15  0  0  0  0  0  0  0  0999 V2000
  -14.7110  -69.4600  -22.6404 C   0  0  0  0  0  0  0  0  0  0  0  0
  -15.2222  -69.6142  -21.2220 C   0  0  0  0  0  0  0  0  0  0  0  0
  -13.9241  -69.7531  -19.9952 S   0  0  0  0  0  0  0  0  0  0  0  0
  -13.0062  -68.6515  -20.1448 O   0  0  0  0  0  0  0  0  0  0  0  0
  -14.5368  -70.0458  -18.7143 O   0  0  0  0  0  0  0  0  0  0  0  0
  -13.1483  -71.1681  -20.4229 N   0  0  0  0  0  0  0  0  0  0  0  0
  -11.9636  -71.0407  -21.2940 C   0  0  0  0  0  0  0  0  0  0  0  0
  -10.6590  -71.1730  -20.5434 C   0  0  0  0  0  0  0  0  0  0  0  0
  -10.7239  -71.7751  -19.3156 N   0  0  0  0  0  0  0  0  0  0  0  0
   -9.5706  -71.8798  -18.6183 C   0  0  0  0  0  0  0  0  0  0  0  0
   -8.3493  -71.4150  -19.0743 C   0  0  0  0  0  0  0  0  0  0  0  0
   -8.3012  -70.8178  -20.3299 C   0  0  0  0  0  0  0  0  0  0  0  0
   -9.4608  -70.7211  -21.0960 C   0  0  0  0  0  0  0  0  0  0  0  0
   -9.3454  -70.1014  -22.3058 O   0  0  0  0  0  0  0  0  0  0  0  0
   -9.8041  -70.8714  -23.4158 C   0  0  0  0  0  0  0  0  0  0  0  0
  1  2  1  0
  2  3  1  0
  3  4  2  0
  3  5  2  0
  3  6  1  0
  6  7  1  0
  7  8  1  0
  8  9  2  0
  9 10  1  0
 10 11  2  0
 11 12  1  0
 12 13  2  0
 13 14  1  0
 14 15  1  0
 13  8  1  0
M  END
>  <id>  (15) 
50417

>  <inchikey>  (15) 
VJAXJNJKELENHP-UHFFFAOYSA-N

>  <alias>  (15) 
None

>  <smiles>  (15) 
CCS(=O)(=O)NCc1ncccc1OC

>  <path>  (15) 
/opt/xchem-fragalysis-2/maxwin/BulkDock/SCRATCH/211010/C772-P50/C772-P50.minimised.mol

>  <distance_score>  (15) 
0.788304

>  <energy_score>  (15) 
-32.130172

>  <compound>  (15) 
VJAXJNJKELENHP-UHFFFAOYSA-N

>  <compound_id>  (15) 
772

>  <target>  (15) 
Flavi_NS5_RdRp

>  <tags>  (15) 
['Fragmenstein placed', 'Knitwork pure merge', 'iter1 scaffolds', 'Enamine_Order_1968912', 'JA curated YES', 'acceptable', 'Thumb Site 2 merge', 'DF curated INTERESTING']

>  <inspirations>  (15) 
{P Ã— 2}

>  <subsites>  (15) 
None

>  <reference>  (15) 
d0615a

>  <SLURM_JOB_ID>  (15) 
211010

>  <SLURM_JOB_NAME>  (15) 
BulkDock.place:Flavi_NS5_RdRp:RdRp_knitwork_thumb_site_2_pure_split4000_batch000

>  <csv_name>  (15) 
RdRp_knitwork_thumb_site_2_pure_split4000_batch000.csv

>  <scratch_subdir>  (15) 
/opt/xchem-fragalysis-2/maxwin/BulkDock/SCRATCH/211010/C772-P50

>  <fragmenstein_runtime>  (15) 
1.7414286136627197

>  <fragmenstein_outcome>  (15) 
acceptable

>  <fragmenstein_mode>  (15) 
expansion

>  <fragmenstein_error>  (15) 


>  <exports>  (15) 
/opt/xchem-fragalysis-2/maxwin/BulkDock/OUTPUTS/RdRp_knitwork_thumb_site_2_pure_split4000_batch000_211010.sdf;/opt/xchem-fragalysis-2/maxwin/BulkDock/OUTPUTS/RdRp_knitwork_thumb_site_2_pure_fragalysis.sdf;/opt/xchem-fragalysis-2/maxwin/RdRp_FFF/quotes/JA_curated_and_manual_ordered.sdf;/opt/xchem-fragalysis-2/maxwin/RdRp_FFF/curation/Curated_DF.sdf;/opt/xchem-fragalysis-2/maxwin/RdRp_FFF/quotes/combined_jan2025_ordered.sdf

>  <Multi-SuCOS>  (15) 
nan

>  <merge_set>  (15) 
nan

$$$$
KYKFBYOZGOXJTI-UHFFFAOYSA-N
     RDKit          3D

 15 15  0  0  0  0  0  0  0  0999 V2000
  -14.6892  -69.5242  -22.6594 C   0  0  0  0  0  0  0  0  0  0  0  0
  -15.2155  -69.5558  -21.2387 C   0  0  0  0  0  0  0  0  0  0  0  0
  -13.9357  -69.7377  -19.9993 S   0  0  0  0  0  0  0  0  0  0  0  0
  -12.9088  -68.7501  -20.2257 O   0  0  0  0  0  0  0  0  0  0  0  0
  -14.5726  -69.8850  -18.7067 O   0  0  0  0  0  0  0  0  0  0  0  0
  -13.3077  -71.2567  -20.3182 N   0  0  0  0  0  0  0  0  0  0  0  0
  -12.0675  -71.3002  -21.1115 C   0  0  0  0  0  0  0  0  0  0  0  0
  -10.8080  -71.2317  -20.2672 C   0  0  0  0  0  0  0  0  0  0  0  0
  -10.9231  -71.5327  -18.9415 N   0  0  0  0  0  0  0  0  0  0  0  0
   -9.7852  -71.5025  -18.2136 C   0  0  0  0  0  0  0  0  0  0  0  0
   -9.9994  -71.8059  -16.5381 Cl  0  0  0  0  0  0  0  0  0  0  0  0
   -8.5272  -71.2317  -18.7263 C   0  0  0  0  0  0  0  0  0  0  0  0
   -8.4254  -70.9438  -20.0830 C   0  0  0  0  0  0  0  0  0  0  0  0
   -9.5803  -70.9442  -20.8608 C   0  0  0  0  0  0  0  0  0  0  0  0
   -9.4704  -70.5890  -22.7006 Br  0  0  0  0  0  0  0  0  0  0  0  0
  1  2  1  0
  2  3  1  0
  3  4  2  0
  3  5  2  0
  3  6  1  0
  6  7  1  0
  7  8  1  0
  8  9  2  0
  9 10  1  0
 10 11  1  0
 10 12  2  0
 12 13  1  0
 13 14  2  0
 14 15  1  0
 14  8  1  0
M  END
>  <id>  (16) 
50498

>  <inchikey>  (16) 
KYKFBYOZGOXJTI-UHFFFAOYSA-N

>  <alias>  (16) 
None

>  <smiles>  (16) 
CCS(=O)(=O)NCc1nc(Cl)ccc1Br

>  <path>  (16) 
/opt/xchem-fragalysis-2/maxwin/BulkDock/SCRATCH/211010/C808-P50/C808-P50.minimised.mol

>  <distance_score>  (16) 
0.818691

>  <energy_score>  (16) 
-36.279095

>  <compound>  (16) 
KYKFBYOZGOXJTI-UHFFFAOYSA-N

>  <compound_id>  (16) 
808

>  <target>  (16) 
Flavi_NS5_RdRp

>  <tags>  (16) 
['Fragmenstein placed', 'Knitwork pure merge', 'iter1 scaffolds', 'Enamine_Order_1968912', 'JA curated YES', 'acceptable', 'Thumb Site 2 merge', 'DF curated INTERESTING']

>  <inspirations>  (16) 
{P Ã— 2}

>  <subsites>  (16) 
None

>  <reference>  (16) 
d0615a

>  <SLURM_JOB_ID>  (16) 
211010

>  <SLURM_JOB_NAME>  (16) 
BulkDock.place:Flavi_NS5_RdRp:RdRp_knitwork_thumb_site_2_pure_split4000_batch000

>  <csv_name>  (16) 
RdRp_knitwork_thumb_site_2_pure_split4000_batch000.csv

>  <scratch_subdir>  (16) 
/opt/xchem-fragalysis-2/maxwin/BulkDock/SCRATCH/211010/C808-P50

>  <fragmenstein_runtime>  (16) 
1.5386583805084229

>  <fragmenstein_outcome>  (16) 
acceptable

>  <fragmenstein_mode>  (16) 
expansion

>  <fragmenstein_error>  (16) 


>  <exports>  (16) 
/opt/xchem-fragalysis-2/maxwin/BulkDock/OUTPUTS/RdRp_knitwork_thumb_site_2_pure_split4000_batch000_211010.sdf;/opt/xchem-fragalysis-2/maxwin/BulkDock/OUTPUTS/RdRp_knitwork_thumb_site_2_pure_fragalysis.sdf;/opt/xchem-fragalysis-2/maxwin/RdRp_FFF/quotes/JA_curated_and_manual_ordered.sdf;/opt/xchem-fragalysis-2/maxwin/RdRp_FFF/curation/Curated_DF.sdf;/opt/xchem-fragalysis-2/maxwin/RdRp_FFF/quotes/combined_jan2025_ordered.sdf

>  <Multi-SuCOS>  (16) 
nan

>  <merge_set>  (16) 
nan

$$$$
JSMASCHCFMRBQP-UHFFFAOYSA-N
     RDKit          3D

 14 14  0  0  0  0  0  0  0  0999 V2000
  -14.6711  -69.4032  -22.7069 C   0  0  0  0  0  0  0  0  0  0  0  0
  -15.1973  -69.5822  -21.2965 C   0  0  0  0  0  0  0  0  0  0  0  0
  -13.8982  -69.7958  -20.0839 S   0  0  0  0  0  0  0  0  0  0  0  0
  -13.0004  -68.6707  -20.1537 O   0  0  0  0  0  0  0  0  0  0  0  0
  -14.4918  -70.2045  -18.8257 O   0  0  0  0  0  0  0  0  0  0  0  0
  -13.1161  -71.1619  -20.6420 N   0  0  0  0  0  0  0  0  0  0  0  0
  -11.7596  -71.0153  -21.1743 C   0  0  0  0  0  0  0  0  0  0  0  0
  -10.6384  -71.0975  -20.1603 C   0  0  0  0  0  0  0  0  0  0  0  0
  -10.8599  -71.4484  -18.8224 C   0  0  0  0  0  0  0  0  0  0  0  0
   -9.7812  -71.5523  -17.9554 C   0  0  0  0  0  0  0  0  0  0  0  0
   -8.5024  -71.3364  -18.3125 N   0  0  0  0  0  0  0  0  0  0  0  0
   -8.2982  -70.9917  -19.6004 C   0  0  0  0  0  0  0  0  0  0  0  0
   -9.3115  -70.8545  -20.5523 C   0  0  0  0  0  0  0  0  0  0  0  0
   -8.9208  -70.5051  -21.9502 C   0  0  0  0  0  0  0  0  0  0  0  0
  1  2  1  0
  2  3  1  0
  3  4  2  0
  3  5  2  0
  3  6  1  0
  6  7  1  0
  7  8  1  0
  8  9  2  0
  9 10  1  0
 10 11  2  0
 11 12  1  0
 12 13  2  0
 13 14  1  0
 13  8  1  0
M  END
>  <id>  (17) 
50578

>  <inchikey>  (17) 
JSMASCHCFMRBQP-UHFFFAOYSA-N

>  <alias>  (17) 
None

>  <smiles>  (17) 
CCS(=O)(=O)NCc1ccncc1C

>  <path>  (17) 
/opt/xchem-fragalysis-2/maxwin/BulkDock/SCRATCH/211010/C850-P50/C850-P50.minimised.mol

>  <distance_score>  (17) 
0.656089

>  <energy_score>  (17) 
-33.257943

>  <compound>  (17) 
JSMASCHCFMRBQP-UHFFFAOYSA-N

>  <compound_id>  (17) 
850

>  <target>  (17) 
Flavi_NS5_RdRp

>  <tags>  (17) 
['Fragmenstein placed', 'Knitwork pure merge', 'iter1 scaffolds', 'Enamine_Order_1968912', 'JA curated YES', 'acceptable', 'Thumb Site 2 merge', 'DF curated INTERESTING']

>  <inspirations>  (17) 
{P Ã— 2}

>  <subsites>  (17) 
None

>  <reference>  (17) 
d0615a

>  <SLURM_JOB_ID>  (17) 
211010

>  <SLURM_JOB_NAME>  (17) 
BulkDock.place:Flavi_NS5_RdRp:RdRp_knitwork_thumb_site_2_pure_split4000_batch000

>  <csv_name>  (17) 
RdRp_knitwork_thumb_site_2_pure_split4000_batch000.csv

>  <scratch_subdir>  (17) 
/opt/xchem-fragalysis-2/maxwin/BulkDock/SCRATCH/211010/C850-P50

>  <fragmenstein_runtime>  (17) 
2.3045759201049805

>  <fragmenstein_outcome>  (17) 
acceptable

>  <fragmenstein_mode>  (17) 
expansion

>  <fragmenstein_error>  (17) 


>  <exports>  (17) 
/opt/xchem-fragalysis-2/maxwin/BulkDock/OUTPUTS/RdRp_knitwork_thumb_site_2_pure_split4000_batch000_211010.sdf;/opt/xchem-fragalysis-2/maxwin/BulkDock/OUTPUTS/RdRp_knitwork_thumb_site_2_pure_fragalysis.sdf;/opt/xchem-fragalysis-2/maxwin/RdRp_FFF/quotes/JA_curated_and_manual_ordered.sdf;/opt/xchem-fragalysis-2/maxwin/RdRp_FFF/curation/Curated_DF.sdf;/opt/xchem-fragalysis-2/maxwin/RdRp_FFF/quotes/combined_jan2025_ordered.sdf

>  <Multi-SuCOS>  (17) 
nan

>  <merge_set>  (17) 
nan

$$$$
YCSYUEQAYOMAGE-UHFFFAOYSA-N
     RDKit          3D

 14 14  0  0  0  0  0  0  0  0999 V2000
  -14.6252  -69.4831  -22.6922 C   0  0  0  0  0  0  0  0  0  0  0  0
  -15.1556  -69.6277  -21.2798 C   0  0  0  0  0  0  0  0  0  0  0  0
  -13.8654  -69.7920  -20.0495 S   0  0  0  0  0  0  0  0  0  0  0  0
  -12.9382  -68.6964  -20.1922 O   0  0  0  0  0  0  0  0  0  0  0  0
  -14.4901  -70.0867  -18.7745 O   0  0  0  0  0  0  0  0  0  0  0  0
  -13.1149  -71.2196  -20.5041 N   0  0  0  0  0  0  0  0  0  0  0  0
  -11.8103  -71.0918  -21.1935 C   0  0  0  0  0  0  0  0  0  0  0  0
  -10.6371  -71.1997  -20.2338 C   0  0  0  0  0  0  0  0  0  0  0  0
  -10.9139  -71.7126  -18.9991 N   0  0  0  0  0  0  0  0  0  0  0  0
   -9.8793  -71.8822  -18.1465 C   0  0  0  0  0  0  0  0  0  0  0  0
   -8.5666  -71.5802  -18.4548 C   0  0  0  0  0  0  0  0  0  0  0  0
   -8.2957  -71.0711  -19.7164 C   0  0  0  0  0  0  0  0  0  0  0  0
   -9.3385  -70.8727  -20.6300 C   0  0  0  0  0  0  0  0  0  0  0  0
   -9.0038  -70.4128  -22.0086 C   0  0  0  0  0  0  0  0  0  0  0  0
  1  2  1  0
  2  3  1  0
  3  4  2  0
  3  5  2  0
  3  6  1  0
  6  7  1  0
  7  8  1  0
  8  9  2  0
  9 10  1  0
 10 11  2  0
 11 12  1  0
 12 13  2  0
 13 14  1  0
 13  8  1  0
M  END
>  <id>  (18) 
50581

>  <inchikey>  (18) 
YCSYUEQAYOMAGE-UHFFFAOYSA-N

>  <alias>  (18) 
None

>  <smiles>  (18) 
CCS(=O)(=O)NCc1ncccc1C

>  <path>  (18) 
/opt/xchem-fragalysis-2/maxwin/BulkDock/SCRATCH/211010/C852-P50/C852-P50.minimised.mol

>  <distance_score>  (18) 
0.677757

>  <energy_score>  (18) 
-42.845081

>  <compound>  (18) 
YCSYUEQAYOMAGE-UHFFFAOYSA-N

>  <compound_id>  (18) 
852

>  <target>  (18) 
Flavi_NS5_RdRp

>  <tags>  (18) 
['Fragmenstein placed', 'iter1 scaffolds', 'Knitwork impure merge', 'Green Site/RNA tunnel merge', 'Enamine_Order_1968912', 'JA curated YES', 'DF curated INTERESTING']

>  <inspirations>  (18) 
{P Ã— 2}

>  <subsites>  (18) 
None

>  <reference>  (18) 
d0615a

>  <SLURM_JOB_ID>  (18) 
220467

>  <SLURM_JOB_NAME>  (18) 
BulkDock.place:Flavi_NS5_RdRp:RdRp_knitwork_green_site_rna_tunnel_impure_split4000_batch016

>  <csv_name>  (18) 
RdRp_knitwork_green_site_rna_tunnel_impure_split4000_batch016.csv

>  <scratch_subdir>  (18) 
/opt/xchem-fragalysis-2/maxwin/BulkDock/SCRATCH/220467/C50581-P41

>  <fragmenstein_runtime>  (18) 
6.709692

>  <fragmenstein_outcome>  (18) 
too moved

>  <fragmenstein_mode>  (18) 
expansion

>  <fragmenstein_error>  (18) 


>  <exports>  (18) 
/opt/xchem-fragalysis-2/maxwin/RdRp_FFF/quotes/JA_curated_and_manual_ordered.sdf;/opt/xchem-fragalysis-2/maxwin/RdRp_FFF/curation/Curated_DF.sdf

>  <Multi-SuCOS>  (18) 
nan

>  <merge_set>  (18) 
nan

$$$$
RWOAYQXMDLLTCN-UHFFFAOYSA-N
     RDKit          3D

 15 15  0  0  0  0  0  0  0  0999 V2000
  -14.6819  -69.4825  -22.6621 C   0  0  0  0  0  0  0  0  0  0  0  0
  -15.2002  -69.6167  -21.2441 C   0  0  0  0  0  0  0  0  0  0  0  0
  -13.9042  -69.7706  -20.0182 S   0  0  0  0  0  0  0  0  0  0  0  0
  -12.9686  -68.6860  -20.1854 O   0  0  0  0  0  0  0  0  0  0  0  0
  -14.5244  -70.0394  -18.7358 O   0  0  0  0  0  0  0  0  0  0  0  0
  -13.1642  -71.2100  -20.4449 N   0  0  0  0  0  0  0  0  0  0  0  0
  -11.9213  -71.1040  -21.2368 C   0  0  0  0  0  0  0  0  0  0  0  0
  -10.6718  -71.2174  -20.3829 C   0  0  0  0  0  0  0  0  0  0  0  0
  -10.8362  -71.7126  -19.1225 N   0  0  0  0  0  0  0  0  0  0  0  0
   -9.7223  -71.8932  -18.3745 C   0  0  0  0  0  0  0  0  0  0  0  0
   -8.4354  -71.6071  -18.8069 C   0  0  0  0  0  0  0  0  0  0  0  0
   -7.2326  -71.8907  -17.9688 C   0  0  0  0  0  0  0  0  0  0  0  0
   -8.2925  -71.1110  -20.0988 C   0  0  0  0  0  0  0  0  0  0  0  0
   -9.4162  -70.9151  -20.9088 C   0  0  0  0  0  0  0  0  0  0  0  0
   -9.2108  -70.4736  -22.3180 C   0  0  0  0  0  0  0  0  0  0  0  0
  1  2  1  0
  2  3  1  0
  3  4  2  0
  3  5  2  0
  3  6  1  0
  6  7  1  0
  7  8  1  0
  8  9  2  0
  9 10  1  0
 10 11  2  0
 11 12  1  0
 11 13  1  0
 13 14  2  0
 14 15  1  0
 14  8  1  0
M  END
>  <id>  (19) 
50585

>  <inchikey>  (19) 
RWOAYQXMDLLTCN-UHFFFAOYSA-N

>  <alias>  (19) 
None

>  <smiles>  (19) 
CCS(=O)(=O)NCc1ncc(C)cc1C

>  <path>  (19) 
/opt/xchem-fragalysis-2/maxwin/BulkDock/SCRATCH/211010/C856-P50/C856-P50.minimised.mol

>  <distance_score>  (19) 
0.914108

>  <energy_score>  (19) 
-34.207058

>  <compound>  (19) 
RWOAYQXMDLLTCN-UHFFFAOYSA-N

>  <compound_id>  (19) 
856

>  <target>  (19) 
Flavi_NS5_RdRp

>  <tags>  (19) 
['Fragmenstein placed', 'iter1 scaffolds', 'Knitwork impure merge', 'Green Site/RNA tunnel merge', 'Enamine_Order_1968912', 'JA curated YES', 'DF curated INTERESTING']

>  <inspirations>  (19) 
{P Ã— 2}

>  <subsites>  (19) 
None

>  <reference>  (19) 
d0615a

>  <SLURM_JOB_ID>  (19) 
220464

>  <SLURM_JOB_NAME>  (19) 
BulkDock.place:Flavi_NS5_RdRp:RdRp_knitwork_green_site_rna_tunnel_impure_split4000_batch013

>  <csv_name>  (19) 
RdRp_knitwork_green_site_rna_tunnel_impure_split4000_batch013.csv

>  <scratch_subdir>  (19) 
/opt/xchem-fragalysis-2/maxwin/BulkDock/SCRATCH/220464/C50585-P150

>  <fragmenstein_runtime>  (19) 
15.01073

>  <fragmenstein_outcome>  (19) 
too moved

>  <fragmenstein_mode>  (19) 
expansion

>  <fragmenstein_error>  (19) 


>  <exports>  (19) 
/opt/xchem-fragalysis-2/maxwin/RdRp_FFF/quotes/JA_curated_and_manual_ordered.sdf;/opt/xchem-fragalysis-2/maxwin/RdRp_FFF/curation/Curated_DF.sdf

>  <Multi-SuCOS>  (19) 
nan

>  <merge_set>  (19) 
nan

$$$$
CZXIYJPCHZSMDX-UHFFFAOYSA-N
     RDKit          3D

 15 15  0  0  0  0  0  0  0  0999 V2000
  -14.6586  -69.4235  -22.6841 C   0  0  0  0  0  0  0  0  0  0  0  0
  -15.2108  -69.6203  -21.2866 C   0  0  0  0  0  0  0  0  0  0  0  0
  -13.9419  -69.7338  -20.0284 S   0  0  0  0  0  0  0  0  0  0  0  0
  -13.0915  -68.5734  -20.0981 O   0  0  0  0  0  0  0  0  0  0  0  0
  -14.5553  -70.1368  -18.7793 O   0  0  0  0  0  0  0  0  0  0  0  0
  -13.0612  -71.0609  -20.4987 N   0  0  0  0  0  0  0  0  0  0  0  0
  -11.8087  -70.8669  -21.2235 C   0  0  0  0  0  0  0  0  0  0  0  0
  -10.5546  -71.0919  -20.4184 C   0  0  0  0  0  0  0  0  0  0  0  0
  -10.5265  -71.0168  -19.0273 C   0  0  0  0  0  0  0  0  0  0  0  0
   -9.4308  -71.2433  -18.2608 N   0  0  0  0  0  0  0  0  0  0  0  0
   -8.2737  -71.5093  -18.9049 C   0  0  0  0  0  0  0  0  0  0  0  0
   -7.0540  -71.7601  -18.0743 C   0  0  0  0  0  0  0  0  0  0  0  0
   -8.1798  -71.5368  -20.2888 C   0  0  0  0  0  0  0  0  0  0  0  0
   -9.3319  -71.3465  -21.0589 C   0  0  0  0  0  0  0  0  0  0  0  0
   -9.2247  -71.3924  -22.5521 C   0  0  0  0  0  0  0  0  0  0  0  0
  1  2  1  0
  2  3  1  0
  3  4  2  0
  3  5  2  0
  3  6  1  0
  6  7  1  0
  7  8  1  0
  8  9  2  0
  9 10  1  0
 10 11  2  0
 11 12  1  0
 11 13  1  0
 13 14  2  0
 14 15  1  0
 14  8  1  0
M  END
>  <id>  (20) 
50611

>  <inchikey>  (20) 
CZXIYJPCHZSMDX-UHFFFAOYSA-N

>  <alias>  (20) 
None

>  <smiles>  (20) 
CCS(=O)(=O)NCc1cnc(C)cc1C

>  <path>  (20) 
/opt/xchem-fragalysis-2/maxwin/BulkDock/SCRATCH/211010/C885-P50/C885-P50.minimised.mol

>  <distance_score>  (20) 
0.773801

>  <energy_score>  (20) 
-28.004284

>  <compound>  (20) 
CZXIYJPCHZSMDX-UHFFFAOYSA-N

>  <compound_id>  (20) 
885

>  <target>  (20) 
Flavi_NS5_RdRp

>  <tags>  (20) 
['Fragmenstein placed', 'Knitwork pure merge', 'iter1 scaffolds', 'Enamine_Order_1968912', 'JA curated YES', 'acceptable', 'Thumb Site 2 merge', 'DF curated INTERESTING']

>  <inspirations>  (20) 
{P Ã— 2}

>  <subsites>  (20) 
None

>  <reference>  (20) 
d0615a

>  <SLURM_JOB_ID>  (20) 
211010

>  <SLURM_JOB_NAME>  (20) 
BulkDock.place:Flavi_NS5_RdRp:RdRp_knitwork_thumb_site_2_pure_split4000_batch000

>  <csv_name>  (20) 
RdRp_knitwork_thumb_site_2_pure_split4000_batch000.csv

>  <scratch_subdir>  (20) 
/opt/xchem-fragalysis-2/maxwin/BulkDock/SCRATCH/211010/C885-P50

>  <fragmenstein_runtime>  (20) 
1.7871043682098389

>  <fragmenstein_outcome>  (20) 
acceptable

>  <fragmenstein_mode>  (20) 
expansion

>  <fragmenstein_error>  (20) 


>  <exports>  (20) 
/opt/xchem-fragalysis-2/maxwin/BulkDock/OUTPUTS/RdRp_knitwork_thumb_site_2_pure_split4000_batch000_211010.sdf;/opt/xchem-fragalysis-2/maxwin/BulkDock/OUTPUTS/RdRp_knitwork_thumb_site_2_pure_fragalysis.sdf;/opt/xchem-fragalysis-2/maxwin/RdRp_FFF/quotes/JA_curated_and_manual_ordered.sdf;/opt/xchem-fragalysis-2/maxwin/RdRp_FFF/curation/Curated_DF.sdf;/opt/xchem-fragalysis-2/maxwin/RdRp_FFF/quotes/combined_jan2025_ordered.sdf

>  <Multi-SuCOS>  (20) 
nan

>  <merge_set>  (20) 
nan

$$$$
QXEWTLBETOJJBD-UHFFFAOYSA-N
     RDKit          3D

 14 14  0  0  0  0  0  0  0  0999 V2000
  -14.6174  -69.4762  -22.6797 C   0  0  0  0  0  0  0  0  0  0  0  0
  -15.1490  -69.5942  -21.2655 C   0  0  0  0  0  0  0  0  0  0  0  0
  -13.8632  -69.7973  -20.0354 S   0  0  0  0  0  0  0  0  0  0  0  0
  -12.8990  -68.7337  -20.1757 O   0  0  0  0  0  0  0  0  0  0  0  0
  -14.4928  -70.0750  -18.7593 O   0  0  0  0  0  0  0  0  0  0  0  0
  -13.1529  -71.2455  -20.4846 N   0  0  0  0  0  0  0  0  0  0  0  0
  -11.8553  -71.1567  -21.1910 C   0  0  0  0  0  0  0  0  0  0  0  0
  -10.6709  -71.2418  -20.2461 C   0  0  0  0  0  0  0  0  0  0  0  0
  -10.8869  -71.8315  -19.0313 N   0  0  0  0  0  0  0  0  0  0  0  0
   -9.8153  -71.9788  -18.2179 C   0  0  0  0  0  0  0  0  0  0  0  0
   -8.5303  -71.5785  -18.5482 C   0  0  0  0  0  0  0  0  0  0  0  0
   -8.3252  -70.9872  -19.7892 C   0  0  0  0  0  0  0  0  0  0  0  0
   -9.4067  -70.8217  -20.6500 C   0  0  0  0  0  0  0  0  0  0  0  0
   -9.1515  -70.1361  -22.1915 Cl  0  0  0  0  0  0  0  0  0  0  0  0
  1  2  1  0
  2  3  1  0
  3  4  2  0
  3  5  2  0
  3  6  1  0
  6  7  1  0
  7  8  1  0
  8  9  2  0
  9 10  1  0
 10 11  2  0
 11 12  1  0
 12 13  2  0
 13 14  1  0
 13  8  1  0
M  END
>  <id>  (21) 
50612

>  <inchikey>  (21) 
QXEWTLBETOJJBD-UHFFFAOYSA-N

>  <alias>  (21) 
None

>  <smiles>  (21) 
CCS(=O)(=O)NCc1ncccc1Cl

>  <path>  (21) 
/opt/xchem-fragalysis-2/maxwin/BulkDock/SCRATCH/211010/C886-P50/C886-P50.minimised.mol

>  <distance_score>  (21) 
0.801976

>  <energy_score>  (21) 
-41.158325

>  <compound>  (21) 
QXEWTLBETOJJBD-UHFFFAOYSA-N

>  <compound_id>  (21) 
886

>  <target>  (21) 
Flavi_NS5_RdRp

>  <tags>  (21) 
['Fragmenstein placed', 'Enamine_Quote_1977854', 'iter1 scaffolds', 'Knitwork impure merge', 'Green Site/RNA tunnel merge', 'Enamine_Order_1968912', 'JA curated YES', 'DF curated INTERESTING']

>  <inspirations>  (21) 
{P Ã— 2}

>  <subsites>  (21) 
None

>  <reference>  (21) 
d0615a

>  <SLURM_JOB_ID>  (21) 
220464

>  <SLURM_JOB_NAME>  (21) 
BulkDock.place:Flavi_NS5_RdRp:RdRp_knitwork_green_site_rna_tunnel_impure_split4000_batch013

>  <csv_name>  (21) 
RdRp_knitwork_green_site_rna_tunnel_impure_split4000_batch013.csv

>  <scratch_subdir>  (21) 
/opt/xchem-fragalysis-2/maxwin/BulkDock/SCRATCH/220464/C50612-P206

>  <fragmenstein_runtime>  (21) 
15.616388

>  <fragmenstein_outcome>  (21) 
too moved

>  <fragmenstein_mode>  (21) 
expansion

>  <fragmenstein_error>  (21) 


>  <exports>  (21) 
/opt/xchem-fragalysis-2/maxwin/RdRp_FFF/quotes/JA_curated_and_manual_ordered.sdf;/opt/xchem-fragalysis-2/maxwin/RdRp_FFF/curation/Curated_DF.sdf

>  <Multi-SuCOS>  (21) 
nan

>  <merge_set>  (21) 
nan

$$$$
XDGUIPBTSIDPMH-UHFFFAOYSA-N
     RDKit          3D

 14 14  0  0  0  0  0  0  0  0999 V2000
  -14.6342  -69.4153  -22.6921 C   0  0  0  0  0  0  0  0  0  0  0  0
  -15.1664  -69.5394  -21.2783 C   0  0  0  0  0  0  0  0  0  0  0  0
  -13.8803  -69.8049  -20.0609 S   0  0  0  0  0  0  0  0  0  0  0  0
  -12.9182  -68.7352  -20.1463 O   0  0  0  0  0  0  0  0  0  0  0  0
  -14.4963  -70.1618  -18.7978 O   0  0  0  0  0  0  0  0  0  0  0  0
  -13.1726  -71.2215  -20.5877 N   0  0  0  0  0  0  0  0  0  0  0  0
  -11.8288  -71.1592  -21.1666 C   0  0  0  0  0  0  0  0  0  0  0  0
  -10.6891  -71.1971  -20.1737 C   0  0  0  0  0  0  0  0  0  0  0  0
  -10.8348  -71.6924  -18.8710 C   0  0  0  0  0  0  0  0  0  0  0  0
   -9.7244  -71.7528  -18.0366 C   0  0  0  0  0  0  0  0  0  0  0  0
   -8.4848  -71.3662  -18.3990 N   0  0  0  0  0  0  0  0  0  0  0  0
   -8.3543  -70.8929  -19.6600 C   0  0  0  0  0  0  0  0  0  0  0  0
   -9.4070  -70.7945  -20.5622 C   0  0  0  0  0  0  0  0  0  0  0  0
   -9.1095  -70.1975  -22.1353 Cl  0  0  0  0  0  0  0  0  0  0  0  0
  1  2  1  0
  2  3  1  0
  3  4  2  0
  3  5  2  0
  3  6  1  0
  6  7  1  0
  7  8  1  0
  8  9  2  0
  9 10  1  0
 10 11  2  0
 11 12  1  0
 12 13  2  0
 13 14  1  0
 13  8  1  0
M  END
>  <id>  (22) 
50614

>  <inchikey>  (22) 
XDGUIPBTSIDPMH-UHFFFAOYSA-N

>  <alias>  (22) 
None

>  <smiles>  (22) 
CCS(=O)(=O)NCc1ccncc1Cl

>  <path>  (22) 
/opt/xchem-fragalysis-2/maxwin/BulkDock/SCRATCH/211010/C890-P50/C890-P50.minimised.mol

>  <distance_score>  (22) 
0.706599

>  <energy_score>  (22) 
-30.408529

>  <compound>  (22) 
XDGUIPBTSIDPMH-UHFFFAOYSA-N

>  <compound_id>  (22) 
890

>  <target>  (22) 
Flavi_NS5_RdRp

>  <tags>  (22) 
['Fragmenstein placed', 'Enamine_Quote_1977854', 'Knitwork pure merge', 'iter1 scaffolds', 'Enamine_Order_1968912', 'JA curated YES', 'acceptable', 'Thumb Site 2 merge', 'DF curated INTERESTING']

>  <inspirations>  (22) 
{P Ã— 2}

>  <subsites>  (22) 
None

>  <reference>  (22) 
d0615a

>  <SLURM_JOB_ID>  (22) 
211010

>  <SLURM_JOB_NAME>  (22) 
BulkDock.place:Flavi_NS5_RdRp:RdRp_knitwork_thumb_site_2_pure_split4000_batch000

>  <csv_name>  (22) 
RdRp_knitwork_thumb_site_2_pure_split4000_batch000.csv

>  <scratch_subdir>  (22) 
/opt/xchem-fragalysis-2/maxwin/BulkDock/SCRATCH/211010/C890-P50

>  <fragmenstein_runtime>  (22) 
1.2955694198608398

>  <fragmenstein_outcome>  (22) 
acceptable

>  <fragmenstein_mode>  (22) 
expansion

>  <fragmenstein_error>  (22) 


>  <exports>  (22) 
/opt/xchem-fragalysis-2/maxwin/BulkDock/OUTPUTS/RdRp_knitwork_thumb_site_2_pure_split4000_batch000_211010.sdf;/opt/xchem-fragalysis-2/maxwin/BulkDock/OUTPUTS/RdRp_knitwork_thumb_site_2_pure_fragalysis.sdf;/opt/xchem-fragalysis-2/maxwin/RdRp_FFF/quotes/JA_curated_and_manual_ordered.sdf;/opt/xchem-fragalysis-2/maxwin/RdRp_FFF/curation/Curated_DF.sdf;/opt/xchem-fragalysis-2/maxwin/RdRp_FFF/quotes/combined_jan2025_ordered.sdf

>  <Multi-SuCOS>  (22) 
nan

>  <merge_set>  (22) 
nan

$$$$
BCMFRBFZBGDNRH-UHFFFAOYSA-N
     RDKit          3D

 14 14  0  0  0  0  0  0  0  0999 V2000
  -14.6006  -69.4550  -22.6938 C   0  0  0  0  0  0  0  0  0  0  0  0
  -15.1677  -69.6591  -21.3035 C   0  0  0  0  0  0  0  0  0  0  0  0
  -13.9111  -69.7523  -20.0312 S   0  0  0  0  0  0  0  0  0  0  0  0
  -13.0679  -68.5868  -20.1030 O   0  0  0  0  0  0  0  0  0  0  0  0
  -14.5351  -70.1483  -18.7849 O   0  0  0  0  0  0  0  0  0  0  0  0
  -13.0163  -71.0804  -20.4793 N   0  0  0  0  0  0  0  0  0  0  0  0
  -11.7288  -70.8833  -21.1426 C   0  0  0  0  0  0  0  0  0  0  0  0
  -10.5112  -71.0653  -20.2692 C   0  0  0  0  0  0  0  0  0  0  0  0
  -10.5526  -70.9501  -18.8799 C   0  0  0  0  0  0  0  0  0  0  0  0
   -9.4885  -71.1188  -18.0541 N   0  0  0  0  0  0  0  0  0  0  0  0
   -8.3022  -71.3625  -18.6428 C   0  0  0  0  0  0  0  0  0  0  0  0
   -8.1322  -71.4497  -20.0115 C   0  0  0  0  0  0  0  0  0  0  0  0
   -9.2511  -71.3131  -20.8413 C   0  0  0  0  0  0  0  0  0  0  0  0
   -9.0755  -71.4068  -22.3260 C   0  0  0  0  0  0  0  0  0  0  0  0
  1  2  1  0
  2  3  1  0
  3  4  2  0
  3  5  2  0
  3  6  1  0
  6  7  1  0
  7  8  1  0
  8  9  2  0
  9 10  1  0
 10 11  2  0
 11 12  1  0
 12 13  2  0
 13 14  1  0
 13  8  1  0
M  END
>  <id>  (23) 
50640

>  <inchikey>  (23) 
BCMFRBFZBGDNRH-UHFFFAOYSA-N

>  <alias>  (23) 
None

>  <smiles>  (23) 
CCS(=O)(=O)NCc1cnccc1C

>  <path>  (23) 
/opt/xchem-fragalysis-2/maxwin/BulkDock/SCRATCH/211010/C915-P50/C915-P50.minimised.mol

>  <distance_score>  (23) 
0.896937

>  <energy_score>  (23) 
-26.981517

>  <compound>  (23) 
BCMFRBFZBGDNRH-UHFFFAOYSA-N

>  <compound_id>  (23) 
915

>  <target>  (23) 
Flavi_NS5_RdRp

>  <tags>  (23) 
['Fragmenstein placed', 'Knitwork pure merge', 'iter1 scaffolds', 'Enamine_Order_1968912', 'JA curated YES', 'acceptable', 'Thumb Site 2 merge', 'DF curated INTERESTING']

>  <inspirations>  (23) 
{P Ã— 2}

>  <subsites>  (23) 
None

>  <reference>  (23) 
d0615a

>  <SLURM_JOB_ID>  (23) 
211010

>  <SLURM_JOB_NAME>  (23) 
BulkDock.place:Flavi_NS5_RdRp:RdRp_knitwork_thumb_site_2_pure_split4000_batch000

>  <csv_name>  (23) 
RdRp_knitwork_thumb_site_2_pure_split4000_batch000.csv

>  <scratch_subdir>  (23) 
/opt/xchem-fragalysis-2/maxwin/BulkDock/SCRATCH/211010/C915-P50

>  <fragmenstein_runtime>  (23) 
1.3582980632781982

>  <fragmenstein_outcome>  (23) 
acceptable

>  <fragmenstein_mode>  (23) 
expansion

>  <fragmenstein_error>  (23) 


>  <exports>  (23) 
/opt/xchem-fragalysis-2/maxwin/BulkDock/OUTPUTS/RdRp_knitwork_thumb_site_2_pure_split4000_batch000_211010.sdf;/opt/xchem-fragalysis-2/maxwin/BulkDock/OUTPUTS/RdRp_knitwork_thumb_site_2_pure_fragalysis.sdf;/opt/xchem-fragalysis-2/maxwin/RdRp_FFF/quotes/JA_curated_and_manual_ordered.sdf;/opt/xchem-fragalysis-2/maxwin/RdRp_FFF/curation/Curated_DF.sdf;/opt/xchem-fragalysis-2/maxwin/RdRp_FFF/quotes/combined_jan2025_ordered.sdf

>  <Multi-SuCOS>  (23) 
nan

>  <merge_set>  (23) 
nan

$$$$
CVLSHSMLHFDUPS-MRVPVSSYSA-N
     RDKit          3D

 13 13  0  0  0  0  0  0  0  0999 V2000
  -14.2076  -69.2848  -23.0115 C   0  0  0  0  0  0  0  0  0  0  0  0
  -14.6568  -69.4771  -21.5595 C   0  0  0  0  0  0  0  0  0  0  0  0
  -15.9088  -70.3520  -21.5026 C   0  0  0  0  0  0  0  0  0  0  0  0
  -15.0240  -68.1140  -20.9696 C   0  0  0  0  0  0  0  0  0  0  0  0
  -13.6130  -69.9988  -20.7083 O   0  0  0  0  0  0  0  0  0  0  0  0
  -13.0496  -71.2560  -21.1030 C   0  0  0  0  0  0  0  0  0  0  0  0
  -11.5560  -71.1994  -21.4813 C   0  0  1  0  0  0  0  0  0  0  0  0
  -11.2924  -70.1899  -22.4622 O   0  0  0  0  0  0  0  0  0  0  0  0
  -10.5632  -71.1088  -20.3540 C   0  0  0  0  0  0  0  0  0  0  0  0
  -10.7403  -71.3717  -19.0090 C   0  0  0  0  0  0  0  0  0  0  0  0
   -9.2401  -71.2830  -18.1821 S   0  0  0  0  0  0  0  0  0  0  0  0
   -8.4713  -70.8518  -19.6541 C   0  0  0  0  0  0  0  0  0  0  0  0
   -9.2501  -70.7897  -20.7104 N   0  0  0  0  0  0  0  0  0  0  0  0
  1  2  1  0
  2  3  1  0
  2  4  1  0
  2  5  1  0
  5  6  1  0
  6  7  1  0
  7  8  1  6
  7  9  1  0
  9 10  2  0
 10 11  1  0
 11 12  1  0
 12 13  2  0
 13  9  1  0
M  END
>  <id>  (24) 
51476

>  <inchikey>  (24) 
CVLSHSMLHFDUPS-MRVPVSSYSA-N

>  <alias>  (24) 
None

>  <smiles>  (24) 
CC(C)(C)OC[C@@H](O)c1cscn1

>  <path>  (24) 
/opt/xchem-fragalysis-2/maxwin/BulkDock/SCRATCH/211013/C5550-P50/C5550-P50.minimised.mol

>  <distance_score>  (24) 
0.615688

>  <energy_score>  (24) 
-99.56737

>  <compound>  (24) 
CVLSHSMLHFDUPS-UHFFFAOYSA-N

>  <compound_id>  (24) 
5550

>  <target>  (24) 
Flavi_NS5_RdRp

>  <tags>  (24) 
['Fragmenstein placed', 'iter1 scaffolds', 'Knitwork impure merge', 'Enamine_unavailable', 'AC curated YES', 'Green Site/RNA tunnel merge']

>  <inspirations>  (24) 
{P Ã— 2}

>  <subsites>  (24) 
None

>  <reference>  (24) 
d0615a

>  <SLURM_JOB_ID>  (24) 
220464

>  <SLURM_JOB_NAME>  (24) 
BulkDock.place:Flavi_NS5_RdRp:RdRp_knitwork_green_site_rna_tunnel_impure_split4000_batch013

>  <csv_name>  (24) 
RdRp_knitwork_green_site_rna_tunnel_impure_split4000_batch013.csv

>  <scratch_subdir>  (24) 
/opt/xchem-fragalysis-2/maxwin/BulkDock/SCRATCH/220464/C51476-P150

>  <fragmenstein_runtime>  (24) 
8.77784

>  <fragmenstein_outcome>  (24) 
too moved

>  <fragmenstein_mode>  (24) 
expansion

>  <fragmenstein_error>  (24) 


>  <exports>  (24) 
/opt/xchem-fragalysis-2/maxwin/RdRp_FFF/curation/Curated_AC.sdf

>  <Multi-SuCOS>  (24) 
nan

>  <merge_set>  (24) 
nan

$$$$
BXUSHCNUMJPCGE-SECBINFHSA-N
     RDKit          3D

 15 15  0  0  0  0  0  0  0  0999 V2000
  -16.1362  -69.9023  -23.5782 C   0  0  0  0  0  0  0  0  0  0  0  0
  -14.9716  -69.5282  -22.6730 C   0  0  0  0  0  0  0  0  0  0  0  0
  -15.2745  -69.9181  -21.2343 C   0  0  0  0  0  0  0  0  0  0  0  0
  -13.8552  -69.8593  -20.1506 S   0  0  0  0  0  0  0  0  0  0  0  0
  -13.2440  -68.5576  -20.2394 O   0  0  0  0  0  0  0  0  0  0  0  0
  -14.2423  -70.4206  -18.8700 O   0  0  0  0  0  0  0  0  0  0  0  0
  -12.8507  -70.9979  -20.8543 N   0  0  0  0  0  0  0  0  0  0  0  0
  -11.5303  -70.5774  -21.3628 C   0  0  2  0  0  0  0  0  0  0  0  0
  -11.3262  -71.2869  -22.7036 C   0  0  0  0  0  0  0  0  0  0  0  0
  -10.3755  -70.8473  -20.4173 C   0  0  0  0  0  0  0  0  0  0  0  0
  -10.5176  -71.4489  -19.1604 C   0  0  0  0  0  0  0  0  0  0  0  0
   -9.3959  -71.7043  -18.3724 C   0  0  0  0  0  0  0  0  0  0  0  0
   -8.1541  -71.3365  -18.8564 C   0  0  0  0  0  0  0  0  0  0  0  0
   -7.9707  -70.7231  -20.0410 N   0  0  0  0  0  0  0  0  0  0  0  0
   -9.0769  -70.4864  -20.7841 C   0  0  0  0  0  0  0  0  0  0  0  0
  1  2  1  0
  2  3  1  0
  3  4  1  0
  4  5  2  0
  4  6  2  0
  4  7  1  0
  7  8  1  0
  8  9  1  6
  8 10  1  0
 10 11  2  0
 11 12  1  0
 12 13  2  0
 13 14  1  0
 14 15  2  0
 15 10  1  0
M  END
>  <id>  (25) 
51748

>  <inchikey>  (25) 
BXUSHCNUMJPCGE-SECBINFHSA-N

>  <alias>  (25) 
None

>  <smiles>  (25) 
CCCS(=O)(=O)N[C@H](C)c1cccnc1

>  <path>  (25) 
/opt/xchem-fragalysis-2/maxwin/BulkDock/SCRATCH/211013/C6353-P50/C6353-P50.minimised.mol

>  <distance_score>  (25) 
0.868567

>  <energy_score>  (25) 
-47.517959

>  <compound>  (25) 
BXUSHCNUMJPCGE-UHFFFAOYSA-N

>  <compound_id>  (25) 
6353

>  <target>  (25) 
Flavi_NS5_RdRp

>  <tags>  (25) 
['Fragmenstein placed', 'Knitwork pure merge', 'iter1 scaffolds', 'Green Site/RNA tunnel merge', 'Enamine_Order_1968912', 'JA curated YES', 'DF curated INTERESTING']

>  <inspirations>  (25) 
{P Ã— 2}

>  <subsites>  (25) 
None

>  <reference>  (25) 
d0615a

>  <SLURM_JOB_ID>  (25) 
217081

>  <SLURM_JOB_NAME>  (25) 
BulkDock.place:Flavi_NS5_RdRp:RdRp_knitwork_green_site_rna_tunnel_pure_split4000_batch010

>  <csv_name>  (25) 
RdRp_knitwork_green_site_rna_tunnel_pure_split4000_batch010.csv

>  <scratch_subdir>  (25) 
/opt/xchem-fragalysis-2/maxwin/BulkDock/SCRATCH/217081/C51748-P196

>  <fragmenstein_runtime>  (25) 
6.911534

>  <fragmenstein_outcome>  (25) 
too moved

>  <fragmenstein_mode>  (25) 
expansion

>  <fragmenstein_error>  (25) 


>  <exports>  (25) 
/opt/xchem-fragalysis-2/maxwin/RdRp_FFF/quotes/JA_curated_and_manual_ordered.sdf;/opt/xchem-fragalysis-2/maxwin/RdRp_FFF/curation/Curated_DF.sdf

>  <Multi-SuCOS>  (25) 
nan

>  <merge_set>  (25) 
nan

$$$$
XVUBRPZAPHYKMV-JTQLQIEISA-N
     RDKit          3D

 16 16  0  0  0  0  0  0  0  0999 V2000
  -10.3920  -70.9805  -23.6044 C   0  0  0  0  0  0  0  0  0  0  0  0
  -11.4866  -70.5503  -22.6383 C   0  0  0  0  0  0  0  0  0  0  0  0
  -11.6057  -71.4347  -21.3876 C   0  0  2  0  0  0  0  0  0  0  0  0
  -12.9900  -71.3597  -20.8828 N   0  0  0  0  0  0  0  0  0  0  0  0
  -13.5659  -70.0298  -20.0842 S   0  0  0  0  0  0  0  0  0  0  0  0
  -13.9067  -70.4750  -18.7490 O   0  0  0  0  0  0  0  0  0  0  0  0
  -12.7611  -68.8653  -20.3312 O   0  0  0  0  0  0  0  0  0  0  0  0
  -15.0229  -69.8488  -20.9169 N   0  0  0  0  0  0  0  0  0  0  0  0
  -14.9119  -69.4981  -22.3542 C   0  0  0  0  0  0  0  0  0  0  0  0
  -15.9656  -68.9564  -20.2168 C   0  0  0  0  0  0  0  0  0  0  0  0
  -10.5246  -71.3313  -20.3230 C   0  0  0  0  0  0  0  0  0  0  0  0
  -10.6117  -72.1297  -19.1732 C   0  0  0  0  0  0  0  0  0  0  0  0
   -9.5637  -72.1336  -18.2631 C   0  0  0  0  0  0  0  0  0  0  0  0
   -8.4318  -71.4202  -18.4170 N   0  0  0  0  0  0  0  0  0  0  0  0
   -8.3595  -70.6514  -19.5226 C   0  0  0  0  0  0  0  0  0  0  0  0
   -9.3710  -70.5518  -20.4679 C   0  0  0  0  0  0  0  0  0  0  0  0
  1  2  1  0
  3  2  1  6
  3  4  1  0
  4  5  1  0
  5  6  2  0
  5  7  2  0
  5  8  1  0
  8  9  1  0
  8 10  1  0
  3 11  1  0
 11 12  2  0
 12 13  1  0
 13 14  2  0
 14 15  1  0
 15 16  2  0
 16 11  1  0
M  END
>  <id>  (26) 
51810

>  <inchikey>  (26) 
XVUBRPZAPHYKMV-JTQLQIEISA-N

>  <alias>  (26) 
None

>  <smiles>  (26) 
CC[C@H](NS(=O)(=O)N(C)C)c1ccncc1

>  <path>  (26) 
/opt/xchem-fragalysis-2/maxwin/BulkDock/SCRATCH/211013/C6527-P50/C6527-P50.minimised.mol

>  <distance_score>  (26) 
0.751648

>  <energy_score>  (26) 
-29.846533

>  <compound>  (26) 
XVUBRPZAPHYKMV-UHFFFAOYSA-N

>  <compound_id>  (26) 
6527

>  <target>  (26) 
Flavi_NS5_RdRp

>  <tags>  (26) 
['Fragmenstein placed', 'Enamine_Quote_1970815', 'Knitwork impure merge', 'Green Site/RNA tunnel merge']

>  <inspirations>  (26) 
{P Ã— 2}

>  <subsites>  (26) 
None

>  <reference>  (26) 
d0615a

>  <SLURM_JOB_ID>  (26) 
220469

>  <SLURM_JOB_NAME>  (26) 
BulkDock.place:Flavi_NS5_RdRp:RdRp_knitwork_green_site_rna_tunnel_impure_split4000_batch018

>  <csv_name>  (26) 
RdRp_knitwork_green_site_rna_tunnel_impure_split4000_batch018.csv

>  <scratch_subdir>  (26) 
/opt/xchem-fragalysis-2/maxwin/BulkDock/SCRATCH/220469/C51810-P144

>  <fragmenstein_runtime>  (26) 
5.910535

>  <fragmenstein_outcome>  (26) 
too moved

>  <fragmenstein_mode>  (26) 
expansion

>  <fragmenstein_error>  (26) 


>  <exports>  (26) 
nan

>  <Multi-SuCOS>  (26) 
nan

>  <merge_set>  (26) 
nan

$$$$
MHZFNJCMRZQBRV-QMMMGPOBSA-N
     RDKit          3D

 15 15  0  0  0  0  0  0  0  0999 V2000
  -11.6202  -70.5435  -22.6857 C   0  0  0  0  0  0  0  0  0  0  0  0
  -11.7699  -71.3433  -21.3947 C   0  0  2  0  0  0  0  0  0  0  0  0
  -13.1655  -71.2310  -20.8584 N   0  0  0  0  0  0  0  0  0  0  0  0
  -13.7367  -69.8024  -20.2148 S   0  0  0  0  0  0  0  0  0  0  0  0
  -12.7209  -68.7852  -20.2869 O   0  0  0  0  0  0  0  0  0  0  0  0
  -14.2834  -70.1941  -18.9241 O   0  0  0  0  0  0  0  0  0  0  0  0
  -15.1210  -69.3079  -21.2248 C   0  0  0  0  0  0  0  0  0  0  0  0
  -14.8471  -69.5612  -22.6259 C   0  0  0  0  0  0  0  0  0  0  0  0
  -14.7593  -69.7910  -23.7604 N   0  0  0  0  0  0  0  0  0  0  0  0
  -10.6197  -71.1748  -20.4013 C   0  0  0  0  0  0  0  0  0  0  0  0
  -10.7406  -71.6164  -19.0825 C   0  0  0  0  0  0  0  0  0  0  0  0
   -9.6144  -71.6269  -18.2595 C   0  0  0  0  0  0  0  0  0  0  0  0
   -8.3928  -71.2051  -18.7664 C   0  0  0  0  0  0  0  0  0  0  0  0
   -8.3501  -70.7713  -20.0777 C   0  0  0  0  0  0  0  0  0  0  0  0
   -9.4248  -70.7576  -20.8953 N   0  0  0  0  0  0  0  0  0  0  0  0
  2  1  1  6
  2  3  1  0
  3  4  1  0
  4  5  2  0
  4  6  2  0
  4  7  1  0
  7  8  1  0
  8  9  3  0
  2 10  1  0
 10 11  2  0
 11 12  1  0
 12 13  2  0
 13 14  1  0
 14 15  2  0
 15 10  1  0
M  END
>  <id>  (27) 
51831

>  <inchikey>  (27) 
MHZFNJCMRZQBRV-QMMMGPOBSA-N

>  <alias>  (27) 
None

>  <smiles>  (27) 
C[C@H](NS(=O)(=O)CC#N)c1ccccn1

>  <path>  (27) 
/opt/xchem-fragalysis-2/maxwin/BulkDock/SCRATCH/211013/C6543-P17/C6543-P17.minimised.mol

>  <distance_score>  (27) 
0.573141

>  <energy_score>  (27) 
-26.157761

>  <compound>  (27) 
MHZFNJCMRZQBRV-UHFFFAOYSA-N

>  <compound_id>  (27) 
6543

>  <target>  (27) 
Flavi_NS5_RdRp

>  <tags>  (27) 
['Fragmenstein placed', 'Enamine_Quote_1970815', 'Knitwork pure merge', 'Green Site/RNA tunnel merge']

>  <inspirations>  (27) 
{P Ã— 2}

>  <subsites>  (27) 
None

>  <reference>  (27) 
d0174a

>  <SLURM_JOB_ID>  (27) 
217087

>  <SLURM_JOB_NAME>  (27) 
BulkDock.place:Flavi_NS5_RdRp:RdRp_knitwork_green_site_rna_tunnel_pure_split4000_batch016

>  <csv_name>  (27) 
RdRp_knitwork_green_site_rna_tunnel_pure_split4000_batch016.csv

>  <scratch_subdir>  (27) 
/opt/xchem-fragalysis-2/maxwin/BulkDock/SCRATCH/217087/C51831-P140

>  <fragmenstein_runtime>  (27) 
0.950249

>  <fragmenstein_outcome>  (27) 
too distant

>  <fragmenstein_mode>  (27) 
expansion

>  <fragmenstein_error>  (27) 
DistanceError: hit0

>  <exports>  (27) 
nan

>  <Multi-SuCOS>  (27) 
nan

>  <merge_set>  (27) 
nan

$$$$
KGPMAROHLPCGEI-SNVBAGLBSA-N
     RDKit          3D

 21 21  0  0  0  0  0  0  0  0999 V2000
  -10.1222  -71.1526  -23.6117 C   0  0  0  0  0  0  0  0  0  0  0  0
  -11.3929  -71.4030  -22.8167 C   0  0  0  0  0  0  0  0  0  0  0  0
  -11.4708  -70.6477  -21.4846 C   0  0  1  0  0  0  0  0  0  0  0  0
  -12.8132  -70.8897  -20.9099 N   0  0  0  0  0  0  0  0  0  0  0  0
  -13.6044  -69.6298  -20.1816 S   0  0  0  0  0  0  0  0  0  0  0  0
  -12.6067  -68.7792  -19.5863 O   0  0  0  0  0  0  0  0  0  0  0  0
  -14.6667  -70.1986  -19.3818 O   0  0  0  0  0  0  0  0  0  0  0  0
  -14.3139  -68.7121  -21.5249 C   0  0  0  0  0  0  0  0  0  0  0  0
  -15.5650  -69.2896  -22.1352 C   0  0  0  0  0  0  0  0  0  0  0  0
  -15.2964  -70.3757  -23.1498 C   0  0  0  0  0  0  0  0  0  0  0  0
  -14.3132  -69.9682  -23.9904 F   0  0  0  0  0  0  0  0  0  0  0  0
  -14.8276  -71.4821  -22.5122 F   0  0  0  0  0  0  0  0  0  0  0  0
  -16.5590  -70.7074  -23.9352 C   0  0  0  0  0  0  0  0  0  0  0  0
  -17.0924  -69.5903  -24.5032 F   0  0  0  0  0  0  0  0  0  0  0  0
  -16.2717  -71.5604  -24.9491 F   0  0  0  0  0  0  0  0  0  0  0  0
  -10.3619  -71.0236  -20.5236 C   0  0  0  0  0  0  0  0  0  0  0  0
  -10.5022  -72.0205  -19.5518 C   0  0  0  0  0  0  0  0  0  0  0  0
   -9.4355  -72.3331  -18.7118 C   0  0  0  0  0  0  0  0  0  0  0  0
   -8.2461  -71.6462  -18.8767 C   0  0  0  0  0  0  0  0  0  0  0  0
   -8.0657  -70.6759  -19.7942 N   0  0  0  0  0  0  0  0  0  0  0  0
   -9.1246  -70.3817  -20.5846 C   0  0  0  0  0  0  0  0  0  0  0  0
  1  2  1  0
  3  2  1  6
  3  4  1  0
  4  5  1  0
  5  6  2  0
  5  7  2  0
  5  8  1  0
  8  9  1  0
  9 10  1  0
 10 11  1  0
 10 12  1  0
 10 13  1  0
 13 14  1  0
 13 15  1  0
  3 16  1  0
 16 17  2  0
 17 18  1  0
 18 19  2  0
 19 20  1  0
 20 21  2  0
 21 16  1  0
M  END
>  <id>  (28) 
51980

>  <inchikey>  (28) 
KGPMAROHLPCGEI-SNVBAGLBSA-N

>  <alias>  (28) 
None

>  <smiles>  (28) 
CC[C@@H](NS(=O)(=O)CCC(F)(F)C(F)F)c1cccnc1

>  <path>  (28) 
/opt/xchem-fragalysis-2/maxwin/BulkDock/SCRATCH/211013/C6950-P50/C6950-P50.minimised.mol

>  <distance_score>  (28) 
0.923923

>  <energy_score>  (28) 
-66.53151

>  <compound>  (28) 
KGPMAROHLPCGEI-UHFFFAOYSA-N

>  <compound_id>  (28) 
6950

>  <target>  (28) 
Flavi_NS5_RdRp

>  <tags>  (28) 
['Fragmenstein placed', 'iter1 scaffolds', 'Knitwork impure merge', 'AC curated YES', 'Enamine_Quote_1970815', 'acceptable', 'Thumb Site 2 merge', 'DF curated INTERESTING']

>  <inspirations>  (28) 
{P Ã— 2}

>  <subsites>  (28) 
None

>  <reference>  (28) 
d0615a

>  <SLURM_JOB_ID>  (28) 
211013

>  <SLURM_JOB_NAME>  (28) 
BulkDock.place:Flavi_NS5_RdRp:RdRp_knitwork_thumb_site_2_impure_split4000_batch000

>  <csv_name>  (28) 
RdRp_knitwork_thumb_site_2_impure_split4000_batch000.csv

>  <scratch_subdir>  (28) 
/opt/xchem-fragalysis-2/maxwin/BulkDock/SCRATCH/211013/C6950-P50

>  <fragmenstein_runtime>  (28) 
3.2299387454986572

>  <fragmenstein_outcome>  (28) 
acceptable

>  <fragmenstein_mode>  (28) 
expansion

>  <fragmenstein_error>  (28) 


>  <exports>  (28) 
/opt/xchem-fragalysis-2/maxwin/BulkDock/OUTPUTS/RdRp_knitwork_thumb_site_2_impure_split4000_batch000_211013.sdf;/opt/xchem-fragalysis-2/maxwin/BulkDock/OUTPUTS/RdRp_knitwork_thumb_site_2_impure_fragalysis.sdf;/opt/xchem-fragalysis-2/maxwin/RdRp_FFF/curation/Curated_DF.sdf;/opt/xchem-fragalysis-2/maxwin/RdRp_FFF/curation/Curated_AC.sdf;/opt/xchem-fragalysis-2/maxwin/RdRp_FFF/quotes/combined_jan2025_ordered.sdf

>  <Multi-SuCOS>  (28) 
nan

>  <merge_set>  (28) 
nan

$$$$
QAXRUQAZQORQFQ-VIFPVBQESA-N
     RDKit          3D

 22 24  0  0  0  0  0  0  0  0999 V2000
  -14.4375  -39.1913  -23.3277 C   0  0  0  0  0  0  0  0  0  0  0  0
  -13.8586  -38.7764  -21.9803 C   0  0  1  0  0  0  0  0  0  0  0  0
  -12.8137  -39.7389  -21.3957 C   0  0  0  0  0  0  0  0  0  0  0  0
  -13.3525  -41.0418  -21.1730 N   0  0  0  0  0  0  0  0  0  0  0  0
  -13.1331  -42.0310  -20.0114 C   0  0  0  0  0  0  0  0  0  0  0  0
  -12.5395  -41.9078  -19.0173 O   0  0  0  0  0  0  0  0  0  0  0  0
  -13.8861  -43.2813  -20.2773 C   0  0  0  0  0  0  0  0  0  0  0  0
  -14.1491  -43.6964  -21.5797 C   0  0  0  0  0  0  0  0  0  0  0  0
  -15.0999  -44.6684  -21.7929 C   0  0  0  0  0  0  0  0  0  0  0  0
  -15.6633  -45.2967  -20.6891 C   0  0  0  0  0  0  0  0  0  0  0  0
  -16.6772  -46.2968  -20.9625 C   0  0  0  0  0  0  0  0  0  0  0  0
  -17.6768  -46.0193  -21.8775 N   0  0  0  0  0  0  0  0  0  0  0  0
  -18.2774  -47.1680  -22.0216 C   0  0  0  0  0  0  0  0  0  0  0  0
  -17.6833  -48.0859  -21.2263 N   0  0  0  0  0  0  0  0  0  0  0  0
  -16.6261  -47.5842  -20.5661 N   0  0  0  0  0  0  0  0  0  0  0  0
  -15.3107  -45.0296  -19.4033 N   0  0  0  0  0  0  0  0  0  0  0  0
  -14.4441  -43.9997  -19.2282 C   0  0  0  0  0  0  0  0  0  0  0  0
  -13.2141  -37.4391  -22.0520 C   0  0  0  0  0  0  0  0  0  0  0  0
  -12.0614  -37.1611  -22.6219 N   0  0  0  0  0  0  0  0  0  0  0  0
  -11.7063  -35.9367  -22.1199 C   0  0  0  0  0  0  0  0  0  0  0  0
  -12.7163  -35.4110  -21.3535 C   0  0  0  0  0  0  0  0  0  0  0  0
  -13.6957  -36.3616  -21.3572 N   0  0  0  0  0  0  0  0  0  0  0  0
  2  1  1  6
  2  3  1  0
  3  4  1  0
  4  5  1  0
  5  6  2  0
  5  7  1  0
  7  8  2  0
  8  9  1  0
  9 10  2  0
 10 11  1  0
 11 12  1  0
 12 13  2  0
 13 14  1  0
 14 15  1  0
 10 16  1  0
 16 17  2  0
  2 18  1  0
 18 19  2  0
 19 20  1  0
 20 21  2  0
 21 22  1  0
 17  7  1  0
 22 18  1  0
 15 11  2  0
M  END
>  <id>  (29) 
60760

>  <inchikey>  (29) 
QAXRUQAZQORQFQ-VIFPVBQESA-N

>  <alias>  (29) 
None

>  <smiles>  (29) 
C[C@@H](CNC(=O)c1ccc(-c2nc[nH]n2)nc1)c1ncc[nH]1

>  <path>  (29) 
/opt/xchem-fragalysis-2/maxwin/BulkDock/SCRATCH/217041/C16080-P42/C16080-P42.minimised.mol

>  <distance_score>  (29) 
0.848256

>  <energy_score>  (29) 
-35.812646

>  <compound>  (29) 
QAXRUQAZQORQFQ-UHFFFAOYSA-N

>  <compound_id>  (29) 
16080

>  <target>  (29) 
Flavi_NS5_RdRp

>  <tags>  (29) 
['Fragmenstein placed', 'iter1 scaffolds', 'Knitwork impure merge', 'Enamine_unavailable', 'Green Site/RNA tunnel merge', 'Enamine_Quote_1970815', 'DF curated YES']

>  <inspirations>  (29) 
{P Ã— 2}

>  <subsites>  (29) 
None

>  <reference>  (29) 
d0472a

>  <SLURM_JOB_ID>  (29) 
220457

>  <SLURM_JOB_NAME>  (29) 
BulkDock.place:Flavi_NS5_RdRp:RdRp_knitwork_green_site_rna_tunnel_impure_split4000_batch006

>  <csv_name>  (29) 
RdRp_knitwork_green_site_rna_tunnel_impure_split4000_batch006.csv

>  <scratch_subdir>  (29) 
/opt/xchem-fragalysis-2/maxwin/BulkDock/SCRATCH/220457/C60760-P218

>  <fragmenstein_runtime>  (29) 
4.037429

>  <fragmenstein_outcome>  (29) 
too moved

>  <fragmenstein_mode>  (29) 
expansion

>  <fragmenstein_error>  (29) 


>  <exports>  (29) 
/opt/xchem-fragalysis-2/maxwin/RdRp_FFF/curation/Curated_DF.sdf

>  <Multi-SuCOS>  (29) 
nan

>  <merge_set>  (29) 
nan

$$$$
RVTMFWDQLFZZMH-AWEZNQCLSA-N
     RDKit          3D

 21 22  0  0  0  0  0  0  0  0999 V2000
  -16.6140  -39.4600  -20.5804 C   0  0  0  0  0  0  0  0  0  0  0  0
  -16.2093  -39.0568  -21.7976 C   0  0  0  0  0  0  0  0  0  0  0  0
  -15.6846  -37.6787  -22.1044 C   0  0  0  0  0  0  0  0  0  0  0  0
  -14.2271  -37.5848  -22.1067 N   0  0  0  0  0  0  0  0  0  0  0  0
  -13.4842  -36.5522  -21.5910 C   0  0  0  0  0  0  0  0  0  0  0  0
  -12.1876  -36.8124  -21.9709 C   0  0  0  0  0  0  0  0  0  0  0  0
  -12.1247  -37.9828  -22.6815 N   0  0  0  0  0  0  0  0  0  0  0  0
  -13.3580  -38.4372  -22.7238 C   0  0  0  0  0  0  0  0  0  0  0  0
  -16.4102  -39.9421  -22.9937 C   0  0  0  0  0  0  0  0  0  0  0  0
  -16.8943  -39.5348  -23.9701 O   0  0  0  0  0  0  0  0  0  0  0  0
  -15.7916  -41.3166  -22.6856 N   0  0  0  0  0  0  0  0  0  0  0  0
  -15.5482  -42.4685  -23.5587 C   0  0  2  0  0  0  0  0  0  0  0  0
  -16.3791  -42.4393  -24.8589 C   0  0  0  0  0  0  0  0  0  0  0  0
  -15.9344  -41.4262  -25.7493 O   0  0  0  0  0  0  0  0  0  0  0  0
  -15.8274  -43.8002  -22.8240 C   0  0  0  0  0  0  0  0  0  0  0  0
  -15.2233  -43.9873  -21.4560 C   0  0  0  0  0  0  0  0  0  0  0  0
  -13.9963  -43.4433  -21.0749 C   0  0  0  0  0  0  0  0  0  0  0  0
  -13.5393  -43.6060  -19.7722 C   0  0  0  0  0  0  0  0  0  0  0  0
  -14.3064  -44.3549  -18.9003 C   0  0  0  0  0  0  0  0  0  0  0  0
  -15.4521  -44.9757  -19.2486 N   0  0  0  0  0  0  0  0  0  0  0  0
  -15.8851  -44.7707  -20.5125 C   0  0  0  0  0  0  0  0  0  0  0  0
  1  2  2  0
  2  3  1  0
  3  4  1  0
  4  5  1  0
  5  6  2  0
  6  7  1  0
  7  8  2  0
  2  9  1  0
  9 10  2  0
  9 11  1  0
 11 12  1  0
 12 13  1  6
 13 14  1  0
 12 15  1  0
 15 16  1  0
 16 17  2  0
 17 18  1  0
 18 19  2  0
 19 20  1  0
 20 21  2  0
  8  4  1  0
 21 16  1  0
M  END
>  <id>  (30) 
63089

>  <inchikey>  (30) 
RVTMFWDQLFZZMH-AWEZNQCLSA-N

>  <alias>  (30) 
None

>  <smiles>  (30) 
C=C(Cn1ccnc1)C(=O)N[C@H](CO)Cc1cccnc1

>  <path>  (30) 
/opt/xchem-fragalysis-2/maxwin/BulkDock/SCRATCH/217041/C9237-P42/C9237-P42.minimised.mol

>  <distance_score>  (30) 
0.776264

>  <energy_score>  (30) 
-191.449485

>  <compound>  (30) 
RVTMFWDQLFZZMH-UHFFFAOYSA-N

>  <compound_id>  (30) 
9237

>  <target>  (30) 
Flavi_NS5_RdRp

>  <tags>  (30) 
['Fragmenstein placed', 'iter1 scaffolds', 'Knitwork impure merge', 'Enamine_unavailable', 'AC curated YES', 'Green Site/RNA tunnel merge']

>  <inspirations>  (30) 
{P Ã— 2}

>  <subsites>  (30) 
None

>  <reference>  (30) 
d0472a

>  <SLURM_JOB_ID>  (30) 
220470

>  <SLURM_JOB_NAME>  (30) 
BulkDock.place:Flavi_NS5_RdRp:RdRp_knitwork_green_site_rna_tunnel_impure_split4000_batch019

>  <csv_name>  (30) 
RdRp_knitwork_green_site_rna_tunnel_impure_split4000_batch019.csv

>  <scratch_subdir>  (30) 
/opt/xchem-fragalysis-2/maxwin/BulkDock/SCRATCH/220470/C63089-P141

>  <fragmenstein_runtime>  (30) 
6.741412

>  <fragmenstein_outcome>  (30) 
too moved

>  <fragmenstein_mode>  (30) 
expansion

>  <fragmenstein_error>  (30) 


>  <exports>  (30) 
/opt/xchem-fragalysis-2/maxwin/RdRp_FFF/curation/Curated_AC.sdf

>  <Multi-SuCOS>  (30) 
nan

>  <merge_set>  (30) 
nan

$$$$
FJIZSRBICNYNGK-UHFFFAOYSA-N
     RDKit          3D

 14 15  0  0  0  0  0  0  0  0999 V2000
  -16.3978  -46.4739  -21.0360 N   0  0  0  0  0  0  0  0  0  0  0  0
  -15.8545  -45.3369  -20.4469 C   0  0  0  0  0  0  0  0  0  0  0  0
  -15.9081  -44.1101  -21.0950 C   0  0  0  0  0  0  0  0  0  0  0  0
  -15.4613  -42.9733  -20.4261 C   0  0  0  0  0  0  0  0  0  0  0  0
  -15.5572  -41.7021  -21.0300 N   0  0  0  0  0  0  0  0  0  0  0  0
  -14.4667  -41.4244  -21.9887 C   0  0  0  0  0  0  0  0  0  0  0  0
  -13.1515  -41.0405  -21.3702 C   0  0  0  0  0  0  0  0  0  0  0  0
  -12.3035  -41.8411  -20.6387 C   0  0  0  0  0  0  0  0  0  0  0  0
  -11.2821  -41.0375  -20.2293 N   0  0  0  0  0  0  0  0  0  0  0  0
  -11.5216  -39.7942  -20.7408 C   0  0  0  0  0  0  0  0  0  0  0  0
  -12.6318  -39.7637  -21.4462 N   0  0  0  0  0  0  0  0  0  0  0  0
  -14.8998  -43.1309  -19.1618 C   0  0  0  0  0  0  0  0  0  0  0  0
  -14.8222  -44.4040  -18.6269 C   0  0  0  0  0  0  0  0  0  0  0  0
  -15.2815  -45.5113  -19.2436 N   0  0  0  0  0  0  0  0  0  0  0  0
  1  2  1  0
  2  3  2  0
  3  4  1  0
  4  5  1  0
  5  6  1  0
  6  7  1  0
  7  8  2  0
  8  9  1  0
  9 10  1  0
 10 11  2  0
  4 12  2  0
 12 13  1  0
 13 14  2  0
 14  2  1  0
 11  7  1  0
M  END
>  <id>  (31) 
69503

>  <inchikey>  (31) 
FJIZSRBICNYNGK-UHFFFAOYSA-N

>  <alias>  (31) 
None

>  <smiles>  (31) 
Nc1cc(NCc2c[nH]cn2)ccn1

>  <path>  (31) 
/opt/xchem-fragalysis-2/maxwin/BulkDock/SCRATCH/217040/C12483-P42/C12483-P42.minimised.mol

>  <distance_score>  (31) 
0.992544

>  <energy_score>  (31) 
-17.539288

>  <compound>  (31) 
FJIZSRBICNYNGK-UHFFFAOYSA-N

>  <compound_id>  (31) 
12483

>  <target>  (31) 
Flavi_NS5_RdRp

>  <tags>  (31) 
['Fragmenstein placed', 'Enamine_Quote_1977854', 'Knitwork pure merge', 'iter1 scaffolds', 'AC curated INTERESTING', 'Enamine_Quote_1970815', 'acceptable', 'DF curated YES', 'Primer grip/N-pocket merge']

>  <inspirations>  (31) 
{P Ã— 2}

>  <subsites>  (31) 
None

>  <reference>  (31) 
d0472a

>  <SLURM_JOB_ID>  (31) 
217040

>  <SLURM_JOB_NAME>  (31) 
BulkDock.place:Flavi_NS5_RdRp:RdRp_knitwork_primer_grip_n_pocket_pure_split1800_batch006

>  <csv_name>  (31) 
RdRp_knitwork_primer_grip_n_pocket_pure_split1800_batch006.csv

>  <scratch_subdir>  (31) 
/opt/xchem-fragalysis-2/maxwin/BulkDock/SCRATCH/217040/C12483-P42

>  <fragmenstein_runtime>  (31) 
1.807809

>  <fragmenstein_outcome>  (31) 
acceptable

>  <fragmenstein_mode>  (31) 
expansion

>  <fragmenstein_error>  (31) 


>  <exports>  (31) 
/opt/xchem-fragalysis-2/maxwin/BulkDock/OUTPUTS/RdRp_knitwork_primer_grip_n_pocket_pure_split1800_batch006_217040.sdf;/opt/xchem-fragalysis-2/maxwin/BulkDock/OUTPUTS/RdRp_knitwork_primer_grip_n_pocket_pure_fragalysis.sdf;/opt/xchem-fragalysis-2/maxwin/RdRp_FFF/curation/Curated_DF.sdf;/opt/xchem-fragalysis-2/maxwin/RdRp_FFF/curation/Curated_AC.sdf;/opt/xchem-fragalysis-2/maxwin/RdRp_FFF/quotes/combined_jan2025_ordered.sdf

>  <Multi-SuCOS>  (31) 
nan

>  <merge_set>  (31) 
nan

$$$$
DJVQSQXCKGQNJE-UHFFFAOYSA-N
     RDKit          3D

 14 15  0  0  0  0  0  0  0  0999 V2000
  -16.2378  -43.8993  -22.7721 C   0  0  0  0  0  0  0  0  0  0  0  0
  -15.7749  -44.0430  -21.3554 C   0  0  0  0  0  0  0  0  0  0  0  0
  -15.6875  -45.3164  -20.7945 C   0  0  0  0  0  0  0  0  0  0  0  0
  -15.2518  -45.5909  -19.5423 N   0  0  0  0  0  0  0  0  0  0  0  0
  -14.9008  -44.5233  -18.8014 C   0  0  0  0  0  0  0  0  0  0  0  0
  -14.9674  -43.2141  -19.2505 C   0  0  0  0  0  0  0  0  0  0  0  0
  -15.4165  -42.9565  -20.5506 C   0  0  0  0  0  0  0  0  0  0  0  0
  -15.4956  -41.6251  -21.0125 N   0  0  0  0  0  0  0  0  0  0  0  0
  -14.4198  -41.2328  -21.9463 C   0  0  0  0  0  0  0  0  0  0  0  0
  -13.0910  -40.9331  -21.3184 C   0  0  0  0  0  0  0  0  0  0  0  0
  -12.2832  -41.7915  -20.6074 C   0  0  0  0  0  0  0  0  0  0  0  0
  -11.2191  -41.0488  -20.1908 N   0  0  0  0  0  0  0  0  0  0  0  0
  -11.3952  -39.7858  -20.6790 C   0  0  0  0  0  0  0  0  0  0  0  0
  -12.5043  -39.6855  -21.3790 N   0  0  0  0  0  0  0  0  0  0  0  0
  1  2  1  0
  2  3  2  0
  3  4  1  0
  4  5  2  0
  5  6  1  0
  6  7  2  0
  7  8  1  0
  8  9  1  0
  9 10  1  0
 10 11  2  0
 11 12  1  0
 12 13  1  0
 13 14  2  0
  7  2  1  0
 14 10  1  0
M  END
>  <id>  (32) 
69511

>  <inchikey>  (32) 
DJVQSQXCKGQNJE-UHFFFAOYSA-N

>  <alias>  (32) 
None

>  <smiles>  (32) 
Cc1cnccc1NCc1c[nH]cn1

>  <path>  (32) 
/opt/xchem-fragalysis-2/maxwin/BulkDock/SCRATCH/217040/C12548-P42/C12548-P42.minimised.mol

>  <distance_score>  (32) 
0.997294

>  <energy_score>  (32) 
-27.523897

>  <compound>  (32) 
DJVQSQXCKGQNJE-UHFFFAOYSA-N

>  <compound_id>  (32) 
12548

>  <target>  (32) 
Flavi_NS5_RdRp

>  <tags>  (32) 
['Fragmenstein placed', 'Knitwork pure merge', 'iter1 scaffolds', 'Enamine_Quote_1970815', 'acceptable', 'best elaborated iter1 scaffold poses', 'DF curated YES', 'Primer grip/N-pocket merge']

>  <inspirations>  (32) 
{P Ã— 2}

>  <subsites>  (32) 
[[1m[4m"Primer grip/N-pocket"[22m[24m]

>  <reference>  (32) 
d0472a

>  <SLURM_JOB_ID>  (32) 
217040

>  <SLURM_JOB_NAME>  (32) 
BulkDock.place:Flavi_NS5_RdRp:RdRp_knitwork_primer_grip_n_pocket_pure_split1800_batch006

>  <csv_name>  (32) 
RdRp_knitwork_primer_grip_n_pocket_pure_split1800_batch006.csv

>  <scratch_subdir>  (32) 
/opt/xchem-fragalysis-2/maxwin/BulkDock/SCRATCH/217040/C12548-P42

>  <fragmenstein_runtime>  (32) 
1.837259

>  <fragmenstein_outcome>  (32) 
acceptable

>  <fragmenstein_mode>  (32) 
expansion

>  <fragmenstein_error>  (32) 


>  <exports>  (32) 
/opt/xchem-fragalysis-2/maxwin/BulkDock/OUTPUTS/RdRp_knitwork_primer_grip_n_pocket_pure_split1800_batch006_217040.sdf;/opt/xchem-fragalysis-2/maxwin/BulkDock/OUTPUTS/RdRp_knitwork_primer_grip_n_pocket_pure_fragalysis.sdf;/opt/xchem-fragalysis-2/maxwin/RdRp_FFF/curation/Curated_DF.sdf;/opt/xchem-fragalysis-2/maxwin/RdRp_FFF/quotes/combined_jan2025_ordered.sdf;/opt/xchem-fragalysis-2/maxwin/RdRp_FFF/hippo/iter1_elaborated_scaffold_poses.sdf

>  <Multi-SuCOS>  (32) 
nan

>  <merge_set>  (32) 
nan

$$$$
NMMXOIPTLDWKIW-CYBMUJFWSA-N
     RDKit          3D

 22 23  0  0  0  0  0  0  0  0999 V2000
  -17.3818  -44.8147  -22.9617 C   0  0  0  0  0  0  0  0  0  0  0  0
  -15.9952  -44.8403  -23.3262 O   0  0  0  0  0  0  0  0  0  0  0  0
  -15.4648  -43.9755  -24.2275 C   0  0  0  0  0  0  0  0  0  0  0  0
  -14.2738  -43.6758  -24.1885 O   0  0  0  0  0  0  0  0  0  0  0  0
  -16.3647  -43.4660  -25.3274 C   0  0  0  0  0  0  0  0  0  0  0  0
  -16.8289  -42.0281  -25.2053 C   0  0  0  0  0  0  0  0  0  0  0  0
  -15.7667  -41.0983  -24.7587 N   0  0  0  0  0  0  0  0  0  0  0  0
  -15.4549  -39.9871  -25.6993 C   0  0  0  0  0  0  0  0  0  0  0  0
  -16.5618  -38.9832  -25.8841 C   0  0  0  0  0  0  0  0  0  0  0  0
  -16.7498  -37.9361  -24.9846 C   0  0  0  0  0  0  0  0  0  0  0  0
  -17.8650  -37.1201  -25.0761 C   0  0  0  0  0  0  0  0  0  0  0  0
  -18.7561  -37.3570  -26.0983 C   0  0  0  0  0  0  0  0  0  0  0  0
  -18.5888  -38.3053  -27.0404 N   0  0  0  0  0  0  0  0  0  0  0  0
  -17.4856  -39.0861  -26.9168 C   0  0  0  0  0  0  0  0  0  0  0  0
  -15.7116  -40.8424  -23.0788 S   0  0  0  0  0  0  0  0  0  0  0  0
  -16.1092  -42.0936  -22.4684 O   0  0  0  0  0  0  0  0  0  0  0  0
  -16.4904  -39.6690  -22.7631 O   0  0  0  0  0  0  0  0  0  0  0  0
  -13.9799  -40.5668  -22.7337 C   0  0  2  0  0  0  0  0  0  0  0  0
  -13.5238  -41.2244  -21.4482 C   0  0  0  0  0  0  0  0  0  0  0  0
  -13.8864  -40.1862  -20.4115 C   0  0  0  0  0  0  0  0  0  0  0  0
  -13.6714  -38.9151  -21.0408 O   0  0  0  0  0  0  0  0  0  0  0  0
  -13.6616  -39.1146  -22.4635 C   0  0  0  0  0  0  0  0  0  0  0  0
  1  2  1  0
  2  3  1  0
  3  4  2  0
  3  5  1  0
  5  6  1  0
  6  7  1  0
  7  8  1  0
  8  9  1  0
  9 10  2  0
 10 11  1  0
 11 12  2  0
 12 13  1  0
 13 14  2  0
  7 15  1  0
 15 16  2  0
 15 17  2  0
 18 15  1  1
 18 19  1  0
 19 20  1  0
 20 21  1  0
 21 22  1  0
 14  9  1  0
 22 18  1  0
M  END
>  <id>  (33) 
72746

>  <inchikey>  (33) 
NMMXOIPTLDWKIW-CYBMUJFWSA-N

>  <alias>  (33) 
None

>  <smiles>  (33) 
COC(=O)CCN(Cc1cccnc1)S(=O)(=O)[C@@H]1CCOC1

>  <path>  (33) 
/opt/xchem-fragalysis-2/maxwin/BulkDock/SCRATCH/217035/C10412-P19/C10412-P19.minimised.mol

>  <distance_score>  (33) 
0.944481

>  <energy_score>  (33) 
-39.252512

>  <compound>  (33) 
NMMXOIPTLDWKIW-UHFFFAOYSA-N

>  <compound_id>  (33) 
10412

>  <target>  (33) 
Flavi_NS5_RdRp

>  <tags>  (33) 
['Fragmenstein placed', 'Knitwork pure merge', 'iter1 scaffolds', 'AC curated INTERESTING', 'AC curated YES', 'Enamine_Quote_1970815', 'acceptable', 'Primer grip/N-pocket merge']

>  <inspirations>  (33) 
{P Ã— 2}

>  <subsites>  (33) 
None

>  <reference>  (33) 
d0191a

>  <SLURM_JOB_ID>  (33) 
217035

>  <SLURM_JOB_NAME>  (33) 
BulkDock.place:Flavi_NS5_RdRp:RdRp_knitwork_primer_grip_n_pocket_pure_split1800_batch001

>  <csv_name>  (33) 
RdRp_knitwork_primer_grip_n_pocket_pure_split1800_batch001.csv

>  <scratch_subdir>  (33) 
/opt/xchem-fragalysis-2/maxwin/BulkDock/SCRATCH/217035/C10412-P19

>  <fragmenstein_runtime>  (33) 
9.805182

>  <fragmenstein_outcome>  (33) 
acceptable

>  <fragmenstein_mode>  (33) 
expansion

>  <fragmenstein_error>  (33) 


>  <exports>  (33) 
/opt/xchem-fragalysis-2/maxwin/BulkDock/OUTPUTS/RdRp_knitwork_primer_grip_n_pocket_pure_split1800_batch001_217035.sdf;/opt/xchem-fragalysis-2/maxwin/BulkDock/OUTPUTS/RdRp_knitwork_primer_grip_n_pocket_pure_fragalysis.sdf;/opt/xchem-fragalysis-2/maxwin/RdRp_FFF/curation/Curated_AC.sdf;/opt/xchem-fragalysis-2/maxwin/RdRp_FFF/quotes/combined_jan2025_ordered.sdf

>  <Multi-SuCOS>  (33) 
nan

>  <merge_set>  (33) 
nan

$$$$
HGMRINZTTPAZBD-LBPRGKRZSA-N
     RDKit          3D

 23 24  0  0  0  0  0  0  0  0999 V2000
  -23.9826  -43.9045  -19.6309 C   0  0  0  0  0  0  0  0  0  0  0  0
  -24.3706  -44.0818  -18.1663 C   0  0  0  0  0  0  0  0  0  0  0  0
  -25.8426  -43.6855  -18.0194 C   0  0  0  0  0  0  0  0  0  0  0  0
  -24.1411  -45.5380  -17.6955 C   0  0  0  0  0  0  0  0  0  0  0  0
  -22.8885  -45.7376  -16.8178 C   0  0  2  0  0  0  0  0  0  0  0  0
  -21.6750  -45.5796  -17.6281 N   0  0  0  0  0  0  0  0  0  0  0  0
  -20.9479  -44.3126  -18.0980 C   0  0  0  0  0  0  0  0  0  0  0  0
  -21.1500  -43.1929  -17.8545 O   0  0  0  0  0  0  0  0  0  0  0  0
  -19.9059  -44.6623  -19.0394 C   0  0  0  0  0  0  0  0  0  0  0  0
  -19.8585  -44.4015  -20.3910 C   0  0  0  0  0  0  0  0  0  0  0  0
  -18.6407  -44.6351  -20.9988 N   0  0  0  0  0  0  0  0  0  0  0  0
  -17.7432  -44.9339  -20.0720 C   0  0  0  0  0  0  0  0  0  0  0  0
  -16.2836  -44.7434  -20.2346 C   0  0  0  0  0  0  0  0  0  0  0  0
  -15.7667  -44.2880  -21.4478 C   0  0  0  0  0  0  0  0  0  0  0  0
  -14.4469  -43.8444  -21.4988 C   0  0  0  0  0  0  0  0  0  0  0  0
  -13.6837  -43.8470  -20.3402 C   0  0  0  0  0  0  0  0  0  0  0  0
  -14.2565  -44.3449  -19.1863 C   0  0  0  0  0  0  0  0  0  0  0  0
  -15.5176  -44.8251  -19.1130 N   0  0  0  0  0  0  0  0  0  0  0  0
  -18.4308  -45.3517  -18.5349 S   0  0  0  0  0  0  0  0  0  0  0  0
  -22.9578  -47.0917  -16.0877 C   0  0  0  0  0  0  0  0  0  0  0  0
  -22.0617  -47.1432  -15.0856 F   0  0  0  0  0  0  0  0  0  0  0  0
  -22.7054  -48.1178  -16.9342 F   0  0  0  0  0  0  0  0  0  0  0  0
  -24.1719  -47.3163  -15.5357 F   0  0  0  0  0  0  0  0  0  0  0  0
  1  2  1  0
  2  3  1  0
  2  4  1  0
  5  4  1  6
  5  6  1  0
  6  7  1  0
  7  8  2  0
  7  9  1  0
  9 10  2  0
 10 11  1  0
 11 12  2  0
 12 13  1  0
 13 14  2  0
 14 15  1  0
 15 16  2  0
 16 17  1  0
 17 18  2  0
 12 19  1  0
  5 20  1  0
 20 21  1  0
 20 22  1  0
 20 23  1  0
 19  9  1  0
 18 13  1  0
M  END
>  <id>  (34) 
73409

>  <inchikey>  (34) 
HGMRINZTTPAZBD-LBPRGKRZSA-N

>  <alias>  (34) 
None

>  <smiles>  (34) 
CC(C)C[C@H](NC(=O)c1cnc(-c2ccccn2)s1)C(F)(F)F

>  <path>  (34) 
/opt/xchem-fragalysis-2/maxwin/BulkDock/SCRATCH/217037/C13884-P42/C13884-P42.minimised.mol

>  <distance_score>  (34) 
0.941505

>  <energy_score>  (34) 
-40.513359

>  <compound>  (34) 
HGMRINZTTPAZBD-UHFFFAOYSA-N

>  <compound_id>  (34) 
13884

>  <target>  (34) 
Flavi_NS5_RdRp

>  <tags>  (34) 
['Fragmenstein placed', 'Enamine_Quote_1977854', 'Knitwork pure merge', 'iter1 scaffolds', 'Enamine_Quote_1970815', 'acceptable', 'best elaborated iter1 scaffold poses', 'DF curated YES', 'Primer grip/N-pocket merge']

>  <inspirations>  (34) 
{P Ã— 2}

>  <subsites>  (34) 
[[1m[4m"Primer grip/N-pocket"[22m[24m]

>  <reference>  (34) 
d0472a

>  <SLURM_JOB_ID>  (34) 
217037

>  <SLURM_JOB_NAME>  (34) 
BulkDock.place:Flavi_NS5_RdRp:RdRp_knitwork_primer_grip_n_pocket_pure_split1800_batch003

>  <csv_name>  (34) 
RdRp_knitwork_primer_grip_n_pocket_pure_split1800_batch003.csv

>  <scratch_subdir>  (34) 
/opt/xchem-fragalysis-2/maxwin/BulkDock/SCRATCH/217037/C13884-P42

>  <fragmenstein_runtime>  (34) 
12.097528

>  <fragmenstein_outcome>  (34) 
acceptable

>  <fragmenstein_mode>  (34) 
expansion

>  <fragmenstein_error>  (34) 


>  <exports>  (34) 
/opt/xchem-fragalysis-2/maxwin/BulkDock/OUTPUTS/RdRp_knitwork_primer_grip_n_pocket_pure_split1800_batch003_217037.sdf;/opt/xchem-fragalysis-2/maxwin/BulkDock/OUTPUTS/RdRp_knitwork_primer_grip_n_pocket_pure_fragalysis.sdf;/opt/xchem-fragalysis-2/maxwin/RdRp_FFF/curation/Curated_DF.sdf;/opt/xchem-fragalysis-2/maxwin/RdRp_FFF/quotes/combined_jan2025_ordered.sdf;/opt/xchem-fragalysis-2/maxwin/RdRp_FFF/hippo/iter1_elaborated_scaffold_poses.sdf

>  <Multi-SuCOS>  (34) 
nan

>  <merge_set>  (34) 
nan

$$$$
ZVRPUUGSQSVKAM-UHFFFAOYSA-N
     RDKit          3D

 23 26  0  0  0  0  0  0  0  0999 V2000
  -26.6232  -31.7978  -21.9657 O   0  0  0  0  0  0  0  0  0  0  0  0
  -25.6147  -31.5824  -21.4765 C   0  0  0  0  0  0  0  0  0  0  0  0
  -24.1853  -31.9527  -21.9299 N   0  0  0  0  0  0  0  0  0  0  0  0
  -23.7382  -32.7477  -23.0358 C   0  0  0  0  0  0  0  0  0  0  0  0
  -22.8026  -33.7281  -22.4138 C   0  0  0  0  0  0  0  0  0  0  0  0
  -23.0028  -35.0778  -22.1996 C   0  0  0  0  0  0  0  0  0  0  0  0
  -22.0063  -35.6026  -21.4389 O   0  0  0  0  0  0  0  0  0  0  0  0
  -21.1397  -34.5901  -21.1579 C   0  0  0  0  0  0  0  0  0  0  0  0
  -20.0025  -34.6865  -20.3579 C   0  0  0  0  0  0  0  0  0  0  0  0
  -19.2665  -33.5127  -20.1664 C   0  0  0  0  0  0  0  0  0  0  0  0
  -19.6614  -32.3112  -20.7569 C   0  0  0  0  0  0  0  0  0  0  0  0
  -20.7991  -32.2493  -21.5716 C   0  0  0  0  0  0  0  0  0  0  0  0
  -21.5603  -33.4180  -21.7684 C   0  0  0  0  0  0  0  0  0  0  0  0
  -25.2814  -30.9199  -20.1061 N   0  0  0  0  0  0  0  0  0  0  0  0
  -26.1202  -30.5021  -19.0824 C   0  0  0  0  0  0  0  0  0  0  0  0
  -25.5133  -30.2007  -17.8527 C   0  0  0  0  0  0  0  0  0  0  0  0
  -26.2665  -29.8221  -16.7477 C   0  0  0  0  0  0  0  0  0  0  0  0
  -27.6553  -29.7196  -16.8441 C   0  0  0  0  0  0  0  0  0  0  0  0
  -28.2871  -29.9884  -18.0742 C   0  0  0  0  0  0  0  0  0  0  0  0
  -29.6402  -29.9665  -18.5046 C   0  0  0  0  0  0  0  0  0  0  0  0
  -29.6650  -30.3070  -19.8366 C   0  0  0  0  0  0  0  0  0  0  0  0
  -28.3777  -30.5631  -20.2241 N   0  0  0  0  0  0  0  0  0  0  0  0
  -27.5101  -30.3752  -19.1698 C   0  0  0  0  0  0  0  0  0  0  0  0
  1  2  2  0
  2  3  1  0
  3  4  1  0
  4  5  1  0
  5  6  2  0
  6  7  1  0
  7  8  1  0
  8  9  2  0
  9 10  1  0
 10 11  2  0
 11 12  1  0
 12 13  2  0
  2 14  1  0
 14 15  1  0
 15 16  2  0
 16 17  1  0
 17 18  2  0
 18 19  1  0
 19 20  1  0
 20 21  2  0
 21 22  1  0
 22 23  1  0
 13  5  1  0
 23 15  1  0
 13  8  1  0
 23 19  2  0
M  END
>  <id>  (35) 
87722

>  <inchikey>  (35) 
ZVRPUUGSQSVKAM-UHFFFAOYSA-N

>  <alias>  (35) 
None

>  <smiles>  (35) 
O=C(NCc1coc2ccccc12)Nc1cccc2cc[nH]c12

>  <path>  (35) 
/opt/xchem-fragalysis-2/maxwin/BulkDock/SCRATCH/217986/C33774-P86/C33774-P86.minimised.mol

>  <distance_score>  (35) 
0.652149

>  <energy_score>  (35) 
-30.280971

>  <compound>  (35) 
ZVRPUUGSQSVKAM-UHFFFAOYSA-N

>  <compound_id>  (35) 
33774

>  <target>  (35) 
Flavi_NS5_RdRp

>  <tags>  (35) 
['Fragmenstein placed', 'Knitwork impure merge', 'Green Site/RNA tunnel merge']

>  <inspirations>  (35) 
{P Ã— 2}

>  <subsites>  (35) 
None

>  <reference>  (35) 
z0107a

>  <SLURM_JOB_ID>  (35) 
217986

>  <SLURM_JOB_NAME>  (35) 
BulkDock.place:Flavi_NS5_RdRp:RdRp_knitwork_green_site_rna_tunnel_impure_split4000_batch018

>  <csv_name>  (35) 
RdRp_knitwork_green_site_rna_tunnel_impure_split4000_batch018.csv

>  <scratch_subdir>  (35) 
/opt/xchem-fragalysis-2/maxwin/BulkDock/SCRATCH/217986/C33774-P86

>  <fragmenstein_runtime>  (35) 
3.929314

>  <fragmenstein_outcome>  (35) 
acceptable

>  <fragmenstein_mode>  (35) 
expansion

>  <fragmenstein_error>  (35) 


>  <exports>  (35) 
/opt/xchem-fragalysis-2/maxwin/BulkDock/OUTPUTS/RdRp_knitwork_green_site_rna_tunnel_impure_rescued.sdf

>  <Multi-SuCOS>  (35) 
nan

>  <merge_set>  (35) 
nan

$$$$
IMMHZJLASOVDCS-UHFFFAOYSA-N
     RDKit          3D

 20 22  0  0  0  0  0  0  0  0999 V2000
  -29.4981  -31.2578  -14.5138 C   0  0  0  0  0  0  0  0  0  0  0  0
  -28.8779  -30.7480  -15.7888 C   0  0  0  0  0  0  0  0  0  0  0  0
  -29.7400  -30.2307  -16.7597 C   0  0  0  0  0  0  0  0  0  0  0  0
  -29.2500  -29.7928  -17.9749 C   0  0  0  0  0  0  0  0  0  0  0  0
  -27.8834  -29.8516  -18.2255 C   0  0  0  0  0  0  0  0  0  0  0  0
  -27.5182  -29.5171  -19.5286 N   0  0  0  0  0  0  0  0  0  0  0  0
  -26.3816  -30.0451  -20.4113 C   0  0  0  0  0  0  0  0  0  0  0  0
  -25.6135  -30.8988  -20.2223 O   0  0  0  0  0  0  0  0  0  0  0  0
  -26.3150  -29.3042  -21.6831 C   0  0  0  0  0  0  0  0  0  0  0  0
  -26.6062  -29.9999  -22.8510 C   0  0  0  0  0  0  0  0  0  0  0  0
  -26.2942  -29.3966  -24.0509 C   0  0  0  0  0  0  0  0  0  0  0  0
  -25.7344  -28.1727  -24.1259 N   0  0  0  0  0  0  0  0  0  0  0  0
  -25.4591  -27.5256  -22.9701 C   0  0  0  0  0  0  0  0  0  0  0  0
  -25.7474  -28.0353  -21.7207 C   0  0  0  0  0  0  0  0  0  0  0  0
  -26.9745  -30.2824  -17.2135 C   0  0  0  0  0  0  0  0  0  0  0  0
  -25.5629  -30.2321  -17.3075 C   0  0  0  0  0  0  0  0  0  0  0  0
  -24.7500  -30.6702  -16.2696 C   0  0  0  0  0  0  0  0  0  0  0  0
  -25.3642  -31.1361  -15.1327 C   0  0  0  0  0  0  0  0  0  0  0  0
  -26.7008  -31.1652  -14.9699 N   0  0  0  0  0  0  0  0  0  0  0  0
  -27.4939  -30.7439  -15.9791 C   0  0  0  0  0  0  0  0  0  0  0  0
  1  2  1  0
  2  3  2  0
  3  4  1  0
  4  5  2  0
  5  6  1  0
  6  7  1  0
  7  8  2  0
  7  9  1  0
  9 10  2  0
 10 11  1  0
 11 12  2  0
 12 13  1  0
 13 14  2  0
  5 15  1  0
 15 16  2  0
 16 17  1  0
 17 18  2  0
 18 19  1  0
 19 20  2  0
 20  2  1  0
 14  9  1  0
 20 15  1  0
M  END
>  <id>  (36) 
94360

>  <inchikey>  (36) 
IMMHZJLASOVDCS-UHFFFAOYSA-N

>  <alias>  (36) 
None

>  <smiles>  (36) 
Cc1ccc(NC(=O)c2ccncc2)c2cccnc12

>  <path>  (36) 
/opt/xchem-fragalysis-2/maxwin/BulkDock/SCRATCH/217074/C28013-P105/C28013-P105.minimised.mol

>  <distance_score>  (36) 
0.788972

>  <energy_score>  (36) 
-18.848466

>  <compound>  (36) 
ASAP-0037691

>  <compound_id>  (36) 
28013

>  <target>  (36) 
Flavi_NS5_RdRp

>  <tags>  (36) 
['Fragmenstein placed', 'Knitwork pure merge', 'iter1 scaffolds', 'Green Site/RNA tunnel merge', 'Enamine_Order_1968912', 'JA curated YES', 'acceptable']

>  <inspirations>  (36) 
{P Ã— 2}

>  <subsites>  (36) 
None

>  <reference>  (36) 
z0221a

>  <SLURM_JOB_ID>  (36) 
217074

>  <SLURM_JOB_NAME>  (36) 
BulkDock.place:Flavi_NS5_RdRp:RdRp_knitwork_green_site_rna_tunnel_pure_split4000_batch003

>  <csv_name>  (36) 
RdRp_knitwork_green_site_rna_tunnel_pure_split4000_batch003.csv

>  <scratch_subdir>  (36) 
/opt/xchem-fragalysis-2/maxwin/BulkDock/SCRATCH/217074/C28013-P105

>  <fragmenstein_runtime>  (36) 
3.831657

>  <fragmenstein_outcome>  (36) 
acceptable

>  <fragmenstein_mode>  (36) 
expansion

>  <fragmenstein_error>  (36) 


>  <exports>  (36) 
/opt/xchem-fragalysis-2/maxwin/BulkDock/OUTPUTS/RdRp_knitwork_green_site_rna_tunnel_pure_split4000_batch003_217074.sdf;/opt/xchem-fragalysis-2/maxwin/BulkDock/OUTPUTS/RdRp_knitwork_green_site_rna_tunnel_pure_fragalysis.sdf;/opt/xchem-fragalysis-2/maxwin/RdRp_FFF/quotes/JA_curated_and_manual_ordered.sdf;/opt/xchem-fragalysis-2/maxwin/RdRp_FFF/quotes/combined_jan2025_ordered.sdf

>  <Multi-SuCOS>  (36) 
nan

>  <merge_set>  (36) 
nan

$$$$
YAOSTISNIUSXMX-UHFFFAOYSA-N
     RDKit          3D

 20 22  0  0  0  0  0  0  0  0999 V2000
  -25.6059  -30.8882  -20.2103 O   0  0  0  0  0  0  0  0  0  0  0  0
  -26.3699  -30.0305  -20.3965 C   0  0  0  0  0  0  0  0  0  0  0  0
  -27.4386  -29.4329  -19.4734 N   0  0  0  0  0  0  0  0  0  0  0  0
  -27.8474  -29.8130  -18.1966 C   0  0  0  0  0  0  0  0  0  0  0  0
  -29.2191  -29.7539  -17.9717 C   0  0  0  0  0  0  0  0  0  0  0  0
  -29.7301  -30.2057  -16.7702 C   0  0  0  0  0  0  0  0  0  0  0  0
  -28.8758  -30.7251  -15.8005 C   0  0  0  0  0  0  0  0  0  0  0  0
  -29.6300  -31.3315  -14.3587 Cl  0  0  0  0  0  0  0  0  0  0  0  0
  -27.4872  -30.7635  -15.9648 C   0  0  0  0  0  0  0  0  0  0  0  0
  -26.6962  -31.2297  -14.9663 N   0  0  0  0  0  0  0  0  0  0  0  0
  -25.3599  -31.2244  -15.1270 C   0  0  0  0  0  0  0  0  0  0  0  0
  -24.7378  -30.7399  -16.2512 C   0  0  0  0  0  0  0  0  0  0  0  0
  -25.5420  -30.2589  -17.2770 C   0  0  0  0  0  0  0  0  0  0  0  0
  -26.9545  -30.2842  -17.1853 C   0  0  0  0  0  0  0  0  0  0  0  0
  -26.3158  -29.3044  -21.6786 C   0  0  0  0  0  0  0  0  0  0  0  0
  -26.6133  -30.0108  -22.8384 C   0  0  0  0  0  0  0  0  0  0  0  0
  -26.3072  -29.4180  -24.0456 C   0  0  0  0  0  0  0  0  0  0  0  0
  -25.7465  -28.1954  -24.1357 N   0  0  0  0  0  0  0  0  0  0  0  0
  -25.4614  -27.5390  -22.9883 C   0  0  0  0  0  0  0  0  0  0  0  0
  -25.7449  -28.0365  -21.7329 C   0  0  0  0  0  0  0  0  0  0  0  0
  1  2  2  0
  2  3  1  0
  3  4  1  0
  4  5  2  0
  5  6  1  0
  6  7  2  0
  7  8  1  0
  7  9  1  0
  9 10  2  0
 10 11  1  0
 11 12  2  0
 12 13  1  0
 13 14  2  0
  2 15  1  0
 15 16  2  0
 16 17  1  0
 17 18  2  0
 18 19  1  0
 19 20  2  0
 14  4  1  0
 20 15  1  0
 14  9  1  0
M  END
>  <id>  (37) 
94375

>  <inchikey>  (37) 
YAOSTISNIUSXMX-UHFFFAOYSA-N

>  <alias>  (37) 
None

>  <smiles>  (37) 
O=C(Nc1ccc(Cl)c2ncccc12)c1ccncc1

>  <path>  (37) 
/opt/xchem-fragalysis-2/maxwin/BulkDock/SCRATCH/217074/C29639-P105/C29639-P105.minimised.mol

>  <distance_score>  (37) 
0.805216

>  <energy_score>  (37) 
-10.708304

>  <compound>  (37) 
ASAP-0037733

>  <compound_id>  (37) 
29639

>  <target>  (37) 
Flavi_NS5_RdRp

>  <tags>  (37) 
['Fragmenstein placed', 'Knitwork pure merge', 'iter1 scaffolds', 'Green Site/RNA tunnel merge', 'Enamine_Order_1968912', 'best elaborated iter1 scaffold poses', 'JA curated YES', 'acceptable']

>  <inspirations>  (37) 
{P Ã— 2}

>  <subsites>  (37) 
[[1m[4m"Green Site/RNA tunnel"[22m[24m]

>  <reference>  (37) 
z0221a

>  <SLURM_JOB_ID>  (37) 
217074

>  <SLURM_JOB_NAME>  (37) 
BulkDock.place:Flavi_NS5_RdRp:RdRp_knitwork_green_site_rna_tunnel_pure_split4000_batch003

>  <csv_name>  (37) 
RdRp_knitwork_green_site_rna_tunnel_pure_split4000_batch003.csv

>  <scratch_subdir>  (37) 
/opt/xchem-fragalysis-2/maxwin/BulkDock/SCRATCH/217074/C29639-P105

>  <fragmenstein_runtime>  (37) 
3.122275

>  <fragmenstein_outcome>  (37) 
acceptable

>  <fragmenstein_mode>  (37) 
expansion

>  <fragmenstein_error>  (37) 


>  <exports>  (37) 
/opt/xchem-fragalysis-2/maxwin/BulkDock/OUTPUTS/RdRp_knitwork_green_site_rna_tunnel_pure_split4000_batch003_217074.sdf;/opt/xchem-fragalysis-2/maxwin/BulkDock/OUTPUTS/RdRp_knitwork_green_site_rna_tunnel_pure_fragalysis.sdf;/opt/xchem-fragalysis-2/maxwin/RdRp_FFF/quotes/JA_curated_and_manual_ordered.sdf;/opt/xchem-fragalysis-2/maxwin/RdRp_FFF/quotes/combined_jan2025_ordered.sdf;/opt/xchem-fragalysis-2/maxwin/RdRp_FFF/hippo/iter1_elaborated_scaffold_poses.sdf

>  <Multi-SuCOS>  (37) 
nan

>  <merge_set>  (37) 
nan

$$$$
QVKHESCHDGANBY-QMMMGPOBSA-N
     RDKit          3D

 15 15  0  0  0  0  0  0  0  0999 V2000
  -25.8940  -30.3734  -17.8825 C   0  0  0  0  0  0  0  0  0  0  0  0
  -27.0499  -30.0577  -18.7785 C   0  0  0  0  0  0  0  0  0  0  0  0
  -28.2833  -29.7341  -18.2238 C   0  0  0  0  0  0  0  0  0  0  0  0
  -29.3879  -29.4567  -18.9429 N   0  0  0  0  0  0  0  0  0  0  0  0
  -29.2523  -29.4382  -20.2820 C   0  0  0  0  0  0  0  0  0  0  0  0
  -28.0672  -29.7127  -20.9353 C   0  0  0  0  0  0  0  0  0  0  0  0
  -26.9688  -30.0918  -20.1753 C   0  0  0  0  0  0  0  0  0  0  0  0
  -25.8563  -30.6530  -20.8019 N   0  0  0  0  0  0  0  0  0  0  0  0
  -25.4455  -30.6696  -22.3108 C   0  0  0  0  0  0  0  0  0  0  0  0
  -25.9289  -30.1607  -23.2137 O   0  0  0  0  0  0  0  0  0  0  0  0
  -24.2519  -31.6607  -22.2370 N   0  0  0  0  0  0  0  0  0  0  0  0
  -23.4908  -32.2824  -23.2875 C   0  0  0  0  0  0  0  0  0  0  0  0
  -21.9874  -32.0129  -23.1929 C   0  0  2  0  0  0  0  0  0  0  0  0
  -21.2314  -33.0630  -23.9884 C   0  0  0  0  0  0  0  0  0  0  0  0
  -21.5499  -32.0863  -21.8313 O   0  0  0  0  0  0  0  0  0  0  0  0
  1  2  1  0
  2  3  2  0
  3  4  1  0
  4  5  2  0
  5  6  1  0
  6  7  2  0
  7  8  1  0
  8  9  1  0
  9 10  2  0
  9 11  1  0
 11 12  1  0
 12 13  1  0
 13 14  1  6
 13 15  1  0
  7  2  1  0
M  END
>  <id>  (38) 
95463

>  <inchikey>  (38) 
QVKHESCHDGANBY-QMMMGPOBSA-N

>  <alias>  (38) 
None

>  <smiles>  (38) 
Cc1cnccc1NC(=O)NC[C@H](C)O

>  <path>  (38) 
/opt/xchem-fragalysis-2/maxwin/BulkDock/SCRATCH/217079/C48678-P151/C48678-P151.minimised.mol

>  <distance_score>  (38) 
0.686102

>  <energy_score>  (38) 
-25.652742

>  <compound>  (38) 
QVKHESCHDGANBY-UHFFFAOYSA-N

>  <compound_id>  (38) 
48678

>  <target>  (38) 
Flavi_NS5_RdRp

>  <tags>  (38) 
['Fragmenstein placed', 'JA curated NO', 'Knitwork pure merge', 'Green Site/RNA tunnel merge', 'acceptable']

>  <inspirations>  (38) 
{P Ã— 2}

>  <subsites>  (38) 
None

>  <reference>  (38) 
z0637a

>  <SLURM_JOB_ID>  (38) 
217079

>  <SLURM_JOB_NAME>  (38) 
BulkDock.place:Flavi_NS5_RdRp:RdRp_knitwork_green_site_rna_tunnel_pure_split4000_batch008

>  <csv_name>  (38) 
RdRp_knitwork_green_site_rna_tunnel_pure_split4000_batch008.csv

>  <scratch_subdir>  (38) 
/opt/xchem-fragalysis-2/maxwin/BulkDock/SCRATCH/217079/C48678-P151

>  <fragmenstein_runtime>  (38) 
3.674616

>  <fragmenstein_outcome>  (38) 
acceptable

>  <fragmenstein_mode>  (38) 
expansion

>  <fragmenstein_error>  (38) 


>  <exports>  (38) 
/opt/xchem-fragalysis-2/maxwin/BulkDock/OUTPUTS/RdRp_knitwork_green_site_rna_tunnel_pure_split4000_batch008_217079.sdf;/opt/xchem-fragalysis-2/maxwin/BulkDock/OUTPUTS/RdRp_knitwork_green_site_rna_tunnel_pure_fragalysis.sdf

>  <Multi-SuCOS>  (38) 
nan

>  <merge_set>  (38) 
nan

$$$$
WXCSLBRGRKDJSX-QMMMGPOBSA-N
     RDKit          3D

 15 15  0  0  0  0  0  0  0  0999 V2000
  -28.3148  -29.7147  -16.4672 C   0  0  0  0  0  0  0  0  0  0  0  0
  -28.3158  -29.9093  -17.9520 C   0  0  0  0  0  0  0  0  0  0  0  0
  -29.5305  -29.8960  -18.6274 C   0  0  0  0  0  0  0  0  0  0  0  0
  -29.5269  -30.0008  -20.0069 C   0  0  0  0  0  0  0  0  0  0  0  0
  -28.3148  -30.1634  -20.6586 C   0  0  0  0  0  0  0  0  0  0  0  0
  -27.1495  -30.2730  -19.9084 C   0  0  0  0  0  0  0  0  0  0  0  0
  -25.9723  -30.6165  -20.5469 N   0  0  0  0  0  0  0  0  0  0  0  0
  -25.6674  -30.8123  -22.0610 C   0  0  0  0  0  0  0  0  0  0  0  0
  -26.3284  -30.6415  -22.9712 O   0  0  0  0  0  0  0  0  0  0  0  0
  -24.2376  -31.4043  -21.9589 N   0  0  0  0  0  0  0  0  0  0  0  0
  -23.3952  -31.9852  -22.9710 C   0  0  0  0  0  0  0  0  0  0  0  0
  -21.9204  -32.0847  -22.5949 C   0  0  2  0  0  0  0  0  0  0  0  0
  -21.1564  -32.8762  -23.6465 C   0  0  0  0  0  0  0  0  0  0  0  0
  -21.7817  -32.7446  -21.3349 O   0  0  0  0  0  0  0  0  0  0  0  0
  -27.1258  -30.1287  -18.5693 N   0  0  0  0  0  0  0  0  0  0  0  0
  1  2  1  0
  2  3  2  0
  3  4  1  0
  4  5  2  0
  5  6  1  0
  6  7  1  0
  7  8  1  0
  8  9  2  0
  8 10  1  0
 10 11  1  0
 11 12  1  0
 12 13  1  6
 12 14  1  0
  6 15  2  0
 15  2  1  0
M  END
>  <id>  (39) 
95593

>  <inchikey>  (39) 
WXCSLBRGRKDJSX-QMMMGPOBSA-N

>  <alias>  (39) 
None

>  <smiles>  (39) 
Cc1cccc(NC(=O)NC[C@H](C)O)n1

>  <path>  (39) 
/opt/xchem-fragalysis-2/maxwin/BulkDock/SCRATCH/217079/C49374-P102/C49374-P102.minimised.mol

>  <distance_score>  (39) 
0.553023

>  <energy_score>  (39) 
-7.75607

>  <compound>  (39) 
WXCSLBRGRKDJSX-UHFFFAOYSA-N

>  <compound_id>  (39) 
49374

>  <target>  (39) 
Flavi_NS5_RdRp

>  <tags>  (39) 
['Fragmenstein placed', 'Knitwork pure merge', 'iter1 scaffolds', 'Green Site/RNA tunnel merge', 'Enamine_Order_1968912', 'JA curated YES', 'acceptable']

>  <inspirations>  (39) 
{P Ã— 2}

>  <subsites>  (39) 
None

>  <reference>  (39) 
z0211a

>  <SLURM_JOB_ID>  (39) 
217079

>  <SLURM_JOB_NAME>  (39) 
BulkDock.place:Flavi_NS5_RdRp:RdRp_knitwork_green_site_rna_tunnel_pure_split4000_batch008

>  <csv_name>  (39) 
RdRp_knitwork_green_site_rna_tunnel_pure_split4000_batch008.csv

>  <scratch_subdir>  (39) 
/opt/xchem-fragalysis-2/maxwin/BulkDock/SCRATCH/217079/C49374-P102

>  <fragmenstein_runtime>  (39) 
2.765121

>  <fragmenstein_outcome>  (39) 
acceptable

>  <fragmenstein_mode>  (39) 
expansion

>  <fragmenstein_error>  (39) 


>  <exports>  (39) 
/opt/xchem-fragalysis-2/maxwin/BulkDock/OUTPUTS/RdRp_knitwork_green_site_rna_tunnel_pure_split4000_batch008_217079.sdf;/opt/xchem-fragalysis-2/maxwin/BulkDock/OUTPUTS/RdRp_knitwork_green_site_rna_tunnel_pure_fragalysis.sdf;/opt/xchem-fragalysis-2/maxwin/RdRp_FFF/quotes/JA_curated_and_manual_ordered.sdf;/opt/xchem-fragalysis-2/maxwin/RdRp_FFF/quotes/combined_jan2025_ordered.sdf

>  <Multi-SuCOS>  (39) 
nan

>  <merge_set>  (39) 
nan

$$$$
QYRRPPSGQNMPRP-UHFFFAOYSA-N
     RDKit          3D

 18 20  0  0  0  0  0  0  0  0999 V2000
  -25.5741  -28.5941  -25.0462 C   0  0  0  0  0  0  0  0  0  0  0  0
  -25.5588  -28.0426  -23.6879 C   0  0  0  0  0  0  0  0  0  0  0  0
  -26.1899  -28.6075  -22.6921 N   0  0  0  0  0  0  0  0  0  0  0  0
  -26.0713  -27.8169  -21.5658 C   0  0  0  0  0  0  0  0  0  0  0  0
  -26.6714  -28.3538  -20.3201 C   0  0  0  0  0  0  0  0  0  0  0  0
  -26.7349  -29.8246  -20.3436 N   0  0  0  0  0  0  0  0  0  0  0  0
  -27.8993  -30.1801  -19.6555 C   0  0  0  0  0  0  0  0  0  0  0  0
  -28.9700  -30.3567  -20.4546 N   0  0  0  0  0  0  0  0  0  0  0  0
  -30.1662  -30.3893  -19.8547 C   0  0  0  0  0  0  0  0  0  0  0  0
  -30.3207  -30.2754  -18.4866 C   0  0  0  0  0  0  0  0  0  0  0  0
  -29.2046  -30.1899  -17.6583 C   0  0  0  0  0  0  0  0  0  0  0  0
  -29.3353  -30.1274  -16.2633 C   0  0  0  0  0  0  0  0  0  0  0  0
  -28.2135  -30.0109  -15.4442 C   0  0  0  0  0  0  0  0  0  0  0  0
  -26.9476  -29.9476  -16.0083 C   0  0  0  0  0  0  0  0  0  0  0  0
  -26.8136  -30.0029  -17.3932 C   0  0  0  0  0  0  0  0  0  0  0  0
  -27.9390  -30.1357  -18.2426 C   0  0  0  0  0  0  0  0  0  0  0  0
  -25.3631  -26.6483  -21.7335 C   0  0  0  0  0  0  0  0  0  0  0  0
  -24.7922  -26.5593  -23.3420 S   0  0  0  0  0  0  0  0  0  0  0  0
  1  2  1  0
  2  3  2  0
  3  4  1  0
  4  5  1  0
  5  6  1  0
  6  7  1  0
  7  8  2  0
  8  9  1  0
  9 10  2  0
 10 11  1  0
 11 12  2  0
 12 13  1  0
 13 14  2  0
 14 15  1  0
 15 16  2  0
  4 17  2  0
 17 18  1  0
 18  2  1  0
 16  7  1  0
 16 11  1  0
M  END
>  <id>  (40) 
95988

>  <inchikey>  (40) 
QYRRPPSGQNMPRP-UHFFFAOYSA-N

>  <alias>  (40) 
None

>  <smiles>  (40) 
Cc1nc(CNc2nccc3ccccc23)cs1

>  <path>  (40) 
/opt/xchem-fragalysis-2/maxwin/BulkDock/SCRATCH/217076/C49503-P136/C49503-P136.minimised.mol

>  <distance_score>  (40) 
0.926212

>  <energy_score>  (40) 
-61.013959

>  <compound>  (40) 
QYRRPPSGQNMPRP-UHFFFAOYSA-N

>  <compound_id>  (40) 
49503

>  <target>  (40) 
Flavi_NS5_RdRp

>  <tags>  (40) 
['Fragmenstein placed', 'Enamine_Quote_1977854', 'JA curated NO', 'Knitwork pure merge', 'iter1 scaffolds', 'LCD curated YES', 'Green Site/RNA tunnel merge', 'best elaborated iter1 scaffold poses', 'LCD curated INTERESTING', 'acceptable']

>  <inspirations>  (40) 
{P Ã— 2}

>  <subsites>  (40) 
[[1m[4m"Green Site/RNA tunnel"[22m[24m]

>  <reference>  (40) 
z0496a

>  <SLURM_JOB_ID>  (40) 
217076

>  <SLURM_JOB_NAME>  (40) 
BulkDock.place:Flavi_NS5_RdRp:RdRp_knitwork_green_site_rna_tunnel_pure_split4000_batch005

>  <csv_name>  (40) 
RdRp_knitwork_green_site_rna_tunnel_pure_split4000_batch005.csv

>  <scratch_subdir>  (40) 
/opt/xchem-fragalysis-2/maxwin/BulkDock/SCRATCH/217076/C49503-P136

>  <fragmenstein_runtime>  (40) 
2.335611

>  <fragmenstein_outcome>  (40) 
acceptable

>  <fragmenstein_mode>  (40) 
expansion

>  <fragmenstein_error>  (40) 


>  <exports>  (40) 
/opt/xchem-fragalysis-2/maxwin/BulkDock/OUTPUTS/RdRp_knitwork_green_site_rna_tunnel_pure_split4000_batch005_217076.sdf;/opt/xchem-fragalysis-2/maxwin/BulkDock/OUTPUTS/RdRp_knitwork_green_site_rna_tunnel_pure_fragalysis.sdf;/opt/xchem-fragalysis-2/maxwin/RdRp_FFF/hippo/iter1_elaborated_scaffold_poses.sdf

>  <Multi-SuCOS>  (40) 
nan

>  <merge_set>  (40) 
nan

$$$$
GZPXXQDQKSPFSB-MRVPVSSYSA-N
     RDKit          3D

 17 18  0  0  0  0  0  0  0  0999 V2000
  -30.4593  -30.0594  -19.4820 C   0  0  0  0  0  0  0  0  0  0  0  0
  -28.9934  -30.0280  -19.5352 C   0  0  0  0  0  0  0  0  0  0  0  0
  -28.1624  -30.0090  -20.6352 C   0  0  0  0  0  0  0  0  0  0  0  0
  -26.8918  -30.2940  -20.1136 C   0  0  0  0  0  0  0  0  0  0  0  0
  -25.8022  -30.6912  -20.8086 N   0  0  0  0  0  0  0  0  0  0  0  0
  -25.6080  -30.9125  -22.3320 C   0  0  0  0  0  0  0  0  0  0  0  0
  -26.3180  -30.7160  -23.2001 O   0  0  0  0  0  0  0  0  0  0  0  0
  -24.2063  -31.5731  -22.3152 N   0  0  0  0  0  0  0  0  0  0  0  0
  -23.3797  -32.0317  -23.3993 C   0  0  0  0  0  0  0  0  0  0  0  0
  -22.0325  -32.5424  -22.8911 C   0  0  1  0  0  0  0  0  0  0  0  0
  -21.0822  -32.8414  -24.0335 C   0  0  0  0  0  0  0  0  0  0  0  0
  -21.4320  -31.5798  -22.0216 O   0  0  0  0  0  0  0  0  0  0  0  0
  -26.8732  -30.2631  -18.7846 N   0  0  0  0  0  0  0  0  0  0  0  0
  -28.1672  -30.1524  -18.4450 N   0  0  0  0  0  0  0  0  0  0  0  0
  -28.6121  -30.5547  -17.0800 C   0  0  0  0  0  0  0  0  0  0  0  0
  -27.6253  -30.5974  -15.9262 C   0  0  0  0  0  0  0  0  0  0  0  0
  -28.7544  -29.6161  -15.9203 C   0  0  0  0  0  0  0  0  0  0  0  0
  1  2  1  0
  2  3  2  0
  3  4  1  0
  4  5  1  0
  5  6  1  0
  6  7  2  0
  6  8  1  0
  8  9  1  0
  9 10  1  0
 10 11  1  6
 10 12  1  0
  4 13  2  0
 13 14  1  0
 14 15  1  0
 15 16  1  0
 16 17  1  0
 14  2  1  0
 17 15  1  0
M  END
>  <id>  (41) 
98289

>  <inchikey>  (41) 
GZPXXQDQKSPFSB-MRVPVSSYSA-N

>  <alias>  (41) 
None

>  <smiles>  (41) 
Cc1cc(NC(=O)NC[C@@H](C)O)nn1C1CC1

>  <path>  (41) 
/opt/xchem-fragalysis-2/maxwin/BulkDock/SCRATCH/217083/C54945-P104/C54945-P104.minimised.mol

>  <distance_score>  (41) 
0.871954

>  <energy_score>  (41) 
-30.250293

>  <compound>  (41) 
GZPXXQDQKSPFSB-UHFFFAOYSA-N

>  <compound_id>  (41) 
54945

>  <target>  (41) 
Flavi_NS5_RdRp

>  <tags>  (41) 
['Fragmenstein placed', 'Enamine_Quote_1977854', 'JA curated NO', 'Knitwork pure merge', 'iter1 scaffolds', 'LCD curated YES', 'Green Site/RNA tunnel merge', 'best elaborated iter1 scaffold poses', 'LCD curated INTERESTING', 'acceptable']

>  <inspirations>  (41) 
{P Ã— 2}

>  <subsites>  (41) 
[[1m[4m"Green Site/RNA tunnel"[22m[24m]

>  <reference>  (41) 
z0215a

>  <SLURM_JOB_ID>  (41) 
217083

>  <SLURM_JOB_NAME>  (41) 
BulkDock.place:Flavi_NS5_RdRp:RdRp_knitwork_green_site_rna_tunnel_pure_split4000_batch012

>  <csv_name>  (41) 
RdRp_knitwork_green_site_rna_tunnel_pure_split4000_batch012.csv

>  <scratch_subdir>  (41) 
/opt/xchem-fragalysis-2/maxwin/BulkDock/SCRATCH/217083/C54945-P104

>  <fragmenstein_runtime>  (41) 
5.450071

>  <fragmenstein_outcome>  (41) 
acceptable

>  <fragmenstein_mode>  (41) 
expansion

>  <fragmenstein_error>  (41) 


>  <exports>  (41) 
/opt/xchem-fragalysis-2/maxwin/BulkDock/OUTPUTS/RdRp_knitwork_green_site_rna_tunnel_pure_split4000_batch012_217083.sdf;/opt/xchem-fragalysis-2/maxwin/BulkDock/OUTPUTS/RdRp_knitwork_green_site_rna_tunnel_pure_fragalysis.sdf;/opt/xchem-fragalysis-2/maxwin/RdRp_FFF/hippo/iter1_elaborated_scaffold_poses.sdf

>  <Multi-SuCOS>  (41) 
nan

>  <merge_set>  (41) 
nan

$$$$
ZLBFYANSAYZPQU-UHFFFAOYSA-N
     RDKit          3D

 17 19  0  0  0  0  0  0  0  0999 V2000
  -25.4442  -34.0361  -19.4400 C   0  0  0  0  0  0  0  0  0  0  0  0
  -24.5349  -32.9953  -19.3978 C   0  0  0  0  0  0  0  0  0  0  0  0
  -24.9622  -31.7258  -19.7688 C   0  0  0  0  0  0  0  0  0  0  0  0
  -26.2818  -31.5051  -20.1666 C   0  0  0  0  0  0  0  0  0  0  0  0
  -26.7004  -30.1918  -20.4226 N   0  0  0  0  0  0  0  0  0  0  0  0
  -27.8539  -30.0365  -21.3114 C   0  0  0  0  0  0  0  0  0  0  0  0
  -29.0834  -29.4146  -20.6577 C   0  0  0  0  0  0  0  0  0  0  0  0
  -29.6034  -30.2204  -19.6067 O   0  0  0  0  0  0  0  0  0  0  0  0
  -28.9827  -30.1033  -18.3928 C   0  0  0  0  0  0  0  0  0  0  0  0
  -29.8033  -30.4762  -17.3194 C   0  0  0  0  0  0  0  0  0  0  0  0
  -29.3564  -30.4005  -16.0032 C   0  0  0  0  0  0  0  0  0  0  0  0
  -28.0696  -29.9515  -15.7478 C   0  0  0  0  0  0  0  0  0  0  0  0
  -27.2350  -29.6032  -16.8118 C   0  0  0  0  0  0  0  0  0  0  0  0
  -27.6639  -29.6940  -18.1540 C   0  0  0  0  0  0  0  0  0  0  0  0
  -26.6659  -29.3218  -19.2375 C   0  0  0  0  0  0  0  0  0  0  0  0
  -27.1382  -32.5375  -20.2860 N   0  0  0  0  0  0  0  0  0  0  0  0
  -26.7196  -33.7623  -19.8989 C   0  0  0  0  0  0  0  0  0  0  0  0
  1  2  2  0
  2  3  1  0
  3  4  2  0
  4  5  1  0
  5  6  1  0
  6  7  1  0
  7  8  1  0
  8  9  1  0
  9 10  2  0
 10 11  1  0
 11 12  2  0
 12 13  1  0
 13 14  2  0
 14 15  1  0
  4 16  1  0
 16 17  2  0
 17  1  1  0
 15  5  1  0
 14  9  1  0
M  END
>  <id>  (42) 
98291

>  <inchikey>  (42) 
ZLBFYANSAYZPQU-UHFFFAOYSA-N

>  <alias>  (42) 
None

>  <smiles>  (42) 
c1ccc(N2CCOc3ccccc3C2)nc1

>  <path>  (42) 
/opt/xchem-fragalysis-2/maxwin/BulkDock/SCRATCH/217078/C32376-P144/C32376-P144.minimised.mol

>  <distance_score>  (42) 
0.999442

>  <energy_score>  (42) 
-21.454072

>  <compound>  (42) 
ZLBFYANSAYZPQU-UHFFFAOYSA-N

>  <compound_id>  (42) 
32376

>  <target>  (42) 
Flavi_NS5_RdRp

>  <tags>  (42) 
['Fragmenstein placed', 'acceptable', 'Knitwork pure merge', 'Green Site/RNA tunnel merge']

>  <inspirations>  (42) 
{P Ã— 2}

>  <subsites>  (42) 
None

>  <reference>  (42) 
z0581a

>  <SLURM_JOB_ID>  (42) 
217078

>  <SLURM_JOB_NAME>  (42) 
BulkDock.place:Flavi_NS5_RdRp:RdRp_knitwork_green_site_rna_tunnel_pure_split4000_batch007

>  <csv_name>  (42) 
RdRp_knitwork_green_site_rna_tunnel_pure_split4000_batch007.csv

>  <scratch_subdir>  (42) 
/opt/xchem-fragalysis-2/maxwin/BulkDock/SCRATCH/217078/C32376-P144

>  <fragmenstein_runtime>  (42) 
1.939471

>  <fragmenstein_outcome>  (42) 
acceptable

>  <fragmenstein_mode>  (42) 
expansion

>  <fragmenstein_error>  (42) 


>  <exports>  (42) 
/opt/xchem-fragalysis-2/maxwin/BulkDock/OUTPUTS/RdRp_knitwork_green_site_rna_tunnel_pure_split4000_batch007_217078.sdf;/opt/xchem-fragalysis-2/maxwin/BulkDock/OUTPUTS/RdRp_knitwork_green_site_rna_tunnel_pure_fragalysis.sdf;/opt/xchem-fragalysis-2/maxwin/RdRp_FFF/quotes/combined_jan2025_ordered.sdf

>  <Multi-SuCOS>  (42) 
nan

>  <merge_set>  (42) 
nan

$$$$
UIINRFUWBVLBNK-NSHDSACASA-N
     RDKit          3D

 20 21  0  0  0  0  0  0  0  0999 V2000
  -30.0178  -30.1408  -19.3035 C   0  0  0  0  0  0  0  0  0  0  0  0
  -28.5877  -29.9694  -19.6251 C   0  0  0  0  0  0  0  0  0  0  0  0
  -27.9861  -30.1000  -20.8739 C   0  0  0  0  0  0  0  0  0  0  0  0
  -26.6352  -30.2465  -20.5877 C   0  0  0  0  0  0  0  0  0  0  0  0
  -25.5724  -30.6649  -21.2896 N   0  0  0  0  0  0  0  0  0  0  0  0
  -25.4076  -30.9055  -22.7950 C   0  0  0  0  0  0  0  0  0  0  0  0
  -26.1246  -30.7108  -23.6517 O   0  0  0  0  0  0  0  0  0  0  0  0
  -24.0250  -31.5813  -22.7885 N   0  0  0  0  0  0  0  0  0  0  0  0
  -23.3108  -32.2290  -23.8348 C   0  0  0  0  0  0  0  0  0  0  0  0
  -21.8079  -32.0275  -23.6201 C   0  0  2  0  0  0  0  0  0  0  0  0
  -21.0551  -33.2572  -24.0591 C   0  0  0  0  0  0  0  0  0  0  0  0
  -21.5055  -31.7862  -22.2376 O   0  0  0  0  0  0  0  0  0  0  0  0
  -26.3668  -29.9313  -19.3454 N   0  0  0  0  0  0  0  0  0  0  0  0
  -27.5417  -29.8183  -18.7151 N   0  0  0  0  0  0  0  0  0  0  0  0
  -27.4320  -29.8138  -17.2990 C   0  0  0  0  0  0  0  0  0  0  0  0
  -28.5234  -29.8887  -16.4473 C   0  0  0  0  0  0  0  0  0  0  0  0
  -28.3121  -30.4034  -15.1750 C   0  0  0  0  0  0  0  0  0  0  0  0
  -27.0417  -30.8454  -14.7912 C   0  0  0  0  0  0  0  0  0  0  0  0
  -25.9249  -30.5522  -15.5389 C   0  0  0  0  0  0  0  0  0  0  0  0
  -26.1199  -29.9984  -16.7836 C   0  0  0  0  0  0  0  0  0  0  0  0
  1  2  1  0
  2  3  2  0
  3  4  1  0
  4  5  1  0
  5  6  1  0
  6  7  2  0
  6  8  1  0
  8  9  1  0
  9 10  1  0
 10 11  1  1
 10 12  1  0
  4 13  2  0
 13 14  1  0
 14 15  1  0
 15 16  2  0
 16 17  1  0
 17 18  2  0
 18 19  1  0
 19 20  2  0
 14  2  1  0
 20 15  1  0
M  END
>  <id>  (43) 
98359

>  <inchikey>  (43) 
UIINRFUWBVLBNK-NSHDSACASA-N

>  <alias>  (43) 
None

>  <smiles>  (43) 
Cc1cc(NC(=O)NC[C@H](C)O)nn1-c1ccccc1

>  <path>  (43) 
/opt/xchem-fragalysis-2/maxwin/BulkDock/SCRATCH/217083/C55149-P102/C55149-P102.minimised.mol

>  <distance_score>  (43) 
0.900206

>  <energy_score>  (43) 
18.950566

>  <compound>  (43) 
UIINRFUWBVLBNK-UHFFFAOYSA-N

>  <compound_id>  (43) 
55149

>  <target>  (43) 
Flavi_NS5_RdRp

>  <tags>  (43) 
['Fragmenstein placed', 'Enamine_Quote_1977854', 'Knitwork pure merge', 'Green Site/RNA tunnel merge', 'Enamine_Quote_1970815', 'best elaborated iter1 scaffold poses']

>  <inspirations>  (43) 
{P Ã— 2}

>  <subsites>  (43) 
[[1m[4m"Green Site/RNA tunnel"[22m[24m]

>  <reference>  (43) 
z0211a

>  <SLURM_JOB_ID>  (43) 
217083

>  <SLURM_JOB_NAME>  (43) 
BulkDock.place:Flavi_NS5_RdRp:RdRp_knitwork_green_site_rna_tunnel_pure_split4000_batch012

>  <csv_name>  (43) 
RdRp_knitwork_green_site_rna_tunnel_pure_split4000_batch012.csv

>  <scratch_subdir>  (43) 
/opt/xchem-fragalysis-2/maxwin/BulkDock/SCRATCH/217083/C55149-P102

>  <fragmenstein_runtime>  (43) 
4.114101

>  <fragmenstein_outcome>  (43) 
too contorted

>  <fragmenstein_mode>  (43) 
expansion

>  <fragmenstein_error>  (43) 


>  <exports>  (43) 
/opt/xchem-fragalysis-2/maxwin/BulkDock/OUTPUTS/RdRp_knitwork_green_site_rna_tunnel_pure_split4000_batch012_217083.sdf;/opt/xchem-fragalysis-2/maxwin/RdRp_FFF/hippo/iter1_elaborated_scaffold_poses.sdf

>  <Multi-SuCOS>  (43) 
nan

>  <merge_set>  (43) 
nan

$$$$
VEAPMNAYWNOMRJ-VIFPVBQESA-N
     RDKit          3D

 18 18  0  0  0  0  0  0  0  0999 V2000
  -25.9324  -31.3916  -14.2725 C   0  0  0  0  0  0  0  0  0  0  0  0
  -27.3163  -31.1119  -14.4797 O   0  0  0  0  0  0  0  0  0  0  0  0
  -27.4996  -30.4555  -15.7331 C   0  0  0  0  0  0  0  0  0  0  0  0
  -28.9613  -30.5382  -16.1462 C   0  0  0  0  0  0  0  0  0  0  0  0
  -29.3096  -29.6006  -17.2980 C   0  0  0  0  0  0  0  0  0  0  0  0
  -28.6518  -29.8489  -18.5652 N   0  0  0  0  0  0  0  0  0  0  0  0
  -29.2473  -29.9301  -19.7935 C   0  0  0  0  0  0  0  0  0  0  0  0
  -28.2437  -30.2458  -20.6789 C   0  0  0  0  0  0  0  0  0  0  0  0
  -27.0862  -30.3521  -19.8832 C   0  0  0  0  0  0  0  0  0  0  0  0
  -25.8890  -30.8780  -20.2453 N   0  0  0  0  0  0  0  0  0  0  0  0
  -25.4681  -31.6207  -21.5432 C   0  0  0  0  0  0  0  0  0  0  0  0
  -26.0528  -31.8174  -22.5008 O   0  0  0  0  0  0  0  0  0  0  0  0
  -24.0425  -32.0758  -21.1271 N   0  0  0  0  0  0  0  0  0  0  0  0
  -23.1056  -32.9504  -21.7978 C   0  0  0  0  0  0  0  0  0  0  0  0
  -22.2292  -32.1553  -22.7656 C   0  0  2  0  0  0  0  0  0  0  0  0
  -21.3969  -33.0414  -23.6684 C   0  0  0  0  0  0  0  0  0  0  0  0
  -21.3227  -31.3647  -21.9909 O   0  0  0  0  0  0  0  0  0  0  0  0
  -27.3139  -29.9744  -18.6245 N   0  0  0  0  0  0  0  0  0  0  0  0
  1  2  1  0
  2  3  1  0
  3  4  1  0
  4  5  1  0
  5  6  1  0
  6  7  1  0
  7  8  2  0
  8  9  1  0
  9 10  1  0
 10 11  1  0
 11 12  2  0
 11 13  1  0
 13 14  1  0
 14 15  1  0
 15 16  1  6
 15 17  1  0
  9 18  2  0
 18  6  1  0
M  END
>  <id>  (44) 
98391

>  <inchikey>  (44) 
VEAPMNAYWNOMRJ-VIFPVBQESA-N

>  <alias>  (44) 
None

>  <smiles>  (44) 
COCCCn1ccc(NC(=O)NC[C@H](C)O)n1

>  <path>  (44) 
/opt/xchem-fragalysis-2/maxwin/BulkDock/SCRATCH/217083/C55155-P104/C55155-P104.minimised.mol

>  <distance_score>  (44) 
0.716111

>  <energy_score>  (44) 
-41.942987

>  <compound>  (44) 
VEAPMNAYWNOMRJ-UHFFFAOYSA-N

>  <compound_id>  (44) 
55155

>  <target>  (44) 
Flavi_NS5_RdRp

>  <tags>  (44) 
['Fragmenstein placed', 'Enamine_Quote_1977854', 'JA curated NO', 'Knitwork pure merge', 'iter1 scaffolds', 'LCD curated YES', 'Green Site/RNA tunnel merge', 'best elaborated iter1 scaffold poses', 'LCD curated INTERESTING', 'acceptable']

>  <inspirations>  (44) 
{P Ã— 2}

>  <subsites>  (44) 
[[1m[4m"Green Site/RNA tunnel"[22m[24m]

>  <reference>  (44) 
z0215a

>  <SLURM_JOB_ID>  (44) 
217083

>  <SLURM_JOB_NAME>  (44) 
BulkDock.place:Flavi_NS5_RdRp:RdRp_knitwork_green_site_rna_tunnel_pure_split4000_batch012

>  <csv_name>  (44) 
RdRp_knitwork_green_site_rna_tunnel_pure_split4000_batch012.csv

>  <scratch_subdir>  (44) 
/opt/xchem-fragalysis-2/maxwin/BulkDock/SCRATCH/217083/C55155-P104

>  <fragmenstein_runtime>  (44) 
4.600829

>  <fragmenstein_outcome>  (44) 
acceptable

>  <fragmenstein_mode>  (44) 
expansion

>  <fragmenstein_error>  (44) 


>  <exports>  (44) 
/opt/xchem-fragalysis-2/maxwin/BulkDock/OUTPUTS/RdRp_knitwork_green_site_rna_tunnel_pure_split4000_batch012_217083.sdf;/opt/xchem-fragalysis-2/maxwin/BulkDock/OUTPUTS/RdRp_knitwork_green_site_rna_tunnel_pure_fragalysis.sdf;/opt/xchem-fragalysis-2/maxwin/RdRp_FFF/hippo/iter1_elaborated_scaffold_poses.sdf

>  <Multi-SuCOS>  (44) 
nan

>  <merge_set>  (44) 
nan

$$$$
WVGFLLFSIMGYJN-LURJTMIESA-N
     RDKit          3D

 18 18  0  0  0  0  0  0  0  0999 V2000
  -28.1924  -30.2379  -14.9656 C   0  0  0  0  0  0  0  0  0  0  0  0
  -27.7663  -29.8365  -16.2542 O   0  0  0  0  0  0  0  0  0  0  0  0
  -28.7783  -29.7594  -17.1577 C   0  0  0  0  0  0  0  0  0  0  0  0
  -29.9616  -29.6694  -16.8632 O   0  0  0  0  0  0  0  0  0  0  0  0
  -28.2159  -29.9018  -18.4675 C   0  0  0  0  0  0  0  0  0  0  0  0
  -26.8890  -30.0957  -18.8143 C   0  0  0  0  0  0  0  0  0  0  0  0
  -26.8879  -30.3524  -20.1897 C   0  0  0  0  0  0  0  0  0  0  0  0
  -25.8024  -30.7679  -20.8882 N   0  0  0  0  0  0  0  0  0  0  0  0
  -25.5743  -30.8762  -22.4172 C   0  0  0  0  0  0  0  0  0  0  0  0
  -26.2400  -30.5600  -23.2839 O   0  0  0  0  0  0  0  0  0  0  0  0
  -24.2225  -31.6325  -22.4178 N   0  0  0  0  0  0  0  0  0  0  0  0
  -23.4897  -32.2222  -23.4987 C   0  0  0  0  0  0  0  0  0  0  0  0
  -21.9842  -31.9725  -23.3934 C   0  0  2  0  0  0  0  0  0  0  0  0
  -21.2165  -33.1318  -23.9960 C   0  0  0  0  0  0  0  0  0  0  0  0
  -21.5837  -31.8297  -22.0252 O   0  0  0  0  0  0  0  0  0  0  0  0
  -28.1043  -30.2240  -20.7074 N   0  0  0  0  0  0  0  0  0  0  0  0
  -28.9038  -30.0243  -19.6452 N   0  0  0  0  0  0  0  0  0  0  0  0
  -30.3236  -30.1442  -19.8444 C   0  0  0  0  0  0  0  0  0  0  0  0
  1  2  1  0
  2  3  1  0
  3  4  2  0
  3  5  1  0
  5  6  2  0
  6  7  1  0
  7  8  1  0
  8  9  1  0
  9 10  2  0
  9 11  1  0
 11 12  1  0
 12 13  1  0
 13 14  1  1
 13 15  1  0
  7 16  2  0
 16 17  1  0
 17 18  1  0
 17  5  1  0
M  END
>  <id>  (45) 
98483

>  <inchikey>  (45) 
WVGFLLFSIMGYJN-LURJTMIESA-N

>  <alias>  (45) 
None

>  <smiles>  (45) 
COC(=O)c1cc(NC(=O)NC[C@H](C)O)nn1C

>  <path>  (45) 
/opt/xchem-fragalysis-2/maxwin/BulkDock/SCRATCH/217083/C55262-P102/C55262-P102.minimised.mol

>  <distance_score>  (45) 
0.897217

>  <energy_score>  (45) 
-30.224196

>  <compound>  (45) 
WVGFLLFSIMGYJN-UHFFFAOYSA-N

>  <compound_id>  (45) 
55262

>  <target>  (45) 
Flavi_NS5_RdRp

>  <tags>  (45) 
['Fragmenstein placed', 'Enamine_Quote_1977854', 'JA curated NO', 'Knitwork pure merge', 'iter1 scaffolds', 'LCD curated YES', 'Green Site/RNA tunnel merge', 'best elaborated iter1 scaffold poses', 'LCD curated INTERESTING', 'acceptable']

>  <inspirations>  (45) 
{P Ã— 2}

>  <subsites>  (45) 
[[1m[4m"Green Site/RNA tunnel"[22m[24m]

>  <reference>  (45) 
z0211a

>  <SLURM_JOB_ID>  (45) 
217083

>  <SLURM_JOB_NAME>  (45) 
BulkDock.place:Flavi_NS5_RdRp:RdRp_knitwork_green_site_rna_tunnel_pure_split4000_batch012

>  <csv_name>  (45) 
RdRp_knitwork_green_site_rna_tunnel_pure_split4000_batch012.csv

>  <scratch_subdir>  (45) 
/opt/xchem-fragalysis-2/maxwin/BulkDock/SCRATCH/217083/C55262-P102

>  <fragmenstein_runtime>  (45) 
3.844751

>  <fragmenstein_outcome>  (45) 
acceptable

>  <fragmenstein_mode>  (45) 
expansion

>  <fragmenstein_error>  (45) 


>  <exports>  (45) 
/opt/xchem-fragalysis-2/maxwin/BulkDock/OUTPUTS/RdRp_knitwork_green_site_rna_tunnel_pure_split4000_batch012_217083.sdf;/opt/xchem-fragalysis-2/maxwin/BulkDock/OUTPUTS/RdRp_knitwork_green_site_rna_tunnel_pure_fragalysis.sdf;/opt/xchem-fragalysis-2/maxwin/RdRp_FFF/hippo/iter1_elaborated_scaffold_poses.sdf

>  <Multi-SuCOS>  (45) 
nan

>  <merge_set>  (45) 
nan

$$$$
FGZCUNYQGFTGLS-LLVKDONJSA-N
     RDKit          3D

 20 21  0  0  0  0  0  0  0  0999 V2000
  -31.0631  -30.0978  -20.3224 C   0  0  0  0  0  0  0  0  0  0  0  0
  -29.6327  -29.9385  -20.0717 C   0  0  0  0  0  0  0  0  0  0  0  0
  -28.5765  -29.9119  -20.9795 C   0  0  0  0  0  0  0  0  0  0  0  0
  -27.4506  -30.1563  -20.2164 C   0  0  0  0  0  0  0  0  0  0  0  0
  -26.2742  -30.5984  -20.7734 N   0  0  0  0  0  0  0  0  0  0  0  0
  -25.8548  -30.7385  -22.2773 C   0  0  0  0  0  0  0  0  0  0  0  0
  -26.4077  -30.4328  -23.2272 O   0  0  0  0  0  0  0  0  0  0  0  0
  -24.5150  -31.5069  -22.0990 N   0  0  0  0  0  0  0  0  0  0  0  0
  -23.5579  -31.9595  -23.0831 C   0  0  0  0  0  0  0  0  0  0  0  0
  -22.2371  -32.4636  -22.5071 C   0  0  1  0  0  0  0  0  0  0  0  0
  -21.2684  -32.8482  -23.6155 C   0  0  0  0  0  0  0  0  0  0  0  0
  -21.6310  -31.4583  -21.6976 O   0  0  0  0  0  0  0  0  0  0  0  0
  -27.8627  -30.0396  -18.8828 N   0  0  0  0  0  0  0  0  0  0  0  0
  -27.1991  -30.1204  -17.6336 C   0  0  0  0  0  0  0  0  0  0  0  0
  -27.9910  -30.1623  -16.4632 C   0  0  0  0  0  0  0  0  0  0  0  0
  -27.4067  -30.3352  -15.2174 C   0  0  0  0  0  0  0  0  0  0  0  0
  -26.0277  -30.4543  -15.1192 C   0  0  0  0  0  0  0  0  0  0  0  0
  -25.2362  -30.3838  -16.2632 C   0  0  0  0  0  0  0  0  0  0  0  0
  -25.8174  -30.2097  -17.5223 C   0  0  0  0  0  0  0  0  0  0  0  0
  -29.2092  -29.9080  -18.8203 N   0  0  0  0  0  0  0  0  0  0  0  0
  1  2  1  0
  2  3  1  0
  3  4  2  0
  4  5  1  0
  5  6  1  0
  6  7  2  0
  6  8  1  0
  8  9  1  0
  9 10  1  0
 10 11  1  6
 10 12  1  0
  4 13  1  0
 13 14  1  0
 14 15  2  0
 15 16  1  0
 16 17  2  0
 17 18  1  0
 18 19  2  0
 13 20  1  0
 20  2  2  0
 19 14  1  0
M  END
>  <id>  (46) 
98948

>  <inchikey>  (46) 
FGZCUNYQGFTGLS-LLVKDONJSA-N

>  <alias>  (46) 
None

>  <smiles>  (46) 
Cc1cc(NC(=O)NC[C@@H](C)O)n(-c2ccccc2)n1

>  <path>  (46) 
/opt/xchem-fragalysis-2/maxwin/BulkDock/SCRATCH/217083/C55996-P104/C55996-P104.minimised.mol

>  <distance_score>  (46) 
0.985805

>  <energy_score>  (46) 
-6.224139

>  <compound>  (46) 
FGZCUNYQGFTGLS-UHFFFAOYSA-N

>  <compound_id>  (46) 
55996

>  <target>  (46) 
Flavi_NS5_RdRp

>  <tags>  (46) 
['Fragmenstein placed', 'Enamine_Quote_1977854', 'JA curated INTERESTING', 'Knitwork pure merge', 'iter1 scaffolds', 'LCD curated YES', 'Green Site/RNA tunnel merge', 'Enamine_Quote_1970815', 'best elaborated iter1 scaffold poses', 'LCD curated INTERESTING', 'acceptable']

>  <inspirations>  (46) 
{P Ã— 2}

>  <subsites>  (46) 
[[1m[4m"Green Site/RNA tunnel"[22m[24m]

>  <reference>  (46) 
z0215a

>  <SLURM_JOB_ID>  (46) 
217083

>  <SLURM_JOB_NAME>  (46) 
BulkDock.place:Flavi_NS5_RdRp:RdRp_knitwork_green_site_rna_tunnel_pure_split4000_batch012

>  <csv_name>  (46) 
RdRp_knitwork_green_site_rna_tunnel_pure_split4000_batch012.csv

>  <scratch_subdir>  (46) 
/opt/xchem-fragalysis-2/maxwin/BulkDock/SCRATCH/217083/C55996-P104

>  <fragmenstein_runtime>  (46) 
6.014448

>  <fragmenstein_outcome>  (46) 
acceptable

>  <fragmenstein_mode>  (46) 
expansion

>  <fragmenstein_error>  (46) 


>  <exports>  (46) 
/opt/xchem-fragalysis-2/maxwin/BulkDock/OUTPUTS/RdRp_knitwork_green_site_rna_tunnel_pure_split4000_batch012_217083.sdf;/opt/xchem-fragalysis-2/maxwin/BulkDock/OUTPUTS/RdRp_knitwork_green_site_rna_tunnel_pure_fragalysis.sdf;/opt/xchem-fragalysis-2/maxwin/RdRp_FFF/quotes/combined_jan2025_ordered.sdf;/opt/xchem-fragalysis-2/maxwin/RdRp_FFF/hippo/iter1_elaborated_scaffold_poses.sdf

>  <Multi-SuCOS>  (46) 
nan

>  <merge_set>  (46) 
nan

$$$$
GTOPDHADXIWWQI-MRVPVSSYSA-N
     RDKit          3D

 17 18  0  0  0  0  0  0  0  0999 V2000
  -21.1779  -32.8099  -23.9742 C   0  0  0  0  0  0  0  0  0  0  0  0
  -22.1820  -32.4904  -22.8850 C   0  0  1  0  0  0  0  0  0  0  0  0
  -21.5971  -31.5617  -21.9654 O   0  0  0  0  0  0  0  0  0  0  0  0
  -23.4864  -31.9191  -23.4534 C   0  0  0  0  0  0  0  0  0  0  0  0
  -24.3132  -31.3848  -22.4017 N   0  0  0  0  0  0  0  0  0  0  0  0
  -25.7926  -30.9240  -22.4241 C   0  0  0  0  0  0  0  0  0  0  0  0
  -26.5225  -30.8377  -23.2928 O   0  0  0  0  0  0  0  0  0  0  0  0
  -25.9932  -30.6248  -20.9100 N   0  0  0  0  0  0  0  0  0  0  0  0
  -27.1047  -30.2717  -20.2281 C   0  0  0  0  0  0  0  0  0  0  0  0
  -28.3993  -30.0155  -20.7222 C   0  0  0  0  0  0  0  0  0  0  0  0
  -29.1864  -29.9395  -19.5935 C   0  0  0  0  0  0  0  0  0  0  0  0
  -28.3365  -30.1087  -18.5339 N   0  0  0  0  0  0  0  0  0  0  0  0
  -28.7772  -30.4869  -17.1839 C   0  0  0  0  0  0  0  0  0  0  0  0
  -27.6326  -30.5578  -16.1336 C   0  0  0  0  0  0  0  0  0  0  0  0
  -28.6192  -29.9195  -15.1515 C   0  0  0  0  0  0  0  0  0  0  0  0
  -29.3412  -29.3233  -16.3724 C   0  0  0  0  0  0  0  0  0  0  0  0
  -27.0551  -30.2136  -18.9016 N   0  0  0  0  0  0  0  0  0  0  0  0
  2  1  1  6
  2  3  1  0
  2  4  1  0
  4  5  1  0
  5  6  1  0
  6  7  2  0
  6  8  1  0
  8  9  1  0
  9 10  1  0
 10 11  2  0
 11 12  1  0
 12 13  1  0
 13 14  1  0
 14 15  1  0
 15 16  1  0
 12 17  1  0
 17  9  2  0
 16 13  1  0
M  END
>  <id>  (47) 
99305

>  <inchikey>  (47) 
GTOPDHADXIWWQI-MRVPVSSYSA-N

>  <alias>  (47) 
None

>  <smiles>  (47) 
C[C@@H](O)CNC(=O)Nc1ccn(C2CCC2)n1

>  <path>  (47) 
/opt/xchem-fragalysis-2/maxwin/BulkDock/SCRATCH/217083/C56765-P104/C56765-P104.minimised.mol

>  <distance_score>  (47) 
0.736324

>  <energy_score>  (47) 
-8.271996

>  <compound>  (47) 
GTOPDHADXIWWQI-UHFFFAOYSA-N

>  <compound_id>  (47) 
56765

>  <target>  (47) 
Flavi_NS5_RdRp

>  <tags>  (47) 
['Fragmenstein placed', 'Enamine_Quote_1977854', 'JA curated NO', 'Knitwork pure merge', 'iter1 scaffolds', 'LCD curated YES', 'Green Site/RNA tunnel merge', 'best elaborated iter1 scaffold poses', 'LCD curated INTERESTING', 'acceptable']

>  <inspirations>  (47) 
{P Ã— 2}

>  <subsites>  (47) 
[[1m[4m"Green Site/RNA tunnel"[22m[24m]

>  <reference>  (47) 
z0215a

>  <SLURM_JOB_ID>  (47) 
217083

>  <SLURM_JOB_NAME>  (47) 
BulkDock.place:Flavi_NS5_RdRp:RdRp_knitwork_green_site_rna_tunnel_pure_split4000_batch012

>  <csv_name>  (47) 
RdRp_knitwork_green_site_rna_tunnel_pure_split4000_batch012.csv

>  <scratch_subdir>  (47) 
/opt/xchem-fragalysis-2/maxwin/BulkDock/SCRATCH/217083/C56765-P104

>  <fragmenstein_runtime>  (47) 
3.659463

>  <fragmenstein_outcome>  (47) 
acceptable

>  <fragmenstein_mode>  (47) 
expansion

>  <fragmenstein_error>  (47) 


>  <exports>  (47) 
/opt/xchem-fragalysis-2/maxwin/BulkDock/OUTPUTS/RdRp_knitwork_green_site_rna_tunnel_pure_split4000_batch012_217083.sdf;/opt/xchem-fragalysis-2/maxwin/BulkDock/OUTPUTS/RdRp_knitwork_green_site_rna_tunnel_pure_fragalysis.sdf;/opt/xchem-fragalysis-2/maxwin/RdRp_FFF/hippo/iter1_elaborated_scaffold_poses.sdf

>  <Multi-SuCOS>  (47) 
nan

>  <merge_set>  (47) 
nan

$$$$
TXDQKHUNHCSCLP-ZETCQYMHSA-N
     RDKit          3D

 15 15  0  0  0  0  0  0  0  0999 V2000
  -28.8080  -29.5852  -16.1710 C   0  0  0  0  0  0  0  0  0  0  0  0
  -29.2934  -30.2750  -17.4260 C   0  0  0  0  0  0  0  0  0  0  0  0
  -28.5363  -29.9588  -18.6228 N   0  0  0  0  0  0  0  0  0  0  0  0
  -27.2092  -30.2178  -18.8430 C   0  0  0  0  0  0  0  0  0  0  0  0
  -27.0624  -30.2247  -20.2110 C   0  0  0  0  0  0  0  0  0  0  0  0
  -25.9763  -30.6745  -20.9012 N   0  0  0  0  0  0  0  0  0  0  0  0
  -25.6931  -30.6966  -22.4350 C   0  0  0  0  0  0  0  0  0  0  0  0
  -26.3009  -30.2728  -23.3026 O   0  0  0  0  0  0  0  0  0  0  0  0
  -24.3960  -31.5526  -22.4417 N   0  0  0  0  0  0  0  0  0  0  0  0
  -23.6605  -32.1245  -23.5423 C   0  0  0  0  0  0  0  0  0  0  0  0
  -22.1376  -32.0072  -23.3997 C   0  0  2  0  0  0  0  0  0  0  0  0
  -21.4390  -33.2049  -24.0115 C   0  0  0  0  0  0  0  0  0  0  0  0
  -21.7639  -31.9181  -22.0176 O   0  0  0  0  0  0  0  0  0  0  0  0
  -28.2950  -29.7762  -20.7156 C   0  0  0  0  0  0  0  0  0  0  0  0
  -29.1991  -29.6170  -19.7466 N   0  0  0  0  0  0  0  0  0  0  0  0
  1  2  1  0
  2  3  1  0
  3  4  1  0
  4  5  2  0
  5  6  1  0
  6  7  1  0
  7  8  2  0
  7  9  1  0
  9 10  1  0
 10 11  1  0
 11 12  1  1
 11 13  1  0
  5 14  1  0
 14 15  2  0
 15  3  1  0
M  END
>  <id>  (48) 
99378

>  <inchikey>  (48) 
TXDQKHUNHCSCLP-ZETCQYMHSA-N

>  <alias>  (48) 
None

>  <smiles>  (48) 
CCn1cc(NC(=O)NC[C@H](C)O)cn1

>  <path>  (48) 
/opt/xchem-fragalysis-2/maxwin/BulkDock/SCRATCH/217083/C56905-P104/C56905-P104.minimised.mol

>  <distance_score>  (48) 
0.890011

>  <energy_score>  (48) 
-12.711973

>  <compound>  (48) 
TXDQKHUNHCSCLP-UHFFFAOYSA-N

>  <compound_id>  (48) 
56905

>  <target>  (48) 
Flavi_NS5_RdRp

>  <tags>  (48) 
['Fragmenstein placed', 'JA curated NO', 'Knitwork pure merge', 'Green Site/RNA tunnel merge', 'acceptable']

>  <inspirations>  (48) 
{P Ã— 2}

>  <subsites>  (48) 
None

>  <reference>  (48) 
z0215a

>  <SLURM_JOB_ID>  (48) 
217083

>  <SLURM_JOB_NAME>  (48) 
BulkDock.place:Flavi_NS5_RdRp:RdRp_knitwork_green_site_rna_tunnel_pure_split4000_batch012

>  <csv_name>  (48) 
RdRp_knitwork_green_site_rna_tunnel_pure_split4000_batch012.csv

>  <scratch_subdir>  (48) 
/opt/xchem-fragalysis-2/maxwin/BulkDock/SCRATCH/217083/C56905-P104

>  <fragmenstein_runtime>  (48) 
3.22479

>  <fragmenstein_outcome>  (48) 
acceptable

>  <fragmenstein_mode>  (48) 
expansion

>  <fragmenstein_error>  (48) 


>  <exports>  (48) 
/opt/xchem-fragalysis-2/maxwin/BulkDock/OUTPUTS/RdRp_knitwork_green_site_rna_tunnel_pure_split4000_batch012_217083.sdf;/opt/xchem-fragalysis-2/maxwin/BulkDock/OUTPUTS/RdRp_knitwork_green_site_rna_tunnel_pure_fragalysis.sdf

>  <Multi-SuCOS>  (48) 
nan

>  <merge_set>  (48) 
nan

$$$$
RCINSAVLQDUDFZ-LURJTMIESA-N
     RDKit          3D

 16 16  0  0  0  0  0  0  0  0999 V2000
  -25.7365  -29.7908  -17.6270 C   0  0  0  0  0  0  0  0  0  0  0  0
  -27.0024  -29.9169  -18.4188 C   0  0  0  0  0  0  0  0  0  0  0  0
  -27.0135  -30.2048  -19.7852 C   0  0  0  0  0  0  0  0  0  0  0  0
  -25.8573  -30.5729  -20.4812 N   0  0  0  0  0  0  0  0  0  0  0  0
  -25.6370  -30.8403  -22.0029 C   0  0  0  0  0  0  0  0  0  0  0  0
  -26.3514  -30.7198  -22.8808 O   0  0  0  0  0  0  0  0  0  0  0  0
  -24.1958  -31.4112  -21.9558 N   0  0  0  0  0  0  0  0  0  0  0  0
  -23.4051  -32.0303  -22.9861 C   0  0  0  0  0  0  0  0  0  0  0  0
  -21.9088  -32.0781  -22.6912 C   0  0  2  0  0  0  0  0  0  0  0  0
  -21.1953  -32.9498  -23.7132 C   0  0  0  0  0  0  0  0  0  0  0  0
  -21.6797  -32.6159  -21.3871 O   0  0  0  0  0  0  0  0  0  0  0  0
  -28.2219  -30.1894  -20.4887 C   0  0  0  0  0  0  0  0  0  0  0  0
  -29.3980  -30.0009  -19.7966 C   0  0  0  0  0  0  0  0  0  0  0  0
  -29.4417  -29.8258  -18.4679 N   0  0  0  0  0  0  0  0  0  0  0  0
  -28.2572  -29.7804  -17.8230 C   0  0  0  0  0  0  0  0  0  0  0  0
  -28.4719  -29.6450  -16.1212 Cl  0  0  0  0  0  0  0  0  0  0  0  0
  1  2  1  0
  2  3  2  0
  3  4  1  0
  4  5  1  0
  5  6  2  0
  5  7  1  0
  7  8  1  0
  8  9  1  0
  9 10  1  6
  9 11  1  0
  3 12  1  0
 12 13  2  0
 13 14  1  0
 14 15  2  0
 15 16  1  0
 15  2  1  0
M  END
>  <id>  (49) 
100730

>  <inchikey>  (49) 
RCINSAVLQDUDFZ-LURJTMIESA-N

>  <alias>  (49) 
None

>  <smiles>  (49) 
Cc1c(NC(=O)NC[C@H](C)O)ccnc1Cl

>  <path>  (49) 
/opt/xchem-fragalysis-2/maxwin/BulkDock/SCRATCH/217078/C47445-P102/C47445-P102.minimised.mol

>  <distance_score>  (49) 
0.754292

>  <energy_score>  (49) 
-1.565021

>  <compound>  (49) 
RCINSAVLQDUDFZ-UHFFFAOYSA-N

>  <compound_id>  (49) 
47445

>  <target>  (49) 
Flavi_NS5_RdRp

>  <tags>  (49) 
['Fragmenstein placed', 'JA curated NO', 'Knitwork pure merge', 'Green Site/RNA tunnel merge', 'acceptable']

>  <inspirations>  (49) 
{P Ã— 2}

>  <subsites>  (49) 
None

>  <reference>  (49) 
z0211a

>  <SLURM_JOB_ID>  (49) 
217078

>  <SLURM_JOB_NAME>  (49) 
BulkDock.place:Flavi_NS5_RdRp:RdRp_knitwork_green_site_rna_tunnel_pure_split4000_batch007

>  <csv_name>  (49) 
RdRp_knitwork_green_site_rna_tunnel_pure_split4000_batch007.csv

>  <scratch_subdir>  (49) 
/opt/xchem-fragalysis-2/maxwin/BulkDock/SCRATCH/217078/C47445-P102

>  <fragmenstein_runtime>  (49) 
3.19186

>  <fragmenstein_outcome>  (49) 
acceptable

>  <fragmenstein_mode>  (49) 
expansion

>  <fragmenstein_error>  (49) 


>  <exports>  (49) 
/opt/xchem-fragalysis-2/maxwin/BulkDock/OUTPUTS/RdRp_knitwork_green_site_rna_tunnel_pure_split4000_batch007_217078.sdf;/opt/xchem-fragalysis-2/maxwin/BulkDock/OUTPUTS/RdRp_knitwork_green_site_rna_tunnel_pure_fragalysis.sdf

>  <Multi-SuCOS>  (49) 
nan

>  <merge_set>  (49) 
nan

$$$$
AQCOXBPIGUJRMX-NEPJUHHUSA-N
     RDKit          3D

 20 21  0  0  0  0  0  0  0  0999 V2000
  -28.0598  -29.7130  -15.8537 C   0  0  0  0  0  0  0  0  0  0  0  0
  -28.3248  -29.9503  -17.2422 N   0  0  0  0  0  0  0  0  0  0  0  0
  -27.4259  -30.0200  -18.2611 C   0  0  0  0  0  0  0  0  0  0  0  0
  -28.1551  -30.2328  -19.4207 C   0  0  0  0  0  0  0  0  0  0  0  0
  -27.6475  -30.2628  -20.8301 C   0  0  2  0  0  0  0  0  0  0  0  0
  -28.4492  -29.4177  -21.8524 C   0  0  0  0  0  0  0  0  0  0  0  0
  -29.8502  -29.3255  -21.6523 O   0  0  0  0  0  0  0  0  0  0  0  0
  -26.9924  -31.5066  -21.2654 N   0  0  0  0  0  0  0  0  0  0  0  0
  -25.7405  -31.7907  -20.5123 C   0  0  0  0  0  0  0  0  0  0  0  0
  -24.7146  -32.6392  -21.2941 C   0  0  1  0  0  0  0  0  0  0  0  0
  -25.3384  -33.8414  -21.7583 O   0  0  0  0  0  0  0  0  0  0  0  0
  -24.1388  -31.7959  -22.4439 C   0  0  0  0  0  0  0  0  0  0  0  0
  -23.2063  -32.4870  -23.3081 N   0  0  0  0  0  0  0  0  0  0  0  0
  -21.8391  -32.7612  -22.9454 C   0  0  0  0  0  0  0  0  0  0  0  0
  -21.2121  -33.1349  -24.2757 C   0  0  0  0  0  0  0  0  0  0  0  0
  -22.3561  -33.7886  -25.0457 C   0  0  0  0  0  0  0  0  0  0  0  0
  -23.5748  -33.0872  -24.4977 C   0  0  0  0  0  0  0  0  0  0  0  0
  -24.6813  -33.0663  -25.0168 O   0  0  0  0  0  0  0  0  0  0  0  0
  -29.4924  -30.2951  -18.9455 C   0  0  0  0  0  0  0  0  0  0  0  0
  -29.5898  -30.1450  -17.6255 N   0  0  0  0  0  0  0  0  0  0  0  0
  1  2  1  0
  2  3  1  0
  3  4  2  0
  4  5  1  0
  5  6  1  6
  6  7  1  0
  5  8  1  0
  8  9  1  0
  9 10  1  0
 10 11  1  6
 10 12  1  0
 12 13  1  0
 13 14  1  0
 14 15  1  0
 15 16  1  0
 16 17  1  0
 17 18  2  0
  4 19  1  0
 19 20  2  0
 20  2  1  0
 17 13  1  0
M  END
>  <id>  (50) 
104767

>  <inchikey>  (50) 
AQCOXBPIGUJRMX-NEPJUHHUSA-N

>  <alias>  (50) 
None

>  <smiles>  (50) 
Cn1cc([C@H](CO)NC[C@@H](O)CN2CCCC2=O)cn1

>  <path>  (50) 
/opt/xchem-fragalysis-2/maxwin/BulkDock/SCRATCH/217081/C43155-P206/C43155-P206.minimised.mol

>  <distance_score>  (50) 
0.8495

>  <energy_score>  (50) 
-34.87204

>  <compound>  (50) 
AQCOXBPIGUJRMX-UHFFFAOYSA-N

>  <compound_id>  (50) 
43155

>  <target>  (50) 
Flavi_NS5_RdRp

>  <tags>  (50) 
['Fragmenstein placed', 'JA curated NO', 'Knitwork pure merge', 'Enamine_unavailable', 'Green Site/RNA tunnel merge', 'acceptable']

>  <inspirations>  (50) 
{P Ã— 2}

>  <subsites>  (50) 
None

>  <reference>  (50) 
z1018a

>  <SLURM_JOB_ID>  (50) 
217081

>  <SLURM_JOB_NAME>  (50) 
BulkDock.place:Flavi_NS5_RdRp:RdRp_knitwork_green_site_rna_tunnel_pure_split4000_batch010

>  <csv_name>  (50) 
RdRp_knitwork_green_site_rna_tunnel_pure_split4000_batch010.csv

>  <scratch_subdir>  (50) 
/opt/xchem-fragalysis-2/maxwin/BulkDock/SCRATCH/217081/C43155-P206

>  <fragmenstein_runtime>  (50) 
3.841443

>  <fragmenstein_outcome>  (50) 
acceptable

>  <fragmenstein_mode>  (50) 
expansion

>  <fragmenstein_error>  (50) 


>  <exports>  (50) 
/opt/xchem-fragalysis-2/maxwin/BulkDock/OUTPUTS/RdRp_knitwork_green_site_rna_tunnel_pure_split4000_batch010_217081.sdf;/opt/xchem-fragalysis-2/maxwin/BulkDock/OUTPUTS/RdRp_knitwork_green_site_rna_tunnel_pure_fragalysis.sdf

>  <Multi-SuCOS>  (50) 
nan

>  <merge_set>  (50) 
nan

$$$$
GEKOBKXDLILBGR-UHFFFAOYSA-N
     RDKit          3D

 20 22  0  0  0  0  0  0  0  0999 V2000
  -24.5606  -33.1347  -24.4185 O   0  0  0  0  0  0  0  0  0  0  0  0
  -23.3813  -33.1501  -24.1092 C   0  0  0  0  0  0  0  0  0  0  0  0
  -22.2721  -33.7369  -24.9400 C   0  0  0  0  0  0  0  0  0  0  0  0
  -21.0527  -32.9916  -24.4207 C   0  0  0  0  0  0  0  0  0  0  0  0
  -21.3764  -32.7057  -22.9689 C   0  0  0  0  0  0  0  0  0  0  0  0
  -22.8167  -32.6576  -22.9398 N   0  0  0  0  0  0  0  0  0  0  0  0
  -23.5384  -31.7829  -22.0368 C   0  0  0  0  0  0  0  0  0  0  0  0
  -24.5922  -32.4803  -21.1756 C   0  0  0  0  0  0  0  0  0  0  0  0
  -25.6471  -31.5638  -20.8130 N   0  0  0  0  0  0  0  0  0  0  0  0
  -27.1221  -31.5355  -21.2177 C   0  0  0  0  0  0  0  0  0  0  0  0
  -27.7456  -32.2882  -21.8468 O   0  0  0  0  0  0  0  0  0  0  0  0
  -27.7758  -30.2463  -20.7609 C   0  0  0  0  0  0  0  0  0  0  0  0
  -28.0457  -30.0944  -19.2730 C   0  0  0  0  0  0  0  0  0  0  0  0
  -29.3383  -30.1735  -18.7499 C   0  0  0  0  0  0  0  0  0  0  0  0
  -29.5450  -30.0635  -17.3773 C   0  0  0  0  0  0  0  0  0  0  0  0
  -28.4576  -29.8720  -16.5420 C   0  0  0  0  0  0  0  0  0  0  0  0
  -27.2053  -29.7980  -17.1206 C   0  0  0  0  0  0  0  0  0  0  0  0
  -26.9817  -29.8951  -18.4504 N   0  0  0  0  0  0  0  0  0  0  0  0
  -28.7240  -29.5780  -21.7507 C   0  0  0  0  0  0  0  0  0  0  0  0
  -27.3773  -28.9908  -21.5236 C   0  0  0  0  0  0  0  0  0  0  0  0
  1  2  2  0
  2  3  1  0
  3  4  1  0
  4  5  1  0
  5  6  1  0
  6  7  1  0
  7  8  1  0
  8  9  1  0
  9 10  1  0
 10 11  2  0
 10 12  1  0
 12 13  1  0
 13 14  2  0
 14 15  1  0
 15 16  2  0
 16 17  1  0
 17 18  2  0
 12 19  1  0
 19 20  1  0
  6  2  1  0
 20 12  1  0
 18 13  1  0
M  END
>  <id>  (51) 
106018

>  <inchikey>  (51) 
GEKOBKXDLILBGR-UHFFFAOYSA-N

>  <alias>  (51) 
None

>  <smiles>  (51) 
O=C1CCCN1CCNC(=O)C1(c2ccccn2)CC1

>  <path>  (51) 
/opt/xchem-fragalysis-2/maxwin/BulkDock/SCRATCH/217081/C4093-P104/C4093-P104.minimised.mol

>  <distance_score>  (51) 
0.72299

>  <energy_score>  (51) 
-13.818041

>  <compound>  (51) 
GEKOBKXDLILBGR-UHFFFAOYSA-N

>  <compound_id>  (51) 
4093

>  <target>  (51) 
Flavi_NS5_RdRp

>  <tags>  (51) 
['Fragmenstein placed', 'Enamine_Quote_1977854', 'JA curated NO', 'Knitwork pure merge', 'iter1 scaffolds', 'LCD curated YES', 'Green Site/RNA tunnel merge', 'best elaborated iter1 scaffold poses', 'acceptable']

>  <inspirations>  (51) 
{P Ã— 2}

>  <subsites>  (51) 
[[1m[4m"Green Site/RNA tunnel"[22m[24m]

>  <reference>  (51) 
z0215a

>  <SLURM_JOB_ID>  (51) 
217081

>  <SLURM_JOB_NAME>  (51) 
BulkDock.place:Flavi_NS5_RdRp:RdRp_knitwork_green_site_rna_tunnel_pure_split4000_batch010

>  <csv_name>  (51) 
RdRp_knitwork_green_site_rna_tunnel_pure_split4000_batch010.csv

>  <scratch_subdir>  (51) 
/opt/xchem-fragalysis-2/maxwin/BulkDock/SCRATCH/217081/C4093-P104

>  <fragmenstein_runtime>  (51) 
6.603807

>  <fragmenstein_outcome>  (51) 
acceptable

>  <fragmenstein_mode>  (51) 
expansion

>  <fragmenstein_error>  (51) 


>  <exports>  (51) 
/opt/xchem-fragalysis-2/maxwin/BulkDock/OUTPUTS/RdRp_knitwork_green_site_rna_tunnel_pure_split4000_batch010_217081.sdf;/opt/xchem-fragalysis-2/maxwin/BulkDock/OUTPUTS/RdRp_knitwork_green_site_rna_tunnel_pure_fragalysis.sdf;/opt/xchem-fragalysis-2/maxwin/RdRp_FFF/hippo/iter1_elaborated_scaffold_poses.sdf

>  <Multi-SuCOS>  (51) 
nan

>  <merge_set>  (51) 
nan

$$$$
WDWYXIDACVPHLO-GFCCVEGCSA-N
     RDKit          3D

 20 22  0  0  0  0  0  0  0  0999 V2000
  -24.6528  -33.1465  -24.5297 O   0  0  0  0  0  0  0  0  0  0  0  0
  -23.4566  -33.1334  -24.2826 C   0  0  0  0  0  0  0  0  0  0  0  0
  -22.3648  -33.7875  -25.0873 C   0  0  0  0  0  0  0  0  0  0  0  0
  -21.1144  -33.0834  -24.5711 C   0  0  0  0  0  0  0  0  0  0  0  0
  -21.4482  -32.7410  -23.1321 C   0  0  0  0  0  0  0  0  0  0  0  0
  -22.8736  -32.5473  -23.1771 N   0  0  0  0  0  0  0  0  0  0  0  0
  -23.5959  -31.7478  -22.2108 C   0  0  0  0  0  0  0  0  0  0  0  0
  -24.4239  -32.5321  -21.1801 C   0  0  2  0  0  0  0  0  0  0  0  0
  -25.1057  -33.6559  -21.7529 O   0  0  0  0  0  0  0  0  0  0  0  0
  -25.4303  -31.5728  -20.4921 C   0  0  0  0  0  0  0  0  0  0  0  0
  -26.7130  -31.4511  -21.2063 N   0  0  0  0  0  0  0  0  0  0  0  0
  -27.5320  -30.2669  -20.8261 C   0  0  0  0  0  0  0  0  0  0  0  0
  -27.9216  -30.0922  -19.3379 C   0  0  0  0  0  0  0  0  0  0  0  0
  -29.2470  -30.1937  -18.9039 C   0  0  0  0  0  0  0  0  0  0  0  0
  -29.5587  -30.0720  -17.5498 C   0  0  0  0  0  0  0  0  0  0  0  0
  -28.5443  -29.8437  -16.6369 C   0  0  0  0  0  0  0  0  0  0  0  0
  -27.2577  -29.7396  -17.1238 C   0  0  0  0  0  0  0  0  0  0  0  0
  -26.9374  -29.8399  -18.4324 N   0  0  0  0  0  0  0  0  0  0  0  0
  -27.2905  -29.0069  -21.6191 C   0  0  0  0  0  0  0  0  0  0  0  0
  -28.5188  -29.8006  -21.8871 C   0  0  0  0  0  0  0  0  0  0  0  0
  1  2  2  0
  2  3  1  0
  3  4  1  0
  4  5  1  0
  5  6  1  0
  6  7  1  0
  7  8  1  0
  8  9  1  6
  8 10  1  0
 10 11  1  0
 11 12  1  0
 12 13  1  0
 13 14  2  0
 14 15  1  0
 15 16  2  0
 16 17  1  0
 17 18  2  0
 12 19  1  0
 19 20  1  0
  6  2  1  0
 20 12  1  0
 18 13  1  0
M  END
>  <id>  (52) 
106073

>  <inchikey>  (52) 
WDWYXIDACVPHLO-GFCCVEGCSA-N

>  <alias>  (52) 
None

>  <smiles>  (52) 
O=C1CCCN1C[C@H](O)CNC1(c2ccccn2)CC1

>  <path>  (52) 
/opt/xchem-fragalysis-2/maxwin/BulkDock/SCRATCH/217081/C4109-P104/C4109-P104.minimised.mol

>  <distance_score>  (52) 
0.534366

>  <energy_score>  (52) 
-30.697607

>  <compound>  (52) 
WDWYXIDACVPHLO-UHFFFAOYSA-N

>  <compound_id>  (52) 
4109

>  <target>  (52) 
Flavi_NS5_RdRp

>  <tags>  (52) 
['Fragmenstein placed', 'JA curated NO', 'Knitwork pure merge', 'iter1 scaffolds', 'LCD curated YES', 'Enamine_unavailable', 'Green Site/RNA tunnel merge', 'acceptable']

>  <inspirations>  (52) 
{P Ã— 2}

>  <subsites>  (52) 
None

>  <reference>  (52) 
z0215a

>  <SLURM_JOB_ID>  (52) 
217081

>  <SLURM_JOB_NAME>  (52) 
BulkDock.place:Flavi_NS5_RdRp:RdRp_knitwork_green_site_rna_tunnel_pure_split4000_batch010

>  <csv_name>  (52) 
RdRp_knitwork_green_site_rna_tunnel_pure_split4000_batch010.csv

>  <scratch_subdir>  (52) 
/opt/xchem-fragalysis-2/maxwin/BulkDock/SCRATCH/217081/C4109-P104

>  <fragmenstein_runtime>  (52) 
4.523965

>  <fragmenstein_outcome>  (52) 
acceptable

>  <fragmenstein_mode>  (52) 
expansion

>  <fragmenstein_error>  (52) 


>  <exports>  (52) 
/opt/xchem-fragalysis-2/maxwin/BulkDock/OUTPUTS/RdRp_knitwork_green_site_rna_tunnel_pure_split4000_batch010_217081.sdf;/opt/xchem-fragalysis-2/maxwin/BulkDock/OUTPUTS/RdRp_knitwork_green_site_rna_tunnel_pure_fragalysis.sdf

>  <Multi-SuCOS>  (52) 
nan

>  <merge_set>  (52) 
nan

$$$$
MOWNOSLAQYMJTK-UHFFFAOYSA-N
     RDKit          3D

 22 24  0  0  0  0  0  0  0  0999 V2000
  -25.9153  -30.5769  -23.1172 O   0  0  0  0  0  0  0  0  0  0  0  0
  -26.3396  -30.7419  -22.0406 C   0  0  0  0  0  0  0  0  0  0  0  0
  -27.6605  -30.0139  -21.7153 C   0  0  0  0  0  0  0  0  0  0  0  0
  -28.3278  -30.2069  -20.4265 C   0  0  0  0  0  0  0  0  0  0  0  0
  -29.7134  -30.1739  -20.1613 C   0  0  0  0  0  0  0  0  0  0  0  0
  -29.7977  -30.0834  -18.7973 C   0  0  0  0  0  0  0  0  0  0  0  0
  -28.5101  -30.0673  -18.3487 N   0  0  0  0  0  0  0  0  0  0  0  0
  -28.0616  -29.5339  -17.0937 C   0  0  0  0  0  0  0  0  0  0  0  0
  -26.6113  -29.8435  -16.7232 C   0  0  0  0  0  0  0  0  0  0  0  0
  -26.5842  -29.9660  -15.2209 C   0  0  0  0  0  0  0  0  0  0  0  0
  -28.0258  -30.1195  -14.7769 C   0  0  0  0  0  0  0  0  0  0  0  0
  -28.9421  -29.9497  -15.9490 C   0  0  0  0  0  0  0  0  0  0  0  0
  -27.6060  -30.2490  -19.3088 N   0  0  0  0  0  0  0  0  0  0  0  0
  -25.8183  -31.6119  -20.8875 N   0  0  0  0  0  0  0  0  0  0  0  0
  -24.7106  -32.5456  -20.8380 C   0  0  0  0  0  0  0  0  0  0  0  0
  -23.4366  -31.9755  -21.4965 C   0  0  0  0  0  0  0  0  0  0  0  0
  -22.8270  -32.7809  -22.5519 N   0  0  0  0  0  0  0  0  0  0  0  0
  -21.3961  -32.7310  -22.7532 C   0  0  0  0  0  0  0  0  0  0  0  0
  -21.2006  -32.9592  -24.2383 C   0  0  0  0  0  0  0  0  0  0  0  0
  -22.4463  -33.7133  -24.6669 C   0  0  0  0  0  0  0  0  0  0  0  0
  -23.4876  -33.2186  -23.6949 C   0  0  0  0  0  0  0  0  0  0  0  0
  -24.6893  -33.2601  -23.9025 O   0  0  0  0  0  0  0  0  0  0  0  0
  1  2  2  0
  2  3  1  0
  3  4  1  0
  4  5  1  0
  5  6  2  0
  6  7  1  0
  7  8  1  0
  8  9  1  0
  9 10  1  0
 10 11  1  0
 11 12  1  0
  7 13  1  0
  2 14  1  0
 14 15  1  0
 15 16  1  0
 16 17  1  0
 17 18  1  0
 18 19  1  0
 19 20  1  0
 20 21  1  0
 21 22  2  0
 13  4  2  0
 21 17  1  0
 12  8  1  0
M  END
>  <id>  (53) 
106992

>  <inchikey>  (53) 
MOWNOSLAQYMJTK-UHFFFAOYSA-N

>  <alias>  (53) 
None

>  <smiles>  (53) 
O=C(Cc1ccn(C2CCCC2)n1)NCCN1CCCC1=O

>  <path>  (53) 
/opt/xchem-fragalysis-2/maxwin/BulkDock/SCRATCH/217087/C41552-P206/C41552-P206.minimised.mol

>  <distance_score>  (53) 
0.892855

>  <energy_score>  (53) 
-19.142453

>  <compound>  (53) 
MOWNOSLAQYMJTK-UHFFFAOYSA-N

>  <compound_id>  (53) 
41552

>  <target>  (53) 
Flavi_NS5_RdRp

>  <tags>  (53) 
['Fragmenstein placed', 'Enamine_Quote_1977854', 'JA curated INTERESTING', 'Knitwork pure merge', 'iter1 scaffolds', 'LCD curated YES', 'Green Site/RNA tunnel merge', 'Enamine_Quote_1970815', 'best elaborated iter1 scaffold poses', 'acceptable']

>  <inspirations>  (53) 
{P Ã— 2}

>  <subsites>  (53) 
[[1m[4m"Green Site/RNA tunnel"[22m[24m]

>  <reference>  (53) 
z1018a

>  <SLURM_JOB_ID>  (53) 
217087

>  <SLURM_JOB_NAME>  (53) 
BulkDock.place:Flavi_NS5_RdRp:RdRp_knitwork_green_site_rna_tunnel_pure_split4000_batch016

>  <csv_name>  (53) 
RdRp_knitwork_green_site_rna_tunnel_pure_split4000_batch016.csv

>  <scratch_subdir>  (53) 
/opt/xchem-fragalysis-2/maxwin/BulkDock/SCRATCH/217087/C41552-P206

>  <fragmenstein_runtime>  (53) 
4.387921

>  <fragmenstein_outcome>  (53) 
acceptable

>  <fragmenstein_mode>  (53) 
expansion

>  <fragmenstein_error>  (53) 


>  <exports>  (53) 
/opt/xchem-fragalysis-2/maxwin/BulkDock/OUTPUTS/RdRp_knitwork_green_site_rna_tunnel_pure_split4000_batch016_217087.sdf;/opt/xchem-fragalysis-2/maxwin/BulkDock/OUTPUTS/RdRp_knitwork_green_site_rna_tunnel_pure_fragalysis.sdf;/opt/xchem-fragalysis-2/maxwin/RdRp_FFF/quotes/combined_jan2025_ordered.sdf;/opt/xchem-fragalysis-2/maxwin/RdRp_FFF/hippo/iter1_elaborated_scaffold_poses.sdf

>  <Multi-SuCOS>  (53) 
nan

>  <merge_set>  (53) 
nan

$$$$
JQFOUHQLNJADNF-UHFFFAOYSA-N
     RDKit          3D

 22 24  0  0  0  0  0  0  0  0999 V2000
  -24.6241  -33.4840  -24.3603 O   0  0  0  0  0  0  0  0  0  0  0  0
  -23.4211  -33.4152  -24.1875 C   0  0  0  0  0  0  0  0  0  0  0  0
  -22.3841  -34.1544  -24.9893 C   0  0  0  0  0  0  0  0  0  0  0  0
  -21.1509  -33.2901  -24.7788 C   0  0  0  0  0  0  0  0  0  0  0  0
  -21.3241  -32.7208  -23.3849 C   0  0  0  0  0  0  0  0  0  0  0  0
  -22.7531  -32.6800  -23.2217 N   0  0  0  0  0  0  0  0  0  0  0  0
  -23.4103  -31.7108  -22.3660 C   0  0  0  0  0  0  0  0  0  0  0  0
  -24.3500  -32.3408  -21.3435 C   0  0  0  0  0  0  0  0  0  0  0  0
  -25.1971  -31.3160  -20.6629 N   0  0  0  0  0  0  0  0  0  0  0  0
  -26.5938  -30.8636  -21.5018 S   0  0  0  0  0  0  0  0  0  0  0  0
  -26.3562  -29.6759  -22.2770 O   0  0  0  0  0  0  0  0  0  0  0  0
  -27.1131  -32.0520  -22.1251 O   0  0  0  0  0  0  0  0  0  0  0  0
  -27.8942  -30.4151  -20.3432 C   0  0  0  0  0  0  0  0  0  0  0  0
  -29.2002  -30.0879  -20.6828 C   0  0  0  0  0  0  0  0  0  0  0  0
  -29.9472  -30.2714  -19.5215 C   0  0  0  0  0  0  0  0  0  0  0  0
  -29.1986  -30.6434  -18.4900 N   0  0  0  0  0  0  0  0  0  0  0  0
  -27.9178  -30.5561  -18.9401 N   0  0  0  0  0  0  0  0  0  0  0  0
  -26.8950  -30.1651  -17.9682 C   0  0  0  0  0  0  0  0  0  0  0  0
  -27.3699  -28.8664  -17.3073 C   0  0  0  0  0  0  0  0  0  0  0  0
  -28.1645  -29.3023  -16.0750 C   0  0  0  0  0  0  0  0  0  0  0  0
  -27.3740  -30.4763  -15.5339 C   0  0  0  0  0  0  0  0  0  0  0  0
  -26.4037  -30.8479  -16.6625 C   0  0  0  0  0  0  0  0  0  0  0  0
  1  2  2  0
  2  3  1  0
  3  4  1  0
  4  5  1  0
  5  6  1  0
  6  7  1  0
  7  8  1  0
  8  9  1  0
  9 10  1  0
 10 11  2  0
 10 12  2  0
 10 13  1  0
 13 14  2  0
 14 15  1  0
 15 16  2  0
 16 17  1  0
 17 18  1  0
 18 19  1  0
 19 20  1  0
 20 21  1  0
 21 22  1  0
  6  2  1  0
 17 13  1  0
 22 18  1  0
M  END
>  <id>  (54) 
107167

>  <inchikey>  (54) 
JQFOUHQLNJADNF-UHFFFAOYSA-N

>  <alias>  (54) 
None

>  <smiles>  (54) 
O=C1CCCN1CCNS(=O)(=O)c1ccnn1C1CCCC1

>  <path>  (54) 
/opt/xchem-fragalysis-2/maxwin/BulkDock/SCRATCH/217087/C41689-P196/C41689-P196.minimised.mol

>  <distance_score>  (54) 
0.951009

>  <energy_score>  (54) 
-7.303213

>  <compound>  (54) 
JQFOUHQLNJADNF-UHFFFAOYSA-N

>  <compound_id>  (54) 
41689

>  <target>  (54) 
Flavi_NS5_RdRp

>  <tags>  (54) 
['Fragmenstein placed', 'Enamine_Quote_1977854', 'JA curated NO', 'Knitwork pure merge', 'iter1 scaffolds', 'LCD curated YES', 'Green Site/RNA tunnel merge', 'LCD curated INTERESTING', 'acceptable']

>  <inspirations>  (54) 
{P Ã— 2}

>  <subsites>  (54) 
None

>  <reference>  (54) 
z0936a

>  <SLURM_JOB_ID>  (54) 
217087

>  <SLURM_JOB_NAME>  (54) 
BulkDock.place:Flavi_NS5_RdRp:RdRp_knitwork_green_site_rna_tunnel_pure_split4000_batch016

>  <csv_name>  (54) 
RdRp_knitwork_green_site_rna_tunnel_pure_split4000_batch016.csv

>  <scratch_subdir>  (54) 
/opt/xchem-fragalysis-2/maxwin/BulkDock/SCRATCH/217087/C41689-P196

>  <fragmenstein_runtime>  (54) 
10.65897

>  <fragmenstein_outcome>  (54) 
acceptable

>  <fragmenstein_mode>  (54) 
expansion

>  <fragmenstein_error>  (54) 


>  <exports>  (54) 
/opt/xchem-fragalysis-2/maxwin/BulkDock/OUTPUTS/RdRp_knitwork_green_site_rna_tunnel_pure_split4000_batch016_217087.sdf;/opt/xchem-fragalysis-2/maxwin/BulkDock/OUTPUTS/RdRp_knitwork_green_site_rna_tunnel_pure_fragalysis.sdf

>  <Multi-SuCOS>  (54) 
nan

>  <merge_set>  (54) 
nan

$$$$
FOFIBXNPNXTDPY-NSHDSACASA-N
     RDKit          3D

 19 20  0  0  0  0  0  0  0  0999 V2000
  -28.7409  -29.7547  -21.7148 C   0  0  0  0  0  0  0  0  0  0  0  0
  -27.6054  -29.8854  -20.7131 C   0  0  2  0  0  0  0  0  0  0  0  0
  -26.7422  -30.9916  -21.1123 N   0  0  0  0  0  0  0  0  0  0  0  0
  -25.4508  -31.5461  -20.4594 C   0  0  0  0  0  0  0  0  0  0  0  0
  -24.9232  -31.2536  -19.4621 O   0  0  0  0  0  0  0  0  0  0  0  0
  -24.8335  -32.5525  -21.4130 C   0  0  0  0  0  0  0  0  0  0  0  0
  -23.6592  -31.8529  -22.0844 C   0  0  0  0  0  0  0  0  0  0  0  0
  -22.9517  -32.6795  -23.0428 N   0  0  0  0  0  0  0  0  0  0  0  0
  -21.5108  -32.7656  -23.0441 C   0  0  0  0  0  0  0  0  0  0  0  0
  -21.1634  -33.0184  -24.4966 C   0  0  0  0  0  0  0  0  0  0  0  0
  -22.3952  -33.7082  -25.0637 C   0  0  0  0  0  0  0  0  0  0  0  0
  -23.5051  -33.1161  -24.2352 C   0  0  0  0  0  0  0  0  0  0  0  0
  -24.6816  -33.0619  -24.5558 O   0  0  0  0  0  0  0  0  0  0  0  0
  -28.0516  -29.9169  -19.2548 C   0  0  0  0  0  0  0  0  0  0  0  0
  -29.3649  -30.1481  -18.8542 C   0  0  0  0  0  0  0  0  0  0  0  0
  -29.6744  -30.1678  -17.4926 C   0  0  0  0  0  0  0  0  0  0  0  0
  -28.6763  -29.9661  -16.5537 C   0  0  0  0  0  0  0  0  0  0  0  0
  -27.4023  -29.7310  -17.0203 C   0  0  0  0  0  0  0  0  0  0  0  0
  -27.0913  -29.6736  -18.3305 N   0  0  0  0  0  0  0  0  0  0  0  0
  2  1  1  6
  2  3  1  0
  3  4  1  0
  4  5  2  0
  4  6  1  0
  6  7  1  0
  7  8  1  0
  8  9  1  0
  9 10  1  0
 10 11  1  0
 11 12  1  0
 12 13  2  0
  2 14  1  0
 14 15  2  0
 15 16  1  0
 16 17  2  0
 17 18  1  0
 18 19  2  0
 12  8  1  0
 19 14  1  0
M  END
>  <id>  (55) 
111041

>  <inchikey>  (55) 
FOFIBXNPNXTDPY-NSHDSACASA-N

>  <alias>  (55) 
None

>  <smiles>  (55) 
C[C@H](NC(=O)CCN1CCCC1=O)c1ccccn1

>  <path>  (55) 
/opt/xchem-fragalysis-2/maxwin/BulkDock/SCRATCH/217076/C40797-P104/C40797-P104.minimised.mol

>  <distance_score>  (55) 
0.592635

>  <energy_score>  (55) 
-1.380203

>  <compound>  (55) 
FOFIBXNPNXTDPY-UHFFFAOYSA-N

>  <compound_id>  (55) 
40797

>  <target>  (55) 
Flavi_NS5_RdRp

>  <tags>  (55) 
['Fragmenstein placed', 'Enamine_Quote_1977854', 'JA curated NO', 'Knitwork pure merge', 'iter1 scaffolds', 'LCD curated YES', 'Green Site/RNA tunnel merge', 'LCD curated INTERESTING', 'acceptable']

>  <inspirations>  (55) 
{P Ã— 2}

>  <subsites>  (55) 
None

>  <reference>  (55) 
z0215a

>  <SLURM_JOB_ID>  (55) 
217076

>  <SLURM_JOB_NAME>  (55) 
BulkDock.place:Flavi_NS5_RdRp:RdRp_knitwork_green_site_rna_tunnel_pure_split4000_batch005

>  <csv_name>  (55) 
RdRp_knitwork_green_site_rna_tunnel_pure_split4000_batch005.csv

>  <scratch_subdir>  (55) 
/opt/xchem-fragalysis-2/maxwin/BulkDock/SCRATCH/217076/C40797-P104

>  <fragmenstein_runtime>  (55) 
2.434425

>  <fragmenstein_outcome>  (55) 
acceptable

>  <fragmenstein_mode>  (55) 
expansion

>  <fragmenstein_error>  (55) 


>  <exports>  (55) 
/opt/xchem-fragalysis-2/maxwin/BulkDock/OUTPUTS/RdRp_knitwork_green_site_rna_tunnel_pure_split4000_batch005_217076.sdf;/opt/xchem-fragalysis-2/maxwin/BulkDock/OUTPUTS/RdRp_knitwork_green_site_rna_tunnel_pure_fragalysis.sdf

>  <Multi-SuCOS>  (55) 
nan

>  <merge_set>  (55) 
nan

$$$$
OPBKSEQHWDGWCG-UHFFFAOYSA-N
     RDKit          3D

 23 26  0  0  0  0  0  0  0  0999 V2000
  -25.5316  -29.1643  -22.2133 C   0  0  0  0  0  0  0  0  0  0  0  0
  -26.2518  -29.6271  -21.0494 N   0  0  0  0  0  0  0  0  0  0  0  0
  -27.4725  -29.1912  -20.6106 C   0  0  0  0  0  0  0  0  0  0  0  0
  -27.8987  -30.0337  -19.6137 C   0  0  0  0  0  0  0  0  0  0  0  0
  -26.8898  -31.0066  -19.4213 C   0  0  0  0  0  0  0  0  0  0  0  0
  -26.7821  -32.1422  -18.6111 C   0  0  0  0  0  0  0  0  0  0  0  0
  -25.6412  -32.9379  -18.7666 C   0  0  0  0  0  0  0  0  0  0  0  0
  -25.5368  -34.4688  -17.9105 S   0  0  0  0  0  0  0  0  0  0  0  0
  -26.8938  -34.8845  -17.6234 O   0  0  0  0  0  0  0  0  0  0  0  0
  -24.6816  -35.3387  -18.6869 O   0  0  0  0  0  0  0  0  0  0  0  0
  -24.7919  -34.0111  -16.4870 N   0  0  0  0  0  0  0  0  0  0  0  0
  -23.4914  -33.4317  -16.4184 C   0  0  0  0  0  0  0  0  0  0  0  0
  -22.4291  -33.8376  -17.2332 C   0  0  0  0  0  0  0  0  0  0  0  0
  -21.1631  -33.2441  -17.1406 C   0  0  0  0  0  0  0  0  0  0  0  0
  -21.0083  -32.2641  -16.1669 C   0  0  0  0  0  0  0  0  0  0  0  0
  -19.8640  -31.5733  -15.9154 O   0  0  0  0  0  0  0  0  0  0  0  0
  -20.1318  -30.7244  -14.8889 C   0  0  0  0  0  0  0  0  0  0  0  0
  -21.4345  -30.8700  -14.4675 C   0  0  0  0  0  0  0  0  0  0  0  0
  -22.0165  -31.8628  -15.3000 C   0  0  0  0  0  0  0  0  0  0  0  0
  -23.2808  -32.4671  -15.4213 C   0  0  0  0  0  0  0  0  0  0  0  0
  -24.6087  -32.6139  -19.6413 C   0  0  0  0  0  0  0  0  0  0  0  0
  -24.6816  -31.4652  -20.4011 C   0  0  0  0  0  0  0  0  0  0  0  0
  -25.8497  -30.7058  -20.3025 C   0  0  0  0  0  0  0  0  0  0  0  0
  1  2  1  0
  2  3  1  0
  3  4  2  0
  4  5  1  0
  5  6  2  0
  6  7  1  0
  7  8  1  0
  8  9  2  0
  8 10  2  0
  8 11  1  0
 11 12  1  0
 12 13  2  0
 13 14  1  0
 14 15  2  0
 15 16  1  0
 16 17  1  0
 17 18  2  0
 18 19  1  0
 19 20  2  0
  7 21  2  0
 21 22  1  0
 22 23  2  0
 23  2  1  0
 23  5  1  0
 20 12  1  0
 19 15  1  0
M  END
>  <id>  (56) 
119535

>  <inchikey>  (56) 
OPBKSEQHWDGWCG-UHFFFAOYSA-N

>  <alias>  (56) 
None

>  <smiles>  (56) 
Cn1ccc2cc(S(=O)(=O)Nc3ccc4occc4c3)ccc21

>  <path>  (56) 
/opt/xchem-fragalysis-2/maxwin/BulkDock/SCRATCH/217082/C40440-P218/C40440-P218.minimised.mol

>  <distance_score>  (56) 
0.974188

>  <energy_score>  (56) 
-40.603633

>  <compound>  (56) 
OPBKSEQHWDGWCG-UHFFFAOYSA-N

>  <compound_id>  (56) 
40440

>  <target>  (56) 
Flavi_NS5_RdRp

>  <tags>  (56) 
['Fragmenstein placed', 'Enamine_Quote_1977854', 'JA curated NO', 'Knitwork pure merge', 'iter1 scaffolds', 'LCD curated YES', 'Green Site/RNA tunnel merge', 'acceptable']

>  <inspirations>  (56) 
{P Ã— 2}

>  <subsites>  (56) 
None

>  <reference>  (56) 
3vws-a

>  <SLURM_JOB_ID>  (56) 
217082

>  <SLURM_JOB_NAME>  (56) 
BulkDock.place:Flavi_NS5_RdRp:RdRp_knitwork_green_site_rna_tunnel_pure_split4000_batch011

>  <csv_name>  (56) 
RdRp_knitwork_green_site_rna_tunnel_pure_split4000_batch011.csv

>  <scratch_subdir>  (56) 
/opt/xchem-fragalysis-2/maxwin/BulkDock/SCRATCH/217082/C40440-P218

>  <fragmenstein_runtime>  (56) 
9.030925

>  <fragmenstein_outcome>  (56) 
acceptable

>  <fragmenstein_mode>  (56) 
expansion

>  <fragmenstein_error>  (56) 


>  <exports>  (56) 
/opt/xchem-fragalysis-2/maxwin/BulkDock/OUTPUTS/RdRp_knitwork_green_site_rna_tunnel_pure_split4000_batch011_217082.sdf;/opt/xchem-fragalysis-2/maxwin/BulkDock/OUTPUTS/RdRp_knitwork_green_site_rna_tunnel_pure_fragalysis.sdf

>  <Multi-SuCOS>  (56) 
nan

>  <merge_set>  (56) 
nan

$$$$
XZCHKOUIHXKRTC-GFCCVEGCSA-N
     RDKit          3D

 22 24  0  0  0  0  0  0  0  0999 V2000
  -23.8341  -33.2180  -19.7900 C   0  0  0  0  0  0  0  0  0  0  0  0
  -24.6108  -32.6226  -20.9575 C   0  0  2  0  0  0  0  0  0  0  0  0
  -23.6739  -31.8003  -21.8769 C   0  0  0  0  0  0  0  0  0  0  0  0
  -22.9404  -32.5900  -22.8543 N   0  0  0  0  0  0  0  0  0  0  0  0
  -21.5073  -32.7450  -22.7978 C   0  0  0  0  0  0  0  0  0  0  0  0
  -21.1230  -33.0525  -24.2331 C   0  0  0  0  0  0  0  0  0  0  0  0
  -22.3650  -33.7091  -24.8206 C   0  0  0  0  0  0  0  0  0  0  0  0
  -23.4842  -33.0754  -24.0327 C   0  0  0  0  0  0  0  0  0  0  0  0
  -24.6550  -33.0400  -24.3800 O   0  0  0  0  0  0  0  0  0  0  0  0
  -25.7213  -31.8143  -20.4626 N   0  0  0  0  0  0  0  0  0  0  0  0
  -26.6796  -30.8782  -21.2055 C   0  0  0  0  0  0  0  0  0  0  0  0
  -26.6915  -30.5400  -22.3187 O   0  0  0  0  0  0  0  0  0  0  0  0
  -27.8092  -30.3283  -20.3606 C   0  0  0  0  0  0  0  0  0  0  0  0
  -28.9269  -29.9237  -21.1074 C   0  0  0  0  0  0  0  0  0  0  0  0
  -30.1483  -29.6769  -20.5125 C   0  0  0  0  0  0  0  0  0  0  0  0
  -30.2343  -29.7367  -19.1359 C   0  0  0  0  0  0  0  0  0  0  0  0
  -29.1104  -29.9005  -18.3505 C   0  0  0  0  0  0  0  0  0  0  0  0
  -29.2837  -29.7473  -17.0305 N   0  0  0  0  0  0  0  0  0  0  0  0
  -28.1920  -29.7511  -16.2444 C   0  0  0  0  0  0  0  0  0  0  0  0
  -26.9085  -29.9087  -16.7204 C   0  0  0  0  0  0  0  0  0  0  0  0
  -26.7414  -30.1329  -18.0821 C   0  0  0  0  0  0  0  0  0  0  0  0
  -27.8542  -30.1603  -18.9539 C   0  0  0  0  0  0  0  0  0  0  0  0
  2  1  1  1
  2  3  1  0
  3  4  1  0
  4  5  1  0
  5  6  1  0
  6  7  1  0
  7  8  1  0
  8  9  2  0
  2 10  1  0
 10 11  1  0
 11 12  2  0
 11 13  1  0
 13 14  2  0
 14 15  1  0
 15 16  2  0
 16 17  1  0
 17 18  2  0
 18 19  1  0
 19 20  2  0
 20 21  1  0
 21 22  2  0
  8  4  1  0
 22 13  1  0
 22 17  1  0
M  END
>  <id>  (57) 
119882

>  <inchikey>  (57) 
XZCHKOUIHXKRTC-GFCCVEGCSA-N

>  <alias>  (57) 
None

>  <smiles>  (57) 
C[C@H](CN1CCCC1=O)NC(=O)c1cccc2ncccc12

>  <path>  (57) 
/opt/xchem-fragalysis-2/maxwin/BulkDock/SCRATCH/217082/C65404-P206/C65404-P206.minimised.mol

>  <distance_score>  (57) 
0.843755

>  <energy_score>  (57) 
-45.046073

>  <compound>  (57) 
XZCHKOUIHXKRTC-UHFFFAOYSA-N

>  <compound_id>  (57) 
65404

>  <target>  (57) 
Flavi_NS5_RdRp

>  <tags>  (57) 
['Fragmenstein placed', 'JA curated INTERESTING', 'Knitwork pure merge', 'iter1 scaffolds', 'LCD curated YES', 'Enamine_unavailable', 'Green Site/RNA tunnel merge', 'Enamine_Quote_1970815', 'best elaborated iter1 scaffold poses', 'acceptable']

>  <inspirations>  (57) 
{P Ã— 2}

>  <subsites>  (57) 
[[1m[4m"Green Site/RNA tunnel"[22m[24m]

>  <reference>  (57) 
z1018a

>  <SLURM_JOB_ID>  (57) 
217082

>  <SLURM_JOB_NAME>  (57) 
BulkDock.place:Flavi_NS5_RdRp:RdRp_knitwork_green_site_rna_tunnel_pure_split4000_batch011

>  <csv_name>  (57) 
RdRp_knitwork_green_site_rna_tunnel_pure_split4000_batch011.csv

>  <scratch_subdir>  (57) 
/opt/xchem-fragalysis-2/maxwin/BulkDock/SCRATCH/217082/C65404-P206

>  <fragmenstein_runtime>  (57) 
5.61817

>  <fragmenstein_outcome>  (57) 
acceptable

>  <fragmenstein_mode>  (57) 
expansion

>  <fragmenstein_error>  (57) 


>  <exports>  (57) 
/opt/xchem-fragalysis-2/maxwin/BulkDock/OUTPUTS/RdRp_knitwork_green_site_rna_tunnel_pure_split4000_batch011_217082.sdf;/opt/xchem-fragalysis-2/maxwin/BulkDock/OUTPUTS/RdRp_knitwork_green_site_rna_tunnel_pure_fragalysis.sdf;/opt/xchem-fragalysis-2/maxwin/RdRp_FFF/quotes/combined_jan2025_ordered.sdf;/opt/xchem-fragalysis-2/maxwin/RdRp_FFF/hippo/iter1_elaborated_scaffold_poses.sdf

>  <Multi-SuCOS>  (57) 
nan

>  <merge_set>  (57) 
nan

$$$$
GNOBTQCXYBMFAB-UHFFFAOYSA-N
     RDKit          3D

 24 26  0  0  0  0  0  0  0  0999 V2000
  -30.2528  -29.7127  -20.9036 C   0  0  0  0  0  0  0  0  0  0  0  0
  -30.3002  -30.6909  -19.8734 O   0  0  0  0  0  0  0  0  0  0  0  0
  -29.2560  -30.5773  -18.9935 C   0  0  0  0  0  0  0  0  0  0  0  0
  -29.6252  -30.3364  -17.6758 C   0  0  0  0  0  0  0  0  0  0  0  0
  -28.6506  -30.2725  -16.6943 C   0  0  0  0  0  0  0  0  0  0  0  0
  -27.2992  -30.4117  -17.0378 C   0  0  0  0  0  0  0  0  0  0  0  0
  -26.3153  -30.3703  -16.0458 C   0  0  0  0  0  0  0  0  0  0  0  0
  -24.9710  -30.4436  -16.3714 C   0  0  0  0  0  0  0  0  0  0  0  0
  -24.6445  -30.5644  -17.6957 C   0  0  0  0  0  0  0  0  0  0  0  0
  -25.5663  -30.6476  -18.6822 N   0  0  0  0  0  0  0  0  0  0  0  0
  -26.8948  -30.6044  -18.3744 C   0  0  0  0  0  0  0  0  0  0  0  0
  -27.9047  -30.7737  -19.3477 C   0  0  0  0  0  0  0  0  0  0  0  0
  -27.5766  -31.2086  -20.7601 C   0  0  0  0  0  0  0  0  0  0  0  0
  -26.2692  -31.7616  -20.8920 N   0  0  0  0  0  0  0  0  0  0  0  0
  -25.8063  -33.1157  -21.4754 C   0  0  0  0  0  0  0  0  0  0  0  0
  -26.4136  -33.9556  -22.0081 O   0  0  0  0  0  0  0  0  0  0  0  0
  -24.3085  -33.1967  -21.2020 C   0  0  0  0  0  0  0  0  0  0  0  0
  -23.5290  -32.0848  -21.9029 C   0  0  0  0  0  0  0  0  0  0  0  0
  -22.8344  -32.5557  -23.0800 N   0  0  0  0  0  0  0  0  0  0  0  0
  -21.4873  -33.0473  -23.0374 C   0  0  0  0  0  0  0  0  0  0  0  0
  -21.1351  -33.1213  -24.5058 C   0  0  0  0  0  0  0  0  0  0  0  0
  -22.4489  -33.5006  -25.1750 C   0  0  0  0  0  0  0  0  0  0  0  0
  -23.4655  -32.8377  -24.2817 C   0  0  0  0  0  0  0  0  0  0  0  0
  -24.6314  -32.6361  -24.5695 O   0  0  0  0  0  0  0  0  0  0  0  0
  1  2  1  0
  2  3  1  0
  3  4  2  0
  4  5  1  0
  5  6  2  0
  6  7  1  0
  7  8  2  0
  8  9  1  0
  9 10  2  0
 10 11  1  0
 11 12  2  0
 12 13  1  0
 13 14  1  0
 14 15  1  0
 15 16  2  0
 15 17  1  0
 17 18  1  0
 18 19  1  0
 19 20  1  0
 20 21  1  0
 21 22  1  0
 22 23  1  0
 23 24  2  0
 12  3  1  0
 23 19  1  0
 11  6  1  0
M  END
>  <id>  (58) 
120066

>  <inchikey>  (58) 
GNOBTQCXYBMFAB-UHFFFAOYSA-N

>  <alias>  (58) 
None

>  <smiles>  (58) 
COc1ccc2cccnc2c1CNC(=O)CCN1CCCC1=O

>  <path>  (58) 
/opt/xchem-fragalysis-2/maxwin/BulkDock/SCRATCH/217082/C65434-P208/C65434-P208.minimised.mol

>  <distance_score>  (58) 
0.958207

>  <energy_score>  (58) 
-27.278727

>  <compound>  (58) 
GNOBTQCXYBMFAB-UHFFFAOYSA-N

>  <compound_id>  (58) 
65434

>  <target>  (58) 
Flavi_NS5_RdRp

>  <tags>  (58) 
['Fragmenstein placed', 'Enamine_Quote_1977854', 'JA curated NO', 'Knitwork pure merge', 'Green Site/RNA tunnel merge', 'best elaborated iter1 scaffold poses', 'acceptable']

>  <inspirations>  (58) 
{P Ã— 2}

>  <subsites>  (58) 
[[1m[4m"Green Site/RNA tunnel"[22m[24m]

>  <reference>  (58) 
z1040a

>  <SLURM_JOB_ID>  (58) 
217082

>  <SLURM_JOB_NAME>  (58) 
BulkDock.place:Flavi_NS5_RdRp:RdRp_knitwork_green_site_rna_tunnel_pure_split4000_batch011

>  <csv_name>  (58) 
RdRp_knitwork_green_site_rna_tunnel_pure_split4000_batch011.csv

>  <scratch_subdir>  (58) 
/opt/xchem-fragalysis-2/maxwin/BulkDock/SCRATCH/217082/C65434-P208

>  <fragmenstein_runtime>  (58) 
6.519452

>  <fragmenstein_outcome>  (58) 
acceptable

>  <fragmenstein_mode>  (58) 
expansion

>  <fragmenstein_error>  (58) 


>  <exports>  (58) 
/opt/xchem-fragalysis-2/maxwin/BulkDock/OUTPUTS/RdRp_knitwork_green_site_rna_tunnel_pure_split4000_batch011_217082.sdf;/opt/xchem-fragalysis-2/maxwin/BulkDock/OUTPUTS/RdRp_knitwork_green_site_rna_tunnel_pure_fragalysis.sdf;/opt/xchem-fragalysis-2/maxwin/RdRp_FFF/hippo/iter1_elaborated_scaffold_poses.sdf

>  <Multi-SuCOS>  (58) 
nan

>  <merge_set>  (58) 
nan

$$$$
UITHGRVXYULYQA-UHFFFAOYSA-N
     RDKit          3D

 21 23  0  0  0  0  0  0  0  0999 V2000
  -27.2779  -30.1216  -22.2807 O   0  0  0  0  0  0  0  0  0  0  0  0
  -27.2067  -30.6225  -21.2309 C   0  0  0  0  0  0  0  0  0  0  0  0
  -26.2667  -31.7292  -20.7142 N   0  0  0  0  0  0  0  0  0  0  0  0
  -25.2710  -32.5263  -21.4139 C   0  0  0  0  0  0  0  0  0  0  0  0
  -24.0921  -31.7112  -21.9678 C   0  0  0  0  0  0  0  0  0  0  0  0
  -23.2066  -32.4740  -22.8383 N   0  0  0  0  0  0  0  0  0  0  0  0
  -21.7982  -32.6409  -22.5674 C   0  0  0  0  0  0  0  0  0  0  0  0
  -21.1985  -32.9035  -23.9376 C   0  0  0  0  0  0  0  0  0  0  0  0
  -22.3315  -33.5543  -24.7189 C   0  0  0  0  0  0  0  0  0  0  0  0
  -23.5578  -32.9385  -24.0943 C   0  0  0  0  0  0  0  0  0  0  0  0
  -24.6645  -32.8973  -24.6069 O   0  0  0  0  0  0  0  0  0  0  0  0
  -28.2376  -30.2016  -20.2199 C   0  0  0  0  0  0  0  0  0  0  0  0
  -29.5025  -29.9143  -20.7447 C   0  0  0  0  0  0  0  0  0  0  0  0
  -30.5694  -29.7966  -19.8928 C   0  0  0  0  0  0  0  0  0  0  0  0
  -30.4341  -29.8386  -18.5634 N   0  0  0  0  0  0  0  0  0  0  0  0
  -29.2029  -29.9143  -18.0572 C   0  0  0  0  0  0  0  0  0  0  0  0
  -29.1068  -29.7877  -16.6881 C   0  0  0  0  0  0  0  0  0  0  0  0
  -27.8765  -29.7851  -16.0385 C   0  0  0  0  0  0  0  0  0  0  0  0
  -26.7090  -29.9153  -16.7744 C   0  0  0  0  0  0  0  0  0  0  0  0
  -26.7850  -30.0899  -18.1542 C   0  0  0  0  0  0  0  0  0  0  0  0
  -28.0349  -30.0932  -18.8276 C   0  0  0  0  0  0  0  0  0  0  0  0
  1  2  2  0
  2  3  1  0
  3  4  1  0
  4  5  1  0
  5  6  1  0
  6  7  1  0
  7  8  1  0
  8  9  1  0
  9 10  1  0
 10 11  2  0
  2 12  1  0
 12 13  2  0
 13 14  1  0
 14 15  2  0
 15 16  1  0
 16 17  2  0
 17 18  1  0
 18 19  2  0
 19 20  1  0
 20 21  2  0
 10  6  1  0
 21 12  1  0
 21 16  1  0
M  END
>  <id>  (59) 
120695

>  <inchikey>  (59) 
UITHGRVXYULYQA-UHFFFAOYSA-N

>  <alias>  (59) 
None

>  <smiles>  (59) 
O=C(NCCN1CCCC1=O)c1ccnc2ccccc12

>  <path>  (59) 
/opt/xchem-fragalysis-2/maxwin/BulkDock/SCRATCH/217082/C65644-P206/C65644-P206.minimised.mol

>  <distance_score>  (59) 
0.850362

>  <energy_score>  (59) 
-42.700457

>  <compound>  (59) 
UITHGRVXYULYQA-UHFFFAOYSA-N

>  <compound_id>  (59) 
65644

>  <target>  (59) 
Flavi_NS5_RdRp

>  <tags>  (59) 
['Fragmenstein placed', 'Enamine_Quote_1977854', 'JA curated INTERESTING', 'Knitwork pure merge', 'iter1 scaffolds', 'LCD curated YES', 'Green Site/RNA tunnel merge', 'Enamine_Quote_1970815', 'acceptable']

>  <inspirations>  (59) 
{P Ã— 2}

>  <subsites>  (59) 
None

>  <reference>  (59) 
z1018a

>  <SLURM_JOB_ID>  (59) 
217082

>  <SLURM_JOB_NAME>  (59) 
BulkDock.place:Flavi_NS5_RdRp:RdRp_knitwork_green_site_rna_tunnel_pure_split4000_batch011

>  <csv_name>  (59) 
RdRp_knitwork_green_site_rna_tunnel_pure_split4000_batch011.csv

>  <scratch_subdir>  (59) 
/opt/xchem-fragalysis-2/maxwin/BulkDock/SCRATCH/217082/C65644-P206

>  <fragmenstein_runtime>  (59) 
3.825018

>  <fragmenstein_outcome>  (59) 
acceptable

>  <fragmenstein_mode>  (59) 
expansion

>  <fragmenstein_error>  (59) 


>  <exports>  (59) 
/opt/xchem-fragalysis-2/maxwin/BulkDock/OUTPUTS/RdRp_knitwork_green_site_rna_tunnel_pure_split4000_batch011_217082.sdf;/opt/xchem-fragalysis-2/maxwin/BulkDock/OUTPUTS/RdRp_knitwork_green_site_rna_tunnel_pure_fragalysis.sdf;/opt/xchem-fragalysis-2/maxwin/RdRp_FFF/quotes/combined_jan2025_ordered.sdf

>  <Multi-SuCOS>  (59) 
nan

>  <merge_set>  (59) 
nan

$$$$
NLPSSNMFGBLZAP-UHFFFAOYSA-N
     RDKit          3D

 22 24  0  0  0  0  0  0  0  0999 V2000
  -27.1967  -30.2682  -22.3865 O   0  0  0  0  0  0  0  0  0  0  0  0
  -27.2213  -30.8945  -21.4052 C   0  0  0  0  0  0  0  0  0  0  0  0
  -26.3512  -32.0798  -20.9578 N   0  0  0  0  0  0  0  0  0  0  0  0
  -25.3257  -32.8090  -21.6639 C   0  0  0  0  0  0  0  0  0  0  0  0
  -24.1514  -31.9158  -22.0903 C   0  0  0  0  0  0  0  0  0  0  0  0
  -23.2179  -32.6043  -22.9617 N   0  0  0  0  0  0  0  0  0  0  0  0
  -21.8198  -32.7429  -22.6608 C   0  0  0  0  0  0  0  0  0  0  0  0
  -21.1852  -32.9417  -24.0225 C   0  0  0  0  0  0  0  0  0  0  0  0
  -22.2889  -33.5362  -24.8852 C   0  0  0  0  0  0  0  0  0  0  0  0
  -23.5361  -32.9941  -24.2501 C   0  0  0  0  0  0  0  0  0  0  0  0
  -24.6321  -32.9675  -24.7810 O   0  0  0  0  0  0  0  0  0  0  0  0
  -28.2583  -30.5338  -20.3957 C   0  0  0  0  0  0  0  0  0  0  0  0
  -29.4959  -30.2335  -20.9414 C   0  0  0  0  0  0  0  0  0  0  0  0
  -30.5551  -30.0991  -20.0983 C   0  0  0  0  0  0  0  0  0  0  0  0
  -31.7717  -29.8546  -20.6289 O   0  0  0  0  0  0  0  0  0  0  0  0
  -30.4921  -30.1818  -18.7736 N   0  0  0  0  0  0  0  0  0  0  0  0
  -29.2789  -30.3334  -18.2399 C   0  0  0  0  0  0  0  0  0  0  0  0
  -29.2115  -30.3151  -16.8619 C   0  0  0  0  0  0  0  0  0  0  0  0
  -27.9952  -30.4098  -16.1931 C   0  0  0  0  0  0  0  0  0  0  0  0
  -26.8136  -30.5033  -16.9164 C   0  0  0  0  0  0  0  0  0  0  0  0
  -26.8558  -30.5362  -18.3080 C   0  0  0  0  0  0  0  0  0  0  0  0
  -28.0922  -30.4875  -18.9965 C   0  0  0  0  0  0  0  0  0  0  0  0
  1  2  2  0
  2  3  1  0
  3  4  1  0
  4  5  1  0
  5  6  1  0
  6  7  1  0
  7  8  1  0
  8  9  1  0
  9 10  1  0
 10 11  2  0
  2 12  1  0
 12 13  2  0
 13 14  1  0
 14 15  1  0
 14 16  2  0
 16 17  1  0
 17 18  2  0
 18 19  1  0
 19 20  2  0
 20 21  1  0
 21 22  2  0
 10  6  1  0
 22 12  1  0
 22 17  1  0
M  END
>  <id>  (60) 
120781

>  <inchikey>  (60) 
NLPSSNMFGBLZAP-UHFFFAOYSA-N

>  <alias>  (60) 
None

>  <smiles>  (60) 
O=C(NCCN1CCCC1=O)c1cc(O)nc2ccccc12

>  <path>  (60) 
/opt/xchem-fragalysis-2/maxwin/BulkDock/SCRATCH/217082/C65691-P208/C65691-P208.minimised.mol

>  <distance_score>  (60) 
0.805255

>  <energy_score>  (60) 
-76.243004

>  <compound>  (60) 
NLPSSNMFGBLZAP-UHFFFAOYSA-N

>  <compound_id>  (60) 
65691

>  <target>  (60) 
Flavi_NS5_RdRp

>  <tags>  (60) 
['Fragmenstein placed', 'Enamine_Quote_1977854', 'JA curated NO', 'Knitwork pure merge', 'Green Site/RNA tunnel merge', 'best elaborated iter1 scaffold poses', 'acceptable']

>  <inspirations>  (60) 
{P Ã— 2}

>  <subsites>  (60) 
[[1m[4m"Green Site/RNA tunnel"[22m[24m]

>  <reference>  (60) 
z1040a

>  <SLURM_JOB_ID>  (60) 
217082

>  <SLURM_JOB_NAME>  (60) 
BulkDock.place:Flavi_NS5_RdRp:RdRp_knitwork_green_site_rna_tunnel_pure_split4000_batch011

>  <csv_name>  (60) 
RdRp_knitwork_green_site_rna_tunnel_pure_split4000_batch011.csv

>  <scratch_subdir>  (60) 
/opt/xchem-fragalysis-2/maxwin/BulkDock/SCRATCH/217082/C65691-P208

>  <fragmenstein_runtime>  (60) 
4.185887

>  <fragmenstein_outcome>  (60) 
acceptable

>  <fragmenstein_mode>  (60) 
expansion

>  <fragmenstein_error>  (60) 


>  <exports>  (60) 
/opt/xchem-fragalysis-2/maxwin/BulkDock/OUTPUTS/RdRp_knitwork_green_site_rna_tunnel_pure_split4000_batch011_217082.sdf;/opt/xchem-fragalysis-2/maxwin/BulkDock/OUTPUTS/RdRp_knitwork_green_site_rna_tunnel_pure_fragalysis.sdf;/opt/xchem-fragalysis-2/maxwin/RdRp_FFF/hippo/iter1_elaborated_scaffold_poses.sdf

>  <Multi-SuCOS>  (60) 
nan

>  <merge_set>  (60) 
nan

$$$$
XPDDKFHYDJHELS-UHFFFAOYSA-N
     RDKit          3D

 22 24  0  0  0  0  0  0  0  0999 V2000
  -24.6107  -31.6016  -13.1238 O   0  0  0  0  0  0  0  0  0  0  0  0
  -23.8349  -30.8176  -13.4942 C   0  0  0  0  0  0  0  0  0  0  0  0
  -24.1619  -29.5535  -14.2657 C   0  0  0  0  0  0  0  0  0  0  0  0
  -25.5432  -29.5683  -14.8927 C   0  0  0  0  0  0  0  0  0  0  0  0
  -25.8130  -30.7354  -15.8356 C   0  0  0  0  0  0  0  0  0  0  0  0
  -27.1386  -30.4957  -16.5091 C   0  0  0  0  0  0  0  0  0  0  0  0
  -27.1915  -30.0307  -17.8213 C   0  0  0  0  0  0  0  0  0  0  0  0
  -28.4321  -29.8150  -18.3938 C   0  0  0  0  0  0  0  0  0  0  0  0
  -29.6016  -30.0231  -17.7520 N   0  0  0  0  0  0  0  0  0  0  0  0
  -29.5259  -30.4659  -16.4807 C   0  0  0  0  0  0  0  0  0  0  0  0
  -28.3345  -30.7096  -15.8234 C   0  0  0  0  0  0  0  0  0  0  0  0
  -22.2956  -30.8311  -13.4353 N   0  0  0  0  0  0  0  0  0  0  0  0
  -21.3927  -31.8479  -12.9975 C   0  0  0  0  0  0  0  0  0  0  0  0
  -20.7310  -32.1948  -14.2797 C   0  0  0  0  0  0  0  0  0  0  0  0
  -19.4443  -31.8881  -14.6698 C   0  0  0  0  0  0  0  0  0  0  0  0
  -19.2550  -32.1771  -15.9824 O   0  0  0  0  0  0  0  0  0  0  0  0
  -20.4240  -32.6918  -16.4539 C   0  0  0  0  0  0  0  0  0  0  0  0
  -20.6638  -33.0806  -17.7694 C   0  0  0  0  0  0  0  0  0  0  0  0
  -21.9472  -33.5538  -18.0579 C   0  0  0  0  0  0  0  0  0  0  0  0
  -22.9236  -33.6347  -17.0652 C   0  0  0  0  0  0  0  0  0  0  0  0
  -22.6508  -33.2435  -15.7480 C   0  0  0  0  0  0  0  0  0  0  0  0
  -21.3666  -32.7548  -15.4380 C   0  0  0  0  0  0  0  0  0  0  0  0
  1  2  2  0
  2  3  1  0
  3  4  1  0
  4  5  1  0
  5  6  1  0
  6  7  2  0
  7  8  1  0
  8  9  2  0
  9 10  1  0
 10 11  2  0
  2 12  1  0
 12 13  1  0
 13 14  1  0
 14 15  2  0
 15 16  1  0
 16 17  1  0
 17 18  2  0
 18 19  1  0
 19 20  2  0
 20 21  1  0
 21 22  2  0
 11  6  1  0
 22 14  1  0
 22 17  1  0
M  END
>  <id>  (61) 
124588

>  <inchikey>  (61) 
XPDDKFHYDJHELS-UHFFFAOYSA-N

>  <alias>  (61) 
None

>  <smiles>  (61) 
O=C(CCCc1ccncc1)NCc1coc2ccccc12

>  <path>  (61) 
/opt/xchem-fragalysis-2/maxwin/BulkDock/SCRATCH/217073/C35920-P104/C35920-P104.minimised.mol

>  <distance_score>  (61) 
0.982226

>  <energy_score>  (61) 
-25.21299

>  <compound>  (61) 
XPDDKFHYDJHELS-UHFFFAOYSA-N

>  <compound_id>  (61) 
35920

>  <target>  (61) 
Flavi_NS5_RdRp

>  <tags>  (61) 
['Fragmenstein placed', 'Enamine_Quote_1977854', 'JA curated NO', 'Knitwork pure merge', 'iter1 scaffolds', 'LCD curated YES', 'Green Site/RNA tunnel merge', 'best elaborated iter1 scaffold poses', 'LCD curated INTERESTING', 'acceptable']

>  <inspirations>  (61) 
{P Ã— 2}

>  <subsites>  (61) 
[[1m[4m"Green Site/RNA tunnel"[22m[24m]

>  <reference>  (61) 
z0215a

>  <SLURM_JOB_ID>  (61) 
217073

>  <SLURM_JOB_NAME>  (61) 
BulkDock.place:Flavi_NS5_RdRp:RdRp_knitwork_green_site_rna_tunnel_pure_split4000_batch002

>  <csv_name>  (61) 
RdRp_knitwork_green_site_rna_tunnel_pure_split4000_batch002.csv

>  <scratch_subdir>  (61) 
/opt/xchem-fragalysis-2/maxwin/BulkDock/SCRATCH/217073/C35920-P104

>  <fragmenstein_runtime>  (61) 
3.360136

>  <fragmenstein_outcome>  (61) 
acceptable

>  <fragmenstein_mode>  (61) 
expansion

>  <fragmenstein_error>  (61) 


>  <exports>  (61) 
/opt/xchem-fragalysis-2/maxwin/BulkDock/OUTPUTS/RdRp_knitwork_green_site_rna_tunnel_pure_split4000_batch002_217073.sdf;/opt/xchem-fragalysis-2/maxwin/BulkDock/OUTPUTS/RdRp_knitwork_green_site_rna_tunnel_pure_fragalysis.sdf;/opt/xchem-fragalysis-2/maxwin/RdRp_FFF/hippo/iter1_elaborated_scaffold_poses.sdf

>  <Multi-SuCOS>  (61) 
nan

>  <merge_set>  (61) 
nan

$$$$
COECYTDITAWNNP-UHFFFAOYSA-N
     RDKit          3D

 17 19  0  0  0  0  0  0  0  0999 V2000
  -27.2112  -31.6550  -19.2421 C   0  0  0  0  0  0  0  0  0  0  0  0
  -26.9018  -32.8751  -18.6645 C   0  0  0  0  0  0  0  0  0  0  0  0
  -25.6359  -33.4116  -18.8382 C   0  0  0  0  0  0  0  0  0  0  0  0
  -24.6763  -32.6651  -19.5169 C   0  0  0  0  0  0  0  0  0  0  0  0
  -23.2742  -33.2069  -19.7304 C   0  0  0  0  0  0  0  0  0  0  0  0
  -22.7799  -34.1106  -18.6624 N   0  0  0  0  0  0  0  0  0  0  0  0
  -22.3997  -33.4162  -17.4867 C   0  0  0  0  0  0  0  0  0  0  0  0
  -23.2717  -33.4000  -16.3888 C   0  0  0  0  0  0  0  0  0  0  0  0
  -22.9845  -32.6820  -15.2187 C   0  0  0  0  0  0  0  0  0  0  0  0
  -21.7873  -31.9553  -15.1606 C   0  0  0  0  0  0  0  0  0  0  0  0
  -21.1476  -31.1187  -14.2086 C   0  0  0  0  0  0  0  0  0  0  0  0
  -19.9703  -30.7017  -14.7875 C   0  0  0  0  0  0  0  0  0  0  0  0
  -19.8336  -31.2330  -16.0304 O   0  0  0  0  0  0  0  0  0  0  0  0
  -20.9409  -31.9895  -16.2621 C   0  0  0  0  0  0  0  0  0  0  0  0
  -21.2002  -32.6947  -17.4360 C   0  0  0  0  0  0  0  0  0  0  0  0
  -24.9678  -31.4651  -20.0884 N   0  0  0  0  0  0  0  0  0  0  0  0
  -26.2216  -30.9940  -19.9428 C   0  0  0  0  0  0  0  0  0  0  0  0
  1  2  2  0
  2  3  1  0
  3  4  2  0
  4  5  1  0
  5  6  1  0
  6  7  1  0
  7  8  2  0
  8  9  1  0
  9 10  2  0
 10 11  1  0
 11 12  2  0
 12 13  1  0
 13 14  1  0
 14 15  2  0
  4 16  1  0
 16 17  2  0
 17  1  1  0
 15  7  1  0
 14 10  1  0
M  END
>  <id>  (62) 
126992

>  <inchikey>  (62) 
COECYTDITAWNNP-UHFFFAOYSA-N

>  <alias>  (62) 
None

>  <smiles>  (62) 
c1ccc(CNc2ccc3ccoc3c2)nc1

>  <path>  (62) 
/opt/xchem-fragalysis-2/maxwin/BulkDock/SCRATCH/217077/C34650-P218/C34650-P218.minimised.mol

>  <distance_score>  (62) 
0.802331

>  <energy_score>  (62) 
-19.39916

>  <compound>  (62) 
ASAP-0038667

>  <compound_id>  (62) 
34650

>  <target>  (62) 
Flavi_NS5_RdRp

>  <tags>  (62) 
['Fragmenstein placed', 'Enamine_Quote_1977854', 'JA curated NO', 'Knitwork pure merge', 'iter1 scaffolds', 'LCD curated YES', 'Green Site/RNA tunnel merge', 'LCD curated INTERESTING', 'acceptable']

>  <inspirations>  (62) 
{P Ã— 2}

>  <subsites>  (62) 
None

>  <reference>  (62) 
3vws-a

>  <SLURM_JOB_ID>  (62) 
217077

>  <SLURM_JOB_NAME>  (62) 
BulkDock.place:Flavi_NS5_RdRp:RdRp_knitwork_green_site_rna_tunnel_pure_split4000_batch006

>  <csv_name>  (62) 
RdRp_knitwork_green_site_rna_tunnel_pure_split4000_batch006.csv

>  <scratch_subdir>  (62) 
/opt/xchem-fragalysis-2/maxwin/BulkDock/SCRATCH/217077/C34650-P218

>  <fragmenstein_runtime>  (62) 
2.741396

>  <fragmenstein_outcome>  (62) 
acceptable

>  <fragmenstein_mode>  (62) 
expansion

>  <fragmenstein_error>  (62) 


>  <exports>  (62) 
/opt/xchem-fragalysis-2/maxwin/BulkDock/OUTPUTS/RdRp_knitwork_green_site_rna_tunnel_pure_split4000_batch006_217077.sdf;/opt/xchem-fragalysis-2/maxwin/BulkDock/OUTPUTS/RdRp_knitwork_green_site_rna_tunnel_pure_fragalysis.sdf

>  <Multi-SuCOS>  (62) 
nan

>  <merge_set>  (62) 
nan

$$$$
OHJDLUXFTXKBRG-ZETCQYMHSA-N
     RDKit          3D

 19 19  0  0  0  0  0  0  0  0999 V2000
  -30.4476  -30.4413  -19.1915 C   0  0  0  0  0  0  0  0  0  0  0  0
  -28.9730  -30.4023  -19.1836 C   0  0  0  0  0  0  0  0  0  0  0  0
  -28.0804  -30.1901  -20.2087 C   0  0  0  0  0  0  0  0  0  0  0  0
  -26.8285  -30.5481  -19.6774 C   0  0  0  0  0  0  0  0  0  0  0  0
  -25.7136  -30.8192  -20.3994 N   0  0  0  0  0  0  0  0  0  0  0  0
  -25.5239  -30.9872  -21.9360 C   0  0  0  0  0  0  0  0  0  0  0  0
  -26.2665  -30.8437  -22.7899 O   0  0  0  0  0  0  0  0  0  0  0  0
  -24.0591  -31.5055  -21.9562 N   0  0  0  0  0  0  0  0  0  0  0  0
  -23.2722  -32.0349  -23.0402 C   0  0  0  0  0  0  0  0  0  0  0  0
  -21.7637  -32.0497  -22.7880 C   0  0  2  0  0  0  0  0  0  0  0  0
  -21.0853  -33.0935  -23.6659 C   0  0  0  0  0  0  0  0  0  0  0  0
  -21.4849  -32.3647  -21.4202 O   0  0  0  0  0  0  0  0  0  0  0  0
  -26.8873  -30.7599  -18.3616 N   0  0  0  0  0  0  0  0  0  0  0  0
  -28.2074  -30.7006  -18.0840 N   0  0  0  0  0  0  0  0  0  0  0  0
  -28.6789  -31.1884  -16.8070 C   0  0  0  0  0  0  0  0  0  0  0  0
  -28.6770  -30.1246  -15.7514 C   0  0  0  0  0  0  0  0  0  0  0  0
  -29.3033  -28.9974  -16.1508 F   0  0  0  0  0  0  0  0  0  0  0  0
  -29.3344  -30.5615  -14.6459 F   0  0  0  0  0  0  0  0  0  0  0  0
  -27.4306  -29.7954  -15.3485 F   0  0  0  0  0  0  0  0  0  0  0  0
  1  2  1  0
  2  3  2  0
  3  4  1  0
  4  5  1  0
  5  6  1  0
  6  7  2  0
  6  8  1  0
  8  9  1  0
  9 10  1  0
 10 11  1  6
 10 12  1  0
  4 13  2  0
 13 14  1  0
 14 15  1  0
 15 16  1  0
 16 17  1  0
 16 18  1  0
 16 19  1  0
 14  2  1  0
M  END
>  <id>  (63) 
130431

>  <inchikey>  (63) 
OHJDLUXFTXKBRG-ZETCQYMHSA-N

>  <alias>  (63) 
None

>  <smiles>  (63) 
Cc1cc(NC(=O)NC[C@H](C)O)nn1CC(F)(F)F

>  <path>  (63) 
/opt/xchem-fragalysis-2/maxwin/BulkDock/SCRATCH/217077/C54733-P153/C54733-P153.minimised.mol

>  <distance_score>  (63) 
0.785891

>  <energy_score>  (63) 
-8.969837

>  <compound>  (63) 
OHJDLUXFTXKBRG-UHFFFAOYSA-N

>  <compound_id>  (63) 
54733

>  <target>  (63) 
Flavi_NS5_RdRp

>  <tags>  (63) 
['Fragmenstein placed', 'Enamine_Quote_1977854', 'JA curated INTERESTING', 'Knitwork pure merge', 'iter1 scaffolds', 'LCD curated YES', 'Green Site/RNA tunnel merge', 'Enamine_Quote_1970815', 'best elaborated iter1 scaffold poses', 'LCD curated INTERESTING', 'acceptable']

>  <inspirations>  (63) 
{P Ã— 2}

>  <subsites>  (63) 
[[1m[4m"Green Site/RNA tunnel"[22m[24m]

>  <reference>  (63) 
z0653a

>  <SLURM_JOB_ID>  (63) 
217077

>  <SLURM_JOB_NAME>  (63) 
BulkDock.place:Flavi_NS5_RdRp:RdRp_knitwork_green_site_rna_tunnel_pure_split4000_batch006

>  <csv_name>  (63) 
RdRp_knitwork_green_site_rna_tunnel_pure_split4000_batch006.csv

>  <scratch_subdir>  (63) 
/opt/xchem-fragalysis-2/maxwin/BulkDock/SCRATCH/217077/C54733-P153

>  <fragmenstein_runtime>  (63) 
4.14878

>  <fragmenstein_outcome>  (63) 
acceptable

>  <fragmenstein_mode>  (63) 
expansion

>  <fragmenstein_error>  (63) 


>  <exports>  (63) 
/opt/xchem-fragalysis-2/maxwin/BulkDock/OUTPUTS/RdRp_knitwork_green_site_rna_tunnel_pure_split4000_batch006_217077.sdf;/opt/xchem-fragalysis-2/maxwin/BulkDock/OUTPUTS/RdRp_knitwork_green_site_rna_tunnel_pure_fragalysis.sdf;/opt/xchem-fragalysis-2/maxwin/RdRp_FFF/quotes/combined_jan2025_ordered.sdf;/opt/xchem-fragalysis-2/maxwin/RdRp_FFF/hippo/iter1_elaborated_scaffold_poses.sdf

>  <Multi-SuCOS>  (63) 
nan

>  <merge_set>  (63) 
nan

$$$$
NQDDIJLQMDSXML-BDAKNGLRSA-N
     RDKit          3D

 18 18  0  0  0  0  0  0  0  0999 V2000
  -29.6233  -30.9117  -15.4212 C   0  0  0  0  0  0  0  0  0  0  0  0
  -29.6949  -30.2014  -16.7657 C   0  0  0  0  0  0  0  0  0  0  0  0
  -29.2489  -31.1212  -17.8991 C   0  0  1  0  0  0  0  0  0  0  0  0
  -30.3642  -32.0061  -18.4439 C   0  0  0  0  0  0  0  0  0  0  0  0
  -28.5354  -30.3857  -18.9415 N   0  0  0  0  0  0  0  0  0  0  0  0
  -29.1584  -29.9054  -20.0361 N   0  0  0  0  0  0  0  0  0  0  0  0
  -28.1696  -29.8279  -20.9348 C   0  0  0  0  0  0  0  0  0  0  0  0
  -26.9389  -30.2164  -20.3848 C   0  0  0  0  0  0  0  0  0  0  0  0
  -25.8002  -30.6125  -21.0131 N   0  0  0  0  0  0  0  0  0  0  0  0
  -25.5187  -30.8649  -22.5211 C   0  0  0  0  0  0  0  0  0  0  0  0
  -26.1838  -30.6996  -23.4324 O   0  0  0  0  0  0  0  0  0  0  0  0
  -24.1077  -31.5026  -22.4119 N   0  0  0  0  0  0  0  0  0  0  0  0
  -23.2961  -32.1433  -23.4103 C   0  0  0  0  0  0  0  0  0  0  0  0
  -21.7953  -32.0696  -23.1241 C   0  0  2  0  0  0  0  0  0  0  0  0
  -21.0551  -33.1574  -23.8889 C   0  0  0  0  0  0  0  0  0  0  0  0
  -21.5386  -32.2596  -21.7283 O   0  0  0  0  0  0  0  0  0  0  0  0
  -27.1658  -30.2960  -19.0330 C   0  0  0  0  0  0  0  0  0  0  0  0
  -26.2747  -30.4893  -17.8780 C   0  0  0  0  0  0  0  0  0  0  0  0
  1  2  1  0
  2  3  1  0
  3  4  1  6
  3  5  1  0
  5  6  1  0
  6  7  2  0
  7  8  1  0
  8  9  1  0
  9 10  1  0
 10 11  2  0
 10 12  1  0
 12 13  1  0
 13 14  1  0
 14 15  1  6
 14 16  1  0
  8 17  2  0
 17 18  1  0
 17  5  1  0
M  END
>  <id>  (64) 
130458

>  <inchikey>  (64) 
NQDDIJLQMDSXML-BDAKNGLRSA-N

>  <alias>  (64) 
None

>  <smiles>  (64) 
CC[C@@H](C)n1ncc(NC(=O)NC[C@H](C)O)c1C

>  <path>  (64) 
/opt/xchem-fragalysis-2/maxwin/BulkDock/SCRATCH/217077/C54862-P153/C54862-P153.minimised.mol

>  <distance_score>  (64) 
0.840132

>  <energy_score>  (64) 
-19.728977

>  <compound>  (64) 
NQDDIJLQMDSXML-UHFFFAOYSA-N

>  <compound_id>  (64) 
54862

>  <target>  (64) 
Flavi_NS5_RdRp

>  <tags>  (64) 
['Fragmenstein placed', 'JA curated NO', 'Knitwork pure merge', 'iter1 scaffolds', 'LCD curated YES', 'Enamine_unavailable', 'Green Site/RNA tunnel merge', 'best elaborated iter1 scaffold poses', 'LCD curated INTERESTING', 'acceptable']

>  <inspirations>  (64) 
{P Ã— 2}

>  <subsites>  (64) 
[[1m[4m"Green Site/RNA tunnel"[22m[24m]

>  <reference>  (64) 
z0653a

>  <SLURM_JOB_ID>  (64) 
217077

>  <SLURM_JOB_NAME>  (64) 
BulkDock.place:Flavi_NS5_RdRp:RdRp_knitwork_green_site_rna_tunnel_pure_split4000_batch006

>  <csv_name>  (64) 
RdRp_knitwork_green_site_rna_tunnel_pure_split4000_batch006.csv

>  <scratch_subdir>  (64) 
/opt/xchem-fragalysis-2/maxwin/BulkDock/SCRATCH/217077/C54862-P153

>  <fragmenstein_runtime>  (64) 
5.238658

>  <fragmenstein_outcome>  (64) 
acceptable

>  <fragmenstein_mode>  (64) 
expansion

>  <fragmenstein_error>  (64) 


>  <exports>  (64) 
/opt/xchem-fragalysis-2/maxwin/BulkDock/OUTPUTS/RdRp_knitwork_green_site_rna_tunnel_pure_split4000_batch006_217077.sdf;/opt/xchem-fragalysis-2/maxwin/BulkDock/OUTPUTS/RdRp_knitwork_green_site_rna_tunnel_pure_fragalysis.sdf;/opt/xchem-fragalysis-2/maxwin/RdRp_FFF/hippo/iter1_elaborated_scaffold_poses.sdf

>  <Multi-SuCOS>  (64) 
nan

>  <merge_set>  (64) 
nan

$$$$
QLFFONPVDDKJCE-SNVBAGLBSA-N
     RDKit          3D

 19 20  0  0  0  0  0  0  0  0999 V2000
  -21.0522  -33.0241  -23.8094 C   0  0  0  0  0  0  0  0  0  0  0  0
  -21.9338  -32.5345  -22.6712 C   0  0  1  0  0  0  0  0  0  0  0  0
  -21.1818  -31.6196  -21.8797 O   0  0  0  0  0  0  0  0  0  0  0  0
  -23.2081  -31.8899  -23.2021 C   0  0  0  0  0  0  0  0  0  0  0  0
  -24.1279  -31.4907  -22.1703 N   0  0  0  0  0  0  0  0  0  0  0  0
  -25.5499  -30.8767  -22.2740 C   0  0  0  0  0  0  0  0  0  0  0  0
  -26.2027  -30.6794  -23.1892 O   0  0  0  0  0  0  0  0  0  0  0  0
  -25.8665  -30.7039  -20.7511 N   0  0  0  0  0  0  0  0  0  0  0  0
  -27.0531  -30.3536  -20.1118 C   0  0  0  0  0  0  0  0  0  0  0  0
  -28.1154  -29.9008  -20.8934 C   0  0  0  0  0  0  0  0  0  0  0  0
  -29.3957  -29.8245  -20.3681 C   0  0  0  0  0  0  0  0  0  0  0  0
  -29.6166  -30.1766  -19.0464 C   0  0  0  0  0  0  0  0  0  0  0  0
  -28.5429  -30.5275  -18.2179 C   0  0  0  0  0  0  0  0  0  0  0  0
  -28.8398  -30.8741  -16.8740 N   0  0  0  0  0  0  0  0  0  0  0  0
  -27.9693  -31.2134  -15.8630 C   0  0  0  0  0  0  0  0  0  0  0  0
  -28.7261  -31.5656  -14.7716 C   0  0  0  0  0  0  0  0  0  0  0  0
  -30.0495  -31.3882  -15.1945 C   0  0  0  0  0  0  0  0  0  0  0  0
  -30.1265  -30.9326  -16.4441 N   0  0  0  0  0  0  0  0  0  0  0  0
  -27.2410  -30.5988  -18.7482 C   0  0  0  0  0  0  0  0  0  0  0  0
  2  1  1  6
  2  3  1  0
  2  4  1  0
  4  5  1  0
  5  6  1  0
  6  7  2  0
  6  8  1  0
  8  9  1  0
  9 10  2  0
 10 11  1  0
 11 12  2  0
 12 13  1  0
 13 14  1  0
 14 15  1  0
 15 16  2  0
 16 17  1  0
 17 18  2  0
 13 19  2  0
 19  9  1  0
 18 14  1  0
M  END
>  <id>  (65) 
130715

>  <inchikey>  (65) 
QLFFONPVDDKJCE-SNVBAGLBSA-N

>  <alias>  (65) 
None

>  <smiles>  (65) 
C[C@@H](O)CNC(=O)Nc1cccc(-n2cccn2)c1

>  <path>  (65) 
/opt/xchem-fragalysis-2/maxwin/BulkDock/SCRATCH/217077/C55598-P153/C55598-P153.minimised.mol

>  <distance_score>  (65) 
0.787615

>  <energy_score>  (65) 
-46.042673

>  <compound>  (65) 
QLFFONPVDDKJCE-UHFFFAOYSA-N

>  <compound_id>  (65) 
55598

>  <target>  (65) 
Flavi_NS5_RdRp

>  <tags>  (65) 
['Fragmenstein placed', 'Enamine_Quote_1977854', 'JA curated INTERESTING', 'Knitwork pure merge', 'Green Site/RNA tunnel merge', 'best elaborated iter1 scaffold poses', 'acceptable']

>  <inspirations>  (65) 
{P Ã— 2}

>  <subsites>  (65) 
[[1m[4m"Green Site/RNA tunnel"[22m[24m]

>  <reference>  (65) 
z0653a

>  <SLURM_JOB_ID>  (65) 
217077

>  <SLURM_JOB_NAME>  (65) 
BulkDock.place:Flavi_NS5_RdRp:RdRp_knitwork_green_site_rna_tunnel_pure_split4000_batch006

>  <csv_name>  (65) 
RdRp_knitwork_green_site_rna_tunnel_pure_split4000_batch006.csv

>  <scratch_subdir>  (65) 
/opt/xchem-fragalysis-2/maxwin/BulkDock/SCRATCH/217077/C55598-P153

>  <fragmenstein_runtime>  (65) 
4.003887

>  <fragmenstein_outcome>  (65) 
acceptable

>  <fragmenstein_mode>  (65) 
expansion

>  <fragmenstein_error>  (65) 


>  <exports>  (65) 
/opt/xchem-fragalysis-2/maxwin/BulkDock/OUTPUTS/RdRp_knitwork_green_site_rna_tunnel_pure_split4000_batch006_217077.sdf;/opt/xchem-fragalysis-2/maxwin/BulkDock/OUTPUTS/RdRp_knitwork_green_site_rna_tunnel_pure_fragalysis.sdf;/opt/xchem-fragalysis-2/maxwin/RdRp_FFF/quotes/combined_jan2025_ordered.sdf;/opt/xchem-fragalysis-2/maxwin/RdRp_FFF/hippo/iter1_elaborated_scaffold_poses.sdf

>  <Multi-SuCOS>  (65) 
nan

>  <merge_set>  (65) 
nan

$$$$
GLKYHQBKOTZYGD-SSDOTTSWSA-N
     RDKit          3D

 17 18  0  0  0  0  0  0  0  0999 V2000
  -21.0567  -33.0423  -23.8377 C   0  0  0  0  0  0  0  0  0  0  0  0
  -21.8842  -32.5173  -22.6758 C   0  0  1  0  0  0  0  0  0  0  0  0
  -21.1173  -31.5405  -21.9748 O   0  0  0  0  0  0  0  0  0  0  0  0
  -23.2053  -31.9321  -23.1587 C   0  0  0  0  0  0  0  0  0  0  0  0
  -24.0307  -31.4601  -22.0812 N   0  0  0  0  0  0  0  0  0  0  0  0
  -25.5469  -31.1218  -22.0494 C   0  0  0  0  0  0  0  0  0  0  0  0
  -26.3462  -31.2465  -22.8530 O   0  0  0  0  0  0  0  0  0  0  0  0
  -25.6741  -30.6594  -20.5671 N   0  0  0  0  0  0  0  0  0  0  0  0
  -26.7804  -30.3722  -19.8246 C   0  0  0  0  0  0  0  0  0  0  0  0
  -26.8108  -30.1143  -18.4345 C   0  0  0  0  0  0  0  0  0  0  0  0
  -28.1485  -30.0826  -18.1175 C   0  0  0  0  0  0  0  0  0  0  0  0
  -28.7810  -29.9467  -16.7171 C   0  0  0  0  0  0  0  0  0  0  0  0
  -28.3931  -30.8922  -15.6166 C   0  0  0  0  0  0  0  0  0  0  0  0
  -29.7355  -31.0257  -16.2702 C   0  0  0  0  0  0  0  0  0  0  0  0
  -28.8208  -30.2419  -19.2926 N   0  0  0  0  0  0  0  0  0  0  0  0
  -30.2364  -30.4233  -19.4639 C   0  0  0  0  0  0  0  0  0  0  0  0
  -28.0071  -30.3694  -20.3467 N   0  0  0  0  0  0  0  0  0  0  0  0
  2  1  1  6
  2  3  1  0
  2  4  1  0
  4  5  1  0
  5  6  1  0
  6  7  2  0
  6  8  1  0
  8  9  1  0
  9 10  1  0
 10 11  2  0
 11 12  1  0
 12 13  1  0
 13 14  1  0
 11 15  1  0
 15 16  1  0
 15 17  1  0
 17  9  2  0
 14 12  1  0
M  END
>  <id>  (66) 
130975

>  <inchikey>  (66) 
GLKYHQBKOTZYGD-SSDOTTSWSA-N

>  <alias>  (66) 
None

>  <smiles>  (66) 
C[C@@H](O)CNC(=O)Nc1cc(C2CC2)n(C)n1

>  <path>  (66) 
/opt/xchem-fragalysis-2/maxwin/BulkDock/SCRATCH/217077/C56548-P153/C56548-P153.minimised.mol

>  <distance_score>  (66) 
0.926145

>  <energy_score>  (66) 
-16.624212

>  <compound>  (66) 
GLKYHQBKOTZYGD-UHFFFAOYSA-N

>  <compound_id>  (66) 
56548

>  <target>  (66) 
Flavi_NS5_RdRp

>  <tags>  (66) 
['Fragmenstein placed', 'Enamine_Quote_1977854', 'JA curated NO', 'Knitwork pure merge', 'Green Site/RNA tunnel merge', 'best elaborated iter1 scaffold poses', 'acceptable']

>  <inspirations>  (66) 
{P Ã— 2}

>  <subsites>  (66) 
[[1m[4m"Green Site/RNA tunnel"[22m[24m]

>  <reference>  (66) 
z0653a

>  <SLURM_JOB_ID>  (66) 
217077

>  <SLURM_JOB_NAME>  (66) 
BulkDock.place:Flavi_NS5_RdRp:RdRp_knitwork_green_site_rna_tunnel_pure_split4000_batch006

>  <csv_name>  (66) 
RdRp_knitwork_green_site_rna_tunnel_pure_split4000_batch006.csv

>  <scratch_subdir>  (66) 
/opt/xchem-fragalysis-2/maxwin/BulkDock/SCRATCH/217077/C56548-P153

>  <fragmenstein_runtime>  (66) 
3.618871

>  <fragmenstein_outcome>  (66) 
acceptable

>  <fragmenstein_mode>  (66) 
expansion

>  <fragmenstein_error>  (66) 


>  <exports>  (66) 
/opt/xchem-fragalysis-2/maxwin/BulkDock/OUTPUTS/RdRp_knitwork_green_site_rna_tunnel_pure_split4000_batch006_217077.sdf;/opt/xchem-fragalysis-2/maxwin/BulkDock/OUTPUTS/RdRp_knitwork_green_site_rna_tunnel_pure_fragalysis.sdf;/opt/xchem-fragalysis-2/maxwin/RdRp_FFF/hippo/iter1_elaborated_scaffold_poses.sdf

>  <Multi-SuCOS>  (66) 
nan

>  <merge_set>  (66) 
nan

$$$$
OXHXBAHSHMBTDQ-NSHDSACASA-N
     RDKit          3D

 20 21  0  0  0  0  0  0  0  0999 V2000
  -24.4584  -31.3358  -14.6622 C   0  0  0  0  0  0  0  0  0  0  0  0
  -25.7997  -31.3394  -15.3757 C   0  0  0  0  0  0  0  0  0  0  0  0
  -26.3334  -29.9287  -15.5974 C   0  0  0  0  0  0  0  0  0  0  0  0
  -27.5122  -29.8610  -16.4488 N   0  0  0  0  0  0  0  0  0  0  0  0
  -28.8041  -29.7455  -16.0132 C   0  0  0  0  0  0  0  0  0  0  0  0
  -29.6250  -29.7170  -17.1199 C   0  0  0  0  0  0  0  0  0  0  0  0
  -28.8081  -29.8343  -18.2767 C   0  0  0  0  0  0  0  0  0  0  0  0
  -29.0569  -29.9150  -19.6623 C   0  0  0  0  0  0  0  0  0  0  0  0
  -27.9875  -30.1566  -20.5348 C   0  0  0  0  0  0  0  0  0  0  0  0
  -26.7012  -30.3279  -20.0333 C   0  0  0  0  0  0  0  0  0  0  0  0
  -25.6416  -30.7400  -20.8196 N   0  0  0  0  0  0  0  0  0  0  0  0
  -25.5257  -30.8699  -22.3565 C   0  0  0  0  0  0  0  0  0  0  0  0
  -26.2604  -30.5835  -23.1754 O   0  0  0  0  0  0  0  0  0  0  0  0
  -24.1655  -31.5941  -22.4449 N   0  0  0  0  0  0  0  0  0  0  0  0
  -23.5017  -32.1863  -23.5663 C   0  0  0  0  0  0  0  0  0  0  0  0
  -21.9849  -31.9915  -23.4775 C   0  0  2  0  0  0  0  0  0  0  0  0
  -21.2617  -33.1502  -24.1306 C   0  0  0  0  0  0  0  0  0  0  0  0
  -21.5578  -31.9085  -22.1103 O   0  0  0  0  0  0  0  0  0  0  0  0
  -26.4224  -30.1682  -18.6810 C   0  0  0  0  0  0  0  0  0  0  0  0
  -27.4932  -29.9323  -17.8219 C   0  0  0  0  0  0  0  0  0  0  0  0
  1  2  1  0
  2  3  1  0
  3  4  1  0
  4  5  1  0
  5  6  2  0
  6  7  1  0
  7  8  2  0
  8  9  1  0
  9 10  2  0
 10 11  1  0
 11 12  1  0
 12 13  2  0
 12 14  1  0
 14 15  1  0
 15 16  1  0
 16 17  1  1
 16 18  1  0
 10 19  1  0
 19 20  2  0
 20  4  1  0
 20  7  1  0
M  END
>  <id>  (67) 
132202

>  <inchikey>  (67) 
OXHXBAHSHMBTDQ-NSHDSACASA-N

>  <alias>  (67) 
None

>  <smiles>  (67) 
CCCn1ccc2ccc(NC(=O)NC[C@H](C)O)cc21

>  <path>  (67) 
/opt/xchem-fragalysis-2/maxwin/BulkDock/SCRATCH/217079/C35145-P102/C35145-P102.minimised.mol

>  <distance_score>  (67) 
0.896831

>  <energy_score>  (67) 
-4.236385

>  <compound>  (67) 
OXHXBAHSHMBTDQ-UHFFFAOYSA-N

>  <compound_id>  (67) 
35145

>  <target>  (67) 
Flavi_NS5_RdRp

>  <tags>  (67) 
['Fragmenstein placed', 'Enamine_Quote_1977854', 'JA curated INTERESTING', 'Knitwork pure merge', 'iter1 scaffolds', 'LCD curated YES', 'Green Site/RNA tunnel merge', 'Enamine_Quote_1970815', 'best elaborated iter1 scaffold poses', 'LCD curated INTERESTING', 'acceptable']

>  <inspirations>  (67) 
{P Ã— 2}

>  <subsites>  (67) 
[[1m[4m"Green Site/RNA tunnel"[22m[24m]

>  <reference>  (67) 
z0211a

>  <SLURM_JOB_ID>  (67) 
217079

>  <SLURM_JOB_NAME>  (67) 
BulkDock.place:Flavi_NS5_RdRp:RdRp_knitwork_green_site_rna_tunnel_pure_split4000_batch008

>  <csv_name>  (67) 
RdRp_knitwork_green_site_rna_tunnel_pure_split4000_batch008.csv

>  <scratch_subdir>  (67) 
/opt/xchem-fragalysis-2/maxwin/BulkDock/SCRATCH/217079/C35145-P102

>  <fragmenstein_runtime>  (67) 
9.56863

>  <fragmenstein_outcome>  (67) 
acceptable

>  <fragmenstein_mode>  (67) 
expansion

>  <fragmenstein_error>  (67) 


>  <exports>  (67) 
/opt/xchem-fragalysis-2/maxwin/BulkDock/OUTPUTS/RdRp_knitwork_green_site_rna_tunnel_pure_split4000_batch008_217079.sdf;/opt/xchem-fragalysis-2/maxwin/BulkDock/OUTPUTS/RdRp_knitwork_green_site_rna_tunnel_pure_fragalysis.sdf;/opt/xchem-fragalysis-2/maxwin/RdRp_FFF/quotes/combined_jan2025_ordered.sdf;/opt/xchem-fragalysis-2/maxwin/RdRp_FFF/hippo/iter1_elaborated_scaffold_poses.sdf

>  <Multi-SuCOS>  (67) 
nan

>  <merge_set>  (67) 
nan

$$$$
DBRZTKKVIQOBQT-NSHDSACASA-N
     RDKit          3D

 20 21  0  0  0  0  0  0  0  0999 V2000
  -29.3443  -30.1412  -22.3911 C   0  0  0  0  0  0  0  0  0  0  0  0
  -28.5435  -30.0606  -21.1754 C   0  0  0  0  0  0  0  0  0  0  0  0
  -29.0856  -29.7907  -19.9286 C   0  0  0  0  0  0  0  0  0  0  0  0
  -28.0644  -29.8942  -19.0466 N   0  0  0  0  0  0  0  0  0  0  0  0
  -28.0963  -29.9823  -17.6069 C   0  0  0  0  0  0  0  0  0  0  0  0
  -26.7036  -29.8833  -16.9198 C   0  0  0  0  0  0  0  0  0  0  0  0
  -26.7334  -30.1541  -15.4232 C   0  0  0  0  0  0  0  0  0  0  0  0
  -28.1487  -30.3348  -14.9445 C   0  0  0  0  0  0  0  0  0  0  0  0
  -29.0716  -29.2516  -15.4471 C   0  0  0  0  0  0  0  0  0  0  0  0
  -29.0693  -29.0449  -16.9454 C   0  0  0  0  0  0  0  0  0  0  0  0
  -26.9384  -30.2589  -19.6286 N   0  0  0  0  0  0  0  0  0  0  0  0
  -27.1916  -30.3374  -20.9288 C   0  0  0  0  0  0  0  0  0  0  0  0
  -26.0765  -30.7455  -21.5734 N   0  0  0  0  0  0  0  0  0  0  0  0
  -25.8646  -31.1496  -23.0438 C   0  0  0  0  0  0  0  0  0  0  0  0
  -26.5832  -31.1212  -23.9264 O   0  0  0  0  0  0  0  0  0  0  0  0
  -24.4206  -31.7006  -22.9456 N   0  0  0  0  0  0  0  0  0  0  0  0
  -23.6337  -32.4049  -23.9036 C   0  0  0  0  0  0  0  0  0  0  0  0
  -22.1491  -32.2664  -23.5296 C   0  0  2  0  0  0  0  0  0  0  0  0
  -21.2965  -33.1743  -24.3899 C   0  0  0  0  0  0  0  0  0  0  0  0
  -21.9335  -32.6074  -22.1507 O   0  0  0  0  0  0  0  0  0  0  0  0
  1  2  1  0
  2  3  2  0
  3  4  1  0
  4  5  1  0
  5  6  1  0
  6  7  1  0
  7  8  1  0
  8  9  1  0
  9 10  1  0
  4 11  1  0
 11 12  2  0
 12 13  1  0
 13 14  1  0
 14 15  2  0
 14 16  1  0
 16 17  1  0
 17 18  1  0
 18 19  1  6
 18 20  1  0
 12  2  1  0
 10  5  1  0
M  END
>  <id>  (68) 
133849

>  <inchikey>  (68) 
DBRZTKKVIQOBQT-NSHDSACASA-N

>  <alias>  (68) 
None

>  <smiles>  (68) 
Cc1cn(C2CCCCC2)nc1NC(=O)NC[C@H](C)O

>  <path>  (68) 
/opt/xchem-fragalysis-2/maxwin/BulkDock/SCRATCH/217082/C54123-P196/C54123-P196.minimised.mol

>  <distance_score>  (68) 
0.986033

>  <energy_score>  (68) 
-19.005621

>  <compound>  (68) 
DBRZTKKVIQOBQT-UHFFFAOYSA-N

>  <compound_id>  (68) 
54123

>  <target>  (68) 
Flavi_NS5_RdRp

>  <tags>  (68) 
['Fragmenstein placed', 'Enamine_Quote_1977854', 'Knitwork pure merge', 'iter1 scaffolds', 'LCD curated YES', 'Green Site/RNA tunnel merge', 'Enamine_Order_1968912', 'JA curated YES', 'acceptable']

>  <inspirations>  (68) 
{P Ã— 2}

>  <subsites>  (68) 
None

>  <reference>  (68) 
z0936a

>  <SLURM_JOB_ID>  (68) 
217082

>  <SLURM_JOB_NAME>  (68) 
BulkDock.place:Flavi_NS5_RdRp:RdRp_knitwork_green_site_rna_tunnel_pure_split4000_batch011

>  <csv_name>  (68) 
RdRp_knitwork_green_site_rna_tunnel_pure_split4000_batch011.csv

>  <scratch_subdir>  (68) 
/opt/xchem-fragalysis-2/maxwin/BulkDock/SCRATCH/217082/C54123-P196

>  <fragmenstein_runtime>  (68) 
5.734726

>  <fragmenstein_outcome>  (68) 
acceptable

>  <fragmenstein_mode>  (68) 
expansion

>  <fragmenstein_error>  (68) 


>  <exports>  (68) 
/opt/xchem-fragalysis-2/maxwin/BulkDock/OUTPUTS/RdRp_knitwork_green_site_rna_tunnel_pure_split4000_batch011_217082.sdf;/opt/xchem-fragalysis-2/maxwin/BulkDock/OUTPUTS/RdRp_knitwork_green_site_rna_tunnel_pure_fragalysis.sdf;/opt/xchem-fragalysis-2/maxwin/RdRp_FFF/quotes/JA_curated_and_manual_ordered.sdf;/opt/xchem-fragalysis-2/maxwin/RdRp_FFF/quotes/combined_jan2025_ordered.sdf

>  <Multi-SuCOS>  (68) 
nan

>  <merge_set>  (68) 
nan

$$$$
WXJNUXZTXDROIJ-QMMMGPOBSA-N
     RDKit          3D

 19 20  0  0  0  0  0  0  0  0999 V2000
  -21.3896  -33.1582  -24.3603 C   0  0  0  0  0  0  0  0  0  0  0  0
  -22.2643  -32.1470  -23.6508 C   0  0  2  0  0  0  0  0  0  0  0  0
  -21.9971  -32.2374  -22.2394 O   0  0  0  0  0  0  0  0  0  0  0  0
  -23.7569  -32.3865  -23.9628 C   0  0  0  0  0  0  0  0  0  0  0  0
  -24.5291  -31.9103  -22.8644 N   0  0  0  0  0  0  0  0  0  0  0  0
  -25.8817  -31.1585  -22.8408 C   0  0  0  0  0  0  0  0  0  0  0  0
  -26.5896  -30.8892  -23.6911 O   0  0  0  0  0  0  0  0  0  0  0  0
  -26.0064  -30.9159  -21.3261 N   0  0  0  0  0  0  0  0  0  0  0  0
  -27.0349  -30.3970  -20.5949 C   0  0  0  0  0  0  0  0  0  0  0  0
  -26.8587  -30.3844  -19.2355 C   0  0  0  0  0  0  0  0  0  0  0  0
  -28.0088  -29.8692  -18.6694 C   0  0  0  0  0  0  0  0  0  0  0  0
  -28.0544  -29.7030  -17.2204 C   0  0  0  0  0  0  0  0  0  0  0  0
  -26.8522  -29.7181  -16.4192 C   0  0  0  0  0  0  0  0  0  0  0  0
  -27.1142  -29.7036  -15.0759 C   0  0  0  0  0  0  0  0  0  0  0  0
  -28.7731  -29.5495  -14.7963 S   0  0  0  0  0  0  0  0  0  0  0  0
  -29.1795  -29.5849  -16.4486 C   0  0  0  0  0  0  0  0  0  0  0  0
  -28.9400  -29.6359  -19.5978 N   0  0  0  0  0  0  0  0  0  0  0  0
  -28.3182  -29.9665  -20.7849 N   0  0  0  0  0  0  0  0  0  0  0  0
  -29.1281  -30.0092  -21.9713 C   0  0  0  0  0  0  0  0  0  0  0  0
  2  1  1  6
  2  3  1  0
  2  4  1  0
  4  5  1  0
  5  6  1  0
  6  7  2  0
  6  8  1  0
  8  9  1  0
  9 10  2  0
 10 11  1  0
 11 12  1  0
 12 13  1  0
 13 14  2  0
 14 15  1  0
 15 16  1  0
 11 17  2  0
 17 18  1  0
 18 19  1  0
 18  9  1  0
 16 12  2  0
M  END
>  <id>  (69) 
134256

>  <inchikey>  (69) 
WXJNUXZTXDROIJ-QMMMGPOBSA-N

>  <alias>  (69) 
None

>  <smiles>  (69) 
C[C@H](O)CNC(=O)Nc1cc(-c2ccsc2)nn1C

>  <path>  (69) 
/opt/xchem-fragalysis-2/maxwin/BulkDock/SCRATCH/217082/C55156-P196/C55156-P196.minimised.mol

>  <distance_score>  (69) 
0.902423

>  <energy_score>  (69) 
-33.785707

>  <compound>  (69) 
WXJNUXZTXDROIJ-UHFFFAOYSA-N

>  <compound_id>  (69) 
55156

>  <target>  (69) 
Flavi_NS5_RdRp

>  <tags>  (69) 
['Fragmenstein placed', 'Enamine_Quote_1977854', 'JA curated NO', 'Knitwork pure merge', 'iter1 scaffolds', 'LCD curated YES', 'Green Site/RNA tunnel merge', 'best elaborated iter1 scaffold poses', 'acceptable']

>  <inspirations>  (69) 
{P Ã— 2}

>  <subsites>  (69) 
[[1m[4m"Green Site/RNA tunnel"[22m[24m]

>  <reference>  (69) 
z0936a

>  <SLURM_JOB_ID>  (69) 
217082

>  <SLURM_JOB_NAME>  (69) 
BulkDock.place:Flavi_NS5_RdRp:RdRp_knitwork_green_site_rna_tunnel_pure_split4000_batch011

>  <csv_name>  (69) 
RdRp_knitwork_green_site_rna_tunnel_pure_split4000_batch011.csv

>  <scratch_subdir>  (69) 
/opt/xchem-fragalysis-2/maxwin/BulkDock/SCRATCH/217082/C55156-P196

>  <fragmenstein_runtime>  (69) 
5.559356

>  <fragmenstein_outcome>  (69) 
acceptable

>  <fragmenstein_mode>  (69) 
expansion

>  <fragmenstein_error>  (69) 


>  <exports>  (69) 
/opt/xchem-fragalysis-2/maxwin/BulkDock/OUTPUTS/RdRp_knitwork_green_site_rna_tunnel_pure_split4000_batch011_217082.sdf;/opt/xchem-fragalysis-2/maxwin/BulkDock/OUTPUTS/RdRp_knitwork_green_site_rna_tunnel_pure_fragalysis.sdf;/opt/xchem-fragalysis-2/maxwin/RdRp_FFF/hippo/iter1_elaborated_scaffold_poses.sdf

>  <Multi-SuCOS>  (69) 
nan

>  <merge_set>  (69) 
nan

$$$$
VRFUMBMWIYOQKS-QMMMGPOBSA-N
     RDKit          3D

 19 20  0  0  0  0  0  0  0  0999 V2000
  -20.9423  -33.2325  -24.0750 C   0  0  0  0  0  0  0  0  0  0  0  0
  -21.7269  -32.0467  -23.5796 C   0  0  2  0  0  0  0  0  0  0  0  0
  -21.4345  -31.8715  -22.1860 O   0  0  0  0  0  0  0  0  0  0  0  0
  -23.2147  -32.3089  -23.8047 C   0  0  0  0  0  0  0  0  0  0  0  0
  -23.9624  -31.6985  -22.7645 N   0  0  0  0  0  0  0  0  0  0  0  0
  -25.3010  -30.9493  -22.8097 C   0  0  0  0  0  0  0  0  0  0  0  0
  -25.9473  -30.6553  -23.6938 O   0  0  0  0  0  0  0  0  0  0  0  0
  -25.5557  -30.8054  -21.3015 N   0  0  0  0  0  0  0  0  0  0  0  0
  -26.6403  -30.3781  -20.6412 C   0  0  0  0  0  0  0  0  0  0  0  0
  -27.9026  -30.0228  -21.1317 C   0  0  0  0  0  0  0  0  0  0  0  0
  -28.6359  -29.7542  -20.0026 C   0  0  0  0  0  0  0  0  0  0  0  0
  -27.7631  -29.8693  -18.9372 N   0  0  0  0  0  0  0  0  0  0  0  0
  -28.0598  -29.7530  -17.5589 C   0  0  0  0  0  0  0  0  0  0  0  0
  -29.3629  -29.7474  -17.2487 N   0  0  0  0  0  0  0  0  0  0  0  0
  -29.6382  -29.9818  -15.9709 C   0  0  0  0  0  0  0  0  0  0  0  0
  -28.6873  -30.1181  -14.9910 C   0  0  0  0  0  0  0  0  0  0  0  0
  -27.3805  -30.0302  -15.3890 C   0  0  0  0  0  0  0  0  0  0  0  0
  -27.0401  -29.8428  -16.6660 N   0  0  0  0  0  0  0  0  0  0  0  0
  -26.5392  -30.2625  -19.3296 N   0  0  0  0  0  0  0  0  0  0  0  0
  2  1  1  1
  2  3  1  0
  2  4  1  0
  4  5  1  0
  5  6  1  0
  6  7  2  0
  6  8  1  0
  8  9  1  0
  9 10  1  0
 10 11  2  0
 11 12  1  0
 12 13  1  0
 13 14  2  0
 14 15  1  0
 15 16  2  0
 16 17  1  0
 17 18  2  0
 12 19  1  0
 19  9  2  0
 18 13  1  0
M  END
>  <id>  (70) 
134267

>  <inchikey>  (70) 
VRFUMBMWIYOQKS-QMMMGPOBSA-N

>  <alias>  (70) 
None

>  <smiles>  (70) 
C[C@H](O)CNC(=O)Nc1ccn(-c2ncccn2)n1

>  <path>  (70) 
/opt/xchem-fragalysis-2/maxwin/BulkDock/SCRATCH/217082/C55174-P102/C55174-P102.minimised.mol

>  <distance_score>  (70) 
0.931112

>  <energy_score>  (70) 
-45.80426

>  <compound>  (70) 
VRFUMBMWIYOQKS-UHFFFAOYSA-N

>  <compound_id>  (70) 
55174

>  <target>  (70) 
Flavi_NS5_RdRp

>  <tags>  (70) 
['Fragmenstein placed', 'Enamine_Quote_1977854', 'JA curated NO', 'Knitwork pure merge', 'iter1 scaffolds', 'LCD curated YES', 'Green Site/RNA tunnel merge', 'Enamine_Quote_1970815', 'best elaborated iter1 scaffold poses', 'LCD curated INTERESTING', 'acceptable']

>  <inspirations>  (70) 
{P Ã— 2}

>  <subsites>  (70) 
[[1m[4m"Green Site/RNA tunnel"[22m[24m]

>  <reference>  (70) 
z0211a

>  <SLURM_JOB_ID>  (70) 
217082

>  <SLURM_JOB_NAME>  (70) 
BulkDock.place:Flavi_NS5_RdRp:RdRp_knitwork_green_site_rna_tunnel_pure_split4000_batch011

>  <csv_name>  (70) 
RdRp_knitwork_green_site_rna_tunnel_pure_split4000_batch011.csv

>  <scratch_subdir>  (70) 
/opt/xchem-fragalysis-2/maxwin/BulkDock/SCRATCH/217082/C55174-P102

>  <fragmenstein_runtime>  (70) 
6.330409

>  <fragmenstein_outcome>  (70) 
acceptable

>  <fragmenstein_mode>  (70) 
expansion

>  <fragmenstein_error>  (70) 


>  <exports>  (70) 
/opt/xchem-fragalysis-2/maxwin/BulkDock/OUTPUTS/RdRp_knitwork_green_site_rna_tunnel_pure_split4000_batch011_217082.sdf;/opt/xchem-fragalysis-2/maxwin/BulkDock/OUTPUTS/RdRp_knitwork_green_site_rna_tunnel_pure_fragalysis.sdf;/opt/xchem-fragalysis-2/maxwin/RdRp_FFF/hippo/iter1_elaborated_scaffold_poses.sdf

>  <Multi-SuCOS>  (70) 
nan

>  <merge_set>  (70) 
nan

$$$$
LYBJDPXLKAGWQA-NSHDSACASA-N
     RDKit          3D

 20 21  0  0  0  0  0  0  0  0999 V2000
  -25.8269  -30.7094  -14.6554 C   0  0  0  0  0  0  0  0  0  0  0  0
  -26.9981  -30.2165  -15.3980 C   0  0  0  0  0  0  0  0  0  0  0  0
  -28.3647  -30.1209  -15.0666 C   0  0  0  0  0  0  0  0  0  0  0  0
  -28.9976  -29.7614  -16.2373 C   0  0  0  0  0  0  0  0  0  0  0  0
  -28.0170  -29.7683  -17.1950 N   0  0  0  0  0  0  0  0  0  0  0  0
  -28.1271  -29.8677  -18.5910 C   0  0  0  0  0  0  0  0  0  0  0  0
  -29.3451  -29.7903  -19.2572 C   0  0  0  0  0  0  0  0  0  0  0  0
  -29.3535  -29.8415  -20.6492 C   0  0  0  0  0  0  0  0  0  0  0  0
  -28.1690  -30.0752  -21.3543 C   0  0  0  0  0  0  0  0  0  0  0  0
  -26.9861  -30.2964  -20.6674 C   0  0  0  0  0  0  0  0  0  0  0  0
  -25.8216  -30.7192  -21.2787 N   0  0  0  0  0  0  0  0  0  0  0  0
  -25.4732  -30.8643  -22.7801 C   0  0  0  0  0  0  0  0  0  0  0  0
  -26.0734  -30.5832  -23.7043 O   0  0  0  0  0  0  0  0  0  0  0  0
  -24.1192  -31.5939  -22.6537 N   0  0  0  0  0  0  0  0  0  0  0  0
  -23.2986  -32.1966  -23.6512 C   0  0  0  0  0  0  0  0  0  0  0  0
  -21.8226  -32.1414  -23.2690 C   0  0  2  0  0  0  0  0  0  0  0  0
  -21.0236  -33.0106  -24.2175 C   0  0  0  0  0  0  0  0  0  0  0  0
  -21.6295  -32.6247  -21.9344 O   0  0  0  0  0  0  0  0  0  0  0  0
  -26.9527  -30.1454  -19.2970 C   0  0  0  0  0  0  0  0  0  0  0  0
  -26.7919  -29.7957  -16.6387 N   0  0  0  0  0  0  0  0  0  0  0  0
  1  2  1  0
  2  3  1  0
  3  4  2  0
  4  5  1  0
  5  6  1  0
  6  7  2  0
  7  8  1  0
  8  9  2  0
  9 10  1  0
 10 11  1  0
 11 12  1  0
 12 13  2  0
 12 14  1  0
 14 15  1  0
 15 16  1  0
 16 17  1  6
 16 18  1  0
 10 19  2  0
  5 20  1  0
 20  2  2  0
 19  6  1  0
M  END
>  <id>  (71) 
134697

>  <inchikey>  (71) 
LYBJDPXLKAGWQA-NSHDSACASA-N

>  <alias>  (71) 
None

>  <smiles>  (71) 
Cc1ccn(-c2cccc(NC(=O)NC[C@H](C)O)c2)n1

>  <path>  (71) 
/opt/xchem-fragalysis-2/maxwin/BulkDock/SCRATCH/217082/C55856-P102/C55856-P102.minimised.mol

>  <distance_score>  (71) 
0.741055

>  <energy_score>  (71) 
-25.566815

>  <compound>  (71) 
LYBJDPXLKAGWQA-UHFFFAOYSA-N

>  <compound_id>  (71) 
55856

>  <target>  (71) 
Flavi_NS5_RdRp

>  <tags>  (71) 
['Fragmenstein placed', 'Enamine_Quote_1977854', 'Knitwork pure merge', 'iter1 scaffolds', 'LCD curated YES', 'Green Site/RNA tunnel merge', 'Enamine_Order_1968912', 'best elaborated iter1 scaffold poses', 'JA curated YES', 'LCD curated INTERESTING', 'acceptable']

>  <inspirations>  (71) 
{P Ã— 2}

>  <subsites>  (71) 
[[1m[4m"Green Site/RNA tunnel"[22m[24m]

>  <reference>  (71) 
z0211a

>  <SLURM_JOB_ID>  (71) 
217082

>  <SLURM_JOB_NAME>  (71) 
BulkDock.place:Flavi_NS5_RdRp:RdRp_knitwork_green_site_rna_tunnel_pure_split4000_batch011

>  <csv_name>  (71) 
RdRp_knitwork_green_site_rna_tunnel_pure_split4000_batch011.csv

>  <scratch_subdir>  (71) 
/opt/xchem-fragalysis-2/maxwin/BulkDock/SCRATCH/217082/C55856-P102

>  <fragmenstein_runtime>  (71) 
2.445407

>  <fragmenstein_outcome>  (71) 
acceptable

>  <fragmenstein_mode>  (71) 
expansion

>  <fragmenstein_error>  (71) 


>  <exports>  (71) 
/opt/xchem-fragalysis-2/maxwin/BulkDock/OUTPUTS/RdRp_knitwork_green_site_rna_tunnel_pure_split4000_batch011_217082.sdf;/opt/xchem-fragalysis-2/maxwin/BulkDock/OUTPUTS/RdRp_knitwork_green_site_rna_tunnel_pure_fragalysis.sdf;/opt/xchem-fragalysis-2/maxwin/RdRp_FFF/quotes/JA_curated_and_manual_ordered.sdf;/opt/xchem-fragalysis-2/maxwin/RdRp_FFF/quotes/combined_jan2025_ordered.sdf;/opt/xchem-fragalysis-2/maxwin/RdRp_FFF/hippo/iter1_elaborated_scaffold_poses.sdf

>  <Multi-SuCOS>  (71) 
nan

>  <merge_set>  (71) 
nan

$$$$
KCOFJMZABDSXHW-UHFFFAOYSA-N
     RDKit          3D

 19 21  0  0  0  0  0  0  0  0999 V2000
  -27.2202  -31.6361  -22.4231 C   0  0  0  0  0  0  0  0  0  0  0  0
  -26.9067  -30.7175  -21.2592 C   0  0  0  0  0  0  0  0  0  0  0  0
  -27.6393  -29.5046  -21.4436 O   0  0  0  0  0  0  0  0  0  0  0  0
  -28.6634  -29.0556  -20.6504 C   0  0  0  0  0  0  0  0  0  0  0  0
  -29.0853  -27.9202  -20.8720 O   0  0  0  0  0  0  0  0  0  0  0  0
  -29.2381  -29.9180  -19.4741 C   0  0  0  0  0  0  0  0  0  0  0  0
  -28.7391  -29.5515  -18.1228 N   0  0  0  0  0  0  0  0  0  0  0  0
  -29.5545  -29.5356  -16.9022 C   0  0  0  0  0  0  0  0  0  0  0  0
  -29.0212  -30.4348  -15.7865 C   0  0  0  0  0  0  0  0  0  0  0  0
  -27.5391  -30.7649  -15.8894 C   0  0  0  0  0  0  0  0  0  0  0  0
  -26.8004  -29.7209  -16.6698 C   0  0  0  0  0  0  0  0  0  0  0  0
  -25.5169  -29.3381  -16.2940 C   0  0  0  0  0  0  0  0  0  0  0  0
  -24.8464  -28.3771  -17.0373 C   0  0  0  0  0  0  0  0  0  0  0  0
  -25.4193  -27.8225  -18.1741 C   0  0  0  0  0  0  0  0  0  0  0  0
  -26.6971  -28.2179  -18.5559 C   0  0  0  0  0  0  0  0  0  0  0  0
  -27.4054  -29.1705  -17.8156 C   0  0  0  0  0  0  0  0  0  0  0  0
  -29.1784  -31.4410  -19.6209 C   0  0  0  0  0  0  0  0  0  0  0  0
  -30.6044  -31.5834  -19.1702 C   0  0  0  0  0  0  0  0  0  0  0  0
  -30.7931  -30.1199  -19.5786 C   0  0  0  0  0  0  0  0  0  0  0  0
  1  2  1  0
  2  3  1  0
  3  4  1  0
  4  5  2  0
  4  6  1  0
  6  7  1  0
  7  8  1  0
  8  9  1  0
  9 10  1  0
 10 11  1  0
 11 12  2  0
 12 13  1  0
 13 14  2  0
 14 15  1  0
 15 16  2  0
  6 17  1  0
 17 18  1  0
 18 19  1  0
 19  6  1  0
 16  7  1  0
 16 11  1  0
M  END
>  <id>  (72) 
144119

>  <inchikey>  (72) 
KCOFJMZABDSXHW-UHFFFAOYSA-N

>  <alias>  (72) 
None

>  <smiles>  (72) 
CCOC(=O)C1(N2CCCc3ccccc32)CCC1

>  <path>  (72) 
/opt/xchem-fragalysis-2/maxwin/BulkDock/SCRATCH/217078/C7817-P3/C7817-P3.minimised.mol

>  <distance_score>  (72) 
0.927326

>  <energy_score>  (72) 
-163.909005

>  <compound>  (72) 
KCOFJMZABDSXHW-UHFFFAOYSA-N

>  <compound_id>  (72) 
7817

>  <target>  (72) 
Flavi_NS5_RdRp

>  <tags>  (72) 
['Fragmenstein placed', 'JA curated NO', 'Knitwork pure merge', 'iter1 scaffolds', 'LCD curated YES', 'Enamine_unavailable', 'Green Site/RNA tunnel merge', 'LCD curated INTERESTING', 'acceptable']

>  <inspirations>  (72) 
{P Ã— 2}

>  <subsites>  (72) 
None

>  <reference>  (72) 
z0165a

>  <SLURM_JOB_ID>  (72) 
217078

>  <SLURM_JOB_NAME>  (72) 
BulkDock.place:Flavi_NS5_RdRp:RdRp_knitwork_green_site_rna_tunnel_pure_split4000_batch007

>  <csv_name>  (72) 
RdRp_knitwork_green_site_rna_tunnel_pure_split4000_batch007.csv

>  <scratch_subdir>  (72) 
/opt/xchem-fragalysis-2/maxwin/BulkDock/SCRATCH/217078/C7817-P3

>  <fragmenstein_runtime>  (72) 
3.752826

>  <fragmenstein_outcome>  (72) 
acceptable

>  <fragmenstein_mode>  (72) 
expansion

>  <fragmenstein_error>  (72) 


>  <exports>  (72) 
/opt/xchem-fragalysis-2/maxwin/BulkDock/OUTPUTS/RdRp_knitwork_green_site_rna_tunnel_pure_split4000_batch007_217078.sdf;/opt/xchem-fragalysis-2/maxwin/BulkDock/OUTPUTS/RdRp_knitwork_green_site_rna_tunnel_pure_fragalysis.sdf

>  <Multi-SuCOS>  (72) 
nan

>  <merge_set>  (72) 
nan

$$$$
AFFRRVMMHWFGOI-UHFFFAOYSA-N
     RDKit          3D

 24 27  0  0  0  0  0  0  0  0999 V2000
  -27.3065  -30.5339  -23.1236 O   0  0  0  0  0  0  0  0  0  0  0  0
  -27.7280  -31.6128  -22.7288 C   0  0  0  0  0  0  0  0  0  0  0  0
  -28.1310  -31.8624  -21.4561 O   0  0  0  0  0  0  0  0  0  0  0  0
  -27.6772  -30.9006  -20.4938 C   0  0  0  0  0  0  0  0  0  0  0  0
  -28.7319  -29.8290  -20.1817 C   0  0  0  0  0  0  0  0  0  0  0  0
  -28.7305  -29.4612  -18.7441 N   0  0  0  0  0  0  0  0  0  0  0  0
  -29.6168  -30.2839  -17.9093 C   0  0  0  0  0  0  0  0  0  0  0  0
  -29.4104  -30.0638  -16.4202 C   0  0  0  0  0  0  0  0  0  0  0  0
  -27.9577  -30.3227  -16.0636 C   0  0  0  0  0  0  0  0  0  0  0  0
  -27.0713  -29.4778  -16.9345 C   0  0  0  0  0  0  0  0  0  0  0  0
  -25.8015  -29.1307  -16.4617 C   0  0  0  0  0  0  0  0  0  0  0  0
  -24.9818  -28.3000  -17.2146 C   0  0  0  0  0  0  0  0  0  0  0  0
  -25.4088  -27.8149  -18.4428 C   0  0  0  0  0  0  0  0  0  0  0  0
  -26.6558  -28.1951  -18.9321 C   0  0  0  0  0  0  0  0  0  0  0  0
  -27.4979  -29.0590  -18.2106 C   0  0  0  0  0  0  0  0  0  0  0  0
  -27.7728  -32.7925  -23.5763 C   0  0  0  0  0  0  0  0  0  0  0  0
  -26.9943  -33.0206  -24.7489 C   0  0  0  0  0  0  0  0  0  0  0  0
  -27.3738  -34.2330  -25.2793 C   0  0  0  0  0  0  0  0  0  0  0  0
  -26.9964  -34.9761  -26.4350 C   0  0  0  0  0  0  0  0  0  0  0  0
  -27.5938  -36.1572  -26.6866 C   0  0  0  0  0  0  0  0  0  0  0  0
  -28.6168  -36.6984  -25.8060 C   0  0  0  0  0  0  0  0  0  0  0  0
  -28.9642  -36.0041  -24.7097 C   0  0  0  0  0  0  0  0  0  0  0  0
  -28.3429  -34.7850  -24.4491 N   0  0  0  0  0  0  0  0  0  0  0  0
  -28.5511  -33.9236  -23.3970 C   0  0  0  0  0  0  0  0  0  0  0  0
  1  2  2  0
  2  3  1  0
  3  4  1  0
  4  5  1  0
  5  6  1  0
  6  7  1  0
  7  8  1  0
  8  9  1  0
  9 10  1  0
 10 11  2  0
 11 12  1  0
 12 13  2  0
 13 14  1  0
 14 15  2  0
  2 16  1  0
 16 17  1  0
 17 18  2  0
 18 19  1  0
 19 20  2  0
 20 21  1  0
 21 22  2  0
 22 23  1  0
 23 24  1  0
 15  6  1  0
 24 16  2  0
 15 10  1  0
 23 18  1  0
M  END
>  <id>  (73) 
144555

>  <inchikey>  (73) 
AFFRRVMMHWFGOI-UHFFFAOYSA-N

>  <alias>  (73) 
None

>  <smiles>  (73) 
O=C(OCCN1CCCc2ccccc21)c1cc2ccccn2c1

>  <path>  (73) 
/opt/xchem-fragalysis-2/maxwin/BulkDock/SCRATCH/217078/C27991-P3/C27991-P3.minimised.mol

>  <distance_score>  (73) 
0.977162

>  <energy_score>  (73) 
-39.892167

>  <compound>  (73) 
AFFRRVMMHWFGOI-UHFFFAOYSA-N

>  <compound_id>  (73) 
27991

>  <target>  (73) 
Flavi_NS5_RdRp

>  <tags>  (73) 
['Fragmenstein placed', 'JA curated NO', 'Knitwork pure merge', 'Green Site/RNA tunnel merge', 'acceptable']

>  <inspirations>  (73) 
{P Ã— 2}

>  <subsites>  (73) 
None

>  <reference>  (73) 
z0165a

>  <SLURM_JOB_ID>  (73) 
217078

>  <SLURM_JOB_NAME>  (73) 
BulkDock.place:Flavi_NS5_RdRp:RdRp_knitwork_green_site_rna_tunnel_pure_split4000_batch007

>  <csv_name>  (73) 
RdRp_knitwork_green_site_rna_tunnel_pure_split4000_batch007.csv

>  <scratch_subdir>  (73) 
/opt/xchem-fragalysis-2/maxwin/BulkDock/SCRATCH/217078/C27991-P3

>  <fragmenstein_runtime>  (73) 
7.008337

>  <fragmenstein_outcome>  (73) 
acceptable

>  <fragmenstein_mode>  (73) 
expansion

>  <fragmenstein_error>  (73) 


>  <exports>  (73) 
/opt/xchem-fragalysis-2/maxwin/BulkDock/OUTPUTS/RdRp_knitwork_green_site_rna_tunnel_pure_split4000_batch007_217078.sdf;/opt/xchem-fragalysis-2/maxwin/BulkDock/OUTPUTS/RdRp_knitwork_green_site_rna_tunnel_pure_fragalysis.sdf

>  <Multi-SuCOS>  (73) 
nan

>  <merge_set>  (73) 
nan

$$$$
GXURJFQNMZPNAK-UHFFFAOYSA-N
     RDKit          3D

 22 25  0  0  0  0  0  0  0  0999 V2000
  -26.7358  -31.0575  -22.1334 O   0  0  0  0  0  0  0  0  0  0  0  0
  -25.9974  -31.3706  -21.2871 C   0  0  0  0  0  0  0  0  0  0  0  0
  -24.7319  -32.2414  -21.3407 N   0  0  0  0  0  0  0  0  0  0  0  0
  -24.1582  -32.9890  -22.4255 C   0  0  0  0  0  0  0  0  0  0  0  0
  -23.0800  -33.8486  -21.8826 C   0  0  0  0  0  0  0  0  0  0  0  0
  -23.1126  -35.2162  -21.6916 C   0  0  0  0  0  0  0  0  0  0  0  0
  -21.9693  -35.6551  -21.1053 O   0  0  0  0  0  0  0  0  0  0  0  0
  -21.1721  -34.5666  -20.9222 C   0  0  0  0  0  0  0  0  0  0  0  0
  -19.9103  -34.5709  -20.3302 C   0  0  0  0  0  0  0  0  0  0  0  0
  -19.2645  -33.3350  -20.2187 C   0  0  0  0  0  0  0  0  0  0  0  0
  -19.8669  -32.1648  -20.6843 C   0  0  0  0  0  0  0  0  0  0  0  0
  -21.1318  -32.1960  -21.2864 C   0  0  0  0  0  0  0  0  0  0  0  0
  -21.8019  -33.4266  -21.4020 C   0  0  0  0  0  0  0  0  0  0  0  0
  -26.2706  -30.8675  -19.8898 C   0  0  0  0  0  0  0  0  0  0  0  0
  -25.2932  -30.7108  -18.8867 C   0  0  0  0  0  0  0  0  0  0  0  0
  -25.6265  -30.2654  -17.6040 C   0  0  0  0  0  0  0  0  0  0  0  0
  -26.9502  -29.9585  -17.2755 C   0  0  0  0  0  0  0  0  0  0  0  0
  -27.9447  -30.0638  -18.2655 C   0  0  0  0  0  0  0  0  0  0  0  0
  -29.3463  -29.8276  -18.2841 C   0  0  0  0  0  0  0  0  0  0  0  0
  -29.7966  -30.0618  -19.5632 C   0  0  0  0  0  0  0  0  0  0  0  0
  -28.7240  -30.4409  -20.3198 N   0  0  0  0  0  0  0  0  0  0  0  0
  -27.5827  -30.4895  -19.5442 C   0  0  0  0  0  0  0  0  0  0  0  0
  1  2  2  0
  2  3  1  0
  3  4  1  0
  4  5  1  0
  5  6  2  0
  6  7  1  0
  7  8  1  0
  8  9  2  0
  9 10  1  0
 10 11  2  0
 11 12  1  0
 12 13  2  0
  2 14  1  0
 14 15  2  0
 15 16  1  0
 16 17  2  0
 17 18  1  0
 18 19  1  0
 19 20  2  0
 20 21  1  0
 21 22  1  0
 13  5  1  0
 22 14  1  0
 13  8  1  0
 22 18  2  0
M  END
>  <id>  (74) 
150607

>  <inchikey>  (74) 
GXURJFQNMZPNAK-UHFFFAOYSA-N

>  <alias>  (74) 
None

>  <smiles>  (74) 
O=C(NCc1coc2ccccc12)c1cccc2cc[nH]c12

>  <path>  (74) 
/opt/xchem-fragalysis-2/maxwin/BulkDock/SCRATCH/217079/C35941-P86/C35941-P86.minimised.mol

>  <distance_score>  (74) 
0.695661

>  <energy_score>  (74) 
-20.739881

>  <compound>  (74) 
GXURJFQNMZPNAK-UHFFFAOYSA-N

>  <compound_id>  (74) 
35941

>  <target>  (74) 
Flavi_NS5_RdRp

>  <tags>  (74) 
['Fragmenstein placed', 'JA curated NO', 'Knitwork pure merge', 'Green Site/RNA tunnel merge', 'acceptable']

>  <inspirations>  (74) 
{P Ã— 2}

>  <subsites>  (74) 
None

>  <reference>  (74) 
z0107a

>  <SLURM_JOB_ID>  (74) 
217079

>  <SLURM_JOB_NAME>  (74) 
BulkDock.place:Flavi_NS5_RdRp:RdRp_knitwork_green_site_rna_tunnel_pure_split4000_batch008

>  <csv_name>  (74) 
RdRp_knitwork_green_site_rna_tunnel_pure_split4000_batch008.csv

>  <scratch_subdir>  (74) 
/opt/xchem-fragalysis-2/maxwin/BulkDock/SCRATCH/217079/C35941-P86

>  <fragmenstein_runtime>  (74) 
2.193483

>  <fragmenstein_outcome>  (74) 
acceptable

>  <fragmenstein_mode>  (74) 
expansion

>  <fragmenstein_error>  (74) 


>  <exports>  (74) 
/opt/xchem-fragalysis-2/maxwin/BulkDock/OUTPUTS/RdRp_knitwork_green_site_rna_tunnel_pure_split4000_batch008_217079.sdf;/opt/xchem-fragalysis-2/maxwin/BulkDock/OUTPUTS/RdRp_knitwork_green_site_rna_tunnel_pure_fragalysis.sdf

>  <Multi-SuCOS>  (74) 
nan

>  <merge_set>  (74) 
nan

$$$$
DEGPAYOEPZCOBR-UHFFFAOYSA-N
     RDKit          3D

 20 22  0  0  0  0  0  0  0  0999 V2000
  -26.0968  -31.7801  -17.3571 C   0  0  0  0  0  0  0  0  0  0  0  0
  -27.0016  -31.1395  -18.3560 C   0  0  0  0  0  0  0  0  0  0  0  0
  -28.2243  -30.6196  -17.9383 C   0  0  0  0  0  0  0  0  0  0  0  0
  -29.1337  -30.0647  -18.7624 N   0  0  0  0  0  0  0  0  0  0  0  0
  -28.8166  -30.0266  -20.0703 C   0  0  0  0  0  0  0  0  0  0  0  0
  -27.6256  -30.5052  -20.5870 C   0  0  0  0  0  0  0  0  0  0  0  0
  -26.6960  -31.0643  -19.7202 C   0  0  0  0  0  0  0  0  0  0  0  0
  -25.4680  -31.5379  -20.1977 N   0  0  0  0  0  0  0  0  0  0  0  0
  -24.9151  -31.6385  -21.6666 C   0  0  0  0  0  0  0  0  0  0  0  0
  -25.3769  -31.2686  -22.6772 O   0  0  0  0  0  0  0  0  0  0  0  0
  -23.5656  -32.3480  -21.5175 C   0  0  0  0  0  0  0  0  0  0  0  0
  -22.7625  -32.5725  -22.7573 C   0  0  0  0  0  0  0  0  0  0  0  0
  -21.4378  -32.2069  -22.9186 C   0  0  0  0  0  0  0  0  0  0  0  0
  -20.9305  -32.6684  -24.0866 O   0  0  0  0  0  0  0  0  0  0  0  0
  -21.9364  -33.3267  -24.7163 C   0  0  0  0  0  0  0  0  0  0  0  0
  -21.8100  -33.9874  -25.9370 C   0  0  0  0  0  0  0  0  0  0  0  0
  -22.9521  -34.6309  -26.4135 C   0  0  0  0  0  0  0  0  0  0  0  0
  -24.1565  -34.5705  -25.7034 C   0  0  0  0  0  0  0  0  0  0  0  0
  -24.2493  -33.8946  -24.4743 C   0  0  0  0  0  0  0  0  0  0  0  0
  -23.1018  -33.2726  -23.9583 C   0  0  0  0  0  0  0  0  0  0  0  0
  1  2  1  0
  2  3  2  0
  3  4  1  0
  4  5  2  0
  5  6  1  0
  6  7  2  0
  7  8  1  0
  8  9  1  0
  9 10  2  0
  9 11  1  0
 11 12  1  0
 12 13  2  0
 13 14  1  0
 14 15  1  0
 15 16  2  0
 16 17  1  0
 17 18  2  0
 18 19  1  0
 19 20  2  0
  7  2  1  0
 20 12  1  0
 20 15  1  0
M  END
>  <id>  (75) 
155833

>  <inchikey>  (75) 
DEGPAYOEPZCOBR-UHFFFAOYSA-N

>  <alias>  (75) 
None

>  <smiles>  (75) 
Cc1cnccc1NC(=O)Cc1coc2ccccc12

>  <path>  (75) 
/opt/xchem-fragalysis-2/maxwin/BulkDock/SCRATCH/217079/C36458-P123/C36458-P123.minimised.mol

>  <distance_score>  (75) 
0.887184

>  <energy_score>  (75) 
-54.996595

>  <compound>  (75) 
DEGPAYOEPZCOBR-UHFFFAOYSA-N

>  <compound_id>  (75) 
36458

>  <target>  (75) 
Flavi_NS5_RdRp

>  <tags>  (75) 
['Fragmenstein placed', 'Knitwork pure merge', 'iter1 scaffolds', 'Green Site/RNA tunnel merge', 'Enamine_Order_1968912', 'best elaborated iter1 scaffold poses', 'JA curated YES', 'acceptable']

>  <inspirations>  (75) 
{P Ã— 2}

>  <subsites>  (75) 
[[1m[4m"Green Site/RNA tunnel"[22m[24m]

>  <reference>  (75) 
z0411a

>  <SLURM_JOB_ID>  (75) 
217079

>  <SLURM_JOB_NAME>  (75) 
BulkDock.place:Flavi_NS5_RdRp:RdRp_knitwork_green_site_rna_tunnel_pure_split4000_batch008

>  <csv_name>  (75) 
RdRp_knitwork_green_site_rna_tunnel_pure_split4000_batch008.csv

>  <scratch_subdir>  (75) 
/opt/xchem-fragalysis-2/maxwin/BulkDock/SCRATCH/217079/C36458-P123

>  <fragmenstein_runtime>  (75) 
5.697099

>  <fragmenstein_outcome>  (75) 
acceptable

>  <fragmenstein_mode>  (75) 
expansion

>  <fragmenstein_error>  (75) 


>  <exports>  (75) 
/opt/xchem-fragalysis-2/maxwin/BulkDock/OUTPUTS/RdRp_knitwork_green_site_rna_tunnel_pure_split4000_batch008_217079.sdf;/opt/xchem-fragalysis-2/maxwin/BulkDock/OUTPUTS/RdRp_knitwork_green_site_rna_tunnel_pure_fragalysis.sdf;/opt/xchem-fragalysis-2/maxwin/RdRp_FFF/quotes/JA_curated_and_manual_ordered.sdf;/opt/xchem-fragalysis-2/maxwin/RdRp_FFF/quotes/combined_jan2025_ordered.sdf;/opt/xchem-fragalysis-2/maxwin/RdRp_FFF/hippo/iter1_elaborated_scaffold_poses.sdf

>  <Multi-SuCOS>  (75) 
nan

>  <merge_set>  (75) 
nan

$$$$
WZJPHEKPHALAMW-OAHLLOKOSA-N
     RDKit          3D

 25 27  0  0  0  0  0  0  0  0999 V2000
  -23.5284  -32.3419  -19.9256 C   0  0  0  0  0  0  0  0  0  0  0  0
  -24.0324  -32.3834  -21.3640 C   0  0  2  0  0  0  0  0  0  0  0  0
  -22.9421  -31.9364  -22.3456 C   0  0  0  0  0  0  0  0  0  0  0  0
  -22.5302  -32.9316  -23.3124 N   0  0  0  0  0  0  0  0  0  0  0  0
  -21.1473  -33.0219  -23.6928 C   0  0  0  0  0  0  0  0  0  0  0  0
  -21.1787  -33.4667  -25.1403 C   0  0  0  0  0  0  0  0  0  0  0  0
  -22.5385  -34.1212  -25.3160 C   0  0  0  0  0  0  0  0  0  0  0  0
  -23.3795  -33.3789  -24.3164 C   0  0  0  0  0  0  0  0  0  0  0  0
  -24.5832  -33.2147  -24.4051 O   0  0  0  0  0  0  0  0  0  0  0  0
  -25.1889  -31.5309  -21.5405 N   0  0  0  0  0  0  0  0  0  0  0  0
  -26.5925  -31.8556  -22.0409 C   0  0  0  0  0  0  0  0  0  0  0  0
  -27.0749  -32.8727  -22.3209 O   0  0  0  0  0  0  0  0  0  0  0  0
  -27.3293  -30.5795  -22.2490 C   0  0  0  0  0  0  0  0  0  0  0  0
  -27.9515  -29.8499  -21.3114 C   0  0  0  0  0  0  0  0  0  0  0  0
  -27.9429  -30.0586  -19.8654 C   0  0  0  0  0  0  0  0  0  0  0  0
  -29.1450  -30.2489  -19.1941 C   0  0  0  0  0  0  0  0  0  0  0  0
  -29.1529  -30.4215  -17.8074 C   0  0  0  0  0  0  0  0  0  0  0  0
  -27.9690  -30.4109  -17.0512 C   0  0  0  0  0  0  0  0  0  0  0  0
  -26.7623  -30.2225  -17.7434 C   0  0  0  0  0  0  0  0  0  0  0  0
  -26.7617  -30.0137  -19.1261 C   0  0  0  0  0  0  0  0  0  0  0  0
  -25.4495  -30.2531  -17.0126 C   0  0  0  0  0  0  0  0  0  0  0  0
  -25.5749  -31.2313  -15.8637 C   0  0  0  0  0  0  0  0  0  0  0  0
  -26.7086  -30.7853  -14.9632 C   0  0  0  0  0  0  0  0  0  0  0  0
  -27.9840  -30.6690  -15.6758 N   0  0  0  0  0  0  0  0  0  0  0  0
  -29.0325  -29.9961  -14.9310 C   0  0  0  0  0  0  0  0  0  0  0  0
  2  1  1  1
  2  3  1  0
  3  4  1  0
  4  5  1  0
  5  6  1  0
  6  7  1  0
  7  8  1  0
  8  9  2  0
  2 10  1  0
 10 11  1  0
 11 12  2  0
 11 13  1  0
 13 14  2  3
 14 15  1  0
 15 16  2  0
 16 17  1  0
 17 18  2  0
 18 19  1  0
 19 20  2  0
 19 21  1  0
 21 22  1  0
 22 23  1  0
 23 24  1  0
 24 25  1  0
  8  4  1  0
 20 15  1  0
 24 18  1  0
M  END
>  <id>  (76) 
156338

>  <inchikey>  (76) 
WZJPHEKPHALAMW-OAHLLOKOSA-N

>  <alias>  (76) 
None

>  <smiles>  (76) 
C[C@H](CN1CCCC1=O)NC(=O)C=Cc1ccc2c(c1)CCCN2C

>  <path>  (76) 
/opt/xchem-fragalysis-2/maxwin/BulkDock/SCRATCH/217075/C44380-P7/C44380-P7.minimised.mol

>  <distance_score>  (76) 
0.762527

>  <energy_score>  (76) 
-54.619278

>  <compound>  (76) 
WZJPHEKPHALAMW-UHFFFAOYSA-N

>  <compound_id>  (76) 
44380

>  <target>  (76) 
Flavi_NS5_RdRp

>  <tags>  (76) 
['Fragmenstein placed', 'JA curated NO', 'Knitwork pure merge', 'iter1 scaffolds', 'LCD curated YES', 'Enamine_unavailable', 'Green Site/RNA tunnel merge', 'best elaborated iter1 scaffold poses', 'acceptable']

>  <inspirations>  (76) 
{P Ã— 2}

>  <subsites>  (76) 
[[1m[4m"Green Site/RNA tunnel"[22m[24m]

>  <reference>  (76) 
z0904a

>  <SLURM_JOB_ID>  (76) 
217075

>  <SLURM_JOB_NAME>  (76) 
BulkDock.place:Flavi_NS5_RdRp:RdRp_knitwork_green_site_rna_tunnel_pure_split4000_batch004

>  <csv_name>  (76) 
RdRp_knitwork_green_site_rna_tunnel_pure_split4000_batch004.csv

>  <scratch_subdir>  (76) 
/opt/xchem-fragalysis-2/maxwin/BulkDock/SCRATCH/217075/C44380-P7

>  <fragmenstein_runtime>  (76) 
6.674646

>  <fragmenstein_outcome>  (76) 
acceptable

>  <fragmenstein_mode>  (76) 
expansion

>  <fragmenstein_error>  (76) 


>  <exports>  (76) 
/opt/xchem-fragalysis-2/maxwin/BulkDock/OUTPUTS/RdRp_knitwork_green_site_rna_tunnel_pure_split4000_batch004_217075.sdf;/opt/xchem-fragalysis-2/maxwin/BulkDock/OUTPUTS/RdRp_knitwork_green_site_rna_tunnel_pure_fragalysis.sdf;/opt/xchem-fragalysis-2/maxwin/RdRp_FFF/hippo/iter1_elaborated_scaffold_poses.sdf

>  <Multi-SuCOS>  (76) 
nan

>  <merge_set>  (76) 
nan

$$$$
RMDDLTVCDWQPGN-AWEZNQCLSA-N
     RDKit          3D

 22 25  0  0  0  0  0  0  0  0999 V2000
  -26.4440  -30.9562  -22.2857 O   0  0  0  0  0  0  0  0  0  0  0  0
  -26.1627  -31.3102  -21.2126 C   0  0  0  0  0  0  0  0  0  0  0  0
  -25.0667  -32.3120  -20.8859 C   0  0  0  0  0  0  0  0  0  0  0  0
  -24.3180  -32.8419  -22.1105 C   0  0  0  0  0  0  0  0  0  0  0  0
  -23.2659  -33.8277  -21.6582 C   0  0  0  0  0  0  0  0  0  0  0  0
  -23.4824  -35.1869  -21.5430 C   0  0  0  0  0  0  0  0  0  0  0  0
  -22.2043  -35.9914  -20.7604 S   0  0  0  0  0  0  0  0  0  0  0  0
  -21.2801  -34.5474  -20.6206 C   0  0  0  0  0  0  0  0  0  0  0  0
  -20.0132  -34.4064  -20.0159 C   0  0  0  0  0  0  0  0  0  0  0  0
  -19.3891  -33.1581  -20.0255 C   0  0  0  0  0  0  0  0  0  0  0  0
  -20.0174  -32.0662  -20.6032 C   0  0  0  0  0  0  0  0  0  0  0  0
  -21.2826  -32.2064  -21.1808 C   0  0  0  0  0  0  0  0  0  0  0  0
  -21.9427  -33.4611  -21.1970 C   0  0  0  0  0  0  0  0  0  0  0  0
  -26.7585  -30.9155  -19.8363 N   0  0  0  0  0  0  0  0  0  0  0  0
  -27.7635  -29.9278  -19.4942 C   0  0  1  0  0  0  0  0  0  0  0  0
  -29.1835  -30.4568  -19.7246 C   0  0  0  0  0  0  0  0  0  0  0  0
  -29.5977  -31.4607  -18.6513 C   0  0  0  0  0  0  0  0  0  0  0  0
  -29.4773  -30.8995  -17.3053 N   0  0  0  0  0  0  0  0  0  0  0  0
  -28.0971  -30.4468  -17.0563 C   0  0  0  0  0  0  0  0  0  0  0  0
  -27.6765  -30.3136  -15.6154 C   0  0  0  0  0  0  0  0  0  0  0  0
  -27.1333  -31.4381  -16.4438 C   0  0  0  0  0  0  0  0  0  0  0  0
  -27.5747  -29.4362  -18.0542 C   0  0  0  0  0  0  0  0  0  0  0  0
  1  2  2  0
  2  3  1  0
  3  4  1  0
  4  5  1  0
  5  6  2  0
  6  7  1  0
  7  8  1  0
  8  9  2  0
  9 10  1  0
 10 11  2  0
 11 12  1  0
 12 13  2  0
  2 14  1  0
 15 14  1  1
 15 16  1  0
 16 17  1  0
 17 18  1  0
 18 19  1  0
 19 20  1  0
 20 21  1  0
 19 22  1  0
 13  5  1  0
 22 15  1  0
 13  8  1  0
 21 19  1  0
M  END
>  <id>  (77) 
168974

>  <inchikey>  (77) 
RMDDLTVCDWQPGN-AWEZNQCLSA-N

>  <alias>  (77) 
None

>  <smiles>  (77) 
O=C(CCc1csc2ccccc12)N[C@H]1CCNC2(CC2)C1

>  <path>  (77) 
/opt/xchem-fragalysis-2/maxwin/BulkDock/SCRATCH/220468/C34583-P120/C34583-P120.minimised.mol

>  <distance_score>  (77) 
0.853421

>  <energy_score>  (77) 
-39.882357

>  <compound>  (77) 
RMDDLTVCDWQPGN-UHFFFAOYSA-N

>  <compound_id>  (77) 
34583

>  <target>  (77) 
Flavi_NS5_RdRp

>  <tags>  (77) 
['Fragmenstein placed', 'iter1 scaffolds', 'Knitwork impure merge', 'LCD curated YES', 'Enamine_unavailable', 'Green Site/RNA tunnel merge', 'RdRp_knitwork_green_site_rna_tunnel_impure_fragalysis.sdf Pose OK', 'acceptable']

>  <inspirations>  (77) 
{P Ã— 2}

>  <subsites>  (77) 
None

>  <reference>  (77) 
z0384a

>  <SLURM_JOB_ID>  (77) 
220468

>  <SLURM_JOB_NAME>  (77) 
BulkDock.place:Flavi_NS5_RdRp:RdRp_knitwork_green_site_rna_tunnel_impure_split4000_batch017

>  <csv_name>  (77) 
RdRp_knitwork_green_site_rna_tunnel_impure_split4000_batch017.csv

>  <scratch_subdir>  (77) 
/opt/xchem-fragalysis-2/maxwin/BulkDock/SCRATCH/220468/C34583-P120

>  <fragmenstein_runtime>  (77) 
5.397103

>  <fragmenstein_outcome>  (77) 
acceptable

>  <fragmenstein_mode>  (77) 
expansion

>  <fragmenstein_error>  (77) 


>  <exports>  (77) 
/opt/xchem-fragalysis-2/maxwin/BulkDock/OUTPUTS/RdRp_knitwork_green_site_rna_tunnel_impure_split4000_batch017_220468.sdf;/opt/xchem-fragalysis-2/maxwin/BulkDock/OUTPUTS/RdRp_knitwork_green_site_rna_tunnel_impure_fragalysis.sdf;/opt/xchem-fragalysis-2/maxwin/RdRp_FFF/syndirella/Retro_OK_batch3.sdf;/opt/xchem-fragalysis-2/maxwin/RdRp_FFF/quotes/combined_jan2025_ordered.sdf

>  <Multi-SuCOS>  (77) 
0.568131

>  <merge_set>  (77) 
RdRp_knitwork_green_site_rna_tunnel_impure_fragalysis.sdf

$$$$
LQQWCINYCCMFRV-UHFFFAOYSA-N
     RDKit          3D

 24 27  0  0  0  0  0  0  0  0999 V2000
  -25.4165  -33.0678  -19.8921 O   0  0  0  0  0  0  0  0  0  0  0  0
  -25.7009  -32.6492  -20.9467 C   0  0  0  0  0  0  0  0  0  0  0  0
  -26.0169  -31.1556  -21.1573 C   0  0  0  0  0  0  0  0  0  0  0  0
  -27.1530  -30.6906  -20.3038 C   0  0  0  0  0  0  0  0  0  0  0  0
  -28.3159  -30.3337  -20.8735 N   0  0  0  0  0  0  0  0  0  0  0  0
  -29.1639  -29.9939  -19.8301 O   0  0  0  0  0  0  0  0  0  0  0  0
  -28.5019  -30.1147  -18.6468 C   0  0  0  0  0  0  0  0  0  0  0  0
  -29.0259  -29.8824  -17.3762 C   0  0  0  0  0  0  0  0  0  0  0  0
  -28.1543  -30.0796  -16.3000 C   0  0  0  0  0  0  0  0  0  0  0  0
  -26.8308  -30.4797  -16.5072 C   0  0  0  0  0  0  0  0  0  0  0  0
  -26.3367  -30.7069  -17.8003 C   0  0  0  0  0  0  0  0  0  0  0  0
  -27.2036  -30.5277  -18.8920 C   0  0  0  0  0  0  0  0  0  0  0  0
  -25.7372  -33.3546  -22.3367 N   0  0  0  0  0  0  0  0  0  0  0  0
  -25.5215  -34.7488  -22.6944 C   0  0  0  0  0  0  0  0  0  0  0  0
  -24.4424  -35.5111  -21.9033 C   0  0  0  0  0  0  0  0  0  0  0  0
  -23.1509  -34.7841  -21.7717 C   0  0  0  0  0  0  0  0  0  0  0  0
  -22.6432  -33.6238  -22.3213 C   0  0  0  0  0  0  0  0  0  0  0  0
  -21.4682  -33.3105  -21.5975 C   0  0  0  0  0  0  0  0  0  0  0  0
  -20.5669  -32.2335  -21.5741 C   0  0  0  0  0  0  0  0  0  0  0  0
  -19.4996  -32.2769  -20.6674 C   0  0  0  0  0  0  0  0  0  0  0  0
  -19.3146  -33.3738  -19.8216 C   0  0  0  0  0  0  0  0  0  0  0  0
  -20.2083  -34.4497  -19.8250 C   0  0  0  0  0  0  0  0  0  0  0  0
  -21.2759  -34.3653  -20.7153 C   0  0  0  0  0  0  0  0  0  0  0  0
  -22.2763  -35.2812  -20.8457 O   0  0  0  0  0  0  0  0  0  0  0  0
  1  2  2  0
  2  3  1  0
  3  4  1  0
  4  5  2  0
  5  6  1  0
  6  7  1  0
  7  8  2  0
  8  9  1  0
  9 10  2  0
 10 11  1  0
 11 12  2  0
  2 13  1  0
 13 14  1  0
 14 15  1  0
 15 16  1  0
 16 17  2  0
 17 18  1  0
 18 19  2  0
 19 20  1  0
 20 21  2  0
 21 22  1  0
 22 23  2  0
 23 24  1  0
 12  4  1  0
 24 16  1  0
 12  7  1  0
 23 18  1  0
M  END
>  <id>  (78) 
174899

>  <inchikey>  (78) 
LQQWCINYCCMFRV-UHFFFAOYSA-N

>  <alias>  (78) 
None

>  <smiles>  (78) 
O=C(Cc1noc2ccccc12)NCCc1cc2ccccc2o1

>  <path>  (78) 
/opt/xchem-fragalysis-2/maxwin/BulkDock/SCRATCH/220454/C56786-P88/C56786-P88.minimised.mol

>  <distance_score>  (78) 
0.894052

>  <energy_score>  (78) 
-21.404264

>  <compound>  (78) 
LQQWCINYCCMFRV-UHFFFAOYSA-N

>  <compound_id>  (78) 
56786

>  <target>  (78) 
Flavi_NS5_RdRp

>  <tags>  (78) 
['Fragmenstein placed', 'Enamine_Quote_1977854', 'iter1 scaffolds', 'Knitwork impure merge', 'LCD curated YES', 'Green Site/RNA tunnel merge', 'best elaborated iter1 scaffold poses', 'RdRp_knitwork_green_site_rna_tunnel_impure_fragalysis.sdf Pose OK', 'acceptable']

>  <inspirations>  (78) 
{P Ã— 2}

>  <subsites>  (78) 
[[1m[4m"Green Site/RNA tunnel"[22m[24m]

>  <reference>  (78) 
z0111a

>  <SLURM_JOB_ID>  (78) 
220454

>  <SLURM_JOB_NAME>  (78) 
BulkDock.place:Flavi_NS5_RdRp:RdRp_knitwork_green_site_rna_tunnel_impure_split4000_batch003

>  <csv_name>  (78) 
RdRp_knitwork_green_site_rna_tunnel_impure_split4000_batch003.csv

>  <scratch_subdir>  (78) 
/opt/xchem-fragalysis-2/maxwin/BulkDock/SCRATCH/220454/C56786-P88

>  <fragmenstein_runtime>  (78) 
3.55849

>  <fragmenstein_outcome>  (78) 
acceptable

>  <fragmenstein_mode>  (78) 
expansion

>  <fragmenstein_error>  (78) 


>  <exports>  (78) 
/opt/xchem-fragalysis-2/maxwin/BulkDock/OUTPUTS/RdRp_knitwork_green_site_rna_tunnel_impure_split4000_batch003_220454.sdf;/opt/xchem-fragalysis-2/maxwin/BulkDock/OUTPUTS/RdRp_knitwork_green_site_rna_tunnel_impure_fragalysis.sdf;/opt/xchem-fragalysis-2/maxwin/RdRp_FFF/syndirella/Retro_OK_batch3.sdf;/opt/xchem-fragalysis-2/maxwin/RdRp_FFF/quotes/combined_jan2025_ordered.sdf;/opt/xchem-fragalysis-2/maxwin/RdRp_FFF/hippo/iter1_elaborated_scaffold_poses.sdf

>  <Multi-SuCOS>  (78) 
0.669853

>  <merge_set>  (78) 
RdRp_knitwork_green_site_rna_tunnel_impure_fragalysis.sdf

$$$$
KSLLTEVDKMOHSW-KRWDZBQOSA-N
     RDKit          3D

 23 26  0  0  0  0  0  0  0  0999 V2000
  -29.2191  -30.5832  -16.2216 C   0  0  0  0  0  0  0  0  0  0  0  0
  -28.0176  -30.0880  -16.6570 C   0  0  0  0  0  0  0  0  0  0  0  0
  -27.7425  -29.7827  -17.9469 N   0  0  0  0  0  0  0  0  0  0  0  0
  -28.7050  -29.9964  -18.8829 C   0  0  0  0  0  0  0  0  0  0  0  0
  -29.9757  -30.4136  -18.5199 C   0  0  0  0  0  0  0  0  0  0  0  0
  -30.2115  -30.7418  -17.1737 C   0  0  0  0  0  0  0  0  0  0  0  0
  -31.0957  -30.3968  -19.5107 C   0  0  0  0  0  0  0  0  0  0  0  0
  -30.8096  -29.8303  -20.8840 C   0  0  0  0  0  0  0  0  0  0  0  0
  -29.5896  -28.9582  -20.9704 C   0  0  0  0  0  0  0  0  0  0  0  0
  -28.4082  -29.6378  -20.3398 C   0  0  2  0  0  0  0  0  0  0  0  0
  -28.0638  -30.7702  -21.2248 N   0  0  0  0  0  0  0  0  0  0  0  0
  -26.9954  -30.4723  -22.1846 C   0  0  0  0  0  0  0  0  0  0  0  0
  -25.8552  -29.8395  -21.4552 C   0  0  0  0  0  0  0  0  0  0  0  0
  -25.4241  -28.5731  -21.9074 C   0  0  0  0  0  0  0  0  0  0  0  0
  -24.7587  -27.7357  -21.0422 C   0  0  0  0  0  0  0  0  0  0  0  0
  -24.5172  -28.2161  -19.7816 C   0  0  0  0  0  0  0  0  0  0  0  0
  -24.8343  -29.4675  -19.3723 N   0  0  0  0  0  0  0  0  0  0  0  0
  -25.4665  -30.3297  -20.1962 C   0  0  0  0  0  0  0  0  0  0  0  0
  -25.6859  -31.6225  -19.7386 N   0  0  0  0  0  0  0  0  0  0  0  0
  -25.1140  -32.0417  -18.4622 C   0  0  0  0  0  0  0  0  0  0  0  0
  -24.9443  -33.5526  -18.5692 C   0  0  0  0  0  0  0  0  0  0  0  0
  -26.0309  -33.9459  -19.5379 C   0  0  0  0  0  0  0  0  0  0  0  0
  -26.0016  -32.8012  -20.5428 C   0  0  0  0  0  0  0  0  0  0  0  0
  1  2  2  0
  2  3  1  0
  3  4  2  0
  4  5  1  0
  5  6  2  0
  5  7  1  0
  7  8  1  0
  8  9  1  0
  9 10  1  0
 10 11  1  6
 11 12  1  0
 12 13  1  0
 13 14  2  0
 14 15  1  0
 15 16  2  0
 16 17  1  0
 17 18  2  0
 18 19  1  0
 19 20  1  0
 20 21  1  0
 21 22  1  0
 22 23  1  0
  6  1  1  0
 18 13  1  0
 23 19  1  0
 10  4  1  0
M  END
>  <id>  (79) 
175443

>  <inchikey>  (79) 
KSLLTEVDKMOHSW-KRWDZBQOSA-N

>  <alias>  (79) 
None

>  <smiles>  (79) 
c1cnc2c(c1)CCC[C@@H]2NCc1cccnc1N1CCCC1

>  <path>  (79) 
/opt/xchem-fragalysis-2/maxwin/BulkDock/SCRATCH/220452/C61386-P100/C61386-P100.minimised.mol

>  <distance_score>  (79) 
0.89828

>  <energy_score>  (79) 
-10.941015

>  <compound>  (79) 
KSLLTEVDKMOHSW-UHFFFAOYSA-N

>  <compound_id>  (79) 
61386

>  <target>  (79) 
Flavi_NS5_RdRp

>  <tags>  (79) 
['Fragmenstein placed', 'Enamine_Quote_1977854', 'iter1 scaffolds', 'Knitwork impure merge', 'LCD curated YES', 'Green Site/RNA tunnel merge', 'best elaborated iter1 scaffold poses', 'RdRp_knitwork_green_site_rna_tunnel_impure_fragalysis.sdf Pose OK', 'acceptable']

>  <inspirations>  (79) 
{P Ã— 2}

>  <subsites>  (79) 
[[1m[4m"Green Site/RNA tunnel"[22m[24m]

>  <reference>  (79) 
z0200a

>  <SLURM_JOB_ID>  (79) 
220452

>  <SLURM_JOB_NAME>  (79) 
BulkDock.place:Flavi_NS5_RdRp:RdRp_knitwork_green_site_rna_tunnel_impure_split4000_batch001

>  <csv_name>  (79) 
RdRp_knitwork_green_site_rna_tunnel_impure_split4000_batch001.csv

>  <scratch_subdir>  (79) 
/opt/xchem-fragalysis-2/maxwin/BulkDock/SCRATCH/220452/C61386-P100

>  <fragmenstein_runtime>  (79) 
2.506821

>  <fragmenstein_outcome>  (79) 
acceptable

>  <fragmenstein_mode>  (79) 
expansion

>  <fragmenstein_error>  (79) 


>  <exports>  (79) 
/opt/xchem-fragalysis-2/maxwin/BulkDock/OUTPUTS/RdRp_knitwork_green_site_rna_tunnel_impure_split4000_batch001_220452.sdf;/opt/xchem-fragalysis-2/maxwin/BulkDock/OUTPUTS/RdRp_knitwork_green_site_rna_tunnel_impure_fragalysis.sdf;/opt/xchem-fragalysis-2/maxwin/RdRp_FFF/syndirella/Retro_OK_batch3.sdf;/opt/xchem-fragalysis-2/maxwin/RdRp_FFF/quotes/combined_jan2025_ordered.sdf;/opt/xchem-fragalysis-2/maxwin/RdRp_FFF/hippo/iter1_elaborated_scaffold_poses.sdf

>  <Multi-SuCOS>  (79) 
0.636188

>  <merge_set>  (79) 
RdRp_knitwork_green_site_rna_tunnel_impure_fragalysis.sdf

$$$$
DHXCDLUKFAKLSY-UHFFFAOYSA-N
     RDKit          3D

 24 27  0  0  0  0  0  0  0  0999 V2000
  -27.1161  -31.9055  -21.8911 O   0  0  0  0  0  0  0  0  0  0  0  0
  -26.1661  -31.5333  -21.3268 C   0  0  0  0  0  0  0  0  0  0  0  0
  -24.7242  -31.3444  -21.8216 N   0  0  0  0  0  0  0  0  0  0  0  0
  -24.1230  -31.6610  -23.0853 C   0  0  0  0  0  0  0  0  0  0  0  0
  -23.8692  -33.1457  -23.3490 C   0  0  0  0  0  0  0  0  0  0  0  0
  -23.1911  -34.0175  -22.3041 C   0  0  0  0  0  0  0  0  0  0  0  0
  -23.8404  -35.2396  -22.0204 C   0  0  0  0  0  0  0  0  0  0  0  0
  -23.3093  -36.1592  -21.1291 C   0  0  0  0  0  0  0  0  0  0  0  0
  -22.1094  -35.8716  -20.4922 C   0  0  0  0  0  0  0  0  0  0  0  0
  -21.4179  -34.6794  -20.7518 C   0  0  0  0  0  0  0  0  0  0  0  0
  -20.2010  -34.4348  -20.0912 C   0  0  0  0  0  0  0  0  0  0  0  0
  -19.4836  -33.2634  -20.3131 C   0  0  0  0  0  0  0  0  0  0  0  0
  -19.9690  -32.3329  -21.2173 C   0  0  0  0  0  0  0  0  0  0  0  0
  -21.1628  -32.5762  -21.9033 C   0  0  0  0  0  0  0  0  0  0  0  0
  -21.9414  -33.7342  -21.6758 C   0  0  0  0  0  0  0  0  0  0  0  0
  -26.3344  -31.0529  -19.9078 C   0  0  0  0  0  0  0  0  0  0  0  0
  -25.3192  -31.0511  -18.9333 C   0  0  0  0  0  0  0  0  0  0  0  0
  -25.5464  -30.5497  -17.6476 C   0  0  0  0  0  0  0  0  0  0  0  0
  -26.8060  -30.0652  -17.2783 C   0  0  0  0  0  0  0  0  0  0  0  0
  -27.8525  -30.0893  -18.2185 C   0  0  0  0  0  0  0  0  0  0  0  0
  -29.2262  -29.7258  -18.1772 C   0  0  0  0  0  0  0  0  0  0  0  0
  -29.7652  -29.9719  -19.4193 C   0  0  0  0  0  0  0  0  0  0  0  0
  -28.7707  -30.4636  -20.2158 N   0  0  0  0  0  0  0  0  0  0  0  0
  -27.5935  -30.5689  -19.5024 C   0  0  0  0  0  0  0  0  0  0  0  0
  1  2  2  0
  2  3  1  0
  3  4  1  0
  4  5  1  0
  5  6  1  0
  6  7  2  0
  7  8  1  0
  8  9  2  0
  9 10  1  0
 10 11  2  0
 11 12  1  0
 12 13  2  0
 13 14  1  0
 14 15  2  0
  2 16  1  0
 16 17  2  0
 17 18  1  0
 18 19  2  0
 19 20  1  0
 20 21  1  0
 21 22  2  0
 22 23  1  0
 23 24  1  0
 15  6  1  0
 24 16  1  0
 15 10  1  0
 24 20  2  0
M  END
>  <id>  (80) 
180920

>  <inchikey>  (80) 
DHXCDLUKFAKLSY-UHFFFAOYSA-N

>  <alias>  (80) 
None

>  <smiles>  (80) 
O=C(NCCc1cccc2ccccc12)c1cccc2cc[nH]c12

>  <path>  (80) 
/opt/xchem-fragalysis-2/maxwin/BulkDock/SCRATCH/220461/C28628-P86/C28628-P86.minimised.mol

>  <distance_score>  (80) 
0.774008

>  <energy_score>  (80) 
-41.775808

>  <compound>  (80) 
DHXCDLUKFAKLSY-UHFFFAOYSA-N

>  <compound_id>  (80) 
28628

>  <target>  (80) 
Flavi_NS5_RdRp

>  <tags>  (80) 
['Fragmenstein placed', 'Enamine_Quote_1977854', 'iter1 scaffolds', 'Knitwork impure merge', 'LCD curated YES', 'Green Site/RNA tunnel merge', 'best elaborated iter1 scaffold poses', 'RdRp_knitwork_green_site_rna_tunnel_impure_fragalysis.sdf Pose OK', 'acceptable']

>  <inspirations>  (80) 
{P Ã— 2}

>  <subsites>  (80) 
[[1m[4m"Green Site/RNA tunnel"[22m[24m]

>  <reference>  (80) 
z0107a

>  <SLURM_JOB_ID>  (80) 
220461

>  <SLURM_JOB_NAME>  (80) 
BulkDock.place:Flavi_NS5_RdRp:RdRp_knitwork_green_site_rna_tunnel_impure_split4000_batch010

>  <csv_name>  (80) 
RdRp_knitwork_green_site_rna_tunnel_impure_split4000_batch010.csv

>  <scratch_subdir>  (80) 
/opt/xchem-fragalysis-2/maxwin/BulkDock/SCRATCH/220461/C28628-P86

>  <fragmenstein_runtime>  (80) 
3.634602

>  <fragmenstein_outcome>  (80) 
acceptable

>  <fragmenstein_mode>  (80) 
expansion

>  <fragmenstein_error>  (80) 


>  <exports>  (80) 
/opt/xchem-fragalysis-2/maxwin/BulkDock/OUTPUTS/RdRp_knitwork_green_site_rna_tunnel_impure_split4000_batch010_220461.sdf;/opt/xchem-fragalysis-2/maxwin/BulkDock/OUTPUTS/RdRp_knitwork_green_site_rna_tunnel_impure_fragalysis.sdf;/opt/xchem-fragalysis-2/maxwin/RdRp_FFF/syndirella/Retro_OK_batch3.sdf;/opt/xchem-fragalysis-2/maxwin/RdRp_FFF/quotes/combined_jan2025_ordered.sdf;/opt/xchem-fragalysis-2/maxwin/RdRp_FFF/hippo/iter1_elaborated_scaffold_poses.sdf

>  <Multi-SuCOS>  (80) 
0.675235

>  <merge_set>  (80) 
RdRp_knitwork_green_site_rna_tunnel_impure_fragalysis.sdf

$$$$
ZOPZYWPRKRGGTC-UHFFFAOYSA-N
     RDKit          3D

 14 15  0  0  0  0  0  0  0  0999 V2000
  -27.3698  -30.7621  -20.6509 C   0  0  0  0  0  0  0  0  0  0  0  0
  -28.8706  -29.8830  -20.2618 S   0  0  0  0  0  0  0  0  0  0  0  0
  -28.8261  -28.6430  -20.9991 O   0  0  0  0  0  0  0  0  0  0  0  0
  -29.9721  -30.8039  -20.4529 O   0  0  0  0  0  0  0  0  0  0  0  0
  -28.7092  -29.5480  -18.6018 N   0  0  0  0  0  0  0  0  0  0  0  0
  -29.5896  -30.3370  -17.7115 C   0  0  0  0  0  0  0  0  0  0  0  0
  -29.1966  -30.2274  -16.2469 C   0  0  0  0  0  0  0  0  0  0  0  0
  -27.7169  -30.5322  -16.0764 C   0  0  0  0  0  0  0  0  0  0  0  0
  -26.9211  -29.5765  -16.9181 C   0  0  0  0  0  0  0  0  0  0  0  0
  -25.6488  -29.1895  -16.4976 C   0  0  0  0  0  0  0  0  0  0  0  0
  -24.9381  -28.2425  -17.2266 C   0  0  0  0  0  0  0  0  0  0  0  0
  -25.4791  -27.6695  -18.3713 C   0  0  0  0  0  0  0  0  0  0  0  0
  -26.7377  -28.0717  -18.8054 C   0  0  0  0  0  0  0  0  0  0  0  0
  -27.4452  -29.0623  -18.1153 C   0  0  0  0  0  0  0  0  0  0  0  0
  1  2  1  0
  2  3  2  0
  2  4  2  0
  2  5  1  0
  5  6  1  0
  6  7  1  0
  7  8  1  0
  8  9  1  0
  9 10  2  0
 10 11  1  0
 11 12  2  0
 12 13  1  0
 13 14  2  0
 14  5  1  0
 14  9  1  0
M  END
>  <id>  (81) 
183500

>  <inchikey>  (81) 
ZOPZYWPRKRGGTC-UHFFFAOYSA-N

>  <alias>  (81) 
None

>  <smiles>  (81) 
CS(=O)(=O)N1CCCc2ccccc21

>  <path>  (81) 
/opt/xchem-fragalysis-2/maxwin/BulkDock/SCRATCH/220458/C61134-P3/C61134-P3.minimised.mol

>  <distance_score>  (81) 
0.829974

>  <energy_score>  (81) 
-32.921421

>  <compound>  (81) 
ZOPZYWPRKRGGTC-UHFFFAOYSA-N

>  <compound_id>  (81) 
61134

>  <target>  (81) 
Flavi_NS5_RdRp

>  <tags>  (81) 
['Fragmenstein placed', 'Enamine_Quote_1977854', 'iter1 scaffolds', 'Knitwork impure merge', 'LCD curated YES', 'Green Site/RNA tunnel merge', 'RdRp_knitwork_green_site_rna_tunnel_impure_fragalysis.sdf Pose OK', 'acceptable']

>  <inspirations>  (81) 
{P Ã— 2}

>  <subsites>  (81) 
None

>  <reference>  (81) 
z0165a

>  <SLURM_JOB_ID>  (81) 
220458

>  <SLURM_JOB_NAME>  (81) 
BulkDock.place:Flavi_NS5_RdRp:RdRp_knitwork_green_site_rna_tunnel_impure_split4000_batch007

>  <csv_name>  (81) 
RdRp_knitwork_green_site_rna_tunnel_impure_split4000_batch007.csv

>  <scratch_subdir>  (81) 
/opt/xchem-fragalysis-2/maxwin/BulkDock/SCRATCH/220458/C61134-P3

>  <fragmenstein_runtime>  (81) 
1.919771

>  <fragmenstein_outcome>  (81) 
acceptable

>  <fragmenstein_mode>  (81) 
expansion

>  <fragmenstein_error>  (81) 


>  <exports>  (81) 
/opt/xchem-fragalysis-2/maxwin/BulkDock/OUTPUTS/RdRp_knitwork_green_site_rna_tunnel_impure_split4000_batch007_220458.sdf;/opt/xchem-fragalysis-2/maxwin/BulkDock/OUTPUTS/RdRp_knitwork_green_site_rna_tunnel_impure_fragalysis.sdf;/opt/xchem-fragalysis-2/maxwin/RdRp_FFF/syndirella/Retro_OK_batch3.sdf;/opt/xchem-fragalysis-2/maxwin/RdRp_FFF/quotes/combined_jan2025_ordered.sdf

>  <Multi-SuCOS>  (81) 
0.765545

>  <merge_set>  (81) 
RdRp_knitwork_green_site_rna_tunnel_impure_fragalysis.sdf

$$$$
SEXBZMJMGRUWGS-UHFFFAOYSA-N
     RDKit          3D

 22 24  0  0  0  0  0  0  0  0999 V2000
  -31.0069  -30.4844  -20.2150 C   0  0  0  0  0  0  0  0  0  0  0  0
  -30.0584  -30.1243  -19.0856 C   0  0  0  0  0  0  0  0  0  0  0  0
  -28.8361  -29.5612  -19.6338 N   0  0  0  0  0  0  0  0  0  0  0  0
  -27.5899  -30.0804  -19.4050 C   0  0  0  0  0  0  0  0  0  0  0  0
  -27.0062  -30.0776  -20.6421 C   0  0  0  0  0  0  0  0  0  0  0  0
  -25.9140  -30.7612  -21.0408 N   0  0  0  0  0  0  0  0  0  0  0  0
  -25.2097  -30.8181  -22.4244 C   0  0  0  0  0  0  0  0  0  0  0  0
  -25.4221  -30.2233  -23.4061 O   0  0  0  0  0  0  0  0  0  0  0  0
  -24.2024  -31.9300  -22.2701 C   0  0  0  0  0  0  0  0  0  0  0  0
  -23.5083  -32.2686  -23.5752 C   0  0  0  0  0  0  0  0  0  0  0  0
  -23.0642  -33.7248  -23.6423 C   0  0  0  0  0  0  0  0  0  0  0  0
  -22.5167  -34.3218  -22.3725 C   0  0  0  0  0  0  0  0  0  0  0  0
  -22.9839  -35.5163  -21.8569 C   0  0  0  0  0  0  0  0  0  0  0  0
  -22.1863  -35.9875  -20.4352 S   0  0  0  0  0  0  0  0  0  0  0  0
  -21.1725  -34.6013  -20.4606 C   0  0  0  0  0  0  0  0  0  0  0  0
  -20.1572  -34.2919  -19.5343 C   0  0  0  0  0  0  0  0  0  0  0  0
  -19.4359  -33.1084  -19.6852 C   0  0  0  0  0  0  0  0  0  0  0  0
  -19.7116  -32.2515  -20.7367 C   0  0  0  0  0  0  0  0  0  0  0  0
  -20.6904  -32.5818  -21.6782 C   0  0  0  0  0  0  0  0  0  0  0  0
  -21.4557  -33.7712  -21.5502 C   0  0  0  0  0  0  0  0  0  0  0  0
  -27.8351  -29.2954  -21.4489 C   0  0  0  0  0  0  0  0  0  0  0  0
  -28.8968  -28.8526  -20.7811 N   0  0  0  0  0  0  0  0  0  0  0  0
  1  2  1  0
  2  3  1  0
  3  4  1  0
  4  5  2  0
  5  6  1  0
  6  7  1  0
  7  8  2  0
  7  9  1  0
  9 10  1  0
 10 11  1  0
 11 12  1  0
 12 13  2  0
 13 14  1  0
 14 15  1  0
 15 16  2  0
 16 17  1  0
 17 18  2  0
 18 19  1  0
 19 20  2  0
  5 21  1  0
 21 22  2  0
 22  3  1  0
 20 12  1  0
 20 15  1  0
M  END
>  <id>  (82) 
184490

>  <inchikey>  (82) 
SEXBZMJMGRUWGS-UHFFFAOYSA-N

>  <alias>  (82) 
None

>  <smiles>  (82) 
CCn1cc(NC(=O)CCCc2csc3ccccc23)cn1

>  <path>  (82) 
/opt/xchem-fragalysis-2/maxwin/BulkDock/SCRATCH/220455/C28301-P104/C28301-P104.minimised.mol

>  <distance_score>  (82) 
0.837353

>  <energy_score>  (82) 
-15.401844

>  <compound>  (82) 
SEXBZMJMGRUWGS-UHFFFAOYSA-N

>  <compound_id>  (82) 
28301

>  <target>  (82) 
Flavi_NS5_RdRp

>  <tags>  (82) 
['Fragmenstein placed', 'Enamine_Quote_1977854', 'iter1 scaffolds', 'Knitwork impure merge', 'LCD curated YES', 'Green Site/RNA tunnel merge', 'best elaborated iter1 scaffold poses', 'RdRp_knitwork_green_site_rna_tunnel_impure_fragalysis.sdf Pose OK', 'acceptable']

>  <inspirations>  (82) 
{P Ã— 2}

>  <subsites>  (82) 
[[1m[4m"Green Site/RNA tunnel"[22m[24m]

>  <reference>  (82) 
z0215a

>  <SLURM_JOB_ID>  (82) 
220455

>  <SLURM_JOB_NAME>  (82) 
BulkDock.place:Flavi_NS5_RdRp:RdRp_knitwork_green_site_rna_tunnel_impure_split4000_batch004

>  <csv_name>  (82) 
RdRp_knitwork_green_site_rna_tunnel_impure_split4000_batch004.csv

>  <scratch_subdir>  (82) 
/opt/xchem-fragalysis-2/maxwin/BulkDock/SCRATCH/220455/C28301-P104

>  <fragmenstein_runtime>  (82) 
5.225038

>  <fragmenstein_outcome>  (82) 
acceptable

>  <fragmenstein_mode>  (82) 
expansion

>  <fragmenstein_error>  (82) 


>  <exports>  (82) 
/opt/xchem-fragalysis-2/maxwin/BulkDock/OUTPUTS/RdRp_knitwork_green_site_rna_tunnel_impure_split4000_batch004_220455.sdf;/opt/xchem-fragalysis-2/maxwin/BulkDock/OUTPUTS/RdRp_knitwork_green_site_rna_tunnel_impure_fragalysis.sdf;/opt/xchem-fragalysis-2/maxwin/RdRp_FFF/syndirella/Retro_OK_batch3.sdf;/opt/xchem-fragalysis-2/maxwin/RdRp_FFF/quotes/combined_jan2025_ordered.sdf;/opt/xchem-fragalysis-2/maxwin/RdRp_FFF/hippo/iter1_elaborated_scaffold_poses.sdf

>  <Multi-SuCOS>  (82) 
0.518134

>  <merge_set>  (82) 
RdRp_knitwork_green_site_rna_tunnel_impure_fragalysis.sdf

$$$$
CQQPOEPVLMKPHG-UHFFFAOYSA-N
     RDKit          3D

 19 20  0  0  0  0  0  0  0  0999 V2000
  -27.4336  -31.9029  -22.6080 C   0  0  0  0  0  0  0  0  0  0  0  0
  -27.1433  -31.6981  -21.1356 C   0  0  0  0  0  0  0  0  0  0  0  0
  -26.6250  -30.3875  -20.9160 O   0  0  0  0  0  0  0  0  0  0  0  0
  -27.4305  -29.3086  -20.8335 C   0  0  0  0  0  0  0  0  0  0  0  0
  -27.0036  -28.1990  -21.1279 O   0  0  0  0  0  0  0  0  0  0  0  0
  -28.8180  -29.5145  -20.4012 C   0  0  0  0  0  0  0  0  0  0  0  0
  -29.8023  -29.4072  -21.4020 C   0  0  0  0  0  0  0  0  0  0  0  0
  -30.6837  -29.3481  -22.1477 N   0  0  0  0  0  0  0  0  0  0  0  0
  -29.2458  -29.7358  -19.1470 C   0  0  0  0  0  0  0  0  0  0  0  0
  -28.6769  -29.8132  -17.8837 N   0  0  0  0  0  0  0  0  0  0  0  0
  -29.5228  -30.2370  -16.7413 C   0  0  0  0  0  0  0  0  0  0  0  0
  -28.7859  -30.5055  -15.4347 C   0  0  0  0  0  0  0  0  0  0  0  0
  -27.3661  -30.9801  -15.6705 C   0  0  0  0  0  0  0  0  0  0  0  0
  -26.6915  -29.9165  -16.4781 C   0  0  0  0  0  0  0  0  0  0  0  0
  -25.4013  -29.5033  -16.1564 C   0  0  0  0  0  0  0  0  0  0  0  0
  -24.8163  -28.4703  -16.8723 C   0  0  0  0  0  0  0  0  0  0  0  0
  -25.4985  -27.8435  -17.9017 C   0  0  0  0  0  0  0  0  0  0  0  0
  -26.7974  -28.2459  -18.1917 C   0  0  0  0  0  0  0  0  0  0  0  0
  -27.3983  -29.3255  -17.5386 C   0  0  0  0  0  0  0  0  0  0  0  0
  1  2  1  0
  2  3  1  0
  3  4  1  0
  4  5  2  0
  4  6  1  0
  6  7  1  0
  7  8  3  0
  6  9  2  3
  9 10  1  0
 10 11  1  0
 11 12  1  0
 12 13  1  0
 13 14  1  0
 14 15  2  0
 15 16  1  0
 16 17  2  0
 17 18  1  0
 18 19  2  0
 19 10  1  0
 19 14  1  0
M  END
>  <id>  (83) 
185286

>  <inchikey>  (83) 
CQQPOEPVLMKPHG-UHFFFAOYSA-N

>  <alias>  (83) 
None

>  <smiles>  (83) 
CCOC(=O)C(C#N)=CN1CCCc2ccccc21

>  <path>  (83) 
/opt/xchem-fragalysis-2/maxwin/BulkDock/SCRATCH/220458/C65168-P3/C65168-P3.minimised.mol

>  <distance_score>  (83) 
0.918463

>  <energy_score>  (83) 
-7.985352

>  <compound>  (83) 
CQQPOEPVLMKPHG-UHFFFAOYSA-N

>  <compound_id>  (83) 
65168

>  <target>  (83) 
Flavi_NS5_RdRp

>  <tags>  (83) 
['Fragmenstein placed', 'iter1 scaffolds', 'Knitwork impure merge', 'LCD curated YES', 'Enamine_unavailable', 'Green Site/RNA tunnel merge', 'RdRp_knitwork_green_site_rna_tunnel_impure_fragalysis.sdf Pose OK', 'acceptable']

>  <inspirations>  (83) 
{P Ã— 2}

>  <subsites>  (83) 
None

>  <reference>  (83) 
z0165a

>  <SLURM_JOB_ID>  (83) 
220458

>  <SLURM_JOB_NAME>  (83) 
BulkDock.place:Flavi_NS5_RdRp:RdRp_knitwork_green_site_rna_tunnel_impure_split4000_batch007

>  <csv_name>  (83) 
RdRp_knitwork_green_site_rna_tunnel_impure_split4000_batch007.csv

>  <scratch_subdir>  (83) 
/opt/xchem-fragalysis-2/maxwin/BulkDock/SCRATCH/220458/C65168-P3

>  <fragmenstein_runtime>  (83) 
3.395983

>  <fragmenstein_outcome>  (83) 
acceptable

>  <fragmenstein_mode>  (83) 
expansion

>  <fragmenstein_error>  (83) 


>  <exports>  (83) 
/opt/xchem-fragalysis-2/maxwin/BulkDock/OUTPUTS/RdRp_knitwork_green_site_rna_tunnel_impure_split4000_batch007_220458.sdf;/opt/xchem-fragalysis-2/maxwin/BulkDock/OUTPUTS/RdRp_knitwork_green_site_rna_tunnel_impure_fragalysis.sdf;/opt/xchem-fragalysis-2/maxwin/RdRp_FFF/syndirella/Retro_OK_batch3.sdf

>  <Multi-SuCOS>  (83) 
0.600368

>  <merge_set>  (83) 
RdRp_knitwork_green_site_rna_tunnel_impure_fragalysis.sdf

$$$$
XWUQVDZICNOZJP-NSHDSACASA-N
     RDKit          3D

 22 24  0  0  0  0  0  0  0  0999 V2000
  -23.9030  -33.7703  -20.5886 C   0  0  0  0  0  0  0  0  0  0  0  0
  -23.7672  -32.2572  -20.6462 C   0  0  1  0  0  0  0  0  0  0  0  0
  -22.9300  -31.7208  -21.8251 C   0  0  0  0  0  0  0  0  0  0  0  0
  -22.5954  -32.6147  -22.9131 N   0  0  0  0  0  0  0  0  0  0  0  0
  -21.2238  -32.9708  -23.1733 C   0  0  0  0  0  0  0  0  0  0  0  0
  -21.2082  -33.3700  -24.6353 C   0  0  0  0  0  0  0  0  0  0  0  0
  -22.6448  -33.7744  -24.9328 C   0  0  0  0  0  0  0  0  0  0  0  0
  -23.4346  -32.9267  -23.9683 C   0  0  0  0  0  0  0  0  0  0  0  0
  -24.6017  -32.6002  -24.1100 O   0  0  0  0  0  0  0  0  0  0  0  0
  -25.0444  -31.5618  -20.5958 N   0  0  0  0  0  0  0  0  0  0  0  0
  -26.4682  -32.0502  -20.9484 C   0  0  0  0  0  0  0  0  0  0  0  0
  -26.8486  -33.1075  -21.2600 O   0  0  0  0  0  0  0  0  0  0  0  0
  -27.3772  -30.8253  -20.9298 C   0  0  0  0  0  0  0  0  0  0  0  0
  -27.9857  -30.4268  -19.6291 C   0  0  0  0  0  0  0  0  0  0  0  0
  -29.2967  -30.1248  -19.6448 N   0  0  0  0  0  0  0  0  0  0  0  0
  -29.6009  -29.8204  -18.3828 N   0  0  0  0  0  0  0  0  0  0  0  0
  -28.5296  -29.9009  -17.5548 C   0  0  0  0  0  0  0  0  0  0  0  0
  -27.4411  -30.2342  -18.3308 C   0  0  0  0  0  0  0  0  0  0  0  0
  -26.0751  -30.3646  -17.7596 C   0  0  0  0  0  0  0  0  0  0  0  0
  -26.0036  -29.7783  -16.3359 C   0  0  0  0  0  0  0  0  0  0  0  0
  -27.2379  -30.0166  -15.4518 C   0  0  0  0  0  0  0  0  0  0  0  0
  -28.5773  -29.6587  -16.1040 C   0  0  0  0  0  0  0  0  0  0  0  0
  2  1  1  6
  2  3  1  0
  3  4  1  0
  4  5  1  0
  5  6  1  0
  6  7  1  0
  7  8  1  0
  8  9  2  0
  2 10  1  0
 10 11  1  0
 11 12  2  0
 11 13  1  0
 13 14  1  0
 14 15  2  0
 15 16  1  0
 16 17  1  0
 17 18  2  0
 18 19  1  0
 19 20  1  0
 20 21  1  0
 21 22  1  0
  8  4  1  0
 18 14  1  0
 22 17  1  0
M  END
>  <id>  (84) 
185920

>  <inchikey>  (84) 
XWUQVDZICNOZJP-NSHDSACASA-N

>  <alias>  (84) 
None

>  <smiles>  (84) 
C[C@@H](CN1CCCC1=O)NC(=O)Cc1n[nH]c2c1CCCC2

>  <path>  (84) 
/opt/xchem-fragalysis-2/maxwin/BulkDock/SCRATCH/220470/C52471-P206/C52471-P206.minimised.mol

>  <distance_score>  (84) 
0.851756

>  <energy_score>  (84) 
-36.06925

>  <compound>  (84) 
XWUQVDZICNOZJP-UHFFFAOYSA-N

>  <compound_id>  (84) 
52471

>  <target>  (84) 
Flavi_NS5_RdRp

>  <tags>  (84) 
['Fragmenstein placed', 'Knitwork impure merge', 'Enamine_unavailable', 'Green Site/RNA tunnel merge', 'best elaborated iter1 scaffold poses', 'RdRp_knitwork_green_site_rna_tunnel_impure_fragalysis.sdf Pose OK', 'acceptable']

>  <inspirations>  (84) 
{P Ã— 2}

>  <subsites>  (84) 
[[1m[4m"Green Site/RNA tunnel"[22m[24m]

>  <reference>  (84) 
z1018a

>  <SLURM_JOB_ID>  (84) 
220470

>  <SLURM_JOB_NAME>  (84) 
BulkDock.place:Flavi_NS5_RdRp:RdRp_knitwork_green_site_rna_tunnel_impure_split4000_batch019

>  <csv_name>  (84) 
RdRp_knitwork_green_site_rna_tunnel_impure_split4000_batch019.csv

>  <scratch_subdir>  (84) 
/opt/xchem-fragalysis-2/maxwin/BulkDock/SCRATCH/220470/C52471-P206

>  <fragmenstein_runtime>  (84) 
6.67232

>  <fragmenstein_outcome>  (84) 
acceptable

>  <fragmenstein_mode>  (84) 
expansion

>  <fragmenstein_error>  (84) 


>  <exports>  (84) 
/opt/xchem-fragalysis-2/maxwin/BulkDock/OUTPUTS/RdRp_knitwork_green_site_rna_tunnel_impure_split4000_batch019_220470.sdf;/opt/xchem-fragalysis-2/maxwin/BulkDock/OUTPUTS/RdRp_knitwork_green_site_rna_tunnel_impure_fragalysis.sdf;/opt/xchem-fragalysis-2/maxwin/RdRp_FFF/syndirella/Retro_OK_batch3.sdf;/opt/xchem-fragalysis-2/maxwin/RdRp_FFF/quotes/combined_jan2025_ordered.sdf;/opt/xchem-fragalysis-2/maxwin/RdRp_FFF/hippo/iter1_elaborated_scaffold_poses.sdf

>  <Multi-SuCOS>  (84) 
0.598991

>  <merge_set>  (84) 
RdRp_knitwork_green_site_rna_tunnel_impure_fragalysis.sdf

$$$$
YJLPYZNIZMWRSU-UHFFFAOYSA-N
     RDKit          3D

 20 21  0  0  0  0  0  0  0  0999 V2000
  -27.1825  -31.6470  -22.9432 C   0  0  0  0  0  0  0  0  0  0  0  0
  -27.5921  -31.2378  -21.5149 C   0  0  0  0  0  0  0  0  0  0  0  0
  -26.5145  -31.6048  -20.4988 C   0  0  0  0  0  0  0  0  0  0  0  0
  -27.7549  -29.7267  -21.4381 C   0  0  0  0  0  0  0  0  0  0  0  0
  -28.8667  -29.0370  -20.2386 S   0  0  0  0  0  0  0  0  0  0  0  0
  -28.6336  -27.6120  -20.2681 O   0  0  0  0  0  0  0  0  0  0  0  0
  -30.1693  -29.5517  -20.5989 O   0  0  0  0  0  0  0  0  0  0  0  0
  -28.4071  -29.6184  -18.7227 N   0  0  0  0  0  0  0  0  0  0  0  0
  -29.5182  -30.1680  -17.8780 C   0  0  0  0  0  0  0  0  0  0  0  0
  -29.2833  -30.0206  -16.3830 C   0  0  0  0  0  0  0  0  0  0  0  0
  -27.8851  -30.4803  -16.0231 C   0  0  0  0  0  0  0  0  0  0  0  0
  -26.9047  -29.6321  -16.7768 C   0  0  0  0  0  0  0  0  0  0  0  0
  -25.6912  -29.3169  -16.1625 C   0  0  0  0  0  0  0  0  0  0  0  0
  -24.8036  -28.4596  -16.7902 C   0  0  0  0  0  0  0  0  0  0  0  0
  -25.1019  -27.9272  -18.0363 C   0  0  0  0  0  0  0  0  0  0  0  0
  -26.2809  -28.2916  -18.6768 C   0  0  0  0  0  0  0  0  0  0  0  0
  -27.2081  -29.1406  -18.0610 C   0  0  0  0  0  0  0  0  0  0  0  0
  -28.9262  -31.9631  -21.3406 C   0  0  0  0  0  0  0  0  0  0  0  0
  -29.3504  -31.9182  -20.0699 F   0  0  0  0  0  0  0  0  0  0  0  0
  -28.7889  -33.2725  -21.6691 F   0  0  0  0  0  0  0  0  0  0  0  0
  1  2  1  0
  2  3  1  0
  2  4  1  0
  4  5  1  0
  5  6  2  0
  5  7  2  0
  5  8  1  0
  8  9  1  0
  9 10  1  0
 10 11  1  0
 11 12  1  0
 12 13  2  0
 13 14  1  0
 14 15  2  0
 15 16  1  0
 16 17  2  0
  2 18  1  0
 18 19  1  0
 18 20  1  0
 17  8  1  0
 17 12  1  0
M  END
>  <id>  (85) 
186031

>  <inchikey>  (85) 
YJLPYZNIZMWRSU-UHFFFAOYSA-N

>  <alias>  (85) 
None

>  <smiles>  (85) 
CC(C)(CS(=O)(=O)N1CCCc2ccccc21)C(F)F

>  <path>  (85) 
/opt/xchem-fragalysis-2/maxwin/BulkDock/SCRATCH/220458/C65250-P3/C65250-P3.minimised.mol

>  <distance_score>  (85) 
0.970041

>  <energy_score>  (85) 
-36.497578

>  <compound>  (85) 
YJLPYZNIZMWRSU-UHFFFAOYSA-N

>  <compound_id>  (85) 
65250

>  <target>  (85) 
Flavi_NS5_RdRp

>  <tags>  (85) 
['Fragmenstein placed', 'Enamine_Quote_1977854', 'iter1 scaffolds', 'Knitwork impure merge', 'LCD curated YES', 'Green Site/RNA tunnel merge', 'RdRp_knitwork_green_site_rna_tunnel_impure_fragalysis.sdf Pose OK', 'acceptable']

>  <inspirations>  (85) 
{P Ã— 2}

>  <subsites>  (85) 
None

>  <reference>  (85) 
z0165a

>  <SLURM_JOB_ID>  (85) 
220458

>  <SLURM_JOB_NAME>  (85) 
BulkDock.place:Flavi_NS5_RdRp:RdRp_knitwork_green_site_rna_tunnel_impure_split4000_batch007

>  <csv_name>  (85) 
RdRp_knitwork_green_site_rna_tunnel_impure_split4000_batch007.csv

>  <scratch_subdir>  (85) 
/opt/xchem-fragalysis-2/maxwin/BulkDock/SCRATCH/220458/C65250-P3

>  <fragmenstein_runtime>  (85) 
3.338219

>  <fragmenstein_outcome>  (85) 
acceptable

>  <fragmenstein_mode>  (85) 
expansion

>  <fragmenstein_error>  (85) 


>  <exports>  (85) 
/opt/xchem-fragalysis-2/maxwin/BulkDock/OUTPUTS/RdRp_knitwork_green_site_rna_tunnel_impure_split4000_batch007_220458.sdf;/opt/xchem-fragalysis-2/maxwin/BulkDock/OUTPUTS/RdRp_knitwork_green_site_rna_tunnel_impure_fragalysis.sdf;/opt/xchem-fragalysis-2/maxwin/RdRp_FFF/syndirella/Retro_OK_batch3.sdf;/opt/xchem-fragalysis-2/maxwin/RdRp_FFF/quotes/combined_jan2025_ordered.sdf

>  <Multi-SuCOS>  (85) 
0.549869

>  <merge_set>  (85) 
RdRp_knitwork_green_site_rna_tunnel_impure_fragalysis.sdf

$$$$
KOQNTKIDGWWPRP-UHFFFAOYSA-N
     RDKit          3D

 16 17  0  0  0  0  0  0  0  0999 V2000
  -27.1658  -31.5041  -22.8776 N   0  0  0  0  0  0  0  0  0  0  0  0
  -27.2534  -31.1538  -21.7743 C   0  0  0  0  0  0  0  0  0  0  0  0
  -27.2564  -30.7095  -20.3977 C   0  0  0  0  0  0  0  0  0  0  0  0
  -28.8086  -29.8700  -20.1598 S   0  0  0  0  0  0  0  0  0  0  0  0
  -28.7661  -28.6411  -20.9176 O   0  0  0  0  0  0  0  0  0  0  0  0
  -29.8882  -30.8164  -20.3550 O   0  0  0  0  0  0  0  0  0  0  0  0
  -28.7446  -29.4671  -18.4903 N   0  0  0  0  0  0  0  0  0  0  0  0
  -29.6110  -30.2903  -17.6123 C   0  0  0  0  0  0  0  0  0  0  0  0
  -29.2005  -30.2179  -16.1503 C   0  0  0  0  0  0  0  0  0  0  0  0
  -27.7187  -30.5285  -16.0060 C   0  0  0  0  0  0  0  0  0  0  0  0
  -26.9320  -29.5549  -16.8353 C   0  0  0  0  0  0  0  0  0  0  0  0
  -25.6373  -29.2112  -16.4506 C   0  0  0  0  0  0  0  0  0  0  0  0
  -24.9303  -28.2586  -17.1771 C   0  0  0  0  0  0  0  0  0  0  0  0
  -25.4977  -27.6300  -18.2798 C   0  0  0  0  0  0  0  0  0  0  0  0
  -26.7847  -27.9785  -18.6724 C   0  0  0  0  0  0  0  0  0  0  0  0
  -27.4850  -28.9803  -17.9898 C   0  0  0  0  0  0  0  0  0  0  0  0
  1  2  3  0
  2  3  1  0
  3  4  1  0
  4  5  2  0
  4  6  2  0
  4  7  1  0
  7  8  1  0
  8  9  1  0
  9 10  1  0
 10 11  1  0
 11 12  2  0
 12 13  1  0
 13 14  2  0
 14 15  1  0
 15 16  2  0
 16  7  1  0
 16 11  1  0
M  END
>  <id>  (86) 
186233

>  <inchikey>  (86) 
KOQNTKIDGWWPRP-UHFFFAOYSA-N

>  <alias>  (86) 
None

>  <smiles>  (86) 
N#CCS(=O)(=O)N1CCCc2ccccc21

>  <path>  (86) 
/opt/xchem-fragalysis-2/maxwin/BulkDock/SCRATCH/220458/C65264-P3/C65264-P3.minimised.mol

>  <distance_score>  (86) 
0.817618

>  <energy_score>  (86) 
-37.581185

>  <compound>  (86) 
KOQNTKIDGWWPRP-UHFFFAOYSA-N

>  <compound_id>  (86) 
65264

>  <target>  (86) 
Flavi_NS5_RdRp

>  <tags>  (86) 
['Fragmenstein placed', 'Enamine_Quote_1977854', 'iter1 scaffolds', 'Knitwork impure merge', 'LCD curated YES', 'Green Site/RNA tunnel merge', 'RdRp_knitwork_green_site_rna_tunnel_impure_fragalysis.sdf Pose OK', 'acceptable']

>  <inspirations>  (86) 
{P Ã— 2}

>  <subsites>  (86) 
None

>  <reference>  (86) 
z0165a

>  <SLURM_JOB_ID>  (86) 
220458

>  <SLURM_JOB_NAME>  (86) 
BulkDock.place:Flavi_NS5_RdRp:RdRp_knitwork_green_site_rna_tunnel_impure_split4000_batch007

>  <csv_name>  (86) 
RdRp_knitwork_green_site_rna_tunnel_impure_split4000_batch007.csv

>  <scratch_subdir>  (86) 
/opt/xchem-fragalysis-2/maxwin/BulkDock/SCRATCH/220458/C65264-P3

>  <fragmenstein_runtime>  (86) 
1.72358

>  <fragmenstein_outcome>  (86) 
acceptable

>  <fragmenstein_mode>  (86) 
expansion

>  <fragmenstein_error>  (86) 


>  <exports>  (86) 
/opt/xchem-fragalysis-2/maxwin/BulkDock/OUTPUTS/RdRp_knitwork_green_site_rna_tunnel_impure_split4000_batch007_220458.sdf;/opt/xchem-fragalysis-2/maxwin/BulkDock/OUTPUTS/RdRp_knitwork_green_site_rna_tunnel_impure_fragalysis.sdf;/opt/xchem-fragalysis-2/maxwin/RdRp_FFF/syndirella/Retro_OK_batch3.sdf;/opt/xchem-fragalysis-2/maxwin/RdRp_FFF/quotes/combined_jan2025_ordered.sdf

>  <Multi-SuCOS>  (86) 
0.679147

>  <merge_set>  (86) 
RdRp_knitwork_green_site_rna_tunnel_impure_fragalysis.sdf

$$$$
ZTHISXNUAOFTJB-SNVBAGLBSA-N
     RDKit          3D

 23 25  0  0  0  0  0  0  0  0999 V2000
  -24.5596  -33.9366  -20.9674 C   0  0  0  0  0  0  0  0  0  0  0  0
  -23.4571  -33.0160  -21.4671 C   0  0  2  0  0  0  0  0  0  0  0  0
  -23.7420  -31.5652  -21.1345 C   0  0  0  0  0  0  0  0  0  0  0  0
  -24.9769  -30.9562  -21.8028 C   0  0  0  0  0  0  0  0  0  0  0  0
  -25.0179  -30.7253  -22.9502 O   0  0  0  0  0  0  0  0  0  0  0  0
  -26.0340  -30.6974  -20.6791 N   0  0  0  0  0  0  0  0  0  0  0  0
  -27.3146  -30.2181  -20.7573 C   0  0  0  0  0  0  0  0  0  0  0  0
  -27.9532  -29.9863  -21.9504 C   0  0  0  0  0  0  0  0  0  0  0  0
  -29.2267  -29.6285  -21.6408 N   0  0  0  0  0  0  0  0  0  0  0  0
  -29.4668  -29.6070  -20.3272 N   0  0  0  0  0  0  0  0  0  0  0  0
  -28.2886  -29.9162  -19.7612 C   0  0  0  0  0  0  0  0  0  0  0  0
  -28.1439  -29.9361  -18.1732 C   0  0  0  0  0  0  0  0  0  0  0  0
  -29.1958  -29.8360  -17.3812 N   0  0  0  0  0  0  0  0  0  0  0  0
  -28.8213  -30.0051  -16.0675 C   0  0  0  0  0  0  0  0  0  0  0  0
  -27.4709  -30.1502  -15.8508 C   0  0  0  0  0  0  0  0  0  0  0  0
  -26.6393  -30.0750  -17.3475 S   0  0  0  0  0  0  0  0  0  0  0  0
  -23.0028  -33.2298  -22.8497 N   0  0  0  0  0  0  0  0  0  0  0  0
  -21.5633  -33.0999  -23.0602 C   0  0  0  0  0  0  0  0  0  0  0  0
  -21.1075  -33.0623  -24.5038 C   0  0  0  0  0  0  0  0  0  0  0  0
  -21.8881  -34.0476  -25.3428 C   0  0  0  0  0  0  0  0  0  0  0  0
  -23.3500  -33.6895  -25.2657 C   0  0  0  0  0  0  0  0  0  0  0  0
  -23.8929  -33.5404  -23.8650 C   0  0  0  0  0  0  0  0  0  0  0  0
  -25.1045  -33.6712  -23.6924 O   0  0  0  0  0  0  0  0  0  0  0  0
  2  1  1  6
  2  3  1  0
  3  4  1  0
  4  5  2  0
  4  6  1  0
  6  7  1  0
  7  8  2  0
  8  9  1  0
  9 10  1  0
 10 11  2  0
 11 12  1  0
 12 13  2  0
 13 14  1  0
 14 15  2  0
 15 16  1  0
  2 17  1  0
 17 18  1  0
 18 19  1  0
 19 20  1  0
 20 21  1  0
 21 22  1  0
 22 23  2  0
 11  7  1  0
 16 12  1  0
 22 17  1  0
M  END
>  <id>  (87) 
196606

>  <inchikey>  (87) 
ZTHISXNUAOFTJB-SNVBAGLBSA-N

>  <alias>  (87) 
None

>  <smiles>  (87) 
C[C@H](CC(=O)Nc1c[nH]nc1-c1nccs1)N1CCCCC1=O

>  <path>  (87) 
/opt/xchem-fragalysis-2/maxwin/BulkDock/SCRATCH/220465/C23289-P104/C23289-P104.minimised.mol

>  <distance_score>  (87) 
0.923437

>  <energy_score>  (87) 
-95.120887

>  <compound>  (87) 
ZTHISXNUAOFTJB-UHFFFAOYSA-N

>  <compound_id>  (87) 
23289

>  <target>  (87) 
Flavi_NS5_RdRp

>  <tags>  (87) 
['Fragmenstein placed', 'iter1 scaffolds', 'Knitwork impure merge', 'LCD curated YES', 'Enamine_unavailable', 'Green Site/RNA tunnel merge', 'best elaborated iter1 scaffold poses', 'RdRp_knitwork_green_site_rna_tunnel_impure_fragalysis.sdf Pose OK', 'acceptable']

>  <inspirations>  (87) 
{P Ã— 2}

>  <subsites>  (87) 
[[1m[4m"Green Site/RNA tunnel"[22m[24m]

>  <reference>  (87) 
z0215a

>  <SLURM_JOB_ID>  (87) 
220465

>  <SLURM_JOB_NAME>  (87) 
BulkDock.place:Flavi_NS5_RdRp:RdRp_knitwork_green_site_rna_tunnel_impure_split4000_batch014

>  <csv_name>  (87) 
RdRp_knitwork_green_site_rna_tunnel_impure_split4000_batch014.csv

>  <scratch_subdir>  (87) 
/opt/xchem-fragalysis-2/maxwin/BulkDock/SCRATCH/220465/C23289-P104

>  <fragmenstein_runtime>  (87) 
5.892197

>  <fragmenstein_outcome>  (87) 
acceptable

>  <fragmenstein_mode>  (87) 
expansion

>  <fragmenstein_error>  (87) 


>  <exports>  (87) 
/opt/xchem-fragalysis-2/maxwin/BulkDock/OUTPUTS/RdRp_knitwork_green_site_rna_tunnel_impure_split4000_batch014_220465.sdf;/opt/xchem-fragalysis-2/maxwin/BulkDock/OUTPUTS/RdRp_knitwork_green_site_rna_tunnel_impure_fragalysis.sdf;/opt/xchem-fragalysis-2/maxwin/RdRp_FFF/syndirella/Retro_OK_batch3.sdf;/opt/xchem-fragalysis-2/maxwin/RdRp_FFF/quotes/combined_jan2025_ordered.sdf;/opt/xchem-fragalysis-2/maxwin/RdRp_FFF/hippo/iter1_elaborated_scaffold_poses.sdf

>  <Multi-SuCOS>  (87) 
0.739216

>  <merge_set>  (87) 
RdRp_knitwork_green_site_rna_tunnel_impure_fragalysis.sdf

$$$$
KJOJCYOZXQMGKF-UHFFFAOYSA-N
     RDKit          3D

 17 19  0  0  0  0  0  0  0  0999 V2000
  -25.3287  -26.5210  -19.1485 F   0  0  0  0  0  0  0  0  0  0  0  0
  -25.8517  -27.3495  -18.2329 C   0  0  0  0  0  0  0  0  0  0  0  0
  -25.1259  -27.6595  -17.0944 C   0  0  0  0  0  0  0  0  0  0  0  0
  -25.6490  -28.5768  -16.1861 C   0  0  0  0  0  0  0  0  0  0  0  0
  -26.8709  -29.2202  -16.4456 C   0  0  0  0  0  0  0  0  0  0  0  0
  -27.5418  -29.0027  -17.6647 C   0  0  0  0  0  0  0  0  0  0  0  0
  -27.0711  -27.9674  -18.4895 C   0  0  0  0  0  0  0  0  0  0  0  0
  -28.5511  -29.8745  -18.0952 N   0  0  0  0  0  0  0  0  0  0  0  0
  -28.5783  -30.2852  -19.5268 C   0  0  0  0  0  0  0  0  0  0  0  0
  -27.2809  -30.3810  -20.2610 C   0  0  0  0  0  0  0  0  0  0  0  0
  -26.9488  -30.2050  -21.5870 C   0  0  0  0  0  0  0  0  0  0  0  0
  -25.6384  -29.8397  -21.7144 N   0  0  0  0  0  0  0  0  0  0  0  0
  -25.1859  -29.8559  -20.4873 C   0  0  0  0  0  0  0  0  0  0  0  0
  -26.0579  -30.4836  -19.6464 N   0  0  0  0  0  0  0  0  0  0  0  0
  -29.0415  -30.9004  -17.1650 C   0  0  0  0  0  0  0  0  0  0  0  0
  -28.8803  -30.4781  -15.7145 C   0  0  0  0  0  0  0  0  0  0  0  0
  -27.4060  -30.2137  -15.4476 C   0  0  0  0  0  0  0  0  0  0  0  0
  1  2  1  0
  2  3  2  0
  3  4  1  0
  4  5  2  0
  5  6  1  0
  6  7  2  0
  6  8  1  0
  8  9  1  0
  9 10  1  0
 10 11  2  0
 11 12  1  0
 12 13  2  0
 13 14  1  0
  8 15  1  0
 15 16  1  0
 16 17  1  0
  7  2  1  0
 14 10  1  0
 17  5  1  0
M  END
>  <id>  (88) 
199053

>  <inchikey>  (88) 
KJOJCYOZXQMGKF-UHFFFAOYSA-N

>  <alias>  (88) 
None

>  <smiles>  (88) 
Fc1ccc2c(c1)N(Cc1cnc[nH]1)CCC2

>  <path>  (88) 
/opt/xchem-fragalysis-2/maxwin/BulkDock/SCRATCH/220456/C36233-P1/C36233-P1.minimised.mol

>  <distance_score>  (88) 
0.966816

>  <energy_score>  (88) 
-7.925336

>  <compound>  (88) 
KJOJCYOZXQMGKF-UHFFFAOYSA-N

>  <compound_id>  (88) 
36233

>  <target>  (88) 
Flavi_NS5_RdRp

>  <tags>  (88) 
['Fragmenstein placed', 'Enamine_Quote_1977854', 'iter1 scaffolds', 'Knitwork impure merge', 'LCD curated YES', 'Green Site/RNA tunnel merge', 'RdRp_knitwork_green_site_rna_tunnel_impure_fragalysis.sdf Pose OK', 'acceptable']

>  <inspirations>  (88) 
{P Ã— 2}

>  <subsites>  (88) 
None

>  <reference>  (88) 
d0378a

>  <SLURM_JOB_ID>  (88) 
220456

>  <SLURM_JOB_NAME>  (88) 
BulkDock.place:Flavi_NS5_RdRp:RdRp_knitwork_green_site_rna_tunnel_impure_split4000_batch005

>  <csv_name>  (88) 
RdRp_knitwork_green_site_rna_tunnel_impure_split4000_batch005.csv

>  <scratch_subdir>  (88) 
/opt/xchem-fragalysis-2/maxwin/BulkDock/SCRATCH/220456/C36233-P1

>  <fragmenstein_runtime>  (88) 
2.020278

>  <fragmenstein_outcome>  (88) 
acceptable

>  <fragmenstein_mode>  (88) 
expansion

>  <fragmenstein_error>  (88) 


>  <exports>  (88) 
/opt/xchem-fragalysis-2/maxwin/BulkDock/OUTPUTS/RdRp_knitwork_green_site_rna_tunnel_impure_split4000_batch005_220456.sdf;/opt/xchem-fragalysis-2/maxwin/BulkDock/OUTPUTS/RdRp_knitwork_green_site_rna_tunnel_impure_fragalysis.sdf;/opt/xchem-fragalysis-2/maxwin/RdRp_FFF/syndirella/Retro_OK_batch3.sdf;/opt/xchem-fragalysis-2/maxwin/RdRp_FFF/quotes/combined_jan2025_ordered.sdf

>  <Multi-SuCOS>  (88) 
0.685068

>  <merge_set>  (88) 
RdRp_knitwork_green_site_rna_tunnel_impure_fragalysis.sdf

$$$$
HMCRTDAZYKANIV-INIZCTEOSA-N
     RDKit          3D

 22 24  0  0  0  0  0  0  0  0999 V2000
  -21.1166  -32.8614  -24.3952 C   0  0  0  0  0  0  0  0  0  0  0  0
  -22.0474  -32.8064  -23.1910 C   0  0  2  0  0  0  0  0  0  0  0  0
  -22.7157  -34.0583  -23.0814 O   0  0  0  0  0  0  0  0  0  0  0  0
  -23.1042  -31.7287  -23.4224 C   0  0  0  0  0  0  0  0  0  0  0  0
  -23.9855  -31.4654  -22.3111 N   0  0  0  0  0  0  0  0  0  0  0  0
  -25.4296  -30.9094  -22.2874 C   0  0  0  0  0  0  0  0  0  0  0  0
  -26.1348  -30.6593  -23.1442 O   0  0  0  0  0  0  0  0  0  0  0  0
  -25.6311  -30.7815  -20.7520 N   0  0  0  0  0  0  0  0  0  0  0  0
  -26.7526  -30.4167  -20.0207 C   0  0  0  0  0  0  0  0  0  0  0  0
  -28.0037  -30.2855  -20.6378 C   0  0  0  0  0  0  0  0  0  0  0  0
  -29.1485  -29.9971  -19.9015 C   0  0  0  0  0  0  0  0  0  0  0  0
  -29.0654  -29.8025  -18.5219 C   0  0  0  0  0  0  0  0  0  0  0  0
  -27.8091  -29.8592  -17.8890 C   0  0  0  0  0  0  0  0  0  0  0  0
  -27.3808  -29.7211  -16.5427 C   0  0  0  0  0  0  0  0  0  0  0  0
  -26.0201  -29.9164  -16.5076 C   0  0  0  0  0  0  0  0  0  0  0  0
  -25.6015  -30.1850  -17.7837 N   0  0  0  0  0  0  0  0  0  0  0  0
  -26.6773  -30.1725  -18.6466 C   0  0  0  0  0  0  0  0  0  0  0  0
  -21.2557  -32.6914  -21.9361 C   0  0  0  0  0  0  0  0  0  0  0  0
  -20.7919  -33.6491  -21.0532 C   0  0  0  0  0  0  0  0  0  0  0  0
  -20.1253  -32.9566  -20.0297 C   0  0  0  0  0  0  0  0  0  0  0  0
  -20.2218  -31.6265  -20.3541 C   0  0  0  0  0  0  0  0  0  0  0  0
  -20.8767  -31.4507  -21.5253 O   0  0  0  0  0  0  0  0  0  0  0  0
  2  1  1  6
  2  3  1  0
  2  4  1  0
  4  5  1  0
  5  6  1  0
  6  7  2  0
  6  8  1  0
  8  9  1  0
  9 10  2  0
 10 11  1  0
 11 12  2  0
 12 13  1  0
 13 14  1  0
 14 15  2  0
 15 16  1  0
 16 17  1  0
  2 18  1  0
 18 19  2  0
 19 20  1  0
 20 21  2  0
 21 22  1  0
 17  9  1  0
 22 18  1  0
 17 13  2  0
M  END
>  <id>  (89) 
205244

>  <inchikey>  (89) 
HMCRTDAZYKANIV-INIZCTEOSA-N

>  <alias>  (89) 
None

>  <smiles>  (89) 
C[C@](O)(CNC(=O)Nc1cccc2cc[nH]c12)c1ccco1

>  <path>  (89) 
/opt/xchem-fragalysis-2/maxwin/BulkDock/SCRATCH/220459/C50922-P102/C50922-P102.minimised.mol

>  <distance_score>  (89) 
0.932507

>  <energy_score>  (89) 
-45.505956

>  <compound>  (89) 
HMCRTDAZYKANIV-UHFFFAOYSA-N

>  <compound_id>  (89) 
50922

>  <target>  (89) 
Flavi_NS5_RdRp

>  <tags>  (89) 
['Fragmenstein placed', 'Knitwork impure merge', 'Enamine_unavailable', 'Green Site/RNA tunnel merge', 'RdRp_knitwork_green_site_rna_tunnel_impure_fragalysis.sdf Pose OK', 'acceptable']

>  <inspirations>  (89) 
{P Ã— 2}

>  <subsites>  (89) 
None

>  <reference>  (89) 
z0211a

>  <SLURM_JOB_ID>  (89) 
220459

>  <SLURM_JOB_NAME>  (89) 
BulkDock.place:Flavi_NS5_RdRp:RdRp_knitwork_green_site_rna_tunnel_impure_split4000_batch008

>  <csv_name>  (89) 
RdRp_knitwork_green_site_rna_tunnel_impure_split4000_batch008.csv

>  <scratch_subdir>  (89) 
/opt/xchem-fragalysis-2/maxwin/BulkDock/SCRATCH/220459/C50922-P102

>  <fragmenstein_runtime>  (89) 
8.328884

>  <fragmenstein_outcome>  (89) 
acceptable

>  <fragmenstein_mode>  (89) 
expansion

>  <fragmenstein_error>  (89) 


>  <exports>  (89) 
/opt/xchem-fragalysis-2/maxwin/BulkDock/OUTPUTS/RdRp_knitwork_green_site_rna_tunnel_impure_split4000_batch008_220459.sdf;/opt/xchem-fragalysis-2/maxwin/BulkDock/OUTPUTS/RdRp_knitwork_green_site_rna_tunnel_impure_fragalysis.sdf;/opt/xchem-fragalysis-2/maxwin/RdRp_FFF/syndirella/Retro_OK_batch3.sdf;/opt/xchem-fragalysis-2/maxwin/RdRp_FFF/quotes/combined_jan2025_ordered.sdf

>  <Multi-SuCOS>  (89) 
0.56759

>  <merge_set>  (89) 
RdRp_knitwork_green_site_rna_tunnel_impure_fragalysis.sdf

$$$$
OUADHXQUGPVFPL-UHFFFAOYSA-N
     RDKit          3D

 17 19  0  0  0  0  0  0  0  0999 V2000
  -25.2310  -31.8425  -19.9734 O   0  0  0  0  0  0  0  0  0  0  0  0
  -24.8203  -31.5848  -18.9125 C   0  0  0  0  0  0  0  0  0  0  0  0
  -25.4653  -30.7912  -17.7549 N   0  0  0  0  0  0  0  0  0  0  0  0
  -26.7523  -30.2454  -17.6294 C   0  0  0  0  0  0  0  0  0  0  0  0
  -27.0629  -29.9262  -16.2939 C   0  0  0  0  0  0  0  0  0  0  0  0
  -28.3572  -29.5995  -15.9151 C   0  0  0  0  0  0  0  0  0  0  0  0
  -29.3154  -29.5632  -16.8943 C   0  0  0  0  0  0  0  0  0  0  0  0
  -29.0520  -29.8042  -18.1908 N   0  0  0  0  0  0  0  0  0  0  0  0
  -27.7797  -30.1369  -18.5851 C   0  0  0  0  0  0  0  0  0  0  0  0
  -27.6718  -30.3734  -20.0754 C   0  0  0  0  0  0  0  0  0  0  0  0
  -26.6881  -29.6779  -20.9747 C   0  0  0  0  0  0  0  0  0  0  0  0
  -28.1097  -29.2326  -20.9863 C   0  0  0  0  0  0  0  0  0  0  0  0
  -23.5286  -32.1389  -18.4807 C   0  0  0  0  0  0  0  0  0  0  0  0
  -22.7169  -31.9126  -17.3403 C   0  0  0  0  0  0  0  0  0  0  0  0
  -21.6475  -32.7146  -17.2786 N   0  0  0  0  0  0  0  0  0  0  0  0
  -21.7706  -33.4667  -18.3852 N   0  0  0  0  0  0  0  0  0  0  0  0
  -22.8382  -33.1276  -19.1563 C   0  0  0  0  0  0  0  0  0  0  0  0
  1  2  2  0
  2  3  1  0
  3  4  1  0
  4  5  2  0
  5  6  1  0
  6  7  2  0
  7  8  1  0
  8  9  2  0
  9 10  1  0
 10 11  1  0
 11 12  1  0
  2 13  1  0
 13 14  1  0
 14 15  2  0
 15 16  1  0
 16 17  1  0
  9  4  1  0
 12 10  1  0
 17 13  2  0
M  END
>  <id>  (90) 
206741

>  <inchikey>  (90) 
OUADHXQUGPVFPL-UHFFFAOYSA-N

>  <alias>  (90) 
None

>  <smiles>  (90) 
O=C(Nc1cccnc1C1CC1)c1cn[nH]c1

>  <path>  (90) 
/opt/xchem-fragalysis-2/maxwin/BulkDock/SCRATCH/220462/C20299-P151/C20299-P151.minimised.mol

>  <distance_score>  (90) 
0.896531

>  <energy_score>  (90) 
-20.450256

>  <compound>  (90) 
OUADHXQUGPVFPL-UHFFFAOYSA-N

>  <compound_id>  (90) 
20299

>  <target>  (90) 
Flavi_NS5_RdRp

>  <tags>  (90) 
['Fragmenstein placed', 'Enamine_Quote_1977854', 'Knitwork impure merge', 'Green Site/RNA tunnel merge', 'best elaborated iter1 scaffold poses', 'RdRp_knitwork_green_site_rna_tunnel_impure_fragalysis.sdf Pose OK', 'acceptable']

>  <inspirations>  (90) 
{P Ã— 2}

>  <subsites>  (90) 
[[1m[4m"Green Site/RNA tunnel"[22m[24m]

>  <reference>  (90) 
z0637a

>  <SLURM_JOB_ID>  (90) 
220462

>  <SLURM_JOB_NAME>  (90) 
BulkDock.place:Flavi_NS5_RdRp:RdRp_knitwork_green_site_rna_tunnel_impure_split4000_batch011

>  <csv_name>  (90) 
RdRp_knitwork_green_site_rna_tunnel_impure_split4000_batch011.csv

>  <scratch_subdir>  (90) 
/opt/xchem-fragalysis-2/maxwin/BulkDock/SCRATCH/220462/C20299-P151

>  <fragmenstein_runtime>  (90) 
3.20722

>  <fragmenstein_outcome>  (90) 
acceptable

>  <fragmenstein_mode>  (90) 
expansion

>  <fragmenstein_error>  (90) 


>  <exports>  (90) 
/opt/xchem-fragalysis-2/maxwin/BulkDock/OUTPUTS/RdRp_knitwork_green_site_rna_tunnel_impure_split4000_batch011_220462.sdf;/opt/xchem-fragalysis-2/maxwin/BulkDock/OUTPUTS/RdRp_knitwork_green_site_rna_tunnel_impure_fragalysis.sdf;/opt/xchem-fragalysis-2/maxwin/RdRp_FFF/syndirella/Retro_OK_batch3.sdf;/opt/xchem-fragalysis-2/maxwin/RdRp_FFF/quotes/combined_jan2025_ordered.sdf;/opt/xchem-fragalysis-2/maxwin/RdRp_FFF/hippo/iter1_elaborated_scaffold_poses.sdf

>  <Multi-SuCOS>  (90) 
0.580927

>  <merge_set>  (90) 
RdRp_knitwork_green_site_rna_tunnel_impure_fragalysis.sdf

$$$$
UFFLSBNXFSNCOZ-UHFFFAOYSA-N
     RDKit          3D

 14 16  0  0  0  0  0  0  0  0999 V2000
  -29.9845  -30.2137  -20.3668 C   0  0  0  0  0  0  0  0  0  0  0  0
  -28.9973  -29.6617  -21.1904 C   0  0  0  0  0  0  0  0  0  0  0  0
  -27.7626  -29.2250  -20.6683 C   0  0  0  0  0  0  0  0  0  0  0  0
  -26.7595  -28.6528  -21.5436 C   0  0  0  0  0  0  0  0  0  0  0  0
  -26.0857  -27.4726  -21.2881 C   0  0  0  0  0  0  0  0  0  0  0  0
  -25.0940  -27.0599  -22.6329 S   0  0  0  0  0  0  0  0  0  0  0  0
  -25.5760  -28.5126  -23.4090 C   0  0  0  0  0  0  0  0  0  0  0  0
  -26.4762  -29.2346  -22.7734 N   0  0  0  0  0  0  0  0  0  0  0  0
  -27.5340  -29.3799  -19.2875 C   0  0  0  0  0  0  0  0  0  0  0  0
  -26.4587  -29.0911  -18.4715 N   0  0  0  0  0  0  0  0  0  0  0  0
  -26.8478  -29.4982  -17.2840 C   0  0  0  0  0  0  0  0  0  0  0  0
  -28.1056  -30.0115  -17.2223 O   0  0  0  0  0  0  0  0  0  0  0  0
  -28.5411  -29.9461  -18.5150 C   0  0  0  0  0  0  0  0  0  0  0  0
  -29.7736  -30.3711  -18.9948 C   0  0  0  0  0  0  0  0  0  0  0  0
  1  2  2  0
  2  3  1  0
  3  4  1  0
  4  5  2  0
  5  6  1  0
  6  7  1  0
  7  8  2  0
  3  9  2  0
  9 10  1  0
 10 11  2  0
 11 12  1  0
 12 13  1  0
 13 14  2  0
 14  1  1  0
  8  4  1  0
 13  9  1  0
M  END
>  <id>  (91) 
218154

>  <inchikey>  (91) 
UFFLSBNXFSNCOZ-UHFFFAOYSA-N

>  <alias>  (91) 
None

>  <smiles>  (91) 
c1cc(-c2cscn2)c2ncoc2c1

>  <path>  (91) 
/opt/xchem-fragalysis-2/maxwin/BulkDock/SCRATCH/220460/C49938-P136/C49938-P136.minimised.mol

>  <distance_score>  (91) 
0.68182

>  <energy_score>  (91) 
-31.82771

>  <compound>  (91) 
UFFLSBNXFSNCOZ-UHFFFAOYSA-N

>  <compound_id>  (91) 
49938

>  <target>  (91) 
Flavi_NS5_RdRp

>  <tags>  (91) 
['Fragmenstein placed', 'Enamine_Quote_1977854', 'iter1 scaffolds', 'Knitwork impure merge', 'LCD curated YES', 'Green Site/RNA tunnel merge', 'RdRp_knitwork_green_site_rna_tunnel_impure_fragalysis.sdf Pose OK', 'acceptable']

>  <inspirations>  (91) 
{P Ã— 2}

>  <subsites>  (91) 
None

>  <reference>  (91) 
z0496a

>  <SLURM_JOB_ID>  (91) 
220460

>  <SLURM_JOB_NAME>  (91) 
BulkDock.place:Flavi_NS5_RdRp:RdRp_knitwork_green_site_rna_tunnel_impure_split4000_batch009

>  <csv_name>  (91) 
RdRp_knitwork_green_site_rna_tunnel_impure_split4000_batch009.csv

>  <scratch_subdir>  (91) 
/opt/xchem-fragalysis-2/maxwin/BulkDock/SCRATCH/220460/C49938-P136

>  <fragmenstein_runtime>  (91) 
1.299683

>  <fragmenstein_outcome>  (91) 
acceptable

>  <fragmenstein_mode>  (91) 
expansion

>  <fragmenstein_error>  (91) 


>  <exports>  (91) 
/opt/xchem-fragalysis-2/maxwin/BulkDock/OUTPUTS/RdRp_knitwork_green_site_rna_tunnel_impure_split4000_batch009_220460.sdf;/opt/xchem-fragalysis-2/maxwin/BulkDock/OUTPUTS/RdRp_knitwork_green_site_rna_tunnel_impure_fragalysis.sdf;/opt/xchem-fragalysis-2/maxwin/RdRp_FFF/syndirella/Retro_OK_batch3.sdf;/opt/xchem-fragalysis-2/maxwin/RdRp_FFF/quotes/combined_jan2025_ordered.sdf

>  <Multi-SuCOS>  (91) 
0.82594

>  <merge_set>  (91) 
RdRp_knitwork_green_site_rna_tunnel_impure_fragalysis.sdf

$$$$
DKXOGIRLTSGRJI-UHFFFAOYSA-N
     RDKit          3D

 21 23  0  0  0  0  0  0  0  0999 V2000
  -25.3128  -27.1874  -20.6191 C   0  0  0  0  0  0  0  0  0  0  0  0
  -25.7409  -28.0041  -21.7940 C   0  0  0  0  0  0  0  0  0  0  0  0
  -25.4609  -27.5744  -23.0827 C   0  0  0  0  0  0  0  0  0  0  0  0
  -25.7672  -28.2712  -24.2005 N   0  0  0  0  0  0  0  0  0  0  0  0
  -26.3485  -29.4751  -24.0533 C   0  0  0  0  0  0  0  0  0  0  0  0
  -26.6478  -30.0143  -22.8194 C   0  0  0  0  0  0  0  0  0  0  0  0
  -26.3245  -29.2713  -21.6863 C   0  0  0  0  0  0  0  0  0  0  0  0
  -26.3685  -29.9897  -20.3944 C   0  0  0  0  0  0  0  0  0  0  0  0
  -25.5641  -30.8056  -20.1901 O   0  0  0  0  0  0  0  0  0  0  0  0
  -27.4753  -29.4356  -19.4889 N   0  0  0  0  0  0  0  0  0  0  0  0
  -27.8775  -29.8205  -18.2106 C   0  0  0  0  0  0  0  0  0  0  0  0
  -29.2496  -29.7903  -17.9849 C   0  0  0  0  0  0  0  0  0  0  0  0
  -29.7477  -30.2467  -16.7795 C   0  0  0  0  0  0  0  0  0  0  0  0
  -28.8822  -30.7412  -15.8069 C   0  0  0  0  0  0  0  0  0  0  0  0
  -29.6225  -31.3538  -14.3604 Cl  0  0  0  0  0  0  0  0  0  0  0  0
  -27.4938  -30.7472  -15.9706 C   0  0  0  0  0  0  0  0  0  0  0  0
  -26.6938  -31.1886  -14.9679 N   0  0  0  0  0  0  0  0  0  0  0  0
  -25.3577  -31.1460  -15.1230 C   0  0  0  0  0  0  0  0  0  0  0  0
  -24.7461  -30.6464  -16.2460 C   0  0  0  0  0  0  0  0  0  0  0  0
  -25.5605  -30.1923  -17.2762 C   0  0  0  0  0  0  0  0  0  0  0  0
  -26.9726  -30.2599  -17.1928 C   0  0  0  0  0  0  0  0  0  0  0  0
  1  2  1  0
  2  3  2  0
  3  4  1  0
  4  5  2  0
  5  6  1  0
  6  7  2  0
  7  8  1  0
  8  9  2  0
  8 10  1  0
 10 11  1  0
 11 12  2  0
 12 13  1  0
 13 14  2  0
 14 15  1  0
 14 16  1  0
 16 17  2  0
 17 18  1  0
 18 19  2  0
 19 20  1  0
 20 21  2  0
  7  2  1  0
 21 11  1  0
 21 16  1  0
M  END
>  <id>  (92) 
237414

>  <inchikey>  (92) 
DKXOGIRLTSGRJI-UHFFFAOYSA-N

>  <alias>  (92) 
None

>  <smiles>  (92) 
Cc1cnccc1C(=O)Nc1ccc(Cl)c2ncccc12

>  <path>  (92) 
/opt/xchem-fragalysis-2/maxwin/RdRp_FFF/syndirella/mar_elabs/elabs_005/YAOSTISNIUSXMX-UHFFFAOYSA-N/output/YAOSTISNIUSXMX-UHFFFAOYSA-N-kzFKyu-1-A/YAOSTISNIUSXMX-UHFFFAOYSA-N-kzFKyu-1-A.minimised.mol

>  <distance_score>  (92) 
0.798299

>  <energy_score>  (92) 
-10.899578

>  <compound>  (92) 
DKXOGIRLTSGRJI-UHFFFAOYSA-N

>  <compound_id>  (92) 
77413

>  <target>  (92) 
Flavi_NS5_RdRp

>  <tags>  (92) 
[]

>  <inspirations>  (92) 
{P Ã— 2}

>  <subsites>  (92) 
None

>  <reference>  (92) 
z0221a

>  <SLURM_JOB_ID>  (92) 
nan

>  <SLURM_JOB_NAME>  (92) 
nan

>  <csv_name>  (92) 
nan

>  <scratch_subdir>  (92) 
nan

>  <fragmenstein_runtime>  (92) 
nan

>  <fragmenstein_outcome>  (92) 
nan

>  <fragmenstein_mode>  (92) 
nan

>  <fragmenstein_error>  (92) 
nan

>  <exports>  (92) 
/opt/xchem-fragalysis-2/maxwin/RdRp_FFF/hippo/RdRp_t3c_i2a_C29639_products_poses.sdf

>  <Multi-SuCOS>  (92) 
nan

>  <merge_set>  (92) 
nan

$$$$
UDKOUZLHYKSJFE-UHFFFAOYSA-N
     RDKit          3D

 21 23  0  0  0  0  0  0  0  0999 V2000
  -25.6003  -31.0035  -20.1304 O   0  0  0  0  0  0  0  0  0  0  0  0
  -26.3787  -30.1676  -20.3590 C   0  0  0  0  0  0  0  0  0  0  0  0
  -27.5327  -29.6173  -19.5023 N   0  0  0  0  0  0  0  0  0  0  0  0
  -27.9020  -29.9039  -18.1899 C   0  0  0  0  0  0  0  0  0  0  0  0
  -29.2705  -29.8266  -17.9466 C   0  0  0  0  0  0  0  0  0  0  0  0
  -29.7656  -30.2345  -16.7237 C   0  0  0  0  0  0  0  0  0  0  0  0
  -28.9002  -30.7259  -15.7502 C   0  0  0  0  0  0  0  0  0  0  0  0
  -29.6416  -31.3075  -14.2919 Cl  0  0  0  0  0  0  0  0  0  0  0  0
  -27.5130  -30.7580  -15.9247 C   0  0  0  0  0  0  0  0  0  0  0  0
  -26.7120  -31.1831  -14.9159 N   0  0  0  0  0  0  0  0  0  0  0  0
  -25.3766  -31.1626  -15.0807 C   0  0  0  0  0  0  0  0  0  0  0  0
  -24.7658  -30.7017  -16.2205 C   0  0  0  0  0  0  0  0  0  0  0  0
  -25.5813  -30.2678  -17.2586 C   0  0  0  0  0  0  0  0  0  0  0  0
  -26.9937  -30.3167  -17.1653 C   0  0  0  0  0  0  0  0  0  0  0  0
  -26.3666  -29.4331  -21.6511 C   0  0  0  0  0  0  0  0  0  0  0  0
  -26.5869  -30.1579  -22.8775 C   0  0  0  0  0  0  0  0  0  0  0  0
  -26.1959  -29.6303  -24.0435 C   0  0  0  0  0  0  0  0  0  0  0  0
  -25.6363  -28.3805  -24.0623 N   0  0  0  0  0  0  0  0  0  0  0  0
  -25.5166  -27.5782  -22.9536 C   0  0  0  0  0  0  0  0  0  0  0  0
  -25.1783  -26.4053  -22.9950 O   0  0  0  0  0  0  0  0  0  0  0  0
  -25.8740  -28.1874  -21.6519 C   0  0  0  0  0  0  0  0  0  0  0  0
  1  2  2  0
  2  3  1  0
  3  4  1  0
  4  5  2  0
  5  6  1  0
  6  7  2  0
  7  8  1  0
  7  9  1  0
  9 10  2  0
 10 11  1  0
 11 12  2  0
 12 13  1  0
 13 14  2  0
  2 15  1  0
 15 16  1  0
 16 17  2  0
 17 18  1  0
 18 19  1  0
 19 20  2  0
 19 21  1  0
 14  4  1  0
 21 15  2  0
 14  9  1  0
M  END
>  <id>  (93) 
237415

>  <inchikey>  (93) 
UDKOUZLHYKSJFE-UHFFFAOYSA-N

>  <alias>  (93) 
None

>  <smiles>  (93) 
O=C(Nc1ccc(Cl)c2ncccc12)c1cc[nH]c(=O)c1

>  <path>  (93) 
/opt/xchem-fragalysis-2/maxwin/RdRp_FFF/syndirella/mar_elabs/elabs_005/YAOSTISNIUSXMX-UHFFFAOYSA-N/output/YAOSTISNIUSXMX-UHFFFAOYSA-N-kzFKyu-3-A/YAOSTISNIUSXMX-UHFFFAOYSA-N-kzFKyu-3-A.minimised.mol

>  <distance_score>  (93) 
0.813493

>  <energy_score>  (93) 
-12.723379

>  <compound>  (93) 
UDKOUZLHYKSJFE-UHFFFAOYSA-N

>  <compound_id>  (93) 
77415

>  <target>  (93) 
Flavi_NS5_RdRp

>  <tags>  (93) 
[]

>  <inspirations>  (93) 
{P Ã— 2}

>  <subsites>  (93) 
None

>  <reference>  (93) 
z0221a

>  <SLURM_JOB_ID>  (93) 
nan

>  <SLURM_JOB_NAME>  (93) 
nan

>  <csv_name>  (93) 
nan

>  <scratch_subdir>  (93) 
nan

>  <fragmenstein_runtime>  (93) 
nan

>  <fragmenstein_outcome>  (93) 
nan

>  <fragmenstein_mode>  (93) 
nan

>  <fragmenstein_error>  (93) 
nan

>  <exports>  (93) 
/opt/xchem-fragalysis-2/maxwin/RdRp_FFF/hippo/RdRp_t3c_i2a_C29639_products_poses.sdf

>  <Multi-SuCOS>  (93) 
nan

>  <merge_set>  (93) 
nan

$$$$
MJGSXYCHJYMWDI-UHFFFAOYSA-N
     RDKit          3D

 21 23  0  0  0  0  0  0  0  0999 V2000
  -25.3762  -30.7887  -20.1468 O   0  0  0  0  0  0  0  0  0  0  0  0
  -26.1859  -29.9914  -20.3756 C   0  0  0  0  0  0  0  0  0  0  0  0
  -27.3350  -29.4804  -19.5228 N   0  0  0  0  0  0  0  0  0  0  0  0
  -27.7852  -29.8910  -18.2760 C   0  0  0  0  0  0  0  0  0  0  0  0
  -29.1464  -30.1852  -18.2009 C   0  0  0  0  0  0  0  0  0  0  0  0
  -30.1888  -30.1933  -19.7903 Br  0  0  0  0  0  0  0  0  0  0  0  0
  -29.6834  -30.6488  -17.0183 C   0  0  0  0  0  0  0  0  0  0  0  0
  -28.8492  -30.8338  -15.9158 C   0  0  0  0  0  0  0  0  0  0  0  0
  -29.6066  -31.4267  -14.4689 Cl  0  0  0  0  0  0  0  0  0  0  0  0
  -27.4682  -30.5922  -15.9575 C   0  0  0  0  0  0  0  0  0  0  0  0
  -26.6972  -30.8127  -14.8649 N   0  0  0  0  0  0  0  0  0  0  0  0
  -25.3715  -30.5829  -14.9342 C   0  0  0  0  0  0  0  0  0  0  0  0
  -24.7450  -30.1032  -16.0587 C   0  0  0  0  0  0  0  0  0  0  0  0
  -25.5288  -29.8574  -17.1778 C   0  0  0  0  0  0  0  0  0  0  0  0
  -26.9198  -30.1151  -17.1699 C   0  0  0  0  0  0  0  0  0  0  0  0
  -26.1952  -29.2943  -21.6787 C   0  0  0  0  0  0  0  0  0  0  0  0
  -26.5789  -30.0133  -22.8062 C   0  0  0  0  0  0  0  0  0  0  0  0
  -26.3392  -29.4384  -24.0371 C   0  0  0  0  0  0  0  0  0  0  0  0
  -25.7782  -28.2207  -24.1785 N   0  0  0  0  0  0  0  0  0  0  0  0
  -25.4303  -27.5452  -23.0602 C   0  0  0  0  0  0  0  0  0  0  0  0
  -25.6362  -28.0245  -21.7838 C   0  0  0  0  0  0  0  0  0  0  0  0
  1  2  2  0
  2  3  1  0
  3  4  1  0
  4  5  2  0
  5  6  1  0
  5  7  1  0
  7  8  2  0
  8  9  1  0
  8 10  1  0
 10 11  2  0
 11 12  1  0
 12 13  2  0
 13 14  1  0
 14 15  2  0
  2 16  1  0
 16 17  2  0
 17 18  1  0
 18 19  2  0
 19 20  1  0
 20 21  2  0
 15  4  1  0
 21 16  1  0
 15 10  1  0
M  END
>  <id>  (94) 
237427

>  <inchikey>  (94) 
MJGSXYCHJYMWDI-UHFFFAOYSA-N

>  <alias>  (94) 
None

>  <smiles>  (94) 
O=C(Nc1c(Br)cc(Cl)c2ncccc12)c1ccncc1

>  <path>  (94) 
/opt/xchem-fragalysis-2/maxwin/RdRp_FFF/syndirella/mar_elabs/elabs_005/YAOSTISNIUSXMX-UHFFFAOYSA-N/output/YAOSTISNIUSXMX-UHFFFAOYSA-N-kzFKyu-23-A/YAOSTISNIUSXMX-UHFFFAOYSA-N-kzFKyu-23-A.minimised.mol

>  <distance_score>  (94) 
0.721313

>  <energy_score>  (94) 
-3.266459

>  <compound>  (94) 
MJGSXYCHJYMWDI-UHFFFAOYSA-N

>  <compound_id>  (94) 
77434

>  <target>  (94) 
Flavi_NS5_RdRp

>  <tags>  (94) 
[]

>  <inspirations>  (94) 
{P Ã— 2}

>  <subsites>  (94) 
None

>  <reference>  (94) 
z0221a

>  <SLURM_JOB_ID>  (94) 
nan

>  <SLURM_JOB_NAME>  (94) 
nan

>  <csv_name>  (94) 
nan

>  <scratch_subdir>  (94) 
nan

>  <fragmenstein_runtime>  (94) 
nan

>  <fragmenstein_outcome>  (94) 
nan

>  <fragmenstein_mode>  (94) 
nan

>  <fragmenstein_error>  (94) 
nan

>  <exports>  (94) 
/opt/xchem-fragalysis-2/maxwin/RdRp_FFF/hippo/RdRp_t3c_i2a_C29639_products_poses.sdf

>  <Multi-SuCOS>  (94) 
nan

>  <merge_set>  (94) 
nan

$$$$
PJXQTSBCVHJRKP-UHFFFAOYSA-N
     RDKit          3D

 21 23  0  0  0  0  0  0  0  0999 V2000
  -24.4910  -29.7708  -17.7447 C   0  0  0  0  0  0  0  0  0  0  0  0
  -25.4458  -30.5542  -16.8948 C   0  0  0  0  0  0  0  0  0  0  0  0
  -24.8395  -31.3401  -15.9046 C   0  0  0  0  0  0  0  0  0  0  0  0
  -25.6319  -31.9369  -14.9602 C   0  0  0  0  0  0  0  0  0  0  0  0
  -26.9604  -31.7728  -14.9198 N   0  0  0  0  0  0  0  0  0  0  0  0
  -27.5747  -31.0545  -15.8881 C   0  0  0  0  0  0  0  0  0  0  0  0
  -28.9572  -30.8624  -15.7800 C   0  0  0  0  0  0  0  0  0  0  0  0
  -29.8566  -31.5074  -14.4366 Cl  0  0  0  0  0  0  0  0  0  0  0  0
  -29.6907  -30.1450  -16.7150 C   0  0  0  0  0  0  0  0  0  0  0  0
  -29.0549  -29.6487  -17.8305 C   0  0  0  0  0  0  0  0  0  0  0  0
  -27.6783  -29.8218  -17.9890 C   0  0  0  0  0  0  0  0  0  0  0  0
  -27.2382  -29.4270  -19.2508 N   0  0  0  0  0  0  0  0  0  0  0  0
  -26.3592  -30.1593  -20.2752 C   0  0  0  0  0  0  0  0  0  0  0  0
  -25.7987  -31.1767  -20.1985 O   0  0  0  0  0  0  0  0  0  0  0  0
  -26.2866  -29.3871  -21.5417 C   0  0  0  0  0  0  0  0  0  0  0  0
  -26.5969  -30.0501  -22.7274 C   0  0  0  0  0  0  0  0  0  0  0  0
  -26.3066  -29.4160  -23.9194 C   0  0  0  0  0  0  0  0  0  0  0  0
  -25.7550  -28.1868  -23.9783 N   0  0  0  0  0  0  0  0  0  0  0  0
  -25.4697  -27.5666  -22.8108 C   0  0  0  0  0  0  0  0  0  0  0  0
  -25.7344  -28.1088  -21.5676 C   0  0  0  0  0  0  0  0  0  0  0  0
  -26.8779  -30.4721  -16.9837 C   0  0  0  0  0  0  0  0  0  0  0  0
  1  2  1  0
  2  3  2  0
  3  4  1  0
  4  5  2  0
  5  6  1  0
  6  7  2  0
  7  8  1  0
  7  9  1  0
  9 10  2  0
 10 11  1  0
 11 12  1  0
 12 13  1  0
 13 14  2  0
 13 15  1  0
 15 16  2  0
 16 17  1  0
 17 18  2  0
 18 19  1  0
 19 20  2  0
 11 21  2  0
 21  2  1  0
 21  6  1  0
 20 15  1  0
M  END
>  <id>  (95) 
237430

>  <inchikey>  (95) 
PJXQTSBCVHJRKP-UHFFFAOYSA-N

>  <alias>  (95) 
None

>  <smiles>  (95) 
Cc1ccnc2c(Cl)ccc(NC(=O)c3ccncc3)c12

>  <path>  (95) 
/opt/xchem-fragalysis-2/maxwin/RdRp_FFF/syndirella/mar_elabs/elabs_005/YAOSTISNIUSXMX-UHFFFAOYSA-N/output/YAOSTISNIUSXMX-UHFFFAOYSA-N-kzFKyu-33-A/YAOSTISNIUSXMX-UHFFFAOYSA-N-kzFKyu-33-A.minimised.mol

>  <distance_score>  (95) 
1.022544

>  <energy_score>  (95) 
-12.139219

>  <compound>  (95) 
PJXQTSBCVHJRKP-UHFFFAOYSA-N

>  <compound_id>  (95) 
77438

>  <target>  (95) 
Flavi_NS5_RdRp

>  <tags>  (95) 
[]

>  <inspirations>  (95) 
{P Ã— 2}

>  <subsites>  (95) 
None

>  <reference>  (95) 
z0221a

>  <SLURM_JOB_ID>  (95) 
nan

>  <SLURM_JOB_NAME>  (95) 
nan

>  <csv_name>  (95) 
nan

>  <scratch_subdir>  (95) 
nan

>  <fragmenstein_runtime>  (95) 
nan

>  <fragmenstein_outcome>  (95) 
nan

>  <fragmenstein_mode>  (95) 
nan

>  <fragmenstein_error>  (95) 
nan

>  <exports>  (95) 
/opt/xchem-fragalysis-2/maxwin/RdRp_FFF/hippo/RdRp_t3c_i2a_C29639_products_poses.sdf

>  <Multi-SuCOS>  (95) 
nan

>  <merge_set>  (95) 
nan

$$$$
YLWMSLRBFJHTDV-UHFFFAOYSA-N
     RDKit          3D

 22 24  0  0  0  0  0  0  0  0999 V2000
  -25.2984  -27.0867  -20.7165 C   0  0  0  0  0  0  0  0  0  0  0  0
  -25.7317  -27.9739  -21.8341 C   0  0  0  0  0  0  0  0  0  0  0  0
  -25.4643  -27.5907  -23.1424 C   0  0  0  0  0  0  0  0  0  0  0  0
  -25.7847  -28.3197  -24.2329 N   0  0  0  0  0  0  0  0  0  0  0  0
  -26.3629  -29.5163  -24.0361 C   0  0  0  0  0  0  0  0  0  0  0  0
  -26.6411  -30.0170  -22.7797 C   0  0  0  0  0  0  0  0  0  0  0  0
  -26.3016  -29.2423  -21.6686 C   0  0  0  0  0  0  0  0  0  0  0  0
  -26.3285  -29.9441  -20.3577 C   0  0  0  0  0  0  0  0  0  0  0  0
  -25.6128  -30.8492  -20.2067 O   0  0  0  0  0  0  0  0  0  0  0  0
  -27.3381  -29.3040  -19.3975 N   0  0  0  0  0  0  0  0  0  0  0  0
  -27.7398  -29.6864  -18.1179 C   0  0  0  0  0  0  0  0  0  0  0  0
  -29.1242  -29.6797  -17.9482 C   0  0  0  0  0  0  0  0  0  0  0  0
  -29.6758  -30.2343  -16.8134 C   0  0  0  0  0  0  0  0  0  0  0  0
  -28.8495  -30.8425  -15.8761 C   0  0  0  0  0  0  0  0  0  0  0  0
  -29.6468  -31.5740  -14.5137 Cl  0  0  0  0  0  0  0  0  0  0  0  0
  -27.4555  -30.8598  -15.9955 C   0  0  0  0  0  0  0  0  0  0  0  0
  -26.7384  -31.4797  -15.0295 N   0  0  0  0  0  0  0  0  0  0  0  0
  -25.3999  -31.4675  -15.0880 C   0  0  0  0  0  0  0  0  0  0  0  0
  -24.7042  -30.7689  -16.0397 C   0  0  0  0  0  0  0  0  0  0  0  0
  -25.4234  -30.0762  -17.0215 C   0  0  0  0  0  0  0  0  0  0  0  0
  -24.6113  -29.1328  -17.8641 C   0  0  0  0  0  0  0  0  0  0  0  0
  -26.8541  -30.2033  -17.1029 C   0  0  0  0  0  0  0  0  0  0  0  0
  1  2  1  0
  2  3  2  0
  3  4  1  0
  4  5  2  0
  5  6  1  0
  6  7  2  0
  7  8  1  0
  8  9  2  0
  8 10  1  0
 10 11  1  0
 11 12  2  0
 12 13  1  0
 13 14  2  0
 14 15  1  0
 14 16  1  0
 16 17  2  0
 17 18  1  0
 18 19  2  0
 19 20  1  0
 20 21  1  0
 20 22  2  0
  7  2  1  0
 22 11  1  0
 22 16  1  0
M  END
>  <id>  (96) 
237443

>  <inchikey>  (96) 
YLWMSLRBFJHTDV-UHFFFAOYSA-N

>  <alias>  (96) 
None

>  <smiles>  (96) 
Cc1cnccc1C(=O)Nc1ccc(Cl)c2nccc(C)c12

>  <path>  (96) 
/opt/xchem-fragalysis-2/maxwin/RdRp_FFF/syndirella/mar_elabs/elabs_005/YAOSTISNIUSXMX-UHFFFAOYSA-N/output/YAOSTISNIUSXMX-UHFFFAOYSA-N-kzFKyu-58-A/YAOSTISNIUSXMX-UHFFFAOYSA-N-kzFKyu-58-A.minimised.mol

>  <distance_score>  (96) 
0.84356

>  <energy_score>  (96) 
-15.425505

>  <compound>  (96) 
YLWMSLRBFJHTDV-UHFFFAOYSA-N

>  <compound_id>  (96) 
77455

>  <target>  (96) 
Flavi_NS5_RdRp

>  <tags>  (96) 
[]

>  <inspirations>  (96) 
{P Ã— 2}

>  <subsites>  (96) 
None

>  <reference>  (96) 
z0221a

>  <SLURM_JOB_ID>  (96) 
nan

>  <SLURM_JOB_NAME>  (96) 
nan

>  <csv_name>  (96) 
nan

>  <scratch_subdir>  (96) 
nan

>  <fragmenstein_runtime>  (96) 
nan

>  <fragmenstein_outcome>  (96) 
nan

>  <fragmenstein_mode>  (96) 
nan

>  <fragmenstein_error>  (96) 
nan

>  <exports>  (96) 
nan

>  <Multi-SuCOS>  (96) 
nan

>  <merge_set>  (96) 
nan

$$$$
LGYWQKKNVYLRQR-UHFFFAOYSA-N
     RDKit          3D

 22 24  0  0  0  0  0  0  0  0999 V2000
  -24.6092  -29.9869  -17.7019 C   0  0  0  0  0  0  0  0  0  0  0  0
  -25.5449  -30.7537  -16.8147 C   0  0  0  0  0  0  0  0  0  0  0  0
  -24.9188  -31.5212  -15.8229 C   0  0  0  0  0  0  0  0  0  0  0  0
  -25.6916  -32.0876  -14.8437 C   0  0  0  0  0  0  0  0  0  0  0  0
  -27.0168  -31.9057  -14.7685 N   0  0  0  0  0  0  0  0  0  0  0  0
  -27.6509  -31.2034  -15.7361 C   0  0  0  0  0  0  0  0  0  0  0  0
  -29.0257  -30.9784  -15.5919 C   0  0  0  0  0  0  0  0  0  0  0  0
  -29.8986  -31.5821  -14.2121 Cl  0  0  0  0  0  0  0  0  0  0  0  0
  -29.7723  -30.2573  -16.5148 C   0  0  0  0  0  0  0  0  0  0  0  0
  -29.1656  -29.8068  -17.6643 C   0  0  0  0  0  0  0  0  0  0  0  0
  -27.8042  -30.0437  -17.8678 C   0  0  0  0  0  0  0  0  0  0  0  0
  -27.3969  -29.7172  -19.1560 N   0  0  0  0  0  0  0  0  0  0  0  0
  -26.5381  -30.5034  -20.1624 C   0  0  0  0  0  0  0  0  0  0  0  0
  -25.9720  -31.5145  -20.0443 O   0  0  0  0  0  0  0  0  0  0  0  0
  -26.4272  -29.7462  -21.4290 C   0  0  0  0  0  0  0  0  0  0  0  0
  -26.5741  -30.4004  -22.6443 C   0  0  0  0  0  0  0  0  0  0  0  0
  -26.2745  -29.6926  -23.7950 C   0  0  0  0  0  0  0  0  0  0  0  0
  -25.8333  -28.4189  -23.7799 N   0  0  0  0  0  0  0  0  0  0  0  0
  -25.7009  -27.8172  -22.5882 C   0  0  0  0  0  0  0  0  0  0  0  0
  -25.3751  -26.4749  -22.5938 N   0  0  0  0  0  0  0  0  0  0  0  0
  -26.0156  -28.4225  -21.3923 C   0  0  0  0  0  0  0  0  0  0  0  0
  -26.9796  -30.6657  -16.8665 C   0  0  0  0  0  0  0  0  0  0  0  0
  1  2  1  0
  2  3  2  0
  3  4  1  0
  4  5  2  0
  5  6  1  0
  6  7  2  0
  7  8  1  0
  7  9  1  0
  9 10  2  0
 10 11  1  0
 11 12  1  0
 12 13  1  0
 13 14  2  0
 13 15  1  0
 15 16  2  0
 16 17  1  0
 17 18  2  0
 18 19  1  0
 19 20  1  0
 19 21  2  0
 11 22  2  0
 22  2  1  0
 22  6  1  0
 21 15  1  0
M  END
>  <id>  (97) 
237505

>  <inchikey>  (97) 
LGYWQKKNVYLRQR-UHFFFAOYSA-N

>  <alias>  (97) 
None

>  <smiles>  (97) 
Cc1ccnc2c(Cl)ccc(NC(=O)c3ccnc(N)c3)c12

>  <path>  (97) 
/opt/xchem-fragalysis-2/maxwin/RdRp_FFF/syndirella/mar_elabs/elabs_005/YAOSTISNIUSXMX-UHFFFAOYSA-N/output/YAOSTISNIUSXMX-UHFFFAOYSA-N-kzFKyu-180-A/YAOSTISNIUSXMX-UHFFFAOYSA-N-kzFKyu-180-A.minimised.mol

>  <distance_score>  (97) 
1.137544

>  <energy_score>  (97) 
-30.100271

>  <compound>  (97) 
LGYWQKKNVYLRQR-UHFFFAOYSA-N

>  <compound_id>  (97) 
77538

>  <target>  (97) 
Flavi_NS5_RdRp

>  <tags>  (97) 
[]

>  <inspirations>  (97) 
{P Ã— 2}

>  <subsites>  (97) 
None

>  <reference>  (97) 
z0221a

>  <SLURM_JOB_ID>  (97) 
nan

>  <SLURM_JOB_NAME>  (97) 
nan

>  <csv_name>  (97) 
nan

>  <scratch_subdir>  (97) 
nan

>  <fragmenstein_runtime>  (97) 
nan

>  <fragmenstein_outcome>  (97) 
nan

>  <fragmenstein_mode>  (97) 
nan

>  <fragmenstein_error>  (97) 
nan

>  <exports>  (97) 
nan

>  <Multi-SuCOS>  (97) 
nan

>  <merge_set>  (97) 
nan

$$$$
NPEVVVPWPFSPTN-UHFFFAOYSA-N
     RDKit          3D

 22 24  0  0  0  0  0  0  0  0999 V2000
  -26.3862  -30.4206  -24.5721 N   0  0  0  0  0  0  0  0  0  0  0  0
  -26.2175  -29.3851  -23.6602 C   0  0  0  0  0  0  0  0  0  0  0  0
  -26.4178  -29.6074  -22.3122 C   0  0  0  0  0  0  0  0  0  0  0  0
  -26.0013  -28.6148  -21.4214 C   0  0  0  0  0  0  0  0  0  0  0  0
  -25.9140  -28.9248  -19.9832 C   0  0  0  0  0  0  0  0  0  0  0  0
  -24.8752  -28.9055  -19.4600 O   0  0  0  0  0  0  0  0  0  0  0  0
  -27.2912  -29.3311  -19.4451 N   0  0  0  0  0  0  0  0  0  0  0  0
  -27.6637  -29.8796  -18.2017 C   0  0  0  0  0  0  0  0  0  0  0  0
  -28.9742  -30.4058  -18.2279 C   0  0  0  0  0  0  0  0  0  0  0  0
  -30.0066  -30.3847  -19.8317 Br  0  0  0  0  0  0  0  0  0  0  0  0
  -29.5234  -31.0306  -17.1264 C   0  0  0  0  0  0  0  0  0  0  0  0
  -28.7409  -31.1925  -15.9918 C   0  0  0  0  0  0  0  0  0  0  0  0
  -29.4870  -32.0118  -14.6514 Cl  0  0  0  0  0  0  0  0  0  0  0  0
  -27.4196  -30.7392  -15.9127 C   0  0  0  0  0  0  0  0  0  0  0  0
  -26.7129  -30.9982  -14.7863 N   0  0  0  0  0  0  0  0  0  0  0  0
  -25.4500  -30.5554  -14.6741 C   0  0  0  0  0  0  0  0  0  0  0  0
  -24.8492  -29.7836  -15.6300 C   0  0  0  0  0  0  0  0  0  0  0  0
  -25.5839  -29.4926  -16.7745 C   0  0  0  0  0  0  0  0  0  0  0  0
  -26.8761  -30.0203  -17.0114 C   0  0  0  0  0  0  0  0  0  0  0  0
  -25.4402  -27.4377  -21.8784 C   0  0  0  0  0  0  0  0  0  0  0  0
  -25.3262  -27.3027  -23.2413 C   0  0  0  0  0  0  0  0  0  0  0  0
  -25.7175  -28.2393  -24.1362 N   0  0  0  0  0  0  0  0  0  0  0  0
  1  2  1  0
  2  3  2  0
  3  4  1  0
  4  5  1  0
  5  6  2  0
  5  7  1  0
  7  8  1  0
  8  9  2  0
  9 10  1  0
  9 11  1  0
 11 12  2  0
 12 13  1  0
 12 14  1  0
 14 15  2  0
 15 16  1  0
 16 17  2  0
 17 18  1  0
 18 19  2  0
  4 20  2  0
 20 21  1  0
 21 22  2  0
 22  2  1  0
 19  8  1  0
 19 14  1  0
M  END
>  <id>  (98) 
237506

>  <inchikey>  (98) 
NPEVVVPWPFSPTN-UHFFFAOYSA-N

>  <alias>  (98) 
None

>  <smiles>  (98) 
Nc1cc(C(=O)Nc2c(Br)cc(Cl)c3ncccc23)ccn1

>  <path>  (98) 
/opt/xchem-fragalysis-2/maxwin/RdRp_FFF/syndirella/mar_elabs/elabs_005/YAOSTISNIUSXMX-UHFFFAOYSA-N/output/YAOSTISNIUSXMX-UHFFFAOYSA-N-kzFKyu-181-A/YAOSTISNIUSXMX-UHFFFAOYSA-N-kzFKyu-181-A.minimised.mol

>  <distance_score>  (98) 
1.169727

>  <energy_score>  (98) 
-16.407612

>  <compound>  (98) 
NPEVVVPWPFSPTN-UHFFFAOYSA-N

>  <compound_id>  (98) 
77539

>  <target>  (98) 
Flavi_NS5_RdRp

>  <tags>  (98) 
[]

>  <inspirations>  (98) 
{P Ã— 2}

>  <subsites>  (98) 
None

>  <reference>  (98) 
z0221a

>  <SLURM_JOB_ID>  (98) 
nan

>  <SLURM_JOB_NAME>  (98) 
nan

>  <csv_name>  (98) 
nan

>  <scratch_subdir>  (98) 
nan

>  <fragmenstein_runtime>  (98) 
nan

>  <fragmenstein_outcome>  (98) 
nan

>  <fragmenstein_mode>  (98) 
nan

>  <fragmenstein_error>  (98) 
nan

>  <exports>  (98) 
nan

>  <Multi-SuCOS>  (98) 
nan

>  <merge_set>  (98) 
nan

$$$$
SIBCGMPHHKCUJO-UHFFFAOYSA-N
     RDKit          3D

 22 24  0  0  0  0  0  0  0  0999 V2000
  -24.4441  -29.6703  -18.1009 C   0  0  0  0  0  0  0  0  0  0  0  0
  -25.3775  -29.8797  -16.9533 C   0  0  0  0  0  0  0  0  0  0  0  0
  -24.7532  -29.9082  -15.7054 C   0  0  0  0  0  0  0  0  0  0  0  0
  -25.5102  -30.1904  -14.6058 C   0  0  0  0  0  0  0  0  0  0  0  0
  -26.8286  -30.4073  -14.6660 N   0  0  0  0  0  0  0  0  0  0  0  0
  -27.4715  -30.3678  -15.8452 C   0  0  0  0  0  0  0  0  0  0  0  0
  -28.8428  -30.6461  -15.8430 C   0  0  0  0  0  0  0  0  0  0  0  0
  -29.6822  -31.1026  -14.3916 Cl  0  0  0  0  0  0  0  0  0  0  0  0
  -29.6087  -30.5988  -16.9924 C   0  0  0  0  0  0  0  0  0  0  0  0
  -29.0092  -30.2612  -18.1839 C   0  0  0  0  0  0  0  0  0  0  0  0
  -27.6332  -30.0009  -18.2383 C   0  0  0  0  0  0  0  0  0  0  0  0
  -27.1225  -29.6587  -19.4877 N   0  0  0  0  0  0  0  0  0  0  0  0
  -27.8105  -29.5863  -20.8643 C   0  0  0  0  0  0  0  0  0  0  0  0
  -28.8925  -29.8749  -21.1835 O   0  0  0  0  0  0  0  0  0  0  0  0
  -26.8012  -29.1511  -21.8621 C   0  0  0  0  0  0  0  0  0  0  0  0
  -26.6188  -29.9547  -23.0400 C   0  0  0  0  0  0  0  0  0  0  0  0
  -25.9094  -29.4957  -24.0738 C   0  0  0  0  0  0  0  0  0  0  0  0
  -25.3119  -28.2671  -23.9812 N   0  0  0  0  0  0  0  0  0  0  0  0
  -25.4464  -27.4395  -22.8951 C   0  0  0  0  0  0  0  0  0  0  0  0
  -25.0613  -26.2820  -22.8595 O   0  0  0  0  0  0  0  0  0  0  0  0
  -26.1969  -27.9652  -21.7327 C   0  0  0  0  0  0  0  0  0  0  0  0
  -26.8053  -30.0688  -17.0634 C   0  0  0  0  0  0  0  0  0  0  0  0
  1  2  1  0
  2  3  2  0
  3  4  1  0
  4  5  2  0
  5  6  1  0
  6  7  2  0
  7  8  1  0
  7  9  1  0
  9 10  2  0
 10 11  1  0
 11 12  1  0
 12 13  1  0
 13 14  2  0
 13 15  1  0
 15 16  1  0
 16 17  2  0
 17 18  1  0
 18 19  1  0
 19 20  2  0
 19 21  1  0
 11 22  2  0
 22  2  1  0
 22  6  1  0
 21 15  2  0
M  END
>  <id>  (99) 
237531

>  <inchikey>  (99) 
SIBCGMPHHKCUJO-UHFFFAOYSA-N

>  <alias>  (99) 
None

>  <smiles>  (99) 
Cc1ccnc2c(Cl)ccc(NC(=O)c3cc[nH]c(=O)c3)c12

>  <path>  (99) 
/opt/xchem-fragalysis-2/maxwin/RdRp_FFF/syndirella/mar_elabs/elabs_005/YAOSTISNIUSXMX-UHFFFAOYSA-N/output/YAOSTISNIUSXMX-UHFFFAOYSA-N-kzFKyu-241-A/YAOSTISNIUSXMX-UHFFFAOYSA-N-kzFKyu-241-A.minimised.mol

>  <distance_score>  (99) 
1.32683

>  <energy_score>  (99) 
-33.508592

>  <compound>  (99) 
SIBCGMPHHKCUJO-UHFFFAOYSA-N

>  <compound_id>  (99) 
77571

>  <target>  (99) 
Flavi_NS5_RdRp

>  <tags>  (99) 
[]

>  <inspirations>  (99) 
{P Ã— 2}

>  <subsites>  (99) 
None

>  <reference>  (99) 
z0221a

>  <SLURM_JOB_ID>  (99) 
nan

>  <SLURM_JOB_NAME>  (99) 
nan

>  <csv_name>  (99) 
nan

>  <scratch_subdir>  (99) 
nan

>  <fragmenstein_runtime>  (99) 
nan

>  <fragmenstein_outcome>  (99) 
nan

>  <fragmenstein_mode>  (99) 
nan

>  <fragmenstein_error>  (99) 
nan

>  <exports>  (99) 
nan

>  <Multi-SuCOS>  (99) 
nan

>  <merge_set>  (99) 
nan

$$$$
HJWXPYZVVCGNNZ-UHFFFAOYSA-N
     RDKit          3D

 22 24  0  0  0  0  0  0  0  0999 V2000
  -25.3368  -30.8946  -20.0743 O   0  0  0  0  0  0  0  0  0  0  0  0
  -26.1562  -30.1147  -20.3345 C   0  0  0  0  0  0  0  0  0  0  0  0
  -27.3240  -29.5910  -19.5031 N   0  0  0  0  0  0  0  0  0  0  0  0
  -27.7781  -29.9688  -18.2487 C   0  0  0  0  0  0  0  0  0  0  0  0
  -29.1466  -30.2272  -18.1722 C   0  0  0  0  0  0  0  0  0  0  0  0
  -30.1879  -30.2089  -19.7632 Br  0  0  0  0  0  0  0  0  0  0  0  0
  -29.6947  -30.6664  -16.9861 C   0  0  0  0  0  0  0  0  0  0  0  0
  -28.8651  -30.8584  -15.8811 C   0  0  0  0  0  0  0  0  0  0  0  0
  -29.6359  -31.4264  -14.4313 Cl  0  0  0  0  0  0  0  0  0  0  0  0
  -27.4798  -30.6398  -15.9210 C   0  0  0  0  0  0  0  0  0  0  0  0
  -26.7159  -30.8594  -14.8234 N   0  0  0  0  0  0  0  0  0  0  0  0
  -25.3875  -30.6434  -14.8882 C   0  0  0  0  0  0  0  0  0  0  0  0
  -24.7509  -30.1787  -16.0133 C   0  0  0  0  0  0  0  0  0  0  0  0
  -25.5267  -29.9375  -17.1390 C   0  0  0  0  0  0  0  0  0  0  0  0
  -26.9197  -30.1851  -17.1363 C   0  0  0  0  0  0  0  0  0  0  0  0
  -26.2250  -29.4193  -21.6492 C   0  0  0  0  0  0  0  0  0  0  0  0
  -26.5509  -30.1602  -22.8439 C   0  0  0  0  0  0  0  0  0  0  0  0
  -26.2324  -29.6516  -24.0409 C   0  0  0  0  0  0  0  0  0  0  0  0
  -25.6707  -28.4049  -24.1172 N   0  0  0  0  0  0  0  0  0  0  0  0
  -25.4905  -27.5787  -23.0348 C   0  0  0  0  0  0  0  0  0  0  0  0
  -25.1738  -26.4023  -23.1205 O   0  0  0  0  0  0  0  0  0  0  0  0
  -25.7523  -28.1668  -21.7033 C   0  0  0  0  0  0  0  0  0  0  0  0
  1  2  2  0
  2  3  1  0
  3  4  1  0
  4  5  2  0
  5  6  1  0
  5  7  1  0
  7  8  2  0
  8  9  1  0
  8 10  1  0
 10 11  2  0
 11 12  1  0
 12 13  2  0
 13 14  1  0
 14 15  2  0
  2 16  1  0
 16 17  1  0
 17 18  2  0
 18 19  1  0
 19 20  1  0
 20 21  2  0
 20 22  1  0
 15  4  1  0
 22 16  2  0
 15 10  1  0
M  END
>  <id>  (100) 
237532

>  <inchikey>  (100) 
HJWXPYZVVCGNNZ-UHFFFAOYSA-N

>  <alias>  (100) 
None

>  <smiles>  (100) 
O=C(Nc1c(Br)cc(Cl)c2ncccc12)c1cc[nH]c(=O)c1

>  <path>  (100) 
/opt/xchem-fragalysis-2/maxwin/RdRp_FFF/syndirella/mar_elabs/elabs_005/YAOSTISNIUSXMX-UHFFFAOYSA-N/output/YAOSTISNIUSXMX-UHFFFAOYSA-N-kzFKyu-242-A/YAOSTISNIUSXMX-UHFFFAOYSA-N-kzFKyu-242-A.minimised.mol

>  <distance_score>  (100) 
0.749007

>  <energy_score>  (100) 
-16.803475

>  <compound>  (100) 
HJWXPYZVVCGNNZ-UHFFFAOYSA-N

>  <compound_id>  (100) 
77572

>  <target>  (100) 
Flavi_NS5_RdRp

>  <tags>  (100) 
[]

>  <inspirations>  (100) 
{P Ã— 2}

>  <subsites>  (100) 
None

>  <reference>  (100) 
z0221a

>  <SLURM_JOB_ID>  (100) 
nan

>  <SLURM_JOB_NAME>  (100) 
nan

>  <csv_name>  (100) 
nan

>  <scratch_subdir>  (100) 
nan

>  <fragmenstein_runtime>  (100) 
nan

>  <fragmenstein_outcome>  (100) 
nan

>  <fragmenstein_mode>  (100) 
nan

>  <fragmenstein_error>  (100) 
nan

>  <exports>  (100) 
nan

>  <Multi-SuCOS>  (100) 
nan

>  <merge_set>  (100) 
nan

$$$$
GVZALRPEDLHCSI-UHFFFAOYSA-N
     RDKit          3D

 22 24  0  0  0  0  0  0  0  0999 V2000
  -25.5395  -30.9166  -19.8750 O   0  0  0  0  0  0  0  0  0  0  0  0
  -26.3719  -30.1427  -20.1293 C   0  0  0  0  0  0  0  0  0  0  0  0
  -27.5141  -29.5849  -19.2624 N   0  0  0  0  0  0  0  0  0  0  0  0
  -27.9171  -29.9201  -17.9738 C   0  0  0  0  0  0  0  0  0  0  0  0
  -29.2924  -29.8914  -17.7602 C   0  0  0  0  0  0  0  0  0  0  0  0
  -29.7958  -30.3612  -16.5634 C   0  0  0  0  0  0  0  0  0  0  0  0
  -28.9313  -30.8552  -15.5887 C   0  0  0  0  0  0  0  0  0  0  0  0
  -29.6788  -31.5036  -14.1611 Cl  0  0  0  0  0  0  0  0  0  0  0  0
  -27.5398  -30.8362  -15.7351 C   0  0  0  0  0  0  0  0  0  0  0  0
  -26.7405  -31.2699  -14.7284 N   0  0  0  0  0  0  0  0  0  0  0  0
  -25.4032  -31.1957  -14.8678 C   0  0  0  0  0  0  0  0  0  0  0  0
  -24.7889  -30.6723  -15.9788 C   0  0  0  0  0  0  0  0  0  0  0  0
  -25.6025  -30.2308  -17.0144 C   0  0  0  0  0  0  0  0  0  0  0  0
  -27.0140  -30.3348  -16.9472 C   0  0  0  0  0  0  0  0  0  0  0  0
  -26.4150  -29.4602  -21.4423 C   0  0  0  0  0  0  0  0  0  0  0  0
  -26.7024  -30.2190  -22.6357 C   0  0  0  0  0  0  0  0  0  0  0  0
  -26.2781  -29.7514  -23.8153 C   0  0  0  0  0  0  0  0  0  0  0  0
  -25.6348  -28.5500  -23.8511 N   0  0  0  0  0  0  0  0  0  0  0  0
  -25.2310  -28.1613  -25.1224 O   0  0  0  0  0  0  0  0  0  0  0  0
  -25.5290  -27.6625  -22.8071 C   0  0  0  0  0  0  0  0  0  0  0  0
  -25.1616  -26.4978  -22.8741 O   0  0  0  0  0  0  0  0  0  0  0  0
  -25.8977  -28.2230  -21.4842 C   0  0  0  0  0  0  0  0  0  0  0  0
  1  2  2  0
  2  3  1  0
  3  4  1  0
  4  5  2  0
  5  6  1  0
  6  7  2  0
  7  8  1  0
  7  9  1  0
  9 10  2  0
 10 11  1  0
 11 12  2  0
 12 13  1  0
 13 14  2  0
  2 15  1  0
 15 16  1  0
 16 17  2  0
 17 18  1  0
 18 19  1  0
 18 20  1  0
 20 21  2  0
 20 22  1  0
 14  4  1  0
 22 15  2  0
 14  9  1  0
M  END
>  <id>  (101) 
237562

>  <inchikey>  (101) 
GVZALRPEDLHCSI-UHFFFAOYSA-N

>  <alias>  (101) 
None

>  <smiles>  (101) 
O=C(Nc1ccc(Cl)c2ncccc12)c1ccn(O)c(=O)c1

>  <path>  (101) 
/opt/xchem-fragalysis-2/maxwin/RdRp_FFF/syndirella/mar_elabs/elabs_005/YAOSTISNIUSXMX-UHFFFAOYSA-N/output/YAOSTISNIUSXMX-UHFFFAOYSA-N-kzFKyu-306-A/YAOSTISNIUSXMX-UHFFFAOYSA-N-kzFKyu-306-A.minimised.mol

>  <distance_score>  (101) 
0.962788

>  <energy_score>  (101) 
-24.604687

>  <compound>  (101) 
GVZALRPEDLHCSI-UHFFFAOYSA-N

>  <compound_id>  (101) 
77615

>  <target>  (101) 
Flavi_NS5_RdRp

>  <tags>  (101) 
[]

>  <inspirations>  (101) 
{P Ã— 2}

>  <subsites>  (101) 
None

>  <reference>  (101) 
z0221a

>  <SLURM_JOB_ID>  (101) 
nan

>  <SLURM_JOB_NAME>  (101) 
nan

>  <csv_name>  (101) 
nan

>  <scratch_subdir>  (101) 
nan

>  <fragmenstein_runtime>  (101) 
nan

>  <fragmenstein_outcome>  (101) 
nan

>  <fragmenstein_mode>  (101) 
nan

>  <fragmenstein_error>  (101) 
nan

>  <exports>  (101) 
/opt/xchem-fragalysis-2/maxwin/RdRp_FFF/hippo/RdRp_t3c_i2a_C29639_products_poses.sdf

>  <Multi-SuCOS>  (101) 
nan

>  <merge_set>  (101) 
nan

$$$$
YGNCICJTBKMENN-UHFFFAOYSA-N
     RDKit          3D

 22 24  0  0  0  0  0  0  0  0999 V2000
  -25.2133  -27.1569  -20.6645 C   0  0  0  0  0  0  0  0  0  0  0  0
  -25.6615  -27.9921  -21.8181 C   0  0  0  0  0  0  0  0  0  0  0  0
  -25.4435  -27.5649  -23.1183 C   0  0  0  0  0  0  0  0  0  0  0  0
  -25.7849  -28.2732  -24.2184 N   0  0  0  0  0  0  0  0  0  0  0  0
  -26.3458  -29.4833  -24.0415 C   0  0  0  0  0  0  0  0  0  0  0  0
  -26.5822  -30.0238  -22.7945 C   0  0  0  0  0  0  0  0  0  0  0  0
  -26.2039  -29.2739  -21.6820 C   0  0  0  0  0  0  0  0  0  0  0  0
  -26.1925  -29.9718  -20.3742 C   0  0  0  0  0  0  0  0  0  0  0  0
  -25.3557  -30.7356  -20.1301 O   0  0  0  0  0  0  0  0  0  0  0  0
  -27.3661  -29.4945  -19.5363 N   0  0  0  0  0  0  0  0  0  0  0  0
  -27.8106  -29.9072  -18.2880 C   0  0  0  0  0  0  0  0  0  0  0  0
  -29.1693  -30.2085  -18.2110 C   0  0  0  0  0  0  0  0  0  0  0  0
  -30.2115  -30.2127  -19.7998 Br  0  0  0  0  0  0  0  0  0  0  0  0
  -29.7013  -30.6745  -17.0271 C   0  0  0  0  0  0  0  0  0  0  0  0
  -28.8654  -30.8499  -15.9242 C   0  0  0  0  0  0  0  0  0  0  0  0
  -29.6175  -31.4423  -14.4742 Cl  0  0  0  0  0  0  0  0  0  0  0  0
  -27.4868  -30.5966  -15.9664 C   0  0  0  0  0  0  0  0  0  0  0  0
  -26.7146  -30.8070  -14.8723 N   0  0  0  0  0  0  0  0  0  0  0  0
  -25.3910  -30.5674  -14.9407 C   0  0  0  0  0  0  0  0  0  0  0  0
  -24.7680  -30.0829  -16.0647 C   0  0  0  0  0  0  0  0  0  0  0  0
  -25.5540  -29.8449  -17.1841 C   0  0  0  0  0  0  0  0  0  0  0  0
  -26.9425  -30.1181  -17.1798 C   0  0  0  0  0  0  0  0  0  0  0  0
  1  2  1  0
  2  3  2  0
  3  4  1  0
  4  5  2  0
  5  6  1  0
  6  7  2  0
  7  8  1  0
  8  9  2  0
  8 10  1  0
 10 11  1  0
 11 12  2  0
 12 13  1  0
 12 14  1  0
 14 15  2  0
 15 16  1  0
 15 17  1  0
 17 18  2  0
 18 19  1  0
 19 20  2  0
 20 21  1  0
 21 22  2  0
  7  2  1  0
 22 11  1  0
 22 17  1  0
M  END
>  <id>  (102) 
237592

>  <inchikey>  (102) 
YGNCICJTBKMENN-UHFFFAOYSA-N

>  <alias>  (102) 
None

>  <smiles>  (102) 
Cc1cnccc1C(=O)Nc1c(Br)cc(Cl)c2ncccc12

>  <path>  (102) 
/opt/xchem-fragalysis-2/maxwin/RdRp_FFF/syndirella/mar_elabs/elabs_005/YAOSTISNIUSXMX-UHFFFAOYSA-N/output/YAOSTISNIUSXMX-UHFFFAOYSA-N-kzFKyu-354-A/YAOSTISNIUSXMX-UHFFFAOYSA-N-kzFKyu-354-A.minimised.mol

>  <distance_score>  (102) 
0.728654

>  <energy_score>  (102) 
-11.341286

>  <compound>  (102) 
YGNCICJTBKMENN-UHFFFAOYSA-N

>  <compound_id>  (102) 
77648

>  <target>  (102) 
Flavi_NS5_RdRp

>  <tags>  (102) 
[]

>  <inspirations>  (102) 
{P Ã— 2}

>  <subsites>  (102) 
None

>  <reference>  (102) 
z0221a

>  <SLURM_JOB_ID>  (102) 
nan

>  <SLURM_JOB_NAME>  (102) 
nan

>  <csv_name>  (102) 
nan

>  <scratch_subdir>  (102) 
nan

>  <fragmenstein_runtime>  (102) 
nan

>  <fragmenstein_outcome>  (102) 
nan

>  <fragmenstein_mode>  (102) 
nan

>  <fragmenstein_error>  (102) 
nan

>  <exports>  (102) 
nan

>  <Multi-SuCOS>  (102) 
nan

>  <merge_set>  (102) 
nan

$$$$
XANXJXUDHUQUQQ-UHFFFAOYSA-N
     RDKit          3D

 23 25  0  0  0  0  0  0  0  0999 V2000
  -24.5571  -29.7580  -17.5511 C   0  0  0  0  0  0  0  0  0  0  0  0
  -25.5022  -30.5692  -16.7139 C   0  0  0  0  0  0  0  0  0  0  0  0
  -24.8835  -31.3407  -15.7199 C   0  0  0  0  0  0  0  0  0  0  0  0
  -25.6671  -31.9453  -14.7731 C   0  0  0  0  0  0  0  0  0  0  0  0
  -26.9975  -31.7966  -14.7317 N   0  0  0  0  0  0  0  0  0  0  0  0
  -27.6240  -31.0949  -15.7041 C   0  0  0  0  0  0  0  0  0  0  0  0
  -29.0086  -30.9172  -15.5947 C   0  0  0  0  0  0  0  0  0  0  0  0
  -29.8985  -31.5694  -14.2486 Cl  0  0  0  0  0  0  0  0  0  0  0  0
  -29.7526  -30.2080  -16.5282 C   0  0  0  0  0  0  0  0  0  0  0  0
  -29.1290  -29.7177  -17.6523 C   0  0  0  0  0  0  0  0  0  0  0  0
  -27.7538  -29.8973  -17.8184 C   0  0  0  0  0  0  0  0  0  0  0  0
  -27.3274  -29.5585  -19.0988 N   0  0  0  0  0  0  0  0  0  0  0  0
  -26.3758  -30.2908  -20.0623 C   0  0  0  0  0  0  0  0  0  0  0  0
  -25.7384  -31.2532  -19.9080 O   0  0  0  0  0  0  0  0  0  0  0  0
  -26.3818  -29.5544  -21.3609 C   0  0  0  0  0  0  0  0  0  0  0  0
  -26.6788  -30.2789  -22.5790 C   0  0  0  0  0  0  0  0  0  0  0  0
  -26.2760  -29.7790  -23.7536 C   0  0  0  0  0  0  0  0  0  0  0  0
  -25.6445  -28.5715  -23.7717 N   0  0  0  0  0  0  0  0  0  0  0  0
  -25.2320  -28.1600  -25.0362 O   0  0  0  0  0  0  0  0  0  0  0  0
  -25.5351  -27.7097  -22.7059 C   0  0  0  0  0  0  0  0  0  0  0  0
  -25.1830  -26.5387  -22.7530 O   0  0  0  0  0  0  0  0  0  0  0  0
  -25.8790  -28.3091  -21.3895 C   0  0  0  0  0  0  0  0  0  0  0  0
  -26.9376  -30.5149  -16.8050 C   0  0  0  0  0  0  0  0  0  0  0  0
  1  2  1  0
  2  3  2  0
  3  4  1  0
  4  5  2  0
  5  6  1  0
  6  7  2  0
  7  8  1  0
  7  9  1  0
  9 10  2  0
 10 11  1  0
 11 12  1  0
 12 13  1  0
 13 14  2  0
 13 15  1  0
 15 16  1  0
 16 17  2  0
 17 18  1  0
 18 19  1  0
 18 20  1  0
 20 21  2  0
 20 22  1  0
 11 23  2  0
 23  2  1  0
 23  6  1  0
 22 15  2  0
M  END
>  <id>  (103) 
237776

>  <inchikey>  (103) 
XANXJXUDHUQUQQ-UHFFFAOYSA-N

>  <alias>  (103) 
None

>  <smiles>  (103) 
Cc1ccnc2c(Cl)ccc(NC(=O)c3ccn(O)c(=O)c3)c12

>  <path>  (103) 
/opt/xchem-fragalysis-2/maxwin/RdRp_FFF/syndirella/mar_elabs/elabs_005/YAOSTISNIUSXMX-UHFFFAOYSA-N/output/YAOSTISNIUSXMX-UHFFFAOYSA-N-kzFKyu-728-A/YAOSTISNIUSXMX-UHFFFAOYSA-N-kzFKyu-728-A.minimised.mol

>  <distance_score>  (103) 
1.130969

>  <energy_score>  (103) 
-33.252426

>  <compound>  (103) 
XANXJXUDHUQUQQ-UHFFFAOYSA-N

>  <compound_id>  (103) 
77866

>  <target>  (103) 
Flavi_NS5_RdRp

>  <tags>  (103) 
[]

>  <inspirations>  (103) 
{P Ã— 2}

>  <subsites>  (103) 
None

>  <reference>  (103) 
z0221a

>  <SLURM_JOB_ID>  (103) 
nan

>  <SLURM_JOB_NAME>  (103) 
nan

>  <csv_name>  (103) 
nan

>  <scratch_subdir>  (103) 
nan

>  <fragmenstein_runtime>  (103) 
nan

>  <fragmenstein_outcome>  (103) 
nan

>  <fragmenstein_mode>  (103) 
nan

>  <fragmenstein_error>  (103) 
nan

>  <exports>  (103) 
nan

>  <Multi-SuCOS>  (103) 
nan

>  <merge_set>  (103) 
nan

$$$$
PQIPGMUWDIPTLJ-UHFFFAOYSA-N
     RDKit          3D

 23 25  0  0  0  0  0  0  0  0999 V2000
  -25.1963  -30.6812  -19.7666 O   0  0  0  0  0  0  0  0  0  0  0  0
  -26.0906  -30.0140  -20.0827 C   0  0  0  0  0  0  0  0  0  0  0  0
  -27.3472  -29.6185  -19.3181 N   0  0  0  0  0  0  0  0  0  0  0  0
  -27.8083  -30.0193  -18.0758 C   0  0  0  0  0  0  0  0  0  0  0  0
  -29.1718  -30.3177  -18.0439 C   0  0  0  0  0  0  0  0  0  0  0  0
  -30.1666  -30.2738  -19.6684 Br  0  0  0  0  0  0  0  0  0  0  0  0
  -29.7368  -30.8053  -16.8862 C   0  0  0  0  0  0  0  0  0  0  0  0
  -28.9254  -31.0072  -15.7684 C   0  0  0  0  0  0  0  0  0  0  0  0
  -29.7114  -31.6342  -14.3506 Cl  0  0  0  0  0  0  0  0  0  0  0  0
  -27.5448  -30.7501  -15.7673 C   0  0  0  0  0  0  0  0  0  0  0  0
  -26.7983  -30.9958  -14.6633 N   0  0  0  0  0  0  0  0  0  0  0  0
  -25.4763  -30.7352  -14.6838 C   0  0  0  0  0  0  0  0  0  0  0  0
  -24.8299  -30.1910  -15.7663 C   0  0  0  0  0  0  0  0  0  0  0  0
  -25.5892  -29.9227  -16.8965 C   0  0  0  0  0  0  0  0  0  0  0  0
  -26.9704  -30.2310  -16.9476 C   0  0  0  0  0  0  0  0  0  0  0  0
  -26.2108  -29.3847  -21.4191 C   0  0  0  0  0  0  0  0  0  0  0  0
  -26.6152  -30.1679  -22.5668 C   0  0  0  0  0  0  0  0  0  0  0  0
  -26.2724  -29.7295  -23.7842 C   0  0  0  0  0  0  0  0  0  0  0  0
  -25.6357  -28.5293  -23.8919 N   0  0  0  0  0  0  0  0  0  0  0  0
  -25.2836  -28.1827  -25.1909 O   0  0  0  0  0  0  0  0  0  0  0  0
  -25.4767  -27.6086  -22.8846 C   0  0  0  0  0  0  0  0  0  0  0  0
  -25.1429  -26.4397  -23.0169 O   0  0  0  0  0  0  0  0  0  0  0  0
  -25.7308  -28.1371  -21.5254 C   0  0  0  0  0  0  0  0  0  0  0  0
  1  2  2  0
  2  3  1  0
  3  4  1  0
  4  5  2  0
  5  6  1  0
  5  7  1  0
  7  8  2  0
  8  9  1  0
  8 10  1  0
 10 11  2  0
 11 12  1  0
 12 13  2  0
 13 14  1  0
 14 15  2  0
  2 16  1  0
 16 17  1  0
 17 18  2  0
 18 19  1  0
 19 20  1  0
 19 21  1  0
 21 22  2  0
 21 23  1  0
 15  4  1  0
 23 16  2  0
 15 10  1  0
M  END
>  <id>  (104) 
237777

>  <inchikey>  (104) 
PQIPGMUWDIPTLJ-UHFFFAOYSA-N

>  <alias>  (104) 
None

>  <smiles>  (104) 
O=C(Nc1c(Br)cc(Cl)c2ncccc12)c1ccn(O)c(=O)c1

>  <path>  (104) 
/opt/xchem-fragalysis-2/maxwin/RdRp_FFF/syndirella/mar_elabs/elabs_005/YAOSTISNIUSXMX-UHFFFAOYSA-N/output/YAOSTISNIUSXMX-UHFFFAOYSA-N-kzFKyu-729-A/YAOSTISNIUSXMX-UHFFFAOYSA-N-kzFKyu-729-A.minimised.mol

>  <distance_score>  (104) 
0.90993

>  <energy_score>  (104) 
-24.024117

>  <compound>  (104) 
PQIPGMUWDIPTLJ-UHFFFAOYSA-N

>  <compound_id>  (104) 
77867

>  <target>  (104) 
Flavi_NS5_RdRp

>  <tags>  (104) 
[]

>  <inspirations>  (104) 
{P Ã— 2}

>  <subsites>  (104) 
None

>  <reference>  (104) 
z0221a

>  <SLURM_JOB_ID>  (104) 
nan

>  <SLURM_JOB_NAME>  (104) 
nan

>  <csv_name>  (104) 
nan

>  <scratch_subdir>  (104) 
nan

>  <fragmenstein_runtime>  (104) 
nan

>  <fragmenstein_outcome>  (104) 
nan

>  <fragmenstein_mode>  (104) 
nan

>  <fragmenstein_error>  (104) 
nan

>  <exports>  (104) 
nan

>  <Multi-SuCOS>  (104) 
nan

>  <merge_set>  (104) 
nan

$$$$
ZAXPKNMZZARUDB-UHFFFAOYSA-N
     RDKit          3D

 23 26  0  0  0  0  0  0  0  0999 V2000
  -26.6329  -33.8957  -22.3263 O   0  0  0  0  0  0  0  0  0  0  0  0
  -25.8215  -33.6278  -21.5281 C   0  0  0  0  0  0  0  0  0  0  0  0
  -24.8473  -34.6910  -21.0007 C   0  0  0  0  0  0  0  0  0  0  0  0
  -23.4251  -34.3249  -21.2160 C   0  0  0  0  0  0  0  0  0  0  0  0
  -22.7801  -33.3884  -21.9986 C   0  0  0  0  0  0  0  0  0  0  0  0
  -21.4703  -33.2706  -21.4707 C   0  0  0  0  0  0  0  0  0  0  0  0
  -20.3920  -32.3928  -21.6618 C   0  0  0  0  0  0  0  0  0  0  0  0
  -19.2494  -32.5632  -20.8674 C   0  0  0  0  0  0  0  0  0  0  0  0
  -19.1523  -33.6081  -19.9457 C   0  0  0  0  0  0  0  0  0  0  0  0
  -20.2117  -34.4967  -19.7508 C   0  0  0  0  0  0  0  0  0  0  0  0
  -21.3540  -34.2686  -20.5125 C   0  0  0  0  0  0  0  0  0  0  0  0
  -22.5289  -34.9412  -20.3892 O   0  0  0  0  0  0  0  0  0  0  0  0
  -25.4722  -32.2637  -20.8638 N   0  0  0  0  0  0  0  0  0  0  0  0
  -25.9877  -30.9360  -21.1181 C   0  0  0  0  0  0  0  0  0  0  0  0
  -27.2059  -30.6054  -20.3073 C   0  0  0  0  0  0  0  0  0  0  0  0
  -28.3273  -30.3147  -20.9709 N   0  0  0  0  0  0  0  0  0  0  0  0
  -29.5429  -30.0167  -19.9045 S   0  0  0  0  0  0  0  0  0  0  0  0
  -28.5894  -30.1611  -18.4828 C   0  0  0  0  0  0  0  0  0  0  0  0
  -28.9708  -30.0127  -17.1386 C   0  0  0  0  0  0  0  0  0  0  0  0
  -27.9998  -30.1920  -16.1529 C   0  0  0  0  0  0  0  0  0  0  0  0
  -26.6876  -30.4952  -16.4969 C   0  0  0  0  0  0  0  0  0  0  0  0
  -26.3175  -30.6380  -17.8395 C   0  0  0  0  0  0  0  0  0  0  0  0
  -27.2823  -30.4834  -18.8644 C   0  0  0  0  0  0  0  0  0  0  0  0
  1  2  2  0
  2  3  1  0
  3  4  1  0
  4  5  2  0
  5  6  1  0
  6  7  2  0
  7  8  1  0
  8  9  2  0
  9 10  1  0
 10 11  2  0
 11 12  1  0
  2 13  1  0
 13 14  1  0
 14 15  1  0
 15 16  2  0
 16 17  1  0
 17 18  1  0
 18 19  2  0
 19 20  1  0
 20 21  2  0
 21 22  1  0
 22 23  2  0
 12  4  1  0
 23 15  1  0
 11  6  1  0
 23 18  1  0
M  END
>  <id>  (105) 
239420

>  <inchikey>  (105) 
ZAXPKNMZZARUDB-UHFFFAOYSA-N

>  <alias>  (105) 
None

>  <smiles>  (105) 
O=C(Cc1cc2ccccc2o1)NCc1nsc2ccccc12

>  <path>  (105) 
/opt/xchem-fragalysis-2/maxwin/RdRp_FFF/syndirella/mar_elabs/elabs_007/ZAXPKNMZZARUDB-UHFFFAOYSA-N/output/ZAXPKNMZZARUDB-UHFFFAOYSA-N-TSNBqG-scaffold-A/ZAXPKNMZZARUDB-UHFFFAOYSA-N-TSNBqG-scaffold-A.minimised.mol

>  <distance_score>  (105) 
0.915131

>  <energy_score>  (105) 
-21.216327

>  <compound>  (105) 
ZAXPKNMZZARUDB-UHFFFAOYSA-N

>  <compound_id>  (105) 
55535

>  <target>  (105) 
Flavi_NS5_RdRp

>  <tags>  (105) 
['best elaborated iter1 scaffold poses']

>  <inspirations>  (105) 
{P Ã— 2}

>  <subsites>  (105) 
[[1m[4m"Green Site/RNA tunnel"[22m[24m]

>  <reference>  (105) 
z0111a

>  <SLURM_JOB_ID>  (105) 
nan

>  <SLURM_JOB_NAME>  (105) 
nan

>  <csv_name>  (105) 
nan

>  <scratch_subdir>  (105) 
nan

>  <fragmenstein_runtime>  (105) 
nan

>  <fragmenstein_outcome>  (105) 
nan

>  <fragmenstein_mode>  (105) 
nan

>  <fragmenstein_error>  (105) 
nan

>  <exports>  (105) 
/opt/xchem-fragalysis-2/maxwin/RdRp_FFF/hippo/iter1_elaborated_scaffold_poses.sdf

>  <Multi-SuCOS>  (105) 
nan

>  <merge_set>  (105) 
nan

$$$$
AUZHEJXRXBMXJF-UHFFFAOYSA-N
     RDKit          3D

 24 27  0  0  0  0  0  0  0  0999 V2000
  -26.7203  -33.8305  -22.4319 O   0  0  0  0  0  0  0  0  0  0  0  0
  -25.9207  -33.6027  -21.6112 C   0  0  0  0  0  0  0  0  0  0  0  0
  -25.0174  -34.7084  -21.0770 C   0  0  0  0  0  0  0  0  0  0  0  0
  -23.5760  -34.4364  -21.2513 C   0  0  0  0  0  0  0  0  0  0  0  0
  -22.8362  -33.4710  -21.9010 C   0  0  0  0  0  0  0  0  0  0  0  0
  -21.5511  -33.5109  -21.3049 C   0  0  0  0  0  0  0  0  0  0  0  0
  -20.4183  -32.6894  -21.3272 C   0  0  0  0  0  0  0  0  0  0  0  0
  -19.3627  -33.0419  -20.4793 C   0  0  0  0  0  0  0  0  0  0  0  0
  -17.8872  -31.9093  -20.3091 Br  0  0  0  0  0  0  0  0  0  0  0  0
  -19.3744  -34.1926  -19.6906 C   0  0  0  0  0  0  0  0  0  0  0  0
  -20.4860  -35.0245  -19.6761 C   0  0  0  0  0  0  0  0  0  0  0  0
  -21.5511  -34.6209  -20.4706 C   0  0  0  0  0  0  0  0  0  0  0  0
  -22.7639  -35.2176  -20.4863 O   0  0  0  0  0  0  0  0  0  0  0  0
  -25.5512  -32.2656  -20.9084 N   0  0  0  0  0  0  0  0  0  0  0  0
  -26.0264  -30.9191  -21.1423 C   0  0  0  0  0  0  0  0  0  0  0  0
  -27.2385  -30.5828  -20.3253 C   0  0  0  0  0  0  0  0  0  0  0  0
  -28.3658  -30.2990  -20.9812 N   0  0  0  0  0  0  0  0  0  0  0  0
  -29.5760  -30.0129  -19.9051 S   0  0  0  0  0  0  0  0  0  0  0  0
  -28.6112  -30.1516  -18.4903 C   0  0  0  0  0  0  0  0  0  0  0  0
  -28.9841  -30.0095  -17.1430 C   0  0  0  0  0  0  0  0  0  0  0  0
  -28.0048  -30.1845  -16.1646 C   0  0  0  0  0  0  0  0  0  0  0  0
  -26.6929  -30.4774  -16.5186 C   0  0  0  0  0  0  0  0  0  0  0  0
  -26.3313  -30.6141  -17.8642 C   0  0  0  0  0  0  0  0  0  0  0  0
  -27.3046  -30.4630  -18.8817 C   0  0  0  0  0  0  0  0  0  0  0  0
  1  2  2  0
  2  3  1  0
  3  4  1  0
  4  5  2  0
  5  6  1  0
  6  7  2  0
  7  8  1  0
  8  9  1  0
  8 10  2  0
 10 11  1  0
 11 12  2  0
 12 13  1  0
  2 14  1  0
 14 15  1  0
 15 16  1  0
 16 17  2  0
 17 18  1  0
 18 19  1  0
 19 20  2  0
 20 21  1  0
 21 22  2  0
 22 23  1  0
 23 24  2  0
 13  4  1  0
 24 16  1  0
 12  6  1  0
 24 19  1  0
M  END
>  <id>  (106) 
239430

>  <inchikey>  (106) 
AUZHEJXRXBMXJF-UHFFFAOYSA-N

>  <alias>  (106) 
None

>  <smiles>  (106) 
O=C(Cc1cc2cc(Br)ccc2o1)NCc1nsc2ccccc12

>  <path>  (106) 
/opt/xchem-fragalysis-2/maxwin/RdRp_FFF/syndirella/mar_elabs/elabs_007/ZAXPKNMZZARUDB-UHFFFAOYSA-N/output/ZAXPKNMZZARUDB-UHFFFAOYSA-N-TSNBqG-21-A/ZAXPKNMZZARUDB-UHFFFAOYSA-N-TSNBqG-21-A.minimised.mol

>  <distance_score>  (106) 
1.041553

>  <energy_score>  (106) 
-20.160681

>  <compound>  (106) 
AUZHEJXRXBMXJF-UHFFFAOYSA-N

>  <compound_id>  (106) 
84213

>  <target>  (106) 
Flavi_NS5_RdRp

>  <tags>  (106) 
[]

>  <inspirations>  (106) 
{P Ã— 2}

>  <subsites>  (106) 
None

>  <reference>  (106) 
z0111a

>  <SLURM_JOB_ID>  (106) 
nan

>  <SLURM_JOB_NAME>  (106) 
nan

>  <csv_name>  (106) 
nan

>  <scratch_subdir>  (106) 
nan

>  <fragmenstein_runtime>  (106) 
nan

>  <fragmenstein_outcome>  (106) 
nan

>  <fragmenstein_mode>  (106) 
nan

>  <fragmenstein_error>  (106) 
nan

>  <exports>  (106) 
nan

>  <Multi-SuCOS>  (106) 
nan

>  <merge_set>  (106) 
nan

$$$$
MZDLDDGYHQTHCX-UHFFFAOYSA-N
     RDKit          3D

 24 27  0  0  0  0  0  0  0  0999 V2000
  -26.7643  -33.8795  -22.3825 O   0  0  0  0  0  0  0  0  0  0  0  0
  -25.9413  -33.6493  -21.5851 C   0  0  0  0  0  0  0  0  0  0  0  0
  -25.0107  -34.7530  -21.0810 C   0  0  0  0  0  0  0  0  0  0  0  0
  -23.5775  -34.4509  -21.2810 C   0  0  0  0  0  0  0  0  0  0  0  0
  -22.8786  -33.4978  -21.9908 C   0  0  0  0  0  0  0  0  0  0  0  0
  -21.5921  -33.4538  -21.4007 C   0  0  0  0  0  0  0  0  0  0  0  0
  -20.4990  -32.5842  -21.4716 C   0  0  0  0  0  0  0  0  0  0  0  0
  -19.4251  -32.8406  -20.6140 C   0  0  0  0  0  0  0  0  0  0  0  0
  -18.1404  -31.7271  -20.5319 Cl  0  0  0  0  0  0  0  0  0  0  0  0
  -19.3779  -33.9529  -19.7726 C   0  0  0  0  0  0  0  0  0  0  0  0
  -20.4502  -34.8363  -19.7094 C   0  0  0  0  0  0  0  0  0  0  0  0
  -21.5400  -34.5192  -20.5114 C   0  0  0  0  0  0  0  0  0  0  0  0
  -22.7312  -35.1607  -20.4823 O   0  0  0  0  0  0  0  0  0  0  0  0
  -25.5475  -32.3078  -20.9013 N   0  0  0  0  0  0  0  0  0  0  0  0
  -26.0241  -30.9607  -21.1314 C   0  0  0  0  0  0  0  0  0  0  0  0
  -27.2339  -30.6158  -20.3146 C   0  0  0  0  0  0  0  0  0  0  0  0
  -28.3580  -30.3213  -20.9713 N   0  0  0  0  0  0  0  0  0  0  0  0
  -29.5650  -30.0160  -19.8973 S   0  0  0  0  0  0  0  0  0  0  0  0
  -28.6023  -30.1605  -18.4818 C   0  0  0  0  0  0  0  0  0  0  0  0
  -28.9738  -30.0076  -17.1354 C   0  0  0  0  0  0  0  0  0  0  0  0
  -27.9967  -30.1887  -16.1561 C   0  0  0  0  0  0  0  0  0  0  0  0
  -26.6881  -30.4981  -16.5084 C   0  0  0  0  0  0  0  0  0  0  0  0
  -26.3279  -30.6459  -17.8532 C   0  0  0  0  0  0  0  0  0  0  0  0
  -27.2992  -30.4891  -18.8716 C   0  0  0  0  0  0  0  0  0  0  0  0
  1  2  2  0
  2  3  1  0
  3  4  1  0
  4  5  2  0
  5  6  1  0
  6  7  2  0
  7  8  1  0
  8  9  1  0
  8 10  2  0
 10 11  1  0
 11 12  2  0
 12 13  1  0
  2 14  1  0
 14 15  1  0
 15 16  1  0
 16 17  2  0
 17 18  1  0
 18 19  1  0
 19 20  2  0
 20 21  1  0
 21 22  2  0
 22 23  1  0
 23 24  2  0
 13  4  1  0
 24 16  1  0
 12  6  1  0
 24 19  1  0
M  END
>  <id>  (107) 
239435

>  <inchikey>  (107) 
MZDLDDGYHQTHCX-UHFFFAOYSA-N

>  <alias>  (107) 
None

>  <smiles>  (107) 
O=C(Cc1cc2cc(Cl)ccc2o1)NCc1nsc2ccccc12

>  <path>  (107) 
/opt/xchem-fragalysis-2/maxwin/RdRp_FFF/syndirella/mar_elabs/elabs_007/ZAXPKNMZZARUDB-UHFFFAOYSA-N/output/ZAXPKNMZZARUDB-UHFFFAOYSA-N-TSNBqG-26-A/ZAXPKNMZZARUDB-UHFFFAOYSA-N-TSNBqG-26-A.minimised.mol

>  <distance_score>  (107) 
0.928185

>  <energy_score>  (107) 
-5.971732

>  <compound>  (107) 
MZDLDDGYHQTHCX-UHFFFAOYSA-N

>  <compound_id>  (107) 
84218

>  <target>  (107) 
Flavi_NS5_RdRp

>  <tags>  (107) 
[]

>  <inspirations>  (107) 
{P Ã— 2}

>  <subsites>  (107) 
None

>  <reference>  (107) 
z0111a

>  <SLURM_JOB_ID>  (107) 
nan

>  <SLURM_JOB_NAME>  (107) 
nan

>  <csv_name>  (107) 
nan

>  <scratch_subdir>  (107) 
nan

>  <fragmenstein_runtime>  (107) 
nan

>  <fragmenstein_outcome>  (107) 
nan

>  <fragmenstein_mode>  (107) 
nan

>  <fragmenstein_error>  (107) 
nan

>  <exports>  (107) 
nan

>  <Multi-SuCOS>  (107) 
nan

>  <merge_set>  (107) 
nan

$$$$
VYEKRKGAZPKHQL-UHFFFAOYSA-N
     RDKit          3D

 24 27  0  0  0  0  0  0  0  0999 V2000
  -26.7074  -33.9595  -22.3004 O   0  0  0  0  0  0  0  0  0  0  0  0
  -25.8915  -33.7028  -21.5023 C   0  0  0  0  0  0  0  0  0  0  0  0
  -24.8943  -34.7700  -21.0155 C   0  0  0  0  0  0  0  0  0  0  0  0
  -23.4902  -34.3870  -21.3063 C   0  0  0  0  0  0  0  0  0  0  0  0
  -22.9180  -33.4680  -22.1613 C   0  0  0  0  0  0  0  0  0  0  0  0
  -21.6260  -33.2165  -21.6425 C   0  0  0  0  0  0  0  0  0  0  0  0
  -20.6443  -32.2447  -21.8680 C   0  0  0  0  0  0  0  0  0  0  0  0
  -19.5143  -32.2717  -21.0522 C   0  0  0  0  0  0  0  0  0  0  0  0
  -18.6136  -31.2920  -21.1806 F   0  0  0  0  0  0  0  0  0  0  0  0
  -19.3006  -33.2644  -20.0974 C   0  0  0  0  0  0  0  0  0  0  0  0
  -20.2615  -34.2533  -19.8748 C   0  0  0  0  0  0  0  0  0  0  0  0
  -21.4215  -34.1585  -20.6407 C   0  0  0  0  0  0  0  0  0  0  0  0
  -22.5433  -34.9085  -20.4708 O   0  0  0  0  0  0  0  0  0  0  0  0
  -25.5228  -32.3418  -20.8370 N   0  0  0  0  0  0  0  0  0  0  0  0
  -26.0209  -31.0061  -21.0911 C   0  0  0  0  0  0  0  0  0  0  0  0
  -27.2340  -30.6537  -20.2840 C   0  0  0  0  0  0  0  0  0  0  0  0
  -28.3511  -30.3520  -20.9498 N   0  0  0  0  0  0  0  0  0  0  0  0
  -29.5606  -30.0236  -19.8854 S   0  0  0  0  0  0  0  0  0  0  0  0
  -28.6078  -30.1688  -18.4633 C   0  0  0  0  0  0  0  0  0  0  0  0
  -28.9849  -30.0011  -17.1203 C   0  0  0  0  0  0  0  0  0  0  0  0
  -28.0150  -30.1848  -16.1342 C   0  0  0  0  0  0  0  0  0  0  0  0
  -26.7080  -30.5117  -16.4768 C   0  0  0  0  0  0  0  0  0  0  0  0
  -26.3426  -30.6749  -17.8182 C   0  0  0  0  0  0  0  0  0  0  0  0
  -27.3065  -30.5155  -18.8429 C   0  0  0  0  0  0  0  0  0  0  0  0
  1  2  2  0
  2  3  1  0
  3  4  1  0
  4  5  2  0
  5  6  1  0
  6  7  2  0
  7  8  1  0
  8  9  1  0
  8 10  2  0
 10 11  1  0
 11 12  2  0
 12 13  1  0
  2 14  1  0
 14 15  1  0
 15 16  1  0
 16 17  2  0
 17 18  1  0
 18 19  1  0
 19 20  2  0
 20 21  1  0
 21 22  2  0
 22 23  1  0
 23 24  2  0
 13  4  1  0
 24 16  1  0
 12  6  1  0
 24 19  1  0
M  END
>  <id>  (108) 
239442

>  <inchikey>  (108) 
VYEKRKGAZPKHQL-UHFFFAOYSA-N

>  <alias>  (108) 
None

>  <smiles>  (108) 
O=C(Cc1cc2cc(F)ccc2o1)NCc1nsc2ccccc12

>  <path>  (108) 
/opt/xchem-fragalysis-2/maxwin/RdRp_FFF/syndirella/mar_elabs/elabs_007/ZAXPKNMZZARUDB-UHFFFAOYSA-N/output/ZAXPKNMZZARUDB-UHFFFAOYSA-N-TSNBqG-33-A/ZAXPKNMZZARUDB-UHFFFAOYSA-N-TSNBqG-33-A.minimised.mol

>  <distance_score>  (108) 
0.86164

>  <energy_score>  (108) 
-25.157173

>  <compound>  (108) 
VYEKRKGAZPKHQL-UHFFFAOYSA-N

>  <compound_id>  (108) 
84225

>  <target>  (108) 
Flavi_NS5_RdRp

>  <tags>  (108) 
[]

>  <inspirations>  (108) 
{P Ã— 2}

>  <subsites>  (108) 
None

>  <reference>  (108) 
z0111a

>  <SLURM_JOB_ID>  (108) 
nan

>  <SLURM_JOB_NAME>  (108) 
nan

>  <csv_name>  (108) 
nan

>  <scratch_subdir>  (108) 
nan

>  <fragmenstein_runtime>  (108) 
nan

>  <fragmenstein_outcome>  (108) 
nan

>  <fragmenstein_mode>  (108) 
nan

>  <fragmenstein_error>  (108) 
nan

>  <exports>  (108) 
nan

>  <Multi-SuCOS>  (108) 
nan

>  <merge_set>  (108) 
nan

$$$$
HVJDGLOXMZTLGR-UHFFFAOYSA-N
     RDKit          3D

 24 27  0  0  0  0  0  0  0  0999 V2000
  -23.3942  -32.8478  -23.2927 C   0  0  0  0  0  0  0  0  0  0  0  0
  -22.8264  -33.5452  -22.1108 C   0  0  0  0  0  0  0  0  0  0  0  0
  -23.4815  -34.3898  -21.2291 C   0  0  0  0  0  0  0  0  0  0  0  0
  -24.9020  -34.7465  -20.9818 C   0  0  0  0  0  0  0  0  0  0  0  0
  -25.8870  -33.6666  -21.4558 C   0  0  0  0  0  0  0  0  0  0  0  0
  -26.7179  -33.9144  -22.2407 O   0  0  0  0  0  0  0  0  0  0  0  0
  -25.4962  -32.3122  -20.7941 N   0  0  0  0  0  0  0  0  0  0  0  0
  -25.9867  -30.9725  -21.0364 C   0  0  0  0  0  0  0  0  0  0  0  0
  -27.2167  -30.6338  -20.2513 C   0  0  0  0  0  0  0  0  0  0  0  0
  -28.3251  -30.3383  -20.9344 N   0  0  0  0  0  0  0  0  0  0  0  0
  -29.5531  -30.0220  -19.8866 S   0  0  0  0  0  0  0  0  0  0  0  0
  -28.6204  -30.1648  -18.4505 C   0  0  0  0  0  0  0  0  0  0  0  0
  -29.0170  -30.0027  -17.1125 C   0  0  0  0  0  0  0  0  0  0  0  0
  -28.0601  -30.1844  -16.1132 C   0  0  0  0  0  0  0  0  0  0  0  0
  -26.7472  -30.5058  -16.4378 C   0  0  0  0  0  0  0  0  0  0  0  0
  -26.3621  -30.6632  -17.7741 C   0  0  0  0  0  0  0  0  0  0  0  0
  -27.3121  -30.5035  -18.8116 C   0  0  0  0  0  0  0  0  0  0  0  0
  -22.5996  -34.9137  -20.3293 O   0  0  0  0  0  0  0  0  0  0  0  0
  -21.4245  -34.2597  -20.4983 C   0  0  0  0  0  0  0  0  0  0  0  0
  -20.2981  -34.4176  -19.6961 C   0  0  0  0  0  0  0  0  0  0  0  0
  -19.2353  -33.5502  -19.9473 C   0  0  0  0  0  0  0  0  0  0  0  0
  -19.3139  -32.5973  -20.9638 C   0  0  0  0  0  0  0  0  0  0  0  0
  -20.4368  -32.5078  -21.8001 C   0  0  0  0  0  0  0  0  0  0  0  0
  -21.5242  -33.3626  -21.5524 C   0  0  0  0  0  0  0  0  0  0  0  0
  1  2  1  0
  2  3  2  0
  3  4  1  0
  4  5  1  0
  5  6  2  0
  5  7  1  0
  7  8  1  0
  8  9  1  0
  9 10  2  0
 10 11  1  0
 11 12  1  0
 12 13  2  0
 13 14  1  0
 14 15  2  0
 15 16  1  0
 16 17  2  0
  3 18  1  0
 18 19  1  0
 19 20  2  0
 20 21  1  0
 21 22  2  0
 22 23  1  0
 23 24  2  0
 24  2  1  0
 17  9  1  0
 24 19  1  0
 17 12  1  0
M  END
>  <id>  (109) 
239452

>  <inchikey>  (109) 
HVJDGLOXMZTLGR-UHFFFAOYSA-N

>  <alias>  (109) 
None

>  <smiles>  (109) 
Cc1c(CC(=O)NCc2nsc3ccccc23)oc2ccccc12

>  <path>  (109) 
/opt/xchem-fragalysis-2/maxwin/RdRp_FFF/syndirella/mar_elabs/elabs_007/ZAXPKNMZZARUDB-UHFFFAOYSA-N/output/ZAXPKNMZZARUDB-UHFFFAOYSA-N-TSNBqG-42-A/ZAXPKNMZZARUDB-UHFFFAOYSA-N-TSNBqG-42-A.minimised.mol

>  <distance_score>  (109) 
0.900349

>  <energy_score>  (109) 
-29.877364

>  <compound>  (109) 
HVJDGLOXMZTLGR-UHFFFAOYSA-N

>  <compound_id>  (109) 
84234

>  <target>  (109) 
Flavi_NS5_RdRp

>  <tags>  (109) 
[]

>  <inspirations>  (109) 
{P Ã— 2}

>  <subsites>  (109) 
None

>  <reference>  (109) 
z0111a

>  <SLURM_JOB_ID>  (109) 
nan

>  <SLURM_JOB_NAME>  (109) 
nan

>  <csv_name>  (109) 
nan

>  <scratch_subdir>  (109) 
nan

>  <fragmenstein_runtime>  (109) 
nan

>  <fragmenstein_outcome>  (109) 
nan

>  <fragmenstein_mode>  (109) 
nan

>  <fragmenstein_error>  (109) 
nan

>  <exports>  (109) 
nan

>  <Multi-SuCOS>  (109) 
nan

>  <merge_set>  (109) 
nan

$$$$
NCNVEUAYLHQAOW-UHFFFAOYSA-N
     RDKit          3D

 25 28  0  0  0  0  0  0  0  0999 V2000
  -26.7241  -33.8548  -22.4508 O   0  0  0  0  0  0  0  0  0  0  0  0
  -25.9261  -33.6110  -21.6329 C   0  0  0  0  0  0  0  0  0  0  0  0
  -25.0196  -34.7069  -21.0843 C   0  0  0  0  0  0  0  0  0  0  0  0
  -23.5777  -34.4397  -21.2611 C   0  0  0  0  0  0  0  0  0  0  0  0
  -22.8326  -33.4869  -21.9237 C   0  0  0  0  0  0  0  0  0  0  0  0
  -21.5508  -33.5189  -21.3187 C   0  0  0  0  0  0  0  0  0  0  0  0
  -20.4168  -32.6990  -21.3445 C   0  0  0  0  0  0  0  0  0  0  0  0
  -19.3671  -33.0417  -20.4849 C   0  0  0  0  0  0  0  0  0  0  0  0
  -17.8929  -31.9072  -20.3158 Br  0  0  0  0  0  0  0  0  0  0  0  0
  -19.3840  -34.1830  -19.6829 C   0  0  0  0  0  0  0  0  0  0  0  0
  -20.4961  -35.0139  -19.6656 C   0  0  0  0  0  0  0  0  0  0  0  0
  -21.5564  -34.6178  -20.4699 C   0  0  0  0  0  0  0  0  0  0  0  0
  -22.7705  -35.2107  -20.4813 O   0  0  0  0  0  0  0  0  0  0  0  0
  -25.5651  -32.2620  -20.9479 N   0  0  0  0  0  0  0  0  0  0  0  0
  -26.0489  -30.9210  -21.2001 C   0  0  0  0  0  0  0  0  0  0  0  0
  -27.2438  -30.5790  -20.3589 C   0  0  0  0  0  0  0  0  0  0  0  0
  -28.3890  -30.3039  -20.9857 N   0  0  0  0  0  0  0  0  0  0  0  0
  -29.5744  -30.0241  -19.8802 S   0  0  0  0  0  0  0  0  0  0  0  0
  -28.5724  -30.1515  -18.4896 C   0  0  0  0  0  0  0  0  0  0  0  0
  -28.9094  -30.0108  -17.1322 C   0  0  0  0  0  0  0  0  0  0  0  0
  -27.8974  -30.1648  -16.1814 C   0  0  0  0  0  0  0  0  0  0  0  0
  -26.5935  -30.4353  -16.5790 C   0  0  0  0  0  0  0  0  0  0  0  0
  -25.3494  -30.5902  -15.3997 Cl  0  0  0  0  0  0  0  0  0  0  0  0
  -26.2669  -30.5811  -17.9301 C   0  0  0  0  0  0  0  0  0  0  0  0
  -27.2733  -30.4494  -18.9161 C   0  0  0  0  0  0  0  0  0  0  0  0
  1  2  2  0
  2  3  1  0
  3  4  1  0
  4  5  2  0
  5  6  1  0
  6  7  2  0
  7  8  1  0
  8  9  1  0
  8 10  2  0
 10 11  1  0
 11 12  2  0
 12 13  1  0
  2 14  1  0
 14 15  1  0
 15 16  1  0
 16 17  2  0
 17 18  1  0
 18 19  1  0
 19 20  2  0
 20 21  1  0
 21 22  2  0
 22 23  1  0
 22 24  1  0
 24 25  2  0
 13  4  1  0
 25 16  1  0
 12  6  1  0
 25 19  1  0
M  END
>  <id>  (110) 
239791

>  <inchikey>  (110) 
NCNVEUAYLHQAOW-UHFFFAOYSA-N

>  <alias>  (110) 
None

>  <smiles>  (110) 
O=C(Cc1cc2cc(Br)ccc2o1)NCc1nsc2ccc(Cl)cc12

>  <path>  (110) 
/opt/xchem-fragalysis-2/maxwin/RdRp_FFF/syndirella/mar_elabs/elabs_007/ZAXPKNMZZARUDB-UHFFFAOYSA-N/output/ZAXPKNMZZARUDB-UHFFFAOYSA-N-TSNBqG-481-A/ZAXPKNMZZARUDB-UHFFFAOYSA-N-TSNBqG-481-A.minimised.mol

>  <distance_score>  (110) 
1.040865

>  <energy_score>  (110) 
-2.242498

>  <compound>  (110) 
NCNVEUAYLHQAOW-UHFFFAOYSA-N

>  <compound_id>  (110) 
84523

>  <target>  (110) 
Flavi_NS5_RdRp

>  <tags>  (110) 
[]

>  <inspirations>  (110) 
{P Ã— 2}

>  <subsites>  (110) 
None

>  <reference>  (110) 
z0111a

>  <SLURM_JOB_ID>  (110) 
nan

>  <SLURM_JOB_NAME>  (110) 
nan

>  <csv_name>  (110) 
nan

>  <scratch_subdir>  (110) 
nan

>  <fragmenstein_runtime>  (110) 
nan

>  <fragmenstein_outcome>  (110) 
nan

>  <fragmenstein_mode>  (110) 
nan

>  <fragmenstein_error>  (110) 
nan

>  <exports>  (110) 
nan

>  <Multi-SuCOS>  (110) 
nan

>  <merge_set>  (110) 
nan

$$$$
IDOUGRYHXJYBGE-UHFFFAOYSA-N
     RDKit          3D

 25 28  0  0  0  0  0  0  0  0999 V2000
  -26.7671  -33.9794  -22.2784 O   0  0  0  0  0  0  0  0  0  0  0  0
  -25.9141  -33.6971  -21.5292 C   0  0  0  0  0  0  0  0  0  0  0  0
  -24.9057  -34.7538  -21.0419 C   0  0  0  0  0  0  0  0  0  0  0  0
  -23.5014  -34.3654  -21.3214 C   0  0  0  0  0  0  0  0  0  0  0  0
  -22.9228  -33.4447  -22.1700 C   0  0  0  0  0  0  0  0  0  0  0  0
  -21.6307  -33.2019  -21.6478 C   0  0  0  0  0  0  0  0  0  0  0  0
  -20.6435  -32.2345  -21.8681 C   0  0  0  0  0  0  0  0  0  0  0  0
  -19.5146  -32.2707  -21.0508 C   0  0  0  0  0  0  0  0  0  0  0  0
  -18.6083  -31.2957  -21.1750 F   0  0  0  0  0  0  0  0  0  0  0  0
  -19.3079  -33.2679  -20.0994 C   0  0  0  0  0  0  0  0  0  0  0  0
  -20.2747  -34.2524  -19.8819 C   0  0  0  0  0  0  0  0  0  0  0  0
  -21.4328  -34.1489  -20.6495 C   0  0  0  0  0  0  0  0  0  0  0  0
  -22.5585  -34.8948  -20.4856 O   0  0  0  0  0  0  0  0  0  0  0  0
  -25.5240  -32.3180  -20.9169 N   0  0  0  0  0  0  0  0  0  0  0  0
  -26.0458  -30.9925  -21.1775 C   0  0  0  0  0  0  0  0  0  0  0  0
  -27.2355  -30.6426  -20.3328 C   0  0  0  0  0  0  0  0  0  0  0  0
  -28.3791  -30.3602  -20.9600 N   0  0  0  0  0  0  0  0  0  0  0  0
  -29.5574  -30.0434  -19.8577 S   0  0  0  0  0  0  0  0  0  0  0  0
  -28.5552  -30.1718  -18.4675 C   0  0  0  0  0  0  0  0  0  0  0  0
  -28.8888  -30.0106  -17.1118 C   0  0  0  0  0  0  0  0  0  0  0  0
  -27.8772  -30.1644  -16.1610 C   0  0  0  0  0  0  0  0  0  0  0  0
  -26.5766  -30.4528  -16.5571 C   0  0  0  0  0  0  0  0  0  0  0  0
  -25.3321  -30.6051  -15.3780 Cl  0  0  0  0  0  0  0  0  0  0  0  0
  -26.2537  -30.6201  -17.9066 C   0  0  0  0  0  0  0  0  0  0  0  0
  -27.2607  -30.4927  -18.8923 C   0  0  0  0  0  0  0  0  0  0  0  0
  1  2  2  0
  2  3  1  0
  3  4  1  0
  4  5  2  0
  5  6  1  0
  6  7  2  0
  7  8  1  0
  8  9  1  0
  8 10  2  0
 10 11  1  0
 11 12  2  0
 12 13  1  0
  2 14  1  0
 14 15  1  0
 15 16  1  0
 16 17  2  0
 17 18  1  0
 18 19  1  0
 19 20  2  0
 20 21  1  0
 21 22  2  0
 22 23  1  0
 22 24  1  0
 24 25  2  0
 13  4  1  0
 25 16  1  0
 12  6  1  0
 25 19  1  0
M  END
>  <id>  (111) 
240112

>  <inchikey>  (111) 
IDOUGRYHXJYBGE-UHFFFAOYSA-N

>  <alias>  (111) 
None

>  <smiles>  (111) 
O=C(Cc1cc2cc(F)ccc2o1)NCc1nsc2ccc(Cl)cc12

>  <path>  (111) 
/opt/xchem-fragalysis-2/maxwin/RdRp_FFF/syndirella/mar_elabs/elabs_007/ZAXPKNMZZARUDB-UHFFFAOYSA-N/output/ZAXPKNMZZARUDB-UHFFFAOYSA-N-TSNBqG-915-A/ZAXPKNMZZARUDB-UHFFFAOYSA-N-TSNBqG-915-A.minimised.mol

>  <distance_score>  (111) 
0.939321

>  <energy_score>  (111) 
-6.633553

>  <compound>  (111) 
IDOUGRYHXJYBGE-UHFFFAOYSA-N

>  <compound_id>  (111) 
84820

>  <target>  (111) 
Flavi_NS5_RdRp

>  <tags>  (111) 
[]

>  <inspirations>  (111) 
{P Ã— 2}

>  <subsites>  (111) 
None

>  <reference>  (111) 
z0111a

>  <SLURM_JOB_ID>  (111) 
nan

>  <SLURM_JOB_NAME>  (111) 
nan

>  <csv_name>  (111) 
nan

>  <scratch_subdir>  (111) 
nan

>  <fragmenstein_runtime>  (111) 
nan

>  <fragmenstein_outcome>  (111) 
nan

>  <fragmenstein_mode>  (111) 
nan

>  <fragmenstein_error>  (111) 
nan

>  <exports>  (111) 
nan

>  <Multi-SuCOS>  (111) 
nan

>  <merge_set>  (111) 
nan

$$$$
AKOSBGYDBFXCLP-UHFFFAOYSA-N
     RDKit          3D

 23 25  0  0  0  0  0  0  0  0999 V2000
  -29.0178  -32.3250  -13.4210 C   0  0  0  0  0  0  0  0  0  0  0  0
  -28.7926  -31.9187  -14.8679 C   0  0  0  0  0  0  0  0  0  0  0  0
  -29.6011  -30.6758  -15.2319 C   0  0  0  0  0  0  0  0  0  0  0  0
  -29.4083  -30.2856  -16.6142 N   0  0  0  0  0  0  0  0  0  0  0  0
  -28.2693  -29.7435  -17.1319 C   0  0  0  0  0  0  0  0  0  0  0  0
  -28.4177  -29.8456  -18.4891 C   0  0  0  0  0  0  0  0  0  0  0  0
  -27.3673  -29.8121  -19.3406 N   0  0  0  0  0  0  0  0  0  0  0  0
  -27.3128  -29.9922  -20.8737 C   0  0  0  0  0  0  0  0  0  0  0  0
  -28.1708  -30.1198  -21.6485 O   0  0  0  0  0  0  0  0  0  0  0  0
  -25.8449  -30.0882  -21.2421 C   0  0  0  0  0  0  0  0  0  0  0  0
  -25.2933  -31.5113  -20.8889 C   0  0  0  0  0  0  0  0  0  0  0  0
  -25.1572  -31.6920  -19.3761 C   0  0  0  0  0  0  0  0  0  0  0  0
  -24.7255  -32.9754  -18.7176 C   0  0  0  0  0  0  0  0  0  0  0  0
  -25.6349  -33.7838  -18.0627 C   0  0  0  0  0  0  0  0  0  0  0  0
  -24.9103  -34.9096  -17.0145 S   0  0  0  0  0  0  0  0  0  0  0  0
  -23.3352  -34.3965  -17.4564 C   0  0  0  0  0  0  0  0  0  0  0  0
  -22.1145  -34.8868  -16.9599 C   0  0  0  0  0  0  0  0  0  0  0  0
  -20.9132  -34.3810  -17.4640 C   0  0  0  0  0  0  0  0  0  0  0  0
  -20.9238  -33.4517  -18.4827 C   0  0  0  0  0  0  0  0  0  0  0  0
  -22.1410  -32.9978  -18.9879 C   0  0  0  0  0  0  0  0  0  0  0  0
  -23.3776  -33.4161  -18.4506 C   0  0  0  0  0  0  0  0  0  0  0  0
  -29.7266  -30.3109  -18.7005 C   0  0  0  0  0  0  0  0  0  0  0  0
  -30.3407  -30.5722  -17.5402 N   0  0  0  0  0  0  0  0  0  0  0  0
  1  2  1  0
  2  3  1  0
  3  4  1  0
  4  5  1  0
  5  6  2  0
  6  7  1  0
  7  8  1  0
  8  9  2  0
  8 10  1  0
 10 11  1  0
 11 12  1  0
 12 13  1  0
 13 14  2  0
 14 15  1  0
 15 16  1  0
 16 17  2  0
 17 18  1  0
 18 19  2  0
 19 20  1  0
 20 21  2  0
  6 22  1  0
 22 23  2  0
 23  4  1  0
 21 13  1  0
 21 16  1  0
M  END
>  <id>  (112) 
246298

>  <inchikey>  (112) 
AKOSBGYDBFXCLP-UHFFFAOYSA-N

>  <alias>  (112) 
None

>  <smiles>  (112) 
CCCn1cc(NC(=O)CCCc2csc3ccccc23)cn1

>  <path>  (112) 
/opt/xchem-fragalysis-2/maxwin/RdRp_FFF/syndirella/mar_elabs/elabs_014/SEXBZMJMGRUWGS-UHFFFAOYSA-N/output/SEXBZMJMGRUWGS-UHFFFAOYSA-N-c7BoH5-125-A/SEXBZMJMGRUWGS-UHFFFAOYSA-N-c7BoH5-125-A.minimised.mol

>  <distance_score>  (112) 
1.981667

>  <energy_score>  (112) 
-8.118992

>  <compound>  (112) 
AKOSBGYDBFXCLP-UHFFFAOYSA-N

>  <compound_id>  (112) 
89714

>  <target>  (112) 
Flavi_NS5_RdRp

>  <tags>  (112) 
[]

>  <inspirations>  (112) 
{P Ã— 2}

>  <subsites>  (112) 
None

>  <reference>  (112) 
z0653a

>  <SLURM_JOB_ID>  (112) 
nan

>  <SLURM_JOB_NAME>  (112) 
nan

>  <csv_name>  (112) 
nan

>  <scratch_subdir>  (112) 
nan

>  <fragmenstein_runtime>  (112) 
nan

>  <fragmenstein_outcome>  (112) 
nan

>  <fragmenstein_mode>  (112) 
nan

>  <fragmenstein_error>  (112) 
nan

>  <exports>  (112) 
nan

>  <Multi-SuCOS>  (112) 
nan

>  <merge_set>  (112) 
nan

$$$$
DLPJJPQHXJGCQE-UHFFFAOYSA-N
     RDKit          3D

 24 27  0  0  0  0  0  0  0  0999 V2000
  -28.2558  -29.8824  -21.6899 O   0  0  0  0  0  0  0  0  0  0  0  0
  -27.2948  -29.9686  -21.0360 C   0  0  0  0  0  0  0  0  0  0  0  0
  -25.9270  -30.1384  -21.6797 C   0  0  0  0  0  0  0  0  0  0  0  0
  -24.9808  -31.1759  -21.0836 C   0  0  0  0  0  0  0  0  0  0  0  0
  -25.6634  -32.3934  -20.5168 C   0  0  0  0  0  0  0  0  0  0  0  0
  -26.5734  -32.9358  -21.1412 O   0  0  0  0  0  0  0  0  0  0  0  0
  -25.2561  -32.9075  -19.1987 C   0  0  0  0  0  0  0  0  0  0  0  0
  -26.2158  -33.2622  -18.2739 C   0  0  0  0  0  0  0  0  0  0  0  0
  -25.5749  -33.9324  -16.8509 S   0  0  0  0  0  0  0  0  0  0  0  0
  -23.9733  -33.8417  -17.4589 C   0  0  0  0  0  0  0  0  0  0  0  0
  -22.8164  -34.3702  -16.8647 C   0  0  0  0  0  0  0  0  0  0  0  0
  -21.5733  -34.1667  -17.4718 C   0  0  0  0  0  0  0  0  0  0  0  0
  -21.4853  -33.4864  -18.6672 C   0  0  0  0  0  0  0  0  0  0  0  0
  -22.6501  -33.0456  -19.2969 C   0  0  0  0  0  0  0  0  0  0  0  0
  -23.9267  -33.2001  -18.7007 C   0  0  0  0  0  0  0  0  0  0  0  0
  -27.1313  -30.0442  -19.4996 N   0  0  0  0  0  0  0  0  0  0  0  0
  -28.0643  -30.1205  -18.5170 C   0  0  0  0  0  0  0  0  0  0  0  0
  -29.4509  -30.3443  -18.6359 C   0  0  0  0  0  0  0  0  0  0  0  0
  -30.0335  -30.4923  -17.4416 N   0  0  0  0  0  0  0  0  0  0  0  0
  -29.0118  -30.3688  -16.5838 N   0  0  0  0  0  0  0  0  0  0  0  0
  -29.1687  -30.5124  -15.1236 C   0  0  0  0  0  0  0  0  0  0  0  0
  -28.8265  -31.8046  -14.4199 C   0  0  0  0  0  0  0  0  0  0  0  0
  -30.2544  -31.3518  -14.4961 C   0  0  0  0  0  0  0  0  0  0  0  0
  -27.8080  -30.1219  -17.1730 C   0  0  0  0  0  0  0  0  0  0  0  0
  1  2  2  0
  2  3  1  0
  3  4  1  0
  4  5  1  0
  5  6  2  0
  5  7  1  0
  7  8  2  0
  8  9  1  0
  9 10  1  0
 10 11  2  0
 11 12  1  0
 12 13  2  0
 13 14  1  0
 14 15  2  0
  2 16  1  0
 16 17  1  0
 17 18  1  0
 18 19  2  0
 19 20  1  0
 20 21  1  0
 21 22  1  0
 22 23  1  0
 20 24  1  0
 15  7  1  0
 24 17  2  0
 15 10  1  0
 23 21  1  0
M  END
>  <id>  (113) 
246727

>  <inchikey>  (113) 
DLPJJPQHXJGCQE-UHFFFAOYSA-N

>  <alias>  (113) 
None

>  <smiles>  (113) 
O=C(CCC(=O)c1csc2ccccc12)Nc1cnn(C2CC2)c1

>  <path>  (113) 
/opt/xchem-fragalysis-2/maxwin/RdRp_FFF/syndirella/mar_elabs/elabs_014/SEXBZMJMGRUWGS-UHFFFAOYSA-N/output/SEXBZMJMGRUWGS-UHFFFAOYSA-N-c7BoH5-1563-A/SEXBZMJMGRUWGS-UHFFFAOYSA-N-c7BoH5-1563-A.minimised.mol

>  <distance_score>  (113) 
1.920426

>  <energy_score>  (113) 
-23.270901

>  <compound>  (113) 
DLPJJPQHXJGCQE-UHFFFAOYSA-N

>  <compound_id>  (113) 
90728

>  <target>  (113) 
Flavi_NS5_RdRp

>  <tags>  (113) 
[]

>  <inspirations>  (113) 
{P Ã— 2}

>  <subsites>  (113) 
None

>  <reference>  (113) 
z0653a

>  <SLURM_JOB_ID>  (113) 
nan

>  <SLURM_JOB_NAME>  (113) 
nan

>  <csv_name>  (113) 
nan

>  <scratch_subdir>  (113) 
nan

>  <fragmenstein_runtime>  (113) 
nan

>  <fragmenstein_outcome>  (113) 
nan

>  <fragmenstein_mode>  (113) 
nan

>  <fragmenstein_error>  (113) 
nan

>  <exports>  (113) 
nan

>  <Multi-SuCOS>  (113) 
nan

>  <merge_set>  (113) 
nan

$$$$
SCLAUNDBZXQZDT-UHFFFAOYSA-N
     RDKit          3D

 24 27  0  0  0  0  0  0  0  0999 V2000
  -27.9592  -29.9285  -21.4689 O   0  0  0  0  0  0  0  0  0  0  0  0
  -27.1685  -29.9610  -20.6120 C   0  0  0  0  0  0  0  0  0  0  0  0
  -25.6816  -29.9599  -20.8648 C   0  0  0  0  0  0  0  0  0  0  0  0
  -25.1237  -31.3306  -21.2130 C   0  0  0  0  0  0  0  0  0  0  0  0
  -25.7253  -32.4495  -20.4063 C   0  0  0  0  0  0  0  0  0  0  0  0
  -26.7319  -33.0091  -20.8475 O   0  0  0  0  0  0  0  0  0  0  0  0
  -25.2023  -32.8759  -19.0969 C   0  0  0  0  0  0  0  0  0  0  0  0
  -26.1078  -33.2091  -18.1074 C   0  0  0  0  0  0  0  0  0  0  0  0
  -25.4045  -33.9052  -16.7315 S   0  0  0  0  0  0  0  0  0  0  0  0
  -23.8417  -33.8266  -17.4278 C   0  0  0  0  0  0  0  0  0  0  0  0
  -22.6675  -34.3829  -16.8968 C   0  0  0  0  0  0  0  0  0  0  0  0
  -21.4467  -34.1693  -17.5381 C   0  0  0  0  0  0  0  0  0  0  0  0
  -21.4073  -33.4854  -18.7329 C   0  0  0  0  0  0  0  0  0  0  0  0
  -22.5966  -33.0425  -19.3173 C   0  0  0  0  0  0  0  0  0  0  0  0
  -23.8491  -33.1731  -18.6666 C   0  0  0  0  0  0  0  0  0  0  0  0
  -27.3527  -30.1145  -19.0796 N   0  0  0  0  0  0  0  0  0  0  0  0
  -28.4673  -30.3396  -18.3479 C   0  0  0  0  0  0  0  0  0  0  0  0
  -29.7946  -30.5637  -18.7943 C   0  0  0  0  0  0  0  0  0  0  0  0
  -30.6121  -30.9071  -17.7865 N   0  0  0  0  0  0  0  0  0  0  0  0
  -29.8072  -30.8473  -16.7400 N   0  0  0  0  0  0  0  0  0  0  0  0
  -28.5215  -30.5196  -16.9994 C   0  0  0  0  0  0  0  0  0  0  0  0
  -27.7324  -30.5721  -15.7624 C   0  0  0  0  0  0  0  0  0  0  0  0
  -28.6400  -31.4258  -14.8371 C   0  0  0  0  0  0  0  0  0  0  0  0
  -30.0678  -31.2530  -15.3767 C   0  0  0  0  0  0  0  0  0  0  0  0
  1  2  2  0
  2  3  1  0
  3  4  1  0
  4  5  1  0
  5  6  2  0
  5  7  1  0
  7  8  2  0
  8  9  1  0
  9 10  1  0
 10 11  2  0
 11 12  1  0
 12 13  2  0
 13 14  1  0
 14 15  2  0
  2 16  1  0
 16 17  1  0
 17 18  1  0
 18 19  2  0
 19 20  1  0
 20 21  1  0
 21 22  1  0
 22 23  1  0
 23 24  1  0
 15  7  1  0
 21 17  2  0
 15 10  1  0
 24 20  1  0
M  END
>  <id>  (114) 
246731

>  <inchikey>  (114) 
SCLAUNDBZXQZDT-UHFFFAOYSA-N

>  <alias>  (114) 
None

>  <smiles>  (114) 
O=C(CCC(=O)c1csc2ccccc12)Nc1cnn2c1CCC2

>  <path>  (114) 
/opt/xchem-fragalysis-2/maxwin/RdRp_FFF/syndirella/mar_elabs/elabs_014/SEXBZMJMGRUWGS-UHFFFAOYSA-N/output/SEXBZMJMGRUWGS-UHFFFAOYSA-N-c7BoH5-1582-A/SEXBZMJMGRUWGS-UHFFFAOYSA-N-c7BoH5-1582-A.minimised.mol

>  <distance_score>  (114) 
1.983081

>  <energy_score>  (114) 
-18.8645

>  <compound>  (114) 
SCLAUNDBZXQZDT-UHFFFAOYSA-N

>  <compound_id>  (114) 
90742

>  <target>  (114) 
Flavi_NS5_RdRp

>  <tags>  (114) 
[]

>  <inspirations>  (114) 
{P Ã— 2}

>  <subsites>  (114) 
None

>  <reference>  (114) 
z0653a

>  <SLURM_JOB_ID>  (114) 
nan

>  <SLURM_JOB_NAME>  (114) 
nan

>  <csv_name>  (114) 
nan

>  <scratch_subdir>  (114) 
nan

>  <fragmenstein_runtime>  (114) 
nan

>  <fragmenstein_outcome>  (114) 
nan

>  <fragmenstein_mode>  (114) 
nan

>  <fragmenstein_error>  (114) 
nan

>  <exports>  (114) 
nan

>  <Multi-SuCOS>  (114) 
nan

>  <merge_set>  (114) 
nan

$$$$
GWMRXSZVFLLOSM-ZDUSSCGKSA-N
     RDKit          3D

 25 27  0  0  0  0  0  0  0  0999 V2000
  -30.1007  -29.1073  -21.1327 C   0  0  0  0  0  0  0  0  0  0  0  0
  -30.2714  -30.2179  -20.2555 O   0  0  0  0  0  0  0  0  0  0  0  0
  -29.3896  -30.1439  -19.2058 C   0  0  0  0  0  0  0  0  0  0  0  0
  -29.9505  -29.8125  -17.9778 C   0  0  0  0  0  0  0  0  0  0  0  0
  -29.1424  -29.6984  -16.8634 C   0  0  0  0  0  0  0  0  0  0  0  0
  -27.7721  -29.9226  -16.9853 C   0  0  0  0  0  0  0  0  0  0  0  0
  -26.9435  -29.8401  -15.8633 C   0  0  0  0  0  0  0  0  0  0  0  0
  -25.5860  -30.0824  -15.9756 C   0  0  0  0  0  0  0  0  0  0  0  0
  -25.0986  -30.3897  -17.2175 C   0  0  0  0  0  0  0  0  0  0  0  0
  -25.8894  -30.4819  -18.3040 N   0  0  0  0  0  0  0  0  0  0  0  0
  -27.2021  -30.2817  -18.2249 C   0  0  0  0  0  0  0  0  0  0  0  0
  -28.0169  -30.4383  -19.3466 C   0  0  0  0  0  0  0  0  0  0  0  0
  -27.5001  -30.7972  -20.7171 C   0  0  0  0  0  0  0  0  0  0  0  0
  -26.5140  -31.8152  -20.9843 N   0  0  0  0  0  0  0  0  0  0  0  0
  -24.9928  -31.8271  -20.7313 C   0  0  0  0  0  0  0  0  0  0  0  0
  -24.3106  -31.0492  -20.1978 O   0  0  0  0  0  0  0  0  0  0  0  0
  -24.3806  -33.0343  -21.4061 C   0  0  0  0  0  0  0  0  0  0  0  0
  -23.3025  -32.4077  -22.3222 C   0  0  2  0  0  0  0  0  0  0  0  0
  -23.8702  -31.3087  -23.2245 C   0  0  0  0  0  0  0  0  0  0  0  0
  -22.6109  -33.3565  -23.1828 N   0  0  0  0  0  0  0  0  0  0  0  0
  -21.2050  -33.1518  -23.4619 C   0  0  0  0  0  0  0  0  0  0  0  0
  -21.0149  -33.6304  -24.8872 C   0  0  0  0  0  0  0  0  0  0  0  0
  -22.2092  -34.5310  -25.1622 C   0  0  0  0  0  0  0  0  0  0  0  0
  -23.2602  -33.9832  -24.2403 C   0  0  0  0  0  0  0  0  0  0  0  0
  -24.4668  -34.0577  -24.4193 O   0  0  0  0  0  0  0  0  0  0  0  0
  1  2  1  0
  2  3  1  0
  3  4  2  0
  4  5  1  0
  5  6  2  0
  6  7  1  0
  7  8  2  0
  8  9  1  0
  9 10  2  0
 10 11  1  0
 11 12  2  0
 12 13  1  0
 13 14  1  0
 14 15  1  0
 15 16  2  0
 15 17  1  0
 17 18  1  0
 18 19  1  6
 18 20  1  0
 20 21  1  0
 21 22  1  0
 22 23  1  0
 23 24  1  0
 24 25  2  0
 12  3  1  0
 24 20  1  0
 11  6  1  0
M  END
>  <id>  (115) 
247762

>  <inchikey>  (115) 
GWMRXSZVFLLOSM-ZDUSSCGKSA-N

>  <alias>  (115) 
None

>  <smiles>  (115) 
COc1ccc2cccnc2c1CNC(=O)C[C@H](C)N1CCCC1=O

>  <path>  (115) 
/opt/xchem-fragalysis-2/maxwin/RdRp_FFF/syndirella/mar_elabs/elabs_013/GNOBTQCXYBMFAB-UHFFFAOYSA-N/output/GNOBTQCXYBMFAB-UHFFFAOYSA-N-ATHL5e-10-A/GNOBTQCXYBMFAB-UHFFFAOYSA-N-ATHL5e-10-A.minimised.mol

>  <distance_score>  (115) 
1.007726

>  <energy_score>  (115) 
-0.191507

>  <compound>  (115) 
GWMRXSZVFLLOSM-UHFFFAOYSA-N

>  <compound_id>  (115) 
93131

>  <target>  (115) 
Flavi_NS5_RdRp

>  <tags>  (115) 
[]

>  <inspirations>  (115) 
{P Ã— 2}

>  <subsites>  (115) 
None

>  <reference>  (115) 
z1018a

>  <SLURM_JOB_ID>  (115) 
nan

>  <SLURM_JOB_NAME>  (115) 
nan

>  <csv_name>  (115) 
nan

>  <scratch_subdir>  (115) 
nan

>  <fragmenstein_runtime>  (115) 
nan

>  <fragmenstein_outcome>  (115) 
nan

>  <fragmenstein_mode>  (115) 
nan

>  <fragmenstein_error>  (115) 
nan

>  <exports>  (115) 
nan

>  <Multi-SuCOS>  (115) 
nan

>  <merge_set>  (115) 
nan

$$$$
LGAWKGWMHHZUAA-CQSZACIVSA-N
     RDKit          3D

 25 27  0  0  0  0  0  0  0  0999 V2000
  -31.1491  -30.0339  -20.4013 C   0  0  0  0  0  0  0  0  0  0  0  0
  -29.7616  -29.8306  -20.4658 O   0  0  0  0  0  0  0  0  0  0  0  0
  -29.0666  -29.9538  -19.2988 C   0  0  0  0  0  0  0  0  0  0  0  0
  -29.5907  -29.6422  -18.0497 C   0  0  0  0  0  0  0  0  0  0  0  0
  -28.7622  -29.6402  -16.9423 C   0  0  0  0  0  0  0  0  0  0  0  0
  -27.4106  -29.9556  -17.0883 C   0  0  0  0  0  0  0  0  0  0  0  0
  -26.5877  -29.9780  -15.9670 C   0  0  0  0  0  0  0  0  0  0  0  0
  -25.2656  -30.3601  -16.0914 C   0  0  0  0  0  0  0  0  0  0  0  0
  -24.7790  -30.6400  -17.3453 C   0  0  0  0  0  0  0  0  0  0  0  0
  -25.5440  -30.6090  -18.4539 N   0  0  0  0  0  0  0  0  0  0  0  0
  -26.8617  -30.3104  -18.3407 C   0  0  0  0  0  0  0  0  0  0  0  0
  -27.7228  -30.3477  -19.4457 C   0  0  0  0  0  0  0  0  0  0  0  0
  -27.2858  -30.8063  -20.8256 C   0  0  0  0  0  0  0  0  0  0  0  0
  -25.9913  -31.4144  -20.8590 N   0  0  0  0  0  0  0  0  0  0  0  0
  -25.5395  -32.7883  -21.4127 C   0  0  0  0  0  0  0  0  0  0  0  0
  -26.1383  -33.6023  -21.9954 O   0  0  0  0  0  0  0  0  0  0  0  0
  -24.0533  -32.9045  -21.1037 C   0  0  0  0  0  0  0  0  0  0  0  0
  -23.2400  -31.8774  -21.8893 C   0  0  0  0  0  0  0  0  0  0  0  0
  -22.6388  -32.4232  -23.0909 N   0  0  0  0  0  0  0  0  0  0  0  0
  -21.3044  -32.9621  -23.0901 C   0  0  0  0  0  0  0  0  0  0  0  0
  -21.0321  -33.2615  -24.5517 C   0  0  0  0  0  0  0  0  0  0  0  0
  -22.4088  -33.5489  -25.1478 C   0  0  1  0  0  0  0  0  0  0  0  0
  -22.7933  -34.9706  -25.0547 N   0  0  0  0  0  0  0  0  0  0  0  0
  -23.3339  -32.7176  -24.2532 C   0  0  0  0  0  0  0  0  0  0  0  0
  -24.5003  -32.4515  -24.5006 O   0  0  0  0  0  0  0  0  0  0  0  0
  1  2  1  0
  2  3  1  0
  3  4  2  0
  4  5  1  0
  5  6  2  0
  6  7  1  0
  7  8  2  0
  8  9  1  0
  9 10  2  0
 10 11  1  0
 11 12  2  0
 12 13  1  0
 13 14  1  0
 14 15  1  0
 15 16  2  0
 15 17  1  0
 17 18  1  0
 18 19  1  0
 19 20  1  0
 20 21  1  0
 21 22  1  0
 22 23  1  1
 22 24  1  0
 24 25  2  0
 12  3  1  0
 24 19  1  0
 11  6  1  0
M  END
>  <id>  (116) 
247764

>  <inchikey>  (116) 
LGAWKGWMHHZUAA-CQSZACIVSA-N

>  <alias>  (116) 
None

>  <smiles>  (116) 
COc1ccc2cccnc2c1CNC(=O)CCN1CC[C@@H](N)C1=O

>  <path>  (116) 
/opt/xchem-fragalysis-2/maxwin/RdRp_FFF/syndirella/mar_elabs/elabs_013/GNOBTQCXYBMFAB-UHFFFAOYSA-N/output/GNOBTQCXYBMFAB-UHFFFAOYSA-N-ATHL5e-11-B/GNOBTQCXYBMFAB-UHFFFAOYSA-N-ATHL5e-11-B.minimised.mol

>  <distance_score>  (116) 
1.123923

>  <energy_score>  (116) 
-12.841649

>  <compound>  (116) 
LGAWKGWMHHZUAA-UHFFFAOYSA-N

>  <compound_id>  (116) 
93132

>  <target>  (116) 
Flavi_NS5_RdRp

>  <tags>  (116) 
[]

>  <inspirations>  (116) 
{P Ã— 2}

>  <subsites>  (116) 
None

>  <reference>  (116) 
z1018a

>  <SLURM_JOB_ID>  (116) 
nan

>  <SLURM_JOB_NAME>  (116) 
nan

>  <csv_name>  (116) 
nan

>  <scratch_subdir>  (116) 
nan

>  <fragmenstein_runtime>  (116) 
nan

>  <fragmenstein_outcome>  (116) 
nan

>  <fragmenstein_mode>  (116) 
nan

>  <fragmenstein_error>  (116) 
nan

>  <exports>  (116) 
nan

>  <Multi-SuCOS>  (116) 
nan

>  <merge_set>  (116) 
nan

$$$$
KSLYQLSDYWYBLO-UHFFFAOYSA-N
     RDKit          3D

 25 27  0  0  0  0  0  0  0  0999 V2000
  -29.9904  -29.1709  -21.2353 C   0  0  0  0  0  0  0  0  0  0  0  0
  -30.0289  -30.3308  -20.4095 O   0  0  0  0  0  0  0  0  0  0  0  0
  -29.1420  -30.1957  -19.3688 C   0  0  0  0  0  0  0  0  0  0  0  0
  -29.7210  -29.8629  -18.1478 C   0  0  0  0  0  0  0  0  0  0  0  0
  -28.9164  -29.7314  -17.0374 C   0  0  0  0  0  0  0  0  0  0  0  0
  -27.5381  -29.9060  -17.1729 C   0  0  0  0  0  0  0  0  0  0  0  0
  -26.7319  -29.8566  -16.0422 C   0  0  0  0  0  0  0  0  0  0  0  0
  -25.3761  -30.0823  -16.1634 C   0  0  0  0  0  0  0  0  0  0  0  0
  -24.8509  -30.2325  -17.4253 C   0  0  0  0  0  0  0  0  0  0  0  0
  -25.6007  -30.2198  -18.5435 N   0  0  0  0  0  0  0  0  0  0  0  0
  -26.9347  -30.1910  -18.4242 C   0  0  0  0  0  0  0  0  0  0  0  0
  -27.7521  -30.4408  -19.5205 C   0  0  0  0  0  0  0  0  0  0  0  0
  -27.2527  -30.8843  -20.8744 C   0  0  0  0  0  0  0  0  0  0  0  0
  -26.0640  -31.6682  -21.1898 N   0  0  0  0  0  0  0  0  0  0  0  0
  -25.1207  -32.4959  -20.2620 C   0  0  0  0  0  0  0  0  0  0  0  0
  -25.2004  -32.7349  -19.1208 O   0  0  0  0  0  0  0  0  0  0  0  0
  -24.0357  -33.0911  -21.1374 C   0  0  0  0  0  0  0  0  0  0  0  0
  -23.0932  -32.0364  -21.6988 C   0  0  0  0  0  0  0  0  0  0  0  0
  -22.4943  -32.4865  -22.9441 N   0  0  0  0  0  0  0  0  0  0  0  0
  -21.2048  -32.9198  -23.0644 C   0  0  0  0  0  0  0  0  0  0  0  0
  -20.3876  -33.0876  -22.1733 O   0  0  0  0  0  0  0  0  0  0  0  0
  -20.9337  -33.1817  -24.5171 C   0  0  0  0  0  0  0  0  0  0  0  0
  -22.3143  -33.2438  -25.1389 C   0  0  0  0  0  0  0  0  0  0  0  0
  -23.2020  -32.6192  -24.1039 C   0  0  0  0  0  0  0  0  0  0  0  0
  -24.3850  -32.3493  -24.2747 O   0  0  0  0  0  0  0  0  0  0  0  0
  1  2  1  0
  2  3  1  0
  3  4  2  0
  4  5  1  0
  5  6  2  0
  6  7  1  0
  7  8  2  0
  8  9  1  0
  9 10  2  0
 10 11  1  0
 11 12  2  0
 12 13  1  0
 13 14  1  0
 14 15  1  0
 15 16  2  0
 15 17  1  0
 17 18  1  0
 18 19  1  0
 19 20  1  0
 20 21  2  0
 20 22  1  0
 22 23  1  0
 23 24  1  0
 24 25  2  0
 12  3  1  0
 24 19  1  0
 11  6  1  0
M  END
>  <id>  (117) 
247767

>  <inchikey>  (117) 
KSLYQLSDYWYBLO-UHFFFAOYSA-N

>  <alias>  (117) 
None

>  <smiles>  (117) 
COc1ccc2cccnc2c1CNC(=O)CCN1C(=O)CCC1=O

>  <path>  (117) 
/opt/xchem-fragalysis-2/maxwin/RdRp_FFF/syndirella/mar_elabs/elabs_013/GNOBTQCXYBMFAB-UHFFFAOYSA-N/output/GNOBTQCXYBMFAB-UHFFFAOYSA-N-ATHL5e-14-A/GNOBTQCXYBMFAB-UHFFFAOYSA-N-ATHL5e-14-A.minimised.mol

>  <distance_score>  (117) 
0.868259

>  <energy_score>  (117) 
-4.07884

>  <compound>  (117) 
KSLYQLSDYWYBLO-UHFFFAOYSA-N

>  <compound_id>  (117) 
93135

>  <target>  (117) 
Flavi_NS5_RdRp

>  <tags>  (117) 
[]

>  <inspirations>  (117) 
{P Ã— 2}

>  <subsites>  (117) 
None

>  <reference>  (117) 
z1018a

>  <SLURM_JOB_ID>  (117) 
nan

>  <SLURM_JOB_NAME>  (117) 
nan

>  <csv_name>  (117) 
nan

>  <scratch_subdir>  (117) 
nan

>  <fragmenstein_runtime>  (117) 
nan

>  <fragmenstein_outcome>  (117) 
nan

>  <fragmenstein_mode>  (117) 
nan

>  <fragmenstein_error>  (117) 
nan

>  <exports>  (117) 
nan

>  <Multi-SuCOS>  (117) 
nan

>  <merge_set>  (117) 
nan

$$$$
DNLUSRYLIQAQAE-NSHDSACASA-N
     RDKit          3D

 21 23  0  0  0  0  0  0  0  0999 V2000
  -15.7661  -38.7909  -23.3149 C   0  0  0  0  0  0  0  0  0  0  0  0
  -14.3812  -39.3107  -22.9399 C   0  0  2  0  0  0  0  0  0  0  0  0
  -14.4960  -40.4611  -22.0578 N   0  0  0  0  0  0  0  0  0  0  0  0
  -13.4108  -41.2885  -21.3481 C   0  0  0  0  0  0  0  0  0  0  0  0
  -12.2568  -41.1338  -21.2950 O   0  0  0  0  0  0  0  0  0  0  0  0
  -13.9911  -42.5038  -20.6890 C   0  0  0  0  0  0  0  0  0  0  0  0
  -13.4885  -42.8730  -19.4471 C   0  0  0  0  0  0  0  0  0  0  0  0
  -14.0129  -43.9991  -18.8481 C   0  0  0  0  0  0  0  0  0  0  0  0
  -14.9525  -44.7904  -19.4071 N   0  0  0  0  0  0  0  0  0  0  0  0
  -15.4280  -44.4284  -20.6293 C   0  0  0  0  0  0  0  0  0  0  0  0
  -16.4514  -45.2507  -21.1971 N   0  0  0  0  0  0  0  0  0  0  0  0
  -16.8921  -46.4511  -20.6628 C   0  0  0  0  0  0  0  0  0  0  0  0
  -17.8764  -46.9645  -21.4757 C   0  0  0  0  0  0  0  0  0  0  0  0
  -18.0847  -46.0429  -22.5193 C   0  0  0  0  0  0  0  0  0  0  0  0
  -17.1957  -45.0083  -22.3341 C   0  0  0  0  0  0  0  0  0  0  0  0
  -14.9668  -43.2984  -21.3059 C   0  0  0  0  0  0  0  0  0  0  0  0
  -13.5082  -38.2225  -22.3677 C   0  0  0  0  0  0  0  0  0  0  0  0
  -13.7911  -36.9352  -22.2757 N   0  0  0  0  0  0  0  0  0  0  0  0
  -12.6501  -36.3159  -21.8391 C   0  0  0  0  0  0  0  0  0  0  0  0
  -11.6426  -37.2292  -21.6726 C   0  0  0  0  0  0  0  0  0  0  0  0
  -12.2044  -38.4370  -21.9781 N   0  0  0  0  0  0  0  0  0  0  0  0
  2  1  1  1
  2  3  1  0
  3  4  1  0
  4  5  2  0
  4  6  1  0
  6  7  2  0
  7  8  1  0
  8  9  2  0
  9 10  1  0
 10 11  1  0
 11 12  1  0
 12 13  2  0
 13 14  1  0
 14 15  2  0
 10 16  2  0
  2 17  1  0
 17 18  2  0
 18 19  1  0
 19 20  2  0
 20 21  1  0
 16  6  1  0
 21 17  1  0
 15 11  1  0
M  END
>  <id>  (118) 
249635

>  <inchikey>  (118) 
DNLUSRYLIQAQAE-NSHDSACASA-N

>  <alias>  (118) 
None

>  <smiles>  (118) 
C[C@H](NC(=O)c1ccnc(-n2cccc2)c1)c1ncc[nH]1

>  <path>  (118) 
/opt/xchem-fragalysis-2/maxwin/RdRp_FFF/syndirella/mar_elabs/elabs_010/DNLUSRYLIQAQAE-UHFFFAOYSA-N/output/DNLUSRYLIQAQAE-UHFFFAOYSA-N-jwa3dr-scaffold-A/DNLUSRYLIQAQAE-UHFFFAOYSA-N-jwa3dr-scaffold-A.minimised.mol

>  <distance_score>  (118) 
0.86644

>  <energy_score>  (118) 
-3.80316

>  <compound>  (118) 
DNLUSRYLIQAQAE-UHFFFAOYSA-N

>  <compound_id>  (118) 
19774

>  <target>  (118) 
Flavi_NS5_RdRp

>  <tags>  (118) 
['best elaborated iter1 scaffold poses']

>  <inspirations>  (118) 
{P Ã— 2}

>  <subsites>  (118) 
[[1m[4m"Primer grip/N-pocket"[22m[24m]

>  <reference>  (118) 
d0472a

>  <SLURM_JOB_ID>  (118) 
nan

>  <SLURM_JOB_NAME>  (118) 
nan

>  <csv_name>  (118) 
nan

>  <scratch_subdir>  (118) 
nan

>  <fragmenstein_runtime>  (118) 
nan

>  <fragmenstein_outcome>  (118) 
nan

>  <fragmenstein_mode>  (118) 
nan

>  <fragmenstein_error>  (118) 
nan

>  <exports>  (118) 
/opt/xchem-fragalysis-2/maxwin/RdRp_FFF/hippo/iter1_elaborated_scaffold_poses.sdf

>  <Multi-SuCOS>  (118) 
nan

>  <merge_set>  (118) 
nan

$$$$
ITGCDCCWIPYNFH-UHFFFAOYSA-N
     RDKit          3D

 23 25  0  0  0  0  0  0  0  0999 V2000
  -12.3568  -34.9201  -21.1169 C   0  0  0  0  0  0  0  0  0  0  0  0
  -12.6326  -36.2869  -21.6022 C   0  0  0  0  0  0  0  0  0  0  0  0
  -11.7382  -37.2837  -21.9058 C   0  0  0  0  0  0  0  0  0  0  0  0
  -12.5048  -38.3740  -22.1961 N   0  0  0  0  0  0  0  0  0  0  0  0
  -13.8313  -38.0127  -22.1194 C   0  0  0  0  0  0  0  0  0  0  0  0
  -14.9798  -38.9572  -22.4444 C   0  0  0  0  0  0  0  0  0  0  0  0
  -14.9870  -39.2887  -23.9424 C   0  0  0  0  0  0  0  0  0  0  0  0
  -16.3186  -38.2798  -22.0932 C   0  0  0  0  0  0  0  0  0  0  0  0
  -14.9026  -40.2151  -21.6864 N   0  0  0  0  0  0  0  0  0  0  0  0
  -13.6977  -41.1192  -21.3686 C   0  0  0  0  0  0  0  0  0  0  0  0
  -12.5632  -40.9716  -21.5909 O   0  0  0  0  0  0  0  0  0  0  0  0
  -14.1339  -42.3936  -20.7279 C   0  0  0  0  0  0  0  0  0  0  0  0
  -13.5011  -42.7878  -19.5579 C   0  0  0  0  0  0  0  0  0  0  0  0
  -13.9217  -43.9617  -18.9709 C   0  0  0  0  0  0  0  0  0  0  0  0
  -14.8751  -44.7717  -19.4804 N   0  0  0  0  0  0  0  0  0  0  0  0
  -15.4625  -44.3878  -20.6467 C   0  0  0  0  0  0  0  0  0  0  0  0
  -16.4717  -45.2476  -21.1829 N   0  0  0  0  0  0  0  0  0  0  0  0
  -16.8245  -46.4800  -20.6565 C   0  0  0  0  0  0  0  0  0  0  0  0
  -17.8022  -47.0371  -21.4481 C   0  0  0  0  0  0  0  0  0  0  0  0
  -18.0993  -46.1111  -22.4663 C   0  0  0  0  0  0  0  0  0  0  0  0
  -17.2727  -45.0258  -22.2852 C   0  0  0  0  0  0  0  0  0  0  0  0
  -15.1190  -43.2054  -21.3015 C   0  0  0  0  0  0  0  0  0  0  0  0
  -13.9199  -36.7368  -21.7793 N   0  0  0  0  0  0  0  0  0  0  0  0
  1  2  1  0
  2  3  2  0
  3  4  1  0
  4  5  1  0
  5  6  1  0
  6  7  1  0
  6  8  1  0
  6  9  1  0
  9 10  1  0
 10 11  2  0
 10 12  1  0
 12 13  2  0
 13 14  1  0
 14 15  2  0
 15 16  1  0
 16 17  1  0
 17 18  1  0
 18 19  2  0
 19 20  1  0
 20 21  2  0
 16 22  2  0
  5 23  2  0
 23  2  1  0
 22 12  1  0
 21 17  1  0
M  END
>  <id>  (119) 
249781

>  <inchikey>  (119) 
ITGCDCCWIPYNFH-UHFFFAOYSA-N

>  <alias>  (119) 
None

>  <smiles>  (119) 
Cc1c[nH]c(C(C)(C)NC(=O)c2ccnc(-n3cccc3)c2)n1

>  <path>  (119) 
/opt/xchem-fragalysis-2/maxwin/RdRp_FFF/syndirella/mar_elabs/elabs_010/DNLUSRYLIQAQAE-UHFFFAOYSA-N/output/DNLUSRYLIQAQAE-UHFFFAOYSA-N-jwa3dr-100-A/DNLUSRYLIQAQAE-UHFFFAOYSA-N-jwa3dr-100-A.minimised.mol

>  <distance_score>  (119) 
0.99685

>  <energy_score>  (119) 
-27.544695

>  <compound>  (119) 
ITGCDCCWIPYNFH-UHFFFAOYSA-N

>  <compound_id>  (119) 
94806

>  <target>  (119) 
Flavi_NS5_RdRp

>  <tags>  (119) 
[]

>  <inspirations>  (119) 
{P Ã— 2}

>  <subsites>  (119) 
None

>  <reference>  (119) 
d0472a

>  <SLURM_JOB_ID>  (119) 
nan

>  <SLURM_JOB_NAME>  (119) 
nan

>  <csv_name>  (119) 
nan

>  <scratch_subdir>  (119) 
nan

>  <fragmenstein_runtime>  (119) 
nan

>  <fragmenstein_outcome>  (119) 
nan

>  <fragmenstein_mode>  (119) 
nan

>  <fragmenstein_error>  (119) 
nan

>  <exports>  (119) 
nan

>  <Multi-SuCOS>  (119) 
nan

>  <merge_set>  (119) 
nan

$$$$
GZMYHZKXNSTVQL-UHFFFAOYSA-N
     RDKit          3D

 23 25  0  0  0  0  0  0  0  0999 V2000
  -26.9276  -30.3794  -22.2305 O   0  0  0  0  0  0  0  0  0  0  0  0
  -26.8907  -30.8251  -21.1555 C   0  0  0  0  0  0  0  0  0  0  0  0
  -25.9473  -31.8737  -20.5436 N   0  0  0  0  0  0  0  0  0  0  0  0
  -24.8987  -32.6741  -21.1572 C   0  0  0  0  0  0  0  0  0  0  0  0
  -23.7681  -31.8139  -21.7432 C   0  0  0  0  0  0  0  0  0  0  0  0
  -22.9733  -32.4713  -22.7684 N   0  0  0  0  0  0  0  0  0  0  0  0
  -21.6502  -32.7842  -22.6266 C   0  0  0  0  0  0  0  0  0  0  0  0
  -21.0071  -32.8388  -21.5907 O   0  0  0  0  0  0  0  0  0  0  0  0
  -21.0891  -33.0559  -23.9927 C   0  0  0  0  0  0  0  0  0  0  0  0
  -22.3185  -33.3527  -24.8241 C   0  0  0  0  0  0  0  0  0  0  0  0
  -23.4282  -32.7322  -24.0286 C   0  0  0  0  0  0  0  0  0  0  0  0
  -24.5576  -32.5543  -24.4607 O   0  0  0  0  0  0  0  0  0  0  0  0
  -27.9611  -30.3222  -20.2192 C   0  0  0  0  0  0  0  0  0  0  0  0
  -29.1570  -29.9775  -20.8499 C   0  0  0  0  0  0  0  0  0  0  0  0
  -30.2744  -29.8076  -20.0879 C   0  0  0  0  0  0  0  0  0  0  0  0
  -31.4741  -29.5876  -20.6687 O   0  0  0  0  0  0  0  0  0  0  0  0
  -30.2951  -29.8409  -18.7621 N   0  0  0  0  0  0  0  0  0  0  0  0
  -29.1122  -29.9388  -18.1531 C   0  0  0  0  0  0  0  0  0  0  0  0
  -29.1279  -29.7786  -16.7840 C   0  0  0  0  0  0  0  0  0  0  0  0
  -27.9529  -29.7688  -16.0390 C   0  0  0  0  0  0  0  0  0  0  0  0
  -26.7292  -29.9129  -16.6769 C   0  0  0  0  0  0  0  0  0  0  0  0
  -26.6905  -30.1242  -18.0535 C   0  0  0  0  0  0  0  0  0  0  0  0
  -27.8812  -30.1615  -18.8209 C   0  0  0  0  0  0  0  0  0  0  0  0
  1  2  2  0
  2  3  1  0
  3  4  1  0
  4  5  1  0
  5  6  1  0
  6  7  1  0
  7  8  2  0
  7  9  1  0
  9 10  1  0
 10 11  1  0
 11 12  2  0
  2 13  1  0
 13 14  2  0
 14 15  1  0
 15 16  1  0
 15 17  2  0
 17 18  1  0
 18 19  2  0
 19 20  1  0
 20 21  2  0
 21 22  1  0
 22 23  2  0
 11  6  1  0
 23 13  1  0
 23 18  1  0
M  END
>  <id>  (120) 
264427

>  <inchikey>  (120) 
GZMYHZKXNSTVQL-UHFFFAOYSA-N

>  <alias>  (120) 
None

>  <smiles>  (120) 
O=C(NCCN1C(=O)CCC1=O)c1cc(O)nc2ccccc12

>  <path>  (120) 
/opt/xchem-fragalysis-2/maxwin/RdRp_FFF/syndirella/mar_elabs/elabs_024/NLPSSNMFGBLZAP-UHFFFAOYSA-N/output/NLPSSNMFGBLZAP-UHFFFAOYSA-N-FPqWEK-74-A/NLPSSNMFGBLZAP-UHFFFAOYSA-N-FPqWEK-74-A.minimised.mol

>  <distance_score>  (120) 
0.752698

>  <energy_score>  (120) 
-22.323397

>  <compound>  (120) 
GZMYHZKXNSTVQL-UHFFFAOYSA-N

>  <compound_id>  (120) 
105681

>  <target>  (120) 
Flavi_NS5_RdRp

>  <tags>  (120) 
[]

>  <inspirations>  (120) 
{P Ã— 2}

>  <subsites>  (120) 
None

>  <reference>  (120) 
z1018a

>  <SLURM_JOB_ID>  (120) 
nan

>  <SLURM_JOB_NAME>  (120) 
nan

>  <csv_name>  (120) 
nan

>  <scratch_subdir>  (120) 
nan

>  <fragmenstein_runtime>  (120) 
nan

>  <fragmenstein_outcome>  (120) 
nan

>  <fragmenstein_mode>  (120) 
nan

>  <fragmenstein_error>  (120) 
nan

>  <exports>  (120) 
nan

>  <Multi-SuCOS>  (120) 
nan

>  <merge_set>  (120) 
nan

$$$$
CQYCNCKBDHWFOQ-SNVBAGLBSA-N
     RDKit          3D

 24 26  0  0  0  0  0  0  0  0999 V2000
  -24.1442  -33.3545  -20.0817 C   0  0  0  0  0  0  0  0  0  0  0  0
  -24.8805  -32.5678  -21.1590 C   0  0  2  0  0  0  0  0  0  0  0  0
  -23.8878  -31.7129  -21.9813 C   0  0  0  0  0  0  0  0  0  0  0  0
  -23.0578  -32.4704  -22.9079 N   0  0  0  0  0  0  0  0  0  0  0  0
  -21.6380  -32.6490  -22.7224 C   0  0  0  0  0  0  0  0  0  0  0  0
  -21.1397  -32.9761  -24.1183 C   0  0  0  0  0  0  0  0  0  0  0  0
  -22.3298  -33.6504  -24.7884 C   0  0  0  0  0  0  0  0  0  0  0  0
  -23.5088  -33.0118  -24.0983 C   0  0  0  0  0  0  0  0  0  0  0  0
  -24.6558  -33.0142  -24.5148 O   0  0  0  0  0  0  0  0  0  0  0  0
  -25.9451  -31.7632  -20.5549 N   0  0  0  0  0  0  0  0  0  0  0  0
  -26.9145  -30.7536  -21.1879 C   0  0  0  0  0  0  0  0  0  0  0  0
  -26.9717  -30.3427  -22.2756 O   0  0  0  0  0  0  0  0  0  0  0  0
  -28.0006  -30.2702  -20.2587 C   0  0  0  0  0  0  0  0  0  0  0  0
  -29.1893  -29.9243  -20.9007 C   0  0  0  0  0  0  0  0  0  0  0  0
  -30.3197  -29.7845  -20.1524 C   0  0  0  0  0  0  0  0  0  0  0  0
  -31.5099  -29.5712  -20.7508 O   0  0  0  0  0  0  0  0  0  0  0  0
  -30.3613  -29.8463  -18.8283 N   0  0  0  0  0  0  0  0  0  0  0  0
  -29.1894  -29.9389  -18.2033 C   0  0  0  0  0  0  0  0  0  0  0  0
  -29.2408  -29.8035  -16.8370 C   0  0  0  0  0  0  0  0  0  0  0  0
  -28.0796  -29.7973  -16.0864 C   0  0  0  0  0  0  0  0  0  0  0  0
  -28.1644  -29.6753  -14.7570 F   0  0  0  0  0  0  0  0  0  0  0  0
  -26.8377  -29.9191  -16.6863 C   0  0  0  0  0  0  0  0  0  0  0  0
  -26.7659  -30.1061  -18.0645 C   0  0  0  0  0  0  0  0  0  0  0  0
  -27.9431  -30.1357  -18.8551 C   0  0  0  0  0  0  0  0  0  0  0  0
  2  1  1  1
  2  3  1  0
  3  4  1  0
  4  5  1  0
  5  6  1  0
  6  7  1  0
  7  8  1  0
  8  9  2  0
  2 10  1  0
 10 11  1  0
 11 12  2  0
 11 13  1  0
 13 14  2  0
 14 15  1  0
 15 16  1  0
 15 17  2  0
 17 18  1  0
 18 19  2  0
 19 20  1  0
 20 21  1  0
 20 22  2  0
 22 23  1  0
 23 24  2  0
  8  4  1  0
 24 13  1  0
 24 18  1  0
M  END
>  <id>  (121) 
264463

>  <inchikey>  (121) 
CQYCNCKBDHWFOQ-SNVBAGLBSA-N

>  <alias>  (121) 
None

>  <smiles>  (121) 
C[C@H](CN1CCCC1=O)NC(=O)c1cc(O)nc2cc(F)ccc12

>  <path>  (121) 
/opt/xchem-fragalysis-2/maxwin/RdRp_FFF/syndirella/mar_elabs/elabs_024/NLPSSNMFGBLZAP-UHFFFAOYSA-N/output/NLPSSNMFGBLZAP-UHFFFAOYSA-N-FPqWEK-123-A/NLPSSNMFGBLZAP-UHFFFAOYSA-N-FPqWEK-123-A.minimised.mol

>  <distance_score>  (121) 
0.718315

>  <energy_score>  (121) 
-15.662742

>  <compound>  (121) 
CQYCNCKBDHWFOQ-UHFFFAOYSA-N

>  <compound_id>  (121) 
105720

>  <target>  (121) 
Flavi_NS5_RdRp

>  <tags>  (121) 
[]

>  <inspirations>  (121) 
{P Ã— 2}

>  <subsites>  (121) 
None

>  <reference>  (121) 
z1018a

>  <SLURM_JOB_ID>  (121) 
nan

>  <SLURM_JOB_NAME>  (121) 
nan

>  <csv_name>  (121) 
nan

>  <scratch_subdir>  (121) 
nan

>  <fragmenstein_runtime>  (121) 
nan

>  <fragmenstein_outcome>  (121) 
nan

>  <fragmenstein_mode>  (121) 
nan

>  <fragmenstein_error>  (121) 
nan

>  <exports>  (121) 
nan

>  <Multi-SuCOS>  (121) 
nan

>  <merge_set>  (121) 
nan

$$$$
GXSKBVQTQAVIFG-UHFFFAOYSA-N
     RDKit          3D

 24 26  0  0  0  0  0  0  0  0999 V2000
  -26.8974  -30.4063  -22.2459 O   0  0  0  0  0  0  0  0  0  0  0  0
  -26.8531  -30.8133  -21.1561 C   0  0  0  0  0  0  0  0  0  0  0  0
  -25.8969  -31.8282  -20.5104 N   0  0  0  0  0  0  0  0  0  0  0  0
  -24.8394  -32.6387  -21.0986 C   0  0  0  0  0  0  0  0  0  0  0  0
  -23.7312  -31.7868  -21.7362 C   0  0  0  0  0  0  0  0  0  0  0  0
  -22.9545  -32.4633  -22.7626 N   0  0  0  0  0  0  0  0  0  0  0  0
  -21.6308  -32.7798  -22.6348 C   0  0  0  0  0  0  0  0  0  0  0  0
  -20.9745  -32.8268  -21.6068 O   0  0  0  0  0  0  0  0  0  0  0  0
  -21.0887  -33.0669  -24.0054 C   0  0  0  0  0  0  0  0  0  0  0  0
  -22.3300  -33.3706  -24.8165 C   0  0  0  0  0  0  0  0  0  0  0  0
  -23.4277  -32.7392  -24.0129 C   0  0  0  0  0  0  0  0  0  0  0  0
  -24.5628  -32.5651  -24.4312 O   0  0  0  0  0  0  0  0  0  0  0  0
  -27.9448  -30.3107  -20.2415 C   0  0  0  0  0  0  0  0  0  0  0  0
  -29.1267  -29.9591  -20.8957 C   0  0  0  0  0  0  0  0  0  0  0  0
  -30.2617  -29.7945  -20.1577 C   0  0  0  0  0  0  0  0  0  0  0  0
  -31.4489  -29.5696  -20.7591 O   0  0  0  0  0  0  0  0  0  0  0  0
  -30.3128  -29.8412  -18.8336 N   0  0  0  0  0  0  0  0  0  0  0  0
  -29.1464  -29.9424  -18.1994 C   0  0  0  0  0  0  0  0  0  0  0  0
  -29.2064  -29.7973  -16.8347 C   0  0  0  0  0  0  0  0  0  0  0  0
  -28.0501  -29.7971  -16.0765 C   0  0  0  0  0  0  0  0  0  0  0  0
  -28.1444  -29.6741  -14.7479 F   0  0  0  0  0  0  0  0  0  0  0  0
  -26.8046  -29.9287  -16.6673 C   0  0  0  0  0  0  0  0  0  0  0  0
  -26.7246  -30.1272  -18.0436 C   0  0  0  0  0  0  0  0  0  0  0  0
  -27.8969  -30.1582  -18.8403 C   0  0  0  0  0  0  0  0  0  0  0  0
  1  2  2  0
  2  3  1  0
  3  4  1  0
  4  5  1  0
  5  6  1  0
  6  7  1  0
  7  8  2  0
  7  9  1  0
  9 10  1  0
 10 11  1  0
 11 12  2  0
  2 13  1  0
 13 14  2  0
 14 15  1  0
 15 16  1  0
 15 17  2  0
 17 18  1  0
 18 19  2  0
 19 20  1  0
 20 21  1  0
 20 22  2  0
 22 23  1  0
 23 24  2  0
 11  6  1  0
 24 13  1  0
 24 18  1  0
M  END
>  <id>  (122) 
264490

>  <inchikey>  (122) 
GXSKBVQTQAVIFG-UHFFFAOYSA-N

>  <alias>  (122) 
None

>  <smiles>  (122) 
O=C(NCCN1C(=O)CCC1=O)c1cc(O)nc2cc(F)ccc12

>  <path>  (122) 
/opt/xchem-fragalysis-2/maxwin/RdRp_FFF/syndirella/mar_elabs/elabs_024/NLPSSNMFGBLZAP-UHFFFAOYSA-N/output/NLPSSNMFGBLZAP-UHFFFAOYSA-N-FPqWEK-151-A/NLPSSNMFGBLZAP-UHFFFAOYSA-N-FPqWEK-151-A.minimised.mol

>  <distance_score>  (122) 
0.722777

>  <energy_score>  (122) 
-17.289271

>  <compound>  (122) 
GXSKBVQTQAVIFG-UHFFFAOYSA-N

>  <compound_id>  (122) 
105744

>  <target>  (122) 
Flavi_NS5_RdRp

>  <tags>  (122) 
[]

>  <inspirations>  (122) 
{P Ã— 2}

>  <subsites>  (122) 
None

>  <reference>  (122) 
z1018a

>  <SLURM_JOB_ID>  (122) 
nan

>  <SLURM_JOB_NAME>  (122) 
nan

>  <csv_name>  (122) 
nan

>  <scratch_subdir>  (122) 
nan

>  <fragmenstein_runtime>  (122) 
nan

>  <fragmenstein_outcome>  (122) 
nan

>  <fragmenstein_mode>  (122) 
nan

>  <fragmenstein_error>  (122) 
nan

>  <exports>  (122) 
nan

>  <Multi-SuCOS>  (122) 
nan

>  <merge_set>  (122) 
nan

$$$$
QKLBXPGEEGMDFG-SNVBAGLBSA-N
     RDKit          3D

 24 26  0  0  0  0  0  0  0  0999 V2000
  -24.8213  -34.2989  -21.0096 C   0  0  0  0  0  0  0  0  0  0  0  0
  -25.1465  -33.2540  -22.0665 C   0  0  2  0  0  0  0  0  0  0  0  0
  -23.8842  -32.3938  -22.3792 C   0  0  0  0  0  0  0  0  0  0  0  0
  -22.9414  -33.0315  -23.2702 N   0  0  0  0  0  0  0  0  0  0  0  0
  -21.5187  -32.8792  -23.0834 C   0  0  0  0  0  0  0  0  0  0  0  0
  -20.9304  -33.0258  -24.4740 C   0  0  0  0  0  0  0  0  0  0  0  0
  -22.0117  -33.7124  -25.2944 C   0  0  0  0  0  0  0  0  0  0  0  0
  -23.2721  -33.3161  -24.5824 C   0  0  0  0  0  0  0  0  0  0  0  0
  -24.3904  -33.2778  -25.0721 O   0  0  0  0  0  0  0  0  0  0  0  0
  -26.2038  -32.3859  -21.5861 N   0  0  0  0  0  0  0  0  0  0  0  0
  -26.1385  -31.0083  -20.9626 C   0  0  0  0  0  0  0  0  0  0  0  0
  -25.2393  -30.3033  -20.7971 O   0  0  0  0  0  0  0  0  0  0  0  0
  -27.4590  -30.5109  -20.5210 C   0  0  0  0  0  0  0  0  0  0  0  0
  -28.4215  -30.0985  -21.4277 C   0  0  0  0  0  0  0  0  0  0  0  0
  -29.6384  -29.7045  -20.9198 C   0  0  0  0  0  0  0  0  0  0  0  0
  -30.6458  -29.2939  -21.7199 O   0  0  0  0  0  0  0  0  0  0  0  0
  -29.9605  -29.6717  -19.6324 N   0  0  0  0  0  0  0  0  0  0  0  0
  -28.9644  -29.8932  -18.7803 C   0  0  0  0  0  0  0  0  0  0  0  0
  -29.2344  -29.7096  -17.4579 C   0  0  0  0  0  0  0  0  0  0  0  0
  -28.2041  -29.8194  -16.5414 C   0  0  0  0  0  0  0  0  0  0  0  0
  -28.6069  -29.7748  -14.7504 Br  0  0  0  0  0  0  0  0  0  0  0  0
  -26.8940  -30.0770  -16.8936 C   0  0  0  0  0  0  0  0  0  0  0  0
  -26.6319  -30.3680  -18.2077 C   0  0  0  0  0  0  0  0  0  0  0  0
  -27.6640  -30.2826  -19.1620 C   0  0  0  0  0  0  0  0  0  0  0  0
  2  1  1  1
  2  3  1  0
  3  4  1  0
  4  5  1  0
  5  6  1  0
  6  7  1  0
  7  8  1  0
  8  9  2  0
  2 10  1  0
 10 11  1  0
 11 12  2  0
 11 13  1  0
 13 14  2  0
 14 15  1  0
 15 16  1  0
 15 17  2  0
 17 18  1  0
 18 19  2  0
 19 20  1  0
 20 21  1  0
 20 22  2  0
 22 23  1  0
 23 24  2  0
  8  4  1  0
 24 13  1  0
 24 18  1  0
M  END
>  <id>  (123) 
264858

>  <inchikey>  (123) 
QKLBXPGEEGMDFG-SNVBAGLBSA-N

>  <alias>  (123) 
None

>  <smiles>  (123) 
C[C@H](CN1CCCC1=O)NC(=O)c1cc(O)nc2cc(Br)ccc12

>  <path>  (123) 
/opt/xchem-fragalysis-2/maxwin/RdRp_FFF/syndirella/mar_elabs/elabs_024/NLPSSNMFGBLZAP-UHFFFAOYSA-N/output/NLPSSNMFGBLZAP-UHFFFAOYSA-N-FPqWEK-724-A/NLPSSNMFGBLZAP-UHFFFAOYSA-N-FPqWEK-724-A.minimised.mol

>  <distance_score>  (123) 
1.037695

>  <energy_score>  (123) 
-24.875293

>  <compound>  (123) 
QKLBXPGEEGMDFG-UHFFFAOYSA-N

>  <compound_id>  (123) 
106206

>  <target>  (123) 
Flavi_NS5_RdRp

>  <tags>  (123) 
[]

>  <inspirations>  (123) 
{P Ã— 2}

>  <subsites>  (123) 
None

>  <reference>  (123) 
z1018a

>  <SLURM_JOB_ID>  (123) 
nan

>  <SLURM_JOB_NAME>  (123) 
nan

>  <csv_name>  (123) 
nan

>  <scratch_subdir>  (123) 
nan

>  <fragmenstein_runtime>  (123) 
nan

>  <fragmenstein_outcome>  (123) 
nan

>  <fragmenstein_mode>  (123) 
nan

>  <fragmenstein_error>  (123) 
nan

>  <exports>  (123) 
nan

>  <Multi-SuCOS>  (123) 
nan

>  <merge_set>  (123) 
nan

$$$$
DQZRFKWXYOITOM-UHFFFAOYSA-N
     RDKit          3D

 24 26  0  0  0  0  0  0  0  0999 V2000
  -23.7668  -32.9603  -21.4365 O   0  0  0  0  0  0  0  0  0  0  0  0
  -24.2831  -32.2202  -22.1774 C   0  0  0  0  0  0  0  0  0  0  0  0
  -23.7268  -31.7909  -23.5364 C   0  0  0  0  0  0  0  0  0  0  0  0
  -22.8403  -32.7252  -24.1506 N   0  0  0  0  0  0  0  0  0  0  0  0
  -21.4609  -32.8931  -23.7758 C   0  0  0  0  0  0  0  0  0  0  0  0
  -20.9537  -33.7654  -24.9091 C   0  0  0  0  0  0  0  0  0  0  0  0
  -22.1573  -34.6479  -25.2525 C   0  0  0  0  0  0  0  0  0  0  0  0
  -23.3241  -33.7647  -24.9071 C   0  0  0  0  0  0  0  0  0  0  0  0
  -24.4945  -33.9265  -25.2114 O   0  0  0  0  0  0  0  0  0  0  0  0
  -25.5805  -31.3743  -22.0177 N   0  0  0  0  0  0  0  0  0  0  0  0
  -26.3808  -31.2117  -20.9680 N   0  0  0  0  0  0  0  0  0  0  0  0
  -27.5247  -30.2139  -20.7301 C   0  0  0  0  0  0  0  0  0  0  0  0
  -28.0005  -29.4263  -21.4444 O   0  0  0  0  0  0  0  0  0  0  0  0
  -27.9917  -30.2402  -19.3170 C   0  0  0  0  0  0  0  0  0  0  0  0
  -29.3466  -30.0481  -19.1042 C   0  0  0  0  0  0  0  0  0  0  0  0
  -29.7221  -29.8560  -17.8069 C   0  0  0  0  0  0  0  0  0  0  0  0
  -31.0099  -29.6971  -17.4749 O   0  0  0  0  0  0  0  0  0  0  0  0
  -28.9221  -29.8025  -16.7401 N   0  0  0  0  0  0  0  0  0  0  0  0
  -27.6219  -29.9903  -16.9500 C   0  0  0  0  0  0  0  0  0  0  0  0
  -26.8188  -29.9995  -15.8266 C   0  0  0  0  0  0  0  0  0  0  0  0
  -25.4602  -30.2725  -15.8951 C   0  0  0  0  0  0  0  0  0  0  0  0
  -24.8701  -30.4718  -17.1232 C   0  0  0  0  0  0  0  0  0  0  0  0
  -25.6472  -30.3888  -18.2692 C   0  0  0  0  0  0  0  0  0  0  0  0
  -27.0624  -30.2186  -18.2203 C   0  0  0  0  0  0  0  0  0  0  0  0
  1  2  2  0
  2  3  1  0
  3  4  1  0
  4  5  1  0
  5  6  1  0
  6  7  1  0
  7  8  1  0
  8  9  2  0
  2 10  1  0
 10 11  1  0
 11 12  1  0
 12 13  2  0
 12 14  1  0
 14 15  2  0
 15 16  1  0
 16 17  1  0
 16 18  2  0
 18 19  1  0
 19 20  2  0
 20 21  1  0
 21 22  2  0
 22 23  1  0
 23 24  2  0
  8  4  1  0
 24 14  1  0
 24 19  1  0
M  END
>  <id>  (124) 
264931

>  <inchikey>  (124) 
DQZRFKWXYOITOM-UHFFFAOYSA-N

>  <alias>  (124) 
None

>  <smiles>  (124) 
O=C(CN1CCCC1=O)NNC(=O)c1cc(O)nc2ccccc12

>  <path>  (124) 
/opt/xchem-fragalysis-2/maxwin/RdRp_FFF/syndirella/mar_elabs/elabs_024/NLPSSNMFGBLZAP-UHFFFAOYSA-N/output/NLPSSNMFGBLZAP-UHFFFAOYSA-N-FPqWEK-822-A/NLPSSNMFGBLZAP-UHFFFAOYSA-N-FPqWEK-822-A.minimised.mol

>  <distance_score>  (124) 
1.190486

>  <energy_score>  (124) 
-8.882385

>  <compound>  (124) 
DQZRFKWXYOITOM-UHFFFAOYSA-N

>  <compound_id>  (124) 
106297

>  <target>  (124) 
Flavi_NS5_RdRp

>  <tags>  (124) 
[]

>  <inspirations>  (124) 
{P Ã— 2}

>  <subsites>  (124) 
None

>  <reference>  (124) 
z1018a

>  <SLURM_JOB_ID>  (124) 
nan

>  <SLURM_JOB_NAME>  (124) 
nan

>  <csv_name>  (124) 
nan

>  <scratch_subdir>  (124) 
nan

>  <fragmenstein_runtime>  (124) 
nan

>  <fragmenstein_outcome>  (124) 
nan

>  <fragmenstein_mode>  (124) 
nan

>  <fragmenstein_error>  (124) 
nan

>  <exports>  (124) 
nan

>  <Multi-SuCOS>  (124) 
nan

>  <merge_set>  (124) 
nan

$$$$
SODKAPJXXZRQTP-LLVKDONJSA-N
     RDKit          3D

 25 27  0  0  0  0  0  0  0  0999 V2000
  -20.5333  -32.3455  -26.1912 C   0  0  0  0  0  0  0  0  0  0  0  0
  -20.9139  -32.0797  -24.8507 O   0  0  0  0  0  0  0  0  0  0  0  0
  -21.2926  -33.2390  -24.1072 C   0  0  2  0  0  0  0  0  0  0  0  0
  -22.5401  -33.9185  -24.6653 C   0  0  0  0  0  0  0  0  0  0  0  0
  -23.6525  -33.1818  -23.9724 C   0  0  0  0  0  0  0  0  0  0  0  0
  -24.8047  -33.1259  -24.3720 O   0  0  0  0  0  0  0  0  0  0  0  0
  -23.1523  -32.6506  -22.7984 N   0  0  0  0  0  0  0  0  0  0  0  0
  -23.9253  -31.8223  -21.8853 C   0  0  0  0  0  0  0  0  0  0  0  0
  -25.0066  -32.6102  -21.1254 C   0  0  0  0  0  0  0  0  0  0  0  0
  -26.0330  -31.7746  -20.5307 N   0  0  0  0  0  0  0  0  0  0  0  0
  -26.9631  -30.7316  -21.1671 C   0  0  0  0  0  0  0  0  0  0  0  0
  -27.0025  -30.3203  -22.2553 O   0  0  0  0  0  0  0  0  0  0  0  0
  -28.0460  -30.2378  -20.2444 C   0  0  0  0  0  0  0  0  0  0  0  0
  -29.2345  -29.9003  -20.8885 C   0  0  0  0  0  0  0  0  0  0  0  0
  -30.3647  -29.7733  -20.1390 C   0  0  0  0  0  0  0  0  0  0  0  0
  -31.5564  -29.5758  -20.7396 O   0  0  0  0  0  0  0  0  0  0  0  0
  -30.4047  -29.8380  -18.8148 N   0  0  0  0  0  0  0  0  0  0  0  0
  -29.2330  -29.9255  -18.1887 C   0  0  0  0  0  0  0  0  0  0  0  0
  -29.2834  -29.8021  -16.8212 C   0  0  0  0  0  0  0  0  0  0  0  0
  -28.1216  -29.7962  -16.0708 C   0  0  0  0  0  0  0  0  0  0  0  0
  -28.2068  -29.6876  -14.7403 F   0  0  0  0  0  0  0  0  0  0  0  0
  -26.8793  -29.9084  -16.6718 C   0  0  0  0  0  0  0  0  0  0  0  0
  -26.8085  -30.0841  -18.0513 C   0  0  0  0  0  0  0  0  0  0  0  0
  -27.9869  -30.1104  -18.8407 C   0  0  0  0  0  0  0  0  0  0  0  0
  -21.7161  -32.7995  -22.7018 C   0  0  0  0  0  0  0  0  0  0  0  0
  1  2  1  0
  3  2  1  6
  3  4  1  0
  4  5  1  0
  5  6  2  0
  5  7  1  0
  7  8  1  0
  8  9  1  0
  9 10  1  0
 10 11  1  0
 11 12  2  0
 11 13  1  0
 13 14  2  0
 14 15  1  0
 15 16  1  0
 15 17  2  0
 17 18  1  0
 18 19  2  0
 19 20  1  0
 20 21  1  0
 20 22  2  0
 22 23  1  0
 23 24  2  0
  7 25  1  0
 25  3  1  0
 24 13  1  0
 24 18  1  0
M  END
>  <id>  (125) 
266910

>  <inchikey>  (125) 
SODKAPJXXZRQTP-LLVKDONJSA-N

>  <alias>  (125) 
None

>  <smiles>  (125) 
CO[C@@H]1CC(=O)N(CCNC(=O)c2cc(O)nc3cc(F)ccc23)C1

>  <path>  (125) 
/opt/xchem-fragalysis-2/maxwin/RdRp_FFF/syndirella/mar_elabs/elabs_024/NLPSSNMFGBLZAP-UHFFFAOYSA-N/output/NLPSSNMFGBLZAP-UHFFFAOYSA-N-FPqWEK-3337-A/NLPSSNMFGBLZAP-UHFFFAOYSA-N-FPqWEK-3337-A.minimised.mol

>  <distance_score>  (125) 
0.728975

>  <energy_score>  (125) 
-25.314167

>  <compound>  (125) 
SODKAPJXXZRQTP-UHFFFAOYSA-N

>  <compound_id>  (125) 
108356

>  <target>  (125) 
Flavi_NS5_RdRp

>  <tags>  (125) 
[]

>  <inspirations>  (125) 
{P Ã— 2}

>  <subsites>  (125) 
None

>  <reference>  (125) 
z1018a

>  <SLURM_JOB_ID>  (125) 
nan

>  <SLURM_JOB_NAME>  (125) 
nan

>  <csv_name>  (125) 
nan

>  <scratch_subdir>  (125) 
nan

>  <fragmenstein_runtime>  (125) 
nan

>  <fragmenstein_outcome>  (125) 
nan

>  <fragmenstein_mode>  (125) 
nan

>  <fragmenstein_error>  (125) 
nan

>  <exports>  (125) 
nan

>  <Multi-SuCOS>  (125) 
nan

>  <merge_set>  (125) 
nan

$$$$
ZENUOLXDWDFGCI-UHFFFAOYSA-N
     RDKit          3D

 25 27  0  0  0  0  0  0  0  0999 V2000
  -26.5367  -35.0580  -22.0898 O   0  0  0  0  0  0  0  0  0  0  0  0
  -25.6687  -34.2932  -22.2456 C   0  0  0  0  0  0  0  0  0  0  0  0
  -24.3862  -34.6581  -23.0132 C   0  0  0  0  0  0  0  0  0  0  0  0
  -23.4058  -33.5953  -23.2133 N   0  0  0  0  0  0  0  0  0  0  0  0
  -22.1674  -33.4677  -22.4793 C   0  0  0  0  0  0  0  0  0  0  0  0
  -21.1809  -33.0521  -23.5528 C   0  0  0  0  0  0  0  0  0  0  0  0
  -22.0324  -32.2216  -24.5035 C   0  0  0  0  0  0  0  0  0  0  0  0
  -23.3901  -32.8583  -24.3813 C   0  0  0  0  0  0  0  0  0  0  0  0
  -24.3305  -32.7488  -25.1477 O   0  0  0  0  0  0  0  0  0  0  0  0
  -25.4873  -32.8569  -21.6986 N   0  0  0  0  0  0  0  0  0  0  0  0
  -26.2326  -32.1550  -20.8371 N   0  0  0  0  0  0  0  0  0  0  0  0
  -27.0675  -30.8805  -21.0458 C   0  0  0  0  0  0  0  0  0  0  0  0
  -27.3014  -30.2826  -22.0162 O   0  0  0  0  0  0  0  0  0  0  0  0
  -27.6080  -30.4128  -19.7318 C   0  0  0  0  0  0  0  0  0  0  0  0
  -28.9655  -30.1297  -19.6738 C   0  0  0  0  0  0  0  0  0  0  0  0
  -29.4689  -29.8303  -18.4372 C   0  0  0  0  0  0  0  0  0  0  0  0
  -30.7976  -29.6909  -18.2627 O   0  0  0  0  0  0  0  0  0  0  0  0
  -28.7685  -29.7252  -17.3012 N   0  0  0  0  0  0  0  0  0  0  0  0
  -27.4563  -29.9727  -17.3719 C   0  0  0  0  0  0  0  0  0  0  0  0
  -26.7387  -29.9506  -16.1945 C   0  0  0  0  0  0  0  0  0  0  0  0
  -25.3981  -30.3024  -16.1692 C   0  0  0  0  0  0  0  0  0  0  0  0
  -24.7696  -30.3835  -14.9927 F   0  0  0  0  0  0  0  0  0  0  0  0
  -24.7132  -30.6036  -17.3263 C   0  0  0  0  0  0  0  0  0  0  0  0
  -25.3995  -30.5747  -18.5260 C   0  0  0  0  0  0  0  0  0  0  0  0
  -26.7976  -30.3257  -18.5682 C   0  0  0  0  0  0  0  0  0  0  0  0
  1  2  2  0
  2  3  1  0
  3  4  1  0
  4  5  1  0
  5  6  1  0
  6  7  1  0
  7  8  1  0
  8  9  2  0
  2 10  1  0
 10 11  1  0
 11 12  1  0
 12 13  2  0
 12 14  1  0
 14 15  2  0
 15 16  1  0
 16 17  1  0
 16 18  2  0
 18 19  1  0
 19 20  2  0
 20 21  1  0
 21 22  1  0
 21 23  2  0
 23 24  1  0
 24 25  2  0
  8  4  1  0
 25 14  1  0
 25 19  1  0
M  END
>  <id>  (126) 
266987

>  <inchikey>  (126) 
ZENUOLXDWDFGCI-UHFFFAOYSA-N

>  <alias>  (126) 
None

>  <smiles>  (126) 
O=C(CN1CCCC1=O)NNC(=O)c1cc(O)nc2cc(F)ccc12

>  <path>  (126) 
/opt/xchem-fragalysis-2/maxwin/RdRp_FFF/syndirella/mar_elabs/elabs_024/NLPSSNMFGBLZAP-UHFFFAOYSA-N/output/NLPSSNMFGBLZAP-UHFFFAOYSA-N-FPqWEK-3377-A/NLPSSNMFGBLZAP-UHFFFAOYSA-N-FPqWEK-3377-A.minimised.mol

>  <distance_score>  (126) 
1.503267

>  <energy_score>  (126) 
-13.094176

>  <compound>  (126) 
ZENUOLXDWDFGCI-UHFFFAOYSA-N

>  <compound_id>  (126) 
108396

>  <target>  (126) 
Flavi_NS5_RdRp

>  <tags>  (126) 
[]

>  <inspirations>  (126) 
{P Ã— 2}

>  <subsites>  (126) 
None

>  <reference>  (126) 
z1018a

>  <SLURM_JOB_ID>  (126) 
nan

>  <SLURM_JOB_NAME>  (126) 
nan

>  <csv_name>  (126) 
nan

>  <scratch_subdir>  (126) 
nan

>  <fragmenstein_runtime>  (126) 
nan

>  <fragmenstein_outcome>  (126) 
nan

>  <fragmenstein_mode>  (126) 
nan

>  <fragmenstein_error>  (126) 
nan

>  <exports>  (126) 
nan

>  <Multi-SuCOS>  (126) 
nan

>  <merge_set>  (126) 
nan

$$$$
KEHKBVHIOQSSQD-NSHDSACASA-N
     RDKit          3D

 25 27  0  0  0  0  0  0  0  0999 V2000
  -26.8089  -30.4881  -22.1791 O   0  0  0  0  0  0  0  0  0  0  0  0
  -26.7973  -30.8572  -21.0744 C   0  0  0  0  0  0  0  0  0  0  0  0
  -25.8720  -31.8640  -20.3694 N   0  0  0  0  0  0  0  0  0  0  0  0
  -24.6816  -32.5735  -20.8602 C   0  0  2  0  0  0  0  0  0  0  0  0
  -23.7685  -32.9100  -19.6627 C   0  0  0  0  0  0  0  0  0  0  0  0
  -24.5325  -33.4123  -18.5621 O   0  0  0  0  0  0  0  0  0  0  0  0
  -23.8858  -31.7868  -21.9266 C   0  0  0  0  0  0  0  0  0  0  0  0
  -23.0531  -32.5953  -22.8058 N   0  0  0  0  0  0  0  0  0  0  0  0
  -21.6217  -32.7049  -22.6563 C   0  0  0  0  0  0  0  0  0  0  0  0
  -21.1436  -33.0237  -24.0617 C   0  0  0  0  0  0  0  0  0  0  0  0
  -22.3182  -33.7559  -24.6980 C   0  0  0  0  0  0  0  0  0  0  0  0
  -23.5062  -33.1583  -23.9882 C   0  0  0  0  0  0  0  0  0  0  0  0
  -24.6581  -33.1950  -24.3888 O   0  0  0  0  0  0  0  0  0  0  0  0
  -27.9114  -30.3203  -20.2034 C   0  0  0  0  0  0  0  0  0  0  0  0
  -29.0729  -29.9774  -20.8964 C   0  0  0  0  0  0  0  0  0  0  0  0
  -30.2297  -29.8038  -20.1928 C   0  0  0  0  0  0  0  0  0  0  0  0
  -31.3980  -29.5759  -20.8291 O   0  0  0  0  0  0  0  0  0  0  0  0
  -30.3215  -29.8478  -18.8702 N   0  0  0  0  0  0  0  0  0  0  0  0
  -29.1742  -29.9372  -18.2014 C   0  0  0  0  0  0  0  0  0  0  0  0
  -29.2747  -29.7921  -16.8389 C   0  0  0  0  0  0  0  0  0  0  0  0
  -28.1407  -29.7797  -16.0480 C   0  0  0  0  0  0  0  0  0  0  0  0
  -28.2731  -29.6602  -14.7221 F   0  0  0  0  0  0  0  0  0  0  0  0
  -26.8776  -29.8908  -16.6041 C   0  0  0  0  0  0  0  0  0  0  0  0
  -26.7560  -30.0832  -17.9779 C   0  0  0  0  0  0  0  0  0  0  0  0
  -27.9055  -30.1436  -18.8045 C   0  0  0  0  0  0  0  0  0  0  0  0
  1  2  2  0
  2  3  1  0
  3  4  1  0
  4  5  1  1
  5  6  1  0
  4  7  1  0
  7  8  1  0
  8  9  1  0
  9 10  1  0
 10 11  1  0
 11 12  1  0
 12 13  2  0
  2 14  1  0
 14 15  2  0
 15 16  1  0
 16 17  1  0
 16 18  2  0
 18 19  1  0
 19 20  2  0
 20 21  1  0
 21 22  1  0
 21 23  2  0
 23 24  1  0
 24 25  2  0
 12  8  1  0
 25 14  1  0
 25 19  1  0
M  END
>  <id>  (127) 
266988

>  <inchikey>  (127) 
KEHKBVHIOQSSQD-NSHDSACASA-N

>  <alias>  (127) 
None

>  <smiles>  (127) 
O=C(N[C@H](CO)CN1CCCC1=O)c1cc(O)nc2cc(F)ccc12

>  <path>  (127) 
/opt/xchem-fragalysis-2/maxwin/RdRp_FFF/syndirella/mar_elabs/elabs_024/NLPSSNMFGBLZAP-UHFFFAOYSA-N/output/NLPSSNMFGBLZAP-UHFFFAOYSA-N-FPqWEK-3380-A/NLPSSNMFGBLZAP-UHFFFAOYSA-N-FPqWEK-3380-A.minimised.mol

>  <distance_score>  (127) 
0.704672

>  <energy_score>  (127) 
-21.403138

>  <compound>  (127) 
KEHKBVHIOQSSQD-UHFFFAOYSA-N

>  <compound_id>  (127) 
108399

>  <target>  (127) 
Flavi_NS5_RdRp

>  <tags>  (127) 
[]

>  <inspirations>  (127) 
{P Ã— 2}

>  <subsites>  (127) 
None

>  <reference>  (127) 
z1018a

>  <SLURM_JOB_ID>  (127) 
nan

>  <SLURM_JOB_NAME>  (127) 
nan

>  <csv_name>  (127) 
nan

>  <scratch_subdir>  (127) 
nan

>  <fragmenstein_runtime>  (127) 
nan

>  <fragmenstein_outcome>  (127) 
nan

>  <fragmenstein_mode>  (127) 
nan

>  <fragmenstein_error>  (127) 
nan

>  <exports>  (127) 
nan

>  <Multi-SuCOS>  (127) 
nan

>  <merge_set>  (127) 
nan

$$$$
QONRTEXLBCRIOS-NSHDSACASA-N
     RDKit          3D

 25 27  0  0  0  0  0  0  0  0999 V2000
  -19.8272  -34.4726  -25.4259 C   0  0  0  0  0  0  0  0  0  0  0  0
  -21.1983  -34.6201  -25.1083 O   0  0  0  0  0  0  0  0  0  0  0  0
  -21.8677  -33.3607  -25.0403 C   0  0  1  0  0  0  0  0  0  0  0  0
  -23.3414  -33.6532  -25.2326 C   0  0  0  0  0  0  0  0  0  0  0  0
  -23.9755  -33.3469  -23.9132 C   0  0  0  0  0  0  0  0  0  0  0  0
  -25.1783  -33.4304  -23.7273 O   0  0  0  0  0  0  0  0  0  0  0  0
  -23.0113  -32.9446  -23.0057 N   0  0  0  0  0  0  0  0  0  0  0  0
  -23.3430  -32.2390  -21.7679 C   0  0  0  0  0  0  0  0  0  0  0  0
  -24.3949  -32.9377  -20.8814 C   0  0  0  0  0  0  0  0  0  0  0  0
  -25.5833  -32.1509  -20.5983 N   0  0  0  0  0  0  0  0  0  0  0  0
  -26.2957  -31.0797  -21.4394 C   0  0  0  0  0  0  0  0  0  0  0  0
  -26.0889  -30.7114  -22.5249 O   0  0  0  0  0  0  0  0  0  0  0  0
  -27.4817  -30.4547  -20.7348 C   0  0  0  0  0  0  0  0  0  0  0  0
  -28.5056  -29.9607  -21.5423 C   0  0  0  0  0  0  0  0  0  0  0  0
  -29.6982  -29.6170  -20.9561 C   0  0  0  0  0  0  0  0  0  0  0  0
  -30.7623  -29.2146  -21.6816 O   0  0  0  0  0  0  0  0  0  0  0  0
  -29.9482  -29.6648  -19.6571 N   0  0  0  0  0  0  0  0  0  0  0  0
  -28.9025  -29.9123  -18.8815 C   0  0  0  0  0  0  0  0  0  0  0  0
  -29.1315  -29.7674  -17.5457 C   0  0  0  0  0  0  0  0  0  0  0  0
  -28.0749  -29.8665  -16.6626 C   0  0  0  0  0  0  0  0  0  0  0  0
  -28.4489  -29.8415  -14.8531 Br  0  0  0  0  0  0  0  0  0  0  0  0
  -26.7719  -30.0699  -17.0810 C   0  0  0  0  0  0  0  0  0  0  0  0
  -26.5431  -30.3033  -18.4230 C   0  0  0  0  0  0  0  0  0  0  0  0
  -27.6109  -30.2666  -19.3483 C   0  0  0  0  0  0  0  0  0  0  0  0
  -21.7589  -32.6782  -23.6756 C   0  0  0  0  0  0  0  0  0  0  0  0
  1  2  1  0
  3  2  1  1
  3  4  1  0
  4  5  1  0
  5  6  2  0
  5  7  1  0
  7  8  1  0
  8  9  1  0
  9 10  1  0
 10 11  1  0
 11 12  2  0
 11 13  1  0
 13 14  2  0
 14 15  1  0
 15 16  1  0
 15 17  2  0
 17 18  1  0
 18 19  2  0
 19 20  1  0
 20 21  1  0
 20 22  2  0
 22 23  1  0
 23 24  2  0
  7 25  1  0
 25  3  1  0
 24 13  1  0
 24 18  1  0
M  END
>  <id>  (128) 
267998

>  <inchikey>  (128) 
QONRTEXLBCRIOS-NSHDSACASA-N

>  <alias>  (128) 
None

>  <smiles>  (128) 
CO[C@H]1CC(=O)N(CCNC(=O)c2cc(O)nc3cc(Br)ccc23)C1

>  <path>  (128) 
/opt/xchem-fragalysis-2/maxwin/RdRp_FFF/syndirella/mar_elabs/elabs_024/NLPSSNMFGBLZAP-UHFFFAOYSA-N/output/NLPSSNMFGBLZAP-UHFFFAOYSA-N-FPqWEK-4255-B/NLPSSNMFGBLZAP-UHFFFAOYSA-N-FPqWEK-4255-B.minimised.mol

>  <distance_score>  (128) 
0.864576

>  <energy_score>  (128) 
-10.448021

>  <compound>  (128) 
QONRTEXLBCRIOS-UHFFFAOYSA-N

>  <compound_id>  (128) 
109274

>  <target>  (128) 
Flavi_NS5_RdRp

>  <tags>  (128) 
[]

>  <inspirations>  (128) 
{P Ã— 2}

>  <subsites>  (128) 
None

>  <reference>  (128) 
z1018a

>  <SLURM_JOB_ID>  (128) 
nan

>  <SLURM_JOB_NAME>  (128) 
nan

>  <csv_name>  (128) 
nan

>  <scratch_subdir>  (128) 
nan

>  <fragmenstein_runtime>  (128) 
nan

>  <fragmenstein_outcome>  (128) 
nan

>  <fragmenstein_mode>  (128) 
nan

>  <fragmenstein_error>  (128) 
nan

>  <exports>  (128) 
nan

>  <Multi-SuCOS>  (128) 
nan

>  <merge_set>  (128) 
nan

$$$$
KNYBAVOAJGWTMK-UHFFFAOYSA-N
     RDKit          3D

 19 21  0  0  0  0  0  0  0  0999 V2000
  -12.4074  -37.7872  -22.1814 C   0  0  0  0  0  0  0  0  0  0  0  0
  -13.3177  -38.8294  -22.6006 N   0  0  0  0  0  0  0  0  0  0  0  0
  -13.4641  -40.0553  -22.0398 C   0  0  0  0  0  0  0  0  0  0  0  0
  -14.4890  -40.6933  -22.7382 C   0  0  0  0  0  0  0  0  0  0  0  0
  -15.0666  -42.0046  -22.4432 C   0  0  0  0  0  0  0  0  0  0  0  0
  -15.5350  -42.6947  -23.2532 O   0  0  0  0  0  0  0  0  0  0  0  0
  -14.8163  -42.2513  -20.9510 N   0  0  0  0  0  0  0  0  0  0  0  0
  -14.9942  -43.3880  -20.1863 C   0  0  0  0  0  0  0  0  0  0  0  0
  -14.1518  -43.3140  -19.0778 C   0  0  0  0  0  0  0  0  0  0  0  0
  -14.1254  -44.3218  -18.1583 C   0  0  0  0  0  0  0  0  0  0  0  0
  -14.9111  -45.4232  -18.3866 C   0  0  0  0  0  0  0  0  0  0  0  0
  -15.7345  -45.5369  -19.4397 N   0  0  0  0  0  0  0  0  0  0  0  0
  -15.8208  -44.5071  -20.3400 C   0  0  0  0  0  0  0  0  0  0  0  0
  -16.9747  -44.6120  -21.3045 C   0  0  0  0  0  0  0  0  0  0  0  0
  -17.5146  -45.9983  -21.6345 C   0  0  0  0  0  0  0  0  0  0  0  0
  -16.8336  -45.1776  -22.6817 C   0  0  0  0  0  0  0  0  0  0  0  0
  -14.7656  -39.8071  -23.7918 C   0  0  0  0  0  0  0  0  0  0  0  0
  -15.8194  -40.0701  -25.0912 Cl  0  0  0  0  0  0  0  0  0  0  0  0
  -14.1206  -38.6420  -23.6495 N   0  0  0  0  0  0  0  0  0  0  0  0
  1  2  1  0
  2  3  1  0
  3  4  2  0
  4  5  1  0
  5  6  2  0
  5  7  1  0
  7  8  1  0
  8  9  2  0
  9 10  1  0
 10 11  2  0
 11 12  1  0
 12 13  2  0
 13 14  1  0
 14 15  1  0
 15 16  1  0
  4 17  1  0
 17 18  1  0
 17 19  2  0
 19  2  1  0
 13  8  1  0
 16 14  1  0
M  END
>  <id>  (129) 
268529

>  <inchikey>  (129) 
KNYBAVOAJGWTMK-UHFFFAOYSA-N

>  <alias>  (129) 
None

>  <smiles>  (129) 
Cn1cc(C(=O)Nc2cccnc2C2CC2)c(Cl)n1

>  <path>  (129) 
/opt/xchem-fragalysis-2/maxwin/RdRp_FFF/syndirella/mar_elabs/elabs_003/OUADHXQUGPVFPL-UHFFFAOYSA-N/output/OUADHXQUGPVFPL-UHFFFAOYSA-N-DvyXmN-187-A/OUADHXQUGPVFPL-UHFFFAOYSA-N-DvyXmN-187-A.minimised.mol

>  <distance_score>  (129) 
1.479647

>  <energy_score>  (129) 
-12.487793

>  <compound>  (129) 
KNYBAVOAJGWTMK-UHFFFAOYSA-N

>  <compound_id>  (129) 
109988

>  <target>  (129) 
Flavi_NS5_RdRp

>  <tags>  (129) 
[]

>  <inspirations>  (129) 
{P Ã— 2}

>  <subsites>  (129) 
None

>  <reference>  (129) 
d0160a

>  <SLURM_JOB_ID>  (129) 
nan

>  <SLURM_JOB_NAME>  (129) 
nan

>  <csv_name>  (129) 
nan

>  <scratch_subdir>  (129) 
nan

>  <fragmenstein_runtime>  (129) 
nan

>  <fragmenstein_outcome>  (129) 
nan

>  <fragmenstein_mode>  (129) 
nan

>  <fragmenstein_error>  (129) 
nan

>  <exports>  (129) 
nan

>  <Multi-SuCOS>  (129) 
nan

>  <merge_set>  (129) 
nan

$$$$
UPOGFXZQHTYELY-UHFFFAOYSA-N
     RDKit          3D

 19 21  0  0  0  0  0  0  0  0999 V2000
  -12.6789  -37.7979  -22.0333 C   0  0  0  0  0  0  0  0  0  0  0  0
  -13.5381  -38.8602  -22.5022 N   0  0  0  0  0  0  0  0  0  0  0  0
  -13.9800  -39.9293  -21.7971 C   0  0  0  0  0  0  0  0  0  0  0  0
  -14.7513  -40.6960  -22.6703 C   0  0  0  0  0  0  0  0  0  0  0  0
  -15.4327  -41.9343  -22.3033 C   0  0  0  0  0  0  0  0  0  0  0  0
  -16.5031  -42.2098  -22.6665 O   0  0  0  0  0  0  0  0  0  0  0  0
  -14.5006  -42.6525  -21.3206 N   0  0  0  0  0  0  0  0  0  0  0  0
  -14.7128  -43.7678  -20.5327 C   0  0  0  0  0  0  0  0  0  0  0  0
  -13.9169  -43.6662  -19.3909 C   0  0  0  0  0  0  0  0  0  0  0  0
  -14.1484  -44.4848  -18.3208 C   0  0  0  0  0  0  0  0  0  0  0  0
  -15.0470  -45.5090  -18.4763 C   0  0  0  0  0  0  0  0  0  0  0  0
  -15.7467  -45.7117  -19.6045 N   0  0  0  0  0  0  0  0  0  0  0  0
  -15.6419  -44.8112  -20.6320 C   0  0  0  0  0  0  0  0  0  0  0  0
  -16.5420  -45.0682  -21.8195 C   0  0  0  0  0  0  0  0  0  0  0  0
  -17.5934  -46.1663  -21.7592 C   0  0  0  0  0  0  0  0  0  0  0  0
  -18.0121  -44.7317  -21.7186 C   0  0  0  0  0  0  0  0  0  0  0  0
  -14.7432  -39.9490  -23.8576 C   0  0  0  0  0  0  0  0  0  0  0  0
  -15.7059  -40.4655  -25.6151 I   0  0  0  0  0  0  0  0  0  0  0  0
  -14.0045  -38.8384  -23.7500 N   0  0  0  0  0  0  0  0  0  0  0  0
  1  2  1  0
  2  3  1  0
  3  4  2  0
  4  5  1  0
  5  6  2  0
  5  7  1  0
  7  8  1  0
  8  9  2  0
  9 10  1  0
 10 11  2  0
 11 12  1  0
 12 13  2  0
 13 14  1  0
 14 15  1  0
 15 16  1  0
  4 17  1  0
 17 18  1  0
 17 19  2  0
 19  2  1  0
 13  8  1  0
 16 14  1  0
M  END
>  <id>  (130) 
268551

>  <inchikey>  (130) 
UPOGFXZQHTYELY-UHFFFAOYSA-N

>  <alias>  (130) 
None

>  <smiles>  (130) 
Cn1cc(C(=O)Nc2cccnc2C2CC2)c(I)n1

>  <path>  (130) 
/opt/xchem-fragalysis-2/maxwin/RdRp_FFF/syndirella/mar_elabs/elabs_003/OUADHXQUGPVFPL-UHFFFAOYSA-N/output/OUADHXQUGPVFPL-UHFFFAOYSA-N-DvyXmN-239-A/OUADHXQUGPVFPL-UHFFFAOYSA-N-DvyXmN-239-A.minimised.mol

>  <distance_score>  (130) 
1.418661

>  <energy_score>  (130) 
-31.170327

>  <compound>  (130) 
UPOGFXZQHTYELY-UHFFFAOYSA-N

>  <compound_id>  (130) 
110017

>  <target>  (130) 
Flavi_NS5_RdRp

>  <tags>  (130) 
[]

>  <inspirations>  (130) 
{P Ã— 2}

>  <subsites>  (130) 
None

>  <reference>  (130) 
d0160a

>  <SLURM_JOB_ID>  (130) 
nan

>  <SLURM_JOB_NAME>  (130) 
nan

>  <csv_name>  (130) 
nan

>  <scratch_subdir>  (130) 
nan

>  <fragmenstein_runtime>  (130) 
nan

>  <fragmenstein_outcome>  (130) 
nan

>  <fragmenstein_mode>  (130) 
nan

>  <fragmenstein_error>  (130) 
nan

>  <exports>  (130) 
nan

>  <Multi-SuCOS>  (130) 
nan

>  <merge_set>  (130) 
nan

$$$$
JYQQSUOCLXPCAZ-UHFFFAOYSA-N
     RDKit          3D

 18 20  0  0  0  0  0  0  0  0999 V2000
  -30.0622  -30.2078  -19.0858 C   0  0  0  0  0  0  0  0  0  0  0  0
  -28.6277  -30.1567  -19.0251 N   0  0  0  0  0  0  0  0  0  0  0  0
  -27.9169  -30.4766  -20.1199 N   0  0  0  0  0  0  0  0  0  0  0  0
  -26.6458  -30.4302  -19.7165 C   0  0  0  0  0  0  0  0  0  0  0  0
  -25.5876  -30.7205  -20.5167 N   0  0  0  0  0  0  0  0  0  0  0  0
  -25.5307  -31.0206  -22.0262 C   0  0  0  0  0  0  0  0  0  0  0  0
  -26.3535  -30.9908  -22.8160 O   0  0  0  0  0  0  0  0  0  0  0  0
  -24.0555  -31.3707  -22.1578 N   0  0  0  0  0  0  0  0  0  0  0  0
  -23.2284  -31.6817  -23.3806 C   0  0  0  0  0  0  0  0  0  0  0  0
  -22.4386  -32.6674  -22.5580 C   0  0  0  0  0  0  0  0  0  0  0  0
  -21.8548  -33.7956  -23.3747 C   0  0  0  0  0  0  0  0  0  0  0  0
  -21.4050  -32.1256  -21.6977 O   0  0  0  0  0  0  0  0  0  0  0  0
  -23.8100  -32.8950  -21.9385 C   0  0  0  0  0  0  0  0  0  0  0  0
  -26.5438  -30.0424  -18.3708 C   0  0  0  0  0  0  0  0  0  0  0  0
  -27.8423  -29.8860  -17.9440 C   0  0  0  0  0  0  0  0  0  0  0  0
  -28.2366  -29.4704  -16.5126 C   0  0  0  0  0  0  0  0  0  0  0  0
  -28.9149  -30.3185  -15.4949 C   0  0  0  0  0  0  0  0  0  0  0  0
  -27.4343  -30.1499  -15.4193 C   0  0  0  0  0  0  0  0  0  0  0  0
  1  2  1  0
  2  3  1  0
  3  4  2  0
  4  5  1  0
  5  6  1  0
  6  7  2  0
  6  8  1  0
  8  9  1  0
  9 10  1  0
 10 11  1  0
 10 12  1  0
 10 13  1  0
  4 14  1  0
 14 15  2  0
 15 16  1  0
 16 17  1  0
 17 18  1  0
 15  2  1  0
 18 16  1  0
 13  8  1  0
M  END
>  <id>  (131) 
273065

>  <inchikey>  (131) 
JYQQSUOCLXPCAZ-UHFFFAOYSA-N

>  <alias>  (131) 
None

>  <smiles>  (131) 
Cn1nc(NC(=O)N2CC(C)(O)C2)cc1C1CC1

>  <path>  (131) 
/opt/xchem-fragalysis-2/maxwin/RdRp_FFF/syndirella/mar_elabs/elabs_050/GLKYHQBKOTZYGD-UHFFFAOYSA-N/output/GLKYHQBKOTZYGD-UHFFFAOYSA-N-29RESB-50-A/GLKYHQBKOTZYGD-UHFFFAOYSA-N-29RESB-50-A.minimised.mol

>  <distance_score>  (131) 
1.154972

>  <energy_score>  (131) 
-22.461665

>  <compound>  (131) 
JYQQSUOCLXPCAZ-UHFFFAOYSA-N

>  <compound_id>  (131) 
113377

>  <target>  (131) 
Flavi_NS5_RdRp

>  <tags>  (131) 
[]

>  <inspirations>  (131) 
{P Ã— 2}

>  <subsites>  (131) 
None

>  <reference>  (131) 
z0211a

>  <SLURM_JOB_ID>  (131) 
nan

>  <SLURM_JOB_NAME>  (131) 
nan

>  <csv_name>  (131) 
nan

>  <scratch_subdir>  (131) 
nan

>  <fragmenstein_runtime>  (131) 
nan

>  <fragmenstein_outcome>  (131) 
nan

>  <fragmenstein_mode>  (131) 
nan

>  <fragmenstein_error>  (131) 
nan

>  <exports>  (131) 
nan

>  <Multi-SuCOS>  (131) 
nan

>  <merge_set>  (131) 
nan

$$$$
PASANJJPRMWHLN-MRVPVSSYSA-N
     RDKit          3D

 18 19  0  0  0  0  0  0  0  0999 V2000
  -30.2882  -30.1784  -19.4170 C   0  0  0  0  0  0  0  0  0  0  0  0
  -28.8680  -30.0260  -19.2657 N   0  0  0  0  0  0  0  0  0  0  0  0
  -28.0863  -30.1290  -20.3525 N   0  0  0  0  0  0  0  0  0  0  0  0
  -26.8572  -30.2477  -19.8559 C   0  0  0  0  0  0  0  0  0  0  0  0
  -25.7718  -30.6204  -20.5796 N   0  0  0  0  0  0  0  0  0  0  0  0
  -25.6051  -30.8210  -22.1060 C   0  0  0  0  0  0  0  0  0  0  0  0
  -26.3346  -30.6269  -22.9565 O   0  0  0  0  0  0  0  0  0  0  0  0
  -24.1927  -31.4586  -22.1245 N   0  0  0  0  0  0  0  0  0  0  0  0
  -23.4583  -32.0642  -23.2033 C   0  0  0  0  0  0  0  0  0  0  0  0
  -22.0312  -32.4059  -22.7822 C   0  0  2  0  0  0  0  0  0  0  0  0
  -21.1992  -31.2525  -22.6612 O   0  0  0  0  0  0  0  0  0  0  0  0
  -21.3603  -33.4267  -23.6914 C   0  0  0  0  0  0  0  0  0  0  0  0
  -21.4750  -33.0787  -25.4363 Cl  0  0  0  0  0  0  0  0  0  0  0  0
  -26.8349  -30.0608  -18.4640 C   0  0  0  0  0  0  0  0  0  0  0  0
  -28.1600  -30.0147  -18.0959 C   0  0  0  0  0  0  0  0  0  0  0  0
  -28.6998  -30.2907  -16.6678 C   0  0  0  0  0  0  0  0  0  0  0  0
  -28.7567  -29.3542  -15.5474 C   0  0  0  0  0  0  0  0  0  0  0  0
  -27.6378  -30.3263  -15.5720 C   0  0  0  0  0  0  0  0  0  0  0  0
  1  2  1  0
  2  3  1  0
  3  4  2  0
  4  5  1  0
  5  6  1  0
  6  7  2  0
  6  8  1  0
  8  9  1  0
  9 10  1  0
 10 11  1  6
 10 12  1  0
 12 13  1  0
  4 14  1  0
 14 15  2  0
 15 16  1  0
 16 17  1  0
 17 18  1  0
 15  2  1  0
 18 16  1  0
M  END
>  <id>  (132) 
273087

>  <inchikey>  (132) 
PASANJJPRMWHLN-MRVPVSSYSA-N

>  <alias>  (132) 
None

>  <smiles>  (132) 
Cn1nc(NC(=O)NC[C@H](O)CCl)cc1C1CC1

>  <path>  (132) 
/opt/xchem-fragalysis-2/maxwin/RdRp_FFF/syndirella/mar_elabs/elabs_050/GLKYHQBKOTZYGD-UHFFFAOYSA-N/output/GLKYHQBKOTZYGD-UHFFFAOYSA-N-29RESB-80-A/GLKYHQBKOTZYGD-UHFFFAOYSA-N-29RESB-80-A.minimised.mol

>  <distance_score>  (132) 
0.92443

>  <energy_score>  (132) 
-1.337859

>  <compound>  (132) 
PASANJJPRMWHLN-UHFFFAOYSA-N

>  <compound_id>  (132) 
113403

>  <target>  (132) 
Flavi_NS5_RdRp

>  <tags>  (132) 
[]

>  <inspirations>  (132) 
{P Ã— 2}

>  <subsites>  (132) 
None

>  <reference>  (132) 
z0211a

>  <SLURM_JOB_ID>  (132) 
nan

>  <SLURM_JOB_NAME>  (132) 
nan

>  <csv_name>  (132) 
nan

>  <scratch_subdir>  (132) 
nan

>  <fragmenstein_runtime>  (132) 
nan

>  <fragmenstein_outcome>  (132) 
nan

>  <fragmenstein_mode>  (132) 
nan

>  <fragmenstein_error>  (132) 
nan

>  <exports>  (132) 
nan

>  <Multi-SuCOS>  (132) 
nan

>  <merge_set>  (132) 
nan

$$$$
IWZUXUWLMPMXKY-VIFPVBQESA-N
     RDKit          3D

 18 19  0  0  0  0  0  0  0  0999 V2000
  -20.5337  -32.9618  -24.7368 C   0  0  0  0  0  0  0  0  0  0  0  0
  -21.9827  -33.1738  -24.3978 C   0  0  0  0  0  0  0  0  0  0  0  0
  -22.5006  -32.1297  -23.4151 C   0  0  2  0  0  0  0  0  0  0  0  0
  -21.8050  -32.2421  -22.1714 O   0  0  0  0  0  0  0  0  0  0  0  0
  -23.9923  -32.3777  -23.2412 C   0  0  0  0  0  0  0  0  0  0  0  0
  -24.5643  -31.7207  -22.1117 N   0  0  0  0  0  0  0  0  0  0  0  0
  -25.8879  -30.9376  -21.9751 C   0  0  0  0  0  0  0  0  0  0  0  0
  -26.6548  -30.6513  -22.7610 O   0  0  0  0  0  0  0  0  0  0  0  0
  -25.9109  -30.7484  -20.4458 N   0  0  0  0  0  0  0  0  0  0  0  0
  -26.8835  -30.2765  -19.6382 C   0  0  0  0  0  0  0  0  0  0  0  0
  -26.7226  -29.9406  -18.2904 C   0  0  0  0  0  0  0  0  0  0  0  0
  -28.0044  -29.7660  -17.8259 C   0  0  0  0  0  0  0  0  0  0  0  0
  -28.3512  -29.4354  -16.3661 C   0  0  0  0  0  0  0  0  0  0  0  0
  -27.4928  -30.1492  -15.3400 C   0  0  0  0  0  0  0  0  0  0  0  0
  -28.9686  -30.3632  -15.3836 C   0  0  0  0  0  0  0  0  0  0  0  0
  -28.8268  -29.9839  -18.8908 N   0  0  0  0  0  0  0  0  0  0  0  0
  -30.2484  -30.1736  -18.8879 C   0  0  0  0  0  0  0  0  0  0  0  0
  -28.1543  -30.2022  -20.0271 N   0  0  0  0  0  0  0  0  0  0  0  0
  1  2  1  0
  2  3  1  0
  3  4  1  1
  3  5  1  0
  5  6  1  0
  6  7  1  0
  7  8  2  0
  7  9  1  0
  9 10  1  0
 10 11  1  0
 11 12  2  0
 12 13  1  0
 13 14  1  0
 14 15  1  0
 12 16  1  0
 16 17  1  0
 16 18  1  0
 18 10  2  0
 15 13  1  0
M  END
>  <id>  (133) 
273095

>  <inchikey>  (133) 
IWZUXUWLMPMXKY-VIFPVBQESA-N

>  <alias>  (133) 
None

>  <smiles>  (133) 
CC[C@H](O)CNC(=O)Nc1cc(C2CC2)n(C)n1

>  <path>  (133) 
/opt/xchem-fragalysis-2/maxwin/RdRp_FFF/syndirella/mar_elabs/elabs_050/GLKYHQBKOTZYGD-UHFFFAOYSA-N/output/GLKYHQBKOTZYGD-UHFFFAOYSA-N-29RESB-85-A/GLKYHQBKOTZYGD-UHFFFAOYSA-N-29RESB-85-A.minimised.mol

>  <distance_score>  (133) 
1.019977

>  <energy_score>  (133) 
-0.348074

>  <compound>  (133) 
IWZUXUWLMPMXKY-UHFFFAOYSA-N

>  <compound_id>  (133) 
113407

>  <target>  (133) 
Flavi_NS5_RdRp

>  <tags>  (133) 
[]

>  <inspirations>  (133) 
{P Ã— 2}

>  <subsites>  (133) 
None

>  <reference>  (133) 
z0211a

>  <SLURM_JOB_ID>  (133) 
nan

>  <SLURM_JOB_NAME>  (133) 
nan

>  <csv_name>  (133) 
nan

>  <scratch_subdir>  (133) 
nan

>  <fragmenstein_runtime>  (133) 
nan

>  <fragmenstein_outcome>  (133) 
nan

>  <fragmenstein_mode>  (133) 
nan

>  <fragmenstein_error>  (133) 
nan

>  <exports>  (133) 
nan

>  <Multi-SuCOS>  (133) 
nan

>  <merge_set>  (133) 
nan

$$$$
QZSJOPCMBWBWHP-QMMMGPOBSA-N
     RDKit          3D

 18 19  0  0  0  0  0  0  0  0999 V2000
  -30.3550  -30.1817  -19.2607 C   0  0  0  0  0  0  0  0  0  0  0  0
  -28.9409  -29.9728  -19.1327 N   0  0  0  0  0  0  0  0  0  0  0  0
  -28.1839  -30.0053  -20.2379 N   0  0  0  0  0  0  0  0  0  0  0  0
  -26.9496  -30.1720  -19.7717 C   0  0  0  0  0  0  0  0  0  0  0  0
  -25.9046  -30.5659  -20.5365 N   0  0  0  0  0  0  0  0  0  0  0  0
  -25.8109  -30.7932  -22.0610 C   0  0  0  0  0  0  0  0  0  0  0  0
  -26.5762  -30.6070  -22.8792 O   0  0  0  0  0  0  0  0  0  0  0  0
  -24.4107  -31.4419  -22.1330 N   0  0  0  0  0  0  0  0  0  0  0  0
  -23.6570  -31.8990  -23.2625 C   0  0  0  0  0  0  0  0  0  0  0  0
  -22.3012  -32.4182  -22.8156 C   0  0  2  0  0  0  0  0  0  0  0  0
  -21.5861  -31.4199  -22.0639 O   0  0  0  0  0  0  0  0  0  0  0  0
  -21.4337  -32.8198  -23.9947 C   0  0  0  0  0  0  0  0  0  0  0  0
  -20.1688  -33.2294  -23.4941 O   0  0  0  0  0  0  0  0  0  0  0  0
  -26.8899  -30.0344  -18.3779 C   0  0  0  0  0  0  0  0  0  0  0  0
  -28.2066  -29.9964  -17.9796 C   0  0  0  0  0  0  0  0  0  0  0  0
  -28.7095  -30.3180  -16.5480 C   0  0  0  0  0  0  0  0  0  0  0  0
  -28.7475  -29.3965  -15.4143 C   0  0  0  0  0  0  0  0  0  0  0  0
  -27.6235  -30.3624  -15.4788 C   0  0  0  0  0  0  0  0  0  0  0  0
  1  2  1  0
  2  3  1  0
  3  4  2  0
  4  5  1  0
  5  6  1  0
  6  7  2  0
  6  8  1  0
  8  9  1  0
  9 10  1  0
 10 11  1  6
 10 12  1  0
 12 13  1  0
  4 14  1  0
 14 15  2  0
 15 16  1  0
 16 17  1  0
 17 18  1  0
 15  2  1  0
 18 16  1  0
M  END
>  <id>  (134) 
273097

>  <inchikey>  (134) 
QZSJOPCMBWBWHP-QMMMGPOBSA-N

>  <alias>  (134) 
None

>  <smiles>  (134) 
Cn1nc(NC(=O)NC[C@H](O)CO)cc1C1CC1

>  <path>  (134) 
/opt/xchem-fragalysis-2/maxwin/RdRp_FFF/syndirella/mar_elabs/elabs_050/GLKYHQBKOTZYGD-UHFFFAOYSA-N/output/GLKYHQBKOTZYGD-UHFFFAOYSA-N-29RESB-86-A/GLKYHQBKOTZYGD-UHFFFAOYSA-N-29RESB-86-A.minimised.mol

>  <distance_score>  (134) 
0.899282

>  <energy_score>  (134) 
-11.10393

>  <compound>  (134) 
QZSJOPCMBWBWHP-UHFFFAOYSA-N

>  <compound_id>  (134) 
113408

>  <target>  (134) 
Flavi_NS5_RdRp

>  <tags>  (134) 
[]

>  <inspirations>  (134) 
{P Ã— 2}

>  <subsites>  (134) 
None

>  <reference>  (134) 
z0211a

>  <SLURM_JOB_ID>  (134) 
nan

>  <SLURM_JOB_NAME>  (134) 
nan

>  <csv_name>  (134) 
nan

>  <scratch_subdir>  (134) 
nan

>  <fragmenstein_runtime>  (134) 
nan

>  <fragmenstein_outcome>  (134) 
nan

>  <fragmenstein_mode>  (134) 
nan

>  <fragmenstein_error>  (134) 
nan

>  <exports>  (134) 
nan

>  <Multi-SuCOS>  (134) 
nan

>  <merge_set>  (134) 
nan

$$$$
PFGYLRVZPPTUAD-MRVPVSSYSA-N
     RDKit          3D

 19 20  0  0  0  0  0  0  0  0999 V2000
  -22.2201  -33.6237  -21.3976 C   0  0  0  0  0  0  0  0  0  0  0  0
  -21.7952  -33.4910  -22.8552 C   0  0  1  0  0  0  0  0  0  0  0  0
  -22.2735  -34.6212  -23.5861 O   0  0  0  0  0  0  0  0  0  0  0  0
  -22.2048  -32.1610  -23.5154 C   0  0  0  0  0  0  0  0  0  0  0  0
  -23.6198  -31.8535  -23.7155 N   0  0  0  0  0  0  0  0  0  0  0  0
  -24.3624  -32.7188  -24.6137 C   0  0  0  0  0  0  0  0  0  0  0  0
  -24.3336  -31.4934  -22.5951 N   0  0  0  0  0  0  0  0  0  0  0  0
  -25.7210  -30.7618  -22.4639 C   0  0  0  0  0  0  0  0  0  0  0  0
  -26.4664  -30.4412  -23.2712 O   0  0  0  0  0  0  0  0  0  0  0  0
  -25.8288  -30.6946  -20.9074 N   0  0  0  0  0  0  0  0  0  0  0  0
  -26.8680  -30.3232  -20.1119 C   0  0  0  0  0  0  0  0  0  0  0  0
  -26.8011  -30.1960  -18.7111 C   0  0  0  0  0  0  0  0  0  0  0  0
  -28.1096  -30.0573  -18.3013 C   0  0  0  0  0  0  0  0  0  0  0  0
  -28.6344  -30.2629  -16.8564 C   0  0  0  0  0  0  0  0  0  0  0  0
  -28.7273  -29.2691  -15.7884 C   0  0  0  0  0  0  0  0  0  0  0  0
  -27.5776  -30.2079  -15.7613 C   0  0  0  0  0  0  0  0  0  0  0  0
  -28.8518  -30.0340  -19.4481 N   0  0  0  0  0  0  0  0  0  0  0  0
  -30.2802  -30.1485  -19.5551 C   0  0  0  0  0  0  0  0  0  0  0  0
  -28.1084  -30.1401  -20.5602 N   0  0  0  0  0  0  0  0  0  0  0  0
  2  1  1  1
  2  3  1  0
  2  4  1  0
  4  5  1  0
  5  6  1  0
  5  7  1  0
  7  8  1  0
  8  9  2  0
  8 10  1  0
 10 11  1  0
 11 12  1  0
 12 13  2  0
 13 14  1  0
 14 15  1  0
 15 16  1  0
 13 17  1  0
 17 18  1  0
 17 19  1  0
 19 11  2  0
 16 14  1  0
M  END
>  <id>  (135) 
273334

>  <inchikey>  (135) 
PFGYLRVZPPTUAD-MRVPVSSYSA-N

>  <alias>  (135) 
None

>  <smiles>  (135) 
C[C@@H](O)CN(C)NC(=O)Nc1cc(C2CC2)n(C)n1

>  <path>  (135) 
/opt/xchem-fragalysis-2/maxwin/RdRp_FFF/syndirella/mar_elabs/elabs_050/GLKYHQBKOTZYGD-UHFFFAOYSA-N/output/GLKYHQBKOTZYGD-UHFFFAOYSA-N-29RESB-438-A/GLKYHQBKOTZYGD-UHFFFAOYSA-N-29RESB-438-A.minimised.mol

>  <distance_score>  (135) 
1.032922

>  <energy_score>  (135) 
-16.776517

>  <compound>  (135) 
PFGYLRVZPPTUAD-UHFFFAOYSA-N

>  <compound_id>  (135) 
113623

>  <target>  (135) 
Flavi_NS5_RdRp

>  <tags>  (135) 
[]

>  <inspirations>  (135) 
{P Ã— 2}

>  <subsites>  (135) 
None

>  <reference>  (135) 
z0211a

>  <SLURM_JOB_ID>  (135) 
nan

>  <SLURM_JOB_NAME>  (135) 
nan

>  <csv_name>  (135) 
nan

>  <scratch_subdir>  (135) 
nan

>  <fragmenstein_runtime>  (135) 
nan

>  <fragmenstein_outcome>  (135) 
nan

>  <fragmenstein_mode>  (135) 
nan

>  <fragmenstein_error>  (135) 
nan

>  <exports>  (135) 
nan

>  <Multi-SuCOS>  (135) 
nan

>  <merge_set>  (135) 
nan

$$$$
QIQOGZOJEILRCK-ZETCQYMHSA-N
     RDKit          3D

 19 20  0  0  0  0  0  0  0  0999 V2000
  -20.6077  -32.1068  -20.5285 C   0  0  0  0  0  0  0  0  0  0  0  0
  -21.8337  -32.3659  -21.2002 O   0  0  0  0  0  0  0  0  0  0  0  0
  -21.7839  -32.1352  -22.6157 C   0  0  1  0  0  0  0  0  0  0  0  0
  -21.0786  -33.2676  -23.3360 C   0  0  0  0  0  0  0  0  0  0  0  0
  -23.2277  -31.9544  -23.1393 C   0  0  0  0  0  0  0  0  0  0  0  0
  -23.5163  -32.1621  -24.3210 N   0  0  0  0  0  0  0  0  0  0  0  0
  -24.0426  -31.4230  -21.9923 N   0  0  0  0  0  0  0  0  0  0  0  0
  -25.5964  -31.0395  -21.8631 C   0  0  0  0  0  0  0  0  0  0  0  0
  -26.4361  -31.0076  -22.6483 O   0  0  0  0  0  0  0  0  0  0  0  0
  -25.6272  -30.7317  -20.4255 N   0  0  0  0  0  0  0  0  0  0  0  0
  -26.6658  -30.4134  -19.6116 C   0  0  0  0  0  0  0  0  0  0  0  0
  -26.5441  -30.0077  -18.2728 C   0  0  0  0  0  0  0  0  0  0  0  0
  -27.8394  -29.8583  -17.8333 C   0  0  0  0  0  0  0  0  0  0  0  0
  -28.2297  -29.4590  -16.4014 C   0  0  0  0  0  0  0  0  0  0  0  0
  -27.4500  -30.1617  -15.3112 C   0  0  0  0  0  0  0  0  0  0  0  0
  -28.9294  -30.3298  -15.4165 C   0  0  0  0  0  0  0  0  0  0  0  0
  -28.6390  -30.1458  -18.8982 N   0  0  0  0  0  0  0  0  0  0  0  0
  -30.0750  -30.2254  -18.9452 C   0  0  0  0  0  0  0  0  0  0  0  0
  -27.9399  -30.4611  -19.9986 N   0  0  0  0  0  0  0  0  0  0  0  0
  1  2  1  0
  2  3  1  0
  3  4  1  6
  3  5  1  0
  5  6  2  3
  5  7  1  0
  7  8  1  0
  8  9  2  0
  8 10  1  0
 10 11  1  0
 11 12  1  0
 12 13  2  0
 13 14  1  0
 14 15  1  0
 15 16  1  0
 13 17  1  0
 17 18  1  0
 17 19  1  0
 19 11  2  0
 16 14  1  0
M  END
>  <id>  (136) 
273341

>  <inchikey>  (136) 
QIQOGZOJEILRCK-ZETCQYMHSA-N

>  <alias>  (136) 
None

>  <smiles>  (136) 
CO[C@@H](C)C(=N)NC(=O)Nc1cc(C2CC2)n(C)n1

>  <path>  (136) 
/opt/xchem-fragalysis-2/maxwin/RdRp_FFF/syndirella/mar_elabs/elabs_050/GLKYHQBKOTZYGD-UHFFFAOYSA-N/output/GLKYHQBKOTZYGD-UHFFFAOYSA-N-29RESB-453-B/GLKYHQBKOTZYGD-UHFFFAOYSA-N-29RESB-453-B.minimised.mol

>  <distance_score>  (136) 
1.100964

>  <energy_score>  (136) 
-19.278461

>  <compound>  (136) 
QIQOGZOJEILRCK-UHFFFAOYSA-N

>  <compound_id>  (136) 
113634

>  <target>  (136) 
Flavi_NS5_RdRp

>  <tags>  (136) 
[]

>  <inspirations>  (136) 
{P Ã— 2}

>  <subsites>  (136) 
None

>  <reference>  (136) 
z0211a

>  <SLURM_JOB_ID>  (136) 
nan

>  <SLURM_JOB_NAME>  (136) 
nan

>  <csv_name>  (136) 
nan

>  <scratch_subdir>  (136) 
nan

>  <fragmenstein_runtime>  (136) 
nan

>  <fragmenstein_outcome>  (136) 
nan

>  <fragmenstein_mode>  (136) 
nan

>  <fragmenstein_error>  (136) 
nan

>  <exports>  (136) 
nan

>  <Multi-SuCOS>  (136) 
nan

>  <merge_set>  (136) 
nan

$$$$
UCHQOCOVGMFJNW-KCJUWKMLSA-N
     RDKit          3D

 19 20  0  0  0  0  0  0  0  0999 V2000
  -21.4568  -33.2332  -25.5060 C   0  0  0  0  0  0  0  0  0  0  0  0
  -21.2698  -33.1759  -23.9984 C   0  0  0  0  0  0  0  0  0  0  0  0
  -22.0969  -32.0939  -23.3031 C   0  0  2  0  0  0  0  0  0  0  0  0
  -21.6173  -32.0041  -21.9512 O   0  0  0  0  0  0  0  0  0  0  0  0
  -23.6289  -32.3257  -23.3102 C   0  0  1  0  0  0  0  0  0  0  0  0
  -24.0612  -33.7967  -23.2879 C   0  0  0  0  0  0  0  0  0  0  0  0
  -24.2690  -31.6955  -22.1740 N   0  0  0  0  0  0  0  0  0  0  0  0
  -25.6415  -30.9833  -22.0630 C   0  0  0  0  0  0  0  0  0  0  0  0
  -26.4076  -30.7360  -22.8660 O   0  0  0  0  0  0  0  0  0  0  0  0
  -25.7079  -30.8000  -20.5268 N   0  0  0  0  0  0  0  0  0  0  0  0
  -26.7275  -30.3823  -19.7353 C   0  0  0  0  0  0  0  0  0  0  0  0
  -26.6021  -30.0438  -18.3791 C   0  0  0  0  0  0  0  0  0  0  0  0
  -27.8914  -29.8451  -17.9420 C   0  0  0  0  0  0  0  0  0  0  0  0
  -28.2685  -29.4571  -16.4980 C   0  0  0  0  0  0  0  0  0  0  0  0
  -27.4548  -30.1497  -15.4220 C   0  0  0  0  0  0  0  0  0  0  0  0
  -28.9351  -30.3259  -15.4909 C   0  0  0  0  0  0  0  0  0  0  0  0
  -28.6913  -30.0666  -19.0243 N   0  0  0  0  0  0  0  0  0  0  0  0
  -30.1229  -30.1744  -19.0580 C   0  0  0  0  0  0  0  0  0  0  0  0
  -27.9953  -30.3252  -20.1431 N   0  0  0  0  0  0  0  0  0  0  0  0
  1  2  1  0
  2  3  1  0
  3  4  1  1
  3  5  1  0
  5  6  1  1
  5  7  1  0
  7  8  1  0
  8  9  2  0
  8 10  1  0
 10 11  1  0
 11 12  1  0
 12 13  2  0
 13 14  1  0
 14 15  1  0
 15 16  1  0
 13 17  1  0
 17 18  1  0
 17 19  1  0
 19 11  2  0
 16 14  1  0
M  END
>  <id>  (137) 
273343

>  <inchikey>  (137) 
UCHQOCOVGMFJNW-KCJUWKMLSA-N

>  <alias>  (137) 
None

>  <smiles>  (137) 
CC[C@H](O)[C@@H](C)NC(=O)Nc1cc(C2CC2)n(C)n1

>  <path>  (137) 
/opt/xchem-fragalysis-2/maxwin/RdRp_FFF/syndirella/mar_elabs/elabs_050/GLKYHQBKOTZYGD-UHFFFAOYSA-N/output/GLKYHQBKOTZYGD-UHFFFAOYSA-N-29RESB-454-C/GLKYHQBKOTZYGD-UHFFFAOYSA-N-29RESB-454-C.minimised.mol

>  <distance_score>  (137) 
1.052932

>  <energy_score>  (137) 
-22.800126

>  <compound>  (137) 
UCHQOCOVGMFJNW-UHFFFAOYSA-N

>  <compound_id>  (137) 
113635

>  <target>  (137) 
Flavi_NS5_RdRp

>  <tags>  (137) 
[]

>  <inspirations>  (137) 
{P Ã— 2}

>  <subsites>  (137) 
None

>  <reference>  (137) 
z0211a

>  <SLURM_JOB_ID>  (137) 
nan

>  <SLURM_JOB_NAME>  (137) 
nan

>  <csv_name>  (137) 
nan

>  <scratch_subdir>  (137) 
nan

>  <fragmenstein_runtime>  (137) 
nan

>  <fragmenstein_outcome>  (137) 
nan

>  <fragmenstein_mode>  (137) 
nan

>  <fragmenstein_error>  (137) 
nan

>  <exports>  (137) 
nan

>  <Multi-SuCOS>  (137) 
nan

>  <merge_set>  (137) 
nan

$$$$
FGYOQYHQZUUISP-SECBINFHSA-N
     RDKit          3D

 19 20  0  0  0  0  0  0  0  0999 V2000
  -23.0982  -34.5580  -25.8073 C   0  0  0  0  0  0  0  0  0  0  0  0
  -21.6987  -33.4104  -25.9125 S   0  0  0  0  0  0  0  0  0  0  0  0
  -21.3636  -33.1519  -24.1215 C   0  0  0  0  0  0  0  0  0  0  0  0
  -22.1348  -32.0173  -23.4381 C   0  0  2  0  0  0  0  0  0  0  0  0
  -21.5642  -31.8139  -22.1327 O   0  0  0  0  0  0  0  0  0  0  0  0
  -23.6236  -32.3299  -23.3063 C   0  0  0  0  0  0  0  0  0  0  0  0
  -24.2588  -31.7112  -22.1769 N   0  0  0  0  0  0  0  0  0  0  0  0
  -25.6310  -30.9986  -22.0631 C   0  0  0  0  0  0  0  0  0  0  0  0
  -26.3961  -30.7462  -22.8653 O   0  0  0  0  0  0  0  0  0  0  0  0
  -25.6987  -30.8238  -20.5258 N   0  0  0  0  0  0  0  0  0  0  0  0
  -26.7189  -30.4097  -19.7329 C   0  0  0  0  0  0  0  0  0  0  0  0
  -26.5931  -30.0646  -18.3785 C   0  0  0  0  0  0  0  0  0  0  0  0
  -27.8819  -29.8587  -17.9430 C   0  0  0  0  0  0  0  0  0  0  0  0
  -28.2583  -29.4616  -16.5014 C   0  0  0  0  0  0  0  0  0  0  0  0
  -28.9276  -30.3237  -15.4900 C   0  0  0  0  0  0  0  0  0  0  0  0
  -27.4470  -30.1503  -15.4211 C   0  0  0  0  0  0  0  0  0  0  0  0
  -28.6823  -30.0793  -19.0251 N   0  0  0  0  0  0  0  0  0  0  0  0
  -30.1152  -30.1690  -19.0613 C   0  0  0  0  0  0  0  0  0  0  0  0
  -27.9874  -30.3574  -20.1399 N   0  0  0  0  0  0  0  0  0  0  0  0
  1  2  1  0
  2  3  1  0
  3  4  1  0
  4  5  1  1
  4  6  1  0
  6  7  1  0
  7  8  1  0
  8  9  2  0
  8 10  1  0
 10 11  1  0
 11 12  1  0
 12 13  2  0
 13 14  1  0
 14 15  1  0
 15 16  1  0
 13 17  1  0
 17 18  1  0
 17 19  1  0
 19 11  2  0
 16 14  1  0
M  END
>  <id>  (138) 
273345

>  <inchikey>  (138) 
FGYOQYHQZUUISP-SECBINFHSA-N

>  <alias>  (138) 
None

>  <smiles>  (138) 
CSC[C@H](O)CNC(=O)Nc1cc(C2CC2)n(C)n1

>  <path>  (138) 
/opt/xchem-fragalysis-2/maxwin/RdRp_FFF/syndirella/mar_elabs/elabs_050/GLKYHQBKOTZYGD-UHFFFAOYSA-N/output/GLKYHQBKOTZYGD-UHFFFAOYSA-N-29RESB-455-A/GLKYHQBKOTZYGD-UHFFFAOYSA-N-29RESB-455-A.minimised.mol

>  <distance_score>  (138) 
0.981365

>  <energy_score>  (138) 
-15.277355

>  <compound>  (138) 
FGYOQYHQZUUISP-UHFFFAOYSA-N

>  <compound_id>  (138) 
113636

>  <target>  (138) 
Flavi_NS5_RdRp

>  <tags>  (138) 
[]

>  <inspirations>  (138) 
{P Ã— 2}

>  <subsites>  (138) 
None

>  <reference>  (138) 
z0211a

>  <SLURM_JOB_ID>  (138) 
nan

>  <SLURM_JOB_NAME>  (138) 
nan

>  <csv_name>  (138) 
nan

>  <scratch_subdir>  (138) 
nan

>  <fragmenstein_runtime>  (138) 
nan

>  <fragmenstein_outcome>  (138) 
nan

>  <fragmenstein_mode>  (138) 
nan

>  <fragmenstein_error>  (138) 
nan

>  <exports>  (138) 
nan

>  <Multi-SuCOS>  (138) 
nan

>  <merge_set>  (138) 
nan

$$$$
UHIQWAZNXHXGFI-VIFPVBQESA-N
     RDKit          3D

 19 20  0  0  0  0  0  0  0  0999 V2000
  -30.5506  -30.0141  -20.5063 C   0  0  0  0  0  0  0  0  0  0  0  0
  -30.0088  -30.2405  -19.1191 C   0  0  0  0  0  0  0  0  0  0  0  0
  -28.5782  -30.0737  -19.0009 N   0  0  0  0  0  0  0  0  0  0  0  0
  -27.7545  -30.3373  -20.0327 N   0  0  0  0  0  0  0  0  0  0  0  0
  -26.5396  -30.3597  -19.4813 C   0  0  0  0  0  0  0  0  0  0  0  0
  -25.4222  -30.8649  -20.0729 N   0  0  0  0  0  0  0  0  0  0  0  0
  -25.2371  -31.5418  -21.4557 C   0  0  0  0  0  0  0  0  0  0  0  0
  -25.9793  -31.6945  -22.3046 O   0  0  0  0  0  0  0  0  0  0  0  0
  -23.7735  -32.0397  -21.3011 N   0  0  0  0  0  0  0  0  0  0  0  0
  -22.9888  -32.9083  -22.1441 C   0  0  0  0  0  0  0  0  0  0  0  0
  -22.1952  -32.1061  -23.1745 C   0  0  1  0  0  0  0  0  0  0  0  0
  -21.2329  -31.3026  -22.4708 O   0  0  0  0  0  0  0  0  0  0  0  0
  -21.4219  -32.9951  -24.1366 C   0  0  0  0  0  0  0  0  0  0  0  0
  -22.4583  -33.7537  -25.3667 Cl  0  0  0  0  0  0  0  0  0  0  0  0
  -26.5711  -29.9496  -18.1334 C   0  0  0  0  0  0  0  0  0  0  0  0
  -27.9088  -29.9681  -17.8131 C   0  0  0  0  0  0  0  0  0  0  0  0
  -28.5001  -30.3055  -16.4222 C   0  0  0  0  0  0  0  0  0  0  0  0
  -27.5044  -30.3096  -15.2837 C   0  0  0  0  0  0  0  0  0  0  0  0
  -28.6947  -29.4138  -15.2873 C   0  0  0  0  0  0  0  0  0  0  0  0
  1  2  1  0
  2  3  1  0
  3  4  1  0
  4  5  2  0
  5  6  1  0
  6  7  1  0
  7  8  2  0
  7  9  1  0
  9 10  1  0
 10 11  1  0
 11 12  1  1
 11 13  1  0
 13 14  1  0
  5 15  1  0
 15 16  2  0
 16 17  1  0
 17 18  1  0
 18 19  1  0
 16  3  1  0
 19 17  1  0
M  END
>  <id>  (139) 
273521

>  <inchikey>  (139) 
UHIQWAZNXHXGFI-VIFPVBQESA-N

>  <alias>  (139) 
None

>  <smiles>  (139) 
CCn1nc(NC(=O)NC[C@@H](O)CCl)cc1C1CC1

>  <path>  (139) 
/opt/xchem-fragalysis-2/maxwin/RdRp_FFF/syndirella/mar_elabs/elabs_050/GLKYHQBKOTZYGD-UHFFFAOYSA-N/output/GLKYHQBKOTZYGD-UHFFFAOYSA-N-29RESB-605-B/GLKYHQBKOTZYGD-UHFFFAOYSA-N-29RESB-605-B.minimised.mol

>  <distance_score>  (139) 
1.069258

>  <energy_score>  (139) 
-0.920592

>  <compound>  (139) 
UHIQWAZNXHXGFI-UHFFFAOYSA-N

>  <compound_id>  (139) 
113763

>  <target>  (139) 
Flavi_NS5_RdRp

>  <tags>  (139) 
[]

>  <inspirations>  (139) 
{P Ã— 2}

>  <subsites>  (139) 
None

>  <reference>  (139) 
z0211a

>  <SLURM_JOB_ID>  (139) 
nan

>  <SLURM_JOB_NAME>  (139) 
nan

>  <csv_name>  (139) 
nan

>  <scratch_subdir>  (139) 
nan

>  <fragmenstein_runtime>  (139) 
nan

>  <fragmenstein_outcome>  (139) 
nan

>  <fragmenstein_mode>  (139) 
nan

>  <fragmenstein_error>  (139) 
nan

>  <exports>  (139) 
nan

>  <Multi-SuCOS>  (139) 
nan

>  <merge_set>  (139) 
nan

$$$$
IMHSMWIYKRKHSV-SECBINFHSA-N
     RDKit          3D

 19 20  0  0  0  0  0  0  0  0999 V2000
  -30.6315  -30.0826  -20.3192 C   0  0  0  0  0  0  0  0  0  0  0  0
  -30.0231  -30.2461  -18.9425 C   0  0  0  0  0  0  0  0  0  0  0  0
  -28.5824  -30.1583  -18.9220 N   0  0  0  0  0  0  0  0  0  0  0  0
  -27.8668  -30.4910  -20.0077 N   0  0  0  0  0  0  0  0  0  0  0  0
  -26.5991  -30.4450  -19.6009 C   0  0  0  0  0  0  0  0  0  0  0  0
  -25.5482  -30.7780  -20.3899 N   0  0  0  0  0  0  0  0  0  0  0  0
  -25.4926  -31.0933  -21.9030 C   0  0  0  0  0  0  0  0  0  0  0  0
  -26.3060  -31.0407  -22.6936 O   0  0  0  0  0  0  0  0  0  0  0  0
  -24.0167  -31.5419  -22.0165 N   0  0  0  0  0  0  0  0  0  0  0  0
  -23.2465  -31.9232  -23.1674 C   0  0  0  0  0  0  0  0  0  0  0  0
  -21.9904  -32.6896  -22.7730 C   0  0  2  0  0  0  0  0  0  0  0  0
  -21.3167  -32.0095  -21.7044 O   0  0  0  0  0  0  0  0  0  0  0  0
  -21.0600  -32.8174  -23.9657 C   0  0  0  0  0  0  0  0  0  0  0  0
  -21.6419  -33.5427  -24.9558 F   0  0  0  0  0  0  0  0  0  0  0  0
  -26.4970  -30.0288  -18.2656 C   0  0  0  0  0  0  0  0  0  0  0  0
  -27.7966  -29.8736  -17.8445 C   0  0  0  0  0  0  0  0  0  0  0  0
  -28.2023  -29.4753  -16.4163 C   0  0  0  0  0  0  0  0  0  0  0  0
  -28.8849  -30.3362  -15.4136 C   0  0  0  0  0  0  0  0  0  0  0  0
  -27.4045  -30.1681  -15.3303 C   0  0  0  0  0  0  0  0  0  0  0  0
  1  2  1  0
  2  3  1  0
  3  4  1  0
  4  5  2  0
  5  6  1  0
  6  7  1  0
  7  8  2  0
  7  9  1  0
  9 10  1  0
 10 11  1  0
 11 12  1  1
 11 13  1  0
 13 14  1  0
  5 15  1  0
 15 16  2  0
 16 17  1  0
 17 18  1  0
 18 19  1  0
 16  3  1  0
 19 17  1  0
M  END
>  <id>  (140) 
273524

>  <inchikey>  (140) 
IMHSMWIYKRKHSV-SECBINFHSA-N

>  <alias>  (140) 
None

>  <smiles>  (140) 
CCn1nc(NC(=O)NC[C@H](O)CF)cc1C1CC1

>  <path>  (140) 
/opt/xchem-fragalysis-2/maxwin/RdRp_FFF/syndirella/mar_elabs/elabs_050/GLKYHQBKOTZYGD-UHFFFAOYSA-N/output/GLKYHQBKOTZYGD-UHFFFAOYSA-N-29RESB-608-A/GLKYHQBKOTZYGD-UHFFFAOYSA-N-29RESB-608-A.minimised.mol

>  <distance_score>  (140) 
1.027156

>  <energy_score>  (140) 
-26.328082

>  <compound>  (140) 
IMHSMWIYKRKHSV-UHFFFAOYSA-N

>  <compound_id>  (140) 
113766

>  <target>  (140) 
Flavi_NS5_RdRp

>  <tags>  (140) 
[]

>  <inspirations>  (140) 
{P Ã— 2}

>  <subsites>  (140) 
None

>  <reference>  (140) 
z0211a

>  <SLURM_JOB_ID>  (140) 
nan

>  <SLURM_JOB_NAME>  (140) 
nan

>  <csv_name>  (140) 
nan

>  <scratch_subdir>  (140) 
nan

>  <fragmenstein_runtime>  (140) 
nan

>  <fragmenstein_outcome>  (140) 
nan

>  <fragmenstein_mode>  (140) 
nan

>  <fragmenstein_error>  (140) 
nan

>  <exports>  (140) 
nan

>  <Multi-SuCOS>  (140) 
nan

>  <merge_set>  (140) 
nan

$$$$
LMGHLDKVICJQHD-GMSGAONNSA-N
     RDKit          3D

 19 20  0  0  0  0  0  0  0  0999 V2000
  -24.3528  -32.9267  -24.1196 C   0  0  0  0  0  0  0  0  0  0  0  0
  -23.5792  -31.9124  -23.2888 C   0  0  1  0  0  0  0  0  0  0  0  0
  -24.3244  -31.4873  -22.1283 N   0  0  0  0  0  0  0  0  0  0  0  0
  -25.7416  -30.8827  -22.0156 C   0  0  0  0  0  0  0  0  0  0  0  0
  -26.5321  -30.7117  -22.8131 O   0  0  0  0  0  0  0  0  0  0  0  0
  -25.8050  -30.6741  -20.4870 N   0  0  0  0  0  0  0  0  0  0  0  0
  -26.8417  -30.3204  -19.6935 C   0  0  0  0  0  0  0  0  0  0  0  0
  -26.7106  -29.9989  -18.3361 C   0  0  0  0  0  0  0  0  0  0  0  0
  -27.9978  -29.8207  -17.8916 C   0  0  0  0  0  0  0  0  0  0  0  0
  -28.3591  -29.4519  -16.4411 C   0  0  0  0  0  0  0  0  0  0  0  0
  -28.9920  -30.3519  -15.4416 C   0  0  0  0  0  0  0  0  0  0  0  0
  -27.5155  -30.1458  -15.3877 C   0  0  0  0  0  0  0  0  0  0  0  0
  -28.8010  -30.0484  -18.9698 N   0  0  0  0  0  0  0  0  0  0  0  0
  -30.2279  -30.1939  -18.9930 C   0  0  0  0  0  0  0  0  0  0  0  0
  -28.1098  -30.2793  -20.0971 N   0  0  0  0  0  0  0  0  0  0  0  0
  -22.2310  -32.4462  -22.8030 C   0  0  2  0  0  0  0  0  0  0  0  0
  -21.5905  -31.4802  -21.9423 O   0  0  0  0  0  0  0  0  0  0  0  0
  -21.2504  -32.7650  -23.9166 C   0  0  0  0  0  0  0  0  0  0  0  0
  -20.0327  -33.1829  -23.3118 O   0  0  0  0  0  0  0  0  0  0  0  0
  2  1  1  1
  2  3  1  0
  3  4  1  0
  4  5  2  0
  4  6  1  0
  6  7  1  0
  7  8  1  0
  8  9  2  0
  9 10  1  0
 10 11  1  0
 11 12  1  0
  9 13  1  0
 13 14  1  0
 13 15  1  0
  2 16  1  0
 16 17  1  1
 16 18  1  0
 18 19  1  0
 15  7  2  0
 12 10  1  0
M  END
>  <id>  (141) 
273535

>  <inchikey>  (141) 
LMGHLDKVICJQHD-GMSGAONNSA-N

>  <alias>  (141) 
None

>  <smiles>  (141) 
C[C@@H](NC(=O)Nc1cc(C2CC2)n(C)n1)[C@H](O)CO

>  <path>  (141) 
/opt/xchem-fragalysis-2/maxwin/RdRp_FFF/syndirella/mar_elabs/elabs_050/GLKYHQBKOTZYGD-UHFFFAOYSA-N/output/GLKYHQBKOTZYGD-UHFFFAOYSA-N-29RESB-614-B/GLKYHQBKOTZYGD-UHFFFAOYSA-N-29RESB-614-B.minimised.mol

>  <distance_score>  (141) 
0.985134

>  <energy_score>  (141) 
-29.749007

>  <compound>  (141) 
LMGHLDKVICJQHD-UHFFFAOYSA-N

>  <compound_id>  (141) 
113772

>  <target>  (141) 
Flavi_NS5_RdRp

>  <tags>  (141) 
[]

>  <inspirations>  (141) 
{P Ã— 2}

>  <subsites>  (141) 
None

>  <reference>  (141) 
z0211a

>  <SLURM_JOB_ID>  (141) 
nan

>  <SLURM_JOB_NAME>  (141) 
nan

>  <csv_name>  (141) 
nan

>  <scratch_subdir>  (141) 
nan

>  <fragmenstein_runtime>  (141) 
nan

>  <fragmenstein_outcome>  (141) 
nan

>  <fragmenstein_mode>  (141) 
nan

>  <fragmenstein_error>  (141) 
nan

>  <exports>  (141) 
nan

>  <Multi-SuCOS>  (141) 
nan

>  <merge_set>  (141) 
nan

$$$$
IRDOPBZUSDHDQN-PSASIEDQSA-N
     RDKit          3D

 19 20  0  0  0  0  0  0  0  0999 V2000
  -24.3650  -34.4508  -23.3256 C   0  0  0  0  0  0  0  0  0  0  0  0
  -24.1431  -33.1418  -24.0720 C   0  0  0  0  0  0  0  0  0  0  0  0
  -23.3783  -32.0727  -23.2733 C   0  0  1  0  0  0  0  0  0  0  0  0
  -24.1345  -31.6382  -22.1183 N   0  0  0  0  0  0  0  0  0  0  0  0
  -25.5472  -31.0079  -22.0231 C   0  0  0  0  0  0  0  0  0  0  0  0
  -26.3235  -30.8204  -22.8321 O   0  0  0  0  0  0  0  0  0  0  0  0
  -25.6300  -30.8034  -20.4914 N   0  0  0  0  0  0  0  0  0  0  0  0
  -26.6751  -30.4342  -19.7102 C   0  0  0  0  0  0  0  0  0  0  0  0
  -26.5705  -30.0748  -18.3572 C   0  0  0  0  0  0  0  0  0  0  0  0
  -27.8661  -29.8739  -17.9457 C   0  0  0  0  0  0  0  0  0  0  0  0
  -28.2657  -29.4684  -16.5172 C   0  0  0  0  0  0  0  0  0  0  0  0
  -27.5807  -30.2013  -15.3904 C   0  0  0  0  0  0  0  0  0  0  0  0
  -29.0585  -30.3155  -15.5831 C   0  0  0  0  0  0  0  0  0  0  0  0
  -28.6503  -30.1082  -19.0366 N   0  0  0  0  0  0  0  0  0  0  0  0
  -30.0838  -30.1723  -19.1005 C   0  0  0  0  0  0  0  0  0  0  0  0
  -27.9395  -30.4120  -20.1337 N   0  0  0  0  0  0  0  0  0  0  0  0
  -21.9620  -32.4891  -22.8338 C   0  0  1  0  0  0  0  0  0  0  0  0
  -21.0543  -32.8629  -23.9905 C   0  0  0  0  0  0  0  0  0  0  0  0
  -21.3331  -31.4274  -22.1086 O   0  0  0  0  0  0  0  0  0  0  0  0
  1  2  1  0
  3  2  1  1
  3  4  1  0
  4  5  1  0
  5  6  2  0
  5  7  1  0
  7  8  1  0
  8  9  1  0
  9 10  2  0
 10 11  1  0
 11 12  1  0
 12 13  1  0
 10 14  1  0
 14 15  1  0
 14 16  1  0
  3 17  1  0
 17 18  1  6
 17 19  1  0
 16  8  2  0
 13 11  1  0
M  END
>  <id>  (142) 
273555

>  <inchikey>  (142) 
IRDOPBZUSDHDQN-PSASIEDQSA-N

>  <alias>  (142) 
None

>  <smiles>  (142) 
CC[C@@H](NC(=O)Nc1cc(C2CC2)n(C)n1)[C@@H](C)O

>  <path>  (142) 
/opt/xchem-fragalysis-2/maxwin/RdRp_FFF/syndirella/mar_elabs/elabs_050/GLKYHQBKOTZYGD-UHFFFAOYSA-N/output/GLKYHQBKOTZYGD-UHFFFAOYSA-N-29RESB-646-D/GLKYHQBKOTZYGD-UHFFFAOYSA-N-29RESB-646-D.minimised.mol

>  <distance_score>  (142) 
1.00417

>  <energy_score>  (142) 
-25.530404

>  <compound>  (142) 
IRDOPBZUSDHDQN-UHFFFAOYSA-N

>  <compound_id>  (142) 
113789

>  <target>  (142) 
Flavi_NS5_RdRp

>  <tags>  (142) 
[]

>  <inspirations>  (142) 
{P Ã— 2}

>  <subsites>  (142) 
None

>  <reference>  (142) 
z0211a

>  <SLURM_JOB_ID>  (142) 
nan

>  <SLURM_JOB_NAME>  (142) 
nan

>  <csv_name>  (142) 
nan

>  <scratch_subdir>  (142) 
nan

>  <fragmenstein_runtime>  (142) 
nan

>  <fragmenstein_outcome>  (142) 
nan

>  <fragmenstein_mode>  (142) 
nan

>  <fragmenstein_error>  (142) 
nan

>  <exports>  (142) 
nan

>  <Multi-SuCOS>  (142) 
nan

>  <merge_set>  (142) 
nan

$$$$
FYSPEZFRIZNSGB-ZDUSSCGKSA-N
     RDKit          3D

 19 20  0  0  0  0  0  0  0  0999 V2000
  -21.4217  -33.1785  -25.1612 C   0  0  0  0  0  0  0  0  0  0  0  0
  -21.0161  -33.0097  -23.8940 C   0  0  0  0  0  0  0  0  0  0  0  0
  -21.7345  -32.3283  -22.7517 C   0  0  2  0  0  0  0  0  0  0  0  0
  -20.8107  -31.2505  -22.1844 C   0  0  0  0  0  0  0  0  0  0  0  0
  -21.8478  -33.2993  -21.7102 O   0  0  0  0  0  0  0  0  0  0  0  0
  -23.1376  -31.8214  -23.1286 C   0  0  0  0  0  0  0  0  0  0  0  0
  -23.9835  -31.4350  -22.0332 N   0  0  0  0  0  0  0  0  0  0  0  0
  -25.4435  -30.9098  -22.0287 C   0  0  0  0  0  0  0  0  0  0  0  0
  -26.1828  -30.7890  -22.8839 O   0  0  0  0  0  0  0  0  0  0  0  0
  -25.6157  -30.6451  -20.5127 N   0  0  0  0  0  0  0  0  0  0  0  0
  -26.7174  -30.2871  -19.8014 C   0  0  0  0  0  0  0  0  0  0  0  0
  -26.7333  -30.1130  -18.4083 C   0  0  0  0  0  0  0  0  0  0  0  0
  -28.0676  -30.0302  -18.0780 C   0  0  0  0  0  0  0  0  0  0  0  0
  -28.6548  -30.2922  -16.6675 C   0  0  0  0  0  0  0  0  0  0  0  0
  -27.6290  -30.3214  -15.5393 C   0  0  0  0  0  0  0  0  0  0  0  0
  -28.7524  -29.3538  -15.5527 C   0  0  0  0  0  0  0  0  0  0  0  0
  -28.7433  -30.0263  -19.2662 N   0  0  0  0  0  0  0  0  0  0  0  0
  -30.1628  -30.1453  -19.4586 C   0  0  0  0  0  0  0  0  0  0  0  0
  -27.9317  -30.1386  -20.3300 N   0  0  0  0  0  0  0  0  0  0  0  0
  1  2  2  0
  2  3  1  0
  3  4  1  1
  3  5  1  0
  3  6  1  0
  6  7  1  0
  7  8  1  0
  8  9  2  0
  8 10  1  0
 10 11  1  0
 11 12  1  0
 12 13  2  0
 13 14  1  0
 14 15  1  0
 15 16  1  0
 13 17  1  0
 17 18  1  0
 17 19  1  0
 19 11  2  0
 16 14  1  0
M  END
>  <id>  (143) 
273558

>  <inchikey>  (143) 
FYSPEZFRIZNSGB-ZDUSSCGKSA-N

>  <alias>  (143) 
None

>  <smiles>  (143) 
C=C[C@](C)(O)CNC(=O)Nc1cc(C2CC2)n(C)n1

>  <path>  (143) 
/opt/xchem-fragalysis-2/maxwin/RdRp_FFF/syndirella/mar_elabs/elabs_050/GLKYHQBKOTZYGD-UHFFFAOYSA-N/output/GLKYHQBKOTZYGD-UHFFFAOYSA-N-29RESB-649-A/GLKYHQBKOTZYGD-UHFFFAOYSA-N-29RESB-649-A.minimised.mol

>  <distance_score>  (143) 
0.971494

>  <energy_score>  (143) 
-16.51695

>  <compound>  (143) 
FYSPEZFRIZNSGB-UHFFFAOYSA-N

>  <compound_id>  (143) 
113792

>  <target>  (143) 
Flavi_NS5_RdRp

>  <tags>  (143) 
[]

>  <inspirations>  (143) 
{P Ã— 2}

>  <subsites>  (143) 
None

>  <reference>  (143) 
z0211a

>  <SLURM_JOB_ID>  (143) 
nan

>  <SLURM_JOB_NAME>  (143) 
nan

>  <csv_name>  (143) 
nan

>  <scratch_subdir>  (143) 
nan

>  <fragmenstein_runtime>  (143) 
nan

>  <fragmenstein_outcome>  (143) 
nan

>  <fragmenstein_mode>  (143) 
nan

>  <fragmenstein_error>  (143) 
nan

>  <exports>  (143) 
nan

>  <Multi-SuCOS>  (143) 
nan

>  <merge_set>  (143) 
nan

$$$$
LDBHXVLVOKEVRT-SECBINFHSA-N
     RDKit          3D

 19 20  0  0  0  0  0  0  0  0999 V2000
  -21.0469  -33.1732  -25.4889 C   0  0  0  0  0  0  0  0  0  0  0  0
  -21.5228  -33.4431  -24.0612 C   0  0  0  0  0  0  0  0  0  0  0  0
  -22.1273  -32.2568  -23.3090 C   0  0  1  0  0  0  0  0  0  0  0  0
  -21.3239  -31.1181  -23.5827 O   0  0  0  0  0  0  0  0  0  0  0  0
  -23.6410  -32.0018  -23.6028 C   0  0  0  0  0  0  0  0  0  0  0  0
  -24.1239  -32.2290  -24.7114 N   0  0  0  0  0  0  0  0  0  0  0  0
  -24.2401  -31.3797  -22.3548 N   0  0  0  0  0  0  0  0  0  0  0  0
  -25.7387  -30.8975  -22.0015 C   0  0  0  0  0  0  0  0  0  0  0  0
  -26.6879  -30.8412  -22.6493 O   0  0  0  0  0  0  0  0  0  0  0  0
  -25.5474  -30.6173  -20.5676 N   0  0  0  0  0  0  0  0  0  0  0  0
  -26.4462  -30.3049  -19.6027 C   0  0  0  0  0  0  0  0  0  0  0  0
  -26.1962  -30.0795  -18.2417 C   0  0  0  0  0  0  0  0  0  0  0  0
  -27.4492  -29.9563  -17.6732 C   0  0  0  0  0  0  0  0  0  0  0  0
  -27.6606  -29.9696  -16.1397 C   0  0  0  0  0  0  0  0  0  0  0  0
  -28.7561  -29.2113  -15.4787 C   0  0  0  0  0  0  0  0  0  0  0  0
  -28.8628  -30.6723  -15.5676 C   0  0  0  0  0  0  0  0  0  0  0  0
  -28.3427  -30.0229  -18.7090 N   0  0  0  0  0  0  0  0  0  0  0  0
  -29.7818  -30.0696  -18.7166 C   0  0  0  0  0  0  0  0  0  0  0  0
  -27.7405  -30.2156  -19.8848 N   0  0  0  0  0  0  0  0  0  0  0  0
  1  2  1  0
  2  3  1  0
  3  4  1  6
  3  5  1  0
  5  6  2  3
  5  7  1  0
  7  8  1  0
  8  9  2  0
  8 10  1  0
 10 11  1  0
 11 12  1  0
 12 13  2  0
 13 14  1  0
 14 15  1  0
 15 16  1  0
 13 17  1  0
 17 18  1  0
 17 19  1  0
 19 11  2  0
 16 14  1  0
M  END
>  <id>  (144) 
273563

>  <inchikey>  (144) 
LDBHXVLVOKEVRT-SECBINFHSA-N

>  <alias>  (144) 
None

>  <smiles>  (144) 
CC[C@@H](O)C(=N)NC(=O)Nc1cc(C2CC2)n(C)n1

>  <path>  (144) 
/opt/xchem-fragalysis-2/maxwin/RdRp_FFF/syndirella/mar_elabs/elabs_050/GLKYHQBKOTZYGD-UHFFFAOYSA-N/output/GLKYHQBKOTZYGD-UHFFFAOYSA-N-29RESB-651-B/GLKYHQBKOTZYGD-UHFFFAOYSA-N-29RESB-651-B.minimised.mol

>  <distance_score>  (144) 
1.322629

>  <energy_score>  (144) 
-3.865479

>  <compound>  (144) 
LDBHXVLVOKEVRT-UHFFFAOYSA-N

>  <compound_id>  (144) 
113794

>  <target>  (144) 
Flavi_NS5_RdRp

>  <tags>  (144) 
[]

>  <inspirations>  (144) 
{P Ã— 2}

>  <subsites>  (144) 
None

>  <reference>  (144) 
z0211a

>  <SLURM_JOB_ID>  (144) 
nan

>  <SLURM_JOB_NAME>  (144) 
nan

>  <csv_name>  (144) 
nan

>  <scratch_subdir>  (144) 
nan

>  <fragmenstein_runtime>  (144) 
nan

>  <fragmenstein_outcome>  (144) 
nan

>  <fragmenstein_mode>  (144) 
nan

>  <fragmenstein_error>  (144) 
nan

>  <exports>  (144) 
nan

>  <Multi-SuCOS>  (144) 
nan

>  <merge_set>  (144) 
nan

$$$$
QCWGXDVIXYHCFS-CYBMUJFWSA-N
     RDKit          3D

 19 20  0  0  0  0  0  0  0  0999 V2000
  -21.0985  -32.7448  -24.8184 C   0  0  0  0  0  0  0  0  0  0  0  0
  -21.0931  -33.3224  -23.4162 C   0  0  0  0  0  0  0  0  0  0  0  0
  -21.8371  -32.5040  -22.3560 C   0  0  1  0  0  0  0  0  0  0  0  0
  -21.6805  -33.2079  -20.9990 C   0  0  0  0  0  0  0  0  0  0  0  0
  -21.1940  -31.2349  -22.2292 O   0  0  0  0  0  0  0  0  0  0  0  0
  -23.3142  -32.3605  -22.7441 C   0  0  0  0  0  0  0  0  0  0  0  0
  -24.1176  -31.7606  -21.7224 N   0  0  0  0  0  0  0  0  0  0  0  0
  -25.6452  -31.8117  -21.4913 C   0  0  0  0  0  0  0  0  0  0  0  0
  -26.4504  -32.3968  -22.0378 O   0  0  0  0  0  0  0  0  0  0  0  0
  -25.7658  -30.7581  -20.3686 N   0  0  0  0  0  0  0  0  0  0  0  0
  -26.8512  -30.3259  -19.6855 C   0  0  0  0  0  0  0  0  0  0  0  0
  -26.8293  -29.8515  -18.3627 C   0  0  0  0  0  0  0  0  0  0  0  0
  -28.1463  -29.9528  -17.9739 C   0  0  0  0  0  0  0  0  0  0  0  0
  -28.6428  -30.2843  -16.5491 C   0  0  0  0  0  0  0  0  0  0  0  0
  -28.7813  -29.3654  -15.4270 C   0  0  0  0  0  0  0  0  0  0  0  0
  -27.6039  -30.2746  -15.4473 C   0  0  0  0  0  0  0  0  0  0  0  0
  -28.8652  -30.1104  -19.1264 N   0  0  0  0  0  0  0  0  0  0  0  0
  -30.2877  -30.2522  -19.2577 C   0  0  0  0  0  0  0  0  0  0  0  0
  -28.0874  -30.4054  -20.1742 N   0  0  0  0  0  0  0  0  0  0  0  0
  1  2  1  0
  2  3  1  0
  3  4  1  1
  3  5  1  0
  3  6  1  0
  6  7  1  0
  7  8  1  0
  8  9  2  0
  8 10  1  0
 10 11  1  0
 11 12  1  0
 12 13  2  0
 13 14  1  0
 14 15  1  0
 15 16  1  0
 13 17  1  0
 17 18  1  0
 17 19  1  0
 19 11  2  0
 16 14  1  0
M  END
>  <id>  (145) 
273565

>  <inchikey>  (145) 
QCWGXDVIXYHCFS-CYBMUJFWSA-N

>  <alias>  (145) 
None

>  <smiles>  (145) 
CC[C@@](C)(O)CNC(=O)Nc1cc(C2CC2)n(C)n1

>  <path>  (145) 
/opt/xchem-fragalysis-2/maxwin/RdRp_FFF/syndirella/mar_elabs/elabs_050/GLKYHQBKOTZYGD-UHFFFAOYSA-N/output/GLKYHQBKOTZYGD-UHFFFAOYSA-N-29RESB-652-B/GLKYHQBKOTZYGD-UHFFFAOYSA-N-29RESB-652-B.minimised.mol

>  <distance_score>  (145) 
1.019686

>  <energy_score>  (145) 
-13.767971

>  <compound>  (145) 
QCWGXDVIXYHCFS-UHFFFAOYSA-N

>  <compound_id>  (145) 
113795

>  <target>  (145) 
Flavi_NS5_RdRp

>  <tags>  (145) 
[]

>  <inspirations>  (145) 
{P Ã— 2}

>  <subsites>  (145) 
None

>  <reference>  (145) 
z0211a

>  <SLURM_JOB_ID>  (145) 
nan

>  <SLURM_JOB_NAME>  (145) 
nan

>  <csv_name>  (145) 
nan

>  <scratch_subdir>  (145) 
nan

>  <fragmenstein_runtime>  (145) 
nan

>  <fragmenstein_outcome>  (145) 
nan

>  <fragmenstein_mode>  (145) 
nan

>  <fragmenstein_error>  (145) 
nan

>  <exports>  (145) 
nan

>  <Multi-SuCOS>  (145) 
nan

>  <merge_set>  (145) 
nan

$$$$
QECZPMPAOINGMW-JTQLQIEISA-N
     RDKit          3D

 19 20  0  0  0  0  0  0  0  0999 V2000
  -22.1359  -34.1616  -21.6510 C   0  0  0  0  0  0  0  0  0  0  0  0
  -21.5817  -33.6140  -22.9606 C   0  0  0  0  0  0  0  0  0  0  0  0
  -21.9931  -32.1829  -23.2751 C   0  0  2  0  0  0  0  0  0  0  0  0
  -21.4681  -31.3324  -22.2594 O   0  0  0  0  0  0  0  0  0  0  0  0
  -23.5042  -32.0068  -23.4358 C   0  0  0  0  0  0  0  0  0  0  0  0
  -24.1649  -31.5346  -22.2527 N   0  0  0  0  0  0  0  0  0  0  0  0
  -25.5950  -30.9714  -22.0600 C   0  0  0  0  0  0  0  0  0  0  0  0
  -26.4024  -30.7408  -22.8259 O   0  0  0  0  0  0  0  0  0  0  0  0
  -25.6095  -30.8301  -20.5183 N   0  0  0  0  0  0  0  0  0  0  0  0
  -26.6152  -30.4813  -19.6782 C   0  0  0  0  0  0  0  0  0  0  0  0
  -26.4722  -30.1297  -18.3274 C   0  0  0  0  0  0  0  0  0  0  0  0
  -27.7569  -29.9170  -17.8805 C   0  0  0  0  0  0  0  0  0  0  0  0
  -28.1300  -29.4973  -16.4480 C   0  0  0  0  0  0  0  0  0  0  0  0
  -27.3378  -30.1851  -15.3572 C   0  0  0  0  0  0  0  0  0  0  0  0
  -28.8231  -30.3255  -15.4247 C   0  0  0  0  0  0  0  0  0  0  0  0
  -28.5735  -30.1537  -18.9474 N   0  0  0  0  0  0  0  0  0  0  0  0
  -30.0159  -30.2255  -18.9362 C   0  0  0  0  0  0  0  0  0  0  0  0
  -30.6524  -30.0827  -20.3029 C   0  0  0  0  0  0  0  0  0  0  0  0
  -27.8899  -30.4539  -20.0613 N   0  0  0  0  0  0  0  0  0  0  0  0
  1  2  1  0
  2  3  1  0
  3  4  1  1
  3  5  1  0
  5  6  1  0
  6  7  1  0
  7  8  2  0
  7  9  1  0
  9 10  1  0
 10 11  1  0
 11 12  2  0
 12 13  1  0
 13 14  1  0
 14 15  1  0
 12 16  1  0
 16 17  1  0
 17 18  1  0
 16 19  1  0
 19 10  2  0
 15 13  1  0
M  END
>  <id>  (146) 
273572

>  <inchikey>  (146) 
QECZPMPAOINGMW-JTQLQIEISA-N

>  <alias>  (146) 
None

>  <smiles>  (146) 
CC[C@H](O)CNC(=O)Nc1cc(C2CC2)n(CC)n1

>  <path>  (146) 
/opt/xchem-fragalysis-2/maxwin/RdRp_FFF/syndirella/mar_elabs/elabs_050/GLKYHQBKOTZYGD-UHFFFAOYSA-N/output/GLKYHQBKOTZYGD-UHFFFAOYSA-N-29RESB-656-A/GLKYHQBKOTZYGD-UHFFFAOYSA-N-29RESB-656-A.minimised.mol

>  <distance_score>  (146) 
1.033179

>  <energy_score>  (146) 
-17.853901

>  <compound>  (146) 
QECZPMPAOINGMW-UHFFFAOYSA-N

>  <compound_id>  (146) 
113799

>  <target>  (146) 
Flavi_NS5_RdRp

>  <tags>  (146) 
[]

>  <inspirations>  (146) 
{P Ã— 2}

>  <subsites>  (146) 
None

>  <reference>  (146) 
z0211a

>  <SLURM_JOB_ID>  (146) 
nan

>  <SLURM_JOB_NAME>  (146) 
nan

>  <csv_name>  (146) 
nan

>  <scratch_subdir>  (146) 
nan

>  <fragmenstein_runtime>  (146) 
nan

>  <fragmenstein_outcome>  (146) 
nan

>  <fragmenstein_mode>  (146) 
nan

>  <fragmenstein_error>  (146) 
nan

>  <exports>  (146) 
nan

>  <Multi-SuCOS>  (146) 
nan

>  <merge_set>  (146) 
nan

$$$$
VFJWPWMYYCRZBF-SECBINFHSA-N
     RDKit          3D

 19 20  0  0  0  0  0  0  0  0999 V2000
  -31.1247  -29.9066  -20.0578 C   0  0  0  0  0  0  0  0  0  0  0  0
  -29.9770  -30.7919  -19.7227 C   0  0  0  0  0  0  0  0  0  0  0  0
  -28.6931  -30.1951  -19.4755 N   0  0  0  0  0  0  0  0  0  0  0  0
  -27.7977  -30.3290  -20.4539 N   0  0  0  0  0  0  0  0  0  0  0  0
  -26.6171  -30.3083  -19.8456 C   0  0  0  0  0  0  0  0  0  0  0  0
  -25.5066  -30.6385  -20.5514 N   0  0  0  0  0  0  0  0  0  0  0  0
  -25.3481  -31.0498  -22.0411 C   0  0  0  0  0  0  0  0  0  0  0  0
  -26.1161  -31.0895  -22.8759 O   0  0  0  0  0  0  0  0  0  0  0  0
  -23.8657  -31.4852  -22.0282 N   0  0  0  0  0  0  0  0  0  0  0  0
  -23.0304  -31.9689  -23.0896 C   0  0  0  0  0  0  0  0  0  0  0  0
  -21.5574  -32.0413  -22.7278 C   0  0  1  0  0  0  0  0  0  0  0  0
  -21.4059  -32.4075  -21.3482 O   0  0  0  0  0  0  0  0  0  0  0  0
  -20.8601  -33.0930  -23.5847 C   0  0  0  0  0  0  0  0  0  0  0  0
  -20.8227  -32.7606  -24.9655 O   0  0  0  0  0  0  0  0  0  0  0  0
  -26.7446  -29.9433  -18.4940 C   0  0  0  0  0  0  0  0  0  0  0  0
  -28.1063  -29.8321  -18.2941 C   0  0  0  0  0  0  0  0  0  0  0  0
  -28.7843  -29.3390  -17.0082 C   0  0  0  0  0  0  0  0  0  0  0  0
  -28.5788  -30.0040  -15.6793 C   0  0  0  0  0  0  0  0  0  0  0  0
  -29.8977  -30.1151  -16.3871 C   0  0  0  0  0  0  0  0  0  0  0  0
  1  2  1  0
  2  3  1  0
  3  4  1  0
  4  5  2  0
  5  6  1  0
  6  7  1  0
  7  8  2  0
  7  9  1  0
  9 10  1  0
 10 11  1  0
 11 12  1  1
 11 13  1  0
 13 14  1  0
  5 15  1  0
 15 16  2  0
 16 17  1  0
 17 18  1  0
 18 19  1  0
 16  3  1  0
 19 17  1  0
M  END
>  <id>  (147) 
273574

>  <inchikey>  (147) 
VFJWPWMYYCRZBF-SECBINFHSA-N

>  <alias>  (147) 
None

>  <smiles>  (147) 
CCn1nc(NC(=O)NC[C@@H](O)CO)cc1C1CC1

>  <path>  (147) 
/opt/xchem-fragalysis-2/maxwin/RdRp_FFF/syndirella/mar_elabs/elabs_050/GLKYHQBKOTZYGD-UHFFFAOYSA-N/output/GLKYHQBKOTZYGD-UHFFFAOYSA-N-29RESB-657-B/GLKYHQBKOTZYGD-UHFFFAOYSA-N-29RESB-657-B.minimised.mol

>  <distance_score>  (147) 
1.037951

>  <energy_score>  (147) 
-12.53161

>  <compound>  (147) 
VFJWPWMYYCRZBF-UHFFFAOYSA-N

>  <compound_id>  (147) 
113800

>  <target>  (147) 
Flavi_NS5_RdRp

>  <tags>  (147) 
[]

>  <inspirations>  (147) 
{P Ã— 2}

>  <subsites>  (147) 
None

>  <reference>  (147) 
z0211a

>  <SLURM_JOB_ID>  (147) 
nan

>  <SLURM_JOB_NAME>  (147) 
nan

>  <csv_name>  (147) 
nan

>  <scratch_subdir>  (147) 
nan

>  <fragmenstein_runtime>  (147) 
nan

>  <fragmenstein_outcome>  (147) 
nan

>  <fragmenstein_mode>  (147) 
nan

>  <fragmenstein_error>  (147) 
nan

>  <exports>  (147) 
nan

>  <Multi-SuCOS>  (147) 
nan

>  <merge_set>  (147) 
nan

$$$$
RUNMIDVFLBAZGL-ZETCQYMHSA-N
     RDKit          3D

 19 20  0  0  0  0  0  0  0  0999 V2000
  -30.0336  -30.4491  -19.4470 C   0  0  0  0  0  0  0  0  0  0  0  0
  -28.9232  -29.5903  -18.8660 C   0  0  0  0  0  0  0  0  0  0  0  0
  -27.6187  -30.2105  -18.8189 N   0  0  0  0  0  0  0  0  0  0  0  0
  -27.1773  -30.8588  -19.9024 N   0  0  0  0  0  0  0  0  0  0  0  0
  -25.8693  -30.9996  -19.6975 C   0  0  0  0  0  0  0  0  0  0  0  0
  -25.0663  -31.5159  -20.6562 N   0  0  0  0  0  0  0  0  0  0  0  0
  -25.3728  -32.4104  -21.7827 C   0  0  0  0  0  0  0  0  0  0  0  0
  -26.3554  -32.9424  -22.0661 O   0  0  0  0  0  0  0  0  0  0  0  0
  -23.9583  -32.3273  -22.5413 N   0  0  0  0  0  0  0  0  0  0  0  0
  -23.4449  -32.9894  -23.7855 C   0  0  0  0  0  0  0  0  0  0  0  0
  -23.9992  -33.7156  -24.6133 N   0  0  0  0  0  0  0  0  0  0  0  0
  -21.9667  -32.5944  -23.9257 C   0  0  2  0  0  0  0  0  0  0  0  0
  -21.3226  -33.1785  -25.1667 C   0  0  0  0  0  0  0  0  0  0  0  0
  -21.2768  -33.0317  -22.7540 O   0  0  0  0  0  0  0  0  0  0  0  0
  -25.4764  -30.4923  -18.4493 C   0  0  0  0  0  0  0  0  0  0  0  0
  -26.6521  -30.0852  -17.8623 C   0  0  0  0  0  0  0  0  0  0  0  0
  -26.7727  -29.5952  -16.4100 C   0  0  0  0  0  0  0  0  0  0  0  0
  -27.8774  -30.0750  -15.5100 C   0  0  0  0  0  0  0  0  0  0  0  0
  -26.4798  -30.5810  -15.3093 C   0  0  0  0  0  0  0  0  0  0  0  0
  1  2  1  0
  2  3  1  0
  3  4  1  0
  4  5  2  0
  5  6  1  0
  6  7  1  0
  7  8  2  0
  7  9  1  0
  9 10  1  0
 10 11  2  3
 10 12  1  0
 12 13  1  6
 12 14  1  0
  5 15  1  0
 15 16  2  0
 16 17  1  0
 17 18  1  0
 18 19  1  0
 16  3  1  0
 19 17  1  0
M  END
>  <id>  (148) 
273575

>  <inchikey>  (148) 
RUNMIDVFLBAZGL-ZETCQYMHSA-N

>  <alias>  (148) 
None

>  <smiles>  (148) 
CCn1nc(NC(=O)NC(=N)[C@H](C)O)cc1C1CC1

>  <path>  (148) 
/opt/xchem-fragalysis-2/maxwin/RdRp_FFF/syndirella/mar_elabs/elabs_050/GLKYHQBKOTZYGD-UHFFFAOYSA-N/output/GLKYHQBKOTZYGD-UHFFFAOYSA-N-29RESB-659-A/GLKYHQBKOTZYGD-UHFFFAOYSA-N-29RESB-659-A.minimised.mol

>  <distance_score>  (148) 
1.57172

>  <energy_score>  (148) 
-9.044845

>  <compound>  (148) 
RUNMIDVFLBAZGL-UHFFFAOYSA-N

>  <compound_id>  (148) 
113802

>  <target>  (148) 
Flavi_NS5_RdRp

>  <tags>  (148) 
[]

>  <inspirations>  (148) 
{P Ã— 2}

>  <subsites>  (148) 
None

>  <reference>  (148) 
z0211a

>  <SLURM_JOB_ID>  (148) 
nan

>  <SLURM_JOB_NAME>  (148) 
nan

>  <csv_name>  (148) 
nan

>  <scratch_subdir>  (148) 
nan

>  <fragmenstein_runtime>  (148) 
nan

>  <fragmenstein_outcome>  (148) 
nan

>  <fragmenstein_mode>  (148) 
nan

>  <fragmenstein_error>  (148) 
nan

>  <exports>  (148) 
nan

>  <Multi-SuCOS>  (148) 
nan

>  <merge_set>  (148) 
nan

$$$$
XYDVTYQKRIFMMW-JTQLQIEISA-N
     RDKit          3D

 20 21  0  0  0  0  0  0  0  0999 V2000
  -30.5148  -30.4921  -17.0028 C   0  0  0  0  0  0  0  0  0  0  0  0
  -30.1958  -30.3444  -18.4806 C   0  0  0  0  0  0  0  0  0  0  0  0
  -29.0720  -29.3627  -18.7034 C   0  0  0  0  0  0  0  0  0  0  0  0
  -27.7576  -29.9344  -18.6801 N   0  0  0  0  0  0  0  0  0  0  0  0
  -27.2120  -30.2942  -19.8429 N   0  0  0  0  0  0  0  0  0  0  0  0
  -25.9616  -30.5980  -19.5209 C   0  0  0  0  0  0  0  0  0  0  0  0
  -25.0553  -31.0303  -20.4146 N   0  0  0  0  0  0  0  0  0  0  0  0
  -25.1702  -31.2227  -21.9377 C   0  0  0  0  0  0  0  0  0  0  0  0
  -26.0188  -30.9710  -22.6464 O   0  0  0  0  0  0  0  0  0  0  0  0
  -23.8033  -31.8661  -22.2144 N   0  0  0  0  0  0  0  0  0  0  0  0
  -23.2637  -32.4087  -23.4192 C   0  0  0  0  0  0  0  0  0  0  0  0
  -21.7612  -32.5646  -23.2594 C   0  0  2  0  0  0  0  0  0  0  0  0
  -21.1064  -31.2997  -23.1519 O   0  0  0  0  0  0  0  0  0  0  0  0
  -21.1883  -33.3310  -24.4394 C   0  0  0  0  0  0  0  0  0  0  0  0
  -21.4084  -32.6730  -25.6806 O   0  0  0  0  0  0  0  0  0  0  0  0
  -25.7031  -30.4314  -18.1549 C   0  0  0  0  0  0  0  0  0  0  0  0
  -26.9015  -30.0318  -17.6220 C   0  0  0  0  0  0  0  0  0  0  0  0
  -27.2042  -29.8473  -16.1185 C   0  0  0  0  0  0  0  0  0  0  0  0
  -26.9831  -31.0315  -15.2086 C   0  0  0  0  0  0  0  0  0  0  0  0
  -26.0916  -29.8521  -15.1100 C   0  0  0  0  0  0  0  0  0  0  0  0
  1  2  1  0
  2  3  1  0
  3  4  1  0
  4  5  1  0
  5  6  2  0
  6  7  1  0
  7  8  1  0
  8  9  2  0
  8 10  1  0
 10 11  1  0
 11 12  1  0
 12 13  1  6
 12 14  1  0
 14 15  1  0
  6 16  1  0
 16 17  2  0
 17 18  1  0
 18 19  1  0
 19 20  1  0
 17  4  1  0
 20 18  1  0
M  END
>  <id>  (149) 
273648

>  <inchikey>  (149) 
XYDVTYQKRIFMMW-JTQLQIEISA-N

>  <alias>  (149) 
None

>  <smiles>  (149) 
CCCn1nc(NC(=O)NC[C@H](O)CO)cc1C1CC1

>  <path>  (149) 
/opt/xchem-fragalysis-2/maxwin/RdRp_FFF/syndirella/mar_elabs/elabs_050/GLKYHQBKOTZYGD-UHFFFAOYSA-N/output/GLKYHQBKOTZYGD-UHFFFAOYSA-N-29RESB-755-A/GLKYHQBKOTZYGD-UHFFFAOYSA-N-29RESB-755-A.minimised.mol

>  <distance_score>  (149) 
1.469975

>  <energy_score>  (149) 
-22.137374

>  <compound>  (149) 
XYDVTYQKRIFMMW-UHFFFAOYSA-N

>  <compound_id>  (149) 
113868

>  <target>  (149) 
Flavi_NS5_RdRp

>  <tags>  (149) 
[]

>  <inspirations>  (149) 
{P Ã— 2}

>  <subsites>  (149) 
None

>  <reference>  (149) 
z0211a

>  <SLURM_JOB_ID>  (149) 
nan

>  <SLURM_JOB_NAME>  (149) 
nan

>  <csv_name>  (149) 
nan

>  <scratch_subdir>  (149) 
nan

>  <fragmenstein_runtime>  (149) 
nan

>  <fragmenstein_outcome>  (149) 
nan

>  <fragmenstein_mode>  (149) 
nan

>  <fragmenstein_error>  (149) 
nan

>  <exports>  (149) 
nan

>  <Multi-SuCOS>  (149) 
nan

>  <merge_set>  (149) 
nan

$$$$
BVYODDWVMXTCJV-SNVBAGLBSA-N
     RDKit          3D

 20 21  0  0  0  0  0  0  0  0999 V2000
  -31.3730  -30.1219  -20.2911 C   0  0  0  0  0  0  0  0  0  0  0  0
  -29.8892  -29.8884  -20.2457 C   0  0  0  0  0  0  0  0  0  0  0  0
  -29.3777  -30.0784  -18.8248 C   0  0  0  0  0  0  0  0  0  0  0  0
  -27.9391  -30.1426  -18.7574 N   0  0  0  0  0  0  0  0  0  0  0  0
  -27.2670  -30.5881  -19.8239 N   0  0  0  0  0  0  0  0  0  0  0  0
  -26.0007  -30.6133  -19.4340 C   0  0  0  0  0  0  0  0  0  0  0  0
  -25.0097  -31.0632  -20.2306 N   0  0  0  0  0  0  0  0  0  0  0  0
  -25.0734  -31.8175  -21.5779 C   0  0  0  0  0  0  0  0  0  0  0  0
  -25.9669  -32.2220  -22.1513 O   0  0  0  0  0  0  0  0  0  0  0  0
  -23.5818  -31.7697  -21.9628 N   0  0  0  0  0  0  0  0  0  0  0  0
  -22.9289  -32.1323  -23.1784 C   0  0  0  0  0  0  0  0  0  0  0  0
  -21.5529  -32.7226  -22.9118 C   0  0  1  0  0  0  0  0  0  0  0  0
  -20.8666  -32.9712  -24.2403 C   0  0  0  0  0  0  0  0  0  0  0  0
  -20.7438  -31.7949  -22.1657 O   0  0  0  0  0  0  0  0  0  0  0  0
  -20.4061  -32.2840  -20.8704 C   0  0  0  0  0  0  0  0  0  0  0  0
  -25.8445  -30.1280  -18.1298 C   0  0  0  0  0  0  0  0  0  0  0  0
  -27.1308  -29.9637  -17.6692 C   0  0  0  0  0  0  0  0  0  0  0  0
  -27.5399  -29.8270  -16.1813 C   0  0  0  0  0  0  0  0  0  0  0  0
  -26.4728  -29.7057  -15.1257 C   0  0  0  0  0  0  0  0  0  0  0  0
  -27.1982  -30.9807  -15.2608 C   0  0  0  0  0  0  0  0  0  0  0  0
  1  2  1  0
  2  3  1  0
  3  4  1  0
  4  5  1  0
  5  6  2  0
  6  7  1  0
  7  8  1  0
  8  9  2  0
  8 10  1  0
 10 11  1  0
 11 12  1  0
 12 13  1  6
 12 14  1  0
 14 15  1  0
  6 16  1  0
 16 17  2  0
 17 18  1  0
 18 19  1  0
 19 20  1  0
 17  4  1  0
 20 18  1  0
M  END
>  <id>  (150) 
273656

>  <inchikey>  (150) 
BVYODDWVMXTCJV-SNVBAGLBSA-N

>  <alias>  (150) 
None

>  <smiles>  (150) 
CCCn1nc(NC(=O)NC[C@@H](C)OC)cc1C1CC1

>  <path>  (150) 
/opt/xchem-fragalysis-2/maxwin/RdRp_FFF/syndirella/mar_elabs/elabs_050/GLKYHQBKOTZYGD-UHFFFAOYSA-N/output/GLKYHQBKOTZYGD-UHFFFAOYSA-N-29RESB-767-B/GLKYHQBKOTZYGD-UHFFFAOYSA-N-29RESB-767-B.minimised.mol

>  <distance_score>  (150) 
1.415507

>  <energy_score>  (150) 
-14.543526

>  <compound>  (150) 
BVYODDWVMXTCJV-UHFFFAOYSA-N

>  <compound_id>  (150) 
113878

>  <target>  (150) 
Flavi_NS5_RdRp

>  <tags>  (150) 
[]

>  <inspirations>  (150) 
{P Ã— 2}

>  <subsites>  (150) 
None

>  <reference>  (150) 
z0211a

>  <SLURM_JOB_ID>  (150) 
nan

>  <SLURM_JOB_NAME>  (150) 
nan

>  <csv_name>  (150) 
nan

>  <scratch_subdir>  (150) 
nan

>  <fragmenstein_runtime>  (150) 
nan

>  <fragmenstein_outcome>  (150) 
nan

>  <fragmenstein_mode>  (150) 
nan

>  <fragmenstein_error>  (150) 
nan

>  <exports>  (150) 
nan

>  <Multi-SuCOS>  (150) 
nan

>  <merge_set>  (150) 
nan

$$$$
RBBNJJWBBNMXIK-WCBMZHEXSA-N
     RDKit          3D

 20 21  0  0  0  0  0  0  0  0999 V2000
  -30.6504  -30.0799  -20.3212 C   0  0  0  0  0  0  0  0  0  0  0  0
  -30.0283  -30.2231  -18.9484 C   0  0  0  0  0  0  0  0  0  0  0  0
  -28.5879  -30.1219  -18.9395 N   0  0  0  0  0  0  0  0  0  0  0  0
  -27.8826  -30.4140  -20.0414 N   0  0  0  0  0  0  0  0  0  0  0  0
  -26.6151  -30.4194  -19.6350 C   0  0  0  0  0  0  0  0  0  0  0  0
  -25.5866  -30.7739  -20.4409 N   0  0  0  0  0  0  0  0  0  0  0  0
  -25.5396  -30.9780  -21.9732 C   0  0  0  0  0  0  0  0  0  0  0  0
  -26.3380  -30.8019  -22.7618 O   0  0  0  0  0  0  0  0  0  0  0  0
  -24.1194  -31.5731  -22.1059 N   0  0  0  0  0  0  0  0  0  0  0  0
  -23.4512  -32.1567  -23.2489 C   0  0  2  0  0  0  0  0  0  0  0  0
  -24.0690  -33.5464  -23.5229 C   0  0  0  0  0  0  0  0  0  0  0  0
  -23.7112  -34.5312  -22.5505 O   0  0  0  0  0  0  0  0  0  0  0  0
  -21.9341  -32.1722  -22.9903 C   0  0  2  0  0  0  0  0  0  0  0  0
  -21.1585  -32.9503  -24.0360 C   0  0  0  0  0  0  0  0  0  0  0  0
  -21.6902  -32.7607  -21.7012 O   0  0  0  0  0  0  0  0  0  0  0  0
  -26.4972  -30.0593  -18.2846 C   0  0  0  0  0  0  0  0  0  0  0  0
  -27.7910  -29.8748  -17.8600 C   0  0  0  0  0  0  0  0  0  0  0  0
  -28.1892  -29.4841  -16.4313 C   0  0  0  0  0  0  0  0  0  0  0  0
  -27.5046  -30.2322  -15.3174 C   0  0  0  0  0  0  0  0  0  0  0  0
  -28.9856  -30.3288  -15.4995 C   0  0  0  0  0  0  0  0  0  0  0  0
  1  2  1  0
  2  3  1  0
  3  4  1  0
  4  5  2  0
  5  6  1  0
  6  7  1  0
  7  8  2  0
  7  9  1  0
  9 10  1  0
 10 11  1  1
 11 12  1  0
 10 13  1  0
 13 14  1  6
 13 15  1  0
  5 16  1  0
 16 17  2  0
 17 18  1  0
 18 19  1  0
 19 20  1  0
 17  3  1  0
 20 18  1  0
M  END
>  <id>  (151) 
274390

>  <inchikey>  (151) 
RBBNJJWBBNMXIK-WCBMZHEXSA-N

>  <alias>  (151) 
None

>  <smiles>  (151) 
CCn1nc(NC(=O)N[C@H](CO)[C@H](C)O)cc1C1CC1

>  <path>  (151) 
/opt/xchem-fragalysis-2/maxwin/RdRp_FFF/syndirella/mar_elabs/elabs_050/GLKYHQBKOTZYGD-UHFFFAOYSA-N/output/GLKYHQBKOTZYGD-UHFFFAOYSA-N-29RESB-1559-A/GLKYHQBKOTZYGD-UHFFFAOYSA-N-29RESB-1559-A.minimised.mol

>  <distance_score>  (151) 
1.03763

>  <energy_score>  (151) 
-24.267476

>  <compound>  (151) 
RBBNJJWBBNMXIK-UHFFFAOYSA-N

>  <compound_id>  (151) 
114484

>  <target>  (151) 
Flavi_NS5_RdRp

>  <tags>  (151) 
[]

>  <inspirations>  (151) 
{P Ã— 2}

>  <subsites>  (151) 
None

>  <reference>  (151) 
z0211a

>  <SLURM_JOB_ID>  (151) 
nan

>  <SLURM_JOB_NAME>  (151) 
nan

>  <csv_name>  (151) 
nan

>  <scratch_subdir>  (151) 
nan

>  <fragmenstein_runtime>  (151) 
nan

>  <fragmenstein_outcome>  (151) 
nan

>  <fragmenstein_mode>  (151) 
nan

>  <fragmenstein_error>  (151) 
nan

>  <exports>  (151) 
nan

>  <Multi-SuCOS>  (151) 
nan

>  <merge_set>  (151) 
nan

$$$$
IUOFJCFPRWOTDK-VIFPVBQESA-N
     RDKit          3D

 20 21  0  0  0  0  0  0  0  0999 V2000
  -30.5148  -30.1143  -19.9987 C   0  0  0  0  0  0  0  0  0  0  0  0
  -29.8173  -30.0785  -18.6448 C   0  0  0  0  0  0  0  0  0  0  0  0
  -28.3740  -30.0187  -18.7102 N   0  0  0  0  0  0  0  0  0  0  0  0
  -27.7638  -30.1514  -19.8964 N   0  0  0  0  0  0  0  0  0  0  0  0
  -26.4819  -30.3136  -19.5913 C   0  0  0  0  0  0  0  0  0  0  0  0
  -25.5533  -30.7001  -20.4916 N   0  0  0  0  0  0  0  0  0  0  0  0
  -25.6784  -30.9592  -22.0072 C   0  0  0  0  0  0  0  0  0  0  0  0
  -26.5595  -30.8089  -22.7066 O   0  0  0  0  0  0  0  0  0  0  0  0
  -24.2888  -31.5774  -22.2724 N   0  0  0  0  0  0  0  0  0  0  0  0
  -23.6973  -32.0431  -23.4927 C   0  0  0  0  0  0  0  0  0  0  0  0
  -22.2912  -32.5677  -23.2513 C   0  0  2  0  0  0  0  0  0  0  0  0
  -21.5357  -31.6235  -22.4897 O   0  0  0  0  0  0  0  0  0  0  0  0
  -21.6684  -32.9724  -24.5833 C   0  0  0  0  0  0  0  0  0  0  0  0
  -22.2358  -33.2694  -25.6242 O   0  0  0  0  0  0  0  0  0  0  0  0
  -20.3290  -33.0827  -24.5118 O   0  0  0  0  0  0  0  0  0  0  0  0
  -26.2375  -30.1266  -18.2294 C   0  0  0  0  0  0  0  0  0  0  0  0
  -27.4835  -29.9737  -17.6662 C   0  0  0  0  0  0  0  0  0  0  0  0
  -27.7561  -29.9730  -16.1342 C   0  0  0  0  0  0  0  0  0  0  0  0
  -26.6147  -29.6754  -15.1963 C   0  0  0  0  0  0  0  0  0  0  0  0
  -27.1082  -31.0588  -15.2909 C   0  0  0  0  0  0  0  0  0  0  0  0
  1  2  1  0
  2  3  1  0
  3  4  1  0
  4  5  2  0
  5  6  1  0
  6  7  1  0
  7  8  2  0
  7  9  1  0
  9 10  1  0
 10 11  1  0
 11 12  1  6
 11 13  1  0
 13 14  2  0
 13 15  1  0
  5 16  1  0
 16 17  2  0
 17 18  1  0
 18 19  1  0
 19 20  1  0
 17  3  1  0
 20 18  1  0
M  END
>  <id>  (152) 
274406

>  <inchikey>  (152) 
IUOFJCFPRWOTDK-VIFPVBQESA-N

>  <alias>  (152) 
None

>  <smiles>  (152) 
CCn1nc(NC(=O)NC[C@H](O)C(=O)O)cc1C1CC1

>  <path>  (152) 
/opt/xchem-fragalysis-2/maxwin/RdRp_FFF/syndirella/mar_elabs/elabs_050/GLKYHQBKOTZYGD-UHFFFAOYSA-N/output/GLKYHQBKOTZYGD-UHFFFAOYSA-N-29RESB-1572-A/GLKYHQBKOTZYGD-UHFFFAOYSA-N-29RESB-1572-A.minimised.mol

>  <distance_score>  (152) 
1.175405

>  <energy_score>  (152) 
-24.027852

>  <compound>  (152) 
IUOFJCFPRWOTDK-UHFFFAOYSA-N

>  <compound_id>  (152) 
114497

>  <target>  (152) 
Flavi_NS5_RdRp

>  <tags>  (152) 
[]

>  <inspirations>  (152) 
{P Ã— 2}

>  <subsites>  (152) 
None

>  <reference>  (152) 
z0211a

>  <SLURM_JOB_ID>  (152) 
nan

>  <SLURM_JOB_NAME>  (152) 
nan

>  <csv_name>  (152) 
nan

>  <scratch_subdir>  (152) 
nan

>  <fragmenstein_runtime>  (152) 
nan

>  <fragmenstein_outcome>  (152) 
nan

>  <fragmenstein_mode>  (152) 
nan

>  <fragmenstein_error>  (152) 
nan

>  <exports>  (152) 
nan

>  <Multi-SuCOS>  (152) 
nan

>  <merge_set>  (152) 
nan

$$$$
YRPPDFHQPOFTAC-VIFPVBQESA-N
     RDKit          3D

 20 21  0  0  0  0  0  0  0  0999 V2000
  -30.2601  -30.6147  -19.7350 C   0  0  0  0  0  0  0  0  0  0  0  0
  -29.2256  -29.6541  -19.1952 C   0  0  0  0  0  0  0  0  0  0  0  0
  -27.9083  -30.2007  -18.9815 N   0  0  0  0  0  0  0  0  0  0  0  0
  -27.2504  -30.8004  -19.9971 N   0  0  0  0  0  0  0  0  0  0  0  0
  -26.0162  -30.9735  -19.5186 C   0  0  0  0  0  0  0  0  0  0  0  0
  -24.9846  -31.5863  -20.1425 N   0  0  0  0  0  0  0  0  0  0  0  0
  -24.9469  -32.3888  -21.4661 C   0  0  0  0  0  0  0  0  0  0  0  0
  -25.7650  -32.5738  -22.2408 O   0  0  0  0  0  0  0  0  0  0  0  0
  -23.4307  -32.7851  -21.4813 N   0  0  0  0  0  0  0  0  0  0  0  0
  -22.6742  -33.3763  -22.4690 N   0  0  0  0  0  0  0  0  0  0  0  0
  -23.3375  -34.5788  -22.9763 C   0  0  0  0  0  0  0  0  0  0  0  0
  -22.4530  -32.3508  -23.5175 C   0  0  0  0  0  0  0  0  0  0  0  0
  -21.2459  -32.6462  -24.4116 C   0  0  2  0  0  0  0  0  0  0  0  0
  -21.5656  -33.4645  -25.6537 C   0  0  0  0  0  0  0  0  0  0  0  0
  -20.2135  -33.2672  -23.6563 O   0  0  0  0  0  0  0  0  0  0  0  0
  -25.8676  -30.4465  -18.2310 C   0  0  0  0  0  0  0  0  0  0  0  0
  -27.1261  -30.0541  -17.8707 C   0  0  0  0  0  0  0  0  0  0  0  0
  -27.4296  -29.5555  -16.4585 C   0  0  0  0  0  0  0  0  0  0  0  0
  -28.5864  -30.0431  -15.6463 C   0  0  0  0  0  0  0  0  0  0  0  0
  -27.1941  -30.4774  -15.2968 C   0  0  0  0  0  0  0  0  0  0  0  0
  1  2  1  0
  2  3  1  0
  3  4  1  0
  4  5  2  0
  5  6  1  0
  6  7  1  0
  7  8  2  0
  7  9  1  0
  9 10  1  0
 10 11  1  0
 10 12  1  0
 12 13  1  0
 13 14  1  6
 13 15  1  0
  5 16  1  0
 16 17  2  0
 17 18  1  0
 18 19  1  0
 19 20  1  0
 17  3  1  0
 20 18  1  0
M  END
>  <id>  (153) 
274412

>  <inchikey>  (153) 
YRPPDFHQPOFTAC-VIFPVBQESA-N

>  <alias>  (153) 
None

>  <smiles>  (153) 
CCn1nc(NC(=O)NN(C)C[C@H](C)O)cc1C1CC1

>  <path>  (153) 
/opt/xchem-fragalysis-2/maxwin/RdRp_FFF/syndirella/mar_elabs/elabs_050/GLKYHQBKOTZYGD-UHFFFAOYSA-N/output/GLKYHQBKOTZYGD-UHFFFAOYSA-N-29RESB-1579-B/GLKYHQBKOTZYGD-UHFFFAOYSA-N-29RESB-1579-B.minimised.mol

>  <distance_score>  (153) 
1.408569

>  <energy_score>  (153) 
-30.12499

>  <compound>  (153) 
YRPPDFHQPOFTAC-UHFFFAOYSA-N

>  <compound_id>  (153) 
114504

>  <target>  (153) 
Flavi_NS5_RdRp

>  <tags>  (153) 
[]

>  <inspirations>  (153) 
{P Ã— 2}

>  <subsites>  (153) 
None

>  <reference>  (153) 
z0211a

>  <SLURM_JOB_ID>  (153) 
nan

>  <SLURM_JOB_NAME>  (153) 
nan

>  <csv_name>  (153) 
nan

>  <scratch_subdir>  (153) 
nan

>  <fragmenstein_runtime>  (153) 
nan

>  <fragmenstein_outcome>  (153) 
nan

>  <fragmenstein_mode>  (153) 
nan

>  <fragmenstein_error>  (153) 
nan

>  <exports>  (153) 
nan

>  <Multi-SuCOS>  (153) 
nan

>  <merge_set>  (153) 
nan

$$$$
OAOYABXPFZIPPU-MRVPVSSYSA-N
     RDKit          3D

 20 21  0  0  0  0  0  0  0  0999 V2000
  -30.1210  -30.0076  -20.0664 C   0  0  0  0  0  0  0  0  0  0  0  0
  -29.3711  -30.0392  -18.7423 C   0  0  0  0  0  0  0  0  0  0  0  0
  -27.9484  -30.2777  -18.8611 N   0  0  0  0  0  0  0  0  0  0  0  0
  -27.4766  -30.9356  -19.9315 N   0  0  0  0  0  0  0  0  0  0  0  0
  -26.1619  -30.9819  -19.7407 C   0  0  0  0  0  0  0  0  0  0  0  0
  -25.3045  -31.6353  -20.5591 N   0  0  0  0  0  0  0  0  0  0  0  0
  -25.5412  -32.7138  -21.5294 C   0  0  0  0  0  0  0  0  0  0  0  0
  -26.5235  -33.2036  -21.8756 O   0  0  0  0  0  0  0  0  0  0  0  0
  -23.9970  -33.0215  -21.9092 N   0  0  0  0  0  0  0  0  0  0  0  0
  -23.3207  -34.0083  -22.9506 C   0  0  0  0  0  0  0  0  0  0  0  0
  -23.9045  -35.1031  -23.8991 S   0  0  0  0  0  0  0  0  0  0  0  0
  -21.8148  -33.6521  -22.8551 C   0  0  1  0  0  0  0  0  0  0  0  0
  -21.3668  -32.8785  -24.0893 C   0  0  0  0  0  0  0  0  0  0  0  0
  -21.5739  -32.8127  -21.7106 O   0  0  0  0  0  0  0  0  0  0  0  0
  -20.3601  -33.1207  -21.0359 C   0  0  0  0  0  0  0  0  0  0  0  0
  -25.7774  -30.3293  -18.5567 C   0  0  0  0  0  0  0  0  0  0  0  0
  -26.9661  -30.0129  -17.9453 C   0  0  0  0  0  0  0  0  0  0  0  0
  -27.0606  -29.5326  -16.4861 C   0  0  0  0  0  0  0  0  0  0  0  0
  -26.7314  -30.4997  -15.3796 C   0  0  0  0  0  0  0  0  0  0  0  0
  -28.1398  -30.0162  -15.5583 C   0  0  0  0  0  0  0  0  0  0  0  0
  1  2  1  0
  2  3  1  0
  3  4  1  0
  4  5  2  0
  5  6  1  0
  6  7  1  0
  7  8  2  0
  7  9  1  0
  9 10  1  0
 10 11  2  0
 10 12  1  0
 12 13  1  6
 12 14  1  0
 14 15  1  0
  5 16  1  0
 16 17  2  0
 17 18  1  0
 18 19  1  0
 19 20  1  0
 17  3  1  0
 20 18  1  0
M  END
>  <id>  (154) 
274416

>  <inchikey>  (154) 
OAOYABXPFZIPPU-MRVPVSSYSA-N

>  <alias>  (154) 
None

>  <smiles>  (154) 
CCn1nc(NC(=O)NC(=S)[C@@H](C)OC)cc1C1CC1

>  <path>  (154) 
/opt/xchem-fragalysis-2/maxwin/RdRp_FFF/syndirella/mar_elabs/elabs_050/GLKYHQBKOTZYGD-UHFFFAOYSA-N/output/GLKYHQBKOTZYGD-UHFFFAOYSA-N-29RESB-1581-B/GLKYHQBKOTZYGD-UHFFFAOYSA-N-29RESB-1581-B.minimised.mol

>  <distance_score>  (154) 
1.544133

>  <energy_score>  (154) 
-31.429482

>  <compound>  (154) 
OAOYABXPFZIPPU-UHFFFAOYSA-N

>  <compound_id>  (154) 
114506

>  <target>  (154) 
Flavi_NS5_RdRp

>  <tags>  (154) 
[]

>  <inspirations>  (154) 
{P Ã— 2}

>  <subsites>  (154) 
None

>  <reference>  (154) 
z0211a

>  <SLURM_JOB_ID>  (154) 
nan

>  <SLURM_JOB_NAME>  (154) 
nan

>  <csv_name>  (154) 
nan

>  <scratch_subdir>  (154) 
nan

>  <fragmenstein_runtime>  (154) 
nan

>  <fragmenstein_outcome>  (154) 
nan

>  <fragmenstein_mode>  (154) 
nan

>  <fragmenstein_error>  (154) 
nan

>  <exports>  (154) 
nan

>  <Multi-SuCOS>  (154) 
nan

>  <merge_set>  (154) 
nan

$$$$
VMDNHEMUTZETKF-JTQLQIEISA-N
     RDKit          3D

 20 21  0  0  0  0  0  0  0  0999 V2000
  -21.7512  -33.8973  -21.7544 C   0  0  0  0  0  0  0  0  0  0  0  0
  -21.4591  -33.6248  -23.2258 C   0  0  0  0  0  0  0  0  0  0  0  0
  -21.9380  -32.2828  -23.7604 C   0  0  2  0  0  0  0  0  0  0  0  0
  -21.3576  -31.2654  -22.9586 O   0  0  0  0  0  0  0  0  0  0  0  0
  -23.4783  -32.2338  -23.7927 C   0  0  0  0  0  0  0  0  0  0  0  0
  -24.1327  -32.6406  -24.7537 N   0  0  0  0  0  0  0  0  0  0  0  0
  -23.8998  -31.6307  -22.4819 N   0  0  0  0  0  0  0  0  0  0  0  0
  -25.3446  -31.3990  -21.8177 C   0  0  0  0  0  0  0  0  0  0  0  0
  -26.4069  -31.5703  -22.2290 O   0  0  0  0  0  0  0  0  0  0  0  0
  -24.9006  -30.9272  -20.5055 N   0  0  0  0  0  0  0  0  0  0  0  0
  -25.6067  -30.4789  -19.4465 C   0  0  0  0  0  0  0  0  0  0  0  0
  -25.0774  -30.3922  -18.1591 C   0  0  0  0  0  0  0  0  0  0  0  0
  -26.1907  -30.3411  -17.3569 C   0  0  0  0  0  0  0  0  0  0  0  0
  -26.0827  -31.0046  -15.9730 C   0  0  0  0  0  0  0  0  0  0  0  0
  -25.2109  -30.4152  -14.9068 C   0  0  0  0  0  0  0  0  0  0  0  0
  -26.7024  -30.4605  -14.7551 C   0  0  0  0  0  0  0  0  0  0  0  0
  -27.2490  -30.0508  -18.1823 N   0  0  0  0  0  0  0  0  0  0  0  0
  -28.6685  -29.8549  -17.9813 C   0  0  0  0  0  0  0  0  0  0  0  0
  -29.2233  -29.7019  -16.5848 C   0  0  0  0  0  0  0  0  0  0  0  0
  -26.8912  -30.1547  -19.4804 N   0  0  0  0  0  0  0  0  0  0  0  0
  1  2  1  0
  2  3  1  0
  3  4  1  1
  3  5  1  0
  5  6  2  3
  5  7  1  0
  7  8  1  0
  8  9  2  0
  8 10  1  0
 10 11  1  0
 11 12  1  0
 12 13  2  0
 13 14  1  0
 14 15  1  0
 15 16  1  0
 13 17  1  0
 17 18  1  0
 18 19  1  0
 17 20  1  0
 20 11  2  0
 16 14  1  0
M  END
>  <id>  (155) 
274423

>  <inchikey>  (155) 
VMDNHEMUTZETKF-JTQLQIEISA-N

>  <alias>  (155) 
None

>  <smiles>  (155) 
CC[C@H](O)C(=N)NC(=O)Nc1cc(C2CC2)n(CC)n1

>  <path>  (155) 
/opt/xchem-fragalysis-2/maxwin/RdRp_FFF/syndirella/mar_elabs/elabs_050/GLKYHQBKOTZYGD-UHFFFAOYSA-N/output/GLKYHQBKOTZYGD-UHFFFAOYSA-N-29RESB-1585-A/GLKYHQBKOTZYGD-UHFFFAOYSA-N-29RESB-1585-A.minimised.mol

>  <distance_score>  (155) 
1.819509

>  <energy_score>  (155) 
-9.103184

>  <compound>  (155) 
VMDNHEMUTZETKF-UHFFFAOYSA-N

>  <compound_id>  (155) 
114510

>  <target>  (155) 
Flavi_NS5_RdRp

>  <tags>  (155) 
[]

>  <inspirations>  (155) 
{P Ã— 2}

>  <subsites>  (155) 
None

>  <reference>  (155) 
z0211a

>  <SLURM_JOB_ID>  (155) 
nan

>  <SLURM_JOB_NAME>  (155) 
nan

>  <csv_name>  (155) 
nan

>  <scratch_subdir>  (155) 
nan

>  <fragmenstein_runtime>  (155) 
nan

>  <fragmenstein_outcome>  (155) 
nan

>  <fragmenstein_mode>  (155) 
nan

>  <fragmenstein_error>  (155) 
nan

>  <exports>  (155) 
nan

>  <Multi-SuCOS>  (155) 
nan

>  <merge_set>  (155) 
nan

$$$$
HPWYQCGWOPJVBR-AWEZNQCLSA-N
     RDKit          3D

 20 21  0  0  0  0  0  0  0  0999 V2000
  -21.4674  -33.2039  -25.1930 C   0  0  0  0  0  0  0  0  0  0  0  0
  -21.0119  -33.0162  -23.9455 C   0  0  0  0  0  0  0  0  0  0  0  0
  -21.6982  -32.3429  -22.7791 C   0  0  2  0  0  0  0  0  0  0  0  0
  -20.7833  -31.2389  -22.2518 C   0  0  0  0  0  0  0  0  0  0  0  0
  -21.7500  -33.3073  -21.7250 O   0  0  0  0  0  0  0  0  0  0  0  0
  -23.1309  -31.8828  -23.0965 C   0  0  0  0  0  0  0  0  0  0  0  0
  -23.9060  -31.4576  -21.9655 N   0  0  0  0  0  0  0  0  0  0  0  0
  -25.3962  -31.0452  -21.8690 C   0  0  0  0  0  0  0  0  0  0  0  0
  -26.1769  -30.9184  -22.6850 O   0  0  0  0  0  0  0  0  0  0  0  0
  -25.4959  -30.8030  -20.3445 N   0  0  0  0  0  0  0  0  0  0  0  0
  -26.5614  -30.4641  -19.5771 C   0  0  0  0  0  0  0  0  0  0  0  0
  -26.4760  -30.0650  -18.2359 C   0  0  0  0  0  0  0  0  0  0  0  0
  -27.7788  -29.8853  -17.8373 C   0  0  0  0  0  0  0  0  0  0  0  0
  -28.1999  -29.4822  -16.4148 C   0  0  0  0  0  0  0  0  0  0  0  0
  -28.8945  -30.3384  -15.4168 C   0  0  0  0  0  0  0  0  0  0  0  0
  -27.4150  -30.1730  -15.3182 C   0  0  0  0  0  0  0  0  0  0  0  0
  -28.5522  -30.1540  -18.9283 N   0  0  0  0  0  0  0  0  0  0  0  0
  -29.9936  -30.2367  -18.9603 C   0  0  0  0  0  0  0  0  0  0  0  0
  -30.5936  -30.0725  -20.3397 C   0  0  0  0  0  0  0  0  0  0  0  0
  -27.8221  -30.4810  -20.0091 N   0  0  0  0  0  0  0  0  0  0  0  0
  1  2  2  0
  2  3  1  0
  3  4  1  1
  3  5  1  0
  3  6  1  0
  6  7  1  0
  7  8  1  0
  8  9  2  0
  8 10  1  0
 10 11  1  0
 11 12  1  0
 12 13  2  0
 13 14  1  0
 14 15  1  0
 15 16  1  0
 13 17  1  0
 17 18  1  0
 18 19  1  0
 17 20  1  0
 20 11  2  0
 16 14  1  0
M  END
>  <id>  (156) 
274427

>  <inchikey>  (156) 
HPWYQCGWOPJVBR-AWEZNQCLSA-N

>  <alias>  (156) 
None

>  <smiles>  (156) 
C=C[C@](C)(O)CNC(=O)Nc1cc(C2CC2)n(CC)n1

>  <path>  (156) 
/opt/xchem-fragalysis-2/maxwin/RdRp_FFF/syndirella/mar_elabs/elabs_050/GLKYHQBKOTZYGD-UHFFFAOYSA-N/output/GLKYHQBKOTZYGD-UHFFFAOYSA-N-29RESB-1587-A/GLKYHQBKOTZYGD-UHFFFAOYSA-N-29RESB-1587-A.minimised.mol

>  <distance_score>  (156) 
1.081726

>  <energy_score>  (156) 
-24.922396

>  <compound>  (156) 
HPWYQCGWOPJVBR-UHFFFAOYSA-N

>  <compound_id>  (156) 
114512

>  <target>  (156) 
Flavi_NS5_RdRp

>  <tags>  (156) 
[]

>  <inspirations>  (156) 
{P Ã— 2}

>  <subsites>  (156) 
None

>  <reference>  (156) 
z0211a

>  <SLURM_JOB_ID>  (156) 
nan

>  <SLURM_JOB_NAME>  (156) 
nan

>  <csv_name>  (156) 
nan

>  <scratch_subdir>  (156) 
nan

>  <fragmenstein_runtime>  (156) 
nan

>  <fragmenstein_outcome>  (156) 
nan

>  <fragmenstein_mode>  (156) 
nan

>  <fragmenstein_error>  (156) 
nan

>  <exports>  (156) 
nan

>  <Multi-SuCOS>  (156) 
nan

>  <merge_set>  (156) 
nan

$$$$
RLRVUSWUMSJAIA-UHFFFAOYSA-N
     RDKit          3D

 20 21  0  0  0  0  0  0  0  0999 V2000
  -30.0122  -30.4019  -19.3719 C   0  0  0  0  0  0  0  0  0  0  0  0
  -28.9364  -29.4947  -18.7981 C   0  0  0  0  0  0  0  0  0  0  0  0
  -27.6197  -30.0794  -18.7454 N   0  0  0  0  0  0  0  0  0  0  0  0
  -27.1036  -30.5375  -19.8878 N   0  0  0  0  0  0  0  0  0  0  0  0
  -25.8439  -30.8328  -19.5896 C   0  0  0  0  0  0  0  0  0  0  0  0
  -24.9847  -31.2958  -20.5215 N   0  0  0  0  0  0  0  0  0  0  0  0
  -25.1364  -31.4383  -21.9757 C   0  0  0  0  0  0  0  0  0  0  0  0
  -26.0515  -31.2588  -22.6498 O   0  0  0  0  0  0  0  0  0  0  0  0
  -23.6820  -31.9860  -22.3087 N   0  0  0  0  0  0  0  0  0  0  0  0
  -23.0153  -32.3395  -23.6001 C   0  0  0  0  0  0  0  0  0  0  0  0
  -23.4424  -32.3821  -24.7555 N   0  0  0  0  0  0  0  0  0  0  0  0
  -21.5429  -32.7179  -23.2890 C   0  0  0  0  0  0  0  0  0  0  0  0
  -20.8018  -33.0948  -24.5656 C   0  0  0  0  0  0  0  0  0  0  0  0
  -20.7646  -31.6170  -22.5635 C   0  0  0  0  0  0  0  0  0  0  0  0
  -21.5844  -33.8535  -22.4165 O   0  0  0  0  0  0  0  0  0  0  0  0
  -25.5462  -30.5833  -18.2429 C   0  0  0  0  0  0  0  0  0  0  0  0
  -26.7220  -30.1000  -17.7198 C   0  0  0  0  0  0  0  0  0  0  0  0
  -26.8873  -29.6543  -16.2628 C   0  0  0  0  0  0  0  0  0  0  0  0
  -26.6299  -30.6628  -15.1787 C   0  0  0  0  0  0  0  0  0  0  0  0
  -28.0173  -30.1312  -15.3999 C   0  0  0  0  0  0  0  0  0  0  0  0
  1  2  1  0
  2  3  1  0
  3  4  1  0
  4  5  2  0
  5  6  1  0
  6  7  1  0
  7  8  2  0
  7  9  1  0
  9 10  1  0
 10 11  2  3
 10 12  1  0
 12 13  1  0
 12 14  1  0
 12 15  1  0
  5 16  1  0
 16 17  2  0
 17 18  1  0
 18 19  1  0
 19 20  1  0
 17  3  1  0
 20 18  1  0
M  END
>  <id>  (157) 
274436

>  <inchikey>  (157) 
RLRVUSWUMSJAIA-UHFFFAOYSA-N

>  <alias>  (157) 
None

>  <smiles>  (157) 
CCn1nc(NC(=O)NC(=N)C(C)(C)O)cc1C1CC1

>  <path>  (157) 
/opt/xchem-fragalysis-2/maxwin/RdRp_FFF/syndirella/mar_elabs/elabs_050/GLKYHQBKOTZYGD-UHFFFAOYSA-N/output/GLKYHQBKOTZYGD-UHFFFAOYSA-N-29RESB-1592-A/GLKYHQBKOTZYGD-UHFFFAOYSA-N-29RESB-1592-A.minimised.mol

>  <distance_score>  (157) 
1.407384

>  <energy_score>  (157) 
-30.670043

>  <compound>  (157) 
RLRVUSWUMSJAIA-UHFFFAOYSA-N

>  <compound_id>  (157) 
114517

>  <target>  (157) 
Flavi_NS5_RdRp

>  <tags>  (157) 
[]

>  <inspirations>  (157) 
{P Ã— 2}

>  <subsites>  (157) 
None

>  <reference>  (157) 
z0211a

>  <SLURM_JOB_ID>  (157) 
nan

>  <SLURM_JOB_NAME>  (157) 
nan

>  <csv_name>  (157) 
nan

>  <scratch_subdir>  (157) 
nan

>  <fragmenstein_runtime>  (157) 
nan

>  <fragmenstein_outcome>  (157) 
nan

>  <fragmenstein_mode>  (157) 
nan

>  <fragmenstein_error>  (157) 
nan

>  <exports>  (157) 
nan

>  <Multi-SuCOS>  (157) 
nan

>  <merge_set>  (157) 
nan

$$$$
GWCDMQDGCADKFC-KCJUWKMLSA-N
     RDKit          3D

 20 21  0  0  0  0  0  0  0  0999 V2000
  -30.7290  -30.0728  -20.4303 C   0  0  0  0  0  0  0  0  0  0  0  0
  -30.1307  -30.2178  -19.0520 C   0  0  0  0  0  0  0  0  0  0  0  0
  -28.7051  -29.9970  -18.9905 N   0  0  0  0  0  0  0  0  0  0  0  0
  -27.9525  -30.0816  -20.0961 N   0  0  0  0  0  0  0  0  0  0  0  0
  -26.7095  -30.2148  -19.6385 C   0  0  0  0  0  0  0  0  0  0  0  0
  -25.6778  -30.6316  -20.4161 N   0  0  0  0  0  0  0  0  0  0  0  0
  -25.6176  -30.9070  -21.9395 C   0  0  0  0  0  0  0  0  0  0  0  0
  -26.4029  -30.7475  -22.7465 O   0  0  0  0  0  0  0  0  0  0  0  0
  -24.2127  -31.5577  -22.0241 N   0  0  0  0  0  0  0  0  0  0  0  0
  -23.5547  -32.2245  -23.1257 C   0  0  2  0  0  0  0  0  0  0  0  0
  -24.1254  -33.6426  -23.2277 C   0  0  0  0  0  0  0  0  0  0  0  0
  -22.0231  -32.1783  -22.9487 C   0  0  1  0  0  0  0  0  0  0  0  0
  -21.6475  -32.5355  -21.6109 O   0  0  0  0  0  0  0  0  0  0  0  0
  -21.2648  -33.0600  -23.9438 C   0  0  0  0  0  0  0  0  0  0  0  0
  -21.5817  -32.7738  -25.3001 O   0  0  0  0  0  0  0  0  0  0  0  0
  -26.6439  -30.0267  -18.2471 C   0  0  0  0  0  0  0  0  0  0  0  0
  -27.9610  -29.9912  -17.8447 C   0  0  0  0  0  0  0  0  0  0  0  0
  -28.4820  -30.3228  -16.4254 C   0  0  0  0  0  0  0  0  0  0  0  0
  -27.4469  -30.2680  -15.3265 C   0  0  0  0  0  0  0  0  0  0  0  0
  -28.6575  -29.3969  -15.3133 C   0  0  0  0  0  0  0  0  0  0  0  0
  1  2  1  0
  2  3  1  0
  3  4  1  0
  4  5  2  0
  5  6  1  0
  6  7  1  0
  7  8  2  0
  7  9  1  0
  9 10  1  0
 10 11  1  1
 10 12  1  0
 12 13  1  1
 12 14  1  0
 14 15  1  0
  5 16  1  0
 16 17  2  0
 17 18  1  0
 18 19  1  0
 19 20  1  0
 17  3  1  0
 20 18  1  0
M  END
>  <id>  (158) 
274439

>  <inchikey>  (158) 
GWCDMQDGCADKFC-KCJUWKMLSA-N

>  <alias>  (158) 
None

>  <smiles>  (158) 
CCn1nc(NC(=O)N[C@H](C)[C@@H](O)CO)cc1C1CC1

>  <path>  (158) 
/opt/xchem-fragalysis-2/maxwin/RdRp_FFF/syndirella/mar_elabs/elabs_050/GLKYHQBKOTZYGD-UHFFFAOYSA-N/output/GLKYHQBKOTZYGD-UHFFFAOYSA-N-29RESB-1594-C/GLKYHQBKOTZYGD-UHFFFAOYSA-N-29RESB-1594-C.minimised.mol

>  <distance_score>  (158) 
0.919959

>  <energy_score>  (158) 
-9.130098

>  <compound>  (158) 
GWCDMQDGCADKFC-UHFFFAOYSA-N

>  <compound_id>  (158) 
114519

>  <target>  (158) 
Flavi_NS5_RdRp

>  <tags>  (158) 
[]

>  <inspirations>  (158) 
{P Ã— 2}

>  <subsites>  (158) 
None

>  <reference>  (158) 
z0211a

>  <SLURM_JOB_ID>  (158) 
nan

>  <SLURM_JOB_NAME>  (158) 
nan

>  <csv_name>  (158) 
nan

>  <scratch_subdir>  (158) 
nan

>  <fragmenstein_runtime>  (158) 
nan

>  <fragmenstein_outcome>  (158) 
nan

>  <fragmenstein_mode>  (158) 
nan

>  <fragmenstein_error>  (158) 
nan

>  <exports>  (158) 
nan

>  <Multi-SuCOS>  (158) 
nan

>  <merge_set>  (158) 
nan

$$$$
NUTJMOPGVJMXFB-SNVBAGLBSA-N
     RDKit          3D

 20 21  0  0  0  0  0  0  0  0999 V2000
  -30.6527  -30.0823  -20.3251 C   0  0  0  0  0  0  0  0  0  0  0  0
  -30.0219  -30.2139  -18.9553 C   0  0  0  0  0  0  0  0  0  0  0  0
  -28.5825  -30.0958  -18.9534 N   0  0  0  0  0  0  0  0  0  0  0  0
  -27.8763  -30.3710  -20.0617 N   0  0  0  0  0  0  0  0  0  0  0  0
  -26.6125  -30.4272  -19.6465 C   0  0  0  0  0  0  0  0  0  0  0  0
  -25.5990  -30.8639  -20.4341 N   0  0  0  0  0  0  0  0  0  0  0  0
  -25.5380  -31.0689  -21.9681 C   0  0  0  0  0  0  0  0  0  0  0  0
  -26.3040  -30.8264  -22.7724 O   0  0  0  0  0  0  0  0  0  0  0  0
  -24.1727  -31.7933  -22.0726 N   0  0  0  0  0  0  0  0  0  0  0  0
  -23.5461  -32.4384  -23.1916 C   0  0  0  0  0  0  0  0  0  0  0  0
  -22.0906  -32.0308  -23.4032 C   0  0  1  0  0  0  0  0  0  0  0  0
  -21.4756  -31.7482  -22.1330 O   0  0  0  0  0  0  0  0  0  0  0  0
  -21.2875  -33.1372  -24.0903 C   0  0  0  0  0  0  0  0  0  0  0  0
  -21.6019  -33.3425  -25.8850 S   0  0  0  0  0  0  0  0  0  0  0  0
  -22.9510  -34.5485  -25.8406 C   0  0  0  0  0  0  0  0  0  0  0  0
  -26.4933  -30.0668  -18.2961 C   0  0  0  0  0  0  0  0  0  0  0  0
  -27.7856  -29.8627  -17.8706 C   0  0  0  0  0  0  0  0  0  0  0  0
  -28.1827  -29.4745  -16.4356 C   0  0  0  0  0  0  0  0  0  0  0  0
  -28.8737  -30.3322  -15.4361 C   0  0  0  0  0  0  0  0  0  0  0  0
  -27.3916  -30.1753  -15.3511 C   0  0  0  0  0  0  0  0  0  0  0  0
  1  2  1  0
  2  3  1  0
  3  4  1  0
  4  5  2  0
  5  6  1  0
  6  7  1  0
  7  8  2  0
  7  9  1  0
  9 10  1  0
 10 11  1  0
 11 12  1  1
 11 13  1  0
 13 14  1  0
 14 15  1  0
  5 16  1  0
 16 17  2  0
 17 18  1  0
 18 19  1  0
 19 20  1  0
 17  3  1  0
 20 18  1  0
M  END
>  <id>  (159) 
274449

>  <inchikey>  (159) 
NUTJMOPGVJMXFB-SNVBAGLBSA-N

>  <alias>  (159) 
None

>  <smiles>  (159) 
CCn1nc(NC(=O)NC[C@@H](O)CSC)cc1C1CC1

>  <path>  (159) 
/opt/xchem-fragalysis-2/maxwin/RdRp_FFF/syndirella/mar_elabs/elabs_050/GLKYHQBKOTZYGD-UHFFFAOYSA-N/output/GLKYHQBKOTZYGD-UHFFFAOYSA-N-29RESB-1601-B/GLKYHQBKOTZYGD-UHFFFAOYSA-N-29RESB-1601-B.minimised.mol

>  <distance_score>  (159) 
1.030128

>  <energy_score>  (159) 
-21.12375

>  <compound>  (159) 
NUTJMOPGVJMXFB-UHFFFAOYSA-N

>  <compound_id>  (159) 
114526

>  <target>  (159) 
Flavi_NS5_RdRp

>  <tags>  (159) 
[]

>  <inspirations>  (159) 
{P Ã— 2}

>  <subsites>  (159) 
None

>  <reference>  (159) 
z0211a

>  <SLURM_JOB_ID>  (159) 
nan

>  <SLURM_JOB_NAME>  (159) 
nan

>  <csv_name>  (159) 
nan

>  <scratch_subdir>  (159) 
nan

>  <fragmenstein_runtime>  (159) 
nan

>  <fragmenstein_outcome>  (159) 
nan

>  <fragmenstein_mode>  (159) 
nan

>  <fragmenstein_error>  (159) 
nan

>  <exports>  (159) 
nan

>  <Multi-SuCOS>  (159) 
nan

>  <merge_set>  (159) 
nan

$$$$
VFRXLXRLWYQSPS-MRVPVSSYSA-N
     RDKit          3D

 18 20  0  0  0  0  0  0  0  0999 V2000
  -30.0913  -30.2450  -19.5459 C   0  0  0  0  0  0  0  0  0  0  0  0
  -28.6714  -30.4227  -19.6912 N   0  0  0  0  0  0  0  0  0  0  0  0
  -28.1787  -30.8849  -20.8586 N   0  0  0  0  0  0  0  0  0  0  0  0
  -26.8582  -30.9370  -20.6597 C   0  0  0  0  0  0  0  0  0  0  0  0
  -26.0278  -31.3220  -21.6668 N   0  0  0  0  0  0  0  0  0  0  0  0
  -24.4879  -31.4799  -21.6923 C   0  0  0  0  0  0  0  0  0  0  0  0
  -23.7059  -31.2354  -20.8943 O   0  0  0  0  0  0  0  0  0  0  0  0
  -24.3125  -31.9599  -23.1227 N   0  0  0  0  0  0  0  0  0  0  0  0
  -23.0942  -32.1528  -23.9215 C   0  0  0  0  0  0  0  0  0  0  0  0
  -22.0992  -33.0707  -23.2568 C   0  0  1  0  0  0  0  0  0  0  0  0
  -21.2022  -32.4154  -22.3858 O   0  0  0  0  0  0  0  0  0  0  0  0
  -23.0816  -33.9313  -22.5577 C   0  0  0  0  0  0  0  0  0  0  0  0
  -24.2881  -33.4572  -23.1935 O   0  0  0  0  0  0  0  0  0  0  0  0
  -26.5119  -30.5082  -19.3592 C   0  0  0  0  0  0  0  0  0  0  0  0
  -27.7049  -30.1532  -18.7700 C   0  0  0  0  0  0  0  0  0  0  0  0
  -27.8601  -29.4165  -17.4263 C   0  0  0  0  0  0  0  0  0  0  0  0
  -28.5809  -29.9192  -16.2188 C   0  0  0  0  0  0  0  0  0  0  0  0
  -27.0864  -29.9166  -16.2310 C   0  0  0  0  0  0  0  0  0  0  0  0
  1  2  1  0
  2  3  1  0
  3  4  2  0
  4  5  1  0
  5  6  1  0
  6  7  2  0
  6  8  1  0
  8  9  1  0
  9 10  1  0
 10 11  1  1
 10 12  1  0
 12 13  1  0
  4 14  1  0
 14 15  2  0
 15 16  1  0
 16 17  1  0
 17 18  1  0
 15  2  1  0
 18 16  1  0
 13  8  1  0
M  END
>  <id>  (160) 
275624

>  <inchikey>  (160) 
VFRXLXRLWYQSPS-MRVPVSSYSA-N

>  <alias>  (160) 
None

>  <smiles>  (160) 
Cn1nc(NC(=O)N2C[C@@H](O)CO2)cc1C1CC1

>  <path>  (160) 
/opt/xchem-fragalysis-2/maxwin/RdRp_FFF/syndirella/mar_elabs/elabs_050/GLKYHQBKOTZYGD-UHFFFAOYSA-N/output/GLKYHQBKOTZYGD-UHFFFAOYSA-N-PkfPUd-53-B/GLKYHQBKOTZYGD-UHFFFAOYSA-N-PkfPUd-53-B.minimised.mol

>  <distance_score>  (160) 
1.725942

>  <energy_score>  (160) 
-15.828285

>  <compound>  (160) 
VFRXLXRLWYQSPS-UHFFFAOYSA-N

>  <compound_id>  (160) 
113386

>  <target>  (160) 
Flavi_NS5_RdRp

>  <tags>  (160) 
[]

>  <inspirations>  (160) 
{P Ã— 2}

>  <subsites>  (160) 
None

>  <reference>  (160) 
z0211a

>  <SLURM_JOB_ID>  (160) 
nan

>  <SLURM_JOB_NAME>  (160) 
nan

>  <csv_name>  (160) 
nan

>  <scratch_subdir>  (160) 
nan

>  <fragmenstein_runtime>  (160) 
nan

>  <fragmenstein_outcome>  (160) 
nan

>  <fragmenstein_mode>  (160) 
nan

>  <fragmenstein_error>  (160) 
nan

>  <exports>  (160) 
nan

>  <Multi-SuCOS>  (160) 
nan

>  <merge_set>  (160) 
nan

$$$$
UALKJUPTZPUEBR-LURJTMIESA-N
     RDKit          3D

 18 19  0  0  0  0  0  0  0  0999 V2000
  -20.8361  -33.4574  -21.5337 C   0  0  0  0  0  0  0  0  0  0  0  0
  -21.4889  -32.4901  -22.5050 C   0  0  2  0  0  0  0  0  0  0  0  0
  -21.4344  -31.1970  -21.9210 O   0  0  0  0  0  0  0  0  0  0  0  0
  -22.9440  -32.9413  -22.7648 C   0  0  0  0  0  0  0  0  0  0  0  0
  -23.2250  -33.7090  -23.6888 N   0  0  0  0  0  0  0  0  0  0  0  0
  -23.8017  -32.3057  -21.6927 N   0  0  0  0  0  0  0  0  0  0  0  0
  -25.4033  -32.3134  -21.4359 C   0  0  0  0  0  0  0  0  0  0  0  0
  -26.2568  -32.8765  -21.9720 O   0  0  0  0  0  0  0  0  0  0  0  0
  -25.4484  -31.3534  -20.3129 N   0  0  0  0  0  0  0  0  0  0  0  0
  -26.5085  -30.8000  -19.6606 C   0  0  0  0  0  0  0  0  0  0  0  0
  -26.4108  -30.1027  -18.4393 C   0  0  0  0  0  0  0  0  0  0  0  0
  -27.7150  -29.9225  -18.0366 C   0  0  0  0  0  0  0  0  0  0  0  0
  -28.1432  -29.4307  -16.6396 C   0  0  0  0  0  0  0  0  0  0  0  0
  -27.4280  -30.0986  -15.4813 C   0  0  0  0  0  0  0  0  0  0  0  0
  -28.9057  -30.2320  -15.6355 C   0  0  0  0  0  0  0  0  0  0  0  0
  -28.4908  -30.3187  -19.0848 N   0  0  0  0  0  0  0  0  0  0  0  0
  -29.9257  -30.2704  -19.1974 C   0  0  0  0  0  0  0  0  0  0  0  0
  -27.7745  -30.8824  -20.0739 N   0  0  0  0  0  0  0  0  0  0  0  0
  2  1  1  1
  2  3  1  0
  2  4  1  0
  4  5  2  3
  4  6  1  0
  6  7  1  0
  7  8  2  0
  7  9  1  0
  9 10  1  0
 10 11  1  0
 11 12  2  0
 12 13  1  0
 13 14  1  0
 14 15  1  0
 12 16  1  0
 16 17  1  0
 16 18  1  0
 18 10  2  0
 15 13  1  0
M  END
>  <id>  (161) 
275625

>  <inchikey>  (161) 
UALKJUPTZPUEBR-LURJTMIESA-N

>  <alias>  (161) 
None

>  <smiles>  (161) 
C[C@H](O)C(=N)NC(=O)Nc1cc(C2CC2)n(C)n1

>  <path>  (161) 
/opt/xchem-fragalysis-2/maxwin/RdRp_FFF/syndirella/mar_elabs/elabs_050/GLKYHQBKOTZYGD-UHFFFAOYSA-N/output/GLKYHQBKOTZYGD-UHFFFAOYSA-N-PkfPUd-54-A/GLKYHQBKOTZYGD-UHFFFAOYSA-N-PkfPUd-54-A.minimised.mol

>  <distance_score>  (161) 
1.39786

>  <energy_score>  (161) 
-21.289143

>  <compound>  (161) 
UALKJUPTZPUEBR-UHFFFAOYSA-N

>  <compound_id>  (161) 
113380

>  <target>  (161) 
Flavi_NS5_RdRp

>  <tags>  (161) 
[]

>  <inspirations>  (161) 
{P Ã— 2}

>  <subsites>  (161) 
None

>  <reference>  (161) 
z0211a

>  <SLURM_JOB_ID>  (161) 
nan

>  <SLURM_JOB_NAME>  (161) 
nan

>  <csv_name>  (161) 
nan

>  <scratch_subdir>  (161) 
nan

>  <fragmenstein_runtime>  (161) 
nan

>  <fragmenstein_outcome>  (161) 
nan

>  <fragmenstein_mode>  (161) 
nan

>  <fragmenstein_error>  (161) 
nan

>  <exports>  (161) 
nan

>  <Multi-SuCOS>  (161) 
nan

>  <merge_set>  (161) 
nan

$$$$
FNNFAIVGQQTRSO-ZCFIWIBFSA-N
     RDKit          3D

 18 19  0  0  0  0  0  0  0  0999 V2000
  -21.1902  -32.7953  -24.7551 C   0  0  0  0  0  0  0  0  0  0  0  0
  -21.7682  -33.0222  -23.3680 C   0  0  1  0  0  0  0  0  0  0  0  0
  -21.6406  -31.8096  -22.6103 O   0  0  0  0  0  0  0  0  0  0  0  0
  -23.2404  -33.5305  -23.3717 C   0  0  0  0  0  0  0  0  0  0  0  0
  -23.8254  -34.5714  -24.3779 S   0  0  0  0  0  0  0  0  0  0  0  0
  -23.8873  -32.7315  -22.1516 N   0  0  0  0  0  0  0  0  0  0  0  0
  -25.4081  -32.6273  -21.5833 C   0  0  0  0  0  0  0  0  0  0  0  0
  -26.3734  -33.1764  -21.8853 O   0  0  0  0  0  0  0  0  0  0  0  0
  -25.1736  -31.6145  -20.5426 N   0  0  0  0  0  0  0  0  0  0  0  0
  -26.0403  -30.9831  -19.7136 C   0  0  0  0  0  0  0  0  0  0  0  0
  -25.6615  -30.3542  -18.5139 C   0  0  0  0  0  0  0  0  0  0  0  0
  -26.8515  -30.0195  -17.9159 C   0  0  0  0  0  0  0  0  0  0  0  0
  -26.9645  -29.5450  -16.4568 C   0  0  0  0  0  0  0  0  0  0  0  0
  -28.0610  -30.0319  -15.5499 C   0  0  0  0  0  0  0  0  0  0  0  0
  -26.6582  -30.5253  -15.3551 C   0  0  0  0  0  0  0  0  0  0  0  0
  -27.8216  -30.2504  -18.8482 N   0  0  0  0  0  0  0  0  0  0  0  0
  -29.2282  -29.9498  -18.7877 C   0  0  0  0  0  0  0  0  0  0  0  0
  -27.3541  -30.9110  -19.9214 N   0  0  0  0  0  0  0  0  0  0  0  0
  2  1  1  6
  2  3  1  0
  2  4  1  0
  4  5  2  0
  4  6  1  0
  6  7  1  0
  7  8  2  0
  7  9  1  0
  9 10  1  0
 10 11  1  0
 11 12  2  0
 12 13  1  0
 13 14  1  0
 14 15  1  0
 12 16  1  0
 16 17  1  0
 16 18  1  0
 18 10  2  0
 15 13  1  0
M  END
>  <id>  (162) 
275648

>  <inchikey>  (162) 
FNNFAIVGQQTRSO-ZCFIWIBFSA-N

>  <alias>  (162) 
None

>  <smiles>  (162) 
C[C@@H](O)C(=S)NC(=O)Nc1cc(C2CC2)n(C)n1

>  <path>  (162) 
/opt/xchem-fragalysis-2/maxwin/RdRp_FFF/syndirella/mar_elabs/elabs_050/GLKYHQBKOTZYGD-UHFFFAOYSA-N/output/GLKYHQBKOTZYGD-UHFFFAOYSA-N-PkfPUd-82-B/GLKYHQBKOTZYGD-UHFFFAOYSA-N-PkfPUd-82-B.minimised.mol

>  <distance_score>  (162) 
1.542801

>  <energy_score>  (162) 
-9.34206

>  <compound>  (162) 
FNNFAIVGQQTRSO-UHFFFAOYSA-N

>  <compound_id>  (162) 
113404

>  <target>  (162) 
Flavi_NS5_RdRp

>  <tags>  (162) 
[]

>  <inspirations>  (162) 
{P Ã— 2}

>  <subsites>  (162) 
None

>  <reference>  (162) 
z0211a

>  <SLURM_JOB_ID>  (162) 
nan

>  <SLURM_JOB_NAME>  (162) 
nan

>  <csv_name>  (162) 
nan

>  <scratch_subdir>  (162) 
nan

>  <fragmenstein_runtime>  (162) 
nan

>  <fragmenstein_outcome>  (162) 
nan

>  <fragmenstein_mode>  (162) 
nan

>  <fragmenstein_error>  (162) 
nan

>  <exports>  (162) 
nan

>  <Multi-SuCOS>  (162) 
nan

>  <merge_set>  (162) 
nan

$$$$
XMXWAUZVHJISAV-UHFFFAOYSA-N
     RDKit          3D

 18 20  0  0  0  0  0  0  0  0999 V2000
  -21.6846  -33.6241  -25.5866 C   0  0  0  0  0  0  0  0  0  0  0  0
  -21.4944  -32.8947  -24.3861 O   0  0  0  0  0  0  0  0  0  0  0  0
  -22.5466  -32.9868  -23.3961 C   0  0  0  0  0  0  0  0  0  0  0  0
  -23.0386  -31.6942  -22.7951 C   0  0  0  0  0  0  0  0  0  0  0  0
  -24.4161  -32.3784  -22.5825 N   0  0  0  0  0  0  0  0  0  0  0  0
  -25.5167  -31.3485  -22.3205 C   0  0  0  0  0  0  0  0  0  0  0  0
  -26.2058  -30.8019  -23.0522 O   0  0  0  0  0  0  0  0  0  0  0  0
  -25.4919  -31.3413  -20.7771 N   0  0  0  0  0  0  0  0  0  0  0  0
  -26.3342  -30.7583  -19.8866 C   0  0  0  0  0  0  0  0  0  0  0  0
  -26.0357  -30.5136  -18.5356 C   0  0  0  0  0  0  0  0  0  0  0  0
  -27.2107  -30.0573  -17.9854 C   0  0  0  0  0  0  0  0  0  0  0  0
  -27.3383  -29.6021  -16.5186 C   0  0  0  0  0  0  0  0  0  0  0  0
  -26.9245  -30.5270  -15.4086 C   0  0  0  0  0  0  0  0  0  0  0  0
  -28.3627  -30.1211  -15.5619 C   0  0  0  0  0  0  0  0  0  0  0  0
  -28.1333  -30.0981  -18.9922 N   0  0  0  0  0  0  0  0  0  0  0  0
  -29.5618  -29.9570  -18.9003 C   0  0  0  0  0  0  0  0  0  0  0  0
  -27.5959  -30.4343  -20.1777 N   0  0  0  0  0  0  0  0  0  0  0  0
  -23.9887  -33.0438  -23.8587 C   0  0  0  0  0  0  0  0  0  0  0  0
  1  2  1  0
  2  3  1  0
  3  4  1  0
  4  5  1  0
  5  6  1  0
  6  7  2  0
  6  8  1  0
  8  9  1  0
  9 10  1  0
 10 11  2  0
 11 12  1  0
 12 13  1  0
 13 14  1  0
 11 15  1  0
 15 16  1  0
 15 17  1  0
  5 18  1  0
 18  3  1  0
 17  9  2  0
 14 12  1  0
M  END
>  <id>  (163) 
275657

>  <inchikey>  (163) 
XMXWAUZVHJISAV-UHFFFAOYSA-N

>  <alias>  (163) 
None

>  <smiles>  (163) 
COC1CN(C(=O)Nc2cc(C3CC3)n(C)n2)C1

>  <path>  (163) 
/opt/xchem-fragalysis-2/maxwin/RdRp_FFF/syndirella/mar_elabs/elabs_050/GLKYHQBKOTZYGD-UHFFFAOYSA-N/output/GLKYHQBKOTZYGD-UHFFFAOYSA-N-PkfPUd-88-A/GLKYHQBKOTZYGD-UHFFFAOYSA-N-PkfPUd-88-A.minimised.mol

>  <distance_score>  (163) 
1.307462

>  <energy_score>  (163) 
-21.594735

>  <compound>  (163) 
XMXWAUZVHJISAV-UHFFFAOYSA-N

>  <compound_id>  (163) 
113410

>  <target>  (163) 
Flavi_NS5_RdRp

>  <tags>  (163) 
[]

>  <inspirations>  (163) 
{P Ã— 2}

>  <subsites>  (163) 
None

>  <reference>  (163) 
z0211a

>  <SLURM_JOB_ID>  (163) 
nan

>  <SLURM_JOB_NAME>  (163) 
nan

>  <csv_name>  (163) 
nan

>  <scratch_subdir>  (163) 
nan

>  <fragmenstein_runtime>  (163) 
nan

>  <fragmenstein_outcome>  (163) 
nan

>  <fragmenstein_mode>  (163) 
nan

>  <fragmenstein_error>  (163) 
nan

>  <exports>  (163) 
nan

>  <Multi-SuCOS>  (163) 
nan

>  <merge_set>  (163) 
nan

$$$$
DRLKSQVEPIIAHG-VIFPVBQESA-N
     RDKit          3D

 19 20  0  0  0  0  0  0  0  0999 V2000
  -30.5902  -31.3640  -18.9717 C   0  0  0  0  0  0  0  0  0  0  0  0
  -30.5624  -29.8889  -19.1551 C   0  0  0  0  0  0  0  0  0  0  0  0
  -29.4459  -29.4925  -20.0944 C   0  0  0  0  0  0  0  0  0  0  0  0
  -28.1336  -29.9456  -19.7055 N   0  0  0  0  0  0  0  0  0  0  0  0
  -27.3747  -30.4101  -20.6956 N   0  0  0  0  0  0  0  0  0  0  0  0
  -26.2111  -30.6887  -20.1286 C   0  0  0  0  0  0  0  0  0  0  0  0
  -25.1552  -31.0902  -20.8703 N   0  0  0  0  0  0  0  0  0  0  0  0
  -25.0140  -31.2614  -22.4033 C   0  0  0  0  0  0  0  0  0  0  0  0
  -25.7421  -31.0152  -23.2387 O   0  0  0  0  0  0  0  0  0  0  0  0
  -23.5871  -31.8345  -22.4646 N   0  0  0  0  0  0  0  0  0  0  0  0
  -22.8239  -32.3012  -23.5794 C   0  0  0  0  0  0  0  0  0  0  0  0
  -21.3433  -32.3454  -23.2448 C   0  0  2  0  0  0  0  0  0  0  0  0
  -21.0345  -33.5298  -22.3575 C   0  0  0  0  0  0  0  0  0  0  0  0
  -20.9297  -31.1786  -22.5384 O   0  0  0  0  0  0  0  0  0  0  0  0
  -26.2417  -30.4637  -18.7437 C   0  0  0  0  0  0  0  0  0  0  0  0
  -27.5068  -29.9728  -18.4882 C   0  0  0  0  0  0  0  0  0  0  0  0
  -27.9715  -29.4076  -17.1230 C   0  0  0  0  0  0  0  0  0  0  0  0
  -28.7543  -30.0660  -16.0359 C   0  0  0  0  0  0  0  0  0  0  0  0
  -27.2736  -29.9750  -15.8981 C   0  0  0  0  0  0  0  0  0  0  0  0
  1  2  1  0
  2  3  1  0
  3  4  1  0
  4  5  1  0
  5  6  2  0
  6  7  1  0
  7  8  1  0
  8  9  2  0
  8 10  1  0
 10 11  1  0
 11 12  1  0
 12 13  1  1
 12 14  1  0
  6 15  1  0
 15 16  2  0
 16 17  1  0
 17 18  1  0
 18 19  1  0
 16  4  1  0
 19 17  1  0
M  END
>  <id>  (164) 
275780

>  <inchikey>  (164) 
DRLKSQVEPIIAHG-VIFPVBQESA-N

>  <alias>  (164) 
None

>  <smiles>  (164) 
CCCn1nc(NC(=O)NC[C@H](C)O)cc1C1CC1

>  <path>  (164) 
/opt/xchem-fragalysis-2/maxwin/RdRp_FFF/syndirella/mar_elabs/elabs_050/GLKYHQBKOTZYGD-UHFFFAOYSA-N/output/GLKYHQBKOTZYGD-UHFFFAOYSA-N-PkfPUd-310-A/GLKYHQBKOTZYGD-UHFFFAOYSA-N-PkfPUd-310-A.minimised.mol

>  <distance_score>  (164) 
1.293729

>  <energy_score>  (164) 
-30.587295

>  <compound>  (164) 
DRLKSQVEPIIAHG-UHFFFAOYSA-N

>  <compound_id>  (164) 
113540

>  <target>  (164) 
Flavi_NS5_RdRp

>  <tags>  (164) 
[]

>  <inspirations>  (164) 
{P Ã— 2}

>  <subsites>  (164) 
None

>  <reference>  (164) 
z0211a

>  <SLURM_JOB_ID>  (164) 
nan

>  <SLURM_JOB_NAME>  (164) 
nan

>  <csv_name>  (164) 
nan

>  <scratch_subdir>  (164) 
nan

>  <fragmenstein_runtime>  (164) 
nan

>  <fragmenstein_outcome>  (164) 
nan

>  <fragmenstein_mode>  (164) 
nan

>  <fragmenstein_error>  (164) 
nan

>  <exports>  (164) 
nan

>  <Multi-SuCOS>  (164) 
nan

>  <merge_set>  (164) 
nan

$$$$
VVCHFCCMHYVWFH-SNVBAGLBSA-N
     RDKit          3D

 19 20  0  0  0  0  0  0  0  0999 V2000
  -22.9939  -34.8017  -25.0714 C   0  0  0  0  0  0  0  0  0  0  0  0
  -22.1003  -33.6029  -25.3559 C   0  0  0  0  0  0  0  0  0  0  0  0
  -21.4109  -33.0062  -24.1246 C   0  0  0  0  0  0  0  0  0  0  0  0
  -22.3117  -32.7230  -22.9252 C   0  0  1  0  0  0  0  0  0  0  0  0
  -21.5140  -32.1480  -21.8819 O   0  0  0  0  0  0  0  0  0  0  0  0
  -23.4501  -31.7720  -23.2771 C   0  0  0  0  0  0  0  0  0  0  0  0
  -24.2100  -31.4081  -22.1195 N   0  0  0  0  0  0  0  0  0  0  0  0
  -25.6683  -30.9125  -21.9950 C   0  0  0  0  0  0  0  0  0  0  0  0
  -26.4752  -30.8016  -22.7860 O   0  0  0  0  0  0  0  0  0  0  0  0
  -25.7266  -30.6759  -20.4707 N   0  0  0  0  0  0  0  0  0  0  0  0
  -26.7736  -30.3625  -19.6716 C   0  0  0  0  0  0  0  0  0  0  0  0
  -26.6545  -29.9907  -18.3258 C   0  0  0  0  0  0  0  0  0  0  0  0
  -27.9479  -29.8416  -17.8860 C   0  0  0  0  0  0  0  0  0  0  0  0
  -28.3214  -29.4582  -16.4429 C   0  0  0  0  0  0  0  0  0  0  0  0
  -28.9656  -30.3452  -15.4382 C   0  0  0  0  0  0  0  0  0  0  0  0
  -27.4881  -30.1485  -15.3793 C   0  0  0  0  0  0  0  0  0  0  0  0
  -28.7438  -30.1044  -18.9609 N   0  0  0  0  0  0  0  0  0  0  0  0
  -30.1744  -30.2108  -18.9990 C   0  0  0  0  0  0  0  0  0  0  0  0
  -28.0451  -30.3900  -20.0700 N   0  0  0  0  0  0  0  0  0  0  0  0
  1  2  1  0
  2  3  1  0
  3  4  1  0
  4  5  1  1
  4  6  1  0
  6  7  1  0
  7  8  1  0
  8  9  2  0
  8 10  1  0
 10 11  1  0
 11 12  1  0
 12 13  2  0
 13 14  1  0
 14 15  1  0
 15 16  1  0
 13 17  1  0
 17 18  1  0
 17 19  1  0
 19 11  2  0
 16 14  1  0
M  END
>  <id>  (165) 
275885

>  <inchikey>  (165) 
VVCHFCCMHYVWFH-SNVBAGLBSA-N

>  <alias>  (165) 
None

>  <smiles>  (165) 
CCC[C@@H](O)CNC(=O)Nc1cc(C2CC2)n(C)n1

>  <path>  (165) 
/opt/xchem-fragalysis-2/maxwin/RdRp_FFF/syndirella/mar_elabs/elabs_050/GLKYHQBKOTZYGD-UHFFFAOYSA-N/output/GLKYHQBKOTZYGD-UHFFFAOYSA-N-PkfPUd-453-B/GLKYHQBKOTZYGD-UHFFFAOYSA-N-PkfPUd-453-B.minimised.mol

>  <distance_score>  (165) 
1.128468

>  <energy_score>  (165) 
-22.402467

>  <compound>  (165) 
VVCHFCCMHYVWFH-UHFFFAOYSA-N

>  <compound_id>  (165) 
113669

>  <target>  (165) 
Flavi_NS5_RdRp

>  <tags>  (165) 
[]

>  <inspirations>  (165) 
{P Ã— 2}

>  <subsites>  (165) 
None

>  <reference>  (165) 
z0211a

>  <SLURM_JOB_ID>  (165) 
nan

>  <SLURM_JOB_NAME>  (165) 
nan

>  <csv_name>  (165) 
nan

>  <scratch_subdir>  (165) 
nan

>  <fragmenstein_runtime>  (165) 
nan

>  <fragmenstein_outcome>  (165) 
nan

>  <fragmenstein_mode>  (165) 
nan

>  <fragmenstein_error>  (165) 
nan

>  <exports>  (165) 
nan

>  <Multi-SuCOS>  (165) 
nan

>  <merge_set>  (165) 
nan

$$$$
VAVMNIYJXWYAOD-VIFPVBQESA-N
     RDKit          3D

 19 21  0  0  0  0  0  0  0  0999 V2000
  -30.6813  -30.0574  -20.3124 C   0  0  0  0  0  0  0  0  0  0  0  0
  -30.0135  -30.2041  -18.9617 C   0  0  0  0  0  0  0  0  0  0  0  0
  -28.5708  -30.2035  -19.0190 N   0  0  0  0  0  0  0  0  0  0  0  0
  -27.9406  -30.5882  -20.1404 N   0  0  0  0  0  0  0  0  0  0  0  0
  -26.6874  -30.8141  -19.7511 C   0  0  0  0  0  0  0  0  0  0  0  0
  -25.7662  -31.3840  -20.5639 N   0  0  0  0  0  0  0  0  0  0  0  0
  -25.5615  -31.2555  -22.0836 C   0  0  0  0  0  0  0  0  0  0  0  0
  -26.1859  -30.7120  -22.8694 O   0  0  0  0  0  0  0  0  0  0  0  0
  -24.2338  -31.9780  -22.2153 N   0  0  0  0  0  0  0  0  0  0  0  0
  -23.4209  -32.2706  -23.4054 C   0  0  0  0  0  0  0  0  0  0  0  0
  -21.9697  -32.5579  -23.0781 C   0  0  2  0  0  0  0  0  0  0  0  0
  -21.6600  -33.9329  -22.9585 O   0  0  0  0  0  0  0  0  0  0  0  0
  -21.9306  -31.8463  -21.7778 C   0  0  0  0  0  0  0  0  0  0  0  0
  -23.1084  -31.0680  -21.9785 O   0  0  0  0  0  0  0  0  0  0  0  0
  -26.4792  -30.4233  -18.4176 C   0  0  0  0  0  0  0  0  0  0  0  0
  -27.7185  -30.0266  -17.9674 C   0  0  0  0  0  0  0  0  0  0  0  0
  -28.0352  -29.5288  -16.5437 C   0  0  0  0  0  0  0  0  0  0  0  0
  -28.7503  -30.2835  -15.4762 C   0  0  0  0  0  0  0  0  0  0  0  0
  -27.2597  -30.1865  -15.4241 C   0  0  0  0  0  0  0  0  0  0  0  0
  1  2  1  0
  2  3  1  0
  3  4  1  0
  4  5  2  0
  5  6  1  0
  6  7  1  0
  7  8  2  0
  7  9  1  0
  9 10  1  0
 10 11  1  0
 11 12  1  1
 11 13  1  0
 13 14  1  0
  5 15  1  0
 15 16  2  0
 16 17  1  0
 17 18  1  0
 18 19  1  0
 16  3  1  0
 19 17  1  0
 14  9  1  0
M  END
>  <id>  (166) 
276059

>  <inchikey>  (166) 
VAVMNIYJXWYAOD-VIFPVBQESA-N

>  <alias>  (166) 
None

>  <smiles>  (166) 
CCn1nc(NC(=O)N2C[C@H](O)CO2)cc1C1CC1

>  <path>  (166) 
/opt/xchem-fragalysis-2/maxwin/RdRp_FFF/syndirella/mar_elabs/elabs_050/GLKYHQBKOTZYGD-UHFFFAOYSA-N/output/GLKYHQBKOTZYGD-UHFFFAOYSA-N-PkfPUd-565-A/GLKYHQBKOTZYGD-UHFFFAOYSA-N-PkfPUd-565-A.minimised.mol

>  <distance_score>  (166) 
1.073271

>  <energy_score>  (166) 
-1.164008

>  <compound>  (166) 
VAVMNIYJXWYAOD-UHFFFAOYSA-N

>  <compound_id>  (166) 
113729

>  <target>  (166) 
Flavi_NS5_RdRp

>  <tags>  (166) 
[]

>  <inspirations>  (166) 
{P Ã— 2}

>  <subsites>  (166) 
None

>  <reference>  (166) 
z0211a

>  <SLURM_JOB_ID>  (166) 
nan

>  <SLURM_JOB_NAME>  (166) 
nan

>  <csv_name>  (166) 
nan

>  <scratch_subdir>  (166) 
nan

>  <fragmenstein_runtime>  (166) 
nan

>  <fragmenstein_outcome>  (166) 
nan

>  <fragmenstein_mode>  (166) 
nan

>  <fragmenstein_error>  (166) 
nan

>  <exports>  (166) 
nan

>  <Multi-SuCOS>  (166) 
nan

>  <merge_set>  (166) 
nan

$$$$
KVTIGPKPJNSTCA-SSDOTTSWSA-N
     RDKit          3D

 19 20  0  0  0  0  0  0  0  0999 V2000
  -20.4590  -31.1130  -21.4590 C   0  0  0  0  0  0  0  0  0  0  0  0
  -21.4639  -31.8729  -20.8129 O   0  0  0  0  0  0  0  0  0  0  0  0
  -21.9643  -32.9737  -21.5697 C   0  0  2  0  0  0  0  0  0  0  0  0
  -20.8692  -33.8565  -22.1196 C   0  0  0  0  0  0  0  0  0  0  0  0
  -23.0788  -32.5208  -22.5493 C   0  0  0  0  0  0  0  0  0  0  0  0
  -23.2106  -32.9254  -24.0510 S   0  0  0  0  0  0  0  0  0  0  0  0
  -24.0229  -31.6707  -21.5712 N   0  0  0  0  0  0  0  0  0  0  0  0
  -25.4996  -31.0205  -21.7570 C   0  0  0  0  0  0  0  0  0  0  0  0
  -26.1890  -30.9488  -22.6724 O   0  0  0  0  0  0  0  0  0  0  0  0
  -25.7296  -30.6337  -20.3618 N   0  0  0  0  0  0  0  0  0  0  0  0
  -26.8451  -30.1702  -19.7455 C   0  0  0  0  0  0  0  0  0  0  0  0
  -26.8877  -29.8945  -18.3689 C   0  0  0  0  0  0  0  0  0  0  0  0
  -28.2267  -29.9425  -18.0586 C   0  0  0  0  0  0  0  0  0  0  0  0
  -28.7993  -30.2737  -16.6590 C   0  0  0  0  0  0  0  0  0  0  0  0
  -27.7695  -30.3630  -15.5322 C   0  0  0  0  0  0  0  0  0  0  0  0
  -28.8712  -29.3756  -15.5076 C   0  0  0  0  0  0  0  0  0  0  0  0
  -28.8862  -29.9979  -19.2564 N   0  0  0  0  0  0  0  0  0  0  0  0
  -30.2957  -30.1949  -19.4760 C   0  0  0  0  0  0  0  0  0  0  0  0
  -28.0509  -30.1059  -20.3032 N   0  0  0  0  0  0  0  0  0  0  0  0
  1  2  1  0
  2  3  1  0
  3  4  1  6
  3  5  1  0
  5  6  2  0
  5  7  1  0
  7  8  1  0
  8  9  2  0
  8 10  1  0
 10 11  1  0
 11 12  1  0
 12 13  2  0
 13 14  1  0
 14 15  1  0
 15 16  1  0
 13 17  1  0
 17 18  1  0
 17 19  1  0
 19 11  2  0
 16 14  1  0
M  END
>  <id>  (167) 
276094

>  <inchikey>  (167) 
KVTIGPKPJNSTCA-SSDOTTSWSA-N

>  <alias>  (167) 
None

>  <smiles>  (167) 
CO[C@H](C)C(=S)NC(=O)Nc1cc(C2CC2)n(C)n1

>  <path>  (167) 
/opt/xchem-fragalysis-2/maxwin/RdRp_FFF/syndirella/mar_elabs/elabs_050/GLKYHQBKOTZYGD-UHFFFAOYSA-N/output/GLKYHQBKOTZYGD-UHFFFAOYSA-N-PkfPUd-611-A/GLKYHQBKOTZYGD-UHFFFAOYSA-N-PkfPUd-611-A.minimised.mol

>  <distance_score>  (167) 
1.206233

>  <energy_score>  (167) 
-39.220873

>  <compound>  (167) 
KVTIGPKPJNSTCA-UHFFFAOYSA-N

>  <compound_id>  (167) 
113678

>  <target>  (167) 
Flavi_NS5_RdRp

>  <tags>  (167) 
[]

>  <inspirations>  (167) 
{P Ã— 2}

>  <subsites>  (167) 
None

>  <reference>  (167) 
z0211a

>  <SLURM_JOB_ID>  (167) 
nan

>  <SLURM_JOB_NAME>  (167) 
nan

>  <csv_name>  (167) 
nan

>  <scratch_subdir>  (167) 
nan

>  <fragmenstein_runtime>  (167) 
nan

>  <fragmenstein_outcome>  (167) 
nan

>  <fragmenstein_mode>  (167) 
nan

>  <fragmenstein_error>  (167) 
nan

>  <exports>  (167) 
nan

>  <Multi-SuCOS>  (167) 
nan

>  <merge_set>  (167) 
nan

$$$$
WSTQYNYWMRNUMQ-UHFFFAOYSA-N
     RDKit          3D

 19 20  0  0  0  0  0  0  0  0999 V2000
  -21.1407  -32.8051  -24.8598 C   0  0  0  0  0  0  0  0  0  0  0  0
  -21.2831  -33.4946  -23.6351 O   0  0  0  0  0  0  0  0  0  0  0  0
  -21.8961  -32.7724  -22.5497 C   0  0  0  0  0  0  0  0  0  0  0  0
  -20.9090  -31.7537  -21.9719 C   0  0  0  0  0  0  0  0  0  0  0  0
  -22.1524  -33.8569  -21.4865 C   0  0  0  0  0  0  0  0  0  0  0  0
  -23.2240  -32.1153  -22.9695 C   0  0  0  0  0  0  0  0  0  0  0  0
  -23.9937  -31.5458  -21.8997 N   0  0  0  0  0  0  0  0  0  0  0  0
  -25.4664  -31.0783  -21.8653 C   0  0  0  0  0  0  0  0  0  0  0  0
  -26.2353  -31.0147  -22.6983 O   0  0  0  0  0  0  0  0  0  0  0  0
  -25.5959  -30.7536  -20.3607 N   0  0  0  0  0  0  0  0  0  0  0  0
  -26.6794  -30.3960  -19.6307 C   0  0  0  0  0  0  0  0  0  0  0  0
  -26.6194  -29.9882  -18.2904 C   0  0  0  0  0  0  0  0  0  0  0  0
  -27.9300  -29.8289  -17.9151 C   0  0  0  0  0  0  0  0  0  0  0  0
  -28.3698  -29.4442  -16.4942 C   0  0  0  0  0  0  0  0  0  0  0  0
  -29.1594  -30.3304  -15.5956 C   0  0  0  0  0  0  0  0  0  0  0  0
  -27.6910  -30.1837  -15.3666 C   0  0  0  0  0  0  0  0  0  0  0  0
  -28.6792  -30.1015  -19.0214 N   0  0  0  0  0  0  0  0  0  0  0  0
  -30.1092  -30.1861  -19.1255 C   0  0  0  0  0  0  0  0  0  0  0  0
  -27.9310  -30.4242  -20.0887 N   0  0  0  0  0  0  0  0  0  0  0  0
  1  2  1  0
  2  3  1  0
  3  4  1  0
  3  5  1  0
  3  6  1  0
  6  7  1  0
  7  8  1  0
  8  9  2  0
  8 10  1  0
 10 11  1  0
 11 12  1  0
 12 13  2  0
 13 14  1  0
 14 15  1  0
 15 16  1  0
 13 17  1  0
 17 18  1  0
 17 19  1  0
 19 11  2  0
 16 14  1  0
M  END
>  <id>  (168) 
276097

>  <inchikey>  (168) 
WSTQYNYWMRNUMQ-UHFFFAOYSA-N

>  <alias>  (168) 
None

>  <smiles>  (168) 
COC(C)(C)CNC(=O)Nc1cc(C2CC2)n(C)n1

>  <path>  (168) 
/opt/xchem-fragalysis-2/maxwin/RdRp_FFF/syndirella/mar_elabs/elabs_050/GLKYHQBKOTZYGD-UHFFFAOYSA-N/output/GLKYHQBKOTZYGD-UHFFFAOYSA-N-PkfPUd-615-A/GLKYHQBKOTZYGD-UHFFFAOYSA-N-PkfPUd-615-A.minimised.mol

>  <distance_score>  (168) 
1.016041

>  <energy_score>  (168) 
-31.139351

>  <compound>  (168) 
WSTQYNYWMRNUMQ-UHFFFAOYSA-N

>  <compound_id>  (168) 
113626

>  <target>  (168) 
Flavi_NS5_RdRp

>  <tags>  (168) 
[]

>  <inspirations>  (168) 
{P Ã— 2}

>  <subsites>  (168) 
None

>  <reference>  (168) 
z0211a

>  <SLURM_JOB_ID>  (168) 
nan

>  <SLURM_JOB_NAME>  (168) 
nan

>  <csv_name>  (168) 
nan

>  <scratch_subdir>  (168) 
nan

>  <fragmenstein_runtime>  (168) 
nan

>  <fragmenstein_outcome>  (168) 
nan

>  <fragmenstein_mode>  (168) 
nan

>  <fragmenstein_error>  (168) 
nan

>  <exports>  (168) 
nan

>  <Multi-SuCOS>  (168) 
nan

>  <merge_set>  (168) 
nan

$$$$
MLXMDPWYKYTBII-UHFFFAOYSA-N
     RDKit          3D

 19 20  0  0  0  0  0  0  0  0999 V2000
  -29.8147  -30.3277  -19.4629 C   0  0  0  0  0  0  0  0  0  0  0  0
  -28.3858  -30.3578  -19.2871 N   0  0  0  0  0  0  0  0  0  0  0  0
  -27.6458  -30.8129  -20.3062 N   0  0  0  0  0  0  0  0  0  0  0  0
  -26.3894  -30.7209  -19.8781 C   0  0  0  0  0  0  0  0  0  0  0  0
  -25.3440  -31.1509  -20.6232 N   0  0  0  0  0  0  0  0  0  0  0  0
  -25.3043  -32.0376  -21.7914 C   0  0  0  0  0  0  0  0  0  0  0  0
  -26.1440  -32.6344  -22.2992 O   0  0  0  0  0  0  0  0  0  0  0  0
  -23.7577  -31.8283  -22.1938 N   0  0  0  0  0  0  0  0  0  0  0  0
  -22.9585  -32.2582  -23.3957 C   0  0  0  0  0  0  0  0  0  0  0  0
  -23.2922  -32.8196  -24.4411 N   0  0  0  0  0  0  0  0  0  0  0  0
  -21.4161  -31.9749  -23.1656 C   0  0  0  0  0  0  0  0  0  0  0  0
  -20.6956  -33.1716  -23.7822 C   0  0  0  0  0  0  0  0  0  0  0  0
  -20.9639  -31.8689  -21.7032 C   0  0  0  0  0  0  0  0  0  0  0  0
  -20.9572  -30.8144  -23.8480 O   0  0  0  0  0  0  0  0  0  0  0  0
  -26.3114  -30.1610  -18.5948 C   0  0  0  0  0  0  0  0  0  0  0  0
  -27.6243  -30.0792  -18.1858 C   0  0  0  0  0  0  0  0  0  0  0  0
  -28.0171  -29.8994  -16.7055 C   0  0  0  0  0  0  0  0  0  0  0  0
  -29.3582  -30.3492  -16.1750 C   0  0  0  0  0  0  0  0  0  0  0  0
  -29.0563  -28.9113  -16.3477 C   0  0  0  0  0  0  0  0  0  0  0  0
  1  2  1  0
  2  3  1  0
  3  4  2  0
  4  5  1  0
  5  6  1  0
  6  7  2  0
  6  8  1  0
  8  9  1  0
  9 10  2  3
  9 11  1  0
 11 12  1  0
 11 13  1  0
 11 14  1  0
  4 15  1  0
 15 16  2  0
 16 17  1  0
 17 18  1  0
 18 19  1  0
 16  2  1  0
 19 17  1  0
M  END
>  <id>  (169) 
276099

>  <inchikey>  (169) 
MLXMDPWYKYTBII-UHFFFAOYSA-N

>  <alias>  (169) 
None

>  <smiles>  (169) 
Cn1nc(NC(=O)NC(=N)C(C)(C)O)cc1C1CC1

>  <path>  (169) 
/opt/xchem-fragalysis-2/maxwin/RdRp_FFF/syndirella/mar_elabs/elabs_050/GLKYHQBKOTZYGD-UHFFFAOYSA-N/output/GLKYHQBKOTZYGD-UHFFFAOYSA-N-PkfPUd-617-A/GLKYHQBKOTZYGD-UHFFFAOYSA-N-PkfPUd-617-A.minimised.mol

>  <distance_score>  (169) 
1.386506

>  <energy_score>  (169) 
-3.932841

>  <compound>  (169) 
MLXMDPWYKYTBII-UHFFFAOYSA-N

>  <compound_id>  (169) 
113770

>  <target>  (169) 
Flavi_NS5_RdRp

>  <tags>  (169) 
[]

>  <inspirations>  (169) 
{P Ã— 2}

>  <subsites>  (169) 
None

>  <reference>  (169) 
z0211a

>  <SLURM_JOB_ID>  (169) 
nan

>  <SLURM_JOB_NAME>  (169) 
nan

>  <csv_name>  (169) 
nan

>  <scratch_subdir>  (169) 
nan

>  <fragmenstein_runtime>  (169) 
nan

>  <fragmenstein_outcome>  (169) 
nan

>  <fragmenstein_mode>  (169) 
nan

>  <fragmenstein_error>  (169) 
nan

>  <exports>  (169) 
nan

>  <Multi-SuCOS>  (169) 
nan

>  <merge_set>  (169) 
nan

$$$$
RBZWWBBNQBBBSS-QMMMGPOBSA-N
     RDKit          3D

 19 20  0  0  0  0  0  0  0  0999 V2000
  -30.2279  -30.2018  -18.9564 C   0  0  0  0  0  0  0  0  0  0  0  0
  -28.7993  -30.0736  -18.9576 N   0  0  0  0  0  0  0  0  0  0  0  0
  -28.1318  -30.3283  -20.0922 N   0  0  0  0  0  0  0  0  0  0  0  0
  -26.8543  -30.3536  -19.7177 C   0  0  0  0  0  0  0  0  0  0  0  0
  -25.8440  -30.7079  -20.5440 N   0  0  0  0  0  0  0  0  0  0  0  0
  -25.8123  -30.8488  -22.0817 C   0  0  0  0  0  0  0  0  0  0  0  0
  -26.6083  -30.6132  -22.8569 O   0  0  0  0  0  0  0  0  0  0  0  0
  -24.4115  -31.4798  -22.2492 N   0  0  0  0  0  0  0  0  0  0  0  0
  -23.7704  -32.0273  -23.4135 C   0  0  0  0  0  0  0  0  0  0  0  0
  -22.3685  -32.5272  -23.0933 C   0  0  2  0  0  0  0  0  0  0  0  0
  -21.6559  -31.5509  -22.3305 O   0  0  0  0  0  0  0  0  0  0  0  0
  -21.6699  -32.9503  -24.3817 C   0  0  0  0  0  0  0  0  0  0  0  0
  -22.1776  -33.2418  -25.4544 O   0  0  0  0  0  0  0  0  0  0  0  0
  -20.3384  -33.0684  -24.2214 O   0  0  0  0  0  0  0  0  0  0  0  0
  -26.6955  -30.0185  -18.3662 C   0  0  0  0  0  0  0  0  0  0  0  0
  -27.9751  -29.8399  -17.8972 C   0  0  0  0  0  0  0  0  0  0  0  0
  -28.3143  -29.4587  -16.4446 C   0  0  0  0  0  0  0  0  0  0  0  0
  -28.9435  -30.3441  -15.4291 C   0  0  0  0  0  0  0  0  0  0  0  0
  -27.4644  -30.1488  -15.3950 C   0  0  0  0  0  0  0  0  0  0  0  0
  1  2  1  0
  2  3  1  0
  3  4  2  0
  4  5  1  0
  5  6  1  0
  6  7  2  0
  6  8  1  0
  8  9  1  0
  9 10  1  0
 10 11  1  6
 10 12  1  0
 12 13  2  0
 12 14  1  0
  4 15  1  0
 15 16  2  0
 16 17  1  0
 17 18  1  0
 18 19  1  0
 16  2  1  0
 19 17  1  0
M  END
>  <id>  (170) 
276100

>  <inchikey>  (170) 
RBZWWBBNQBBBSS-QMMMGPOBSA-N

>  <alias>  (170) 
None

>  <smiles>  (170) 
Cn1nc(NC(=O)NC[C@H](O)C(=O)O)cc1C1CC1

>  <path>  (170) 
/opt/xchem-fragalysis-2/maxwin/RdRp_FFF/syndirella/mar_elabs/elabs_050/GLKYHQBKOTZYGD-UHFFFAOYSA-N/output/GLKYHQBKOTZYGD-UHFFFAOYSA-N-PkfPUd-618-A/GLKYHQBKOTZYGD-UHFFFAOYSA-N-PkfPUd-618-A.minimised.mol

>  <distance_score>  (170) 
1.088959

>  <energy_score>  (170) 
-11.345642

>  <compound>  (170) 
RBZWWBBNQBBBSS-UHFFFAOYSA-N

>  <compound_id>  (170) 
113732

>  <target>  (170) 
Flavi_NS5_RdRp

>  <tags>  (170) 
[]

>  <inspirations>  (170) 
{P Ã— 2}

>  <subsites>  (170) 
None

>  <reference>  (170) 
z0211a

>  <SLURM_JOB_ID>  (170) 
nan

>  <SLURM_JOB_NAME>  (170) 
nan

>  <csv_name>  (170) 
nan

>  <scratch_subdir>  (170) 
nan

>  <fragmenstein_runtime>  (170) 
nan

>  <fragmenstein_outcome>  (170) 
nan

>  <fragmenstein_mode>  (170) 
nan

>  <fragmenstein_error>  (170) 
nan

>  <exports>  (170) 
nan

>  <Multi-SuCOS>  (170) 
nan

>  <merge_set>  (170) 
nan

$$$$
JRECGDLMBNRSQP-SSDOTTSWSA-N
     RDKit          3D

 19 20  0  0  0  0  0  0  0  0999 V2000
  -30.0762  -29.9993  -20.0987 C   0  0  0  0  0  0  0  0  0  0  0  0
  -29.3472  -30.0479  -18.7640 C   0  0  0  0  0  0  0  0  0  0  0  0
  -27.9223  -30.2839  -18.8635 N   0  0  0  0  0  0  0  0  0  0  0  0
  -27.4286  -30.9351  -19.9299 N   0  0  0  0  0  0  0  0  0  0  0  0
  -26.1140  -30.9493  -19.7313 C   0  0  0  0  0  0  0  0  0  0  0  0
  -25.2281  -31.5548  -20.5573 N   0  0  0  0  0  0  0  0  0  0  0  0
  -25.4155  -32.6353  -21.5347 C   0  0  0  0  0  0  0  0  0  0  0  0
  -26.3726  -33.1684  -21.8818 O   0  0  0  0  0  0  0  0  0  0  0  0
  -23.8515  -32.8261  -21.9656 N   0  0  0  0  0  0  0  0  0  0  0  0
  -23.1099  -33.8665  -22.9188 C   0  0  0  0  0  0  0  0  0  0  0  0
  -23.6051  -35.1262  -23.6909 S   0  0  0  0  0  0  0  0  0  0  0  0
  -21.6709  -33.3241  -22.9647 C   0  0  1  0  0  0  0  0  0  0  0  0
  -21.5525  -32.2593  -24.0405 C   0  0  0  0  0  0  0  0  0  0  0  0
  -21.3169  -32.7234  -21.7170 O   0  0  0  0  0  0  0  0  0  0  0  0
  -25.7547  -30.3023  -18.5366 C   0  0  0  0  0  0  0  0  0  0  0  0
  -26.9543  -30.0102  -17.9353 C   0  0  0  0  0  0  0  0  0  0  0  0
  -27.0689  -29.5348  -16.4766 C   0  0  0  0  0  0  0  0  0  0  0  0
  -26.7250  -30.5045  -15.3761 C   0  0  0  0  0  0  0  0  0  0  0  0
  -28.1386  -30.0325  -15.5482 C   0  0  0  0  0  0  0  0  0  0  0  0
  1  2  1  0
  2  3  1  0
  3  4  1  0
  4  5  2  0
  5  6  1  0
  6  7  1  0
  7  8  2  0
  7  9  1  0
  9 10  1  0
 10 11  2  0
 10 12  1  0
 12 13  1  6
 12 14  1  0
  5 15  1  0
 15 16  2  0
 16 17  1  0
 17 18  1  0
 18 19  1  0
 16  3  1  0
 19 17  1  0
M  END
>  <id>  (171) 
276123

>  <inchikey>  (171) 
JRECGDLMBNRSQP-SSDOTTSWSA-N

>  <alias>  (171) 
None

>  <smiles>  (171) 
CCn1nc(NC(=O)NC(=S)[C@@H](C)O)cc1C1CC1

>  <path>  (171) 
/opt/xchem-fragalysis-2/maxwin/RdRp_FFF/syndirella/mar_elabs/elabs_050/GLKYHQBKOTZYGD-UHFFFAOYSA-N/output/GLKYHQBKOTZYGD-UHFFFAOYSA-N-PkfPUd-648-B/GLKYHQBKOTZYGD-UHFFFAOYSA-N-PkfPUd-648-B.minimised.mol

>  <distance_score>  (171) 
1.522085

>  <energy_score>  (171) 
-13.000773

>  <compound>  (171) 
JRECGDLMBNRSQP-UHFFFAOYSA-N

>  <compound_id>  (171) 
113791

>  <target>  (171) 
Flavi_NS5_RdRp

>  <tags>  (171) 
[]

>  <inspirations>  (171) 
{P Ã— 2}

>  <subsites>  (171) 
None

>  <reference>  (171) 
z0211a

>  <SLURM_JOB_ID>  (171) 
nan

>  <SLURM_JOB_NAME>  (171) 
nan

>  <csv_name>  (171) 
nan

>  <scratch_subdir>  (171) 
nan

>  <fragmenstein_runtime>  (171) 
nan

>  <fragmenstein_outcome>  (171) 
nan

>  <fragmenstein_mode>  (171) 
nan

>  <fragmenstein_error>  (171) 
nan

>  <exports>  (171) 
nan

>  <Multi-SuCOS>  (171) 
nan

>  <merge_set>  (171) 
nan

$$$$
PEQISULMDPESOJ-SNVBAGLBSA-N
     RDKit          3D

 20 21  0  0  0  0  0  0  0  0999 V2000
  -30.5307  -30.7725  -19.8495 C   0  0  0  0  0  0  0  0  0  0  0  0
  -29.6600  -29.6602  -19.3317 C   0  0  0  0  0  0  0  0  0  0  0  0
  -28.2782  -29.9880  -19.1289 N   0  0  0  0  0  0  0  0  0  0  0  0
  -27.5445  -30.1773  -20.2298 N   0  0  0  0  0  0  0  0  0  0  0  0
  -26.3296  -30.4494  -19.7744 C   0  0  0  0  0  0  0  0  0  0  0  0
  -25.3316  -30.8575  -20.5847 N   0  0  0  0  0  0  0  0  0  0  0  0
  -25.2960  -31.0285  -22.1202 C   0  0  0  0  0  0  0  0  0  0  0  0
  -26.0771  -30.7765  -22.9047 O   0  0  0  0  0  0  0  0  0  0  0  0
  -23.9218  -31.7108  -22.2664 N   0  0  0  0  0  0  0  0  0  0  0  0
  -23.2970  -32.2960  -23.4087 C   0  0  0  0  0  0  0  0  0  0  0  0
  -21.7922  -32.0477  -23.4372 C   0  0  1  0  0  0  0  0  0  0  0  0
  -21.2383  -32.1225  -22.1171 O   0  0  0  0  0  0  0  0  0  0  0  0
  -21.1573  -33.1104  -24.3244 C   0  0  0  0  0  0  0  0  0  0  0  0
  -21.5662  -32.9093  -25.6772 O   0  0  0  0  0  0  0  0  0  0  0  0
  -21.3997  -34.0672  -26.4729 C   0  0  0  0  0  0  0  0  0  0  0  0
  -26.2503  -30.3213  -18.3836 C   0  0  0  0  0  0  0  0  0  0  0  0
  -27.5405  -30.0576  -17.9805 C   0  0  0  0  0  0  0  0  0  0  0  0
  -27.9263  -30.0809  -16.4839 C   0  0  0  0  0  0  0  0  0  0  0  0
  -28.8674  -29.1116  -15.8790 C   0  0  0  0  0  0  0  0  0  0  0  0
  -29.3135  -30.5028  -16.0642 C   0  0  0  0  0  0  0  0  0  0  0  0
  1  2  1  0
  2  3  1  0
  3  4  1  0
  4  5  2  0
  5  6  1  0
  6  7  1  0
  7  8  2  0
  7  9  1  0
  9 10  1  0
 10 11  1  0
 11 12  1  1
 11 13  1  0
 13 14  1  0
 14 15  1  0
  5 16  1  0
 16 17  2  0
 17 18  1  0
 18 19  1  0
 19 20  1  0
 17  3  1  0
 20 18  1  0
M  END
>  <id>  (172) 
277082

>  <inchikey>  (172) 
PEQISULMDPESOJ-SNVBAGLBSA-N

>  <alias>  (172) 
None

>  <smiles>  (172) 
CCn1nc(NC(=O)NC[C@@H](O)COC)cc1C1CC1

>  <path>  (172) 
/opt/xchem-fragalysis-2/maxwin/RdRp_FFF/syndirella/mar_elabs/elabs_050/GLKYHQBKOTZYGD-UHFFFAOYSA-N/output/GLKYHQBKOTZYGD-UHFFFAOYSA-N-PkfPUd-1585-B/GLKYHQBKOTZYGD-UHFFFAOYSA-N-PkfPUd-1585-B.minimised.mol

>  <distance_score>  (172) 
1.138422

>  <energy_score>  (172) 
-7.932135

>  <compound>  (172) 
PEQISULMDPESOJ-UHFFFAOYSA-N

>  <compound_id>  (172) 
115461

>  <target>  (172) 
Flavi_NS5_RdRp

>  <tags>  (172) 
[]

>  <inspirations>  (172) 
{P Ã— 2}

>  <subsites>  (172) 
None

>  <reference>  (172) 
z0211a

>  <SLURM_JOB_ID>  (172) 
nan

>  <SLURM_JOB_NAME>  (172) 
nan

>  <csv_name>  (172) 
nan

>  <scratch_subdir>  (172) 
nan

>  <fragmenstein_runtime>  (172) 
nan

>  <fragmenstein_outcome>  (172) 
nan

>  <fragmenstein_mode>  (172) 
nan

>  <fragmenstein_error>  (172) 
nan

>  <exports>  (172) 
nan

>  <Multi-SuCOS>  (172) 
nan

>  <merge_set>  (172) 
nan

$$$$
ZDDIHIARGHTWFK-MWLCHTKSSA-N
     RDKit          3D

 20 21  0  0  0  0  0  0  0  0999 V2000
  -24.2501  -34.5554  -23.5397 C   0  0  0  0  0  0  0  0  0  0  0  0
  -24.0878  -33.1294  -24.0511 C   0  0  0  0  0  0  0  0  0  0  0  0
  -23.2883  -32.1935  -23.1273 C   0  0  1  0  0  0  0  0  0  0  0  0
  -24.0127  -31.7446  -21.9488 N   0  0  0  0  0  0  0  0  0  0  0  0
  -25.4953  -31.9705  -21.5302 C   0  0  0  0  0  0  0  0  0  0  0  0
  -26.3105  -32.5989  -22.0193 O   0  0  0  0  0  0  0  0  0  0  0  0
  -25.5639  -31.0114  -20.3146 N   0  0  0  0  0  0  0  0  0  0  0  0
  -26.6264  -30.6036  -19.5764 C   0  0  0  0  0  0  0  0  0  0  0  0
  -26.5300  -29.9334  -18.3454 C   0  0  0  0  0  0  0  0  0  0  0  0
  -27.8262  -29.8518  -17.8946 C   0  0  0  0  0  0  0  0  0  0  0  0
  -28.2242  -29.4349  -16.4682 C   0  0  0  0  0  0  0  0  0  0  0  0
  -27.4089  -30.1184  -15.3858 C   0  0  0  0  0  0  0  0  0  0  0  0
  -28.8868  -30.3037  -15.4549 C   0  0  0  0  0  0  0  0  0  0  0  0
  -28.6120  -30.2707  -18.9262 N   0  0  0  0  0  0  0  0  0  0  0  0
  -30.0544  -30.3179  -18.9564 C   0  0  0  0  0  0  0  0  0  0  0  0
  -30.6299  -30.0774  -20.3344 C   0  0  0  0  0  0  0  0  0  0  0  0
  -27.8950  -30.7874  -19.9391 N   0  0  0  0  0  0  0  0  0  0  0  0
  -21.8979  -32.7346  -22.7329 C   0  0  1  0  0  0  0  0  0  0  0  0
  -21.0002  -32.9277  -23.9434 C   0  0  0  0  0  0  0  0  0  0  0  0
  -21.2184  -31.8282  -21.8566 O   0  0  0  0  0  0  0  0  0  0  0  0
  1  2  1  0
  3  2  1  1
  3  4  1  0
  4  5  1  0
  5  6  2  0
  5  7  1  0
  7  8  1  0
  8  9  1  0
  9 10  2  0
 10 11  1  0
 11 12  1  0
 12 13  1  0
 10 14  1  0
 14 15  1  0
 15 16  1  0
 14 17  1  0
  3 18  1  0
 18 19  1  6
 18 20  1  0
 17  8  2  0
 13 11  1  0
M  END
>  <id>  (173) 
277086

>  <inchikey>  (173) 
ZDDIHIARGHTWFK-MWLCHTKSSA-N

>  <alias>  (173) 
None

>  <smiles>  (173) 
CC[C@@H](NC(=O)Nc1cc(C2CC2)n(CC)n1)[C@@H](C)O

>  <path>  (173) 
/opt/xchem-fragalysis-2/maxwin/RdRp_FFF/syndirella/mar_elabs/elabs_050/GLKYHQBKOTZYGD-UHFFFAOYSA-N/output/GLKYHQBKOTZYGD-UHFFFAOYSA-N-PkfPUd-1588-D/GLKYHQBKOTZYGD-UHFFFAOYSA-N-PkfPUd-1588-D.minimised.mol

>  <distance_score>  (173) 
1.122637

>  <energy_score>  (173) 
-13.375548

>  <compound>  (173) 
ZDDIHIARGHTWFK-UHFFFAOYSA-N

>  <compound_id>  (173) 
114514

>  <target>  (173) 
Flavi_NS5_RdRp

>  <tags>  (173) 
[]

>  <inspirations>  (173) 
{P Ã— 2}

>  <subsites>  (173) 
None

>  <reference>  (173) 
z0211a

>  <SLURM_JOB_ID>  (173) 
nan

>  <SLURM_JOB_NAME>  (173) 
nan

>  <csv_name>  (173) 
nan

>  <scratch_subdir>  (173) 
nan

>  <fragmenstein_runtime>  (173) 
nan

>  <fragmenstein_outcome>  (173) 
nan

>  <fragmenstein_mode>  (173) 
nan

>  <fragmenstein_error>  (173) 
nan

>  <exports>  (173) 
nan

>  <Multi-SuCOS>  (173) 
nan

>  <merge_set>  (173) 
nan

$$$$
KILKPPJYUBMOGC-CABZTGNLSA-N
     RDKit          3D

 20 21  0  0  0  0  0  0  0  0999 V2000
  -21.3267  -33.9318  -21.0850 C   0  0  0  0  0  0  0  0  0  0  0  0
  -21.1485  -33.5834  -22.5594 C   0  0  0  0  0  0  0  0  0  0  0  0
  -21.9990  -32.4219  -23.0492 C   0  0  2  0  0  0  0  0  0  0  0  0
  -21.7163  -31.3035  -22.2123 O   0  0  0  0  0  0  0  0  0  0  0  0
  -23.5011  -32.7835  -23.0426 C   0  0  2  0  0  0  0  0  0  0  0  0
  -24.1812  -32.3129  -24.3229 C   0  0  0  0  0  0  0  0  0  0  0  0
  -24.1681  -32.2081  -21.9029 N   0  0  0  0  0  0  0  0  0  0  0  0
  -25.6501  -32.2965  -21.4569 C   0  0  0  0  0  0  0  0  0  0  0  0
  -26.5145  -32.8965  -21.8919 O   0  0  0  0  0  0  0  0  0  0  0  0
  -25.6323  -31.2521  -20.3110 N   0  0  0  0  0  0  0  0  0  0  0  0
  -26.6520  -30.7187  -19.5933 C   0  0  0  0  0  0  0  0  0  0  0  0
  -26.5117  -30.0083  -18.3888 C   0  0  0  0  0  0  0  0  0  0  0  0
  -27.7997  -29.8722  -17.9230 C   0  0  0  0  0  0  0  0  0  0  0  0
  -28.1735  -29.4352  -16.4950 C   0  0  0  0  0  0  0  0  0  0  0  0
  -27.3588  -30.1130  -15.4093 C   0  0  0  0  0  0  0  0  0  0  0  0
  -28.8393  -30.2852  -15.4662 C   0  0  0  0  0  0  0  0  0  0  0  0
  -28.6134  -30.2785  -18.9375 N   0  0  0  0  0  0  0  0  0  0  0  0
  -30.0564  -30.3028  -18.9416 C   0  0  0  0  0  0  0  0  0  0  0  0
  -30.6496  -30.0766  -20.3153 C   0  0  0  0  0  0  0  0  0  0  0  0
  -27.9301  -30.8358  -19.9495 N   0  0  0  0  0  0  0  0  0  0  0  0
  1  2  1  0
  2  3  1  0
  3  4  1  1
  3  5  1  0
  5  6  1  6
  5  7  1  0
  7  8  1  0
  8  9  2  0
  8 10  1  0
 10 11  1  0
 11 12  1  0
 12 13  2  0
 13 14  1  0
 14 15  1  0
 15 16  1  0
 13 17  1  0
 17 18  1  0
 18 19  1  0
 17 20  1  0
 20 11  2  0
 16 14  1  0
M  END
>  <id>  (174) 
277087

>  <inchikey>  (174) 
KILKPPJYUBMOGC-CABZTGNLSA-N

>  <alias>  (174) 
None

>  <smiles>  (174) 
CC[C@H](O)[C@H](C)NC(=O)Nc1cc(C2CC2)n(CC)n1

>  <path>  (174) 
/opt/xchem-fragalysis-2/maxwin/RdRp_FFF/syndirella/mar_elabs/elabs_050/GLKYHQBKOTZYGD-UHFFFAOYSA-N/output/GLKYHQBKOTZYGD-UHFFFAOYSA-N-PkfPUd-1590-A/GLKYHQBKOTZYGD-UHFFFAOYSA-N-PkfPUd-1590-A.minimised.mol

>  <distance_score>  (174) 
1.209831

>  <energy_score>  (174) 
-21.1065

>  <compound>  (174) 
KILKPPJYUBMOGC-UHFFFAOYSA-N

>  <compound_id>  (174) 
114525

>  <target>  (174) 
Flavi_NS5_RdRp

>  <tags>  (174) 
[]

>  <inspirations>  (174) 
{P Ã— 2}

>  <subsites>  (174) 
None

>  <reference>  (174) 
z0211a

>  <SLURM_JOB_ID>  (174) 
nan

>  <SLURM_JOB_NAME>  (174) 
nan

>  <csv_name>  (174) 
nan

>  <scratch_subdir>  (174) 
nan

>  <fragmenstein_runtime>  (174) 
nan

>  <fragmenstein_outcome>  (174) 
nan

>  <fragmenstein_mode>  (174) 
nan

>  <fragmenstein_error>  (174) 
nan

>  <exports>  (174) 
nan

>  <Multi-SuCOS>  (174) 
nan

>  <merge_set>  (174) 
nan

$$$$
QAJHVTIDJVRWNC-QMMMGPOBSA-N
     RDKit          3D

 20 21  0  0  0  0  0  0  0  0999 V2000
  -30.6581  -30.0921  -20.3587 C   0  0  0  0  0  0  0  0  0  0  0  0
  -30.0422  -30.2141  -18.9824 C   0  0  0  0  0  0  0  0  0  0  0  0
  -28.6070  -30.0279  -18.9442 N   0  0  0  0  0  0  0  0  0  0  0  0
  -27.8839  -30.1054  -20.0675 N   0  0  0  0  0  0  0  0  0  0  0  0
  -26.6275  -30.2515  -19.6527 C   0  0  0  0  0  0  0  0  0  0  0  0
  -25.6231  -30.6022  -20.5005 N   0  0  0  0  0  0  0  0  0  0  0  0
  -25.6496  -30.9197  -21.9423 C   0  0  0  0  0  0  0  0  0  0  0  0
  -26.5156  -30.8696  -22.6987 O   0  0  0  0  0  0  0  0  0  0  0  0
  -24.1374  -31.4510  -22.0969 N   0  0  0  0  0  0  0  0  0  0  0  0
  -23.3588  -31.9460  -23.2869 C   0  0  0  0  0  0  0  0  0  0  0  0
  -23.6969  -32.1586  -24.4556 N   0  0  0  0  0  0  0  0  0  0  0  0
  -21.8797  -32.0786  -22.8476 C   0  0  2  0  0  0  0  0  0  0  0  0
  -21.2223  -33.2747  -23.5123 C   0  0  0  0  0  0  0  0  0  0  0  0
  -21.8098  -32.1953  -21.4197 O   0  0  0  0  0  0  0  0  0  0  0  0
  -20.5745  -31.7421  -20.8789 C   0  0  0  0  0  0  0  0  0  0  0  0
  -26.5227  -30.0954  -18.2585 C   0  0  0  0  0  0  0  0  0  0  0  0
  -27.8297  -30.0273  -17.8221 C   0  0  0  0  0  0  0  0  0  0  0  0
  -28.3216  -30.3124  -16.3878 C   0  0  0  0  0  0  0  0  0  0  0  0
  -27.3276  -30.0844  -15.2865 C   0  0  0  0  0  0  0  0  0  0  0  0
  -28.6189  -29.3286  -15.3547 C   0  0  0  0  0  0  0  0  0  0  0  0
  1  2  1  0
  2  3  1  0
  3  4  1  0
  4  5  2  0
  5  6  1  0
  6  7  1  0
  7  8  2  0
  7  9  1  0
  9 10  1  0
 10 11  2  3
 10 12  1  0
 12 13  1  6
 12 14  1  0
 14 15  1  0
  5 16  1  0
 16 17  2  0
 17 18  1  0
 18 19  1  0
 19 20  1  0
 17  3  1  0
 20 18  1  0
M  END
>  <id>  (175) 
277093

>  <inchikey>  (175) 
QAJHVTIDJVRWNC-QMMMGPOBSA-N

>  <alias>  (175) 
None

>  <smiles>  (175) 
CCn1nc(NC(=O)NC(=N)[C@H](C)OC)cc1C1CC1

>  <path>  (175) 
/opt/xchem-fragalysis-2/maxwin/RdRp_FFF/syndirella/mar_elabs/elabs_050/GLKYHQBKOTZYGD-UHFFFAOYSA-N/output/GLKYHQBKOTZYGD-UHFFFAOYSA-N-PkfPUd-1593-A/GLKYHQBKOTZYGD-UHFFFAOYSA-N-PkfPUd-1593-A.minimised.mol

>  <distance_score>  (175) 
0.959682

>  <energy_score>  (175) 
-29.300679

>  <compound>  (175) 
QAJHVTIDJVRWNC-UHFFFAOYSA-N

>  <compound_id>  (175) 
114524

>  <target>  (175) 
Flavi_NS5_RdRp

>  <tags>  (175) 
[]

>  <inspirations>  (175) 
{P Ã— 2}

>  <subsites>  (175) 
None

>  <reference>  (175) 
z0211a

>  <SLURM_JOB_ID>  (175) 
nan

>  <SLURM_JOB_NAME>  (175) 
nan

>  <csv_name>  (175) 
nan

>  <scratch_subdir>  (175) 
nan

>  <fragmenstein_runtime>  (175) 
nan

>  <fragmenstein_outcome>  (175) 
nan

>  <fragmenstein_mode>  (175) 
nan

>  <fragmenstein_error>  (175) 
nan

>  <exports>  (175) 
nan

>  <Multi-SuCOS>  (175) 
nan

>  <merge_set>  (175) 
nan

$$$$
OKXZHISTIFQJLM-QMMMGPOBSA-N
     RDKit          3D

 20 21  0  0  0  0  0  0  0  0999 V2000
  -29.1438  -29.0993  -21.2040 C   0  0  0  0  0  0  0  0  0  0  0  0
  -29.6379  -30.0816  -20.1619 C   0  0  0  0  0  0  0  0  0  0  0  0
  -28.9211  -29.9577  -18.8222 C   0  0  0  0  0  0  0  0  0  0  0  0
  -27.5064  -30.2554  -18.7918 N   0  0  0  0  0  0  0  0  0  0  0  0
  -26.8774  -30.8144  -19.8439 N   0  0  0  0  0  0  0  0  0  0  0  0
  -25.5972  -30.8557  -19.4773 C   0  0  0  0  0  0  0  0  0  0  0  0
  -24.5573  -31.3065  -20.2223 N   0  0  0  0  0  0  0  0  0  0  0  0
  -24.5376  -32.0723  -21.4779 C   0  0  0  0  0  0  0  0  0  0  0  0
  -25.4033  -32.4049  -22.1654 O   0  0  0  0  0  0  0  0  0  0  0  0
  -22.9584  -32.3748  -21.5370 N   0  0  0  0  0  0  0  0  0  0  0  0
  -22.1096  -33.0864  -22.5446 C   0  0  0  0  0  0  0  0  0  0  0  0
  -22.4028  -33.7096  -23.5679 N   0  0  0  0  0  0  0  0  0  0  0  0
  -20.6582  -33.0229  -22.0312 C   0  0  2  0  0  0  0  0  0  0  0  0
  -20.4597  -34.1741  -21.0506 C   0  0  0  0  0  0  0  0  0  0  0  0
  -20.4017  -31.7939  -21.3474 O   0  0  0  0  0  0  0  0  0  0  0  0
  -25.4099  -30.3696  -18.1724 C   0  0  0  0  0  0  0  0  0  0  0  0
  -26.6672  -30.0601  -17.7313 C   0  0  0  0  0  0  0  0  0  0  0  0
  -26.9528  -29.5939  -16.3007 C   0  0  0  0  0  0  0  0  0  0  0  0
  -26.7012  -30.5843  -15.1958 C   0  0  0  0  0  0  0  0  0  0  0  0
  -28.0921  -30.0875  -15.4628 C   0  0  0  0  0  0  0  0  0  0  0  0
  1  2  1  0
  2  3  1  0
  3  4  1  0
  4  5  1  0
  5  6  2  0
  6  7  1  0
  7  8  1  0
  8  9  2  0
  8 10  1  0
 10 11  1  0
 11 12  2  3
 11 13  1  0
 13 14  1  1
 13 15  1  0
  6 16  1  0
 16 17  2  0
 17 18  1  0
 18 19  1  0
 19 20  1  0
 17  4  1  0
 20 18  1  0
M  END
>  <id>  (176) 
277264

>  <inchikey>  (176) 
OKXZHISTIFQJLM-QMMMGPOBSA-N

>  <alias>  (176) 
None

>  <smiles>  (176) 
CCCn1nc(NC(=O)NC(=N)[C@H](C)O)cc1C1CC1

>  <path>  (176) 
/opt/xchem-fragalysis-2/maxwin/RdRp_FFF/syndirella/mar_elabs/elabs_050/GLKYHQBKOTZYGD-UHFFFAOYSA-N/output/GLKYHQBKOTZYGD-UHFFFAOYSA-N-PkfPUd-1747-A/GLKYHQBKOTZYGD-UHFFFAOYSA-N-PkfPUd-1747-A.minimised.mol

>  <distance_score>  (176) 
1.804431

>  <energy_score>  (176) 
-14.849366

>  <compound>  (176) 
OKXZHISTIFQJLM-UHFFFAOYSA-N

>  <compound_id>  (176) 
113886

>  <target>  (176) 
Flavi_NS5_RdRp

>  <tags>  (176) 
[]

>  <inspirations>  (176) 
{P Ã— 2}

>  <subsites>  (176) 
None

>  <reference>  (176) 
z0211a

>  <SLURM_JOB_ID>  (176) 
nan

>  <SLURM_JOB_NAME>  (176) 
nan

>  <csv_name>  (176) 
nan

>  <scratch_subdir>  (176) 
nan

>  <fragmenstein_runtime>  (176) 
nan

>  <fragmenstein_outcome>  (176) 
nan

>  <fragmenstein_mode>  (176) 
nan

>  <fragmenstein_error>  (176) 
nan

>  <exports>  (176) 
nan

>  <Multi-SuCOS>  (176) 
nan

>  <merge_set>  (176) 
nan

$$$$
IDVBDBFKWFFBGM-QMMMGPOBSA-N
     RDKit          3D

 20 21  0  0  0  0  0  0  0  0999 V2000
  -29.7081  -28.9415  -21.4698 C   0  0  0  0  0  0  0  0  0  0  0  0
  -30.4679  -29.7430  -20.4419 C   0  0  0  0  0  0  0  0  0  0  0  0
  -29.7057  -30.9447  -20.0239 C   0  0  0  0  0  0  0  0  0  0  0  0
  -28.3334  -30.7246  -19.6556 N   0  0  0  0  0  0  0  0  0  0  0  0
  -27.3990  -31.1671  -20.4898 N   0  0  0  0  0  0  0  0  0  0  0  0
  -26.2509  -30.9884  -19.8483 C   0  0  0  0  0  0  0  0  0  0  0  0
  -25.1049  -31.4639  -20.4000 N   0  0  0  0  0  0  0  0  0  0  0  0
  -24.8944  -32.3573  -21.5646 C   0  0  0  0  0  0  0  0  0  0  0  0
  -25.6569  -32.9139  -22.2215 O   0  0  0  0  0  0  0  0  0  0  0  0
  -23.2790  -32.2262  -21.6741 N   0  0  0  0  0  0  0  0  0  0  0  0
  -22.2281  -32.7167  -22.7648 C   0  0  0  0  0  0  0  0  0  0  0  0
  -22.3745  -33.5836  -24.0535 S   0  0  0  0  0  0  0  0  0  0  0  0
  -20.8731  -32.1989  -22.2614 C   0  0  2  0  0  0  0  0  0  0  0  0
  -20.3210  -33.1002  -21.1690 C   0  0  0  0  0  0  0  0  0  0  0  0
  -21.0052  -30.8959  -21.7082 O   0  0  0  0  0  0  0  0  0  0  0  0
  -26.4511  -30.3326  -18.6119 C   0  0  0  0  0  0  0  0  0  0  0  0
  -27.8270  -30.2769  -18.4756 C   0  0  0  0  0  0  0  0  0  0  0  0
  -28.6903  -29.9575  -17.2331 C   0  0  0  0  0  0  0  0  0  0  0  0
  -28.3243  -30.4664  -15.8494 C   0  0  0  0  0  0  0  0  0  0  0  0
  -28.1561  -29.0474  -16.2050 C   0  0  0  0  0  0  0  0  0  0  0  0
  1  2  1  0
  2  3  1  0
  3  4  1  0
  4  5  1  0
  5  6  2  0
  6  7  1  0
  7  8  1  0
  8  9  2  0
  8 10  1  0
 10 11  1  0
 11 12  2  0
 11 13  1  0
 13 14  1  1
 13 15  1  0
  6 16  1  0
 16 17  2  0
 17 18  1  0
 18 19  1  0
 19 20  1  0
 17  4  1  0
 20 18  1  0
M  END
>  <id>  (177) 
277269

>  <inchikey>  (177) 
IDVBDBFKWFFBGM-QMMMGPOBSA-N

>  <alias>  (177) 
None

>  <smiles>  (177) 
CCCn1nc(NC(=O)NC(=S)[C@H](C)O)cc1C1CC1

>  <path>  (177) 
/opt/xchem-fragalysis-2/maxwin/RdRp_FFF/syndirella/mar_elabs/elabs_050/GLKYHQBKOTZYGD-UHFFFAOYSA-N/output/GLKYHQBKOTZYGD-UHFFFAOYSA-N-PkfPUd-1752-A/GLKYHQBKOTZYGD-UHFFFAOYSA-N-PkfPUd-1752-A.minimised.mol

>  <distance_score>  (177) 
1.524505

>  <energy_score>  (177) 
-31.242538

>  <compound>  (177) 
IDVBDBFKWFFBGM-UHFFFAOYSA-N

>  <compound_id>  (177) 
113867

>  <target>  (177) 
Flavi_NS5_RdRp

>  <tags>  (177) 
[]

>  <inspirations>  (177) 
{P Ã— 2}

>  <subsites>  (177) 
None

>  <reference>  (177) 
z0211a

>  <SLURM_JOB_ID>  (177) 
nan

>  <SLURM_JOB_NAME>  (177) 
nan

>  <csv_name>  (177) 
nan

>  <scratch_subdir>  (177) 
nan

>  <fragmenstein_runtime>  (177) 
nan

>  <fragmenstein_outcome>  (177) 
nan

>  <fragmenstein_mode>  (177) 
nan

>  <fragmenstein_error>  (177) 
nan

>  <exports>  (177) 
nan

>  <Multi-SuCOS>  (177) 
nan

>  <merge_set>  (177) 
nan

$$$$
HGXXKPAAYWNFSC-JTQLQIEISA-N
     RDKit          3D

 20 21  0  0  0  0  0  0  0  0999 V2000
  -30.6655  -31.2212  -19.8994 C   0  0  0  0  0  0  0  0  0  0  0  0
  -30.4809  -29.7552  -19.8946 C   0  0  0  0  0  0  0  0  0  0  0  0
  -29.0652  -29.3551  -20.2438 C   0  0  0  0  0  0  0  0  0  0  0  0
  -28.0185  -29.9571  -19.4580 N   0  0  0  0  0  0  0  0  0  0  0  0
  -27.0652  -30.6226  -20.1208 N   0  0  0  0  0  0  0  0  0  0  0  0
  -26.0389  -30.6641  -19.2738 C   0  0  0  0  0  0  0  0  0  0  0  0
  -24.8293  -31.1708  -19.6229 N   0  0  0  0  0  0  0  0  0  0  0  0
  -24.4185  -32.0447  -20.8392 C   0  0  0  0  0  0  0  0  0  0  0  0
  -25.0571  -32.5113  -21.6594 O   0  0  0  0  0  0  0  0  0  0  0  0
  -22.8774  -32.0431  -20.6467 N   0  0  0  0  0  0  0  0  0  0  0  0
  -21.8454  -32.7074  -21.3954 C   0  0  0  0  0  0  0  0  0  0  0  0
  -21.8769  -32.2833  -22.8742 C   0  0  1  0  0  0  0  0  0  0  0  0
  -21.0414  -31.1335  -23.0049 O   0  0  0  0  0  0  0  0  0  0  0  0
  -21.3153  -33.3986  -23.7427 C   0  0  0  0  0  0  0  0  0  0  0  0
  -21.6367  -33.1593  -25.4864 Cl  0  0  0  0  0  0  0  0  0  0  0  0
  -26.3815  -30.1118  -18.0246 C   0  0  0  0  0  0  0  0  0  0  0  0
  -27.7138  -29.7822  -18.1381 C   0  0  0  0  0  0  0  0  0  0  0  0
  -28.5980  -29.2507  -16.9960 C   0  0  0  0  0  0  0  0  0  0  0  0
  -29.7769  -30.0195  -16.4861 C   0  0  0  0  0  0  0  0  0  0  0  0
  -28.5451  -29.9208  -15.6446 C   0  0  0  0  0  0  0  0  0  0  0  0
  1  2  1  0
  2  3  1  0
  3  4  1  0
  4  5  1  0
  5  6  2  0
  6  7  1  0
  7  8  1  0
  8  9  2  0
  8 10  1  0
 10 11  1  0
 11 12  1  0
 12 13  1  1
 12 14  1  0
 14 15  1  0
  6 16  1  0
 16 17  2  0
 17 18  1  0
 18 19  1  0
 19 20  1  0
 17  4  1  0
 20 18  1  0
M  END
>  <id>  (178) 
277306

>  <inchikey>  (178) 
HGXXKPAAYWNFSC-JTQLQIEISA-N

>  <alias>  (178) 
None

>  <smiles>  (178) 
CCCn1nc(NC(=O)NC[C@@H](O)CCl)cc1C1CC1

>  <path>  (178) 
/opt/xchem-fragalysis-2/maxwin/RdRp_FFF/syndirella/mar_elabs/elabs_050/GLKYHQBKOTZYGD-UHFFFAOYSA-N/output/GLKYHQBKOTZYGD-UHFFFAOYSA-N-PkfPUd-1814-B/GLKYHQBKOTZYGD-UHFFFAOYSA-N-PkfPUd-1814-B.minimised.mol

>  <distance_score>  (178) 
1.602749

>  <energy_score>  (178) 
-32.874278

>  <compound>  (178) 
HGXXKPAAYWNFSC-UHFFFAOYSA-N

>  <compound_id>  (178) 
113876

>  <target>  (178) 
Flavi_NS5_RdRp

>  <tags>  (178) 
[]

>  <inspirations>  (178) 
{P Ã— 2}

>  <subsites>  (178) 
None

>  <reference>  (178) 
z0211a

>  <SLURM_JOB_ID>  (178) 
nan

>  <SLURM_JOB_NAME>  (178) 
nan

>  <csv_name>  (178) 
nan

>  <scratch_subdir>  (178) 
nan

>  <fragmenstein_runtime>  (178) 
nan

>  <fragmenstein_outcome>  (178) 
nan

>  <fragmenstein_mode>  (178) 
nan

>  <fragmenstein_error>  (178) 
nan

>  <exports>  (178) 
nan

>  <Multi-SuCOS>  (178) 
nan

>  <merge_set>  (178) 
nan

$$$$
VGKPCMSTLUDGJE-MRVPVSSYSA-N
     RDKit          3D

 18 19  0  0  0  0  0  0  0  0999 V2000
  -30.2568  -30.1573  -19.4304 C   0  0  0  0  0  0  0  0  0  0  0  0
  -28.8362  -30.0092  -19.2749 N   0  0  0  0  0  0  0  0  0  0  0  0
  -28.0538  -30.0935  -20.3624 N   0  0  0  0  0  0  0  0  0  0  0  0
  -26.8291  -30.2633  -19.8678 C   0  0  0  0  0  0  0  0  0  0  0  0
  -25.7538  -30.6448  -20.6044 N   0  0  0  0  0  0  0  0  0  0  0  0
  -25.6076  -30.8528  -22.1326 C   0  0  0  0  0  0  0  0  0  0  0  0
  -26.3472  -30.6587  -22.9745 O   0  0  0  0  0  0  0  0  0  0  0  0
  -24.1803  -31.4574  -22.1729 N   0  0  0  0  0  0  0  0  0  0  0  0
  -23.4395  -32.0240  -23.2682 C   0  0  0  0  0  0  0  0  0  0  0  0
  -22.0392  -32.4536  -22.8404 C   0  0  2  0  0  0  0  0  0  0  0  0
  -21.3774  -31.4050  -22.1253 O   0  0  0  0  0  0  0  0  0  0  0  0
  -21.2000  -32.8579  -24.0390 C   0  0  0  0  0  0  0  0  0  0  0  0
  -21.8430  -33.8004  -24.7763 F   0  0  0  0  0  0  0  0  0  0  0  0
  -26.8063  -30.1129  -18.4717 C   0  0  0  0  0  0  0  0  0  0  0  0
  -28.1301  -30.0256  -18.1044 C   0  0  0  0  0  0  0  0  0  0  0  0
  -28.6785  -30.2915  -16.6781 C   0  0  0  0  0  0  0  0  0  0  0  0
  -28.7487  -29.3476  -15.5648 C   0  0  0  0  0  0  0  0  0  0  0  0
  -27.6237  -30.3134  -15.5761 C   0  0  0  0  0  0  0  0  0  0  0  0
  1  2  1  0
  2  3  1  0
  3  4  2  0
  4  5  1  0
  5  6  1  0
  6  7  2  0
  6  8  1  0
  8  9  1  0
  9 10  1  0
 10 11  1  6
 10 12  1  0
 12 13  1  0
  4 14  1  0
 14 15  2  0
 15 16  1  0
 16 17  1  0
 17 18  1  0
 15  2  1  0
 18 16  1  0
M  END
>  <id>  (179) 
278011

>  <inchikey>  (179) 
VGKPCMSTLUDGJE-MRVPVSSYSA-N

>  <alias>  (179) 
None

>  <smiles>  (179) 
Cn1nc(NC(=O)NC[C@H](O)CF)cc1C1CC1

>  <path>  (179) 
/opt/xchem-fragalysis-2/maxwin/RdRp_FFF/syndirella/mar_elabs/elabs_050/GLKYHQBKOTZYGD-UHFFFAOYSA-N/output/GLKYHQBKOTZYGD-UHFFFAOYSA-N-yg6RYD-18-A/GLKYHQBKOTZYGD-UHFFFAOYSA-N-yg6RYD-18-A.minimised.mol

>  <distance_score>  (179) 
0.904805

>  <energy_score>  (179) 
-4.090768

>  <compound>  (179) 
VGKPCMSTLUDGJE-UHFFFAOYSA-N

>  <compound_id>  (179) 
113390

>  <target>  (179) 
Flavi_NS5_RdRp

>  <tags>  (179) 
[]

>  <inspirations>  (179) 
{P Ã— 2}

>  <subsites>  (179) 
None

>  <reference>  (179) 
z0211a

>  <SLURM_JOB_ID>  (179) 
nan

>  <SLURM_JOB_NAME>  (179) 
nan

>  <csv_name>  (179) 
nan

>  <scratch_subdir>  (179) 
nan

>  <fragmenstein_runtime>  (179) 
nan

>  <fragmenstein_outcome>  (179) 
nan

>  <fragmenstein_mode>  (179) 
nan

>  <fragmenstein_error>  (179) 
nan

>  <exports>  (179) 
nan

>  <Multi-SuCOS>  (179) 
nan

>  <merge_set>  (179) 
nan

$$$$
AXJXSEXNZJLMGJ-MRVPVSSYSA-N
     RDKit          3D

 18 19  0  0  0  0  0  0  0  0999 V2000
  -20.4117  -32.3797  -20.8193 C   0  0  0  0  0  0  0  0  0  0  0  0
  -21.2131  -31.7059  -21.7791 O   0  0  0  0  0  0  0  0  0  0  0  0
  -21.9440  -32.5909  -22.6384 C   0  0  2  0  0  0  0  0  0  0  0  0
  -21.1099  -32.9063  -23.8707 C   0  0  0  0  0  0  0  0  0  0  0  0
  -23.2452  -31.9092  -23.0574 C   0  0  0  0  0  0  0  0  0  0  0  0
  -24.0107  -31.4709  -21.9231 N   0  0  0  0  0  0  0  0  0  0  0  0
  -25.5015  -31.0703  -21.8147 C   0  0  0  0  0  0  0  0  0  0  0  0
  -26.3296  -31.1082  -22.5913 O   0  0  0  0  0  0  0  0  0  0  0  0
  -25.5448  -30.6455  -20.3269 N   0  0  0  0  0  0  0  0  0  0  0  0
  -26.5965  -30.2953  -19.5433 C   0  0  0  0  0  0  0  0  0  0  0  0
  -26.5212  -30.0574  -18.1608 C   0  0  0  0  0  0  0  0  0  0  0  0
  -27.8328  -30.0280  -17.7417 C   0  0  0  0  0  0  0  0  0  0  0  0
  -28.3144  -30.1951  -16.2678 C   0  0  0  0  0  0  0  0  0  0  0  0
  -27.5548  -29.5673  -15.1594 C   0  0  0  0  0  0  0  0  0  0  0  0
  -27.4456  -31.0178  -15.3063 C   0  0  0  0  0  0  0  0  0  0  0  0
  -28.5887  -30.0723  -18.8827 N   0  0  0  0  0  0  0  0  0  0  0  0
  -30.0182  -30.1775  -18.9957 C   0  0  0  0  0  0  0  0  0  0  0  0
  -27.8489  -30.2157  -19.9913 N   0  0  0  0  0  0  0  0  0  0  0  0
  1  2  1  0
  2  3  1  0
  3  4  1  6
  3  5  1  0
  5  6  1  0
  6  7  1  0
  7  8  2  0
  7  9  1  0
  9 10  1  0
 10 11  1  0
 11 12  2  0
 12 13  1  0
 13 14  1  0
 14 15  1  0
 12 16  1  0
 16 17  1  0
 16 18  1  0
 18 10  2  0
 15 13  1  0
M  END
>  <id>  (180) 
278013

>  <inchikey>  (180) 
AXJXSEXNZJLMGJ-MRVPVSSYSA-N

>  <alias>  (180) 
None

>  <smiles>  (180) 
CO[C@H](C)CNC(=O)Nc1cc(C2CC2)n(C)n1

>  <path>  (180) 
/opt/xchem-fragalysis-2/maxwin/RdRp_FFF/syndirella/mar_elabs/elabs_050/GLKYHQBKOTZYGD-UHFFFAOYSA-N/output/GLKYHQBKOTZYGD-UHFFFAOYSA-N-yg6RYD-21-A/GLKYHQBKOTZYGD-UHFFFAOYSA-N-yg6RYD-21-A.minimised.mol

>  <distance_score>  (180) 
0.9627

>  <energy_score>  (180) 
-5.458671

>  <compound>  (180) 
AXJXSEXNZJLMGJ-UHFFFAOYSA-N

>  <compound_id>  (180) 
113391

>  <target>  (180) 
Flavi_NS5_RdRp

>  <tags>  (180) 
[]

>  <inspirations>  (180) 
{P Ã— 2}

>  <subsites>  (180) 
None

>  <reference>  (180) 
z0211a

>  <SLURM_JOB_ID>  (180) 
nan

>  <SLURM_JOB_NAME>  (180) 
nan

>  <csv_name>  (180) 
nan

>  <scratch_subdir>  (180) 
nan

>  <fragmenstein_runtime>  (180) 
nan

>  <fragmenstein_outcome>  (180) 
nan

>  <fragmenstein_mode>  (180) 
nan

>  <fragmenstein_error>  (180) 
nan

>  <exports>  (180) 
nan

>  <Multi-SuCOS>  (180) 
nan

>  <merge_set>  (180) 
nan

$$$$
HEDGQYACDJYAEN-MRVPVSSYSA-N
     RDKit          3D

 18 19  0  0  0  0  0  0  0  0999 V2000
  -30.6923  -30.8753  -19.9143 C   0  0  0  0  0  0  0  0  0  0  0  0
  -29.8952  -29.7125  -19.4120 C   0  0  0  0  0  0  0  0  0  0  0  0
  -28.4979  -29.9597  -19.2182 N   0  0  0  0  0  0  0  0  0  0  0  0
  -27.7191  -30.1182  -20.2892 N   0  0  0  0  0  0  0  0  0  0  0  0
  -26.5189  -30.3772  -19.7798 C   0  0  0  0  0  0  0  0  0  0  0  0
  -25.4807  -30.7887  -20.5443 N   0  0  0  0  0  0  0  0  0  0  0  0
  -25.3778  -30.9766  -22.0785 C   0  0  0  0  0  0  0  0  0  0  0  0
  -26.1270  -30.7381  -22.8994 O   0  0  0  0  0  0  0  0  0  0  0  0
  -24.0017  -31.6760  -22.1551 N   0  0  0  0  0  0  0  0  0  0  0  0
  -23.2537  -32.1286  -23.2887 C   0  0  0  0  0  0  0  0  0  0  0  0
  -21.8339  -32.5056  -22.8930 C   0  0  1  0  0  0  0  0  0  0  0  0
  -21.0255  -32.9148  -24.1060 C   0  0  0  0  0  0  0  0  0  0  0  0
  -21.1793  -31.4157  -22.2443 O   0  0  0  0  0  0  0  0  0  0  0  0
  -26.5084  -30.2544  -18.3787 C   0  0  0  0  0  0  0  0  0  0  0  0
  -27.8297  -30.0606  -18.0383 C   0  0  0  0  0  0  0  0  0  0  0  0
  -28.4555  -30.2912  -16.6438 C   0  0  0  0  0  0  0  0  0  0  0  0
  -28.6582  -29.3289  -15.5666 C   0  0  0  0  0  0  0  0  0  0  0  0
  -27.4814  -30.2360  -15.4849 C   0  0  0  0  0  0  0  0  0  0  0  0
  1  2  1  0
  2  3  1  0
  3  4  1  0
  4  5  2  0
  5  6  1  0
  6  7  1  0
  7  8  2  0
  7  9  1  0
  9 10  1  0
 10 11  1  0
 11 12  1  6
 11 13  1  0
  5 14  1  0
 14 15  2  0
 15 16  1  0
 16 17  1  0
 17 18  1  0
 15  3  1  0
 18 16  1  0
M  END
>  <id>  (181) 
278024

>  <inchikey>  (181) 
HEDGQYACDJYAEN-MRVPVSSYSA-N

>  <alias>  (181) 
None

>  <smiles>  (181) 
CCn1nc(NC(=O)NC[C@@H](C)O)cc1C1CC1

>  <path>  (181) 
/opt/xchem-fragalysis-2/maxwin/RdRp_FFF/syndirella/mar_elabs/elabs_050/GLKYHQBKOTZYGD-UHFFFAOYSA-N/output/GLKYHQBKOTZYGD-UHFFFAOYSA-N-yg6RYD-38-B/GLKYHQBKOTZYGD-UHFFFAOYSA-N-yg6RYD-38-B.minimised.mol

>  <distance_score>  (181) 
0.957278

>  <energy_score>  (181) 
-7.855783

>  <compound>  (181) 
HEDGQYACDJYAEN-UHFFFAOYSA-N

>  <compound_id>  (181) 
113367

>  <target>  (181) 
Flavi_NS5_RdRp

>  <tags>  (181) 
[]

>  <inspirations>  (181) 
{P Ã— 2}

>  <subsites>  (181) 
None

>  <reference>  (181) 
z0211a

>  <SLURM_JOB_ID>  (181) 
nan

>  <SLURM_JOB_NAME>  (181) 
nan

>  <csv_name>  (181) 
nan

>  <scratch_subdir>  (181) 
nan

>  <fragmenstein_runtime>  (181) 
nan

>  <fragmenstein_outcome>  (181) 
nan

>  <fragmenstein_mode>  (181) 
nan

>  <fragmenstein_error>  (181) 
nan

>  <exports>  (181) 
nan

>  <Multi-SuCOS>  (181) 
nan

>  <merge_set>  (181) 
nan

$$$$
QLLIFTVGMVAMRQ-UHFFFAOYSA-N
     RDKit          3D

 19 21  0  0  0  0  0  0  0  0999 V2000
  -30.3110  -29.8731  -17.4840 C   0  0  0  0  0  0  0  0  0  0  0  0
  -29.6241  -30.1311  -18.8033 C   0  0  0  0  0  0  0  0  0  0  0  0
  -28.1840  -30.2156  -18.7744 N   0  0  0  0  0  0  0  0  0  0  0  0
  -27.5796  -30.5330  -19.9376 N   0  0  0  0  0  0  0  0  0  0  0  0
  -26.2869  -30.5998  -19.6319 C   0  0  0  0  0  0  0  0  0  0  0  0
  -25.3052  -30.9356  -20.4958 N   0  0  0  0  0  0  0  0  0  0  0  0
  -25.3415  -31.1251  -22.0157 C   0  0  0  0  0  0  0  0  0  0  0  0
  -26.2194  -31.0982  -22.7415 O   0  0  0  0  0  0  0  0  0  0  0  0
  -23.8829  -31.4383  -22.2594 N   0  0  0  0  0  0  0  0  0  0  0  0
  -23.1430  -31.7073  -23.5399 C   0  0  0  0  0  0  0  0  0  0  0  0
  -22.2721  -32.6702  -22.7748 C   0  0  0  0  0  0  0  0  0  0  0  0
  -21.7145  -33.7876  -23.6108 C   0  0  0  0  0  0  0  0  0  0  0  0
  -21.2163  -32.1022  -21.9600 O   0  0  0  0  0  0  0  0  0  0  0  0
  -23.5921  -32.9560  -22.0900 C   0  0  0  0  0  0  0  0  0  0  0  0
  -26.0471  -30.2857  -18.2940 C   0  0  0  0  0  0  0  0  0  0  0  0
  -27.2878  -30.0585  -17.7521 C   0  0  0  0  0  0  0  0  0  0  0  0
  -27.4230  -29.6512  -16.2778 C   0  0  0  0  0  0  0  0  0  0  0  0
  -26.7135  -30.5081  -15.2560 C   0  0  0  0  0  0  0  0  0  0  0  0
  -28.1949  -30.3152  -15.1912 C   0  0  0  0  0  0  0  0  0  0  0  0
  1  2  1  0
  2  3  1  0
  3  4  1  0
  4  5  2  0
  5  6  1  0
  6  7  1  0
  7  8  2  0
  7  9  1  0
  9 10  1  0
 10 11  1  0
 11 12  1  0
 11 13  1  0
 11 14  1  0
  5 15  1  0
 15 16  2  0
 16 17  1  0
 17 18  1  0
 18 19  1  0
 16  3  1  0
 19 17  1  0
 14  9  1  0
M  END
>  <id>  (182) 
278070

>  <inchikey>  (182) 
QLLIFTVGMVAMRQ-UHFFFAOYSA-N

>  <alias>  (182) 
None

>  <smiles>  (182) 
CCn1nc(NC(=O)N2CC(C)(O)C2)cc1C1CC1

>  <path>  (182) 
/opt/xchem-fragalysis-2/maxwin/RdRp_FFF/syndirella/mar_elabs/elabs_050/GLKYHQBKOTZYGD-UHFFFAOYSA-N/output/GLKYHQBKOTZYGD-UHFFFAOYSA-N-yg6RYD-71-A/GLKYHQBKOTZYGD-UHFFFAOYSA-N-yg6RYD-71-A.minimised.mol

>  <distance_score>  (182) 
1.161252

>  <energy_score>  (182) 
-12.876964

>  <compound>  (182) 
QLLIFTVGMVAMRQ-UHFFFAOYSA-N

>  <compound_id>  (182) 
113724

>  <target>  (182) 
Flavi_NS5_RdRp

>  <tags>  (182) 
[]

>  <inspirations>  (182) 
{P Ã— 2}

>  <subsites>  (182) 
None

>  <reference>  (182) 
z0211a

>  <SLURM_JOB_ID>  (182) 
nan

>  <SLURM_JOB_NAME>  (182) 
nan

>  <csv_name>  (182) 
nan

>  <scratch_subdir>  (182) 
nan

>  <fragmenstein_runtime>  (182) 
nan

>  <fragmenstein_outcome>  (182) 
nan

>  <fragmenstein_mode>  (182) 
nan

>  <fragmenstein_error>  (182) 
nan

>  <exports>  (182) 
nan

>  <Multi-SuCOS>  (182) 
nan

>  <merge_set>  (182) 
nan

$$$$
WYQRRIVFTHXQPQ-VIFPVBQESA-N
     RDKit          3D

 19 20  0  0  0  0  0  0  0  0999 V2000
  -30.7046  -30.8805  -19.9199 C   0  0  0  0  0  0  0  0  0  0  0  0
  -29.9153  -29.7160  -19.4118 C   0  0  0  0  0  0  0  0  0  0  0  0
  -28.5163  -29.9554  -19.2214 N   0  0  0  0  0  0  0  0  0  0  0  0
  -27.7376  -30.1013  -20.2946 N   0  0  0  0  0  0  0  0  0  0  0  0
  -26.5366  -30.3576  -19.7873 C   0  0  0  0  0  0  0  0  0  0  0  0
  -25.4931  -30.7595  -20.5481 N   0  0  0  0  0  0  0  0  0  0  0  0
  -25.3798  -30.9336  -22.0824 C   0  0  0  0  0  0  0  0  0  0  0  0
  -26.1240  -30.6900  -22.9059 O   0  0  0  0  0  0  0  0  0  0  0  0
  -23.9877  -31.5926  -22.1602 N   0  0  0  0  0  0  0  0  0  0  0  0
  -23.2934  -32.1618  -23.2729 C   0  0  0  0  0  0  0  0  0  0  0  0
  -21.7845  -32.1413  -23.0297 C   0  0  2  0  0  0  0  0  0  0  0  0
  -21.1094  -33.0358  -24.0537 C   0  0  0  0  0  0  0  0  0  0  0  0
  -21.5559  -32.6459  -21.7020 O   0  0  0  0  0  0  0  0  0  0  0  0
  -20.3410  -32.1979  -21.1188 C   0  0  0  0  0  0  0  0  0  0  0  0
  -26.5257  -30.2444  -18.3854 C   0  0  0  0  0  0  0  0  0  0  0  0
  -27.8467  -30.0564  -18.0424 C   0  0  0  0  0  0  0  0  0  0  0  0
  -28.4675  -30.2900  -16.6462 C   0  0  0  0  0  0  0  0  0  0  0  0
  -27.4887  -30.2376  -15.4903 C   0  0  0  0  0  0  0  0  0  0  0  0
  -28.6649  -29.3293  -15.5665 C   0  0  0  0  0  0  0  0  0  0  0  0
  1  2  1  0
  2  3  1  0
  3  4  1  0
  4  5  2  0
  5  6  1  0
  6  7  1  0
  7  8  2  0
  7  9  1  0
  9 10  1  0
 10 11  1  0
 11 12  1  6
 11 13  1  0
 13 14  1  0
  5 15  1  0
 15 16  2  0
 16 17  1  0
 17 18  1  0
 18 19  1  0
 16  3  1  0
 19 17  1  0
M  END
>  <id>  (183) 
278136

>  <inchikey>  (183) 
WYQRRIVFTHXQPQ-VIFPVBQESA-N

>  <alias>  (183) 
None

>  <smiles>  (183) 
CCn1nc(NC(=O)NC[C@H](C)OC)cc1C1CC1

>  <path>  (183) 
/opt/xchem-fragalysis-2/maxwin/RdRp_FFF/syndirella/mar_elabs/elabs_050/GLKYHQBKOTZYGD-UHFFFAOYSA-N/output/GLKYHQBKOTZYGD-UHFFFAOYSA-N-yg6RYD-112-A/GLKYHQBKOTZYGD-UHFFFAOYSA-N-yg6RYD-112-A.minimised.mol

>  <distance_score>  (183) 
0.965653

>  <energy_score>  (183) 
-23.77635

>  <compound>  (183) 
WYQRRIVFTHXQPQ-UHFFFAOYSA-N

>  <compound_id>  (183) 
113762

>  <target>  (183) 
Flavi_NS5_RdRp

>  <tags>  (183) 
[]

>  <inspirations>  (183) 
{P Ã— 2}

>  <subsites>  (183) 
None

>  <reference>  (183) 
z0211a

>  <SLURM_JOB_ID>  (183) 
nan

>  <SLURM_JOB_NAME>  (183) 
nan

>  <csv_name>  (183) 
nan

>  <scratch_subdir>  (183) 
nan

>  <fragmenstein_runtime>  (183) 
nan

>  <fragmenstein_outcome>  (183) 
nan

>  <fragmenstein_mode>  (183) 
nan

>  <fragmenstein_error>  (183) 
nan

>  <exports>  (183) 
nan

>  <Multi-SuCOS>  (183) 
nan

>  <merge_set>  (183) 
nan

$$$$
ATYURIPEHKSNJM-CBAPKCEASA-N
     RDKit          3D

 19 20  0  0  0  0  0  0  0  0999 V2000
  -21.0602  -33.1508  -23.7359 C   0  0  0  0  0  0  0  0  0  0  0  0
  -21.9471  -32.0478  -23.1911 C   0  0  2  0  0  0  0  0  0  0  0  0
  -21.4333  -31.6784  -21.9072 O   0  0  0  0  0  0  0  0  0  0  0  0
  -23.3958  -32.5467  -23.0694 C   0  0  2  0  0  0  0  0  0  0  0  0
  -24.0891  -32.5286  -24.4379 C   0  0  0  0  0  0  0  0  0  0  0  0
  -25.2927  -33.2865  -24.4182 O   0  0  0  0  0  0  0  0  0  0  0  0
  -24.1133  -31.8316  -22.0288 N   0  0  0  0  0  0  0  0  0  0  0  0
  -25.4676  -31.0787  -22.0790 C   0  0  0  0  0  0  0  0  0  0  0  0
  -26.1544  -30.8599  -22.9591 O   0  0  0  0  0  0  0  0  0  0  0  0
  -25.6595  -30.8023  -20.5670 N   0  0  0  0  0  0  0  0  0  0  0  0
  -26.7315  -30.3110  -19.8914 C   0  0  0  0  0  0  0  0  0  0  0  0
  -26.7431  -30.0940  -18.5026 C   0  0  0  0  0  0  0  0  0  0  0  0
  -28.0771  -29.9943  -18.1759 C   0  0  0  0  0  0  0  0  0  0  0  0
  -28.6689  -30.2583  -16.7681 C   0  0  0  0  0  0  0  0  0  0  0  0
  -28.7862  -29.3256  -15.6497 C   0  0  0  0  0  0  0  0  0  0  0  0
  -27.6513  -30.2787  -15.6308 C   0  0  0  0  0  0  0  0  0  0  0  0
  -28.7504  -29.9941  -19.3666 N   0  0  0  0  0  0  0  0  0  0  0  0
  -30.1695  -30.1220  -19.5595 C   0  0  0  0  0  0  0  0  0  0  0  0
  -27.9372  -30.1308  -20.4285 N   0  0  0  0  0  0  0  0  0  0  0  0
  2  1  1  1
  2  3  1  0
  2  4  1  0
  4  5  1  6
  5  6  1  0
  4  7  1  0
  7  8  1  0
  8  9  2  0
  8 10  1  0
 10 11  1  0
 11 12  1  0
 12 13  2  0
 13 14  1  0
 14 15  1  0
 15 16  1  0
 13 17  1  0
 17 18  1  0
 17 19  1  0
 19 11  2  0
 16 14  1  0
M  END
>  <id>  (184) 
278169

>  <inchikey>  (184) 
ATYURIPEHKSNJM-CBAPKCEASA-N

>  <alias>  (184) 
None

>  <smiles>  (184) 
C[C@H](O)[C@H](CO)NC(=O)Nc1cc(C2CC2)n(C)n1

>  <path>  (184) 
/opt/xchem-fragalysis-2/maxwin/RdRp_FFF/syndirella/mar_elabs/elabs_050/GLKYHQBKOTZYGD-UHFFFAOYSA-N/output/GLKYHQBKOTZYGD-UHFFFAOYSA-N-yg6RYD-130-A/GLKYHQBKOTZYGD-UHFFFAOYSA-N-yg6RYD-130-A.minimised.mol

>  <distance_score>  (184) 
0.903357

>  <energy_score>  (184) 
-14.611269

>  <compound>  (184) 
ATYURIPEHKSNJM-UHFFFAOYSA-N

>  <compound_id>  (184) 
113676

>  <target>  (184) 
Flavi_NS5_RdRp

>  <tags>  (184) 
[]

>  <inspirations>  (184) 
{P Ã— 2}

>  <subsites>  (184) 
None

>  <reference>  (184) 
z0211a

>  <SLURM_JOB_ID>  (184) 
nan

>  <SLURM_JOB_NAME>  (184) 
nan

>  <csv_name>  (184) 
nan

>  <scratch_subdir>  (184) 
nan

>  <fragmenstein_runtime>  (184) 
nan

>  <fragmenstein_outcome>  (184) 
nan

>  <fragmenstein_mode>  (184) 
nan

>  <fragmenstein_error>  (184) 
nan

>  <exports>  (184) 
nan

>  <Multi-SuCOS>  (184) 
nan

>  <merge_set>  (184) 
nan

$$$$
QEHSVYNHHKGBRE-SECBINFHSA-N
     RDKit          3D

 19 20  0  0  0  0  0  0  0  0999 V2000
  -21.5463  -34.0233  -26.4211 C   0  0  0  0  0  0  0  0  0  0  0  0
  -21.9430  -32.9540  -25.5814 O   0  0  0  0  0  0  0  0  0  0  0  0
  -21.4507  -33.0902  -24.2477 C   0  0  0  0  0  0  0  0  0  0  0  0
  -22.0912  -32.0267  -23.3549 C   0  0  2  0  0  0  0  0  0  0  0  0
  -21.5475  -32.1191  -22.0317 O   0  0  0  0  0  0  0  0  0  0  0  0
  -23.6093  -32.2217  -23.3350 C   0  0  0  0  0  0  0  0  0  0  0  0
  -24.2567  -31.6290  -22.1961 N   0  0  0  0  0  0  0  0  0  0  0  0
  -25.6386  -30.9363  -22.0749 C   0  0  0  0  0  0  0  0  0  0  0  0
  -26.4051  -30.6811  -22.8754 O   0  0  0  0  0  0  0  0  0  0  0  0
  -25.7126  -30.7873  -20.5352 N   0  0  0  0  0  0  0  0  0  0  0  0
  -26.7398  -30.3995  -19.7388 C   0  0  0  0  0  0  0  0  0  0  0  0
  -26.6124  -30.0643  -18.3819 C   0  0  0  0  0  0  0  0  0  0  0  0
  -27.9001  -29.8609  -17.9432 C   0  0  0  0  0  0  0  0  0  0  0  0
  -28.2719  -29.4637  -16.5005 C   0  0  0  0  0  0  0  0  0  0  0  0
  -28.9354  -30.3271  -15.4865 C   0  0  0  0  0  0  0  0  0  0  0  0
  -27.4549  -30.1501  -15.4228 C   0  0  0  0  0  0  0  0  0  0  0  0
  -28.7019  -30.0835  -19.0239 N   0  0  0  0  0  0  0  0  0  0  0  0
  -30.1341  -30.1812  -19.0559 C   0  0  0  0  0  0  0  0  0  0  0  0
  -28.0088  -30.3478  -20.1433 N   0  0  0  0  0  0  0  0  0  0  0  0
  1  2  1  0
  2  3  1  0
  3  4  1  0
  4  5  1  1
  4  6  1  0
  6  7  1  0
  7  8  1  0
  8  9  2  0
  8 10  1  0
 10 11  1  0
 11 12  1  0
 12 13  2  0
 13 14  1  0
 14 15  1  0
 15 16  1  0
 13 17  1  0
 17 18  1  0
 17 19  1  0
 19 11  2  0
 16 14  1  0
M  END
>  <id>  (185) 
278219

>  <inchikey>  (185) 
QEHSVYNHHKGBRE-SECBINFHSA-N

>  <alias>  (185) 
None

>  <smiles>  (185) 
COC[C@H](O)CNC(=O)Nc1cc(C2CC2)n(C)n1

>  <path>  (185) 
/opt/xchem-fragalysis-2/maxwin/RdRp_FFF/syndirella/mar_elabs/elabs_050/GLKYHQBKOTZYGD-UHFFFAOYSA-N/output/GLKYHQBKOTZYGD-UHFFFAOYSA-N-yg6RYD-197-A/GLKYHQBKOTZYGD-UHFFFAOYSA-N-yg6RYD-197-A.minimised.mol

>  <distance_score>  (185) 
0.980438

>  <energy_score>  (185) 
-8.332967

>  <compound>  (185) 
QEHSVYNHHKGBRE-UHFFFAOYSA-N

>  <compound_id>  (185) 
115416

>  <target>  (185) 
Flavi_NS5_RdRp

>  <tags>  (185) 
[]

>  <inspirations>  (185) 
{P Ã— 2}

>  <subsites>  (185) 
None

>  <reference>  (185) 
z0211a

>  <SLURM_JOB_ID>  (185) 
nan

>  <SLURM_JOB_NAME>  (185) 
nan

>  <csv_name>  (185) 
nan

>  <scratch_subdir>  (185) 
nan

>  <fragmenstein_runtime>  (185) 
nan

>  <fragmenstein_outcome>  (185) 
nan

>  <fragmenstein_mode>  (185) 
nan

>  <fragmenstein_error>  (185) 
nan

>  <exports>  (185) 
nan

>  <Multi-SuCOS>  (185) 
nan

>  <merge_set>  (185) 
nan

$$$$
CCMQWMWYOCRNMM-LLVKDONJSA-N
     RDKit          3D

 20 21  0  0  0  0  0  0  0  0999 V2000
  -21.1812  -33.8905  -26.3023 C   0  0  0  0  0  0  0  0  0  0  0  0
  -21.5119  -32.8727  -25.2270 C   0  0  0  0  0  0  0  0  0  0  0  0
  -21.4936  -33.4253  -23.8055 C   0  0  0  0  0  0  0  0  0  0  0  0
  -22.0765  -32.4740  -22.7564 C   0  0  1  0  0  0  0  0  0  0  0  0
  -21.2197  -31.3420  -22.6177 O   0  0  0  0  0  0  0  0  0  0  0  0
  -23.5115  -32.0695  -23.0896 C   0  0  0  0  0  0  0  0  0  0  0  0
  -24.1814  -31.4401  -21.9908 N   0  0  0  0  0  0  0  0  0  0  0  0
  -25.6096  -30.8519  -21.8922 C   0  0  0  0  0  0  0  0  0  0  0  0
  -26.4078  -30.7247  -22.6910 O   0  0  0  0  0  0  0  0  0  0  0  0
  -25.6634  -30.5705  -20.3718 N   0  0  0  0  0  0  0  0  0  0  0  0
  -26.6989  -30.1863  -19.5869 C   0  0  0  0  0  0  0  0  0  0  0  0
  -26.6354  -30.0406  -18.1930 C   0  0  0  0  0  0  0  0  0  0  0  0
  -27.9524  -29.9943  -17.7986 C   0  0  0  0  0  0  0  0  0  0  0  0
  -28.4698  -30.3364  -16.3878 C   0  0  0  0  0  0  0  0  0  0  0  0
  -28.7152  -29.3968  -15.3023 C   0  0  0  0  0  0  0  0  0  0  0  0
  -27.4796  -30.2344  -15.2604 C   0  0  0  0  0  0  0  0  0  0  0  0
  -28.6947  -29.9768  -18.9460 N   0  0  0  0  0  0  0  0  0  0  0  0
  -30.1185  -30.2071  -19.0211 C   0  0  0  0  0  0  0  0  0  0  0  0
  -30.7058  -30.0832  -20.4076 C   0  0  0  0  0  0  0  0  0  0  0  0
  -27.9357  -30.0219  -20.0496 N   0  0  0  0  0  0  0  0  0  0  0  0
  1  2  1  0
  2  3  1  0
  3  4  1  0
  4  5  1  6
  4  6  1  0
  6  7  1  0
  7  8  1  0
  8  9  2  0
  8 10  1  0
 10 11  1  0
 11 12  1  0
 12 13  2  0
 13 14  1  0
 14 15  1  0
 15 16  1  0
 13 17  1  0
 17 18  1  0
 18 19  1  0
 17 20  1  0
 20 11  2  0
 16 14  1  0
M  END
>  <id>  (186) 
278363

>  <inchikey>  (186) 
CCMQWMWYOCRNMM-LLVKDONJSA-N

>  <alias>  (186) 
None

>  <smiles>  (186) 
CCC[C@@H](O)CNC(=O)Nc1cc(C2CC2)n(CC)n1

>  <path>  (186) 
/opt/xchem-fragalysis-2/maxwin/RdRp_FFF/syndirella/mar_elabs/elabs_050/GLKYHQBKOTZYGD-UHFFFAOYSA-N/output/GLKYHQBKOTZYGD-UHFFFAOYSA-N-yg6RYD-383-B/GLKYHQBKOTZYGD-UHFFFAOYSA-N-yg6RYD-383-B.minimised.mol

>  <distance_score>  (186) 
1.108884

>  <energy_score>  (186) 
-8.626927

>  <compound>  (186) 
CCMQWMWYOCRNMM-UHFFFAOYSA-N

>  <compound_id>  (186) 
114529

>  <target>  (186) 
Flavi_NS5_RdRp

>  <tags>  (186) 
[]

>  <inspirations>  (186) 
{P Ã— 2}

>  <subsites>  (186) 
None

>  <reference>  (186) 
z0211a

>  <SLURM_JOB_ID>  (186) 
nan

>  <SLURM_JOB_NAME>  (186) 
nan

>  <csv_name>  (186) 
nan

>  <scratch_subdir>  (186) 
nan

>  <fragmenstein_runtime>  (186) 
nan

>  <fragmenstein_outcome>  (186) 
nan

>  <fragmenstein_mode>  (186) 
nan

>  <fragmenstein_error>  (186) 
nan

>  <exports>  (186) 
nan

>  <Multi-SuCOS>  (186) 
nan

>  <merge_set>  (186) 
nan

$$$$
YONIJIDWKFNNKY-SNVBAGLBSA-N
     RDKit          3D

 20 21  0  0  0  0  0  0  0  0999 V2000
  -30.6509  -30.3532  -20.3098 C   0  0  0  0  0  0  0  0  0  0  0  0
  -30.2189  -30.1771  -18.8738 C   0  0  0  0  0  0  0  0  0  0  0  0
  -28.9872  -29.3087  -18.7605 C   0  0  0  0  0  0  0  0  0  0  0  0
  -27.7399  -30.0107  -18.7550 N   0  0  0  0  0  0  0  0  0  0  0  0
  -27.2299  -30.4474  -19.9103 N   0  0  0  0  0  0  0  0  0  0  0  0
  -25.9998  -30.8334  -19.5823 C   0  0  0  0  0  0  0  0  0  0  0  0
  -25.1159  -31.3460  -20.4609 N   0  0  0  0  0  0  0  0  0  0  0  0
  -25.1566  -31.4013  -22.0000 C   0  0  0  0  0  0  0  0  0  0  0  0
  -25.9729  -31.0901  -22.7237 O   0  0  0  0  0  0  0  0  0  0  0  0
  -23.7924  -32.0614  -22.2642 N   0  0  0  0  0  0  0  0  0  0  0  0
  -23.1392  -32.3773  -23.4965 C   0  0  0  0  0  0  0  0  0  0  0  0
  -21.6700  -32.6365  -23.2085 C   0  0  2  0  0  0  0  0  0  0  0  0
  -21.0891  -31.5363  -22.4899 O   0  0  0  0  0  0  0  0  0  0  0  0
  -20.8955  -32.8843  -24.4823 C   0  0  0  0  0  0  0  0  0  0  0  0
  -21.5662  -33.7191  -25.3161 F   0  0  0  0  0  0  0  0  0  0  0  0
  -25.7206  -30.6368  -18.2218 C   0  0  0  0  0  0  0  0  0  0  0  0
  -26.8732  -30.1041  -17.7114 C   0  0  0  0  0  0  0  0  0  0  0  0
  -27.0513  -29.6660  -16.2551 C   0  0  0  0  0  0  0  0  0  0  0  0
  -26.7754  -30.6674  -15.1739 C   0  0  0  0  0  0  0  0  0  0  0  0
  -28.1710  -30.1518  -15.3889 C   0  0  0  0  0  0  0  0  0  0  0  0
  1  2  1  0
  2  3  1  0
  3  4  1  0
  4  5  1  0
  5  6  2  0
  6  7  1  0
  7  8  1  0
  8  9  2  0
  8 10  1  0
 10 11  1  0
 11 12  1  0
 12 13  1  6
 12 14  1  0
 14 15  1  0
  6 16  1  0
 16 17  2  0
 17 18  1  0
 18 19  1  0
 19 20  1  0
 17  4  1  0
 20 18  1  0
M  END
>  <id>  (187) 
278421

>  <inchikey>  (187) 
YONIJIDWKFNNKY-SNVBAGLBSA-N

>  <alias>  (187) 
None

>  <smiles>  (187) 
CCCn1nc(NC(=O)NC[C@H](O)CF)cc1C1CC1

>  <path>  (187) 
/opt/xchem-fragalysis-2/maxwin/RdRp_FFF/syndirella/mar_elabs/elabs_050/GLKYHQBKOTZYGD-UHFFFAOYSA-N/output/GLKYHQBKOTZYGD-UHFFFAOYSA-N-yg6RYD-501-A/GLKYHQBKOTZYGD-UHFFFAOYSA-N-yg6RYD-501-A.minimised.mol

>  <distance_score>  (187) 
1.37635

>  <energy_score>  (187) 
-12.848291

>  <compound>  (187) 
YONIJIDWKFNNKY-UHFFFAOYSA-N

>  <compound_id>  (187) 
113879

>  <target>  (187) 
Flavi_NS5_RdRp

>  <tags>  (187) 
[]

>  <inspirations>  (187) 
{P Ã— 2}

>  <subsites>  (187) 
None

>  <reference>  (187) 
z0211a

>  <SLURM_JOB_ID>  (187) 
nan

>  <SLURM_JOB_NAME>  (187) 
nan

>  <csv_name>  (187) 
nan

>  <scratch_subdir>  (187) 
nan

>  <fragmenstein_runtime>  (187) 
nan

>  <fragmenstein_outcome>  (187) 
nan

>  <fragmenstein_mode>  (187) 
nan

>  <fragmenstein_error>  (187) 
nan

>  <exports>  (187) 
nan

>  <Multi-SuCOS>  (187) 
nan

>  <merge_set>  (187) 
nan

$$$$
IJJJKXJAZKWBBA-AWEZNQCLSA-N
     RDKit          3D

 20 21  0  0  0  0  0  0  0  0999 V2000
  -30.6638  -30.8274  -19.8499 C   0  0  0  0  0  0  0  0  0  0  0  0
  -29.7999  -29.7678  -19.2266 C   0  0  0  0  0  0  0  0  0  0  0  0
  -28.4240  -30.1216  -19.0201 N   0  0  0  0  0  0  0  0  0  0  0  0
  -27.6918  -30.4667  -20.0845 N   0  0  0  0  0  0  0  0  0  0  0  0
  -26.4469  -30.5290  -19.6234 C   0  0  0  0  0  0  0  0  0  0  0  0
  -25.4004  -30.8742  -20.4053 N   0  0  0  0  0  0  0  0  0  0  0  0
  -25.3354  -31.1532  -21.9238 C   0  0  0  0  0  0  0  0  0  0  0  0
  -26.1359  -31.0555  -22.7220 O   0  0  0  0  0  0  0  0  0  0  0  0
  -23.8970  -31.6976  -22.0178 N   0  0  0  0  0  0  0  0  0  0  0  0
  -23.2098  -32.3142  -23.1095 C   0  0  0  0  0  0  0  0  0  0  0  0
  -21.7391  -32.5977  -22.7842 C   0  0  1  0  0  0  0  0  0  0  0  0
  -21.0040  -32.8648  -24.0967 C   0  0  0  0  0  0  0  0  0  0  0  0
  -21.1465  -31.4454  -22.1701 O   0  0  0  0  0  0  0  0  0  0  0  0
  -21.5244  -33.8105  -21.8491 C   0  0  0  0  0  0  0  0  0  0  0  0
  -22.1427  -33.7165  -20.4600 C   0  0  0  0  0  0  0  0  0  0  0  0
  -26.3747  -30.1972  -18.2633 C   0  0  0  0  0  0  0  0  0  0  0  0
  -27.6771  -29.9518  -17.8925 C   0  0  0  0  0  0  0  0  0  0  0  0
  -28.1128  -29.5062  -16.4847 C   0  0  0  0  0  0  0  0  0  0  0  0
  -27.3760  -30.1885  -15.3513 C   0  0  0  0  0  0  0  0  0  0  0  0
  -28.8579  -30.3134  -15.4809 C   0  0  0  0  0  0  0  0  0  0  0  0
  1  2  1  0
  2  3  1  0
  3  4  1  0
  4  5  2  0
  5  6  1  0
  6  7  1  0
  7  8  2  0
  7  9  1  0
  9 10  1  0
 10 11  1  0
 11 12  1  6
 11 13  1  0
 11 14  1  0
 14 15  1  0
  5 16  1  0
 16 17  2  0
 17 18  1  0
 18 19  1  0
 19 20  1  0
 17  3  1  0
 20 18  1  0
M  END
>  <id>  (188) 
278603

>  <inchikey>  (188) 
IJJJKXJAZKWBBA-AWEZNQCLSA-N

>  <alias>  (188) 
None

>  <smiles>  (188) 
CCn1nc(NC(=O)NC[C@@](C)(O)CC)cc1C1CC1

>  <path>  (188) 
/opt/xchem-fragalysis-2/maxwin/RdRp_FFF/syndirella/mar_elabs/elabs_050/GLKYHQBKOTZYGD-UHFFFAOYSA-N/output/GLKYHQBKOTZYGD-UHFFFAOYSA-N-yg6RYD-734-B/GLKYHQBKOTZYGD-UHFFFAOYSA-N-yg6RYD-734-B.minimised.mol

>  <distance_score>  (188) 
1.072226

>  <energy_score>  (188) 
-25.605507

>  <compound>  (188) 
IJJJKXJAZKWBBA-UHFFFAOYSA-N

>  <compound_id>  (188) 
114509

>  <target>  (188) 
Flavi_NS5_RdRp

>  <tags>  (188) 
[]

>  <inspirations>  (188) 
{P Ã— 2}

>  <subsites>  (188) 
None

>  <reference>  (188) 
z0211a

>  <SLURM_JOB_ID>  (188) 
nan

>  <SLURM_JOB_NAME>  (188) 
nan

>  <csv_name>  (188) 
nan

>  <scratch_subdir>  (188) 
nan

>  <fragmenstein_runtime>  (188) 
nan

>  <fragmenstein_outcome>  (188) 
nan

>  <fragmenstein_mode>  (188) 
nan

>  <fragmenstein_error>  (188) 
nan

>  <exports>  (188) 
nan

>  <Multi-SuCOS>  (188) 
nan

>  <merge_set>  (188) 
nan

$$$$
FSWPYGQWSBXDID-UHFFFAOYSA-N
     RDKit          3D

 20 21  0  0  0  0  0  0  0  0999 V2000
  -30.6468  -30.8005  -19.8519 C   0  0  0  0  0  0  0  0  0  0  0  0
  -29.7570  -29.7542  -19.2397 C   0  0  0  0  0  0  0  0  0  0  0  0
  -28.3897  -30.1406  -19.0349 N   0  0  0  0  0  0  0  0  0  0  0  0
  -27.6707  -30.5238  -20.0956 N   0  0  0  0  0  0  0  0  0  0  0  0
  -26.4321  -30.6447  -19.6267 C   0  0  0  0  0  0  0  0  0  0  0  0
  -25.3992  -31.0577  -20.3953 N   0  0  0  0  0  0  0  0  0  0  0  0
  -25.2942  -31.2163  -21.9285 C   0  0  0  0  0  0  0  0  0  0  0  0
  -26.0837  -31.0923  -22.7342 O   0  0  0  0  0  0  0  0  0  0  0  0
  -23.8264  -31.6750  -22.0347 N   0  0  0  0  0  0  0  0  0  0  0  0
  -23.0310  -31.9784  -23.1857 C   0  0  0  0  0  0  0  0  0  0  0  0
  -21.7025  -32.6741  -22.8611 C   0  0  0  0  0  0  0  0  0  0  0  0
  -20.9567  -32.9257  -24.1729 C   0  0  0  0  0  0  0  0  0  0  0  0
  -20.8199  -31.7943  -21.9631 C   0  0  0  0  0  0  0  0  0  0  0  0
  -21.8454  -33.9133  -22.1405 O   0  0  0  0  0  0  0  0  0  0  0  0
  -22.8241  -34.8256  -22.6123 C   0  0  0  0  0  0  0  0  0  0  0  0
  -26.3485  -30.2930  -18.2715 C   0  0  0  0  0  0  0  0  0  0  0  0
  -27.6402  -29.9899  -17.9067 C   0  0  0  0  0  0  0  0  0  0  0  0
  -28.0655  -29.5194  -16.5035 C   0  0  0  0  0  0  0  0  0  0  0  0
  -28.8254  -30.3005  -15.4892 C   0  0  0  0  0  0  0  0  0  0  0  0
  -27.3417  -30.1942  -15.3581 C   0  0  0  0  0  0  0  0  0  0  0  0
  1  2  1  0
  2  3  1  0
  3  4  1  0
  4  5  2  0
  5  6  1  0
  6  7  1  0
  7  8  2  0
  7  9  1  0
  9 10  1  0
 10 11  1  0
 11 12  1  0
 11 13  1  0
 11 14  1  0
 14 15  1  0
  5 16  1  0
 16 17  2  0
 17 18  1  0
 18 19  1  0
 19 20  1  0
 17  3  1  0
 20 18  1  0
M  END
>  <id>  (189) 
278946

>  <inchikey>  (189) 
FSWPYGQWSBXDID-UHFFFAOYSA-N

>  <alias>  (189) 
None

>  <smiles>  (189) 
CCn1nc(NC(=O)NCC(C)(C)OC)cc1C1CC1

>  <path>  (189) 
/opt/xchem-fragalysis-2/maxwin/RdRp_FFF/syndirella/mar_elabs/elabs_050/GLKYHQBKOTZYGD-UHFFFAOYSA-N/output/GLKYHQBKOTZYGD-UHFFFAOYSA-N-yg6RYD-1136-A/GLKYHQBKOTZYGD-UHFFFAOYSA-N-yg6RYD-1136-A.minimised.mol

>  <distance_score>  (189) 
1.09065

>  <energy_score>  (189) 
-24.915114

>  <compound>  (189) 
FSWPYGQWSBXDID-UHFFFAOYSA-N

>  <compound_id>  (189) 
114482

>  <target>  (189) 
Flavi_NS5_RdRp

>  <tags>  (189) 
[]

>  <inspirations>  (189) 
{P Ã— 2}

>  <subsites>  (189) 
None

>  <reference>  (189) 
z0211a

>  <SLURM_JOB_ID>  (189) 
nan

>  <SLURM_JOB_NAME>  (189) 
nan

>  <csv_name>  (189) 
nan

>  <scratch_subdir>  (189) 
nan

>  <fragmenstein_runtime>  (189) 
nan

>  <fragmenstein_outcome>  (189) 
nan

>  <fragmenstein_mode>  (189) 
nan

>  <fragmenstein_error>  (189) 
nan

>  <exports>  (189) 
nan

>  <Multi-SuCOS>  (189) 
nan

>  <merge_set>  (189) 
nan

$$$$
KVFKJILGWCRCJR-LLVKDONJSA-N
     RDKit          3D

 20 21  0  0  0  0  0  0  0  0999 V2000
  -30.4817  -30.0069  -17.0252 C   0  0  0  0  0  0  0  0  0  0  0  0
  -30.2313  -30.2081  -18.5093 C   0  0  0  0  0  0  0  0  0  0  0  0
  -28.9701  -29.5062  -18.9631 C   0  0  0  0  0  0  0  0  0  0  0  0
  -27.7500  -30.2399  -18.7638 N   0  0  0  0  0  0  0  0  0  0  0  0
  -27.2122  -30.8649  -19.8223 N   0  0  0  0  0  0  0  0  0  0  0  0
  -25.9228  -30.9598  -19.5049 C   0  0  0  0  0  0  0  0  0  0  0  0
  -24.9589  -31.3370  -20.3643 N   0  0  0  0  0  0  0  0  0  0  0  0
  -25.0620  -31.9874  -21.7528 C   0  0  0  0  0  0  0  0  0  0  0  0
  -25.9688  -32.3592  -22.3224 O   0  0  0  0  0  0  0  0  0  0  0  0
  -23.5881  -31.8927  -22.1830 N   0  0  0  0  0  0  0  0  0  0  0  0
  -22.9756  -32.1562  -23.4414 C   0  0  0  0  0  0  0  0  0  0  0  0
  -21.6817  -32.9286  -23.2657 C   0  0  2  0  0  0  0  0  0  0  0  0
  -20.8719  -32.3259  -22.2457 O   0  0  0  0  0  0  0  0  0  0  0  0
  -20.8758  -32.9384  -24.5550 C   0  0  0  0  0  0  0  0  0  0  0  0
  -21.6005  -33.5521  -25.7431 C   0  0  0  0  0  0  0  0  0  0  0  0
  -25.6565  -30.5106  -18.2108 C   0  0  0  0  0  0  0  0  0  0  0  0
  -26.8781  -30.1394  -17.7149 C   0  0  0  0  0  0  0  0  0  0  0  0
  -27.0379  -29.6284  -16.2799 C   0  0  0  0  0  0  0  0  0  0  0  0
  -26.4130  -30.4798  -15.1961 C   0  0  0  0  0  0  0  0  0  0  0  0
  -27.8851  -30.2390  -15.2130 C   0  0  0  0  0  0  0  0  0  0  0  0
  1  2  1  0
  2  3  1  0
  3  4  1  0
  4  5  1  0
  5  6  2  0
  6  7  1  0
  7  8  1  0
  8  9  2  0
  8 10  1  0
 10 11  1  0
 11 12  1  0
 12 13  1  1
 12 14  1  0
 14 15  1  0
  6 16  1  0
 16 17  2  0
 17 18  1  0
 18 19  1  0
 19 20  1  0
 17  4  1  0
 20 18  1  0
M  END
>  <id>  (190) 
278975

>  <inchikey>  (190) 
KVFKJILGWCRCJR-LLVKDONJSA-N

>  <alias>  (190) 
None

>  <smiles>  (190) 
CCCn1nc(NC(=O)NC[C@H](O)CC)cc1C1CC1

>  <path>  (190) 
/opt/xchem-fragalysis-2/maxwin/RdRp_FFF/syndirella/mar_elabs/elabs_050/GLKYHQBKOTZYGD-UHFFFAOYSA-N/output/GLKYHQBKOTZYGD-UHFFFAOYSA-N-yg6RYD-1195-A/GLKYHQBKOTZYGD-UHFFFAOYSA-N-yg6RYD-1195-A.minimised.mol

>  <distance_score>  (190) 
1.491896

>  <energy_score>  (190) 
-11.562926

>  <compound>  (190) 
KVFKJILGWCRCJR-UHFFFAOYSA-N

>  <compound_id>  (190) 
114252

>  <target>  (190) 
Flavi_NS5_RdRp

>  <tags>  (190) 
[]

>  <inspirations>  (190) 
{P Ã— 2}

>  <subsites>  (190) 
None

>  <reference>  (190) 
z0211a

>  <SLURM_JOB_ID>  (190) 
nan

>  <SLURM_JOB_NAME>  (190) 
nan

>  <csv_name>  (190) 
nan

>  <scratch_subdir>  (190) 
nan

>  <fragmenstein_runtime>  (190) 
nan

>  <fragmenstein_outcome>  (190) 
nan

>  <fragmenstein_mode>  (190) 
nan

>  <fragmenstein_error>  (190) 
nan

>  <exports>  (190) 
nan

>  <Multi-SuCOS>  (190) 
nan

>  <merge_set>  (190) 
nan

$$$$
DTENWMSMWZDCQY-UHFFFAOYSA-N
     RDKit          3D

 25 28  0  0  0  0  0  0  0  0999 V2000
  -24.4465  -31.1581  -20.0002 O   0  0  0  0  0  0  0  0  0  0  0  0
  -25.5254  -31.3908  -20.3706 C   0  0  0  0  0  0  0  0  0  0  0  0
  -26.0528  -32.5395  -21.2518 N   0  0  0  0  0  0  0  0  0  0  0  0
  -25.3811  -33.6918  -21.7817 C   0  0  0  0  0  0  0  0  0  0  0  0
  -24.0405  -33.4220  -22.4788 C   0  0  0  0  0  0  0  0  0  0  0  0
  -22.9795  -34.3478  -21.9104 C   0  0  0  0  0  0  0  0  0  0  0  0
  -23.2862  -35.7262  -21.8997 C   0  0  0  0  0  0  0  0  0  0  0  0
  -22.4899  -36.6299  -21.2219 C   0  0  0  0  0  0  0  0  0  0  0  0
  -21.3270  -36.1814  -20.6052 C   0  0  0  0  0  0  0  0  0  0  0  0
  -20.9358  -34.8351  -20.6767 C   0  0  0  0  0  0  0  0  0  0  0  0
  -19.7223  -34.4315  -20.0942 C   0  0  0  0  0  0  0  0  0  0  0  0
  -19.3093  -33.1016  -20.1372 C   0  0  0  0  0  0  0  0  0  0  0  0
  -20.1115  -32.1562  -20.7590 C   0  0  0  0  0  0  0  0  0  0  0  0
  -21.3181  -32.5435  -21.3491 C   0  0  0  0  0  0  0  0  0  0  0  0
  -21.7632  -33.8877  -21.3313 C   0  0  0  0  0  0  0  0  0  0  0  0
  -26.6577  -30.5611  -19.8954 C   0  0  0  0  0  0  0  0  0  0  0  0
  -27.7342  -30.2629  -20.7331 C   0  0  0  0  0  0  0  0  0  0  0  0
  -28.9105  -29.7670  -20.2061 C   0  0  0  0  0  0  0  0  0  0  0  0
  -29.9601  -29.5864  -21.0189 F   0  0  0  0  0  0  0  0  0  0  0  0
  -29.0413  -29.5026  -18.8493 C   0  0  0  0  0  0  0  0  0  0  0  0
  -27.9176  -29.6395  -18.0163 C   0  0  0  0  0  0  0  0  0  0  0  0
  -27.6860  -29.4089  -16.6371 C   0  0  0  0  0  0  0  0  0  0  0  0
  -26.3884  -29.7795  -16.3676 C   0  0  0  0  0  0  0  0  0  0  0  0
  -25.8290  -30.2606  -17.5208 N   0  0  0  0  0  0  0  0  0  0  0  0
  -26.7391  -30.1698  -18.5501 C   0  0  0  0  0  0  0  0  0  0  0  0
  1  2  2  0
  2  3  1  0
  3  4  1  0
  4  5  1  0
  5  6  1  0
  6  7  2  0
  7  8  1  0
  8  9  2  0
  9 10  1  0
 10 11  2  0
 11 12  1  0
 12 13  2  0
 13 14  1  0
 14 15  2  0
  2 16  1  0
 16 17  2  0
 17 18  1  0
 18 19  1  0
 18 20  2  0
 20 21  1  0
 21 22  1  0
 22 23  2  0
 23 24  1  0
 24 25  1  0
 15  6  1  0
 25 16  1  0
 15 10  1  0
 25 21  2  0
M  END
>  <id>  (191) 
280524

>  <inchikey>  (191) 
DTENWMSMWZDCQY-UHFFFAOYSA-N

>  <alias>  (191) 
None

>  <smiles>  (191) 
O=C(NCCc1cccc2ccccc12)c1cc(F)cc2cc[nH]c12

>  <path>  (191) 
/opt/xchem-fragalysis-2/maxwin/RdRp_FFF/syndirella/mar_elabs/elabs_038/DHXCDLUKFAKLSY-UHFFFAOYSA-N/output/DHXCDLUKFAKLSY-UHFFFAOYSA-N-NDLsHp-89-A/DHXCDLUKFAKLSY-UHFFFAOYSA-N-NDLsHp-89-A.minimised.mol

>  <distance_score>  (191) 
1.117239

>  <energy_score>  (191) 
-1.837285

>  <compound>  (191) 
DTENWMSMWZDCQY-UHFFFAOYSA-N

>  <compound_id>  (191) 
117503

>  <target>  (191) 
Flavi_NS5_RdRp

>  <tags>  (191) 
[]

>  <inspirations>  (191) 
{P Ã— 2}

>  <subsites>  (191) 
None

>  <reference>  (191) 
z0041a

>  <SLURM_JOB_ID>  (191) 
nan

>  <SLURM_JOB_NAME>  (191) 
nan

>  <csv_name>  (191) 
nan

>  <scratch_subdir>  (191) 
nan

>  <fragmenstein_runtime>  (191) 
nan

>  <fragmenstein_outcome>  (191) 
nan

>  <fragmenstein_mode>  (191) 
nan

>  <fragmenstein_error>  (191) 
nan

>  <exports>  (191) 
nan

>  <Multi-SuCOS>  (191) 
nan

>  <merge_set>  (191) 
nan

$$$$
YJYHZCQFMIVBOI-UHFFFAOYSA-N
     RDKit          3D

 25 28  0  0  0  0  0  0  0  0999 V2000
  -24.3453  -31.2544  -19.9916 O   0  0  0  0  0  0  0  0  0  0  0  0
  -25.4330  -31.4550  -20.3557 C   0  0  0  0  0  0  0  0  0  0  0  0
  -25.9960  -32.5764  -21.2516 N   0  0  0  0  0  0  0  0  0  0  0  0
  -25.3570  -33.7351  -21.8071 C   0  0  0  0  0  0  0  0  0  0  0  0
  -24.0127  -33.4820  -22.5027 C   0  0  0  0  0  0  0  0  0  0  0  0
  -22.9519  -34.3875  -21.9042 C   0  0  0  0  0  0  0  0  0  0  0  0
  -23.2497  -35.7677  -21.8724 C   0  0  0  0  0  0  0  0  0  0  0  0
  -22.4501  -36.6554  -21.1782 C   0  0  0  0  0  0  0  0  0  0  0  0
  -21.2911  -36.1899  -20.5671 C   0  0  0  0  0  0  0  0  0  0  0  0
  -20.9101  -34.8417  -20.6561 C   0  0  0  0  0  0  0  0  0  0  0  0
  -19.7014  -34.4211  -20.0759 C   0  0  0  0  0  0  0  0  0  0  0  0
  -19.2992  -33.0884  -20.1343 C   0  0  0  0  0  0  0  0  0  0  0  0
  -20.1079  -32.1572  -20.7691 C   0  0  0  0  0  0  0  0  0  0  0  0
  -21.3092  -32.5618  -21.3582 C   0  0  0  0  0  0  0  0  0  0  0  0
  -21.7428  -33.9094  -21.3255 C   0  0  0  0  0  0  0  0  0  0  0  0
  -26.5420  -30.6072  -19.8566 C   0  0  0  0  0  0  0  0  0  0  0  0
  -27.6196  -30.2823  -20.6842 C   0  0  0  0  0  0  0  0  0  0  0  0
  -28.7818  -29.7545  -20.1500 C   0  0  0  0  0  0  0  0  0  0  0  0
  -30.1274  -29.4992  -21.1835 Cl  0  0  0  0  0  0  0  0  0  0  0  0
  -28.8877  -29.4798  -18.7905 C   0  0  0  0  0  0  0  0  0  0  0  0
  -27.7608  -29.6538  -17.9681 C   0  0  0  0  0  0  0  0  0  0  0  0
  -27.5163  -29.4383  -16.5891 C   0  0  0  0  0  0  0  0  0  0  0  0
  -26.2287  -29.8462  -16.3294 C   0  0  0  0  0  0  0  0  0  0  0  0
  -25.6887  -30.3348  -17.4887 N   0  0  0  0  0  0  0  0  0  0  0  0
  -26.6024  -30.2166  -18.5114 C   0  0  0  0  0  0  0  0  0  0  0  0
  1  2  2  0
  2  3  1  0
  3  4  1  0
  4  5  1  0
  5  6  1  0
  6  7  2  0
  7  8  1  0
  8  9  2  0
  9 10  1  0
 10 11  2  0
 11 12  1  0
 12 13  2  0
 13 14  1  0
 14 15  2  0
  2 16  1  0
 16 17  2  0
 17 18  1  0
 18 19  1  0
 18 20  2  0
 20 21  1  0
 21 22  1  0
 22 23  2  0
 23 24  1  0
 24 25  1  0
 15  6  1  0
 25 16  1  0
 15 10  1  0
 25 21  2  0
M  END
>  <id>  (192) 
280527

>  <inchikey>  (192) 
YJYHZCQFMIVBOI-UHFFFAOYSA-N

>  <alias>  (192) 
None

>  <smiles>  (192) 
O=C(NCCc1cccc2ccccc12)c1cc(Cl)cc2cc[nH]c12

>  <path>  (192) 
/opt/xchem-fragalysis-2/maxwin/RdRp_FFF/syndirella/mar_elabs/elabs_038/DHXCDLUKFAKLSY-UHFFFAOYSA-N/output/DHXCDLUKFAKLSY-UHFFFAOYSA-N-NDLsHp-105-A/DHXCDLUKFAKLSY-UHFFFAOYSA-N-NDLsHp-105-A.minimised.mol

>  <distance_score>  (192) 
1.121911

>  <energy_score>  (192) 
-5.782168

>  <compound>  (192) 
YJYHZCQFMIVBOI-UHFFFAOYSA-N

>  <compound_id>  (192) 
117514

>  <target>  (192) 
Flavi_NS5_RdRp

>  <tags>  (192) 
[]

>  <inspirations>  (192) 
{P Ã— 2}

>  <subsites>  (192) 
None

>  <reference>  (192) 
z0041a

>  <SLURM_JOB_ID>  (192) 
nan

>  <SLURM_JOB_NAME>  (192) 
nan

>  <csv_name>  (192) 
nan

>  <scratch_subdir>  (192) 
nan

>  <fragmenstein_runtime>  (192) 
nan

>  <fragmenstein_outcome>  (192) 
nan

>  <fragmenstein_mode>  (192) 
nan

>  <fragmenstein_error>  (192) 
nan

>  <exports>  (192) 
nan

>  <Multi-SuCOS>  (192) 
nan

>  <merge_set>  (192) 
nan

$$$$
GDLVXOSPGWQRON-UHFFFAOYSA-N
     RDKit          3D

 26 29  0  0  0  0  0  0  0  0999 V2000
  -24.9370  -33.5336  -23.3616 O   0  0  0  0  0  0  0  0  0  0  0  0
  -24.0196  -33.1814  -22.6137 C   0  0  0  0  0  0  0  0  0  0  0  0
  -23.9164  -31.7423  -22.1477 C   0  0  0  0  0  0  0  0  0  0  0  0
  -25.1021  -31.3881  -21.4214 N   0  0  0  0  0  0  0  0  0  0  0  0
  -25.2742  -30.8500  -19.9916 C   0  0  0  0  0  0  0  0  0  0  0  0
  -24.4876  -30.6808  -19.1485 O   0  0  0  0  0  0  0  0  0  0  0  0
  -26.6829  -30.4338  -19.6789 C   0  0  0  0  0  0  0  0  0  0  0  0
  -27.7185  -30.3149  -20.6197 C   0  0  0  0  0  0  0  0  0  0  0  0
  -29.0139  -29.9631  -20.2463 C   0  0  0  0  0  0  0  0  0  0  0  0
  -29.3182  -29.6848  -18.9176 C   0  0  0  0  0  0  0  0  0  0  0  0
  -28.2861  -29.6762  -17.9666 C   0  0  0  0  0  0  0  0  0  0  0  0
  -28.2371  -29.3815  -16.5790 C   0  0  0  0  0  0  0  0  0  0  0  0
  -26.9443  -29.5871  -16.1565 C   0  0  0  0  0  0  0  0  0  0  0  0
  -26.2038  -29.9857  -17.2322 N   0  0  0  0  0  0  0  0  0  0  0  0
  -27.0002  -30.0557  -18.3580 C   0  0  0  0  0  0  0  0  0  0  0  0
  -23.1147  -34.2128  -22.0164 C   0  0  0  0  0  0  0  0  0  0  0  0
  -23.7244  -35.4669  -21.8172 C   0  0  0  0  0  0  0  0  0  0  0  0
  -23.0719  -36.4693  -21.1177 C   0  0  0  0  0  0  0  0  0  0  0  0
  -21.8162  -36.2092  -20.5878 C   0  0  0  0  0  0  0  0  0  0  0  0
  -21.2123  -37.1820  -19.8852 F   0  0  0  0  0  0  0  0  0  0  0  0
  -21.1617  -34.9825  -20.7834 C   0  0  0  0  0  0  0  0  0  0  0  0
  -19.8894  -34.7683  -20.2201 C   0  0  0  0  0  0  0  0  0  0  0  0
  -19.2004  -33.5769  -20.4235 C   0  0  0  0  0  0  0  0  0  0  0  0
  -19.7576  -32.6011  -21.2333 C   0  0  0  0  0  0  0  0  0  0  0  0
  -21.0064  -32.8097  -21.8230 C   0  0  0  0  0  0  0  0  0  0  0  0
  -21.7823  -33.9700  -21.5598 C   0  0  0  0  0  0  0  0  0  0  0  0
  1  2  2  0
  2  3  1  0
  3  4  1  0
  4  5  1  0
  5  6  2  0
  5  7  1  0
  7  8  2  0
  8  9  1  0
  9 10  2  0
 10 11  1  0
 11 12  1  0
 12 13  2  0
 13 14  1  0
 14 15  1  0
  2 16  1  0
 16 17  2  0
 17 18  1  0
 18 19  2  0
 19 20  1  0
 19 21  1  0
 21 22  2  0
 22 23  1  0
 23 24  2  0
 24 25  1  0
 25 26  2  0
 15  7  1  0
 26 16  1  0
 15 11  2  0
 26 21  1  0
M  END
>  <id>  (193) 
284204

>  <inchikey>  (193) 
GDLVXOSPGWQRON-UHFFFAOYSA-N

>  <alias>  (193) 
None

>  <smiles>  (193) 
O=C(CNC(=O)c1cccc2cc[nH]c12)c1ccc(F)c2ccccc12

>  <path>  (193) 
/opt/xchem-fragalysis-2/maxwin/RdRp_FFF/syndirella/mar_elabs/elabs_039/DHXCDLUKFAKLSY-UHFFFAOYSA-N/output/DHXCDLUKFAKLSY-UHFFFAOYSA-N-hgtVBC-2370-A/DHXCDLUKFAKLSY-UHFFFAOYSA-N-hgtVBC-2370-A.minimised.mol

>  <distance_score>  (193) 
0.979879

>  <energy_score>  (193) 
-14.869641

>  <compound>  (193) 
GDLVXOSPGWQRON-UHFFFAOYSA-N

>  <compound_id>  (193) 
119110

>  <target>  (193) 
Flavi_NS5_RdRp

>  <tags>  (193) 
[]

>  <inspirations>  (193) 
{P Ã— 2}

>  <subsites>  (193) 
None

>  <reference>  (193) 
z0041a

>  <SLURM_JOB_ID>  (193) 
nan

>  <SLURM_JOB_NAME>  (193) 
nan

>  <csv_name>  (193) 
nan

>  <scratch_subdir>  (193) 
nan

>  <fragmenstein_runtime>  (193) 
nan

>  <fragmenstein_outcome>  (193) 
nan

>  <fragmenstein_mode>  (193) 
nan

>  <fragmenstein_error>  (193) 
nan

>  <exports>  (193) 
nan

>  <Multi-SuCOS>  (193) 
nan

>  <merge_set>  (193) 
nan

$$$$
DIDCTOAFSSWVDZ-UHFFFAOYSA-N
     RDKit          3D

 27 30  0  0  0  0  0  0  0  0999 V2000
  -24.9206  -33.5259  -23.3593 O   0  0  0  0  0  0  0  0  0  0  0  0
  -24.0060  -33.1808  -22.6053 C   0  0  0  0  0  0  0  0  0  0  0  0
  -23.9023  -31.7458  -22.1269 C   0  0  0  0  0  0  0  0  0  0  0  0
  -25.0943  -31.3942  -21.4095 N   0  0  0  0  0  0  0  0  0  0  0  0
  -25.2775  -30.8437  -19.9860 C   0  0  0  0  0  0  0  0  0  0  0  0
  -24.4963  -30.6598  -19.1410 O   0  0  0  0  0  0  0  0  0  0  0  0
  -26.6879  -30.4342  -19.6830 C   0  0  0  0  0  0  0  0  0  0  0  0
  -27.7127  -30.3278  -20.6304 C   0  0  0  0  0  0  0  0  0  0  0  0
  -29.0027  -29.9811  -20.2556 C   0  0  0  0  0  0  0  0  0  0  0  0
  -29.9584  -29.9372  -21.1943 F   0  0  0  0  0  0  0  0  0  0  0  0
  -29.3338  -29.6921  -18.9407 C   0  0  0  0  0  0  0  0  0  0  0  0
  -28.3087  -29.6745  -17.9838 C   0  0  0  0  0  0  0  0  0  0  0  0
  -28.2695  -29.3746  -16.5972 C   0  0  0  0  0  0  0  0  0  0  0  0
  -26.9790  -29.5754  -16.1654 C   0  0  0  0  0  0  0  0  0  0  0  0
  -26.2288  -29.9749  -17.2341 N   0  0  0  0  0  0  0  0  0  0  0  0
  -27.0175  -30.0509  -18.3654 C   0  0  0  0  0  0  0  0  0  0  0  0
  -23.1045  -34.2163  -22.0117 C   0  0  0  0  0  0  0  0  0  0  0  0
  -23.7169  -35.4696  -21.8160 C   0  0  0  0  0  0  0  0  0  0  0  0
  -23.0665  -36.4741  -21.1177 C   0  0  0  0  0  0  0  0  0  0  0  0
  -21.8108  -36.2169  -20.5862 C   0  0  0  0  0  0  0  0  0  0  0  0
  -21.2089  -37.1917  -19.8845 F   0  0  0  0  0  0  0  0  0  0  0  0
  -21.1540  -34.9908  -20.7788 C   0  0  0  0  0  0  0  0  0  0  0  0
  -19.8818  -34.7790  -20.2144 C   0  0  0  0  0  0  0  0  0  0  0  0
  -19.1915  -33.5877  -20.4149 C   0  0  0  0  0  0  0  0  0  0  0  0
  -19.7472  -32.6093  -21.2226 C   0  0  0  0  0  0  0  0  0  0  0  0
  -20.9958  -32.8154  -21.8133 C   0  0  0  0  0  0  0  0  0  0  0  0
  -21.7726  -33.9760  -21.5534 C   0  0  0  0  0  0  0  0  0  0  0  0
  1  2  2  0
  2  3  1  0
  3  4  1  0
  4  5  1  0
  5  6  2  0
  5  7  1  0
  7  8  2  0
  8  9  1  0
  9 10  1  0
  9 11  2  0
 11 12  1  0
 12 13  1  0
 13 14  2  0
 14 15  1  0
 15 16  1  0
  2 17  1  0
 17 18  2  0
 18 19  1  0
 19 20  2  0
 20 21  1  0
 20 22  1  0
 22 23  2  0
 23 24  1  0
 24 25  2  0
 25 26  1  0
 26 27  2  0
 16  7  1  0
 27 17  1  0
 16 12  2  0
 27 22  1  0
M  END
>  <id>  (194) 
285265

>  <inchikey>  (194) 
DIDCTOAFSSWVDZ-UHFFFAOYSA-N

>  <alias>  (194) 
None

>  <smiles>  (194) 
O=C(CNC(=O)c1cc(F)cc2cc[nH]c12)c1ccc(F)c2ccccc12

>  <path>  (194) 
/opt/xchem-fragalysis-2/maxwin/RdRp_FFF/syndirella/mar_elabs/elabs_039/DHXCDLUKFAKLSY-UHFFFAOYSA-N/output/DHXCDLUKFAKLSY-UHFFFAOYSA-N-hgtVBC-5224-A/DHXCDLUKFAKLSY-UHFFFAOYSA-N-hgtVBC-5224-A.minimised.mol

>  <distance_score>  (194) 
0.983294

>  <energy_score>  (194) 
-12.982427

>  <compound>  (194) 
DIDCTOAFSSWVDZ-UHFFFAOYSA-N

>  <compound_id>  (194) 
121463

>  <target>  (194) 
Flavi_NS5_RdRp

>  <tags>  (194) 
[]

>  <inspirations>  (194) 
{P Ã— 2}

>  <subsites>  (194) 
None

>  <reference>  (194) 
z0041a

>  <SLURM_JOB_ID>  (194) 
nan

>  <SLURM_JOB_NAME>  (194) 
nan

>  <csv_name>  (194) 
nan

>  <scratch_subdir>  (194) 
nan

>  <fragmenstein_runtime>  (194) 
nan

>  <fragmenstein_outcome>  (194) 
nan

>  <fragmenstein_mode>  (194) 
nan

>  <fragmenstein_error>  (194) 
nan

>  <exports>  (194) 
nan

>  <Multi-SuCOS>  (194) 
nan

>  <merge_set>  (194) 
nan

$$$$
KBGJADLCTCWHEA-UHFFFAOYSA-N
     RDKit          3D

 27 30  0  0  0  0  0  0  0  0999 V2000
  -24.8761  -33.4734  -23.4859 O   0  0  0  0  0  0  0  0  0  0  0  0
  -23.9653  -33.1122  -22.7336 C   0  0  0  0  0  0  0  0  0  0  0  0
  -23.8354  -31.6539  -22.3295 C   0  0  0  0  0  0  0  0  0  0  0  0
  -24.9825  -31.2692  -21.5561 N   0  0  0  0  0  0  0  0  0  0  0  0
  -25.1599  -31.1273  -20.0350 C   0  0  0  0  0  0  0  0  0  0  0  0
  -24.4274  -31.3737  -19.1631 O   0  0  0  0  0  0  0  0  0  0  0  0
  -26.4910  -30.5500  -19.6396 C   0  0  0  0  0  0  0  0  0  0  0  0
  -27.5908  -30.4004  -20.4973 C   0  0  0  0  0  0  0  0  0  0  0  0
  -28.8020  -29.8887  -20.0405 C   0  0  0  0  0  0  0  0  0  0  0  0
  -30.1007  -29.6651  -21.1421 Cl  0  0  0  0  0  0  0  0  0  0  0  0
  -28.9917  -29.5508  -18.7084 C   0  0  0  0  0  0  0  0  0  0  0  0
  -27.9069  -29.6500  -17.8286 C   0  0  0  0  0  0  0  0  0  0  0  0
  -27.7582  -29.3928  -16.4429 C   0  0  0  0  0  0  0  0  0  0  0  0
  -26.4679  -29.7176  -16.1003 C   0  0  0  0  0  0  0  0  0  0  0  0
  -25.8291  -30.1682  -17.2206 N   0  0  0  0  0  0  0  0  0  0  0  0
  -26.6878  -30.1417  -18.3017 C   0  0  0  0  0  0  0  0  0  0  0  0
  -23.1030  -34.1489  -22.0787 C   0  0  0  0  0  0  0  0  0  0  0  0
  -23.7502  -35.3838  -21.8695 C   0  0  0  0  0  0  0  0  0  0  0  0
  -23.1422  -36.3927  -21.1392 C   0  0  0  0  0  0  0  0  0  0  0  0
  -21.8924  -36.1586  -20.5857 C   0  0  0  0  0  0  0  0  0  0  0  0
  -21.3315  -37.1357  -19.8539 F   0  0  0  0  0  0  0  0  0  0  0  0
  -21.2016  -34.9531  -20.7849 C   0  0  0  0  0  0  0  0  0  0  0  0
  -19.9383  -34.7658  -20.1924 C   0  0  0  0  0  0  0  0  0  0  0  0
  -19.2118  -33.5973  -20.3943 C   0  0  0  0  0  0  0  0  0  0  0  0
  -19.7200  -32.6213  -21.2349 C   0  0  0  0  0  0  0  0  0  0  0  0
  -20.9565  -32.8067  -21.8575 C   0  0  0  0  0  0  0  0  0  0  0  0
  -21.7752  -33.9365  -21.5932 C   0  0  0  0  0  0  0  0  0  0  0  0
  1  2  2  0
  2  3  1  0
  3  4  1  0
  4  5  1  0
  5  6  2  0
  5  7  1  0
  7  8  2  0
  8  9  1  0
  9 10  1  0
  9 11  2  0
 11 12  1  0
 12 13  1  0
 13 14  2  0
 14 15  1  0
 15 16  1  0
  2 17  1  0
 17 18  2  0
 18 19  1  0
 19 20  2  0
 20 21  1  0
 20 22  1  0
 22 23  2  0
 23 24  1  0
 24 25  2  0
 25 26  1  0
 26 27  2  0
 16  7  1  0
 27 17  1  0
 16 12  2  0
 27 22  1  0
M  END
>  <id>  (195) 
285681

>  <inchikey>  (195) 
KBGJADLCTCWHEA-UHFFFAOYSA-N

>  <alias>  (195) 
None

>  <smiles>  (195) 
O=C(CNC(=O)c1cc(Cl)cc2cc[nH]c12)c1ccc(F)c2ccccc12

>  <path>  (195) 
/opt/xchem-fragalysis-2/maxwin/RdRp_FFF/syndirella/mar_elabs/elabs_039/DHXCDLUKFAKLSY-UHFFFAOYSA-N/output/DHXCDLUKFAKLSY-UHFFFAOYSA-N-hgtVBC-6214-A/DHXCDLUKFAKLSY-UHFFFAOYSA-N-hgtVBC-6214-A.minimised.mol

>  <distance_score>  (195) 
1.08003

>  <energy_score>  (195) 
-3.070485

>  <compound>  (195) 
KBGJADLCTCWHEA-UHFFFAOYSA-N

>  <compound_id>  (195) 
121804

>  <target>  (195) 
Flavi_NS5_RdRp

>  <tags>  (195) 
[]

>  <inspirations>  (195) 
{P Ã— 2}

>  <subsites>  (195) 
None

>  <reference>  (195) 
z0041a

>  <SLURM_JOB_ID>  (195) 
nan

>  <SLURM_JOB_NAME>  (195) 
nan

>  <csv_name>  (195) 
nan

>  <scratch_subdir>  (195) 
nan

>  <fragmenstein_runtime>  (195) 
nan

>  <fragmenstein_outcome>  (195) 
nan

>  <fragmenstein_mode>  (195) 
nan

>  <fragmenstein_error>  (195) 
nan

>  <exports>  (195) 
nan

>  <Multi-SuCOS>  (195) 
nan

>  <merge_set>  (195) 
nan

$$$$
QJPNZFWUBXQCSC-UHFFFAOYSA-N
     RDKit          3D

 27 30  0  0  0  0  0  0  0  0999 V2000
  -23.8175  -31.3015  -23.9281 O   0  0  0  0  0  0  0  0  0  0  0  0
  -23.9798  -32.3612  -23.4620 C   0  0  0  0  0  0  0  0  0  0  0  0
  -23.1927  -33.5907  -23.9198 C   0  0  0  0  0  0  0  0  0  0  0  0
  -22.6621  -34.4324  -22.7681 C   0  0  0  0  0  0  0  0  0  0  0  0
  -23.2305  -35.7079  -22.5785 C   0  0  0  0  0  0  0  0  0  0  0  0
  -22.8607  -36.4971  -21.5008 C   0  0  0  0  0  0  0  0  0  0  0  0
  -21.8798  -36.0418  -20.6231 C   0  0  0  0  0  0  0  0  0  0  0  0
  -21.2706  -34.7880  -20.7959 C   0  0  0  0  0  0  0  0  0  0  0  0
  -20.2643  -34.3645  -19.9112 C   0  0  0  0  0  0  0  0  0  0  0  0
  -19.6688  -33.1110  -20.0440 C   0  0  0  0  0  0  0  0  0  0  0  0
  -20.0772  -32.2618  -21.0626 C   0  0  0  0  0  0  0  0  0  0  0  0
  -21.0561  -32.6782  -21.9679 C   0  0  0  0  0  0  0  0  0  0  0  0
  -21.6720  -33.9488  -21.8650 C   0  0  0  0  0  0  0  0  0  0  0  0
  -24.9182  -32.8230  -22.3054 N   0  0  0  0  0  0  0  0  0  0  0  0
  -25.7088  -32.1137  -21.4950 N   0  0  0  0  0  0  0  0  0  0  0  0
  -26.4100  -30.7635  -21.7149 C   0  0  0  0  0  0  0  0  0  0  0  0
  -26.4735  -30.0913  -22.6633 O   0  0  0  0  0  0  0  0  0  0  0  0
  -27.1094  -30.3673  -20.4880 C   0  0  0  0  0  0  0  0  0  0  0  0
  -28.4658  -30.1069  -20.5990 C   0  0  0  0  0  0  0  0  0  0  0  0
  -29.2157  -29.8920  -19.4700 C   0  0  0  0  0  0  0  0  0  0  0  0
  -31.0647  -29.9968  -19.6914 Br  0  0  0  0  0  0  0  0  0  0  0  0
  -28.6236  -29.7427  -18.2189 C   0  0  0  0  0  0  0  0  0  0  0  0
  -27.2306  -29.9238  -18.0981 C   0  0  0  0  0  0  0  0  0  0  0  0
  -26.3137  -29.8753  -17.0157 C   0  0  0  0  0  0  0  0  0  0  0  0
  -25.0740  -30.2347  -17.4855 C   0  0  0  0  0  0  0  0  0  0  0  0
  -25.1999  -30.4976  -18.8184 N   0  0  0  0  0  0  0  0  0  0  0  0
  -26.5010  -30.2924  -19.2255 C   0  0  0  0  0  0  0  0  0  0  0  0
  1  2  2  0
  2  3  1  0
  3  4  1  0
  4  5  2  0
  5  6  1  0
  6  7  2  0
  7  8  1  0
  8  9  2  0
  9 10  1  0
 10 11  2  0
 11 12  1  0
 12 13  2  0
  2 14  1  0
 14 15  1  0
 15 16  1  0
 16 17  2  0
 16 18  1  0
 18 19  2  0
 19 20  1  0
 20 21  1  0
 20 22  2  0
 22 23  1  0
 23 24  1  0
 24 25  2  0
 25 26  1  0
 26 27  1  0
 13  4  1  0
 27 18  1  0
 13  8  1  0
 27 23  2  0
M  END
>  <id>  (196) 
285861

>  <inchikey>  (196) 
QJPNZFWUBXQCSC-UHFFFAOYSA-N

>  <alias>  (196) 
None

>  <smiles>  (196) 
O=C(Cc1cccc2ccccc12)NNC(=O)c1cc(Br)cc2cc[nH]c12

>  <path>  (196) 
/opt/xchem-fragalysis-2/maxwin/RdRp_FFF/syndirella/mar_elabs/elabs_039/DHXCDLUKFAKLSY-UHFFFAOYSA-N/output/DHXCDLUKFAKLSY-UHFFFAOYSA-N-hgtVBC-6487-A/DHXCDLUKFAKLSY-UHFFFAOYSA-N-hgtVBC-6487-A.minimised.mol

>  <distance_score>  (196) 
1.948063

>  <energy_score>  (196) 
-3.177432

>  <compound>  (196) 
QJPNZFWUBXQCSC-UHFFFAOYSA-N

>  <compound_id>  (196) 
121014

>  <target>  (196) 
Flavi_NS5_RdRp

>  <tags>  (196) 
[]

>  <inspirations>  (196) 
{P Ã— 2}

>  <subsites>  (196) 
None

>  <reference>  (196) 
z0041a

>  <SLURM_JOB_ID>  (196) 
nan

>  <SLURM_JOB_NAME>  (196) 
nan

>  <csv_name>  (196) 
nan

>  <scratch_subdir>  (196) 
nan

>  <fragmenstein_runtime>  (196) 
nan

>  <fragmenstein_outcome>  (196) 
nan

>  <fragmenstein_mode>  (196) 
nan

>  <fragmenstein_error>  (196) 
nan

>  <exports>  (196) 
nan

>  <Multi-SuCOS>  (196) 
nan

>  <merge_set>  (196) 
nan

$$$$
AMDIAEVAUNJZTG-UHFFFAOYSA-N
     RDKit          3D

 27 30  0  0  0  0  0  0  0  0999 V2000
  -24.9456  -33.5042  -23.3135 O   0  0  0  0  0  0  0  0  0  0  0  0
  -23.9850  -33.1631  -22.6157 C   0  0  0  0  0  0  0  0  0  0  0  0
  -23.8036  -31.7091  -22.2256 C   0  0  0  0  0  0  0  0  0  0  0  0
  -24.9297  -31.2547  -21.4610 N   0  0  0  0  0  0  0  0  0  0  0  0
  -25.0674  -30.9740  -19.9537 C   0  0  0  0  0  0  0  0  0  0  0  0
  -24.2678  -30.9934  -19.1055 O   0  0  0  0  0  0  0  0  0  0  0  0
  -26.4394  -30.5066  -19.5491 C   0  0  0  0  0  0  0  0  0  0  0  0
  -27.5212  -30.3201  -20.4209 C   0  0  0  0  0  0  0  0  0  0  0  0
  -28.7499  -29.8578  -19.9606 C   0  0  0  0  0  0  0  0  0  0  0  0
  -30.1418  -29.5657  -21.1910 Br  0  0  0  0  0  0  0  0  0  0  0  0
  -28.9733  -29.5743  -18.6215 C   0  0  0  0  0  0  0  0  0  0  0  0
  -27.8965  -29.6750  -17.7335 C   0  0  0  0  0  0  0  0  0  0  0  0
  -27.7650  -29.4343  -16.3429 C   0  0  0  0  0  0  0  0  0  0  0  0
  -26.4709  -29.7361  -15.9946 C   0  0  0  0  0  0  0  0  0  0  0  0
  -25.8127  -30.1521  -17.1165 N   0  0  0  0  0  0  0  0  0  0  0  0
  -26.6645  -30.1374  -18.2034 C   0  0  0  0  0  0  0  0  0  0  0  0
  -23.0990  -34.2111  -22.0126 C   0  0  0  0  0  0  0  0  0  0  0  0
  -23.7380  -35.4495  -21.8025 C   0  0  0  0  0  0  0  0  0  0  0  0
  -23.1110  -36.4620  -21.0941 C   0  0  0  0  0  0  0  0  0  0  0  0
  -21.8524  -36.2268  -20.5611 C   0  0  0  0  0  0  0  0  0  0  0  0
  -21.2756  -37.2065  -19.8454 F   0  0  0  0  0  0  0  0  0  0  0  0
  -21.1687  -35.0179  -20.7648 C   0  0  0  0  0  0  0  0  0  0  0  0
  -19.8966  -34.8288  -20.1917 C   0  0  0  0  0  0  0  0  0  0  0  0
  -19.1767  -33.6571  -20.4003 C   0  0  0  0  0  0  0  0  0  0  0  0
  -19.6996  -32.6808  -21.2311 C   0  0  0  0  0  0  0  0  0  0  0  0
  -20.9449  -32.8689  -21.8347 C   0  0  0  0  0  0  0  0  0  0  0  0
  -21.7593  -33.9997  -21.5574 C   0  0  0  0  0  0  0  0  0  0  0  0
  1  2  2  0
  2  3  1  0
  3  4  1  0
  4  5  1  0
  5  6  2  0
  5  7  1  0
  7  8  2  0
  8  9  1  0
  9 10  1  0
  9 11  2  0
 11 12  1  0
 12 13  1  0
 13 14  2  0
 14 15  1  0
 15 16  1  0
  2 17  1  0
 17 18  2  0
 18 19  1  0
 19 20  2  0
 20 21  1  0
 20 22  1  0
 22 23  2  0
 23 24  1  0
 24 25  2  0
 25 26  1  0
 26 27  2  0
 16  7  1  0
 27 17  1  0
 16 12  2  0
 27 22  1  0
M  END
>  <id>  (197) 
285866

>  <inchikey>  (197) 
AMDIAEVAUNJZTG-UHFFFAOYSA-N

>  <alias>  (197) 
None

>  <smiles>  (197) 
O=C(CNC(=O)c1cc(Br)cc2cc[nH]c12)c1ccc(F)c2ccccc12

>  <path>  (197) 
/opt/xchem-fragalysis-2/maxwin/RdRp_FFF/syndirella/mar_elabs/elabs_039/DHXCDLUKFAKLSY-UHFFFAOYSA-N/output/DHXCDLUKFAKLSY-UHFFFAOYSA-N-hgtVBC-6494-A/DHXCDLUKFAKLSY-UHFFFAOYSA-N-hgtVBC-6494-A.minimised.mol

>  <distance_score>  (197) 
0.964018

>  <energy_score>  (197) 
-16.226883

>  <compound>  (197) 
AMDIAEVAUNJZTG-UHFFFAOYSA-N

>  <compound_id>  (197) 
121020

>  <target>  (197) 
Flavi_NS5_RdRp

>  <tags>  (197) 
[]

>  <inspirations>  (197) 
{P Ã— 2}

>  <subsites>  (197) 
None

>  <reference>  (197) 
z0041a

>  <SLURM_JOB_ID>  (197) 
nan

>  <SLURM_JOB_NAME>  (197) 
nan

>  <csv_name>  (197) 
nan

>  <scratch_subdir>  (197) 
nan

>  <fragmenstein_runtime>  (197) 
nan

>  <fragmenstein_outcome>  (197) 
nan

>  <fragmenstein_mode>  (197) 
nan

>  <fragmenstein_error>  (197) 
nan

>  <exports>  (197) 
nan

>  <Multi-SuCOS>  (197) 
nan

>  <merge_set>  (197) 
nan

$$$$
PGVYGILCFWWCGJ-RDDDGLTNSA-N
     RDKit          3D

 20 21  0  0  0  0  0  0  0  0999 V2000
  -24.0764  -33.2655  -24.1372 C   0  0  0  0  0  0  0  0  0  0  0  0
  -23.4172  -32.0380  -23.5095 C   0  0  1  0  0  0  0  0  0  0  0  0
  -24.2420  -31.5998  -22.4039 N   0  0  0  0  0  0  0  0  0  0  0  0
  -25.5763  -30.8162  -22.3978 C   0  0  0  0  0  0  0  0  0  0  0  0
  -26.1602  -30.3488  -23.2581 O   0  0  0  0  0  0  0  0  0  0  0  0
  -25.8740  -30.8286  -20.8701 N   0  0  0  0  0  0  0  0  0  0  0  0
  -26.9715  -30.3554  -20.1648 C   0  0  0  0  0  0  0  0  0  0  0  0
  -28.1818  -30.0681  -20.7995 C   0  0  0  0  0  0  0  0  0  0  0  0
  -29.3065  -29.7221  -20.0550 C   0  0  0  0  0  0  0  0  0  0  0  0
  -29.2324  -29.5771  -18.6674 C   0  0  0  0  0  0  0  0  0  0  0  0
  -27.9802  -29.7270  -18.0652 C   0  0  0  0  0  0  0  0  0  0  0  0
  -27.5895  -29.5389  -16.7590 N   0  0  0  0  0  0  0  0  0  0  0  0
  -26.2641  -29.8456  -16.6078 C   0  0  0  0  0  0  0  0  0  0  0  0
  -25.7844  -30.2428  -17.8337 C   0  0  0  0  0  0  0  0  0  0  0  0
  -26.8553  -30.1513  -18.7722 C   0  0  0  0  0  0  0  0  0  0  0  0
  -21.9837  -32.2584  -22.9952 C   0  0  1  0  0  0  0  0  0  0  0  0
  -22.0148  -33.1045  -21.8215 O   0  0  0  0  0  0  0  0  0  0  0  0
  -21.0180  -32.7852  -24.0474 C   0  0  0  0  0  0  0  0  0  0  0  0
  -21.4745  -33.9225  -24.6138 F   0  0  0  0  0  0  0  0  0  0  0  0
  -19.8586  -33.1200  -23.4145 F   0  0  0  0  0  0  0  0  0  0  0  0
  2  1  1  1
  2  3  1  0
  3  4  1  0
  4  5  2  0
  4  6  1  0
  6  7  1  0
  7  8  2  0
  8  9  1  0
  9 10  2  0
 10 11  1  0
 11 12  1  0
 12 13  1  0
 13 14  2  0
 14 15  1  0
  2 16  1  0
 16 17  1  1
 16 18  1  0
 18 19  1  0
 18 20  1  0
 15  7  1  0
 15 11  2  0
M  END
>  <id>  (198) 
285895

>  <inchikey>  (198) 
PGVYGILCFWWCGJ-RDDDGLTNSA-N

>  <alias>  (198) 
None

>  <smiles>  (198) 
C[C@@H](NC(=O)Nc1cccc2[nH]ccc12)[C@@H](O)C(F)F

>  <path>  (198) 
/opt/xchem-fragalysis-2/maxwin/RdRp_FFF/syndirella/mar_elabs/elabs_049/PGVYGILCFWWCGJ-UHFFFAOYSA-N/output/PGVYGILCFWWCGJ-UHFFFAOYSA-N-2hv2gf-scaffold-D/PGVYGILCFWWCGJ-UHFFFAOYSA-N-2hv2gf-scaffold-D.minimised.mol

>  <distance_score>  (198) 
0.750479

>  <energy_score>  (198) 
-1.067182

>  <compound>  (198) 
PGVYGILCFWWCGJ-UHFFFAOYSA-N

>  <compound_id>  (198) 
43135

>  <target>  (198) 
Flavi_NS5_RdRp

>  <tags>  (198) 
['best elaborated iter1 scaffold poses']

>  <inspirations>  (198) 
{P Ã— 2}

>  <subsites>  (198) 
[[1m[4m"Green Site/RNA tunnel"[22m[24m]

>  <reference>  (198) 
z0041a

>  <SLURM_JOB_ID>  (198) 
nan

>  <SLURM_JOB_NAME>  (198) 
nan

>  <csv_name>  (198) 
nan

>  <scratch_subdir>  (198) 
nan

>  <fragmenstein_runtime>  (198) 
nan

>  <fragmenstein_outcome>  (198) 
nan

>  <fragmenstein_mode>  (198) 
nan

>  <fragmenstein_error>  (198) 
nan

>  <exports>  (198) 
/opt/xchem-fragalysis-2/maxwin/RdRp_FFF/hippo/iter1_elaborated_scaffold_poses.sdf

>  <Multi-SuCOS>  (198) 
nan

>  <merge_set>  (198) 
nan

$$$$
NENSXGSLEZPVNE-PRHODGIISA-N
     RDKit          3D

 21 22  0  0  0  0  0  0  0  0999 V2000
  -25.9736  -30.0051  -15.2005 C   0  0  0  0  0  0  0  0  0  0  0  0
  -26.4896  -29.9365  -16.5847 C   0  0  0  0  0  0  0  0  0  0  0  0
  -25.8890  -30.3349  -17.7541 C   0  0  0  0  0  0  0  0  0  0  0  0
  -26.8372  -30.2071  -18.7983 C   0  0  0  0  0  0  0  0  0  0  0  0
  -26.7997  -30.5069  -20.1670 C   0  0  0  0  0  0  0  0  0  0  0  0
  -25.7019  -31.1990  -20.6579 N   0  0  0  0  0  0  0  0  0  0  0  0
  -25.2855  -31.5162  -22.1167 C   0  0  0  0  0  0  0  0  0  0  0  0
  -25.7492  -31.1859  -23.1023 O   0  0  0  0  0  0  0  0  0  0  0  0
  -24.1186  -32.4941  -21.8386 N   0  0  0  0  0  0  0  0  0  0  0  0
  -23.2329  -33.1846  -22.7561 C   0  0  2  0  0  0  0  0  0  0  0  0
  -22.7164  -34.4543  -22.0856 C   0  0  0  0  0  0  0  0  0  0  0  0
  -22.1302  -32.2101  -23.1954 C   0  0  1  0  0  0  0  0  0  0  0  0
  -21.4714  -31.6881  -22.0179 O   0  0  0  0  0  0  0  0  0  0  0  0
  -21.1130  -32.8578  -24.1207 C   0  0  0  0  0  0  0  0  0  0  0  0
  -20.3654  -31.8841  -24.6978 F   0  0  0  0  0  0  0  0  0  0  0  0
  -21.7312  -33.5343  -25.1179 F   0  0  0  0  0  0  0  0  0  0  0  0
  -27.9035  -30.1799  -20.9412 C   0  0  0  0  0  0  0  0  0  0  0  0
  -29.0814  -29.7216  -20.3462 C   0  0  0  0  0  0  0  0  0  0  0  0
  -29.1740  -29.5268  -18.9709 C   0  0  0  0  0  0  0  0  0  0  0  0
  -28.0089  -29.7078  -18.2346 C   0  0  0  0  0  0  0  0  0  0  0  0
  -27.7562  -29.5049  -16.8942 N   0  0  0  0  0  0  0  0  0  0  0  0
  1  2  1  0
  2  3  2  0
  3  4  1  0
  4  5  2  0
  5  6  1  0
  6  7  1  0
  7  8  2  0
  7  9  1  0
  9 10  1  0
 10 11  1  1
 10 12  1  0
 12 13  1  1
 12 14  1  0
 14 15  1  0
 14 16  1  0
  5 17  1  0
 17 18  2  0
 18 19  1  0
 19 20  2  0
 20 21  1  0
 21  2  1  0
 20  4  1  0
M  END
>  <id>  (199) 
285901

>  <inchikey>  (199) 
NENSXGSLEZPVNE-PRHODGIISA-N

>  <alias>  (199) 
None

>  <smiles>  (199) 
Cc1cc2c(NC(=O)N[C@H](C)[C@@H](O)C(F)F)cccc2[nH]1

>  <path>  (199) 
/opt/xchem-fragalysis-2/maxwin/RdRp_FFF/syndirella/mar_elabs/elabs_049/PGVYGILCFWWCGJ-UHFFFAOYSA-N/output/PGVYGILCFWWCGJ-UHFFFAOYSA-N-2hv2gf-2-C/PGVYGILCFWWCGJ-UHFFFAOYSA-N-2hv2gf-2-C.minimised.mol

>  <distance_score>  (199) 
1.7017

>  <energy_score>  (199) 
-2.386846

>  <compound>  (199) 
NENSXGSLEZPVNE-UHFFFAOYSA-N

>  <compound_id>  (199) 
122979

>  <target>  (199) 
Flavi_NS5_RdRp

>  <tags>  (199) 
[]

>  <inspirations>  (199) 
{P Ã— 2}

>  <subsites>  (199) 
None

>  <reference>  (199) 
z0041a

>  <SLURM_JOB_ID>  (199) 
nan

>  <SLURM_JOB_NAME>  (199) 
nan

>  <csv_name>  (199) 
nan

>  <scratch_subdir>  (199) 
nan

>  <fragmenstein_runtime>  (199) 
nan

>  <fragmenstein_outcome>  (199) 
nan

>  <fragmenstein_mode>  (199) 
nan

>  <fragmenstein_error>  (199) 
nan

>  <exports>  (199) 
nan

>  <Multi-SuCOS>  (199) 
nan

>  <merge_set>  (199) 
nan

$$$$
PPCWVBGVPJMNDR-TVQRCGJNSA-N
     RDKit          3D

 22 23  0  0  0  0  0  0  0  0999 V2000
  -20.5366  -31.7658  -21.2051 C   0  0  0  0  0  0  0  0  0  0  0  0
  -21.8670  -32.1243  -21.5406 O   0  0  0  0  0  0  0  0  0  0  0  0
  -22.1278  -32.2164  -22.9697 C   0  0  1  0  0  0  0  0  0  0  0  0
  -21.3179  -33.3078  -23.6549 C   0  0  0  0  0  0  0  0  0  0  0  0
  -19.9881  -33.0731  -23.5285 F   0  0  0  0  0  0  0  0  0  0  0  0
  -21.5793  -34.4853  -23.0318 F   0  0  0  0  0  0  0  0  0  0  0  0
  -23.6272  -32.5517  -23.1270 C   0  0  2  0  0  0  0  0  0  0  0  0
  -24.1560  -32.3167  -24.5355 C   0  0  0  0  0  0  0  0  0  0  0  0
  -24.3972  -31.8619  -22.1148 N   0  0  0  0  0  0  0  0  0  0  0  0
  -25.6669  -30.9910  -22.2435 C   0  0  0  0  0  0  0  0  0  0  0  0
  -26.2281  -30.6416  -23.1695 O   0  0  0  0  0  0  0  0  0  0  0  0
  -26.0087  -30.8194  -20.7407 N   0  0  0  0  0  0  0  0  0  0  0  0
  -27.1287  -30.2782  -20.1320 C   0  0  0  0  0  0  0  0  0  0  0  0
  -28.2915  -30.0309  -20.8655 C   0  0  0  0  0  0  0  0  0  0  0  0
  -29.4864  -29.7441  -20.2192 C   0  0  0  0  0  0  0  0  0  0  0  0
  -29.5319  -29.6383  -18.8306 C   0  0  0  0  0  0  0  0  0  0  0  0
  -28.3251  -29.7189  -18.1234 C   0  0  0  0  0  0  0  0  0  0  0  0
  -27.1214  -30.0508  -18.7424 C   0  0  0  0  0  0  0  0  0  0  0  0
  -26.1230  -30.0808  -17.7259 C   0  0  0  0  0  0  0  0  0  0  0  0
  -26.7197  -29.7399  -16.5348 C   0  0  0  0  0  0  0  0  0  0  0  0
  -28.0508  -29.5652  -16.7842 N   0  0  0  0  0  0  0  0  0  0  0  0
  -29.0481  -29.2930  -15.7864 C   0  0  0  0  0  0  0  0  0  0  0  0
  1  2  1  0
  3  2  1  1
  3  4  1  0
  4  5  1  0
  4  6  1  0
  3  7  1  0
  7  8  1  6
  7  9  1  0
  9 10  1  0
 10 11  2  0
 10 12  1  0
 12 13  1  0
 13 14  2  0
 14 15  1  0
 15 16  2  0
 16 17  1  0
 17 18  2  0
 18 19  1  0
 19 20  2  0
 20 21  1  0
 21 22  1  0
 18 13  1  0
 21 17  1  0
M  END
>  <id>  (200) 
287216

>  <inchikey>  (200) 
PPCWVBGVPJMNDR-TVQRCGJNSA-N

>  <alias>  (200) 
None

>  <smiles>  (200) 
CO[C@@H](C(F)F)[C@H](C)NC(=O)Nc1cccc2c1ccn2C

>  <path>  (200) 
/opt/xchem-fragalysis-2/maxwin/RdRp_FFF/syndirella/mar_elabs/elabs_049/PGVYGILCFWWCGJ-UHFFFAOYSA-N/output/PGVYGILCFWWCGJ-UHFFFAOYSA-N-2hv2gf-721-B/PGVYGILCFWWCGJ-UHFFFAOYSA-N-2hv2gf-721-B.minimised.mol

>  <distance_score>  (200) 
0.663917

>  <energy_score>  (200) 
-18.973989

>  <compound>  (200) 
PPCWVBGVPJMNDR-UHFFFAOYSA-N

>  <compound_id>  (200) 
123496

>  <target>  (200) 
Flavi_NS5_RdRp

>  <tags>  (200) 
[]

>  <inspirations>  (200) 
{P Ã— 2}

>  <subsites>  (200) 
None

>  <reference>  (200) 
z0041a

>  <SLURM_JOB_ID>  (200) 
nan

>  <SLURM_JOB_NAME>  (200) 
nan

>  <csv_name>  (200) 
nan

>  <scratch_subdir>  (200) 
nan

>  <fragmenstein_runtime>  (200) 
nan

>  <fragmenstein_outcome>  (200) 
nan

>  <fragmenstein_mode>  (200) 
nan

>  <fragmenstein_error>  (200) 
nan

>  <exports>  (200) 
nan

>  <Multi-SuCOS>  (200) 
nan

>  <merge_set>  (200) 
nan

$$$$
VTBNUJHBQCXSJS-PELKAZGASA-N
     RDKit          3D

 21 22  0  0  0  0  0  0  0  0999 V2000
  -24.0919  -32.9575  -24.4035 C   0  0  0  0  0  0  0  0  0  0  0  0
  -23.3803  -31.9635  -23.4904 C   0  0  1  0  0  0  0  0  0  0  0  0
  -24.2617  -31.5175  -22.4295 N   0  0  0  0  0  0  0  0  0  0  0  0
  -25.6136  -30.7636  -22.4983 C   0  0  0  0  0  0  0  0  0  0  0  0
  -26.1718  -30.3310  -23.3945 O   0  0  0  0  0  0  0  0  0  0  0  0
  -25.9807  -30.7526  -20.9803 N   0  0  0  0  0  0  0  0  0  0  0  0
  -27.1243  -30.2955  -20.3341 C   0  0  0  0  0  0  0  0  0  0  0  0
  -28.2855  -30.0165  -21.0568 C   0  0  0  0  0  0  0  0  0  0  0  0
  -29.4838  -29.7430  -20.4082 C   0  0  0  0  0  0  0  0  0  0  0  0
  -29.5360  -29.6632  -19.0190 C   0  0  0  0  0  0  0  0  0  0  0  0
  -28.3316  -29.7604  -18.3113 C   0  0  0  0  0  0  0  0  0  0  0  0
  -27.1287  -30.1027  -18.9337 C   0  0  0  0  0  0  0  0  0  0  0  0
  -26.1352  -30.1389  -17.9109 C   0  0  0  0  0  0  0  0  0  0  0  0
  -26.7292  -29.7781  -16.7225 C   0  0  0  0  0  0  0  0  0  0  0  0
  -28.0600  -29.5894  -16.9723 N   0  0  0  0  0  0  0  0  0  0  0  0
  -29.0537  -29.2899  -15.9742 C   0  0  0  0  0  0  0  0  0  0  0  0
  -22.0889  -32.5374  -22.8832 C   0  0  2  0  0  0  0  0  0  0  0  0
  -21.6904  -31.7003  -21.7722 O   0  0  0  0  0  0  0  0  0  0  0  0
  -20.9651  -32.6491  -23.9094 C   0  0  0  0  0  0  0  0  0  0  0  0
  -20.5548  -31.4065  -24.2705 F   0  0  0  0  0  0  0  0  0  0  0  0
  -19.8919  -33.2543  -23.3385 F   0  0  0  0  0  0  0  0  0  0  0  0
  2  1  1  1
  2  3  1  0
  3  4  1  0
  4  5  2  0
  4  6  1  0
  6  7  1  0
  7  8  2  0
  8  9  1  0
  9 10  2  0
 10 11  1  0
 11 12  2  0
 12 13  1  0
 13 14  2  0
 14 15  1  0
 15 16  1  0
  2 17  1  0
 17 18  1  1
 17 19  1  0
 19 20  1  0
 19 21  1  0
 12  7  1  0
 15 11  1  0
M  END
>  <id>  (201) 
289148

>  <inchikey>  (201) 
VTBNUJHBQCXSJS-PELKAZGASA-N

>  <alias>  (201) 
None

>  <smiles>  (201) 
C[C@@H](NC(=O)Nc1cccc2c1ccn2C)[C@H](O)C(F)F

>  <path>  (201) 
/opt/xchem-fragalysis-2/maxwin/RdRp_FFF/syndirella/mar_elabs/elabs_049/PGVYGILCFWWCGJ-UHFFFAOYSA-N/output/PGVYGILCFWWCGJ-UHFFFAOYSA-N-2snfEk-57-B/PGVYGILCFWWCGJ-UHFFFAOYSA-N-2snfEk-57-B.minimised.mol

>  <distance_score>  (201) 
0.779774

>  <energy_score>  (201) 
-12.467776

>  <compound>  (201) 
VTBNUJHBQCXSJS-UHFFFAOYSA-N

>  <compound_id>  (201) 
123016

>  <target>  (201) 
Flavi_NS5_RdRp

>  <tags>  (201) 
[]

>  <inspirations>  (201) 
{P Ã— 2}

>  <subsites>  (201) 
None

>  <reference>  (201) 
z0041a

>  <SLURM_JOB_ID>  (201) 
nan

>  <SLURM_JOB_NAME>  (201) 
nan

>  <csv_name>  (201) 
nan

>  <scratch_subdir>  (201) 
nan

>  <fragmenstein_runtime>  (201) 
nan

>  <fragmenstein_outcome>  (201) 
nan

>  <fragmenstein_mode>  (201) 
nan

>  <fragmenstein_error>  (201) 
nan

>  <exports>  (201) 
nan

>  <Multi-SuCOS>  (201) 
nan

>  <merge_set>  (201) 
nan

$$$$
XADSAXOGMRTQJW-QPUJVOFHSA-N
     RDKit          3D

 21 22  0  0  0  0  0  0  0  0999 V2000
  -21.6972  -33.7385  -21.0585 C   0  0  0  0  0  0  0  0  0  0  0  0
  -21.7789  -32.4030  -21.5382 O   0  0  0  0  0  0  0  0  0  0  0  0
  -22.1433  -32.2611  -22.9382 C   0  0  1  0  0  0  0  0  0  0  0  0
  -21.3523  -33.1316  -23.9069 C   0  0  0  0  0  0  0  0  0  0  0  0
  -21.8481  -34.3955  -23.8445 F   0  0  0  0  0  0  0  0  0  0  0  0
  -20.0481  -33.1959  -23.5473 F   0  0  0  0  0  0  0  0  0  0  0  0
  -23.6633  -32.4786  -23.1143 C   0  0  2  0  0  0  0  0  0  0  0  0
  -24.1774  -32.1030  -24.4970 C   0  0  0  0  0  0  0  0  0  0  0  0
  -24.3816  -31.7973  -22.0545 N   0  0  0  0  0  0  0  0  0  0  0  0
  -25.7159  -31.0144  -22.0907 C   0  0  0  0  0  0  0  0  0  0  0  0
  -26.3833  -30.7400  -22.9698 O   0  0  0  0  0  0  0  0  0  0  0  0
  -25.9265  -30.8036  -20.5699 N   0  0  0  0  0  0  0  0  0  0  0  0
  -27.0199  -30.3102  -19.8750 C   0  0  0  0  0  0  0  0  0  0  0  0
  -28.2498  -30.1037  -20.5091 C   0  0  0  0  0  0  0  0  0  0  0  0
  -29.3789  -29.7648  -19.7706 C   0  0  0  0  0  0  0  0  0  0  0  0
  -29.2978  -29.5699  -18.3903 C   0  0  0  0  0  0  0  0  0  0  0  0
  -28.0379  -29.6667  -17.7915 C   0  0  0  0  0  0  0  0  0  0  0  0
  -27.6553  -29.4790  -16.4836 N   0  0  0  0  0  0  0  0  0  0  0  0
  -26.3209  -29.7432  -16.3326 C   0  0  0  0  0  0  0  0  0  0  0  0
  -25.8231  -30.1042  -17.5616 C   0  0  0  0  0  0  0  0  0  0  0  0
  -26.8987  -30.0551  -18.4955 C   0  0  0  0  0  0  0  0  0  0  0  0
  1  2  1  0
  3  2  1  1
  3  4  1  0
  4  5  1  0
  4  6  1  0
  3  7  1  0
  7  8  1  6
  7  9  1  0
  9 10  1  0
 10 11  2  0
 10 12  1  0
 12 13  1  0
 13 14  2  0
 14 15  1  0
 15 16  2  0
 16 17  1  0
 17 18  1  0
 18 19  1  0
 19 20  2  0
 20 21  1  0
 21 13  1  0
 21 17  2  0
M  END
>  <id>  (202) 
289252

>  <inchikey>  (202) 
XADSAXOGMRTQJW-QPUJVOFHSA-N

>  <alias>  (202) 
None

>  <smiles>  (202) 
CO[C@@H](C(F)F)[C@H](C)NC(=O)Nc1cccc2[nH]ccc12

>  <path>  (202) 
/opt/xchem-fragalysis-2/maxwin/RdRp_FFF/syndirella/mar_elabs/elabs_049/PGVYGILCFWWCGJ-UHFFFAOYSA-N/output/PGVYGILCFWWCGJ-UHFFFAOYSA-N-2snfEk-99-B/PGVYGILCFWWCGJ-UHFFFAOYSA-N-2snfEk-99-B.minimised.mol

>  <distance_score>  (202) 
0.688402

>  <energy_score>  (202) 
-25.721958

>  <compound>  (202) 
XADSAXOGMRTQJW-UHFFFAOYSA-N

>  <compound_id>  (202) 
123048

>  <target>  (202) 
Flavi_NS5_RdRp

>  <tags>  (202) 
[]

>  <inspirations>  (202) 
{P Ã— 2}

>  <subsites>  (202) 
None

>  <reference>  (202) 
z0041a

>  <SLURM_JOB_ID>  (202) 
nan

>  <SLURM_JOB_NAME>  (202) 
nan

>  <csv_name>  (202) 
nan

>  <scratch_subdir>  (202) 
nan

>  <fragmenstein_runtime>  (202) 
nan

>  <fragmenstein_outcome>  (202) 
nan

>  <fragmenstein_mode>  (202) 
nan

>  <fragmenstein_error>  (202) 
nan

>  <exports>  (202) 
nan

>  <Multi-SuCOS>  (202) 
nan

>  <merge_set>  (202) 
nan

$$$$
IVYONDZPKVHWLT-TVQRCGJNSA-N
     RDKit          3D

 22 23  0  0  0  0  0  0  0  0999 V2000
  -20.5415  -31.8231  -21.4079 C   0  0  0  0  0  0  0  0  0  0  0  0
  -21.8825  -32.1797  -21.7032 O   0  0  0  0  0  0  0  0  0  0  0  0
  -22.1952  -32.2185  -23.1270 C   0  0  1  0  0  0  0  0  0  0  0  0
  -21.4199  -33.2922  -23.8771 C   0  0  0  0  0  0  0  0  0  0  0  0
  -21.6833  -34.4891  -23.2935 F   0  0  0  0  0  0  0  0  0  0  0  0
  -20.0837  -33.0824  -23.7790 F   0  0  0  0  0  0  0  0  0  0  0  0
  -23.7069  -32.5281  -23.2461 C   0  0  2  0  0  0  0  0  0  0  0  0
  -24.2809  -32.2384  -24.6235 C   0  0  0  0  0  0  0  0  0  0  0  0
  -24.4142  -31.8520  -22.1828 N   0  0  0  0  0  0  0  0  0  0  0  0
  -25.7002  -30.9966  -22.2220 C   0  0  0  0  0  0  0  0  0  0  0  0
  -26.3267  -30.6515  -23.1060 O   0  0  0  0  0  0  0  0  0  0  0  0
  -25.9401  -30.8348  -20.7039 N   0  0  0  0  0  0  0  0  0  0  0  0
  -27.0212  -30.3100  -20.0185 C   0  0  0  0  0  0  0  0  0  0  0  0
  -28.2428  -30.0383  -20.6337 C   0  0  0  0  0  0  0  0  0  0  0  0
  -29.3469  -29.6842  -19.8628 C   0  0  0  0  0  0  0  0  0  0  0  0
  -29.2407  -29.5301  -18.4753 C   0  0  0  0  0  0  0  0  0  0  0  0
  -27.9781  -29.6894  -17.8971 C   0  0  0  0  0  0  0  0  0  0  0  0
  -27.5599  -29.5612  -16.5910 N   0  0  0  0  0  0  0  0  0  0  0  0
  -26.2518  -29.9637  -16.4661 C   0  0  0  0  0  0  0  0  0  0  0  0
  -25.5777  -30.1018  -15.1569 C   0  0  0  0  0  0  0  0  0  0  0  0
  -25.7869  -30.2489  -17.7277 C   0  0  0  0  0  0  0  0  0  0  0  0
  -26.8727  -30.1022  -18.6344 C   0  0  0  0  0  0  0  0  0  0  0  0
  1  2  1  0
  3  2  1  1
  3  4  1  0
  4  5  1  0
  4  6  1  0
  3  7  1  0
  7  8  1  6
  7  9  1  0
  9 10  1  0
 10 11  2  0
 10 12  1  0
 12 13  1  0
 13 14  2  0
 14 15  1  0
 15 16  2  0
 16 17  1  0
 17 18  1  0
 18 19  1  0
 19 20  1  0
 19 21  2  0
 21 22  1  0
 22 13  1  0
 22 17  2  0
M  END
>  <id>  (203) 
289864

>  <inchikey>  (203) 
IVYONDZPKVHWLT-TVQRCGJNSA-N

>  <alias>  (203) 
None

>  <smiles>  (203) 
CO[C@@H](C(F)F)[C@H](C)NC(=O)Nc1cccc2[nH]c(C)cc12

>  <path>  (203) 
/opt/xchem-fragalysis-2/maxwin/RdRp_FFF/syndirella/mar_elabs/elabs_049/PGVYGILCFWWCGJ-UHFFFAOYSA-N/output/PGVYGILCFWWCGJ-UHFFFAOYSA-N-2snfEk-454-B/PGVYGILCFWWCGJ-UHFFFAOYSA-N-2snfEk-454-B.minimised.mol

>  <distance_score>  (203) 
0.672315

>  <energy_score>  (203) 
-19.998711

>  <compound>  (203) 
IVYONDZPKVHWLT-UHFFFAOYSA-N

>  <compound_id>  (203) 
123232

>  <target>  (203) 
Flavi_NS5_RdRp

>  <tags>  (203) 
[]

>  <inspirations>  (203) 
{P Ã— 2}

>  <subsites>  (203) 
None

>  <reference>  (203) 
z0041a

>  <SLURM_JOB_ID>  (203) 
nan

>  <SLURM_JOB_NAME>  (203) 
nan

>  <csv_name>  (203) 
nan

>  <scratch_subdir>  (203) 
nan

>  <fragmenstein_runtime>  (203) 
nan

>  <fragmenstein_outcome>  (203) 
nan

>  <fragmenstein_mode>  (203) 
nan

>  <fragmenstein_error>  (203) 
nan

>  <exports>  (203) 
nan

>  <Multi-SuCOS>  (203) 
nan

>  <merge_set>  (203) 
nan

$$$$
ICCQIVHPWZCVSC-GFCCVEGCSA-N
     RDKit          3D

 22 23  0  0  0  0  0  0  0  0999 V2000
  -29.0173  -29.2604  -15.8867 C   0  0  0  0  0  0  0  0  0  0  0  0
  -28.0049  -29.5611  -16.8650 N   0  0  0  0  0  0  0  0  0  0  0  0
  -26.6796  -29.7476  -16.5901 C   0  0  0  0  0  0  0  0  0  0  0  0
  -26.0634  -30.1297  -17.7569 C   0  0  0  0  0  0  0  0  0  0  0  0
  -27.0432  -30.1188  -18.7859 C   0  0  0  0  0  0  0  0  0  0  0  0
  -27.0101  -30.3866  -20.1584 C   0  0  0  0  0  0  0  0  0  0  0  0
  -25.8728  -30.9207  -20.7430 N   0  0  0  0  0  0  0  0  0  0  0  0
  -25.5395  -31.1829  -22.2336 C   0  0  0  0  0  0  0  0  0  0  0  0
  -26.1251  -30.9247  -23.1735 O   0  0  0  0  0  0  0  0  0  0  0  0
  -24.2265  -31.9874  -22.0620 N   0  0  0  0  0  0  0  0  0  0  0  0
  -23.4268  -32.7199  -23.0476 C   0  0  0  0  0  0  0  0  0  0  0  0
  -23.6294  -32.0646  -24.4146 C   0  0  0  0  0  0  0  0  0  0  0  0
  -23.9605  -34.1606  -23.1355 C   0  0  0  0  0  0  0  0  0  0  0  0
  -21.9415  -32.7319  -22.5669 C   0  0  2  0  0  0  0  0  0  0  0  0
  -21.6663  -31.5808  -21.7369 O   0  0  0  0  0  0  0  0  0  0  0  0
  -20.8898  -32.8406  -23.6670 C   0  0  0  0  0  0  0  0  0  0  0  0
  -20.8041  -31.6662  -24.3358 F   0  0  0  0  0  0  0  0  0  0  0  0
  -21.2198  -33.7969  -24.5606 F   0  0  0  0  0  0  0  0  0  0  0  0
  -28.1561  -30.1340  -20.9055 C   0  0  0  0  0  0  0  0  0  0  0  0
  -29.3614  -29.7983  -20.2972 C   0  0  0  0  0  0  0  0  0  0  0  0
  -29.4476  -29.6572  -18.9223 C   0  0  0  0  0  0  0  0  0  0  0  0
  -28.2563  -29.7494  -18.2035 C   0  0  0  0  0  0  0  0  0  0  0  0
  1  2  1  0
  2  3  1  0
  3  4  2  0
  4  5  1  0
  5  6  2  0
  6  7  1  0
  7  8  1  0
  8  9  2  0
  8 10  1  0
 10 11  1  0
 11 12  1  0
 11 13  1  0
 11 14  1  0
 14 15  1  6
 14 16  1  0
 16 17  1  0
 16 18  1  0
  6 19  1  0
 19 20  2  0
 20 21  1  0
 21 22  2  0
 22  2  1  0
 22  5  1  0
M  END
>  <id>  (204) 
290307

>  <inchikey>  (204) 
ICCQIVHPWZCVSC-GFCCVEGCSA-N

>  <alias>  (204) 
None

>  <smiles>  (204) 
Cn1ccc2c(NC(=O)NC(C)(C)[C@H](O)C(F)F)cccc21

>  <path>  (204) 
/opt/xchem-fragalysis-2/maxwin/RdRp_FFF/syndirella/mar_elabs/elabs_049/PGVYGILCFWWCGJ-UHFFFAOYSA-N/output/PGVYGILCFWWCGJ-UHFFFAOYSA-N-2snfEk-721-A/PGVYGILCFWWCGJ-UHFFFAOYSA-N-2snfEk-721-A.minimised.mol

>  <distance_score>  (204) 
1.635505

>  <energy_score>  (204) 
-17.343474

>  <compound>  (204) 
ICCQIVHPWZCVSC-UHFFFAOYSA-N

>  <compound_id>  (204) 
123501

>  <target>  (204) 
Flavi_NS5_RdRp

>  <tags>  (204) 
[]

>  <inspirations>  (204) 
{P Ã— 2}

>  <subsites>  (204) 
None

>  <reference>  (204) 
z0041a

>  <SLURM_JOB_ID>  (204) 
nan

>  <SLURM_JOB_NAME>  (204) 
nan

>  <csv_name>  (204) 
nan

>  <scratch_subdir>  (204) 
nan

>  <fragmenstein_runtime>  (204) 
nan

>  <fragmenstein_outcome>  (204) 
nan

>  <fragmenstein_mode>  (204) 
nan

>  <fragmenstein_error>  (204) 
nan

>  <exports>  (204) 
nan

>  <Multi-SuCOS>  (204) 
nan

>  <merge_set>  (204) 
nan

$$$$
LECSLMQRWOGSAB-QPUJVOFHSA-N
     RDKit          3D

 22 23  0  0  0  0  0  0  0  0999 V2000
  -24.2679  -32.5636  -24.5216 C   0  0  0  0  0  0  0  0  0  0  0  0
  -23.6212  -32.6200  -23.1413 C   0  0  2  0  0  0  0  0  0  0  0  0
  -24.3858  -31.9141  -22.1308 N   0  0  0  0  0  0  0  0  0  0  0  0
  -25.6426  -31.0246  -22.2659 C   0  0  0  0  0  0  0  0  0  0  0  0
  -26.1959  -30.6696  -23.1950 O   0  0  0  0  0  0  0  0  0  0  0  0
  -25.9868  -30.8433  -20.7632 N   0  0  0  0  0  0  0  0  0  0  0  0
  -27.1016  -30.2834  -20.1591 C   0  0  0  0  0  0  0  0  0  0  0  0
  -28.2571  -30.0260  -20.9015 C   0  0  0  0  0  0  0  0  0  0  0  0
  -29.4559  -29.7317  -20.2660 C   0  0  0  0  0  0  0  0  0  0  0  0
  -29.5135  -29.6289  -18.8781 C   0  0  0  0  0  0  0  0  0  0  0  0
  -28.3136  -29.7164  -18.1602 C   0  0  0  0  0  0  0  0  0  0  0  0
  -27.1058  -30.0556  -18.7685 C   0  0  0  0  0  0  0  0  0  0  0  0
  -26.1184  -30.0925  -17.7411 C   0  0  0  0  0  0  0  0  0  0  0  0
  -26.7249  -29.7473  -16.5555 C   0  0  0  0  0  0  0  0  0  0  0  0
  -28.0529  -29.5637  -16.8181 N   0  0  0  0  0  0  0  0  0  0  0  0
  -29.0605  -29.2898  -15.8301 C   0  0  0  0  0  0  0  0  0  0  0  0
  -22.1571  -32.1492  -23.1467 C   0  0  1  0  0  0  0  0  0  0  0  0
  -21.7789  -31.7207  -21.8123 O   0  0  0  0  0  0  0  0  0  0  0  0
  -21.2707  -33.2936  -23.6158 C   0  0  0  0  0  0  0  0  0  0  0  0
  -21.4902  -34.3907  -22.8526 F   0  0  0  0  0  0  0  0  0  0  0  0
  -19.9619  -32.9807  -23.5172 F   0  0  0  0  0  0  0  0  0  0  0  0
  -21.5110  -33.6342  -24.8989 F   0  0  0  0  0  0  0  0  0  0  0  0
  2  1  1  6
  2  3  1  0
  3  4  1  0
  4  5  2  0
  4  6  1  0
  6  7  1  0
  7  8  2  0
  8  9  1  0
  9 10  2  0
 10 11  1  0
 11 12  2  0
 12 13  1  0
 13 14  2  0
 14 15  1  0
 15 16  1  0
  2 17  1  0
 17 18  1  1
 17 19  1  0
 19 20  1  0
 19 21  1  0
 19 22  1  0
 12  7  1  0
 15 11  1  0
M  END
>  <id>  (205) 
290309

>  <inchikey>  (205) 
LECSLMQRWOGSAB-QPUJVOFHSA-N

>  <alias>  (205) 
None

>  <smiles>  (205) 
C[C@H](NC(=O)Nc1cccc2c1ccn2C)[C@@H](O)C(F)(F)F

>  <path>  (205) 
/opt/xchem-fragalysis-2/maxwin/RdRp_FFF/syndirella/mar_elabs/elabs_049/PGVYGILCFWWCGJ-UHFFFAOYSA-N/output/PGVYGILCFWWCGJ-UHFFFAOYSA-N-2snfEk-742-C/PGVYGILCFWWCGJ-UHFFFAOYSA-N-2snfEk-742-C.minimised.mol

>  <distance_score>  (205) 
0.671088

>  <energy_score>  (205) 
-17.455037

>  <compound>  (205) 
LECSLMQRWOGSAB-UHFFFAOYSA-N

>  <compound_id>  (205) 
123500

>  <target>  (205) 
Flavi_NS5_RdRp

>  <tags>  (205) 
[]

>  <inspirations>  (205) 
{P Ã— 2}

>  <subsites>  (205) 
None

>  <reference>  (205) 
z0041a

>  <SLURM_JOB_ID>  (205) 
nan

>  <SLURM_JOB_NAME>  (205) 
nan

>  <csv_name>  (205) 
nan

>  <scratch_subdir>  (205) 
nan

>  <fragmenstein_runtime>  (205) 
nan

>  <fragmenstein_outcome>  (205) 
nan

>  <fragmenstein_mode>  (205) 
nan

>  <fragmenstein_error>  (205) 
nan

>  <exports>  (205) 
nan

>  <Multi-SuCOS>  (205) 
nan

>  <merge_set>  (205) 
nan

$$$$
NVPYZYKLRAGXBF-CPCISQLKSA-N
     RDKit          3D

 21 22  0  0  0  0  0  0  0  0999 V2000
  -23.7706  -31.7541  -24.1660 C   0  0  0  0  0  0  0  0  0  0  0  0
  -23.5708  -32.4324  -22.8176 C   0  0  2  0  0  0  0  0  0  0  0  0
  -24.3848  -31.7567  -21.8084 N   0  0  0  0  0  0  0  0  0  0  0  0
  -25.7629  -31.0529  -21.9349 C   0  0  0  0  0  0  0  0  0  0  0  0
  -26.4007  -30.8459  -22.8548 O   0  0  0  0  0  0  0  0  0  0  0  0
  -26.0479  -30.7726  -20.4312 N   0  0  0  0  0  0  0  0  0  0  0  0
  -27.1916  -30.2810  -19.8070 C   0  0  0  0  0  0  0  0  0  0  0  0
  -28.3740  -30.1277  -20.5441 C   0  0  0  0  0  0  0  0  0  0  0  0
  -29.5812  -29.8437  -19.9172 C   0  0  0  0  0  0  0  0  0  0  0  0
  -29.6342  -29.6524  -18.5393 C   0  0  0  0  0  0  0  0  0  0  0  0
  -28.4288  -29.6586  -17.8343 C   0  0  0  0  0  0  0  0  0  0  0  0
  -28.1909  -29.4237  -16.5000 N   0  0  0  0  0  0  0  0  0  0  0  0
  -26.8635  -29.6068  -16.2211 C   0  0  0  0  0  0  0  0  0  0  0  0
  -26.2296  -29.9502  -17.3937 C   0  0  0  0  0  0  0  0  0  0  0  0
  -27.2067  -29.9832  -18.4292 C   0  0  0  0  0  0  0  0  0  0  0  0
  -22.1035  -32.5733  -22.3551 C   0  0  2  0  0  0  0  0  0  0  0  0
  -21.7238  -31.4445  -21.5462 O   0  0  0  0  0  0  0  0  0  0  0  0
  -21.1084  -32.8509  -23.4822 C   0  0  0  0  0  0  0  0  0  0  0  0
  -21.5530  -33.8386  -24.2884 F   0  0  0  0  0  0  0  0  0  0  0  0
  -19.9146  -33.2424  -22.9795 F   0  0  0  0  0  0  0  0  0  0  0  0
  -20.8846  -31.7556  -24.2357 F   0  0  0  0  0  0  0  0  0  0  0  0
  2  1  1  6
  2  3  1  0
  3  4  1  0
  4  5  2  0
  4  6  1  0
  6  7  1  0
  7  8  2  0
  8  9  1  0
  9 10  2  0
 10 11  1  0
 11 12  1  0
 12 13  1  0
 13 14  2  0
 14 15  1  0
  2 16  1  0
 16 17  1  6
 16 18  1  0
 18 19  1  0
 18 20  1  0
 18 21  1  0
 15  7  1  0
 15 11  2  0
M  END
>  <id>  (206) 
292179

>  <inchikey>  (206) 
NVPYZYKLRAGXBF-CPCISQLKSA-N

>  <alias>  (206) 
None

>  <smiles>  (206) 
C[C@H](NC(=O)Nc1cccc2[nH]ccc12)[C@H](O)C(F)(F)F

>  <path>  (206) 
/opt/xchem-fragalysis-2/maxwin/RdRp_FFF/syndirella/mar_elabs/elabs_049/PGVYGILCFWWCGJ-UHFFFAOYSA-N/output/PGVYGILCFWWCGJ-UHFFFAOYSA-N-2xcgHC-18-A/PGVYGILCFWWCGJ-UHFFFAOYSA-N-2xcgHC-18-A.minimised.mol

>  <distance_score>  (206) 
0.697342

>  <energy_score>  (206) 
-16.369254

>  <compound>  (206) 
NVPYZYKLRAGXBF-UHFFFAOYSA-N

>  <compound_id>  (206) 
123050

>  <target>  (206) 
Flavi_NS5_RdRp

>  <tags>  (206) 
[]

>  <inspirations>  (206) 
{P Ã— 2}

>  <subsites>  (206) 
None

>  <reference>  (206) 
z0041a

>  <SLURM_JOB_ID>  (206) 
nan

>  <SLURM_JOB_NAME>  (206) 
nan

>  <csv_name>  (206) 
nan

>  <scratch_subdir>  (206) 
nan

>  <fragmenstein_runtime>  (206) 
nan

>  <fragmenstein_outcome>  (206) 
nan

>  <fragmenstein_mode>  (206) 
nan

>  <fragmenstein_error>  (206) 
nan

>  <exports>  (206) 
nan

>  <Multi-SuCOS>  (206) 
nan

>  <merge_set>  (206) 
nan

$$$$
PAQDUDDSFUUSFP-NSHDSACASA-N
     RDKit          3D

 21 22  0  0  0  0  0  0  0  0999 V2000
  -24.1737  -33.9914  -22.9569 C   0  0  0  0  0  0  0  0  0  0  0  0
  -23.7907  -32.5090  -23.1134 C   0  0  0  0  0  0  0  0  0  0  0  0
  -24.2506  -32.0443  -24.4987 C   0  0  0  0  0  0  0  0  0  0  0  0
  -24.4901  -31.8037  -22.0473 N   0  0  0  0  0  0  0  0  0  0  0  0
  -25.8204  -31.0195  -22.0715 C   0  0  0  0  0  0  0  0  0  0  0  0
  -26.5035  -30.7590  -22.9416 O   0  0  0  0  0  0  0  0  0  0  0  0
  -26.0007  -30.7819  -20.5527 N   0  0  0  0  0  0  0  0  0  0  0  0
  -27.0786  -30.2740  -19.8460 C   0  0  0  0  0  0  0  0  0  0  0  0
  -28.3189  -30.0761  -20.4614 C   0  0  0  0  0  0  0  0  0  0  0  0
  -29.4389  -29.7524  -19.7036 C   0  0  0  0  0  0  0  0  0  0  0  0
  -29.3378  -29.5627  -18.3235 C   0  0  0  0  0  0  0  0  0  0  0  0
  -28.0683  -29.6510  -17.7442 C   0  0  0  0  0  0  0  0  0  0  0  0
  -27.6678  -29.4728  -16.4404 N   0  0  0  0  0  0  0  0  0  0  0  0
  -26.3302  -29.7320  -16.3107 C   0  0  0  0  0  0  0  0  0  0  0  0
  -25.8479  -30.0781  -17.5500 C   0  0  0  0  0  0  0  0  0  0  0  0
  -26.9368  -30.0242  -18.4680 C   0  0  0  0  0  0  0  0  0  0  0  0
  -22.2721  -32.2270  -22.9380 C   0  0  1  0  0  0  0  0  0  0  0  0
  -21.9514  -32.1744  -21.5201 O   0  0  0  0  0  0  0  0  0  0  0  0
  -21.3681  -33.2282  -23.6376 C   0  0  0  0  0  0  0  0  0  0  0  0
  -20.0729  -32.8969  -23.3901 F   0  0  0  0  0  0  0  0  0  0  0  0
  -21.5526  -34.4505  -23.0819 F   0  0  0  0  0  0  0  0  0  0  0  0
  1  2  1  0
  2  3  1  0
  2  4  1  0
  4  5  1  0
  5  6  2  0
  5  7  1  0
  7  8  1  0
  8  9  2  0
  9 10  1  0
 10 11  2  0
 11 12  1  0
 12 13  1  0
 13 14  1  0
 14 15  2  0
 15 16  1  0
  2 17  1  0
 17 18  1  1
 17 19  1  0
 19 20  1  0
 19 21  1  0
 16  8  1  0
 16 12  2  0
M  END
>  <id>  (207) 
292184

>  <inchikey>  (207) 
PAQDUDDSFUUSFP-NSHDSACASA-N

>  <alias>  (207) 
None

>  <smiles>  (207) 
CC(C)(NC(=O)Nc1cccc2[nH]ccc12)[C@@H](O)C(F)F

>  <path>  (207) 
/opt/xchem-fragalysis-2/maxwin/RdRp_FFF/syndirella/mar_elabs/elabs_049/PGVYGILCFWWCGJ-UHFFFAOYSA-N/output/PGVYGILCFWWCGJ-UHFFFAOYSA-N-2xcgHC-19-B/PGVYGILCFWWCGJ-UHFFFAOYSA-N-2xcgHC-19-B.minimised.mol

>  <distance_score>  (207) 
0.714924

>  <energy_score>  (207) 
-19.935509

>  <compound>  (207) 
PAQDUDDSFUUSFP-UHFFFAOYSA-N

>  <compound_id>  (207) 
123049

>  <target>  (207) 
Flavi_NS5_RdRp

>  <tags>  (207) 
[]

>  <inspirations>  (207) 
{P Ã— 2}

>  <subsites>  (207) 
None

>  <reference>  (207) 
z0041a

>  <SLURM_JOB_ID>  (207) 
nan

>  <SLURM_JOB_NAME>  (207) 
nan

>  <csv_name>  (207) 
nan

>  <scratch_subdir>  (207) 
nan

>  <fragmenstein_runtime>  (207) 
nan

>  <fragmenstein_outcome>  (207) 
nan

>  <fragmenstein_mode>  (207) 
nan

>  <fragmenstein_error>  (207) 
nan

>  <exports>  (207) 
nan

>  <Multi-SuCOS>  (207) 
nan

>  <merge_set>  (207) 
nan

$$$$
UUZMUFKNHNETIX-QPUJVOFHSA-N
     RDKit          3D

 22 23  0  0  0  0  0  0  0  0999 V2000
  -26.3518  -29.8392  -15.3325 C   0  0  0  0  0  0  0  0  0  0  0  0
  -26.7458  -29.8472  -16.7500 C   0  0  0  0  0  0  0  0  0  0  0  0
  -26.0428  -30.3050  -17.8357 C   0  0  0  0  0  0  0  0  0  0  0  0
  -26.8986  -30.2400  -18.9596 C   0  0  0  0  0  0  0  0  0  0  0  0
  -26.7447  -30.6167  -20.2991 C   0  0  0  0  0  0  0  0  0  0  0  0
  -25.6232  -31.3482  -20.6679 N   0  0  0  0  0  0  0  0  0  0  0  0
  -25.1520  -31.8276  -22.0651 C   0  0  0  0  0  0  0  0  0  0  0  0
  -25.5831  -31.6196  -23.0980 O   0  0  0  0  0  0  0  0  0  0  0  0
  -23.9149  -32.6621  -21.6458 N   0  0  0  0  0  0  0  0  0  0  0  0
  -22.9073  -33.3304  -22.4600 C   0  0  1  0  0  0  0  0  0  0  0  0
  -23.5779  -34.2899  -23.4345 C   0  0  0  0  0  0  0  0  0  0  0  0
  -22.0626  -32.2263  -23.1103 C   0  0  1  0  0  0  0  0  0  0  0  0
  -21.4426  -31.4974  -22.0135 O   0  0  0  0  0  0  0  0  0  0  0  0
  -21.0063  -32.7204  -24.0855 C   0  0  0  0  0  0  0  0  0  0  0  0
  -21.5266  -33.4285  -25.1071 F   0  0  0  0  0  0  0  0  0  0  0  0
  -20.0920  -33.4916  -23.4609 F   0  0  0  0  0  0  0  0  0  0  0  0
  -20.3461  -31.6623  -24.6089 F   0  0  0  0  0  0  0  0  0  0  0  0
  -27.7622  -30.2912  -21.1822 C   0  0  0  0  0  0  0  0  0  0  0  0
  -28.9797  -29.7824  -20.7231 C   0  0  0  0  0  0  0  0  0  0  0  0
  -29.2037  -29.5442  -19.3733 C   0  0  0  0  0  0  0  0  0  0  0  0
  -28.1145  -29.7110  -18.5281 C   0  0  0  0  0  0  0  0  0  0  0  0
  -27.9857  -29.4529  -17.1835 N   0  0  0  0  0  0  0  0  0  0  0  0
  1  2  1  0
  2  3  2  0
  3  4  1  0
  4  5  2  0
  5  6  1  0
  6  7  1  0
  7  8  2  0
  7  9  1  0
  9 10  1  0
 10 11  1  6
 10 12  1  0
 12 13  1  1
 12 14  1  0
 14 15  1  0
 14 16  1  0
 14 17  1  0
  5 18  1  0
 18 19  2  0
 19 20  1  0
 20 21  2  0
 21 22  1  0
 22  2  1  0
 21  4  1  0
M  END
>  <id>  (208) 
292323

>  <inchikey>  (208) 
UUZMUFKNHNETIX-QPUJVOFHSA-N

>  <alias>  (208) 
None

>  <smiles>  (208) 
Cc1cc2c(NC(=O)N[C@@H](C)[C@@H](O)C(F)(F)F)cccc2[nH]1

>  <path>  (208) 
/opt/xchem-fragalysis-2/maxwin/RdRp_FFF/syndirella/mar_elabs/elabs_049/PGVYGILCFWWCGJ-UHFFFAOYSA-N/output/PGVYGILCFWWCGJ-UHFFFAOYSA-N-2xcgHC-96-D/PGVYGILCFWWCGJ-UHFFFAOYSA-N-2xcgHC-96-D.minimised.mol

>  <distance_score>  (208) 
1.531912

>  <energy_score>  (208) 
-16.570766

>  <compound>  (208) 
UUZMUFKNHNETIX-UHFFFAOYSA-N

>  <compound_id>  (208) 
123230

>  <target>  (208) 
Flavi_NS5_RdRp

>  <tags>  (208) 
[]

>  <inspirations>  (208) 
{P Ã— 2}

>  <subsites>  (208) 
None

>  <reference>  (208) 
z0041a

>  <SLURM_JOB_ID>  (208) 
nan

>  <SLURM_JOB_NAME>  (208) 
nan

>  <csv_name>  (208) 
nan

>  <scratch_subdir>  (208) 
nan

>  <fragmenstein_runtime>  (208) 
nan

>  <fragmenstein_outcome>  (208) 
nan

>  <fragmenstein_mode>  (208) 
nan

>  <fragmenstein_error>  (208) 
nan

>  <exports>  (208) 
nan

>  <Multi-SuCOS>  (208) 
nan

>  <merge_set>  (208) 
nan

$$$$
KUQFHKACNMUHOW-GFCCVEGCSA-N
     RDKit          3D

 22 23  0  0  0  0  0  0  0  0999 V2000
  -25.9164  -29.9676  -15.2901 C   0  0  0  0  0  0  0  0  0  0  0  0
  -26.5200  -29.9021  -16.6307 C   0  0  0  0  0  0  0  0  0  0  0  0
  -25.9811  -30.2568  -17.8421 C   0  0  0  0  0  0  0  0  0  0  0  0
  -26.9991  -30.1363  -18.8158 C   0  0  0  0  0  0  0  0  0  0  0  0
  -27.0400  -30.3819  -20.1907 C   0  0  0  0  0  0  0  0  0  0  0  0
  -25.9574  -30.9997  -20.7974 N   0  0  0  0  0  0  0  0  0  0  0  0
  -25.6415  -31.2235  -22.2955 C   0  0  0  0  0  0  0  0  0  0  0  0
  -26.1912  -30.8637  -23.2245 O   0  0  0  0  0  0  0  0  0  0  0  0
  -24.4158  -32.1665  -22.1578 N   0  0  0  0  0  0  0  0  0  0  0  0
  -23.5680  -32.7770  -23.1859 C   0  0  0  0  0  0  0  0  0  0  0  0
  -24.0276  -34.2341  -23.3728 C   0  0  0  0  0  0  0  0  0  0  0  0
  -23.7803  -32.0438  -24.5097 C   0  0  0  0  0  0  0  0  0  0  0  0
  -22.0857  -32.7421  -22.6969 C   0  0  2  0  0  0  0  0  0  0  0  0
  -21.8640  -31.5867  -21.8568 O   0  0  0  0  0  0  0  0  0  0  0  0
  -21.0384  -32.8139  -23.8085 C   0  0  0  0  0  0  0  0  0  0  0  0
  -19.8389  -33.1443  -23.2585 F   0  0  0  0  0  0  0  0  0  0  0  0
  -21.3348  -33.7923  -24.6926 F   0  0  0  0  0  0  0  0  0  0  0  0
  -28.2042  -30.0650  -20.8780 C   0  0  0  0  0  0  0  0  0  0  0  0
  -29.3617  -29.6931  -20.1942 C   0  0  0  0  0  0  0  0  0  0  0  0
  -29.3716  -29.5558  -18.8110 C   0  0  0  0  0  0  0  0  0  0  0  0
  -28.1511  -29.7021  -18.1641 C   0  0  0  0  0  0  0  0  0  0  0  0
  -27.8182  -29.5149  -16.8416 N   0  0  0  0  0  0  0  0  0  0  0  0
  1  2  1  0
  2  3  2  0
  3  4  1  0
  4  5  2  0
  5  6  1  0
  6  7  1  0
  7  8  2  0
  7  9  1  0
  9 10  1  0
 10 11  1  0
 10 12  1  0
 10 13  1  0
 13 14  1  6
 13 15  1  0
 15 16  1  0
 15 17  1  0
  5 18  1  0
 18 19  2  0
 19 20  1  0
 20 21  2  0
 21 22  1  0
 22  2  1  0
 21  4  1  0
M  END
>  <id>  (209) 
292338

>  <inchikey>  (209) 
KUQFHKACNMUHOW-GFCCVEGCSA-N

>  <alias>  (209) 
None

>  <smiles>  (209) 
Cc1cc2c(NC(=O)NC(C)(C)[C@H](O)C(F)F)cccc2[nH]1

>  <path>  (209) 
/opt/xchem-fragalysis-2/maxwin/RdRp_FFF/syndirella/mar_elabs/elabs_049/PGVYGILCFWWCGJ-UHFFFAOYSA-N/output/PGVYGILCFWWCGJ-UHFFFAOYSA-N-2xcgHC-104-A/PGVYGILCFWWCGJ-UHFFFAOYSA-N-2xcgHC-104-A.minimised.mol

>  <distance_score>  (209) 
1.656788

>  <energy_score>  (209) 
-22.201252

>  <compound>  (209) 
KUQFHKACNMUHOW-UHFFFAOYSA-N

>  <compound_id>  (209) 
123231

>  <target>  (209) 
Flavi_NS5_RdRp

>  <tags>  (209) 
[]

>  <inspirations>  (209) 
{P Ã— 2}

>  <subsites>  (209) 
None

>  <reference>  (209) 
z0041a

>  <SLURM_JOB_ID>  (209) 
nan

>  <SLURM_JOB_NAME>  (209) 
nan

>  <csv_name>  (209) 
nan

>  <scratch_subdir>  (209) 
nan

>  <fragmenstein_runtime>  (209) 
nan

>  <fragmenstein_outcome>  (209) 
nan

>  <fragmenstein_mode>  (209) 
nan

>  <fragmenstein_error>  (209) 
nan

>  <exports>  (209) 
nan

>  <Multi-SuCOS>  (209) 
nan

>  <merge_set>  (209) 
nan

$$$$
VMBXDPJUUCJFOQ-UHFFFAOYSA-N
     RDKit          3D

 25 28  0  0  0  0  0  0  0  0999 V2000
  -27.8065  -33.3975  -21.0973 O   0  0  0  0  0  0  0  0  0  0  0  0
  -26.6996  -33.0330  -21.1509 C   0  0  0  0  0  0  0  0  0  0  0  0
  -26.2918  -31.5502  -20.9934 C   0  0  0  0  0  0  0  0  0  0  0  0
  -27.2657  -30.8035  -20.1414 C   0  0  0  0  0  0  0  0  0  0  0  0
  -28.2785  -30.1220  -20.6988 N   0  0  0  0  0  0  0  0  0  0  0  0
  -29.0561  -29.6729  -19.6410 O   0  0  0  0  0  0  0  0  0  0  0  0
  -28.4767  -30.0336  -18.4625 C   0  0  0  0  0  0  0  0  0  0  0  0
  -28.9667  -29.7803  -17.1817 C   0  0  0  0  0  0  0  0  0  0  0  0
  -28.2040  -30.2634  -16.1124 C   0  0  0  0  0  0  0  0  0  0  0  0
  -27.0228  -30.9616  -16.3459 C   0  0  0  0  0  0  0  0  0  0  0  0
  -26.3381  -31.4636  -15.2758 O   0  0  0  0  0  0  0  0  0  0  0  0
  -26.5362  -31.1875  -17.6374 C   0  0  0  0  0  0  0  0  0  0  0  0
  -27.3042  -30.7225  -18.7219 C   0  0  0  0  0  0  0  0  0  0  0  0
  -25.3900  -33.8302  -21.3828 N   0  0  0  0  0  0  0  0  0  0  0  0
  -25.1649  -35.2618  -21.5020 C   0  0  0  0  0  0  0  0  0  0  0  0
  -24.0069  -35.6577  -22.4150 C   0  0  0  0  0  0  0  0  0  0  0  0
  -22.8131  -34.8544  -22.0637 C   0  0  0  0  0  0  0  0  0  0  0  0
  -22.3602  -33.6372  -22.5273 C   0  0  0  0  0  0  0  0  0  0  0  0
  -21.3049  -33.2531  -21.6691 C   0  0  0  0  0  0  0  0  0  0  0  0
  -20.4793  -32.1252  -21.5498 C   0  0  0  0  0  0  0  0  0  0  0  0
  -19.5032  -32.1206  -20.5459 C   0  0  0  0  0  0  0  0  0  0  0  0
  -19.3420  -33.2106  -19.6862 C   0  0  0  0  0  0  0  0  0  0  0  0
  -20.1719  -34.3318  -19.7748 C   0  0  0  0  0  0  0  0  0  0  0  0
  -21.1445  -34.3009  -20.7693 C   0  0  0  0  0  0  0  0  0  0  0  0
  -22.0644  -35.2779  -21.0083 O   0  0  0  0  0  0  0  0  0  0  0  0
  1  2  2  0
  2  3  1  0
  3  4  1  0
  4  5  2  0
  5  6  1  0
  6  7  1  0
  7  8  2  0
  8  9  1  0
  9 10  2  0
 10 11  1  0
 10 12  1  0
 12 13  2  0
  2 14  1  0
 14 15  1  0
 15 16  1  0
 16 17  1  0
 17 18  2  0
 18 19  1  0
 19 20  2  0
 20 21  1  0
 21 22  2  0
 22 23  1  0
 23 24  2  0
 24 25  1  0
 13  4  1  0
 25 17  1  0
 13  7  1  0
 24 19  1  0
M  END
>  <id>  (210) 
293401

>  <inchikey>  (210) 
VMBXDPJUUCJFOQ-UHFFFAOYSA-N

>  <alias>  (210) 
None

>  <smiles>  (210) 
O=C(Cc1noc2ccc(O)cc12)NCCc1cc2ccccc2o1

>  <path>  (210) 
/opt/xchem-fragalysis-2/maxwin/RdRp_FFF/syndirella/mar_elabs/elabs_033/LQQWCINYCCMFRV-UHFFFAOYSA-N/output/LQQWCINYCCMFRV-UHFFFAOYSA-N-ADGVPq-56-A/LQQWCINYCCMFRV-UHFFFAOYSA-N-ADGVPq-56-A.minimised.mol

>  <distance_score>  (210) 
0.942342

>  <energy_score>  (210) 
-9.800723

>  <compound>  (210) 
VMBXDPJUUCJFOQ-UHFFFAOYSA-N

>  <compound_id>  (210) 
99923

>  <target>  (210) 
Flavi_NS5_RdRp

>  <tags>  (210) 
[]

>  <inspirations>  (210) 
{P Ã— 2}

>  <subsites>  (210) 
None

>  <reference>  (210) 
z0111a

>  <SLURM_JOB_ID>  (210) 
nan

>  <SLURM_JOB_NAME>  (210) 
nan

>  <csv_name>  (210) 
nan

>  <scratch_subdir>  (210) 
nan

>  <fragmenstein_runtime>  (210) 
nan

>  <fragmenstein_outcome>  (210) 
nan

>  <fragmenstein_mode>  (210) 
nan

>  <fragmenstein_error>  (210) 
nan

>  <exports>  (210) 
nan

>  <Multi-SuCOS>  (210) 
nan

>  <merge_set>  (210) 
nan

$$$$
YJGRYDMFSGLSSW-UHFFFAOYSA-N
     RDKit          3D

 25 28  0  0  0  0  0  0  0  0999 V2000
  -24.9175  -32.6267  -19.5197 O   0  0  0  0  0  0  0  0  0  0  0  0
  -25.4375  -32.5277  -20.5628 C   0  0  0  0  0  0  0  0  0  0  0  0
  -25.9865  -31.1704  -21.0386 C   0  0  0  0  0  0  0  0  0  0  0  0
  -27.1384  -30.7117  -20.1976 C   0  0  0  0  0  0  0  0  0  0  0  0
  -28.3252  -30.4554  -20.7729 N   0  0  0  0  0  0  0  0  0  0  0  0
  -29.1948  -30.1406  -19.7376 O   0  0  0  0  0  0  0  0  0  0  0  0
  -28.5248  -30.1792  -18.5541 C   0  0  0  0  0  0  0  0  0  0  0  0
  -29.0472  -29.9777  -17.2807 C   0  0  0  0  0  0  0  0  0  0  0  0
  -30.3454  -29.7333  -17.0707 F   0  0  0  0  0  0  0  0  0  0  0  0
  -28.1727  -30.0730  -16.1990 C   0  0  0  0  0  0  0  0  0  0  0  0
  -26.8201  -30.3502  -16.4033 C   0  0  0  0  0  0  0  0  0  0  0  0
  -26.3143  -30.5540  -17.6961 C   0  0  0  0  0  0  0  0  0  0  0  0
  -27.1950  -30.4871  -18.7927 C   0  0  0  0  0  0  0  0  0  0  0  0
  -25.6761  -33.5909  -21.6759 N   0  0  0  0  0  0  0  0  0  0  0  0
  -25.4059  -35.0193  -21.6897 C   0  0  0  0  0  0  0  0  0  0  0  0
  -24.1904  -35.4588  -22.5087 C   0  0  0  0  0  0  0  0  0  0  0  0
  -22.9871  -34.6999  -22.0946 C   0  0  0  0  0  0  0  0  0  0  0  0
  -22.5172  -33.4590  -22.4672 C   0  0  0  0  0  0  0  0  0  0  0  0
  -21.4130  -33.1804  -21.6312 C   0  0  0  0  0  0  0  0  0  0  0  0
  -20.5431  -32.0919  -21.4625 C   0  0  0  0  0  0  0  0  0  0  0  0
  -19.5291  -32.1919  -20.5022 C   0  0  0  0  0  0  0  0  0  0  0  0
  -19.3786  -33.3460  -19.7283 C   0  0  0  0  0  0  0  0  0  0  0  0
  -20.2513  -34.4306  -19.8665 C   0  0  0  0  0  0  0  0  0  0  0  0
  -21.2552  -34.3001  -20.8229 C   0  0  0  0  0  0  0  0  0  0  0  0
  -22.2065  -35.2351  -21.1133 O   0  0  0  0  0  0  0  0  0  0  0  0
  1  2  2  0
  2  3  1  0
  3  4  1  0
  4  5  2  0
  5  6  1  0
  6  7  1  0
  7  8  2  0
  8  9  1  0
  8 10  1  0
 10 11  2  0
 11 12  1  0
 12 13  2  0
  2 14  1  0
 14 15  1  0
 15 16  1  0
 16 17  1  0
 17 18  2  0
 18 19  1  0
 19 20  2  0
 20 21  1  0
 21 22  2  0
 22 23  1  0
 23 24  2  0
 24 25  1  0
 13  4  1  0
 25 17  1  0
 13  7  1  0
 24 19  1  0
M  END
>  <id>  (211) 
293407

>  <inchikey>  (211) 
YJGRYDMFSGLSSW-UHFFFAOYSA-N

>  <alias>  (211) 
None

>  <smiles>  (211) 
O=C(Cc1noc2c(F)cccc12)NCCc1cc2ccccc2o1

>  <path>  (211) 
/opt/xchem-fragalysis-2/maxwin/RdRp_FFF/syndirella/mar_elabs/elabs_033/LQQWCINYCCMFRV-UHFFFAOYSA-N/output/LQQWCINYCCMFRV-UHFFFAOYSA-N-ADGVPq-61-A/LQQWCINYCCMFRV-UHFFFAOYSA-N-ADGVPq-61-A.minimised.mol

>  <distance_score>  (211) 
0.7799

>  <energy_score>  (211) 
-22.536089

>  <compound>  (211) 
YJGRYDMFSGLSSW-UHFFFAOYSA-N

>  <compound_id>  (211) 
99924

>  <target>  (211) 
Flavi_NS5_RdRp

>  <tags>  (211) 
[]

>  <inspirations>  (211) 
{P Ã— 2}

>  <subsites>  (211) 
None

>  <reference>  (211) 
z0111a

>  <SLURM_JOB_ID>  (211) 
nan

>  <SLURM_JOB_NAME>  (211) 
nan

>  <csv_name>  (211) 
nan

>  <scratch_subdir>  (211) 
nan

>  <fragmenstein_runtime>  (211) 
nan

>  <fragmenstein_outcome>  (211) 
nan

>  <fragmenstein_mode>  (211) 
nan

>  <fragmenstein_error>  (211) 
nan

>  <exports>  (211) 
nan

>  <Multi-SuCOS>  (211) 
nan

>  <merge_set>  (211) 
nan

$$$$
UUVAVGBYRDKLKJ-UHFFFAOYSA-N
     RDKit          3D

 26 29  0  0  0  0  0  0  0  0999 V2000
  -25.3191  -30.7315  -15.5261 C   0  0  0  0  0  0  0  0  0  0  0  0
  -26.2921  -30.5643  -16.6581 C   0  0  0  0  0  0  0  0  0  0  0  0
  -27.6541  -30.3738  -16.3834 C   0  0  0  0  0  0  0  0  0  0  0  0
  -28.6048  -30.2082  -17.4072 C   0  0  0  0  0  0  0  0  0  0  0  0
  -30.0501  -30.0591  -17.0835 C   0  0  0  0  0  0  0  0  0  0  0  0
  -28.1038  -30.2503  -18.7108 C   0  0  0  0  0  0  0  0  0  0  0  0
  -28.8206  -30.1228  -19.8638 O   0  0  0  0  0  0  0  0  0  0  0  0
  -27.9737  -30.2423  -20.9545 N   0  0  0  0  0  0  0  0  0  0  0  0
  -26.7532  -30.4799  -20.4514 C   0  0  0  0  0  0  0  0  0  0  0  0
  -25.5738  -30.6899  -21.3449 C   0  0  0  0  0  0  0  0  0  0  0  0
  -25.5787  -32.0323  -22.0878 C   0  0  0  0  0  0  0  0  0  0  0  0
  -25.6530  -32.0819  -23.2516 O   0  0  0  0  0  0  0  0  0  0  0  0
  -25.3731  -33.1636  -21.0441 N   0  0  0  0  0  0  0  0  0  0  0  0
  -25.3120  -34.6047  -21.2152 C   0  0  0  0  0  0  0  0  0  0  0  0
  -24.2676  -35.1500  -22.1984 C   0  0  0  0  0  0  0  0  0  0  0  0
  -22.9507  -34.5435  -21.9128 C   0  0  0  0  0  0  0  0  0  0  0  0
  -22.3735  -33.3824  -22.3767 C   0  0  0  0  0  0  0  0  0  0  0  0
  -21.2339  -33.1602  -21.5752 C   0  0  0  0  0  0  0  0  0  0  0  0
  -20.2844  -32.1339  -21.4638 C   0  0  0  0  0  0  0  0  0  0  0  0
  -19.2667  -32.2704  -20.5124 C   0  0  0  0  0  0  0  0  0  0  0  0
  -19.1848  -33.4042  -19.6993 C   0  0  0  0  0  0  0  0  0  0  0  0
  -20.1343  -34.4277  -19.7831 C   0  0  0  0  0  0  0  0  0  0  0  0
  -21.1460  -34.2554  -20.7233 C   0  0  0  0  0  0  0  0  0  0  0  0
  -22.1862  -35.1110  -20.9383 O   0  0  0  0  0  0  0  0  0  0  0  0
  -26.7733  -30.4505  -19.0298 C   0  0  0  0  0  0  0  0  0  0  0  0
  -25.8389  -30.5888  -17.9884 C   0  0  0  0  0  0  0  0  0  0  0  0
  1  2  1  0
  2  3  2  0
  3  4  1  0
  4  5  1  0
  4  6  2  0
  6  7  1  0
  7  8  1  0
  8  9  2  0
  9 10  1  0
 10 11  1  0
 11 12  2  0
 11 13  1  0
 13 14  1  0
 14 15  1  0
 15 16  1  0
 16 17  2  0
 17 18  1  0
 18 19  2  0
 19 20  1  0
 20 21  2  0
 21 22  1  0
 22 23  2  0
 23 24  1  0
  9 25  1  0
 25 26  2  0
 26  2  1  0
 25  6  1  0
 24 16  1  0
 23 18  1  0
M  END
>  <id>  (212) 
294729

>  <inchikey>  (212) 
UUVAVGBYRDKLKJ-UHFFFAOYSA-N

>  <alias>  (212) 
None

>  <smiles>  (212) 
Cc1cc(C)c2onc(CC(=O)NCCc3cc4ccccc4o3)c2c1

>  <path>  (212) 
/opt/xchem-fragalysis-2/maxwin/RdRp_FFF/syndirella/mar_elabs/elabs_033/LQQWCINYCCMFRV-UHFFFAOYSA-N/output/LQQWCINYCCMFRV-UHFFFAOYSA-N-ADGVPq-1348-A/LQQWCINYCCMFRV-UHFFFAOYSA-N-ADGVPq-1348-A.minimised.mol

>  <distance_score>  (212) 
1.07134

>  <energy_score>  (212) 
-29.441151

>  <compound>  (212) 
UUVAVGBYRDKLKJ-UHFFFAOYSA-N

>  <compound_id>  (212) 
102433

>  <target>  (212) 
Flavi_NS5_RdRp

>  <tags>  (212) 
[]

>  <inspirations>  (212) 
{P Ã— 2}

>  <subsites>  (212) 
None

>  <reference>  (212) 
z0111a

>  <SLURM_JOB_ID>  (212) 
nan

>  <SLURM_JOB_NAME>  (212) 
nan

>  <csv_name>  (212) 
nan

>  <scratch_subdir>  (212) 
nan

>  <fragmenstein_runtime>  (212) 
nan

>  <fragmenstein_outcome>  (212) 
nan

>  <fragmenstein_mode>  (212) 
nan

>  <fragmenstein_error>  (212) 
nan

>  <exports>  (212) 
nan

>  <Multi-SuCOS>  (212) 
nan

>  <merge_set>  (212) 
nan

$$$$
VTSPUGCPXLINDN-UHFFFAOYSA-N
     RDKit          3D

 27 30  0  0  0  0  0  0  0  0999 V2000
  -30.4193  -30.0703  -17.0475 C   0  0  0  0  0  0  0  0  0  0  0  0
  -29.3342  -29.2378  -16.6632 O   0  0  0  0  0  0  0  0  0  0  0  0
  -28.1784  -29.7797  -17.1650 C   0  0  0  0  0  0  0  0  0  0  0  0
  -27.1755  -30.1108  -16.2549 C   0  0  0  0  0  0  0  0  0  0  0  0
  -25.9911  -30.6873  -16.6985 C   0  0  0  0  0  0  0  0  0  0  0  0
  -24.7537  -31.0606  -15.5598 Cl  0  0  0  0  0  0  0  0  0  0  0  0
  -25.7863  -30.9834  -18.0533 C   0  0  0  0  0  0  0  0  0  0  0  0
  -26.7929  -30.6448  -18.9761 C   0  0  0  0  0  0  0  0  0  0  0  0
  -27.0342  -30.8172  -20.3624 C   0  0  0  0  0  0  0  0  0  0  0  0
  -26.2155  -31.5970  -21.3314 C   0  0  0  0  0  0  0  0  0  0  0  0
  -26.6385  -33.0859  -21.3240 C   0  0  0  0  0  0  0  0  0  0  0  0
  -27.7394  -33.4388  -21.1733 O   0  0  0  0  0  0  0  0  0  0  0  0
  -25.3473  -33.9043  -21.5590 N   0  0  0  0  0  0  0  0  0  0  0  0
  -25.1282  -35.3398  -21.5622 C   0  0  0  0  0  0  0  0  0  0  0  0
  -23.9304  -35.7925  -22.3954 C   0  0  0  0  0  0  0  0  0  0  0  0
  -22.7540  -34.9598  -22.0457 C   0  0  0  0  0  0  0  0  0  0  0  0
  -22.2963  -33.7591  -22.5492 C   0  0  0  0  0  0  0  0  0  0  0  0
  -21.2766  -33.3230  -21.6728 C   0  0  0  0  0  0  0  0  0  0  0  0
  -20.4698  -32.1795  -21.5746 C   0  0  0  0  0  0  0  0  0  0  0  0
  -19.5244  -32.1217  -20.5436 C   0  0  0  0  0  0  0  0  0  0  0  0
  -19.3740  -33.1759  -19.6384 C   0  0  0  0  0  0  0  0  0  0  0  0
  -20.1859  -34.3117  -19.7069 C   0  0  0  0  0  0  0  0  0  0  0  0
  -21.1304  -34.3323  -20.7277 C   0  0  0  0  0  0  0  0  0  0  0  0
  -22.0313  -35.3300  -20.9533 O   0  0  0  0  0  0  0  0  0  0  0  0
  -28.1673  -30.2117  -20.7458 N   0  0  0  0  0  0  0  0  0  0  0  0
  -28.7481  -29.7391  -19.5791 O   0  0  0  0  0  0  0  0  0  0  0  0
  -27.9393  -30.0231  -18.5190 C   0  0  0  0  0  0  0  0  0  0  0  0
  1  2  1  0
  2  3  1  0
  3  4  2  0
  4  5  1  0
  5  6  1  0
  5  7  2  0
  7  8  1  0
  8  9  1  0
  9 10  1  0
 10 11  1  0
 11 12  2  0
 11 13  1  0
 13 14  1  0
 14 15  1  0
 15 16  1  0
 16 17  2  0
 17 18  1  0
 18 19  2  0
 19 20  1  0
 20 21  2  0
 21 22  1  0
 22 23  2  0
 23 24  1  0
  9 25  2  0
 25 26  1  0
 26 27  1  0
 27  3  1  0
 27  8  2  0
 24 16  1  0
 23 18  1  0
M  END
>  <id>  (213) 
295303

>  <inchikey>  (213) 
VTSPUGCPXLINDN-UHFFFAOYSA-N

>  <alias>  (213) 
None

>  <smiles>  (213) 
COc1cc(Cl)cc2c(CC(=O)NCCc3cc4ccccc4o3)noc12

>  <path>  (213) 
/opt/xchem-fragalysis-2/maxwin/RdRp_FFF/syndirella/mar_elabs/elabs_033/LQQWCINYCCMFRV-UHFFFAOYSA-N/output/LQQWCINYCCMFRV-UHFFFAOYSA-N-ADGVPq-1790-A/LQQWCINYCCMFRV-UHFFFAOYSA-N-ADGVPq-1790-A.minimised.mol

>  <distance_score>  (213) 
1.016568

>  <energy_score>  (213) 
-21.967439

>  <compound>  (213) 
VTSPUGCPXLINDN-UHFFFAOYSA-N

>  <compound_id>  (213) 
102624

>  <target>  (213) 
Flavi_NS5_RdRp

>  <tags>  (213) 
[]

>  <inspirations>  (213) 
{P Ã— 2}

>  <subsites>  (213) 
None

>  <reference>  (213) 
z0111a

>  <SLURM_JOB_ID>  (213) 
nan

>  <SLURM_JOB_NAME>  (213) 
nan

>  <csv_name>  (213) 
nan

>  <scratch_subdir>  (213) 
nan

>  <fragmenstein_runtime>  (213) 
nan

>  <fragmenstein_outcome>  (213) 
nan

>  <fragmenstein_mode>  (213) 
nan

>  <fragmenstein_error>  (213) 
nan

>  <exports>  (213) 
nan

>  <Multi-SuCOS>  (213) 
nan

>  <merge_set>  (213) 
nan

$$$$
DWYIHWJFIOMOJE-UHFFFAOYSA-N
     RDKit          3D

 19 21  0  0  0  0  0  0  0  0999 V2000
  -24.9911  -31.7754  -24.9432 C   0  0  0  0  0  0  0  0  0  0  0  0
  -25.1258  -30.8010  -23.8552 C   0  0  0  0  0  0  0  0  0  0  0  0
  -24.6998  -31.1310  -22.6716 N   0  0  0  0  0  0  0  0  0  0  0  0
  -25.1445  -30.2221  -21.7587 C   0  0  0  0  0  0  0  0  0  0  0  0
  -25.1064  -30.7150  -20.3721 C   0  0  0  0  0  0  0  0  0  0  0  0
  -26.1578  -31.7283  -20.2313 N   0  0  0  0  0  0  0  0  0  0  0  0
  -27.3734  -31.0568  -20.0009 C   0  0  0  0  0  0  0  0  0  0  0  0
  -28.1967  -30.8355  -21.0400 N   0  0  0  0  0  0  0  0  0  0  0  0
  -29.3983  -30.2725  -20.8117 C   0  0  0  0  0  0  0  0  0  0  0  0
  -29.8448  -29.9447  -19.5649 C   0  0  0  0  0  0  0  0  0  0  0  0
  -28.9545  -30.1202  -18.5178 C   0  0  0  0  0  0  0  0  0  0  0  0
  -29.3468  -29.8495  -17.2391 C   0  0  0  0  0  0  0  0  0  0  0  0
  -28.4504  -30.1176  -16.2214 C   0  0  0  0  0  0  0  0  0  0  0  0
  -29.1171  -30.0259  -14.5406 Br  0  0  0  0  0  0  0  0  0  0  0  0
  -27.1586  -30.5730  -16.3839 C   0  0  0  0  0  0  0  0  0  0  0  0
  -26.7693  -30.8599  -17.6571 C   0  0  0  0  0  0  0  0  0  0  0  0
  -27.6711  -30.6540  -18.7189 C   0  0  0  0  0  0  0  0  0  0  0  0
  -25.8887  -29.1840  -22.2625 C   0  0  0  0  0  0  0  0  0  0  0  0
  -25.8983  -29.2920  -23.9518 S   0  0  0  0  0  0  0  0  0  0  0  0
  1  2  1  0
  2  3  2  0
  3  4  1  0
  4  5  1  0
  5  6  1  0
  6  7  1  0
  7  8  2  0
  8  9  1  0
  9 10  2  0
 10 11  1  0
 11 12  2  0
 12 13  1  0
 13 14  1  0
 13 15  2  0
 15 16  1  0
 16 17  2  0
  4 18  2  0
 18 19  1  0
 19  2  1  0
 17  7  1  0
 17 11  1  0
M  END
>  <id>  (214) 
300814

>  <inchikey>  (214) 
DWYIHWJFIOMOJE-UHFFFAOYSA-N

>  <alias>  (214) 
None

>  <smiles>  (214) 
Cc1nc(CNc2nccc3cc(Br)ccc23)cs1

>  <path>  (214) 
/opt/xchem-fragalysis-2/maxwin/RdRp_FFF/syndirella/mar_elabs/elabs_073/QYRRPPSGQNMPRP-UHFFFAOYSA-N/output/QYRRPPSGQNMPRP-UHFFFAOYSA-N-2Z96hG-58-A/QYRRPPSGQNMPRP-UHFFFAOYSA-N-2Z96hG-58-A.minimised.mol

>  <distance_score>  (214) 
1.776096

>  <energy_score>  (214) 
-29.228221

>  <compound>  (214) 
DWYIHWJFIOMOJE-UHFFFAOYSA-N

>  <compound_id>  (214) 
128880

>  <target>  (214) 
Flavi_NS5_RdRp

>  <tags>  (214) 
[]

>  <inspirations>  (214) 
{P Ã— 2}

>  <subsites>  (214) 
None

>  <reference>  (214) 
z0111a

>  <SLURM_JOB_ID>  (214) 
nan

>  <SLURM_JOB_NAME>  (214) 
nan

>  <csv_name>  (214) 
nan

>  <scratch_subdir>  (214) 
nan

>  <fragmenstein_runtime>  (214) 
nan

>  <fragmenstein_outcome>  (214) 
nan

>  <fragmenstein_mode>  (214) 
nan

>  <fragmenstein_error>  (214) 
nan

>  <exports>  (214) 
nan

>  <Multi-SuCOS>  (214) 
nan

>  <merge_set>  (214) 
nan

$$$$
WFUVDKALUVQYMP-UHFFFAOYSA-N
     RDKit          3D

 20 22  0  0  0  0  0  0  0  0999 V2000
  -24.6303  -32.9050  -24.2937 C   0  0  0  0  0  0  0  0  0  0  0  0
  -24.6838  -31.4000  -24.5502 C   0  0  0  0  0  0  0  0  0  0  0  0
  -25.0768  -30.6367  -23.3543 C   0  0  0  0  0  0  0  0  0  0  0  0
  -24.7972  -31.0603  -22.1529 N   0  0  0  0  0  0  0  0  0  0  0  0
  -25.3920  -30.2491  -21.2260 C   0  0  0  0  0  0  0  0  0  0  0  0
  -25.3100  -30.7356  -19.8326 C   0  0  0  0  0  0  0  0  0  0  0  0
  -26.2842  -31.7994  -19.6109 N   0  0  0  0  0  0  0  0  0  0  0  0
  -27.5444  -31.2329  -19.3507 C   0  0  0  0  0  0  0  0  0  0  0  0
  -28.4155  -31.2052  -20.3850 N   0  0  0  0  0  0  0  0  0  0  0  0
  -29.6222  -30.6451  -20.1613 C   0  0  0  0  0  0  0  0  0  0  0  0
  -30.0195  -30.1494  -18.9378 C   0  0  0  0  0  0  0  0  0  0  0  0
  -29.1189  -30.2009  -17.8714 C   0  0  0  0  0  0  0  0  0  0  0  0
  -29.4725  -29.7616  -16.5951 C   0  0  0  0  0  0  0  0  0  0  0  0
  -28.5628  -29.8198  -15.5409 C   0  0  0  0  0  0  0  0  0  0  0  0
  -27.2880  -30.3310  -15.7415 C   0  0  0  0  0  0  0  0  0  0  0  0
  -26.9308  -30.7965  -16.9948 C   0  0  0  0  0  0  0  0  0  0  0  0
  -27.8366  -30.7333  -18.0728 C   0  0  0  0  0  0  0  0  0  0  0  0
  -26.1792  -29.2598  -21.7522 C   0  0  0  0  0  0  0  0  0  0  0  0
  -27.3942  -28.2121  -20.7151 Br  0  0  0  0  0  0  0  0  0  0  0  0
  -25.9389  -29.1752  -23.4289 S   0  0  0  0  0  0  0  0  0  0  0  0
  1  2  1  0
  2  3  1  0
  3  4  2  0
  4  5  1  0
  5  6  1  0
  6  7  1  0
  7  8  1  0
  8  9  2  0
  9 10  1  0
 10 11  2  0
 11 12  1  0
 12 13  2  0
 13 14  1  0
 14 15  2  0
 15 16  1  0
 16 17  2  0
  5 18  2  0
 18 19  1  0
 18 20  1  0
 20  3  1  0
 17  8  1  0
 17 12  1  0
M  END
>  <id>  (215) 
300924

>  <inchikey>  (215) 
WFUVDKALUVQYMP-UHFFFAOYSA-N

>  <alias>  (215) 
None

>  <smiles>  (215) 
CCc1nc(CNc2nccc3ccccc23)c(Br)s1

>  <path>  (215) 
/opt/xchem-fragalysis-2/maxwin/RdRp_FFF/syndirella/mar_elabs/elabs_073/QYRRPPSGQNMPRP-UHFFFAOYSA-N/output/QYRRPPSGQNMPRP-UHFFFAOYSA-N-2Z96hG-591-A/QYRRPPSGQNMPRP-UHFFFAOYSA-N-2Z96hG-591-A.minimised.mol

>  <distance_score>  (215) 
1.81145

>  <energy_score>  (215) 
-56.431027

>  <compound>  (215) 
WFUVDKALUVQYMP-UHFFFAOYSA-N

>  <compound_id>  (215) 
129128

>  <target>  (215) 
Flavi_NS5_RdRp

>  <tags>  (215) 
[]

>  <inspirations>  (215) 
{P Ã— 2}

>  <subsites>  (215) 
None

>  <reference>  (215) 
z0111a

>  <SLURM_JOB_ID>  (215) 
nan

>  <SLURM_JOB_NAME>  (215) 
nan

>  <csv_name>  (215) 
nan

>  <scratch_subdir>  (215) 
nan

>  <fragmenstein_runtime>  (215) 
nan

>  <fragmenstein_outcome>  (215) 
nan

>  <fragmenstein_mode>  (215) 
nan

>  <fragmenstein_error>  (215) 
nan

>  <exports>  (215) 
nan

>  <Multi-SuCOS>  (215) 
nan

>  <merge_set>  (215) 
nan

$$$$
PLSLIAFTDUWCRM-UHFFFAOYSA-N
     RDKit          3D

 21 23  0  0  0  0  0  0  0  0999 V2000
  -24.7745  -33.0442  -24.3752 C   0  0  0  0  0  0  0  0  0  0  0  0
  -24.7670  -31.5596  -24.7482 C   0  0  0  0  0  0  0  0  0  0  0  0
  -25.0315  -30.6919  -23.5905 C   0  0  0  0  0  0  0  0  0  0  0  0
  -24.5923  -31.0458  -22.4195 N   0  0  0  0  0  0  0  0  0  0  0  0
  -25.1868  -30.2840  -21.4621 C   0  0  0  0  0  0  0  0  0  0  0  0
  -25.0930  -30.8885  -20.1245 C   0  0  0  0  0  0  0  0  0  0  0  0
  -26.0638  -31.9888  -20.0315 N   0  0  0  0  0  0  0  0  0  0  0  0
  -27.3385  -31.4390  -19.8038 C   0  0  0  0  0  0  0  0  0  0  0  0
  -28.2043  -31.3861  -20.8298 N   0  0  0  0  0  0  0  0  0  0  0  0
  -29.3949  -30.7637  -20.6477 C   0  0  0  0  0  0  0  0  0  0  0  0
  -29.8087  -30.2320  -19.4621 C   0  0  0  0  0  0  0  0  0  0  0  0
  -28.9089  -30.3207  -18.4178 C   0  0  0  0  0  0  0  0  0  0  0  0
  -29.2872  -29.8904  -17.1866 C   0  0  0  0  0  0  0  0  0  0  0  0
  -28.4042  -30.1073  -16.1493 C   0  0  0  0  0  0  0  0  0  0  0  0
  -29.1283  -29.9708  -14.5018 Br  0  0  0  0  0  0  0  0  0  0  0  0
  -27.1238  -30.6092  -16.2533 C   0  0  0  0  0  0  0  0  0  0  0  0
  -26.7405  -31.0331  -17.4872 C   0  0  0  0  0  0  0  0  0  0  0  0
  -27.6380  -30.9156  -18.5635 C   0  0  0  0  0  0  0  0  0  0  0  0
  -26.0230  -29.3023  -21.9280 C   0  0  0  0  0  0  0  0  0  0  0  0
  -27.2236  -28.2978  -20.8251 Br  0  0  0  0  0  0  0  0  0  0  0  0
  -25.9305  -29.2485  -23.6207 S   0  0  0  0  0  0  0  0  0  0  0  0
  1  2  1  0
  2  3  1  0
  3  4  2  0
  4  5  1  0
  5  6  1  0
  6  7  1  0
  7  8  1  0
  8  9  2  0
  9 10  1  0
 10 11  2  0
 11 12  1  0
 12 13  2  0
 13 14  1  0
 14 15  1  0
 14 16  2  0
 16 17  1  0
 17 18  2  0
  5 19  2  0
 19 20  1  0
 19 21  1  0
 21  3  1  0
 18  8  1  0
 18 12  1  0
M  END
>  <id>  (216) 
302051

>  <inchikey>  (216) 
PLSLIAFTDUWCRM-UHFFFAOYSA-N

>  <alias>  (216) 
None

>  <smiles>  (216) 
CCc1nc(CNc2nccc3cc(Br)ccc23)c(Br)s1

>  <path>  (216) 
/opt/xchem-fragalysis-2/maxwin/RdRp_FFF/syndirella/mar_elabs/elabs_073/QYRRPPSGQNMPRP-UHFFFAOYSA-N/output/QYRRPPSGQNMPRP-UHFFFAOYSA-N-2Z96hG-5801-A/QYRRPPSGQNMPRP-UHFFFAOYSA-N-2Z96hG-5801-A.minimised.mol

>  <distance_score>  (216) 
1.885235

>  <energy_score>  (216) 
-61.500114

>  <compound>  (216) 
PLSLIAFTDUWCRM-UHFFFAOYSA-N

>  <compound_id>  (216) 
131519

>  <target>  (216) 
Flavi_NS5_RdRp

>  <tags>  (216) 
[]

>  <inspirations>  (216) 
{P Ã— 2}

>  <subsites>  (216) 
None

>  <reference>  (216) 
z0111a

>  <SLURM_JOB_ID>  (216) 
nan

>  <SLURM_JOB_NAME>  (216) 
nan

>  <csv_name>  (216) 
nan

>  <scratch_subdir>  (216) 
nan

>  <fragmenstein_runtime>  (216) 
nan

>  <fragmenstein_outcome>  (216) 
nan

>  <fragmenstein_mode>  (216) 
nan

>  <fragmenstein_error>  (216) 
nan

>  <exports>  (216) 
nan

>  <Multi-SuCOS>  (216) 
nan

>  <merge_set>  (216) 
nan

$$$$
UKWFLRZSMSDWTC-SNVBAGLBSA-N
     RDKit          3D

 20 21  0  0  0  0  0  0  0  0999 V2000
  -21.0794  -32.8903  -23.7625 C   0  0  0  0  0  0  0  0  0  0  0  0
  -22.0974  -32.6335  -22.6666 C   0  0  1  0  0  0  0  0  0  0  0  0
  -21.4746  -31.8828  -21.6254 O   0  0  0  0  0  0  0  0  0  0  0  0
  -23.2937  -31.8679  -23.2216 C   0  0  0  0  0  0  0  0  0  0  0  0
  -24.2471  -31.5134  -22.2077 N   0  0  0  0  0  0  0  0  0  0  0  0
  -25.6455  -30.8625  -22.3310 C   0  0  0  0  0  0  0  0  0  0  0  0
  -26.2522  -30.5931  -23.2554 O   0  0  0  0  0  0  0  0  0  0  0  0
  -26.0205  -30.7786  -20.8244 N   0  0  0  0  0  0  0  0  0  0  0  0
  -27.2226  -30.4410  -20.2140 C   0  0  0  0  0  0  0  0  0  0  0  0
  -28.3510  -30.1430  -20.9666 C   0  0  0  0  0  0  0  0  0  0  0  0
  -29.5646  -29.9076  -20.3296 C   0  0  0  0  0  0  0  0  0  0  0  0
  -29.6221  -29.8707  -18.9385 C   0  0  0  0  0  0  0  0  0  0  0  0
  -28.4652  -30.0286  -18.1729 C   0  0  0  0  0  0  0  0  0  0  0  0
  -27.2868  -30.3923  -18.8208 C   0  0  0  0  0  0  0  0  0  0  0  0
  -26.1701  -30.7928  -18.1434 O   0  0  0  0  0  0  0  0  0  0  0  0
  -25.9745  -30.2177  -16.8528 C   0  0  0  0  0  0  0  0  0  0  0  0
  -25.3847  -28.8496  -17.1235 C   0  0  0  0  0  0  0  0  0  0  0  0
  -24.9033  -31.0755  -16.1603 C   0  0  0  0  0  0  0  0  0  0  0  0
  -27.2339  -30.1826  -15.9717 C   0  0  0  0  0  0  0  0  0  0  0  0
  -28.5100  -29.7804  -16.6989 C   0  0  0  0  0  0  0  0  0  0  0  0
  2  1  1  6
  2  3  1  0
  2  4  1  0
  4  5  1  0
  5  6  1  0
  6  7  2  0
  6  8  1  0
  8  9  1  0
  9 10  2  0
 10 11  1  0
 11 12  2  0
 12 13  1  0
 13 14  2  0
 14 15  1  0
 15 16  1  0
 16 17  1  0
 16 18  1  0
 16 19  1  0
 19 20  1  0
 14  9  1  0
 20 13  1  0
M  END
>  <id>  (217) 
302161

>  <inchikey>  (217) 
UKWFLRZSMSDWTC-SNVBAGLBSA-N

>  <alias>  (217) 
None

>  <smiles>  (217) 
C[C@@H](O)CNC(=O)Nc1cccc2c1OC(C)(C)CC2

>  <path>  (217) 
/opt/xchem-fragalysis-2/maxwin/RdRp_FFF/syndirella/mar_elabs/elabs_064/UKWFLRZSMSDWTC-UHFFFAOYSA-N/output/UKWFLRZSMSDWTC-UHFFFAOYSA-N-dEDbNy-scaffold-B/UKWFLRZSMSDWTC-UHFFFAOYSA-N-dEDbNy-scaffold-B.minimised.mol

>  <distance_score>  (217) 
0.769229

>  <energy_score>  (217) 
-1.687496

>  <compound>  (217) 
UKWFLRZSMSDWTC-UHFFFAOYSA-N

>  <compound_id>  (217) 
53809

>  <target>  (217) 
Flavi_NS5_RdRp

>  <tags>  (217) 
['best elaborated iter1 scaffold poses']

>  <inspirations>  (217) 
{P Ã— 2}

>  <subsites>  (217) 
[[1m[4m"Green Site/RNA tunnel"[22m[24m]

>  <reference>  (217) 
z0211a

>  <SLURM_JOB_ID>  (217) 
nan

>  <SLURM_JOB_NAME>  (217) 
nan

>  <csv_name>  (217) 
nan

>  <scratch_subdir>  (217) 
nan

>  <fragmenstein_runtime>  (217) 
nan

>  <fragmenstein_outcome>  (217) 
nan

>  <fragmenstein_mode>  (217) 
nan

>  <fragmenstein_error>  (217) 
nan

>  <exports>  (217) 
/opt/xchem-fragalysis-2/maxwin/RdRp_FFF/hippo/iter1_elaborated_scaffold_poses.sdf

>  <Multi-SuCOS>  (217) 
nan

>  <merge_set>  (217) 
nan

$$$$
MLFPAMPGEIBXQW-NEPJUHHUSA-N
     RDKit          3D

 20 22  0  0  0  0  0  0  0  0999 V2000
  -24.9000  -31.0331  -16.1028 C   0  0  0  0  0  0  0  0  0  0  0  0
  -25.9581  -30.2206  -16.8647 C   0  0  0  0  0  0  0  0  0  0  0  0
  -25.3863  -28.8498  -17.1650 C   0  0  0  0  0  0  0  0  0  0  0  0
  -27.2477  -30.1678  -16.0311 C   0  0  0  0  0  0  0  0  0  0  0  0
  -28.4885  -29.7721  -16.8199 C   0  0  0  0  0  0  0  0  0  0  0  0
  -28.3782  -30.0412  -18.2886 C   0  0  0  0  0  0  0  0  0  0  0  0
  -29.4905  -29.8412  -19.1072 C   0  0  0  0  0  0  0  0  0  0  0  0
  -29.3716  -29.8993  -20.4922 C   0  0  0  0  0  0  0  0  0  0  0  0
  -28.1502  -30.2312  -21.0719 C   0  0  0  0  0  0  0  0  0  0  0  0
  -27.0714  -30.5786  -20.2665 C   0  0  0  0  0  0  0  0  0  0  0  0
  -25.8823  -31.0385  -20.8262 N   0  0  0  0  0  0  0  0  0  0  0  0
  -25.3984  -31.0405  -22.3118 C   0  0  0  0  0  0  0  0  0  0  0  0
  -25.9460  -30.7347  -23.2657 O   0  0  0  0  0  0  0  0  0  0  0  0
  -23.9750  -31.6508  -22.1186 N   0  0  0  0  0  0  0  0  0  0  0  0
  -22.9514  -31.9000  -23.0603 C   0  0  2  0  0  0  0  0  0  0  0  0
  -22.1855  -33.1896  -23.1140 C   0  0  0  0  0  0  0  0  0  0  0  0
  -21.5114  -31.9405  -22.6334 C   0  0  2  0  0  0  0  0  0  0  0  0
  -21.2655  -31.8958  -21.2207 O   0  0  0  0  0  0  0  0  0  0  0  0
  -27.1870  -30.4688  -18.8776 C   0  0  0  0  0  0  0  0  0  0  0  0
  -26.1049  -30.8555  -18.1367 O   0  0  0  0  0  0  0  0  0  0  0  0
  1  2  1  0
  2  3  1  0
  2  4  1  0
  4  5  1  0
  5  6  1  0
  6  7  2  0
  7  8  1  0
  8  9  2  0
  9 10  1  0
 10 11  1  0
 11 12  1  0
 12 13  2  0
 12 14  1  0
 15 14  1  1
 15 16  1  0
 16 17  1  0
 17 18  1  1
 10 19  2  0
 19 20  1  0
 20  2  1  0
 19  6  1  0
 17 15  1  0
M  END
>  <id>  (218) 
302162

>  <inchikey>  (218) 
MLFPAMPGEIBXQW-NEPJUHHUSA-N

>  <alias>  (218) 
None

>  <smiles>  (218) 
CC1(C)CCc2cccc(NC(=O)N[C@@H]3C[C@@H]3O)c2O1

>  <path>  (218) 
/opt/xchem-fragalysis-2/maxwin/RdRp_FFF/syndirella/mar_elabs/elabs_064/UKWFLRZSMSDWTC-UHFFFAOYSA-N/output/UKWFLRZSMSDWTC-UHFFFAOYSA-N-dEDbNy-1-A/UKWFLRZSMSDWTC-UHFFFAOYSA-N-dEDbNy-1-A.minimised.mol

>  <distance_score>  (218) 
0.82815

>  <energy_score>  (218) 
-19.619616

>  <compound>  (218) 
MLFPAMPGEIBXQW-UHFFFAOYSA-N

>  <compound_id>  (218) 
133422

>  <target>  (218) 
Flavi_NS5_RdRp

>  <tags>  (218) 
[]

>  <inspirations>  (218) 
{P Ã— 2}

>  <subsites>  (218) 
None

>  <reference>  (218) 
z0211a

>  <SLURM_JOB_ID>  (218) 
nan

>  <SLURM_JOB_NAME>  (218) 
nan

>  <csv_name>  (218) 
nan

>  <scratch_subdir>  (218) 
nan

>  <fragmenstein_runtime>  (218) 
nan

>  <fragmenstein_outcome>  (218) 
nan

>  <fragmenstein_mode>  (218) 
nan

>  <fragmenstein_error>  (218) 
nan

>  <exports>  (218) 
nan

>  <Multi-SuCOS>  (218) 
nan

>  <merge_set>  (218) 
nan

$$$$
ZBFRRMRAXOHJIA-LLVKDONJSA-N
     RDKit          3D

 21 22  0  0  0  0  0  0  0  0999 V2000
  -24.8921  -31.0903  -16.1964 C   0  0  0  0  0  0  0  0  0  0  0  0
  -25.9600  -30.2318  -16.8929 C   0  0  0  0  0  0  0  0  0  0  0  0
  -25.3737  -28.8589  -17.1487 C   0  0  0  0  0  0  0  0  0  0  0  0
  -27.2214  -30.1908  -16.0153 C   0  0  0  0  0  0  0  0  0  0  0  0
  -28.4918  -29.7884  -16.7507 C   0  0  0  0  0  0  0  0  0  0  0  0
  -28.4338  -30.0213  -18.2275 C   0  0  0  0  0  0  0  0  0  0  0  0
  -29.5845  -29.8390  -18.9963 C   0  0  0  0  0  0  0  0  0  0  0  0
  -29.5193  -29.8485  -20.3865 C   0  0  0  0  0  0  0  0  0  0  0  0
  -28.3074  -30.0958  -21.0210 C   0  0  0  0  0  0  0  0  0  0  0  0
  -27.1888  -30.4359  -20.2692 C   0  0  0  0  0  0  0  0  0  0  0  0
  -26.0217  -30.8614  -20.8972 N   0  0  0  0  0  0  0  0  0  0  0  0
  -25.6478  -30.9042  -22.4116 C   0  0  0  0  0  0  0  0  0  0  0  0
  -26.2204  -30.5265  -23.3218 O   0  0  0  0  0  0  0  0  0  0  0  0
  -24.3194  -31.7013  -22.3230 N   0  0  0  0  0  0  0  0  0  0  0  0
  -23.4961  -32.2645  -23.3664 C   0  0  0  0  0  0  0  0  0  0  0  0
  -22.0012  -31.9865  -23.2017 C   0  0  1  0  0  0  0  0  0  0  0  0
  -21.6544  -31.9160  -21.8129 O   0  0  0  0  0  0  0  0  0  0  0  0
  -21.1697  -33.0940  -23.8443 C   0  0  0  0  0  0  0  0  0  0  0  0
  -21.2961  -33.1208  -25.2636 O   0  0  0  0  0  0  0  0  0  0  0  0
  -27.2562  -30.3960  -18.8735 C   0  0  0  0  0  0  0  0  0  0  0  0
  -26.1492  -30.8078  -18.1871 O   0  0  0  0  0  0  0  0  0  0  0  0
  1  2  1  0
  2  3  1  0
  2  4  1  0
  4  5  1  0
  5  6  1  0
  6  7  2  0
  7  8  1  0
  8  9  2  0
  9 10  1  0
 10 11  1  0
 11 12  1  0
 12 13  2  0
 12 14  1  0
 14 15  1  0
 15 16  1  0
 16 17  1  1
 16 18  1  0
 18 19  1  0
 10 20  2  0
 20 21  1  0
 21  2  1  0
 20  6  1  0
M  END
>  <id>  (219) 
302206

>  <inchikey>  (219) 
ZBFRRMRAXOHJIA-LLVKDONJSA-N

>  <alias>  (219) 
None

>  <smiles>  (219) 
CC1(C)CCc2cccc(NC(=O)NC[C@@H](O)CO)c2O1

>  <path>  (219) 
/opt/xchem-fragalysis-2/maxwin/RdRp_FFF/syndirella/mar_elabs/elabs_064/UKWFLRZSMSDWTC-UHFFFAOYSA-N/output/UKWFLRZSMSDWTC-UHFFFAOYSA-N-dEDbNy-56-B/UKWFLRZSMSDWTC-UHFFFAOYSA-N-dEDbNy-56-B.minimised.mol

>  <distance_score>  (219) 
0.76303

>  <energy_score>  (219) 
-12.306088

>  <compound>  (219) 
ZBFRRMRAXOHJIA-UHFFFAOYSA-N

>  <compound_id>  (219) 
133456

>  <target>  (219) 
Flavi_NS5_RdRp

>  <tags>  (219) 
[]

>  <inspirations>  (219) 
{P Ã— 2}

>  <subsites>  (219) 
None

>  <reference>  (219) 
z0211a

>  <SLURM_JOB_ID>  (219) 
nan

>  <SLURM_JOB_NAME>  (219) 
nan

>  <csv_name>  (219) 
nan

>  <scratch_subdir>  (219) 
nan

>  <fragmenstein_runtime>  (219) 
nan

>  <fragmenstein_outcome>  (219) 
nan

>  <fragmenstein_mode>  (219) 
nan

>  <fragmenstein_error>  (219) 
nan

>  <exports>  (219) 
nan

>  <Multi-SuCOS>  (219) 
nan

>  <merge_set>  (219) 
nan

$$$$
RXLBNOKWDSBNBH-LBPRGKRZSA-N
     RDKit          3D

 21 22  0  0  0  0  0  0  0  0999 V2000
  -21.1992  -33.0640  -25.2352 C   0  0  0  0  0  0  0  0  0  0  0  0
  -21.1851  -33.1806  -23.7218 C   0  0  0  0  0  0  0  0  0  0  0  0
  -21.9773  -32.0800  -23.0153 C   0  0  2  0  0  0  0  0  0  0  0  0
  -21.7072  -32.1994  -21.6148 O   0  0  0  0  0  0  0  0  0  0  0  0
  -23.4787  -32.2255  -23.2815 C   0  0  0  0  0  0  0  0  0  0  0  0
  -24.3187  -31.6844  -22.2492 N   0  0  0  0  0  0  0  0  0  0  0  0
  -25.6404  -30.8824  -22.3490 C   0  0  0  0  0  0  0  0  0  0  0  0
  -26.1920  -30.4835  -23.2623 O   0  0  0  0  0  0  0  0  0  0  0  0
  -26.0449  -30.8709  -20.8463 N   0  0  0  0  0  0  0  0  0  0  0  0
  -27.2210  -30.4560  -20.2350 C   0  0  0  0  0  0  0  0  0  0  0  0
  -28.3424  -30.1392  -20.9901 C   0  0  0  0  0  0  0  0  0  0  0  0
  -29.5525  -29.8855  -20.3547 C   0  0  0  0  0  0  0  0  0  0  0  0
  -29.6119  -29.8520  -18.9636 C   0  0  0  0  0  0  0  0  0  0  0  0
  -28.4581  -30.0185  -18.1955 C   0  0  0  0  0  0  0  0  0  0  0  0
  -27.2822  -30.3938  -18.8411 C   0  0  0  0  0  0  0  0  0  0  0  0
  -26.1680  -30.7957  -18.1605 O   0  0  0  0  0  0  0  0  0  0  0  0
  -25.9753  -30.2220  -16.8676 C   0  0  0  0  0  0  0  0  0  0  0  0
  -24.9084  -31.0831  -16.1727 C   0  0  0  0  0  0  0  0  0  0  0  0
  -25.3825  -28.8537  -17.1318 C   0  0  0  0  0  0  0  0  0  0  0  0
  -27.2364  -30.1813  -15.9895 C   0  0  0  0  0  0  0  0  0  0  0  0
  -28.5083  -29.7747  -16.7209 C   0  0  0  0  0  0  0  0  0  0  0  0
  1  2  1  0
  2  3  1  0
  3  4  1  1
  3  5  1  0
  5  6  1  0
  6  7  1  0
  7  8  2  0
  7  9  1  0
  9 10  1  0
 10 11  2  0
 11 12  1  0
 12 13  2  0
 13 14  1  0
 14 15  2  0
 15 16  1  0
 16 17  1  0
 17 18  1  0
 17 19  1  0
 17 20  1  0
 20 21  1  0
 15 10  1  0
 21 14  1  0
M  END
>  <id>  (220) 
302207

>  <inchikey>  (220) 
RXLBNOKWDSBNBH-LBPRGKRZSA-N

>  <alias>  (220) 
None

>  <smiles>  (220) 
CC[C@H](O)CNC(=O)Nc1cccc2c1OC(C)(C)CC2

>  <path>  (220) 
/opt/xchem-fragalysis-2/maxwin/RdRp_FFF/syndirella/mar_elabs/elabs_064/UKWFLRZSMSDWTC-UHFFFAOYSA-N/output/UKWFLRZSMSDWTC-UHFFFAOYSA-N-dEDbNy-57-A/UKWFLRZSMSDWTC-UHFFFAOYSA-N-dEDbNy-57-A.minimised.mol

>  <distance_score>  (220) 
0.753406

>  <energy_score>  (220) 
-13.050886

>  <compound>  (220) 
RXLBNOKWDSBNBH-UHFFFAOYSA-N

>  <compound_id>  (220) 
133457

>  <target>  (220) 
Flavi_NS5_RdRp

>  <tags>  (220) 
[]

>  <inspirations>  (220) 
{P Ã— 2}

>  <subsites>  (220) 
None

>  <reference>  (220) 
z0211a

>  <SLURM_JOB_ID>  (220) 
nan

>  <SLURM_JOB_NAME>  (220) 
nan

>  <csv_name>  (220) 
nan

>  <scratch_subdir>  (220) 
nan

>  <fragmenstein_runtime>  (220) 
nan

>  <fragmenstein_outcome>  (220) 
nan

>  <fragmenstein_mode>  (220) 
nan

>  <fragmenstein_error>  (220) 
nan

>  <exports>  (220) 
nan

>  <Multi-SuCOS>  (220) 
nan

>  <merge_set>  (220) 
nan

$$$$
PQVBCMDWIROGPA-SECBINFHSA-N
     RDKit          3D

 21 22  0  0  0  0  0  0  0  0999 V2000
  -21.1033  -32.3093  -23.7407 C   0  0  0  0  0  0  0  0  0  0  0  0
  -21.8755  -32.6482  -22.4742 C   0  0  1  0  0  0  0  0  0  0  0  0
  -22.0686  -31.4308  -21.7392 O   0  0  0  0  0  0  0  0  0  0  0  0
  -23.2408  -33.3486  -22.7372 C   0  0  0  0  0  0  0  0  0  0  0  0
  -23.4845  -34.4384  -23.8297 S   0  0  0  0  0  0  0  0  0  0  0  0
  -24.2185  -32.6210  -21.7027 N   0  0  0  0  0  0  0  0  0  0  0  0
  -25.8259  -32.6695  -21.4878 C   0  0  0  0  0  0  0  0  0  0  0  0
  -26.6405  -33.3096  -21.9862 O   0  0  0  0  0  0  0  0  0  0  0  0
  -25.9417  -31.5669  -20.5196 N   0  0  0  0  0  0  0  0  0  0  0  0
  -27.0608  -30.9293  -20.0058 C   0  0  0  0  0  0  0  0  0  0  0  0
  -28.2049  -30.7506  -20.7698 C   0  0  0  0  0  0  0  0  0  0  0  0
  -29.3586  -30.2278  -20.1908 C   0  0  0  0  0  0  0  0  0  0  0  0
  -29.3641  -29.9017  -18.8376 C   0  0  0  0  0  0  0  0  0  0  0  0
  -28.2035  -30.0291  -18.0687 C   0  0  0  0  0  0  0  0  0  0  0  0
  -27.0475  -30.5298  -18.6747 C   0  0  0  0  0  0  0  0  0  0  0  0
  -25.9221  -30.8688  -17.9708 O   0  0  0  0  0  0  0  0  0  0  0  0
  -25.7403  -30.1880  -16.7345 C   0  0  0  0  0  0  0  0  0  0  0  0
  -24.6169  -30.9265  -15.9963 C   0  0  0  0  0  0  0  0  0  0  0  0
  -25.2728  -28.8009  -17.1160 C   0  0  0  0  0  0  0  0  0  0  0  0
  -26.9990  -30.1846  -15.8603 C   0  0  0  0  0  0  0  0  0  0  0  0
  -28.2463  -29.7214  -16.6033 C   0  0  0  0  0  0  0  0  0  0  0  0
  2  1  1  6
  2  3  1  0
  2  4  1  0
  4  5  2  0
  4  6  1  0
  6  7  1  0
  7  8  2  0
  7  9  1  0
  9 10  1  0
 10 11  2  0
 11 12  1  0
 12 13  2  0
 13 14  1  0
 14 15  2  0
 15 16  1  0
 16 17  1  0
 17 18  1  0
 17 19  1  0
 17 20  1  0
 20 21  1  0
 15 10  1  0
 21 14  1  0
M  END
>  <id>  (221) 
302210

>  <inchikey>  (221) 
PQVBCMDWIROGPA-SECBINFHSA-N

>  <alias>  (221) 
None

>  <smiles>  (221) 
C[C@@H](O)C(=S)NC(=O)Nc1cccc2c1OC(C)(C)CC2

>  <path>  (221) 
/opt/xchem-fragalysis-2/maxwin/RdRp_FFF/syndirella/mar_elabs/elabs_064/UKWFLRZSMSDWTC-UHFFFAOYSA-N/output/UKWFLRZSMSDWTC-UHFFFAOYSA-N-dEDbNy-58-B/UKWFLRZSMSDWTC-UHFFFAOYSA-N-dEDbNy-58-B.minimised.mol

>  <distance_score>  (221) 
1.197897

>  <energy_score>  (221) 
-0.627504

>  <compound>  (221) 
PQVBCMDWIROGPA-UHFFFAOYSA-N

>  <compound_id>  (221) 
133458

>  <target>  (221) 
Flavi_NS5_RdRp

>  <tags>  (221) 
[]

>  <inspirations>  (221) 
{P Ã— 2}

>  <subsites>  (221) 
None

>  <reference>  (221) 
z0211a

>  <SLURM_JOB_ID>  (221) 
nan

>  <SLURM_JOB_NAME>  (221) 
nan

>  <csv_name>  (221) 
nan

>  <scratch_subdir>  (221) 
nan

>  <fragmenstein_runtime>  (221) 
nan

>  <fragmenstein_outcome>  (221) 
nan

>  <fragmenstein_mode>  (221) 
nan

>  <fragmenstein_error>  (221) 
nan

>  <exports>  (221) 
nan

>  <Multi-SuCOS>  (221) 
nan

>  <merge_set>  (221) 
nan

$$$$
HZKJOPMCDUGHAU-UHFFFAOYSA-N
     RDKit          3D

 21 23  0  0  0  0  0  0  0  0999 V2000
  -21.9682  -33.8899  -23.4368 C   0  0  0  0  0  0  0  0  0  0  0  0
  -22.5900  -32.8176  -22.5721 C   0  0  0  0  0  0  0  0  0  0  0  0
  -21.6924  -32.5211  -21.4746 O   0  0  0  0  0  0  0  0  0  0  0  0
  -23.0825  -31.6475  -23.3750 C   0  0  0  0  0  0  0  0  0  0  0  0
  -24.1150  -31.3799  -22.3054 N   0  0  0  0  0  0  0  0  0  0  0  0
  -25.5454  -30.8596  -22.4175 C   0  0  0  0  0  0  0  0  0  0  0  0
  -26.1776  -30.6294  -23.3445 O   0  0  0  0  0  0  0  0  0  0  0  0
  -25.9065  -30.7708  -20.9070 N   0  0  0  0  0  0  0  0  0  0  0  0
  -27.1199  -30.4769  -20.2836 C   0  0  0  0  0  0  0  0  0  0  0  0
  -28.2547  -30.2078  -21.0423 C   0  0  0  0  0  0  0  0  0  0  0  0
  -29.4728  -29.9493  -20.4196 C   0  0  0  0  0  0  0  0  0  0  0  0
  -29.5415  -29.8863  -19.0325 C   0  0  0  0  0  0  0  0  0  0  0  0
  -28.3910  -30.0421  -18.2567 C   0  0  0  0  0  0  0  0  0  0  0  0
  -27.1997  -30.4069  -18.8894 C   0  0  0  0  0  0  0  0  0  0  0  0
  -26.0937  -30.7917  -18.1876 O   0  0  0  0  0  0  0  0  0  0  0  0
  -25.9298  -30.2168  -16.8911 C   0  0  0  0  0  0  0  0  0  0  0  0
  -24.8637  -31.0650  -16.1802 C   0  0  0  0  0  0  0  0  0  0  0  0
  -25.3566  -28.8392  -17.1431 C   0  0  0  0  0  0  0  0  0  0  0  0
  -27.2024  -30.1856  -16.0308 C   0  0  0  0  0  0  0  0  0  0  0  0
  -28.4615  -29.7834  -16.7840 C   0  0  0  0  0  0  0  0  0  0  0  0
  -24.0772  -32.9367  -22.2624 C   0  0  0  0  0  0  0  0  0  0  0  0
  1  2  1  0
  2  3  1  0
  2  4  1  0
  4  5  1  0
  5  6  1  0
  6  7  2  0
  6  8  1  0
  8  9  1  0
  9 10  2  0
 10 11  1  0
 11 12  2  0
 12 13  1  0
 13 14  2  0
 14 15  1  0
 15 16  1  0
 16 17  1  0
 16 18  1  0
 16 19  1  0
 19 20  1  0
  5 21  1  0
 21  2  1  0
 14  9  1  0
 20 13  1  0
M  END
>  <id>  (222) 
302239

>  <inchikey>  (222) 
HZKJOPMCDUGHAU-UHFFFAOYSA-N

>  <alias>  (222) 
None

>  <smiles>  (222) 
CC1(O)CN(C(=O)Nc2cccc3c2OC(C)(C)CC3)C1

>  <path>  (222) 
/opt/xchem-fragalysis-2/maxwin/RdRp_FFF/syndirella/mar_elabs/elabs_064/UKWFLRZSMSDWTC-UHFFFAOYSA-N/output/UKWFLRZSMSDWTC-UHFFFAOYSA-N-dEDbNy-86-A/UKWFLRZSMSDWTC-UHFFFAOYSA-N-dEDbNy-86-A.minimised.mol

>  <distance_score>  (222) 
0.872818

>  <energy_score>  (222) 
-17.20272

>  <compound>  (222) 
HZKJOPMCDUGHAU-UHFFFAOYSA-N

>  <compound_id>  (222) 
133482

>  <target>  (222) 
Flavi_NS5_RdRp

>  <tags>  (222) 
[]

>  <inspirations>  (222) 
{P Ã— 2}

>  <subsites>  (222) 
None

>  <reference>  (222) 
z0211a

>  <SLURM_JOB_ID>  (222) 
nan

>  <SLURM_JOB_NAME>  (222) 
nan

>  <csv_name>  (222) 
nan

>  <scratch_subdir>  (222) 
nan

>  <fragmenstein_runtime>  (222) 
nan

>  <fragmenstein_outcome>  (222) 
nan

>  <fragmenstein_mode>  (222) 
nan

>  <fragmenstein_error>  (222) 
nan

>  <exports>  (222) 
nan

>  <Multi-SuCOS>  (222) 
nan

>  <merge_set>  (222) 
nan

$$$$
DCZBLOBSNLVZHJ-SKDRFNHKSA-N
     RDKit          3D

 22 23  0  0  0  0  0  0  0  0999 V2000
  -25.3727  -28.8610  -17.0889 C   0  0  0  0  0  0  0  0  0  0  0  0
  -25.9935  -30.2163  -16.8242 C   0  0  0  0  0  0  0  0  0  0  0  0
  -24.9439  -31.1002  -16.1319 C   0  0  0  0  0  0  0  0  0  0  0  0
  -27.2575  -30.1673  -15.9545 C   0  0  0  0  0  0  0  0  0  0  0  0
  -28.4876  -29.6607  -16.6922 C   0  0  2  0  0  0  0  0  0  0  0  0
  -29.6588  -30.0997  -16.0076 O   0  0  0  0  0  0  0  0  0  0  0  0
  -28.4900  -30.0045  -18.1512 C   0  0  0  0  0  0  0  0  0  0  0  0
  -29.6474  -29.8593  -18.9205 C   0  0  0  0  0  0  0  0  0  0  0  0
  -29.5915  -29.9199  -20.3108 C   0  0  0  0  0  0  0  0  0  0  0  0
  -28.3796  -30.1694  -20.9443 C   0  0  0  0  0  0  0  0  0  0  0  0
  -27.2533  -30.4624  -20.1878 C   0  0  0  0  0  0  0  0  0  0  0  0
  -26.0752  -30.8759  -20.7957 N   0  0  0  0  0  0  0  0  0  0  0  0
  -25.6810  -30.9227  -22.2987 C   0  0  0  0  0  0  0  0  0  0  0  0
  -26.2444  -30.5579  -23.2181 O   0  0  0  0  0  0  0  0  0  0  0  0
  -24.3469  -31.7013  -22.1865 N   0  0  0  0  0  0  0  0  0  0  0  0
  -23.5066  -32.2574  -23.2087 C   0  0  0  0  0  0  0  0  0  0  0  0
  -22.0138  -32.1599  -22.8993 C   0  0  1  0  0  0  0  0  0  0  0  0
  -21.7422  -32.5603  -21.5532 O   0  0  0  0  0  0  0  0  0  0  0  0
  -21.2148  -33.0443  -23.8611 C   0  0  0  0  0  0  0  0  0  0  0  0
  -21.3860  -32.6970  -25.2313 O   0  0  0  0  0  0  0  0  0  0  0  0
  -27.3133  -30.3837  -18.7963 C   0  0  0  0  0  0  0  0  0  0  0  0
  -26.1939  -30.7774  -18.1203 O   0  0  0  0  0  0  0  0  0  0  0  0
  1  2  1  0
  2  3  1  0
  2  4  1  0
  4  5  1  0
  5  6  1  1
  5  7  1  0
  7  8  2  0
  8  9  1  0
  9 10  2  0
 10 11  1  0
 11 12  1  0
 12 13  1  0
 13 14  2  0
 13 15  1  0
 15 16  1  0
 16 17  1  0
 17 18  1  1
 17 19  1  0
 19 20  1  0
 11 21  2  0
 21 22  1  0
 22  2  1  0
 21  7  1  0
M  END
>  <id>  (223) 
302444

>  <inchikey>  (223) 
DCZBLOBSNLVZHJ-SKDRFNHKSA-N

>  <alias>  (223) 
None

>  <smiles>  (223) 
CC1(C)C[C@H](O)c2cccc(NC(=O)NC[C@@H](O)CO)c2O1

>  <path>  (223) 
/opt/xchem-fragalysis-2/maxwin/RdRp_FFF/syndirella/mar_elabs/elabs_064/UKWFLRZSMSDWTC-UHFFFAOYSA-N/output/UKWFLRZSMSDWTC-UHFFFAOYSA-N-dEDbNy-582-C/UKWFLRZSMSDWTC-UHFFFAOYSA-N-dEDbNy-582-C.minimised.mol

>  <distance_score>  (223) 
0.756987

>  <energy_score>  (223) 
-33.937587

>  <compound>  (223) 
DCZBLOBSNLVZHJ-UHFFFAOYSA-N

>  <compound_id>  (223) 
133641

>  <target>  (223) 
Flavi_NS5_RdRp

>  <tags>  (223) 
[]

>  <inspirations>  (223) 
{P Ã— 2}

>  <subsites>  (223) 
None

>  <reference>  (223) 
z0211a

>  <SLURM_JOB_ID>  (223) 
nan

>  <SLURM_JOB_NAME>  (223) 
nan

>  <csv_name>  (223) 
nan

>  <scratch_subdir>  (223) 
nan

>  <fragmenstein_runtime>  (223) 
nan

>  <fragmenstein_outcome>  (223) 
nan

>  <fragmenstein_mode>  (223) 
nan

>  <fragmenstein_error>  (223) 
nan

>  <exports>  (223) 
nan

>  <Multi-SuCOS>  (223) 
nan

>  <merge_set>  (223) 
nan

$$$$
AAISYTOQIGORKQ-SKDRFNHKSA-N
     RDKit          3D

 22 23  0  0  0  0  0  0  0  0999 V2000
  -24.9352  -31.0963  -16.1436 C   0  0  0  0  0  0  0  0  0  0  0  0
  -25.9914  -30.2145  -16.8284 C   0  0  0  0  0  0  0  0  0  0  0  0
  -25.3765  -28.8572  -17.0955 C   0  0  0  0  0  0  0  0  0  0  0  0
  -27.2501  -30.1700  -15.9507 C   0  0  0  0  0  0  0  0  0  0  0  0
  -28.4854  -29.6682  -16.6831 C   0  0  2  0  0  0  0  0  0  0  0  0
  -29.6597  -30.0962  -15.9979 O   0  0  0  0  0  0  0  0  0  0  0  0
  -28.5010  -30.0208  -18.1390 C   0  0  0  0  0  0  0  0  0  0  0  0
  -29.6652  -29.8859  -18.8994 C   0  0  0  0  0  0  0  0  0  0  0  0
  -29.6196  -29.9546  -20.2901 C   0  0  0  0  0  0  0  0  0  0  0  0
  -28.4100  -30.1963  -20.9323 C   0  0  0  0  0  0  0  0  0  0  0  0
  -27.2757  -30.4747  -20.1840 C   0  0  0  0  0  0  0  0  0  0  0  0
  -26.0795  -30.8270  -20.7950 N   0  0  0  0  0  0  0  0  0  0  0  0
  -25.6841  -30.8436  -22.2982 C   0  0  0  0  0  0  0  0  0  0  0  0
  -26.2647  -30.4994  -23.2150 O   0  0  0  0  0  0  0  0  0  0  0  0
  -24.3007  -31.5309  -22.1901 N   0  0  0  0  0  0  0  0  0  0  0  0
  -23.4133  -32.0084  -23.2197 C   0  0  0  0  0  0  0  0  0  0  0  0
  -22.0577  -32.4380  -22.6701 C   0  0  2  0  0  0  0  0  0  0  0  0
  -21.3524  -31.3521  -22.0732 O   0  0  0  0  0  0  0  0  0  0  0  0
  -21.2037  -33.0864  -23.7488 C   0  0  0  0  0  0  0  0  0  0  0  0
  -21.1014  -32.2824  -24.8403 F   0  0  0  0  0  0  0  0  0  0  0  0
  -27.3270  -30.3945  -18.7919 C   0  0  0  0  0  0  0  0  0  0  0  0
  -26.1970  -30.7731  -18.1246 O   0  0  0  0  0  0  0  0  0  0  0  0
  1  2  1  0
  2  3  1  0
  2  4  1  0
  4  5  1  0
  5  6  1  1
  5  7  1  0
  7  8  2  0
  8  9  1  0
  9 10  2  0
 10 11  1  0
 11 12  1  0
 12 13  1  0
 13 14  2  0
 13 15  1  0
 15 16  1  0
 16 17  1  0
 17 18  1  6
 17 19  1  0
 19 20  1  0
 11 21  2  0
 21 22  1  0
 22  2  1  0
 21  7  1  0
M  END
>  <id>  (224) 
302511

>  <inchikey>  (224) 
AAISYTOQIGORKQ-SKDRFNHKSA-N

>  <alias>  (224) 
None

>  <smiles>  (224) 
CC1(C)C[C@H](O)c2cccc(NC(=O)NC[C@H](O)CF)c2O1

>  <path>  (224) 
/opt/xchem-fragalysis-2/maxwin/RdRp_FFF/syndirella/mar_elabs/elabs_064/UKWFLRZSMSDWTC-UHFFFAOYSA-N/output/UKWFLRZSMSDWTC-UHFFFAOYSA-N-dEDbNy-644-A/UKWFLRZSMSDWTC-UHFFFAOYSA-N-dEDbNy-644-A.minimised.mol

>  <distance_score>  (224) 
0.772296

>  <energy_score>  (224) 
-12.127994

>  <compound>  (224) 
AAISYTOQIGORKQ-UHFFFAOYSA-N

>  <compound_id>  (224) 
133690

>  <target>  (224) 
Flavi_NS5_RdRp

>  <tags>  (224) 
[]

>  <inspirations>  (224) 
{P Ã— 2}

>  <subsites>  (224) 
None

>  <reference>  (224) 
z0211a

>  <SLURM_JOB_ID>  (224) 
nan

>  <SLURM_JOB_NAME>  (224) 
nan

>  <csv_name>  (224) 
nan

>  <scratch_subdir>  (224) 
nan

>  <fragmenstein_runtime>  (224) 
nan

>  <fragmenstein_outcome>  (224) 
nan

>  <fragmenstein_mode>  (224) 
nan

>  <fragmenstein_error>  (224) 
nan

>  <exports>  (224) 
nan

>  <Multi-SuCOS>  (224) 
nan

>  <merge_set>  (224) 
nan

$$$$
WLPKDJPJSKQLBO-WCQYABFASA-N
     RDKit          3D

 22 23  0  0  0  0  0  0  0  0999 V2000
  -23.9173  -34.7001  -22.4183 C   0  0  0  0  0  0  0  0  0  0  0  0
  -24.0511  -33.7142  -23.5737 C   0  0  0  0  0  0  0  0  0  0  0  0
  -23.5500  -32.2824  -23.2792 C   0  0  1  0  0  0  0  0  0  0  0  0
  -24.3803  -31.7192  -22.2365 N   0  0  0  0  0  0  0  0  0  0  0  0
  -25.6911  -30.9005  -22.3313 C   0  0  0  0  0  0  0  0  0  0  0  0
  -26.2441  -30.5002  -23.2424 O   0  0  0  0  0  0  0  0  0  0  0  0
  -26.0830  -30.8740  -20.8276 N   0  0  0  0  0  0  0  0  0  0  0  0
  -27.2475  -30.4400  -20.2103 C   0  0  0  0  0  0  0  0  0  0  0  0
  -28.3735  -30.1232  -20.9579 C   0  0  0  0  0  0  0  0  0  0  0  0
  -29.5797  -29.8774  -20.3131 C   0  0  0  0  0  0  0  0  0  0  0  0
  -29.6286  -29.8468  -18.9212 C   0  0  0  0  0  0  0  0  0  0  0  0
  -28.4685  -30.0101  -18.1618 C   0  0  0  0  0  0  0  0  0  0  0  0
  -27.2974  -30.3811  -18.8169 C   0  0  0  0  0  0  0  0  0  0  0  0
  -26.1786  -30.7895  -18.1476 O   0  0  0  0  0  0  0  0  0  0  0  0
  -25.9751  -30.2223  -16.8540 C   0  0  0  0  0  0  0  0  0  0  0  0
  -24.9054  -31.0896  -16.1708 C   0  0  0  0  0  0  0  0  0  0  0  0
  -25.3793  -28.8555  -17.1181 C   0  0  0  0  0  0  0  0  0  0  0  0
  -27.2301  -30.1843  -15.9669 C   0  0  0  0  0  0  0  0  0  0  0  0
  -28.5074  -29.7728  -16.6862 C   0  0  0  0  0  0  0  0  0  0  0  0
  -22.0472  -32.1347  -22.9650 C   0  0  2  0  0  0  0  0  0  0  0  0
  -21.1644  -32.9764  -23.8685 C   0  0  0  0  0  0  0  0  0  0  0  0
  -21.7591  -32.4849  -21.6094 O   0  0  0  0  0  0  0  0  0  0  0  0
  1  2  1  0
  3  2  1  1
  3  4  1  0
  4  5  1  0
  5  6  2  0
  5  7  1  0
  7  8  1  0
  8  9  2  0
  9 10  1  0
 10 11  2  0
 11 12  1  0
 12 13  2  0
 13 14  1  0
 14 15  1  0
 15 16  1  0
 15 17  1  0
 15 18  1  0
 18 19  1  0
  3 20  1  0
 20 21  1  6
 20 22  1  0
 13  8  1  0
 19 12  1  0
M  END
>  <id>  (225) 
302578

>  <inchikey>  (225) 
WLPKDJPJSKQLBO-WCQYABFASA-N

>  <alias>  (225) 
None

>  <smiles>  (225) 
CC[C@@H](NC(=O)Nc1cccc2c1OC(C)(C)CC2)[C@H](C)O

>  <path>  (225) 
/opt/xchem-fragalysis-2/maxwin/RdRp_FFF/syndirella/mar_elabs/elabs_064/UKWFLRZSMSDWTC-UHFFFAOYSA-N/output/UKWFLRZSMSDWTC-UHFFFAOYSA-N-dEDbNy-670-B/UKWFLRZSMSDWTC-UHFFFAOYSA-N-dEDbNy-670-B.minimised.mol

>  <distance_score>  (225) 
0.765457

>  <energy_score>  (225) 
-19.586135

>  <compound>  (225) 
WLPKDJPJSKQLBO-UHFFFAOYSA-N

>  <compound_id>  (225) 
133716

>  <target>  (225) 
Flavi_NS5_RdRp

>  <tags>  (225) 
[]

>  <inspirations>  (225) 
{P Ã— 2}

>  <subsites>  (225) 
None

>  <reference>  (225) 
z0211a

>  <SLURM_JOB_ID>  (225) 
nan

>  <SLURM_JOB_NAME>  (225) 
nan

>  <csv_name>  (225) 
nan

>  <scratch_subdir>  (225) 
nan

>  <fragmenstein_runtime>  (225) 
nan

>  <fragmenstein_outcome>  (225) 
nan

>  <fragmenstein_mode>  (225) 
nan

>  <fragmenstein_error>  (225) 
nan

>  <exports>  (225) 
nan

>  <Multi-SuCOS>  (225) 
nan

>  <merge_set>  (225) 
nan

$$$$
GSLPTIYGEOBYMW-LBPRGKRZSA-N
     RDKit          3D

 22 23  0  0  0  0  0  0  0  0999 V2000
  -20.9524  -33.1160  -25.0903 C   0  0  0  0  0  0  0  0  0  0  0  0
  -21.1464  -33.0651  -23.5810 C   0  0  0  0  0  0  0  0  0  0  0  0
  -22.3195  -32.1672  -23.2130 C   0  0  2  0  0  0  0  0  0  0  0  0
  -22.0267  -31.4547  -22.0160 O   0  0  0  0  0  0  0  0  0  0  0  0
  -23.6588  -32.9327  -23.1217 C   0  0  0  0  0  0  0  0  0  0  0  0
  -23.9253  -33.8302  -23.9242 N   0  0  0  0  0  0  0  0  0  0  0  0
  -24.4700  -32.3041  -22.0262 N   0  0  0  0  0  0  0  0  0  0  0  0
  -25.9963  -32.4922  -21.5782 C   0  0  0  0  0  0  0  0  0  0  0  0
  -26.8101  -33.2194  -21.9470 O   0  0  0  0  0  0  0  0  0  0  0  0
  -26.0795  -31.3827  -20.6145 N   0  0  0  0  0  0  0  0  0  0  0  0
  -27.1703  -30.8419  -19.9520 C   0  0  0  0  0  0  0  0  0  0  0  0
  -28.3756  -30.6892  -20.6275 C   0  0  0  0  0  0  0  0  0  0  0  0
  -29.5027  -30.2148  -19.9649 C   0  0  0  0  0  0  0  0  0  0  0  0
  -29.4197  -29.9053  -18.6116 C   0  0  0  0  0  0  0  0  0  0  0  0
  -28.2058  -30.0280  -17.9261 C   0  0  0  0  0  0  0  0  0  0  0  0
  -27.0780  -30.4879  -18.6159 C   0  0  0  0  0  0  0  0  0  0  0  0
  -25.9094  -30.8352  -17.9967 O   0  0  0  0  0  0  0  0  0  0  0  0
  -25.6727  -30.2211  -16.7357 C   0  0  0  0  0  0  0  0  0  0  0  0
  -24.5154  -30.9920  -16.0889 C   0  0  0  0  0  0  0  0  0  0  0  0
  -25.2301  -28.8154  -17.0708 C   0  0  0  0  0  0  0  0  0  0  0  0
  -26.8840  -30.2578  -15.7975 C   0  0  0  0  0  0  0  0  0  0  0  0
  -28.1650  -29.7621  -16.4533 C   0  0  0  0  0  0  0  0  0  0  0  0
  1  2  1  0
  2  3  1  0
  3  4  1  1
  3  5  1  0
  5  6  2  3
  5  7  1  0
  7  8  1  0
  8  9  2  0
  8 10  1  0
 10 11  1  0
 11 12  2  0
 12 13  1  0
 13 14  2  0
 14 15  1  0
 15 16  2  0
 16 17  1  0
 17 18  1  0
 18 19  1  0
 18 20  1  0
 18 21  1  0
 21 22  1  0
 16 11  1  0
 22 15  1  0
M  END
>  <id>  (226) 
302581

>  <inchikey>  (226) 
GSLPTIYGEOBYMW-LBPRGKRZSA-N

>  <alias>  (226) 
None

>  <smiles>  (226) 
CC[C@H](O)C(=N)NC(=O)Nc1cccc2c1OC(C)(C)CC2

>  <path>  (226) 
/opt/xchem-fragalysis-2/maxwin/RdRp_FFF/syndirella/mar_elabs/elabs_064/UKWFLRZSMSDWTC-UHFFFAOYSA-N/output/UKWFLRZSMSDWTC-UHFFFAOYSA-N-dEDbNy-671-A/UKWFLRZSMSDWTC-UHFFFAOYSA-N-dEDbNy-671-A.minimised.mol

>  <distance_score>  (226) 
1.137243

>  <energy_score>  (226) 
-30.334506

>  <compound>  (226) 
GSLPTIYGEOBYMW-UHFFFAOYSA-N

>  <compound_id>  (226) 
133717

>  <target>  (226) 
Flavi_NS5_RdRp

>  <tags>  (226) 
[]

>  <inspirations>  (226) 
{P Ã— 2}

>  <subsites>  (226) 
None

>  <reference>  (226) 
z0211a

>  <SLURM_JOB_ID>  (226) 
nan

>  <SLURM_JOB_NAME>  (226) 
nan

>  <csv_name>  (226) 
nan

>  <scratch_subdir>  (226) 
nan

>  <fragmenstein_runtime>  (226) 
nan

>  <fragmenstein_outcome>  (226) 
nan

>  <fragmenstein_mode>  (226) 
nan

>  <fragmenstein_error>  (226) 
nan

>  <exports>  (226) 
nan

>  <Multi-SuCOS>  (226) 
nan

>  <merge_set>  (226) 
nan

$$$$
IFXHDUZHRDJLHI-QGZVFWFLSA-N
     RDKit          3D

 22 23  0  0  0  0  0  0  0  0999 V2000
  -20.8022  -32.8088  -24.8495 C   0  0  0  0  0  0  0  0  0  0  0  0
  -21.7397  -33.2667  -24.0147 C   0  0  0  0  0  0  0  0  0  0  0  0
  -22.3220  -32.5358  -22.8259 C   0  0  1  0  0  0  0  0  0  0  0  0
  -22.3944  -33.5058  -21.6413 C   0  0  0  0  0  0  0  0  0  0  0  0
  -21.4605  -31.4699  -22.4302 O   0  0  0  0  0  0  0  0  0  0  0  0
  -23.7074  -32.0155  -23.2560 C   0  0  0  0  0  0  0  0  0  0  0  0
  -24.5254  -31.4830  -22.2059 N   0  0  0  0  0  0  0  0  0  0  0  0
  -25.8927  -30.7683  -22.2685 C   0  0  0  0  0  0  0  0  0  0  0  0
  -26.5109  -30.4429  -23.1649 O   0  0  0  0  0  0  0  0  0  0  0  0
  -26.2202  -30.7176  -20.7565 N   0  0  0  0  0  0  0  0  0  0  0  0
  -27.3835  -30.3494  -20.1034 C   0  0  0  0  0  0  0  0  0  0  0  0
  -28.5430  -30.0599  -20.8061 C   0  0  0  0  0  0  0  0  0  0  0  0
  -29.7313  -29.8819  -20.1115 C   0  0  0  0  0  0  0  0  0  0  0  0
  -29.7240  -29.8619  -18.7168 C   0  0  0  0  0  0  0  0  0  0  0  0
  -28.5311  -29.9994  -18.0051 C   0  0  0  0  0  0  0  0  0  0  0  0
  -27.3819  -30.3305  -18.7109 C   0  0  0  0  0  0  0  0  0  0  0  0
  -26.2327  -30.7493  -18.1050 O   0  0  0  0  0  0  0  0  0  0  0  0
  -25.9803  -30.2415  -16.7990 C   0  0  0  0  0  0  0  0  0  0  0  0
  -24.9067  -31.1553  -16.1841 C   0  0  0  0  0  0  0  0  0  0  0  0
  -25.3581  -28.8823  -17.0359 C   0  0  0  0  0  0  0  0  0  0  0  0
  -27.2052  -30.2148  -15.8689 C   0  0  0  0  0  0  0  0  0  0  0  0
  -28.5092  -29.7857  -16.5280 C   0  0  0  0  0  0  0  0  0  0  0  0
  1  2  2  0
  2  3  1  0
  3  4  1  1
  3  5  1  0
  3  6  1  0
  6  7  1  0
  7  8  1  0
  8  9  2  0
  8 10  1  0
 10 11  1  0
 11 12  2  0
 12 13  1  0
 13 14  2  0
 14 15  1  0
 15 16  2  0
 16 17  1  0
 17 18  1  0
 18 19  1  0
 18 20  1  0
 18 21  1  0
 21 22  1  0
 16 11  1  0
 22 15  1  0
M  END
>  <id>  (227) 
302585

>  <inchikey>  (227) 
IFXHDUZHRDJLHI-QGZVFWFLSA-N

>  <alias>  (227) 
None

>  <smiles>  (227) 
C=C[C@@](C)(O)CNC(=O)Nc1cccc2c1OC(C)(C)CC2

>  <path>  (227) 
/opt/xchem-fragalysis-2/maxwin/RdRp_FFF/syndirella/mar_elabs/elabs_064/UKWFLRZSMSDWTC-UHFFFAOYSA-N/output/UKWFLRZSMSDWTC-UHFFFAOYSA-N-dEDbNy-674-B/UKWFLRZSMSDWTC-UHFFFAOYSA-N-dEDbNy-674-B.minimised.mol

>  <distance_score>  (227) 
0.815181

>  <energy_score>  (227) 
-2.476739

>  <compound>  (227) 
IFXHDUZHRDJLHI-UHFFFAOYSA-N

>  <compound_id>  (227) 
133720

>  <target>  (227) 
Flavi_NS5_RdRp

>  <tags>  (227) 
[]

>  <inspirations>  (227) 
{P Ã— 2}

>  <subsites>  (227) 
None

>  <reference>  (227) 
z0211a

>  <SLURM_JOB_ID>  (227) 
nan

>  <SLURM_JOB_NAME>  (227) 
nan

>  <csv_name>  (227) 
nan

>  <scratch_subdir>  (227) 
nan

>  <fragmenstein_runtime>  (227) 
nan

>  <fragmenstein_outcome>  (227) 
nan

>  <fragmenstein_mode>  (227) 
nan

>  <fragmenstein_error>  (227) 
nan

>  <exports>  (227) 
nan

>  <Multi-SuCOS>  (227) 
nan

>  <merge_set>  (227) 
nan

$$$$
GBNRCEBTLUNHJF-ZWNOBZJWSA-N
     RDKit          3D

 22 23  0  0  0  0  0  0  0  0999 V2000
  -24.2503  -32.8894  -24.3038 C   0  0  0  0  0  0  0  0  0  0  0  0
  -23.5986  -31.9007  -23.3437 C   0  0  1  0  0  0  0  0  0  0  0  0
  -24.5128  -31.5387  -22.2843 N   0  0  0  0  0  0  0  0  0  0  0  0
  -25.8639  -30.7888  -22.3401 C   0  0  0  0  0  0  0  0  0  0  0  0
  -26.4671  -30.4258  -23.2343 O   0  0  0  0  0  0  0  0  0  0  0  0
  -26.2043  -30.7676  -20.8259 N   0  0  0  0  0  0  0  0  0  0  0  0
  -27.3657  -30.3869  -20.1726 C   0  0  0  0  0  0  0  0  0  0  0  0
  -28.5156  -30.0745  -20.8813 C   0  0  0  0  0  0  0  0  0  0  0  0
  -29.7071  -29.8782  -20.1962 C   0  0  0  0  0  0  0  0  0  0  0  0
  -29.7119  -29.8639  -18.8022 C   0  0  0  0  0  0  0  0  0  0  0  0
  -28.5258  -30.0131  -18.0817 C   0  0  0  0  0  0  0  0  0  0  0  0
  -27.3732  -30.3595  -18.7778 C   0  0  0  0  0  0  0  0  0  0  0  0
  -26.2288  -30.7671  -18.1544 O   0  0  0  0  0  0  0  0  0  0  0  0
  -25.9865  -30.2326  -16.8543 C   0  0  0  0  0  0  0  0  0  0  0  0
  -24.9064  -31.1239  -16.2190 C   0  0  0  0  0  0  0  0  0  0  0  0
  -25.3821  -28.8670  -17.1044 C   0  0  0  0  0  0  0  0  0  0  0  0
  -27.2160  -30.2024  -15.9309 C   0  0  0  0  0  0  0  0  0  0  0  0
  -28.5159  -29.7859  -16.6053 C   0  0  0  0  0  0  0  0  0  0  0  0
  -22.3000  -32.4292  -22.7281 C   0  0  2  0  0  0  0  0  0  0  0  0
  -21.7491  -31.4623  -21.8133 O   0  0  0  0  0  0  0  0  0  0  0  0
  -21.2105  -32.7400  -23.7421 C   0  0  0  0  0  0  0  0  0  0  0  0
  -20.0471  -33.1427  -23.0246 O   0  0  0  0  0  0  0  0  0  0  0  0
  2  1  1  6
  2  3  1  0
  3  4  1  0
  4  5  2  0
  4  6  1  0
  6  7  1  0
  7  8  2  0
  8  9  1  0
  9 10  2  0
 10 11  1  0
 11 12  2  0
 12 13  1  0
 13 14  1  0
 14 15  1  0
 14 16  1  0
 14 17  1  0
 17 18  1  0
  2 19  1  0
 19 20  1  1
 19 21  1  0
 21 22  1  0
 12  7  1  0
 18 11  1  0
M  END
>  <id>  (228) 
302589

>  <inchikey>  (228) 
GBNRCEBTLUNHJF-ZWNOBZJWSA-N

>  <alias>  (228) 
None

>  <smiles>  (228) 
C[C@@H](NC(=O)Nc1cccc2c1OC(C)(C)CC2)[C@H](O)CO

>  <path>  (228) 
/opt/xchem-fragalysis-2/maxwin/RdRp_FFF/syndirella/mar_elabs/elabs_064/UKWFLRZSMSDWTC-UHFFFAOYSA-N/output/UKWFLRZSMSDWTC-UHFFFAOYSA-N-dEDbNy-676-B/UKWFLRZSMSDWTC-UHFFFAOYSA-N-dEDbNy-676-B.minimised.mol

>  <distance_score>  (228) 
0.803704

>  <energy_score>  (228) 
-8.359022

>  <compound>  (228) 
GBNRCEBTLUNHJF-UHFFFAOYSA-N

>  <compound_id>  (228) 
133722

>  <target>  (228) 
Flavi_NS5_RdRp

>  <tags>  (228) 
[]

>  <inspirations>  (228) 
{P Ã— 2}

>  <subsites>  (228) 
None

>  <reference>  (228) 
z0211a

>  <SLURM_JOB_ID>  (228) 
nan

>  <SLURM_JOB_NAME>  (228) 
nan

>  <csv_name>  (228) 
nan

>  <scratch_subdir>  (228) 
nan

>  <fragmenstein_runtime>  (228) 
nan

>  <fragmenstein_outcome>  (228) 
nan

>  <fragmenstein_mode>  (228) 
nan

>  <fragmenstein_error>  (228) 
nan

>  <exports>  (228) 
nan

>  <Multi-SuCOS>  (228) 
nan

>  <merge_set>  (228) 
nan

$$$$
YJDMFEGQVYLGDG-SNVBAGLBSA-N
     RDKit          3D

 22 23  0  0  0  0  0  0  0  0999 V2000
  -20.3398  -31.6644  -20.2711 C   0  0  0  0  0  0  0  0  0  0  0  0
  -21.2064  -31.5483  -21.3895 O   0  0  0  0  0  0  0  0  0  0  0  0
  -21.8390  -32.7720  -21.7596 C   0  0  2  0  0  0  0  0  0  0  0  0
  -20.8285  -33.7773  -22.2591 C   0  0  0  0  0  0  0  0  0  0  0  0
  -22.9742  -32.4230  -22.7638 C   0  0  0  0  0  0  0  0  0  0  0  0
  -23.0001  -32.8050  -24.2769 S   0  0  0  0  0  0  0  0  0  0  0  0
  -24.0534  -31.7112  -21.8044 N   0  0  0  0  0  0  0  0  0  0  0  0
  -25.5119  -31.0397  -22.0859 C   0  0  0  0  0  0  0  0  0  0  0  0
  -26.0861  -30.8470  -23.0598 O   0  0  0  0  0  0  0  0  0  0  0  0
  -25.9158  -30.8411  -20.6894 N   0  0  0  0  0  0  0  0  0  0  0  0
  -27.1299  -30.4541  -20.1462 C   0  0  0  0  0  0  0  0  0  0  0  0
  -28.2557  -30.1821  -20.9077 C   0  0  0  0  0  0  0  0  0  0  0  0
  -29.4610  -29.9131  -20.2640 C   0  0  0  0  0  0  0  0  0  0  0  0
  -29.5129  -29.8444  -18.8687 C   0  0  0  0  0  0  0  0  0  0  0  0
  -28.3596  -30.0108  -18.0994 C   0  0  0  0  0  0  0  0  0  0  0  0
  -27.1917  -30.3857  -18.7530 C   0  0  0  0  0  0  0  0  0  0  0  0
  -26.0757  -30.8200  -18.0848 O   0  0  0  0  0  0  0  0  0  0  0  0
  -25.8599  -30.2340  -16.8041 C   0  0  0  0  0  0  0  0  0  0  0  0
  -24.7647  -31.0717  -16.1279 C   0  0  0  0  0  0  0  0  0  0  0  0
  -25.3114  -28.8522  -17.0871 C   0  0  0  0  0  0  0  0  0  0  0  0
  -27.1073  -30.2184  -15.9089 C   0  0  0  0  0  0  0  0  0  0  0  0
  -28.3880  -29.7882  -16.6195 C   0  0  0  0  0  0  0  0  0  0  0  0
  1  2  1  0
  2  3  1  0
  3  4  1  6
  3  5  1  0
  5  6  2  0
  5  7  1  0
  7  8  1  0
  8  9  2  0
  8 10  1  0
 10 11  1  0
 11 12  2  0
 12 13  1  0
 13 14  2  0
 14 15  1  0
 15 16  2  0
 16 17  1  0
 17 18  1  0
 18 19  1  0
 18 20  1  0
 18 21  1  0
 21 22  1  0
 16 11  1  0
 22 15  1  0
M  END
>  <id>  (229) 
302592

>  <inchikey>  (229) 
YJDMFEGQVYLGDG-SNVBAGLBSA-N

>  <alias>  (229) 
None

>  <smiles>  (229) 
CO[C@H](C)C(=S)NC(=O)Nc1cccc2c1OC(C)(C)CC2

>  <path>  (229) 
/opt/xchem-fragalysis-2/maxwin/RdRp_FFF/syndirella/mar_elabs/elabs_064/UKWFLRZSMSDWTC-UHFFFAOYSA-N/output/UKWFLRZSMSDWTC-UHFFFAOYSA-N-dEDbNy-679-A/UKWFLRZSMSDWTC-UHFFFAOYSA-N-dEDbNy-679-A.minimised.mol

>  <distance_score>  (229) 
0.951218

>  <energy_score>  (229) 
-34.295978

>  <compound>  (229) 
YJDMFEGQVYLGDG-UHFFFAOYSA-N

>  <compound_id>  (229) 
133725

>  <target>  (229) 
Flavi_NS5_RdRp

>  <tags>  (229) 
[]

>  <inspirations>  (229) 
{P Ã— 2}

>  <subsites>  (229) 
None

>  <reference>  (229) 
z0211a

>  <SLURM_JOB_ID>  (229) 
nan

>  <SLURM_JOB_NAME>  (229) 
nan

>  <csv_name>  (229) 
nan

>  <scratch_subdir>  (229) 
nan

>  <fragmenstein_runtime>  (229) 
nan

>  <fragmenstein_outcome>  (229) 
nan

>  <fragmenstein_mode>  (229) 
nan

>  <fragmenstein_error>  (229) 
nan

>  <exports>  (229) 
nan

>  <Multi-SuCOS>  (229) 
nan

>  <merge_set>  (229) 
nan

$$$$
UXMICMOZHGVNCF-NSHDSACASA-N
     RDKit          3D

 22 23  0  0  0  0  0  0  0  0999 V2000
  -24.8962  -31.1161  -16.2214 C   0  0  0  0  0  0  0  0  0  0  0  0
  -25.9791  -30.2277  -16.8559 C   0  0  0  0  0  0  0  0  0  0  0  0
  -25.3798  -28.8604  -17.1065 C   0  0  0  0  0  0  0  0  0  0  0  0
  -27.2076  -30.2014  -15.9315 C   0  0  0  0  0  0  0  0  0  0  0  0
  -28.5065  -29.7815  -16.6043 C   0  0  0  0  0  0  0  0  0  0  0  0
  -28.5217  -30.0212  -18.0788 C   0  0  0  0  0  0  0  0  0  0  0  0
  -29.7131  -29.8815  -18.7933 C   0  0  0  0  0  0  0  0  0  0  0  0
  -29.7179  -29.9186  -20.1860 C   0  0  0  0  0  0  0  0  0  0  0  0
  -28.5301  -30.1262  -20.8745 C   0  0  0  0  0  0  0  0  0  0  0  0
  -27.3708  -30.4164  -20.1714 C   0  0  0  0  0  0  0  0  0  0  0  0
  -26.2027  -30.7609  -20.8332 N   0  0  0  0  0  0  0  0  0  0  0  0
  -25.8634  -30.7442  -22.3482 C   0  0  0  0  0  0  0  0  0  0  0  0
  -26.4744  -30.3746  -23.2343 O   0  0  0  0  0  0  0  0  0  0  0  0
  -24.4677  -31.4056  -22.3042 N   0  0  0  0  0  0  0  0  0  0  0  0
  -23.5997  -31.8218  -23.3733 C   0  0  0  0  0  0  0  0  0  0  0  0
  -22.5651  -32.8344  -22.9119 C   0  0  2  0  0  0  0  0  0  0  0  0
  -21.9274  -32.3550  -21.7191 O   0  0  0  0  0  0  0  0  0  0  0  0
  -21.5696  -33.0743  -24.0399 C   0  0  0  0  0  0  0  0  0  0  0  0
  -21.7944  -33.2612  -25.2246 O   0  0  0  0  0  0  0  0  0  0  0  0
  -20.3032  -33.1309  -23.5658 O   0  0  0  0  0  0  0  0  0  0  0  0
  -27.3697  -30.3688  -18.7774 C   0  0  0  0  0  0  0  0  0  0  0  0
  -26.2187  -30.7608  -18.1564 O   0  0  0  0  0  0  0  0  0  0  0  0
  1  2  1  0
  2  3  1  0
  2  4  1  0
  4  5  1  0
  5  6  1  0
  6  7  2  0
  7  8  1  0
  8  9  2  0
  9 10  1  0
 10 11  1  0
 11 12  1  0
 12 13  2  0
 12 14  1  0
 14 15  1  0
 15 16  1  0
 16 17  1  1
 16 18  1  0
 18 19  2  0
 18 20  1  0
 10 21  2  0
 21 22  1  0
 22  2  1  0
 21  6  1  0
M  END
>  <id>  (230) 
302623

>  <inchikey>  (230) 
UXMICMOZHGVNCF-NSHDSACASA-N

>  <alias>  (230) 
None

>  <smiles>  (230) 
CC1(C)CCc2cccc(NC(=O)NC[C@H](O)C(=O)O)c2O1

>  <path>  (230) 
/opt/xchem-fragalysis-2/maxwin/RdRp_FFF/syndirella/mar_elabs/elabs_064/UKWFLRZSMSDWTC-UHFFFAOYSA-N/output/UKWFLRZSMSDWTC-UHFFFAOYSA-N-dEDbNy-700-A/UKWFLRZSMSDWTC-UHFFFAOYSA-N-dEDbNy-700-A.minimised.mol

>  <distance_score>  (230) 
0.837747

>  <energy_score>  (230) 
-16.524967

>  <compound>  (230) 
UXMICMOZHGVNCF-UHFFFAOYSA-N

>  <compound_id>  (230) 
133746

>  <target>  (230) 
Flavi_NS5_RdRp

>  <tags>  (230) 
[]

>  <inspirations>  (230) 
{P Ã— 2}

>  <subsites>  (230) 
None

>  <reference>  (230) 
z0211a

>  <SLURM_JOB_ID>  (230) 
nan

>  <SLURM_JOB_NAME>  (230) 
nan

>  <csv_name>  (230) 
nan

>  <scratch_subdir>  (230) 
nan

>  <fragmenstein_runtime>  (230) 
nan

>  <fragmenstein_outcome>  (230) 
nan

>  <fragmenstein_mode>  (230) 
nan

>  <fragmenstein_error>  (230) 
nan

>  <exports>  (230) 
nan

>  <Multi-SuCOS>  (230) 
nan

>  <merge_set>  (230) 
nan

$$$$
YLFFDTKNZYTUJA-UHFFFAOYSA-N
     RDKit          3D

 22 23  0  0  0  0  0  0  0  0999 V2000
  -23.0684  -34.7236  -23.4424 C   0  0  0  0  0  0  0  0  0  0  0  0
  -22.1981  -33.9611  -22.6223 O   0  0  0  0  0  0  0  0  0  0  0  0
  -21.9686  -32.5963  -22.9929 C   0  0  0  0  0  0  0  0  0  0  0  0
  -21.2661  -31.9592  -21.7850 C   0  0  0  0  0  0  0  0  0  0  0  0
  -20.9902  -32.5836  -24.1762 C   0  0  0  0  0  0  0  0  0  0  0  0
  -23.2406  -31.8243  -23.3873 C   0  0  0  0  0  0  0  0  0  0  0  0
  -24.2298  -31.5783  -22.3698 N   0  0  0  0  0  0  0  0  0  0  0  0
  -25.6027  -30.8559  -22.4557 C   0  0  0  0  0  0  0  0  0  0  0  0
  -26.1563  -30.4314  -23.3577 O   0  0  0  0  0  0  0  0  0  0  0  0
  -26.0094  -30.8910  -20.9485 N   0  0  0  0  0  0  0  0  0  0  0  0
  -27.1911  -30.4976  -20.3243 C   0  0  0  0  0  0  0  0  0  0  0  0
  -28.3006  -30.1650  -21.0929 C   0  0  0  0  0  0  0  0  0  0  0  0
  -29.5194  -29.9015  -20.4794 C   0  0  0  0  0  0  0  0  0  0  0  0
  -29.6024  -29.8679  -19.0921 C   0  0  0  0  0  0  0  0  0  0  0  0
  -28.4600  -30.0361  -18.3065 C   0  0  0  0  0  0  0  0  0  0  0  0
  -27.2722  -30.4200  -18.9303 C   0  0  0  0  0  0  0  0  0  0  0  0
  -26.1663  -30.8011  -18.2250 O   0  0  0  0  0  0  0  0  0  0  0  0
  -26.0001  -30.2176  -16.9300 C   0  0  0  0  0  0  0  0  0  0  0  0
  -25.4038  -28.8490  -17.1847 C   0  0  0  0  0  0  0  0  0  0  0  0
  -24.9470  -31.0735  -16.2080 C   0  0  0  0  0  0  0  0  0  0  0  0
  -27.2759  -30.1626  -16.0744 C   0  0  0  0  0  0  0  0  0  0  0  0
  -28.5335  -29.7683  -16.8356 C   0  0  0  0  0  0  0  0  0  0  0  0
  1  2  1  0
  2  3  1  0
  3  4  1  0
  3  5  1  0
  3  6  1  0
  6  7  1  0
  7  8  1  0
  8  9  2  0
  8 10  1  0
 10 11  1  0
 11 12  2  0
 12 13  1  0
 13 14  2  0
 14 15  1  0
 15 16  2  0
 16 17  1  0
 17 18  1  0
 18 19  1  0
 18 20  1  0
 18 21  1  0
 21 22  1  0
 16 11  1  0
 22 15  1  0
M  END
>  <id>  (231) 
302648

>  <inchikey>  (231) 
YLFFDTKNZYTUJA-UHFFFAOYSA-N

>  <alias>  (231) 
None

>  <smiles>  (231) 
COC(C)(C)CNC(=O)Nc1cccc2c1OC(C)(C)CC2

>  <path>  (231) 
/opt/xchem-fragalysis-2/maxwin/RdRp_FFF/syndirella/mar_elabs/elabs_064/UKWFLRZSMSDWTC-UHFFFAOYSA-N/output/UKWFLRZSMSDWTC-UHFFFAOYSA-N-dEDbNy-718-A/UKWFLRZSMSDWTC-UHFFFAOYSA-N-dEDbNy-718-A.minimised.mol

>  <distance_score>  (231) 
0.876853

>  <energy_score>  (231) 
-38.556132

>  <compound>  (231) 
YLFFDTKNZYTUJA-UHFFFAOYSA-N

>  <compound_id>  (231) 
133764

>  <target>  (231) 
Flavi_NS5_RdRp

>  <tags>  (231) 
[]

>  <inspirations>  (231) 
{P Ã— 2}

>  <subsites>  (231) 
None

>  <reference>  (231) 
z0211a

>  <SLURM_JOB_ID>  (231) 
nan

>  <SLURM_JOB_NAME>  (231) 
nan

>  <csv_name>  (231) 
nan

>  <scratch_subdir>  (231) 
nan

>  <fragmenstein_runtime>  (231) 
nan

>  <fragmenstein_outcome>  (231) 
nan

>  <fragmenstein_mode>  (231) 
nan

>  <fragmenstein_error>  (231) 
nan

>  <exports>  (231) 
nan

>  <Multi-SuCOS>  (231) 
nan

>  <merge_set>  (231) 
nan

$$$$
NLVYRVMOYORFCZ-MNOVXSKESA-N
     RDKit          3D

 23 24  0  0  0  0  0  0  0  0999 V2000
  -25.4411  -28.8632  -17.1683 C   0  0  0  0  0  0  0  0  0  0  0  0
  -26.0183  -30.2396  -16.9045 C   0  0  0  0  0  0  0  0  0  0  0  0
  -24.9127  -31.0983  -16.2653 C   0  0  0  0  0  0  0  0  0  0  0  0
  -27.2408  -30.2228  -15.9693 C   0  0  0  0  0  0  0  0  0  0  0  0
  -28.5811  -29.9759  -16.6538 C   0  0  1  0  0  0  0  0  0  0  0  0
  -29.0477  -28.6851  -16.2839 O   0  0  0  0  0  0  0  0  0  0  0  0
  -28.5581  -30.0859  -18.1454 C   0  0  0  0  0  0  0  0  0  0  0  0
  -29.7383  -29.9158  -18.8796 C   0  0  0  0  0  0  0  0  0  0  0  0
  -29.7130  -29.8695  -20.2695 C   0  0  0  0  0  0  0  0  0  0  0  0
  -28.5105  -30.0416  -20.9393 C   0  0  0  0  0  0  0  0  0  0  0  0
  -27.3683  -30.3784  -20.2256 C   0  0  0  0  0  0  0  0  0  0  0  0
  -26.2111  -30.7552  -20.8870 N   0  0  0  0  0  0  0  0  0  0  0  0
  -25.8735  -30.7527  -22.4019 C   0  0  0  0  0  0  0  0  0  0  0  0
  -26.4757  -30.3708  -23.2882 O   0  0  0  0  0  0  0  0  0  0  0  0
  -24.5281  -31.5117  -22.3616 N   0  0  0  0  0  0  0  0  0  0  0  0
  -23.7177  -32.0254  -23.4303 C   0  0  0  0  0  0  0  0  0  0  0  0
  -22.3545  -32.5078  -22.9596 C   0  0  2  0  0  0  0  0  0  0  0  0
  -21.7077  -31.5006  -22.1817 O   0  0  0  0  0  0  0  0  0  0  0  0
  -21.5447  -32.9525  -24.1739 C   0  0  0  0  0  0  0  0  0  0  0  0
  -21.9528  -33.2273  -25.2927 O   0  0  0  0  0  0  0  0  0  0  0  0
  -20.2373  -33.0937  -23.8867 O   0  0  0  0  0  0  0  0  0  0  0  0
  -27.3909  -30.3922  -18.8324 C   0  0  0  0  0  0  0  0  0  0  0  0
  -26.2532  -30.7992  -18.1978 O   0  0  0  0  0  0  0  0  0  0  0  0
  1  2  1  0
  2  3  1  0
  2  4  1  0
  4  5  1  0
  5  6  1  6
  5  7  1  0
  7  8  2  0
  8  9  1  0
  9 10  2  0
 10 11  1  0
 11 12  1  0
 12 13  1  0
 13 14  2  0
 13 15  1  0
 15 16  1  0
 16 17  1  0
 17 18  1  6
 17 19  1  0
 19 20  2  0
 19 21  1  0
 11 22  2  0
 22 23  1  0
 23  2  1  0
 22  7  1  0
M  END
>  <id>  (232) 
303031

>  <inchikey>  (232) 
NLVYRVMOYORFCZ-MNOVXSKESA-N

>  <alias>  (232) 
None

>  <smiles>  (232) 
CC1(C)C[C@@H](O)c2cccc(NC(=O)NC[C@H](O)C(=O)O)c2O1

>  <path>  (232) 
/opt/xchem-fragalysis-2/maxwin/RdRp_FFF/syndirella/mar_elabs/elabs_064/UKWFLRZSMSDWTC-UHFFFAOYSA-N/output/UKWFLRZSMSDWTC-UHFFFAOYSA-N-dEDbNy-2306-B/UKWFLRZSMSDWTC-UHFFFAOYSA-N-dEDbNy-2306-B.minimised.mol

>  <distance_score>  (232) 
0.814223

>  <energy_score>  (232) 
-11.357812

>  <compound>  (232) 
NLVYRVMOYORFCZ-UHFFFAOYSA-N

>  <compound_id>  (232) 
134069

>  <target>  (232) 
Flavi_NS5_RdRp

>  <tags>  (232) 
[]

>  <inspirations>  (232) 
{P Ã— 2}

>  <subsites>  (232) 
None

>  <reference>  (232) 
z0211a

>  <SLURM_JOB_ID>  (232) 
nan

>  <SLURM_JOB_NAME>  (232) 
nan

>  <csv_name>  (232) 
nan

>  <scratch_subdir>  (232) 
nan

>  <fragmenstein_runtime>  (232) 
nan

>  <fragmenstein_outcome>  (232) 
nan

>  <fragmenstein_mode>  (232) 
nan

>  <fragmenstein_error>  (232) 
nan

>  <exports>  (232) 
nan

>  <Multi-SuCOS>  (232) 
nan

>  <merge_set>  (232) 
nan

$$$$
GSTPJUFLXCIKOF-BXUZGUMPSA-N
     RDKit          3D

 23 24  0  0  0  0  0  0  0  0999 V2000
  -22.1622  -33.4764  -25.9140 C   0  0  0  0  0  0  0  0  0  0  0  0
  -21.0586  -33.0579  -24.9552 C   0  0  0  0  0  0  0  0  0  0  0  0
  -21.3113  -33.4397  -23.4966 C   0  0  0  0  0  0  0  0  0  0  0  0
  -22.0650  -32.4243  -22.6466 C   0  0  1  0  0  0  0  0  0  0  0  0
  -21.2440  -31.2696  -22.5008 O   0  0  0  0  0  0  0  0  0  0  0  0
  -23.4484  -32.0945  -23.1954 C   0  0  0  0  0  0  0  0  0  0  0  0
  -24.3191  -31.5677  -22.1840 N   0  0  0  0  0  0  0  0  0  0  0  0
  -25.6657  -30.8208  -22.3129 C   0  0  0  0  0  0  0  0  0  0  0  0
  -26.2212  -30.4606  -23.2383 O   0  0  0  0  0  0  0  0  0  0  0  0
  -26.0856  -30.7976  -20.8198 N   0  0  0  0  0  0  0  0  0  0  0  0
  -27.2793  -30.4184  -20.2302 C   0  0  0  0  0  0  0  0  0  0  0  0
  -28.3964  -30.1045  -20.9900 C   0  0  0  0  0  0  0  0  0  0  0  0
  -29.6159  -29.8930  -20.3587 C   0  0  0  0  0  0  0  0  0  0  0  0
  -29.6871  -29.9090  -18.9678 C   0  0  0  0  0  0  0  0  0  0  0  0
  -28.5347  -30.0782  -18.1909 C   0  0  0  0  0  0  0  0  0  0  0  0
  -27.3491  -30.3991  -18.8375 C   0  0  0  0  0  0  0  0  0  0  0  0
  -26.2323  -30.8042  -18.1633 O   0  0  0  0  0  0  0  0  0  0  0  0
  -26.0306  -30.2237  -16.8755 C   0  0  0  0  0  0  0  0  0  0  0  0
  -25.4482  -28.8525  -17.1544 C   0  0  0  0  0  0  0  0  0  0  0  0
  -24.9398  -31.0687  -16.1945 C   0  0  0  0  0  0  0  0  0  0  0  0
  -27.2789  -30.2000  -15.9762 C   0  0  0  0  0  0  0  0  0  0  0  0
  -28.6005  -29.9581  -16.7005 C   0  0  1  0  0  0  0  0  0  0  0  0
  -29.0768  -28.6660  -16.3482 O   0  0  0  0  0  0  0  0  0  0  0  0
  1  2  1  0
  2  3  1  0
  3  4  1  0
  4  5  1  6
  4  6  1  0
  6  7  1  0
  7  8  1  0
  8  9  2  0
  8 10  1  0
 10 11  1  0
 11 12  2  0
 12 13  1  0
 13 14  2  0
 14 15  1  0
 15 16  2  0
 16 17  1  0
 17 18  1  0
 18 19  1  0
 18 20  1  0
 18 21  1  0
 21 22  1  0
 22 23  1  6
 16 11  1  0
 22 15  1  0
M  END
>  <id>  (233) 
303160

>  <inchikey>  (233) 
GSTPJUFLXCIKOF-BXUZGUMPSA-N

>  <alias>  (233) 
None

>  <smiles>  (233) 
CCC[C@@H](O)CNC(=O)Nc1cccc2c1OC(C)(C)C[C@H]2O

>  <path>  (233) 
/opt/xchem-fragalysis-2/maxwin/RdRp_FFF/syndirella/mar_elabs/elabs_064/UKWFLRZSMSDWTC-UHFFFAOYSA-N/output/UKWFLRZSMSDWTC-UHFFFAOYSA-N-dEDbNy-2380-D/UKWFLRZSMSDWTC-UHFFFAOYSA-N-dEDbNy-2380-D.minimised.mol

>  <distance_score>  (233) 
0.783454

>  <energy_score>  (233) 
-2.430522

>  <compound>  (233) 
GSTPJUFLXCIKOF-UHFFFAOYSA-N

>  <compound_id>  (233) 
134140

>  <target>  (233) 
Flavi_NS5_RdRp

>  <tags>  (233) 
[]

>  <inspirations>  (233) 
{P Ã— 2}

>  <subsites>  (233) 
None

>  <reference>  (233) 
z0211a

>  <SLURM_JOB_ID>  (233) 
nan

>  <SLURM_JOB_NAME>  (233) 
nan

>  <csv_name>  (233) 
nan

>  <scratch_subdir>  (233) 
nan

>  <fragmenstein_runtime>  (233) 
nan

>  <fragmenstein_outcome>  (233) 
nan

>  <fragmenstein_mode>  (233) 
nan

>  <fragmenstein_error>  (233) 
nan

>  <exports>  (233) 
nan

>  <Multi-SuCOS>  (233) 
nan

>  <merge_set>  (233) 
nan

$$$$
XRYDWJCXIRQWCW-NEPJUHHUSA-N
     RDKit          3D

 23 24  0  0  0  0  0  0  0  0999 V2000
  -20.9615  -31.9292  -23.7621 C   0  0  0  0  0  0  0  0  0  0  0  0
  -21.6812  -33.2247  -23.4426 C   0  0  0  0  0  0  0  0  0  0  0  0
  -22.9380  -33.0064  -22.6133 C   0  0  1  0  0  0  0  0  0  0  0  0
  -22.6109  -32.3705  -21.3755 O   0  0  0  0  0  0  0  0  0  0  0  0
  -24.0837  -32.2290  -23.3177 C   0  0  0  0  0  0  0  0  0  0  0  0
  -24.1931  -32.1106  -24.5384 N   0  0  0  0  0  0  0  0  0  0  0  0
  -24.9627  -31.7546  -22.1806 N   0  0  0  0  0  0  0  0  0  0  0  0
  -26.2850  -30.8401  -22.1494 C   0  0  0  0  0  0  0  0  0  0  0  0
  -26.9227  -30.3925  -23.0008 O   0  0  0  0  0  0  0  0  0  0  0  0
  -26.4958  -30.8274  -20.6945 N   0  0  0  0  0  0  0  0  0  0  0  0
  -27.5569  -30.3606  -19.9404 C   0  0  0  0  0  0  0  0  0  0  0  0
  -28.7904  -30.0822  -20.5062 C   0  0  0  0  0  0  0  0  0  0  0  0
  -29.8884  -29.9047  -19.6753 C   0  0  0  0  0  0  0  0  0  0  0  0
  -29.7174  -29.8494  -18.2899 C   0  0  0  0  0  0  0  0  0  0  0  0
  -28.4510  -29.9936  -17.7184 C   0  0  0  0  0  0  0  0  0  0  0  0
  -27.3906  -30.3231  -18.5564 C   0  0  0  0  0  0  0  0  0  0  0  0
  -26.1737  -30.7487  -18.0963 O   0  0  0  0  0  0  0  0  0  0  0  0
  -25.7938  -30.3355  -16.7861 C   0  0  0  0  0  0  0  0  0  0  0  0
  -24.6685  -31.2826  -16.3442 C   0  0  0  0  0  0  0  0  0  0  0  0
  -25.2237  -28.9463  -16.9572 C   0  0  0  0  0  0  0  0  0  0  0  0
  -26.9209  -30.3766  -15.7481 C   0  0  0  0  0  0  0  0  0  0  0  0
  -28.2187  -29.7690  -16.2581 C   0  0  2  0  0  0  0  0  0  0  0  0
  -29.3074  -30.2170  -15.4570 O   0  0  0  0  0  0  0  0  0  0  0  0
  1  2  1  0
  2  3  1  0
  3  4  1  1
  3  5  1  0
  5  6  2  3
  5  7  1  0
  7  8  1  0
  8  9  2  0
  8 10  1  0
 10 11  1  0
 11 12  2  0
 12 13  1  0
 13 14  2  0
 14 15  1  0
 15 16  2  0
 16 17  1  0
 17 18  1  0
 18 19  1  0
 18 20  1  0
 18 21  1  0
 21 22  1  0
 22 23  1  1
 16 11  1  0
 22 15  1  0
M  END
>  <id>  (234) 
303305

>  <inchikey>  (234) 
XRYDWJCXIRQWCW-NEPJUHHUSA-N

>  <alias>  (234) 
None

>  <smiles>  (234) 
CC[C@@H](O)C(=N)NC(=O)Nc1cccc2c1OC(C)(C)C[C@@H]2O

>  <path>  (234) 
/opt/xchem-fragalysis-2/maxwin/RdRp_FFF/syndirella/mar_elabs/elabs_064/UKWFLRZSMSDWTC-UHFFFAOYSA-N/output/UKWFLRZSMSDWTC-UHFFFAOYSA-N-dEDbNy-2546-B/UKWFLRZSMSDWTC-UHFFFAOYSA-N-dEDbNy-2546-B.minimised.mol

>  <distance_score>  (234) 
1.07482

>  <energy_score>  (234) 
-21.084128

>  <compound>  (234) 
XRYDWJCXIRQWCW-UHFFFAOYSA-N

>  <compound_id>  (234) 
134235

>  <target>  (234) 
Flavi_NS5_RdRp

>  <tags>  (234) 
[]

>  <inspirations>  (234) 
{P Ã— 2}

>  <subsites>  (234) 
None

>  <reference>  (234) 
z0211a

>  <SLURM_JOB_ID>  (234) 
nan

>  <SLURM_JOB_NAME>  (234) 
nan

>  <csv_name>  (234) 
nan

>  <scratch_subdir>  (234) 
nan

>  <fragmenstein_runtime>  (234) 
nan

>  <fragmenstein_outcome>  (234) 
nan

>  <fragmenstein_mode>  (234) 
nan

>  <fragmenstein_error>  (234) 
nan

>  <exports>  (234) 
nan

>  <Multi-SuCOS>  (234) 
nan

>  <merge_set>  (234) 
nan

$$$$
AASWGZNROSMMBN-SUMWQHHRSA-N
     RDKit          3D

 23 24  0  0  0  0  0  0  0  0999 V2000
  -21.5295  -33.1680  -25.2338 C   0  0  0  0  0  0  0  0  0  0  0  0
  -21.2138  -32.9404  -23.9509 C   0  0  0  0  0  0  0  0  0  0  0  0
  -22.1242  -32.5148  -22.8202 C   0  0  1  0  0  0  0  0  0  0  0  0
  -22.1946  -33.6626  -21.8036 C   0  0  0  0  0  0  0  0  0  0  0  0
  -21.4652  -31.4271  -22.1704 O   0  0  0  0  0  0  0  0  0  0  0  0
  -23.5371  -32.0913  -23.2729 C   0  0  0  0  0  0  0  0  0  0  0  0
  -24.3840  -31.5769  -22.2280 N   0  0  0  0  0  0  0  0  0  0  0  0
  -25.7398  -30.8337  -22.3110 C   0  0  0  0  0  0  0  0  0  0  0  0
  -26.3231  -30.4670  -23.2171 O   0  0  0  0  0  0  0  0  0  0  0  0
  -26.1184  -30.8267  -20.8035 N   0  0  0  0  0  0  0  0  0  0  0  0
  -27.3002  -30.4576  -20.1755 C   0  0  0  0  0  0  0  0  0  0  0  0
  -28.4405  -30.1740  -20.9135 C   0  0  0  0  0  0  0  0  0  0  0  0
  -29.6448  -29.9386  -20.2616 C   0  0  0  0  0  0  0  0  0  0  0  0
  -29.6785  -29.8754  -18.8707 C   0  0  0  0  0  0  0  0  0  0  0  0
  -28.5076  -30.0126  -18.1199 C   0  0  0  0  0  0  0  0  0  0  0  0
  -27.3388  -30.3838  -18.7833 C   0  0  0  0  0  0  0  0  0  0  0  0
  -26.2042  -30.7668  -18.1278 O   0  0  0  0  0  0  0  0  0  0  0  0
  -25.9903  -30.2205  -16.8278 C   0  0  0  0  0  0  0  0  0  0  0  0
  -25.3710  -28.8635  -17.0858 C   0  0  0  0  0  0  0  0  0  0  0  0
  -24.9344  -31.1124  -16.1560 C   0  0  0  0  0  0  0  0  0  0  0  0
  -27.2434  -30.1773  -15.9424 C   0  0  0  0  0  0  0  0  0  0  0  0
  -28.4835  -29.6694  -16.6614 C   0  0  2  0  0  0  0  0  0  0  0  0
  -29.6439  -30.1116  -15.9607 O   0  0  0  0  0  0  0  0  0  0  0  0
  1  2  2  0
  2  3  1  0
  3  4  1  1
  3  5  1  0
  3  6  1  0
  6  7  1  0
  7  8  1  0
  8  9  2  0
  8 10  1  0
 10 11  1  0
 11 12  2  0
 12 13  1  0
 13 14  2  0
 14 15  1  0
 15 16  2  0
 16 17  1  0
 17 18  1  0
 18 19  1  0
 18 20  1  0
 18 21  1  0
 21 22  1  0
 22 23  1  1
 16 11  1  0
 22 15  1  0
M  END
>  <id>  (235) 
303308

>  <inchikey>  (235) 
AASWGZNROSMMBN-SUMWQHHRSA-N

>  <alias>  (235) 
None

>  <smiles>  (235) 
C=C[C@@](C)(O)CNC(=O)Nc1cccc2c1OC(C)(C)C[C@@H]2O

>  <path>  (235) 
/opt/xchem-fragalysis-2/maxwin/RdRp_FFF/syndirella/mar_elabs/elabs_064/UKWFLRZSMSDWTC-UHFFFAOYSA-N/output/UKWFLRZSMSDWTC-UHFFFAOYSA-N-dEDbNy-2557-B/UKWFLRZSMSDWTC-UHFFFAOYSA-N-dEDbNy-2557-B.minimised.mol

>  <distance_score>  (235) 
0.780377

>  <energy_score>  (235) 
-18.811044

>  <compound>  (235) 
AASWGZNROSMMBN-UHFFFAOYSA-N

>  <compound_id>  (235) 
134237

>  <target>  (235) 
Flavi_NS5_RdRp

>  <tags>  (235) 
[]

>  <inspirations>  (235) 
{P Ã— 2}

>  <subsites>  (235) 
None

>  <reference>  (235) 
z0211a

>  <SLURM_JOB_ID>  (235) 
nan

>  <SLURM_JOB_NAME>  (235) 
nan

>  <csv_name>  (235) 
nan

>  <scratch_subdir>  (235) 
nan

>  <fragmenstein_runtime>  (235) 
nan

>  <fragmenstein_outcome>  (235) 
nan

>  <fragmenstein_mode>  (235) 
nan

>  <fragmenstein_error>  (235) 
nan

>  <exports>  (235) 
nan

>  <Multi-SuCOS>  (235) 
nan

>  <merge_set>  (235) 
nan

$$$$
VSSZRVDHMATIGJ-MFKMUULPSA-N
     RDKit          3D

 23 24  0  0  0  0  0  0  0  0999 V2000
  -21.0593  -32.7462  -24.7605 C   0  0  0  0  0  0  0  0  0  0  0  0
  -21.1946  -33.1945  -23.3181 C   0  0  1  0  0  0  0  0  0  0  0  0
  -19.9332  -33.0556  -22.6619 O   0  0  0  0  0  0  0  0  0  0  0  0
  -22.2150  -32.3853  -22.5197 C   0  0  0  0  0  0  0  0  0  0  0  0
  -23.6068  -32.4496  -22.9857 N   0  0  0  0  0  0  0  0  0  0  0  0
  -24.0829  -33.8116  -23.2300 C   0  0  0  0  0  0  0  0  0  0  0  0
  -24.4167  -31.8569  -22.0369 N   0  0  0  0  0  0  0  0  0  0  0  0
  -25.7201  -31.0184  -22.2048 C   0  0  0  0  0  0  0  0  0  0  0  0
  -26.2434  -30.6505  -23.1497 O   0  0  0  0  0  0  0  0  0  0  0  0
  -26.1511  -30.9195  -20.7147 N   0  0  0  0  0  0  0  0  0  0  0  0
  -27.3199  -30.4435  -20.1507 C   0  0  0  0  0  0  0  0  0  0  0  0
  -28.4338  -30.1453  -20.9163 C   0  0  0  0  0  0  0  0  0  0  0  0
  -29.6449  -29.9028  -20.2796 C   0  0  0  0  0  0  0  0  0  0  0  0
  -29.7022  -29.8479  -18.8858 C   0  0  0  0  0  0  0  0  0  0  0  0
  -28.5464  -29.9817  -18.1132 C   0  0  0  0  0  0  0  0  0  0  0  0
  -27.3758  -30.3578  -18.7594 C   0  0  0  0  0  0  0  0  0  0  0  0
  -26.2529  -30.7612  -18.0925 O   0  0  0  0  0  0  0  0  0  0  0  0
  -26.0387  -30.2089  -16.7962 C   0  0  0  0  0  0  0  0  0  0  0  0
  -24.9969  -31.1088  -16.1117 C   0  0  0  0  0  0  0  0  0  0  0  0
  -25.3941  -28.8655  -17.0653 C   0  0  0  0  0  0  0  0  0  0  0  0
  -27.3006  -30.1530  -15.9230 C   0  0  0  0  0  0  0  0  0  0  0  0
  -28.5366  -29.6472  -16.6547 C   0  0  2  0  0  0  0  0  0  0  0  0
  -29.7094  -30.0965  -15.9821 O   0  0  0  0  0  0  0  0  0  0  0  0
  2  1  1  6
  2  3  1  0
  2  4  1  0
  4  5  1  0
  5  6  1  0
  5  7  1  0
  7  8  1  0
  8  9  2  0
  8 10  1  0
 10 11  1  0
 11 12  2  0
 12 13  1  0
 13 14  2  0
 14 15  1  0
 15 16  2  0
 16 17  1  0
 17 18  1  0
 18 19  1  0
 18 20  1  0
 18 21  1  0
 21 22  1  0
 22 23  1  1
 16 11  1  0
 22 15  1  0
M  END
>  <id>  (236) 
303426

>  <inchikey>  (236) 
VSSZRVDHMATIGJ-MFKMUULPSA-N

>  <alias>  (236) 
None

>  <smiles>  (236) 
C[C@@H](O)CN(C)NC(=O)Nc1cccc2c1OC(C)(C)C[C@@H]2O

>  <path>  (236) 
/opt/xchem-fragalysis-2/maxwin/RdRp_FFF/syndirella/mar_elabs/elabs_064/UKWFLRZSMSDWTC-UHFFFAOYSA-N/output/UKWFLRZSMSDWTC-UHFFFAOYSA-N-dEDbNy-2728-A/UKWFLRZSMSDWTC-UHFFFAOYSA-N-dEDbNy-2728-A.minimised.mol

>  <distance_score>  (236) 
0.784602

>  <energy_score>  (236) 
-38.349582

>  <compound>  (236) 
VSSZRVDHMATIGJ-UHFFFAOYSA-N

>  <compound_id>  (236) 
134381

>  <target>  (236) 
Flavi_NS5_RdRp

>  <tags>  (236) 
[]

>  <inspirations>  (236) 
{P Ã— 2}

>  <subsites>  (236) 
None

>  <reference>  (236) 
z0211a

>  <SLURM_JOB_ID>  (236) 
nan

>  <SLURM_JOB_NAME>  (236) 
nan

>  <csv_name>  (236) 
nan

>  <scratch_subdir>  (236) 
nan

>  <fragmenstein_runtime>  (236) 
nan

>  <fragmenstein_outcome>  (236) 
nan

>  <fragmenstein_mode>  (236) 
nan

>  <fragmenstein_error>  (236) 
nan

>  <exports>  (236) 
nan

>  <Multi-SuCOS>  (236) 
nan

>  <merge_set>  (236) 
nan

$$$$
NMXHEAOOKDDGLV-CXAGYDPISA-N
     RDKit          3D

 23 24  0  0  0  0  0  0  0  0999 V2000
  -21.0861  -32.8353  -24.9695 C   0  0  0  0  0  0  0  0  0  0  0  0
  -21.1777  -33.3401  -23.5409 C   0  0  0  0  0  0  0  0  0  0  0  0
  -21.9122  -32.4207  -22.5557 C   0  0  1  0  0  0  0  0  0  0  0  0
  -21.9116  -33.1038  -21.1791 C   0  0  0  0  0  0  0  0  0  0  0  0
  -21.1382  -31.2294  -22.4189 O   0  0  0  0  0  0  0  0  0  0  0  0
  -23.3317  -32.1210  -23.0720 C   0  0  0  0  0  0  0  0  0  0  0  0
  -24.2250  -31.5631  -22.0985 N   0  0  0  0  0  0  0  0  0  0  0  0
  -25.5972  -30.8787  -22.2771 C   0  0  0  0  0  0  0  0  0  0  0  0
  -26.1622  -30.6014  -23.2239 O   0  0  0  0  0  0  0  0  0  0  0  0
  -26.0225  -30.7743  -20.7906 N   0  0  0  0  0  0  0  0  0  0  0  0
  -27.2326  -30.4029  -20.2278 C   0  0  0  0  0  0  0  0  0  0  0  0
  -28.3366  -30.0854  -21.0053 C   0  0  0  0  0  0  0  0  0  0  0  0
  -29.5660  -29.8755  -20.3912 C   0  0  0  0  0  0  0  0  0  0  0  0
  -29.6610  -29.8990  -19.0010 C   0  0  0  0  0  0  0  0  0  0  0  0
  -28.5223  -30.0743  -18.2062 C   0  0  0  0  0  0  0  0  0  0  0  0
  -27.3284  -30.3957  -18.8364 C   0  0  0  0  0  0  0  0  0  0  0  0
  -26.2249  -30.8120  -18.1464 O   0  0  0  0  0  0  0  0  0  0  0  0
  -26.0339  -30.2222  -16.8617 C   0  0  0  0  0  0  0  0  0  0  0  0
  -25.4478  -28.8533  -17.1457 C   0  0  0  0  0  0  0  0  0  0  0  0
  -24.9498  -31.0630  -16.1651 C   0  0  0  0  0  0  0  0  0  0  0  0
  -27.2921  -30.1948  -15.9763 C   0  0  0  0  0  0  0  0  0  0  0  0
  -28.6065  -29.9561  -16.7162 C   0  0  1  0  0  0  0  0  0  0  0  0
  -29.0887  -28.6651  -16.3668 O   0  0  0  0  0  0  0  0  0  0  0  0
  1  2  1  0
  2  3  1  0
  3  4  1  1
  3  5  1  0
  3  6  1  0
  6  7  1  0
  7  8  1  0
  8  9  2  0
  8 10  1  0
 10 11  1  0
 11 12  2  0
 12 13  1  0
 13 14  2  0
 14 15  1  0
 15 16  2  0
 16 17  1  0
 17 18  1  0
 18 19  1  0
 18 20  1  0
 18 21  1  0
 21 22  1  0
 22 23  1  6
 16 11  1  0
 22 15  1  0
M  END
>  <id>  (237) 
303454

>  <inchikey>  (237) 
NMXHEAOOKDDGLV-CXAGYDPISA-N

>  <alias>  (237) 
None

>  <smiles>  (237) 
CC[C@@](C)(O)CNC(=O)Nc1cccc2c1OC(C)(C)C[C@H]2O

>  <path>  (237) 
/opt/xchem-fragalysis-2/maxwin/RdRp_FFF/syndirella/mar_elabs/elabs_064/UKWFLRZSMSDWTC-UHFFFAOYSA-N/output/UKWFLRZSMSDWTC-UHFFFAOYSA-N-dEDbNy-2735-D/UKWFLRZSMSDWTC-UHFFFAOYSA-N-dEDbNy-2735-D.minimised.mol

>  <distance_score>  (237) 
0.767062

>  <energy_score>  (237) 
-25.136121

>  <compound>  (237) 
NMXHEAOOKDDGLV-UHFFFAOYSA-N

>  <compound_id>  (237) 
134388

>  <target>  (237) 
Flavi_NS5_RdRp

>  <tags>  (237) 
[]

>  <inspirations>  (237) 
{P Ã— 2}

>  <subsites>  (237) 
None

>  <reference>  (237) 
z0211a

>  <SLURM_JOB_ID>  (237) 
nan

>  <SLURM_JOB_NAME>  (237) 
nan

>  <csv_name>  (237) 
nan

>  <scratch_subdir>  (237) 
nan

>  <fragmenstein_runtime>  (237) 
nan

>  <fragmenstein_outcome>  (237) 
nan

>  <fragmenstein_mode>  (237) 
nan

>  <fragmenstein_error>  (237) 
nan

>  <exports>  (237) 
nan

>  <Multi-SuCOS>  (237) 
nan

>  <merge_set>  (237) 
nan

$$$$
LLWBFTBPLCWLPV-WOPDTQHZSA-N
     RDKit          3D

 21 23  0  0  0  0  0  0  0  0999 V2000
  -25.3841  -28.8495  -17.1338 C   0  0  0  0  0  0  0  0  0  0  0  0
  -25.9857  -30.2081  -16.8401 C   0  0  0  0  0  0  0  0  0  0  0  0
  -24.9431  -31.0503  -16.0893 C   0  0  0  0  0  0  0  0  0  0  0  0
  -27.2745  -30.1484  -16.0087 C   0  0  0  0  0  0  0  0  0  0  0  0
  -28.4758  -29.6538  -16.7994 C   0  0  2  0  0  0  0  0  0  0  0  0
  -29.6811  -30.0500  -16.1493 O   0  0  0  0  0  0  0  0  0  0  0  0
  -28.4348  -30.0392  -18.2486 C   0  0  0  0  0  0  0  0  0  0  0  0
  -29.5621  -29.8802  -19.0574 C   0  0  0  0  0  0  0  0  0  0  0  0
  -29.4602  -29.9713  -20.4423 C   0  0  0  0  0  0  0  0  0  0  0  0
  -28.2366  -30.2798  -21.0313 C   0  0  0  0  0  0  0  0  0  0  0  0
  -27.1388  -30.5814  -20.2355 C   0  0  0  0  0  0  0  0  0  0  0  0
  -25.9296  -30.9765  -20.8024 N   0  0  0  0  0  0  0  0  0  0  0  0
  -25.4728  -30.9993  -22.2966 C   0  0  0  0  0  0  0  0  0  0  0  0
  -26.0047  -30.6265  -23.2360 O   0  0  0  0  0  0  0  0  0  0  0  0
  -24.0735  -31.6731  -22.1302 N   0  0  0  0  0  0  0  0  0  0  0  0
  -23.0564  -31.9155  -23.0809 C   0  0  2  0  0  0  0  0  0  0  0  0
  -22.2867  -33.2026  -23.1494 C   0  0  0  0  0  0  0  0  0  0  0  0
  -21.6122  -31.9557  -22.6647 C   0  0  2  0  0  0  0  0  0  0  0  0
  -21.3544  -31.9216  -21.2537 O   0  0  0  0  0  0  0  0  0  0  0  0
  -27.2427  -30.4569  -18.8472 C   0  0  0  0  0  0  0  0  0  0  0  0
  -26.1425  -30.8195  -18.1218 O   0  0  0  0  0  0  0  0  0  0  0  0
  1  2  1  0
  2  3  1  0
  2  4  1  0
  4  5  1  0
  5  6  1  1
  5  7  1  0
  7  8  2  0
  8  9  1  0
  9 10  2  0
 10 11  1  0
 11 12  1  0
 12 13  1  0
 13 14  2  0
 13 15  1  0
 16 15  1  1
 16 17  1  0
 17 18  1  0
 18 19  1  1
 11 20  2  0
 20 21  1  0
 21  2  1  0
 20  7  1  0
 18 16  1  0
M  END
>  <id>  (238) 
303618

>  <inchikey>  (238) 
LLWBFTBPLCWLPV-WOPDTQHZSA-N

>  <alias>  (238) 
None

>  <smiles>  (238) 
CC1(C)C[C@H](O)c2cccc(NC(=O)N[C@@H]3C[C@@H]3O)c2O1

>  <path>  (238) 
/opt/xchem-fragalysis-2/maxwin/RdRp_FFF/syndirella/mar_elabs/elabs_064/UKWFLRZSMSDWTC-UHFFFAOYSA-N/output/UKWFLRZSMSDWTC-UHFFFAOYSA-N-9p8iBB-14-A/UKWFLRZSMSDWTC-UHFFFAOYSA-N-9p8iBB-14-A.minimised.mol

>  <distance_score>  (238) 
0.811691

>  <energy_score>  (238) 
-20.165788

>  <compound>  (238) 
LLWBFTBPLCWLPV-UHFFFAOYSA-N

>  <compound_id>  (238) 
133445

>  <target>  (238) 
Flavi_NS5_RdRp

>  <tags>  (238) 
[]

>  <inspirations>  (238) 
{P Ã— 2}

>  <subsites>  (238) 
None

>  <reference>  (238) 
z0211a

>  <SLURM_JOB_ID>  (238) 
nan

>  <SLURM_JOB_NAME>  (238) 
nan

>  <csv_name>  (238) 
nan

>  <scratch_subdir>  (238) 
nan

>  <fragmenstein_runtime>  (238) 
nan

>  <fragmenstein_outcome>  (238) 
nan

>  <fragmenstein_mode>  (238) 
nan

>  <fragmenstein_error>  (238) 
nan

>  <exports>  (238) 
nan

>  <Multi-SuCOS>  (238) 
nan

>  <merge_set>  (238) 
nan

$$$$
BLRQTOAVUSSIKE-NSHDSACASA-N
     RDKit          3D

 21 22  0  0  0  0  0  0  0  0999 V2000
  -20.6880  -32.0603  -20.9091 C   0  0  0  0  0  0  0  0  0  0  0  0
  -21.7902  -32.6486  -21.5859 O   0  0  0  0  0  0  0  0  0  0  0  0
  -21.9856  -32.1435  -22.9141 C   0  0  1  0  0  0  0  0  0  0  0  0
  -21.1907  -32.9898  -23.8972 C   0  0  0  0  0  0  0  0  0  0  0  0
  -23.4743  -32.2450  -23.2552 C   0  0  0  0  0  0  0  0  0  0  0  0
  -24.3170  -31.7009  -22.2291 N   0  0  0  0  0  0  0  0  0  0  0  0
  -25.6348  -30.8957  -22.3364 C   0  0  0  0  0  0  0  0  0  0  0  0
  -26.1805  -30.4963  -23.2528 O   0  0  0  0  0  0  0  0  0  0  0  0
  -26.0466  -30.8813  -20.8365 N   0  0  0  0  0  0  0  0  0  0  0  0
  -27.2240  -30.4624  -20.2317 C   0  0  0  0  0  0  0  0  0  0  0  0
  -28.3426  -30.1451  -20.9901 C   0  0  0  0  0  0  0  0  0  0  0  0
  -29.5533  -29.8878  -20.3572 C   0  0  0  0  0  0  0  0  0  0  0  0
  -29.6153  -29.8516  -18.9662 C   0  0  0  0  0  0  0  0  0  0  0  0
  -28.4632  -30.0176  -18.1953 C   0  0  0  0  0  0  0  0  0  0  0  0
  -27.2871  -30.3957  -18.8381 C   0  0  0  0  0  0  0  0  0  0  0  0
  -26.1733  -30.7957  -18.1554 O   0  0  0  0  0  0  0  0  0  0  0  0
  -25.9815  -30.2186  -16.8641 C   0  0  0  0  0  0  0  0  0  0  0  0
  -25.3873  -28.8517  -17.1326 C   0  0  0  0  0  0  0  0  0  0  0  0
  -24.9153  -31.0781  -16.1659 C   0  0  0  0  0  0  0  0  0  0  0  0
  -27.2438  -30.1767  -15.9879 C   0  0  0  0  0  0  0  0  0  0  0  0
  -28.5147  -29.7704  -16.7214 C   0  0  0  0  0  0  0  0  0  0  0  0
  1  2  1  0
  2  3  1  0
  3  4  1  6
  3  5  1  0
  5  6  1  0
  6  7  1  0
  7  8  2  0
  7  9  1  0
  9 10  1  0
 10 11  2  0
 11 12  1  0
 12 13  2  0
 13 14  1  0
 14 15  2  0
 15 16  1  0
 16 17  1  0
 17 18  1  0
 17 19  1  0
 17 20  1  0
 20 21  1  0
 15 10  1  0
 21 14  1  0
M  END
>  <id>  (239) 
303647

>  <inchikey>  (239) 
BLRQTOAVUSSIKE-NSHDSACASA-N

>  <alias>  (239) 
None

>  <smiles>  (239) 
CO[C@@H](C)CNC(=O)Nc1cccc2c1OC(C)(C)CC2

>  <path>  (239) 
/opt/xchem-fragalysis-2/maxwin/RdRp_FFF/syndirella/mar_elabs/elabs_064/UKWFLRZSMSDWTC-UHFFFAOYSA-N/output/UKWFLRZSMSDWTC-UHFFFAOYSA-N-9p8iBB-53-B/UKWFLRZSMSDWTC-UHFFFAOYSA-N-9p8iBB-53-B.minimised.mol

>  <distance_score>  (239) 
0.770808

>  <energy_score>  (239) 
-0.23835

>  <compound>  (239) 
BLRQTOAVUSSIKE-UHFFFAOYSA-N

>  <compound_id>  (239) 
133474

>  <target>  (239) 
Flavi_NS5_RdRp

>  <tags>  (239) 
[]

>  <inspirations>  (239) 
{P Ã— 2}

>  <subsites>  (239) 
None

>  <reference>  (239) 
z0211a

>  <SLURM_JOB_ID>  (239) 
nan

>  <SLURM_JOB_NAME>  (239) 
nan

>  <csv_name>  (239) 
nan

>  <scratch_subdir>  (239) 
nan

>  <fragmenstein_runtime>  (239) 
nan

>  <fragmenstein_outcome>  (239) 
nan

>  <fragmenstein_mode>  (239) 
nan

>  <fragmenstein_error>  (239) 
nan

>  <exports>  (239) 
nan

>  <Multi-SuCOS>  (239) 
nan

>  <merge_set>  (239) 
nan

$$$$
QJNRSLRJUIKBJR-SECBINFHSA-N
     RDKit          3D

 21 22  0  0  0  0  0  0  0  0999 V2000
  -21.2069  -32.7968  -23.7328 C   0  0  0  0  0  0  0  0  0  0  0  0
  -22.3422  -32.5714  -22.7502 C   0  0  1  0  0  0  0  0  0  0  0  0
  -21.9190  -31.6443  -21.7522 O   0  0  0  0  0  0  0  0  0  0  0  0
  -23.6342  -32.0412  -23.4022 C   0  0  0  0  0  0  0  0  0  0  0  0
  -23.7965  -32.0762  -24.6232 N   0  0  0  0  0  0  0  0  0  0  0  0
  -24.4838  -31.4645  -22.2963 N   0  0  0  0  0  0  0  0  0  0  0  0
  -25.9434  -30.7903  -22.2996 C   0  0  0  0  0  0  0  0  0  0  0  0
  -26.6507  -30.5167  -23.1673 O   0  0  0  0  0  0  0  0  0  0  0  0
  -26.1517  -30.7144  -20.8380 N   0  0  0  0  0  0  0  0  0  0  0  0
  -27.2827  -30.3822  -20.0996 C   0  0  0  0  0  0  0  0  0  0  0  0
  -28.4956  -30.1069  -20.7211 C   0  0  0  0  0  0  0  0  0  0  0  0
  -29.6371  -29.8992  -19.9552 C   0  0  0  0  0  0  0  0  0  0  0  0
  -29.5437  -29.8595  -18.5653 C   0  0  0  0  0  0  0  0  0  0  0  0
  -28.3123  -30.0327  -17.9295 C   0  0  0  0  0  0  0  0  0  0  0  0
  -27.2024  -30.3664  -18.7074 C   0  0  0  0  0  0  0  0  0  0  0  0
  -26.0245  -30.7994  -18.1625 O   0  0  0  0  0  0  0  0  0  0  0  0
  -25.7236  -30.3048  -16.8580 C   0  0  0  0  0  0  0  0  0  0  0  0
  -25.2302  -28.8900  -17.0621 C   0  0  0  0  0  0  0  0  0  0  0  0
  -24.5731  -31.1700  -16.3246 C   0  0  0  0  0  0  0  0  0  0  0  0
  -26.8923  -30.3584  -15.8647 C   0  0  0  0  0  0  0  0  0  0  0  0
  -28.2132  -29.8708  -16.4443 C   0  0  0  0  0  0  0  0  0  0  0  0
  2  1  1  6
  2  3  1  0
  2  4  1  0
  4  5  2  3
  4  6  1  0
  6  7  1  0
  7  8  2  0
  7  9  1  0
  9 10  1  0
 10 11  2  0
 11 12  1  0
 12 13  2  0
 13 14  1  0
 14 15  2  0
 15 16  1  0
 16 17  1  0
 17 18  1  0
 17 19  1  0
 17 20  1  0
 20 21  1  0
 15 10  1  0
 21 14  1  0
M  END
>  <id>  (240) 
303655

>  <inchikey>  (240) 
QJNRSLRJUIKBJR-SECBINFHSA-N

>  <alias>  (240) 
None

>  <smiles>  (240) 
C[C@@H](O)C(=N)NC(=O)Nc1cccc2c1OC(C)(C)CC2

>  <path>  (240) 
/opt/xchem-fragalysis-2/maxwin/RdRp_FFF/syndirella/mar_elabs/elabs_064/UKWFLRZSMSDWTC-UHFFFAOYSA-N/output/UKWFLRZSMSDWTC-UHFFFAOYSA-N-9p8iBB-58-B/UKWFLRZSMSDWTC-UHFFFAOYSA-N-9p8iBB-58-B.minimised.mol

>  <distance_score>  (240) 
0.913597

>  <energy_score>  (240) 
-40.187281

>  <compound>  (240) 
QJNRSLRJUIKBJR-UHFFFAOYSA-N

>  <compound_id>  (240) 
133479

>  <target>  (240) 
Flavi_NS5_RdRp

>  <tags>  (240) 
[]

>  <inspirations>  (240) 
{P Ã— 2}

>  <subsites>  (240) 
None

>  <reference>  (240) 
z0211a

>  <SLURM_JOB_ID>  (240) 
nan

>  <SLURM_JOB_NAME>  (240) 
nan

>  <csv_name>  (240) 
nan

>  <scratch_subdir>  (240) 
nan

>  <fragmenstein_runtime>  (240) 
nan

>  <fragmenstein_outcome>  (240) 
nan

>  <fragmenstein_mode>  (240) 
nan

>  <fragmenstein_error>  (240) 
nan

>  <exports>  (240) 
nan

>  <Multi-SuCOS>  (240) 
nan

>  <merge_set>  (240) 
nan

$$$$
RAPUEHJGSGNBLF-YPMHNXCESA-N
     RDKit          3D

 21 23  0  0  0  0  0  0  0  0999 V2000
  -24.8948  -31.0840  -16.1903 C   0  0  0  0  0  0  0  0  0  0  0  0
  -25.9628  -30.2287  -16.8904 C   0  0  0  0  0  0  0  0  0  0  0  0
  -25.3781  -28.8558  -17.1496 C   0  0  0  0  0  0  0  0  0  0  0  0
  -27.2261  -30.1884  -16.0155 C   0  0  0  0  0  0  0  0  0  0  0  0
  -28.4955  -29.7879  -16.7537 C   0  0  0  0  0  0  0  0  0  0  0  0
  -28.4376  -30.0310  -18.2290 C   0  0  0  0  0  0  0  0  0  0  0  0
  -29.5879  -29.8542  -18.9999 C   0  0  0  0  0  0  0  0  0  0  0  0
  -29.5217  -29.8752  -20.3898 C   0  0  0  0  0  0  0  0  0  0  0  0
  -28.3082  -30.1244  -21.0217 C   0  0  0  0  0  0  0  0  0  0  0  0
  -27.1883  -30.4521  -20.2670 C   0  0  0  0  0  0  0  0  0  0  0  0
  -26.0027  -30.8349  -20.8879 N   0  0  0  0  0  0  0  0  0  0  0  0
  -25.6189  -30.8667  -22.4010 C   0  0  0  0  0  0  0  0  0  0  0  0
  -26.2008  -30.5121  -23.3161 O   0  0  0  0  0  0  0  0  0  0  0  0
  -24.2584  -31.6152  -22.3034 N   0  0  0  0  0  0  0  0  0  0  0  0
  -23.4028  -32.1527  -23.3488 C   0  0  2  0  0  0  0  0  0  0  0  0
  -23.1066  -33.6587  -23.1959 C   0  0  0  0  0  0  0  0  0  0  0  0
  -21.6457  -33.3549  -23.5653 C   0  0  0  0  0  0  0  0  0  0  0  0
  -21.8879  -31.8945  -23.1550 C   0  0  2  0  0  0  0  0  0  0  0  0
  -21.4642  -31.5423  -21.8229 O   0  0  0  0  0  0  0  0  0  0  0  0
  -27.2582  -30.4058  -18.8718 C   0  0  0  0  0  0  0  0  0  0  0  0
  -26.1482  -30.8065  -18.1840 O   0  0  0  0  0  0  0  0  0  0  0  0
  1  2  1  0
  2  3  1  0
  2  4  1  0
  4  5  1  0
  5  6  1  0
  6  7  2  0
  7  8  1  0
  8  9  2  0
  9 10  1  0
 10 11  1  0
 11 12  1  0
 12 13  2  0
 12 14  1  0
 15 14  1  1
 15 16  1  0
 16 17  1  0
 17 18  1  0
 18 19  1  1
 10 20  2  0
 20 21  1  0
 21  2  1  0
 20  6  1  0
 18 15  1  0
M  END
>  <id>  (241) 
303662

>  <inchikey>  (241) 
RAPUEHJGSGNBLF-YPMHNXCESA-N

>  <alias>  (241) 
None

>  <smiles>  (241) 
CC1(C)CCc2cccc(NC(=O)N[C@@H]3CC[C@@H]3O)c2O1

>  <path>  (241) 
/opt/xchem-fragalysis-2/maxwin/RdRp_FFF/syndirella/mar_elabs/elabs_064/UKWFLRZSMSDWTC-UHFFFAOYSA-N/output/UKWFLRZSMSDWTC-UHFFFAOYSA-N-9p8iBB-64-A/UKWFLRZSMSDWTC-UHFFFAOYSA-N-9p8iBB-64-A.minimised.mol

>  <distance_score>  (241) 
0.768768

>  <energy_score>  (241) 
-8.818092

>  <compound>  (241) 
RAPUEHJGSGNBLF-UHFFFAOYSA-N

>  <compound_id>  (241) 
133464

>  <target>  (241) 
Flavi_NS5_RdRp

>  <tags>  (241) 
[]

>  <inspirations>  (241) 
{P Ã— 2}

>  <subsites>  (241) 
None

>  <reference>  (241) 
z0211a

>  <SLURM_JOB_ID>  (241) 
nan

>  <SLURM_JOB_NAME>  (241) 
nan

>  <csv_name>  (241) 
nan

>  <scratch_subdir>  (241) 
nan

>  <fragmenstein_runtime>  (241) 
nan

>  <fragmenstein_outcome>  (241) 
nan

>  <fragmenstein_mode>  (241) 
nan

>  <fragmenstein_error>  (241) 
nan

>  <exports>  (241) 
nan

>  <Multi-SuCOS>  (241) 
nan

>  <merge_set>  (241) 
nan

$$$$
SKPVZCZELRJTRH-UHFFFAOYSA-N
     RDKit          3D

 21 23  0  0  0  0  0  0  0  0999 V2000
  -20.1927  -33.0752  -21.9586 C   0  0  0  0  0  0  0  0  0  0  0  0
  -20.9708  -32.7320  -23.0999 O   0  0  0  0  0  0  0  0  0  0  0  0
  -22.3559  -32.3639  -22.8651 C   0  0  0  0  0  0  0  0  0  0  0  0
  -22.8148  -31.9714  -21.4869 C   0  0  0  0  0  0  0  0  0  0  0  0
  -24.1913  -32.6607  -21.7307 N   0  0  0  0  0  0  0  0  0  0  0  0
  -25.2728  -31.6396  -22.0685 C   0  0  0  0  0  0  0  0  0  0  0  0
  -25.6071  -31.2253  -23.0815 O   0  0  0  0  0  0  0  0  0  0  0  0
  -25.8503  -31.4073  -20.6526 N   0  0  0  0  0  0  0  0  0  0  0  0
  -26.9801  -30.7104  -20.2446 C   0  0  0  0  0  0  0  0  0  0  0  0
  -27.9667  -30.3147  -21.1365 C   0  0  0  0  0  0  0  0  0  0  0  0
  -29.1910  -29.8688  -20.6428 C   0  0  0  0  0  0  0  0  0  0  0  0
  -29.4007  -29.7758  -19.2684 C   0  0  0  0  0  0  0  0  0  0  0  0
  -28.3594  -30.0031  -18.3705 C   0  0  0  0  0  0  0  0  0  0  0  0
  -27.1613  -30.5040  -18.8728 C   0  0  0  0  0  0  0  0  0  0  0  0
  -26.1333  -30.8962  -18.0573 O   0  0  0  0  0  0  0  0  0  0  0  0
  -26.0262  -30.1956  -16.8179 C   0  0  0  0  0  0  0  0  0  0  0  0
  -25.4254  -28.8473  -17.1669 C   0  0  0  0  0  0  0  0  0  0  0  0
  -25.0089  -30.9762  -15.9722 C   0  0  0  0  0  0  0  0  0  0  0  0
  -27.3556  -30.1069  -16.0530 C   0  0  0  0  0  0  0  0  0  0  0  0
  -28.5495  -29.7116  -16.9148 C   0  0  0  0  0  0  0  0  0  0  0  0
  -23.3154  -33.4976  -22.6349 C   0  0  0  0  0  0  0  0  0  0  0  0
  1  2  1  0
  2  3  1  0
  3  4  1  0
  4  5  1  0
  5  6  1  0
  6  7  2  0
  6  8  1  0
  8  9  1  0
  9 10  2  0
 10 11  1  0
 11 12  2  0
 12 13  1  0
 13 14  2  0
 14 15  1  0
 15 16  1  0
 16 17  1  0
 16 18  1  0
 16 19  1  0
 19 20  1  0
  5 21  1  0
 21  3  1  0
 14  9  1  0
 20 13  1  0
M  END
>  <id>  (242) 
303671

>  <inchikey>  (242) 
SKPVZCZELRJTRH-UHFFFAOYSA-N

>  <alias>  (242) 
None

>  <smiles>  (242) 
COC1CN(C(=O)Nc2cccc3c2OC(C)(C)CC3)C1

>  <path>  (242) 
/opt/xchem-fragalysis-2/maxwin/RdRp_FFF/syndirella/mar_elabs/elabs_064/UKWFLRZSMSDWTC-UHFFFAOYSA-N/output/UKWFLRZSMSDWTC-UHFFFAOYSA-N-9p8iBB-69-A/UKWFLRZSMSDWTC-UHFFFAOYSA-N-9p8iBB-69-A.minimised.mol

>  <distance_score>  (242) 
0.946091

>  <energy_score>  (242) 
-18.406963

>  <compound>  (242) 
SKPVZCZELRJTRH-UHFFFAOYSA-N

>  <compound_id>  (242) 
133472

>  <target>  (242) 
Flavi_NS5_RdRp

>  <tags>  (242) 
[]

>  <inspirations>  (242) 
{P Ã— 2}

>  <subsites>  (242) 
None

>  <reference>  (242) 
z0211a

>  <SLURM_JOB_ID>  (242) 
nan

>  <SLURM_JOB_NAME>  (242) 
nan

>  <csv_name>  (242) 
nan

>  <scratch_subdir>  (242) 
nan

>  <fragmenstein_runtime>  (242) 
nan

>  <fragmenstein_outcome>  (242) 
nan

>  <fragmenstein_mode>  (242) 
nan

>  <fragmenstein_error>  (242) 
nan

>  <exports>  (242) 
nan

>  <Multi-SuCOS>  (242) 
nan

>  <merge_set>  (242) 
nan

$$$$
VPSSAANDLRVFSC-LLVKDONJSA-N
     RDKit          3D

 21 22  0  0  0  0  0  0  0  0999 V2000
  -25.3720  -28.8595  -17.1194 C   0  0  0  0  0  0  0  0  0  0  0  0
  -25.9569  -30.2320  -16.8613 C   0  0  0  0  0  0  0  0  0  0  0  0
  -24.8707  -31.1045  -16.2116 C   0  0  0  0  0  0  0  0  0  0  0  0
  -27.1911  -30.2061  -15.9449 C   0  0  0  0  0  0  0  0  0  0  0  0
  -28.4836  -29.7873  -16.6303 C   0  0  0  0  0  0  0  0  0  0  0  0
  -28.4834  -30.0251  -18.1060 C   0  0  0  0  0  0  0  0  0  0  0  0
  -29.6671  -29.8701  -18.8301 C   0  0  0  0  0  0  0  0  0  0  0  0
  -29.6595  -29.9048  -20.2220 C   0  0  0  0  0  0  0  0  0  0  0  0
  -28.4686  -30.1334  -20.8991 C   0  0  0  0  0  0  0  0  0  0  0  0
  -27.3172  -30.4414  -20.1873 C   0  0  0  0  0  0  0  0  0  0  0  0
  -26.1599  -30.8233  -20.8516 N   0  0  0  0  0  0  0  0  0  0  0  0
  -25.8144  -30.7975  -22.3675 C   0  0  0  0  0  0  0  0  0  0  0  0
  -26.4075  -30.3900  -23.2500 O   0  0  0  0  0  0  0  0  0  0  0  0
  -24.4764  -31.5784  -22.3358 N   0  0  0  0  0  0  0  0  0  0  0  0
  -23.5721  -31.9188  -23.3999 C   0  0  0  0  0  0  0  0  0  0  0  0
  -22.2382  -32.4739  -22.9075 C   0  0  2  0  0  0  0  0  0  0  0  0
  -21.6902  -31.6021  -21.9072 O   0  0  0  0  0  0  0  0  0  0  0  0
  -21.1964  -32.6283  -24.0139 C   0  0  0  0  0  0  0  0  0  0  0  0
  -21.7772  -33.4641  -25.4747 Cl  0  0  0  0  0  0  0  0  0  0  0  0
  -27.3273  -30.3873  -18.7937 C   0  0  0  0  0  0  0  0  0  0  0  0
  -26.1857  -30.7827  -18.1578 O   0  0  0  0  0  0  0  0  0  0  0  0
  1  2  1  0
  2  3  1  0
  2  4  1  0
  4  5  1  0
  5  6  1  0
  6  7  2  0
  7  8  1  0
  8  9  2  0
  9 10  1  0
 10 11  1  0
 11 12  1  0
 12 13  2  0
 12 14  1  0
 14 15  1  0
 15 16  1  0
 16 17  1  1
 16 18  1  0
 18 19  1  0
 10 20  2  0
 20 21  1  0
 21  2  1  0
 20  6  1  0
M  END
>  <id>  (243) 
303687

>  <inchikey>  (243) 
VPSSAANDLRVFSC-LLVKDONJSA-N

>  <alias>  (243) 
None

>  <smiles>  (243) 
CC1(C)CCc2cccc(NC(=O)NC[C@H](O)CCl)c2O1

>  <path>  (243) 
/opt/xchem-fragalysis-2/maxwin/RdRp_FFF/syndirella/mar_elabs/elabs_064/UKWFLRZSMSDWTC-UHFFFAOYSA-N/output/UKWFLRZSMSDWTC-UHFFFAOYSA-N-9p8iBB-94-A/UKWFLRZSMSDWTC-UHFFFAOYSA-N-9p8iBB-94-A.minimised.mol

>  <distance_score>  (243) 
0.812485

>  <energy_score>  (243) 
-26.016726

>  <compound>  (243) 
VPSSAANDLRVFSC-UHFFFAOYSA-N

>  <compound_id>  (243) 
133488

>  <target>  (243) 
Flavi_NS5_RdRp

>  <tags>  (243) 
[]

>  <inspirations>  (243) 
{P Ã— 2}

>  <subsites>  (243) 
None

>  <reference>  (243) 
z0211a

>  <SLURM_JOB_ID>  (243) 
nan

>  <SLURM_JOB_NAME>  (243) 
nan

>  <csv_name>  (243) 
nan

>  <scratch_subdir>  (243) 
nan

>  <fragmenstein_runtime>  (243) 
nan

>  <fragmenstein_outcome>  (243) 
nan

>  <fragmenstein_mode>  (243) 
nan

>  <fragmenstein_error>  (243) 
nan

>  <exports>  (243) 
nan

>  <Multi-SuCOS>  (243) 
nan

>  <merge_set>  (243) 
nan

$$$$
URPZKWZTFNJAJD-KGYLQXTDSA-N
     RDKit          3D

 22 24  0  0  0  0  0  0  0  0999 V2000
  -24.9054  -31.0356  -16.1670 C   0  0  0  0  0  0  0  0  0  0  0  0
  -25.9965  -30.2197  -16.8809 C   0  0  0  0  0  0  0  0  0  0  0  0
  -25.4363  -28.8421  -17.1722 C   0  0  0  0  0  0  0  0  0  0  0  0
  -27.2598  -30.1987  -16.0035 C   0  0  0  0  0  0  0  0  0  0  0  0
  -28.5657  -29.9604  -16.7559 C   0  0  1  0  0  0  0  0  0  0  0  0
  -29.0513  -28.6666  -16.4195 O   0  0  0  0  0  0  0  0  0  0  0  0
  -28.4677  -30.0961  -18.2454 C   0  0  0  0  0  0  0  0  0  0  0  0
  -29.6048  -29.9195  -19.0428 C   0  0  0  0  0  0  0  0  0  0  0  0
  -29.5083  -29.9269  -20.4306 C   0  0  0  0  0  0  0  0  0  0  0  0
  -28.2805  -30.1714  -21.0375 C   0  0  0  0  0  0  0  0  0  0  0  0
  -27.1702  -30.4753  -20.2594 C   0  0  0  0  0  0  0  0  0  0  0  0
  -25.9544  -30.8112  -20.8423 N   0  0  0  0  0  0  0  0  0  0  0  0
  -25.5336  -30.8584  -22.3421 C   0  0  0  0  0  0  0  0  0  0  0  0
  -26.1097  -30.5553  -23.2782 O   0  0  0  0  0  0  0  0  0  0  0  0
  -24.1209  -31.4907  -22.1930 N   0  0  0  0  0  0  0  0  0  0  0  0
  -23.1888  -31.9560  -23.2030 C   0  0  2  0  0  0  0  0  0  0  0  0
  -23.0317  -33.4875  -23.2656 C   0  0  0  0  0  0  0  0  0  0  0  0
  -21.5249  -33.2621  -23.4811 C   0  0  0  0  0  0  0  0  0  0  0  0
  -21.6861  -31.8747  -22.8301 C   0  0  2  0  0  0  0  0  0  0  0  0
  -21.3423  -31.7986  -21.4289 O   0  0  0  0  0  0  0  0  0  0  0  0
  -27.2689  -30.4349  -18.8676 C   0  0  0  0  0  0  0  0  0  0  0  0
  -26.1680  -30.8285  -18.1609 O   0  0  0  0  0  0  0  0  0  0  0  0
  1  2  1  0
  2  3  1  0
  2  4  1  0
  4  5  1  0
  5  6  1  6
  5  7  1  0
  7  8  2  0
  8  9  1  0
  9 10  2  0
 10 11  1  0
 11 12  1  0
 12 13  1  0
 13 14  2  0
 13 15  1  0
 16 15  1  1
 16 17  1  0
 17 18  1  0
 18 19  1  0
 19 20  1  1
 11 21  2  0
 21 22  1  0
 22  2  1  0
 21  7  1  0
 19 16  1  0
M  END
>  <id>  (244) 
303858

>  <inchikey>  (244) 
URPZKWZTFNJAJD-KGYLQXTDSA-N

>  <alias>  (244) 
None

>  <smiles>  (244) 
CC1(C)C[C@@H](O)c2cccc(NC(=O)N[C@@H]3CC[C@@H]3O)c2O1

>  <path>  (244) 
/opt/xchem-fragalysis-2/maxwin/RdRp_FFF/syndirella/mar_elabs/elabs_064/UKWFLRZSMSDWTC-UHFFFAOYSA-N/output/UKWFLRZSMSDWTC-UHFFFAOYSA-N-9p8iBB-558-B/UKWFLRZSMSDWTC-UHFFFAOYSA-N-9p8iBB-558-B.minimised.mol

>  <distance_score>  (244) 
0.754115

>  <energy_score>  (244) 
-3.849893

>  <compound>  (244) 
URPZKWZTFNJAJD-UHFFFAOYSA-N

>  <compound_id>  (244) 
133670

>  <target>  (244) 
Flavi_NS5_RdRp

>  <tags>  (244) 
[]

>  <inspirations>  (244) 
{P Ã— 2}

>  <subsites>  (244) 
None

>  <reference>  (244) 
z0211a

>  <SLURM_JOB_ID>  (244) 
nan

>  <SLURM_JOB_NAME>  (244) 
nan

>  <csv_name>  (244) 
nan

>  <scratch_subdir>  (244) 
nan

>  <fragmenstein_runtime>  (244) 
nan

>  <fragmenstein_outcome>  (244) 
nan

>  <fragmenstein_mode>  (244) 
nan

>  <fragmenstein_error>  (244) 
nan

>  <exports>  (244) 
nan

>  <Multi-SuCOS>  (244) 
nan

>  <merge_set>  (244) 
nan

$$$$
COUHIUXGFFNVQU-QGZVFWFLSA-N
     RDKit          3D

 22 23  0  0  0  0  0  0  0  0999 V2000
  -22.4331  -34.7858  -22.8521 C   0  0  0  0  0  0  0  0  0  0  0  0
  -21.6972  -33.5626  -23.3950 C   0  0  0  0  0  0  0  0  0  0  0  0
  -22.1213  -32.2345  -22.7494 C   0  0  1  0  0  0  0  0  0  0  0  0
  -21.9083  -32.2679  -21.2326 C   0  0  0  0  0  0  0  0  0  0  0  0
  -21.1982  -31.2521  -23.2412 O   0  0  0  0  0  0  0  0  0  0  0  0
  -23.5539  -31.8654  -23.2138 C   0  0  0  0  0  0  0  0  0  0  0  0
  -24.4881  -31.5211  -22.1821 N   0  0  0  0  0  0  0  0  0  0  0  0
  -25.8363  -30.7734  -22.2631 C   0  0  0  0  0  0  0  0  0  0  0  0
  -26.4165  -30.3998  -23.1670 O   0  0  0  0  0  0  0  0  0  0  0  0
  -26.2143  -30.7725  -20.7615 N   0  0  0  0  0  0  0  0  0  0  0  0
  -27.3896  -30.4029  -20.1344 C   0  0  0  0  0  0  0  0  0  0  0  0
  -28.5384  -30.1157  -20.8520 C   0  0  0  0  0  0  0  0  0  0  0  0
  -29.7303  -29.9108  -20.1702 C   0  0  0  0  0  0  0  0  0  0  0  0
  -29.7355  -29.8720  -18.7754 C   0  0  0  0  0  0  0  0  0  0  0  0
  -28.5502  -30.0062  -18.0502 C   0  0  0  0  0  0  0  0  0  0  0  0
  -27.3973  -30.3534  -18.7413 C   0  0  0  0  0  0  0  0  0  0  0  0
  -26.2489  -30.7542  -18.1196 O   0  0  0  0  0  0  0  0  0  0  0  0
  -26.0065  -30.2207  -16.8210 C   0  0  0  0  0  0  0  0  0  0  0  0
  -24.9317  -31.1167  -16.1828 C   0  0  0  0  0  0  0  0  0  0  0  0
  -25.3902  -28.8626  -17.0807 C   0  0  0  0  0  0  0  0  0  0  0  0
  -27.2389  -30.1879  -15.9015 C   0  0  0  0  0  0  0  0  0  0  0  0
  -28.5378  -29.7669  -16.5765 C   0  0  0  0  0  0  0  0  0  0  0  0
  1  2  1  0
  2  3  1  0
  3  4  1  1
  3  5  1  0
  3  6  1  0
  6  7  1  0
  7  8  1  0
  8  9  2  0
  8 10  1  0
 10 11  1  0
 11 12  2  0
 12 13  1  0
 13 14  2  0
 14 15  1  0
 15 16  2  0
 16 17  1  0
 17 18  1  0
 18 19  1  0
 18 20  1  0
 18 21  1  0
 21 22  1  0
 16 11  1  0
 22 15  1  0
M  END
>  <id>  (245) 
303958

>  <inchikey>  (245) 
COUHIUXGFFNVQU-QGZVFWFLSA-N

>  <alias>  (245) 
None

>  <smiles>  (245) 
CC[C@@](C)(O)CNC(=O)Nc1cccc2c1OC(C)(C)CC2

>  <path>  (245) 
/opt/xchem-fragalysis-2/maxwin/RdRp_FFF/syndirella/mar_elabs/elabs_064/UKWFLRZSMSDWTC-UHFFFAOYSA-N/output/UKWFLRZSMSDWTC-UHFFFAOYSA-N-9p8iBB-668-B/UKWFLRZSMSDWTC-UHFFFAOYSA-N-9p8iBB-668-B.minimised.mol

>  <distance_score>  (245) 
0.871731

>  <energy_score>  (245) 
-4.708717

>  <compound>  (245) 
COUHIUXGFFNVQU-UHFFFAOYSA-N

>  <compound_id>  (245) 
133728

>  <target>  (245) 
Flavi_NS5_RdRp

>  <tags>  (245) 
[]

>  <inspirations>  (245) 
{P Ã— 2}

>  <subsites>  (245) 
None

>  <reference>  (245) 
z0211a

>  <SLURM_JOB_ID>  (245) 
nan

>  <SLURM_JOB_NAME>  (245) 
nan

>  <csv_name>  (245) 
nan

>  <scratch_subdir>  (245) 
nan

>  <fragmenstein_runtime>  (245) 
nan

>  <fragmenstein_outcome>  (245) 
nan

>  <fragmenstein_mode>  (245) 
nan

>  <fragmenstein_error>  (245) 
nan

>  <exports>  (245) 
nan

>  <Multi-SuCOS>  (245) 
nan

>  <merge_set>  (245) 
nan

$$$$
FTNZPYHZEXFXMJ-ZDUSSCGKSA-N
     RDKit          3D

 22 23  0  0  0  0  0  0  0  0999 V2000
  -20.7270  -33.9520  -20.5187 C   0  0  0  0  0  0  0  0  0  0  0  0
  -19.9701  -33.2915  -21.6596 C   0  0  0  0  0  0  0  0  0  0  0  0
  -20.7739  -33.1859  -22.9728 C   0  0  0  0  0  0  0  0  0  0  0  0
  -21.9563  -32.2268  -22.9309 C   0  0  2  0  0  0  0  0  0  0  0  0
  -21.6585  -31.2070  -21.9907 O   0  0  0  0  0  0  0  0  0  0  0  0
  -23.2494  -32.9708  -22.5917 C   0  0  0  0  0  0  0  0  0  0  0  0
  -24.1260  -32.2403  -21.7307 N   0  0  0  0  0  0  0  0  0  0  0  0
  -25.3656  -31.3832  -22.0610 C   0  0  0  0  0  0  0  0  0  0  0  0
  -25.8060  -31.0855  -23.0651 O   0  0  0  0  0  0  0  0  0  0  0  0
  -25.8890  -31.1346  -20.6269 N   0  0  0  0  0  0  0  0  0  0  0  0
  -27.0742  -30.5664  -20.1905 C   0  0  0  0  0  0  0  0  0  0  0  0
  -28.1131  -30.2409  -21.0482 C   0  0  0  0  0  0  0  0  0  0  0  0
  -29.3483  -29.8885  -20.5100 C   0  0  0  0  0  0  0  0  0  0  0  0
  -29.5139  -29.8062  -19.1267 C   0  0  0  0  0  0  0  0  0  0  0  0
  -28.4325  -29.9848  -18.2642 C   0  0  0  0  0  0  0  0  0  0  0  0
  -27.2316  -30.4191  -18.8110 C   0  0  0  0  0  0  0  0  0  0  0  0
  -26.1765  -30.8311  -18.0417 O   0  0  0  0  0  0  0  0  0  0  0  0
  -26.0388  -30.1804  -16.7820 C   0  0  0  0  0  0  0  0  0  0  0  0
  -25.0095  -30.9981  -15.9862 C   0  0  0  0  0  0  0  0  0  0  0  0
  -25.4239  -28.8351  -17.1125 C   0  0  0  0  0  0  0  0  0  0  0  0
  -27.3507  -30.1119  -15.9841 C   0  0  0  0  0  0  0  0  0  0  0  0
  -28.5759  -29.7132  -16.8008 C   0  0  0  0  0  0  0  0  0  0  0  0
  1  2  1  0
  2  3  1  0
  3  4  1  0
  4  5  1  1
  4  6  1  0
  6  7  1  0
  7  8  1  0
  8  9  2  0
  8 10  1  0
 10 11  1  0
 11 12  2  0
 12 13  1  0
 13 14  2  0
 14 15  1  0
 15 16  2  0
 16 17  1  0
 17 18  1  0
 18 19  1  0
 18 20  1  0
 18 21  1  0
 21 22  1  0
 16 11  1  0
 22 15  1  0
M  END
>  <id>  (246) 
303965

>  <inchikey>  (246) 
FTNZPYHZEXFXMJ-ZDUSSCGKSA-N

>  <alias>  (246) 
None

>  <smiles>  (246) 
CCC[C@H](O)CNC(=O)Nc1cccc2c1OC(C)(C)CC2

>  <path>  (246) 
/opt/xchem-fragalysis-2/maxwin/RdRp_FFF/syndirella/mar_elabs/elabs_064/UKWFLRZSMSDWTC-UHFFFAOYSA-N/output/UKWFLRZSMSDWTC-UHFFFAOYSA-N-9p8iBB-672-A/UKWFLRZSMSDWTC-UHFFFAOYSA-N-9p8iBB-672-A.minimised.mol

>  <distance_score>  (246) 
0.799583

>  <energy_score>  (246) 
-8.26204

>  <compound>  (246) 
FTNZPYHZEXFXMJ-UHFFFAOYSA-N

>  <compound_id>  (246) 
133714

>  <target>  (246) 
Flavi_NS5_RdRp

>  <tags>  (246) 
[]

>  <inspirations>  (246) 
{P Ã— 2}

>  <subsites>  (246) 
None

>  <reference>  (246) 
z0211a

>  <SLURM_JOB_ID>  (246) 
nan

>  <SLURM_JOB_NAME>  (246) 
nan

>  <csv_name>  (246) 
nan

>  <scratch_subdir>  (246) 
nan

>  <fragmenstein_runtime>  (246) 
nan

>  <fragmenstein_outcome>  (246) 
nan

>  <fragmenstein_mode>  (246) 
nan

>  <fragmenstein_error>  (246) 
nan

>  <exports>  (246) 
nan

>  <Multi-SuCOS>  (246) 
nan

>  <merge_set>  (246) 
nan

$$$$
MYVQEZDCEGHYRS-UHFFFAOYSA-N
     RDKit          3D

 22 23  0  0  0  0  0  0  0  0999 V2000
  -25.3235  -28.8446  -17.1282 C   0  0  0  0  0  0  0  0  0  0  0  0
  -25.8616  -30.2276  -16.8288 C   0  0  0  0  0  0  0  0  0  0  0  0
  -24.7774  -31.0358  -16.1018 C   0  0  0  0  0  0  0  0  0  0  0  0
  -27.1337  -30.2009  -15.9700 C   0  0  0  0  0  0  0  0  0  0  0  0
  -28.3926  -29.7876  -16.7286 C   0  0  0  0  0  0  0  0  0  0  0  0
  -28.3198  -30.0426  -18.2031 C   0  0  0  0  0  0  0  0  0  0  0  0
  -29.4453  -29.8681  -19.0107 C   0  0  0  0  0  0  0  0  0  0  0  0
  -29.3485  -29.9591  -20.4011 C   0  0  0  0  0  0  0  0  0  0  0  0
  -28.1274  -30.2616  -21.0021 C   0  0  0  0  0  0  0  0  0  0  0  0
  -27.0258  -30.5307  -20.2034 C   0  0  0  0  0  0  0  0  0  0  0  0
  -25.7762  -30.8600  -20.7097 N   0  0  0  0  0  0  0  0  0  0  0  0
  -25.3135  -31.0196  -22.0989 C   0  0  0  0  0  0  0  0  0  0  0  0
  -25.8639  -30.8336  -23.0944 O   0  0  0  0  0  0  0  0  0  0  0  0
  -23.8347  -31.5525  -21.7928 N   0  0  0  0  0  0  0  0  0  0  0  0
  -22.7460  -32.0711  -22.6880 C   0  0  0  0  0  0  0  0  0  0  0  0
  -22.6647  -32.1496  -23.9159 N   0  0  0  0  0  0  0  0  0  0  0  0
  -21.5955  -32.5163  -21.7539 C   0  0  0  0  0  0  0  0  0  0  0  0
  -20.7717  -33.6164  -22.3832 C   0  0  0  0  0  0  0  0  0  0  0  0
  -20.7023  -31.3271  -21.4200 C   0  0  0  0  0  0  0  0  0  0  0  0
  -22.1560  -33.0021  -20.5235 O   0  0  0  0  0  0  0  0  0  0  0  0
  -27.1339  -30.4401  -18.8132 C   0  0  0  0  0  0  0  0  0  0  0  0
  -26.0372  -30.8493  -18.0998 O   0  0  0  0  0  0  0  0  0  0  0  0
  1  2  1  0
  2  3  1  0
  2  4  1  0
  4  5  1  0
  5  6  1  0
  6  7  2  0
  7  8  1  0
  8  9  2  0
  9 10  1  0
 10 11  1  0
 11 12  1  0
 12 13  2  0
 12 14  1  0
 14 15  1  0
 15 16  2  3
 15 17  1  0
 17 18  1  0
 17 19  1  0
 17 20  1  0
 10 21  2  0
 21 22  1  0
 22  2  1  0
 21  6  1  0
M  END
>  <id>  (247) 
303967

>  <inchikey>  (247) 
MYVQEZDCEGHYRS-UHFFFAOYSA-N

>  <alias>  (247) 
None

>  <smiles>  (247) 
CC1(C)CCc2cccc(NC(=O)NC(=N)C(C)(C)O)c2O1

>  <path>  (247) 
/opt/xchem-fragalysis-2/maxwin/RdRp_FFF/syndirella/mar_elabs/elabs_064/UKWFLRZSMSDWTC-UHFFFAOYSA-N/output/UKWFLRZSMSDWTC-UHFFFAOYSA-N-9p8iBB-674-A/UKWFLRZSMSDWTC-UHFFFAOYSA-N-9p8iBB-674-A.minimised.mol

>  <distance_score>  (247) 
0.973685

>  <energy_score>  (247) 
-17.746013

>  <compound>  (247) 
MYVQEZDCEGHYRS-UHFFFAOYSA-N

>  <compound_id>  (247) 
133727

>  <target>  (247) 
Flavi_NS5_RdRp

>  <tags>  (247) 
[]

>  <inspirations>  (247) 
{P Ã— 2}

>  <subsites>  (247) 
None

>  <reference>  (247) 
z0211a

>  <SLURM_JOB_ID>  (247) 
nan

>  <SLURM_JOB_NAME>  (247) 
nan

>  <csv_name>  (247) 
nan

>  <scratch_subdir>  (247) 
nan

>  <fragmenstein_runtime>  (247) 
nan

>  <fragmenstein_outcome>  (247) 
nan

>  <fragmenstein_mode>  (247) 
nan

>  <fragmenstein_error>  (247) 
nan

>  <exports>  (247) 
nan

>  <Multi-SuCOS>  (247) 
nan

>  <merge_set>  (247) 
nan

$$$$
BKUZRSCAVGOSMC-JTQLQIEISA-N
     RDKit          3D

 22 23  0  0  0  0  0  0  0  0999 V2000
  -20.9405  -32.3780  -19.8471 C   0  0  0  0  0  0  0  0  0  0  0  0
  -22.0149  -32.4810  -20.7751 O   0  0  0  0  0  0  0  0  0  0  0  0
  -21.6359  -32.2331  -22.1347 C   0  0  1  0  0  0  0  0  0  0  0  0
  -20.8287  -33.3929  -22.6835 C   0  0  0  0  0  0  0  0  0  0  0  0
  -22.9106  -31.9717  -22.9926 C   0  0  0  0  0  0  0  0  0  0  0  0
  -22.9001  -32.0126  -24.2250 N   0  0  0  0  0  0  0  0  0  0  0  0
  -23.9966  -31.5933  -22.0123 N   0  0  0  0  0  0  0  0  0  0  0  0
  -25.4779  -31.0081  -22.2198 C   0  0  0  0  0  0  0  0  0  0  0  0
  -26.0910  -30.8125  -23.1759 O   0  0  0  0  0  0  0  0  0  0  0  0
  -25.8588  -30.8772  -20.7952 N   0  0  0  0  0  0  0  0  0  0  0  0
  -27.0712  -30.5318  -20.2089 C   0  0  0  0  0  0  0  0  0  0  0  0
  -28.2063  -30.2547  -20.9597 C   0  0  0  0  0  0  0  0  0  0  0  0
  -29.4050  -29.9563  -20.3159 C   0  0  0  0  0  0  0  0  0  0  0  0
  -29.4482  -29.8701  -18.9245 C   0  0  0  0  0  0  0  0  0  0  0  0
  -28.2918  -30.0496  -18.1619 C   0  0  0  0  0  0  0  0  0  0  0  0
  -27.1241  -30.4425  -18.8155 C   0  0  0  0  0  0  0  0  0  0  0  0
  -26.0028  -30.8461  -18.1400 O   0  0  0  0  0  0  0  0  0  0  0  0
  -25.8027  -30.2503  -16.8589 C   0  0  0  0  0  0  0  0  0  0  0  0
  -25.2906  -28.8530  -17.1343 C   0  0  0  0  0  0  0  0  0  0  0  0
  -24.6947  -31.0645  -16.1763 C   0  0  0  0  0  0  0  0  0  0  0  0
  -27.0495  -30.2449  -15.9644 C   0  0  0  0  0  0  0  0  0  0  0  0
  -28.3233  -29.8122  -16.6826 C   0  0  0  0  0  0  0  0  0  0  0  0
  1  2  1  0
  2  3  1  0
  3  4  1  6
  3  5  1  0
  5  6  2  3
  5  7  1  0
  7  8  1  0
  8  9  2  0
  8 10  1  0
 10 11  1  0
 11 12  2  0
 12 13  1  0
 13 14  2  0
 14 15  1  0
 15 16  2  0
 16 17  1  0
 17 18  1  0
 18 19  1  0
 18 20  1  0
 18 21  1  0
 21 22  1  0
 16 11  1  0
 22 15  1  0
M  END
>  <id>  (248) 
303972

>  <inchikey>  (248) 
BKUZRSCAVGOSMC-JTQLQIEISA-N

>  <alias>  (248) 
None

>  <smiles>  (248) 
CO[C@@H](C)C(=N)NC(=O)Nc1cccc2c1OC(C)(C)CC2

>  <path>  (248) 
/opt/xchem-fragalysis-2/maxwin/RdRp_FFF/syndirella/mar_elabs/elabs_064/UKWFLRZSMSDWTC-UHFFFAOYSA-N/output/UKWFLRZSMSDWTC-UHFFFAOYSA-N-9p8iBB-678-B/UKWFLRZSMSDWTC-UHFFFAOYSA-N-9p8iBB-678-B.minimised.mol

>  <distance_score>  (248) 
0.936862

>  <energy_score>  (248) 
-15.825249

>  <compound>  (248) 
BKUZRSCAVGOSMC-UHFFFAOYSA-N

>  <compound_id>  (248) 
133760

>  <target>  (248) 
Flavi_NS5_RdRp

>  <tags>  (248) 
[]

>  <inspirations>  (248) 
{P Ã— 2}

>  <subsites>  (248) 
None

>  <reference>  (248) 
z0211a

>  <SLURM_JOB_ID>  (248) 
nan

>  <SLURM_JOB_NAME>  (248) 
nan

>  <csv_name>  (248) 
nan

>  <scratch_subdir>  (248) 
nan

>  <fragmenstein_runtime>  (248) 
nan

>  <fragmenstein_outcome>  (248) 
nan

>  <fragmenstein_mode>  (248) 
nan

>  <fragmenstein_error>  (248) 
nan

>  <exports>  (248) 
nan

>  <Multi-SuCOS>  (248) 
nan

>  <merge_set>  (248) 
nan

$$$$
CMNWOUFGTYAPDZ-GFCCVEGCSA-N
     RDKit          3D

 22 23  0  0  0  0  0  0  0  0999 V2000
  -21.3456  -33.8559  -26.3185 C   0  0  0  0  0  0  0  0  0  0  0  0
  -21.6512  -32.8005  -25.4248 O   0  0  0  0  0  0  0  0  0  0  0  0
  -21.3466  -33.1136  -24.0669 C   0  0  0  0  0  0  0  0  0  0  0  0
  -22.0220  -32.1165  -23.1138 C   0  0  2  0  0  0  0  0  0  0  0  0
  -21.6977  -32.4679  -21.7630 O   0  0  0  0  0  0  0  0  0  0  0  0
  -23.5329  -32.1375  -23.3550 C   0  0  0  0  0  0  0  0  0  0  0  0
  -24.3492  -31.5851  -22.3092 N   0  0  0  0  0  0  0  0  0  0  0  0
  -25.7143  -30.8532  -22.3820 C   0  0  0  0  0  0  0  0  0  0  0  0
  -26.3277  -30.5291  -23.2849 O   0  0  0  0  0  0  0  0  0  0  0  0
  -26.0480  -30.7839  -20.8630 N   0  0  0  0  0  0  0  0  0  0  0  0
  -27.2157  -30.3948  -20.2145 C   0  0  0  0  0  0  0  0  0  0  0  0
  -28.3543  -30.0791  -20.9477 C   0  0  0  0  0  0  0  0  0  0  0  0
  -29.5612  -29.8589  -20.2946 C   0  0  0  0  0  0  0  0  0  0  0  0
  -29.6028  -29.8473  -18.9035 C   0  0  0  0  0  0  0  0  0  0  0  0
  -28.4367  -30.0160  -18.1545 C   0  0  0  0  0  0  0  0  0  0  0  0
  -27.2641  -30.3704  -18.8203 C   0  0  0  0  0  0  0  0  0  0  0  0
  -26.1468  -30.7908  -18.1572 O   0  0  0  0  0  0  0  0  0  0  0  0
  -25.9407  -30.2335  -16.8593 C   0  0  0  0  0  0  0  0  0  0  0  0
  -24.8644  -31.1019  -16.1884 C   0  0  0  0  0  0  0  0  0  0  0  0
  -25.3556  -28.8597  -17.1100 C   0  0  0  0  0  0  0  0  0  0  0  0
  -27.1907  -30.2059  -15.9647 C   0  0  0  0  0  0  0  0  0  0  0  0
  -28.4722  -29.7951  -16.6758 C   0  0  0  0  0  0  0  0  0  0  0  0
  1  2  1  0
  2  3  1  0
  3  4  1  0
  4  5  1  1
  4  6  1  0
  6  7  1  0
  7  8  1  0
  8  9  2  0
  8 10  1  0
 10 11  1  0
 11 12  2  0
 12 13  1  0
 13 14  2  0
 14 15  1  0
 15 16  2  0
 16 17  1  0
 17 18  1  0
 18 19  1  0
 18 20  1  0
 18 21  1  0
 21 22  1  0
 16 11  1  0
 22 15  1  0
M  END
>  <id>  (249) 
303984

>  <inchikey>  (249) 
CMNWOUFGTYAPDZ-GFCCVEGCSA-N

>  <alias>  (249) 
None

>  <smiles>  (249) 
COC[C@H](O)CNC(=O)Nc1cccc2c1OC(C)(C)CC2

>  <path>  (249) 
/opt/xchem-fragalysis-2/maxwin/RdRp_FFF/syndirella/mar_elabs/elabs_064/UKWFLRZSMSDWTC-UHFFFAOYSA-N/output/UKWFLRZSMSDWTC-UHFFFAOYSA-N-9p8iBB-686-A/UKWFLRZSMSDWTC-UHFFFAOYSA-N-9p8iBB-686-A.minimised.mol

>  <distance_score>  (249) 
0.776981

>  <energy_score>  (249) 
-22.886457

>  <compound>  (249) 
CMNWOUFGTYAPDZ-UHFFFAOYSA-N

>  <compound_id>  (249) 
133739

>  <target>  (249) 
Flavi_NS5_RdRp

>  <tags>  (249) 
[]

>  <inspirations>  (249) 
{P Ã— 2}

>  <subsites>  (249) 
None

>  <reference>  (249) 
z0211a

>  <SLURM_JOB_ID>  (249) 
nan

>  <SLURM_JOB_NAME>  (249) 
nan

>  <csv_name>  (249) 
nan

>  <scratch_subdir>  (249) 
nan

>  <fragmenstein_runtime>  (249) 
nan

>  <fragmenstein_outcome>  (249) 
nan

>  <fragmenstein_mode>  (249) 
nan

>  <fragmenstein_error>  (249) 
nan

>  <exports>  (249) 
nan

>  <Multi-SuCOS>  (249) 
nan

>  <merge_set>  (249) 
nan

$$$$
PGDCGPIKZTXHGG-NSHDSACASA-N
     RDKit          3D

 22 23  0  0  0  0  0  0  0  0999 V2000
  -21.6033  -33.3954  -25.3217 C   0  0  0  0  0  0  0  0  0  0  0  0
  -21.2185  -32.5613  -24.1086 C   0  0  2  0  0  0  0  0  0  0  0  0
  -20.3073  -33.2723  -23.2785 O   0  0  0  0  0  0  0  0  0  0  0  0
  -22.3983  -32.0444  -23.2781 C   0  0  0  0  0  0  0  0  0  0  0  0
  -22.9370  -32.9716  -22.2564 N   0  0  0  0  0  0  0  0  0  0  0  0
  -23.5914  -34.1487  -22.8281 C   0  0  0  0  0  0  0  0  0  0  0  0
  -23.8523  -32.2677  -21.4901 N   0  0  0  0  0  0  0  0  0  0  0  0
  -25.1671  -31.5210  -21.9109 C   0  0  0  0  0  0  0  0  0  0  0  0
  -25.6096  -31.3346  -22.9471 O   0  0  0  0  0  0  0  0  0  0  0  0
  -25.7352  -31.1929  -20.5038 N   0  0  0  0  0  0  0  0  0  0  0  0
  -26.9646  -30.6726  -20.1308 C   0  0  0  0  0  0  0  0  0  0  0  0
  -27.9778  -30.3761  -21.0295 C   0  0  0  0  0  0  0  0  0  0  0  0
  -29.2212  -29.9729  -20.5423 C   0  0  0  0  0  0  0  0  0  0  0  0
  -29.4291  -29.8329  -19.1699 C   0  0  0  0  0  0  0  0  0  0  0  0
  -28.3796  -30.0082  -18.2691 C   0  0  0  0  0  0  0  0  0  0  0  0
  -27.1658  -30.4715  -18.7657 C   0  0  0  0  0  0  0  0  0  0  0  0
  -26.1310  -30.8572  -17.9540 O   0  0  0  0  0  0  0  0  0  0  0  0
  -26.0283  -30.1527  -16.7215 C   0  0  0  0  0  0  0  0  0  0  0  0
  -25.4324  -28.8126  -17.1060 C   0  0  0  0  0  0  0  0  0  0  0  0
  -25.0015  -30.9176  -15.8730 C   0  0  0  0  0  0  0  0  0  0  0  0
  -27.3619  -30.0911  -15.9609 C   0  0  0  0  0  0  0  0  0  0  0  0
  -28.5635  -29.7009  -16.8168 C   0  0  0  0  0  0  0  0  0  0  0  0
  2  1  1  6
  2  3  1  0
  2  4  1  0
  4  5  1  0
  5  6  1  0
  5  7  1  0
  7  8  1  0
  8  9  2  0
  8 10  1  0
 10 11  1  0
 11 12  2  0
 12 13  1  0
 13 14  2  0
 14 15  1  0
 15 16  2  0
 16 17  1  0
 17 18  1  0
 18 19  1  0
 18 20  1  0
 18 21  1  0
 21 22  1  0
 16 11  1  0
 22 15  1  0
M  END
>  <id>  (250) 
303991

>  <inchikey>  (250) 
PGDCGPIKZTXHGG-NSHDSACASA-N

>  <alias>  (250) 
None

>  <smiles>  (250) 
C[C@H](O)CN(C)NC(=O)Nc1cccc2c1OC(C)(C)CC2

>  <path>  (250) 
/opt/xchem-fragalysis-2/maxwin/RdRp_FFF/syndirella/mar_elabs/elabs_064/UKWFLRZSMSDWTC-UHFFFAOYSA-N/output/UKWFLRZSMSDWTC-UHFFFAOYSA-N-9p8iBB-691-A/UKWFLRZSMSDWTC-UHFFFAOYSA-N-9p8iBB-691-A.minimised.mol

>  <distance_score>  (250) 
0.873341

>  <energy_score>  (250) 
-40.900229

>  <compound>  (250) 
PGDCGPIKZTXHGG-UHFFFAOYSA-N

>  <compound_id>  (250) 
133721

>  <target>  (250) 
Flavi_NS5_RdRp

>  <tags>  (250) 
[]

>  <inspirations>  (250) 
{P Ã— 2}

>  <subsites>  (250) 
None

>  <reference>  (250) 
z0211a

>  <SLURM_JOB_ID>  (250) 
nan

>  <SLURM_JOB_NAME>  (250) 
nan

>  <csv_name>  (250) 
nan

>  <scratch_subdir>  (250) 
nan

>  <fragmenstein_runtime>  (250) 
nan

>  <fragmenstein_outcome>  (250) 
nan

>  <fragmenstein_mode>  (250) 
nan

>  <fragmenstein_error>  (250) 
nan

>  <exports>  (250) 
nan

>  <Multi-SuCOS>  (250) 
nan

>  <merge_set>  (250) 
nan

$$$$
LSFOTGWKWGHDSA-GWCFXTLKSA-N
     RDKit          3D

 22 23  0  0  0  0  0  0  0  0999 V2000
  -21.0160  -33.0853  -23.6436 C   0  0  0  0  0  0  0  0  0  0  0  0
  -21.9810  -32.1332  -22.9622 C   0  0  2  0  0  0  0  0  0  0  0  0
  -21.5336  -31.9879  -21.6099 O   0  0  0  0  0  0  0  0  0  0  0  0
  -23.4088  -32.7015  -22.9905 C   0  0  2  0  0  0  0  0  0  0  0  0
  -23.9827  -32.6890  -24.4167 C   0  0  0  0  0  0  0  0  0  0  0  0
  -25.2373  -33.3618  -24.4866 O   0  0  0  0  0  0  0  0  0  0  0  0
  -24.2624  -32.0392  -22.0169 N   0  0  0  0  0  0  0  0  0  0  0  0
  -25.5220  -31.1644  -22.2197 C   0  0  0  0  0  0  0  0  0  0  0  0
  -26.0091  -30.7880  -23.1764 O   0  0  0  0  0  0  0  0  0  0  0  0
  -25.9822  -31.0375  -20.7445 N   0  0  0  0  0  0  0  0  0  0  0  0
  -27.1501  -30.5146  -20.2100 C   0  0  0  0  0  0  0  0  0  0  0  0
  -28.2308  -30.1800  -21.0140 C   0  0  0  0  0  0  0  0  0  0  0  0
  -29.4518  -29.8727  -20.4227 C   0  0  0  0  0  0  0  0  0  0  0  0
  -29.5601  -29.8208  -19.0338 C   0  0  0  0  0  0  0  0  0  0  0  0
  -28.4396  -29.9996  -18.2215 C   0  0  0  0  0  0  0  0  0  0  0  0
  -27.2535  -30.4093  -18.8219 C   0  0  0  0  0  0  0  0  0  0  0  0
  -26.1671  -30.8205  -18.1005 O   0  0  0  0  0  0  0  0  0  0  0  0
  -25.9983  -30.2081  -16.8234 C   0  0  0  0  0  0  0  0  0  0  0  0
  -25.3973  -28.8494  -17.1205 C   0  0  0  0  0  0  0  0  0  0  0  0
  -24.9470  -31.0483  -16.0813 C   0  0  0  0  0  0  0  0  0  0  0  0
  -27.2825  -30.1526  -15.9803 C   0  0  0  0  0  0  0  0  0  0  0  0
  -28.5337  -29.7480  -16.7504 C   0  0  0  0  0  0  0  0  0  0  0  0
  2  1  1  6
  2  3  1  0
  2  4  1  0
  4  5  1  6
  5  6  1  0
  4  7  1  0
  7  8  1  0
  8  9  2  0
  8 10  1  0
 10 11  1  0
 11 12  2  0
 12 13  1  0
 13 14  2  0
 14 15  1  0
 15 16  2  0
 16 17  1  0
 17 18  1  0
 18 19  1  0
 18 20  1  0
 18 21  1  0
 21 22  1  0
 16 11  1  0
 22 15  1  0
M  END
>  <id>  (251) 
304012

>  <inchikey>  (251) 
LSFOTGWKWGHDSA-GWCFXTLKSA-N

>  <alias>  (251) 
None

>  <smiles>  (251) 
C[C@H](O)[C@H](CO)NC(=O)Nc1cccc2c1OC(C)(C)CC2

>  <path>  (251) 
/opt/xchem-fragalysis-2/maxwin/RdRp_FFF/syndirella/mar_elabs/elabs_064/UKWFLRZSMSDWTC-UHFFFAOYSA-N/output/UKWFLRZSMSDWTC-UHFFFAOYSA-N-9p8iBB-713-A/UKWFLRZSMSDWTC-UHFFFAOYSA-N-9p8iBB-713-A.minimised.mol

>  <distance_score>  (251) 
0.734058

>  <energy_score>  (251) 
-18.6437

>  <compound>  (251) 
LSFOTGWKWGHDSA-UHFFFAOYSA-N

>  <compound_id>  (251) 
133757

>  <target>  (251) 
Flavi_NS5_RdRp

>  <tags>  (251) 
[]

>  <inspirations>  (251) 
{P Ã— 2}

>  <subsites>  (251) 
None

>  <reference>  (251) 
z0211a

>  <SLURM_JOB_ID>  (251) 
nan

>  <SLURM_JOB_NAME>  (251) 
nan

>  <csv_name>  (251) 
nan

>  <scratch_subdir>  (251) 
nan

>  <fragmenstein_runtime>  (251) 
nan

>  <fragmenstein_outcome>  (251) 
nan

>  <fragmenstein_mode>  (251) 
nan

>  <fragmenstein_error>  (251) 
nan

>  <exports>  (251) 
nan

>  <Multi-SuCOS>  (251) 
nan

>  <merge_set>  (251) 
nan

$$$$
IZPRZDNISZOUFP-KCJUWKMLSA-N
     RDKit          3D

 22 23  0  0  0  0  0  0  0  0999 V2000
  -20.2499  -32.4570  -21.9279 C   0  0  0  0  0  0  0  0  0  0  0  0
  -21.6276  -32.9499  -21.5203 C   0  0  1  0  0  0  0  0  0  0  0  0
  -21.9397  -32.4291  -20.2229 O   0  0  0  0  0  0  0  0  0  0  0  0
  -22.7323  -32.6127  -22.5645 C   0  0  0  0  0  0  0  0  0  0  0  0
  -22.6778  -33.0197  -24.0705 S   0  0  0  0  0  0  0  0  0  0  0  0
  -23.8570  -31.8998  -21.6777 N   0  0  0  0  0  0  0  0  0  0  0  0
  -25.3083  -31.2442  -22.0427 C   0  0  0  0  0  0  0  0  0  0  0  0
  -25.8351  -31.0725  -23.0470 O   0  0  0  0  0  0  0  0  0  0  0  0
  -25.7768  -31.0056  -20.6678 N   0  0  0  0  0  0  0  0  0  0  0  0
  -27.0155  -30.5936  -20.1912 C   0  0  0  0  0  0  0  0  0  0  0  0
  -28.0925  -30.2994  -21.0137 C   0  0  0  0  0  0  0  0  0  0  0  0
  -29.3191  -29.9658  -20.4394 C   0  0  0  0  0  0  0  0  0  0  0  0
  -29.4429  -29.8590  -19.0523 C   0  0  0  0  0  0  0  0  0  0  0  0
  -28.3357  -30.0353  -18.2202 C   0  0  0  0  0  0  0  0  0  0  0  0
  -27.1458  -30.4675  -18.8046 C   0  0  0  0  0  0  0  0  0  0  0  0
  -26.0605  -30.8664  -18.0669 O   0  0  0  0  0  0  0  0  0  0  0  0
  -25.8928  -30.2276  -16.8024 C   0  0  0  0  0  0  0  0  0  0  0  0
  -25.3240  -28.8596  -17.1178 C   0  0  0  0  0  0  0  0  0  0  0  0
  -24.8355  -31.0434  -16.0460 C   0  0  0  0  0  0  0  0  0  0  0  0
  -27.1802  -30.1736  -15.9707 C   0  0  0  0  0  0  0  0  0  0  0  0
  -28.3790  -29.6663  -16.7657 C   0  0  2  0  0  0  0  0  0  0  0  0
  -29.5926  -30.0528  -16.1261 O   0  0  0  0  0  0  0  0  0  0  0  0
  2  1  1  6
  2  3  1  0
  2  4  1  0
  4  5  2  0
  4  6  1  0
  6  7  1  0
  7  8  2  0
  7  9  1  0
  9 10  1  0
 10 11  2  0
 11 12  1  0
 12 13  2  0
 13 14  1  0
 14 15  2  0
 15 16  1  0
 16 17  1  0
 17 18  1  0
 17 19  1  0
 17 20  1  0
 20 21  1  0
 21 22  1  1
 15 10  1  0
 21 14  1  0
M  END
>  <id>  (252) 
304086

>  <inchikey>  (252) 
IZPRZDNISZOUFP-KCJUWKMLSA-N

>  <alias>  (252) 
None

>  <smiles>  (252) 
C[C@@H](O)C(=S)NC(=O)Nc1cccc2c1OC(C)(C)C[C@@H]2O

>  <path>  (252) 
/opt/xchem-fragalysis-2/maxwin/RdRp_FFF/syndirella/mar_elabs/elabs_064/UKWFLRZSMSDWTC-UHFFFAOYSA-N/output/UKWFLRZSMSDWTC-UHFFFAOYSA-N-9p8iBB-799-B/UKWFLRZSMSDWTC-UHFFFAOYSA-N-9p8iBB-799-B.minimised.mol

>  <distance_score>  (252) 
1.132133

>  <energy_score>  (252) 
-47.642725

>  <compound>  (252) 
IZPRZDNISZOUFP-UHFFFAOYSA-N

>  <compound_id>  (252) 
133667

>  <target>  (252) 
Flavi_NS5_RdRp

>  <tags>  (252) 
[]

>  <inspirations>  (252) 
{P Ã— 2}

>  <subsites>  (252) 
None

>  <reference>  (252) 
z0211a

>  <SLURM_JOB_ID>  (252) 
nan

>  <SLURM_JOB_NAME>  (252) 
nan

>  <csv_name>  (252) 
nan

>  <scratch_subdir>  (252) 
nan

>  <fragmenstein_runtime>  (252) 
nan

>  <fragmenstein_outcome>  (252) 
nan

>  <fragmenstein_mode>  (252) 
nan

>  <fragmenstein_error>  (252) 
nan

>  <exports>  (252) 
nan

>  <Multi-SuCOS>  (252) 
nan

>  <merge_set>  (252) 
nan

$$$$
DYKZKMZGHIXUED-XQQFMLRXSA-N
     RDKit          3D

 22 24  0  0  0  0  0  0  0  0999 V2000
  -20.6636  -33.0660  -24.7557 C   0  0  0  0  0  0  0  0  0  0  0  0
  -21.9169  -33.4417  -24.2308 O   0  0  0  0  0  0  0  0  0  0  0  0
  -22.1610  -33.0735  -22.8568 C   0  0  1  0  0  0  0  0  0  0  0  0
  -21.4563  -31.9182  -22.1990 C   0  0  0  0  0  0  0  0  0  0  0  0
  -22.8518  -31.7472  -22.7174 C   0  0  2  0  0  0  0  0  0  0  0  0
  -23.9343  -31.5493  -21.8451 N   0  0  0  0  0  0  0  0  0  0  0  0
  -25.3684  -31.0165  -22.1251 C   0  0  0  0  0  0  0  0  0  0  0  0
  -25.8730  -30.7434  -23.1095 O   0  0  0  0  0  0  0  0  0  0  0  0
  -25.9244  -31.0050  -20.6772 N   0  0  0  0  0  0  0  0  0  0  0  0
  -27.1466  -30.5747  -20.1894 C   0  0  0  0  0  0  0  0  0  0  0  0
  -28.2128  -30.2590  -21.0171 C   0  0  0  0  0  0  0  0  0  0  0  0
  -29.4468  -29.9508  -20.4509 C   0  0  0  0  0  0  0  0  0  0  0  0
  -29.5869  -29.9069  -19.0644 C   0  0  0  0  0  0  0  0  0  0  0  0
  -28.4818  -30.0905  -18.2256 C   0  0  0  0  0  0  0  0  0  0  0  0
  -27.2790  -30.4712  -18.8057 C   0  0  0  0  0  0  0  0  0  0  0  0
  -26.1919  -30.8539  -18.0680 O   0  0  0  0  0  0  0  0  0  0  0  0
  -26.0367  -30.2008  -16.8110 C   0  0  0  0  0  0  0  0  0  0  0  0
  -24.9508  -30.9848  -16.0551 C   0  0  0  0  0  0  0  0  0  0  0  0
  -25.4750  -28.8348  -17.1546 C   0  0  0  0  0  0  0  0  0  0  0  0
  -27.3173  -30.1747  -15.9603 C   0  0  0  0  0  0  0  0  0  0  0  0
  -28.6091  -29.9372  -16.7407 C   0  0  1  0  0  0  0  0  0  0  0  0
  -29.0873  -28.6365  -16.4270 O   0  0  0  0  0  0  0  0  0  0  0  0
  1  2  1  0
  3  2  1  6
  3  4  1  0
  4  5  1  0
  5  6  1  1
  6  7  1  0
  7  8  2  0
  7  9  1  0
  9 10  1  0
 10 11  2  0
 11 12  1  0
 12 13  2  0
 13 14  1  0
 14 15  2  0
 15 16  1  0
 16 17  1  0
 17 18  1  0
 17 19  1  0
 17 20  1  0
 20 21  1  0
 21 22  1  6
  5  3  1  0
 15 10  1  0
 21 14  1  0
M  END
>  <id>  (253) 
304097

>  <inchikey>  (253) 
DYKZKMZGHIXUED-XQQFMLRXSA-N

>  <alias>  (253) 
None

>  <smiles>  (253) 
CO[C@H]1C[C@@H]1NC(=O)Nc1cccc2c1OC(C)(C)C[C@H]2O

>  <path>  (253) 
/opt/xchem-fragalysis-2/maxwin/RdRp_FFF/syndirella/mar_elabs/elabs_064/UKWFLRZSMSDWTC-UHFFFAOYSA-N/output/UKWFLRZSMSDWTC-UHFFFAOYSA-N-9p8iBB-812-F/UKWFLRZSMSDWTC-UHFFFAOYSA-N-9p8iBB-812-F.minimised.mol

>  <distance_score>  (253) 
0.796329

>  <energy_score>  (253) 
-19.762801

>  <compound>  (253) 
DYKZKMZGHIXUED-UHFFFAOYSA-N

>  <compound_id>  (253) 
133709

>  <target>  (253) 
Flavi_NS5_RdRp

>  <tags>  (253) 
[]

>  <inspirations>  (253) 
{P Ã— 2}

>  <subsites>  (253) 
None

>  <reference>  (253) 
z0211a

>  <SLURM_JOB_ID>  (253) 
nan

>  <SLURM_JOB_NAME>  (253) 
nan

>  <csv_name>  (253) 
nan

>  <scratch_subdir>  (253) 
nan

>  <fragmenstein_runtime>  (253) 
nan

>  <fragmenstein_outcome>  (253) 
nan

>  <fragmenstein_mode>  (253) 
nan

>  <fragmenstein_error>  (253) 
nan

>  <exports>  (253) 
nan

>  <Multi-SuCOS>  (253) 
nan

>  <merge_set>  (253) 
nan

$$$$
ZVRNTQDZPUQJOD-SKDRFNHKSA-N
     RDKit          3D

 22 24  0  0  0  0  0  0  0  0999 V2000
  -24.9401  -31.0636  -16.1129 C   0  0  0  0  0  0  0  0  0  0  0  0
  -26.0007  -30.2185  -16.8349 C   0  0  0  0  0  0  0  0  0  0  0  0
  -25.4017  -28.8612  -17.1437 C   0  0  0  0  0  0  0  0  0  0  0  0
  -27.2669  -30.1589  -15.9693 C   0  0  0  0  0  0  0  0  0  0  0  0
  -28.4891  -29.6589  -16.7248 C   0  0  2  0  0  0  0  0  0  0  0  0
  -29.6746  -30.0740  -16.0506 O   0  0  0  0  0  0  0  0  0  0  0  0
  -28.4852  -30.0287  -18.1772 C   0  0  0  0  0  0  0  0  0  0  0  0
  -29.6301  -29.8585  -18.9590 C   0  0  0  0  0  0  0  0  0  0  0  0
  -29.5606  -29.9293  -20.3477 C   0  0  0  0  0  0  0  0  0  0  0  0
  -28.3552  -30.2439  -20.9643 C   0  0  0  0  0  0  0  0  0  0  0  0
  -27.2568  -30.5944  -20.1914 C   0  0  0  0  0  0  0  0  0  0  0  0
  -26.1104  -31.1026  -20.7858 N   0  0  0  0  0  0  0  0  0  0  0  0
  -25.6533  -31.0805  -22.2645 C   0  0  0  0  0  0  0  0  0  0  0  0
  -26.1235  -30.5754  -23.1761 O   0  0  0  0  0  0  0  0  0  0  0  0
  -24.4180  -31.9554  -22.1572 N   0  0  0  0  0  0  0  0  0  0  0  0
  -23.5344  -32.4821  -23.1977 C   0  0  0  0  0  0  0  0  0  0  0  0
  -22.2111  -32.9499  -22.6316 C   0  0  1  0  0  0  0  0  0  0  0  0
  -21.1612  -32.7066  -23.5687 O   0  0  0  0  0  0  0  0  0  0  0  0
  -22.1708  -32.0270  -21.4625 C   0  0  0  0  0  0  0  0  0  0  0  0
  -23.2116  -31.1470  -21.8956 O   0  0  0  0  0  0  0  0  0  0  0  0
  -27.3161  -30.4618  -18.8039 C   0  0  0  0  0  0  0  0  0  0  0  0
  -26.1990  -30.8322  -18.1090 O   0  0  0  0  0  0  0  0  0  0  0  0
  1  2  1  0
  2  3  1  0
  2  4  1  0
  4  5  1  0
  5  6  1  1
  5  7  1  0
  7  8  2  0
  8  9  1  0
  9 10  2  0
 10 11  1  0
 11 12  1  0
 12 13  1  0
 13 14  2  0
 13 15  1  0
 15 16  1  0
 16 17  1  0
 17 18  1  6
 17 19  1  0
 19 20  1  0
 11 21  2  0
 21 22  1  0
 22  2  1  0
 21  7  1  0
 20 15  1  0
M  END
>  <id>  (254) 
304108

>  <inchikey>  (254) 
ZVRNTQDZPUQJOD-SKDRFNHKSA-N

>  <alias>  (254) 
None

>  <smiles>  (254) 
CC1(C)C[C@H](O)c2cccc(NC(=O)N3C[C@@H](O)CO3)c2O1

>  <path>  (254) 
/opt/xchem-fragalysis-2/maxwin/RdRp_FFF/syndirella/mar_elabs/elabs_064/UKWFLRZSMSDWTC-UHFFFAOYSA-N/output/UKWFLRZSMSDWTC-UHFFFAOYSA-N-9p8iBB-814-C/UKWFLRZSMSDWTC-UHFFFAOYSA-N-9p8iBB-814-C.minimised.mol

>  <distance_score>  (254) 
0.821801

>  <energy_score>  (254) 
-4.803161

>  <compound>  (254) 
ZVRNTQDZPUQJOD-UHFFFAOYSA-N

>  <compound_id>  (254) 
133704

>  <target>  (254) 
Flavi_NS5_RdRp

>  <tags>  (254) 
[]

>  <inspirations>  (254) 
{P Ã— 2}

>  <subsites>  (254) 
None

>  <reference>  (254) 
z0211a

>  <SLURM_JOB_ID>  (254) 
nan

>  <SLURM_JOB_NAME>  (254) 
nan

>  <csv_name>  (254) 
nan

>  <scratch_subdir>  (254) 
nan

>  <fragmenstein_runtime>  (254) 
nan

>  <fragmenstein_outcome>  (254) 
nan

>  <fragmenstein_mode>  (254) 
nan

>  <fragmenstein_error>  (254) 
nan

>  <exports>  (254) 
nan

>  <Multi-SuCOS>  (254) 
nan

>  <merge_set>  (254) 
nan

$$$$
CSSRZNJUCDCVKU-JOYOIKCWSA-N
     RDKit          3D

 22 23  0  0  0  0  0  0  0  0999 V2000
  -25.4203  -28.8555  -17.1633 C   0  0  0  0  0  0  0  0  0  0  0  0
  -25.9927  -30.2328  -16.8930 C   0  0  0  0  0  0  0  0  0  0  0  0
  -24.9038  -31.0709  -16.2014 C   0  0  0  0  0  0  0  0  0  0  0  0
  -27.2471  -30.2082  -16.0023 C   0  0  0  0  0  0  0  0  0  0  0  0
  -28.5602  -29.9647  -16.7400 C   0  0  1  0  0  0  0  0  0  0  0  0
  -29.0490  -28.6788  -16.3777 O   0  0  0  0  0  0  0  0  0  0  0  0
  -28.4747  -30.0733  -18.2320 C   0  0  0  0  0  0  0  0  0  0  0  0
  -29.6199  -29.8870  -19.0152 C   0  0  0  0  0  0  0  0  0  0  0  0
  -29.5348  -29.8504  -20.4031 C   0  0  0  0  0  0  0  0  0  0  0  0
  -28.3100  -30.0618  -21.0250 C   0  0  0  0  0  0  0  0  0  0  0  0
  -27.1951  -30.3960  -20.2645 C   0  0  0  0  0  0  0  0  0  0  0  0
  -26.0128  -30.7936  -20.8779 N   0  0  0  0  0  0  0  0  0  0  0  0
  -25.6427  -30.8868  -22.3864 C   0  0  0  0  0  0  0  0  0  0  0  0
  -26.2342  -30.5781  -23.3086 O   0  0  0  0  0  0  0  0  0  0  0  0
  -24.2811  -31.6146  -22.2687 N   0  0  0  0  0  0  0  0  0  0  0  0
  -23.4393  -32.1825  -23.2846 C   0  0  0  0  0  0  0  0  0  0  0  0
  -21.9400  -32.0907  -23.0034 C   0  0  1  0  0  0  0  0  0  0  0  0
  -21.6731  -32.2520  -21.6002 O   0  0  0  0  0  0  0  0  0  0  0  0
  -21.1695  -33.1778  -23.7511 C   0  0  0  0  0  0  0  0  0  0  0  0
  -21.3505  -33.1233  -25.5194 Cl  0  0  0  0  0  0  0  0  0  0  0  0
  -27.2817  -30.3974  -18.8715 C   0  0  0  0  0  0  0  0  0  0  0  0
  -26.1820  -30.8209  -18.1812 O   0  0  0  0  0  0  0  0  0  0  0  0
  1  2  1  0
  2  3  1  0
  2  4  1  0
  4  5  1  0
  5  6  1  6
  5  7  1  0
  7  8  2  0
  8  9  1  0
  9 10  2  0
 10 11  1  0
 11 12  1  0
 12 13  1  0
 13 14  2  0
 13 15  1  0
 15 16  1  0
 16 17  1  0
 17 18  1  1
 17 19  1  0
 19 20  1  0
 11 21  2  0
 21 22  1  0
 22  2  1  0
 21  7  1  0
M  END
>  <id>  (255) 
304114

>  <inchikey>  (255) 
CSSRZNJUCDCVKU-JOYOIKCWSA-N

>  <alias>  (255) 
None

>  <smiles>  (255) 
CC1(C)C[C@@H](O)c2cccc(NC(=O)NC[C@@H](O)CCl)c2O1

>  <path>  (255) 
/opt/xchem-fragalysis-2/maxwin/RdRp_FFF/syndirella/mar_elabs/elabs_064/UKWFLRZSMSDWTC-UHFFFAOYSA-N/output/UKWFLRZSMSDWTC-UHFFFAOYSA-N-9p8iBB-817-D/UKWFLRZSMSDWTC-UHFFFAOYSA-N-9p8iBB-817-D.minimised.mol

>  <distance_score>  (255) 
0.74558

>  <energy_score>  (255) 
-1.312404

>  <compound>  (255) 
CSSRZNJUCDCVKU-UHFFFAOYSA-N

>  <compound_id>  (255) 
133695

>  <target>  (255) 
Flavi_NS5_RdRp

>  <tags>  (255) 
[]

>  <inspirations>  (255) 
{P Ã— 2}

>  <subsites>  (255) 
None

>  <reference>  (255) 
z0211a

>  <SLURM_JOB_ID>  (255) 
nan

>  <SLURM_JOB_NAME>  (255) 
nan

>  <csv_name>  (255) 
nan

>  <scratch_subdir>  (255) 
nan

>  <fragmenstein_runtime>  (255) 
nan

>  <fragmenstein_outcome>  (255) 
nan

>  <fragmenstein_mode>  (255) 
nan

>  <fragmenstein_error>  (255) 
nan

>  <exports>  (255) 
nan

>  <Multi-SuCOS>  (255) 
nan

>  <merge_set>  (255) 
nan

$$$$
PHVMLBVUFAFASK-GFCCVEGCSA-N
     RDKit          3D

 22 24  0  0  0  0  0  0  0  0999 V2000
  -21.9564  -33.8916  -23.4275 C   0  0  0  0  0  0  0  0  0  0  0  0
  -22.5832  -32.8186  -22.5679 C   0  0  0  0  0  0  0  0  0  0  0  0
  -21.6952  -32.5238  -21.4619 O   0  0  0  0  0  0  0  0  0  0  0  0
  -23.0668  -31.6471  -23.3745 C   0  0  0  0  0  0  0  0  0  0  0  0
  -24.1052  -31.3778  -22.3106 N   0  0  0  0  0  0  0  0  0  0  0  0
  -25.5330  -30.8524  -22.4305 C   0  0  0  0  0  0  0  0  0  0  0  0
  -26.1587  -30.6183  -23.3611 O   0  0  0  0  0  0  0  0  0  0  0  0
  -25.9037  -30.7664  -20.9217 N   0  0  0  0  0  0  0  0  0  0  0  0
  -27.1201  -30.4713  -20.3055 C   0  0  0  0  0  0  0  0  0  0  0  0
  -28.2451  -30.1824  -21.0725 C   0  0  0  0  0  0  0  0  0  0  0  0
  -29.4722  -29.9406  -20.4615 C   0  0  0  0  0  0  0  0  0  0  0  0
  -29.5626  -29.9283  -19.0754 C   0  0  0  0  0  0  0  0  0  0  0  0
  -28.4205  -30.1018  -18.2845 C   0  0  0  0  0  0  0  0  0  0  0  0
  -27.2174  -30.4331  -18.9112 C   0  0  0  0  0  0  0  0  0  0  0  0
  -26.1199  -30.8235  -18.1996 O   0  0  0  0  0  0  0  0  0  0  0  0
  -25.9578  -30.2260  -16.9123 C   0  0  0  0  0  0  0  0  0  0  0  0
  -25.4075  -28.8408  -17.1822 C   0  0  0  0  0  0  0  0  0  0  0  0
  -24.8669  -31.0443  -16.2013 C   0  0  0  0  0  0  0  0  0  0  0  0
  -27.2220  -30.2099  -16.0369 C   0  0  0  0  0  0  0  0  0  0  0  0
  -28.5227  -29.9656  -16.7938 C   0  0  1  0  0  0  0  0  0  0  0  0
  -29.0074  -28.6709  -16.4553 O   0  0  0  0  0  0  0  0  0  0  0  0
  -24.0731  -32.9348  -22.2702 C   0  0  0  0  0  0  0  0  0  0  0  0
  1  2  1  0
  2  3  1  0
  2  4  1  0
  4  5  1  0
  5  6  1  0
  6  7  2  0
  6  8  1  0
  8  9  1  0
  9 10  2  0
 10 11  1  0
 11 12  2  0
 12 13  1  0
 13 14  2  0
 14 15  1  0
 15 16  1  0
 16 17  1  0
 16 18  1  0
 16 19  1  0
 19 20  1  0
 20 21  1  6
  5 22  1  0
 22  2  1  0
 14  9  1  0
 20 13  1  0
M  END
>  <id>  (256) 
304119

>  <inchikey>  (256) 
PHVMLBVUFAFASK-GFCCVEGCSA-N

>  <alias>  (256) 
None

>  <smiles>  (256) 
CC1(O)CN(C(=O)Nc2cccc3c2OC(C)(C)C[C@H]3O)C1

>  <path>  (256) 
/opt/xchem-fragalysis-2/maxwin/RdRp_FFF/syndirella/mar_elabs/elabs_064/UKWFLRZSMSDWTC-UHFFFAOYSA-N/output/UKWFLRZSMSDWTC-UHFFFAOYSA-N-9p8iBB-823-B/UKWFLRZSMSDWTC-UHFFFAOYSA-N-9p8iBB-823-B.minimised.mol

>  <distance_score>  (256) 
0.869474

>  <energy_score>  (256) 
-9.014715

>  <compound>  (256) 
PHVMLBVUFAFASK-UHFFFAOYSA-N

>  <compound_id>  (256) 
133702

>  <target>  (256) 
Flavi_NS5_RdRp

>  <tags>  (256) 
[]

>  <inspirations>  (256) 
{P Ã— 2}

>  <subsites>  (256) 
None

>  <reference>  (256) 
z0211a

>  <SLURM_JOB_ID>  (256) 
nan

>  <SLURM_JOB_NAME>  (256) 
nan

>  <csv_name>  (256) 
nan

>  <scratch_subdir>  (256) 
nan

>  <fragmenstein_runtime>  (256) 
nan

>  <fragmenstein_outcome>  (256) 
nan

>  <fragmenstein_mode>  (256) 
nan

>  <fragmenstein_error>  (256) 
nan

>  <exports>  (256) 
nan

>  <Multi-SuCOS>  (256) 
nan

>  <merge_set>  (256) 
nan

$$$$
ZKYBUYKTGRCUCR-CYBMUJFWSA-N
     RDKit          3D

 22 24  0  0  0  0  0  0  0  0999 V2000
  -21.0927  -33.1705  -24.7906 C   0  0  0  0  0  0  0  0  0  0  0  0
  -21.1888  -32.6315  -23.4833 O   0  0  0  0  0  0  0  0  0  0  0  0
  -22.5408  -32.3213  -23.0755 C   0  0  0  0  0  0  0  0  0  0  0  0
  -22.8201  -31.9856  -21.6273 C   0  0  0  0  0  0  0  0  0  0  0  0
  -24.2215  -32.6745  -21.8032 N   0  0  0  0  0  0  0  0  0  0  0  0
  -25.3141  -31.6487  -22.1060 C   0  0  0  0  0  0  0  0  0  0  0  0
  -25.6901  -31.2446  -23.1083 O   0  0  0  0  0  0  0  0  0  0  0  0
  -25.8285  -31.3960  -20.6690 N   0  0  0  0  0  0  0  0  0  0  0  0
  -26.9377  -30.6869  -20.2204 C   0  0  0  0  0  0  0  0  0  0  0  0
  -27.9379  -30.2781  -21.0964 C   0  0  0  0  0  0  0  0  0  0  0  0
  -29.1659  -29.8559  -20.5913 C   0  0  0  0  0  0  0  0  0  0  0  0
  -29.3746  -29.8126  -19.2156 C   0  0  0  0  0  0  0  0  0  0  0  0
  -28.3268  -30.0633  -18.3249 C   0  0  0  0  0  0  0  0  0  0  0  0
  -27.1180  -30.5231  -18.8461 C   0  0  0  0  0  0  0  0  0  0  0  0
  -26.0925  -30.9335  -18.0383 O   0  0  0  0  0  0  0  0  0  0  0  0
  -25.9750  -30.2227  -16.8054 C   0  0  0  0  0  0  0  0  0  0  0  0
  -25.4245  -28.8549  -17.1678 C   0  0  0  0  0  0  0  0  0  0  0  0
  -24.9101  -30.9690  -15.9862 C   0  0  0  0  0  0  0  0  0  0  0  0
  -27.2841  -30.1717  -16.0018 C   0  0  0  0  0  0  0  0  0  0  0  0
  -28.5348  -29.9266  -16.8438 C   0  0  1  0  0  0  0  0  0  0  0  0
  -29.0433  -28.6369  -16.5274 O   0  0  0  0  0  0  0  0  0  0  0  0
  -23.3997  -33.5178  -22.7253 C   0  0  0  0  0  0  0  0  0  0  0  0
  1  2  1  0
  2  3  1  0
  3  4  1  0
  4  5  1  0
  5  6  1  0
  6  7  2  0
  6  8  1  0
  8  9  1  0
  9 10  2  0
 10 11  1  0
 11 12  2  0
 12 13  1  0
 13 14  2  0
 14 15  1  0
 15 16  1  0
 16 17  1  0
 16 18  1  0
 16 19  1  0
 19 20  1  0
 20 21  1  6
  5 22  1  0
 22  3  1  0
 14  9  1  0
 20 13  1  0
M  END
>  <id>  (257) 
304155

>  <inchikey>  (257) 
ZKYBUYKTGRCUCR-CYBMUJFWSA-N

>  <alias>  (257) 
None

>  <smiles>  (257) 
COC1CN(C(=O)Nc2cccc3c2OC(C)(C)C[C@H]3O)C1

>  <path>  (257) 
/opt/xchem-fragalysis-2/maxwin/RdRp_FFF/syndirella/mar_elabs/elabs_064/UKWFLRZSMSDWTC-UHFFFAOYSA-N/output/UKWFLRZSMSDWTC-UHFFFAOYSA-N-9p8iBB-852-B/UKWFLRZSMSDWTC-UHFFFAOYSA-N-9p8iBB-852-B.minimised.mol

>  <distance_score>  (257) 
0.941248

>  <energy_score>  (257) 
-15.904684

>  <compound>  (257) 
ZKYBUYKTGRCUCR-UHFFFAOYSA-N

>  <compound_id>  (257) 
133708

>  <target>  (257) 
Flavi_NS5_RdRp

>  <tags>  (257) 
[]

>  <inspirations>  (257) 
{P Ã— 2}

>  <subsites>  (257) 
None

>  <reference>  (257) 
z0211a

>  <SLURM_JOB_ID>  (257) 
nan

>  <SLURM_JOB_NAME>  (257) 
nan

>  <csv_name>  (257) 
nan

>  <scratch_subdir>  (257) 
nan

>  <fragmenstein_runtime>  (257) 
nan

>  <fragmenstein_outcome>  (257) 
nan

>  <fragmenstein_mode>  (257) 
nan

>  <fragmenstein_error>  (257) 
nan

>  <exports>  (257) 
nan

>  <Multi-SuCOS>  (257) 
nan

>  <merge_set>  (257) 
nan

$$$$
FYELBOIAHHULKZ-LDYMZIIASA-N
     RDKit          3D

 22 23  0  0  0  0  0  0  0  0999 V2000
  -21.0621  -32.8492  -23.6478 C   0  0  0  0  0  0  0  0  0  0  0  0
  -22.2034  -32.5704  -22.6880 C   0  0  1  0  0  0  0  0  0  0  0  0
  -21.7863  -31.5782  -21.7495 O   0  0  0  0  0  0  0  0  0  0  0  0
  -23.4791  -32.0648  -23.3848 C   0  0  0  0  0  0  0  0  0  0  0  0
  -23.5955  -32.1097  -24.6102 N   0  0  0  0  0  0  0  0  0  0  0  0
  -24.3692  -31.4822  -22.3176 N   0  0  0  0  0  0  0  0  0  0  0  0
  -25.8256  -30.8126  -22.3809 C   0  0  0  0  0  0  0  0  0  0  0  0
  -26.5000  -30.5474  -23.2764 O   0  0  0  0  0  0  0  0  0  0  0  0
  -26.0899  -30.7255  -20.9267 N   0  0  0  0  0  0  0  0  0  0  0  0
  -27.2490  -30.3899  -20.2350 C   0  0  0  0  0  0  0  0  0  0  0  0
  -28.4237  -30.0909  -20.9193 C   0  0  0  0  0  0  0  0  0  0  0  0
  -29.6109  -29.9042  -20.2226 C   0  0  0  0  0  0  0  0  0  0  0  0
  -29.6018  -29.9261  -18.8326 C   0  0  0  0  0  0  0  0  0  0  0  0
  -28.4033  -30.0965  -18.1260 C   0  0  0  0  0  0  0  0  0  0  0  0
  -27.2455  -30.3982  -18.8405 C   0  0  0  0  0  0  0  0  0  0  0  0
  -26.0996  -30.8213  -18.2269 O   0  0  0  0  0  0  0  0  0  0  0  0
  -25.8497  -30.2711  -16.9311 C   0  0  0  0  0  0  0  0  0  0  0  0
  -24.7125  -31.1100  -16.3264 C   0  0  0  0  0  0  0  0  0  0  0  0
  -25.3360  -28.8668  -17.1703 C   0  0  0  0  0  0  0  0  0  0  0  0
  -27.0503  -30.2885  -15.9703 C   0  0  0  0  0  0  0  0  0  0  0  0
  -28.3989  -30.0102  -16.6289 C   0  0  1  0  0  0  0  0  0  0  0  0
  -28.8659  -28.7313  -16.2205 O   0  0  0  0  0  0  0  0  0  0  0  0
  2  1  1  6
  2  3  1  0
  2  4  1  0
  4  5  2  3
  4  6  1  0
  6  7  1  0
  7  8  2  0
  7  9  1  0
  9 10  1  0
 10 11  2  0
 11 12  1  0
 12 13  2  0
 13 14  1  0
 14 15  2  0
 15 16  1  0
 16 17  1  0
 17 18  1  0
 17 19  1  0
 17 20  1  0
 20 21  1  0
 21 22  1  6
 15 10  1  0
 21 14  1  0
M  END
>  <id>  (258) 
304159

>  <inchikey>  (258) 
FYELBOIAHHULKZ-LDYMZIIASA-N

>  <alias>  (258) 
None

>  <smiles>  (258) 
C[C@@H](O)C(=N)NC(=O)Nc1cccc2c1OC(C)(C)C[C@H]2O

>  <path>  (258) 
/opt/xchem-fragalysis-2/maxwin/RdRp_FFF/syndirella/mar_elabs/elabs_064/UKWFLRZSMSDWTC-UHFFFAOYSA-N/output/UKWFLRZSMSDWTC-UHFFFAOYSA-N-9p8iBB-854-D/UKWFLRZSMSDWTC-UHFFFAOYSA-N-9p8iBB-854-D.minimised.mol

>  <distance_score>  (258) 
0.845672

>  <energy_score>  (258) 
-32.050466

>  <compound>  (258) 
FYELBOIAHHULKZ-UHFFFAOYSA-N

>  <compound_id>  (258) 
133639

>  <target>  (258) 
Flavi_NS5_RdRp

>  <tags>  (258) 
[]

>  <inspirations>  (258) 
{P Ã— 2}

>  <subsites>  (258) 
None

>  <reference>  (258) 
z0211a

>  <SLURM_JOB_ID>  (258) 
nan

>  <SLURM_JOB_NAME>  (258) 
nan

>  <csv_name>  (258) 
nan

>  <scratch_subdir>  (258) 
nan

>  <fragmenstein_runtime>  (258) 
nan

>  <fragmenstein_outcome>  (258) 
nan

>  <fragmenstein_mode>  (258) 
nan

>  <fragmenstein_error>  (258) 
nan

>  <exports>  (258) 
nan

>  <Multi-SuCOS>  (258) 
nan

>  <merge_set>  (258) 
nan

$$$$
YHHOGAOBQGMESI-NSHDSACASA-N
     RDKit          3D

 23 24  0  0  0  0  0  0  0  0999 V2000
  -24.6079  -31.2205  -16.2878 C   0  0  0  0  0  0  0  0  0  0  0  0
  -25.7352  -30.3180  -16.8078 C   0  0  0  0  0  0  0  0  0  0  0  0
  -25.2037  -28.9157  -16.9959 C   0  0  0  0  0  0  0  0  0  0  0  0
  -26.9071  -30.3586  -15.8207 C   0  0  0  0  0  0  0  0  0  0  0  0
  -28.1803  -29.7645  -16.4032 C   0  0  2  0  0  0  0  0  0  0  0  0
  -29.3055  -30.1821  -15.6356 O   0  0  0  0  0  0  0  0  0  0  0  0
  -28.3389  -30.0230  -17.8719 C   0  0  0  0  0  0  0  0  0  0  0  0
  -29.5759  -29.8717  -18.5041 C   0  0  0  0  0  0  0  0  0  0  0  0
  -29.6780  -29.9414  -19.8928 C   0  0  0  0  0  0  0  0  0  0  0  0
  -28.5384  -30.1464  -20.6635 C   0  0  0  0  0  0  0  0  0  0  0  0
  -27.3181  -30.3939  -20.0466 C   0  0  0  0  0  0  0  0  0  0  0  0
  -26.1806  -30.7086  -20.7838 N   0  0  0  0  0  0  0  0  0  0  0  0
  -25.9726  -30.7937  -22.2442 C   0  0  0  0  0  0  0  0  0  0  0  0
  -26.6866  -30.5439  -23.1130 O   0  0  0  0  0  0  0  0  0  0  0  0
  -24.4977  -31.4363  -22.2371 N   0  0  0  0  0  0  0  0  0  0  0  0
  -23.6359  -32.0059  -23.3411 C   0  0  0  0  0  0  0  0  0  0  0  0
  -23.7999  -32.0558  -24.5619 N   0  0  0  0  0  0  0  0  0  0  0  0
  -22.3049  -32.4939  -22.7006 C   0  0  0  0  0  0  0  0  0  0  0  0
  -21.1990  -32.7116  -23.7307 C   0  0  0  0  0  0  0  0  0  0  0  0
  -22.5311  -33.7725  -21.8989 C   0  0  0  0  0  0  0  0  0  0  0  0
  -21.8739  -31.4789  -21.7880 O   0  0  0  0  0  0  0  0  0  0  0  0
  -27.2316  -30.3596  -18.6553 C   0  0  0  0  0  0  0  0  0  0  0  0
  -26.0442  -30.7797  -18.1213 O   0  0  0  0  0  0  0  0  0  0  0  0
  1  2  1  0
  2  3  1  0
  2  4  1  0
  4  5  1  0
  5  6  1  1
  5  7  1  0
  7  8  2  0
  8  9  1  0
  9 10  2  0
 10 11  1  0
 11 12  1  0
 12 13  1  0
 13 14  2  0
 13 15  1  0
 15 16  1  0
 16 17  2  3
 16 18  1  0
 18 19  1  0
 18 20  1  0
 18 21  1  0
 11 22  2  0
 22 23  1  0
 23  2  1  0
 22  7  1  0
M  END
>  <id>  (259) 
304730

>  <inchikey>  (259) 
YHHOGAOBQGMESI-NSHDSACASA-N

>  <alias>  (259) 
None

>  <smiles>  (259) 
CC1(C)C[C@H](O)c2cccc(NC(=O)NC(=N)C(C)(C)O)c2O1

>  <path>  (259) 
/opt/xchem-fragalysis-2/maxwin/RdRp_FFF/syndirella/mar_elabs/elabs_064/UKWFLRZSMSDWTC-UHFFFAOYSA-N/output/UKWFLRZSMSDWTC-UHFFFAOYSA-N-9p8iBB-2635-A/UKWFLRZSMSDWTC-UHFFFAOYSA-N-9p8iBB-2635-A.minimised.mol

>  <distance_score>  (259) 
1.040013

>  <energy_score>  (259) 
-33.795723

>  <compound>  (259) 
YHHOGAOBQGMESI-UHFFFAOYSA-N

>  <compound_id>  (259) 
134387

>  <target>  (259) 
Flavi_NS5_RdRp

>  <tags>  (259) 
[]

>  <inspirations>  (259) 
{P Ã— 2}

>  <subsites>  (259) 
None

>  <reference>  (259) 
z0211a

>  <SLURM_JOB_ID>  (259) 
nan

>  <SLURM_JOB_NAME>  (259) 
nan

>  <csv_name>  (259) 
nan

>  <scratch_subdir>  (259) 
nan

>  <fragmenstein_runtime>  (259) 
nan

>  <fragmenstein_outcome>  (259) 
nan

>  <fragmenstein_mode>  (259) 
nan

>  <fragmenstein_error>  (259) 
nan

>  <exports>  (259) 
nan

>  <Multi-SuCOS>  (259) 
nan

>  <merge_set>  (259) 
nan

$$$$
LCOGRIIBMAYNBW-CYBMUJFWSA-N
     RDKit          3D

 23 24  0  0  0  0  0  0  0  0999 V2000
  -21.1068  -32.8150  -24.8464 C   0  0  0  0  0  0  0  0  0  0  0  0
  -21.3097  -33.4946  -23.6237 O   0  0  0  0  0  0  0  0  0  0  0  0
  -22.0113  -32.7758  -22.5893 C   0  0  0  0  0  0  0  0  0  0  0  0
  -21.0787  -31.7470  -21.9446 C   0  0  0  0  0  0  0  0  0  0  0  0
  -22.3296  -33.8631  -21.5459 C   0  0  0  0  0  0  0  0  0  0  0  0
  -23.3107  -32.1352  -23.1178 C   0  0  0  0  0  0  0  0  0  0  0  0
  -24.2117  -31.6184  -22.1262 N   0  0  0  0  0  0  0  0  0  0  0  0
  -25.5660  -30.8899  -22.2867 C   0  0  0  0  0  0  0  0  0  0  0  0
  -26.1055  -30.5390  -23.2250 O   0  0  0  0  0  0  0  0  0  0  0  0
  -26.0115  -30.8513  -20.8009 N   0  0  0  0  0  0  0  0  0  0  0  0
  -27.2162  -30.4654  -20.2351 C   0  0  0  0  0  0  0  0  0  0  0  0
  -28.3186  -30.1471  -21.0153 C   0  0  0  0  0  0  0  0  0  0  0  0
  -29.5445  -29.9054  -20.4050 C   0  0  0  0  0  0  0  0  0  0  0  0
  -29.6398  -29.9072  -19.0155 C   0  0  0  0  0  0  0  0  0  0  0  0
  -28.5027  -30.0849  -18.2184 C   0  0  0  0  0  0  0  0  0  0  0  0
  -27.3095  -30.4256  -18.8438 C   0  0  0  0  0  0  0  0  0  0  0  0
  -26.2052  -30.8264  -18.1455 O   0  0  0  0  0  0  0  0  0  0  0  0
  -26.0216  -30.2217  -16.8664 C   0  0  0  0  0  0  0  0  0  0  0  0
  -25.4498  -28.8491  -17.1612 C   0  0  0  0  0  0  0  0  0  0  0  0
  -24.9320  -31.0463  -16.1597 C   0  0  0  0  0  0  0  0  0  0  0  0
  -27.2812  -30.1970  -15.9837 C   0  0  0  0  0  0  0  0  0  0  0  0
  -28.5914  -29.9543  -16.7289 C   0  0  1  0  0  0  0  0  0  0  0  0
  -29.0671  -28.6588  -16.3870 O   0  0  0  0  0  0  0  0  0  0  0  0
  1  2  1  0
  2  3  1  0
  3  4  1  0
  3  5  1  0
  3  6  1  0
  6  7  1  0
  7  8  1  0
  8  9  2  0
  8 10  1  0
 10 11  1  0
 11 12  2  0
 12 13  1  0
 13 14  2  0
 14 15  1  0
 15 16  2  0
 16 17  1  0
 17 18  1  0
 18 19  1  0
 18 20  1  0
 18 21  1  0
 21 22  1  0
 22 23  1  6
 16 11  1  0
 22 15  1  0
M  END
>  <id>  (260) 
304733

>  <inchikey>  (260) 
LCOGRIIBMAYNBW-CYBMUJFWSA-N

>  <alias>  (260) 
None

>  <smiles>  (260) 
COC(C)(C)CNC(=O)Nc1cccc2c1OC(C)(C)C[C@H]2O

>  <path>  (260) 
/opt/xchem-fragalysis-2/maxwin/RdRp_FFF/syndirella/mar_elabs/elabs_064/UKWFLRZSMSDWTC-UHFFFAOYSA-N/output/UKWFLRZSMSDWTC-UHFFFAOYSA-N-9p8iBB-2636-B/UKWFLRZSMSDWTC-UHFFFAOYSA-N-9p8iBB-2636-B.minimised.mol

>  <distance_score>  (260) 
0.765345

>  <energy_score>  (260) 
-15.966545

>  <compound>  (260) 
LCOGRIIBMAYNBW-UHFFFAOYSA-N

>  <compound_id>  (260) 
134137

>  <target>  (260) 
Flavi_NS5_RdRp

>  <tags>  (260) 
[]

>  <inspirations>  (260) 
{P Ã— 2}

>  <subsites>  (260) 
None

>  <reference>  (260) 
z0211a

>  <SLURM_JOB_ID>  (260) 
nan

>  <SLURM_JOB_NAME>  (260) 
nan

>  <csv_name>  (260) 
nan

>  <scratch_subdir>  (260) 
nan

>  <fragmenstein_runtime>  (260) 
nan

>  <fragmenstein_outcome>  (260) 
nan

>  <fragmenstein_mode>  (260) 
nan

>  <fragmenstein_error>  (260) 
nan

>  <exports>  (260) 
nan

>  <Multi-SuCOS>  (260) 
nan

>  <merge_set>  (260) 
nan

$$$$
RZRQDPQZHMIVNA-JOYOIKCWSA-N
     RDKit          3D

 23 24  0  0  0  0  0  0  0  0999 V2000
  -22.4129  -34.0820  -20.6539 C   0  0  0  0  0  0  0  0  0  0  0  0
  -22.0067  -32.7228  -20.7612 O   0  0  0  0  0  0  0  0  0  0  0  0
  -21.6829  -32.2793  -22.0828 C   0  0  1  0  0  0  0  0  0  0  0  0
  -20.6940  -33.1759  -22.8008 C   0  0  0  0  0  0  0  0  0  0  0  0
  -22.9400  -31.9999  -22.9340 C   0  0  0  0  0  0  0  0  0  0  0  0
  -22.9241  -32.0923  -24.1635 N   0  0  0  0  0  0  0  0  0  0  0  0
  -24.0178  -31.5673  -21.9814 N   0  0  0  0  0  0  0  0  0  0  0  0
  -25.4828  -30.9719  -22.2196 C   0  0  0  0  0  0  0  0  0  0  0  0
  -26.0875  -30.8079  -23.1858 O   0  0  0  0  0  0  0  0  0  0  0  0
  -25.8708  -30.7834  -20.8079 N   0  0  0  0  0  0  0  0  0  0  0  0
  -27.0940  -30.4457  -20.2422 C   0  0  0  0  0  0  0  0  0  0  0  0
  -28.2087  -30.1398  -21.0136 C   0  0  0  0  0  0  0  0  0  0  0  0
  -29.4318  -29.9018  -20.3931 C   0  0  0  0  0  0  0  0  0  0  0  0
  -29.5182  -29.9043  -19.0021 C   0  0  0  0  0  0  0  0  0  0  0  0
  -28.3770  -30.0939  -18.2125 C   0  0  0  0  0  0  0  0  0  0  0  0
  -27.1869  -30.4312  -18.8497 C   0  0  0  0  0  0  0  0  0  0  0  0
  -26.0852  -30.8599  -18.1597 O   0  0  0  0  0  0  0  0  0  0  0  0
  -25.8885  -30.2505  -16.8831 C   0  0  0  0  0  0  0  0  0  0  0  0
  -24.7774  -31.0584  -16.1942 C   0  0  0  0  0  0  0  0  0  0  0  0
  -25.3627  -28.8579  -17.1669 C   0  0  0  0  0  0  0  0  0  0  0  0
  -27.1358  -30.2400  -15.9841 C   0  0  0  0  0  0  0  0  0  0  0  0
  -28.4529  -29.9834  -16.7177 C   0  0  1  0  0  0  0  0  0  0  0  0
  -28.9456  -28.7013  -16.3485 O   0  0  0  0  0  0  0  0  0  0  0  0
  1  2  1  0
  2  3  1  0
  3  4  1  6
  3  5  1  0
  5  6  2  3
  5  7  1  0
  7  8  1  0
  8  9  2  0
  8 10  1  0
 10 11  1  0
 11 12  2  0
 12 13  1  0
 13 14  2  0
 14 15  1  0
 15 16  2  0
 16 17  1  0
 17 18  1  0
 18 19  1  0
 18 20  1  0
 18 21  1  0
 21 22  1  0
 22 23  1  6
 16 11  1  0
 22 15  1  0
M  END
>  <id>  (261) 
304741

>  <inchikey>  (261) 
RZRQDPQZHMIVNA-JOYOIKCWSA-N

>  <alias>  (261) 
None

>  <smiles>  (261) 
CO[C@@H](C)C(=N)NC(=O)Nc1cccc2c1OC(C)(C)C[C@H]2O

>  <path>  (261) 
/opt/xchem-fragalysis-2/maxwin/RdRp_FFF/syndirella/mar_elabs/elabs_064/UKWFLRZSMSDWTC-UHFFFAOYSA-N/output/UKWFLRZSMSDWTC-UHFFFAOYSA-N-9p8iBB-2639-D/UKWFLRZSMSDWTC-UHFFFAOYSA-N-9p8iBB-2639-D.minimised.mol

>  <distance_score>  (261) 
0.912699

>  <energy_score>  (261) 
-33.224925

>  <compound>  (261) 
RZRQDPQZHMIVNA-UHFFFAOYSA-N

>  <compound_id>  (261) 
134148

>  <target>  (261) 
Flavi_NS5_RdRp

>  <tags>  (261) 
[]

>  <inspirations>  (261) 
{P Ã— 2}

>  <subsites>  (261) 
None

>  <reference>  (261) 
z0211a

>  <SLURM_JOB_ID>  (261) 
nan

>  <SLURM_JOB_NAME>  (261) 
nan

>  <csv_name>  (261) 
nan

>  <scratch_subdir>  (261) 
nan

>  <fragmenstein_runtime>  (261) 
nan

>  <fragmenstein_outcome>  (261) 
nan

>  <fragmenstein_mode>  (261) 
nan

>  <fragmenstein_error>  (261) 
nan

>  <exports>  (261) 
nan

>  <Multi-SuCOS>  (261) 
nan

>  <merge_set>  (261) 
nan

$$$$
QDGBZTSRHCVGRY-DDTOSNHZSA-N
     RDKit          3D

 23 24  0  0  0  0  0  0  0  0999 V2000
  -22.4024  -34.0732  -21.2566 C   0  0  0  0  0  0  0  0  0  0  0  0
  -21.6704  -33.6965  -22.5392 C   0  0  0  0  0  0  0  0  0  0  0  0
  -21.9718  -32.2943  -23.0571 C   0  0  2  0  0  0  0  0  0  0  0  0
  -21.5234  -31.3521  -22.0847 O   0  0  0  0  0  0  0  0  0  0  0  0
  -23.4286  -32.0098  -23.4758 C   0  0  1  0  0  0  0  0  0  0  0  0
  -24.0691  -33.1229  -24.2992 C   0  0  0  0  0  0  0  0  0  0  0  0
  -24.2971  -31.5725  -22.4046 N   0  0  0  0  0  0  0  0  0  0  0  0
  -25.6609  -30.8301  -22.4552 C   0  0  0  0  0  0  0  0  0  0  0  0
  -26.2343  -30.4035  -23.3433 O   0  0  0  0  0  0  0  0  0  0  0  0
  -26.0364  -30.8748  -20.9415 N   0  0  0  0  0  0  0  0  0  0  0  0
  -27.2062  -30.4901  -20.2916 C   0  0  0  0  0  0  0  0  0  0  0  0
  -28.3299  -30.1471  -21.0376 C   0  0  0  0  0  0  0  0  0  0  0  0
  -29.5432  -29.8998  -20.4067 C   0  0  0  0  0  0  0  0  0  0  0  0
  -29.6108  -29.9125  -19.0198 C   0  0  0  0  0  0  0  0  0  0  0  0
  -28.4572  -30.1043  -18.2497 C   0  0  0  0  0  0  0  0  0  0  0  0
  -27.2714  -30.4539  -18.8971 C   0  0  0  0  0  0  0  0  0  0  0  0
  -26.1595  -30.8439  -18.2079 O   0  0  0  0  0  0  0  0  0  0  0  0
  -25.9718  -30.2401  -16.9246 C   0  0  0  0  0  0  0  0  0  0  0  0
  -25.4243  -28.8548  -17.2043 C   0  0  0  0  0  0  0  0  0  0  0  0
  -24.8692  -31.0581  -16.2313 C   0  0  0  0  0  0  0  0  0  0  0  0
  -27.2196  -30.2193  -16.0252 C   0  0  0  0  0  0  0  0  0  0  0  0
  -28.5337  -29.9734  -16.7577 C   0  0  1  0  0  0  0  0  0  0  0  0
  -29.0136  -28.6802  -16.4085 O   0  0  0  0  0  0  0  0  0  0  0  0
  1  2  1  0
  2  3  1  0
  3  4  1  1
  3  5  1  0
  5  6  1  1
  5  7  1  0
  7  8  1  0
  8  9  2  0
  8 10  1  0
 10 11  1  0
 11 12  2  0
 12 13  1  0
 13 14  2  0
 14 15  1  0
 15 16  2  0
 16 17  1  0
 17 18  1  0
 18 19  1  0
 18 20  1  0
 18 21  1  0
 21 22  1  0
 22 23  1  6
 16 11  1  0
 22 15  1  0
M  END
>  <id>  (262) 
304747

>  <inchikey>  (262) 
QDGBZTSRHCVGRY-DDTOSNHZSA-N

>  <alias>  (262) 
None

>  <smiles>  (262) 
CC[C@H](O)[C@@H](C)NC(=O)Nc1cccc2c1OC(C)(C)C[C@H]2O

>  <path>  (262) 
/opt/xchem-fragalysis-2/maxwin/RdRp_FFF/syndirella/mar_elabs/elabs_064/UKWFLRZSMSDWTC-UHFFFAOYSA-N/output/UKWFLRZSMSDWTC-UHFFFAOYSA-N-9p8iBB-2642-G/UKWFLRZSMSDWTC-UHFFFAOYSA-N-9p8iBB-2642-G.minimised.mol

>  <distance_score>  (262) 
0.86439

>  <energy_score>  (262) 
-27.322426

>  <compound>  (262) 
QDGBZTSRHCVGRY-UHFFFAOYSA-N

>  <compound_id>  (262) 
134676

>  <target>  (262) 
Flavi_NS5_RdRp

>  <tags>  (262) 
[]

>  <inspirations>  (262) 
{P Ã— 2}

>  <subsites>  (262) 
None

>  <reference>  (262) 
z0211a

>  <SLURM_JOB_ID>  (262) 
nan

>  <SLURM_JOB_NAME>  (262) 
nan

>  <csv_name>  (262) 
nan

>  <scratch_subdir>  (262) 
nan

>  <fragmenstein_runtime>  (262) 
nan

>  <fragmenstein_outcome>  (262) 
nan

>  <fragmenstein_mode>  (262) 
nan

>  <fragmenstein_error>  (262) 
nan

>  <exports>  (262) 
nan

>  <Multi-SuCOS>  (262) 
nan

>  <merge_set>  (262) 
nan

$$$$
LQWHQVRRTUYUBK-ZWNOBZJWSA-N
     RDKit          3D

 23 24  0  0  0  0  0  0  0  0999 V2000
  -21.8289  -34.5254  -21.5017 C   0  0  0  0  0  0  0  0  0  0  0  0
  -21.9245  -34.4622  -22.9217 O   0  0  0  0  0  0  0  0  0  0  0  0
  -21.3264  -33.2853  -23.4815 C   0  0  0  0  0  0  0  0  0  0  0  0
  -22.0652  -31.9809  -23.1713 C   0  0  2  0  0  0  0  0  0  0  0  0
  -21.7878  -31.5824  -21.8236 O   0  0  0  0  0  0  0  0  0  0  0  0
  -23.5711  -32.0923  -23.4277 C   0  0  0  0  0  0  0  0  0  0  0  0
  -24.3928  -31.5654  -22.3718 N   0  0  0  0  0  0  0  0  0  0  0  0
  -25.7394  -30.8014  -22.4346 C   0  0  0  0  0  0  0  0  0  0  0  0
  -26.3314  -30.4262  -23.3326 O   0  0  0  0  0  0  0  0  0  0  0  0
  -26.0959  -30.7879  -20.9179 N   0  0  0  0  0  0  0  0  0  0  0  0
  -27.2635  -30.4004  -20.2719 C   0  0  0  0  0  0  0  0  0  0  0  0
  -28.3908  -30.0559  -21.0082 C   0  0  0  0  0  0  0  0  0  0  0  0
  -29.6048  -29.8566  -20.3638 C   0  0  0  0  0  0  0  0  0  0  0  0
  -29.6630  -29.9005  -18.9753 C   0  0  0  0  0  0  0  0  0  0  0  0
  -28.5018  -30.0843  -18.2151 C   0  0  0  0  0  0  0  0  0  0  0  0
  -27.3207  -30.4063  -18.8773 C   0  0  0  0  0  0  0  0  0  0  0  0
  -26.2036  -30.8179  -18.2091 O   0  0  0  0  0  0  0  0  0  0  0  0
  -25.9966  -30.2417  -16.9176 C   0  0  0  0  0  0  0  0  0  0  0  0
  -24.8988  -31.0866  -16.2485 C   0  0  0  0  0  0  0  0  0  0  0  0
  -25.4273  -28.8616  -17.1804 C   0  0  0  0  0  0  0  0  0  0  0  0
  -27.2365  -30.2202  -16.0067 C   0  0  0  0  0  0  0  0  0  0  0  0
  -28.5601  -29.9714  -16.7224 C   0  0  1  0  0  0  0  0  0  0  0  0
  -29.0332  -28.6805  -16.3565 O   0  0  0  0  0  0  0  0  0  0  0  0
  1  2  1  0
  2  3  1  0
  3  4  1  0
  4  5  1  1
  4  6  1  0
  6  7  1  0
  7  8  1  0
  8  9  2  0
  8 10  1  0
 10 11  1  0
 11 12  2  0
 12 13  1  0
 13 14  2  0
 14 15  1  0
 15 16  2  0
 16 17  1  0
 17 18  1  0
 18 19  1  0
 18 20  1  0
 18 21  1  0
 21 22  1  0
 22 23  1  6
 16 11  1  0
 22 15  1  0
M  END
>  <id>  (263) 
304764

>  <inchikey>  (263) 
LQWHQVRRTUYUBK-ZWNOBZJWSA-N

>  <alias>  (263) 
None

>  <smiles>  (263) 
COC[C@H](O)CNC(=O)Nc1cccc2c1OC(C)(C)C[C@H]2O

>  <path>  (263) 
/opt/xchem-fragalysis-2/maxwin/RdRp_FFF/syndirella/mar_elabs/elabs_064/UKWFLRZSMSDWTC-UHFFFAOYSA-N/output/UKWFLRZSMSDWTC-UHFFFAOYSA-N-9p8iBB-2647-C/UKWFLRZSMSDWTC-UHFFFAOYSA-N-9p8iBB-2647-C.minimised.mol

>  <distance_score>  (263) 
0.777437

>  <energy_score>  (263) 
-4.078234

>  <compound>  (263) 
LQWHQVRRTUYUBK-UHFFFAOYSA-N

>  <compound_id>  (263) 
134138

>  <target>  (263) 
Flavi_NS5_RdRp

>  <tags>  (263) 
[]

>  <inspirations>  (263) 
{P Ã— 2}

>  <subsites>  (263) 
None

>  <reference>  (263) 
z0211a

>  <SLURM_JOB_ID>  (263) 
nan

>  <SLURM_JOB_NAME>  (263) 
nan

>  <csv_name>  (263) 
nan

>  <scratch_subdir>  (263) 
nan

>  <fragmenstein_runtime>  (263) 
nan

>  <fragmenstein_outcome>  (263) 
nan

>  <fragmenstein_mode>  (263) 
nan

>  <fragmenstein_error>  (263) 
nan

>  <exports>  (263) 
nan

>  <Multi-SuCOS>  (263) 
nan

>  <merge_set>  (263) 
nan

$$$$
LDBJDYIYFIULSD-JOYOIKCWSA-N
     RDKit          3D

 23 24  0  0  0  0  0  0  0  0999 V2000
  -21.1255  -32.6077  -19.3510 C   0  0  0  0  0  0  0  0  0  0  0  0
  -22.0617  -32.6892  -20.4187 O   0  0  0  0  0  0  0  0  0  0  0  0
  -21.5081  -32.4052  -21.7156 C   0  0  1  0  0  0  0  0  0  0  0  0
  -20.4327  -33.4145  -22.0716 C   0  0  0  0  0  0  0  0  0  0  0  0
  -22.7035  -32.3381  -22.7136 C   0  0  0  0  0  0  0  0  0  0  0  0
  -22.6550  -32.7399  -24.2202 S   0  0  0  0  0  0  0  0  0  0  0  0
  -23.8512  -31.6817  -21.8038 N   0  0  0  0  0  0  0  0  0  0  0  0
  -25.3361  -31.1010  -22.1426 C   0  0  0  0  0  0  0  0  0  0  0  0
  -25.8875  -30.9547  -23.1375 O   0  0  0  0  0  0  0  0  0  0  0  0
  -25.7878  -30.8737  -20.7603 N   0  0  0  0  0  0  0  0  0  0  0  0
  -27.0313  -30.5073  -20.2629 C   0  0  0  0  0  0  0  0  0  0  0  0
  -28.1120  -30.1940  -21.0747 C   0  0  0  0  0  0  0  0  0  0  0  0
  -29.3455  -29.9134  -20.4905 C   0  0  0  0  0  0  0  0  0  0  0  0
  -29.4764  -29.8947  -19.1010 C   0  0  0  0  0  0  0  0  0  0  0  0
  -28.3655  -30.0916  -18.2721 C   0  0  0  0  0  0  0  0  0  0  0  0
  -27.1650  -30.4565  -18.8719 C   0  0  0  0  0  0  0  0  0  0  0  0
  -26.0817  -30.8771  -18.1452 O   0  0  0  0  0  0  0  0  0  0  0  0
  -25.9126  -30.2440  -16.8772 C   0  0  0  0  0  0  0  0  0  0  0  0
  -24.8157  -31.0377  -16.1501 C   0  0  0  0  0  0  0  0  0  0  0  0
  -25.3803  -28.8563  -17.1756 C   0  0  0  0  0  0  0  0  0  0  0  0
  -27.1805  -30.2225  -16.0096 C   0  0  0  0  0  0  0  0  0  0  0  0
  -28.4777  -29.9651  -16.7794 C   0  0  1  0  0  0  0  0  0  0  0  0
  -28.9626  -28.6758  -16.4258 O   0  0  0  0  0  0  0  0  0  0  0  0
  1  2  1  0
  2  3  1  0
  3  4  1  6
  3  5  1  0
  5  6  2  0
  5  7  1  0
  7  8  1  0
  8  9  2  0
  8 10  1  0
 10 11  1  0
 11 12  2  0
 12 13  1  0
 13 14  2  0
 14 15  1  0
 15 16  2  0
 16 17  1  0
 17 18  1  0
 18 19  1  0
 18 20  1  0
 18 21  1  0
 21 22  1  0
 22 23  1  6
 16 11  1  0
 22 15  1  0
M  END
>  <id>  (264) 
304772

>  <inchikey>  (264) 
LDBJDYIYFIULSD-JOYOIKCWSA-N

>  <alias>  (264) 
None

>  <smiles>  (264) 
CO[C@@H](C)C(=S)NC(=O)Nc1cccc2c1OC(C)(C)C[C@H]2O

>  <path>  (264) 
/opt/xchem-fragalysis-2/maxwin/RdRp_FFF/syndirella/mar_elabs/elabs_064/UKWFLRZSMSDWTC-UHFFFAOYSA-N/output/UKWFLRZSMSDWTC-UHFFFAOYSA-N-9p8iBB-2656-D/UKWFLRZSMSDWTC-UHFFFAOYSA-N-9p8iBB-2656-D.minimised.mol

>  <distance_score>  (264) 
1.047298

>  <energy_score>  (264) 
-11.195251

>  <compound>  (264) 
LDBJDYIYFIULSD-UHFFFAOYSA-N

>  <compound_id>  (264) 
134385

>  <target>  (264) 
Flavi_NS5_RdRp

>  <tags>  (264) 
[]

>  <inspirations>  (264) 
{P Ã— 2}

>  <subsites>  (264) 
None

>  <reference>  (264) 
z0211a

>  <SLURM_JOB_ID>  (264) 
nan

>  <SLURM_JOB_NAME>  (264) 
nan

>  <csv_name>  (264) 
nan

>  <scratch_subdir>  (264) 
nan

>  <fragmenstein_runtime>  (264) 
nan

>  <fragmenstein_outcome>  (264) 
nan

>  <fragmenstein_mode>  (264) 
nan

>  <fragmenstein_error>  (264) 
nan

>  <exports>  (264) 
nan

>  <Multi-SuCOS>  (264) 
nan

>  <merge_set>  (264) 
nan

$$$$
HXOPEOLAUJLCCM-KWQFWETISA-N
     RDKit          3D

 23 24  0  0  0  0  0  0  0  0999 V2000
  -20.8301  -33.1303  -24.8101 C   0  0  0  0  0  0  0  0  0  0  0  0
  -21.6250  -32.0193  -24.1745 C   0  0  2  0  0  0  0  0  0  0  0  0
  -20.7889  -30.8778  -24.0002 O   0  0  0  0  0  0  0  0  0  0  0  0
  -22.3385  -32.4769  -22.9008 C   0  0  0  0  0  0  0  0  0  0  0  0
  -22.1302  -33.4647  -22.3155 O   0  0  0  0  0  0  0  0  0  0  0  0
  -23.4025  -31.3703  -22.6616 N   0  0  0  0  0  0  0  0  0  0  0  0
  -24.3947  -31.3086  -21.7913 N   0  0  0  0  0  0  0  0  0  0  0  0
  -25.8536  -30.8151  -21.9666 C   0  0  0  0  0  0  0  0  0  0  0  0
  -26.4059  -30.4706  -22.8992 O   0  0  0  0  0  0  0  0  0  0  0  0
  -26.3239  -30.8904  -20.5015 N   0  0  0  0  0  0  0  0  0  0  0  0
  -27.5003  -30.4774  -19.9207 C   0  0  0  0  0  0  0  0  0  0  0  0
  -28.6475  -30.2293  -20.6476 C   0  0  0  0  0  0  0  0  0  0  0  0
  -29.8264  -29.9853  -19.9598 C   0  0  0  0  0  0  0  0  0  0  0  0
  -29.8083  -29.8750  -18.5656 C   0  0  0  0  0  0  0  0  0  0  0  0
  -28.6146  -29.9766  -17.8439 C   0  0  0  0  0  0  0  0  0  0  0  0
  -27.4764  -30.3386  -18.5366 C   0  0  0  0  0  0  0  0  0  0  0  0
  -26.2963  -30.6867  -17.9524 O   0  0  0  0  0  0  0  0  0  0  0  0
  -26.0508  -30.3017  -16.6095 C   0  0  0  0  0  0  0  0  0  0  0  0
  -25.0698  -31.3409  -16.0369 C   0  0  0  0  0  0  0  0  0  0  0  0
  -25.2949  -29.0001  -16.7389 C   0  0  0  0  0  0  0  0  0  0  0  0
  -27.2919  -30.2318  -15.7108 C   0  0  0  0  0  0  0  0  0  0  0  0
  -28.5388  -29.6756  -16.3854 C   0  0  2  0  0  0  0  0  0  0  0  0
  -29.6860  -30.1567  -15.6918 O   0  0  0  0  0  0  0  0  0  0  0  0
  2  1  1  1
  2  3  1  0
  2  4  1  0
  4  5  2  0
  4  6  1  0
  6  7  1  0
  7  8  1  0
  8  9  2  0
  8 10  1  0
 10 11  1  0
 11 12  2  0
 12 13  1  0
 13 14  2  0
 14 15  1  0
 15 16  2  0
 16 17  1  0
 17 18  1  0
 18 19  1  0
 18 20  1  0
 18 21  1  0
 21 22  1  0
 22 23  1  1
 16 11  1  0
 22 15  1  0
M  END
>  <id>  (265) 
304788

>  <inchikey>  (265) 
HXOPEOLAUJLCCM-KWQFWETISA-N

>  <alias>  (265) 
None

>  <smiles>  (265) 
C[C@H](O)C(=O)NNC(=O)Nc1cccc2c1OC(C)(C)C[C@@H]2O

>  <path>  (265) 
/opt/xchem-fragalysis-2/maxwin/RdRp_FFF/syndirella/mar_elabs/elabs_064/UKWFLRZSMSDWTC-UHFFFAOYSA-N/output/UKWFLRZSMSDWTC-UHFFFAOYSA-N-9p8iBB-2670-B/UKWFLRZSMSDWTC-UHFFFAOYSA-N-9p8iBB-2670-B.minimised.mol

>  <distance_score>  (265) 
0.950081

>  <energy_score>  (265) 
-0.9522

>  <compound>  (265) 
HXOPEOLAUJLCCM-UHFFFAOYSA-N

>  <compound_id>  (265) 
134070

>  <target>  (265) 
Flavi_NS5_RdRp

>  <tags>  (265) 
[]

>  <inspirations>  (265) 
{P Ã— 2}

>  <subsites>  (265) 
None

>  <reference>  (265) 
z0211a

>  <SLURM_JOB_ID>  (265) 
nan

>  <SLURM_JOB_NAME>  (265) 
nan

>  <csv_name>  (265) 
nan

>  <scratch_subdir>  (265) 
nan

>  <fragmenstein_runtime>  (265) 
nan

>  <fragmenstein_outcome>  (265) 
nan

>  <fragmenstein_mode>  (265) 
nan

>  <fragmenstein_error>  (265) 
nan

>  <exports>  (265) 
nan

>  <Multi-SuCOS>  (265) 
nan

>  <merge_set>  (265) 
nan

$$$$
VTVKBOYYRMYGJW-LLVKDONJSA-N
     RDKit          3D

 21 22  0  0  0  0  0  0  0  0999 V2000
  -25.3880  -28.8417  -17.1270 C   0  0  0  0  0  0  0  0  0  0  0  0
  -25.9788  -30.2086  -16.8543 C   0  0  0  0  0  0  0  0  0  0  0  0
  -24.9125  -31.0629  -16.1502 C   0  0  0  0  0  0  0  0  0  0  0  0
  -27.2452  -30.1717  -15.9838 C   0  0  0  0  0  0  0  0  0  0  0  0
  -28.5144  -29.7690  -16.7224 C   0  0  0  0  0  0  0  0  0  0  0  0
  -28.4601  -30.0291  -18.1941 C   0  0  0  0  0  0  0  0  0  0  0  0
  -29.6126  -29.8789  -18.9681 C   0  0  0  0  0  0  0  0  0  0  0  0
  -29.5484  -29.9372  -20.3581 C   0  0  0  0  0  0  0  0  0  0  0  0
  -28.3329  -30.1889  -20.9862 C   0  0  0  0  0  0  0  0  0  0  0  0
  -27.2067  -30.4688  -20.2245 C   0  0  0  0  0  0  0  0  0  0  0  0
  -25.9970  -30.8023  -20.8210 N   0  0  0  0  0  0  0  0  0  0  0  0
  -25.5982  -30.8635  -22.3235 C   0  0  0  0  0  0  0  0  0  0  0  0
  -26.1890  -30.5759  -23.2533 O   0  0  0  0  0  0  0  0  0  0  0  0
  -24.2028  -31.5209  -22.1886 N   0  0  0  0  0  0  0  0  0  0  0  0
  -23.2303  -31.8613  -23.1963 C   0  0  0  0  0  0  0  0  0  0  0  0
  -22.0220  -32.5823  -22.6144 C   0  0  2  0  0  0  0  0  0  0  0  0
  -21.3367  -31.7428  -21.6796 O   0  0  0  0  0  0  0  0  0  0  0  0
  -21.0770  -33.0310  -23.7205 C   0  0  0  0  0  0  0  0  0  0  0  0
  -20.7675  -32.0063  -24.5580 F   0  0  0  0  0  0  0  0  0  0  0  0
  -27.2773  -30.3973  -18.8318 C   0  0  0  0  0  0  0  0  0  0  0  0
  -26.1625  -30.7875  -18.1448 O   0  0  0  0  0  0  0  0  0  0  0  0
  1  2  1  0
  2  3  1  0
  2  4  1  0
  4  5  1  0
  5  6  1  0
  6  7  2  0
  7  8  1  0
  8  9  2  0
  9 10  1  0
 10 11  1  0
 11 12  1  0
 12 13  2  0
 12 14  1  0
 14 15  1  0
 15 16  1  0
 16 17  1  1
 16 18  1  0
 18 19  1  0
 10 20  2  0
 20 21  1  0
 21  2  1  0
 20  6  1  0
M  END
>  <id>  (266) 
304966

>  <inchikey>  (266) 
VTVKBOYYRMYGJW-LLVKDONJSA-N

>  <alias>  (266) 
None

>  <smiles>  (266) 
CC1(C)CCc2cccc(NC(=O)NC[C@H](O)CF)c2O1

>  <path>  (266) 
/opt/xchem-fragalysis-2/maxwin/RdRp_FFF/syndirella/mar_elabs/elabs_064/UKWFLRZSMSDWTC-UHFFFAOYSA-N/output/UKWFLRZSMSDWTC-UHFFFAOYSA-N-mLDTEa-11-A/UKWFLRZSMSDWTC-UHFFFAOYSA-N-mLDTEa-11-A.minimised.mol

>  <distance_score>  (266) 
0.766195

>  <energy_score>  (266) 
-3.248064

>  <compound>  (266) 
VTVKBOYYRMYGJW-UHFFFAOYSA-N

>  <compound_id>  (266) 
133453

>  <target>  (266) 
Flavi_NS5_RdRp

>  <tags>  (266) 
[]

>  <inspirations>  (266) 
{P Ã— 2}

>  <subsites>  (266) 
None

>  <reference>  (266) 
z0211a

>  <SLURM_JOB_ID>  (266) 
nan

>  <SLURM_JOB_NAME>  (266) 
nan

>  <csv_name>  (266) 
nan

>  <scratch_subdir>  (266) 
nan

>  <fragmenstein_runtime>  (266) 
nan

>  <fragmenstein_outcome>  (266) 
nan

>  <fragmenstein_mode>  (266) 
nan

>  <fragmenstein_error>  (266) 
nan

>  <exports>  (266) 
nan

>  <Multi-SuCOS>  (266) 
nan

>  <merge_set>  (266) 
nan

$$$$
CJXPRPAETWKSRZ-STQMWFEESA-N
     RDKit          3D

 21 23  0  0  0  0  0  0  0  0999 V2000
  -20.6943  -33.0643  -24.7037 C   0  0  0  0  0  0  0  0  0  0  0  0
  -21.9203  -33.4800  -24.1433 O   0  0  0  0  0  0  0  0  0  0  0  0
  -22.1665  -33.0754  -22.7785 C   0  0  1  0  0  0  0  0  0  0  0  0
  -21.4414  -31.9211  -22.1417 C   0  0  0  0  0  0  0  0  0  0  0  0
  -22.8333  -31.7348  -22.6674 C   0  0  2  0  0  0  0  0  0  0  0  0
  -23.9020  -31.4755  -21.7929 N   0  0  0  0  0  0  0  0  0  0  0  0
  -25.3664  -31.0470  -22.0926 C   0  0  0  0  0  0  0  0  0  0  0  0
  -25.8672  -30.7783  -23.0802 O   0  0  0  0  0  0  0  0  0  0  0  0
  -25.9282  -31.0301  -20.6471 N   0  0  0  0  0  0  0  0  0  0  0  0
  -27.1531  -30.5983  -20.1657 C   0  0  0  0  0  0  0  0  0  0  0  0
  -28.2214  -30.3024  -20.9967 C   0  0  0  0  0  0  0  0  0  0  0  0
  -29.4500  -29.9694  -20.4322 C   0  0  0  0  0  0  0  0  0  0  0  0
  -29.5787  -29.8654  -19.0470 C   0  0  0  0  0  0  0  0  0  0  0  0
  -28.4714  -30.0239  -18.2125 C   0  0  0  0  0  0  0  0  0  0  0  0
  -27.2781  -30.4493  -18.7846 C   0  0  0  0  0  0  0  0  0  0  0  0
  -26.1887  -30.8236  -18.0450 O   0  0  0  0  0  0  0  0  0  0  0  0
  -26.0370  -30.1766  -16.7850 C   0  0  0  0  0  0  0  0  0  0  0  0
  -24.9861  -30.9869  -16.0099 C   0  0  0  0  0  0  0  0  0  0  0  0
  -25.4398  -28.8267  -17.1265 C   0  0  0  0  0  0  0  0  0  0  0  0
  -27.3335  -30.1219  -15.9613 C   0  0  0  0  0  0  0  0  0  0  0  0
  -28.5759  -29.7253  -16.7513 C   0  0  0  0  0  0  0  0  0  0  0  0
  1  2  1  0
  3  2  1  6
  3  4  1  0
  4  5  1  0
  5  6  1  1
  6  7  1  0
  7  8  2  0
  7  9  1  0
  9 10  1  0
 10 11  2  0
 11 12  1  0
 12 13  2  0
 13 14  1  0
 14 15  2  0
 15 16  1  0
 16 17  1  0
 17 18  1  0
 17 19  1  0
 17 20  1  0
 20 21  1  0
  5  3  1  0
 15 10  1  0
 21 14  1  0
M  END
>  <id>  (267) 
304971

>  <inchikey>  (267) 
CJXPRPAETWKSRZ-STQMWFEESA-N

>  <alias>  (267) 
None

>  <smiles>  (267) 
CO[C@H]1C[C@@H]1NC(=O)Nc1cccc2c1OC(C)(C)CC2

>  <path>  (267) 
/opt/xchem-fragalysis-2/maxwin/RdRp_FFF/syndirella/mar_elabs/elabs_064/UKWFLRZSMSDWTC-UHFFFAOYSA-N/output/UKWFLRZSMSDWTC-UHFFFAOYSA-N-mLDTEa-14-D/UKWFLRZSMSDWTC-UHFFFAOYSA-N-mLDTEa-14-D.minimised.mol

>  <distance_score>  (267) 
0.796621

>  <energy_score>  (267) 
-18.539101

>  <compound>  (267) 
CJXPRPAETWKSRZ-UHFFFAOYSA-N

>  <compound_id>  (267) 
133473

>  <target>  (267) 
Flavi_NS5_RdRp

>  <tags>  (267) 
[]

>  <inspirations>  (267) 
{P Ã— 2}

>  <subsites>  (267) 
None

>  <reference>  (267) 
z0211a

>  <SLURM_JOB_ID>  (267) 
nan

>  <SLURM_JOB_NAME>  (267) 
nan

>  <csv_name>  (267) 
nan

>  <scratch_subdir>  (267) 
nan

>  <fragmenstein_runtime>  (267) 
nan

>  <fragmenstein_outcome>  (267) 
nan

>  <fragmenstein_mode>  (267) 
nan

>  <fragmenstein_error>  (267) 
nan

>  <exports>  (267) 
nan

>  <Multi-SuCOS>  (267) 
nan

>  <merge_set>  (267) 
nan

$$$$
AMHFVBNPVGLRKU-BXKDBHETSA-N
     RDKit          3D

 21 22  0  0  0  0  0  0  0  0999 V2000
  -21.0573  -32.8861  -23.7761 C   0  0  0  0  0  0  0  0  0  0  0  0
  -22.0869  -32.6435  -22.6883 C   0  0  1  0  0  0  0  0  0  0  0  0
  -21.4775  -31.9091  -21.6268 O   0  0  0  0  0  0  0  0  0  0  0  0
  -23.2748  -31.8683  -23.2469 C   0  0  0  0  0  0  0  0  0  0  0  0
  -24.2322  -31.5146  -22.2369 N   0  0  0  0  0  0  0  0  0  0  0  0
  -25.6258  -30.8548  -22.3646 C   0  0  0  0  0  0  0  0  0  0  0  0
  -26.2251  -30.5759  -23.2911 O   0  0  0  0  0  0  0  0  0  0  0  0
  -26.0100  -30.7787  -20.8595 N   0  0  0  0  0  0  0  0  0  0  0  0
  -27.2138  -30.4386  -20.2547 C   0  0  0  0  0  0  0  0  0  0  0  0
  -28.3308  -30.1180  -21.0166 C   0  0  0  0  0  0  0  0  0  0  0  0
  -29.5547  -29.8980  -20.3950 C   0  0  0  0  0  0  0  0  0  0  0  0
  -29.6367  -29.9146  -19.0064 C   0  0  0  0  0  0  0  0  0  0  0  0
  -28.4897  -30.0935  -18.2237 C   0  0  0  0  0  0  0  0  0  0  0  0
  -27.2976  -30.4232  -18.8621 C   0  0  0  0  0  0  0  0  0  0  0  0
  -26.1903  -30.8259  -18.1715 O   0  0  0  0  0  0  0  0  0  0  0  0
  -26.0014  -30.2282  -16.8888 C   0  0  0  0  0  0  0  0  0  0  0  0
  -24.9066  -31.0552  -16.1932 C   0  0  0  0  0  0  0  0  0  0  0  0
  -25.4369  -28.8505  -17.1725 C   0  0  0  0  0  0  0  0  0  0  0  0
  -27.2547  -30.2071  -15.9967 C   0  0  0  0  0  0  0  0  0  0  0  0
  -28.5692  -29.9655  -16.7330 C   0  0  1  0  0  0  0  0  0  0  0  0
  -29.0477  -28.6713  -16.3864 O   0  0  0  0  0  0  0  0  0  0  0  0
  2  1  1  6
  2  3  1  0
  2  4  1  0
  4  5  1  0
  5  6  1  0
  6  7  2  0
  6  8  1  0
  8  9  1  0
  9 10  2  0
 10 11  1  0
 11 12  2  0
 12 13  1  0
 13 14  2  0
 14 15  1  0
 15 16  1  0
 16 17  1  0
 16 18  1  0
 16 19  1  0
 19 20  1  0
 20 21  1  6
 14  9  1  0
 20 13  1  0
M  END
>  <id>  (268) 
305009

>  <inchikey>  (268) 
AMHFVBNPVGLRKU-BXKDBHETSA-N

>  <alias>  (268) 
None

>  <smiles>  (268) 
C[C@@H](O)CNC(=O)Nc1cccc2c1OC(C)(C)C[C@H]2O

>  <path>  (268) 
/opt/xchem-fragalysis-2/maxwin/RdRp_FFF/syndirella/mar_elabs/elabs_064/UKWFLRZSMSDWTC-UHFFFAOYSA-N/output/UKWFLRZSMSDWTC-UHFFFAOYSA-N-mLDTEa-51-D/UKWFLRZSMSDWTC-UHFFFAOYSA-N-mLDTEa-51-D.minimised.mol

>  <distance_score>  (268) 
0.76854

>  <energy_score>  (268) 
-12.439278

>  <compound>  (268) 
AMHFVBNPVGLRKU-UHFFFAOYSA-N

>  <compound_id>  (268) 
133446

>  <target>  (268) 
Flavi_NS5_RdRp

>  <tags>  (268) 
[]

>  <inspirations>  (268) 
{P Ã— 2}

>  <subsites>  (268) 
None

>  <reference>  (268) 
z0211a

>  <SLURM_JOB_ID>  (268) 
nan

>  <SLURM_JOB_NAME>  (268) 
nan

>  <csv_name>  (268) 
nan

>  <scratch_subdir>  (268) 
nan

>  <fragmenstein_runtime>  (268) 
nan

>  <fragmenstein_outcome>  (268) 
nan

>  <fragmenstein_mode>  (268) 
nan

>  <fragmenstein_error>  (268) 
nan

>  <exports>  (268) 
nan

>  <Multi-SuCOS>  (268) 
nan

>  <merge_set>  (268) 
nan

$$$$
GIRQCLCCHPXVDW-MFKMUULPSA-N
     RDKit          3D

 22 23  0  0  0  0  0  0  0  0999 V2000
  -21.1198  -32.8835  -24.9573 C   0  0  0  0  0  0  0  0  0  0  0  0
  -21.3029  -33.3772  -23.5328 C   0  0  0  0  0  0  0  0  0  0  0  0
  -22.0573  -32.4204  -22.6181 C   0  0  1  0  0  0  0  0  0  0  0  0
  -21.2428  -31.2708  -22.4118 O   0  0  0  0  0  0  0  0  0  0  0  0
  -23.4422  -32.0709  -23.1624 C   0  0  0  0  0  0  0  0  0  0  0  0
  -24.3176  -31.5569  -22.1458 N   0  0  0  0  0  0  0  0  0  0  0  0
  -25.6819  -30.8373  -22.2686 C   0  0  0  0  0  0  0  0  0  0  0  0
  -26.2511  -30.4926  -23.1920 O   0  0  0  0  0  0  0  0  0  0  0  0
  -26.0926  -30.8155  -20.7711 N   0  0  0  0  0  0  0  0  0  0  0  0
  -27.2920  -30.4572  -20.1741 C   0  0  0  0  0  0  0  0  0  0  0  0
  -28.4222  -30.1821  -20.9281 C   0  0  0  0  0  0  0  0  0  0  0  0
  -29.6339  -29.9462  -20.2885 C   0  0  0  0  0  0  0  0  0  0  0  0
  -29.6834  -29.8781  -18.8972 C   0  0  0  0  0  0  0  0  0  0  0  0
  -28.5215  -30.0093  -18.1323 C   0  0  0  0  0  0  0  0  0  0  0  0
  -27.3470  -30.3800  -18.7823 C   0  0  0  0  0  0  0  0  0  0  0  0
  -26.2178  -30.7626  -18.1159 O   0  0  0  0  0  0  0  0  0  0  0  0
  -26.0125  -30.2110  -16.8173 C   0  0  0  0  0  0  0  0  0  0  0  0
  -25.3836  -28.8595  -17.0811 C   0  0  0  0  0  0  0  0  0  0  0  0
  -24.9643  -31.1027  -16.1323 C   0  0  0  0  0  0  0  0  0  0  0  0
  -27.2740  -30.1622  -15.9438 C   0  0  0  0  0  0  0  0  0  0  0  0
  -28.5092  -29.6586  -16.6759 C   0  0  2  0  0  0  0  0  0  0  0  0
  -29.6767  -30.0980  -15.9863 O   0  0  0  0  0  0  0  0  0  0  0  0
  1  2  1  0
  2  3  1  0
  3  4  1  6
  3  5  1  0
  5  6  1  0
  6  7  1  0
  7  8  2  0
  7  9  1  0
  9 10  1  0
 10 11  2  0
 11 12  1  0
 12 13  2  0
 13 14  1  0
 14 15  2  0
 15 16  1  0
 16 17  1  0
 17 18  1  0
 17 19  1  0
 17 20  1  0
 20 21  1  0
 21 22  1  1
 15 10  1  0
 21 14  1  0
M  END
>  <id>  (269) 
305117

>  <inchikey>  (269) 
GIRQCLCCHPXVDW-MFKMUULPSA-N

>  <alias>  (269) 
None

>  <smiles>  (269) 
CC[C@@H](O)CNC(=O)Nc1cccc2c1OC(C)(C)C[C@@H]2O

>  <path>  (269) 
/opt/xchem-fragalysis-2/maxwin/RdRp_FFF/syndirella/mar_elabs/elabs_064/UKWFLRZSMSDWTC-UHFFFAOYSA-N/output/UKWFLRZSMSDWTC-UHFFFAOYSA-N-mLDTEa-148-B/UKWFLRZSMSDWTC-UHFFFAOYSA-N-mLDTEa-148-B.minimised.mol

>  <distance_score>  (269) 
0.781249

>  <energy_score>  (269) 
-0.320748

>  <compound>  (269) 
GIRQCLCCHPXVDW-UHFFFAOYSA-N

>  <compound_id>  (269) 
133666

>  <target>  (269) 
Flavi_NS5_RdRp

>  <tags>  (269) 
[]

>  <inspirations>  (269) 
{P Ã— 2}

>  <subsites>  (269) 
None

>  <reference>  (269) 
z0211a

>  <SLURM_JOB_ID>  (269) 
nan

>  <SLURM_JOB_NAME>  (269) 
nan

>  <csv_name>  (269) 
nan

>  <scratch_subdir>  (269) 
nan

>  <fragmenstein_runtime>  (269) 
nan

>  <fragmenstein_outcome>  (269) 
nan

>  <fragmenstein_mode>  (269) 
nan

>  <fragmenstein_error>  (269) 
nan

>  <exports>  (269) 
nan

>  <Multi-SuCOS>  (269) 
nan

>  <merge_set>  (269) 
nan

$$$$
MUKUVOJDQBGEBD-LBPRGKRZSA-N
     RDKit          3D

 22 23  0  0  0  0  0  0  0  0999 V2000
  -22.9370  -34.0344  -25.9223 C   0  0  0  0  0  0  0  0  0  0  0  0
  -21.4106  -33.1572  -25.4918 S   0  0  0  0  0  0  0  0  0  0  0  0
  -21.3788  -33.4280  -23.6709 C   0  0  0  0  0  0  0  0  0  0  0  0
  -22.0776  -32.4059  -22.7671 C   0  0  1  0  0  0  0  0  0  0  0  0
  -21.2570  -31.2415  -22.6638 O   0  0  0  0  0  0  0  0  0  0  0  0
  -23.5025  -32.0996  -23.2139 C   0  0  0  0  0  0  0  0  0  0  0  0
  -24.3510  -31.5719  -22.1844 N   0  0  0  0  0  0  0  0  0  0  0  0
  -25.7038  -30.8259  -22.2851 C   0  0  0  0  0  0  0  0  0  0  0  0
  -26.2800  -30.4688  -23.1988 O   0  0  0  0  0  0  0  0  0  0  0  0
  -26.0911  -30.7995  -20.7828 N   0  0  0  0  0  0  0  0  0  0  0  0
  -27.2740  -30.4201  -20.1674 C   0  0  0  0  0  0  0  0  0  0  0  0
  -28.4102  -30.1292  -20.9090 C   0  0  0  0  0  0  0  0  0  0  0  0
  -29.6155  -29.9017  -20.2560 C   0  0  0  0  0  0  0  0  0  0  0  0
  -29.6535  -29.8619  -18.8632 C   0  0  0  0  0  0  0  0  0  0  0  0
  -28.4862  -30.0105  -18.1117 C   0  0  0  0  0  0  0  0  0  0  0  0
  -27.3169  -30.3677  -18.7750 C   0  0  0  0  0  0  0  0  0  0  0  0
  -26.1893  -30.7740  -18.1196 O   0  0  0  0  0  0  0  0  0  0  0  0
  -25.9784  -30.2193  -16.8232 C   0  0  0  0  0  0  0  0  0  0  0  0
  -25.3760  -28.8557  -17.0871 C   0  0  0  0  0  0  0  0  0  0  0  0
  -24.9078  -31.0952  -16.1522 C   0  0  0  0  0  0  0  0  0  0  0  0
  -27.2291  -30.1867  -15.9295 C   0  0  0  0  0  0  0  0  0  0  0  0
  -28.5124  -29.7720  -16.6367 C   0  0  0  0  0  0  0  0  0  0  0  0
  1  2  1  0
  2  3  1  0
  3  4  1  0
  4  5  1  6
  4  6  1  0
  6  7  1  0
  7  8  1  0
  8  9  2  0
  8 10  1  0
 10 11  1  0
 11 12  2  0
 12 13  1  0
 13 14  2  0
 14 15  1  0
 15 16  2  0
 16 17  1  0
 17 18  1  0
 18 19  1  0
 18 20  1  0
 18 21  1  0
 21 22  1  0
 16 11  1  0
 22 15  1  0
M  END
>  <id>  (270) 
305182

>  <inchikey>  (270) 
MUKUVOJDQBGEBD-LBPRGKRZSA-N

>  <alias>  (270) 
None

>  <smiles>  (270) 
CSC[C@@H](O)CNC(=O)Nc1cccc2c1OC(C)(C)CC2

>  <path>  (270) 
/opt/xchem-fragalysis-2/maxwin/RdRp_FFF/syndirella/mar_elabs/elabs_064/UKWFLRZSMSDWTC-UHFFFAOYSA-N/output/UKWFLRZSMSDWTC-UHFFFAOYSA-N-mLDTEa-240-B/UKWFLRZSMSDWTC-UHFFFAOYSA-N-mLDTEa-240-B.minimised.mol

>  <distance_score>  (270) 
0.799628

>  <energy_score>  (270) 
-19.085525

>  <compound>  (270) 
MUKUVOJDQBGEBD-UHFFFAOYSA-N

>  <compound_id>  (270) 
133731

>  <target>  (270) 
Flavi_NS5_RdRp

>  <tags>  (270) 
[]

>  <inspirations>  (270) 
{P Ã— 2}

>  <subsites>  (270) 
None

>  <reference>  (270) 
z0211a

>  <SLURM_JOB_ID>  (270) 
nan

>  <SLURM_JOB_NAME>  (270) 
nan

>  <csv_name>  (270) 
nan

>  <scratch_subdir>  (270) 
nan

>  <fragmenstein_runtime>  (270) 
nan

>  <fragmenstein_outcome>  (270) 
nan

>  <fragmenstein_mode>  (270) 
nan

>  <fragmenstein_error>  (270) 
nan

>  <exports>  (270) 
nan

>  <Multi-SuCOS>  (270) 
nan

>  <merge_set>  (270) 
nan

$$$$
BHVZZUTYILBISU-GXFFZTMASA-N
     RDKit          3D

 22 23  0  0  0  0  0  0  0  0999 V2000
  -22.0539  -33.9279  -21.2179 C   0  0  0  0  0  0  0  0  0  0  0  0
  -21.6825  -32.5897  -21.5105 O   0  0  0  0  0  0  0  0  0  0  0  0
  -21.9039  -32.1370  -22.8531 C   0  0  1  0  0  0  0  0  0  0  0  0
  -21.1052  -32.9493  -23.8645 C   0  0  0  0  0  0  0  0  0  0  0  0
  -23.3819  -32.1087  -23.2453 C   0  0  0  0  0  0  0  0  0  0  0  0
  -24.2438  -31.5649  -22.2368 N   0  0  0  0  0  0  0  0  0  0  0  0
  -25.6172  -30.8634  -22.3643 C   0  0  0  0  0  0  0  0  0  0  0  0
  -26.2049  -30.5604  -23.2907 O   0  0  0  0  0  0  0  0  0  0  0  0
  -26.0044  -30.7872  -20.8601 N   0  0  0  0  0  0  0  0  0  0  0  0
  -27.2000  -30.4166  -20.2568 C   0  0  0  0  0  0  0  0  0  0  0  0
  -28.3129  -30.0877  -21.0218 C   0  0  0  0  0  0  0  0  0  0  0  0
  -29.5389  -29.8710  -20.4034 C   0  0  0  0  0  0  0  0  0  0  0  0
  -29.6268  -29.8986  -19.0152 C   0  0  0  0  0  0  0  0  0  0  0  0
  -28.4834  -30.0830  -18.2289 C   0  0  0  0  0  0  0  0  0  0  0  0
  -27.2897  -30.4108  -18.8645 C   0  0  0  0  0  0  0  0  0  0  0  0
  -26.1885  -30.8252  -18.1713 O   0  0  0  0  0  0  0  0  0  0  0  0
  -26.0002  -30.2293  -16.8873 C   0  0  0  0  0  0  0  0  0  0  0  0
  -25.4305  -28.8528  -17.1672 C   0  0  0  0  0  0  0  0  0  0  0  0
  -24.9096  -31.0608  -16.1904 C   0  0  0  0  0  0  0  0  0  0  0  0
  -27.2558  -30.2046  -15.9982 C   0  0  0  0  0  0  0  0  0  0  0  0
  -28.5690  -29.9651  -16.7377 C   0  0  1  0  0  0  0  0  0  0  0  0
  -29.0572  -28.6762  -16.3850 O   0  0  0  0  0  0  0  0  0  0  0  0
  1  2  1  0
  2  3  1  0
  3  4  1  6
  3  5  1  0
  5  6  1  0
  6  7  1  0
  7  8  2  0
  7  9  1  0
  9 10  1  0
 10 11  2  0
 11 12  1  0
 12 13  2  0
 13 14  1  0
 14 15  2  0
 15 16  1  0
 16 17  1  0
 17 18  1  0
 17 19  1  0
 17 20  1  0
 20 21  1  0
 21 22  1  6
 15 10  1  0
 21 14  1  0
M  END
>  <id>  (271) 
305226

>  <inchikey>  (271) 
BHVZZUTYILBISU-GXFFZTMASA-N

>  <alias>  (271) 
None

>  <smiles>  (271) 
CO[C@@H](C)CNC(=O)Nc1cccc2c1OC(C)(C)C[C@H]2O

>  <path>  (271) 
/opt/xchem-fragalysis-2/maxwin/RdRp_FFF/syndirella/mar_elabs/elabs_064/UKWFLRZSMSDWTC-UHFFFAOYSA-N/output/UKWFLRZSMSDWTC-UHFFFAOYSA-N-mLDTEa-271-D/UKWFLRZSMSDWTC-UHFFFAOYSA-N-mLDTEa-271-D.minimised.mol

>  <distance_score>  (271) 
0.762101

>  <energy_score>  (271) 
-23.659231

>  <compound>  (271) 
BHVZZUTYILBISU-UHFFFAOYSA-N

>  <compound_id>  (271) 
133687

>  <target>  (271) 
Flavi_NS5_RdRp

>  <tags>  (271) 
[]

>  <inspirations>  (271) 
{P Ã— 2}

>  <subsites>  (271) 
None

>  <reference>  (271) 
z0211a

>  <SLURM_JOB_ID>  (271) 
nan

>  <SLURM_JOB_NAME>  (271) 
nan

>  <csv_name>  (271) 
nan

>  <scratch_subdir>  (271) 
nan

>  <fragmenstein_runtime>  (271) 
nan

>  <fragmenstein_outcome>  (271) 
nan

>  <fragmenstein_mode>  (271) 
nan

>  <fragmenstein_error>  (271) 
nan

>  <exports>  (271) 
nan

>  <Multi-SuCOS>  (271) 
nan

>  <merge_set>  (271) 
nan

$$$$
QGDHXURGFSQQAQ-BXUZGUMPSA-N
     RDKit          3D

 22 23  0  0  0  0  0  0  0  0999 V2000
  -20.9655  -32.7427  -24.8424 C   0  0  0  0  0  0  0  0  0  0  0  0
  -21.2061  -33.3204  -23.4614 C   0  0  0  0  0  0  0  0  0  0  0  0
  -22.1156  -32.4875  -22.5674 C   0  0  1  0  0  0  0  0  0  0  0  0
  -21.4017  -31.3162  -22.1753 O   0  0  0  0  0  0  0  0  0  0  0  0
  -23.4942  -32.1517  -23.1692 C   0  0  1  0  0  0  0  0  0  0  0  0
  -24.2035  -33.3734  -23.7589 C   0  0  0  0  0  0  0  0  0  0  0  0
  -24.3519  -31.5859  -22.1514 N   0  0  0  0  0  0  0  0  0  0  0  0
  -25.7112  -30.8601  -22.2776 C   0  0  0  0  0  0  0  0  0  0  0  0
  -26.2944  -30.5476  -23.2029 O   0  0  0  0  0  0  0  0  0  0  0  0
  -26.0929  -30.7755  -20.7772 N   0  0  0  0  0  0  0  0  0  0  0  0
  -27.2772  -30.3835  -20.1732 C   0  0  0  0  0  0  0  0  0  0  0  0
  -28.4057  -30.0795  -20.9199 C   0  0  0  0  0  0  0  0  0  0  0  0
  -29.6159  -29.8685  -20.2705 C   0  0  0  0  0  0  0  0  0  0  0  0
  -29.6638  -29.8495  -18.8768 C   0  0  0  0  0  0  0  0  0  0  0  0
  -28.5014  -30.0019  -18.1191 C   0  0  0  0  0  0  0  0  0  0  0  0
  -27.3301  -30.3526  -18.7799 C   0  0  0  0  0  0  0  0  0  0  0  0
  -26.2094  -30.7734  -18.1221 O   0  0  0  0  0  0  0  0  0  0  0  0
  -25.9953  -30.2240  -16.8248 C   0  0  0  0  0  0  0  0  0  0  0  0
  -25.3803  -28.8643  -17.0822 C   0  0  0  0  0  0  0  0  0  0  0  0
  -24.9318  -31.1096  -16.1547 C   0  0  0  0  0  0  0  0  0  0  0  0
  -27.2477  -30.1846  -15.9331 C   0  0  0  0  0  0  0  0  0  0  0  0
  -28.5321  -29.7745  -16.6427 C   0  0  0  0  0  0  0  0  0  0  0  0
  1  2  1  0
  2  3  1  0
  3  4  1  6
  3  5  1  0
  5  6  1  1
  5  7  1  0
  7  8  1  0
  8  9  2  0
  8 10  1  0
 10 11  1  0
 11 12  2  0
 12 13  1  0
 13 14  2  0
 14 15  1  0
 15 16  2  0
 16 17  1  0
 17 18  1  0
 18 19  1  0
 18 20  1  0
 18 21  1  0
 21 22  1  0
 16 11  1  0
 22 15  1  0
M  END
>  <id>  (272) 
305259

>  <inchikey>  (272) 
QGDHXURGFSQQAQ-BXUZGUMPSA-N

>  <alias>  (272) 
None

>  <smiles>  (272) 
CC[C@@H](O)[C@@H](C)NC(=O)Nc1cccc2c1OC(C)(C)CC2

>  <path>  (272) 
/opt/xchem-fragalysis-2/maxwin/RdRp_FFF/syndirella/mar_elabs/elabs_064/UKWFLRZSMSDWTC-UHFFFAOYSA-N/output/UKWFLRZSMSDWTC-UHFFFAOYSA-N-mLDTEa-303-D/UKWFLRZSMSDWTC-UHFFFAOYSA-N-mLDTEa-303-D.minimised.mol

>  <distance_score>  (272) 
0.770444

>  <energy_score>  (272) 
-5.400074

>  <compound>  (272) 
QGDHXURGFSQQAQ-UHFFFAOYSA-N

>  <compound_id>  (272) 
134510

>  <target>  (272) 
Flavi_NS5_RdRp

>  <tags>  (272) 
[]

>  <inspirations>  (272) 
{P Ã— 2}

>  <subsites>  (272) 
None

>  <reference>  (272) 
z0211a

>  <SLURM_JOB_ID>  (272) 
nan

>  <SLURM_JOB_NAME>  (272) 
nan

>  <csv_name>  (272) 
nan

>  <scratch_subdir>  (272) 
nan

>  <fragmenstein_runtime>  (272) 
nan

>  <fragmenstein_outcome>  (272) 
nan

>  <fragmenstein_mode>  (272) 
nan

>  <fragmenstein_error>  (272) 
nan

>  <exports>  (272) 
nan

>  <Multi-SuCOS>  (272) 
nan

>  <merge_set>  (272) 
nan

$$$$
DECFZZOARBHTLH-ICCXJUOJSA-N
     RDKit          3D

 23 24  0  0  0  0  0  0  0  0999 V2000
  -24.1689  -33.4840  -23.7766 C   0  0  0  0  0  0  0  0  0  0  0  0
  -23.6402  -32.1032  -23.3854 C   0  0  1  0  0  0  0  0  0  0  0  0
  -24.4642  -31.5920  -22.3083 N   0  0  0  0  0  0  0  0  0  0  0  0
  -25.7987  -30.8053  -22.3525 C   0  0  0  0  0  0  0  0  0  0  0  0
  -26.3812  -30.3935  -23.2407 O   0  0  0  0  0  0  0  0  0  0  0  0
  -26.1603  -30.8326  -20.8392 N   0  0  0  0  0  0  0  0  0  0  0  0
  -27.3235  -30.4471  -20.1858 C   0  0  0  0  0  0  0  0  0  0  0  0
  -28.4719  -30.1505  -20.9058 C   0  0  0  0  0  0  0  0  0  0  0  0
  -29.6684  -29.9249  -20.2366 C   0  0  0  0  0  0  0  0  0  0  0  0
  -29.6843  -29.8762  -18.8449 C   0  0  0  0  0  0  0  0  0  0  0  0
  -28.5037  -30.0162  -18.1112 C   0  0  0  0  0  0  0  0  0  0  0  0
  -27.3428  -30.3826  -18.7919 C   0  0  0  0  0  0  0  0  0  0  0  0
  -26.1993  -30.7647  -18.1508 O   0  0  0  0  0  0  0  0  0  0  0  0
  -25.9743  -30.2284  -16.8470 C   0  0  0  0  0  0  0  0  0  0  0  0
  -25.3622  -28.8664  -17.0953 C   0  0  0  0  0  0  0  0  0  0  0  0
  -24.9096  -31.1237  -16.1934 C   0  0  0  0  0  0  0  0  0  0  0  0
  -27.2168  -30.1911  -15.9461 C   0  0  0  0  0  0  0  0  0  0  0  0
  -28.4631  -29.6808  -16.6520 C   0  0  2  0  0  0  0  0  0  0  0  0
  -29.6277  -30.1141  -15.9537 O   0  0  0  0  0  0  0  0  0  0  0  0
  -22.1284  -32.0087  -23.0595 C   0  0  1  0  0  0  0  0  0  0  0  0
  -21.9231  -31.8430  -21.6425 O   0  0  0  0  0  0  0  0  0  0  0  0
  -21.2768  -33.2030  -23.4759 C   0  0  0  0  0  0  0  0  0  0  0  0
  -21.5912  -34.3321  -22.6619 O   0  0  0  0  0  0  0  0  0  0  0  0
  2  1  1  1
  2  3  1  0
  3  4  1  0
  4  5  2  0
  4  6  1  0
  6  7  1  0
  7  8  2  0
  8  9  1  0
  9 10  2  0
 10 11  1  0
 11 12  2  0
 12 13  1  0
 13 14  1  0
 14 15  1  0
 14 16  1  0
 14 17  1  0
 17 18  1  0
 18 19  1  1
  2 20  1  0
 20 21  1  1
 20 22  1  0
 22 23  1  0
 12  7  1  0
 18 11  1  0
M  END
>  <id>  (273) 
305651

>  <inchikey>  (273) 
DECFZZOARBHTLH-ICCXJUOJSA-N

>  <alias>  (273) 
None

>  <smiles>  (273) 
C[C@@H](NC(=O)Nc1cccc2c1OC(C)(C)C[C@@H]2O)[C@@H](O)CO

>  <path>  (273) 
/opt/xchem-fragalysis-2/maxwin/RdRp_FFF/syndirella/mar_elabs/elabs_064/UKWFLRZSMSDWTC-UHFFFAOYSA-N/output/UKWFLRZSMSDWTC-UHFFFAOYSA-N-mLDTEa-1088-F/UKWFLRZSMSDWTC-UHFFFAOYSA-N-mLDTEa-1088-F.minimised.mol

>  <distance_score>  (273) 
0.785395

>  <energy_score>  (273) 
-34.204166

>  <compound>  (273) 
DECFZZOARBHTLH-UHFFFAOYSA-N

>  <compound_id>  (273) 
134382

>  <target>  (273) 
Flavi_NS5_RdRp

>  <tags>  (273) 
[]

>  <inspirations>  (273) 
{P Ã— 2}

>  <subsites>  (273) 
None

>  <reference>  (273) 
z0211a

>  <SLURM_JOB_ID>  (273) 
nan

>  <SLURM_JOB_NAME>  (273) 
nan

>  <csv_name>  (273) 
nan

>  <scratch_subdir>  (273) 
nan

>  <fragmenstein_runtime>  (273) 
nan

>  <fragmenstein_outcome>  (273) 
nan

>  <fragmenstein_mode>  (273) 
nan

>  <fragmenstein_error>  (273) 
nan

>  <exports>  (273) 
nan

>  <Multi-SuCOS>  (273) 
nan

>  <merge_set>  (273) 
nan

$$$$
UHLOXWKOOHGGEX-TVYUQYBPSA-N
     RDKit          3D

 23 24  0  0  0  0  0  0  0  0999 V2000
  -21.0043  -33.0932  -23.6389 C   0  0  0  0  0  0  0  0  0  0  0  0
  -21.9689  -32.1198  -22.9880 C   0  0  2  0  0  0  0  0  0  0  0  0
  -21.5250  -31.9340  -21.6397 O   0  0  0  0  0  0  0  0  0  0  0  0
  -23.3949  -32.6918  -22.9999 C   0  0  2  0  0  0  0  0  0  0  0  0
  -23.9736  -32.7101  -24.4243 C   0  0  0  0  0  0  0  0  0  0  0  0
  -25.2294  -33.3823  -24.4786 O   0  0  0  0  0  0  0  0  0  0  0  0
  -24.2458  -32.0157  -22.0358 N   0  0  0  0  0  0  0  0  0  0  0  0
  -25.5155  -31.1600  -22.2479 C   0  0  0  0  0  0  0  0  0  0  0  0
  -26.0151  -30.8121  -23.2085 O   0  0  0  0  0  0  0  0  0  0  0  0
  -25.9637  -31.0025  -20.7722 N   0  0  0  0  0  0  0  0  0  0  0  0
  -27.1327  -30.4790  -20.2395 C   0  0  0  0  0  0  0  0  0  0  0  0
  -28.2000  -30.1118  -21.0485 C   0  0  0  0  0  0  0  0  0  0  0  0
  -29.4328  -29.8339  -20.4675 C   0  0  0  0  0  0  0  0  0  0  0  0
  -29.5684  -29.8522  -19.0809 C   0  0  0  0  0  0  0  0  0  0  0  0
  -28.4593  -30.0601  -18.2539 C   0  0  0  0  0  0  0  0  0  0  0  0
  -27.2598  -30.4294  -18.8507 C   0  0  0  0  0  0  0  0  0  0  0  0
  -26.1848  -30.8555  -18.1213 O   0  0  0  0  0  0  0  0  0  0  0  0
  -26.0161  -30.2265  -16.8509 C   0  0  0  0  0  0  0  0  0  0  0  0
  -25.4402  -28.8570  -17.1568 C   0  0  0  0  0  0  0  0  0  0  0  0
  -24.9388  -31.0403  -16.1143 C   0  0  0  0  0  0  0  0  0  0  0  0
  -27.2912  -30.1879  -15.9913 C   0  0  0  0  0  0  0  0  0  0  0  0
  -28.5857  -29.9458  -16.7648 C   0  0  1  0  0  0  0  0  0  0  0  0
  -29.0803  -28.6588  -16.4166 O   0  0  0  0  0  0  0  0  0  0  0  0
  2  1  1  1
  2  3  1  0
  2  4  1  0
  4  5  1  6
  5  6  1  0
  4  7  1  0
  7  8  1  0
  8  9  2  0
  8 10  1  0
 10 11  1  0
 11 12  2  0
 12 13  1  0
 13 14  2  0
 14 15  1  0
 15 16  2  0
 16 17  1  0
 17 18  1  0
 18 19  1  0
 18 20  1  0
 18 21  1  0
 21 22  1  0
 22 23  1  6
 16 11  1  0
 22 15  1  0
M  END
>  <id>  (274) 
305680

>  <inchikey>  (274) 
UHLOXWKOOHGGEX-TVYUQYBPSA-N

>  <alias>  (274) 
None

>  <smiles>  (274) 
C[C@H](O)[C@H](CO)NC(=O)Nc1cccc2c1OC(C)(C)C[C@H]2O

>  <path>  (274) 
/opt/xchem-fragalysis-2/maxwin/RdRp_FFF/syndirella/mar_elabs/elabs_064/UKWFLRZSMSDWTC-UHFFFAOYSA-N/output/UKWFLRZSMSDWTC-UHFFFAOYSA-N-mLDTEa-1109-E/UKWFLRZSMSDWTC-UHFFFAOYSA-N-mLDTEa-1109-E.minimised.mol

>  <distance_score>  (274) 
0.727922

>  <energy_score>  (274) 
-30.312912

>  <compound>  (274) 
UHLOXWKOOHGGEX-UHFFFAOYSA-N

>  <compound_id>  (274) 
134144

>  <target>  (274) 
Flavi_NS5_RdRp

>  <tags>  (274) 
[]

>  <inspirations>  (274) 
{P Ã— 2}

>  <subsites>  (274) 
None

>  <reference>  (274) 
z0211a

>  <SLURM_JOB_ID>  (274) 
nan

>  <SLURM_JOB_NAME>  (274) 
nan

>  <csv_name>  (274) 
nan

>  <scratch_subdir>  (274) 
nan

>  <fragmenstein_runtime>  (274) 
nan

>  <fragmenstein_outcome>  (274) 
nan

>  <fragmenstein_mode>  (274) 
nan

>  <fragmenstein_error>  (274) 
nan

>  <exports>  (274) 
nan

>  <Multi-SuCOS>  (274) 
nan

>  <merge_set>  (274) 
nan

$$$$
FURNGZZIZITVAK-ZKYQVNSYSA-N
     RDKit          3D

 23 24  0  0  0  0  0  0  0  0999 V2000
  -23.9456  -34.6447  -22.4635 C   0  0  0  0  0  0  0  0  0  0  0  0
  -24.0185  -33.6440  -23.6118 C   0  0  0  0  0  0  0  0  0  0  0  0
  -23.4901  -32.2286  -23.2854 C   0  0  1  0  0  0  0  0  0  0  0  0
  -24.3328  -31.6611  -22.2559 N   0  0  0  0  0  0  0  0  0  0  0  0
  -25.6666  -30.8825  -22.3681 C   0  0  0  0  0  0  0  0  0  0  0  0
  -26.2333  -30.5232  -23.2878 O   0  0  0  0  0  0  0  0  0  0  0  0
  -26.0554  -30.8260  -20.8634 N   0  0  0  0  0  0  0  0  0  0  0  0
  -27.2302  -30.4081  -20.2542 C   0  0  0  0  0  0  0  0  0  0  0  0
  -28.3412  -30.0627  -21.0135 C   0  0  0  0  0  0  0  0  0  0  0  0
  -29.5632  -29.8485  -20.3880 C   0  0  0  0  0  0  0  0  0  0  0  0
  -29.6448  -29.8871  -18.9993 C   0  0  0  0  0  0  0  0  0  0  0  0
  -28.4982  -30.0752  -18.2186 C   0  0  0  0  0  0  0  0  0  0  0  0
  -27.3100  -30.4048  -18.8613 C   0  0  0  0  0  0  0  0  0  0  0  0
  -26.2050  -30.8238  -18.1767 O   0  0  0  0  0  0  0  0  0  0  0  0
  -26.0085  -30.2344  -16.8906 C   0  0  0  0  0  0  0  0  0  0  0  0
  -24.9180  -31.0734  -16.2023 C   0  0  0  0  0  0  0  0  0  0  0  0
  -25.4333  -28.8590  -17.1663 C   0  0  0  0  0  0  0  0  0  0  0  0
  -27.2594  -30.2074  -15.9949 C   0  0  0  0  0  0  0  0  0  0  0  0
  -28.5761  -29.9641  -16.7270 C   0  0  1  0  0  0  0  0  0  0  0  0
  -29.0599  -28.6760  -16.3665 O   0  0  0  0  0  0  0  0  0  0  0  0
  -21.9937  -32.1222  -22.9297 C   0  0  2  0  0  0  0  0  0  0  0  0
  -21.1090  -32.9817  -23.8138 C   0  0  0  0  0  0  0  0  0  0  0  0
  -21.7543  -32.4903  -21.5690 O   0  0  0  0  0  0  0  0  0  0  0  0
  1  2  1  0
  3  2  1  1
  3  4  1  0
  4  5  1  0
  5  6  2  0
  5  7  1  0
  7  8  1  0
  8  9  2  0
  9 10  1  0
 10 11  2  0
 11 12  1  0
 12 13  2  0
 13 14  1  0
 14 15  1  0
 15 16  1  0
 15 17  1  0
 15 18  1  0
 18 19  1  0
 19 20  1  6
  3 21  1  0
 21 22  1  6
 21 23  1  0
 13  8  1  0
 19 12  1  0
M  END
>  <id>  (275) 
306001

>  <inchikey>  (275) 
FURNGZZIZITVAK-ZKYQVNSYSA-N

>  <alias>  (275) 
None

>  <smiles>  (275) 
CC[C@@H](NC(=O)Nc1cccc2c1OC(C)(C)C[C@H]2O)[C@H](C)O

>  <path>  (275) 
/opt/xchem-fragalysis-2/maxwin/RdRp_FFF/syndirella/mar_elabs/elabs_064/UKWFLRZSMSDWTC-UHFFFAOYSA-N/output/UKWFLRZSMSDWTC-UHFFFAOYSA-N-mLDTEa-1469-D/UKWFLRZSMSDWTC-UHFFFAOYSA-N-mLDTEa-1469-D.minimised.mol

>  <distance_score>  (275) 
0.757926

>  <energy_score>  (275) 
-28.977382

>  <compound>  (275) 
FURNGZZIZITVAK-UHFFFAOYSA-N

>  <compound_id>  (275) 
134142

>  <target>  (275) 
Flavi_NS5_RdRp

>  <tags>  (275) 
[]

>  <inspirations>  (275) 
{P Ã— 2}

>  <subsites>  (275) 
None

>  <reference>  (275) 
z0211a

>  <SLURM_JOB_ID>  (275) 
nan

>  <SLURM_JOB_NAME>  (275) 
nan

>  <csv_name>  (275) 
nan

>  <scratch_subdir>  (275) 
nan

>  <fragmenstein_runtime>  (275) 
nan

>  <fragmenstein_outcome>  (275) 
nan

>  <fragmenstein_mode>  (275) 
nan

>  <fragmenstein_error>  (275) 
nan

>  <exports>  (275) 
nan

>  <Multi-SuCOS>  (275) 
nan

>  <merge_set>  (275) 
nan

$$$$
FLSYTWFGMVSKPT-MFKMUULPSA-N
     RDKit          3D

 23 24  0  0  0  0  0  0  0  0999 V2000
  -22.8307  -34.3721  -25.9654 C   0  0  0  0  0  0  0  0  0  0  0  0
  -21.4349  -33.2388  -25.7619 S   0  0  0  0  0  0  0  0  0  0  0  0
  -21.3389  -33.1600  -23.9327 C   0  0  0  0  0  0  0  0  0  0  0  0
  -22.1380  -32.0362  -23.2599 C   0  0  2  0  0  0  0  0  0  0  0  0
  -21.7836  -32.0284  -21.8673 O   0  0  0  0  0  0  0  0  0  0  0  0
  -23.6463  -32.2365  -23.4052 C   0  0  0  0  0  0  0  0  0  0  0  0
  -24.4483  -31.6975  -22.3369 N   0  0  0  0  0  0  0  0  0  0  0  0
  -25.7555  -30.8634  -22.3847 C   0  0  0  0  0  0  0  0  0  0  0  0
  -26.3222  -30.4329  -23.2752 O   0  0  0  0  0  0  0  0  0  0  0  0
  -26.1210  -30.8748  -20.8692 N   0  0  0  0  0  0  0  0  0  0  0  0
  -27.2728  -30.4467  -20.2177 C   0  0  0  0  0  0  0  0  0  0  0  0
  -28.4129  -30.1360  -20.9476 C   0  0  0  0  0  0  0  0  0  0  0  0
  -29.6146  -29.9006  -20.2903 C   0  0  0  0  0  0  0  0  0  0  0  0
  -29.6462  -29.8612  -18.8992 C   0  0  0  0  0  0  0  0  0  0  0  0
  -28.4747  -30.0123  -18.1536 C   0  0  0  0  0  0  0  0  0  0  0  0
  -27.3074  -30.3842  -18.8228 C   0  0  0  0  0  0  0  0  0  0  0  0
  -26.1766  -30.7758  -18.1651 O   0  0  0  0  0  0  0  0  0  0  0  0
  -25.9637  -30.2310  -16.8614 C   0  0  0  0  0  0  0  0  0  0  0  0
  -25.3554  -28.8666  -17.1069 C   0  0  0  0  0  0  0  0  0  0  0  0
  -24.9028  -31.1206  -16.1943 C   0  0  0  0  0  0  0  0  0  0  0  0
  -27.2140  -30.1906  -15.9713 C   0  0  0  0  0  0  0  0  0  0  0  0
  -28.4515  -29.6806  -16.6923 C   0  0  2  0  0  0  0  0  0  0  0  0
  -29.6284  -30.1061  -16.0098 O   0  0  0  0  0  0  0  0  0  0  0  0
  1  2  1  0
  2  3  1  0
  3  4  1  0
  4  5  1  1
  4  6  1  0
  6  7  1  0
  7  8  1  0
  8  9  2  0
  8 10  1  0
 10 11  1  0
 11 12  2  0
 12 13  1  0
 13 14  2  0
 14 15  1  0
 15 16  2  0
 16 17  1  0
 17 18  1  0
 18 19  1  0
 18 20  1  0
 18 21  1  0
 21 22  1  0
 22 23  1  1
 16 11  1  0
 22 15  1  0
M  END
>  <id>  (276) 
306022

>  <inchikey>  (276) 
FLSYTWFGMVSKPT-MFKMUULPSA-N

>  <alias>  (276) 
None

>  <smiles>  (276) 
CSC[C@H](O)CNC(=O)Nc1cccc2c1OC(C)(C)C[C@@H]2O

>  <path>  (276) 
/opt/xchem-fragalysis-2/maxwin/RdRp_FFF/syndirella/mar_elabs/elabs_064/UKWFLRZSMSDWTC-UHFFFAOYSA-N/output/UKWFLRZSMSDWTC-UHFFFAOYSA-N-mLDTEa-1506-A/UKWFLRZSMSDWTC-UHFFFAOYSA-N-mLDTEa-1506-A.minimised.mol

>  <distance_score>  (276) 
0.779181

>  <energy_score>  (276) 
-8.185395

>  <compound>  (276) 
FLSYTWFGMVSKPT-UHFFFAOYSA-N

>  <compound_id>  (276) 
134391

>  <target>  (276) 
Flavi_NS5_RdRp

>  <tags>  (276) 
[]

>  <inspirations>  (276) 
{P Ã— 2}

>  <subsites>  (276) 
None

>  <reference>  (276) 
z0211a

>  <SLURM_JOB_ID>  (276) 
nan

>  <SLURM_JOB_NAME>  (276) 
nan

>  <csv_name>  (276) 
nan

>  <scratch_subdir>  (276) 
nan

>  <fragmenstein_runtime>  (276) 
nan

>  <fragmenstein_outcome>  (276) 
nan

>  <fragmenstein_mode>  (276) 
nan

>  <fragmenstein_error>  (276) 
nan

>  <exports>  (276) 
nan

>  <Multi-SuCOS>  (276) 
nan

>  <merge_set>  (276) 
nan

$$$$
ZYJJSSBNGGQPBM-UHFFFAOYSA-N
     RDKit          3D

 23 25  0  0  0  0  0  0  0  0999 V2000
  -27.3091  -30.2099  -23.2900 O   0  0  0  0  0  0  0  0  0  0  0  0
  -27.2096  -30.3133  -22.1289 C   0  0  0  0  0  0  0  0  0  0  0  0
  -28.0034  -29.3575  -21.2419 C   0  0  0  0  0  0  0  0  0  0  0  0
  -28.3614  -29.7835  -19.8669 C   0  0  0  0  0  0  0  0  0  0  0  0
  -29.6386  -30.0993  -19.3581 C   0  0  0  0  0  0  0  0  0  0  0  0
  -29.4646  -30.2062  -17.9990 C   0  0  0  0  0  0  0  0  0  0  0  0
  -28.1381  -29.9804  -17.7670 N   0  0  0  0  0  0  0  0  0  0  0  0
  -27.5251  -29.7689  -16.4738 C   0  0  0  0  0  0  0  0  0  0  0  0
  -27.7585  -30.9087  -15.4717 C   0  0  0  0  0  0  0  0  0  0  0  0
  -26.3770  -31.3020  -14.9666 C   0  0  0  0  0  0  0  0  0  0  0  0
  -25.5318  -30.0580  -15.1484 C   0  0  0  0  0  0  0  0  0  0  0  0
  -26.0004  -29.5530  -16.4991 C   0  0  0  0  0  0  0  0  0  0  0  0
  -27.4383  -29.7845  -18.8992 N   0  0  0  0  0  0  0  0  0  0  0  0
  -26.3480  -31.2806  -21.2764 N   0  0  0  0  0  0  0  0  0  0  0  0
  -25.3539  -32.2618  -21.6779 C   0  0  0  0  0  0  0  0  0  0  0  0
  -24.0212  -31.6030  -22.0422 C   0  0  0  0  0  0  0  0  0  0  0  0
  -23.1033  -32.3792  -22.8576 N   0  0  0  0  0  0  0  0  0  0  0  0
  -21.7483  -32.3193  -22.6671 C   0  0  0  0  0  0  0  0  0  0  0  0
  -21.1606  -31.9447  -21.6632 O   0  0  0  0  0  0  0  0  0  0  0  0
  -21.0672  -32.7453  -23.9321 C   0  0  0  0  0  0  0  0  0  0  0  0
  -22.1695  -33.4067  -24.7290 C   0  0  0  0  0  0  0  0  0  0  0  0
  -23.4137  -32.8630  -24.0959 C   0  0  0  0  0  0  0  0  0  0  0  0
  -24.5141  -32.8970  -24.6225 O   0  0  0  0  0  0  0  0  0  0  0  0
  1  2  2  0
  2  3  1  0
  3  4  1  0
  4  5  1  0
  5  6  2  0
  6  7  1  0
  7  8  1  0
  8  9  1  0
  9 10  1  0
 10 11  1  0
 11 12  1  0
  7 13  1  0
  2 14  1  0
 14 15  1  0
 15 16  1  0
 16 17  1  0
 17 18  1  0
 18 19  2  0
 18 20  1  0
 20 21  1  0
 21 22  1  0
 22 23  2  0
 13  4  2  0
 22 17  1  0
 12  8  1  0
M  END
>  <id>  (277) 
308734

>  <inchikey>  (277) 
ZYJJSSBNGGQPBM-UHFFFAOYSA-N

>  <alias>  (277) 
None

>  <smiles>  (277) 
O=C(Cc1ccn(C2CCCC2)n1)NCCN1C(=O)CCC1=O

>  <path>  (277) 
/opt/xchem-fragalysis-2/maxwin/RdRp_FFF/syndirella/mar_elabs/elabs_037/MOWNOSLAQYMJTK-UHFFFAOYSA-N/output/MOWNOSLAQYMJTK-UHFFFAOYSA-N-sdxFM7-33-A/MOWNOSLAQYMJTK-UHFFFAOYSA-N-sdxFM7-33-A.minimised.mol

>  <distance_score>  (277) 
1.122903

>  <energy_score>  (277) 
-17.710181

>  <compound>  (277) 
ZYJJSSBNGGQPBM-UHFFFAOYSA-N

>  <compound_id>  (277) 
135479

>  <target>  (277) 
Flavi_NS5_RdRp

>  <tags>  (277) 
[]

>  <inspirations>  (277) 
{P Ã— 2}

>  <subsites>  (277) 
None

>  <reference>  (277) 
z0215a

>  <SLURM_JOB_ID>  (277) 
nan

>  <SLURM_JOB_NAME>  (277) 
nan

>  <csv_name>  (277) 
nan

>  <scratch_subdir>  (277) 
nan

>  <fragmenstein_runtime>  (277) 
nan

>  <fragmenstein_outcome>  (277) 
nan

>  <fragmenstein_mode>  (277) 
nan

>  <fragmenstein_error>  (277) 
nan

>  <exports>  (277) 
nan

>  <Multi-SuCOS>  (277) 
nan

>  <merge_set>  (277) 
nan

$$$$
ASPWGZKEYVPBAB-CYBMUJFWSA-N
     RDKit          3D

 23 25  0  0  0  0  0  0  0  0999 V2000
  -24.1060  -32.5287  -19.9896 C   0  0  0  0  0  0  0  0  0  0  0  0
  -24.8272  -32.1264  -21.2758 C   0  0  2  0  0  0  0  0  0  0  0  0
  -23.7873  -31.6361  -22.3066 C   0  0  0  0  0  0  0  0  0  0  0  0
  -23.0486  -32.6793  -23.0032 N   0  0  0  0  0  0  0  0  0  0  0  0
  -21.6200  -32.5854  -23.2016 C   0  0  0  0  0  0  0  0  0  0  0  0
  -21.3988  -33.1652  -24.5835 C   0  0  0  0  0  0  0  0  0  0  0  0
  -22.5521  -34.1381  -24.7641 C   0  0  0  0  0  0  0  0  0  0  0  0
  -23.6467  -33.4832  -23.9647 C   0  0  0  0  0  0  0  0  0  0  0  0
  -24.8404  -33.6607  -24.1337 O   0  0  0  0  0  0  0  0  0  0  0  0
  -25.8483  -31.1129  -21.0099 N   0  0  0  0  0  0  0  0  0  0  0  0
  -26.8410  -30.4066  -21.9709 C   0  0  0  0  0  0  0  0  0  0  0  0
  -26.9436  -30.4690  -23.1345 O   0  0  0  0  0  0  0  0  0  0  0  0
  -27.7540  -29.4506  -21.2086 C   0  0  0  0  0  0  0  0  0  0  0  0
  -28.1900  -29.8260  -19.8392 C   0  0  0  0  0  0  0  0  0  0  0  0
  -29.5029  -30.0803  -19.3872 C   0  0  0  0  0  0  0  0  0  0  0  0
  -29.4005  -30.1587  -18.0191 C   0  0  0  0  0  0  0  0  0  0  0  0
  -28.0797  -29.9672  -17.7252 N   0  0  0  0  0  0  0  0  0  0  0  0
  -27.5315  -29.7390  -16.3994 C   0  0  0  0  0  0  0  0  0  0  0  0
  -26.0164  -29.4657  -16.3494 C   0  0  0  0  0  0  0  0  0  0  0  0
  -25.3968  -30.8058  -16.0053 C   0  0  0  0  0  0  0  0  0  0  0  0
  -26.3663  -31.3441  -14.9726 C   0  0  0  0  0  0  0  0  0  0  0  0
  -27.7496  -30.9334  -15.4617 C   0  0  0  0  0  0  0  0  0  0  0  0
  -27.3175  -29.8338  -18.8246 N   0  0  0  0  0  0  0  0  0  0  0  0
  2  1  1  1
  2  3  1  0
  3  4  1  0
  4  5  1  0
  5  6  1  0
  6  7  1  0
  7  8  1  0
  8  9  2  0
  2 10  1  0
 10 11  1  0
 11 12  2  0
 11 13  1  0
 13 14  1  0
 14 15  1  0
 15 16  2  0
 16 17  1  0
 17 18  1  0
 18 19  1  0
 19 20  1  0
 20 21  1  0
 21 22  1  0
 17 23  1  0
  8  4  1  0
 23 14  2  0
 22 18  1  0
M  END
>  <id>  (278) 
311936

>  <inchikey>  (278) 
ASPWGZKEYVPBAB-CYBMUJFWSA-N

>  <alias>  (278) 
None

>  <smiles>  (278) 
C[C@H](CN1CCCC1=O)NC(=O)Cc1ccn(C2CCCC2)n1

>  <path>  (278) 
/opt/xchem-fragalysis-2/maxwin/RdRp_FFF/syndirella/mar_elabs/elabs_009/MOWNOSLAQYMJTK-UHFFFAOYSA-N/output/MOWNOSLAQYMJTK-UHFFFAOYSA-N-m2BWbk-39-A/MOWNOSLAQYMJTK-UHFFFAOYSA-N-m2BWbk-39-A.minimised.mol

>  <distance_score>  (278) 
0.956063

>  <energy_score>  (278) 
-14.665433

>  <compound>  (278) 
ASPWGZKEYVPBAB-UHFFFAOYSA-N

>  <compound_id>  (278) 
135470

>  <target>  (278) 
Flavi_NS5_RdRp

>  <tags>  (278) 
[]

>  <inspirations>  (278) 
{P Ã— 2}

>  <subsites>  (278) 
None

>  <reference>  (278) 
z0215a

>  <SLURM_JOB_ID>  (278) 
nan

>  <SLURM_JOB_NAME>  (278) 
nan

>  <csv_name>  (278) 
nan

>  <scratch_subdir>  (278) 
nan

>  <fragmenstein_runtime>  (278) 
nan

>  <fragmenstein_outcome>  (278) 
nan

>  <fragmenstein_mode>  (278) 
nan

>  <fragmenstein_error>  (278) 
nan

>  <exports>  (278) 
nan

>  <Multi-SuCOS>  (278) 
nan

>  <merge_set>  (278) 
nan

$$$$
KBADMDSGEBXOBC-HNNXBMFYSA-N
     RDKit          3D

 24 26  0  0  0  0  0  0  0  0999 V2000
  -22.5397  -36.2531  -24.8562 C   0  0  0  0  0  0  0  0  0  0  0  0
  -22.5375  -35.2881  -23.8099 O   0  0  0  0  0  0  0  0  0  0  0  0
  -22.0758  -33.9857  -24.2056 C   0  0  1  0  0  0  0  0  0  0  0  0
  -23.0288  -33.3142  -25.1719 C   0  0  0  0  0  0  0  0  0  0  0  0
  -23.9748  -32.5932  -24.2577 C   0  0  0  0  0  0  0  0  0  0  0  0
  -25.0064  -32.0612  -24.6254 O   0  0  0  0  0  0  0  0  0  0  0  0
  -23.4472  -32.5664  -22.9772 N   0  0  0  0  0  0  0  0  0  0  0  0
  -23.9714  -31.6618  -21.9659 C   0  0  0  0  0  0  0  0  0  0  0  0
  -25.2710  -32.1676  -21.3198 C   0  0  0  0  0  0  0  0  0  0  0  0
  -26.1633  -31.1042  -20.8974 N   0  0  0  0  0  0  0  0  0  0  0  0
  -27.3161  -30.3969  -21.6556 C   0  0  0  0  0  0  0  0  0  0  0  0
  -27.6744  -30.5077  -22.7618 O   0  0  0  0  0  0  0  0  0  0  0  0
  -27.9542  -29.3586  -20.7516 C   0  0  0  0  0  0  0  0  0  0  0  0
  -28.4971  -29.8761  -19.4698 C   0  0  0  0  0  0  0  0  0  0  0  0
  -29.8579  -30.1482  -19.2227 C   0  0  0  0  0  0  0  0  0  0  0  0
  -29.9223  -30.4418  -17.8892 C   0  0  0  0  0  0  0  0  0  0  0  0
  -28.6405  -30.4444  -17.4212 N   0  0  0  0  0  0  0  0  0  0  0  0
  -28.3376  -30.5718  -16.0080 C   0  0  0  0  0  0  0  0  0  0  0  0
  -27.7487  -29.2976  -15.4742 C   0  0  0  0  0  0  0  0  0  0  0  0
  -26.2263  -29.4434  -15.6117 C   0  0  0  0  0  0  0  0  0  0  0  0
  -25.9668  -30.9232  -15.8506 C   0  0  0  0  0  0  0  0  0  0  0  0
  -27.3002  -31.5735  -15.5403 C   0  0  0  0  0  0  0  0  0  0  0  0
  -27.7466  -30.0405  -18.3635 N   0  0  0  0  0  0  0  0  0  0  0  0
  -22.0936  -33.0646  -22.9811 C   0  0  0  0  0  0  0  0  0  0  0  0
  1  2  1  0
  3  2  1  1
  3  4  1  0
  4  5  1  0
  5  6  2  0
  5  7  1  0
  7  8  1  0
  8  9  1  0
  9 10  1  0
 10 11  1  0
 11 12  2  0
 11 13  1  0
 13 14  1  0
 14 15  1  0
 15 16  2  0
 16 17  1  0
 17 18  1  0
 18 19  1  0
 19 20  1  0
 20 21  1  0
 21 22  1  0
 17 23  1  0
  7 24  1  0
 24  3  1  0
 23 14  2  0
 22 18  1  0
M  END
>  <id>  (279) 
312087

>  <inchikey>  (279) 
KBADMDSGEBXOBC-HNNXBMFYSA-N

>  <alias>  (279) 
None

>  <smiles>  (279) 
CO[C@H]1CC(=O)N(CCNC(=O)Cc2ccn(C3CCCC3)n2)C1

>  <path>  (279) 
/opt/xchem-fragalysis-2/maxwin/RdRp_FFF/syndirella/mar_elabs/elabs_009/MOWNOSLAQYMJTK-UHFFFAOYSA-N/output/MOWNOSLAQYMJTK-UHFFFAOYSA-N-m2BWbk-156-B/MOWNOSLAQYMJTK-UHFFFAOYSA-N-m2BWbk-156-B.minimised.mol

>  <distance_score>  (279) 
1.065636

>  <energy_score>  (279) 
-12.791012

>  <compound>  (279) 
KBADMDSGEBXOBC-UHFFFAOYSA-N

>  <compound_id>  (279) 
135548

>  <target>  (279) 
Flavi_NS5_RdRp

>  <tags>  (279) 
[]

>  <inspirations>  (279) 
{P Ã— 2}

>  <subsites>  (279) 
None

>  <reference>  (279) 
z0215a

>  <SLURM_JOB_ID>  (279) 
nan

>  <SLURM_JOB_NAME>  (279) 
nan

>  <csv_name>  (279) 
nan

>  <scratch_subdir>  (279) 
nan

>  <fragmenstein_runtime>  (279) 
nan

>  <fragmenstein_outcome>  (279) 
nan

>  <fragmenstein_mode>  (279) 
nan

>  <fragmenstein_error>  (279) 
nan

>  <exports>  (279) 
nan

>  <Multi-SuCOS>  (279) 
nan

>  <merge_set>  (279) 
nan

$$$$
CCFOBWLXXBHOIE-CQSZACIVSA-N
     RDKit          3D

 24 26  0  0  0  0  0  0  0  0999 V2000
  -26.6589  -30.4062  -23.2098 O   0  0  0  0  0  0  0  0  0  0  0  0
  -26.7311  -30.4905  -22.0439 C   0  0  0  0  0  0  0  0  0  0  0  0
  -27.7538  -29.6046  -21.3307 C   0  0  0  0  0  0  0  0  0  0  0  0
  -28.1853  -29.9096  -19.9426 C   0  0  0  0  0  0  0  0  0  0  0  0
  -29.5047  -30.1044  -19.4759 C   0  0  0  0  0  0  0  0  0  0  0  0
  -29.4002  -30.1461  -18.1064 C   0  0  0  0  0  0  0  0  0  0  0  0
  -28.0749  -29.9823  -17.8235 N   0  0  0  0  0  0  0  0  0  0  0  0
  -27.5104  -29.7562  -16.5105 C   0  0  0  0  0  0  0  0  0  0  0  0
  -25.9852  -29.5382  -16.4803 C   0  0  0  0  0  0  0  0  0  0  0  0
  -25.5600  -30.0591  -15.1214 C   0  0  0  0  0  0  0  0  0  0  0  0
  -26.4163  -31.3006  -14.9778 C   0  0  0  0  0  0  0  0  0  0  0  0
  -27.7821  -30.8878  -15.5085 C   0  0  0  0  0  0  0  0  0  0  0  0
  -27.3130  -29.8859  -18.9283 N   0  0  0  0  0  0  0  0  0  0  0  0
  -25.8736  -31.3067  -21.0395 N   0  0  0  0  0  0  0  0  0  0  0  0
  -24.7940  -32.2775  -21.2738 C   0  0  1  0  0  0  0  0  0  0  0  0
  -25.3218  -33.6531  -21.7194 C   0  0  0  0  0  0  0  0  0  0  0  0
  -26.2893  -33.5905  -22.7507 O   0  0  0  0  0  0  0  0  0  0  0  0
  -23.7142  -31.6716  -22.2020 C   0  0  0  0  0  0  0  0  0  0  0  0
  -22.9021  -32.5831  -22.9909 N   0  0  0  0  0  0  0  0  0  0  0  0
  -21.4668  -32.6440  -22.8592 C   0  0  0  0  0  0  0  0  0  0  0  0
  -20.9821  -32.8870  -24.2741 C   0  0  0  0  0  0  0  0  0  0  0  0
  -22.1336  -33.6154  -24.9485 C   0  0  0  0  0  0  0  0  0  0  0  0
  -23.3249  -33.0466  -24.2310 C   0  0  0  0  0  0  0  0  0  0  0  0
  -24.4697  -33.0335  -24.6522 O   0  0  0  0  0  0  0  0  0  0  0  0
  1  2  2  0
  2  3  1  0
  3  4  1  0
  4  5  1  0
  5  6  2  0
  6  7  1  0
  7  8  1  0
  8  9  1  0
  9 10  1  0
 10 11  1  0
 11 12  1  0
  7 13  1  0
  2 14  1  0
 14 15  1  0
 15 16  1  6
 16 17  1  0
 15 18  1  0
 18 19  1  0
 19 20  1  0
 20 21  1  0
 21 22  1  0
 22 23  1  0
 23 24  2  0
 13  4  2  0
 23 19  1  0
 12  8  1  0
M  END
>  <id>  (280) 
312125

>  <inchikey>  (280) 
CCFOBWLXXBHOIE-CQSZACIVSA-N

>  <alias>  (280) 
None

>  <smiles>  (280) 
O=C(Cc1ccn(C2CCCC2)n1)N[C@@H](CO)CN1CCCC1=O

>  <path>  (280) 
/opt/xchem-fragalysis-2/maxwin/RdRp_FFF/syndirella/mar_elabs/elabs_009/MOWNOSLAQYMJTK-UHFFFAOYSA-N/output/MOWNOSLAQYMJTK-UHFFFAOYSA-N-m2BWbk-177-B/MOWNOSLAQYMJTK-UHFFFAOYSA-N-m2BWbk-177-B.minimised.mol

>  <distance_score>  (280) 
0.917863

>  <energy_score>  (280) 
-14.061552

>  <compound>  (280) 
CCFOBWLXXBHOIE-UHFFFAOYSA-N

>  <compound_id>  (280) 
135546

>  <target>  (280) 
Flavi_NS5_RdRp

>  <tags>  (280) 
[]

>  <inspirations>  (280) 
{P Ã— 2}

>  <subsites>  (280) 
None

>  <reference>  (280) 
z0215a

>  <SLURM_JOB_ID>  (280) 
nan

>  <SLURM_JOB_NAME>  (280) 
nan

>  <csv_name>  (280) 
nan

>  <scratch_subdir>  (280) 
nan

>  <fragmenstein_runtime>  (280) 
nan

>  <fragmenstein_outcome>  (280) 
nan

>  <fragmenstein_mode>  (280) 
nan

>  <fragmenstein_error>  (280) 
nan

>  <exports>  (280) 
nan

>  <Multi-SuCOS>  (280) 
nan

>  <merge_set>  (280) 
nan

$$$$
POVPGHPONDSZDY-UHFFFAOYSA-N
     RDKit          3D

 24 26  0  0  0  0  0  0  0  0999 V2000
  -26.9100  -29.9166  -23.6377 O   0  0  0  0  0  0  0  0  0  0  0  0
  -27.0857  -30.1569  -22.5042 C   0  0  0  0  0  0  0  0  0  0  0  0
  -28.1444  -29.3779  -21.7276 C   0  0  0  0  0  0  0  0  0  0  0  0
  -28.5348  -29.7989  -20.3655 C   0  0  0  0  0  0  0  0  0  0  0  0
  -29.8161  -30.1305  -19.8918 C   0  0  0  0  0  0  0  0  0  0  0  0
  -29.6541  -30.2929  -18.5411 C   0  0  0  0  0  0  0  0  0  0  0  0
  -28.3539  -30.0008  -18.2738 N   0  0  0  0  0  0  0  0  0  0  0  0
  -27.7690  -29.6819  -17.0033 C   0  0  0  0  0  0  0  0  0  0  0  0
  -26.9419  -30.7799  -16.3575 C   0  0  0  0  0  0  0  0  0  0  0  0
  -26.7837  -30.2716  -14.9458 C   0  0  0  0  0  0  0  0  0  0  0  0
  -28.1863  -29.7823  -14.6301 C   0  0  0  0  0  0  0  0  0  0  0  0
  -28.7916  -29.3136  -15.9317 C   0  0  0  0  0  0  0  0  0  0  0  0
  -27.6250  -29.8076  -19.3853 N   0  0  0  0  0  0  0  0  0  0  0  0
  -26.4295  -31.2255  -21.5887 N   0  0  0  0  0  0  0  0  0  0  0  0
  -25.4301  -32.0903  -21.8342 N   0  0  0  0  0  0  0  0  0  0  0  0
  -25.3991  -33.6424  -21.7633 C   0  0  0  0  0  0  0  0  0  0  0  0
  -26.2577  -34.4086  -21.5558 O   0  0  0  0  0  0  0  0  0  0  0  0
  -23.9286  -34.0613  -21.9177 C   0  0  0  0  0  0  0  0  0  0  0  0
  -23.1340  -33.2422  -22.8253 N   0  0  0  0  0  0  0  0  0  0  0  0
  -21.7115  -33.1217  -22.6164 C   0  0  0  0  0  0  0  0  0  0  0  0
  -21.1867  -32.6082  -23.9388 C   0  0  0  0  0  0  0  0  0  0  0  0
  -22.1190  -33.2332  -24.9595 C   0  0  0  0  0  0  0  0  0  0  0  0
  -23.4031  -33.3870  -24.1922 C   0  0  0  0  0  0  0  0  0  0  0  0
  -24.4834  -33.6850  -24.6719 O   0  0  0  0  0  0  0  0  0  0  0  0
  1  2  2  0
  2  3  1  0
  3  4  1  0
  4  5  1  0
  5  6  2  0
  6  7  1  0
  7  8  1  0
  8  9  1  0
  9 10  1  0
 10 11  1  0
 11 12  1  0
  7 13  1  0
  2 14  1  0
 14 15  1  0
 15 16  1  0
 16 17  2  0
 16 18  1  0
 18 19  1  0
 19 20  1  0
 20 21  1  0
 21 22  1  0
 22 23  1  0
 23 24  2  0
 13  4  2  0
 23 19  1  0
 12  8  1  0
M  END
>  <id>  (281) 
314069

>  <inchikey>  (281) 
POVPGHPONDSZDY-UHFFFAOYSA-N

>  <alias>  (281) 
None

>  <smiles>  (281) 
O=C(Cc1ccn(C2CCCC2)n1)NNC(=O)CN1CCCC1=O

>  <path>  (281) 
/opt/xchem-fragalysis-2/maxwin/RdRp_FFF/syndirella/mar_elabs/elabs_009/MOWNOSLAQYMJTK-UHFFFAOYSA-N/output/MOWNOSLAQYMJTK-UHFFFAOYSA-N-42fd8q-174-A/MOWNOSLAQYMJTK-UHFFFAOYSA-N-42fd8q-174-A.minimised.mol

>  <distance_score>  (281) 
1.532112

>  <energy_score>  (281) 
-4.259494

>  <compound>  (281) 
POVPGHPONDSZDY-UHFFFAOYSA-N

>  <compound_id>  (281) 
135579

>  <target>  (281) 
Flavi_NS5_RdRp

>  <tags>  (281) 
[]

>  <inspirations>  (281) 
{P Ã— 2}

>  <subsites>  (281) 
None

>  <reference>  (281) 
z0215a

>  <SLURM_JOB_ID>  (281) 
nan

>  <SLURM_JOB_NAME>  (281) 
nan

>  <csv_name>  (281) 
nan

>  <scratch_subdir>  (281) 
nan

>  <fragmenstein_runtime>  (281) 
nan

>  <fragmenstein_outcome>  (281) 
nan

>  <fragmenstein_mode>  (281) 
nan

>  <fragmenstein_error>  (281) 
nan

>  <exports>  (281) 
nan

>  <Multi-SuCOS>  (281) 
nan

>  <merge_set>  (281) 
nan

$$$$
IRVNSQFDMRAYDY-GFCCVEGCSA-N
     RDKit          3D

 24 25  0  0  0  0  0  0  0  0999 V2000
  -20.5525  -43.8808  -21.5741 C   0  0  0  0  0  0  0  0  0  0  0  0
  -19.5473  -44.5256  -20.6998 C   0  0  0  0  0  0  0  0  0  0  0  0
  -18.2729  -44.6999  -21.1861 N   0  0  0  0  0  0  0  0  0  0  0  0
  -17.4732  -45.0357  -20.1893 C   0  0  0  0  0  0  0  0  0  0  0  0
  -16.0288  -44.7461  -20.1933 C   0  0  0  0  0  0  0  0  0  0  0  0
  -15.4236  -44.2932  -21.3653 C   0  0  0  0  0  0  0  0  0  0  0  0
  -14.1533  -43.7348  -21.2924 C   0  0  0  0  0  0  0  0  0  0  0  0
  -13.5268  -43.6289  -20.0591 C   0  0  0  0  0  0  0  0  0  0  0  0
  -14.1831  -44.1257  -18.9495 C   0  0  0  0  0  0  0  0  0  0  0  0
  -15.4017  -44.7089  -18.9870 N   0  0  0  0  0  0  0  0  0  0  0  0
  -18.2929  -45.6046  -18.7768 S   0  0  0  0  0  0  0  0  0  0  0  0
  -19.7259  -44.9235  -19.3905 C   0  0  0  0  0  0  0  0  0  0  0  0
  -20.8826  -44.6593  -18.5711 C   0  0  0  0  0  0  0  0  0  0  0  0
  -21.2983  -43.5724  -18.5390 O   0  0  0  0  0  0  0  0  0  0  0  0
  -21.4254  -45.9518  -17.9434 N   0  0  0  0  0  0  0  0  0  0  0  0
  -22.6627  -46.2034  -17.2120 C   0  0  2  0  0  0  0  0  0  0  0  0
  -23.1045  -44.9771  -16.4080 C   0  0  0  0  0  0  0  0  0  0  0  0
  -22.2987  -44.5963  -15.1322 C   0  0  0  0  0  0  0  0  0  0  0  0
  -22.5778  -43.1389  -14.7434 C   0  0  0  0  0  0  0  0  0  0  0  0
  -20.7815  -44.7846  -15.2025 C   0  0  0  0  0  0  0  0  0  0  0  0
  -22.7693  -47.5025  -16.4012 C   0  0  0  0  0  0  0  0  0  0  0  0
  -22.3126  -47.3854  -15.1422 F   0  0  0  0  0  0  0  0  0  0  0  0
  -22.1053  -48.5132  -17.0027 F   0  0  0  0  0  0  0  0  0  0  0  0
  -24.0667  -47.8882  -16.3053 F   0  0  0  0  0  0  0  0  0  0  0  0
  1  2  1  0
  2  3  1  0
  3  4  2  0
  4  5  1  0
  5  6  2  0
  6  7  1  0
  7  8  2  0
  8  9  1  0
  9 10  2  0
  4 11  1  0
 11 12  1  0
 12 13  1  0
 13 14  2  0
 13 15  1  0
 15 16  1  0
 16 17  1  1
 17 18  1  0
 18 19  1  0
 18 20  1  0
 16 21  1  0
 21 22  1  0
 21 23  1  0
 21 24  1  0
 12  2  2  0
 10  5  1  0
M  END
>  <id>  (282) 
316502

>  <inchikey>  (282) 
IRVNSQFDMRAYDY-GFCCVEGCSA-N

>  <alias>  (282) 
None

>  <smiles>  (282) 
Cc1nc(-c2ccccn2)sc1C(=O)N[C@H](CC(C)C)C(F)(F)F

>  <path>  (282) 
/opt/xchem-fragalysis-2/maxwin/RdRp_FFF/syndirella/mar_elabs/elabs_018/HGMRINZTTPAZBD-UHFFFAOYSA-N/output/HGMRINZTTPAZBD-UHFFFAOYSA-N-zzohpX-39-A/HGMRINZTTPAZBD-UHFFFAOYSA-N-zzohpX-39-A.minimised.mol

>  <distance_score>  (282) 
0.976331

>  <energy_score>  (282) 
-47.494961

>  <compound>  (282) 
IRVNSQFDMRAYDY-UHFFFAOYSA-N

>  <compound_id>  (282) 
144473

>  <target>  (282) 
Flavi_NS5_RdRp

>  <tags>  (282) 
[]

>  <inspirations>  (282) 
{P Ã— 2}

>  <subsites>  (282) 
None

>  <reference>  (282) 
d0264a

>  <SLURM_JOB_ID>  (282) 
nan

>  <SLURM_JOB_NAME>  (282) 
nan

>  <csv_name>  (282) 
nan

>  <scratch_subdir>  (282) 
nan

>  <fragmenstein_runtime>  (282) 
nan

>  <fragmenstein_outcome>  (282) 
nan

>  <fragmenstein_mode>  (282) 
nan

>  <fragmenstein_error>  (282) 
nan

>  <exports>  (282) 
nan

>  <Multi-SuCOS>  (282) 
nan

>  <merge_set>  (282) 
nan

$$$$
IVCLHORRQXXJNK-LBPRGKRZSA-N
     RDKit          3D

 24 25  0  0  0  0  0  0  0  0999 V2000
  -22.5306  -42.7816  -14.4072 C   0  0  0  0  0  0  0  0  0  0  0  0
  -22.5242  -42.9468  -15.9394 C   0  0  0  0  0  0  0  0  0  0  0  0
  -23.5802  -41.9906  -16.5287 C   0  0  0  0  0  0  0  0  0  0  0  0
  -21.1560  -42.4873  -16.4733 C   0  0  0  0  0  0  0  0  0  0  0  0
  -22.8762  -44.4266  -16.3374 C   0  0  0  0  0  0  0  0  0  0  0  0
  -21.8318  -45.4865  -15.9323 C   0  0  2  0  0  0  0  0  0  0  0  0
  -20.7873  -45.4781  -16.9342 N   0  0  0  0  0  0  0  0  0  0  0  0
  -20.6151  -46.3157  -18.1821 C   0  0  0  0  0  0  0  0  0  0  0  0
  -21.2359  -47.2026  -18.5784 O   0  0  0  0  0  0  0  0  0  0  0  0
  -19.5303  -45.7726  -18.9654 C   0  0  0  0  0  0  0  0  0  0  0  0
  -19.6080  -45.1351  -20.1841 C   0  0  0  0  0  0  0  0  0  0  0  0
  -18.4079  -44.7183  -20.7160 N   0  0  0  0  0  0  0  0  0  0  0  0
  -17.4308  -45.0076  -19.8731 C   0  0  0  0  0  0  0  0  0  0  0  0
  -16.0332  -44.5753  -20.0443 C   0  0  0  0  0  0  0  0  0  0  0  0
  -15.5756  -44.1337  -21.2831 C   0  0  0  0  0  0  0  0  0  0  0  0
  -14.2961  -43.5960  -21.3694 C   0  0  0  0  0  0  0  0  0  0  0  0
  -13.5215  -43.4932  -20.2219 C   0  0  0  0  0  0  0  0  0  0  0  0
  -14.0426  -43.9672  -19.0351 C   0  0  0  0  0  0  0  0  0  0  0  0
  -15.2666  -44.5252  -18.9200 N   0  0  0  0  0  0  0  0  0  0  0  0
  -17.9184  -45.8581  -18.4489 S   0  0  0  0  0  0  0  0  0  0  0  0
  -22.5018  -46.8833  -15.7861 C   0  0  0  0  0  0  0  0  0  0  0  0
  -23.3221  -46.8895  -14.7046 F   0  0  0  0  0  0  0  0  0  0  0  0
  -23.2400  -47.2554  -16.8500 F   0  0  0  0  0  0  0  0  0  0  0  0
  -21.5733  -47.8382  -15.5859 F   0  0  0  0  0  0  0  0  0  0  0  0
  1  2  1  0
  2  3  1  0
  2  4  1  0
  2  5  1  0
  6  5  1  6
  6  7  1  0
  7  8  1  0
  8  9  2  0
  8 10  1  0
 10 11  2  0
 11 12  1  0
 12 13  2  0
 13 14  1  0
 14 15  2  0
 15 16  1  0
 16 17  2  0
 17 18  1  0
 18 19  2  0
 13 20  1  0
  6 21  1  0
 21 22  1  0
 21 23  1  0
 21 24  1  0
 20 10  1  0
 19 14  1  0
M  END
>  <id>  (283) 
316595

>  <inchikey>  (283) 
IVCLHORRQXXJNK-LBPRGKRZSA-N

>  <alias>  (283) 
None

>  <smiles>  (283) 
CC(C)(C)C[C@H](NC(=O)c1cnc(-c2ccccn2)s1)C(F)(F)F

>  <path>  (283) 
/opt/xchem-fragalysis-2/maxwin/RdRp_FFF/syndirella/mar_elabs/elabs_018/HGMRINZTTPAZBD-UHFFFAOYSA-N/output/HGMRINZTTPAZBD-UHFFFAOYSA-N-zzohpX-200-B/HGMRINZTTPAZBD-UHFFFAOYSA-N-zzohpX-200-B.minimised.mol

>  <distance_score>  (283) 
1.696796

>  <energy_score>  (283) 
-42.528614

>  <compound>  (283) 
IVCLHORRQXXJNK-UHFFFAOYSA-N

>  <compound_id>  (283) 
144620

>  <target>  (283) 
Flavi_NS5_RdRp

>  <tags>  (283) 
[]

>  <inspirations>  (283) 
{P Ã— 2}

>  <subsites>  (283) 
None

>  <reference>  (283) 
d0264a

>  <SLURM_JOB_ID>  (283) 
nan

>  <SLURM_JOB_NAME>  (283) 
nan

>  <csv_name>  (283) 
nan

>  <scratch_subdir>  (283) 
nan

>  <fragmenstein_runtime>  (283) 
nan

>  <fragmenstein_outcome>  (283) 
nan

>  <fragmenstein_mode>  (283) 
nan

>  <fragmenstein_error>  (283) 
nan

>  <exports>  (283) 
nan

>  <Multi-SuCOS>  (283) 
nan

>  <merge_set>  (283) 
nan

$$$$
FSGWTLIACHKGJS-BZNIZROVSA-N
     RDKit          3D

 25 28  0  0  0  0  0  0  0  0999 V2000
  -20.7170  -43.8145  -21.4139 C   0  0  0  0  0  0  0  0  0  0  0  0
  -19.6329  -44.3435  -20.5604 C   0  0  0  0  0  0  0  0  0  0  0  0
  -18.3884  -44.5109  -21.1530 N   0  0  0  0  0  0  0  0  0  0  0  0
  -17.5014  -44.8113  -20.2263 C   0  0  0  0  0  0  0  0  0  0  0  0
  -16.0517  -44.5808  -20.3323 C   0  0  0  0  0  0  0  0  0  0  0  0
  -15.4978  -44.1542  -21.5335 C   0  0  0  0  0  0  0  0  0  0  0  0
  -14.2001  -43.6578  -21.5240 C   0  0  0  0  0  0  0  0  0  0  0  0
  -13.5018  -43.5836  -20.3253 C   0  0  0  0  0  0  0  0  0  0  0  0
  -14.1062  -44.0662  -19.1846 C   0  0  0  0  0  0  0  0  0  0  0  0
  -15.3493  -44.5871  -19.1620 N   0  0  0  0  0  0  0  0  0  0  0  0
  -18.1871  -45.2803  -18.7358 S   0  0  0  0  0  0  0  0  0  0  0  0
  -19.6880  -44.6097  -19.1987 C   0  0  0  0  0  0  0  0  0  0  0  0
  -20.7496  -44.3031  -18.2528 C   0  0  0  0  0  0  0  0  0  0  0  0
  -21.7202  -43.6136  -18.5372 O   0  0  0  0  0  0  0  0  0  0  0  0
  -20.6279  -44.7099  -16.9543 N   0  0  0  0  0  0  0  0  0  0  0  0
  -19.9171  -43.9371  -15.9514 C   0  0  0  0  0  0  0  0  0  0  0  0
  -19.8121  -44.9799  -14.8319 C   0  0  2  0  0  0  0  0  0  0  0  0
  -18.9862  -46.1768  -15.3636 C   0  0  0  0  0  0  0  0  0  0  0  0
  -19.9761  -46.9028  -16.3148 C   0  0  0  0  0  0  0  0  0  0  0  0
  -21.1632  -45.9489  -16.3372 C   0  0  2  0  0  0  0  0  0  0  0  0
  -22.4568  -46.6180  -16.8087 C   0  0  0  0  0  0  0  0  0  0  0  0
  -23.5461  -45.9843  -16.3230 F   0  0  0  0  0  0  0  0  0  0  0  0
  -22.5424  -47.8999  -16.3654 F   0  0  0  0  0  0  0  0  0  0  0  0
  -22.5476  -46.6685  -18.1504 F   0  0  0  0  0  0  0  0  0  0  0  0
  -21.2387  -45.5285  -14.8594 C   0  0  0  0  0  0  0  0  0  0  0  0
  1  2  1  0
  2  3  1  0
  3  4  2  0
  4  5  1  0
  5  6  2  0
  6  7  1  0
  7  8  2  0
  8  9  1  0
  9 10  2  0
  4 11  1  0
 11 12  1  0
 12 13  1  0
 13 14  2  0
 13 15  1  0
 15 16  1  0
 17 16  1  6
 17 18  1  0
 18 19  1  0
 19 20  1  0
 20 21  1  6
 21 22  1  0
 21 23  1  0
 21 24  1  0
 20 25  1  0
 12  2  2  0
 20 15  1  0
 10  5  1  0
 25 17  1  0
M  END
>  <id>  (284) 
317467

>  <inchikey>  (284) 
FSGWTLIACHKGJS-BZNIZROVSA-N

>  <alias>  (284) 
None

>  <smiles>  (284) 
Cc1nc(-c2ccccn2)sc1C(=O)N1C[C@@H]2CC[C@@]1(C(F)(F)F)C2

>  <path>  (284) 
/opt/xchem-fragalysis-2/maxwin/RdRp_FFF/syndirella/mar_elabs/elabs_018/HGMRINZTTPAZBD-UHFFFAOYSA-N/output/HGMRINZTTPAZBD-UHFFFAOYSA-N-zzohpX-1801-C/HGMRINZTTPAZBD-UHFFFAOYSA-N-zzohpX-1801-C.minimised.mol

>  <distance_score>  (284) 
1.31246

>  <energy_score>  (284) 
-58.406809

>  <compound>  (284) 
FSGWTLIACHKGJS-UHFFFAOYSA-N

>  <compound_id>  (284) 
146018

>  <target>  (284) 
Flavi_NS5_RdRp

>  <tags>  (284) 
[]

>  <inspirations>  (284) 
{P Ã— 2}

>  <subsites>  (284) 
None

>  <reference>  (284) 
d0264a

>  <SLURM_JOB_ID>  (284) 
nan

>  <SLURM_JOB_NAME>  (284) 
nan

>  <csv_name>  (284) 
nan

>  <scratch_subdir>  (284) 
nan

>  <fragmenstein_runtime>  (284) 
nan

>  <fragmenstein_outcome>  (284) 
nan

>  <fragmenstein_mode>  (284) 
nan

>  <fragmenstein_error>  (284) 
nan

>  <exports>  (284) 
nan

>  <Multi-SuCOS>  (284) 
nan

>  <merge_set>  (284) 
nan

$$$$
GFYCDDUZSTWNNR-MRVPVSSYSA-N
     RDKit          3D

 20 20  0  0  0  0  0  0  0  0999 V2000
  -21.0990  -32.8702  -24.8823 C   0  0  0  0  0  0  0  0  0  0  0  0
  -21.1525  -33.3299  -23.4349 C   0  0  0  0  0  0  0  0  0  0  0  0
  -21.8431  -32.3621  -22.4818 C   0  0  1  0  0  0  0  0  0  0  0  0
  -21.0622  -31.1763  -22.4117 O   0  0  0  0  0  0  0  0  0  0  0  0
  -23.2812  -32.0885  -22.9021 C   0  0  0  0  0  0  0  0  0  0  0  0
  -24.0701  -31.4716  -21.8730 N   0  0  0  0  0  0  0  0  0  0  0  0
  -25.5055  -30.8995  -21.9199 C   0  0  0  0  0  0  0  0  0  0  0  0
  -26.2176  -30.7756  -22.7963 O   0  0  0  0  0  0  0  0  0  0  0  0
  -25.7251  -30.6402  -20.4081 N   0  0  0  0  0  0  0  0  0  0  0  0
  -26.8414  -30.2874  -19.7347 C   0  0  0  0  0  0  0  0  0  0  0  0
  -28.1199  -30.2215  -20.3101 C   0  0  0  0  0  0  0  0  0  0  0  0
  -28.9776  -30.1086  -19.2451 C   0  0  0  0  0  0  0  0  0  0  0  0
  -30.4422  -30.2232  -19.2205 C   0  0  0  0  0  0  0  0  0  0  0  0
  -28.1784  -29.9569  -18.1364 N   0  0  0  0  0  0  0  0  0  0  0  0
  -28.6250  -29.8145  -16.7684 C   0  0  0  0  0  0  0  0  0  0  0  0
  -27.5632  -30.0082  -15.7179 C   0  0  0  0  0  0  0  0  0  0  0  0
  -26.6510  -29.0166  -15.7315 F   0  0  0  0  0  0  0  0  0  0  0  0
  -26.8945  -31.1656  -15.7780 F   0  0  0  0  0  0  0  0  0  0  0  0
  -28.1744  -29.9814  -14.5037 F   0  0  0  0  0  0  0  0  0  0  0  0
  -26.8675  -30.0450  -18.4285 N   0  0  0  0  0  0  0  0  0  0  0  0
  1  2  1  0
  2  3  1  0
  3  4  1  6
  3  5  1  0
  5  6  1  0
  6  7  1  0
  7  8  2  0
  7  9  1  0
  9 10  1  0
 10 11  1  0
 11 12  2  0
 12 13  1  0
 12 14  1  0
 14 15  1  0
 15 16  1  0
 16 17  1  0
 16 18  1  0
 16 19  1  0
 14 20  1  0
 20 10  2  0
M  END
>  <id>  (285) 
318075

>  <inchikey>  (285) 
GFYCDDUZSTWNNR-MRVPVSSYSA-N

>  <alias>  (285) 
None

>  <smiles>  (285) 
CC[C@@H](O)CNC(=O)Nc1cc(C)n(CC(F)(F)F)n1

>  <path>  (285) 
/opt/xchem-fragalysis-2/maxwin/RdRp_FFF/syndirella/mar_elabs/elabs_058/OHJDLUXFTXKBRG-UHFFFAOYSA-N/output/OHJDLUXFTXKBRG-UHFFFAOYSA-N-YVyPGt-43-B/OHJDLUXFTXKBRG-UHFFFAOYSA-N-YVyPGt-43-B.minimised.mol

>  <distance_score>  (285) 
0.733795

>  <energy_score>  (285) 
-28.542564

>  <compound>  (285) 
GFYCDDUZSTWNNR-UHFFFAOYSA-N

>  <compound_id>  (285) 
153328

>  <target>  (285) 
Flavi_NS5_RdRp

>  <tags>  (285) 
[]

>  <inspirations>  (285) 
{P Ã— 2}

>  <subsites>  (285) 
None

>  <reference>  (285) 
z0211a

>  <SLURM_JOB_ID>  (285) 
nan

>  <SLURM_JOB_NAME>  (285) 
nan

>  <csv_name>  (285) 
nan

>  <scratch_subdir>  (285) 
nan

>  <fragmenstein_runtime>  (285) 
nan

>  <fragmenstein_outcome>  (285) 
nan

>  <fragmenstein_mode>  (285) 
nan

>  <fragmenstein_error>  (285) 
nan

>  <exports>  (285) 
nan

>  <Multi-SuCOS>  (285) 
nan

>  <merge_set>  (285) 
nan

$$$$
MBCUNPYAIGONHN-SSDOTTSWSA-N
     RDKit          3D

 20 20  0  0  0  0  0  0  0  0999 V2000
  -30.4354  -30.2301  -19.1627 C   0  0  0  0  0  0  0  0  0  0  0  0
  -28.9699  -30.1417  -19.2020 C   0  0  0  0  0  0  0  0  0  0  0  0
  -28.1319  -30.2551  -20.2797 C   0  0  0  0  0  0  0  0  0  0  0  0
  -26.8427  -30.3503  -19.7301 C   0  0  0  0  0  0  0  0  0  0  0  0
  -25.7538  -30.6763  -20.4638 N   0  0  0  0  0  0  0  0  0  0  0  0
  -25.5976  -30.8765  -21.9957 C   0  0  0  0  0  0  0  0  0  0  0  0
  -26.3463  -30.7190  -22.8363 O   0  0  0  0  0  0  0  0  0  0  0  0
  -24.1583  -31.4413  -22.0331 N   0  0  0  0  0  0  0  0  0  0  0  0
  -23.3409  -31.8313  -23.1481 C   0  0  0  0  0  0  0  0  0  0  0  0
  -22.1254  -32.6608  -22.7537 C   0  0  2  0  0  0  0  0  0  0  0  0
  -21.5193  -32.0830  -21.5883 O   0  0  0  0  0  0  0  0  0  0  0  0
  -21.0944  -32.7007  -23.8786 C   0  0  0  0  0  0  0  0  0  0  0  0
  -21.7081  -33.4057  -25.3956 Cl  0  0  0  0  0  0  0  0  0  0  0  0
  -26.8444  -30.1418  -18.4146 N   0  0  0  0  0  0  0  0  0  0  0  0
  -28.1512  -30.0176  -18.1041 N   0  0  0  0  0  0  0  0  0  0  0  0
  -28.5902  -29.8543  -16.7365 C   0  0  0  0  0  0  0  0  0  0  0  0
  -27.5604  -30.0907  -15.6635 C   0  0  0  0  0  0  0  0  0  0  0  0
  -26.5609  -29.1927  -15.7028 F   0  0  0  0  0  0  0  0  0  0  0  0
  -27.0041  -31.3082  -15.6345 F   0  0  0  0  0  0  0  0  0  0  0  0
  -28.1879  -29.9427  -14.4653 F   0  0  0  0  0  0  0  0  0  0  0  0
  1  2  1  0
  2  3  2  0
  3  4  1  0
  4  5  1  0
  5  6  1  0
  6  7  2  0
  6  8  1  0
  8  9  1  0
  9 10  1  0
 10 11  1  1
 10 12  1  0
 12 13  1  0
  4 14  2  0
 14 15  1  0
 15 16  1  0
 16 17  1  0
 17 18  1  0
 17 19  1  0
 17 20  1  0
 15  2  1  0
M  END
>  <id>  (286) 
318078

>  <inchikey>  (286) 
MBCUNPYAIGONHN-SSDOTTSWSA-N

>  <alias>  (286) 
None

>  <smiles>  (286) 
Cc1cc(NC(=O)NC[C@H](O)CCl)nn1CC(F)(F)F

>  <path>  (286) 
/opt/xchem-fragalysis-2/maxwin/RdRp_FFF/syndirella/mar_elabs/elabs_058/OHJDLUXFTXKBRG-UHFFFAOYSA-N/output/OHJDLUXFTXKBRG-UHFFFAOYSA-N-YVyPGt-48-A/OHJDLUXFTXKBRG-UHFFFAOYSA-N-YVyPGt-48-A.minimised.mol

>  <distance_score>  (286) 
0.891526

>  <energy_score>  (286) 
-0.557319

>  <compound>  (286) 
MBCUNPYAIGONHN-UHFFFAOYSA-N

>  <compound_id>  (286) 
153333

>  <target>  (286) 
Flavi_NS5_RdRp

>  <tags>  (286) 
[]

>  <inspirations>  (286) 
{P Ã— 2}

>  <subsites>  (286) 
None

>  <reference>  (286) 
z0211a

>  <SLURM_JOB_ID>  (286) 
nan

>  <SLURM_JOB_NAME>  (286) 
nan

>  <csv_name>  (286) 
nan

>  <scratch_subdir>  (286) 
nan

>  <fragmenstein_runtime>  (286) 
nan

>  <fragmenstein_outcome>  (286) 
nan

>  <fragmenstein_mode>  (286) 
nan

>  <fragmenstein_error>  (286) 
nan

>  <exports>  (286) 
nan

>  <Multi-SuCOS>  (286) 
nan

>  <merge_set>  (286) 
nan

$$$$
KNJTWCCHKNUCKX-LURJTMIESA-N
     RDKit          3D

 20 20  0  0  0  0  0  0  0  0999 V2000
  -30.0139  -30.2344  -19.5931 C   0  0  0  0  0  0  0  0  0  0  0  0
  -28.5382  -30.3084  -19.4756 C   0  0  0  0  0  0  0  0  0  0  0  0
  -27.6041  -30.7311  -20.3958 C   0  0  0  0  0  0  0  0  0  0  0  0
  -26.3577  -30.6341  -19.7480 C   0  0  0  0  0  0  0  0  0  0  0  0
  -25.1596  -31.0281  -20.2498 N   0  0  0  0  0  0  0  0  0  0  0  0
  -24.8290  -31.7411  -21.4988 C   0  0  0  0  0  0  0  0  0  0  0  0
  -25.5168  -32.1940  -22.2981 O   0  0  0  0  0  0  0  0  0  0  0  0
  -23.1871  -31.6164  -21.4169 N   0  0  0  0  0  0  0  0  0  0  0  0
  -22.0064  -32.1646  -22.3520 C   0  0  0  0  0  0  0  0  0  0  0  0
  -22.0011  -33.0929  -23.6087 S   0  0  0  0  0  0  0  0  0  0  0  0
  -20.6765  -31.6686  -21.7028 C   0  0  2  0  0  0  0  0  0  0  0  0
  -19.9931  -32.7992  -20.9390 C   0  0  0  0  0  0  0  0  0  0  0  0
  -20.7959  -30.5559  -20.8310 O   0  0  0  0  0  0  0  0  0  0  0  0
  -26.4805  -30.0924  -18.5383 N   0  0  0  0  0  0  0  0  0  0  0  0
  -27.8123  -30.0104  -18.3458 N   0  0  0  0  0  0  0  0  0  0  0  0
  -28.3468  -29.7085  -17.0385 C   0  0  0  0  0  0  0  0  0  0  0  0
  -27.3854  -29.8877  -15.8912 C   0  0  0  0  0  0  0  0  0  0  0  0
  -28.0766  -29.7062  -14.7325 F   0  0  0  0  0  0  0  0  0  0  0  0
  -26.8214  -31.1020  -15.8026 F   0  0  0  0  0  0  0  0  0  0  0  0
  -26.3965  -28.9711  -15.9098 F   0  0  0  0  0  0  0  0  0  0  0  0
  1  2  1  0
  2  3  2  0
  3  4  1  0
  4  5  1  0
  5  6  1  0
  6  7  2  0
  6  8  1  0
  8  9  1  0
  9 10  2  0
  9 11  1  0
 11 12  1  1
 11 13  1  0
  4 14  2  0
 14 15  1  0
 15 16  1  0
 16 17  1  0
 17 18  1  0
 17 19  1  0
 17 20  1  0
 15  2  1  0
M  END
>  <id>  (287) 
318081

>  <inchikey>  (287) 
KNJTWCCHKNUCKX-LURJTMIESA-N

>  <alias>  (287) 
None

>  <smiles>  (287) 
Cc1cc(NC(=O)NC(=S)[C@H](C)O)nn1CC(F)(F)F

>  <path>  (287) 
/opt/xchem-fragalysis-2/maxwin/RdRp_FFF/syndirella/mar_elabs/elabs_058/OHJDLUXFTXKBRG-UHFFFAOYSA-N/output/OHJDLUXFTXKBRG-UHFFFAOYSA-N-YVyPGt-50-A/OHJDLUXFTXKBRG-UHFFFAOYSA-N-YVyPGt-50-A.minimised.mol

>  <distance_score>  (287) 
1.487343

>  <energy_score>  (287) 
-0.369338

>  <compound>  (287) 
KNJTWCCHKNUCKX-UHFFFAOYSA-N

>  <compound_id>  (287) 
153335

>  <target>  (287) 
Flavi_NS5_RdRp

>  <tags>  (287) 
[]

>  <inspirations>  (287) 
{P Ã— 2}

>  <subsites>  (287) 
None

>  <reference>  (287) 
z0211a

>  <SLURM_JOB_ID>  (287) 
nan

>  <SLURM_JOB_NAME>  (287) 
nan

>  <csv_name>  (287) 
nan

>  <scratch_subdir>  (287) 
nan

>  <fragmenstein_runtime>  (287) 
nan

>  <fragmenstein_outcome>  (287) 
nan

>  <fragmenstein_mode>  (287) 
nan

>  <fragmenstein_error>  (287) 
nan

>  <exports>  (287) 
nan

>  <Multi-SuCOS>  (287) 
nan

>  <merge_set>  (287) 
nan

$$$$
SEPNODNSXQZAOT-QMMMGPOBSA-N
     RDKit          3D

 20 20  0  0  0  0  0  0  0  0999 V2000
  -20.4281  -32.1506  -20.7765 C   0  0  0  0  0  0  0  0  0  0  0  0
  -21.5956  -32.6456  -21.4152 O   0  0  0  0  0  0  0  0  0  0  0  0
  -21.8157  -32.1089  -22.7248 C   0  0  1  0  0  0  0  0  0  0  0  0
  -21.1198  -32.9816  -23.7592 C   0  0  0  0  0  0  0  0  0  0  0  0
  -23.3190  -32.1292  -22.9889 C   0  0  0  0  0  0  0  0  0  0  0  0
  -24.0884  -31.5078  -21.9479 N   0  0  0  0  0  0  0  0  0  0  0  0
  -25.5132  -30.9079  -21.9782 C   0  0  0  0  0  0  0  0  0  0  0  0
  -26.2295  -30.7614  -22.8483 O   0  0  0  0  0  0  0  0  0  0  0  0
  -25.7168  -30.6596  -20.4606 N   0  0  0  0  0  0  0  0  0  0  0  0
  -26.8231  -30.2918  -19.7743 C   0  0  0  0  0  0  0  0  0  0  0  0
  -28.1004  -30.1692  -20.3457 C   0  0  0  0  0  0  0  0  0  0  0  0
  -28.9557  -30.0901  -19.2747 C   0  0  0  0  0  0  0  0  0  0  0  0
  -30.4208  -30.2090  -19.2456 C   0  0  0  0  0  0  0  0  0  0  0  0
  -28.1526  -29.9728  -18.1646 N   0  0  0  0  0  0  0  0  0  0  0  0
  -28.5984  -29.8280  -16.7961 C   0  0  0  0  0  0  0  0  0  0  0  0
  -27.5372  -30.0072  -15.7425 C   0  0  0  0  0  0  0  0  0  0  0  0
  -26.8622  -31.1616  -15.7894 F   0  0  0  0  0  0  0  0  0  0  0  0
  -28.1489  -29.9710  -14.5281 F   0  0  0  0  0  0  0  0  0  0  0  0
  -26.6305  -29.0099  -15.7644 F   0  0  0  0  0  0  0  0  0  0  0  0
  -26.8446  -30.0987  -18.4588 N   0  0  0  0  0  0  0  0  0  0  0  0
  1  2  1  0
  2  3  1  0
  3  4  1  6
  3  5  1  0
  5  6  1  0
  6  7  1  0
  7  8  2  0
  7  9  1  0
  9 10  1  0
 10 11  1  0
 11 12  2  0
 12 13  1  0
 12 14  1  0
 14 15  1  0
 15 16  1  0
 16 17  1  0
 16 18  1  0
 16 19  1  0
 14 20  1  0
 20 10  2  0
M  END
>  <id>  (288) 
318087

>  <inchikey>  (288) 
SEPNODNSXQZAOT-QMMMGPOBSA-N

>  <alias>  (288) 
None

>  <smiles>  (288) 
CO[C@@H](C)CNC(=O)Nc1cc(C)n(CC(F)(F)F)n1

>  <path>  (288) 
/opt/xchem-fragalysis-2/maxwin/RdRp_FFF/syndirella/mar_elabs/elabs_058/OHJDLUXFTXKBRG-UHFFFAOYSA-N/output/OHJDLUXFTXKBRG-UHFFFAOYSA-N-YVyPGt-59-B/OHJDLUXFTXKBRG-UHFFFAOYSA-N-YVyPGt-59-B.minimised.mol

>  <distance_score>  (288) 
0.851675

>  <energy_score>  (288) 
-22.158335

>  <compound>  (288) 
SEPNODNSXQZAOT-UHFFFAOYSA-N

>  <compound_id>  (288) 
153342

>  <target>  (288) 
Flavi_NS5_RdRp

>  <tags>  (288) 
[]

>  <inspirations>  (288) 
{P Ã— 2}

>  <subsites>  (288) 
None

>  <reference>  (288) 
z0211a

>  <SLURM_JOB_ID>  (288) 
nan

>  <SLURM_JOB_NAME>  (288) 
nan

>  <csv_name>  (288) 
nan

>  <scratch_subdir>  (288) 
nan

>  <fragmenstein_runtime>  (288) 
nan

>  <fragmenstein_outcome>  (288) 
nan

>  <fragmenstein_mode>  (288) 
nan

>  <fragmenstein_error>  (288) 
nan

>  <exports>  (288) 
nan

>  <Multi-SuCOS>  (288) 
nan

>  <merge_set>  (288) 
nan

$$$$
BAWPRIDXPJDSJU-SSDOTTSWSA-N
     RDKit          3D

 20 20  0  0  0  0  0  0  0  0999 V2000
  -30.4256  -30.2192  -19.1755 C   0  0  0  0  0  0  0  0  0  0  0  0
  -28.9598  -30.1229  -19.2077 C   0  0  0  0  0  0  0  0  0  0  0  0
  -28.1148  -30.2275  -20.2817 C   0  0  0  0  0  0  0  0  0  0  0  0
  -26.8313  -30.3430  -19.7221 C   0  0  0  0  0  0  0  0  0  0  0  0
  -25.7443  -30.7094  -20.4398 N   0  0  0  0  0  0  0  0  0  0  0  0
  -25.5738  -30.9194  -21.9689 C   0  0  0  0  0  0  0  0  0  0  0  0
  -26.3046  -30.7377  -22.8204 O   0  0  0  0  0  0  0  0  0  0  0  0
  -24.1572  -31.5433  -21.9836 N   0  0  0  0  0  0  0  0  0  0  0  0
  -23.3408  -31.9758  -23.0875 C   0  0  0  0  0  0  0  0  0  0  0  0
  -21.9493  -32.4205  -22.6664 C   0  0  2  0  0  0  0  0  0  0  0  0
  -21.2863  -31.3756  -21.9499 O   0  0  0  0  0  0  0  0  0  0  0  0
  -21.1190  -32.8037  -23.8802 C   0  0  0  0  0  0  0  0  0  0  0  0
  -21.7752  -33.7116  -24.6479 F   0  0  0  0  0  0  0  0  0  0  0  0
  -26.8397  -30.1362  -18.4068 N   0  0  0  0  0  0  0  0  0  0  0  0
  -28.1477  -30.0065  -18.1036 N   0  0  0  0  0  0  0  0  0  0  0  0
  -28.5939  -29.8522  -16.7370 C   0  0  0  0  0  0  0  0  0  0  0  0
  -27.5670  -30.0895  -15.6612 C   0  0  0  0  0  0  0  0  0  0  0  0
  -26.5673  -29.1914  -15.6982 F   0  0  0  0  0  0  0  0  0  0  0  0
  -27.0101  -31.3067  -15.6332 F   0  0  0  0  0  0  0  0  0  0  0  0
  -28.1968  -29.9427  -14.4643 F   0  0  0  0  0  0  0  0  0  0  0  0
  1  2  1  0
  2  3  2  0
  3  4  1  0
  4  5  1  0
  5  6  1  0
  6  7  2  0
  6  8  1  0
  8  9  1  0
  9 10  1  0
 10 11  1  6
 10 12  1  0
 12 13  1  0
  4 14  2  0
 14 15  1  0
 15 16  1  0
 16 17  1  0
 17 18  1  0
 17 19  1  0
 17 20  1  0
 15  2  1  0
M  END
>  <id>  (289) 
318091

>  <inchikey>  (289) 
BAWPRIDXPJDSJU-SSDOTTSWSA-N

>  <alias>  (289) 
None

>  <smiles>  (289) 
Cc1cc(NC(=O)NC[C@H](O)CF)nn1CC(F)(F)F

>  <path>  (289) 
/opt/xchem-fragalysis-2/maxwin/RdRp_FFF/syndirella/mar_elabs/elabs_058/OHJDLUXFTXKBRG-UHFFFAOYSA-N/output/OHJDLUXFTXKBRG-UHFFFAOYSA-N-YVyPGt-66-A/OHJDLUXFTXKBRG-UHFFFAOYSA-N-YVyPGt-66-A.minimised.mol

>  <distance_score>  (289) 
0.883427

>  <energy_score>  (289) 
-17.622353

>  <compound>  (289) 
BAWPRIDXPJDSJU-UHFFFAOYSA-N

>  <compound_id>  (289) 
153348

>  <target>  (289) 
Flavi_NS5_RdRp

>  <tags>  (289) 
[]

>  <inspirations>  (289) 
{P Ã— 2}

>  <subsites>  (289) 
None

>  <reference>  (289) 
z0211a

>  <SLURM_JOB_ID>  (289) 
nan

>  <SLURM_JOB_NAME>  (289) 
nan

>  <csv_name>  (289) 
nan

>  <scratch_subdir>  (289) 
nan

>  <fragmenstein_runtime>  (289) 
nan

>  <fragmenstein_outcome>  (289) 
nan

>  <fragmenstein_mode>  (289) 
nan

>  <fragmenstein_error>  (289) 
nan

>  <exports>  (289) 
nan

>  <Multi-SuCOS>  (289) 
nan

>  <merge_set>  (289) 
nan

$$$$
STMZBXXDNWGCNZ-SSDOTTSWSA-N
     RDKit          3D

 20 21  0  0  0  0  0  0  0  0999 V2000
  -29.8464  -30.1224  -19.7724 C   0  0  0  0  0  0  0  0  0  0  0  0
  -28.3961  -30.2729  -19.5242 C   0  0  0  0  0  0  0  0  0  0  0  0
  -27.3898  -30.7362  -20.3550 C   0  0  0  0  0  0  0  0  0  0  0  0
  -26.2147  -30.7210  -19.5757 C   0  0  0  0  0  0  0  0  0  0  0  0
  -24.9865  -31.2379  -19.8645 N   0  0  0  0  0  0  0  0  0  0  0  0
  -24.5027  -32.0624  -21.0934 C   0  0  0  0  0  0  0  0  0  0  0  0
  -25.0542  -32.3493  -22.0582 O   0  0  0  0  0  0  0  0  0  0  0  0
  -23.1145  -32.4619  -20.5942 N   0  0  0  0  0  0  0  0  0  0  0  0
  -22.1283  -33.4055  -21.1581 C   0  0  0  0  0  0  0  0  0  0  0  0
  -21.7595  -33.0720  -22.5906 C   0  0  1  0  0  0  0  0  0  0  0  0
  -22.6475  -33.6032  -23.5623 O   0  0  0  0  0  0  0  0  0  0  0  0
  -21.8676  -31.6049  -22.4713 C   0  0  0  0  0  0  0  0  0  0  0  0
  -22.0725  -31.4941  -21.0586 O   0  0  0  0  0  0  0  0  0  0  0  0
  -26.4441  -30.1514  -18.3909 N   0  0  0  0  0  0  0  0  0  0  0  0
  -27.7806  -30.0266  -18.3173 N   0  0  0  0  0  0  0  0  0  0  0  0
  -28.4207  -29.7734  -17.0381 C   0  0  0  0  0  0  0  0  0  0  0  0
  -27.5334  -29.9729  -15.8298 C   0  0  0  0  0  0  0  0  0  0  0  0
  -26.8973  -31.1503  -15.7707 F   0  0  0  0  0  0  0  0  0  0  0  0
  -28.2966  -29.8972  -14.7046 F   0  0  0  0  0  0  0  0  0  0  0  0
  -26.5959  -29.0076  -15.7400 F   0  0  0  0  0  0  0  0  0  0  0  0
  1  2  1  0
  2  3  2  0
  3  4  1  0
  4  5  1  0
  5  6  1  0
  6  7  2  0
  6  8  1  0
  8  9  1  0
  9 10  1  0
 10 11  1  6
 10 12  1  0
 12 13  1  0
  4 14  2  0
 14 15  1  0
 15 16  1  0
 16 17  1  0
 17 18  1  0
 17 19  1  0
 17 20  1  0
 15  2  1  0
 13  8  1  0
M  END
>  <id>  (290) 
318094

>  <inchikey>  (290) 
STMZBXXDNWGCNZ-SSDOTTSWSA-N

>  <alias>  (290) 
None

>  <smiles>  (290) 
Cc1cc(NC(=O)N2C[C@@H](O)CO2)nn1CC(F)(F)F

>  <path>  (290) 
/opt/xchem-fragalysis-2/maxwin/RdRp_FFF/syndirella/mar_elabs/elabs_058/OHJDLUXFTXKBRG-UHFFFAOYSA-N/output/OHJDLUXFTXKBRG-UHFFFAOYSA-N-YVyPGt-71-B/OHJDLUXFTXKBRG-UHFFFAOYSA-N-YVyPGt-71-B.minimised.mol

>  <distance_score>  (290) 
1.375756

>  <energy_score>  (290) 
-1.08875

>  <compound>  (290) 
STMZBXXDNWGCNZ-UHFFFAOYSA-N

>  <compound_id>  (290) 
153352

>  <target>  (290) 
Flavi_NS5_RdRp

>  <tags>  (290) 
[]

>  <inspirations>  (290) 
{P Ã— 2}

>  <subsites>  (290) 
None

>  <reference>  (290) 
z0211a

>  <SLURM_JOB_ID>  (290) 
nan

>  <SLURM_JOB_NAME>  (290) 
nan

>  <csv_name>  (290) 
nan

>  <scratch_subdir>  (290) 
nan

>  <fragmenstein_runtime>  (290) 
nan

>  <fragmenstein_outcome>  (290) 
nan

>  <fragmenstein_mode>  (290) 
nan

>  <fragmenstein_error>  (290) 
nan

>  <exports>  (290) 
nan

>  <Multi-SuCOS>  (290) 
nan

>  <merge_set>  (290) 
nan

$$$$
VNCKKRGWCPSECS-ZCFIWIBFSA-N
     RDKit          3D

 20 20  0  0  0  0  0  0  0  0999 V2000
  -30.3102  -30.2484  -19.0489 C   0  0  0  0  0  0  0  0  0  0  0  0
  -28.8497  -30.1384  -19.2328 C   0  0  0  0  0  0  0  0  0  0  0  0
  -28.1083  -30.2575  -20.3827 C   0  0  0  0  0  0  0  0  0  0  0  0
  -26.7710  -30.3162  -19.9539 C   0  0  0  0  0  0  0  0  0  0  0  0
  -25.7234  -30.6465  -20.7434 N   0  0  0  0  0  0  0  0  0  0  0  0
  -25.6511  -30.8684  -22.1972 C   0  0  0  0  0  0  0  0  0  0  0  0
  -26.4553  -30.7367  -23.0089 O   0  0  0  0  0  0  0  0  0  0  0  0
  -24.1568  -31.4441  -22.2775 N   0  0  0  0  0  0  0  0  0  0  0  0
  -23.3794  -32.0829  -23.4010 C   0  0  0  0  0  0  0  0  0  0  0  0
  -23.6566  -32.2602  -24.5893 N   0  0  0  0  0  0  0  0  0  0  0  0
  -22.0350  -32.5384  -22.8098 C   0  0  1  0  0  0  0  0  0  0  0  0
  -20.9588  -32.7528  -23.8546 C   0  0  0  0  0  0  0  0  0  0  0  0
  -21.5914  -31.5850  -21.8482 O   0  0  0  0  0  0  0  0  0  0  0  0
  -26.6586  -30.0880  -18.6506 N   0  0  0  0  0  0  0  0  0  0  0  0
  -27.9309  -29.9730  -18.2249 N   0  0  0  0  0  0  0  0  0  0  0  0
  -28.2238  -29.7743  -16.8264 C   0  0  0  0  0  0  0  0  0  0  0  0
  -27.0514  -29.9378  -15.8969 C   0  0  0  0  0  0  0  0  0  0  0  0
  -26.1235  -28.9734  -16.0673 F   0  0  0  0  0  0  0  0  0  0  0  0
  -26.4416  -31.1325  -15.9626 F   0  0  0  0  0  0  0  0  0  0  0  0
  -27.5143  -29.8177  -14.6253 F   0  0  0  0  0  0  0  0  0  0  0  0
  1  2  1  0
  2  3  2  0
  3  4  1  0
  4  5  1  0
  5  6  1  0
  6  7  2  0
  6  8  1  0
  8  9  1  0
  9 10  2  3
  9 11  1  0
 11 12  1  6
 11 13  1  0
  4 14  2  0
 14 15  1  0
 15 16  1  0
 16 17  1  0
 17 18  1  0
 17 19  1  0
 17 20  1  0
 15  2  1  0
M  END
>  <id>  (291) 
318099

>  <inchikey>  (291) 
VNCKKRGWCPSECS-ZCFIWIBFSA-N

>  <alias>  (291) 
None

>  <smiles>  (291) 
Cc1cc(NC(=O)NC(=N)[C@@H](C)O)nn1CC(F)(F)F

>  <path>  (291) 
/opt/xchem-fragalysis-2/maxwin/RdRp_FFF/syndirella/mar_elabs/elabs_058/OHJDLUXFTXKBRG-UHFFFAOYSA-N/output/OHJDLUXFTXKBRG-UHFFFAOYSA-N-YVyPGt-75-B/OHJDLUXFTXKBRG-UHFFFAOYSA-N-YVyPGt-75-B.minimised.mol

>  <distance_score>  (291) 
0.917965

>  <energy_score>  (291) 
-24.766062

>  <compound>  (291) 
VNCKKRGWCPSECS-UHFFFAOYSA-N

>  <compound_id>  (291) 
153355

>  <target>  (291) 
Flavi_NS5_RdRp

>  <tags>  (291) 
[]

>  <inspirations>  (291) 
{P Ã— 2}

>  <subsites>  (291) 
None

>  <reference>  (291) 
z0211a

>  <SLURM_JOB_ID>  (291) 
nan

>  <SLURM_JOB_NAME>  (291) 
nan

>  <csv_name>  (291) 
nan

>  <scratch_subdir>  (291) 
nan

>  <fragmenstein_runtime>  (291) 
nan

>  <fragmenstein_outcome>  (291) 
nan

>  <fragmenstein_mode>  (291) 
nan

>  <fragmenstein_error>  (291) 
nan

>  <exports>  (291) 
nan

>  <Multi-SuCOS>  (291) 
nan

>  <merge_set>  (291) 
nan

$$$$
JIBQVFUWBVYRSH-LLVKDONJSA-N
     RDKit          3D

 21 21  0  0  0  0  0  0  0  0999 V2000
  -20.7851  -32.8631  -24.8366 C   0  0  0  0  0  0  0  0  0  0  0  0
  -21.5611  -33.2872  -23.8337 C   0  0  0  0  0  0  0  0  0  0  0  0
  -22.0184  -32.4738  -22.6423 C   0  0  1  0  0  0  0  0  0  0  0  0
  -21.8640  -33.3026  -21.3656 C   0  0  0  0  0  0  0  0  0  0  0  0
  -21.1924  -31.3229  -22.4966 O   0  0  0  0  0  0  0  0  0  0  0  0
  -23.4753  -32.0925  -22.9311 C   0  0  0  0  0  0  0  0  0  0  0  0
  -24.2118  -31.4573  -21.8791 N   0  0  0  0  0  0  0  0  0  0  0  0
  -25.6434  -30.8803  -21.8689 C   0  0  0  0  0  0  0  0  0  0  0  0
  -26.3938  -30.7672  -22.7126 O   0  0  0  0  0  0  0  0  0  0  0  0
  -25.7922  -30.5965  -20.3547 N   0  0  0  0  0  0  0  0  0  0  0  0
  -26.8747  -30.2283  -19.6371 C   0  0  0  0  0  0  0  0  0  0  0  0
  -28.1526  -30.0986  -20.2057 C   0  0  0  0  0  0  0  0  0  0  0  0
  -29.0040  -30.0632  -19.1338 C   0  0  0  0  0  0  0  0  0  0  0  0
  -30.4642  -30.2086  -19.1132 C   0  0  0  0  0  0  0  0  0  0  0  0
  -28.2017  -29.9632  -18.0223 N   0  0  0  0  0  0  0  0  0  0  0  0
  -28.6558  -29.8477  -16.6568 C   0  0  0  0  0  0  0  0  0  0  0  0
  -27.6258  -30.0994  -15.5894 C   0  0  0  0  0  0  0  0  0  0  0  0
  -27.0804  -31.3220  -15.5737 F   0  0  0  0  0  0  0  0  0  0  0  0
  -26.6166  -29.2126  -15.6215 F   0  0  0  0  0  0  0  0  0  0  0  0
  -28.2538  -29.9578  -14.3926 F   0  0  0  0  0  0  0  0  0  0  0  0
  -26.8915  -30.0722  -18.3172 N   0  0  0  0  0  0  0  0  0  0  0  0
  1  2  2  0
  2  3  1  0
  3  4  1  1
  3  5  1  0
  3  6  1  0
  6  7  1  0
  7  8  1  0
  8  9  2  0
  8 10  1  0
 10 11  1  0
 11 12  1  0
 12 13  2  0
 13 14  1  0
 13 15  1  0
 15 16  1  0
 16 17  1  0
 17 18  1  0
 17 19  1  0
 17 20  1  0
 15 21  1  0
 21 11  2  0
M  END
>  <id>  (292) 
318246

>  <inchikey>  (292) 
JIBQVFUWBVYRSH-LLVKDONJSA-N

>  <alias>  (292) 
None

>  <smiles>  (292) 
C=C[C@@](C)(O)CNC(=O)Nc1cc(C)n(CC(F)(F)F)n1

>  <path>  (292) 
/opt/xchem-fragalysis-2/maxwin/RdRp_FFF/syndirella/mar_elabs/elabs_058/OHJDLUXFTXKBRG-UHFFFAOYSA-N/output/OHJDLUXFTXKBRG-UHFFFAOYSA-N-YVyPGt-339-B/OHJDLUXFTXKBRG-UHFFFAOYSA-N-YVyPGt-339-B.minimised.mol

>  <distance_score>  (292) 
0.745884

>  <energy_score>  (292) 
-13.641515

>  <compound>  (292) 
JIBQVFUWBVYRSH-UHFFFAOYSA-N

>  <compound_id>  (292) 
153520

>  <target>  (292) 
Flavi_NS5_RdRp

>  <tags>  (292) 
[]

>  <inspirations>  (292) 
{P Ã— 2}

>  <subsites>  (292) 
None

>  <reference>  (292) 
z0211a

>  <SLURM_JOB_ID>  (292) 
nan

>  <SLURM_JOB_NAME>  (292) 
nan

>  <csv_name>  (292) 
nan

>  <scratch_subdir>  (292) 
nan

>  <fragmenstein_runtime>  (292) 
nan

>  <fragmenstein_outcome>  (292) 
nan

>  <fragmenstein_mode>  (292) 
nan

>  <fragmenstein_error>  (292) 
nan

>  <exports>  (292) 
nan

>  <Multi-SuCOS>  (292) 
nan

>  <merge_set>  (292) 
nan

$$$$
HJQICZRXQIJGLH-BDAKNGLRSA-N
     RDKit          3D

 21 21  0  0  0  0  0  0  0  0999 V2000
  -24.3355  -33.3494  -24.4735 C   0  0  0  0  0  0  0  0  0  0  0  0
  -23.4252  -32.2591  -23.9210 C   0  0  0  0  0  0  0  0  0  0  0  0
  -23.0690  -32.5058  -22.4425 C   0  0  2  0  0  0  0  0  0  0  0  0
  -23.9044  -31.7378  -21.5338 N   0  0  0  0  0  0  0  0  0  0  0  0
  -25.3721  -31.2617  -21.6803 C   0  0  0  0  0  0  0  0  0  0  0  0
  -26.0860  -31.3457  -22.5601 O   0  0  0  0  0  0  0  0  0  0  0  0
  -25.6121  -30.7313  -20.2446 N   0  0  0  0  0  0  0  0  0  0  0  0
  -26.7498  -30.3168  -19.6439 C   0  0  0  0  0  0  0  0  0  0  0  0
  -28.0154  -30.3285  -20.2552 C   0  0  0  0  0  0  0  0  0  0  0  0
  -28.9069  -30.1270  -19.2304 C   0  0  0  0  0  0  0  0  0  0  0  0
  -30.3746  -30.2318  -19.2450 C   0  0  0  0  0  0  0  0  0  0  0  0
  -28.1385  -29.9146  -18.1098 N   0  0  0  0  0  0  0  0  0  0  0  0
  -28.6161  -29.7826  -16.7517 C   0  0  0  0  0  0  0  0  0  0  0  0
  -27.5792  -30.0163  -15.6843 C   0  0  0  0  0  0  0  0  0  0  0  0
  -26.6536  -29.0383  -15.6528 F   0  0  0  0  0  0  0  0  0  0  0  0
  -26.9223  -31.1790  -15.7613 F   0  0  0  0  0  0  0  0  0  0  0  0
  -28.2154  -30.0120  -14.4829 F   0  0  0  0  0  0  0  0  0  0  0  0
  -26.8175  -29.9383  -18.3718 N   0  0  0  0  0  0  0  0  0  0  0  0
  -21.5776  -32.2957  -22.1403 C   0  0  1  0  0  0  0  0  0  0  0  0
  -20.7587  -33.4169  -22.7397 C   0  0  0  0  0  0  0  0  0  0  0  0
  -21.0400  -31.0945  -22.6565 O   0  0  0  0  0  0  0  0  0  0  0  0
  1  2  1  0
  3  2  1  6
  3  4  1  0
  4  5  1  0
  5  6  2  0
  5  7  1  0
  7  8  1  0
  8  9  1  0
  9 10  2  0
 10 11  1  0
 10 12  1  0
 12 13  1  0
 13 14  1  0
 14 15  1  0
 14 16  1  0
 14 17  1  0
 12 18  1  0
  3 19  1  0
 19 20  1  6
 19 21  1  0
 18  8  2  0
M  END
>  <id>  (293) 
318249

>  <inchikey>  (293) 
HJQICZRXQIJGLH-BDAKNGLRSA-N

>  <alias>  (293) 
None

>  <smiles>  (293) 
CC[C@H](NC(=O)Nc1cc(C)n(CC(F)(F)F)n1)[C@@H](C)O

>  <path>  (293) 
/opt/xchem-fragalysis-2/maxwin/RdRp_FFF/syndirella/mar_elabs/elabs_058/OHJDLUXFTXKBRG-UHFFFAOYSA-N/output/OHJDLUXFTXKBRG-UHFFFAOYSA-N-YVyPGt-344-C/OHJDLUXFTXKBRG-UHFFFAOYSA-N-YVyPGt-344-C.minimised.mol

>  <distance_score>  (293) 
0.900305

>  <energy_score>  (293) 
-21.807999

>  <compound>  (293) 
HJQICZRXQIJGLH-UHFFFAOYSA-N

>  <compound_id>  (293) 
153525

>  <target>  (293) 
Flavi_NS5_RdRp

>  <tags>  (293) 
[]

>  <inspirations>  (293) 
{P Ã— 2}

>  <subsites>  (293) 
None

>  <reference>  (293) 
z0211a

>  <SLURM_JOB_ID>  (293) 
nan

>  <SLURM_JOB_NAME>  (293) 
nan

>  <csv_name>  (293) 
nan

>  <scratch_subdir>  (293) 
nan

>  <fragmenstein_runtime>  (293) 
nan

>  <fragmenstein_outcome>  (293) 
nan

>  <fragmenstein_mode>  (293) 
nan

>  <fragmenstein_error>  (293) 
nan

>  <exports>  (293) 
nan

>  <Multi-SuCOS>  (293) 
nan

>  <merge_set>  (293) 
nan

$$$$
FHJGKHUDBYAGPE-SECBINFHSA-N
     RDKit          3D

 21 21  0  0  0  0  0  0  0  0999 V2000
  -19.8911  -33.3577  -21.4367 C   0  0  0  0  0  0  0  0  0  0  0  0
  -20.2652  -32.9561  -22.8600 C   0  0  0  0  0  0  0  0  0  0  0  0
  -21.6248  -33.4259  -23.3715 C   0  0  0  0  0  0  0  0  0  0  0  0
  -22.7878  -33.0411  -22.4850 C   0  0  1  0  0  0  0  0  0  0  0  0
  -22.6421  -33.7216  -21.2415 O   0  0  0  0  0  0  0  0  0  0  0  0
  -22.8543  -31.5547  -22.2206 C   0  0  0  0  0  0  0  0  0  0  0  0
  -23.8375  -31.2828  -21.2199 N   0  0  0  0  0  0  0  0  0  0  0  0
  -25.3709  -31.3497  -21.2872 C   0  0  0  0  0  0  0  0  0  0  0  0
  -26.0527  -31.7011  -22.1217 O   0  0  0  0  0  0  0  0  0  0  0  0
  -25.7102  -30.7177  -19.9248 N   0  0  0  0  0  0  0  0  0  0  0  0
  -26.8907  -30.3398  -19.4126 C   0  0  0  0  0  0  0  0  0  0  0  0
  -28.1165  -30.4052  -20.0825 C   0  0  0  0  0  0  0  0  0  0  0  0
  -29.0506  -30.1595  -19.1087 C   0  0  0  0  0  0  0  0  0  0  0  0
  -30.5102  -30.2519  -19.2039 C   0  0  0  0  0  0  0  0  0  0  0  0
  -28.3388  -29.9175  -17.9573 N   0  0  0  0  0  0  0  0  0  0  0  0
  -28.8547  -29.7746  -16.6168 C   0  0  0  0  0  0  0  0  0  0  0  0
  -27.8610  -30.0463  -15.5127 C   0  0  0  0  0  0  0  0  0  0  0  0
  -28.5020  -29.8415  -14.3328 F   0  0  0  0  0  0  0  0  0  0  0  0
  -27.3856  -31.2952  -15.4511 F   0  0  0  0  0  0  0  0  0  0  0  0
  -26.7956  -29.2263  -15.5402 F   0  0  0  0  0  0  0  0  0  0  0  0
  -27.0136  -29.9065  -18.1657 N   0  0  0  0  0  0  0  0  0  0  0  0
  1  2  1  0
  2  3  1  0
  3  4  1  0
  4  5  1  1
  4  6  1  0
  6  7  1  0
  7  8  1  0
  8  9  2  0
  8 10  1  0
 10 11  1  0
 11 12  1  0
 12 13  2  0
 13 14  1  0
 13 15  1  0
 15 16  1  0
 16 17  1  0
 17 18  1  0
 17 19  1  0
 17 20  1  0
 15 21  1  0
 21 11  2  0
M  END
>  <id>  (294) 
318250

>  <inchikey>  (294) 
FHJGKHUDBYAGPE-SECBINFHSA-N

>  <alias>  (294) 
None

>  <smiles>  (294) 
CCC[C@@H](O)CNC(=O)Nc1cc(C)n(CC(F)(F)F)n1

>  <path>  (294) 
/opt/xchem-fragalysis-2/maxwin/RdRp_FFF/syndirella/mar_elabs/elabs_058/OHJDLUXFTXKBRG-UHFFFAOYSA-N/output/OHJDLUXFTXKBRG-UHFFFAOYSA-N-YVyPGt-345-B/OHJDLUXFTXKBRG-UHFFFAOYSA-N-YVyPGt-345-B.minimised.mol

>  <distance_score>  (294) 
1.157371

>  <energy_score>  (294) 
-19.911512

>  <compound>  (294) 
FHJGKHUDBYAGPE-UHFFFAOYSA-N

>  <compound_id>  (294) 
153526

>  <target>  (294) 
Flavi_NS5_RdRp

>  <tags>  (294) 
[]

>  <inspirations>  (294) 
{P Ã— 2}

>  <subsites>  (294) 
None

>  <reference>  (294) 
z0211a

>  <SLURM_JOB_ID>  (294) 
nan

>  <SLURM_JOB_NAME>  (294) 
nan

>  <csv_name>  (294) 
nan

>  <scratch_subdir>  (294) 
nan

>  <fragmenstein_runtime>  (294) 
nan

>  <fragmenstein_outcome>  (294) 
nan

>  <fragmenstein_mode>  (294) 
nan

>  <fragmenstein_error>  (294) 
nan

>  <exports>  (294) 
nan

>  <Multi-SuCOS>  (294) 
nan

>  <merge_set>  (294) 
nan

$$$$
ATYOVBMIMPHRRX-MRVPVSSYSA-N
     RDKit          3D

 21 21  0  0  0  0  0  0  0  0999 V2000
  -20.3953  -35.0558  -20.4187 C   0  0  0  0  0  0  0  0  0  0  0  0
  -20.3468  -34.0367  -21.4124 O   0  0  0  0  0  0  0  0  0  0  0  0
  -21.6396  -33.8183  -22.0011 C   0  0  0  0  0  0  0  0  0  0  0  0
  -21.6015  -32.4766  -22.7247 C   0  0  2  0  0  0  0  0  0  0  0  0
  -21.0035  -31.5030  -21.8530 O   0  0  0  0  0  0  0  0  0  0  0  0
  -23.0055  -32.0407  -23.1222 C   0  0  0  0  0  0  0  0  0  0  0  0
  -23.7889  -31.6470  -21.9788 N   0  0  0  0  0  0  0  0  0  0  0  0
  -25.2808  -31.9041  -21.6479 C   0  0  0  0  0  0  0  0  0  0  0  0
  -26.0599  -32.5231  -22.1999 O   0  0  0  0  0  0  0  0  0  0  0  0
  -25.4258  -30.9902  -20.4040 N   0  0  0  0  0  0  0  0  0  0  0  0
  -26.5273  -30.6233  -19.7109 C   0  0  0  0  0  0  0  0  0  0  0  0
  -27.8606  -30.8019  -20.1148 C   0  0  0  0  0  0  0  0  0  0  0  0
  -28.6291  -30.2815  -19.0958 C   0  0  0  0  0  0  0  0  0  0  0  0
  -30.0983  -30.2422  -18.9680 C   0  0  0  0  0  0  0  0  0  0  0  0
  -27.7288  -29.8607  -18.1489 N   0  0  0  0  0  0  0  0  0  0  0  0
  -27.9624  -29.2378  -16.8684 C   0  0  0  0  0  0  0  0  0  0  0  0
  -28.2657  -30.1904  -15.7557 C   0  0  0  0  0  0  0  0  0  0  0  0
  -29.4285  -30.8339  -15.9741 F   0  0  0  0  0  0  0  0  0  0  0  0
  -28.4328  -29.5384  -14.5819 F   0  0  0  0  0  0  0  0  0  0  0  0
  -27.2657  -31.0634  -15.5565 F   0  0  0  0  0  0  0  0  0  0  0  0
  -26.4495  -29.9613  -18.5613 N   0  0  0  0  0  0  0  0  0  0  0  0
  1  2  1  0
  2  3  1  0
  3  4  1  0
  4  5  1  1
  4  6  1  0
  6  7  1  0
  7  8  1  0
  8  9  2  0
  8 10  1  0
 10 11  1  0
 11 12  1  0
 12 13  2  0
 13 14  1  0
 13 15  1  0
 15 16  1  0
 16 17  1  0
 17 18  1  0
 17 19  1  0
 17 20  1  0
 15 21  1  0
 21 11  2  0
M  END
>  <id>  (295) 
318251

>  <inchikey>  (295) 
ATYOVBMIMPHRRX-MRVPVSSYSA-N

>  <alias>  (295) 
None

>  <smiles>  (295) 
COC[C@H](O)CNC(=O)Nc1cc(C)n(CC(F)(F)F)n1

>  <path>  (295) 
/opt/xchem-fragalysis-2/maxwin/RdRp_FFF/syndirella/mar_elabs/elabs_058/OHJDLUXFTXKBRG-UHFFFAOYSA-N/output/OHJDLUXFTXKBRG-UHFFFAOYSA-N-YVyPGt-347-A/OHJDLUXFTXKBRG-UHFFFAOYSA-N-YVyPGt-347-A.minimised.mol

>  <distance_score>  (295) 
1.109455

>  <energy_score>  (295) 
-31.736052

>  <compound>  (295) 
ATYOVBMIMPHRRX-UHFFFAOYSA-N

>  <compound_id>  (295) 
153528

>  <target>  (295) 
Flavi_NS5_RdRp

>  <tags>  (295) 
[]

>  <inspirations>  (295) 
{P Ã— 2}

>  <subsites>  (295) 
None

>  <reference>  (295) 
z0211a

>  <SLURM_JOB_ID>  (295) 
nan

>  <SLURM_JOB_NAME>  (295) 
nan

>  <csv_name>  (295) 
nan

>  <scratch_subdir>  (295) 
nan

>  <fragmenstein_runtime>  (295) 
nan

>  <fragmenstein_outcome>  (295) 
nan

>  <fragmenstein_mode>  (295) 
nan

>  <fragmenstein_error>  (295) 
nan

>  <exports>  (295) 
nan

>  <Multi-SuCOS>  (295) 
nan

>  <merge_set>  (295) 
nan

$$$$
MXVRUQKJGKOAEO-HTQZYQBOSA-N
     RDKit          3D

 21 21  0  0  0  0  0  0  0  0999 V2000
  -30.4225  -30.2081  -19.2084 C   0  0  0  0  0  0  0  0  0  0  0  0
  -28.9582  -30.0904  -19.2558 C   0  0  0  0  0  0  0  0  0  0  0  0
  -28.1184  -30.1621  -20.3379 C   0  0  0  0  0  0  0  0  0  0  0  0
  -26.8326  -30.2983  -19.7864 C   0  0  0  0  0  0  0  0  0  0  0  0
  -25.7474  -30.6624  -20.5092 N   0  0  0  0  0  0  0  0  0  0  0  0
  -25.5898  -30.8979  -22.0343 C   0  0  0  0  0  0  0  0  0  0  0  0
  -26.3315  -30.7427  -22.8809 O   0  0  0  0  0  0  0  0  0  0  0  0
  -24.1642  -31.5016  -22.0527 N   0  0  0  0  0  0  0  0  0  0  0  0
  -23.3441  -31.9474  -23.1695 C   0  0  2  0  0  0  0  0  0  0  0  0
  -24.1039  -32.9925  -24.0045 C   0  0  0  0  0  0  0  0  0  0  0  0
  -24.3191  -34.1925  -23.2628 O   0  0  0  0  0  0  0  0  0  0  0  0
  -21.9755  -32.4336  -22.6717 C   0  0  1  0  0  0  0  0  0  0  0  0
  -21.0419  -32.8519  -23.7941 C   0  0  0  0  0  0  0  0  0  0  0  0
  -21.3290  -31.3913  -21.9336 O   0  0  0  0  0  0  0  0  0  0  0  0
  -26.8355  -30.1240  -18.4681 N   0  0  0  0  0  0  0  0  0  0  0  0
  -28.1390  -29.9789  -18.1572 N   0  0  0  0  0  0  0  0  0  0  0  0
  -28.5719  -29.8276  -16.7857 C   0  0  0  0  0  0  0  0  0  0  0  0
  -27.5072  -30.0133  -15.7385 C   0  0  0  0  0  0  0  0  0  0  0  0
  -28.1163  -29.9804  -14.5228 F   0  0  0  0  0  0  0  0  0  0  0  0
  -26.8399  -31.1720  -15.7927 F   0  0  0  0  0  0  0  0  0  0  0  0
  -26.5979  -29.0195  -15.7599 F   0  0  0  0  0  0  0  0  0  0  0  0
  1  2  1  0
  2  3  2  0
  3  4  1  0
  4  5  1  0
  5  6  1  0
  6  7  2  0
  6  8  1  0
  8  9  1  0
  9 10  1  1
 10 11  1  0
  9 12  1  0
 12 13  1  6
 12 14  1  0
  4 15  2  0
 15 16  1  0
 16 17  1  0
 17 18  1  0
 18 19  1  0
 18 20  1  0
 18 21  1  0
 16  2  1  0
M  END
>  <id>  (296) 
318269

>  <inchikey>  (296) 
MXVRUQKJGKOAEO-HTQZYQBOSA-N

>  <alias>  (296) 
None

>  <smiles>  (296) 
Cc1cc(NC(=O)N[C@H](CO)[C@@H](C)O)nn1CC(F)(F)F

>  <path>  (296) 
/opt/xchem-fragalysis-2/maxwin/RdRp_FFF/syndirella/mar_elabs/elabs_058/OHJDLUXFTXKBRG-UHFFFAOYSA-N/output/OHJDLUXFTXKBRG-UHFFFAOYSA-N-YVyPGt-367-C/OHJDLUXFTXKBRG-UHFFFAOYSA-N-YVyPGt-367-C.minimised.mol

>  <distance_score>  (296) 
0.695622

>  <energy_score>  (296) 
-32.853624

>  <compound>  (296) 
MXVRUQKJGKOAEO-UHFFFAOYSA-N

>  <compound_id>  (296) 
153545

>  <target>  (296) 
Flavi_NS5_RdRp

>  <tags>  (296) 
[]

>  <inspirations>  (296) 
{P Ã— 2}

>  <subsites>  (296) 
None

>  <reference>  (296) 
z0211a

>  <SLURM_JOB_ID>  (296) 
nan

>  <SLURM_JOB_NAME>  (296) 
nan

>  <csv_name>  (296) 
nan

>  <scratch_subdir>  (296) 
nan

>  <fragmenstein_runtime>  (296) 
nan

>  <fragmenstein_outcome>  (296) 
nan

>  <fragmenstein_mode>  (296) 
nan

>  <fragmenstein_error>  (296) 
nan

>  <exports>  (296) 
nan

>  <Multi-SuCOS>  (296) 
nan

>  <merge_set>  (296) 
nan

$$$$
CDFCOHUMIGFFSK-SSDOTTSWSA-N
     RDKit          3D

 21 21  0  0  0  0  0  0  0  0999 V2000
  -21.1040  -32.0073  -20.7166 C   0  0  0  0  0  0  0  0  0  0  0  0
  -21.9996  -32.9798  -21.2378 O   0  0  0  0  0  0  0  0  0  0  0  0
  -22.0590  -33.1089  -22.6613 C   0  0  2  0  0  0  0  0  0  0  0  0
  -20.7791  -32.7619  -23.4111 C   0  0  0  0  0  0  0  0  0  0  0  0
  -23.2618  -32.3662  -23.2933 C   0  0  0  0  0  0  0  0  0  0  0  0
  -23.4445  -32.4191  -24.5122 N   0  0  0  0  0  0  0  0  0  0  0  0
  -24.0537  -31.7201  -22.1968 N   0  0  0  0  0  0  0  0  0  0  0  0
  -25.4728  -30.9620  -22.1951 C   0  0  0  0  0  0  0  0  0  0  0  0
  -26.1765  -30.6689  -23.0583 O   0  0  0  0  0  0  0  0  0  0  0  0
  -25.6520  -30.8388  -20.7366 N   0  0  0  0  0  0  0  0  0  0  0  0
  -26.7206  -30.4344  -20.0108 C   0  0  0  0  0  0  0  0  0  0  0  0
  -28.0243  -30.2711  -20.5090 C   0  0  0  0  0  0  0  0  0  0  0  0
  -28.8185  -30.1474  -19.3929 C   0  0  0  0  0  0  0  0  0  0  0  0
  -30.2909  -30.2126  -19.2803 C   0  0  0  0  0  0  0  0  0  0  0  0
  -27.9448  -30.0268  -18.3378 N   0  0  0  0  0  0  0  0  0  0  0  0
  -28.2962  -29.7855  -16.9580 C   0  0  0  0  0  0  0  0  0  0  0  0
  -27.1698  -29.9095  -15.9642 C   0  0  0  0  0  0  0  0  0  0  0  0
  -26.5367  -31.0934  -15.9631 F   0  0  0  0  0  0  0  0  0  0  0  0
  -27.6954  -29.7614  -14.7185 F   0  0  0  0  0  0  0  0  0  0  0  0
  -26.2465  -28.9363  -16.1184 F   0  0  0  0  0  0  0  0  0  0  0  0
  -26.6643  -30.2414  -18.6970 N   0  0  0  0  0  0  0  0  0  0  0  0
  1  2  1  0
  2  3  1  0
  3  4  1  6
  3  5  1  0
  5  6  2  3
  5  7  1  0
  7  8  1  0
  8  9  2  0
  8 10  1  0
 10 11  1  0
 11 12  1  0
 12 13  2  0
 13 14  1  0
 13 15  1  0
 15 16  1  0
 16 17  1  0
 17 18  1  0
 17 19  1  0
 17 20  1  0
 15 21  1  0
 21 11  2  0
M  END
>  <id>  (297) 
318275

>  <inchikey>  (297) 
CDFCOHUMIGFFSK-SSDOTTSWSA-N

>  <alias>  (297) 
None

>  <smiles>  (297) 
CO[C@H](C)C(=N)NC(=O)Nc1cc(C)n(CC(F)(F)F)n1

>  <path>  (297) 
/opt/xchem-fragalysis-2/maxwin/RdRp_FFF/syndirella/mar_elabs/elabs_058/OHJDLUXFTXKBRG-UHFFFAOYSA-N/output/OHJDLUXFTXKBRG-UHFFFAOYSA-N-YVyPGt-372-A/OHJDLUXFTXKBRG-UHFFFAOYSA-N-YVyPGt-372-A.minimised.mol

>  <distance_score>  (297) 
1.003573

>  <energy_score>  (297) 
-37.826468

>  <compound>  (297) 
CDFCOHUMIGFFSK-UHFFFAOYSA-N

>  <compound_id>  (297) 
153549

>  <target>  (297) 
Flavi_NS5_RdRp

>  <tags>  (297) 
[]

>  <inspirations>  (297) 
{P Ã— 2}

>  <subsites>  (297) 
None

>  <reference>  (297) 
z0211a

>  <SLURM_JOB_ID>  (297) 
nan

>  <SLURM_JOB_NAME>  (297) 
nan

>  <csv_name>  (297) 
nan

>  <scratch_subdir>  (297) 
nan

>  <fragmenstein_runtime>  (297) 
nan

>  <fragmenstein_outcome>  (297) 
nan

>  <fragmenstein_mode>  (297) 
nan

>  <fragmenstein_error>  (297) 
nan

>  <exports>  (297) 
nan

>  <Multi-SuCOS>  (297) 
nan

>  <merge_set>  (297) 
nan

$$$$
WKMMHCPETHRWNG-SFYZADRCSA-N
     RDKit          3D

 21 21  0  0  0  0  0  0  0  0999 V2000
  -30.5010  -30.2202  -19.1518 C   0  0  0  0  0  0  0  0  0  0  0  0
  -29.0436  -30.0645  -19.1959 C   0  0  0  0  0  0  0  0  0  0  0  0
  -28.2053  -30.1244  -20.2783 C   0  0  0  0  0  0  0  0  0  0  0  0
  -26.9235  -30.2257  -19.7199 C   0  0  0  0  0  0  0  0  0  0  0  0
  -25.8327  -30.5952  -20.4180 N   0  0  0  0  0  0  0  0  0  0  0  0
  -25.6386  -30.7980  -21.9387 C   0  0  0  0  0  0  0  0  0  0  0  0
  -26.3523  -30.6067  -22.8010 O   0  0  0  0  0  0  0  0  0  0  0  0
  -24.2303  -31.4312  -21.9313 N   0  0  0  0  0  0  0  0  0  0  0  0
  -23.4715  -32.0413  -23.0024 C   0  0  2  0  0  0  0  0  0  0  0  0
  -24.1407  -33.3869  -23.3100 C   0  0  0  0  0  0  0  0  0  0  0  0
  -21.9750  -32.1087  -22.6553 C   0  0  1  0  0  0  0  0  0  0  0  0
  -21.7513  -33.0286  -21.5772 O   0  0  0  0  0  0  0  0  0  0  0  0
  -21.0915  -32.5469  -23.8204 C   0  0  0  0  0  0  0  0  0  0  0  0
  -21.5102  -33.7717  -24.3980 O   0  0  0  0  0  0  0  0  0  0  0  0
  -26.9247  -30.0245  -18.4072 N   0  0  0  0  0  0  0  0  0  0  0  0
  -28.2301  -29.9369  -18.0959 N   0  0  0  0  0  0  0  0  0  0  0  0
  -28.6576  -29.8242  -16.7208 C   0  0  0  0  0  0  0  0  0  0  0  0
  -27.5770  -30.0192  -15.6914 C   0  0  0  0  0  0  0  0  0  0  0  0
  -26.9026  -31.1721  -15.7684 F   0  0  0  0  0  0  0  0  0  0  0  0
  -26.6697  -29.0233  -15.7118 F   0  0  0  0  0  0  0  0  0  0  0  0
  -28.1709  -30.0024  -14.4690 F   0  0  0  0  0  0  0  0  0  0  0  0
  1  2  1  0
  2  3  2  0
  3  4  1  0
  4  5  1  0
  5  6  1  0
  6  7  2  0
  6  8  1  0
  8  9  1  0
  9 10  1  1
  9 11  1  0
 11 12  1  1
 11 13  1  0
 13 14  1  0
  4 15  2  0
 15 16  1  0
 16 17  1  0
 17 18  1  0
 18 19  1  0
 18 20  1  0
 18 21  1  0
 16  2  1  0
M  END
>  <id>  (298) 
318329

>  <inchikey>  (298) 
WKMMHCPETHRWNG-SFYZADRCSA-N

>  <alias>  (298) 
None

>  <smiles>  (298) 
Cc1cc(NC(=O)N[C@H](C)[C@@H](O)CO)nn1CC(F)(F)F

>  <path>  (298) 
/opt/xchem-fragalysis-2/maxwin/RdRp_FFF/syndirella/mar_elabs/elabs_058/OHJDLUXFTXKBRG-UHFFFAOYSA-N/output/OHJDLUXFTXKBRG-UHFFFAOYSA-N-YVyPGt-436-C/OHJDLUXFTXKBRG-UHFFFAOYSA-N-YVyPGt-436-C.minimised.mol

>  <distance_score>  (298) 
0.881714

>  <energy_score>  (298) 
-0.516088

>  <compound>  (298) 
WKMMHCPETHRWNG-UHFFFAOYSA-N

>  <compound_id>  (298) 
153602

>  <target>  (298) 
Flavi_NS5_RdRp

>  <tags>  (298) 
[]

>  <inspirations>  (298) 
{P Ã— 2}

>  <subsites>  (298) 
None

>  <reference>  (298) 
z0211a

>  <SLURM_JOB_ID>  (298) 
nan

>  <SLURM_JOB_NAME>  (298) 
nan

>  <csv_name>  (298) 
nan

>  <scratch_subdir>  (298) 
nan

>  <fragmenstein_runtime>  (298) 
nan

>  <fragmenstein_outcome>  (298) 
nan

>  <fragmenstein_mode>  (298) 
nan

>  <fragmenstein_error>  (298) 
nan

>  <exports>  (298) 
nan

>  <Multi-SuCOS>  (298) 
nan

>  <merge_set>  (298) 
nan

$$$$
XDARNIJYOSIMPS-MRVPVSSYSA-N
     RDKit          3D

 21 21  0  0  0  0  0  0  0  0999 V2000
  -30.2614  -30.2567  -19.3705 C   0  0  0  0  0  0  0  0  0  0  0  0
  -28.7957  -30.1853  -19.2290 C   0  0  0  0  0  0  0  0  0  0  0  0
  -27.8064  -30.5342  -20.1235 C   0  0  0  0  0  0  0  0  0  0  0  0
  -26.6015  -30.3575  -19.4209 C   0  0  0  0  0  0  0  0  0  0  0  0
  -25.3743  -30.7792  -19.7952 N   0  0  0  0  0  0  0  0  0  0  0  0
  -24.9371  -31.6662  -20.9947 C   0  0  0  0  0  0  0  0  0  0  0  0
  -25.5501  -32.0905  -21.8616 O   0  0  0  0  0  0  0  0  0  0  0  0
  -23.4232  -31.8741  -20.6253 N   0  0  0  0  0  0  0  0  0  0  0  0
  -22.4662  -32.6939  -21.1986 N   0  0  0  0  0  0  0  0  0  0  0  0
  -22.8093  -34.0945  -20.9113 C   0  0  0  0  0  0  0  0  0  0  0  0
  -22.3884  -32.4121  -22.6543 C   0  0  0  0  0  0  0  0  0  0  0  0
  -21.2797  -33.2236  -23.3318 C   0  0  1  0  0  0  0  0  0  0  0  0
  -21.0789  -32.8110  -24.7761 C   0  0  0  0  0  0  0  0  0  0  0  0
  -20.0506  -33.0330  -22.6272 O   0  0  0  0  0  0  0  0  0  0  0  0
  -26.8015  -29.7688  -18.2470 N   0  0  0  0  0  0  0  0  0  0  0  0
  -28.1307  -29.8521  -18.0716 N   0  0  0  0  0  0  0  0  0  0  0  0
  -28.6849  -29.7240  -16.7416 C   0  0  0  0  0  0  0  0  0  0  0  0
  -27.7000  -30.0136  -15.6330 C   0  0  0  0  0  0  0  0  0  0  0  0
  -28.3815  -30.0324  -14.4576 F   0  0  0  0  0  0  0  0  0  0  0  0
  -26.7459  -29.0700  -15.5317 F   0  0  0  0  0  0  0  0  0  0  0  0
  -27.0661  -31.1889  -15.7227 F   0  0  0  0  0  0  0  0  0  0  0  0
  1  2  1  0
  2  3  2  0
  3  4  1  0
  4  5  1  0
  5  6  1  0
  6  7  2  0
  6  8  1  0
  8  9  1  0
  9 10  1  0
  9 11  1  0
 11 12  1  0
 12 13  1  6
 12 14  1  0
  4 15  2  0
 15 16  1  0
 16 17  1  0
 17 18  1  0
 18 19  1  0
 18 20  1  0
 18 21  1  0
 16  2  1  0
M  END
>  <id>  (299) 
318332

>  <inchikey>  (299) 
XDARNIJYOSIMPS-MRVPVSSYSA-N

>  <alias>  (299) 
None

>  <smiles>  (299) 
Cc1cc(NC(=O)NN(C)C[C@@H](C)O)nn1CC(F)(F)F

>  <path>  (299) 
/opt/xchem-fragalysis-2/maxwin/RdRp_FFF/syndirella/mar_elabs/elabs_058/OHJDLUXFTXKBRG-UHFFFAOYSA-N/output/OHJDLUXFTXKBRG-UHFFFAOYSA-N-YVyPGt-437-B/OHJDLUXFTXKBRG-UHFFFAOYSA-N-YVyPGt-437-B.minimised.mol

>  <distance_score>  (299) 
1.122679

>  <energy_score>  (299) 
-8.648217

>  <compound>  (299) 
XDARNIJYOSIMPS-UHFFFAOYSA-N

>  <compound_id>  (299) 
153603

>  <target>  (299) 
Flavi_NS5_RdRp

>  <tags>  (299) 
[]

>  <inspirations>  (299) 
{P Ã— 2}

>  <subsites>  (299) 
None

>  <reference>  (299) 
z0211a

>  <SLURM_JOB_ID>  (299) 
nan

>  <SLURM_JOB_NAME>  (299) 
nan

>  <csv_name>  (299) 
nan

>  <scratch_subdir>  (299) 
nan

>  <fragmenstein_runtime>  (299) 
nan

>  <fragmenstein_outcome>  (299) 
nan

>  <fragmenstein_mode>  (299) 
nan

>  <fragmenstein_error>  (299) 
nan

>  <exports>  (299) 
nan

>  <Multi-SuCOS>  (299) 
nan

>  <merge_set>  (299) 
nan

$$$$
WXUKIFQXDOQDAW-MRVPVSSYSA-N
     RDKit          3D

 21 21  0  0  0  0  0  0  0  0999 V2000
  -20.8925  -33.6902  -19.2206 C   0  0  0  0  0  0  0  0  0  0  0  0
  -20.1352  -34.0420  -20.8352 S   0  0  0  0  0  0  0  0  0  0  0  0
  -21.5871  -33.7245  -21.9146 C   0  0  0  0  0  0  0  0  0  0  0  0
  -21.6093  -32.3015  -22.4772 C   0  0  2  0  0  0  0  0  0  0  0  0
  -21.1587  -31.3469  -21.5124 O   0  0  0  0  0  0  0  0  0  0  0  0
  -23.0271  -31.9415  -22.9097 C   0  0  0  0  0  0  0  0  0  0  0  0
  -23.8667  -31.5736  -21.7950 N   0  0  0  0  0  0  0  0  0  0  0  0
  -25.3796  -31.8045  -21.5602 C   0  0  0  0  0  0  0  0  0  0  0  0
  -26.1399  -32.3798  -22.1808 O   0  0  0  0  0  0  0  0  0  0  0  0
  -25.5758  -30.9356  -20.2849 N   0  0  0  0  0  0  0  0  0  0  0  0
  -26.7099  -30.5683  -19.6399 C   0  0  0  0  0  0  0  0  0  0  0  0
  -27.9918  -30.6891  -20.2048 C   0  0  0  0  0  0  0  0  0  0  0  0
  -28.8665  -30.2946  -19.2242 C   0  0  0  0  0  0  0  0  0  0  0  0
  -30.3382  -30.2817  -19.2473 C   0  0  0  0  0  0  0  0  0  0  0  0
  -28.0797  -30.0021  -18.1338 N   0  0  0  0  0  0  0  0  0  0  0  0
  -28.5494  -29.7810  -16.7836 C   0  0  0  0  0  0  0  0  0  0  0  0
  -27.5577  -30.0573  -15.6824 C   0  0  0  0  0  0  0  0  0  0  0  0
  -27.0297  -31.2873  -15.6597 F   0  0  0  0  0  0  0  0  0  0  0  0
  -28.2099  -29.9132  -14.4969 F   0  0  0  0  0  0  0  0  0  0  0  0
  -26.5345  -29.1854  -15.6831 F   0  0  0  0  0  0  0  0  0  0  0  0
  -26.7601  -30.0206  -18.4251 N   0  0  0  0  0  0  0  0  0  0  0  0
  1  2  1  0
  2  3  1  0
  3  4  1  0
  4  5  1  1
  4  6  1  0
  6  7  1  0
  7  8  1  0
  8  9  2  0
  8 10  1  0
 10 11  1  0
 11 12  1  0
 12 13  2  0
 13 14  1  0
 13 15  1  0
 15 16  1  0
 16 17  1  0
 17 18  1  0
 17 19  1  0
 17 20  1  0
 15 21  1  0
 21 11  2  0
M  END
>  <id>  (300) 
318334

>  <inchikey>  (300) 
WXUKIFQXDOQDAW-MRVPVSSYSA-N

>  <alias>  (300) 
None

>  <smiles>  (300) 
CSC[C@H](O)CNC(=O)Nc1cc(C)n(CC(F)(F)F)n1

>  <path>  (300) 
/opt/xchem-fragalysis-2/maxwin/RdRp_FFF/syndirella/mar_elabs/elabs_058/OHJDLUXFTXKBRG-UHFFFAOYSA-N/output/OHJDLUXFTXKBRG-UHFFFAOYSA-N-YVyPGt-441-A/OHJDLUXFTXKBRG-UHFFFAOYSA-N-YVyPGt-441-A.minimised.mol

>  <distance_score>  (300) 
1.01696

>  <energy_score>  (300) 
-30.048178

>  <compound>  (300) 
WXUKIFQXDOQDAW-UHFFFAOYSA-N

>  <compound_id>  (300) 
153607

>  <target>  (300) 
Flavi_NS5_RdRp

>  <tags>  (300) 
[]

>  <inspirations>  (300) 
{P Ã— 2}

>  <subsites>  (300) 
None

>  <reference>  (300) 
z0211a

>  <SLURM_JOB_ID>  (300) 
nan

>  <SLURM_JOB_NAME>  (300) 
nan

>  <csv_name>  (300) 
nan

>  <scratch_subdir>  (300) 
nan

>  <fragmenstein_runtime>  (300) 
nan

>  <fragmenstein_outcome>  (300) 
nan

>  <fragmenstein_mode>  (300) 
nan

>  <fragmenstein_error>  (300) 
nan

>  <exports>  (300) 
nan

>  <Multi-SuCOS>  (300) 
nan

>  <merge_set>  (300) 
nan

$$$$
XPNYOIIJUMAWBD-LURJTMIESA-N
     RDKit          3D

 21 21  0  0  0  0  0  0  0  0999 V2000
  -30.4952  -30.2186  -19.0995 C   0  0  0  0  0  0  0  0  0  0  0  0
  -29.0365  -30.0819  -19.1528 C   0  0  0  0  0  0  0  0  0  0  0  0
  -28.2119  -30.1406  -20.2434 C   0  0  0  0  0  0  0  0  0  0  0  0
  -26.9240  -30.2743  -19.7035 C   0  0  0  0  0  0  0  0  0  0  0  0
  -25.8615  -30.6519  -20.4442 N   0  0  0  0  0  0  0  0  0  0  0  0
  -25.7258  -30.8501  -21.9747 C   0  0  0  0  0  0  0  0  0  0  0  0
  -26.4691  -30.6479  -22.8087 O   0  0  0  0  0  0  0  0  0  0  0  0
  -24.3256  -31.4967  -22.0228 N   0  0  0  0  0  0  0  0  0  0  0  0
  -23.5398  -31.9329  -23.1447 C   0  0  0  0  0  0  0  0  0  0  0  0
  -22.1705  -32.4389  -22.7357 C   0  0  2  0  0  0  0  0  0  0  0  0
  -21.4763  -31.4248  -22.0095 O   0  0  0  0  0  0  0  0  0  0  0  0
  -21.4251  -32.9086  -23.9782 C   0  0  0  0  0  0  0  0  0  0  0  0
  -21.8703  -33.1241  -25.0950 O   0  0  0  0  0  0  0  0  0  0  0  0
  -20.1270  -33.1433  -23.7185 O   0  0  0  0  0  0  0  0  0  0  0  0
  -26.9072  -30.0965  -18.3851 N   0  0  0  0  0  0  0  0  0  0  0  0
  -28.2095  -29.9786  -18.0599 N   0  0  0  0  0  0  0  0  0  0  0  0
  -28.6357  -29.8521  -16.6858 C   0  0  0  0  0  0  0  0  0  0  0  0
  -27.5885  -30.0925  -15.6321 C   0  0  0  0  0  0  0  0  0  0  0  0
  -28.1999  -29.9510  -14.4260 F   0  0  0  0  0  0  0  0  0  0  0  0
  -27.0317  -31.3098  -15.6184 F   0  0  0  0  0  0  0  0  0  0  0  0
  -26.5893  -29.1948  -15.6815 F   0  0  0  0  0  0  0  0  0  0  0  0
  1  2  1  0
  2  3  2  0
  3  4  1  0
  4  5  1  0
  5  6  1  0
  6  7  2  0
  6  8  1  0
  8  9  1  0
  9 10  1  0
 10 11  1  6
 10 12  1  0
 12 13  2  0
 12 14  1  0
  4 15  2  0
 15 16  1  0
 16 17  1  0
 17 18  1  0
 18 19  1  0
 18 20  1  0
 18 21  1  0
 16  2  1  0
M  END
>  <id>  (301) 
318338

>  <inchikey>  (301) 
XPNYOIIJUMAWBD-LURJTMIESA-N

>  <alias>  (301) 
None

>  <smiles>  (301) 
Cc1cc(NC(=O)NC[C@H](O)C(=O)O)nn1CC(F)(F)F

>  <path>  (301) 
/opt/xchem-fragalysis-2/maxwin/RdRp_FFF/syndirella/mar_elabs/elabs_058/OHJDLUXFTXKBRG-UHFFFAOYSA-N/output/OHJDLUXFTXKBRG-UHFFFAOYSA-N-YVyPGt-455-A/OHJDLUXFTXKBRG-UHFFFAOYSA-N-YVyPGt-455-A.minimised.mol

>  <distance_score>  (301) 
0.955976

>  <energy_score>  (301) 
-34.847769

>  <compound>  (301) 
XPNYOIIJUMAWBD-UHFFFAOYSA-N

>  <compound_id>  (301) 
153614

>  <target>  (301) 
Flavi_NS5_RdRp

>  <tags>  (301) 
[]

>  <inspirations>  (301) 
{P Ã— 2}

>  <subsites>  (301) 
None

>  <reference>  (301) 
z0211a

>  <SLURM_JOB_ID>  (301) 
nan

>  <SLURM_JOB_NAME>  (301) 
nan

>  <csv_name>  (301) 
nan

>  <scratch_subdir>  (301) 
nan

>  <fragmenstein_runtime>  (301) 
nan

>  <fragmenstein_outcome>  (301) 
nan

>  <fragmenstein_mode>  (301) 
nan

>  <fragmenstein_error>  (301) 
nan

>  <exports>  (301) 
nan

>  <Multi-SuCOS>  (301) 
nan

>  <merge_set>  (301) 
nan

$$$$
ISXMIYBJJLTRFL-LLVKDONJSA-N
     RDKit          3D

 21 21  0  0  0  0  0  0  0  0999 V2000
  -21.7807  -33.4715  -25.1529 C   0  0  0  0  0  0  0  0  0  0  0  0
  -21.1361  -32.7029  -24.0077 C   0  0  0  0  0  0  0  0  0  0  0  0
  -22.0239  -32.4792  -22.7695 C   0  0  1  0  0  0  0  0  0  0  0  0
  -22.1690  -33.7721  -21.9603 C   0  0  0  0  0  0  0  0  0  0  0  0
  -21.3450  -31.5368  -21.9292 O   0  0  0  0  0  0  0  0  0  0  0  0
  -23.3924  -31.9144  -23.1593 C   0  0  0  0  0  0  0  0  0  0  0  0
  -24.2011  -31.4882  -22.0528 N   0  0  0  0  0  0  0  0  0  0  0  0
  -25.6198  -30.8736  -22.0278 C   0  0  0  0  0  0  0  0  0  0  0  0
  -26.3574  -30.6961  -22.8736 O   0  0  0  0  0  0  0  0  0  0  0  0
  -25.7801  -30.6653  -20.4995 N   0  0  0  0  0  0  0  0  0  0  0  0
  -26.8628  -30.3060  -19.7745 C   0  0  0  0  0  0  0  0  0  0  0  0
  -28.1534  -30.2048  -20.3194 C   0  0  0  0  0  0  0  0  0  0  0  0
  -28.9857  -30.1048  -19.2350 C   0  0  0  0  0  0  0  0  0  0  0  0
  -30.4488  -30.2180  -19.1805 C   0  0  0  0  0  0  0  0  0  0  0  0
  -28.1607  -29.9693  -18.1438 N   0  0  0  0  0  0  0  0  0  0  0  0
  -28.5854  -29.8163  -16.7705 C   0  0  0  0  0  0  0  0  0  0  0  0
  -27.5156  -30.0101  -15.7301 C   0  0  0  0  0  0  0  0  0  0  0  0
  -26.8533  -31.1714  -15.7923 F   0  0  0  0  0  0  0  0  0  0  0  0
  -26.6020  -29.0206  -15.7505 F   0  0  0  0  0  0  0  0  0  0  0  0
  -28.1191  -29.9811  -14.5116 F   0  0  0  0  0  0  0  0  0  0  0  0
  -26.8570  -30.0915  -18.4621 N   0  0  0  0  0  0  0  0  0  0  0  0
  1  2  1  0
  2  3  1  0
  3  4  1  1
  3  5  1  0
  3  6  1  0
  6  7  1  0
  7  8  1  0
  8  9  2  0
  8 10  1  0
 10 11  1  0
 11 12  1  0
 12 13  2  0
 13 14  1  0
 13 15  1  0
 15 16  1  0
 16 17  1  0
 17 18  1  0
 17 19  1  0
 17 20  1  0
 15 21  1  0
 21 11  2  0
M  END
>  <id>  (302) 
318343

>  <inchikey>  (302) 
ISXMIYBJJLTRFL-LLVKDONJSA-N

>  <alias>  (302) 
None

>  <smiles>  (302) 
CC[C@@](C)(O)CNC(=O)Nc1cc(C)n(CC(F)(F)F)n1

>  <path>  (302) 
/opt/xchem-fragalysis-2/maxwin/RdRp_FFF/syndirella/mar_elabs/elabs_058/OHJDLUXFTXKBRG-UHFFFAOYSA-N/output/OHJDLUXFTXKBRG-UHFFFAOYSA-N-YVyPGt-462-B/OHJDLUXFTXKBRG-UHFFFAOYSA-N-YVyPGt-462-B.minimised.mol

>  <distance_score>  (302) 
0.699567

>  <energy_score>  (302) 
-39.441742

>  <compound>  (302) 
ISXMIYBJJLTRFL-UHFFFAOYSA-N

>  <compound_id>  (302) 
153619

>  <target>  (302) 
Flavi_NS5_RdRp

>  <tags>  (302) 
[]

>  <inspirations>  (302) 
{P Ã— 2}

>  <subsites>  (302) 
None

>  <reference>  (302) 
z0211a

>  <SLURM_JOB_ID>  (302) 
nan

>  <SLURM_JOB_NAME>  (302) 
nan

>  <csv_name>  (302) 
nan

>  <scratch_subdir>  (302) 
nan

>  <fragmenstein_runtime>  (302) 
nan

>  <fragmenstein_outcome>  (302) 
nan

>  <fragmenstein_mode>  (302) 
nan

>  <fragmenstein_error>  (302) 
nan

>  <exports>  (302) 
nan

>  <Multi-SuCOS>  (302) 
nan

>  <merge_set>  (302) 
nan

$$$$
HXQCKMBIEZYXFU-UHFFFAOYSA-N
     RDKit          3D

 21 21  0  0  0  0  0  0  0  0999 V2000
  -30.1423  -30.2507  -19.5547 C   0  0  0  0  0  0  0  0  0  0  0  0
  -28.6678  -30.2776  -19.4181 C   0  0  0  0  0  0  0  0  0  0  0  0
  -27.7109  -30.6758  -20.3262 C   0  0  0  0  0  0  0  0  0  0  0  0
  -26.4811  -30.5719  -19.6501 C   0  0  0  0  0  0  0  0  0  0  0  0
  -25.2762  -31.0011  -20.0984 N   0  0  0  0  0  0  0  0  0  0  0  0
  -24.9133  -31.7378  -21.3258 C   0  0  0  0  0  0  0  0  0  0  0  0
  -25.5629  -32.0522  -22.2254 O   0  0  0  0  0  0  0  0  0  0  0  0
  -23.3699  -32.0393  -20.9765 N   0  0  0  0  0  0  0  0  0  0  0  0
  -22.2740  -32.7287  -21.7523 C   0  0  0  0  0  0  0  0  0  0  0  0
  -22.2871  -33.3233  -22.8336 N   0  0  0  0  0  0  0  0  0  0  0  0
  -20.9674  -32.5851  -20.9328 C   0  0  0  0  0  0  0  0  0  0  0  0
  -19.9415  -33.6489  -21.2879 C   0  0  0  0  0  0  0  0  0  0  0  0
  -20.3707  -31.2066  -21.1861 C   0  0  0  0  0  0  0  0  0  0  0  0
  -21.2859  -32.6978  -19.5440 O   0  0  0  0  0  0  0  0  0  0  0  0
  -26.6329  -30.0199  -18.4494 N   0  0  0  0  0  0  0  0  0  0  0  0
  -27.9659  -29.9655  -18.2766 N   0  0  0  0  0  0  0  0  0  0  0  0
  -28.5175  -29.6790  -16.9737 C   0  0  0  0  0  0  0  0  0  0  0  0
  -27.5743  -29.8747  -15.8125 C   0  0  0  0  0  0  0  0  0  0  0  0
  -26.5535  -28.9957  -15.8215 F   0  0  0  0  0  0  0  0  0  0  0  0
  -27.0559  -31.1057  -15.7000 F   0  0  0  0  0  0  0  0  0  0  0  0
  -28.2794  -29.6592  -14.6666 F   0  0  0  0  0  0  0  0  0  0  0  0
  1  2  1  0
  2  3  2  0
  3  4  1  0
  4  5  1  0
  5  6  1  0
  6  7  2  0
  6  8  1  0
  8  9  1  0
  9 10  2  3
  9 11  1  0
 11 12  1  0
 11 13  1  0
 11 14  1  0
  4 15  2  0
 15 16  1  0
 16 17  1  0
 17 18  1  0
 18 19  1  0
 18 20  1  0
 18 21  1  0
 16  2  1  0
M  END
>  <id>  (303) 
318345

>  <inchikey>  (303) 
HXQCKMBIEZYXFU-UHFFFAOYSA-N

>  <alias>  (303) 
None

>  <smiles>  (303) 
Cc1cc(NC(=O)NC(=N)C(C)(C)O)nn1CC(F)(F)F

>  <path>  (303) 
/opt/xchem-fragalysis-2/maxwin/RdRp_FFF/syndirella/mar_elabs/elabs_058/OHJDLUXFTXKBRG-UHFFFAOYSA-N/output/OHJDLUXFTXKBRG-UHFFFAOYSA-N-YVyPGt-466-A/OHJDLUXFTXKBRG-UHFFFAOYSA-N-YVyPGt-466-A.minimised.mol

>  <distance_score>  (303) 
1.478555

>  <energy_score>  (303) 
-36.664395

>  <compound>  (303) 
HXQCKMBIEZYXFU-UHFFFAOYSA-N

>  <compound_id>  (303) 
153621

>  <target>  (303) 
Flavi_NS5_RdRp

>  <tags>  (303) 
[]

>  <inspirations>  (303) 
{P Ã— 2}

>  <subsites>  (303) 
None

>  <reference>  (303) 
z0211a

>  <SLURM_JOB_ID>  (303) 
nan

>  <SLURM_JOB_NAME>  (303) 
nan

>  <csv_name>  (303) 
nan

>  <scratch_subdir>  (303) 
nan

>  <fragmenstein_runtime>  (303) 
nan

>  <fragmenstein_outcome>  (303) 
nan

>  <fragmenstein_mode>  (303) 
nan

>  <fragmenstein_error>  (303) 
nan

>  <exports>  (303) 
nan

>  <Multi-SuCOS>  (303) 
nan

>  <merge_set>  (303) 
nan

$$$$
FOBZGZLCRJYIAJ-ZETCQYMHSA-N
     RDKit          3D

 21 21  0  0  0  0  0  0  0  0999 V2000
  -20.8844  -32.5556  -19.3191 C   0  0  0  0  0  0  0  0  0  0  0  0
  -21.8883  -32.6954  -20.3135 O   0  0  0  0  0  0  0  0  0  0  0  0
  -21.4442  -32.3687  -21.6422 C   0  0  1  0  0  0  0  0  0  0  0  0
  -20.3849  -33.3561  -22.0973 C   0  0  0  0  0  0  0  0  0  0  0  0
  -22.7184  -32.3177  -22.5311 C   0  0  0  0  0  0  0  0  0  0  0  0
  -22.7780  -32.7055  -24.0426 S   0  0  0  0  0  0  0  0  0  0  0  0
  -23.8143  -31.7174  -21.5241 N   0  0  0  0  0  0  0  0  0  0  0  0
  -25.3337  -31.1994  -21.7370 C   0  0  0  0  0  0  0  0  0  0  0  0
  -26.0178  -31.2147  -22.6576 O   0  0  0  0  0  0  0  0  0  0  0  0
  -25.6114  -30.7857  -20.3534 N   0  0  0  0  0  0  0  0  0  0  0  0
  -26.7642  -30.3971  -19.7661 C   0  0  0  0  0  0  0  0  0  0  0  0
  -28.0300  -30.3952  -20.3714 C   0  0  0  0  0  0  0  0  0  0  0  0
  -28.9179  -30.1820  -19.3436 C   0  0  0  0  0  0  0  0  0  0  0  0
  -30.3929  -30.2589  -19.3622 C   0  0  0  0  0  0  0  0  0  0  0  0
  -28.1419  -29.9607  -18.2299 N   0  0  0  0  0  0  0  0  0  0  0  0
  -28.6096  -29.7315  -16.8840 C   0  0  0  0  0  0  0  0  0  0  0  0
  -27.5766  -29.8933  -15.7975 C   0  0  0  0  0  0  0  0  0  0  0  0
  -26.5896  -28.9784  -15.8815 F   0  0  0  0  0  0  0  0  0  0  0  0
  -28.2024  -29.6979  -14.6047 F   0  0  0  0  0  0  0  0  0  0  0  0
  -27.0060  -31.1045  -15.7241 F   0  0  0  0  0  0  0  0  0  0  0  0
  -26.8235  -30.0419  -18.4869 N   0  0  0  0  0  0  0  0  0  0  0  0
  1  2  1  0
  2  3  1  0
  3  4  1  6
  3  5  1  0
  5  6  2  0
  5  7  1  0
  7  8  1  0
  8  9  2  0
  8 10  1  0
 10 11  1  0
 11 12  1  0
 12 13  2  0
 13 14  1  0
 13 15  1  0
 15 16  1  0
 16 17  1  0
 17 18  1  0
 17 19  1  0
 17 20  1  0
 15 21  1  0
 21 11  2  0
M  END
>  <id>  (304) 
318351

>  <inchikey>  (304) 
FOBZGZLCRJYIAJ-ZETCQYMHSA-N

>  <alias>  (304) 
None

>  <smiles>  (304) 
CO[C@@H](C)C(=S)NC(=O)Nc1cc(C)n(CC(F)(F)F)n1

>  <path>  (304) 
/opt/xchem-fragalysis-2/maxwin/RdRp_FFF/syndirella/mar_elabs/elabs_058/OHJDLUXFTXKBRG-UHFFFAOYSA-N/output/OHJDLUXFTXKBRG-UHFFFAOYSA-N-YVyPGt-471-B/OHJDLUXFTXKBRG-UHFFFAOYSA-N-YVyPGt-471-B.minimised.mol

>  <distance_score>  (304) 
1.143081

>  <energy_score>  (304) 
-36.126497

>  <compound>  (304) 
FOBZGZLCRJYIAJ-UHFFFAOYSA-N

>  <compound_id>  (304) 
153624

>  <target>  (304) 
Flavi_NS5_RdRp

>  <tags>  (304) 
[]

>  <inspirations>  (304) 
{P Ã— 2}

>  <subsites>  (304) 
None

>  <reference>  (304) 
z0211a

>  <SLURM_JOB_ID>  (304) 
nan

>  <SLURM_JOB_NAME>  (304) 
nan

>  <csv_name>  (304) 
nan

>  <scratch_subdir>  (304) 
nan

>  <fragmenstein_runtime>  (304) 
nan

>  <fragmenstein_outcome>  (304) 
nan

>  <fragmenstein_mode>  (304) 
nan

>  <fragmenstein_error>  (304) 
nan

>  <exports>  (304) 
nan

>  <Multi-SuCOS>  (304) 
nan

>  <merge_set>  (304) 
nan

$$$$
UXKDEARSBWUXCX-SNVBAGLBSA-N
     RDKit          3D

 21 22  0  0  0  0  0  0  0  0999 V2000
  -30.1900  -30.1305  -20.2368 C   0  0  0  0  0  0  0  0  0  0  0  0
  -28.7230  -30.0979  -20.1064 C   0  0  0  0  0  0  0  0  0  0  0  0
  -27.8282  -30.2099  -21.1438 C   0  0  0  0  0  0  0  0  0  0  0  0
  -26.6021  -30.4364  -20.5289 C   0  0  0  0  0  0  0  0  0  0  0  0
  -25.4850  -30.8486  -21.1488 N   0  0  0  0  0  0  0  0  0  0  0  0
  -25.1801  -31.0144  -22.6508 C   0  0  0  0  0  0  0  0  0  0  0  0
  -25.8070  -30.7531  -23.5589 O   0  0  0  0  0  0  0  0  0  0  0  0
  -23.8236  -31.7289  -22.5530 N   0  0  0  0  0  0  0  0  0  0  0  0
  -23.0295  -32.3398  -23.5619 C   0  0  0  0  0  0  0  0  0  0  0  0
  -21.6147  -32.5723  -23.0737 C   0  0  1  0  0  0  0  0  0  0  0  0
  -20.7512  -32.9650  -24.2482 C   0  0  0  0  0  0  0  0  0  0  0  0
  -21.0649  -31.4114  -22.4551 O   0  0  0  0  0  0  0  0  0  0  0  0
  -26.6519  -30.2745  -19.2219 N   0  0  0  0  0  0  0  0  0  0  0  0
  -27.9524  -30.0419  -18.9404 N   0  0  0  0  0  0  0  0  0  0  0  0
  -28.3344  -29.9356  -17.5833 C   0  0  0  0  0  0  0  0  0  0  0  0
  -29.6709  -29.9644  -17.2342 C   0  0  0  0  0  0  0  0  0  0  0  0
  -30.0185  -30.0993  -15.9137 C   0  0  0  0  0  0  0  0  0  0  0  0
  -29.0608  -30.1322  -14.9119 C   0  0  0  0  0  0  0  0  0  0  0  0
  -27.7284  -30.0613  -15.2342 C   0  0  0  0  0  0  0  0  0  0  0  0
  -27.3731  -29.9580  -16.5574 C   0  0  0  0  0  0  0  0  0  0  0  0
  -26.0589  -29.9413  -16.7587 F   0  0  0  0  0  0  0  0  0  0  0  0
  1  2  1  0
  2  3  2  0
  3  4  1  0
  4  5  1  0
  5  6  1  0
  6  7  2  0
  6  8  1  0
  8  9  1  0
  9 10  1  0
 10 11  1  6
 10 12  1  0
  4 13  2  0
 13 14  1  0
 14 15  1  0
 15 16  2  0
 16 17  1  0
 17 18  2  0
 18 19  1  0
 19 20  2  0
 20 21  1  0
 14  2  1  0
 20 15  1  0
M  END
>  <id>  (305) 
320157

>  <inchikey>  (305) 
UXKDEARSBWUXCX-SNVBAGLBSA-N

>  <alias>  (305) 
None

>  <smiles>  (305) 
Cc1cc(NC(=O)NC[C@@H](C)O)nn1-c1ccccc1F

>  <path>  (305) 
/opt/xchem-fragalysis-2/maxwin/RdRp_FFF/syndirella/mar_elabs/elabs_052/UIINRFUWBVLBNK-UHFFFAOYSA-N/output/UIINRFUWBVLBNK-UHFFFAOYSA-N-nt5NxF-65-B/UIINRFUWBVLBNK-UHFFFAOYSA-N-nt5NxF-65-B.minimised.mol

>  <distance_score>  (305) 
1.381886

>  <energy_score>  (305) 
-24.024967

>  <compound>  (305) 
UXKDEARSBWUXCX-UHFFFAOYSA-N

>  <compound_id>  (305) 
155365

>  <target>  (305) 
Flavi_NS5_RdRp

>  <tags>  (305) 
[]

>  <inspirations>  (305) 
{P Ã— 2}

>  <subsites>  (305) 
None

>  <reference>  (305) 
z0211a

>  <SLURM_JOB_ID>  (305) 
nan

>  <SLURM_JOB_NAME>  (305) 
nan

>  <csv_name>  (305) 
nan

>  <scratch_subdir>  (305) 
nan

>  <fragmenstein_runtime>  (305) 
nan

>  <fragmenstein_outcome>  (305) 
nan

>  <fragmenstein_mode>  (305) 
nan

>  <fragmenstein_error>  (305) 
nan

>  <exports>  (305) 
nan

>  <Multi-SuCOS>  (305) 
nan

>  <merge_set>  (305) 
nan

$$$$
XMFCEIXBRZLFBY-LBPRGKRZSA-N
     RDKit          3D

 21 22  0  0  0  0  0  0  0  0999 V2000
  -29.9888  -30.0213  -20.3750 C   0  0  0  0  0  0  0  0  0  0  0  0
  -28.5223  -30.1308  -20.3249 C   0  0  0  0  0  0  0  0  0  0  0  0
  -27.6652  -30.3467  -21.3842 C   0  0  0  0  0  0  0  0  0  0  0  0
  -26.4150  -30.5490  -20.8063 C   0  0  0  0  0  0  0  0  0  0  0  0
  -25.2705  -30.9397  -21.3978 N   0  0  0  0  0  0  0  0  0  0  0  0
  -24.9458  -31.1775  -22.8888 C   0  0  0  0  0  0  0  0  0  0  0  0
  -25.5793  -31.0024  -23.8148 O   0  0  0  0  0  0  0  0  0  0  0  0
  -23.5417  -31.7960  -22.7452 N   0  0  0  0  0  0  0  0  0  0  0  0
  -22.6922  -32.4038  -23.7232 C   0  0  0  0  0  0  0  0  0  0  0  0
  -21.2397  -32.3719  -23.2769 C   0  0  1  0  0  0  0  0  0  0  0  0
  -20.8979  -31.1094  -22.7026 O   0  0  0  0  0  0  0  0  0  0  0  0
  -20.9779  -33.4417  -22.2340 C   0  0  0  0  0  0  0  0  0  0  0  0
  -19.6335  -33.5423  -22.0306 F   0  0  0  0  0  0  0  0  0  0  0  0
  -26.4268  -30.3245  -19.5065 N   0  0  0  0  0  0  0  0  0  0  0  0
  -27.7172  -30.0665  -19.1926 N   0  0  0  0  0  0  0  0  0  0  0  0
  -28.0212  -29.9053  -17.8184 C   0  0  0  0  0  0  0  0  0  0  0  0
  -26.9493  -29.8716  -16.9015 C   0  0  0  0  0  0  0  0  0  0  0  0
  -27.1887  -29.9767  -15.5399 C   0  0  0  0  0  0  0  0  0  0  0  0
  -28.4975  -30.0691  -15.0916 C   0  0  0  0  0  0  0  0  0  0  0  0
  -29.5550  -30.0418  -15.9865 C   0  0  0  0  0  0  0  0  0  0  0  0
  -29.3273  -29.9484  -17.3448 C   0  0  0  0  0  0  0  0  0  0  0  0
  1  2  1  0
  2  3  2  0
  3  4  1  0
  4  5  1  0
  5  6  1  0
  6  7  2  0
  6  8  1  0
  8  9  1  0
  9 10  1  0
 10 11  1  1
 10 12  1  0
 12 13  1  0
  4 14  2  0
 14 15  1  0
 15 16  1  0
 16 17  2  0
 17 18  1  0
 18 19  2  0
 19 20  1  0
 20 21  2  0
 15  2  1  0
 21 16  1  0
M  END
>  <id>  (306) 
320173

>  <inchikey>  (306) 
XMFCEIXBRZLFBY-LBPRGKRZSA-N

>  <alias>  (306) 
None

>  <smiles>  (306) 
Cc1cc(NC(=O)NC[C@@H](O)CF)nn1-c1ccccc1

>  <path>  (306) 
/opt/xchem-fragalysis-2/maxwin/RdRp_FFF/syndirella/mar_elabs/elabs_052/UIINRFUWBVLBNK-UHFFFAOYSA-N/output/UIINRFUWBVLBNK-UHFFFAOYSA-N-nt5NxF-144-B/UIINRFUWBVLBNK-UHFFFAOYSA-N-nt5NxF-144-B.minimised.mol

>  <distance_score>  (306) 
1.086552

>  <energy_score>  (306) 
-27.476644

>  <compound>  (306) 
XMFCEIXBRZLFBY-UHFFFAOYSA-N

>  <compound_id>  (306) 
155421

>  <target>  (306) 
Flavi_NS5_RdRp

>  <tags>  (306) 
[]

>  <inspirations>  (306) 
{P Ã— 2}

>  <subsites>  (306) 
None

>  <reference>  (306) 
z0211a

>  <SLURM_JOB_ID>  (306) 
nan

>  <SLURM_JOB_NAME>  (306) 
nan

>  <csv_name>  (306) 
nan

>  <scratch_subdir>  (306) 
nan

>  <fragmenstein_runtime>  (306) 
nan

>  <fragmenstein_outcome>  (306) 
nan

>  <fragmenstein_mode>  (306) 
nan

>  <fragmenstein_error>  (306) 
nan

>  <exports>  (306) 
nan

>  <Multi-SuCOS>  (306) 
nan

>  <merge_set>  (306) 
nan

$$$$
SQOMFBDBDMLIQK-LBPRGKRZSA-N
     RDKit          3D

 21 22  0  0  0  0  0  0  0  0999 V2000
  -20.6518  -31.8527  -21.2734 C   0  0  0  0  0  0  0  0  0  0  0  0
  -21.4547  -32.6989  -22.0870 O   0  0  0  0  0  0  0  0  0  0  0  0
  -21.6428  -32.1815  -23.4180 C   0  0  1  0  0  0  0  0  0  0  0  0
  -20.7681  -32.9590  -24.3752 C   0  0  0  0  0  0  0  0  0  0  0  0
  -23.0953  -32.4076  -23.8188 C   0  0  0  0  0  0  0  0  0  0  0  0
  -23.9437  -31.9061  -22.7970 N   0  0  0  0  0  0  0  0  0  0  0  0
  -25.2301  -31.0736  -22.8916 C   0  0  0  0  0  0  0  0  0  0  0  0
  -25.8237  -30.7413  -23.7995 O   0  0  0  0  0  0  0  0  0  0  0  0
  -25.5313  -30.9099  -21.3922 N   0  0  0  0  0  0  0  0  0  0  0  0
  -26.6109  -30.4135  -20.7727 C   0  0  0  0  0  0  0  0  0  0  0  0
  -27.8650  -30.1528  -21.3146 C   0  0  0  0  0  0  0  0  0  0  0  0
  -28.6947  -30.0470  -20.2169 C   0  0  0  0  0  0  0  0  0  0  0  0
  -30.1654  -30.1295  -20.2094 C   0  0  0  0  0  0  0  0  0  0  0  0
  -27.8486  -29.9636  -19.1151 N   0  0  0  0  0  0  0  0  0  0  0  0
  -28.0952  -29.8345  -17.7302 C   0  0  0  0  0  0  0  0  0  0  0  0
  -29.3817  -29.8554  -17.2194 C   0  0  0  0  0  0  0  0  0  0  0  0
  -29.5598  -30.0487  -15.8688 C   0  0  0  0  0  0  0  0  0  0  0  0
  -28.4755  -30.1505  -15.0146 C   0  0  0  0  0  0  0  0  0  0  0  0
  -27.1810  -30.0384  -15.4922 C   0  0  0  0  0  0  0  0  0  0  0  0
  -26.9890  -29.8625  -16.8517 C   0  0  0  0  0  0  0  0  0  0  0  0
  -26.5721  -30.2134  -19.4724 N   0  0  0  0  0  0  0  0  0  0  0  0
  1  2  1  0
  2  3  1  0
  3  4  1  6
  3  5  1  0
  5  6  1  0
  6  7  1  0
  7  8  2  0
  7  9  1  0
  9 10  1  0
 10 11  1  0
 11 12  2  0
 12 13  1  0
 12 14  1  0
 14 15  1  0
 15 16  2  0
 16 17  1  0
 17 18  2  0
 18 19  1  0
 19 20  2  0
 14 21  1  0
 21 10  2  0
 20 15  1  0
M  END
>  <id>  (307) 
320177

>  <inchikey>  (307) 
SQOMFBDBDMLIQK-LBPRGKRZSA-N

>  <alias>  (307) 
None

>  <smiles>  (307) 
CO[C@@H](C)CNC(=O)Nc1cc(C)n(-c2ccccc2)n1

>  <path>  (307) 
/opt/xchem-fragalysis-2/maxwin/RdRp_FFF/syndirella/mar_elabs/elabs_052/UIINRFUWBVLBNK-UHFFFAOYSA-N/output/UIINRFUWBVLBNK-UHFFFAOYSA-N-nt5NxF-147-B/UIINRFUWBVLBNK-UHFFFAOYSA-N-nt5NxF-147-B.minimised.mol

>  <distance_score>  (307) 
0.957678

>  <energy_score>  (307) 
-35.908258

>  <compound>  (307) 
SQOMFBDBDMLIQK-UHFFFAOYSA-N

>  <compound_id>  (307) 
155424

>  <target>  (307) 
Flavi_NS5_RdRp

>  <tags>  (307) 
[]

>  <inspirations>  (307) 
{P Ã— 2}

>  <subsites>  (307) 
None

>  <reference>  (307) 
z0211a

>  <SLURM_JOB_ID>  (307) 
nan

>  <SLURM_JOB_NAME>  (307) 
nan

>  <csv_name>  (307) 
nan

>  <scratch_subdir>  (307) 
nan

>  <fragmenstein_runtime>  (307) 
nan

>  <fragmenstein_outcome>  (307) 
nan

>  <fragmenstein_mode>  (307) 
nan

>  <fragmenstein_error>  (307) 
nan

>  <exports>  (307) 
nan

>  <Multi-SuCOS>  (307) 
nan

>  <merge_set>  (307) 
nan

$$$$
BPDSHDYVMKWVRZ-SNVBAGLBSA-N
     RDKit          3D

 21 22  0  0  0  0  0  0  0  0999 V2000
  -29.4410  -29.3328  -20.9719 C   0  0  0  0  0  0  0  0  0  0  0  0
  -28.1592  -29.9811  -20.6579 C   0  0  0  0  0  0  0  0  0  0  0  0
  -27.2315  -30.4869  -21.5495 C   0  0  0  0  0  0  0  0  0  0  0  0
  -26.1768  -30.9171  -20.7547 C   0  0  0  0  0  0  0  0  0  0  0  0
  -25.0319  -31.5407  -21.0619 N   0  0  0  0  0  0  0  0  0  0  0  0
  -24.3913  -31.7726  -22.3484 C   0  0  0  0  0  0  0  0  0  0  0  0
  -24.7528  -31.5421  -23.4149 O   0  0  0  0  0  0  0  0  0  0  0  0
  -23.0298  -32.4374  -21.7999 N   0  0  0  0  0  0  0  0  0  0  0  0
  -21.6964  -32.8931  -22.5121 C   0  0  0  0  0  0  0  0  0  0  0  0
  -21.2721  -32.9547  -24.0089 S   0  0  0  0  0  0  0  0  0  0  0  0
  -20.8760  -33.4003  -21.2834 C   0  0  1  0  0  0  0  0  0  0  0  0
  -19.4039  -33.0775  -21.2925 C   0  0  0  0  0  0  0  0  0  0  0  0
  -21.4238  -32.8948  -20.0528 O   0  0  0  0  0  0  0  0  0  0  0  0
  -26.3579  -30.6309  -19.4807 N   0  0  0  0  0  0  0  0  0  0  0  0
  -27.5912  -30.1010  -19.3972 N   0  0  0  0  0  0  0  0  0  0  0  0
  -28.0822  -29.8733  -18.0866 C   0  0  0  0  0  0  0  0  0  0  0  0
  -27.1462  -29.8565  -17.0287 C   0  0  0  0  0  0  0  0  0  0  0  0
  -27.5669  -29.9104  -15.7078 C   0  0  0  0  0  0  0  0  0  0  0  0
  -28.9244  -29.9521  -15.4332 C   0  0  0  0  0  0  0  0  0  0  0  0
  -29.8557  -29.9080  -16.4715 C   0  0  0  0  0  0  0  0  0  0  0  0
  -29.4423  -29.8601  -17.8003 C   0  0  0  0  0  0  0  0  0  0  0  0
  1  2  1  0
  2  3  2  0
  3  4  1  0
  4  5  1  0
  5  6  1  0
  6  7  2  0
  6  8  1  0
  8  9  1  0
  9 10  2  0
  9 11  1  0
 11 12  1  6
 11 13  1  0
  4 14  2  0
 14 15  1  0
 15 16  1  0
 16 17  2  0
 17 18  1  0
 18 19  2  0
 19 20  1  0
 20 21  2  0
 15  2  1  0
 21 16  1  0
M  END
>  <id>  (308) 
320178

>  <inchikey>  (308) 
BPDSHDYVMKWVRZ-SNVBAGLBSA-N

>  <alias>  (308) 
None

>  <smiles>  (308) 
Cc1cc(NC(=O)NC(=S)[C@@H](C)O)nn1-c1ccccc1

>  <path>  (308) 
/opt/xchem-fragalysis-2/maxwin/RdRp_FFF/syndirella/mar_elabs/elabs_052/UIINRFUWBVLBNK-UHFFFAOYSA-N/output/UIINRFUWBVLBNK-UHFFFAOYSA-N-nt5NxF-153-B/UIINRFUWBVLBNK-UHFFFAOYSA-N-nt5NxF-153-B.minimised.mol

>  <distance_score>  (308) 
1.673927

>  <energy_score>  (308) 
-24.394392

>  <compound>  (308) 
BPDSHDYVMKWVRZ-UHFFFAOYSA-N

>  <compound_id>  (308) 
155427

>  <target>  (308) 
Flavi_NS5_RdRp

>  <tags>  (308) 
[]

>  <inspirations>  (308) 
{P Ã— 2}

>  <subsites>  (308) 
None

>  <reference>  (308) 
z0211a

>  <SLURM_JOB_ID>  (308) 
nan

>  <SLURM_JOB_NAME>  (308) 
nan

>  <csv_name>  (308) 
nan

>  <scratch_subdir>  (308) 
nan

>  <fragmenstein_runtime>  (308) 
nan

>  <fragmenstein_outcome>  (308) 
nan

>  <fragmenstein_mode>  (308) 
nan

>  <fragmenstein_error>  (308) 
nan

>  <exports>  (308) 
nan

>  <Multi-SuCOS>  (308) 
nan

>  <merge_set>  (308) 
nan

$$$$
AWHQNSWMCWTRPC-JTQLQIEISA-N
     RDKit          3D

 21 22  0  0  0  0  0  0  0  0999 V2000
  -29.3311  -29.5099  -20.9154 C   0  0  0  0  0  0  0  0  0  0  0  0
  -27.9800  -30.0474  -20.6725 C   0  0  0  0  0  0  0  0  0  0  0  0
  -27.0915  -30.5277  -21.6120 C   0  0  0  0  0  0  0  0  0  0  0  0
  -25.9094  -30.7705  -20.9143 C   0  0  0  0  0  0  0  0  0  0  0  0
  -24.7303  -31.2229  -21.3937 N   0  0  0  0  0  0  0  0  0  0  0  0
  -24.3717  -31.7547  -22.7233 C   0  0  0  0  0  0  0  0  0  0  0  0
  -25.0169  -31.9009  -23.6677 O   0  0  0  0  0  0  0  0  0  0  0  0
  -22.8544  -32.1551  -22.4086 N   0  0  0  0  0  0  0  0  0  0  0  0
  -21.7669  -32.7488  -23.2676 C   0  0  0  0  0  0  0  0  0  0  0  0
  -21.7764  -33.1660  -24.4278 N   0  0  0  0  0  0  0  0  0  0  0  0
  -20.5071  -32.7894  -22.3876 C   0  0  2  0  0  0  0  0  0  0  0  0
  -20.6561  -33.7942  -21.2566 C   0  0  0  0  0  0  0  0  0  0  0  0
  -20.2833  -31.5012  -21.8221 O   0  0  0  0  0  0  0  0  0  0  0  0
  -26.0145  -30.4476  -19.6334 N   0  0  0  0  0  0  0  0  0  0  0  0
  -27.3134  -30.0925  -19.4533 N   0  0  0  0  0  0  0  0  0  0  0  0
  -27.7730  -29.8907  -18.1186 C   0  0  0  0  0  0  0  0  0  0  0  0
  -29.1316  -29.8363  -17.8007 C   0  0  0  0  0  0  0  0  0  0  0  0
  -29.5387  -29.8388  -16.4676 C   0  0  0  0  0  0  0  0  0  0  0  0
  -28.5988  -29.8940  -15.4440 C   0  0  0  0  0  0  0  0  0  0  0  0
  -27.2417  -29.9127  -15.7439 C   0  0  0  0  0  0  0  0  0  0  0  0
  -26.8273  -29.8944  -17.0737 C   0  0  0  0  0  0  0  0  0  0  0  0
  1  2  1  0
  2  3  2  0
  3  4  1  0
  4  5  1  0
  5  6  1  0
  6  7  2  0
  6  8  1  0
  8  9  1  0
  9 10  2  3
  9 11  1  0
 11 12  1  1
 11 13  1  0
  4 14  2  0
 14 15  1  0
 15 16  1  0
 16 17  2  0
 17 18  1  0
 18 19  2  0
 19 20  1  0
 20 21  2  0
 15  2  1  0
 21 16  1  0
M  END
>  <id>  (309) 
320190

>  <inchikey>  (309) 
AWHQNSWMCWTRPC-JTQLQIEISA-N

>  <alias>  (309) 
None

>  <smiles>  (309) 
Cc1cc(NC(=O)NC(=N)[C@H](C)O)nn1-c1ccccc1

>  <path>  (309) 
/opt/xchem-fragalysis-2/maxwin/RdRp_FFF/syndirella/mar_elabs/elabs_052/UIINRFUWBVLBNK-UHFFFAOYSA-N/output/UIINRFUWBVLBNK-UHFFFAOYSA-N-nt5NxF-203-A/UIINRFUWBVLBNK-UHFFFAOYSA-N-nt5NxF-203-A.minimised.mol

>  <distance_score>  (309) 
1.678785

>  <energy_score>  (309) 
-36.666611

>  <compound>  (309) 
AWHQNSWMCWTRPC-UHFFFAOYSA-N

>  <compound_id>  (309) 
155461

>  <target>  (309) 
Flavi_NS5_RdRp

>  <tags>  (309) 
[]

>  <inspirations>  (309) 
{P Ã— 2}

>  <subsites>  (309) 
None

>  <reference>  (309) 
z0211a

>  <SLURM_JOB_ID>  (309) 
nan

>  <SLURM_JOB_NAME>  (309) 
nan

>  <csv_name>  (309) 
nan

>  <scratch_subdir>  (309) 
nan

>  <fragmenstein_runtime>  (309) 
nan

>  <fragmenstein_outcome>  (309) 
nan

>  <fragmenstein_mode>  (309) 
nan

>  <fragmenstein_error>  (309) 
nan

>  <exports>  (309) 
nan

>  <Multi-SuCOS>  (309) 
nan

>  <merge_set>  (309) 
nan

$$$$
VDYZCMXPMMKHHJ-INIZCTEOSA-N
     RDKit          3D

 22 23  0  0  0  0  0  0  0  0999 V2000
  -21.2467  -33.4463  -25.7584 C   0  0  0  0  0  0  0  0  0  0  0  0
  -21.0954  -33.5205  -24.2385 C   0  0  0  0  0  0  0  0  0  0  0  0
  -21.6858  -32.3786  -23.4299 C   0  0  2  0  0  0  0  0  0  0  0  0
  -20.8800  -31.1176  -23.6695 C   0  0  0  0  0  0  0  0  0  0  0  0
  -21.5458  -32.7225  -22.0383 O   0  0  0  0  0  0  0  0  0  0  0  0
  -23.1674  -32.2854  -23.7989 C   0  0  0  0  0  0  0  0  0  0  0  0
  -23.9459  -31.6672  -22.7915 N   0  0  0  0  0  0  0  0  0  0  0  0
  -25.2874  -30.9307  -22.8845 C   0  0  0  0  0  0  0  0  0  0  0  0
  -25.9111  -30.6556  -23.7898 O   0  0  0  0  0  0  0  0  0  0  0  0
  -25.5843  -30.7667  -21.3879 N   0  0  0  0  0  0  0  0  0  0  0  0
  -26.6889  -30.3396  -20.7649 C   0  0  0  0  0  0  0  0  0  0  0  0
  -27.9441  -30.0850  -21.3031 C   0  0  0  0  0  0  0  0  0  0  0  0
  -28.7781  -30.0344  -20.2047 C   0  0  0  0  0  0  0  0  0  0  0  0
  -30.2474  -30.1429  -20.2018 C   0  0  0  0  0  0  0  0  0  0  0  0
  -27.9356  -29.9670  -19.0999 N   0  0  0  0  0  0  0  0  0  0  0  0
  -28.1794  -29.8517  -17.7165 C   0  0  0  0  0  0  0  0  0  0  0  0
  -27.0666  -29.8471  -16.8443 C   0  0  0  0  0  0  0  0  0  0  0  0
  -27.2447  -30.0127  -15.4831 C   0  0  0  0  0  0  0  0  0  0  0  0
  -28.5336  -30.1416  -14.9982 C   0  0  0  0  0  0  0  0  0  0  0  0
  -29.6238  -30.0783  -15.8497 C   0  0  0  0  0  0  0  0  0  0  0  0
  -29.4625  -29.9057  -17.2035 C   0  0  0  0  0  0  0  0  0  0  0  0
  -26.6576  -30.2050  -19.4578 N   0  0  0  0  0  0  0  0  0  0  0  0
  1  2  1  0
  2  3  1  0
  3  4  1  1
  3  5  1  0
  3  6  1  0
  6  7  1  0
  7  8  1  0
  8  9  2  0
  8 10  1  0
 10 11  1  0
 11 12  1  0
 12 13  2  0
 13 14  1  0
 13 15  1  0
 15 16  1  0
 16 17  2  0
 17 18  1  0
 18 19  2  0
 19 20  1  0
 20 21  2  0
 15 22  1  0
 22 11  2  0
 21 16  1  0
M  END
>  <id>  (310) 
320360

>  <inchikey>  (310) 
VDYZCMXPMMKHHJ-INIZCTEOSA-N

>  <alias>  (310) 
None

>  <smiles>  (310) 
CC[C@](C)(O)CNC(=O)Nc1cc(C)n(-c2ccccc2)n1

>  <path>  (310) 
/opt/xchem-fragalysis-2/maxwin/RdRp_FFF/syndirella/mar_elabs/elabs_052/UIINRFUWBVLBNK-UHFFFAOYSA-N/output/UIINRFUWBVLBNK-UHFFFAOYSA-N-nt5NxF-1374-A/UIINRFUWBVLBNK-UHFFFAOYSA-N-nt5NxF-1374-A.minimised.mol

>  <distance_score>  (310) 
1.077599

>  <energy_score>  (310) 
-20.041999

>  <compound>  (310) 
VDYZCMXPMMKHHJ-UHFFFAOYSA-N

>  <compound_id>  (310) 
156038

>  <target>  (310) 
Flavi_NS5_RdRp

>  <tags>  (310) 
[]

>  <inspirations>  (310) 
{P Ã— 2}

>  <subsites>  (310) 
None

>  <reference>  (310) 
z0211a

>  <SLURM_JOB_ID>  (310) 
nan

>  <SLURM_JOB_NAME>  (310) 
nan

>  <csv_name>  (310) 
nan

>  <scratch_subdir>  (310) 
nan

>  <fragmenstein_runtime>  (310) 
nan

>  <fragmenstein_outcome>  (310) 
nan

>  <fragmenstein_mode>  (310) 
nan

>  <fragmenstein_error>  (310) 
nan

>  <exports>  (310) 
nan

>  <Multi-SuCOS>  (310) 
nan

>  <merge_set>  (310) 
nan

$$$$
ISJGHSYIUMVISQ-LLVKDONJSA-N
     RDKit          3D

 22 23  0  0  0  0  0  0  0  0999 V2000
  -21.5606  -34.7324  -20.6129 C   0  0  0  0  0  0  0  0  0  0  0  0
  -22.1014  -33.6859  -21.4110 O   0  0  0  0  0  0  0  0  0  0  0  0
  -21.6533  -33.7309  -22.7767 C   0  0  2  0  0  0  0  0  0  0  0  0
  -20.3651  -32.9511  -22.9032 C   0  0  0  0  0  0  0  0  0  0  0  0
  -22.6893  -33.0473  -23.6812 C   0  0  0  0  0  0  0  0  0  0  0  0
  -22.7304  -33.2205  -24.9020 N   0  0  0  0  0  0  0  0  0  0  0  0
  -23.5468  -32.2436  -22.7668 N   0  0  0  0  0  0  0  0  0  0  0  0
  -24.8739  -31.4144  -23.0098 C   0  0  0  0  0  0  0  0  0  0  0  0
  -25.4515  -31.1688  -23.9760 O   0  0  0  0  0  0  0  0  0  0  0  0
  -25.2027  -31.1323  -21.6070 N   0  0  0  0  0  0  0  0  0  0  0  0
  -26.3042  -30.5932  -21.0559 C   0  0  0  0  0  0  0  0  0  0  0  0
  -27.5042  -30.2784  -21.6841 C   0  0  0  0  0  0  0  0  0  0  0  0
  -28.3816  -30.0034  -20.6584 C   0  0  0  0  0  0  0  0  0  0  0  0
  -29.8174  -29.7154  -20.7867 C   0  0  0  0  0  0  0  0  0  0  0  0
  -27.6354  -30.0471  -19.4849 N   0  0  0  0  0  0  0  0  0  0  0  0
  -28.0004  -29.8944  -18.1171 C   0  0  0  0  0  0  0  0  0  0  0  0
  -26.9730  -29.8492  -17.1518 C   0  0  0  0  0  0  0  0  0  0  0  0
  -27.2731  -29.8873  -15.7930 C   0  0  0  0  0  0  0  0  0  0  0  0
  -28.5997  -29.9379  -15.3852 C   0  0  0  0  0  0  0  0  0  0  0  0
  -29.6201  -29.9422  -16.3302 C   0  0  0  0  0  0  0  0  0  0  0  0
  -29.3277  -29.9200  -17.6907 C   0  0  0  0  0  0  0  0  0  0  0  0
  -26.3498  -30.3828  -19.7519 N   0  0  0  0  0  0  0  0  0  0  0  0
  1  2  1  0
  2  3  1  0
  3  4  1  1
  3  5  1  0
  5  6  2  3
  5  7  1  0
  7  8  1  0
  8  9  2  0
  8 10  1  0
 10 11  1  0
 11 12  1  0
 12 13  2  0
 13 14  1  0
 13 15  1  0
 15 16  1  0
 16 17  2  0
 17 18  1  0
 18 19  2  0
 19 20  1  0
 20 21  2  0
 15 22  1  0
 22 11  2  0
 21 16  1  0
M  END
>  <id>  (311) 
320490

>  <inchikey>  (311) 
ISJGHSYIUMVISQ-LLVKDONJSA-N

>  <alias>  (311) 
None

>  <smiles>  (311) 
CO[C@H](C)C(=N)NC(=O)Nc1cc(C)n(-c2ccccc2)n1

>  <path>  (311) 
/opt/xchem-fragalysis-2/maxwin/RdRp_FFF/syndirella/mar_elabs/elabs_052/UIINRFUWBVLBNK-UHFFFAOYSA-N/output/UIINRFUWBVLBNK-UHFFFAOYSA-N-nt5NxF-1799-A/UIINRFUWBVLBNK-UHFFFAOYSA-N-nt5NxF-1799-A.minimised.mol

>  <distance_score>  (311) 
1.311043

>  <energy_score>  (311) 
-44.353388

>  <compound>  (311) 
ISJGHSYIUMVISQ-UHFFFAOYSA-N

>  <compound_id>  (311) 
156317

>  <target>  (311) 
Flavi_NS5_RdRp

>  <tags>  (311) 
[]

>  <inspirations>  (311) 
{P Ã— 2}

>  <subsites>  (311) 
None

>  <reference>  (311) 
z0211a

>  <SLURM_JOB_ID>  (311) 
nan

>  <SLURM_JOB_NAME>  (311) 
nan

>  <csv_name>  (311) 
nan

>  <scratch_subdir>  (311) 
nan

>  <fragmenstein_runtime>  (311) 
nan

>  <fragmenstein_outcome>  (311) 
nan

>  <fragmenstein_mode>  (311) 
nan

>  <fragmenstein_error>  (311) 
nan

>  <exports>  (311) 
nan

>  <Multi-SuCOS>  (311) 
nan

>  <merge_set>  (311) 
nan

$$$$
MBDWQRCJUHGQFT-GFCCVEGCSA-N
     RDKit          3D

 22 23  0  0  0  0  0  0  0  0999 V2000
  -20.8294  -33.2562  -25.5638 C   0  0  0  0  0  0  0  0  0  0  0  0
  -21.1331  -33.4698  -24.0840 C   0  0  0  0  0  0  0  0  0  0  0  0
  -21.8716  -32.3624  -23.3649 C   0  0  1  0  0  0  0  0  0  0  0  0
  -21.0551  -31.1928  -23.3687 O   0  0  0  0  0  0  0  0  0  0  0  0
  -23.2452  -32.0537  -23.9746 C   0  0  0  0  0  0  0  0  0  0  0  0
  -23.4739  -32.2956  -25.1553 N   0  0  0  0  0  0  0  0  0  0  0  0
  -24.0560  -31.3844  -22.9390 N   0  0  0  0  0  0  0  0  0  0  0  0
  -25.5339  -30.8369  -22.9459 C   0  0  0  0  0  0  0  0  0  0  0  0
  -26.3049  -30.7566  -23.7905 O   0  0  0  0  0  0  0  0  0  0  0  0
  -25.6633  -30.5519  -21.5257 N   0  0  0  0  0  0  0  0  0  0  0  0
  -26.7347  -30.2051  -20.7985 C   0  0  0  0  0  0  0  0  0  0  0  0
  -28.0272  -30.0690  -21.2941 C   0  0  0  0  0  0  0  0  0  0  0  0
  -28.8316  -30.0320  -20.1818 C   0  0  0  0  0  0  0  0  0  0  0  0
  -30.2998  -30.2088  -20.1687 C   0  0  0  0  0  0  0  0  0  0  0  0
  -27.9586  -29.9068  -19.1027 N   0  0  0  0  0  0  0  0  0  0  0  0
  -28.1935  -29.8295  -17.7137 C   0  0  0  0  0  0  0  0  0  0  0  0
  -29.4759  -29.8897  -17.1974 C   0  0  0  0  0  0  0  0  0  0  0  0
  -29.6406  -30.0741  -15.8448 C   0  0  0  0  0  0  0  0  0  0  0  0
  -28.5524  -30.1382  -14.9922 C   0  0  0  0  0  0  0  0  0  0  0  0
  -27.2647  -30.0060  -15.4784 C   0  0  0  0  0  0  0  0  0  0  0  0
  -27.0840  -29.8361  -16.8416 C   0  0  0  0  0  0  0  0  0  0  0  0
  -26.6647  -30.0061  -19.5020 N   0  0  0  0  0  0  0  0  0  0  0  0
  1  2  1  0
  2  3  1  0
  3  4  1  6
  3  5  1  0
  5  6  2  3
  5  7  1  0
  7  8  1  0
  8  9  2  0
  8 10  1  0
 10 11  1  0
 11 12  1  0
 12 13  2  0
 13 14  1  0
 13 15  1  0
 15 16  1  0
 16 17  2  0
 17 18  1  0
 18 19  2  0
 19 20  1  0
 20 21  2  0
 15 22  1  0
 22 11  2  0
 21 16  1  0
M  END
>  <id>  (312) 
320527

>  <inchikey>  (312) 
MBDWQRCJUHGQFT-GFCCVEGCSA-N

>  <alias>  (312) 
None

>  <smiles>  (312) 
CC[C@@H](O)C(=N)NC(=O)Nc1cc(C)n(-c2ccccc2)n1

>  <path>  (312) 
/opt/xchem-fragalysis-2/maxwin/RdRp_FFF/syndirella/mar_elabs/elabs_052/UIINRFUWBVLBNK-UHFFFAOYSA-N/output/UIINRFUWBVLBNK-UHFFFAOYSA-N-nt5NxF-1864-B/UIINRFUWBVLBNK-UHFFFAOYSA-N-nt5NxF-1864-B.minimised.mol

>  <distance_score>  (312) 
1.301615

>  <energy_score>  (312) 
-13.491382

>  <compound>  (312) 
MBDWQRCJUHGQFT-UHFFFAOYSA-N

>  <compound_id>  (312) 
156364

>  <target>  (312) 
Flavi_NS5_RdRp

>  <tags>  (312) 
[]

>  <inspirations>  (312) 
{P Ã— 2}

>  <subsites>  (312) 
None

>  <reference>  (312) 
z0211a

>  <SLURM_JOB_ID>  (312) 
nan

>  <SLURM_JOB_NAME>  (312) 
nan

>  <csv_name>  (312) 
nan

>  <scratch_subdir>  (312) 
nan

>  <fragmenstein_runtime>  (312) 
nan

>  <fragmenstein_outcome>  (312) 
nan

>  <fragmenstein_mode>  (312) 
nan

>  <fragmenstein_error>  (312) 
nan

>  <exports>  (312) 
nan

>  <Multi-SuCOS>  (312) 
nan

>  <merge_set>  (312) 
nan

$$$$
CLBJACHYBVNILZ-NSHDSACASA-N
     RDKit          3D

 22 23  0  0  0  0  0  0  0  0999 V2000
  -20.8118  -31.6568  -21.1477 C   0  0  0  0  0  0  0  0  0  0  0  0
  -21.0882  -32.6936  -22.0809 O   0  0  0  0  0  0  0  0  0  0  0  0
  -21.5498  -32.2075  -23.3495 C   0  0  1  0  0  0  0  0  0  0  0  0
  -20.8279  -32.9875  -24.4312 C   0  0  0  0  0  0  0  0  0  0  0  0
  -23.0325  -32.4988  -23.5121 C   0  0  0  0  0  0  0  0  0  0  0  0
  -23.8123  -31.8586  -22.5132 N   0  0  0  0  0  0  0  0  0  0  0  0
  -25.1310  -31.0812  -22.6275 C   0  0  0  0  0  0  0  0  0  0  0  0
  -25.7301  -30.7848  -23.5435 O   0  0  0  0  0  0  0  0  0  0  0  0
  -25.4521  -30.9111  -21.1293 N   0  0  0  0  0  0  0  0  0  0  0  0
  -26.5581  -30.4512  -20.5245 C   0  0  0  0  0  0  0  0  0  0  0  0
  -27.7671  -30.1976  -21.1611 C   0  0  0  0  0  0  0  0  0  0  0  0
  -28.6763  -30.0702  -20.1394 C   0  0  0  0  0  0  0  0  0  0  0  0
  -30.1397  -30.0696  -20.3056 C   0  0  0  0  0  0  0  0  0  0  0  0
  -27.9268  -30.0383  -18.9577 N   0  0  0  0  0  0  0  0  0  0  0  0
  -28.3364  -29.9407  -17.6083 C   0  0  0  0  0  0  0  0  0  0  0  0
  -29.6858  -29.9790  -17.2937 C   0  0  0  0  0  0  0  0  0  0  0  0
  -30.0827  -30.0994  -15.9844 C   0  0  0  0  0  0  0  0  0  0  0  0
  -29.1558  -30.1276  -14.9568 C   0  0  0  0  0  0  0  0  0  0  0  0
  -27.8179  -30.0522  -15.2449 C   0  0  0  0  0  0  0  0  0  0  0  0
  -27.4119  -29.9550  -16.5558 C   0  0  0  0  0  0  0  0  0  0  0  0
  -26.0914  -29.9331  -16.7134 F   0  0  0  0  0  0  0  0  0  0  0  0
  -26.6229  -30.2823  -19.2180 N   0  0  0  0  0  0  0  0  0  0  0  0
  1  2  1  0
  2  3  1  0
  3  4  1  6
  3  5  1  0
  5  6  1  0
  6  7  1  0
  7  8  2  0
  7  9  1  0
  9 10  1  0
 10 11  1  0
 11 12  2  0
 12 13  1  0
 12 14  1  0
 14 15  1  0
 15 16  2  0
 16 17  1  0
 17 18  2  0
 18 19  1  0
 19 20  2  0
 20 21  1  0
 14 22  1  0
 22 10  2  0
 20 15  1  0
M  END
>  <id>  (313) 
320534

>  <inchikey>  (313) 
CLBJACHYBVNILZ-NSHDSACASA-N

>  <alias>  (313) 
None

>  <smiles>  (313) 
CO[C@@H](C)CNC(=O)Nc1cc(C)n(-c2ccccc2F)n1

>  <path>  (313) 
/opt/xchem-fragalysis-2/maxwin/RdRp_FFF/syndirella/mar_elabs/elabs_052/UIINRFUWBVLBNK-UHFFFAOYSA-N/output/UIINRFUWBVLBNK-UHFFFAOYSA-N-nt5NxF-1887-B/UIINRFUWBVLBNK-UHFFFAOYSA-N-nt5NxF-1887-B.minimised.mol

>  <distance_score>  (313) 
1.540913

>  <energy_score>  (313) 
-21.836749

>  <compound>  (313) 
CLBJACHYBVNILZ-UHFFFAOYSA-N

>  <compound_id>  (313) 
156379

>  <target>  (313) 
Flavi_NS5_RdRp

>  <tags>  (313) 
[]

>  <inspirations>  (313) 
{P Ã— 2}

>  <subsites>  (313) 
None

>  <reference>  (313) 
z0211a

>  <SLURM_JOB_ID>  (313) 
nan

>  <SLURM_JOB_NAME>  (313) 
nan

>  <csv_name>  (313) 
nan

>  <scratch_subdir>  (313) 
nan

>  <fragmenstein_runtime>  (313) 
nan

>  <fragmenstein_outcome>  (313) 
nan

>  <fragmenstein_mode>  (313) 
nan

>  <fragmenstein_error>  (313) 
nan

>  <exports>  (313) 
nan

>  <Multi-SuCOS>  (313) 
nan

>  <merge_set>  (313) 
nan

$$$$
JVVQUIBCEJFSPU-SNVBAGLBSA-N
     RDKit          3D

 23 24  0  0  0  0  0  0  0  0999 V2000
  -24.7812  -32.2163  -13.5818 C   0  0  0  0  0  0  0  0  0  0  0  0
  -26.0233  -31.5306  -13.7136 O   0  0  0  0  0  0  0  0  0  0  0  0
  -26.1921  -30.7979  -14.8528 C   0  0  0  0  0  0  0  0  0  0  0  0
  -25.1534  -30.3747  -15.6566 C   0  0  0  0  0  0  0  0  0  0  0  0
  -25.4447  -29.8833  -16.9175 C   0  0  0  0  0  0  0  0  0  0  0  0
  -26.7731  -29.8350  -17.3959 C   0  0  0  0  0  0  0  0  0  0  0  0
  -26.9313  -29.8657  -18.8144 N   0  0  0  0  0  0  0  0  0  0  0  0
  -25.7827  -30.0125  -19.4988 N   0  0  0  0  0  0  0  0  0  0  0  0
  -26.1160  -30.4347  -20.6978 C   0  0  0  0  0  0  0  0  0  0  0  0
  -25.1289  -31.0079  -21.4095 N   0  0  0  0  0  0  0  0  0  0  0  0
  -25.0637  -31.3825  -22.8131 C   0  0  0  0  0  0  0  0  0  0  0  0
  -25.8108  -31.2076  -23.6654 O   0  0  0  0  0  0  0  0  0  0  0  0
  -23.6738  -32.2052  -22.7578 N   0  0  0  0  0  0  0  0  0  0  0  0
  -22.9308  -33.1301  -23.8044 C   0  0  0  0  0  0  0  0  0  0  0  0
  -23.2273  -33.4879  -25.2935 S   0  0  0  0  0  0  0  0  0  0  0  0
  -21.7574  -33.6823  -22.9767 C   0  0  1  0  0  0  0  0  0  0  0  0
  -20.5183  -32.8570  -23.2496 C   0  0  0  0  0  0  0  0  0  0  0  0
  -22.0312  -33.5937  -21.5690 O   0  0  0  0  0  0  0  0  0  0  0  0
  -27.4843  -30.2989  -20.9247 C   0  0  0  0  0  0  0  0  0  0  0  0
  -28.0195  -30.0055  -19.6736 C   0  0  0  0  0  0  0  0  0  0  0  0
  -29.4476  -29.9729  -19.2983 C   0  0  0  0  0  0  0  0  0  0  0  0
  -27.8157  -30.0156  -16.4968 C   0  0  0  0  0  0  0  0  0  0  0  0
  -27.5122  -30.5095  -15.2226 C   0  0  0  0  0  0  0  0  0  0  0  0
  1  2  1  0
  2  3  1  0
  3  4  2  0
  4  5  1  0
  5  6  2  0
  6  7  1  0
  7  8  1  0
  8  9  2  0
  9 10  1  0
 10 11  1  0
 11 12  2  0
 11 13  1  0
 13 14  1  0
 14 15  2  0
 14 16  1  0
 16 17  1  1
 16 18  1  0
  9 19  1  0
 19 20  2  0
 20 21  1  0
  6 22  1  0
 22 23  2  0
 23  3  1  0
 20  7  1  0
M  END
>  <id>  (314) 
320691

>  <inchikey>  (314) 
JVVQUIBCEJFSPU-SNVBAGLBSA-N

>  <alias>  (314) 
None

>  <smiles>  (314) 
COc1ccc(-n2nc(NC(=O)NC(=S)[C@@H](C)O)cc2C)cc1

>  <path>  (314) 
/opt/xchem-fragalysis-2/maxwin/RdRp_FFF/syndirella/mar_elabs/elabs_052/UIINRFUWBVLBNK-UHFFFAOYSA-N/output/UIINRFUWBVLBNK-UHFFFAOYSA-N-nt5NxF-2502-B/UIINRFUWBVLBNK-UHFFFAOYSA-N-nt5NxF-2502-B.minimised.mol

>  <distance_score>  (314) 
1.508119

>  <energy_score>  (314) 
-22.617444

>  <compound>  (314) 
JVVQUIBCEJFSPU-UHFFFAOYSA-N

>  <compound_id>  (314) 
156717

>  <target>  (314) 
Flavi_NS5_RdRp

>  <tags>  (314) 
[]

>  <inspirations>  (314) 
{P Ã— 2}

>  <subsites>  (314) 
None

>  <reference>  (314) 
z0211a

>  <SLURM_JOB_ID>  (314) 
nan

>  <SLURM_JOB_NAME>  (314) 
nan

>  <csv_name>  (314) 
nan

>  <scratch_subdir>  (314) 
nan

>  <fragmenstein_runtime>  (314) 
nan

>  <fragmenstein_outcome>  (314) 
nan

>  <fragmenstein_mode>  (314) 
nan

>  <fragmenstein_error>  (314) 
nan

>  <exports>  (314) 
nan

>  <Multi-SuCOS>  (314) 
nan

>  <merge_set>  (314) 
nan

$$$$
KDPYGNXIPXZHAR-JTQLQIEISA-N
     RDKit          3D

 23 24  0  0  0  0  0  0  0  0999 V2000
  -26.8531  -31.7007  -14.2980 C   0  0  0  0  0  0  0  0  0  0  0  0
  -27.9481  -30.7793  -14.4886 O   0  0  0  0  0  0  0  0  0  0  0  0
  -27.8064  -30.0772  -15.6488 C   0  0  0  0  0  0  0  0  0  0  0  0
  -28.9282  -29.9725  -16.4730 C   0  0  0  0  0  0  0  0  0  0  0  0
  -28.7508  -29.7441  -17.8372 C   0  0  0  0  0  0  0  0  0  0  0  0
  -27.4475  -29.6016  -18.3072 C   0  0  0  0  0  0  0  0  0  0  0  0
  -27.0682  -29.9468  -19.6258 N   0  0  0  0  0  0  0  0  0  0  0  0
  -25.8095  -30.3829  -19.7417 N   0  0  0  0  0  0  0  0  0  0  0  0
  -25.6680  -30.8349  -20.9688 C   0  0  0  0  0  0  0  0  0  0  0  0
  -24.4304  -31.3154  -21.1875 N   0  0  0  0  0  0  0  0  0  0  0  0
  -23.8080  -31.8280  -22.3999 C   0  0  0  0  0  0  0  0  0  0  0  0
  -24.2509  -32.0165  -23.4483 O   0  0  0  0  0  0  0  0  0  0  0  0
  -22.3014  -31.9873  -21.8258 N   0  0  0  0  0  0  0  0  0  0  0  0
  -21.0399  -32.5165  -22.4377 C   0  0  0  0  0  0  0  0  0  0  0  0
  -20.8195  -33.0523  -23.5238 N   0  0  0  0  0  0  0  0  0  0  0  0
  -19.9503  -32.3341  -21.3438 C   0  0  2  0  0  0  0  0  0  0  0  0
  -19.2780  -33.6520  -21.0126 C   0  0  0  0  0  0  0  0  0  0  0  0
  -20.5176  -31.8085  -20.1396 O   0  0  0  0  0  0  0  0  0  0  0  0
  -26.8242  -30.6127  -21.7188 C   0  0  0  0  0  0  0  0  0  0  0  0
  -27.7404  -30.0557  -20.8265 C   0  0  0  0  0  0  0  0  0  0  0  0
  -29.1042  -29.5378  -21.0529 C   0  0  0  0  0  0  0  0  0  0  0  0
  -26.3807  -29.4037  -17.4077 C   0  0  0  0  0  0  0  0  0  0  0  0
  -26.5599  -29.6468  -16.0700 C   0  0  0  0  0  0  0  0  0  0  0  0
  1  2  1  0
  2  3  1  0
  3  4  2  0
  4  5  1  0
  5  6  2  0
  6  7  1  0
  7  8  1  0
  8  9  2  0
  9 10  1  0
 10 11  1  0
 11 12  2  0
 11 13  1  0
 13 14  1  0
 14 15  2  3
 14 16  1  0
 16 17  1  1
 16 18  1  0
  9 19  1  0
 19 20  2  0
 20 21  1  0
  6 22  1  0
 22 23  2  0
 23  3  1  0
 20  7  1  0
M  END
>  <id>  (315) 
320693

>  <inchikey>  (315) 
KDPYGNXIPXZHAR-JTQLQIEISA-N

>  <alias>  (315) 
None

>  <smiles>  (315) 
COc1ccc(-n2nc(NC(=O)NC(=N)[C@H](C)O)cc2C)cc1

>  <path>  (315) 
/opt/xchem-fragalysis-2/maxwin/RdRp_FFF/syndirella/mar_elabs/elabs_052/UIINRFUWBVLBNK-UHFFFAOYSA-N/output/UIINRFUWBVLBNK-UHFFFAOYSA-N-nt5NxF-2506-A/UIINRFUWBVLBNK-UHFFFAOYSA-N-nt5NxF-2506-A.minimised.mol

>  <distance_score>  (315) 
1.881911

>  <energy_score>  (315) 
-18.419634

>  <compound>  (315) 
KDPYGNXIPXZHAR-UHFFFAOYSA-N

>  <compound_id>  (315) 
156721

>  <target>  (315) 
Flavi_NS5_RdRp

>  <tags>  (315) 
[]

>  <inspirations>  (315) 
{P Ã— 2}

>  <subsites>  (315) 
None

>  <reference>  (315) 
z0211a

>  <SLURM_JOB_ID>  (315) 
nan

>  <SLURM_JOB_NAME>  (315) 
nan

>  <csv_name>  (315) 
nan

>  <scratch_subdir>  (315) 
nan

>  <fragmenstein_runtime>  (315) 
nan

>  <fragmenstein_outcome>  (315) 
nan

>  <fragmenstein_mode>  (315) 
nan

>  <fragmenstein_error>  (315) 
nan

>  <exports>  (315) 
nan

>  <Multi-SuCOS>  (315) 
nan

>  <merge_set>  (315) 
nan

$$$$
BSLOSCYNDGHOAA-LBPRGKRZSA-N
     RDKit          3D

 21 22  0  0  0  0  0  0  0  0999 V2000
  -30.2649  -30.1314  -20.2424 C   0  0  0  0  0  0  0  0  0  0  0  0
  -28.7948  -30.0443  -20.2108 C   0  0  0  0  0  0  0  0  0  0  0  0
  -27.9467  -30.1059  -21.2943 C   0  0  0  0  0  0  0  0  0  0  0  0
  -26.6995  -30.3633  -20.7392 C   0  0  0  0  0  0  0  0  0  0  0  0
  -25.6061  -30.8022  -21.3742 N   0  0  0  0  0  0  0  0  0  0  0  0
  -25.3124  -30.9321  -22.8769 C   0  0  0  0  0  0  0  0  0  0  0  0
  -25.9282  -30.6148  -23.7740 O   0  0  0  0  0  0  0  0  0  0  0  0
  -23.9907  -31.7067  -22.8053 N   0  0  0  0  0  0  0  0  0  0  0  0
  -23.2271  -32.3180  -23.8321 C   0  0  0  0  0  0  0  0  0  0  0  0
  -21.7408  -32.0541  -23.6347 C   0  0  1  0  0  0  0  0  0  0  0  0
  -21.4216  -31.9480  -22.2358 O   0  0  0  0  0  0  0  0  0  0  0  0
  -20.9638  -33.2082  -24.2314 C   0  0  0  0  0  0  0  0  0  0  0  0
  -21.1561  -33.3230  -26.0034 Cl  0  0  0  0  0  0  0  0  0  0  0  0
  -26.6821  -30.2211  -19.4309 N   0  0  0  0  0  0  0  0  0  0  0  0
  -27.9686  -29.9845  -19.0922 N   0  0  0  0  0  0  0  0  0  0  0  0
  -28.2480  -29.8739  -17.7140 C   0  0  0  0  0  0  0  0  0  0  0  0
  -29.5481  -29.9198  -17.2448 C   0  0  0  0  0  0  0  0  0  0  0  0
  -29.7649  -30.0729  -15.8971 C   0  0  0  0  0  0  0  0  0  0  0  0
  -28.7103  -30.1177  -15.0025 C   0  0  0  0  0  0  0  0  0  0  0  0
  -27.4042  -30.0121  -15.4453 C   0  0  0  0  0  0  0  0  0  0  0  0
  -27.1691  -29.8754  -16.8028 C   0  0  0  0  0  0  0  0  0  0  0  0
  1  2  1  0
  2  3  2  0
  3  4  1  0
  4  5  1  0
  5  6  1  0
  6  7  2  0
  6  8  1  0
  8  9  1  0
  9 10  1  0
 10 11  1  1
 10 12  1  0
 12 13  1  0
  4 14  2  0
 14 15  1  0
 15 16  1  0
 16 17  2  0
 17 18  1  0
 18 19  2  0
 19 20  1  0
 20 21  2  0
 15  2  1  0
 21 16  1  0
M  END
>  <id>  (316) 
321148

>  <inchikey>  (316) 
BSLOSCYNDGHOAA-LBPRGKRZSA-N

>  <alias>  (316) 
None

>  <smiles>  (316) 
Cc1cc(NC(=O)NC[C@@H](O)CCl)nn1-c1ccccc1

>  <path>  (316) 
/opt/xchem-fragalysis-2/maxwin/RdRp_FFF/syndirella/mar_elabs/elabs_052/UIINRFUWBVLBNK-UHFFFAOYSA-N/output/UIINRFUWBVLBNK-UHFFFAOYSA-N-rm7FHC-181-B/UIINRFUWBVLBNK-UHFFFAOYSA-N-rm7FHC-181-B.minimised.mol

>  <distance_score>  (316) 
1.018198

>  <energy_score>  (316) 
-24.458315

>  <compound>  (316) 
BSLOSCYNDGHOAA-UHFFFAOYSA-N

>  <compound_id>  (316) 
155441

>  <target>  (316) 
Flavi_NS5_RdRp

>  <tags>  (316) 
[]

>  <inspirations>  (316) 
{P Ã— 2}

>  <subsites>  (316) 
None

>  <reference>  (316) 
z0211a

>  <SLURM_JOB_ID>  (316) 
nan

>  <SLURM_JOB_NAME>  (316) 
nan

>  <csv_name>  (316) 
nan

>  <scratch_subdir>  (316) 
nan

>  <fragmenstein_runtime>  (316) 
nan

>  <fragmenstein_outcome>  (316) 
nan

>  <fragmenstein_mode>  (316) 
nan

>  <fragmenstein_error>  (316) 
nan

>  <exports>  (316) 
nan

>  <Multi-SuCOS>  (316) 
nan

>  <merge_set>  (316) 
nan

$$$$
DKHOWEXPPOVNPP-NSHDSACASA-N
     RDKit          3D

 22 23  0  0  0  0  0  0  0  0999 V2000
  -23.0636  -34.9230  -23.8989 C   0  0  0  0  0  0  0  0  0  0  0  0
  -22.3758  -34.1447  -22.7884 C   0  0  0  0  0  0  0  0  0  0  0  0
  -21.8845  -32.7645  -23.1987 C   0  0  2  0  0  0  0  0  0  0  0  0
  -21.2925  -32.1217  -22.0688 O   0  0  0  0  0  0  0  0  0  0  0  0
  -22.9356  -31.8826  -23.8804 C   0  0  0  0  0  0  0  0  0  0  0  0
  -24.1619  -31.6332  -23.1621 N   0  0  0  0  0  0  0  0  0  0  0  0
  -24.4225  -31.4890  -21.6414 C   0  0  0  0  0  0  0  0  0  0  0  0
  -23.7159  -31.6236  -20.7579 O   0  0  0  0  0  0  0  0  0  0  0  0
  -25.9110  -31.0224  -21.6788 N   0  0  0  0  0  0  0  0  0  0  0  0
  -26.7178  -30.5718  -20.6797 C   0  0  0  0  0  0  0  0  0  0  0  0
  -28.0947  -30.3614  -20.6842 C   0  0  0  0  0  0  0  0  0  0  0  0
  -28.4386  -30.1089  -19.3631 C   0  0  0  0  0  0  0  0  0  0  0  0
  -29.8000  -29.9978  -18.8099 C   0  0  0  0  0  0  0  0  0  0  0  0
  -27.2390  -30.0564  -18.6541 N   0  0  0  0  0  0  0  0  0  0  0  0
  -26.8733  -30.0235  -17.2709 C   0  0  0  0  0  0  0  0  0  0  0  0
  -25.4857  -30.0992  -16.9787 C   0  0  0  0  0  0  0  0  0  0  0  0
  -25.0258  -30.4599  -15.7163 C   0  0  0  0  0  0  0  0  0  0  0  0
  -25.9448  -30.7444  -14.7251 C   0  0  0  0  0  0  0  0  0  0  0  0
  -27.3034  -30.5623  -14.9751 C   0  0  0  0  0  0  0  0  0  0  0  0
  -27.7632  -30.1615  -16.2158 C   0  0  0  0  0  0  0  0  0  0  0  0
  -29.0889  -30.0950  -16.3066 F   0  0  0  0  0  0  0  0  0  0  0  0
  -26.2109  -30.2348  -19.5107 N   0  0  0  0  0  0  0  0  0  0  0  0
  1  2  1  0
  2  3  1  0
  3  4  1  1
  3  5  1  0
  5  6  1  0
  6  7  1  0
  7  8  2  0
  7  9  1  0
  9 10  1  0
 10 11  1  0
 11 12  2  0
 12 13  1  0
 12 14  1  0
 14 15  1  0
 15 16  2  0
 16 17  1  0
 17 18  2  0
 18 19  1  0
 19 20  2  0
 20 21  1  0
 14 22  1  0
 22 10  2  0
 20 15  1  0
M  END
>  <id>  (317) 
321199

>  <inchikey>  (317) 
DKHOWEXPPOVNPP-NSHDSACASA-N

>  <alias>  (317) 
None

>  <smiles>  (317) 
CC[C@H](O)CNC(=O)Nc1cc(C)n(-c2ccccc2F)n1

>  <path>  (317) 
/opt/xchem-fragalysis-2/maxwin/RdRp_FFF/syndirella/mar_elabs/elabs_052/UIINRFUWBVLBNK-UHFFFAOYSA-N/output/UIINRFUWBVLBNK-UHFFFAOYSA-N-rm7FHC-497-A/UIINRFUWBVLBNK-UHFFFAOYSA-N-rm7FHC-497-A.minimised.mol

>  <distance_score>  (317) 
1.456793

>  <energy_score>  (317) 
-22.309412

>  <compound>  (317) 
DKHOWEXPPOVNPP-UHFFFAOYSA-N

>  <compound_id>  (317) 
156293

>  <target>  (317) 
Flavi_NS5_RdRp

>  <tags>  (317) 
[]

>  <inspirations>  (317) 
{P Ã— 2}

>  <subsites>  (317) 
None

>  <reference>  (317) 
z0211a

>  <SLURM_JOB_ID>  (317) 
nan

>  <SLURM_JOB_NAME>  (317) 
nan

>  <csv_name>  (317) 
nan

>  <scratch_subdir>  (317) 
nan

>  <fragmenstein_runtime>  (317) 
nan

>  <fragmenstein_outcome>  (317) 
nan

>  <fragmenstein_mode>  (317) 
nan

>  <fragmenstein_error>  (317) 
nan

>  <exports>  (317) 
nan

>  <Multi-SuCOS>  (317) 
nan

>  <merge_set>  (317) 
nan

$$$$
ALTHGENXWFACMO-LLVKDONJSA-N
     RDKit          3D

 22 23  0  0  0  0  0  0  0  0999 V2000
  -29.0586  -30.0407  -14.2029 C   0  0  0  0  0  0  0  0  0  0  0  0
  -27.8462  -30.4821  -14.7229 O   0  0  0  0  0  0  0  0  0  0  0  0
  -27.7351  -30.0287  -15.9976 C   0  0  0  0  0  0  0  0  0  0  0  0
  -28.8317  -29.6230  -16.7712 C   0  0  0  0  0  0  0  0  0  0  0  0
  -28.7114  -29.5142  -18.1251 C   0  0  0  0  0  0  0  0  0  0  0  0
  -27.4835  -29.7638  -18.6867 C   0  0  0  0  0  0  0  0  0  0  0  0
  -27.3710  -29.9842  -20.0605 N   0  0  0  0  0  0  0  0  0  0  0  0
  -26.2273  -30.5349  -20.4488 N   0  0  0  0  0  0  0  0  0  0  0  0
  -26.3183  -30.6571  -21.7526 C   0  0  0  0  0  0  0  0  0  0  0  0
  -25.2656  -31.2472  -22.3054 N   0  0  0  0  0  0  0  0  0  0  0  0
  -24.9601  -31.5578  -23.7668 C   0  0  0  0  0  0  0  0  0  0  0  0
  -25.5279  -31.2872  -24.7073 O   0  0  0  0  0  0  0  0  0  0  0  0
  -23.7245  -32.4213  -23.5778 N   0  0  0  0  0  0  0  0  0  0  0  0
  -22.8957  -33.0433  -24.5233 C   0  0  0  0  0  0  0  0  0  0  0  0
  -21.6278  -33.3851  -23.7428 C   0  0  1  0  0  0  0  0  0  0  0  0
  -20.4443  -33.0656  -24.5972 C   0  0  0  0  0  0  0  0  0  0  0  0
  -21.5257  -32.6501  -22.5052 O   0  0  0  0  0  0  0  0  0  0  0  0
  -27.5191  -30.1801  -22.2483 C   0  0  0  0  0  0  0  0  0  0  0  0
  -28.2450  -29.8371  -21.1242 C   0  0  0  0  0  0  0  0  0  0  0  0
  -29.6209  -29.3349  -21.0487 C   0  0  0  0  0  0  0  0  0  0  0  0
  -26.3368  -29.9691  -17.8844 C   0  0  0  0  0  0  0  0  0  0  0  0
  -26.4663  -30.1197  -16.5254 C   0  0  0  0  0  0  0  0  0  0  0  0
  1  2  1  0
  2  3  1  0
  3  4  2  0
  4  5  1  0
  5  6  2  0
  6  7  1  0
  7  8  1  0
  8  9  2  0
  9 10  1  0
 10 11  1  0
 11 12  2  0
 11 13  1  0
 13 14  1  0
 14 15  1  0
 15 16  1  6
 15 17  1  0
  9 18  1  0
 18 19  2  0
 19 20  1  0
  6 21  1  0
 21 22  2  0
 22  3  1  0
 19  7  1  0
M  END
>  <id>  (318) 
321312

>  <inchikey>  (318) 
ALTHGENXWFACMO-LLVKDONJSA-N

>  <alias>  (318) 
None

>  <smiles>  (318) 
COc1ccc(-n2nc(NC(=O)NC[C@@H](C)O)cc2C)cc1

>  <path>  (318) 
/opt/xchem-fragalysis-2/maxwin/RdRp_FFF/syndirella/mar_elabs/elabs_052/UIINRFUWBVLBNK-UHFFFAOYSA-N/output/UIINRFUWBVLBNK-UHFFFAOYSA-N-rm7FHC-951-B/UIINRFUWBVLBNK-UHFFFAOYSA-N-rm7FHC-951-B.minimised.mol

>  <distance_score>  (318) 
1.63191

>  <energy_score>  (318) 
-15.370741

>  <compound>  (318) 
ALTHGENXWFACMO-UHFFFAOYSA-N

>  <compound_id>  (318) 
155956

>  <target>  (318) 
Flavi_NS5_RdRp

>  <tags>  (318) 
[]

>  <inspirations>  (318) 
{P Ã— 2}

>  <subsites>  (318) 
None

>  <reference>  (318) 
z0211a

>  <SLURM_JOB_ID>  (318) 
nan

>  <SLURM_JOB_NAME>  (318) 
nan

>  <csv_name>  (318) 
nan

>  <scratch_subdir>  (318) 
nan

>  <fragmenstein_runtime>  (318) 
nan

>  <fragmenstein_outcome>  (318) 
nan

>  <fragmenstein_mode>  (318) 
nan

>  <fragmenstein_error>  (318) 
nan

>  <exports>  (318) 
nan

>  <Multi-SuCOS>  (318) 
nan

>  <merge_set>  (318) 
nan

$$$$
HTDQMZPPUCWYDC-GXTWGEPZSA-N
     RDKit          3D

 22 23  0  0  0  0  0  0  0  0999 V2000
  -24.4199  -34.5386  -23.7137 C   0  0  0  0  0  0  0  0  0  0  0  0
  -23.7455  -33.5085  -24.6134 C   0  0  0  0  0  0  0  0  0  0  0  0
  -23.1100  -32.2992  -23.9079 C   0  0  1  0  0  0  0  0  0  0  0  0
  -23.9029  -31.7927  -22.8282 N   0  0  0  0  0  0  0  0  0  0  0  0
  -25.2605  -31.0584  -22.8437 C   0  0  0  0  0  0  0  0  0  0  0  0
  -25.9597  -30.8274  -23.7073 O   0  0  0  0  0  0  0  0  0  0  0  0
  -25.4330  -30.8230  -21.3369 N   0  0  0  0  0  0  0  0  0  0  0  0
  -26.4881  -30.3662  -20.6420 C   0  0  0  0  0  0  0  0  0  0  0  0
  -27.8419  -30.2348  -20.9341 C   0  0  0  0  0  0  0  0  0  0  0  0
  -28.4491  -30.0280  -19.6983 C   0  0  0  0  0  0  0  0  0  0  0  0
  -29.8871  -30.1198  -19.3793 C   0  0  0  0  0  0  0  0  0  0  0  0
  -27.4060  -29.8571  -18.7896 N   0  0  0  0  0  0  0  0  0  0  0  0
  -27.3032  -29.8033  -17.3719 C   0  0  0  0  0  0  0  0  0  0  0  0
  -28.3908  -29.9235  -16.5160 C   0  0  0  0  0  0  0  0  0  0  0  0
  -28.1516  -30.3883  -15.2268 C   0  0  0  0  0  0  0  0  0  0  0  0
  -26.8552  -30.7261  -14.8257 C   0  0  0  0  0  0  0  0  0  0  0  0
  -25.7592  -30.3907  -15.5872 C   0  0  0  0  0  0  0  0  0  0  0  0
  -25.9855  -29.8941  -16.8507 C   0  0  0  0  0  0  0  0  0  0  0  0
  -26.2264  -29.9957  -19.4128 N   0  0  0  0  0  0  0  0  0  0  0  0
  -21.6447  -32.4566  -23.4560 C   0  0  2  0  0  0  0  0  0  0  0  0
  -21.3895  -33.6617  -22.5810 C   0  0  0  0  0  0  0  0  0  0  0  0
  -21.2117  -31.3276  -22.6897 O   0  0  0  0  0  0  0  0  0  0  0  0
  1  2  1  0
  3  2  1  1
  3  4  1  0
  4  5  1  0
  5  6  2  0
  5  7  1  0
  7  8  1  0
  8  9  1  0
  9 10  2  0
 10 11  1  0
 10 12  1  0
 12 13  1  0
 13 14  2  0
 14 15  1  0
 15 16  2  0
 16 17  1  0
 17 18  2  0
 12 19  1  0
  3 20  1  0
 20 21  1  1
 20 22  1  0
 19  8  2  0
 18 13  1  0
M  END
>  <id>  (319) 
321371

>  <inchikey>  (319) 
HTDQMZPPUCWYDC-GXTWGEPZSA-N

>  <alias>  (319) 
None

>  <smiles>  (319) 
CC[C@@H](NC(=O)Nc1cc(C)n(-c2ccccc2)n1)[C@H](C)O

>  <path>  (319) 
/opt/xchem-fragalysis-2/maxwin/RdRp_FFF/syndirella/mar_elabs/elabs_052/UIINRFUWBVLBNK-UHFFFAOYSA-N/output/UIINRFUWBVLBNK-UHFFFAOYSA-N-rm7FHC-1375-B/UIINRFUWBVLBNK-UHFFFAOYSA-N-rm7FHC-1375-B.minimised.mol

>  <distance_score>  (319) 
1.050229

>  <energy_score>  (319) 
-8.712673

>  <compound>  (319) 
HTDQMZPPUCWYDC-UHFFFAOYSA-N

>  <compound_id>  (319) 
156365

>  <target>  (319) 
Flavi_NS5_RdRp

>  <tags>  (319) 
[]

>  <inspirations>  (319) 
{P Ã— 2}

>  <subsites>  (319) 
None

>  <reference>  (319) 
z0211a

>  <SLURM_JOB_ID>  (319) 
nan

>  <SLURM_JOB_NAME>  (319) 
nan

>  <csv_name>  (319) 
nan

>  <scratch_subdir>  (319) 
nan

>  <fragmenstein_runtime>  (319) 
nan

>  <fragmenstein_outcome>  (319) 
nan

>  <fragmenstein_mode>  (319) 
nan

>  <fragmenstein_error>  (319) 
nan

>  <exports>  (319) 
nan

>  <Multi-SuCOS>  (319) 
nan

>  <merge_set>  (319) 
nan

$$$$
WDTWNQKCFMSBEP-LLVKDONJSA-N
     RDKit          3D

 22 23  0  0  0  0  0  0  0  0999 V2000
  -29.9978  -30.0931  -19.2113 C   0  0  0  0  0  0  0  0  0  0  0  0
  -28.5799  -29.9452  -19.5911 C   0  0  0  0  0  0  0  0  0  0  0  0
  -28.0339  -30.0645  -20.8664 C   0  0  0  0  0  0  0  0  0  0  0  0
  -26.6823  -30.2849  -20.6324 C   0  0  0  0  0  0  0  0  0  0  0  0
  -25.6974  -30.8145  -21.3712 N   0  0  0  0  0  0  0  0  0  0  0  0
  -25.5618  -30.9568  -22.8916 C   0  0  0  0  0  0  0  0  0  0  0  0
  -26.2306  -30.5779  -23.7274 O   0  0  0  0  0  0  0  0  0  0  0  0
  -24.3072  -31.8515  -22.9466 N   0  0  0  0  0  0  0  0  0  0  0  0
  -23.5896  -32.3695  -24.0657 C   0  0  0  0  0  0  0  0  0  0  0  0
  -22.1117  -32.0830  -23.8492 C   0  0  1  0  0  0  0  0  0  0  0  0
  -21.7497  -32.4194  -22.4866 O   0  0  0  0  0  0  0  0  0  0  0  0
  -21.2525  -32.8779  -24.7997 C   0  0  0  0  0  0  0  0  0  0  0  0
  -20.1359  -33.2841  -24.5208 O   0  0  0  0  0  0  0  0  0  0  0  0
  -21.7531  -33.1060  -26.0262 O   0  0  0  0  0  0  0  0  0  0  0  0
  -26.3506  -29.9907  -19.4004 N   0  0  0  0  0  0  0  0  0  0  0  0
  -27.4956  -29.8220  -18.7249 N   0  0  0  0  0  0  0  0  0  0  0  0
  -27.3225  -29.7968  -17.3147 C   0  0  0  0  0  0  0  0  0  0  0  0
  -25.9785  -29.8691  -16.8588 C   0  0  0  0  0  0  0  0  0  0  0  0
  -25.6786  -30.3582  -15.6075 C   0  0  0  0  0  0  0  0  0  0  0  0
  -26.7279  -30.7154  -14.7928 C   0  0  0  0  0  0  0  0  0  0  0  0
  -28.0508  -30.4168  -15.1395 C   0  0  0  0  0  0  0  0  0  0  0  0
  -28.3642  -29.9486  -16.4111 C   0  0  0  0  0  0  0  0  0  0  0  0
  1  2  1  0
  2  3  2  0
  3  4  1  0
  4  5  1  0
  5  6  1  0
  6  7  2  0
  6  8  1  0
  8  9  1  0
  9 10  1  0
 10 11  1  1
 10 12  1  0
 12 13  2  0
 12 14  1  0
  4 15  2  0
 15 16  1  0
 16 17  1  0
 17 18  2  0
 18 19  1  0
 19 20  2  0
 20 21  1  0
 21 22  2  0
 16  2  1  0
 22 17  1  0
M  END
>  <id>  (320) 
321461

>  <inchikey>  (320) 
WDTWNQKCFMSBEP-LLVKDONJSA-N

>  <alias>  (320) 
None

>  <smiles>  (320) 
Cc1cc(NC(=O)NC[C@@H](O)C(=O)O)nn1-c1ccccc1

>  <path>  (320) 
/opt/xchem-fragalysis-2/maxwin/RdRp_FFF/syndirella/mar_elabs/elabs_052/UIINRFUWBVLBNK-UHFFFAOYSA-N/output/UIINRFUWBVLBNK-UHFFFAOYSA-N-rm7FHC-1786-B/UIINRFUWBVLBNK-UHFFFAOYSA-N-rm7FHC-1786-B.minimised.mol

>  <distance_score>  (320) 
1.045643

>  <energy_score>  (320) 
-3.778984

>  <compound>  (320) 
WDTWNQKCFMSBEP-UHFFFAOYSA-N

>  <compound_id>  (320) 
156356

>  <target>  (320) 
Flavi_NS5_RdRp

>  <tags>  (320) 
[]

>  <inspirations>  (320) 
{P Ã— 2}

>  <subsites>  (320) 
None

>  <reference>  (320) 
z0211a

>  <SLURM_JOB_ID>  (320) 
nan

>  <SLURM_JOB_NAME>  (320) 
nan

>  <csv_name>  (320) 
nan

>  <scratch_subdir>  (320) 
nan

>  <fragmenstein_runtime>  (320) 
nan

>  <fragmenstein_outcome>  (320) 
nan

>  <fragmenstein_mode>  (320) 
nan

>  <fragmenstein_error>  (320) 
nan

>  <exports>  (320) 
nan

>  <Multi-SuCOS>  (320) 
nan

>  <merge_set>  (320) 
nan

$$$$
KKQLEZPADZIFJG-AAEUAGOBSA-N
     RDKit          3D

 22 23  0  0  0  0  0  0  0  0999 V2000
  -29.9120  -30.0972  -19.1478 C   0  0  0  0  0  0  0  0  0  0  0  0
  -28.4759  -29.9191  -19.4428 C   0  0  0  0  0  0  0  0  0  0  0  0
  -27.8442  -30.1612  -20.6573 C   0  0  0  0  0  0  0  0  0  0  0  0
  -26.4877  -30.1808  -20.3388 C   0  0  0  0  0  0  0  0  0  0  0  0
  -25.4328  -30.6883  -20.9914 N   0  0  0  0  0  0  0  0  0  0  0  0
  -25.3158  -31.2267  -22.4114 C   0  0  0  0  0  0  0  0  0  0  0  0
  -26.0726  -31.2473  -23.2485 O   0  0  0  0  0  0  0  0  0  0  0  0
  -23.9043  -31.8229  -22.3368 N   0  0  0  0  0  0  0  0  0  0  0  0
  -23.1917  -32.6523  -23.2734 C   0  0  1  0  0  0  0  0  0  0  0  0
  -23.8615  -32.6981  -24.6539 C   0  0  0  0  0  0  0  0  0  0  0  0
  -25.0927  -33.4229  -24.6156 O   0  0  0  0  0  0  0  0  0  0  0  0
  -21.7323  -32.1833  -23.3050 C   0  0  2  0  0  0  0  0  0  0  0  0
  -20.9022  -33.0646  -24.2099 C   0  0  0  0  0  0  0  0  0  0  0  0
  -21.1869  -32.2429  -21.9768 O   0  0  0  0  0  0  0  0  0  0  0  0
  -26.2612  -29.6635  -19.1586 N   0  0  0  0  0  0  0  0  0  0  0  0
  -27.4455  -29.6876  -18.5296 N   0  0  0  0  0  0  0  0  0  0  0  0
  -27.3423  -29.7599  -17.1183 C   0  0  0  0  0  0  0  0  0  0  0  0
  -26.0298  -29.9539  -16.6079 C   0  0  0  0  0  0  0  0  0  0  0  0
  -25.8332  -30.5956  -15.4061 C   0  0  0  0  0  0  0  0  0  0  0  0
  -26.9495  -30.9616  -14.6913 C   0  0  0  0  0  0  0  0  0  0  0  0
  -28.2224  -30.5087  -15.0563 C   0  0  0  0  0  0  0  0  0  0  0  0
  -28.4380  -29.9154  -16.2890 C   0  0  0  0  0  0  0  0  0  0  0  0
  1  2  1  0
  2  3  2  0
  3  4  1  0
  4  5  1  0
  5  6  1  0
  6  7  2  0
  6  8  1  0
  8  9  1  0
  9 10  1  6
 10 11  1  0
  9 12  1  0
 12 13  1  6
 12 14  1  0
  4 15  2  0
 15 16  1  0
 16 17  1  0
 17 18  2  0
 18 19  1  0
 19 20  2  0
 20 21  1  0
 21 22  2  0
 16  2  1  0
 22 17  1  0
M  END
>  <id>  (321) 
321466

>  <inchikey>  (321) 
KKQLEZPADZIFJG-AAEUAGOBSA-N

>  <alias>  (321) 
None

>  <smiles>  (321) 
Cc1cc(NC(=O)N[C@@H](CO)[C@H](C)O)nn1-c1ccccc1

>  <path>  (321) 
/opt/xchem-fragalysis-2/maxwin/RdRp_FFF/syndirella/mar_elabs/elabs_052/UIINRFUWBVLBNK-UHFFFAOYSA-N/output/UIINRFUWBVLBNK-UHFFFAOYSA-N-rm7FHC-1800-B/UIINRFUWBVLBNK-UHFFFAOYSA-N-rm7FHC-1800-B.minimised.mol

>  <distance_score>  (321) 
0.896692

>  <energy_score>  (321) 
-18.464747

>  <compound>  (321) 
KKQLEZPADZIFJG-UHFFFAOYSA-N

>  <compound_id>  (321) 
156322

>  <target>  (321) 
Flavi_NS5_RdRp

>  <tags>  (321) 
[]

>  <inspirations>  (321) 
{P Ã— 2}

>  <subsites>  (321) 
None

>  <reference>  (321) 
z0211a

>  <SLURM_JOB_ID>  (321) 
nan

>  <SLURM_JOB_NAME>  (321) 
nan

>  <csv_name>  (321) 
nan

>  <scratch_subdir>  (321) 
nan

>  <fragmenstein_runtime>  (321) 
nan

>  <fragmenstein_outcome>  (321) 
nan

>  <fragmenstein_mode>  (321) 
nan

>  <fragmenstein_error>  (321) 
nan

>  <exports>  (321) 
nan

>  <Multi-SuCOS>  (321) 
nan

>  <merge_set>  (321) 
nan

$$$$
DJSSVQPBDDDPBZ-GFCCVEGCSA-N
     RDKit          3D

 22 23  0  0  0  0  0  0  0  0999 V2000
  -29.9842  -29.9637  -20.4613 C   0  0  0  0  0  0  0  0  0  0  0  0
  -28.5197  -30.0988  -20.4612 C   0  0  0  0  0  0  0  0  0  0  0  0
  -27.6950  -30.2679  -21.5547 C   0  0  0  0  0  0  0  0  0  0  0  0
  -26.4416  -30.5635  -21.0260 C   0  0  0  0  0  0  0  0  0  0  0  0
  -25.3394  -30.9926  -21.6768 N   0  0  0  0  0  0  0  0  0  0  0  0
  -25.0520  -31.1134  -23.2043 C   0  0  0  0  0  0  0  0  0  0  0  0
  -25.6833  -30.7942  -24.1025 O   0  0  0  0  0  0  0  0  0  0  0  0
  -23.7010  -31.8883  -23.1472 N   0  0  0  0  0  0  0  0  0  0  0  0
  -22.8688  -32.3115  -24.1653 N   0  0  0  0  0  0  0  0  0  0  0  0
  -23.3437  -33.5731  -24.7227 C   0  0  0  0  0  0  0  0  0  0  0  0
  -21.5076  -32.4117  -23.5924 C   0  0  0  0  0  0  0  0  0  0  0  0
  -21.3596  -33.3191  -22.3370 C   0  0  1  0  0  0  0  0  0  0  0  0
  -19.9822  -33.1705  -21.7097 C   0  0  0  0  0  0  0  0  0  0  0  0
  -22.3174  -32.9702  -21.3170 O   0  0  0  0  0  0  0  0  0  0  0  0
  -26.4167  -30.4215  -19.7099 N   0  0  0  0  0  0  0  0  0  0  0  0
  -27.6836  -30.0988  -19.3506 N   0  0  0  0  0  0  0  0  0  0  0  0
  -27.9468  -29.9260  -17.9651 C   0  0  0  0  0  0  0  0  0  0  0  0
  -26.8523  -29.9046  -17.0754 C   0  0  0  0  0  0  0  0  0  0  0  0
  -27.0598  -29.9700  -15.7029 C   0  0  0  0  0  0  0  0  0  0  0  0
  -28.3582  -30.0213  -15.2143 C   0  0  0  0  0  0  0  0  0  0  0  0
  -29.4390  -29.9845  -16.0813 C   0  0  0  0  0  0  0  0  0  0  0  0
  -29.2415  -29.9233  -17.4510 C   0  0  0  0  0  0  0  0  0  0  0  0
  1  2  1  0
  2  3  2  0
  3  4  1  0
  4  5  1  0
  5  6  1  0
  6  7  2  0
  6  8  1  0
  8  9  1  0
  9 10  1  0
  9 11  1  0
 11 12  1  0
 12 13  1  1
 12 14  1  0
  4 15  2  0
 15 16  1  0
 16 17  1  0
 17 18  2  0
 18 19  1  0
 19 20  2  0
 20 21  1  0
 21 22  2  0
 16  2  1  0
 22 17  1  0
M  END
>  <id>  (322) 
321480

>  <inchikey>  (322) 
DJSSVQPBDDDPBZ-GFCCVEGCSA-N

>  <alias>  (322) 
None

>  <smiles>  (322) 
Cc1cc(NC(=O)NN(C)C[C@@H](C)O)nn1-c1ccccc1

>  <path>  (322) 
/opt/xchem-fragalysis-2/maxwin/RdRp_FFF/syndirella/mar_elabs/elabs_052/UIINRFUWBVLBNK-UHFFFAOYSA-N/output/UIINRFUWBVLBNK-UHFFFAOYSA-N-rm7FHC-1826-A/UIINRFUWBVLBNK-UHFFFAOYSA-N-rm7FHC-1826-A.minimised.mol

>  <distance_score>  (322) 
1.366558

>  <energy_score>  (322) 
-42.08272

>  <compound>  (322) 
DJSSVQPBDDDPBZ-UHFFFAOYSA-N

>  <compound_id>  (322) 
156360

>  <target>  (322) 
Flavi_NS5_RdRp

>  <tags>  (322) 
[]

>  <inspirations>  (322) 
{P Ã— 2}

>  <subsites>  (322) 
None

>  <reference>  (322) 
z0211a

>  <SLURM_JOB_ID>  (322) 
nan

>  <SLURM_JOB_NAME>  (322) 
nan

>  <csv_name>  (322) 
nan

>  <scratch_subdir>  (322) 
nan

>  <fragmenstein_runtime>  (322) 
nan

>  <fragmenstein_outcome>  (322) 
nan

>  <fragmenstein_mode>  (322) 
nan

>  <fragmenstein_error>  (322) 
nan

>  <exports>  (322) 
nan

>  <Multi-SuCOS>  (322) 
nan

>  <merge_set>  (322) 
nan

$$$$
HMXZGOQQIPAZJG-AWEZNQCLSA-N
     RDKit          3D

 22 23  0  0  0  0  0  0  0  0999 V2000
  -21.4868  -32.9666  -20.0031 C   0  0  0  0  0  0  0  0  0  0  0  0
  -21.8196  -33.9121  -21.1451 C   0  0  0  0  0  0  0  0  0  0  0  0
  -21.0927  -33.6114  -22.4623 C   0  0  0  0  0  0  0  0  0  0  0  0
  -21.3927  -32.3192  -23.2105 C   0  0  2  0  0  0  0  0  0  0  0  0
  -21.0598  -31.2092  -22.3902 O   0  0  0  0  0  0  0  0  0  0  0  0
  -22.8234  -32.2582  -23.7220 C   0  0  0  0  0  0  0  0  0  0  0  0
  -23.7205  -31.7957  -22.7180 N   0  0  0  0  0  0  0  0  0  0  0  0
  -25.0863  -31.1024  -22.8459 C   0  0  0  0  0  0  0  0  0  0  0  0
  -25.7106  -30.8760  -23.7659 O   0  0  0  0  0  0  0  0  0  0  0  0
  -25.4040  -30.8972  -21.3501 N   0  0  0  0  0  0  0  0  0  0  0  0
  -26.5323  -30.4819  -20.7489 C   0  0  0  0  0  0  0  0  0  0  0  0
  -27.7698  -30.2622  -21.3459 C   0  0  0  0  0  0  0  0  0  0  0  0
  -28.6466  -30.0950  -20.2970 C   0  0  0  0  0  0  0  0  0  0  0  0
  -30.1148  -30.0455  -20.3778 C   0  0  0  0  0  0  0  0  0  0  0  0
  -27.8604  -30.0416  -19.1506 N   0  0  0  0  0  0  0  0  0  0  0  0
  -28.1969  -29.9093  -17.7821 C   0  0  0  0  0  0  0  0  0  0  0  0
  -29.5139  -29.9568  -17.3507 C   0  0  0  0  0  0  0  0  0  0  0  0
  -29.7819  -30.0578  -16.0029 C   0  0  0  0  0  0  0  0  0  0  0  0
  -28.7560  -30.0764  -15.0721 C   0  0  0  0  0  0  0  0  0  0  0  0
  -27.4357  -29.9877  -15.4794 C   0  0  0  0  0  0  0  0  0  0  0  0
  -27.1530  -29.8862  -16.8327 C   0  0  0  0  0  0  0  0  0  0  0  0
  -26.5604  -30.2804  -19.4455 N   0  0  0  0  0  0  0  0  0  0  0  0
  1  2  1  0
  2  3  1  0
  3  4  1  0
  4  5  1  1
  4  6  1  0
  6  7  1  0
  7  8  1  0
  8  9  2  0
  8 10  1  0
 10 11  1  0
 11 12  1  0
 12 13  2  0
 13 14  1  0
 13 15  1  0
 15 16  1  0
 16 17  2  0
 17 18  1  0
 18 19  2  0
 19 20  1  0
 20 21  2  0
 15 22  1  0
 22 11  2  0
 21 16  1  0
M  END
>  <id>  (323) 
321497

>  <inchikey>  (323) 
HMXZGOQQIPAZJG-AWEZNQCLSA-N

>  <alias>  (323) 
None

>  <smiles>  (323) 
CCC[C@H](O)CNC(=O)Nc1cc(C)n(-c2ccccc2)n1

>  <path>  (323) 
/opt/xchem-fragalysis-2/maxwin/RdRp_FFF/syndirella/mar_elabs/elabs_052/UIINRFUWBVLBNK-UHFFFAOYSA-N/output/UIINRFUWBVLBNK-UHFFFAOYSA-N-rm7FHC-1863-A/UIINRFUWBVLBNK-UHFFFAOYSA-N-rm7FHC-1863-A.minimised.mol

>  <distance_score>  (323) 
1.115005

>  <energy_score>  (323) 
-27.17297

>  <compound>  (323) 
HMXZGOQQIPAZJG-UHFFFAOYSA-N

>  <compound_id>  (323) 
156336

>  <target>  (323) 
Flavi_NS5_RdRp

>  <tags>  (323) 
[]

>  <inspirations>  (323) 
{P Ã— 2}

>  <subsites>  (323) 
None

>  <reference>  (323) 
z0211a

>  <SLURM_JOB_ID>  (323) 
nan

>  <SLURM_JOB_NAME>  (323) 
nan

>  <csv_name>  (323) 
nan

>  <scratch_subdir>  (323) 
nan

>  <fragmenstein_runtime>  (323) 
nan

>  <fragmenstein_outcome>  (323) 
nan

>  <fragmenstein_mode>  (323) 
nan

>  <fragmenstein_error>  (323) 
nan

>  <exports>  (323) 
nan

>  <Multi-SuCOS>  (323) 
nan

>  <merge_set>  (323) 
nan

$$$$
UVHCCUANUWICRD-NSHDSACASA-N
     RDKit          3D

 22 23  0  0  0  0  0  0  0  0999 V2000
  -21.0084  -33.1077  -18.8375 C   0  0  0  0  0  0  0  0  0  0  0  0
  -21.5030  -33.2755  -20.1569 O   0  0  0  0  0  0  0  0  0  0  0  0
  -20.6183  -32.7814  -21.1911 C   0  0  1  0  0  0  0  0  0  0  0  0
  -19.4442  -33.7262  -21.3002 C   0  0  0  0  0  0  0  0  0  0  0  0
  -21.5347  -32.5803  -22.4421 C   0  0  0  0  0  0  0  0  0  0  0  0
  -21.2001  -32.8863  -23.9310 S   0  0  0  0  0  0  0  0  0  0  0  0
  -22.8293  -31.9872  -21.7335 N   0  0  0  0  0  0  0  0  0  0  0  0
  -24.2900  -31.5933  -22.2804 C   0  0  0  0  0  0  0  0  0  0  0  0
  -24.7279  -31.5718  -23.3438 O   0  0  0  0  0  0  0  0  0  0  0  0
  -24.8993  -31.2623  -20.9985 N   0  0  0  0  0  0  0  0  0  0  0  0
  -26.1064  -30.7582  -20.7073 C   0  0  0  0  0  0  0  0  0  0  0  0
  -27.2145  -30.4991  -21.5046 C   0  0  0  0  0  0  0  0  0  0  0  0
  -28.1723  -30.0217  -20.6297 C   0  0  0  0  0  0  0  0  0  0  0  0
  -29.5103  -29.5058  -20.9533 C   0  0  0  0  0  0  0  0  0  0  0  0
  -27.5923  -30.0462  -19.3678 N   0  0  0  0  0  0  0  0  0  0  0  0
  -28.1154  -29.8636  -18.0606 C   0  0  0  0  0  0  0  0  0  0  0  0
  -29.4811  -29.8923  -17.7974 C   0  0  0  0  0  0  0  0  0  0  0  0
  -29.9191  -29.9524  -16.4775 C   0  0  0  0  0  0  0  0  0  0  0  0
  -29.0058  -29.9814  -15.4242 C   0  0  0  0  0  0  0  0  0  0  0  0
  -27.6456  -29.9058  -15.6730 C   0  0  0  0  0  0  0  0  0  0  0  0
  -27.2010  -29.8278  -16.9846 C   0  0  0  0  0  0  0  0  0  0  0  0
  -26.2963  -30.3977  -19.4522 N   0  0  0  0  0  0  0  0  0  0  0  0
  1  2  1  0
  2  3  1  0
  3  4  1  6
  3  5  1  0
  5  6  2  0
  5  7  1  0
  7  8  1  0
  8  9  2  0
  8 10  1  0
 10 11  1  0
 11 12  1  0
 12 13  2  0
 13 14  1  0
 13 15  1  0
 15 16  1  0
 16 17  2  0
 17 18  1  0
 18 19  2  0
 19 20  1  0
 20 21  2  0
 15 22  1  0
 22 11  2  0
 21 16  1  0
M  END
>  <id>  (324) 
321507

>  <inchikey>  (324) 
UVHCCUANUWICRD-NSHDSACASA-N

>  <alias>  (324) 
None

>  <smiles>  (324) 
CO[C@@H](C)C(=S)NC(=O)Nc1cc(C)n(-c2ccccc2)n1

>  <path>  (324) 
/opt/xchem-fragalysis-2/maxwin/RdRp_FFF/syndirella/mar_elabs/elabs_052/UIINRFUWBVLBNK-UHFFFAOYSA-N/output/UIINRFUWBVLBNK-UHFFFAOYSA-N-rm7FHC-1892-B/UIINRFUWBVLBNK-UHFFFAOYSA-N-rm7FHC-1892-B.minimised.mol

>  <distance_score>  (324) 
1.690713

>  <energy_score>  (324) 
-42.225157

>  <compound>  (324) 
UVHCCUANUWICRD-UHFFFAOYSA-N

>  <compound_id>  (324) 
156368

>  <target>  (324) 
Flavi_NS5_RdRp

>  <tags>  (324) 
[]

>  <inspirations>  (324) 
{P Ã— 2}

>  <subsites>  (324) 
None

>  <reference>  (324) 
z0211a

>  <SLURM_JOB_ID>  (324) 
nan

>  <SLURM_JOB_NAME>  (324) 
nan

>  <csv_name>  (324) 
nan

>  <scratch_subdir>  (324) 
nan

>  <fragmenstein_runtime>  (324) 
nan

>  <fragmenstein_outcome>  (324) 
nan

>  <fragmenstein_mode>  (324) 
nan

>  <fragmenstein_error>  (324) 
nan

>  <exports>  (324) 
nan

>  <Multi-SuCOS>  (324) 
nan

>  <merge_set>  (324) 
nan

$$$$
MAXPZWSXFDDQEL-LBPRGKRZSA-N
     RDKit          3D

 23 24  0  0  0  0  0  0  0  0999 V2000
  -25.8579  -31.9344  -13.9315 C   0  0  0  0  0  0  0  0  0  0  0  0
  -27.1902  -31.4554  -14.1418 O   0  0  0  0  0  0  0  0  0  0  0  0
  -27.3474  -30.5379  -15.1350 C   0  0  0  0  0  0  0  0  0  0  0  0
  -28.6642  -30.2983  -15.5436 C   0  0  0  0  0  0  0  0  0  0  0  0
  -28.9244  -29.8322  -16.8271 C   0  0  0  0  0  0  0  0  0  0  0  0
  -27.8289  -29.5954  -17.6398 C   0  0  0  0  0  0  0  0  0  0  0  0
  -27.8450  -29.7593  -19.0444 N   0  0  0  0  0  0  0  0  0  0  0  0
  -26.6390  -30.0680  -19.5557 N   0  0  0  0  0  0  0  0  0  0  0  0
  -26.8250  -30.2894  -20.8323 C   0  0  0  0  0  0  0  0  0  0  0  0
  -25.7762  -30.8080  -21.4843 N   0  0  0  0  0  0  0  0  0  0  0  0
  -25.5039  -30.9346  -22.9888 C   0  0  0  0  0  0  0  0  0  0  0  0
  -26.0965  -30.5493  -23.8774 O   0  0  0  0  0  0  0  0  0  0  0  0
  -24.2462  -31.8242  -22.9398 N   0  0  0  0  0  0  0  0  0  0  0  0
  -23.4323  -32.3266  -23.9912 C   0  0  0  0  0  0  0  0  0  0  0  0
  -21.9529  -32.0464  -23.7057 C   0  0  1  0  0  0  0  0  0  0  0  0
  -21.7147  -31.9216  -22.2898 O   0  0  0  0  0  0  0  0  0  0  0  0
  -21.1023  -33.1816  -24.2441 C   0  0  0  0  0  0  0  0  0  0  0  0
  -21.2340  -33.3552  -26.0177 Cl  0  0  0  0  0  0  0  0  0  0  0  0
  -28.1284  -30.0054  -21.2169 C   0  0  0  0  0  0  0  0  0  0  0  0
  -28.8223  -29.9278  -20.0144 C   0  0  0  0  0  0  0  0  0  0  0  0
  -30.2673  -30.1069  -19.7894 C   0  0  0  0  0  0  0  0  0  0  0  0
  -26.5404  -29.4808  -17.0729 C   0  0  0  0  0  0  0  0  0  0  0  0
  -26.2908  -29.9820  -15.8217 C   0  0  0  0  0  0  0  0  0  0  0  0
  1  2  1  0
  2  3  1  0
  3  4  2  0
  4  5  1  0
  5  6  2  0
  6  7  1  0
  7  8  1  0
  8  9  2  0
  9 10  1  0
 10 11  1  0
 11 12  2  0
 11 13  1  0
 13 14  1  0
 14 15  1  0
 15 16  1  1
 15 17  1  0
 17 18  1  0
  9 19  1  0
 19 20  2  0
 20 21  1  0
  6 22  1  0
 22 23  2  0
 23  3  1  0
 20  7  1  0
M  END
>  <id>  (325) 
321584

>  <inchikey>  (325) 
MAXPZWSXFDDQEL-LBPRGKRZSA-N

>  <alias>  (325) 
None

>  <smiles>  (325) 
COc1ccc(-n2nc(NC(=O)NC[C@@H](O)CCl)cc2C)cc1

>  <path>  (325) 
/opt/xchem-fragalysis-2/maxwin/RdRp_FFF/syndirella/mar_elabs/elabs_052/UIINRFUWBVLBNK-UHFFFAOYSA-N/output/UIINRFUWBVLBNK-UHFFFAOYSA-N-rm7FHC-2383-B/UIINRFUWBVLBNK-UHFFFAOYSA-N-rm7FHC-2383-B.minimised.mol

>  <distance_score>  (325) 
0.948911

>  <energy_score>  (325) 
-1.886222

>  <compound>  (325) 
MAXPZWSXFDDQEL-UHFFFAOYSA-N

>  <compound_id>  (325) 
156706

>  <target>  (325) 
Flavi_NS5_RdRp

>  <tags>  (325) 
[]

>  <inspirations>  (325) 
{P Ã— 2}

>  <subsites>  (325) 
None

>  <reference>  (325) 
z0211a

>  <SLURM_JOB_ID>  (325) 
nan

>  <SLURM_JOB_NAME>  (325) 
nan

>  <csv_name>  (325) 
nan

>  <scratch_subdir>  (325) 
nan

>  <fragmenstein_runtime>  (325) 
nan

>  <fragmenstein_outcome>  (325) 
nan

>  <fragmenstein_mode>  (325) 
nan

>  <fragmenstein_error>  (325) 
nan

>  <exports>  (325) 
nan

>  <Multi-SuCOS>  (325) 
nan

>  <merge_set>  (325) 
nan

$$$$
WMMLTFDHUAINJX-GFCCVEGCSA-N
     RDKit          3D

 21 22  0  0  0  0  0  0  0  0999 V2000
  -30.0058  -30.1167  -19.2716 C   0  0  0  0  0  0  0  0  0  0  0  0
  -28.5820  -29.9669  -19.6279 C   0  0  0  0  0  0  0  0  0  0  0  0
  -28.0092  -30.1119  -20.8895 C   0  0  0  0  0  0  0  0  0  0  0  0
  -26.6575  -30.2902  -20.6281 C   0  0  0  0  0  0  0  0  0  0  0  0
  -25.6295  -30.7835  -21.3326 N   0  0  0  0  0  0  0  0  0  0  0  0
  -25.4497  -30.9479  -22.8469 C   0  0  0  0  0  0  0  0  0  0  0  0
  -26.1158  -30.6193  -23.7057 O   0  0  0  0  0  0  0  0  0  0  0  0
  -24.1512  -31.7784  -22.8541 N   0  0  0  0  0  0  0  0  0  0  0  0
  -23.3819  -32.2802  -23.9444 C   0  0  0  0  0  0  0  0  0  0  0  0
  -21.8932  -32.0174  -23.6764 C   0  0  1  0  0  0  0  0  0  0  0  0
  -21.6303  -31.9029  -22.2650 O   0  0  0  0  0  0  0  0  0  0  0  0
  -21.0592  -33.1529  -24.2408 C   0  0  0  0  0  0  0  0  0  0  0  0
  -21.1029  -33.1803  -25.6655 O   0  0  0  0  0  0  0  0  0  0  0  0
  -26.3567  -29.9494  -19.4001 N   0  0  0  0  0  0  0  0  0  0  0  0
  -27.5157  -29.8167  -18.7427 N   0  0  0  0  0  0  0  0  0  0  0  0
  -27.3671  -29.7885  -17.3297 C   0  0  0  0  0  0  0  0  0  0  0  0
  -28.4247  -29.9311  -16.4432 C   0  0  0  0  0  0  0  0  0  0  0  0
  -28.1370  -30.4062  -15.1683 C   0  0  0  0  0  0  0  0  0  0  0  0
  -26.8243  -30.7300  -14.8075 C   0  0  0  0  0  0  0  0  0  0  0  0
  -25.7575  -30.3770  -15.6006 C   0  0  0  0  0  0  0  0  0  0  0  0
  -26.0313  -29.8726  -16.8515 C   0  0  0  0  0  0  0  0  0  0  0  0
  1  2  1  0
  2  3  2  0
  3  4  1  0
  4  5  1  0
  5  6  1  0
  6  7  2  0
  6  8  1  0
  8  9  1  0
  9 10  1  0
 10 11  1  1
 10 12  1  0
 12 13  1  0
  4 14  2  0
 14 15  1  0
 15 16  1  0
 16 17  2  0
 17 18  1  0
 18 19  2  0
 19 20  1  0
 20 21  2  0
 15  2  1  0
 21 16  1  0
M  END
>  <id>  (326) 
321975

>  <inchikey>  (326) 
WMMLTFDHUAINJX-GFCCVEGCSA-N

>  <alias>  (326) 
None

>  <smiles>  (326) 
Cc1cc(NC(=O)NC[C@@H](O)CO)nn1-c1ccccc1

>  <path>  (326) 
/opt/xchem-fragalysis-2/maxwin/RdRp_FFF/syndirella/mar_elabs/elabs_052/UIINRFUWBVLBNK-UHFFFAOYSA-N/output/UIINRFUWBVLBNK-UHFFFAOYSA-N-8PUqGP-54-B/UIINRFUWBVLBNK-UHFFFAOYSA-N-8PUqGP-54-B.minimised.mol

>  <distance_score>  (326) 
0.947516

>  <energy_score>  (326) 
-5.513967

>  <compound>  (326) 
WMMLTFDHUAINJX-UHFFFAOYSA-N

>  <compound_id>  (326) 
155429

>  <target>  (326) 
Flavi_NS5_RdRp

>  <tags>  (326) 
[]

>  <inspirations>  (326) 
{P Ã— 2}

>  <subsites>  (326) 
None

>  <reference>  (326) 
z0211a

>  <SLURM_JOB_ID>  (326) 
nan

>  <SLURM_JOB_NAME>  (326) 
nan

>  <csv_name>  (326) 
nan

>  <scratch_subdir>  (326) 
nan

>  <fragmenstein_runtime>  (326) 
nan

>  <fragmenstein_outcome>  (326) 
nan

>  <fragmenstein_mode>  (326) 
nan

>  <fragmenstein_error>  (326) 
nan

>  <exports>  (326) 
nan

>  <Multi-SuCOS>  (326) 
nan

>  <merge_set>  (326) 
nan

$$$$
KHPRJIVRLWOPAD-CYBMUJFWSA-N
     RDKit          3D

 21 22  0  0  0  0  0  0  0  0999 V2000
  -20.2829  -33.1500  -23.1447 C   0  0  0  0  0  0  0  0  0  0  0  0
  -21.4647  -32.7853  -24.0163 C   0  0  0  0  0  0  0  0  0  0  0  0
  -22.6211  -32.4847  -23.1008 C   0  0  1  0  0  0  0  0  0  0  0  0
  -22.1983  -31.4991  -22.1375 O   0  0  0  0  0  0  0  0  0  0  0  0
  -23.9068  -32.0216  -23.7875 C   0  0  0  0  0  0  0  0  0  0  0  0
  -24.7009  -31.5561  -22.7015 N   0  0  0  0  0  0  0  0  0  0  0  0
  -25.9926  -30.7323  -22.6972 C   0  0  0  0  0  0  0  0  0  0  0  0
  -26.6392  -30.3771  -23.5579 O   0  0  0  0  0  0  0  0  0  0  0  0
  -26.2036  -30.6187  -21.1921 N   0  0  0  0  0  0  0  0  0  0  0  0
  -27.1556  -29.9974  -20.4972 C   0  0  0  0  0  0  0  0  0  0  0  0
  -28.5164  -29.8329  -20.6654 C   0  0  0  0  0  0  0  0  0  0  0  0
  -28.9731  -29.7984  -19.3484 C   0  0  0  0  0  0  0  0  0  0  0  0
  -30.3320  -30.1236  -18.8876 C   0  0  0  0  0  0  0  0  0  0  0  0
  -27.8429  -29.6326  -18.5492 N   0  0  0  0  0  0  0  0  0  0  0  0
  -27.5529  -29.7569  -17.1686 C   0  0  0  0  0  0  0  0  0  0  0  0
  -26.1767  -29.9080  -16.8305 C   0  0  0  0  0  0  0  0  0  0  0  0
  -25.7911  -30.4738  -15.6352 C   0  0  0  0  0  0  0  0  0  0  0  0
  -26.7823  -30.8357  -14.7547 C   0  0  0  0  0  0  0  0  0  0  0  0
  -28.1192  -30.4876  -14.9913 C   0  0  0  0  0  0  0  0  0  0  0  0
  -28.5234  -29.9484  -16.2044 C   0  0  0  0  0  0  0  0  0  0  0  0
  -26.7578  -29.5915  -19.3183 N   0  0  0  0  0  0  0  0  0  0  0  0
  1  2  1  0
  2  3  1  0
  3  4  1  1
  3  5  1  0
  5  6  1  0
  6  7  1  0
  7  8  2  0
  7  9  1  0
  9 10  1  0
 10 11  1  0
 11 12  2  0
 12 13  1  0
 12 14  1  0
 14 15  1  0
 15 16  2  0
 16 17  1  0
 17 18  2  0
 18 19  1  0
 19 20  2  0
 14 21  1  0
 21 10  2  0
 20 15  1  0
M  END
>  <id>  (327) 
321977

>  <inchikey>  (327) 
KHPRJIVRLWOPAD-CYBMUJFWSA-N

>  <alias>  (327) 
None

>  <smiles>  (327) 
CC[C@@H](O)CNC(=O)Nc1cc(C)n(-c2ccccc2)n1

>  <path>  (327) 
/opt/xchem-fragalysis-2/maxwin/RdRp_FFF/syndirella/mar_elabs/elabs_052/UIINRFUWBVLBNK-UHFFFAOYSA-N/output/UIINRFUWBVLBNK-UHFFFAOYSA-N-8PUqGP-64-B/UIINRFUWBVLBNK-UHFFFAOYSA-N-8PUqGP-64-B.minimised.mol

>  <distance_score>  (327) 
0.938749

>  <energy_score>  (327) 
-11.458625

>  <compound>  (327) 
KHPRJIVRLWOPAD-UHFFFAOYSA-N

>  <compound_id>  (327) 
155428

>  <target>  (327) 
Flavi_NS5_RdRp

>  <tags>  (327) 
[]

>  <inspirations>  (327) 
{P Ã— 2}

>  <subsites>  (327) 
None

>  <reference>  (327) 
z0211a

>  <SLURM_JOB_ID>  (327) 
nan

>  <SLURM_JOB_NAME>  (327) 
nan

>  <csv_name>  (327) 
nan

>  <scratch_subdir>  (327) 
nan

>  <fragmenstein_runtime>  (327) 
nan

>  <fragmenstein_outcome>  (327) 
nan

>  <fragmenstein_mode>  (327) 
nan

>  <fragmenstein_error>  (327) 
nan

>  <exports>  (327) 
nan

>  <Multi-SuCOS>  (327) 
nan

>  <merge_set>  (327) 
nan

$$$$
DUPOIVNXWSOZKH-DGCLKSJQSA-N
     RDKit          3D

 22 23  0  0  0  0  0  0  0  0999 V2000
  -30.1757  -30.1103  -20.2404 C   0  0  0  0  0  0  0  0  0  0  0  0
  -28.7041  -30.0540  -20.2341 C   0  0  0  0  0  0  0  0  0  0  0  0
  -27.8671  -30.1575  -21.3257 C   0  0  0  0  0  0  0  0  0  0  0  0
  -26.6154  -30.4197  -20.7786 C   0  0  0  0  0  0  0  0  0  0  0  0
  -25.5321  -30.9033  -21.4028 N   0  0  0  0  0  0  0  0  0  0  0  0
  -25.2387  -31.0713  -22.9030 C   0  0  0  0  0  0  0  0  0  0  0  0
  -25.8435  -30.7537  -23.8085 O   0  0  0  0  0  0  0  0  0  0  0  0
  -23.9373  -31.8844  -22.8127 N   0  0  0  0  0  0  0  0  0  0  0  0
  -23.1847  -32.5420  -23.8327 C   0  0  2  0  0  0  0  0  0  0  0  0
  -23.8768  -33.8461  -24.2272 C   0  0  0  0  0  0  0  0  0  0  0  0
  -21.7503  -32.7521  -23.3454 C   0  0  2  0  0  0  0  0  0  0  0  0
  -21.3702  -31.7325  -22.4024 O   0  0  0  0  0  0  0  0  0  0  0  0
  -20.7342  -32.7549  -24.4831 C   0  0  0  0  0  0  0  0  0  0  0  0
  -21.1546  -33.3640  -25.6991 O   0  0  0  0  0  0  0  0  0  0  0  0
  -26.5868  -30.2384  -19.4761 N   0  0  0  0  0  0  0  0  0  0  0  0
  -27.8659  -29.9868  -19.1252 N   0  0  0  0  0  0  0  0  0  0  0  0
  -28.1235  -29.8655  -17.7423 C   0  0  0  0  0  0  0  0  0  0  0  0
  -29.4132  -29.8993  -17.2381 C   0  0  0  0  0  0  0  0  0  0  0  0
  -29.5944  -30.0637  -15.8838 C   0  0  0  0  0  0  0  0  0  0  0  0
  -28.5132  -30.1389  -15.0217 C   0  0  0  0  0  0  0  0  0  0  0  0
  -27.2174  -30.0336  -15.4970 C   0  0  0  0  0  0  0  0  0  0  0  0
  -27.0212  -29.8804  -16.8585 C   0  0  0  0  0  0  0  0  0  0  0  0
  1  2  1  0
  2  3  2  0
  3  4  1  0
  4  5  1  0
  5  6  1  0
  6  7  2  0
  6  8  1  0
  8  9  1  0
  9 10  1  1
  9 11  1  0
 11 12  1  1
 11 13  1  0
 13 14  1  0
  4 15  2  0
 15 16  1  0
 16 17  1  0
 17 18  2  0
 18 19  1  0
 19 20  2  0
 20 21  1  0
 21 22  2  0
 16  2  1  0
 22 17  1  0
M  END
>  <id>  (328) 
322017

>  <inchikey>  (328) 
DUPOIVNXWSOZKH-DGCLKSJQSA-N

>  <alias>  (328) 
None

>  <smiles>  (328) 
Cc1cc(NC(=O)N[C@H](C)[C@H](O)CO)nn1-c1ccccc1

>  <path>  (328) 
/opt/xchem-fragalysis-2/maxwin/RdRp_FFF/syndirella/mar_elabs/elabs_052/UIINRFUWBVLBNK-UHFFFAOYSA-N/output/UIINRFUWBVLBNK-UHFFFAOYSA-N-8PUqGP-275-A/UIINRFUWBVLBNK-UHFFFAOYSA-N-8PUqGP-275-A.minimised.mol

>  <distance_score>  (328) 
0.942725

>  <energy_score>  (328) 
-17.5578

>  <compound>  (328) 
DUPOIVNXWSOZKH-UHFFFAOYSA-N

>  <compound_id>  (328) 
156359

>  <target>  (328) 
Flavi_NS5_RdRp

>  <tags>  (328) 
[]

>  <inspirations>  (328) 
{P Ã— 2}

>  <subsites>  (328) 
None

>  <reference>  (328) 
z0211a

>  <SLURM_JOB_ID>  (328) 
nan

>  <SLURM_JOB_NAME>  (328) 
nan

>  <csv_name>  (328) 
nan

>  <scratch_subdir>  (328) 
nan

>  <fragmenstein_runtime>  (328) 
nan

>  <fragmenstein_outcome>  (328) 
nan

>  <fragmenstein_mode>  (328) 
nan

>  <fragmenstein_error>  (328) 
nan

>  <exports>  (328) 
nan

>  <Multi-SuCOS>  (328) 
nan

>  <merge_set>  (328) 
nan

$$$$
CTVFUVKVAKEAJR-ZDUSSCGKSA-N
     RDKit          3D

 22 23  0  0  0  0  0  0  0  0999 V2000
  -22.7354  -34.7252  -25.8887 C   0  0  0  0  0  0  0  0  0  0  0  0
  -21.4919  -33.4521  -26.2298 S   0  0  0  0  0  0  0  0  0  0  0  0
  -20.9773  -32.9756  -24.5326 C   0  0  0  0  0  0  0  0  0  0  0  0
  -22.0437  -32.8556  -23.4491 C   0  0  1  0  0  0  0  0  0  0  0  0
  -21.4096  -32.4685  -22.2133 O   0  0  0  0  0  0  0  0  0  0  0  0
  -23.0532  -31.7898  -23.8367 C   0  0  0  0  0  0  0  0  0  0  0  0
  -23.9063  -31.4608  -22.7524 N   0  0  0  0  0  0  0  0  0  0  0  0
  -25.3449  -30.9149  -22.7461 C   0  0  0  0  0  0  0  0  0  0  0  0
  -26.0617  -30.7282  -23.6043 O   0  0  0  0  0  0  0  0  0  0  0  0
  -25.5530  -30.7821  -21.2358 N   0  0  0  0  0  0  0  0  0  0  0  0
  -26.6045  -30.3275  -20.5403 C   0  0  0  0  0  0  0  0  0  0  0  0
  -27.9603  -30.2137  -20.8164 C   0  0  0  0  0  0  0  0  0  0  0  0
  -28.5488  -30.0042  -19.5725 C   0  0  0  0  0  0  0  0  0  0  0  0
  -29.9792  -30.1307  -19.2336 C   0  0  0  0  0  0  0  0  0  0  0  0
  -27.4913  -29.8227  -18.6812 N   0  0  0  0  0  0  0  0  0  0  0  0
  -27.3578  -29.8124  -17.2669 C   0  0  0  0  0  0  0  0  0  0  0  0
  -28.4314  -29.9273  -16.3975 C   0  0  0  0  0  0  0  0  0  0  0  0
  -28.1801  -30.4396  -15.1311 C   0  0  0  0  0  0  0  0  0  0  0  0
  -26.8887  -30.8366  -14.7659 C   0  0  0  0  0  0  0  0  0  0  0  0
  -25.7966  -30.5094  -15.5350 C   0  0  0  0  0  0  0  0  0  0  0  0
  -26.0320  -29.9614  -16.7754 C   0  0  0  0  0  0  0  0  0  0  0  0
  -26.3236  -29.9101  -19.3312 N   0  0  0  0  0  0  0  0  0  0  0  0
  1  2  1  0
  2  3  1  0
  3  4  1  0
  4  5  1  1
  4  6  1  0
  6  7  1  0
  7  8  1  0
  8  9  2  0
  8 10  1  0
 10 11  1  0
 11 12  1  0
 12 13  2  0
 13 14  1  0
 13 15  1  0
 15 16  1  0
 16 17  2  0
 17 18  1  0
 18 19  2  0
 19 20  1  0
 20 21  2  0
 15 22  1  0
 22 11  2  0
 21 16  1  0
M  END
>  <id>  (329) 
322055

>  <inchikey>  (329) 
CTVFUVKVAKEAJR-ZDUSSCGKSA-N

>  <alias>  (329) 
None

>  <smiles>  (329) 
CSC[C@@H](O)CNC(=O)Nc1cc(C)n(-c2ccccc2)n1

>  <path>  (329) 
/opt/xchem-fragalysis-2/maxwin/RdRp_FFF/syndirella/mar_elabs/elabs_052/UIINRFUWBVLBNK-UHFFFAOYSA-N/output/UIINRFUWBVLBNK-UHFFFAOYSA-N-8PUqGP-406-B/UIINRFUWBVLBNK-UHFFFAOYSA-N-8PUqGP-406-B.minimised.mol

>  <distance_score>  (329) 
1.021477

>  <energy_score>  (329) 
-19.075719

>  <compound>  (329) 
CTVFUVKVAKEAJR-UHFFFAOYSA-N

>  <compound_id>  (329) 
156041

>  <target>  (329) 
Flavi_NS5_RdRp

>  <tags>  (329) 
[]

>  <inspirations>  (329) 
{P Ã— 2}

>  <subsites>  (329) 
None

>  <reference>  (329) 
z0211a

>  <SLURM_JOB_ID>  (329) 
nan

>  <SLURM_JOB_NAME>  (329) 
nan

>  <csv_name>  (329) 
nan

>  <scratch_subdir>  (329) 
nan

>  <fragmenstein_runtime>  (329) 
nan

>  <fragmenstein_outcome>  (329) 
nan

>  <fragmenstein_mode>  (329) 
nan

>  <fragmenstein_error>  (329) 
nan

>  <exports>  (329) 
nan

>  <Multi-SuCOS>  (329) 
nan

>  <merge_set>  (329) 
nan

$$$$
WSZSTQCTNLRVTN-TZMCWYRMSA-N
     RDKit          3D

 22 23  0  0  0  0  0  0  0  0999 V2000
  -20.9106  -33.0406  -25.5212 C   0  0  0  0  0  0  0  0  0  0  0  0
  -21.0170  -33.3957  -24.0486 C   0  0  0  0  0  0  0  0  0  0  0  0
  -21.8586  -32.4692  -23.2078 C   0  0  1  0  0  0  0  0  0  0  0  0
  -21.1708  -31.2327  -23.0765 O   0  0  0  0  0  0  0  0  0  0  0  0
  -23.2795  -32.3046  -23.7553 C   0  0  1  0  0  0  0  0  0  0  0  0
  -23.9865  -33.6200  -24.0994 C   0  0  0  0  0  0  0  0  0  0  0  0
  -24.0515  -31.6524  -22.7483 N   0  0  0  0  0  0  0  0  0  0  0  0
  -25.3799  -30.8982  -22.8497 C   0  0  0  0  0  0  0  0  0  0  0  0
  -26.0018  -30.6289  -23.7570 O   0  0  0  0  0  0  0  0  0  0  0  0
  -25.6686  -30.7054  -21.3586 N   0  0  0  0  0  0  0  0  0  0  0  0
  -26.7616  -30.2525  -20.7406 C   0  0  0  0  0  0  0  0  0  0  0  0
  -28.0273  -30.0335  -21.2666 C   0  0  0  0  0  0  0  0  0  0  0  0
  -28.8465  -29.9992  -20.1564 C   0  0  0  0  0  0  0  0  0  0  0  0
  -30.3089  -30.1806  -20.1325 C   0  0  0  0  0  0  0  0  0  0  0  0
  -27.9893  -29.9050  -19.0645 N   0  0  0  0  0  0  0  0  0  0  0  0
  -28.2127  -29.8376  -17.6771 C   0  0  0  0  0  0  0  0  0  0  0  0
  -29.4888  -29.8746  -17.1519 C   0  0  0  0  0  0  0  0  0  0  0  0
  -29.6330  -30.0913  -15.8039 C   0  0  0  0  0  0  0  0  0  0  0  0
  -28.5344  -30.2011  -14.9680 C   0  0  0  0  0  0  0  0  0  0  0  0
  -27.2493  -30.0878  -15.4624 C   0  0  0  0  0  0  0  0  0  0  0  0
  -27.0877  -29.8954  -16.8210 C   0  0  0  0  0  0  0  0  0  0  0  0
  -26.7098  -30.0690  -19.4424 N   0  0  0  0  0  0  0  0  0  0  0  0
  1  2  1  0
  2  3  1  0
  3  4  1  6
  3  5  1  0
  5  6  1  1
  5  7  1  0
  7  8  1  0
  8  9  2  0
  8 10  1  0
 10 11  1  0
 11 12  1  0
 12 13  2  0
 13 14  1  0
 13 15  1  0
 15 16  1  0
 16 17  2  0
 17 18  1  0
 18 19  2  0
 19 20  1  0
 20 21  2  0
 15 22  1  0
 22 11  2  0
 21 16  1  0
M  END
>  <id>  (330) 
322057

>  <inchikey>  (330) 
WSZSTQCTNLRVTN-TZMCWYRMSA-N

>  <alias>  (330) 
None

>  <smiles>  (330) 
CC[C@@H](O)[C@@H](C)NC(=O)Nc1cc(C)n(-c2ccccc2)n1

>  <path>  (330) 
/opt/xchem-fragalysis-2/maxwin/RdRp_FFF/syndirella/mar_elabs/elabs_052/UIINRFUWBVLBNK-UHFFFAOYSA-N/output/UIINRFUWBVLBNK-UHFFFAOYSA-N-8PUqGP-411-D/UIINRFUWBVLBNK-UHFFFAOYSA-N-8PUqGP-411-D.minimised.mol

>  <distance_score>  (330) 
1.054725

>  <energy_score>  (330) 
-23.192941

>  <compound>  (330) 
WSZSTQCTNLRVTN-UHFFFAOYSA-N

>  <compound_id>  (330) 
157749

>  <target>  (330) 
Flavi_NS5_RdRp

>  <tags>  (330) 
[]

>  <inspirations>  (330) 
{P Ã— 2}

>  <subsites>  (330) 
None

>  <reference>  (330) 
z0211a

>  <SLURM_JOB_ID>  (330) 
nan

>  <SLURM_JOB_NAME>  (330) 
nan

>  <csv_name>  (330) 
nan

>  <scratch_subdir>  (330) 
nan

>  <fragmenstein_runtime>  (330) 
nan

>  <fragmenstein_outcome>  (330) 
nan

>  <fragmenstein_mode>  (330) 
nan

>  <fragmenstein_error>  (330) 
nan

>  <exports>  (330) 
nan

>  <Multi-SuCOS>  (330) 
nan

>  <merge_set>  (330) 
nan

$$$$
ZFQIVIJEAGROGF-ZDUSSCGKSA-N
     RDKit          3D

 22 23  0  0  0  0  0  0  0  0999 V2000
  -22.6390  -34.6007  -25.6005 C   0  0  0  0  0  0  0  0  0  0  0  0
  -21.7740  -33.4828  -25.7625 O   0  0  0  0  0  0  0  0  0  0  0  0
  -21.1897  -32.9907  -24.5496 C   0  0  0  0  0  0  0  0  0  0  0  0
  -22.1479  -32.7165  -23.3932 C   0  0  1  0  0  0  0  0  0  0  0  0
  -21.4277  -32.1130  -22.3025 O   0  0  0  0  0  0  0  0  0  0  0  0
  -23.2698  -31.8006  -23.8441 C   0  0  0  0  0  0  0  0  0  0  0  0
  -24.1055  -31.4574  -22.7494 N   0  0  0  0  0  0  0  0  0  0  0  0
  -25.5136  -30.8377  -22.7264 C   0  0  0  0  0  0  0  0  0  0  0  0
  -26.2193  -30.5901  -23.5781 O   0  0  0  0  0  0  0  0  0  0  0  0
  -25.7187  -30.7484  -21.2149 N   0  0  0  0  0  0  0  0  0  0  0  0
  -26.7484  -30.2735  -20.5063 C   0  0  0  0  0  0  0  0  0  0  0  0
  -28.1057  -30.1338  -20.7514 C   0  0  0  0  0  0  0  0  0  0  0  0
  -28.6589  -29.9619  -19.4857 C   0  0  0  0  0  0  0  0  0  0  0  0
  -30.0758  -30.1167  -19.1092 C   0  0  0  0  0  0  0  0  0  0  0  0
  -27.5791  -29.7819  -18.6222 N   0  0  0  0  0  0  0  0  0  0  0  0
  -27.3978  -29.7772  -17.2149 C   0  0  0  0  0  0  0  0  0  0  0  0
  -26.0493  -29.8597  -16.7691 C   0  0  0  0  0  0  0  0  0  0  0  0
  -25.7408  -30.4075  -15.5450 C   0  0  0  0  0  0  0  0  0  0  0  0
  -26.7859  -30.8009  -14.7438 C   0  0  0  0  0  0  0  0  0  0  0  0
  -28.1086  -30.4730  -15.0664 C   0  0  0  0  0  0  0  0  0  0  0  0
  -28.4334  -29.9585  -16.3145 C   0  0  0  0  0  0  0  0  0  0  0  0
  -26.4321  -29.8729  -19.3022 N   0  0  0  0  0  0  0  0  0  0  0  0
  1  2  1  0
  2  3  1  0
  3  4  1  0
  4  5  1  1
  4  6  1  0
  6  7  1  0
  7  8  1  0
  8  9  2  0
  8 10  1  0
 10 11  1  0
 11 12  1  0
 12 13  2  0
 13 14  1  0
 13 15  1  0
 15 16  1  0
 16 17  2  0
 17 18  1  0
 18 19  2  0
 19 20  1  0
 20 21  2  0
 15 22  1  0
 22 11  2  0
 21 16  1  0
M  END
>  <id>  (331) 
322069

>  <inchikey>  (331) 
ZFQIVIJEAGROGF-ZDUSSCGKSA-N

>  <alias>  (331) 
None

>  <smiles>  (331) 
COC[C@@H](O)CNC(=O)Nc1cc(C)n(-c2ccccc2)n1

>  <path>  (331) 
/opt/xchem-fragalysis-2/maxwin/RdRp_FFF/syndirella/mar_elabs/elabs_052/UIINRFUWBVLBNK-UHFFFAOYSA-N/output/UIINRFUWBVLBNK-UHFFFAOYSA-N-8PUqGP-459-B/UIINRFUWBVLBNK-UHFFFAOYSA-N-8PUqGP-459-B.minimised.mol

>  <distance_score>  (331) 
0.941059

>  <energy_score>  (331) 
-10.231116

>  <compound>  (331) 
ZFQIVIJEAGROGF-UHFFFAOYSA-N

>  <compound_id>  (331) 
156337

>  <target>  (331) 
Flavi_NS5_RdRp

>  <tags>  (331) 
[]

>  <inspirations>  (331) 
{P Ã— 2}

>  <subsites>  (331) 
None

>  <reference>  (331) 
z0211a

>  <SLURM_JOB_ID>  (331) 
nan

>  <SLURM_JOB_NAME>  (331) 
nan

>  <csv_name>  (331) 
nan

>  <scratch_subdir>  (331) 
nan

>  <fragmenstein_runtime>  (331) 
nan

>  <fragmenstein_outcome>  (331) 
nan

>  <fragmenstein_mode>  (331) 
nan

>  <fragmenstein_error>  (331) 
nan

>  <exports>  (331) 
nan

>  <Multi-SuCOS>  (331) 
nan

>  <merge_set>  (331) 
nan

$$$$
PEDPXAIGHCQHJA-CYBMUJFWSA-N
     RDKit          3D

 23 24  0  0  0  0  0  0  0  0999 V2000
  -22.2432  -35.3627  -22.1010 C   0  0  0  0  0  0  0  0  0  0  0  0
  -22.4326  -34.3031  -23.1792 C   0  0  0  0  0  0  0  0  0  0  0  0
  -21.8578  -32.9592  -22.7566 C   0  0  1  0  0  0  0  0  0  0  0  0
  -20.4549  -32.9014  -22.9499 O   0  0  0  0  0  0  0  0  0  0  0  0
  -22.5429  -31.8341  -23.5215 C   0  0  0  0  0  0  0  0  0  0  0  0
  -23.5172  -31.3072  -22.6205 N   0  0  0  0  0  0  0  0  0  0  0  0
  -25.0203  -31.0648  -22.8118 C   0  0  0  0  0  0  0  0  0  0  0  0
  -25.6702  -31.1807  -23.7333 O   0  0  0  0  0  0  0  0  0  0  0  0
  -25.4012  -30.7173  -21.3649 N   0  0  0  0  0  0  0  0  0  0  0  0
  -26.5863  -30.3749  -20.8355 C   0  0  0  0  0  0  0  0  0  0  0  0
  -27.8960  -30.3762  -21.2871 C   0  0  0  0  0  0  0  0  0  0  0  0
  -28.6710  -30.0935  -20.1673 C   0  0  0  0  0  0  0  0  0  0  0  0
  -30.1343  -30.1826  -20.0167 C   0  0  0  0  0  0  0  0  0  0  0  0
  -27.7670  -29.7680  -19.1674 N   0  0  0  0  0  0  0  0  0  0  0  0
  -27.8523  -29.5653  -17.7677 C   0  0  0  0  0  0  0  0  0  0  0  0
  -26.6131  -29.3798  -17.1173 C   0  0  0  0  0  0  0  0  0  0  0  0
  -26.4297  -29.8575  -15.8453 C   0  0  0  0  0  0  0  0  0  0  0  0
  -27.5074  -30.4459  -15.2195 C   0  0  0  0  0  0  0  0  0  0  0  0
  -27.3785  -31.3492  -14.2107 O   0  0  0  0  0  0  0  0  0  0  0  0
  -26.0576  -31.8715  -14.0195 C   0  0  0  0  0  0  0  0  0  0  0  0
  -28.8013  -30.2671  -15.7135 C   0  0  0  0  0  0  0  0  0  0  0  0
  -28.9880  -29.8461  -17.0240 C   0  0  0  0  0  0  0  0  0  0  0  0
  -26.5086  -29.8981  -19.6157 N   0  0  0  0  0  0  0  0  0  0  0  0
  1  2  1  0
  2  3  1  0
  3  4  1  6
  3  5  1  0
  5  6  1  0
  6  7  1  0
  7  8  2  0
  7  9  1  0
  9 10  1  0
 10 11  1  0
 11 12  2  0
 12 13  1  0
 12 14  1  0
 14 15  1  0
 15 16  2  0
 16 17  1  0
 17 18  2  0
 18 19  1  0
 19 20  1  0
 18 21  1  0
 21 22  2  0
 14 23  1  0
 23 10  2  0
 22 15  1  0
M  END
>  <id>  (332) 
322551

>  <inchikey>  (332) 
PEDPXAIGHCQHJA-CYBMUJFWSA-N

>  <alias>  (332) 
None

>  <smiles>  (332) 
CC[C@@H](O)CNC(=O)Nc1cc(C)n(-c2ccc(OC)cc2)n1

>  <path>  (332) 
/opt/xchem-fragalysis-2/maxwin/RdRp_FFF/syndirella/mar_elabs/elabs_052/UIINRFUWBVLBNK-UHFFFAOYSA-N/output/UIINRFUWBVLBNK-UHFFFAOYSA-N-8PUqGP-3035-B/UIINRFUWBVLBNK-UHFFFAOYSA-N-8PUqGP-3035-B.minimised.mol

>  <distance_score>  (332) 
1.114266

>  <energy_score>  (332) 
-5.76475

>  <compound>  (332) 
PEDPXAIGHCQHJA-UHFFFAOYSA-N

>  <compound_id>  (332) 
156718

>  <target>  (332) 
Flavi_NS5_RdRp

>  <tags>  (332) 
[]

>  <inspirations>  (332) 
{P Ã— 2}

>  <subsites>  (332) 
None

>  <reference>  (332) 
z0211a

>  <SLURM_JOB_ID>  (332) 
nan

>  <SLURM_JOB_NAME>  (332) 
nan

>  <csv_name>  (332) 
nan

>  <scratch_subdir>  (332) 
nan

>  <fragmenstein_runtime>  (332) 
nan

>  <fragmenstein_outcome>  (332) 
nan

>  <fragmenstein_mode>  (332) 
nan

>  <fragmenstein_error>  (332) 
nan

>  <exports>  (332) 
nan

>  <Multi-SuCOS>  (332) 
nan

>  <merge_set>  (332) 
nan

$$$$
XNEQDBXCMOTYMQ-LLVKDONJSA-N
     RDKit          3D

 23 24  0  0  0  0  0  0  0  0999 V2000
  -25.9640  -30.8916  -23.0199 O   0  0  0  0  0  0  0  0  0  0  0  0
  -25.3426  -30.9911  -22.0697 C   0  0  0  0  0  0  0  0  0  0  0  0
  -25.7260  -30.7110  -20.5793 N   0  0  0  0  0  0  0  0  0  0  0  0
  -26.9548  -30.3550  -20.0121 C   0  0  0  0  0  0  0  0  0  0  0  0
  -28.0835  -30.2346  -20.8247 C   0  0  0  0  0  0  0  0  0  0  0  0
  -29.3269  -30.0169  -20.2497 C   0  0  0  0  0  0  0  0  0  0  0  0
  -30.4156  -29.9338  -21.0243 F   0  0  0  0  0  0  0  0  0  0  0  0
  -29.4668  -29.8986  -18.8765 C   0  0  0  0  0  0  0  0  0  0  0  0
  -28.3388  -29.9304  -18.0530 C   0  0  0  0  0  0  0  0  0  0  0  0
  -27.0774  -30.1543  -18.6289 C   0  0  0  0  0  0  0  0  0  0  0  0
  -25.9368  -30.2504  -17.8763 O   0  0  0  0  0  0  0  0  0  0  0  0
  -26.0236  -29.6423  -16.5878 C   0  0  0  0  0  0  0  0  0  0  0  0
  -27.2495  -30.0793  -15.8078 C   0  0  0  0  0  0  0  0  0  0  0  0
  -28.5161  -29.7430  -16.5755 C   0  0  0  0  0  0  0  0  0  0  0  0
  -23.8994  -31.5306  -21.8668 N   0  0  0  0  0  0  0  0  0  0  0  0
  -22.9737  -32.1498  -22.8226 C   0  0  2  0  0  0  0  0  0  0  0  0
  -23.3728  -33.6211  -23.0807 C   0  0  0  0  0  0  0  0  0  0  0  0
  -24.7676  -33.8344  -23.6457 C   0  0  0  0  0  0  0  0  0  0  0  0
  -24.9798  -33.0292  -24.7947 O   0  0  0  0  0  0  0  0  0  0  0  0
  -21.4869  -32.1291  -22.4532 C   0  0  0  0  0  0  0  0  0  0  0  0
  -20.7580  -32.7510  -23.4177 F   0  0  0  0  0  0  0  0  0  0  0  0
  -21.2814  -32.8042  -21.2997 F   0  0  0  0  0  0  0  0  0  0  0  0
  -20.9585  -30.9063  -22.2880 F   0  0  0  0  0  0  0  0  0  0  0  0
  1  2  2  0
  2  3  1  0
  3  4  1  0
  4  5  2  0
  5  6  1  0
  6  7  1  0
  6  8  2  0
  8  9  1  0
  9 10  2  0
 10 11  1  0
 11 12  1  0
 12 13  1  0
 13 14  1  0
  2 15  1  0
 15 16  1  0
 16 17  1  1
 17 18  1  0
 18 19  1  0
 16 20  1  0
 20 21  1  0
 20 22  1  0
 20 23  1  0
 10  4  1  0
 14  9  1  0
M  END
>  <id>  (333) 
322844

>  <inchikey>  (333) 
XNEQDBXCMOTYMQ-LLVKDONJSA-N

>  <alias>  (333) 
None

>  <smiles>  (333) 
O=C(Nc1cc(F)cc2c1OCCC2)N[C@H](CCO)C(F)(F)F

>  <path>  (333) 
/opt/xchem-fragalysis-2/maxwin/RdRp_FFF/syndirella/mar_elabs/elabs_065/IANQXEAOAZTNLW-UHFFFAOYSA-N/output/IANQXEAOAZTNLW-UHFFFAOYSA-N-9igs4u-9-A/IANQXEAOAZTNLW-UHFFFAOYSA-N-9igs4u-9-A.minimised.mol

>  <distance_score>  (333) 
0.750866

>  <energy_score>  (333) 
-9.064012

>  <compound>  (333) 
XNEQDBXCMOTYMQ-UHFFFAOYSA-N

>  <compound_id>  (333) 
159970

>  <target>  (333) 
Flavi_NS5_RdRp

>  <tags>  (333) 
[]

>  <inspirations>  (333) 
{P Ã— 2}

>  <subsites>  (333) 
None

>  <reference>  (333) 
z0211a

>  <SLURM_JOB_ID>  (333) 
nan

>  <SLURM_JOB_NAME>  (333) 
nan

>  <csv_name>  (333) 
nan

>  <scratch_subdir>  (333) 
nan

>  <fragmenstein_runtime>  (333) 
nan

>  <fragmenstein_outcome>  (333) 
nan

>  <fragmenstein_mode>  (333) 
nan

>  <fragmenstein_error>  (333) 
nan

>  <exports>  (333) 
nan

>  <Multi-SuCOS>  (333) 
nan

>  <merge_set>  (333) 
nan

$$$$
JCOUPXWFJKWMRK-WDEREUQCSA-N
     RDKit          3D

 23 24  0  0  0  0  0  0  0  0999 V2000
  -26.3451  -30.5462  -23.0158 O   0  0  0  0  0  0  0  0  0  0  0  0
  -25.6990  -30.7769  -22.1063 C   0  0  0  0  0  0  0  0  0  0  0  0
  -26.0236  -30.6591  -20.5841 N   0  0  0  0  0  0  0  0  0  0  0  0
  -27.2154  -30.3299  -19.9382 C   0  0  0  0  0  0  0  0  0  0  0  0
  -28.3859  -30.2175  -20.6898 C   0  0  0  0  0  0  0  0  0  0  0  0
  -29.6140  -30.0414  -20.0638 C   0  0  0  0  0  0  0  0  0  0  0  0
  -29.6677  -29.9169  -18.6812 C   0  0  0  0  0  0  0  0  0  0  0  0
  -28.4951  -29.9211  -17.9164 C   0  0  0  0  0  0  0  0  0  0  0  0
  -27.2644  -30.1455  -18.5531 C   0  0  0  0  0  0  0  0  0  0  0  0
  -26.0823  -30.2422  -17.8683 O   0  0  0  0  0  0  0  0  0  0  0  0
  -26.0829  -29.6690  -16.5627 C   0  0  0  0  0  0  0  0  0  0  0  0
  -27.2888  -30.0667  -15.7372 C   0  0  0  0  0  0  0  0  0  0  0  0
  -28.5574  -29.6302  -16.4450 C   0  0  2  0  0  0  0  0  0  0  0  0
  -29.6822  -30.2176  -15.8018 O   0  0  0  0  0  0  0  0  0  0  0  0
  -24.2725  -31.3844  -22.0179 N   0  0  0  0  0  0  0  0  0  0  0  0
  -23.3971  -31.9206  -23.0748 C   0  0  2  0  0  0  0  0  0  0  0  0
  -24.2123  -32.9231  -23.9196 C   0  0  0  0  0  0  0  0  0  0  0  0
  -23.4741  -33.5492  -25.0911 C   0  0  0  0  0  0  0  0  0  0  0  0
  -22.6795  -34.6431  -24.6664 O   0  0  0  0  0  0  0  0  0  0  0  0
  -22.0566  -32.4788  -22.5818 C   0  0  0  0  0  0  0  0  0  0  0  0
  -21.1799  -32.6754  -23.5915 F   0  0  0  0  0  0  0  0  0  0  0  0
  -21.4665  -31.6382  -21.7011 F   0  0  0  0  0  0  0  0  0  0  0  0
  -22.2301  -33.6605  -21.9411 F   0  0  0  0  0  0  0  0  0  0  0  0
  1  2  2  0
  2  3  1  0
  3  4  1  0
  4  5  2  0
  5  6  1  0
  6  7  2  0
  7  8  1  0
  8  9  2  0
  9 10  1  0
 10 11  1  0
 11 12  1  0
 12 13  1  0
 13 14  1  1
  2 15  1  0
 15 16  1  0
 16 17  1  1
 17 18  1  0
 18 19  1  0
 16 20  1  0
 20 21  1  0
 20 22  1  0
 20 23  1  0
  9  4  1  0
 13  8  1  0
M  END
>  <id>  (334) 
322877

>  <inchikey>  (334) 
JCOUPXWFJKWMRK-WDEREUQCSA-N

>  <alias>  (334) 
None

>  <smiles>  (334) 
O=C(Nc1cccc2c1OCC[C@@H]2O)N[C@H](CCO)C(F)(F)F

>  <path>  (334) 
/opt/xchem-fragalysis-2/maxwin/RdRp_FFF/syndirella/mar_elabs/elabs_065/IANQXEAOAZTNLW-UHFFFAOYSA-N/output/IANQXEAOAZTNLW-UHFFFAOYSA-N-9igs4u-37-A/IANQXEAOAZTNLW-UHFFFAOYSA-N-9igs4u-37-A.minimised.mol

>  <distance_score>  (334) 
0.696738

>  <energy_score>  (334) 
-21.468254

>  <compound>  (334) 
JCOUPXWFJKWMRK-UHFFFAOYSA-N

>  <compound_id>  (334) 
159992

>  <target>  (334) 
Flavi_NS5_RdRp

>  <tags>  (334) 
[]

>  <inspirations>  (334) 
{P Ã— 2}

>  <subsites>  (334) 
None

>  <reference>  (334) 
z0211a

>  <SLURM_JOB_ID>  (334) 
nan

>  <SLURM_JOB_NAME>  (334) 
nan

>  <csv_name>  (334) 
nan

>  <scratch_subdir>  (334) 
nan

>  <fragmenstein_runtime>  (334) 
nan

>  <fragmenstein_outcome>  (334) 
nan

>  <fragmenstein_mode>  (334) 
nan

>  <fragmenstein_error>  (334) 
nan

>  <exports>  (334) 
nan

>  <Multi-SuCOS>  (334) 
nan

>  <merge_set>  (334) 
nan

$$$$
DLKCGGQPRUIRAX-BXUZGUMPSA-N
     RDKit          3D

 24 26  0  0  0  0  0  0  0  0999 V2000
  -25.9511  -31.1499  -22.8807 O   0  0  0  0  0  0  0  0  0  0  0  0
  -25.3601  -31.2240  -21.9122 C   0  0  0  0  0  0  0  0  0  0  0  0
  -25.7640  -30.8469  -20.4583 N   0  0  0  0  0  0  0  0  0  0  0  0
  -26.9823  -30.4075  -19.9467 C   0  0  0  0  0  0  0  0  0  0  0  0
  -28.0876  -30.2874  -20.7943 C   0  0  0  0  0  0  0  0  0  0  0  0
  -29.3573  -30.0623  -20.2732 C   0  0  0  0  0  0  0  0  0  0  0  0
  -29.5240  -29.9694  -18.8993 C   0  0  0  0  0  0  0  0  0  0  0  0
  -28.4141  -30.0086  -18.0420 C   0  0  0  0  0  0  0  0  0  0  0  0
  -27.1346  -30.1941  -18.5768 C   0  0  0  0  0  0  0  0  0  0  0  0
  -26.0153  -30.2824  -17.7927 O   0  0  0  0  0  0  0  0  0  0  0  0
  -26.1489  -29.6533  -16.5192 C   0  0  0  0  0  0  0  0  0  0  0  0
  -27.3615  -30.1422  -15.7516 C   0  0  0  0  0  0  0  0  0  0  0  0
  -28.6296  -29.9202  -16.5599 C   0  0  1  0  0  0  0  0  0  0  0  0
  -29.1555  -28.6431  -16.2451 O   0  0  0  0  0  0  0  0  0  0  0  0
  -23.9567  -31.8244  -21.6396 N   0  0  0  0  0  0  0  0  0  0  0  0
  -23.0400  -32.5520  -22.5351 C   0  0  2  0  0  0  0  0  0  0  0  0
  -21.5998  -32.6317  -22.0218 C   0  0  0  0  0  0  0  0  0  0  0  0
  -20.7733  -33.2352  -22.9075 F   0  0  0  0  0  0  0  0  0  0  0  0
  -21.0853  -31.4113  -21.7657 F   0  0  0  0  0  0  0  0  0  0  0  0
  -21.5410  -33.3365  -20.8661 F   0  0  0  0  0  0  0  0  0  0  0  0
  -23.0302  -31.9764  -23.9409 C   0  0  0  0  0  0  0  0  0  0  0  0
  -22.7704  -33.1693  -24.8392 C   0  0  0  0  0  0  0  0  0  0  0  0
  -23.1685  -34.3465  -24.1306 O   0  0  0  0  0  0  0  0  0  0  0  0
  -23.5673  -33.9618  -22.8069 C   0  0  0  0  0  0  0  0  0  0  0  0
  1  2  2  0
  2  3  1  0
  3  4  1  0
  4  5  2  0
  5  6  1  0
  6  7  2  0
  7  8  1  0
  8  9  2  0
  9 10  1  0
 10 11  1  0
 11 12  1  0
 12 13  1  0
 13 14  1  6
  2 15  1  0
 16 15  1  1
 16 17  1  0
 17 18  1  0
 17 19  1  0
 17 20  1  0
 16 21  1  0
 21 22  1  0
 22 23  1  0
 23 24  1  0
  9  4  1  0
 24 16  1  0
 13  8  1  0
M  END
>  <id>  (335) 
323259

>  <inchikey>  (335) 
DLKCGGQPRUIRAX-BXUZGUMPSA-N

>  <alias>  (335) 
None

>  <smiles>  (335) 
O=C(Nc1cccc2c1OCC[C@H]2O)N[C@]1(C(F)(F)F)CCOC1

>  <path>  (335) 
/opt/xchem-fragalysis-2/maxwin/RdRp_FFF/syndirella/mar_elabs/elabs_065/IANQXEAOAZTNLW-UHFFFAOYSA-N/output/IANQXEAOAZTNLW-UHFFFAOYSA-N-9igs4u-258-B/IANQXEAOAZTNLW-UHFFFAOYSA-N-9igs4u-258-B.minimised.mol

>  <distance_score>  (335) 
0.754013

>  <energy_score>  (335) 
-26.068788

>  <compound>  (335) 
DLKCGGQPRUIRAX-UHFFFAOYSA-N

>  <compound_id>  (335) 
160164

>  <target>  (335) 
Flavi_NS5_RdRp

>  <tags>  (335) 
[]

>  <inspirations>  (335) 
{P Ã— 2}

>  <subsites>  (335) 
None

>  <reference>  (335) 
z0211a

>  <SLURM_JOB_ID>  (335) 
nan

>  <SLURM_JOB_NAME>  (335) 
nan

>  <csv_name>  (335) 
nan

>  <scratch_subdir>  (335) 
nan

>  <fragmenstein_runtime>  (335) 
nan

>  <fragmenstein_outcome>  (335) 
nan

>  <fragmenstein_mode>  (335) 
nan

>  <fragmenstein_error>  (335) 
nan

>  <exports>  (335) 
nan

>  <Multi-SuCOS>  (335) 
nan

>  <merge_set>  (335) 
nan

$$$$
FGEHUYUECHTFSA-GFCCVEGCSA-N
     RDKit          3D

 24 25  0  0  0  0  0  0  0  0999 V2000
  -24.8947  -31.0661  -16.1559 C   0  0  0  0  0  0  0  0  0  0  0  0
  -25.9633  -30.2199  -16.8659 C   0  0  0  0  0  0  0  0  0  0  0  0
  -25.3815  -28.8487  -17.1391 C   0  0  0  0  0  0  0  0  0  0  0  0
  -27.2311  -30.1821  -15.9975 C   0  0  0  0  0  0  0  0  0  0  0  0
  -28.4980  -29.7832  -16.7418 C   0  0  0  0  0  0  0  0  0  0  0  0
  -28.4345  -30.0354  -18.2153 C   0  0  0  0  0  0  0  0  0  0  0  0
  -29.5805  -29.8647  -18.9942 C   0  0  0  0  0  0  0  0  0  0  0  0
  -29.5064  -29.9003  -20.3838 C   0  0  0  0  0  0  0  0  0  0  0  0
  -28.2885  -30.1533  -21.0067 C   0  0  0  0  0  0  0  0  0  0  0  0
  -27.1707  -30.4646  -20.2419 C   0  0  0  0  0  0  0  0  0  0  0  0
  -25.9662  -30.8147  -20.8448 N   0  0  0  0  0  0  0  0  0  0  0  0
  -25.5711  -30.8699  -22.3495 C   0  0  0  0  0  0  0  0  0  0  0  0
  -26.1588  -30.5637  -23.2757 O   0  0  0  0  0  0  0  0  0  0  0  0
  -24.1808  -31.5459  -22.2235 N   0  0  0  0  0  0  0  0  0  0  0  0
  -23.1972  -31.8896  -23.2521 C   0  0  2  0  0  0  0  0  0  0  0  0
  -23.8690  -32.5511  -24.4613 C   0  0  0  0  0  0  0  0  0  0  0  0
  -24.5799  -33.8649  -24.1805 C   0  0  0  0  0  0  0  0  0  0  0  0
  -25.3296  -34.2331  -25.3384 O   0  0  0  0  0  0  0  0  0  0  0  0
  -21.9971  -32.6877  -22.7469 C   0  0  0  0  0  0  0  0  0  0  0  0
  -21.1157  -32.9376  -23.7433 F   0  0  0  0  0  0  0  0  0  0  0  0
  -21.3389  -32.0270  -21.7699 F   0  0  0  0  0  0  0  0  0  0  0  0
  -22.3778  -33.8830  -22.2382 F   0  0  0  0  0  0  0  0  0  0  0  0
  -27.2508  -30.4112  -18.8487 C   0  0  0  0  0  0  0  0  0  0  0  0
  -26.1432  -30.8086  -18.1547 O   0  0  0  0  0  0  0  0  0  0  0  0
  1  2  1  0
  2  3  1  0
  2  4  1  0
  4  5  1  0
  5  6  1  0
  6  7  2  0
  7  8  1  0
  8  9  2  0
  9 10  1  0
 10 11  1  0
 11 12  1  0
 12 13  2  0
 12 14  1  0
 14 15  1  0
 15 16  1  6
 16 17  1  0
 17 18  1  0
 15 19  1  0
 19 20  1  0
 19 21  1  0
 19 22  1  0
 10 23  2  0
 23 24  1  0
 24  2  1  0
 23  6  1  0
M  END
>  <id>  (336) 
323606

>  <inchikey>  (336) 
FGEHUYUECHTFSA-GFCCVEGCSA-N

>  <alias>  (336) 
None

>  <smiles>  (336) 
CC1(C)CCc2cccc(NC(=O)N[C@H](CCO)C(F)(F)F)c2O1

>  <path>  (336) 
/opt/xchem-fragalysis-2/maxwin/RdRp_FFF/syndirella/mar_elabs/elabs_065/IANQXEAOAZTNLW-UHFFFAOYSA-N/output/IANQXEAOAZTNLW-UHFFFAOYSA-N-9igs4u-506-A/IANQXEAOAZTNLW-UHFFFAOYSA-N-9igs4u-506-A.minimised.mol

>  <distance_score>  (336) 
0.777401

>  <energy_score>  (336) 
-17.894761

>  <compound>  (336) 
FGEHUYUECHTFSA-UHFFFAOYSA-N

>  <compound_id>  (336) 
160330

>  <target>  (336) 
Flavi_NS5_RdRp

>  <tags>  (336) 
[]

>  <inspirations>  (336) 
{P Ã— 2}

>  <subsites>  (336) 
None

>  <reference>  (336) 
z0211a

>  <SLURM_JOB_ID>  (336) 
nan

>  <SLURM_JOB_NAME>  (336) 
nan

>  <csv_name>  (336) 
nan

>  <scratch_subdir>  (336) 
nan

>  <fragmenstein_runtime>  (336) 
nan

>  <fragmenstein_outcome>  (336) 
nan

>  <fragmenstein_mode>  (336) 
nan

>  <fragmenstein_error>  (336) 
nan

>  <exports>  (336) 
nan

>  <Multi-SuCOS>  (336) 
nan

>  <merge_set>  (336) 
nan

$$$$
GFVMIHHKYZKCKM-AWEZNQCLSA-N
     RDKit          3D

 24 26  0  0  0  0  0  0  0  0999 V2000
  -26.0963  -31.0957  -22.8144 O   0  0  0  0  0  0  0  0  0  0  0  0
  -25.4797  -31.1582  -21.8617 C   0  0  0  0  0  0  0  0  0  0  0  0
  -25.8482  -30.7729  -20.4008 N   0  0  0  0  0  0  0  0  0  0  0  0
  -27.0578  -30.3378  -19.8600 C   0  0  0  0  0  0  0  0  0  0  0  0
  -28.1780  -30.2235  -20.6858 C   0  0  0  0  0  0  0  0  0  0  0  0
  -29.4255  -30.0117  -20.1234 C   0  0  0  0  0  0  0  0  0  0  0  0
  -30.5095  -29.9567  -20.9073 F   0  0  0  0  0  0  0  0  0  0  0  0
  -29.5721  -29.8858  -18.7513 C   0  0  0  0  0  0  0  0  0  0  0  0
  -28.4482  -29.9029  -17.9201 C   0  0  0  0  0  0  0  0  0  0  0  0
  -27.1834  -30.1223  -18.4841 C   0  0  0  0  0  0  0  0  0  0  0  0
  -26.0461  -30.2365  -17.7304 O   0  0  0  0  0  0  0  0  0  0  0  0
  -26.1369  -29.6600  -16.4307 C   0  0  0  0  0  0  0  0  0  0  0  0
  -27.3779  -30.0927  -15.6732 C   0  0  0  0  0  0  0  0  0  0  0  0
  -28.6335  -29.7268  -16.4446 C   0  0  0  0  0  0  0  0  0  0  0  0
  -24.0653  -31.7464  -21.6219 N   0  0  0  0  0  0  0  0  0  0  0  0
  -23.1673  -32.4739  -22.5361 C   0  0  1  0  0  0  0  0  0  0  0  0
  -21.7197  -32.5985  -22.0505 C   0  0  0  0  0  0  0  0  0  0  0  0
  -20.9238  -33.2125  -22.9577 F   0  0  0  0  0  0  0  0  0  0  0  0
  -21.1676  -31.4015  -21.7700 F   0  0  0  0  0  0  0  0  0  0  0  0
  -21.6661  -33.3354  -20.9131 F   0  0  0  0  0  0  0  0  0  0  0  0
  -23.7714  -33.8432  -22.8402 C   0  0  0  0  0  0  0  0  0  0  0  0
  -23.2796  -34.1691  -24.2318 C   0  0  0  0  0  0  0  0  0  0  0  0
  -23.0239  -32.9307  -24.8970 O   0  0  0  0  0  0  0  0  0  0  0  0
  -23.1289  -31.8610  -23.9320 C   0  0  0  0  0  0  0  0  0  0  0  0
  1  2  2  0
  2  3  1  0
  3  4  1  0
  4  5  2  0
  5  6  1  0
  6  7  1  0
  6  8  2  0
  8  9  1  0
  9 10  2  0
 10 11  1  0
 11 12  1  0
 12 13  1  0
 13 14  1  0
  2 15  1  0
 16 15  1  1
 16 17  1  0
 17 18  1  0
 17 19  1  0
 17 20  1  0
 16 21  1  0
 21 22  1  0
 22 23  1  0
 23 24  1  0
 10  4  1  0
 24 16  1  0
 14  9  1  0
M  END
>  <id>  (337) 
323913

>  <inchikey>  (337) 
GFVMIHHKYZKCKM-AWEZNQCLSA-N

>  <alias>  (337) 
None

>  <smiles>  (337) 
O=C(Nc1cc(F)cc2c1OCCC2)N[C@@]1(C(F)(F)F)CCOC1

>  <path>  (337) 
/opt/xchem-fragalysis-2/maxwin/RdRp_FFF/syndirella/mar_elabs/elabs_065/IANQXEAOAZTNLW-UHFFFAOYSA-N/output/IANQXEAOAZTNLW-UHFFFAOYSA-N-9igs4u-667-B/IANQXEAOAZTNLW-UHFFFAOYSA-N-9igs4u-667-B.minimised.mol

>  <distance_score>  (337) 
0.733142

>  <energy_score>  (337) 
-18.8968

>  <compound>  (337) 
GFVMIHHKYZKCKM-UHFFFAOYSA-N

>  <compound_id>  (337) 
160468

>  <target>  (337) 
Flavi_NS5_RdRp

>  <tags>  (337) 
[]

>  <inspirations>  (337) 
{P Ã— 2}

>  <subsites>  (337) 
None

>  <reference>  (337) 
z0211a

>  <SLURM_JOB_ID>  (337) 
nan

>  <SLURM_JOB_NAME>  (337) 
nan

>  <csv_name>  (337) 
nan

>  <scratch_subdir>  (337) 
nan

>  <fragmenstein_runtime>  (337) 
nan

>  <fragmenstein_outcome>  (337) 
nan

>  <fragmenstein_mode>  (337) 
nan

>  <fragmenstein_error>  (337) 
nan

>  <exports>  (337) 
nan

>  <Multi-SuCOS>  (337) 
nan

>  <merge_set>  (337) 
nan

$$$$
LLUAUJBOGVMNJH-SECBINFHSA-N
     RDKit          3D

 18 19  0  0  0  0  0  0  0  0999 V2000
  -26.3801  -32.7648  -22.0413 O   0  0  0  0  0  0  0  0  0  0  0  0
  -25.6554  -31.9964  -21.6214 C   0  0  0  0  0  0  0  0  0  0  0  0
  -24.1874  -31.6915  -22.0066 N   0  0  0  0  0  0  0  0  0  0  0  0
  -23.3724  -32.2278  -23.0591 C   0  0  0  0  0  0  0  0  0  0  0  0
  -21.9311  -32.4399  -22.6122 C   0  0  2  0  0  0  0  0  0  0  0  0
  -21.1846  -31.2289  -22.5042 O   0  0  0  0  0  0  0  0  0  0  0  0
  -21.1901  -33.4050  -23.5244 C   0  0  0  0  0  0  0  0  0  0  0  0
  -21.2802  -33.0041  -25.2617 Cl  0  0  0  0  0  0  0  0  0  0  0  0
  -25.8770  -30.8849  -20.5726 N   0  0  0  0  0  0  0  0  0  0  0  0
  -27.0038  -30.4821  -19.9524 C   0  0  0  0  0  0  0  0  0  0  0  0
  -28.3253  -30.7491  -20.3530 C   0  0  0  0  0  0  0  0  0  0  0  0
  -29.1192  -30.2003  -19.3753 C   0  0  0  0  0  0  0  0  0  0  0  0
  -28.2388  -29.7340  -18.4462 N   0  0  0  0  0  0  0  0  0  0  0  0
  -28.5698  -29.2772  -17.1000 C   0  0  0  0  0  0  0  0  0  0  0  0
  -29.6576  -30.0408  -16.3446 C   0  0  0  0  0  0  0  0  0  0  0  0
  -28.6987  -30.1384  -15.1421 C   0  0  0  0  0  0  0  0  0  0  0  0
  -27.5356  -29.8137  -16.0735 C   0  0  0  0  0  0  0  0  0  0  0  0
  -26.9640  -29.7158  -18.8714 N   0  0  0  0  0  0  0  0  0  0  0  0
  1  2  2  0
  2  3  1  0
  3  4  1  0
  4  5  1  0
  5  6  1  6
  5  7  1  0
  7  8  1  0
  2  9  1  0
  9 10  1  0
 10 11  1  0
 11 12  2  0
 12 13  1  0
 13 14  1  0
 14 15  1  0
 15 16  1  0
 16 17  1  0
 13 18  1  0
 18 10  2  0
 17 14  1  0
M  END
>  <id>  (338) 
326419

>  <inchikey>  (338) 
LLUAUJBOGVMNJH-SECBINFHSA-N

>  <alias>  (338) 
None

>  <smiles>  (338) 
O=C(NC[C@H](O)CCl)Nc1ccn(C2CCC2)n1

>  <path>  (338) 
/opt/xchem-fragalysis-2/maxwin/RdRp_FFF/syndirella/mar_elabs/elabs_063/GTOPDHADXIWWQI-UHFFFAOYSA-N/output/GTOPDHADXIWWQI-UHFFFAOYSA-N-EWqKBA-61-A/GTOPDHADXIWWQI-UHFFFAOYSA-N-EWqKBA-61-A.minimised.mol

>  <distance_score>  (338) 
0.936391

>  <energy_score>  (338) 
-15.213522

>  <compound>  (338) 
LLUAUJBOGVMNJH-UHFFFAOYSA-N

>  <compound_id>  (338) 
161673

>  <target>  (338) 
Flavi_NS5_RdRp

>  <tags>  (338) 
[]

>  <inspirations>  (338) 
{P Ã— 2}

>  <subsites>  (338) 
None

>  <reference>  (338) 
z0211a

>  <SLURM_JOB_ID>  (338) 
nan

>  <SLURM_JOB_NAME>  (338) 
nan

>  <csv_name>  (338) 
nan

>  <scratch_subdir>  (338) 
nan

>  <fragmenstein_runtime>  (338) 
nan

>  <fragmenstein_outcome>  (338) 
nan

>  <fragmenstein_mode>  (338) 
nan

>  <fragmenstein_error>  (338) 
nan

>  <exports>  (338) 
nan

>  <Multi-SuCOS>  (338) 
nan

>  <merge_set>  (338) 
nan

$$$$
RRNUZGYOKFSKRC-ZETCQYMHSA-N
     RDKit          3D

 18 19  0  0  0  0  0  0  0  0999 V2000
  -19.9894  -33.2988  -21.4730 C   0  0  0  0  0  0  0  0  0  0  0  0
  -20.9589  -32.1317  -21.4347 C   0  0  2  0  0  0  0  0  0  0  0  0
  -21.4117  -32.0322  -20.0811 O   0  0  0  0  0  0  0  0  0  0  0  0
  -22.1594  -32.2772  -22.4195 C   0  0  0  0  0  0  0  0  0  0  0  0
  -22.0463  -32.7230  -23.9106 S   0  0  0  0  0  0  0  0  0  0  0  0
  -23.3973  -31.7954  -21.5262 N   0  0  0  0  0  0  0  0  0  0  0  0
  -24.9676  -31.4931  -21.8730 C   0  0  0  0  0  0  0  0  0  0  0  0
  -25.5393  -31.4843  -22.8671 O   0  0  0  0  0  0  0  0  0  0  0  0
  -25.4185  -31.1742  -20.5161 N   0  0  0  0  0  0  0  0  0  0  0  0
  -26.6012  -30.6977  -20.0699 C   0  0  0  0  0  0  0  0  0  0  0  0
  -27.8182  -30.4981  -20.7469 C   0  0  0  0  0  0  0  0  0  0  0  0
  -28.6843  -30.0136  -19.7880 C   0  0  0  0  0  0  0  0  0  0  0  0
  -27.9527  -29.9511  -18.6374 N   0  0  0  0  0  0  0  0  0  0  0  0
  -28.3837  -29.3336  -17.3743 C   0  0  0  0  0  0  0  0  0  0  0  0
  -29.6049  -29.9389  -16.6767 C   0  0  0  0  0  0  0  0  0  0  0  0
  -28.7738  -30.0805  -15.3878 C   0  0  0  0  0  0  0  0  0  0  0  0
  -27.5057  -29.8044  -16.1849 C   0  0  0  0  0  0  0  0  0  0  0  0
  -26.6740  -30.3122  -18.8039 N   0  0  0  0  0  0  0  0  0  0  0  0
  2  1  1  1
  2  3  1  0
  2  4  1  0
  4  5  2  0
  4  6  1  0
  6  7  1  0
  7  8  2  0
  7  9  1  0
  9 10  1  0
 10 11  1  0
 11 12  2  0
 12 13  1  0
 13 14  1  0
 14 15  1  0
 15 16  1  0
 16 17  1  0
 13 18  1  0
 18 10  2  0
 17 14  1  0
M  END
>  <id>  (339) 
326420

>  <inchikey>  (339) 
RRNUZGYOKFSKRC-ZETCQYMHSA-N

>  <alias>  (339) 
None

>  <smiles>  (339) 
C[C@H](O)C(=S)NC(=O)Nc1ccn(C2CCC2)n1

>  <path>  (339) 
/opt/xchem-fragalysis-2/maxwin/RdRp_FFF/syndirella/mar_elabs/elabs_063/GTOPDHADXIWWQI-UHFFFAOYSA-N/output/GTOPDHADXIWWQI-UHFFFAOYSA-N-EWqKBA-63-A/GTOPDHADXIWWQI-UHFFFAOYSA-N-EWqKBA-63-A.minimised.mol

>  <distance_score>  (339) 
1.174592

>  <energy_score>  (339) 
-24.815712

>  <compound>  (339) 
RRNUZGYOKFSKRC-UHFFFAOYSA-N

>  <compound_id>  (339) 
161674

>  <target>  (339) 
Flavi_NS5_RdRp

>  <tags>  (339) 
[]

>  <inspirations>  (339) 
{P Ã— 2}

>  <subsites>  (339) 
None

>  <reference>  (339) 
z0211a

>  <SLURM_JOB_ID>  (339) 
nan

>  <SLURM_JOB_NAME>  (339) 
nan

>  <csv_name>  (339) 
nan

>  <scratch_subdir>  (339) 
nan

>  <fragmenstein_runtime>  (339) 
nan

>  <fragmenstein_outcome>  (339) 
nan

>  <fragmenstein_mode>  (339) 
nan

>  <fragmenstein_error>  (339) 
nan

>  <exports>  (339) 
nan

>  <Multi-SuCOS>  (339) 
nan

>  <merge_set>  (339) 
nan

$$$$
ROPMWHPUDFDFIJ-SECBINFHSA-N
     RDKit          3D

 18 19  0  0  0  0  0  0  0  0999 V2000
  -21.0528  -31.4149  -21.4340 C   0  0  0  0  0  0  0  0  0  0  0  0
  -21.5449  -32.7005  -21.7569 O   0  0  0  0  0  0  0  0  0  0  0  0
  -22.1255  -32.8750  -23.0538 C   0  0  2  0  0  0  0  0  0  0  0  0
  -21.0494  -32.8706  -24.1307 C   0  0  0  0  0  0  0  0  0  0  0  0
  -23.2426  -31.8993  -23.4173 C   0  0  0  0  0  0  0  0  0  0  0  0
  -24.1817  -31.6623  -22.3632 N   0  0  0  0  0  0  0  0  0  0  0  0
  -25.5596  -30.9556  -22.3880 C   0  0  0  0  0  0  0  0  0  0  0  0
  -26.1560  -30.5394  -23.2622 O   0  0  0  0  0  0  0  0  0  0  0  0
  -25.8748  -30.9568  -20.8737 N   0  0  0  0  0  0  0  0  0  0  0  0
  -26.9761  -30.5454  -20.2095 C   0  0  0  0  0  0  0  0  0  0  0  0
  -28.2135  -30.1568  -20.7538 C   0  0  0  0  0  0  0  0  0  0  0  0
  -29.0039  -29.8679  -19.6667 C   0  0  0  0  0  0  0  0  0  0  0  0
  -28.1853  -29.9894  -18.5800 N   0  0  0  0  0  0  0  0  0  0  0  0
  -28.4664  -29.3927  -17.2666 C   0  0  0  0  0  0  0  0  0  0  0  0
  -29.6128  -30.0097  -16.4666 C   0  0  0  0  0  0  0  0  0  0  0  0
  -28.6711  -30.1182  -15.2531 C   0  0  0  0  0  0  0  0  0  0  0  0
  -27.4771  -29.8508  -16.1673 C   0  0  0  0  0  0  0  0  0  0  0  0
  -26.9618  -30.4467  -18.8873 N   0  0  0  0  0  0  0  0  0  0  0  0
  1  2  1  0
  2  3  1  0
  3  4  1  6
  3  5  1  0
  5  6  1  0
  6  7  1  0
  7  8  2  0
  7  9  1  0
  9 10  1  0
 10 11  1  0
 11 12  2  0
 12 13  1  0
 13 14  1  0
 14 15  1  0
 15 16  1  0
 16 17  1  0
 13 18  1  0
 18 10  2  0
 17 14  1  0
M  END
>  <id>  (340) 
326432

>  <inchikey>  (340) 
ROPMWHPUDFDFIJ-SECBINFHSA-N

>  <alias>  (340) 
None

>  <smiles>  (340) 
CO[C@H](C)CNC(=O)Nc1ccn(C2CCC2)n1

>  <path>  (340) 
/opt/xchem-fragalysis-2/maxwin/RdRp_FFF/syndirella/mar_elabs/elabs_063/GTOPDHADXIWWQI-UHFFFAOYSA-N/output/GTOPDHADXIWWQI-UHFFFAOYSA-N-EWqKBA-86-A/GTOPDHADXIWWQI-UHFFFAOYSA-N-EWqKBA-86-A.minimised.mol

>  <distance_score>  (340) 
0.726426

>  <energy_score>  (340) 
-22.779769

>  <compound>  (340) 
ROPMWHPUDFDFIJ-UHFFFAOYSA-N

>  <compound_id>  (340) 
161690

>  <target>  (340) 
Flavi_NS5_RdRp

>  <tags>  (340) 
[]

>  <inspirations>  (340) 
{P Ã— 2}

>  <subsites>  (340) 
None

>  <reference>  (340) 
z0211a

>  <SLURM_JOB_ID>  (340) 
nan

>  <SLURM_JOB_NAME>  (340) 
nan

>  <csv_name>  (340) 
nan

>  <scratch_subdir>  (340) 
nan

>  <fragmenstein_runtime>  (340) 
nan

>  <fragmenstein_outcome>  (340) 
nan

>  <fragmenstein_mode>  (340) 
nan

>  <fragmenstein_error>  (340) 
nan

>  <exports>  (340) 
nan

>  <Multi-SuCOS>  (340) 
nan

>  <merge_set>  (340) 
nan

$$$$
KVXDYJVNCUAEOM-SSDOTTSWSA-N
     RDKit          3D

 18 19  0  0  0  0  0  0  0  0999 V2000
  -20.7507  -32.5106  -22.4683 C   0  0  0  0  0  0  0  0  0  0  0  0
  -21.4482  -33.3568  -21.4182 C   0  0  1  0  0  0  0  0  0  0  0  0
  -21.5611  -32.5902  -20.2214 O   0  0  0  0  0  0  0  0  0  0  0  0
  -22.8570  -33.7441  -21.9263 C   0  0  0  0  0  0  0  0  0  0  0  0
  -23.0407  -34.6765  -22.7141 N   0  0  0  0  0  0  0  0  0  0  0  0
  -23.8119  -32.7440  -21.3165 N   0  0  0  0  0  0  0  0  0  0  0  0
  -25.4175  -32.6002  -21.3863 C   0  0  0  0  0  0  0  0  0  0  0  0
  -26.2089  -33.1871  -21.9885 O   0  0  0  0  0  0  0  0  0  0  0  0
  -25.5716  -31.4496  -20.4744 N   0  0  0  0  0  0  0  0  0  0  0  0
  -26.6846  -30.8237  -20.0239 C   0  0  0  0  0  0  0  0  0  0  0  0
  -27.9893  -30.8952  -20.5478 C   0  0  0  0  0  0  0  0  0  0  0  0
  -28.7850  -30.2272  -19.6464 C   0  0  0  0  0  0  0  0  0  0  0  0
  -27.9387  -29.8664  -18.6425 N   0  0  0  0  0  0  0  0  0  0  0  0
  -28.3403  -29.2768  -17.3604 C   0  0  0  0  0  0  0  0  0  0  0  0
  -27.4300  -29.7737  -16.2082 C   0  0  0  0  0  0  0  0  0  0  0  0
  -28.6774  -30.0517  -15.3735 C   0  0  0  0  0  0  0  0  0  0  0  0
  -29.5392  -29.9081  -16.6396 C   0  0  0  0  0  0  0  0  0  0  0  0
  -26.6402  -30.0497  -18.9441 N   0  0  0  0  0  0  0  0  0  0  0  0
  2  1  1  6
  2  3  1  0
  2  4  1  0
  4  5  2  3
  4  6  1  0
  6  7  1  0
  7  8  2  0
  7  9  1  0
  9 10  1  0
 10 11  1  0
 11 12  2  0
 12 13  1  0
 13 14  1  0
 14 15  1  0
 15 16  1  0
 16 17  1  0
 13 18  1  0
 18 10  2  0
 17 14  1  0
M  END
>  <id>  (341) 
326443

>  <inchikey>  (341) 
KVXDYJVNCUAEOM-SSDOTTSWSA-N

>  <alias>  (341) 
None

>  <smiles>  (341) 
C[C@@H](O)C(=N)NC(=O)Nc1ccn(C2CCC2)n1

>  <path>  (341) 
/opt/xchem-fragalysis-2/maxwin/RdRp_FFF/syndirella/mar_elabs/elabs_063/GTOPDHADXIWWQI-UHFFFAOYSA-N/output/GTOPDHADXIWWQI-UHFFFAOYSA-N-EWqKBA-102-B/GTOPDHADXIWWQI-UHFFFAOYSA-N-EWqKBA-102-B.minimised.mol

>  <distance_score>  (341) 
1.347067

>  <energy_score>  (341) 
-0.433992

>  <compound>  (341) 
KVXDYJVNCUAEOM-UHFFFAOYSA-N

>  <compound_id>  (341) 
161701

>  <target>  (341) 
Flavi_NS5_RdRp

>  <tags>  (341) 
[]

>  <inspirations>  (341) 
{P Ã— 2}

>  <subsites>  (341) 
None

>  <reference>  (341) 
z0211a

>  <SLURM_JOB_ID>  (341) 
nan

>  <SLURM_JOB_NAME>  (341) 
nan

>  <csv_name>  (341) 
nan

>  <scratch_subdir>  (341) 
nan

>  <fragmenstein_runtime>  (341) 
nan

>  <fragmenstein_outcome>  (341) 
nan

>  <fragmenstein_mode>  (341) 
nan

>  <fragmenstein_error>  (341) 
nan

>  <exports>  (341) 
nan

>  <Multi-SuCOS>  (341) 
nan

>  <merge_set>  (341) 
nan

$$$$
DKDUTYBXEXBNEG-ZDUSSCGKSA-N
     RDKit          3D

 19 20  0  0  0  0  0  0  0  0999 V2000
  -21.2453  -33.5959  -20.9542 C   0  0  0  0  0  0  0  0  0  0  0  0
  -21.7382  -33.6384  -22.2012 C   0  0  0  0  0  0  0  0  0  0  0  0
  -21.8330  -32.4856  -23.1680 C   0  0  2  0  0  0  0  0  0  0  0  0
  -21.0386  -32.8582  -24.4189 C   0  0  0  0  0  0  0  0  0  0  0  0
  -21.2117  -31.3321  -22.5960 O   0  0  0  0  0  0  0  0  0  0  0  0
  -23.3046  -32.2095  -23.5369 C   0  0  0  0  0  0  0  0  0  0  0  0
  -24.1014  -31.7050  -22.4462 N   0  0  0  0  0  0  0  0  0  0  0  0
  -25.4558  -30.9466  -22.4583 C   0  0  0  0  0  0  0  0  0  0  0  0
  -26.0738  -30.5597  -23.3322 O   0  0  0  0  0  0  0  0  0  0  0  0
  -25.7527  -30.9289  -20.9355 N   0  0  0  0  0  0  0  0  0  0  0  0
  -26.8586  -30.5313  -20.2623 C   0  0  0  0  0  0  0  0  0  0  0  0
  -28.1044  -30.1691  -20.8109 C   0  0  0  0  0  0  0  0  0  0  0  0
  -28.9018  -29.8775  -19.7297 C   0  0  0  0  0  0  0  0  0  0  0  0
  -28.0897  -29.9927  -18.6368 N   0  0  0  0  0  0  0  0  0  0  0  0
  -28.3902  -29.3884  -17.3287 C   0  0  0  0  0  0  0  0  0  0  0  0
  -29.5629  -29.9796  -16.5458 C   0  0  0  0  0  0  0  0  0  0  0  0
  -28.6451  -30.1114  -15.3173 C   0  0  0  0  0  0  0  0  0  0  0  0
  -27.4301  -29.8512  -16.2072 C   0  0  0  0  0  0  0  0  0  0  0  0
  -26.8541  -30.4303  -18.9385 N   0  0  0  0  0  0  0  0  0  0  0  0
  1  2  2  0
  2  3  1  0
  3  4  1  6
  3  5  1  0
  3  6  1  0
  6  7  1  0
  7  8  1  0
  8  9  2  0
  8 10  1  0
 10 11  1  0
 11 12  1  0
 12 13  2  0
 13 14  1  0
 14 15  1  0
 15 16  1  0
 16 17  1  0
 17 18  1  0
 14 19  1  0
 19 11  2  0
 18 15  1  0
M  END
>  <id>  (342) 
326884

>  <inchikey>  (342) 
DKDUTYBXEXBNEG-ZDUSSCGKSA-N

>  <alias>  (342) 
None

>  <smiles>  (342) 
C=C[C@](C)(O)CNC(=O)Nc1ccn(C2CCC2)n1

>  <path>  (342) 
/opt/xchem-fragalysis-2/maxwin/RdRp_FFF/syndirella/mar_elabs/elabs_063/GTOPDHADXIWWQI-UHFFFAOYSA-N/output/GTOPDHADXIWWQI-UHFFFAOYSA-N-EWqKBA-760-A/GTOPDHADXIWWQI-UHFFFAOYSA-N-EWqKBA-760-A.minimised.mol

>  <distance_score>  (342) 
0.822827

>  <energy_score>  (342) 
-5.762322

>  <compound>  (342) 
DKDUTYBXEXBNEG-UHFFFAOYSA-N

>  <compound_id>  (342) 
162035

>  <target>  (342) 
Flavi_NS5_RdRp

>  <tags>  (342) 
[]

>  <inspirations>  (342) 
{P Ã— 2}

>  <subsites>  (342) 
None

>  <reference>  (342) 
z0211a

>  <SLURM_JOB_ID>  (342) 
nan

>  <SLURM_JOB_NAME>  (342) 
nan

>  <csv_name>  (342) 
nan

>  <scratch_subdir>  (342) 
nan

>  <fragmenstein_runtime>  (342) 
nan

>  <fragmenstein_outcome>  (342) 
nan

>  <fragmenstein_mode>  (342) 
nan

>  <fragmenstein_error>  (342) 
nan

>  <exports>  (342) 
nan

>  <Multi-SuCOS>  (342) 
nan

>  <merge_set>  (342) 
nan

$$$$
GZBZHJOAGFEXOC-PSASIEDQSA-N
     RDKit          3D

 19 20  0  0  0  0  0  0  0  0999 V2000
  -24.1652  -33.5994  -23.8293 C   0  0  0  0  0  0  0  0  0  0  0  0
  -23.4589  -32.3120  -23.4068 C   0  0  1  0  0  0  0  0  0  0  0  0
  -24.2101  -31.6733  -22.3533 N   0  0  0  0  0  0  0  0  0  0  0  0
  -25.5269  -30.8594  -22.4119 C   0  0  0  0  0  0  0  0  0  0  0  0
  -26.1454  -30.5258  -23.3065 O   0  0  0  0  0  0  0  0  0  0  0  0
  -25.8068  -30.7217  -20.8954 N   0  0  0  0  0  0  0  0  0  0  0  0
  -26.8941  -30.2525  -20.2457 C   0  0  0  0  0  0  0  0  0  0  0  0
  -28.1269  -29.8793  -20.8134 C   0  0  0  0  0  0  0  0  0  0  0  0
  -28.9512  -29.6621  -19.7370 C   0  0  0  0  0  0  0  0  0  0  0  0
  -28.1616  -29.7999  -18.6281 N   0  0  0  0  0  0  0  0  0  0  0  0
  -28.7026  -30.1106  -17.3112 C   0  0  0  0  0  0  0  0  0  0  0  0
  -29.4498  -29.0854  -16.5026 C   0  0  0  0  0  0  0  0  0  0  0  0
  -28.8142  -29.7669  -15.2585 C   0  0  0  0  0  0  0  0  0  0  0  0
  -27.6309  -30.0868  -16.1702 C   0  0  0  0  0  0  0  0  0  0  0  0
  -26.8989  -30.1500  -18.9232 N   0  0  0  0  0  0  0  0  0  0  0  0
  -22.0035  -32.5590  -22.9738 C   0  0  2  0  0  0  0  0  0  0  0  0
  -21.5717  -31.5415  -22.0563 O   0  0  0  0  0  0  0  0  0  0  0  0
  -20.9958  -32.6018  -24.1291 C   0  0  0  0  0  0  0  0  0  0  0  0
  -21.4618  -33.1816  -25.3410 O   0  0  0  0  0  0  0  0  0  0  0  0
  2  1  1  1
  2  3  1  0
  3  4  1  0
  4  5  2  0
  4  6  1  0
  6  7  1  0
  7  8  1  0
  8  9  2  0
  9 10  1  0
 10 11  1  0
 11 12  1  0
 12 13  1  0
 13 14  1  0
 10 15  1  0
  2 16  1  0
 16 17  1  1
 16 18  1  0
 18 19  1  0
 15  7  2  0
 14 11  1  0
M  END
>  <id>  (343) 
326889

>  <inchikey>  (343) 
GZBZHJOAGFEXOC-PSASIEDQSA-N

>  <alias>  (343) 
None

>  <smiles>  (343) 
C[C@@H](NC(=O)Nc1ccn(C2CCC2)n1)[C@H](O)CO

>  <path>  (343) 
/opt/xchem-fragalysis-2/maxwin/RdRp_FFF/syndirella/mar_elabs/elabs_063/GTOPDHADXIWWQI-UHFFFAOYSA-N/output/GTOPDHADXIWWQI-UHFFFAOYSA-N-EWqKBA-762-B/GTOPDHADXIWWQI-UHFFFAOYSA-N-EWqKBA-762-B.minimised.mol

>  <distance_score>  (343) 
0.776821

>  <energy_score>  (343) 
-6.754722

>  <compound>  (343) 
GZBZHJOAGFEXOC-UHFFFAOYSA-N

>  <compound_id>  (343) 
162037

>  <target>  (343) 
Flavi_NS5_RdRp

>  <tags>  (343) 
[]

>  <inspirations>  (343) 
{P Ã— 2}

>  <subsites>  (343) 
None

>  <reference>  (343) 
z0211a

>  <SLURM_JOB_ID>  (343) 
nan

>  <SLURM_JOB_NAME>  (343) 
nan

>  <csv_name>  (343) 
nan

>  <scratch_subdir>  (343) 
nan

>  <fragmenstein_runtime>  (343) 
nan

>  <fragmenstein_outcome>  (343) 
nan

>  <fragmenstein_mode>  (343) 
nan

>  <fragmenstein_error>  (343) 
nan

>  <exports>  (343) 
nan

>  <Multi-SuCOS>  (343) 
nan

>  <merge_set>  (343) 
nan

$$$$
MEFDULPBWJRWLQ-UHFFFAOYSA-N
     RDKit          3D

 19 20  0  0  0  0  0  0  0  0999 V2000
  -20.5059  -33.2532  -22.9054 C   0  0  0  0  0  0  0  0  0  0  0  0
  -21.3635  -32.0330  -22.5923 C   0  0  0  0  0  0  0  0  0  0  0  0
  -21.0023  -31.5808  -21.1783 C   0  0  0  0  0  0  0  0  0  0  0  0
  -20.9748  -31.0092  -23.5082 O   0  0  0  0  0  0  0  0  0  0  0  0
  -22.8638  -32.4734  -22.8326 C   0  0  0  0  0  0  0  0  0  0  0  0
  -23.0859  -33.2336  -23.7798 N   0  0  0  0  0  0  0  0  0  0  0  0
  -23.7802  -31.8647  -21.8111 N   0  0  0  0  0  0  0  0  0  0  0  0
  -25.3766  -31.8932  -21.6470 C   0  0  0  0  0  0  0  0  0  0  0  0
  -26.1866  -32.4584  -22.2358 O   0  0  0  0  0  0  0  0  0  0  0  0
  -25.5049  -30.8994  -20.5741 N   0  0  0  0  0  0  0  0  0  0  0  0
  -26.6011  -30.3101  -20.0462 C   0  0  0  0  0  0  0  0  0  0  0  0
  -27.8716  -30.2640  -20.6559 C   0  0  0  0  0  0  0  0  0  0  0  0
  -28.6817  -29.6458  -19.7385 C   0  0  0  0  0  0  0  0  0  0  0  0
  -27.9038  -29.4983  -18.6153 N   0  0  0  0  0  0  0  0  0  0  0  0
  -28.4461  -29.9767  -17.3427 C   0  0  0  0  0  0  0  0  0  0  0  0
  -29.3820  -29.1215  -16.5234 C   0  0  0  0  0  0  0  0  0  0  0  0
  -28.7364  -29.8002  -15.2851 C   0  0  0  0  0  0  0  0  0  0  0  0
  -27.4704  -29.9536  -16.1438 C   0  0  0  0  0  0  0  0  0  0  0  0
  -26.5870  -29.6715  -18.8800 N   0  0  0  0  0  0  0  0  0  0  0  0
  1  2  1  0
  2  3  1  0
  2  4  1  0
  2  5  1  0
  5  6  2  3
  5  7  1  0
  7  8  1  0
  8  9  2  0
  8 10  1  0
 10 11  1  0
 11 12  1  0
 12 13  2  0
 13 14  1  0
 14 15  1  0
 15 16  1  0
 16 17  1  0
 17 18  1  0
 14 19  1  0
 19 11  2  0
 18 15  1  0
M  END
>  <id>  (344) 
326895

>  <inchikey>  (344) 
MEFDULPBWJRWLQ-UHFFFAOYSA-N

>  <alias>  (344) 
None

>  <smiles>  (344) 
CC(C)(O)C(=N)NC(=O)Nc1ccn(C2CCC2)n1

>  <path>  (344) 
/opt/xchem-fragalysis-2/maxwin/RdRp_FFF/syndirella/mar_elabs/elabs_063/GTOPDHADXIWWQI-UHFFFAOYSA-N/output/GTOPDHADXIWWQI-UHFFFAOYSA-N-EWqKBA-767-A/GTOPDHADXIWWQI-UHFFFAOYSA-N-EWqKBA-767-A.minimised.mol

>  <distance_score>  (344) 
0.926659

>  <energy_score>  (344) 
-20.843081

>  <compound>  (344) 
MEFDULPBWJRWLQ-UHFFFAOYSA-N

>  <compound_id>  (344) 
162042

>  <target>  (344) 
Flavi_NS5_RdRp

>  <tags>  (344) 
[]

>  <inspirations>  (344) 
{P Ã— 2}

>  <subsites>  (344) 
None

>  <reference>  (344) 
z0211a

>  <SLURM_JOB_ID>  (344) 
nan

>  <SLURM_JOB_NAME>  (344) 
nan

>  <csv_name>  (344) 
nan

>  <scratch_subdir>  (344) 
nan

>  <fragmenstein_runtime>  (344) 
nan

>  <fragmenstein_outcome>  (344) 
nan

>  <fragmenstein_mode>  (344) 
nan

>  <fragmenstein_error>  (344) 
nan

>  <exports>  (344) 
nan

>  <Multi-SuCOS>  (344) 
nan

>  <merge_set>  (344) 
nan

$$$$
RMOIXXOYVUNCML-SNVBAGLBSA-N
     RDKit          3D

 19 20  0  0  0  0  0  0  0  0999 V2000
  -23.5866  -35.0585  -22.4116 C   0  0  0  0  0  0  0  0  0  0  0  0
  -21.9779  -34.6214  -21.7140 S   0  0  0  0  0  0  0  0  0  0  0  0
  -21.3440  -33.4793  -23.0062 C   0  0  0  0  0  0  0  0  0  0  0  0
  -21.7734  -32.0270  -22.8203 C   0  0  2  0  0  0  0  0  0  0  0  0
  -21.5269  -31.6000  -21.4779 O   0  0  0  0  0  0  0  0  0  0  0  0
  -23.2094  -31.7745  -23.2699 C   0  0  0  0  0  0  0  0  0  0  0  0
  -24.1212  -31.4361  -22.2238 N   0  0  0  0  0  0  0  0  0  0  0  0
  -25.5453  -30.8420  -22.2918 C   0  0  0  0  0  0  0  0  0  0  0  0
  -26.2038  -30.6159  -23.1889 O   0  0  0  0  0  0  0  0  0  0  0  0
  -25.8144  -30.6508  -20.7835 N   0  0  0  0  0  0  0  0  0  0  0  0
  -26.9299  -30.2510  -20.1391 C   0  0  0  0  0  0  0  0  0  0  0  0
  -28.1797  -29.9540  -20.7155 C   0  0  0  0  0  0  0  0  0  0  0  0
  -29.0151  -29.7508  -19.6455 C   0  0  0  0  0  0  0  0  0  0  0  0
  -28.2216  -29.8420  -18.5354 N   0  0  0  0  0  0  0  0  0  0  0  0
  -28.7516  -30.1364  -17.2123 C   0  0  0  0  0  0  0  0  0  0  0  0
  -29.4648  -29.0788  -16.4221 C   0  0  0  0  0  0  0  0  0  0  0  0
  -28.8358  -29.7513  -15.1699 C   0  0  0  0  0  0  0  0  0  0  0  0
  -27.6688  -30.1183  -16.0816 C   0  0  0  0  0  0  0  0  0  0  0  0
  -26.9413  -30.1248  -18.8197 N   0  0  0  0  0  0  0  0  0  0  0  0
  1  2  1  0
  2  3  1  0
  3  4  1  0
  4  5  1  1
  4  6  1  0
  6  7  1  0
  7  8  1  0
  8  9  2  0
  8 10  1  0
 10 11  1  0
 11 12  1  0
 12 13  2  0
 13 14  1  0
 14 15  1  0
 15 16  1  0
 16 17  1  0
 17 18  1  0
 14 19  1  0
 19 11  2  0
 18 15  1  0
M  END
>  <id>  (345) 
326901

>  <inchikey>  (345) 
RMOIXXOYVUNCML-SNVBAGLBSA-N

>  <alias>  (345) 
None

>  <smiles>  (345) 
CSC[C@H](O)CNC(=O)Nc1ccn(C2CCC2)n1

>  <path>  (345) 
/opt/xchem-fragalysis-2/maxwin/RdRp_FFF/syndirella/mar_elabs/elabs_063/GTOPDHADXIWWQI-UHFFFAOYSA-N/output/GTOPDHADXIWWQI-UHFFFAOYSA-N-EWqKBA-771-A/GTOPDHADXIWWQI-UHFFFAOYSA-N-EWqKBA-771-A.minimised.mol

>  <distance_score>  (345) 
0.758541

>  <energy_score>  (345) 
-7.108698

>  <compound>  (345) 
RMOIXXOYVUNCML-UHFFFAOYSA-N

>  <compound_id>  (345) 
162046

>  <target>  (345) 
Flavi_NS5_RdRp

>  <tags>  (345) 
[]

>  <inspirations>  (345) 
{P Ã— 2}

>  <subsites>  (345) 
None

>  <reference>  (345) 
z0211a

>  <SLURM_JOB_ID>  (345) 
nan

>  <SLURM_JOB_NAME>  (345) 
nan

>  <csv_name>  (345) 
nan

>  <scratch_subdir>  (345) 
nan

>  <fragmenstein_runtime>  (345) 
nan

>  <fragmenstein_outcome>  (345) 
nan

>  <fragmenstein_mode>  (345) 
nan

>  <fragmenstein_error>  (345) 
nan

>  <exports>  (345) 
nan

>  <Multi-SuCOS>  (345) 
nan

>  <merge_set>  (345) 
nan

$$$$
GGKKHLNGZUJCQX-SECBINFHSA-N
     RDKit          3D

 19 20  0  0  0  0  0  0  0  0999 V2000
  -19.4983  -32.5777  -20.7154 C   0  0  0  0  0  0  0  0  0  0  0  0
  -20.4427  -33.0063  -21.8286 C   0  0  0  0  0  0  0  0  0  0  0  0
  -21.4170  -31.8848  -22.1862 C   0  0  1  0  0  0  0  0  0  0  0  0
  -20.9123  -31.1521  -23.2956 O   0  0  0  0  0  0  0  0  0  0  0  0
  -22.7949  -32.4857  -22.5558 C   0  0  0  0  0  0  0  0  0  0  0  0
  -22.9132  -33.2422  -23.5237 N   0  0  0  0  0  0  0  0  0  0  0  0
  -23.8074  -31.9649  -21.5600 N   0  0  0  0  0  0  0  0  0  0  0  0
  -25.4075  -32.1192  -21.4676 C   0  0  0  0  0  0  0  0  0  0  0  0
  -26.1497  -32.7341  -22.1004 O   0  0  0  0  0  0  0  0  0  0  0  0
  -25.6515  -31.1568  -20.3850 N   0  0  0  0  0  0  0  0  0  0  0  0
  -26.8058  -30.6601  -19.8927 C   0  0  0  0  0  0  0  0  0  0  0  0
  -28.1093  -30.8066  -20.4021 C   0  0  0  0  0  0  0  0  0  0  0  0
  -28.9299  -30.2092  -19.4725 C   0  0  0  0  0  0  0  0  0  0  0  0
  -28.0905  -29.8081  -18.4783 N   0  0  0  0  0  0  0  0  0  0  0  0
  -28.4877  -29.2848  -17.1707 C   0  0  0  0  0  0  0  0  0  0  0  0
  -29.6439  -29.9852  -16.4508 C   0  0  0  0  0  0  0  0  0  0  0  0
  -28.7509  -30.1024  -15.2003 C   0  0  0  0  0  0  0  0  0  0  0  0
  -27.5325  -29.8074  -16.0656 C   0  0  0  0  0  0  0  0  0  0  0  0
  -26.7896  -29.9100  -18.7985 N   0  0  0  0  0  0  0  0  0  0  0  0
  1  2  1  0
  2  3  1  0
  3  4  1  6
  3  5  1  0
  5  6  2  3
  5  7  1  0
  7  8  1  0
  8  9  2  0
  8 10  1  0
 10 11  1  0
 11 12  1  0
 12 13  2  0
 13 14  1  0
 14 15  1  0
 15 16  1  0
 16 17  1  0
 17 18  1  0
 14 19  1  0
 19 11  2  0
 18 15  1  0
M  END
>  <id>  (346) 
326919

>  <inchikey>  (346) 
GGKKHLNGZUJCQX-SECBINFHSA-N

>  <alias>  (346) 
None

>  <smiles>  (346) 
CC[C@@H](O)C(=N)NC(=O)Nc1ccn(C2CCC2)n1

>  <path>  (346) 
/opt/xchem-fragalysis-2/maxwin/RdRp_FFF/syndirella/mar_elabs/elabs_063/GTOPDHADXIWWQI-UHFFFAOYSA-N/output/GTOPDHADXIWWQI-UHFFFAOYSA-N-EWqKBA-785-B/GTOPDHADXIWWQI-UHFFFAOYSA-N-EWqKBA-785-B.minimised.mol

>  <distance_score>  (346) 
1.14406

>  <energy_score>  (346) 
-31.99413

>  <compound>  (346) 
GGKKHLNGZUJCQX-UHFFFAOYSA-N

>  <compound_id>  (346) 
162060

>  <target>  (346) 
Flavi_NS5_RdRp

>  <tags>  (346) 
[]

>  <inspirations>  (346) 
{P Ã— 2}

>  <subsites>  (346) 
None

>  <reference>  (346) 
z0211a

>  <SLURM_JOB_ID>  (346) 
nan

>  <SLURM_JOB_NAME>  (346) 
nan

>  <csv_name>  (346) 
nan

>  <scratch_subdir>  (346) 
nan

>  <fragmenstein_runtime>  (346) 
nan

>  <fragmenstein_outcome>  (346) 
nan

>  <fragmenstein_mode>  (346) 
nan

>  <fragmenstein_error>  (346) 
nan

>  <exports>  (346) 
nan

>  <Multi-SuCOS>  (346) 
nan

>  <merge_set>  (346) 
nan

$$$$
GNSUKGSPZBOLID-QMMMGPOBSA-N
     RDKit          3D

 19 20  0  0  0  0  0  0  0  0999 V2000
  -26.4869  -30.4060  -23.2691 O   0  0  0  0  0  0  0  0  0  0  0  0
  -25.8550  -30.8362  -22.4282 C   0  0  0  0  0  0  0  0  0  0  0  0
  -24.5616  -31.6814  -22.4826 N   0  0  0  0  0  0  0  0  0  0  0  0
  -23.7545  -32.0733  -23.6019 C   0  0  0  0  0  0  0  0  0  0  0  0
  -22.3762  -32.5551  -23.1749 C   0  0  2  0  0  0  0  0  0  0  0  0
  -21.7323  -31.5820  -22.3531 O   0  0  0  0  0  0  0  0  0  0  0  0
  -21.5813  -32.9508  -24.4157 C   0  0  0  0  0  0  0  0  0  0  0  0
  -22.0042  -33.2008  -25.5351 O   0  0  0  0  0  0  0  0  0  0  0  0
  -20.2701  -33.0958  -24.1501 O   0  0  0  0  0  0  0  0  0  0  0  0
  -26.0907  -30.8353  -20.9029 N   0  0  0  0  0  0  0  0  0  0  0  0
  -27.1443  -30.4054  -20.1837 C   0  0  0  0  0  0  0  0  0  0  0  0
  -28.4092  -30.0321  -20.6682 C   0  0  0  0  0  0  0  0  0  0  0  0
  -29.1637  -29.8205  -19.5405 C   0  0  0  0  0  0  0  0  0  0  0  0
  -28.2909  -29.9247  -18.4964 N   0  0  0  0  0  0  0  0  0  0  0  0
  -28.5393  -29.3807  -17.1594 C   0  0  0  0  0  0  0  0  0  0  0  0
  -29.6469  -30.0535  -16.3538 C   0  0  0  0  0  0  0  0  0  0  0  0
  -28.6766  -30.1380  -15.1602 C   0  0  0  0  0  0  0  0  0  0  0  0
  -27.5109  -29.8598  -16.1070 C   0  0  0  0  0  0  0  0  0  0  0  0
  -27.0700  -30.3361  -18.8631 N   0  0  0  0  0  0  0  0  0  0  0  0
  1  2  2  0
  2  3  1  0
  3  4  1  0
  4  5  1  0
  5  6  1  6
  5  7  1  0
  7  8  2  0
  7  9  1  0
  2 10  1  0
 10 11  1  0
 11 12  1  0
 12 13  2  0
 13 14  1  0
 14 15  1  0
 15 16  1  0
 16 17  1  0
 17 18  1  0
 14 19  1  0
 19 11  2  0
 18 15  1  0
M  END
>  <id>  (347) 
326930

>  <inchikey>  (347) 
GNSUKGSPZBOLID-QMMMGPOBSA-N

>  <alias>  (347) 
None

>  <smiles>  (347) 
O=C(NC[C@H](O)C(=O)O)Nc1ccn(C2CCC2)n1

>  <path>  (347) 
/opt/xchem-fragalysis-2/maxwin/RdRp_FFF/syndirella/mar_elabs/elabs_063/GTOPDHADXIWWQI-UHFFFAOYSA-N/output/GTOPDHADXIWWQI-UHFFFAOYSA-N-EWqKBA-794-A/GTOPDHADXIWWQI-UHFFFAOYSA-N-EWqKBA-794-A.minimised.mol

>  <distance_score>  (347) 
0.758372

>  <energy_score>  (347) 
-10.041424

>  <compound>  (347) 
GNSUKGSPZBOLID-UHFFFAOYSA-N

>  <compound_id>  (347) 
162069

>  <target>  (347) 
Flavi_NS5_RdRp

>  <tags>  (347) 
[]

>  <inspirations>  (347) 
{P Ã— 2}

>  <subsites>  (347) 
None

>  <reference>  (347) 
z0211a

>  <SLURM_JOB_ID>  (347) 
nan

>  <SLURM_JOB_NAME>  (347) 
nan

>  <csv_name>  (347) 
nan

>  <scratch_subdir>  (347) 
nan

>  <fragmenstein_runtime>  (347) 
nan

>  <fragmenstein_outcome>  (347) 
nan

>  <fragmenstein_mode>  (347) 
nan

>  <fragmenstein_error>  (347) 
nan

>  <exports>  (347) 
nan

>  <Multi-SuCOS>  (347) 
nan

>  <merge_set>  (347) 
nan

$$$$
IUEYKBGYEAPOFE-PSASIEDQSA-N
     RDKit          3D

 19 20  0  0  0  0  0  0  0  0999 V2000
  -20.9844  -32.7936  -23.9347 C   0  0  0  0  0  0  0  0  0  0  0  0
  -22.0388  -32.5374  -22.8740 C   0  0  1  0  0  0  0  0  0  0  0  0
  -21.5342  -31.5189  -22.0025 O   0  0  0  0  0  0  0  0  0  0  0  0
  -23.3987  -32.1113  -23.4491 C   0  0  1  0  0  0  0  0  0  0  0  0
  -24.0872  -33.2323  -24.2490 C   0  0  0  0  0  0  0  0  0  0  0  0
  -25.0435  -32.7227  -25.1742 O   0  0  0  0  0  0  0  0  0  0  0  0
  -24.2565  -31.6780  -22.3612 N   0  0  0  0  0  0  0  0  0  0  0  0
  -25.6206  -30.9550  -22.3904 C   0  0  0  0  0  0  0  0  0  0  0  0
  -26.2828  -30.6730  -23.2690 O   0  0  0  0  0  0  0  0  0  0  0  0
  -25.8672  -30.8197  -20.8704 N   0  0  0  0  0  0  0  0  0  0  0  0
  -26.9650  -30.4158  -20.1949 C   0  0  0  0  0  0  0  0  0  0  0  0
  -28.2230  -30.0768  -20.7268 C   0  0  0  0  0  0  0  0  0  0  0  0
  -29.0158  -29.8331  -19.6304 C   0  0  0  0  0  0  0  0  0  0  0  0
  -28.1838  -29.9303  -18.5519 N   0  0  0  0  0  0  0  0  0  0  0  0
  -28.4800  -29.3731  -17.2265 C   0  0  0  0  0  0  0  0  0  0  0  0
  -27.4895  -29.8533  -16.1377 C   0  0  0  0  0  0  0  0  0  0  0  0
  -28.6840  -30.1300  -15.2279 C   0  0  0  0  0  0  0  0  0  0  0  0
  -29.6217  -30.0204  -16.4455 C   0  0  0  0  0  0  0  0  0  0  0  0
  -26.9434  -30.3277  -18.8725 N   0  0  0  0  0  0  0  0  0  0  0  0
  2  1  1  6
  2  3  1  0
  2  4  1  0
  4  5  1  1
  5  6  1  0
  4  7  1  0
  7  8  1  0
  8  9  2  0
  8 10  1  0
 10 11  1  0
 11 12  1  0
 12 13  2  0
 13 14  1  0
 14 15  1  0
 15 16  1  0
 16 17  1  0
 17 18  1  0
 14 19  1  0
 19 11  2  0
 18 15  1  0
M  END
>  <id>  (348) 
326945

>  <inchikey>  (348) 
IUEYKBGYEAPOFE-PSASIEDQSA-N

>  <alias>  (348) 
None

>  <smiles>  (348) 
C[C@@H](O)[C@@H](CO)NC(=O)Nc1ccn(C2CCC2)n1

>  <path>  (348) 
/opt/xchem-fragalysis-2/maxwin/RdRp_FFF/syndirella/mar_elabs/elabs_063/GTOPDHADXIWWQI-UHFFFAOYSA-N/output/GTOPDHADXIWWQI-UHFFFAOYSA-N-EWqKBA-805-D/GTOPDHADXIWWQI-UHFFFAOYSA-N-EWqKBA-805-D.minimised.mol

>  <distance_score>  (348) 
0.68484

>  <energy_score>  (348) 
-33.60279

>  <compound>  (348) 
IUEYKBGYEAPOFE-UHFFFAOYSA-N

>  <compound_id>  (348) 
162080

>  <target>  (348) 
Flavi_NS5_RdRp

>  <tags>  (348) 
[]

>  <inspirations>  (348) 
{P Ã— 2}

>  <subsites>  (348) 
None

>  <reference>  (348) 
z0211a

>  <SLURM_JOB_ID>  (348) 
nan

>  <SLURM_JOB_NAME>  (348) 
nan

>  <csv_name>  (348) 
nan

>  <scratch_subdir>  (348) 
nan

>  <fragmenstein_runtime>  (348) 
nan

>  <fragmenstein_outcome>  (348) 
nan

>  <fragmenstein_mode>  (348) 
nan

>  <fragmenstein_error>  (348) 
nan

>  <exports>  (348) 
nan

>  <Multi-SuCOS>  (348) 
nan

>  <merge_set>  (348) 
nan

$$$$
MEJDEISOUDYZHF-UHFFFAOYSA-N
     RDKit          3D

 19 20  0  0  0  0  0  0  0  0999 V2000
  -22.9301  -34.5297  -21.9428 C   0  0  0  0  0  0  0  0  0  0  0  0
  -22.0245  -34.0399  -22.9191 O   0  0  0  0  0  0  0  0  0  0  0  0
  -21.8861  -32.6144  -23.0262 C   0  0  0  0  0  0  0  0  0  0  0  0
  -21.2090  -32.0291  -21.7796 C   0  0  0  0  0  0  0  0  0  0  0  0
  -20.9211  -32.4616  -24.2097 C   0  0  0  0  0  0  0  0  0  0  0  0
  -23.2030  -31.9145  -23.4103 C   0  0  0  0  0  0  0  0  0  0  0  0
  -24.1334  -31.6403  -22.3475 N   0  0  0  0  0  0  0  0  0  0  0  0
  -25.5247  -30.9585  -22.3832 C   0  0  0  0  0  0  0  0  0  0  0  0
  -26.1426  -30.5959  -23.2664 O   0  0  0  0  0  0  0  0  0  0  0  0
  -25.8697  -31.0089  -20.8752 N   0  0  0  0  0  0  0  0  0  0  0  0
  -26.9545  -30.5547  -20.2103 C   0  0  0  0  0  0  0  0  0  0  0  0
  -28.1893  -30.1616  -20.7579 C   0  0  0  0  0  0  0  0  0  0  0  0
  -28.9765  -29.8556  -19.6735 C   0  0  0  0  0  0  0  0  0  0  0  0
  -28.1597  -29.9761  -18.5855 N   0  0  0  0  0  0  0  0  0  0  0  0
  -28.4480  -29.3851  -17.2712 C   0  0  0  0  0  0  0  0  0  0  0  0
  -29.6006  -30.0024  -16.4799 C   0  0  0  0  0  0  0  0  0  0  0  0
  -28.6662  -30.1174  -15.2614 C   0  0  0  0  0  0  0  0  0  0  0  0
  -27.4664  -29.8498  -16.1680 C   0  0  0  0  0  0  0  0  0  0  0  0
  -26.9353  -30.4358  -18.8896 N   0  0  0  0  0  0  0  0  0  0  0  0
  1  2  1  0
  2  3  1  0
  3  4  1  0
  3  5  1  0
  3  6  1  0
  6  7  1  0
  7  8  1  0
  8  9  2  0
  8 10  1  0
 10 11  1  0
 11 12  1  0
 12 13  2  0
 13 14  1  0
 14 15  1  0
 15 16  1  0
 16 17  1  0
 17 18  1  0
 14 19  1  0
 19 11  2  0
 18 15  1  0
M  END
>  <id>  (349) 
326954

>  <inchikey>  (349) 
MEJDEISOUDYZHF-UHFFFAOYSA-N

>  <alias>  (349) 
None

>  <smiles>  (349) 
COC(C)(C)CNC(=O)Nc1ccn(C2CCC2)n1

>  <path>  (349) 
/opt/xchem-fragalysis-2/maxwin/RdRp_FFF/syndirella/mar_elabs/elabs_063/GTOPDHADXIWWQI-UHFFFAOYSA-N/output/GTOPDHADXIWWQI-UHFFFAOYSA-N-EWqKBA-813-A/GTOPDHADXIWWQI-UHFFFAOYSA-N-EWqKBA-813-A.minimised.mol

>  <distance_score>  (349) 
0.749955

>  <energy_score>  (349) 
-37.864894

>  <compound>  (349) 
MEJDEISOUDYZHF-UHFFFAOYSA-N

>  <compound_id>  (349) 
162088

>  <target>  (349) 
Flavi_NS5_RdRp

>  <tags>  (349) 
[]

>  <inspirations>  (349) 
{P Ã— 2}

>  <subsites>  (349) 
None

>  <reference>  (349) 
z0211a

>  <SLURM_JOB_ID>  (349) 
nan

>  <SLURM_JOB_NAME>  (349) 
nan

>  <csv_name>  (349) 
nan

>  <scratch_subdir>  (349) 
nan

>  <fragmenstein_runtime>  (349) 
nan

>  <fragmenstein_outcome>  (349) 
nan

>  <fragmenstein_mode>  (349) 
nan

>  <fragmenstein_error>  (349) 
nan

>  <exports>  (349) 
nan

>  <Multi-SuCOS>  (349) 
nan

>  <merge_set>  (349) 
nan

$$$$
KWZQEJZGNSGHGZ-UHFFFAOYSA-N
     RDKit          3D

 18 20  0  0  0  0  0  0  0  0999 V2000
  -21.8347  -33.8676  -23.3970 C   0  0  0  0  0  0  0  0  0  0  0  0
  -22.4328  -32.7332  -22.6027 C   0  0  0  0  0  0  0  0  0  0  0  0
  -21.4817  -32.3071  -21.5977 O   0  0  0  0  0  0  0  0  0  0  0  0
  -23.0211  -31.6638  -23.4803 C   0  0  0  0  0  0  0  0  0  0  0  0
  -23.9820  -31.3235  -22.3698 N   0  0  0  0  0  0  0  0  0  0  0  0
  -25.4287  -30.8579  -22.4243 C   0  0  0  0  0  0  0  0  0  0  0  0
  -26.1308  -30.7362  -23.3172 O   0  0  0  0  0  0  0  0  0  0  0  0
  -25.6679  -30.5904  -20.9225 N   0  0  0  0  0  0  0  0  0  0  0  0
  -26.7950  -30.2288  -20.2640 C   0  0  0  0  0  0  0  0  0  0  0  0
  -28.0484  -29.9387  -20.8409 C   0  0  0  0  0  0  0  0  0  0  0  0
  -28.8821  -29.7039  -19.7760 C   0  0  0  0  0  0  0  0  0  0  0  0
  -28.0939  -29.7935  -18.6605 N   0  0  0  0  0  0  0  0  0  0  0  0
  -28.6451  -30.1039  -17.3468 C   0  0  0  0  0  0  0  0  0  0  0  0
  -29.4178  -29.0906  -16.5439 C   0  0  0  0  0  0  0  0  0  0  0  0
  -28.7922  -29.7720  -15.2942 C   0  0  0  0  0  0  0  0  0  0  0  0
  -27.5916  -30.0756  -16.1918 C   0  0  0  0  0  0  0  0  0  0  0  0
  -26.8158  -30.1054  -18.9417 N   0  0  0  0  0  0  0  0  0  0  0  0
  -23.8876  -32.8682  -22.1829 C   0  0  0  0  0  0  0  0  0  0  0  0
  1  2  1  0
  2  3  1  0
  2  4  1  0
  4  5  1  0
  5  6  1  0
  6  7  2  0
  6  8  1  0
  8  9  1  0
  9 10  1  0
 10 11  2  0
 11 12  1  0
 12 13  1  0
 13 14  1  0
 14 15  1  0
 15 16  1  0
 12 17  1  0
  5 18  1  0
 18  2  1  0
 17  9  2  0
 16 13  1  0
M  END
>  <id>  (350) 
328331

>  <inchikey>  (350) 
KWZQEJZGNSGHGZ-UHFFFAOYSA-N

>  <alias>  (350) 
None

>  <smiles>  (350) 
CC1(O)CN(C(=O)Nc2ccn(C3CCC3)n2)C1

>  <path>  (350) 
/opt/xchem-fragalysis-2/maxwin/RdRp_FFF/syndirella/mar_elabs/elabs_063/GTOPDHADXIWWQI-UHFFFAOYSA-N/output/GTOPDHADXIWWQI-UHFFFAOYSA-N-3abTdt-80-A/GTOPDHADXIWWQI-UHFFFAOYSA-N-3abTdt-80-A.minimised.mol

>  <distance_score>  (350) 
0.82101

>  <energy_score>  (350) 
-25.775186

>  <compound>  (350) 
KWZQEJZGNSGHGZ-UHFFFAOYSA-N

>  <compound_id>  (350) 
161686

>  <target>  (350) 
Flavi_NS5_RdRp

>  <tags>  (350) 
[]

>  <inspirations>  (350) 
{P Ã— 2}

>  <subsites>  (350) 
None

>  <reference>  (350) 
z0211a

>  <SLURM_JOB_ID>  (350) 
nan

>  <SLURM_JOB_NAME>  (350) 
nan

>  <csv_name>  (350) 
nan

>  <scratch_subdir>  (350) 
nan

>  <fragmenstein_runtime>  (350) 
nan

>  <fragmenstein_outcome>  (350) 
nan

>  <fragmenstein_mode>  (350) 
nan

>  <fragmenstein_error>  (350) 
nan

>  <exports>  (350) 
nan

>  <Multi-SuCOS>  (350) 
nan

>  <merge_set>  (350) 
nan

$$$$
SUOHERYIYYNOCF-SNVBAGLBSA-N
     RDKit          3D

 18 19  0  0  0  0  0  0  0  0999 V2000
  -21.0974  -32.9397  -25.0800 C   0  0  0  0  0  0  0  0  0  0  0  0
  -21.2198  -33.3860  -23.6334 C   0  0  0  0  0  0  0  0  0  0  0  0
  -21.9558  -32.4171  -22.7221 C   0  0  1  0  0  0  0  0  0  0  0  0
  -21.1686  -31.2396  -22.5894 O   0  0  0  0  0  0  0  0  0  0  0  0
  -23.3691  -32.1285  -23.2204 C   0  0  0  0  0  0  0  0  0  0  0  0
  -24.1729  -31.5229  -22.1995 N   0  0  0  0  0  0  0  0  0  0  0  0
  -25.5419  -30.8137  -22.2937 C   0  0  0  0  0  0  0  0  0  0  0  0
  -26.1722  -30.5524  -23.2019 O   0  0  0  0  0  0  0  0  0  0  0  0
  -25.8378  -30.6344  -20.7889 N   0  0  0  0  0  0  0  0  0  0  0  0
  -26.9518  -30.2058  -20.1636 C   0  0  0  0  0  0  0  0  0  0  0  0
  -28.1963  -29.8977  -20.7412 C   0  0  0  0  0  0  0  0  0  0  0  0
  -29.0345  -29.7136  -19.6689 C   0  0  0  0  0  0  0  0  0  0  0  0
  -28.2428  -29.8112  -18.5575 N   0  0  0  0  0  0  0  0  0  0  0  0
  -28.7671  -30.1255  -17.2366 C   0  0  0  0  0  0  0  0  0  0  0  0
  -29.4839  -29.0817  -16.4304 C   0  0  0  0  0  0  0  0  0  0  0  0
  -28.8423  -29.7592  -15.1879 C   0  0  0  0  0  0  0  0  0  0  0  0
  -27.6782  -30.1089  -16.1096 C   0  0  0  0  0  0  0  0  0  0  0  0
  -26.9628  -30.0876  -18.8439 N   0  0  0  0  0  0  0  0  0  0  0  0
  1  2  1  0
  2  3  1  0
  3  4  1  6
  3  5  1  0
  5  6  1  0
  6  7  1  0
  7  8  2  0
  7  9  1  0
  9 10  1  0
 10 11  1  0
 11 12  2  0
 12 13  1  0
 13 14  1  0
 14 15  1  0
 15 16  1  0
 16 17  1  0
 13 18  1  0
 18 10  2  0
 17 14  1  0
M  END
>  <id>  (351) 
328348

>  <inchikey>  (351) 
SUOHERYIYYNOCF-SNVBAGLBSA-N

>  <alias>  (351) 
None

>  <smiles>  (351) 
CC[C@@H](O)CNC(=O)Nc1ccn(C2CCC2)n1

>  <path>  (351) 
/opt/xchem-fragalysis-2/maxwin/RdRp_FFF/syndirella/mar_elabs/elabs_063/GTOPDHADXIWWQI-UHFFFAOYSA-N/output/GTOPDHADXIWWQI-UHFFFAOYSA-N-3abTdt-102-B/GTOPDHADXIWWQI-UHFFFAOYSA-N-3abTdt-102-B.minimised.mol

>  <distance_score>  (351) 
0.777188

>  <energy_score>  (351) 
-16.533009

>  <compound>  (351) 
SUOHERYIYYNOCF-UHFFFAOYSA-N

>  <compound_id>  (351) 
161670

>  <target>  (351) 
Flavi_NS5_RdRp

>  <tags>  (351) 
[]

>  <inspirations>  (351) 
{P Ã— 2}

>  <subsites>  (351) 
None

>  <reference>  (351) 
z0211a

>  <SLURM_JOB_ID>  (351) 
nan

>  <SLURM_JOB_NAME>  (351) 
nan

>  <csv_name>  (351) 
nan

>  <scratch_subdir>  (351) 
nan

>  <fragmenstein_runtime>  (351) 
nan

>  <fragmenstein_outcome>  (351) 
nan

>  <fragmenstein_mode>  (351) 
nan

>  <fragmenstein_error>  (351) 
nan

>  <exports>  (351) 
nan

>  <Multi-SuCOS>  (351) 
nan

>  <merge_set>  (351) 
nan

$$$$
YIMXLIULAMGWOJ-QMMMGPOBSA-N
     RDKit          3D

 19 20  0  0  0  0  0  0  0  0999 V2000
  -20.7867  -32.3356  -19.8880 C   0  0  0  0  0  0  0  0  0  0  0  0
  -21.8638  -32.4609  -20.8090 O   0  0  0  0  0  0  0  0  0  0  0  0
  -21.5102  -32.2011  -22.1738 C   0  0  1  0  0  0  0  0  0  0  0  0
  -20.6632  -33.3249  -22.7287 C   0  0  0  0  0  0  0  0  0  0  0  0
  -22.8219  -32.0090  -22.9896 C   0  0  0  0  0  0  0  0  0  0  0  0
  -22.9026  -32.2072  -24.2047 N   0  0  0  0  0  0  0  0  0  0  0  0
  -23.8225  -31.4671  -21.9940 N   0  0  0  0  0  0  0  0  0  0  0  0
  -25.3670  -31.0606  -22.1354 C   0  0  0  0  0  0  0  0  0  0  0  0
  -26.0572  -31.0118  -23.0545 O   0  0  0  0  0  0  0  0  0  0  0  0
  -25.6419  -30.7587  -20.7245 N   0  0  0  0  0  0  0  0  0  0  0  0
  -26.7953  -30.4283  -20.1029 C   0  0  0  0  0  0  0  0  0  0  0  0
  -28.0746  -30.2615  -20.6671 C   0  0  0  0  0  0  0  0  0  0  0  0
  -28.8928  -29.9410  -19.6083 C   0  0  0  0  0  0  0  0  0  0  0  0
  -28.0740  -29.9021  -18.5182 N   0  0  0  0  0  0  0  0  0  0  0  0
  -28.4430  -29.3457  -17.2116 C   0  0  0  0  0  0  0  0  0  0  0  0
  -27.5071  -29.8445  -16.0847 C   0  0  0  0  0  0  0  0  0  0  0  0
  -28.7393  -30.1147  -15.2284 C   0  0  0  0  0  0  0  0  0  0  0  0
  -29.6230  -29.9920  -16.4850 C   0  0  0  0  0  0  0  0  0  0  0  0
  -26.7933  -30.1892  -18.7988 N   0  0  0  0  0  0  0  0  0  0  0  0
  1  2  1  0
  2  3  1  0
  3  4  1  6
  3  5  1  0
  5  6  2  3
  5  7  1  0
  7  8  1  0
  8  9  2  0
  8 10  1  0
 10 11  1  0
 11 12  1  0
 12 13  2  0
 13 14  1  0
 14 15  1  0
 15 16  1  0
 16 17  1  0
 17 18  1  0
 14 19  1  0
 19 11  2  0
 18 15  1  0
M  END
>  <id>  (352) 
328776

>  <inchikey>  (352) 
YIMXLIULAMGWOJ-QMMMGPOBSA-N

>  <alias>  (352) 
None

>  <smiles>  (352) 
CO[C@@H](C)C(=N)NC(=O)Nc1ccn(C2CCC2)n1

>  <path>  (352) 
/opt/xchem-fragalysis-2/maxwin/RdRp_FFF/syndirella/mar_elabs/elabs_063/GTOPDHADXIWWQI-UHFFFAOYSA-N/output/GTOPDHADXIWWQI-UHFFFAOYSA-N-3abTdt-764-B/GTOPDHADXIWWQI-UHFFFAOYSA-N-3abTdt-764-B.minimised.mol

>  <distance_score>  (352) 
0.801521

>  <energy_score>  (352) 
-32.651671

>  <compound>  (352) 
YIMXLIULAMGWOJ-UHFFFAOYSA-N

>  <compound_id>  (352) 
162083

>  <target>  (352) 
Flavi_NS5_RdRp

>  <tags>  (352) 
[]

>  <inspirations>  (352) 
{P Ã— 2}

>  <subsites>  (352) 
None

>  <reference>  (352) 
z0211a

>  <SLURM_JOB_ID>  (352) 
nan

>  <SLURM_JOB_NAME>  (352) 
nan

>  <csv_name>  (352) 
nan

>  <scratch_subdir>  (352) 
nan

>  <fragmenstein_runtime>  (352) 
nan

>  <fragmenstein_outcome>  (352) 
nan

>  <fragmenstein_mode>  (352) 
nan

>  <fragmenstein_error>  (352) 
nan

>  <exports>  (352) 
nan

>  <Multi-SuCOS>  (352) 
nan

>  <merge_set>  (352) 
nan

$$$$
APURYEFGOKVWPM-MRVPVSSYSA-N
     RDKit          3D

 19 20  0  0  0  0  0  0  0  0999 V2000
  -21.6862  -34.4945  -19.8928 C   0  0  0  0  0  0  0  0  0  0  0  0
  -22.2397  -33.5088  -20.7570 O   0  0  0  0  0  0  0  0  0  0  0  0
  -21.7424  -33.5860  -22.1019 C   0  0  2  0  0  0  0  0  0  0  0  0
  -20.4767  -32.7485  -22.2089 C   0  0  0  0  0  0  0  0  0  0  0  0
  -22.8177  -33.0194  -23.0630 C   0  0  0  0  0  0  0  0  0  0  0  0
  -22.8749  -33.3511  -24.5898 S   0  0  0  0  0  0  0  0  0  0  0  0
  -23.7227  -32.0979  -22.1259 N   0  0  0  0  0  0  0  0  0  0  0  0
  -25.0917  -31.2589  -22.3932 C   0  0  0  0  0  0  0  0  0  0  0  0
  -25.6903  -31.0676  -23.3548 O   0  0  0  0  0  0  0  0  0  0  0  0
  -25.3887  -30.8947  -20.9981 N   0  0  0  0  0  0  0  0  0  0  0  0
  -26.4844  -30.3168  -20.4511 C   0  0  0  0  0  0  0  0  0  0  0  0
  -27.6907  -29.9680  -21.0922 C   0  0  0  0  0  0  0  0  0  0  0  0
  -28.5170  -29.5381  -20.0808 C   0  0  0  0  0  0  0  0  0  0  0  0
  -27.7883  -29.6568  -18.9262 N   0  0  0  0  0  0  0  0  0  0  0  0
  -28.4223  -30.0375  -17.6650 C   0  0  0  0  0  0  0  0  0  0  0  0
  -29.3392  -29.1022  -16.9010 C   0  0  0  0  0  0  0  0  0  0  0  0
  -28.7697  -29.7655  -15.6179 C   0  0  0  0  0  0  0  0  0  0  0  0
  -27.4798  -29.9712  -16.4262 C   0  0  0  0  0  0  0  0  0  0  0  0
  -26.5208  -30.0530  -19.1489 N   0  0  0  0  0  0  0  0  0  0  0  0
  1  2  1  0
  2  3  1  0
  3  4  1  1
  3  5  1  0
  5  6  2  0
  5  7  1  0
  7  8  1  0
  8  9  2  0
  8 10  1  0
 10 11  1  0
 11 12  1  0
 12 13  2  0
 13 14  1  0
 14 15  1  0
 15 16  1  0
 16 17  1  0
 17 18  1  0
 14 19  1  0
 19 11  2  0
 18 15  1  0
M  END
>  <id>  (353) 
328777

>  <inchikey>  (353) 
APURYEFGOKVWPM-MRVPVSSYSA-N

>  <alias>  (353) 
None

>  <smiles>  (353) 
CO[C@H](C)C(=S)NC(=O)Nc1ccn(C2CCC2)n1

>  <path>  (353) 
/opt/xchem-fragalysis-2/maxwin/RdRp_FFF/syndirella/mar_elabs/elabs_063/GTOPDHADXIWWQI-UHFFFAOYSA-N/output/GTOPDHADXIWWQI-UHFFFAOYSA-N-3abTdt-766-A/GTOPDHADXIWWQI-UHFFFAOYSA-N-3abTdt-766-A.minimised.mol

>  <distance_score>  (353) 
1.177878

>  <energy_score>  (353) 
-25.599644

>  <compound>  (353) 
APURYEFGOKVWPM-UHFFFAOYSA-N

>  <compound_id>  (353) 
162040

>  <target>  (353) 
Flavi_NS5_RdRp

>  <tags>  (353) 
[]

>  <inspirations>  (353) 
{P Ã— 2}

>  <subsites>  (353) 
None

>  <reference>  (353) 
z0211a

>  <SLURM_JOB_ID>  (353) 
nan

>  <SLURM_JOB_NAME>  (353) 
nan

>  <csv_name>  (353) 
nan

>  <scratch_subdir>  (353) 
nan

>  <fragmenstein_runtime>  (353) 
nan

>  <fragmenstein_outcome>  (353) 
nan

>  <fragmenstein_mode>  (353) 
nan

>  <fragmenstein_error>  (353) 
nan

>  <exports>  (353) 
nan

>  <Multi-SuCOS>  (353) 
nan

>  <merge_set>  (353) 
nan

$$$$
CKGCSJIOLWVJNP-KOLCDFICSA-N
     RDKit          3D

 19 20  0  0  0  0  0  0  0  0999 V2000
  -22.9848  -33.5086  -25.2399 C   0  0  0  0  0  0  0  0  0  0  0  0
  -23.7533  -32.6895  -24.2163 C   0  0  0  0  0  0  0  0  0  0  0  0
  -23.1701  -32.7015  -22.7959 C   0  0  2  0  0  0  0  0  0  0  0  0
  -24.0099  -31.9871  -21.8469 N   0  0  0  0  0  0  0  0  0  0  0  0
  -25.3439  -31.2284  -22.0605 C   0  0  0  0  0  0  0  0  0  0  0  0
  -25.9150  -31.0024  -23.0169 O   0  0  0  0  0  0  0  0  0  0  0  0
  -25.7186  -30.9599  -20.5885 N   0  0  0  0  0  0  0  0  0  0  0  0
  -26.8536  -30.4714  -20.0522 C   0  0  0  0  0  0  0  0  0  0  0  0
  -28.0871  -30.1995  -20.6703 C   0  0  0  0  0  0  0  0  0  0  0  0
  -28.9281  -29.8493  -19.6360 C   0  0  0  0  0  0  0  0  0  0  0  0
  -28.1512  -29.8724  -18.5131 N   0  0  0  0  0  0  0  0  0  0  0  0
  -28.5223  -29.3407  -17.1982 C   0  0  0  0  0  0  0  0  0  0  0  0
  -27.5540  -29.8377  -16.0897 C   0  0  0  0  0  0  0  0  0  0  0  0
  -28.7658  -30.1392  -15.2193 C   0  0  0  0  0  0  0  0  0  0  0  0
  -29.6720  -30.0242  -16.4624 C   0  0  0  0  0  0  0  0  0  0  0  0
  -26.8845  -30.2292  -18.7522 N   0  0  0  0  0  0  0  0  0  0  0  0
  -21.7182  -32.2037  -22.6298 C   0  0  1  0  0  0  0  0  0  0  0  0
  -20.7179  -33.3116  -22.8578 C   0  0  0  0  0  0  0  0  0  0  0  0
  -21.3733  -31.1505  -23.5054 O   0  0  0  0  0  0  0  0  0  0  0  0
  1  2  1  0
  3  2  1  6
  3  4  1  0
  4  5  1  0
  5  6  2  0
  5  7  1  0
  7  8  1  0
  8  9  1  0
  9 10  2  0
 10 11  1  0
 11 12  1  0
 12 13  1  0
 13 14  1  0
 14 15  1  0
 11 16  1  0
  3 17  1  0
 17 18  1  6
 17 19  1  0
 16  8  2  0
 15 12  1  0
M  END
>  <id>  (354) 
328780

>  <inchikey>  (354) 
CKGCSJIOLWVJNP-KOLCDFICSA-N

>  <alias>  (354) 
None

>  <smiles>  (354) 
CC[C@H](NC(=O)Nc1ccn(C2CCC2)n1)[C@@H](C)O

>  <path>  (354) 
/opt/xchem-fragalysis-2/maxwin/RdRp_FFF/syndirella/mar_elabs/elabs_063/GTOPDHADXIWWQI-UHFFFAOYSA-N/output/GTOPDHADXIWWQI-UHFFFAOYSA-N-3abTdt-769-C/GTOPDHADXIWWQI-UHFFFAOYSA-N-3abTdt-769-C.minimised.mol

>  <distance_score>  (354) 
0.82439

>  <energy_score>  (354) 
-24.720929

>  <compound>  (354) 
CKGCSJIOLWVJNP-UHFFFAOYSA-N

>  <compound_id>  (354) 
162062

>  <target>  (354) 
Flavi_NS5_RdRp

>  <tags>  (354) 
[]

>  <inspirations>  (354) 
{P Ã— 2}

>  <subsites>  (354) 
None

>  <reference>  (354) 
z0211a

>  <SLURM_JOB_ID>  (354) 
nan

>  <SLURM_JOB_NAME>  (354) 
nan

>  <csv_name>  (354) 
nan

>  <scratch_subdir>  (354) 
nan

>  <fragmenstein_runtime>  (354) 
nan

>  <fragmenstein_outcome>  (354) 
nan

>  <fragmenstein_mode>  (354) 
nan

>  <fragmenstein_error>  (354) 
nan

>  <exports>  (354) 
nan

>  <Multi-SuCOS>  (354) 
nan

>  <merge_set>  (354) 
nan

$$$$
NUACUXYHPXFHSF-ZETCQYMHSA-N
     RDKit          3D

 19 20  0  0  0  0  0  0  0  0999 V2000
  -20.6380  -33.1112  -25.0534 C   0  0  0  0  0  0  0  0  0  0  0  0
  -22.0328  -33.5056  -24.6300 C   0  0  2  0  0  0  0  0  0  0  0  0
  -22.9379  -32.8955  -25.5453 O   0  0  0  0  0  0  0  0  0  0  0  0
  -22.2660  -33.0929  -23.1634 C   0  0  0  0  0  0  0  0  0  0  0  0
  -21.4939  -33.2243  -22.2997 O   0  0  0  0  0  0  0  0  0  0  0  0
  -23.6939  -32.4951  -23.1503 N   0  0  0  0  0  0  0  0  0  0  0  0
  -24.3715  -31.9000  -22.1735 N   0  0  0  0  0  0  0  0  0  0  0  0
  -25.6600  -31.0310  -22.2272 C   0  0  0  0  0  0  0  0  0  0  0  0
  -26.2565  -30.6557  -23.1207 O   0  0  0  0  0  0  0  0  0  0  0  0
  -25.9484  -30.9136  -20.7144 N   0  0  0  0  0  0  0  0  0  0  0  0
  -27.0180  -30.4184  -20.0675 C   0  0  0  0  0  0  0  0  0  0  0  0
  -28.2667  -30.0743  -20.6155 C   0  0  0  0  0  0  0  0  0  0  0  0
  -29.0593  -29.8034  -19.5258 C   0  0  0  0  0  0  0  0  0  0  0  0
  -28.2282  -29.8787  -18.4461 N   0  0  0  0  0  0  0  0  0  0  0  0
  -28.5358  -29.3607  -17.1133 C   0  0  0  0  0  0  0  0  0  0  0  0
  -27.5330  -29.8608  -16.0424 C   0  0  0  0  0  0  0  0  0  0  0  0
  -28.7207  -30.1472  -15.1311 C   0  0  0  0  0  0  0  0  0  0  0  0
  -29.6593  -30.0556  -16.3508 C   0  0  0  0  0  0  0  0  0  0  0  0
  -26.9871  -30.2731  -18.7541 N   0  0  0  0  0  0  0  0  0  0  0  0
  2  1  1  6
  2  3  1  0
  2  4  1  0
  4  5  2  0
  4  6  1  0
  6  7  1  0
  7  8  1  0
  8  9  2  0
  8 10  1  0
 10 11  1  0
 11 12  1  0
 12 13  2  0
 13 14  1  0
 14 15  1  0
 15 16  1  0
 16 17  1  0
 17 18  1  0
 14 19  1  0
 19 11  2  0
 18 15  1  0
M  END
>  <id>  (355) 
328791

>  <inchikey>  (355) 
NUACUXYHPXFHSF-ZETCQYMHSA-N

>  <alias>  (355) 
None

>  <smiles>  (355) 
C[C@H](O)C(=O)NNC(=O)Nc1ccn(C2CCC2)n1

>  <path>  (355) 
/opt/xchem-fragalysis-2/maxwin/RdRp_FFF/syndirella/mar_elabs/elabs_063/GTOPDHADXIWWQI-UHFFFAOYSA-N/output/GTOPDHADXIWWQI-UHFFFAOYSA-N-3abTdt-794-A/GTOPDHADXIWWQI-UHFFFAOYSA-N-3abTdt-794-A.minimised.mol

>  <distance_score>  (355) 
0.801573

>  <energy_score>  (355) 
-26.274556

>  <compound>  (355) 
NUACUXYHPXFHSF-UHFFFAOYSA-N

>  <compound_id>  (355) 
162070

>  <target>  (355) 
Flavi_NS5_RdRp

>  <tags>  (355) 
[]

>  <inspirations>  (355) 
{P Ã— 2}

>  <subsites>  (355) 
None

>  <reference>  (355) 
z0211a

>  <SLURM_JOB_ID>  (355) 
nan

>  <SLURM_JOB_NAME>  (355) 
nan

>  <csv_name>  (355) 
nan

>  <scratch_subdir>  (355) 
nan

>  <fragmenstein_runtime>  (355) 
nan

>  <fragmenstein_outcome>  (355) 
nan

>  <fragmenstein_mode>  (355) 
nan

>  <fragmenstein_error>  (355) 
nan

>  <exports>  (355) 
nan

>  <Multi-SuCOS>  (355) 
nan

>  <merge_set>  (355) 
nan

$$$$
UTLBNLAJZDWRHG-VIFPVBQESA-N
     RDKit          3D

 19 20  0  0  0  0  0  0  0  0999 V2000
  -20.2513  -33.0941  -22.7596 C   0  0  0  0  0  0  0  0  0  0  0  0
  -21.3285  -32.4419  -23.6041 C   0  0  2  0  0  0  0  0  0  0  0  0
  -20.9038  -31.1103  -23.9162 O   0  0  0  0  0  0  0  0  0  0  0  0
  -22.5927  -32.4375  -22.7577 C   0  0  0  0  0  0  0  0  0  0  0  0
  -23.7129  -31.7018  -23.3533 N   0  0  0  0  0  0  0  0  0  0  0  0
  -24.4288  -32.4922  -24.3518 C   0  0  0  0  0  0  0  0  0  0  0  0
  -24.5311  -31.3043  -22.3155 N   0  0  0  0  0  0  0  0  0  0  0  0
  -25.9518  -30.6739  -22.3389 C   0  0  0  0  0  0  0  0  0  0  0  0
  -26.5931  -30.3346  -23.2181 O   0  0  0  0  0  0  0  0  0  0  0  0
  -26.2427  -30.6504  -20.8239 N   0  0  0  0  0  0  0  0  0  0  0  0
  -27.3527  -30.3095  -20.1593 C   0  0  0  0  0  0  0  0  0  0  0  0
  -28.6339  -30.0052  -20.6283 C   0  0  0  0  0  0  0  0  0  0  0  0
  -29.3823  -29.8419  -19.4849 C   0  0  0  0  0  0  0  0  0  0  0  0
  -28.4868  -29.8929  -18.4556 N   0  0  0  0  0  0  0  0  0  0  0  0
  -28.7076  -29.3724  -17.1077 C   0  0  0  0  0  0  0  0  0  0  0  0
  -27.6214  -29.8384  -16.1030 C   0  0  0  0  0  0  0  0  0  0  0  0
  -28.7407  -30.1493  -15.1148 C   0  0  0  0  0  0  0  0  0  0  0  0
  -29.7519  -30.1088  -16.2789 C   0  0  0  0  0  0  0  0  0  0  0  0
  -27.2623  -30.2461  -18.8421 N   0  0  0  0  0  0  0  0  0  0  0  0
  2  1  1  1
  2  3  1  0
  2  4  1  0
  4  5  1  0
  5  6  1  0
  5  7  1  0
  7  8  1  0
  8  9  2  0
  8 10  1  0
 10 11  1  0
 11 12  1  0
 12 13  2  0
 13 14  1  0
 14 15  1  0
 15 16  1  0
 16 17  1  0
 17 18  1  0
 14 19  1  0
 19 11  2  0
 18 15  1  0
M  END
>  <id>  (356) 
328819

>  <inchikey>  (356) 
UTLBNLAJZDWRHG-VIFPVBQESA-N

>  <alias>  (356) 
None

>  <smiles>  (356) 
C[C@H](O)CN(C)NC(=O)Nc1ccn(C2CCC2)n1

>  <path>  (356) 
/opt/xchem-fragalysis-2/maxwin/RdRp_FFF/syndirella/mar_elabs/elabs_063/GTOPDHADXIWWQI-UHFFFAOYSA-N/output/GTOPDHADXIWWQI-UHFFFAOYSA-N-3abTdt-815-A/GTOPDHADXIWWQI-UHFFFAOYSA-N-3abTdt-815-A.minimised.mol

>  <distance_score>  (356) 
0.938625

>  <energy_score>  (356) 
-8.178854

>  <compound>  (356) 
UTLBNLAJZDWRHG-UHFFFAOYSA-N

>  <compound_id>  (356) 
162036

>  <target>  (356) 
Flavi_NS5_RdRp

>  <tags>  (356) 
[]

>  <inspirations>  (356) 
{P Ã— 2}

>  <subsites>  (356) 
None

>  <reference>  (356) 
z0211a

>  <SLURM_JOB_ID>  (356) 
nan

>  <SLURM_JOB_NAME>  (356) 
nan

>  <csv_name>  (356) 
nan

>  <scratch_subdir>  (356) 
nan

>  <fragmenstein_runtime>  (356) 
nan

>  <fragmenstein_outcome>  (356) 
nan

>  <fragmenstein_mode>  (356) 
nan

>  <fragmenstein_error>  (356) 
nan

>  <exports>  (356) 
nan

>  <Multi-SuCOS>  (356) 
nan

>  <merge_set>  (356) 
nan

$$$$
WWOOMFFWUQYPER-SECBINFHSA-N
     RDKit          3D

 18 19  0  0  0  0  0  0  0  0999 V2000
  -26.3068  -30.4499  -23.3277 O   0  0  0  0  0  0  0  0  0  0  0  0
  -25.6598  -30.7677  -22.4481 C   0  0  0  0  0  0  0  0  0  0  0  0
  -24.3167  -31.5347  -22.4210 N   0  0  0  0  0  0  0  0  0  0  0  0
  -23.5693  -32.1363  -23.4866 C   0  0  0  0  0  0  0  0  0  0  0  0
  -22.0557  -31.9778  -23.3073 C   0  0  1  0  0  0  0  0  0  0  0  0
  -21.7250  -31.7581  -21.9248 O   0  0  0  0  0  0  0  0  0  0  0  0
  -21.3228  -33.2370  -23.7488 C   0  0  0  0  0  0  0  0  0  0  0  0
  -21.7007  -34.3274  -22.9064 O   0  0  0  0  0  0  0  0  0  0  0  0
  -25.9097  -30.6414  -20.9258 N   0  0  0  0  0  0  0  0  0  0  0  0
  -26.9941  -30.2051  -20.2516 C   0  0  0  0  0  0  0  0  0  0  0  0
  -28.2316  -29.8104  -20.7911 C   0  0  0  0  0  0  0  0  0  0  0  0
  -29.0496  -29.6663  -19.6979 C   0  0  0  0  0  0  0  0  0  0  0  0
  -28.2443  -29.8308  -18.6052 N   0  0  0  0  0  0  0  0  0  0  0  0
  -28.7585  -30.1299  -17.2764 C   0  0  0  0  0  0  0  0  0  0  0  0
  -27.6617  -30.1012  -16.1572 C   0  0  0  0  0  0  0  0  0  0  0  0
  -28.8242  -29.7600  -15.2279 C   0  0  0  0  0  0  0  0  0  0  0  0
  -29.4724  -29.0829  -16.4677 C   0  0  0  0  0  0  0  0  0  0  0  0
  -26.9886  -30.1773  -18.9258 N   0  0  0  0  0  0  0  0  0  0  0  0
  1  2  2  0
  2  3  1  0
  3  4  1  0
  4  5  1  0
  5  6  1  1
  5  7  1  0
  7  8  1  0
  2  9  1  0
  9 10  1  0
 10 11  1  0
 11 12  2  0
 12 13  1  0
 13 14  1  0
 14 15  1  0
 15 16  1  0
 16 17  1  0
 13 18  1  0
 18 10  2  0
 17 14  1  0
M  END
>  <id>  (357) 
330195

>  <inchikey>  (357) 
WWOOMFFWUQYPER-SECBINFHSA-N

>  <alias>  (357) 
None

>  <smiles>  (357) 
O=C(NC[C@@H](O)CO)Nc1ccn(C2CCC2)n1

>  <path>  (357) 
/opt/xchem-fragalysis-2/maxwin/RdRp_FFF/syndirella/mar_elabs/elabs_063/GTOPDHADXIWWQI-UHFFFAOYSA-N/output/GTOPDHADXIWWQI-UHFFFAOYSA-N-n4XWgD-15-B/GTOPDHADXIWWQI-UHFFFAOYSA-N-n4XWgD-15-B.minimised.mol

>  <distance_score>  (357) 
0.762749

>  <energy_score>  (357) 
-17.076684

>  <compound>  (357) 
WWOOMFFWUQYPER-UHFFFAOYSA-N

>  <compound_id>  (357) 
161698

>  <target>  (357) 
Flavi_NS5_RdRp

>  <tags>  (357) 
[]

>  <inspirations>  (357) 
{P Ã— 2}

>  <subsites>  (357) 
None

>  <reference>  (357) 
z0211a

>  <SLURM_JOB_ID>  (357) 
nan

>  <SLURM_JOB_NAME>  (357) 
nan

>  <csv_name>  (357) 
nan

>  <scratch_subdir>  (357) 
nan

>  <fragmenstein_runtime>  (357) 
nan

>  <fragmenstein_outcome>  (357) 
nan

>  <fragmenstein_mode>  (357) 
nan

>  <fragmenstein_error>  (357) 
nan

>  <exports>  (357) 
nan

>  <Multi-SuCOS>  (357) 
nan

>  <merge_set>  (357) 
nan

$$$$
FRIULZKLSCIVLW-SECBINFHSA-N
     RDKit          3D

 18 19  0  0  0  0  0  0  0  0999 V2000
  -26.2593  -30.6087  -23.2080 O   0  0  0  0  0  0  0  0  0  0  0  0
  -25.5964  -30.8283  -22.3125 C   0  0  0  0  0  0  0  0  0  0  0  0
  -24.1976  -31.4755  -22.2424 N   0  0  0  0  0  0  0  0  0  0  0  0
  -23.3152  -31.8884  -23.2884 C   0  0  0  0  0  0  0  0  0  0  0  0
  -22.0885  -32.5995  -22.7407 C   0  0  2  0  0  0  0  0  0  0  0  0
  -21.5685  -31.8796  -21.6139 O   0  0  0  0  0  0  0  0  0  0  0  0
  -21.0324  -32.6951  -23.8209 C   0  0  0  0  0  0  0  0  0  0  0  0
  -19.9496  -33.3261  -23.2918 F   0  0  0  0  0  0  0  0  0  0  0  0
  -25.8584  -30.6269  -20.8045 N   0  0  0  0  0  0  0  0  0  0  0  0
  -26.9705  -30.2235  -20.1577 C   0  0  0  0  0  0  0  0  0  0  0  0
  -28.2139  -29.8880  -20.7251 C   0  0  0  0  0  0  0  0  0  0  0  0
  -29.0500  -29.7259  -19.6479 C   0  0  0  0  0  0  0  0  0  0  0  0
  -28.2562  -29.8508  -18.5418 N   0  0  0  0  0  0  0  0  0  0  0  0
  -28.7792  -30.1426  -17.2157 C   0  0  0  0  0  0  0  0  0  0  0  0
  -27.6858  -30.1223  -16.0927 C   0  0  0  0  0  0  0  0  0  0  0  0
  -28.8444  -29.7505  -15.1732 C   0  0  0  0  0  0  0  0  0  0  0  0
  -29.4795  -29.0785  -16.4224 C   0  0  0  0  0  0  0  0  0  0  0  0
  -26.9835  -30.1509  -18.8346 N   0  0  0  0  0  0  0  0  0  0  0  0
  1  2  2  0
  2  3  1  0
  3  4  1  0
  4  5  1  0
  5  6  1  1
  5  7  1  0
  7  8  1  0
  2  9  1  0
  9 10  1  0
 10 11  1  0
 11 12  2  0
 12 13  1  0
 13 14  1  0
 14 15  1  0
 15 16  1  0
 16 17  1  0
 13 18  1  0
 18 10  2  0
 17 14  1  0
M  END
>  <id>  (358) 
330197

>  <inchikey>  (358) 
FRIULZKLSCIVLW-SECBINFHSA-N

>  <alias>  (358) 
None

>  <smiles>  (358) 
O=C(NC[C@H](O)CF)Nc1ccn(C2CCC2)n1

>  <path>  (358) 
/opt/xchem-fragalysis-2/maxwin/RdRp_FFF/syndirella/mar_elabs/elabs_063/GTOPDHADXIWWQI-UHFFFAOYSA-N/output/GTOPDHADXIWWQI-UHFFFAOYSA-N-n4XWgD-24-A/GTOPDHADXIWWQI-UHFFFAOYSA-N-n4XWgD-24-A.minimised.mol

>  <distance_score>  (358) 
0.773806

>  <energy_score>  (358) 
-0.291967

>  <compound>  (358) 
FRIULZKLSCIVLW-UHFFFAOYSA-N

>  <compound_id>  (358) 
161682

>  <target>  (358) 
Flavi_NS5_RdRp

>  <tags>  (358) 
[]

>  <inspirations>  (358) 
{P Ã— 2}

>  <subsites>  (358) 
None

>  <reference>  (358) 
z0211a

>  <SLURM_JOB_ID>  (358) 
nan

>  <SLURM_JOB_NAME>  (358) 
nan

>  <csv_name>  (358) 
nan

>  <scratch_subdir>  (358) 
nan

>  <fragmenstein_runtime>  (358) 
nan

>  <fragmenstein_outcome>  (358) 
nan

>  <fragmenstein_mode>  (358) 
nan

>  <fragmenstein_error>  (358) 
nan

>  <exports>  (358) 
nan

>  <Multi-SuCOS>  (358) 
nan

>  <merge_set>  (358) 
nan

$$$$
RHPJCKNVIZNQKS-UHFFFAOYSA-N
     RDKit          3D

 18 20  0  0  0  0  0  0  0  0999 V2000
  -21.3192  -33.3197  -25.1591 C   0  0  0  0  0  0  0  0  0  0  0  0
  -21.2623  -32.7545  -23.8560 O   0  0  0  0  0  0  0  0  0  0  0  0
  -22.5620  -32.4507  -23.2983 C   0  0  0  0  0  0  0  0  0  0  0  0
  -22.6917  -32.0758  -21.8368 C   0  0  0  0  0  0  0  0  0  0  0  0
  -24.0989  -32.7827  -21.8574 N   0  0  0  0  0  0  0  0  0  0  0  0
  -25.2261  -31.7764  -22.0918 C   0  0  0  0  0  0  0  0  0  0  0  0
  -25.6974  -31.4113  -23.0666 O   0  0  0  0  0  0  0  0  0  0  0  0
  -25.6058  -31.4784  -20.6285 N   0  0  0  0  0  0  0  0  0  0  0  0
  -26.6477  -30.7812  -20.1166 C   0  0  0  0  0  0  0  0  0  0  0  0
  -27.7864  -30.3059  -20.8022 C   0  0  0  0  0  0  0  0  0  0  0  0
  -28.6188  -29.8175  -19.8197 C   0  0  0  0  0  0  0  0  0  0  0  0
  -27.9303  -29.9720  -18.6497 N   0  0  0  0  0  0  0  0  0  0  0  0
  -28.3144  -29.3591  -17.3680 C   0  0  0  0  0  0  0  0  0  0  0  0
  -27.4197  -29.8291  -16.1913 C   0  0  0  0  0  0  0  0  0  0  0  0
  -28.6804  -30.0926  -15.3730 C   0  0  0  0  0  0  0  0  0  0  0  0
  -29.5308  -29.9440  -16.6478 C   0  0  0  0  0  0  0  0  0  0  0  0
  -26.7225  -30.5318  -18.8166 N   0  0  0  0  0  0  0  0  0  0  0  0
  -23.3575  -33.6512  -22.8228 C   0  0  0  0  0  0  0  0  0  0  0  0
  1  2  1  0
  2  3  1  0
  3  4  1  0
  4  5  1  0
  5  6  1  0
  6  7  2  0
  6  8  1  0
  8  9  1  0
  9 10  1  0
 10 11  2  0
 11 12  1  0
 12 13  1  0
 13 14  1  0
 14 15  1  0
 15 16  1  0
 12 17  1  0
  5 18  1  0
 18  3  1  0
 17  9  2  0
 16 13  1  0
M  END
>  <id>  (359) 
330223

>  <inchikey>  (359) 
RHPJCKNVIZNQKS-UHFFFAOYSA-N

>  <alias>  (359) 
None

>  <smiles>  (359) 
COC1CN(C(=O)Nc2ccn(C3CCC3)n2)C1

>  <path>  (359) 
/opt/xchem-fragalysis-2/maxwin/RdRp_FFF/syndirella/mar_elabs/elabs_063/GTOPDHADXIWWQI-UHFFFAOYSA-N/output/GTOPDHADXIWWQI-UHFFFAOYSA-N-n4XWgD-57-A/GTOPDHADXIWWQI-UHFFFAOYSA-N-n4XWgD-57-A.minimised.mol

>  <distance_score>  (359) 
0.884411

>  <energy_score>  (359) 
-29.599047

>  <compound>  (359) 
RHPJCKNVIZNQKS-UHFFFAOYSA-N

>  <compound_id>  (359) 
161705

>  <target>  (359) 
Flavi_NS5_RdRp

>  <tags>  (359) 
[]

>  <inspirations>  (359) 
{P Ã— 2}

>  <subsites>  (359) 
None

>  <reference>  (359) 
z0211a

>  <SLURM_JOB_ID>  (359) 
nan

>  <SLURM_JOB_NAME>  (359) 
nan

>  <csv_name>  (359) 
nan

>  <scratch_subdir>  (359) 
nan

>  <fragmenstein_runtime>  (359) 
nan

>  <fragmenstein_outcome>  (359) 
nan

>  <fragmenstein_mode>  (359) 
nan

>  <fragmenstein_error>  (359) 
nan

>  <exports>  (359) 
nan

>  <Multi-SuCOS>  (359) 
nan

>  <merge_set>  (359) 
nan

$$$$
OPNWCORNTKXEPJ-CYBMUJFWSA-N
     RDKit          3D

 19 20  0  0  0  0  0  0  0  0999 V2000
  -21.6832  -33.4901  -25.3526 C   0  0  0  0  0  0  0  0  0  0  0  0
  -21.1239  -32.7416  -24.1497 C   0  0  0  0  0  0  0  0  0  0  0  0
  -22.0931  -32.5643  -22.9683 C   0  0  1  0  0  0  0  0  0  0  0  0
  -22.2457  -33.8770  -22.1908 C   0  0  0  0  0  0  0  0  0  0  0  0
  -21.4949  -31.6205  -22.0691 O   0  0  0  0  0  0  0  0  0  0  0  0
  -23.4576  -32.0409  -23.4361 C   0  0  0  0  0  0  0  0  0  0  0  0
  -24.2937  -31.5859  -22.3660 N   0  0  0  0  0  0  0  0  0  0  0  0
  -25.6285  -30.8056  -22.4005 C   0  0  0  0  0  0  0  0  0  0  0  0
  -26.2723  -30.4903  -23.2828 O   0  0  0  0  0  0  0  0  0  0  0  0
  -25.8808  -30.6701  -20.8811 N   0  0  0  0  0  0  0  0  0  0  0  0
  -26.9646  -30.2258  -20.2116 C   0  0  0  0  0  0  0  0  0  0  0  0
  -28.2101  -29.8711  -20.7628 C   0  0  0  0  0  0  0  0  0  0  0  0
  -29.0276  -29.6893  -19.6757 C   0  0  0  0  0  0  0  0  0  0  0  0
  -28.2214  -29.8189  -18.5786 N   0  0  0  0  0  0  0  0  0  0  0  0
  -28.7403  -30.1249  -17.2534 C   0  0  0  0  0  0  0  0  0  0  0  0
  -29.4641  -29.0835  -16.4481 C   0  0  0  0  0  0  0  0  0  0  0  0
  -28.8207  -29.7604  -15.2057 C   0  0  0  0  0  0  0  0  0  0  0  0
  -27.6523  -30.1010  -16.1282 C   0  0  0  0  0  0  0  0  0  0  0  0
  -26.9556  -30.1388  -18.8887 N   0  0  0  0  0  0  0  0  0  0  0  0
  1  2  1  0
  2  3  1  0
  3  4  1  1
  3  5  1  0
  3  6  1  0
  6  7  1  0
  7  8  1  0
  8  9  2  0
  8 10  1  0
 10 11  1  0
 11 12  1  0
 12 13  2  0
 13 14  1  0
 14 15  1  0
 15 16  1  0
 16 17  1  0
 17 18  1  0
 14 19  1  0
 19 11  2  0
 18 15  1  0
M  END
>  <id>  (360) 
330266

>  <inchikey>  (360) 
OPNWCORNTKXEPJ-CYBMUJFWSA-N

>  <alias>  (360) 
None

>  <smiles>  (360) 
CC[C@@](C)(O)CNC(=O)Nc1ccn(C2CCC2)n1

>  <path>  (360) 
/opt/xchem-fragalysis-2/maxwin/RdRp_FFF/syndirella/mar_elabs/elabs_063/GTOPDHADXIWWQI-UHFFFAOYSA-N/output/GTOPDHADXIWWQI-UHFFFAOYSA-N-n4XWgD-115-B/GTOPDHADXIWWQI-UHFFFAOYSA-N-n4XWgD-115-B.minimised.mol

>  <distance_score>  (360) 
0.771663

>  <energy_score>  (360) 
-17.782394

>  <compound>  (360) 
OPNWCORNTKXEPJ-UHFFFAOYSA-N

>  <compound_id>  (360) 
162043

>  <target>  (360) 
Flavi_NS5_RdRp

>  <tags>  (360) 
[]

>  <inspirations>  (360) 
{P Ã— 2}

>  <subsites>  (360) 
None

>  <reference>  (360) 
z0211a

>  <SLURM_JOB_ID>  (360) 
nan

>  <SLURM_JOB_NAME>  (360) 
nan

>  <csv_name>  (360) 
nan

>  <scratch_subdir>  (360) 
nan

>  <fragmenstein_runtime>  (360) 
nan

>  <fragmenstein_outcome>  (360) 
nan

>  <fragmenstein_mode>  (360) 
nan

>  <fragmenstein_error>  (360) 
nan

>  <exports>  (360) 
nan

>  <Multi-SuCOS>  (360) 
nan

>  <merge_set>  (360) 
nan

$$$$
ABMPDPNFHCUWEX-SNVBAGLBSA-N
     RDKit          3D

 19 20  0  0  0  0  0  0  0  0999 V2000
  -21.3656  -33.9748  -26.2370 C   0  0  0  0  0  0  0  0  0  0  0  0
  -21.8448  -33.7559  -24.9242 O   0  0  0  0  0  0  0  0  0  0  0  0
  -21.0924  -32.7617  -24.2256 C   0  0  0  0  0  0  0  0  0  0  0  0
  -21.8986  -32.1318  -23.0824 C   0  0  2  0  0  0  0  0  0  0  0  0
  -21.4777  -32.6902  -21.8281 O   0  0  0  0  0  0  0  0  0  0  0  0
  -23.4004  -32.3300  -23.2744 C   0  0  0  0  0  0  0  0  0  0  0  0
  -24.1901  -31.7510  -22.2227 N   0  0  0  0  0  0  0  0  0  0  0  0
  -25.5160  -30.9548  -22.2872 C   0  0  0  0  0  0  0  0  0  0  0  0
  -26.1116  -30.5918  -23.1848 O   0  0  0  0  0  0  0  0  0  0  0  0
  -25.8431  -30.8878  -20.7789 N   0  0  0  0  0  0  0  0  0  0  0  0
  -26.9546  -30.4639  -20.1445 C   0  0  0  0  0  0  0  0  0  0  0  0
  -28.1996  -30.1263  -20.7046 C   0  0  0  0  0  0  0  0  0  0  0  0
  -29.0059  -29.8453  -19.6259 C   0  0  0  0  0  0  0  0  0  0  0  0
  -28.1924  -29.9319  -18.5326 N   0  0  0  0  0  0  0  0  0  0  0  0
  -28.5031  -29.3719  -17.2125 C   0  0  0  0  0  0  0  0  0  0  0  0
  -29.6435  -30.0262  -16.4362 C   0  0  0  0  0  0  0  0  0  0  0  0
  -28.7098  -30.1298  -15.2144 C   0  0  0  0  0  0  0  0  0  0  0  0
  -27.5140  -29.8492  -16.1188 C   0  0  0  0  0  0  0  0  0  0  0  0
  -26.9495  -30.3376  -18.8260 N   0  0  0  0  0  0  0  0  0  0  0  0
  1  2  1  0
  2  3  1  0
  3  4  1  0
  4  5  1  1
  4  6  1  0
  6  7  1  0
  7  8  1  0
  8  9  2  0
  8 10  1  0
 10 11  1  0
 11 12  1  0
 12 13  2  0
 13 14  1  0
 14 15  1  0
 15 16  1  0
 16 17  1  0
 17 18  1  0
 14 19  1  0
 19 11  2  0
 18 15  1  0
M  END
>  <id>  (361) 
330279

>  <inchikey>  (361) 
ABMPDPNFHCUWEX-SNVBAGLBSA-N

>  <alias>  (361) 
None

>  <smiles>  (361) 
COC[C@H](O)CNC(=O)Nc1ccn(C2CCC2)n1

>  <path>  (361) 
/opt/xchem-fragalysis-2/maxwin/RdRp_FFF/syndirella/mar_elabs/elabs_063/GTOPDHADXIWWQI-UHFFFAOYSA-N/output/GTOPDHADXIWWQI-UHFFFAOYSA-N-n4XWgD-147-A/GTOPDHADXIWWQI-UHFFFAOYSA-N-n4XWgD-147-A.minimised.mol

>  <distance_score>  (361) 
0.680608

>  <energy_score>  (361) 
-17.376266

>  <compound>  (361) 
ABMPDPNFHCUWEX-UHFFFAOYSA-N

>  <compound_id>  (361) 
162089

>  <target>  (361) 
Flavi_NS5_RdRp

>  <tags>  (361) 
[]

>  <inspirations>  (361) 
{P Ã— 2}

>  <subsites>  (361) 
None

>  <reference>  (361) 
z0211a

>  <SLURM_JOB_ID>  (361) 
nan

>  <SLURM_JOB_NAME>  (361) 
nan

>  <csv_name>  (361) 
nan

>  <scratch_subdir>  (361) 
nan

>  <fragmenstein_runtime>  (361) 
nan

>  <fragmenstein_outcome>  (361) 
nan

>  <fragmenstein_mode>  (361) 
nan

>  <fragmenstein_error>  (361) 
nan

>  <exports>  (361) 
nan

>  <Multi-SuCOS>  (361) 
nan

>  <merge_set>  (361) 
nan

$$$$
YUCWANHPXRMURT-LLVKDONJSA-N
     RDKit          3D

 19 20  0  0  0  0  0  0  0  0999 V2000
  -21.1112  -33.9609  -26.3770 C   0  0  0  0  0  0  0  0  0  0  0  0
  -21.4451  -32.9183  -25.3289 C   0  0  0  0  0  0  0  0  0  0  0  0
  -21.4563  -33.4413  -23.8951 C   0  0  0  0  0  0  0  0  0  0  0  0
  -22.0970  -32.4853  -22.8866 C   0  0  1  0  0  0  0  0  0  0  0  0
  -21.2557  -31.3465  -22.7257 O   0  0  0  0  0  0  0  0  0  0  0  0
  -23.5154  -32.1070  -23.3105 C   0  0  0  0  0  0  0  0  0  0  0  0
  -24.2926  -31.5555  -22.2454 N   0  0  0  0  0  0  0  0  0  0  0  0
  -25.6595  -30.8353  -22.2734 C   0  0  0  0  0  0  0  0  0  0  0  0
  -26.3059  -30.5222  -23.1529 O   0  0  0  0  0  0  0  0  0  0  0  0
  -25.9338  -30.7584  -20.7585 N   0  0  0  0  0  0  0  0  0  0  0  0
  -27.0408  -30.3848  -20.0911 C   0  0  0  0  0  0  0  0  0  0  0  0
  -28.3161  -30.1114  -20.6155 C   0  0  0  0  0  0  0  0  0  0  0  0
  -29.1010  -29.8643  -19.5142 C   0  0  0  0  0  0  0  0  0  0  0  0
  -28.2492  -29.9028  -18.4486 N   0  0  0  0  0  0  0  0  0  0  0  0
  -28.5468  -29.3729  -17.1179 C   0  0  0  0  0  0  0  0  0  0  0  0
  -29.6638  -30.0621  -16.3410 C   0  0  0  0  0  0  0  0  0  0  0  0
  -28.7154  -30.1461  -15.1287 C   0  0  0  0  0  0  0  0  0  0  0  0
  -27.5351  -29.8631  -16.0512 C   0  0  0  0  0  0  0  0  0  0  0  0
  -26.9976  -30.2467  -18.7763 N   0  0  0  0  0  0  0  0  0  0  0  0
  1  2  1  0
  2  3  1  0
  3  4  1  0
  4  5  1  6
  4  6  1  0
  6  7  1  0
  7  8  1  0
  8  9  2  0
  8 10  1  0
 10 11  1  0
 11 12  1  0
 12 13  2  0
 13 14  1  0
 14 15  1  0
 15 16  1  0
 16 17  1  0
 17 18  1  0
 14 19  1  0
 19 11  2  0
 18 15  1  0
M  END
>  <id>  (362) 
330362

>  <inchikey>  (362) 
YUCWANHPXRMURT-LLVKDONJSA-N

>  <alias>  (362) 
None

>  <smiles>  (362) 
CCC[C@@H](O)CNC(=O)Nc1ccn(C2CCC2)n1

>  <path>  (362) 
/opt/xchem-fragalysis-2/maxwin/RdRp_FFF/syndirella/mar_elabs/elabs_063/GTOPDHADXIWWQI-UHFFFAOYSA-N/output/GTOPDHADXIWWQI-UHFFFAOYSA-N-n4XWgD-287-B/GTOPDHADXIWWQI-UHFFFAOYSA-N-n4XWgD-287-B.minimised.mol

>  <distance_score>  (362) 
0.715631

>  <energy_score>  (362) 
-25.78046

>  <compound>  (362) 
YUCWANHPXRMURT-UHFFFAOYSA-N

>  <compound_id>  (362) 
162063

>  <target>  (362) 
Flavi_NS5_RdRp

>  <tags>  (362) 
[]

>  <inspirations>  (362) 
{P Ã— 2}

>  <subsites>  (362) 
None

>  <reference>  (362) 
z0211a

>  <SLURM_JOB_ID>  (362) 
nan

>  <SLURM_JOB_NAME>  (362) 
nan

>  <csv_name>  (362) 
nan

>  <scratch_subdir>  (362) 
nan

>  <fragmenstein_runtime>  (362) 
nan

>  <fragmenstein_outcome>  (362) 
nan

>  <fragmenstein_mode>  (362) 
nan

>  <fragmenstein_error>  (362) 
nan

>  <exports>  (362) 
nan

>  <Multi-SuCOS>  (362) 
nan

>  <merge_set>  (362) 
nan

$$$$
SVCTZJYUTMFEII-MWLCHTKSSA-N
     RDKit          3D

 19 20  0  0  0  0  0  0  0  0999 V2000
  -20.9960  -32.8746  -25.0347 C   0  0  0  0  0  0  0  0  0  0  0  0
  -21.1568  -33.3699  -23.6090 C   0  0  0  0  0  0  0  0  0  0  0  0
  -22.0035  -32.4820  -22.7122 C   0  0  1  0  0  0  0  0  0  0  0  0
  -21.2756  -31.2768  -22.4906 O   0  0  0  0  0  0  0  0  0  0  0  0
  -23.4271  -32.2197  -23.2363 C   0  0  1  0  0  0  0  0  0  0  0  0
  -24.1609  -33.4944  -23.6575 C   0  0  0  0  0  0  0  0  0  0  0  0
  -24.2064  -31.5690  -22.2110 N   0  0  0  0  0  0  0  0  0  0  0  0
  -25.5533  -30.8166  -22.3038 C   0  0  0  0  0  0  0  0  0  0  0  0
  -26.1835  -30.5482  -23.2105 O   0  0  0  0  0  0  0  0  0  0  0  0
  -25.8400  -30.6272  -20.7979 N   0  0  0  0  0  0  0  0  0  0  0  0
  -26.9443  -30.1787  -20.1695 C   0  0  0  0  0  0  0  0  0  0  0  0
  -28.1897  -29.8697  -20.7452 C   0  0  0  0  0  0  0  0  0  0  0  0
  -29.0257  -29.6882  -19.6712 C   0  0  0  0  0  0  0  0  0  0  0  0
  -28.2318  -29.7851  -18.5610 N   0  0  0  0  0  0  0  0  0  0  0  0
  -28.7545  -30.1155  -17.2437 C   0  0  0  0  0  0  0  0  0  0  0  0
  -29.4832  -29.0857  -16.4297 C   0  0  0  0  0  0  0  0  0  0  0  0
  -28.8365  -29.7661  -15.1918 C   0  0  0  0  0  0  0  0  0  0  0  0
  -27.6686  -30.1008  -16.1151 C   0  0  0  0  0  0  0  0  0  0  0  0
  -26.9512  -30.0553  -18.8504 N   0  0  0  0  0  0  0  0  0  0  0  0
  1  2  1  0
  2  3  1  0
  3  4  1  6
  3  5  1  0
  5  6  1  1
  5  7  1  0
  7  8  1  0
  8  9  2  0
  8 10  1  0
 10 11  1  0
 11 12  1  0
 12 13  2  0
 13 14  1  0
 14 15  1  0
 15 16  1  0
 16 17  1  0
 17 18  1  0
 14 19  1  0
 19 11  2  0
 18 15  1  0
M  END
>  <id>  (363) 
330378

>  <inchikey>  (363) 
SVCTZJYUTMFEII-MWLCHTKSSA-N

>  <alias>  (363) 
None

>  <smiles>  (363) 
CC[C@@H](O)[C@@H](C)NC(=O)Nc1ccn(C2CCC2)n1

>  <path>  (363) 
/opt/xchem-fragalysis-2/maxwin/RdRp_FFF/syndirella/mar_elabs/elabs_063/GTOPDHADXIWWQI-UHFFFAOYSA-N/output/GTOPDHADXIWWQI-UHFFFAOYSA-N-n4XWgD-293-D/GTOPDHADXIWWQI-UHFFFAOYSA-N-n4XWgD-293-D.minimised.mol

>  <distance_score>  (363) 
0.772014

>  <energy_score>  (363) 
-23.434065

>  <compound>  (363) 
SVCTZJYUTMFEII-UHFFFAOYSA-N

>  <compound_id>  (363) 
162989

>  <target>  (363) 
Flavi_NS5_RdRp

>  <tags>  (363) 
[]

>  <inspirations>  (363) 
{P Ã— 2}

>  <subsites>  (363) 
None

>  <reference>  (363) 
z0211a

>  <SLURM_JOB_ID>  (363) 
nan

>  <SLURM_JOB_NAME>  (363) 
nan

>  <csv_name>  (363) 
nan

>  <scratch_subdir>  (363) 
nan

>  <fragmenstein_runtime>  (363) 
nan

>  <fragmenstein_outcome>  (363) 
nan

>  <fragmenstein_mode>  (363) 
nan

>  <fragmenstein_error>  (363) 
nan

>  <exports>  (363) 
nan

>  <Multi-SuCOS>  (363) 
nan

>  <merge_set>  (363) 
nan

$$$$
NMMLDDFCGHUCNF-UHFFFAOYSA-N
     RDKit          3D

 19 21  0  0  0  0  0  0  0  0999 V2000
  -26.1352  -28.3874  -25.3834 C   0  0  0  0  0  0  0  0  0  0  0  0
  -25.9779  -29.2326  -24.2034 C   0  0  0  0  0  0  0  0  0  0  0  0
  -26.1575  -30.5008  -23.9060 N   0  0  0  0  0  0  0  0  0  0  0  0
  -25.9835  -30.6392  -22.5131 C   0  0  0  0  0  0  0  0  0  0  0  0
  -26.0687  -31.9339  -21.7456 C   0  0  0  0  0  0  0  0  0  0  0  0
  -26.1209  -31.7790  -20.2572 N   0  0  0  0  0  0  0  0  0  0  0  0
  -24.8081  -31.5945  -19.6551 C   0  0  0  0  0  0  0  0  0  0  0  0
  -27.2790  -31.1604  -19.7569 C   0  0  0  0  0  0  0  0  0  0  0  0
  -28.2469  -30.9245  -20.6826 N   0  0  0  0  0  0  0  0  0  0  0  0
  -29.4191  -30.3696  -20.3405 C   0  0  0  0  0  0  0  0  0  0  0  0
  -29.7326  -30.0274  -19.0559 C   0  0  0  0  0  0  0  0  0  0  0  0
  -28.7755  -30.2245  -18.0711 C   0  0  0  0  0  0  0  0  0  0  0  0
  -29.1112  -29.8740  -16.7568 C   0  0  0  0  0  0  0  0  0  0  0  0
  -28.2181  -30.0730  -15.7152 C   0  0  0  0  0  0  0  0  0  0  0  0
  -26.9821  -30.6359  -15.9766 C   0  0  0  0  0  0  0  0  0  0  0  0
  -26.6449  -31.0026  -17.2819 C   0  0  0  0  0  0  0  0  0  0  0  0
  -27.5127  -30.8012  -18.3888 C   0  0  0  0  0  0  0  0  0  0  0  0
  -25.7386  -29.4577  -21.8577 C   0  0  0  0  0  0  0  0  0  0  0  0
  -25.4792  -28.2697  -22.9733 S   0  0  0  0  0  0  0  0  0  0  0  0
  1  2  1  0
  2  3  2  0
  3  4  1  0
  4  5  1  0
  5  6  1  0
  6  7  1  0
  6  8  1  0
  8  9  2  0
  9 10  1  0
 10 11  2  0
 11 12  1  0
 12 13  2  0
 13 14  1  0
 14 15  2  0
 15 16  1  0
 16 17  2  0
  4 18  2  0
 18 19  1  0
 19  2  1  0
 17  8  1  0
 17 12  1  0
M  END
>  <id>  (364) 
333162

>  <inchikey>  (364) 
NMMLDDFCGHUCNF-UHFFFAOYSA-N

>  <alias>  (364) 
None

>  <smiles>  (364) 
Cc1nc(CN(C)c2nccc3ccccc23)cs1

>  <path>  (364) 
/opt/xchem-fragalysis-2/maxwin/RdRp_FFF/syndirella/mar_elabs/elabs_074/QYRRPPSGQNMPRP-UHFFFAOYSA-N/output/QYRRPPSGQNMPRP-UHFFFAOYSA-N-obnxhR-55-A/QYRRPPSGQNMPRP-UHFFFAOYSA-N-obnxhR-55-A.minimised.mol

>  <distance_score>  (364) 
1.40477

>  <energy_score>  (364) 
-49.046942

>  <compound>  (364) 
NMMLDDFCGHUCNF-UHFFFAOYSA-N

>  <compound_id>  (364) 
128879

>  <target>  (364) 
Flavi_NS5_RdRp

>  <tags>  (364) 
[]

>  <inspirations>  (364) 
{P Ã— 2}

>  <subsites>  (364) 
None

>  <reference>  (364) 
z0111a

>  <SLURM_JOB_ID>  (364) 
nan

>  <SLURM_JOB_NAME>  (364) 
nan

>  <csv_name>  (364) 
nan

>  <scratch_subdir>  (364) 
nan

>  <fragmenstein_runtime>  (364) 
nan

>  <fragmenstein_outcome>  (364) 
nan

>  <fragmenstein_mode>  (364) 
nan

>  <fragmenstein_error>  (364) 
nan

>  <exports>  (364) 
nan

>  <Multi-SuCOS>  (364) 
nan

>  <merge_set>  (364) 
nan

$$$$
HSQVEAXPFFUDCI-AWEZNQCLSA-N
     RDKit          3D

 20 22  0  0  0  0  0  0  0  0999 V2000
  -24.7543  -31.3895  -24.5722 C   0  0  0  0  0  0  0  0  0  0  0  0
  -25.0905  -30.5657  -23.4114 C   0  0  0  0  0  0  0  0  0  0  0  0
  -24.7842  -30.9625  -22.2073 N   0  0  0  0  0  0  0  0  0  0  0  0
  -25.4715  -30.1897  -21.3058 C   0  0  0  0  0  0  0  0  0  0  0  0
  -25.4478  -30.6406  -19.9092 C   0  0  2  0  0  0  0  0  0  0  0  0
  -24.1891  -31.2234  -19.5819 O   0  0  0  0  0  0  0  0  0  0  0  0
  -26.3805  -31.7014  -19.6924 N   0  0  0  0  0  0  0  0  0  0  0  0
  -27.6329  -31.1801  -19.3701 C   0  0  0  0  0  0  0  0  0  0  0  0
  -28.5214  -31.0898  -20.3874 N   0  0  0  0  0  0  0  0  0  0  0  0
  -29.7266  -30.5552  -20.1258 C   0  0  0  0  0  0  0  0  0  0  0  0
  -30.1013  -30.1180  -18.8772 C   0  0  0  0  0  0  0  0  0  0  0  0
  -29.1800  -30.2003  -17.8319 C   0  0  0  0  0  0  0  0  0  0  0  0
  -29.5175  -29.7929  -16.5427 C   0  0  0  0  0  0  0  0  0  0  0  0
  -28.5890  -29.8497  -15.5065 C   0  0  0  0  0  0  0  0  0  0  0  0
  -27.3071  -30.3234  -15.7401 C   0  0  0  0  0  0  0  0  0  0  0  0
  -26.9637  -30.7602  -17.0081 C   0  0  0  0  0  0  0  0  0  0  0  0
  -27.8970  -30.7143  -18.0694 C   0  0  0  0  0  0  0  0  0  0  0  0
  -26.2413  -29.1976  -21.8387 C   0  0  0  0  0  0  0  0  0  0  0  0
  -27.4353  -28.1629  -20.7572 Br  0  0  0  0  0  0  0  0  0  0  0  0
  -25.9557  -29.1087  -23.5055 S   0  0  0  0  0  0  0  0  0  0  0  0
  1  2  1  0
  2  3  2  0
  3  4  1  0
  4  5  1  0
  5  6  1  6
  5  7  1  0
  7  8  1  0
  8  9  2  0
  9 10  1  0
 10 11  2  0
 11 12  1  0
 12 13  2  0
 13 14  1  0
 14 15  2  0
 15 16  1  0
 16 17  2  0
  4 18  2  0
 18 19  1  0
 18 20  1  0
 20  2  1  0
 17  8  1  0
 17 12  1  0
M  END
>  <id>  (365) 
333246

>  <inchikey>  (365) 
HSQVEAXPFFUDCI-AWEZNQCLSA-N

>  <alias>  (365) 
None

>  <smiles>  (365) 
Cc1nc([C@H](O)Nc2nccc3ccccc23)c(Br)s1

>  <path>  (365) 
/opt/xchem-fragalysis-2/maxwin/RdRp_FFF/syndirella/mar_elabs/elabs_074/QYRRPPSGQNMPRP-UHFFFAOYSA-N/output/QYRRPPSGQNMPRP-UHFFFAOYSA-N-obnxhR-592-A/QYRRPPSGQNMPRP-UHFFFAOYSA-N-obnxhR-592-A.minimised.mol

>  <distance_score>  (365) 
1.789745

>  <energy_score>  (365) 
-40.583934

>  <compound>  (365) 
HSQVEAXPFFUDCI-UHFFFAOYSA-N

>  <compound_id>  (365) 
129126

>  <target>  (365) 
Flavi_NS5_RdRp

>  <tags>  (365) 
[]

>  <inspirations>  (365) 
{P Ã— 2}

>  <subsites>  (365) 
None

>  <reference>  (365) 
z0111a

>  <SLURM_JOB_ID>  (365) 
nan

>  <SLURM_JOB_NAME>  (365) 
nan

>  <csv_name>  (365) 
nan

>  <scratch_subdir>  (365) 
nan

>  <fragmenstein_runtime>  (365) 
nan

>  <fragmenstein_outcome>  (365) 
nan

>  <fragmenstein_mode>  (365) 
nan

>  <fragmenstein_error>  (365) 
nan

>  <exports>  (365) 
nan

>  <Multi-SuCOS>  (365) 
nan

>  <merge_set>  (365) 
nan

$$$$
MKYDHVHRAMHYPA-OAHLLOKOSA-N
     RDKit          3D

 21 23  0  0  0  0  0  0  0  0999 V2000
  -24.7500  -31.3589  -24.5714 C   0  0  0  0  0  0  0  0  0  0  0  0
  -25.0149  -30.5046  -23.4151 C   0  0  0  0  0  0  0  0  0  0  0  0
  -24.6121  -30.8578  -22.2280 N   0  0  0  0  0  0  0  0  0  0  0  0
  -25.2961  -30.1363  -21.2749 C   0  0  0  0  0  0  0  0  0  0  0  0
  -25.2107  -30.6903  -19.8920 C   0  0  1  0  0  0  0  0  0  0  0  0
  -25.1712  -29.6876  -18.8811 O   0  0  0  0  0  0  0  0  0  0  0  0
  -26.2127  -31.7311  -19.6377 N   0  0  0  0  0  0  0  0  0  0  0  0
  -26.1983  -32.7608  -20.6851 C   0  0  0  0  0  0  0  0  0  0  0  0
  -27.5083  -31.2264  -19.4146 C   0  0  0  0  0  0  0  0  0  0  0  0
  -28.3878  -31.1590  -20.4463 N   0  0  0  0  0  0  0  0  0  0  0  0
  -29.6055  -30.6247  -20.2139 C   0  0  0  0  0  0  0  0  0  0  0  0
  -30.0176  -30.1669  -18.9828 C   0  0  0  0  0  0  0  0  0  0  0  0
  -29.1311  -30.2546  -17.9104 C   0  0  0  0  0  0  0  0  0  0  0  0
  -29.5027  -29.8369  -16.6298 C   0  0  0  0  0  0  0  0  0  0  0  0
  -28.6142  -29.9286  -15.5605 C   0  0  0  0  0  0  0  0  0  0  0  0
  -27.3495  -30.4639  -15.7492 C   0  0  0  0  0  0  0  0  0  0  0  0
  -26.9795  -30.9098  -17.0072 C   0  0  0  0  0  0  0  0  0  0  0  0
  -27.8486  -30.7948  -18.1128 C   0  0  0  0  0  0  0  0  0  0  0  0
  -26.1518  -29.1951  -21.7855 C   0  0  0  0  0  0  0  0  0  0  0  0
  -27.4009  -28.2020  -20.7289 Br  0  0  0  0  0  0  0  0  0  0  0  0
  -25.9564  -29.1038  -23.4704 S   0  0  0  0  0  0  0  0  0  0  0  0
  1  2  1  0
  2  3  2  0
  3  4  1  0
  4  5  1  0
  5  6  1  1
  5  7  1  0
  7  8  1  0
  7  9  1  0
  9 10  2  0
 10 11  1  0
 11 12  2  0
 12 13  1  0
 13 14  2  0
 14 15  1  0
 15 16  2  0
 16 17  1  0
 17 18  2  0
  4 19  2  0
 19 20  1  0
 19 21  1  0
 21  2  1  0
 18  9  1  0
 18 13  1  0
M  END
>  <id>  (366) 
334337

>  <inchikey>  (366) 
MKYDHVHRAMHYPA-OAHLLOKOSA-N

>  <alias>  (366) 
None

>  <smiles>  (366) 
Cc1nc([C@@H](O)N(C)c2nccc3ccccc23)c(Br)s1

>  <path>  (366) 
/opt/xchem-fragalysis-2/maxwin/RdRp_FFF/syndirella/mar_elabs/elabs_074/QYRRPPSGQNMPRP-UHFFFAOYSA-N/output/QYRRPPSGQNMPRP-UHFFFAOYSA-N-obnxhR-5828-B/QYRRPPSGQNMPRP-UHFFFAOYSA-N-obnxhR-5828-B.minimised.mol

>  <distance_score>  (366) 
1.759225

>  <energy_score>  (366) 
-73.317436

>  <compound>  (366) 
MKYDHVHRAMHYPA-UHFFFAOYSA-N

>  <compound_id>  (366) 
131546

>  <target>  (366) 
Flavi_NS5_RdRp

>  <tags>  (366) 
[]

>  <inspirations>  (366) 
{P Ã— 2}

>  <subsites>  (366) 
None

>  <reference>  (366) 
z0111a

>  <SLURM_JOB_ID>  (366) 
nan

>  <SLURM_JOB_NAME>  (366) 
nan

>  <csv_name>  (366) 
nan

>  <scratch_subdir>  (366) 
nan

>  <fragmenstein_runtime>  (366) 
nan

>  <fragmenstein_outcome>  (366) 
nan

>  <fragmenstein_mode>  (366) 
nan

>  <fragmenstein_error>  (366) 
nan

>  <exports>  (366) 
nan

>  <Multi-SuCOS>  (366) 
nan

>  <merge_set>  (366) 
nan

$$$$
BKPJPQRFGBREFU-UHFFFAOYSA-N
     RDKit          3D

 24 27  0  0  0  0  0  0  0  0999 V2000
  -26.6133  -33.9208  -22.3671 O   0  0  0  0  0  0  0  0  0  0  0  0
  -25.8201  -33.6356  -21.5565 C   0  0  0  0  0  0  0  0  0  0  0  0
  -24.8470  -34.6847  -21.0026 C   0  0  0  0  0  0  0  0  0  0  0  0
  -23.4244  -34.3271  -21.2272 C   0  0  0  0  0  0  0  0  0  0  0  0
  -22.7780  -33.3947  -22.0135 C   0  0  0  0  0  0  0  0  0  0  0  0
  -21.4691  -33.2751  -21.4829 C   0  0  0  0  0  0  0  0  0  0  0  0
  -20.3917  -32.3961  -21.6724 C   0  0  0  0  0  0  0  0  0  0  0  0
  -19.2512  -32.5637  -20.8743 C   0  0  0  0  0  0  0  0  0  0  0  0
  -19.1550  -33.6072  -19.9509 C   0  0  0  0  0  0  0  0  0  0  0  0
  -20.2134  -34.4970  -19.7576 C   0  0  0  0  0  0  0  0  0  0  0  0
  -21.3539  -34.2714  -20.5226 C   0  0  0  0  0  0  0  0  0  0  0  0
  -22.5285  -34.9448  -20.4014 O   0  0  0  0  0  0  0  0  0  0  0  0
  -25.4973  -32.2599  -20.9009 N   0  0  0  0  0  0  0  0  0  0  0  0
  -26.0216  -30.9395  -21.1804 C   0  0  0  0  0  0  0  0  0  0  0  0
  -27.2205  -30.6004  -20.3439 C   0  0  0  0  0  0  0  0  0  0  0  0
  -28.3623  -30.3235  -20.9768 N   0  0  0  0  0  0  0  0  0  0  0  0
  -29.5513  -30.0315  -19.8782 S   0  0  0  0  0  0  0  0  0  0  0  0
  -28.5566  -30.1602  -18.4826 C   0  0  0  0  0  0  0  0  0  0  0  0
  -28.8994  -30.0133  -17.1273 C   0  0  0  0  0  0  0  0  0  0  0  0
  -27.8920  -30.1667  -16.1715 C   0  0  0  0  0  0  0  0  0  0  0  0
  -26.5870  -30.4420  -16.5623 C   0  0  0  0  0  0  0  0  0  0  0  0
  -25.3479  -30.5946  -15.3776 Cl  0  0  0  0  0  0  0  0  0  0  0  0
  -26.2549  -30.5942  -17.9111 C   0  0  0  0  0  0  0  0  0  0  0  0
  -27.2566  -30.4648  -18.9020 C   0  0  0  0  0  0  0  0  0  0  0  0
  1  2  2  0
  2  3  1  0
  3  4  1  0
  4  5  2  0
  5  6  1  0
  6  7  2  0
  7  8  1  0
  8  9  2  0
  9 10  1  0
 10 11  2  0
 11 12  1  0
  2 13  1  0
 13 14  1  0
 14 15  1  0
 15 16  2  0
 16 17  1  0
 17 18  1  0
 18 19  2  0
 19 20  1  0
 20 21  2  0
 21 22  1  0
 21 23  1  0
 23 24  2  0
 12  4  1  0
 24 15  1  0
 11  6  1  0
 24 18  1  0
M  END
>  <id>  (367) 
338338

>  <inchikey>  (367) 
BKPJPQRFGBREFU-UHFFFAOYSA-N

>  <alias>  (367) 
None

>  <smiles>  (367) 
O=C(Cc1cc2ccccc2o1)NCc1nsc2ccc(Cl)cc12

>  <path>  (367) 
/opt/xchem-fragalysis-2/maxwin/RdRp_FFF/syndirella/mar_elabs/elabs_027/ZAXPKNMZZARUDB-UHFFFAOYSA-N/output/ZAXPKNMZZARUDB-UHFFFAOYSA-N-jPTpDb-58-A/ZAXPKNMZZARUDB-UHFFFAOYSA-N-jPTpDb-58-A.minimised.mol

>  <distance_score>  (367) 
0.966533

>  <energy_score>  (367) 
-19.540889

>  <compound>  (367) 
BKPJPQRFGBREFU-UHFFFAOYSA-N

>  <compound_id>  (367) 
84250

>  <target>  (367) 
Flavi_NS5_RdRp

>  <tags>  (367) 
[]

>  <inspirations>  (367) 
{P Ã— 2}

>  <subsites>  (367) 
None

>  <reference>  (367) 
z0111a

>  <SLURM_JOB_ID>  (367) 
nan

>  <SLURM_JOB_NAME>  (367) 
nan

>  <csv_name>  (367) 
nan

>  <scratch_subdir>  (367) 
nan

>  <fragmenstein_runtime>  (367) 
nan

>  <fragmenstein_outcome>  (367) 
nan

>  <fragmenstein_mode>  (367) 
nan

>  <fragmenstein_error>  (367) 
nan

>  <exports>  (367) 
nan

>  <Multi-SuCOS>  (367) 
nan

>  <merge_set>  (367) 
nan

$$$$
MGXURRXNMBMDOY-UHFFFAOYSA-N
     RDKit          3D

 25 28  0  0  0  0  0  0  0  0999 V2000
  -23.3885  -32.8385  -23.3070 C   0  0  0  0  0  0  0  0  0  0  0  0
  -22.8280  -33.5390  -22.1235 C   0  0  0  0  0  0  0  0  0  0  0  0
  -23.4880  -34.3811  -21.2431 C   0  0  0  0  0  0  0  0  0  0  0  0
  -24.9089  -34.7346  -20.9954 C   0  0  0  0  0  0  0  0  0  0  0  0
  -25.8999  -33.6726  -21.4937 C   0  0  0  0  0  0  0  0  0  0  0  0
  -26.7378  -33.9491  -22.2616 O   0  0  0  0  0  0  0  0  0  0  0  0
  -25.5180  -32.2985  -20.8691 N   0  0  0  0  0  0  0  0  0  0  0  0
  -26.0289  -30.9702  -21.1362 C   0  0  0  0  0  0  0  0  0  0  0  0
  -27.2303  -30.6251  -20.3088 C   0  0  0  0  0  0  0  0  0  0  0  0
  -28.3681  -30.3453  -20.9473 N   0  0  0  0  0  0  0  0  0  0  0  0
  -29.5580  -30.0382  -19.8531 S   0  0  0  0  0  0  0  0  0  0  0  0
  -28.5674  -30.1666  -18.4542 C   0  0  0  0  0  0  0  0  0  0  0  0
  -28.9108  -30.0104  -17.1003 C   0  0  0  0  0  0  0  0  0  0  0  0
  -27.9054  -30.1662  -16.1425 C   0  0  0  0  0  0  0  0  0  0  0  0
  -26.6017  -30.4530  -16.5298 C   0  0  0  0  0  0  0  0  0  0  0  0
  -25.3642  -30.6095  -15.3443 Cl  0  0  0  0  0  0  0  0  0  0  0  0
  -26.2693  -30.6145  -17.8769 C   0  0  0  0  0  0  0  0  0  0  0  0
  -27.2690  -30.4827  -18.8690 C   0  0  0  0  0  0  0  0  0  0  0  0
  -22.6086  -34.9112  -20.3442 O   0  0  0  0  0  0  0  0  0  0  0  0
  -21.4316  -34.2591  -20.5082 C   0  0  0  0  0  0  0  0  0  0  0  0
  -20.3079  -34.4203  -19.7030 C   0  0  0  0  0  0  0  0  0  0  0  0
  -19.2425  -33.5550  -19.9506 C   0  0  0  0  0  0  0  0  0  0  0  0
  -19.3161  -32.6011  -20.9666 C   0  0  0  0  0  0  0  0  0  0  0  0
  -20.4365  -32.5082  -21.8058 C   0  0  0  0  0  0  0  0  0  0  0  0
  -21.5266  -33.3606  -21.5616 C   0  0  0  0  0  0  0  0  0  0  0  0
  1  2  1  0
  2  3  2  0
  3  4  1  0
  4  5  1  0
  5  6  2  0
  5  7  1  0
  7  8  1  0
  8  9  1  0
  9 10  2  0
 10 11  1  0
 11 12  1  0
 12 13  2  0
 13 14  1  0
 14 15  2  0
 15 16  1  0
 15 17  1  0
 17 18  2  0
  3 19  1  0
 19 20  1  0
 20 21  2  0
 21 22  1  0
 22 23  2  0
 23 24  1  0
 24 25  2  0
 25  2  1  0
 18  9  1  0
 25 20  1  0
 18 12  1  0
M  END
>  <id>  (368) 
338393

>  <inchikey>  (368) 
MGXURRXNMBMDOY-UHFFFAOYSA-N

>  <alias>  (368) 
None

>  <smiles>  (368) 
Cc1c(CC(=O)NCc2nsc3ccc(Cl)cc23)oc2ccccc12

>  <path>  (368) 
/opt/xchem-fragalysis-2/maxwin/RdRp_FFF/syndirella/mar_elabs/elabs_027/ZAXPKNMZZARUDB-UHFFFAOYSA-N/output/ZAXPKNMZZARUDB-UHFFFAOYSA-N-jPTpDb-141-A/ZAXPKNMZZARUDB-UHFFFAOYSA-N-jPTpDb-141-A.minimised.mol

>  <distance_score>  (368) 
0.967898

>  <energy_score>  (368) 
-41.764676

>  <compound>  (368) 
MGXURRXNMBMDOY-UHFFFAOYSA-N

>  <compound_id>  (368) 
84663

>  <target>  (368) 
Flavi_NS5_RdRp

>  <tags>  (368) 
[]

>  <inspirations>  (368) 
{P Ã— 2}

>  <subsites>  (368) 
None

>  <reference>  (368) 
z0111a

>  <SLURM_JOB_ID>  (368) 
nan

>  <SLURM_JOB_NAME>  (368) 
nan

>  <csv_name>  (368) 
nan

>  <scratch_subdir>  (368) 
nan

>  <fragmenstein_runtime>  (368) 
nan

>  <fragmenstein_outcome>  (368) 
nan

>  <fragmenstein_mode>  (368) 
nan

>  <fragmenstein_error>  (368) 
nan

>  <exports>  (368) 
nan

>  <Multi-SuCOS>  (368) 
nan

>  <merge_set>  (368) 
nan

$$$$
SERANOQBOHQPCH-UHFFFAOYSA-N
     RDKit          3D

 25 28  0  0  0  0  0  0  0  0999 V2000
  -26.7859  -33.9038  -22.3848 O   0  0  0  0  0  0  0  0  0  0  0  0
  -25.9518  -33.6538  -21.6051 C   0  0  0  0  0  0  0  0  0  0  0  0
  -25.0151  -34.7461  -21.0883 C   0  0  0  0  0  0  0  0  0  0  0  0
  -23.5821  -34.4459  -21.2913 C   0  0  0  0  0  0  0  0  0  0  0  0
  -22.8816  -33.4932  -21.9999 C   0  0  0  0  0  0  0  0  0  0  0  0
  -21.5955  -33.4511  -21.4083 C   0  0  0  0  0  0  0  0  0  0  0  0
  -20.5021  -32.5817  -21.4762 C   0  0  0  0  0  0  0  0  0  0  0  0
  -19.4294  -32.8394  -20.6173 C   0  0  0  0  0  0  0  0  0  0  0  0
  -18.1446  -31.7263  -20.5329 Cl  0  0  0  0  0  0  0  0  0  0  0  0
  -19.3841  -33.9525  -19.7771 C   0  0  0  0  0  0  0  0  0  0  0  0
  -20.4567  -34.8359  -19.7168 C   0  0  0  0  0  0  0  0  0  0  0  0
  -21.5449  -34.5179  -20.5205 C   0  0  0  0  0  0  0  0  0  0  0  0
  -22.7360  -35.1599  -20.4958 O   0  0  0  0  0  0  0  0  0  0  0  0
  -25.5572  -32.2978  -20.9509 N   0  0  0  0  0  0  0  0  0  0  0  0
  -26.0480  -30.9579  -21.1963 C   0  0  0  0  0  0  0  0  0  0  0  0
  -27.2387  -30.6104  -20.3509 C   0  0  0  0  0  0  0  0  0  0  0  0
  -28.3845  -30.3331  -20.9757 N   0  0  0  0  0  0  0  0  0  0  0  0
  -29.5645  -30.0334  -19.8702 S   0  0  0  0  0  0  0  0  0  0  0  0
  -28.5603  -30.1613  -18.4814 C   0  0  0  0  0  0  0  0  0  0  0  0
  -28.8939  -30.0102  -17.1244 C   0  0  0  0  0  0  0  0  0  0  0  0
  -27.8808  -30.1635  -16.1749 C   0  0  0  0  0  0  0  0  0  0  0  0
  -26.5788  -30.4418  -16.5736 C   0  0  0  0  0  0  0  0  0  0  0  0
  -25.3331  -30.5934  -15.3957 Cl  0  0  0  0  0  0  0  0  0  0  0  0
  -26.2555  -30.5982  -17.9244 C   0  0  0  0  0  0  0  0  0  0  0  0
  -27.2637  -30.4701  -18.9090 C   0  0  0  0  0  0  0  0  0  0  0  0
  1  2  2  0
  2  3  1  0
  3  4  1  0
  4  5  2  0
  5  6  1  0
  6  7  2  0
  7  8  1  0
  8  9  1  0
  8 10  2  0
 10 11  1  0
 11 12  2  0
 12 13  1  0
  2 14  1  0
 14 15  1  0
 15 16  1  0
 16 17  2  0
 17 18  1  0
 18 19  1  0
 19 20  2  0
 20 21  1  0
 21 22  2  0
 22 23  1  0
 22 24  1  0
 24 25  2  0
 13  4  1  0
 25 16  1  0
 12  6  1  0
 25 19  1  0
M  END
>  <id>  (369) 
338777

>  <inchikey>  (369) 
SERANOQBOHQPCH-UHFFFAOYSA-N

>  <alias>  (369) 
None

>  <smiles>  (369) 
O=C(Cc1cc2cc(Cl)ccc2o1)NCc1nsc2ccc(Cl)cc12

>  <path>  (369) 
/opt/xchem-fragalysis-2/maxwin/RdRp_FFF/syndirella/mar_elabs/elabs_027/ZAXPKNMZZARUDB-UHFFFAOYSA-N/output/ZAXPKNMZZARUDB-UHFFFAOYSA-N-jPTpDb-610-A/ZAXPKNMZZARUDB-UHFFFAOYSA-N-jPTpDb-610-A.minimised.mol

>  <distance_score>  (369) 
0.928537

>  <energy_score>  (369) 
-37.406197

>  <compound>  (369) 
SERANOQBOHQPCH-UHFFFAOYSA-N

>  <compound_id>  (369) 
84529

>  <target>  (369) 
Flavi_NS5_RdRp

>  <tags>  (369) 
[]

>  <inspirations>  (369) 
{P Ã— 2}

>  <subsites>  (369) 
None

>  <reference>  (369) 
z0111a

>  <SLURM_JOB_ID>  (369) 
nan

>  <SLURM_JOB_NAME>  (369) 
nan

>  <csv_name>  (369) 
nan

>  <scratch_subdir>  (369) 
nan

>  <fragmenstein_runtime>  (369) 
nan

>  <fragmenstein_outcome>  (369) 
nan

>  <fragmenstein_mode>  (369) 
nan

>  <fragmenstein_error>  (369) 
nan

>  <exports>  (369) 
nan

>  <Multi-SuCOS>  (369) 
nan

>  <merge_set>  (369) 
nan

$$$$
MIDPPJQFMQRDMP-CYBMUJFWSA-N
     RDKit          3D

 23 25  0  0  0  0  0  0  0  0999 V2000
  -25.8248  -29.9735  -16.0444 C   0  0  0  0  0  0  0  0  0  0  0  0
  -27.0261  -29.9878  -16.9186 C   0  0  0  0  0  0  0  0  0  0  0  0
  -28.3040  -29.7900  -16.4306 C   0  0  0  0  0  0  0  0  0  0  0  0
  -29.4022  -29.7554  -17.2075 N   0  0  0  0  0  0  0  0  0  0  0  0
  -29.2377  -29.8864  -18.5312 C   0  0  0  0  0  0  0  0  0  0  0  0
  -30.3528  -29.6914  -19.3195 C   0  0  0  0  0  0  0  0  0  0  0  0
  -30.2471  -29.5730  -20.6919 C   0  0  0  0  0  0  0  0  0  0  0  0
  -29.0220  -29.7991  -21.2877 C   0  0  0  0  0  0  0  0  0  0  0  0
  -27.9279  -30.2649  -20.5479 C   0  0  0  0  0  0  0  0  0  0  0  0
  -26.7940  -30.8121  -21.3823 C   0  0  0  0  0  0  0  0  0  0  0  0
  -26.7642  -30.4199  -22.4771 O   0  0  0  0  0  0  0  0  0  0  0  0
  -25.8842  -31.8124  -20.6603 N   0  0  0  0  0  0  0  0  0  0  0  0
  -24.7835  -32.6287  -21.1643 C   0  0  2  0  0  0  0  0  0  0  0  0
  -24.0742  -33.3309  -20.0141 C   0  0  0  0  0  0  0  0  0  0  0  0
  -23.7779  -31.7889  -21.9899 C   0  0  0  0  0  0  0  0  0  0  0  0
  -23.0009  -32.5617  -22.9465 N   0  0  0  0  0  0  0  0  0  0  0  0
  -21.5706  -32.7148  -22.8377 C   0  0  0  0  0  0  0  0  0  0  0  0
  -21.1356  -33.0266  -24.2577 C   0  0  0  0  0  0  0  0  0  0  0  0
  -22.3556  -33.6859  -24.8877 C   0  0  0  0  0  0  0  0  0  0  0  0
  -23.5029  -33.0558  -24.1386 C   0  0  0  0  0  0  0  0  0  0  0  0
  -24.6642  -33.0301  -24.5173 O   0  0  0  0  0  0  0  0  0  0  0  0
  -27.9892  -30.1483  -19.1433 C   0  0  0  0  0  0  0  0  0  0  0  0
  -26.8766  -30.1736  -18.2870 C   0  0  0  0  0  0  0  0  0  0  0  0
  1  2  1  0
  2  3  2  0
  3  4  1  0
  4  5  2  0
  5  6  1  0
  6  7  2  0
  7  8  1  0
  8  9  2  0
  9 10  1  0
 10 11  2  0
 10 12  1  0
 12 13  1  0
 13 14  1  1
 13 15  1  0
 15 16  1  0
 16 17  1  0
 17 18  1  0
 18 19  1  0
 19 20  1  0
 20 21  2  0
  9 22  1  0
 22 23  2  0
 23  2  1  0
 22  5  1  0
 20 16  1  0
M  END
>  <id>  (370) 
345172

>  <inchikey>  (370) 
MIDPPJQFMQRDMP-CYBMUJFWSA-N

>  <alias>  (370) 
None

>  <smiles>  (370) 
Cc1cnc2cccc(C(=O)N[C@H](C)CN3CCCC3=O)c2c1

>  <path>  (370) 
/opt/xchem-fragalysis-2/maxwin/RdRp_FFF/syndirella/mar_elabs/elabs_040/XZCHKOUIHXKRTC-UHFFFAOYSA-N/output/XZCHKOUIHXKRTC-UHFFFAOYSA-N-UJbZnQ-60-A/XZCHKOUIHXKRTC-UHFFFAOYSA-N-UJbZnQ-60-A.minimised.mol

>  <distance_score>  (370) 
0.971115

>  <energy_score>  (370) 
-9.65552

>  <compound>  (370) 
MIDPPJQFMQRDMP-UHFFFAOYSA-N

>  <compound_id>  (370) 
174493

>  <target>  (370) 
Flavi_NS5_RdRp

>  <tags>  (370) 
[]

>  <inspirations>  (370) 
{P Ã— 2}

>  <subsites>  (370) 
None

>  <reference>  (370) 
z1018a

>  <SLURM_JOB_ID>  (370) 
nan

>  <SLURM_JOB_NAME>  (370) 
nan

>  <csv_name>  (370) 
nan

>  <scratch_subdir>  (370) 
nan

>  <fragmenstein_runtime>  (370) 
nan

>  <fragmenstein_outcome>  (370) 
nan

>  <fragmenstein_mode>  (370) 
nan

>  <fragmenstein_error>  (370) 
nan

>  <exports>  (370) 
nan

>  <Multi-SuCOS>  (370) 
nan

>  <merge_set>  (370) 
nan

$$$$
DKCVRTJPFPJCQV-GFCCVEGCSA-N
     RDKit          3D

 23 25  0  0  0  0  0  0  0  0999 V2000
  -26.5437  -30.6931  -22.2439 O   0  0  0  0  0  0  0  0  0  0  0  0
  -26.5639  -30.9943  -21.1193 C   0  0  0  0  0  0  0  0  0  0  0  0
  -25.6686  -31.9630  -20.3320 N   0  0  0  0  0  0  0  0  0  0  0  0
  -24.4738  -32.7112  -20.7480 C   0  0  1  0  0  0  0  0  0  0  0  0
  -24.8788  -34.1159  -21.2259 C   0  0  0  0  0  0  0  0  0  0  0  0
  -23.8838  -35.0872  -20.8935 O   0  0  0  0  0  0  0  0  0  0  0  0
  -23.6107  -31.8851  -21.7498 C   0  0  0  0  0  0  0  0  0  0  0  0
  -22.8787  -32.5937  -22.7822 N   0  0  0  0  0  0  0  0  0  0  0  0
  -21.4759  -32.8963  -22.6593 C   0  0  0  0  0  0  0  0  0  0  0  0
  -21.0314  -33.0877  -24.0978 C   0  0  0  0  0  0  0  0  0  0  0  0
  -22.2796  -33.5946  -24.8061 C   0  0  0  0  0  0  0  0  0  0  0  0
  -23.3909  -32.9395  -24.0248 C   0  0  0  0  0  0  0  0  0  0  0  0
  -24.5360  -32.7912  -24.4264 O   0  0  0  0  0  0  0  0  0  0  0  0
  -27.7065  -30.3952  -20.3246 C   0  0  0  0  0  0  0  0  0  0  0  0
  -28.7977  -30.0048  -21.1173 C   0  0  0  0  0  0  0  0  0  0  0  0
  -30.0341  -29.7204  -20.5670 C   0  0  0  0  0  0  0  0  0  0  0  0
  -30.1684  -29.7512  -19.1928 C   0  0  0  0  0  0  0  0  0  0  0  0
  -29.0711  -29.9105  -18.3684 C   0  0  0  0  0  0  0  0  0  0  0  0
  -29.2836  -29.7383  -17.0563 N   0  0  0  0  0  0  0  0  0  0  0  0
  -28.2160  -29.7255  -16.2379 C   0  0  0  0  0  0  0  0  0  0  0  0
  -26.9176  -29.8806  -16.6727 C   0  0  0  0  0  0  0  0  0  0  0  0
  -26.7088  -30.1252  -18.0251 C   0  0  0  0  0  0  0  0  0  0  0  0
  -27.7960  -30.1846  -18.9267 C   0  0  0  0  0  0  0  0  0  0  0  0
  1  2  2  0
  2  3  1  0
  3  4  1  0
  4  5  1  6
  5  6  1  0
  4  7  1  0
  7  8  1  0
  8  9  1  0
  9 10  1  0
 10 11  1  0
 11 12  1  0
 12 13  2  0
  2 14  1  0
 14 15  2  0
 15 16  1  0
 16 17  2  0
 17 18  1  0
 18 19  2  0
 19 20  1  0
 20 21  2  0
 21 22  1  0
 22 23  2  0
 12  8  1  0
 23 14  1  0
 23 18  1  0
M  END
>  <id>  (371) 
345284

>  <inchikey>  (371) 
DKCVRTJPFPJCQV-GFCCVEGCSA-N

>  <alias>  (371) 
None

>  <smiles>  (371) 
O=C(N[C@@H](CO)CN1CCCC1=O)c1cccc2ncccc12

>  <path>  (371) 
/opt/xchem-fragalysis-2/maxwin/RdRp_FFF/syndirella/mar_elabs/elabs_040/XZCHKOUIHXKRTC-UHFFFAOYSA-N/output/XZCHKOUIHXKRTC-UHFFFAOYSA-N-UJbZnQ-153-B/XZCHKOUIHXKRTC-UHFFFAOYSA-N-UJbZnQ-153-B.minimised.mol

>  <distance_score>  (371) 
0.646802

>  <energy_score>  (371) 
-10.651228

>  <compound>  (371) 
DKCVRTJPFPJCQV-UHFFFAOYSA-N

>  <compound_id>  (371) 
174557

>  <target>  (371) 
Flavi_NS5_RdRp

>  <tags>  (371) 
[]

>  <inspirations>  (371) 
{P Ã— 2}

>  <subsites>  (371) 
None

>  <reference>  (371) 
z1018a

>  <SLURM_JOB_ID>  (371) 
nan

>  <SLURM_JOB_NAME>  (371) 
nan

>  <csv_name>  (371) 
nan

>  <scratch_subdir>  (371) 
nan

>  <fragmenstein_runtime>  (371) 
nan

>  <fragmenstein_outcome>  (371) 
nan

>  <fragmenstein_mode>  (371) 
nan

>  <fragmenstein_error>  (371) 
nan

>  <exports>  (371) 
nan

>  <Multi-SuCOS>  (371) 
nan

>  <merge_set>  (371) 
nan

$$$$
DUYUUOOSBQFYSQ-ZDUSSCGKSA-N
     RDKit          3D

 24 26  0  0  0  0  0  0  0  0999 V2000
  -25.9043  -29.9571  -15.9567 C   0  0  0  0  0  0  0  0  0  0  0  0
  -27.0660  -29.9611  -16.8807 C   0  0  0  0  0  0  0  0  0  0  0  0
  -28.3689  -29.7691  -16.4655 C   0  0  0  0  0  0  0  0  0  0  0  0
  -29.4213  -29.7457  -17.3042 N   0  0  0  0  0  0  0  0  0  0  0  0
  -29.1824  -29.8977  -18.6158 C   0  0  0  0  0  0  0  0  0  0  0  0
  -30.2443  -29.6957  -19.4736 C   0  0  0  0  0  0  0  0  0  0  0  0
  -30.0451  -29.6079  -20.8391 C   0  0  0  0  0  0  0  0  0  0  0  0
  -28.7922  -29.8982  -21.3572 C   0  0  0  0  0  0  0  0  0  0  0  0
  -27.7518  -30.3576  -20.5419 C   0  0  0  0  0  0  0  0  0  0  0  0
  -26.5690  -30.9482  -21.2876 C   0  0  0  0  0  0  0  0  0  0  0  0
  -26.4917  -30.6380  -22.4070 O   0  0  0  0  0  0  0  0  0  0  0  0
  -25.6984  -31.9001  -20.4574 N   0  0  0  0  0  0  0  0  0  0  0  0
  -24.4690  -32.6140  -20.8069 C   0  0  2  0  0  0  0  0  0  0  0  0
  -23.6755  -32.9109  -19.5180 C   0  0  0  0  0  0  0  0  0  0  0  0
  -24.5299  -33.4396  -18.5007 O   0  0  0  0  0  0  0  0  0  0  0  0
  -23.5725  -31.8371  -21.8026 C   0  0  0  0  0  0  0  0  0  0  0  0
  -22.8719  -32.6734  -22.7675 N   0  0  0  0  0  0  0  0  0  0  0  0
  -21.4308  -32.7534  -22.8048 C   0  0  0  0  0  0  0  0  0  0  0  0
  -21.1182  -33.0752  -24.2543 C   0  0  0  0  0  0  0  0  0  0  0  0
  -22.3666  -33.7826  -24.7615 C   0  0  0  0  0  0  0  0  0  0  0  0
  -23.4602  -33.1749  -23.9203 C   0  0  0  0  0  0  0  0  0  0  0  0
  -24.6458  -33.1654  -24.2135 O   0  0  0  0  0  0  0  0  0  0  0  0
  -27.9015  -30.1867  -19.1492 C   0  0  0  0  0  0  0  0  0  0  0  0
  -26.8412  -30.1811  -18.2328 C   0  0  0  0  0  0  0  0  0  0  0  0
  1  2  1  0
  2  3  2  0
  3  4  1  0
  4  5  2  0
  5  6  1  0
  6  7  2  0
  7  8  1  0
  8  9  2  0
  9 10  1  0
 10 11  2  0
 10 12  1  0
 12 13  1  0
 13 14  1  1
 14 15  1  0
 13 16  1  0
 16 17  1  0
 17 18  1  0
 18 19  1  0
 19 20  1  0
 20 21  1  0
 21 22  2  0
  9 23  1  0
 23 24  2  0
 24  2  1  0
 23  5  1  0
 21 17  1  0
M  END
>  <id>  (372) 
346653

>  <inchikey>  (372) 
DUYUUOOSBQFYSQ-ZDUSSCGKSA-N

>  <alias>  (372) 
None

>  <smiles>  (372) 
Cc1cnc2cccc(C(=O)N[C@H](CO)CN3CCCC3=O)c2c1

>  <path>  (372) 
/opt/xchem-fragalysis-2/maxwin/RdRp_FFF/syndirella/mar_elabs/elabs_040/XZCHKOUIHXKRTC-UHFFFAOYSA-N/output/XZCHKOUIHXKRTC-UHFFFAOYSA-N-UJbZnQ-1439-A/XZCHKOUIHXKRTC-UHFFFAOYSA-N-UJbZnQ-1439-A.minimised.mol

>  <distance_score>  (372) 
0.704466

>  <energy_score>  (372) 
-10.050353

>  <compound>  (372) 
DUYUUOOSBQFYSQ-UHFFFAOYSA-N

>  <compound_id>  (372) 
175497

>  <target>  (372) 
Flavi_NS5_RdRp

>  <tags>  (372) 
[]

>  <inspirations>  (372) 
{P Ã— 2}

>  <subsites>  (372) 
None

>  <reference>  (372) 
z1018a

>  <SLURM_JOB_ID>  (372) 
nan

>  <SLURM_JOB_NAME>  (372) 
nan

>  <csv_name>  (372) 
nan

>  <scratch_subdir>  (372) 
nan

>  <fragmenstein_runtime>  (372) 
nan

>  <fragmenstein_outcome>  (372) 
nan

>  <fragmenstein_mode>  (372) 
nan

>  <fragmenstein_error>  (372) 
nan

>  <exports>  (372) 
nan

>  <Multi-SuCOS>  (372) 
nan

>  <merge_set>  (372) 
nan

$$$$
JXWQOSIIXIXCER-SSDOTTSWSA-N
     RDKit          3D

 20 21  0  0  0  0  0  0  0  0999 V2000
  -20.9226  -32.8429  -24.4176 C   0  0  0  0  0  0  0  0  0  0  0  0
  -22.1155  -33.6343  -23.9174 C   0  0  1  0  0  0  0  0  0  0  0  0
  -22.0280  -33.7367  -22.4908 O   0  0  0  0  0  0  0  0  0  0  0  0
  -23.4042  -32.9065  -24.3163 C   0  0  0  0  0  0  0  0  0  0  0  0
  -23.8574  -32.9731  -25.4600 N   0  0  0  0  0  0  0  0  0  0  0  0
  -23.8550  -32.1479  -23.1171 N   0  0  0  0  0  0  0  0  0  0  0  0
  -25.1396  -31.2369  -22.8454 C   0  0  0  0  0  0  0  0  0  0  0  0
  -25.9840  -30.8857  -23.5449 O   0  0  0  0  0  0  0  0  0  0  0  0
  -24.9690  -31.0613  -21.3984 N   0  0  0  0  0  0  0  0  0  0  0  0
  -25.7984  -30.5167  -20.4652 C   0  0  0  0  0  0  0  0  0  0  0  0
  -25.4578  -30.3958  -19.1451 C   0  0  0  0  0  0  0  0  0  0  0  0
  -26.6142  -29.9287  -18.5152 C   0  0  0  0  0  0  0  0  0  0  0  0
  -26.7627  -29.9473  -17.0744 C   0  0  0  0  0  0  0  0  0  0  0  0
  -28.0196  -29.7797  -16.4309 C   0  0  0  0  0  0  0  0  0  0  0  0
  -27.9491  -30.1710  -15.1161 C   0  0  0  0  0  0  0  0  0  0  0  0
  -26.3790  -30.7161  -14.6972 S   0  0  0  0  0  0  0  0  0  0  0  0
  -25.7526  -30.2996  -16.2073 C   0  0  0  0  0  0  0  0  0  0  0  0
  -27.6042  -29.6775  -19.3702 N   0  0  0  0  0  0  0  0  0  0  0  0
  -27.0891  -30.0566  -20.5618 N   0  0  0  0  0  0  0  0  0  0  0  0
  -27.9657  -30.0173  -21.6991 C   0  0  0  0  0  0  0  0  0  0  0  0
  2  1  1  1
  2  3  1  0
  2  4  1  0
  4  5  2  3
  4  6  1  0
  6  7  1  0
  7  8  2  0
  7  9  1  0
  9 10  1  0
 10 11  2  0
 11 12  1  0
 12 13  1  0
 13 14  1  0
 14 15  2  0
 15 16  1  0
 16 17  1  0
 12 18  2  0
 18 19  1  0
 19 20  1  0
 19 10  1  0
 17 13  2  0
M  END
>  <id>  (373) 
348451

>  <inchikey>  (373) 
JXWQOSIIXIXCER-SSDOTTSWSA-N

>  <alias>  (373) 
None

>  <smiles>  (373) 
C[C@@H](O)C(=N)NC(=O)Nc1cc(-c2ccsc2)nn1C

>  <path>  (373) 
/opt/xchem-fragalysis-2/maxwin/RdRp_FFF/syndirella/mar_elabs/elabs_053/WXJNUXZTXDROIJ-UHFFFAOYSA-N/output/WXJNUXZTXDROIJ-UHFFFAOYSA-N-gwDJo3-107-B/WXJNUXZTXDROIJ-UHFFFAOYSA-N-gwDJo3-107-B.minimised.mol

>  <distance_score>  (373) 
1.591571

>  <energy_score>  (373) 
-20.559517

>  <compound>  (373) 
JXWQOSIIXIXCER-UHFFFAOYSA-N

>  <compound_id>  (373) 
176926

>  <target>  (373) 
Flavi_NS5_RdRp

>  <tags>  (373) 
[]

>  <inspirations>  (373) 
{P Ã— 2}

>  <subsites>  (373) 
None

>  <reference>  (373) 
z0211a

>  <SLURM_JOB_ID>  (373) 
nan

>  <SLURM_JOB_NAME>  (373) 
nan

>  <csv_name>  (373) 
nan

>  <scratch_subdir>  (373) 
nan

>  <fragmenstein_runtime>  (373) 
nan

>  <fragmenstein_outcome>  (373) 
nan

>  <fragmenstein_mode>  (373) 
nan

>  <fragmenstein_error>  (373) 
nan

>  <exports>  (373) 
nan

>  <Multi-SuCOS>  (373) 
nan

>  <merge_set>  (373) 
nan

$$$$
XAQNQGYKQKTKTN-SNVBAGLBSA-N
     RDKit          3D

 20 21  0  0  0  0  0  0  0  0999 V2000
  -20.3922  -31.0798  -22.2752 C   0  0  0  0  0  0  0  0  0  0  0  0
  -21.0491  -31.8059  -23.4445 C   0  0  0  0  0  0  0  0  0  0  0  0
  -21.6367  -33.1680  -23.1024 C   0  0  1  0  0  0  0  0  0  0  0  0
  -21.3705  -33.5288  -21.7441 O   0  0  0  0  0  0  0  0  0  0  0  0
  -23.1442  -33.2098  -23.3144 C   0  0  0  0  0  0  0  0  0  0  0  0
  -23.7560  -32.3826  -22.3240 N   0  0  0  0  0  0  0  0  0  0  0  0
  -24.9986  -31.4850  -22.4070 C   0  0  0  0  0  0  0  0  0  0  0  0
  -25.6578  -31.2249  -23.2931 O   0  0  0  0  0  0  0  0  0  0  0  0
  -25.1466  -31.1224  -20.9107 N   0  0  0  0  0  0  0  0  0  0  0  0
  -26.1490  -30.4761  -20.2558 C   0  0  0  0  0  0  0  0  0  0  0  0
  -26.1775  -30.2665  -18.9002 C   0  0  0  0  0  0  0  0  0  0  0  0
  -27.4616  -29.7719  -18.6598 C   0  0  0  0  0  0  0  0  0  0  0  0
  -28.0535  -29.7440  -17.3459 C   0  0  0  0  0  0  0  0  0  0  0  0
  -29.4559  -29.8062  -17.1988 C   0  0  0  0  0  0  0  0  0  0  0  0
  -29.7851  -30.0894  -15.9075 C   0  0  0  0  0  0  0  0  0  0  0  0
  -28.4413  -30.1771  -14.8826 S   0  0  0  0  0  0  0  0  0  0  0  0
  -27.3711  -29.8420  -16.1548 C   0  0  0  0  0  0  0  0  0  0  0  0
  -28.1591  -29.5515  -19.7715 N   0  0  0  0  0  0  0  0  0  0  0  0
  -27.3321  -29.9785  -20.7424 N   0  0  0  0  0  0  0  0  0  0  0  0
  -27.8365  -29.9436  -22.0843 C   0  0  0  0  0  0  0  0  0  0  0  0
  1  2  1  0
  2  3  1  0
  3  4  1  1
  3  5  1  0
  5  6  1  0
  6  7  1  0
  7  8  2  0
  7  9  1  0
  9 10  1  0
 10 11  2  0
 11 12  1  0
 12 13  1  0
 13 14  1  0
 14 15  2  0
 15 16  1  0
 16 17  1  0
 12 18  2  0
 18 19  1  0
 19 20  1  0
 19 10  1  0
 17 13  2  0
M  END
>  <id>  (374) 
348453

>  <inchikey>  (374) 
XAQNQGYKQKTKTN-SNVBAGLBSA-N

>  <alias>  (374) 
None

>  <smiles>  (374) 
CC[C@@H](O)CNC(=O)Nc1cc(-c2ccsc2)nn1C

>  <path>  (374) 
/opt/xchem-fragalysis-2/maxwin/RdRp_FFF/syndirella/mar_elabs/elabs_053/WXJNUXZTXDROIJ-UHFFFAOYSA-N/output/WXJNUXZTXDROIJ-UHFFFAOYSA-N-gwDJo3-110-B/WXJNUXZTXDROIJ-UHFFFAOYSA-N-gwDJo3-110-B.minimised.mol

>  <distance_score>  (374) 
1.442529

>  <energy_score>  (374) 
-16.491286

>  <compound>  (374) 
XAQNQGYKQKTKTN-UHFFFAOYSA-N

>  <compound_id>  (374) 
176929

>  <target>  (374) 
Flavi_NS5_RdRp

>  <tags>  (374) 
[]

>  <inspirations>  (374) 
{P Ã— 2}

>  <subsites>  (374) 
None

>  <reference>  (374) 
z0211a

>  <SLURM_JOB_ID>  (374) 
nan

>  <SLURM_JOB_NAME>  (374) 
nan

>  <csv_name>  (374) 
nan

>  <scratch_subdir>  (374) 
nan

>  <fragmenstein_runtime>  (374) 
nan

>  <fragmenstein_outcome>  (374) 
nan

>  <fragmenstein_mode>  (374) 
nan

>  <fragmenstein_error>  (374) 
nan

>  <exports>  (374) 
nan

>  <Multi-SuCOS>  (374) 
nan

>  <merge_set>  (374) 
nan

$$$$
DWPIINHRQZTPRD-SSDOTTSWSA-N
     RDKit          3D

 20 21  0  0  0  0  0  0  0  0999 V2000
  -21.6100  -33.1536  -24.2605 C   0  0  0  0  0  0  0  0  0  0  0  0
  -22.0591  -33.9950  -23.0747 C   0  0  1  0  0  0  0  0  0  0  0  0
  -21.6608  -33.2974  -21.8881 O   0  0  0  0  0  0  0  0  0  0  0  0
  -23.5839  -34.1973  -23.0909 C   0  0  0  0  0  0  0  0  0  0  0  0
  -24.3068  -35.4174  -23.7393 S   0  0  0  0  0  0  0  0  0  0  0  0
  -24.1191  -32.9306  -22.3008 N   0  0  0  0  0  0  0  0  0  0  0  0
  -25.5900  -32.4990  -21.7875 C   0  0  0  0  0  0  0  0  0  0  0  0
  -26.6226  -32.9782  -21.9465 O   0  0  0  0  0  0  0  0  0  0  0  0
  -25.2031  -31.3114  -21.0223 N   0  0  0  0  0  0  0  0  0  0  0  0
  -25.9344  -30.5031  -20.2197 C   0  0  0  0  0  0  0  0  0  0  0  0
  -25.5117  -29.9708  -19.0339 C   0  0  0  0  0  0  0  0  0  0  0  0
  -26.7181  -29.6740  -18.3819 C   0  0  0  0  0  0  0  0  0  0  0  0
  -26.8482  -29.7883  -16.9427 C   0  0  0  0  0  0  0  0  0  0  0  0
  -28.1083  -29.7360  -16.2891 C   0  0  0  0  0  0  0  0  0  0  0  0
  -28.0184  -30.2593  -15.0235 C   0  0  0  0  0  0  0  0  0  0  0  0
  -26.4360  -30.8212  -14.6737 S   0  0  0  0  0  0  0  0  0  0  0  0
  -25.8229  -30.1939  -16.1165 C   0  0  0  0  0  0  0  0  0  0  0  0
  -27.7651  -29.6430  -19.2101 N   0  0  0  0  0  0  0  0  0  0  0  0
  -27.2598  -30.1885  -20.3337 N   0  0  0  0  0  0  0  0  0  0  0  0
  -28.1154  -30.3299  -21.4775 C   0  0  0  0  0  0  0  0  0  0  0  0
  2  1  1  6
  2  3  1  0
  2  4  1  0
  4  5  2  0
  4  6  1  0
  6  7  1  0
  7  8  2  0
  7  9  1  0
  9 10  1  0
 10 11  2  0
 11 12  1  0
 12 13  1  0
 13 14  1  0
 14 15  2  0
 15 16  1  0
 16 17  1  0
 12 18  2  0
 18 19  1  0
 19 20  1  0
 19 10  1  0
 17 13  2  0
M  END
>  <id>  (375) 
348455

>  <inchikey>  (375) 
DWPIINHRQZTPRD-SSDOTTSWSA-N

>  <alias>  (375) 
None

>  <smiles>  (375) 
C[C@@H](O)C(=S)NC(=O)Nc1cc(-c2ccsc2)nn1C

>  <path>  (375) 
/opt/xchem-fragalysis-2/maxwin/RdRp_FFF/syndirella/mar_elabs/elabs_053/WXJNUXZTXDROIJ-UHFFFAOYSA-N/output/WXJNUXZTXDROIJ-UHFFFAOYSA-N-gwDJo3-111-B/WXJNUXZTXDROIJ-UHFFFAOYSA-N-gwDJo3-111-B.minimised.mol

>  <distance_score>  (375) 
1.624591

>  <energy_score>  (375) 
-27.026256

>  <compound>  (375) 
DWPIINHRQZTPRD-UHFFFAOYSA-N

>  <compound_id>  (375) 
176930

>  <target>  (375) 
Flavi_NS5_RdRp

>  <tags>  (375) 
[]

>  <inspirations>  (375) 
{P Ã— 2}

>  <subsites>  (375) 
None

>  <reference>  (375) 
z0211a

>  <SLURM_JOB_ID>  (375) 
nan

>  <SLURM_JOB_NAME>  (375) 
nan

>  <csv_name>  (375) 
nan

>  <scratch_subdir>  (375) 
nan

>  <fragmenstein_runtime>  (375) 
nan

>  <fragmenstein_outcome>  (375) 
nan

>  <fragmenstein_mode>  (375) 
nan

>  <fragmenstein_error>  (375) 
nan

>  <exports>  (375) 
nan

>  <Multi-SuCOS>  (375) 
nan

>  <merge_set>  (375) 
nan

$$$$
XLTSBWMIBHCGOC-UHFFFAOYSA-N
     RDKit          3D

 20 22  0  0  0  0  0  0  0  0999 V2000
  -21.6194  -33.7016  -25.7912 C   0  0  0  0  0  0  0  0  0  0  0  0
  -21.3655  -33.0645  -24.5463 O   0  0  0  0  0  0  0  0  0  0  0  0
  -22.5076  -32.9735  -23.6655 C   0  0  0  0  0  0  0  0  0  0  0  0
  -22.4363  -31.9746  -22.5471 C   0  0  0  0  0  0  0  0  0  0  0  0
  -23.3150  -32.9253  -21.6795 N   0  0  0  0  0  0  0  0  0  0  0  0
  -24.7853  -32.5100  -21.7118 C   0  0  0  0  0  0  0  0  0  0  0  0
  -25.6272  -32.8245  -22.4227 O   0  0  0  0  0  0  0  0  0  0  0  0
  -24.7822  -31.4760  -20.5569 N   0  0  0  0  0  0  0  0  0  0  0  0
  -25.8016  -30.7378  -20.0279 C   0  0  0  0  0  0  0  0  0  0  0  0
  -25.8853  -30.2725  -18.7366 C   0  0  0  0  0  0  0  0  0  0  0  0
  -27.2265  -29.8734  -18.6127 C   0  0  0  0  0  0  0  0  0  0  0  0
  -27.9256  -29.7755  -17.3477 C   0  0  0  0  0  0  0  0  0  0  0  0
  -29.3415  -29.7934  -17.3071 C   0  0  0  0  0  0  0  0  0  0  0  0
  -29.7900  -30.0414  -16.0417 C   0  0  0  0  0  0  0  0  0  0  0  0
  -28.5306  -30.1420  -14.9107 S   0  0  0  0  0  0  0  0  0  0  0  0
  -27.3498  -29.8651  -16.1008 C   0  0  0  0  0  0  0  0  0  0  0  0
  -27.8697  -29.8405  -19.7796 N   0  0  0  0  0  0  0  0  0  0  0  0
  -26.9699  -30.3542  -20.6373 N   0  0  0  0  0  0  0  0  0  0  0  0
  -27.3357  -30.3469  -22.0267 C   0  0  0  0  0  0  0  0  0  0  0  0
  -22.5653  -33.9431  -22.5066 C   0  0  0  0  0  0  0  0  0  0  0  0
  1  2  1  0
  2  3  1  0
  3  4  1  0
  4  5  1  0
  5  6  1  0
  6  7  2  0
  6  8  1  0
  8  9  1  0
  9 10  2  0
 10 11  1  0
 11 12  1  0
 12 13  1  0
 13 14  2  0
 14 15  1  0
 15 16  1  0
 11 17  2  0
 17 18  1  0
 18 19  1  0
  5 20  1  0
 20  3  1  0
 18  9  1  0
 16 12  2  0
M  END
>  <id>  (376) 
348456

>  <inchikey>  (376) 
XLTSBWMIBHCGOC-UHFFFAOYSA-N

>  <alias>  (376) 
None

>  <smiles>  (376) 
COC1CN(C(=O)Nc2cc(-c3ccsc3)nn2C)C1

>  <path>  (376) 
/opt/xchem-fragalysis-2/maxwin/RdRp_FFF/syndirella/mar_elabs/elabs_053/WXJNUXZTXDROIJ-UHFFFAOYSA-N/output/WXJNUXZTXDROIJ-UHFFFAOYSA-N-gwDJo3-121-A/WXJNUXZTXDROIJ-UHFFFAOYSA-N-gwDJo3-121-A.minimised.mol

>  <distance_score>  (376) 
1.663042

>  <energy_score>  (376) 
-7.121599

>  <compound>  (376) 
XLTSBWMIBHCGOC-UHFFFAOYSA-N

>  <compound_id>  (376) 
176940

>  <target>  (376) 
Flavi_NS5_RdRp

>  <tags>  (376) 
[]

>  <inspirations>  (376) 
{P Ã— 2}

>  <subsites>  (376) 
None

>  <reference>  (376) 
z0211a

>  <SLURM_JOB_ID>  (376) 
nan

>  <SLURM_JOB_NAME>  (376) 
nan

>  <csv_name>  (376) 
nan

>  <scratch_subdir>  (376) 
nan

>  <fragmenstein_runtime>  (376) 
nan

>  <fragmenstein_outcome>  (376) 
nan

>  <fragmenstein_mode>  (376) 
nan

>  <fragmenstein_error>  (376) 
nan

>  <exports>  (376) 
nan

>  <Multi-SuCOS>  (376) 
nan

>  <merge_set>  (376) 
nan

$$$$
VLBBTILODLHFRN-SECBINFHSA-N
     RDKit          3D

 20 21  0  0  0  0  0  0  0  0999 V2000
  -20.1601  -32.7179  -21.1169 C   0  0  0  0  0  0  0  0  0  0  0  0
  -20.7767  -31.9578  -22.1503 O   0  0  0  0  0  0  0  0  0  0  0  0
  -21.4987  -32.7729  -23.0875 C   0  0  2  0  0  0  0  0  0  0  0  0
  -20.6442  -33.0199  -24.3092 C   0  0  0  0  0  0  0  0  0  0  0  0
  -22.7247  -32.0191  -23.5524 C   0  0  0  0  0  0  0  0  0  0  0  0
  -23.5711  -31.6971  -22.4613 N   0  0  0  0  0  0  0  0  0  0  0  0
  -25.0228  -31.2166  -22.4414 C   0  0  0  0  0  0  0  0  0  0  0  0
  -25.7620  -31.0847  -23.2890 O   0  0  0  0  0  0  0  0  0  0  0  0
  -25.1841  -30.9594  -20.9297 N   0  0  0  0  0  0  0  0  0  0  0  0
  -26.2193  -30.4257  -20.2354 C   0  0  0  0  0  0  0  0  0  0  0  0
  -26.2333  -30.2438  -18.8784 C   0  0  0  0  0  0  0  0  0  0  0  0
  -27.5223  -29.7778  -18.6187 C   0  0  0  0  0  0  0  0  0  0  0  0
  -28.0872  -29.7511  -17.2977 C   0  0  0  0  0  0  0  0  0  0  0  0
  -29.4855  -29.8097  -17.1297 C   0  0  0  0  0  0  0  0  0  0  0  0
  -29.7869  -30.1044  -15.8363 C   0  0  0  0  0  0  0  0  0  0  0  0
  -28.4277  -30.1987  -14.8375 S   0  0  0  0  0  0  0  0  0  0  0  0
  -27.3806  -29.8534  -16.1219 C   0  0  0  0  0  0  0  0  0  0  0  0
  -28.2472  -29.5727  -19.7152 N   0  0  0  0  0  0  0  0  0  0  0  0
  -27.4274  -29.9706  -20.6995 N   0  0  0  0  0  0  0  0  0  0  0  0
  -27.9391  -29.9068  -22.0369 C   0  0  0  0  0  0  0  0  0  0  0  0
  1  2  1  0
  2  3  1  0
  3  4  1  6
  3  5  1  0
  5  6  1  0
  6  7  1  0
  7  8  2  0
  7  9  1  0
  9 10  1  0
 10 11  2  0
 11 12  1  0
 12 13  1  0
 13 14  1  0
 14 15  2  0
 15 16  1  0
 16 17  1  0
 12 18  2  0
 18 19  1  0
 19 20  1  0
 19 10  1  0
 17 13  2  0
M  END
>  <id>  (377) 
348459

>  <inchikey>  (377) 
VLBBTILODLHFRN-SECBINFHSA-N

>  <alias>  (377) 
None

>  <smiles>  (377) 
CO[C@H](C)CNC(=O)Nc1cc(-c2ccsc2)nn1C

>  <path>  (377) 
/opt/xchem-fragalysis-2/maxwin/RdRp_FFF/syndirella/mar_elabs/elabs_053/WXJNUXZTXDROIJ-UHFFFAOYSA-N/output/WXJNUXZTXDROIJ-UHFFFAOYSA-N-gwDJo3-124-A/WXJNUXZTXDROIJ-UHFFFAOYSA-N-gwDJo3-124-A.minimised.mol

>  <distance_score>  (377) 
1.331813

>  <energy_score>  (377) 
-10.970935

>  <compound>  (377) 
VLBBTILODLHFRN-UHFFFAOYSA-N

>  <compound_id>  (377) 
176943

>  <target>  (377) 
Flavi_NS5_RdRp

>  <tags>  (377) 
[]

>  <inspirations>  (377) 
{P Ã— 2}

>  <subsites>  (377) 
None

>  <reference>  (377) 
z0211a

>  <SLURM_JOB_ID>  (377) 
nan

>  <SLURM_JOB_NAME>  (377) 
nan

>  <csv_name>  (377) 
nan

>  <scratch_subdir>  (377) 
nan

>  <fragmenstein_runtime>  (377) 
nan

>  <fragmenstein_outcome>  (377) 
nan

>  <fragmenstein_mode>  (377) 
nan

>  <fragmenstein_error>  (377) 
nan

>  <exports>  (377) 
nan

>  <Multi-SuCOS>  (377) 
nan

>  <merge_set>  (377) 
nan

$$$$
MQGJMJVXLQINBH-UHFFFAOYSA-N
     RDKit          3D

 21 22  0  0  0  0  0  0  0  0999 V2000
  -21.4046  -33.6126  -25.5787 C   0  0  0  0  0  0  0  0  0  0  0  0
  -20.7892  -33.2410  -24.3526 O   0  0  0  0  0  0  0  0  0  0  0  0
  -21.6601  -32.9893  -23.2368 C   0  0  0  0  0  0  0  0  0  0  0  0
  -20.7448  -32.4935  -22.1013 C   0  0  0  0  0  0  0  0  0  0  0  0
  -22.3566  -34.2808  -22.7752 C   0  0  0  0  0  0  0  0  0  0  0  0
  -22.6783  -31.9092  -23.5912 C   0  0  0  0  0  0  0  0  0  0  0  0
  -23.5211  -31.5656  -22.4974 N   0  0  0  0  0  0  0  0  0  0  0  0
  -24.9869  -31.1293  -22.4745 C   0  0  0  0  0  0  0  0  0  0  0  0
  -25.7430  -31.0565  -23.3154 O   0  0  0  0  0  0  0  0  0  0  0  0
  -25.1492  -30.8683  -20.9620 N   0  0  0  0  0  0  0  0  0  0  0  0
  -26.2112  -30.3992  -20.2606 C   0  0  0  0  0  0  0  0  0  0  0  0
  -26.2295  -30.2296  -18.9019 C   0  0  0  0  0  0  0  0  0  0  0  0
  -27.5294  -29.7984  -18.6357 C   0  0  0  0  0  0  0  0  0  0  0  0
  -28.0837  -29.7652  -17.3097 C   0  0  0  0  0  0  0  0  0  0  0  0
  -29.4806  -29.8203  -17.1266 C   0  0  0  0  0  0  0  0  0  0  0  0
  -29.7686  -30.1052  -15.8277 C   0  0  0  0  0  0  0  0  0  0  0  0
  -28.3996  -30.1958  -14.8425 S   0  0  0  0  0  0  0  0  0  0  0  0
  -27.3657  -29.8589  -16.1398 C   0  0  0  0  0  0  0  0  0  0  0  0
  -28.2654  -29.6155  -19.7291 N   0  0  0  0  0  0  0  0  0  0  0  0
  -27.4369  -29.9890  -20.7166 N   0  0  0  0  0  0  0  0  0  0  0  0
  -27.9457  -29.9226  -22.0540 C   0  0  0  0  0  0  0  0  0  0  0  0
  1  2  1  0
  2  3  1  0
  3  4  1  0
  3  5  1  0
  3  6  1  0
  6  7  1  0
  7  8  1  0
  8  9  2  0
  8 10  1  0
 10 11  1  0
 11 12  2  0
 12 13  1  0
 13 14  1  0
 14 15  1  0
 15 16  2  0
 16 17  1  0
 17 18  1  0
 13 19  2  0
 19 20  1  0
 20 21  1  0
 20 11  1  0
 18 14  2  0
M  END
>  <id>  (378) 
348760

>  <inchikey>  (378) 
MQGJMJVXLQINBH-UHFFFAOYSA-N

>  <alias>  (378) 
None

>  <smiles>  (378) 
COC(C)(C)CNC(=O)Nc1cc(-c2ccsc2)nn1C

>  <path>  (378) 
/opt/xchem-fragalysis-2/maxwin/RdRp_FFF/syndirella/mar_elabs/elabs_053/WXJNUXZTXDROIJ-UHFFFAOYSA-N/output/WXJNUXZTXDROIJ-UHFFFAOYSA-N-gwDJo3-900-A/WXJNUXZTXDROIJ-UHFFFAOYSA-N-gwDJo3-900-A.minimised.mol

>  <distance_score>  (378) 
1.390731

>  <energy_score>  (378) 
-6.123255

>  <compound>  (378) 
MQGJMJVXLQINBH-UHFFFAOYSA-N

>  <compound_id>  (378) 
177557

>  <target>  (378) 
Flavi_NS5_RdRp

>  <tags>  (378) 
[]

>  <inspirations>  (378) 
{P Ã— 2}

>  <subsites>  (378) 
None

>  <reference>  (378) 
z0211a

>  <SLURM_JOB_ID>  (378) 
nan

>  <SLURM_JOB_NAME>  (378) 
nan

>  <csv_name>  (378) 
nan

>  <scratch_subdir>  (378) 
nan

>  <fragmenstein_runtime>  (378) 
nan

>  <fragmenstein_outcome>  (378) 
nan

>  <fragmenstein_mode>  (378) 
nan

>  <fragmenstein_error>  (378) 
nan

>  <exports>  (378) 
nan

>  <Multi-SuCOS>  (378) 
nan

>  <merge_set>  (378) 
nan

$$$$
ZYNSSOLAIUGQCY-SNVBAGLBSA-N
     RDKit          3D

 21 22  0  0  0  0  0  0  0  0999 V2000
  -21.1237  -33.4780  -19.9455 C   0  0  0  0  0  0  0  0  0  0  0  0
  -21.6937  -32.9079  -21.1196 O   0  0  0  0  0  0  0  0  0  0  0  0
  -21.0063  -33.3432  -22.3072 C   0  0  0  0  0  0  0  0  0  0  0  0
  -21.3775  -32.4634  -23.5035 C   0  0  2  0  0  0  0  0  0  0  0  0
  -20.9172  -31.1311  -23.2456 O   0  0  0  0  0  0  0  0  0  0  0  0
  -22.8718  -32.5073  -23.8213 C   0  0  0  0  0  0  0  0  0  0  0  0
  -23.6384  -32.0294  -22.7128 N   0  0  0  0  0  0  0  0  0  0  0  0
  -24.9466  -31.2150  -22.6804 C   0  0  0  0  0  0  0  0  0  0  0  0
  -25.6261  -30.8818  -23.5291 O   0  0  0  0  0  0  0  0  0  0  0  0
  -25.0993  -31.0393  -21.1443 N   0  0  0  0  0  0  0  0  0  0  0  0
  -26.1291  -30.5207  -20.4116 C   0  0  0  0  0  0  0  0  0  0  0  0
  -26.1327  -30.3816  -19.0442 C   0  0  0  0  0  0  0  0  0  0  0  0
  -27.4107  -29.8942  -18.7405 C   0  0  0  0  0  0  0  0  0  0  0  0
  -27.9350  -29.8178  -17.3962 C   0  0  0  0  0  0  0  0  0  0  0  0
  -29.3303  -29.8260  -17.1573 C   0  0  0  0  0  0  0  0  0  0  0  0
  -29.5862  -30.0795  -15.8405 C   0  0  0  0  0  0  0  0  0  0  0  0
  -28.1824  -30.1959  -14.9050 S   0  0  0  0  0  0  0  0  0  0  0  0
  -27.1854  -29.8978  -16.2441 C   0  0  0  0  0  0  0  0  0  0  0  0
  -28.1555  -29.6806  -19.8214 N   0  0  0  0  0  0  0  0  0  0  0  0
  -27.3476  -30.0462  -20.8328 N   0  0  0  0  0  0  0  0  0  0  0  0
  -27.8654  -29.8959  -22.1596 C   0  0  0  0  0  0  0  0  0  0  0  0
  1  2  1  0
  2  3  1  0
  3  4  1  0
  4  5  1  1
  4  6  1  0
  6  7  1  0
  7  8  1  0
  8  9  2  0
  8 10  1  0
 10 11  1  0
 11 12  2  0
 12 13  1  0
 13 14  1  0
 14 15  1  0
 15 16  2  0
 16 17  1  0
 17 18  1  0
 13 19  2  0
 19 20  1  0
 20 21  1  0
 20 11  1  0
 18 14  2  0
M  END
>  <id>  (379) 
348768

>  <inchikey>  (379) 
ZYNSSOLAIUGQCY-SNVBAGLBSA-N

>  <alias>  (379) 
None

>  <smiles>  (379) 
COC[C@H](O)CNC(=O)Nc1cc(-c2ccsc2)nn1C

>  <path>  (379) 
/opt/xchem-fragalysis-2/maxwin/RdRp_FFF/syndirella/mar_elabs/elabs_053/WXJNUXZTXDROIJ-UHFFFAOYSA-N/output/WXJNUXZTXDROIJ-UHFFFAOYSA-N-gwDJo3-927-A/WXJNUXZTXDROIJ-UHFFFAOYSA-N-gwDJo3-927-A.minimised.mol

>  <distance_score>  (379) 
1.431872

>  <energy_score>  (379) 
-23.914949

>  <compound>  (379) 
ZYNSSOLAIUGQCY-UHFFFAOYSA-N

>  <compound_id>  (379) 
177575

>  <target>  (379) 
Flavi_NS5_RdRp

>  <tags>  (379) 
[]

>  <inspirations>  (379) 
{P Ã— 2}

>  <subsites>  (379) 
None

>  <reference>  (379) 
z0211a

>  <SLURM_JOB_ID>  (379) 
nan

>  <SLURM_JOB_NAME>  (379) 
nan

>  <csv_name>  (379) 
nan

>  <scratch_subdir>  (379) 
nan

>  <fragmenstein_runtime>  (379) 
nan

>  <fragmenstein_outcome>  (379) 
nan

>  <fragmenstein_mode>  (379) 
nan

>  <fragmenstein_error>  (379) 
nan

>  <exports>  (379) 
nan

>  <Multi-SuCOS>  (379) 
nan

>  <merge_set>  (379) 
nan

$$$$
BQABPCZDOUERIJ-LDYMZIIASA-N
     RDKit          3D

 21 22  0  0  0  0  0  0  0  0999 V2000
  -20.7218  -32.9225  -24.3662 C   0  0  0  0  0  0  0  0  0  0  0  0
  -21.7163  -32.7885  -23.2395 C   0  0  1  0  0  0  0  0  0  0  0  0
  -21.2361  -31.7801  -22.3342 O   0  0  0  0  0  0  0  0  0  0  0  0
  -23.1047  -32.4166  -23.7528 C   0  0  1  0  0  0  0  0  0  0  0  0
  -23.8385  -33.5563  -24.4764 C   0  0  0  0  0  0  0  0  0  0  0  0
  -24.9361  -33.0713  -25.2529 O   0  0  0  0  0  0  0  0  0  0  0  0
  -23.8663  -31.9582  -22.6250 N   0  0  0  0  0  0  0  0  0  0  0  0
  -25.1757  -31.1713  -22.5674 C   0  0  0  0  0  0  0  0  0  0  0  0
  -25.8701  -30.8429  -23.4002 O   0  0  0  0  0  0  0  0  0  0  0  0
  -25.3251  -31.0450  -21.0360 N   0  0  0  0  0  0  0  0  0  0  0  0
  -26.2809  -30.4300  -20.2938 C   0  0  0  0  0  0  0  0  0  0  0  0
  -26.2279  -30.2551  -18.9374 C   0  0  0  0  0  0  0  0  0  0  0  0
  -27.4887  -29.7443  -18.6166 C   0  0  0  0  0  0  0  0  0  0  0  0
  -27.9928  -29.7324  -17.2704 C   0  0  0  0  0  0  0  0  0  0  0  0
  -29.3822  -29.7810  -17.0217 C   0  0  0  0  0  0  0  0  0  0  0  0
  -29.6084  -30.1073  -15.7187 C   0  0  0  0  0  0  0  0  0  0  0  0
  -28.1921  -30.2608  -14.8165 S   0  0  0  0  0  0  0  0  0  0  0  0
  -27.2203  -29.8657  -16.1401 C   0  0  0  0  0  0  0  0  0  0  0  0
  -28.2490  -29.4955  -19.6791 N   0  0  0  0  0  0  0  0  0  0  0  0
  -27.4876  -29.9199  -20.6982 N   0  0  0  0  0  0  0  0  0  0  0  0
  -28.0613  -29.8737  -22.0090 C   0  0  0  0  0  0  0  0  0  0  0  0
  2  1  1  6
  2  3  1  0
  2  4  1  0
  4  5  1  1
  5  6  1  0
  4  7  1  0
  7  8  1  0
  8  9  2  0
  8 10  1  0
 10 11  1  0
 11 12  2  0
 12 13  1  0
 13 14  1  0
 14 15  1  0
 15 16  2  0
 16 17  1  0
 17 18  1  0
 13 19  2  0
 19 20  1  0
 20 21  1  0
 20 11  1  0
 18 14  2  0
M  END
>  <id>  (380) 
348779

>  <inchikey>  (380) 
BQABPCZDOUERIJ-LDYMZIIASA-N

>  <alias>  (380) 
None

>  <smiles>  (380) 
C[C@@H](O)[C@@H](CO)NC(=O)Nc1cc(-c2ccsc2)nn1C

>  <path>  (380) 
/opt/xchem-fragalysis-2/maxwin/RdRp_FFF/syndirella/mar_elabs/elabs_053/WXJNUXZTXDROIJ-UHFFFAOYSA-N/output/WXJNUXZTXDROIJ-UHFFFAOYSA-N-gwDJo3-945-D/WXJNUXZTXDROIJ-UHFFFAOYSA-N-gwDJo3-945-D.minimised.mol

>  <distance_score>  (380) 
1.284789

>  <energy_score>  (380) 
-22.529219

>  <compound>  (380) 
BQABPCZDOUERIJ-UHFFFAOYSA-N

>  <compound_id>  (380) 
177588

>  <target>  (380) 
Flavi_NS5_RdRp

>  <tags>  (380) 
[]

>  <inspirations>  (380) 
{P Ã— 2}

>  <subsites>  (380) 
None

>  <reference>  (380) 
z0211a

>  <SLURM_JOB_ID>  (380) 
nan

>  <SLURM_JOB_NAME>  (380) 
nan

>  <csv_name>  (380) 
nan

>  <scratch_subdir>  (380) 
nan

>  <fragmenstein_runtime>  (380) 
nan

>  <fragmenstein_outcome>  (380) 
nan

>  <fragmenstein_mode>  (380) 
nan

>  <fragmenstein_error>  (380) 
nan

>  <exports>  (380) 
nan

>  <Multi-SuCOS>  (380) 
nan

>  <merge_set>  (380) 
nan

$$$$
XVNJICPLJGOCRS-QMMMGPOBSA-N
     RDKit          3D

 21 22  0  0  0  0  0  0  0  0999 V2000
  -20.6487  -33.1464  -21.8033 C   0  0  0  0  0  0  0  0  0  0  0  0
  -21.7165  -33.4459  -22.6931 O   0  0  0  0  0  0  0  0  0  0  0  0
  -21.7228  -32.6439  -23.8735 C   0  0  1  0  0  0  0  0  0  0  0  0
  -20.9342  -33.2825  -24.9931 C   0  0  0  0  0  0  0  0  0  0  0  0
  -23.1934  -32.3594  -24.2527 C   0  0  0  0  0  0  0  0  0  0  0  0
  -23.6873  -32.6183  -25.3499 N   0  0  0  0  0  0  0  0  0  0  0  0
  -23.7515  -31.6497  -23.0505 N   0  0  0  0  0  0  0  0  0  0  0  0
  -25.2022  -31.0768  -22.7266 C   0  0  0  0  0  0  0  0  0  0  0  0
  -26.1485  -30.9997  -23.3725 O   0  0  0  0  0  0  0  0  0  0  0  0
  -24.9924  -30.7624  -21.3142 N   0  0  0  0  0  0  0  0  0  0  0  0
  -25.8713  -30.3782  -20.3507 C   0  0  0  0  0  0  0  0  0  0  0  0
  -25.5236  -30.2494  -19.0354 C   0  0  0  0  0  0  0  0  0  0  0  0
  -26.7048  -29.8814  -18.3911 C   0  0  0  0  0  0  0  0  0  0  0  0
  -26.8379  -29.9476  -16.9534 C   0  0  0  0  0  0  0  0  0  0  0  0
  -28.0885  -29.8100  -16.2968 C   0  0  0  0  0  0  0  0  0  0  0  0
  -28.0067  -30.2737  -15.0078 C   0  0  0  0  0  0  0  0  0  0  0  0
  -26.4390  -30.8661  -14.6388 S   0  0  0  0  0  0  0  0  0  0  0  0
  -25.8180  -30.3356  -16.1132 C   0  0  0  0  0  0  0  0  0  0  0  0
  -27.7182  -29.6857  -19.2320 N   0  0  0  0  0  0  0  0  0  0  0  0
  -27.1999  -30.0390  -20.4286 N   0  0  0  0  0  0  0  0  0  0  0  0
  -28.0881  -30.0526  -21.5579 C   0  0  0  0  0  0  0  0  0  0  0  0
  1  2  1  0
  2  3  1  0
  3  4  1  6
  3  5  1  0
  5  6  2  3
  5  7  1  0
  7  8  1  0
  8  9  2  0
  8 10  1  0
 10 11  1  0
 11 12  2  0
 12 13  1  0
 13 14  1  0
 14 15  1  0
 15 16  2  0
 16 17  1  0
 17 18  1  0
 13 19  2  0
 19 20  1  0
 20 21  1  0
 20 11  1  0
 18 14  2  0
M  END
>  <id>  (381) 
348784

>  <inchikey>  (381) 
XVNJICPLJGOCRS-QMMMGPOBSA-N

>  <alias>  (381) 
None

>  <smiles>  (381) 
CO[C@@H](C)C(=N)NC(=O)Nc1cc(-c2ccsc2)nn1C

>  <path>  (381) 
/opt/xchem-fragalysis-2/maxwin/RdRp_FFF/syndirella/mar_elabs/elabs_053/WXJNUXZTXDROIJ-UHFFFAOYSA-N/output/WXJNUXZTXDROIJ-UHFFFAOYSA-N-gwDJo3-959-B/WXJNUXZTXDROIJ-UHFFFAOYSA-N-gwDJo3-959-B.minimised.mol

>  <distance_score>  (381) 
1.52679

>  <energy_score>  (381) 
-10.268877

>  <compound>  (381) 
XVNJICPLJGOCRS-UHFFFAOYSA-N

>  <compound_id>  (381) 
177596

>  <target>  (381) 
Flavi_NS5_RdRp

>  <tags>  (381) 
[]

>  <inspirations>  (381) 
{P Ã— 2}

>  <subsites>  (381) 
None

>  <reference>  (381) 
z0211a

>  <SLURM_JOB_ID>  (381) 
nan

>  <SLURM_JOB_NAME>  (381) 
nan

>  <csv_name>  (381) 
nan

>  <scratch_subdir>  (381) 
nan

>  <fragmenstein_runtime>  (381) 
nan

>  <fragmenstein_outcome>  (381) 
nan

>  <fragmenstein_mode>  (381) 
nan

>  <fragmenstein_error>  (381) 
nan

>  <exports>  (381) 
nan

>  <Multi-SuCOS>  (381) 
nan

>  <merge_set>  (381) 
nan

$$$$
YPSGUSJWRBUNOS-AWEZNQCLSA-N
     RDKit          3D

 21 22  0  0  0  0  0  0  0  0999 V2000
  -20.8068  -33.2286  -25.6743 C   0  0  0  0  0  0  0  0  0  0  0  0
  -21.5750  -33.6113  -24.6502 C   0  0  0  0  0  0  0  0  0  0  0  0
  -22.0238  -32.7937  -23.4796 C   0  0  2  0  0  0  0  0  0  0  0  0
  -21.1709  -31.5862  -23.1219 C   0  0  0  0  0  0  0  0  0  0  0  0
  -21.9825  -33.6272  -22.3142 O   0  0  0  0  0  0  0  0  0  0  0  0
  -23.4821  -32.4625  -23.7973 C   0  0  0  0  0  0  0  0  0  0  0  0
  -24.1511  -31.9582  -22.6591 N   0  0  0  0  0  0  0  0  0  0  0  0
  -25.3182  -30.9802  -22.5498 C   0  0  0  0  0  0  0  0  0  0  0  0
  -25.9519  -30.5024  -23.3580 O   0  0  0  0  0  0  0  0  0  0  0  0
  -25.4408  -30.9091  -21.0177 N   0  0  0  0  0  0  0  0  0  0  0  0
  -26.3847  -30.3341  -20.2413 C   0  0  0  0  0  0  0  0  0  0  0  0
  -26.2924  -30.1969  -18.8892 C   0  0  0  0  0  0  0  0  0  0  0  0
  -27.5381  -29.6825  -18.5245 C   0  0  0  0  0  0  0  0  0  0  0  0
  -27.9661  -29.7002  -17.1565 C   0  0  0  0  0  0  0  0  0  0  0  0
  -29.3323  -29.7574  -16.8058 C   0  0  0  0  0  0  0  0  0  0  0  0
  -29.4491  -30.1385  -15.5017 C   0  0  0  0  0  0  0  0  0  0  0  0
  -27.9620  -30.3980  -14.7547 S   0  0  0  0  0  0  0  0  0  0  0  0
  -27.1051  -29.8670  -16.0970 C   0  0  0  0  0  0  0  0  0  0  0  0
  -28.3362  -29.4178  -19.5546 N   0  0  0  0  0  0  0  0  0  0  0  0
  -27.6063  -29.8338  -20.6020 N   0  0  0  0  0  0  0  0  0  0  0  0
  -28.2325  -29.8528  -21.8879 C   0  0  0  0  0  0  0  0  0  0  0  0
  1  2  2  0
  2  3  1  0
  3  4  1  1
  3  5  1  0
  3  6  1  0
  6  7  1  0
  7  8  1  0
  8  9  2  0
  8 10  1  0
 10 11  1  0
 11 12  2  0
 12 13  1  0
 13 14  1  0
 14 15  1  0
 15 16  2  0
 16 17  1  0
 17 18  1  0
 13 19  2  0
 19 20  1  0
 20 21  1  0
 20 11  1  0
 18 14  2  0
M  END
>  <id>  (382) 
348796

>  <inchikey>  (382) 
YPSGUSJWRBUNOS-AWEZNQCLSA-N

>  <alias>  (382) 
None

>  <smiles>  (382) 
C=C[C@](C)(O)CNC(=O)Nc1cc(-c2ccsc2)nn1C

>  <path>  (382) 
/opt/xchem-fragalysis-2/maxwin/RdRp_FFF/syndirella/mar_elabs/elabs_053/WXJNUXZTXDROIJ-UHFFFAOYSA-N/output/WXJNUXZTXDROIJ-UHFFFAOYSA-N-gwDJo3-1011-A/WXJNUXZTXDROIJ-UHFFFAOYSA-N-gwDJo3-1011-A.minimised.mol

>  <distance_score>  (382) 
1.330241

>  <energy_score>  (382) 
-30.007172

>  <compound>  (382) 
YPSGUSJWRBUNOS-UHFFFAOYSA-N

>  <compound_id>  (382) 
177631

>  <target>  (382) 
Flavi_NS5_RdRp

>  <tags>  (382) 
[]

>  <inspirations>  (382) 
{P Ã— 2}

>  <subsites>  (382) 
None

>  <reference>  (382) 
z0211a

>  <SLURM_JOB_ID>  (382) 
nan

>  <SLURM_JOB_NAME>  (382) 
nan

>  <csv_name>  (382) 
nan

>  <scratch_subdir>  (382) 
nan

>  <fragmenstein_runtime>  (382) 
nan

>  <fragmenstein_outcome>  (382) 
nan

>  <fragmenstein_mode>  (382) 
nan

>  <fragmenstein_error>  (382) 
nan

>  <exports>  (382) 
nan

>  <Multi-SuCOS>  (382) 
nan

>  <merge_set>  (382) 
nan

$$$$
VYKILTIROMQBQD-JTQLQIEISA-N
     RDKit          3D

 21 22  0  0  0  0  0  0  0  0999 V2000
  -23.1809  -35.8850  -23.8888 C   0  0  0  0  0  0  0  0  0  0  0  0
  -22.4866  -34.8549  -23.0102 C   0  0  0  0  0  0  0  0  0  0  0  0
  -22.0823  -33.5832  -23.7638 C   0  0  2  0  0  0  0  0  0  0  0  0
  -21.3603  -32.7536  -22.8444 O   0  0  0  0  0  0  0  0  0  0  0  0
  -23.3331  -32.8185  -24.2081 C   0  0  0  0  0  0  0  0  0  0  0  0
  -23.7201  -32.8332  -25.3763 N   0  0  0  0  0  0  0  0  0  0  0  0
  -23.9084  -32.1924  -22.9820 N   0  0  0  0  0  0  0  0  0  0  0  0
  -25.1637  -31.2322  -22.7585 C   0  0  0  0  0  0  0  0  0  0  0  0
  -25.9732  -30.8570  -23.4866 O   0  0  0  0  0  0  0  0  0  0  0  0
  -25.0297  -31.0486  -21.3099 N   0  0  0  0  0  0  0  0  0  0  0  0
  -25.8637  -30.4651  -20.4083 C   0  0  0  0  0  0  0  0  0  0  0  0
  -25.5337  -30.3127  -19.0902 C   0  0  0  0  0  0  0  0  0  0  0  0
  -26.7025  -29.8517  -18.4802 C   0  0  0  0  0  0  0  0  0  0  0  0
  -26.8694  -29.8925  -17.0429 C   0  0  0  0  0  0  0  0  0  0  0  0
  -28.1348  -29.7562  -16.4101 C   0  0  0  0  0  0  0  0  0  0  0  0
  -28.0712  -30.1806  -15.1051 C   0  0  0  0  0  0  0  0  0  0  0  0
  -26.5045  -30.7429  -14.6956 S   0  0  0  0  0  0  0  0  0  0  0  0
  -25.8627  -30.2501  -16.1737 C   0  0  0  0  0  0  0  0  0  0  0  0
  -27.6816  -29.6090  -19.3505 N   0  0  0  0  0  0  0  0  0  0  0  0
  -27.1510  -30.0036  -20.5306 N   0  0  0  0  0  0  0  0  0  0  0  0
  -28.0153  -30.0046  -21.6777 C   0  0  0  0  0  0  0  0  0  0  0  0
  1  2  1  0
  2  3  1  0
  3  4  1  1
  3  5  1  0
  5  6  2  3
  5  7  1  0
  7  8  1  0
  8  9  2  0
  8 10  1  0
 10 11  1  0
 11 12  2  0
 12 13  1  0
 13 14  1  0
 14 15  1  0
 15 16  2  0
 16 17  1  0
 17 18  1  0
 13 19  2  0
 19 20  1  0
 20 21  1  0
 20 11  1  0
 18 14  2  0
M  END
>  <id>  (383) 
348797

>  <inchikey>  (383) 
VYKILTIROMQBQD-JTQLQIEISA-N

>  <alias>  (383) 
None

>  <smiles>  (383) 
CC[C@H](O)C(=N)NC(=O)Nc1cc(-c2ccsc2)nn1C

>  <path>  (383) 
/opt/xchem-fragalysis-2/maxwin/RdRp_FFF/syndirella/mar_elabs/elabs_053/WXJNUXZTXDROIJ-UHFFFAOYSA-N/output/WXJNUXZTXDROIJ-UHFFFAOYSA-N-gwDJo3-1014-B/WXJNUXZTXDROIJ-UHFFFAOYSA-N-gwDJo3-1014-B.minimised.mol

>  <distance_score>  (383) 
1.610503

>  <energy_score>  (383) 
-25.879719

>  <compound>  (383) 
VYKILTIROMQBQD-UHFFFAOYSA-N

>  <compound_id>  (383) 
177634

>  <target>  (383) 
Flavi_NS5_RdRp

>  <tags>  (383) 
[]

>  <inspirations>  (383) 
{P Ã— 2}

>  <subsites>  (383) 
None

>  <reference>  (383) 
z0211a

>  <SLURM_JOB_ID>  (383) 
nan

>  <SLURM_JOB_NAME>  (383) 
nan

>  <csv_name>  (383) 
nan

>  <scratch_subdir>  (383) 
nan

>  <fragmenstein_runtime>  (383) 
nan

>  <fragmenstein_outcome>  (383) 
nan

>  <fragmenstein_mode>  (383) 
nan

>  <fragmenstein_error>  (383) 
nan

>  <exports>  (383) 
nan

>  <Multi-SuCOS>  (383) 
nan

>  <merge_set>  (383) 
nan

$$$$
BLVZCLDCNUIRHL-KOLCDFICSA-N
     RDKit          3D

 21 22  0  0  0  0  0  0  0  0999 V2000
  -22.9984  -36.0481  -23.1097 C   0  0  0  0  0  0  0  0  0  0  0  0
  -23.6874  -34.7959  -22.6073 C   0  0  0  0  0  0  0  0  0  0  0  0
  -22.7316  -33.7482  -22.0162 C   0  0  2  0  0  0  0  0  0  0  0  0
  -23.4657  -32.7307  -21.3002 N   0  0  0  0  0  0  0  0  0  0  0  0
  -24.8751  -32.1453  -21.5551 C   0  0  0  0  0  0  0  0  0  0  0  0
  -25.6676  -32.4417  -22.3151 O   0  0  0  0  0  0  0  0  0  0  0  0
  -24.9277  -31.1119  -20.4109 N   0  0  0  0  0  0  0  0  0  0  0  0
  -25.9583  -30.3540  -19.9570 C   0  0  0  0  0  0  0  0  0  0  0  0
  -25.9297  -29.7167  -18.7477 C   0  0  0  0  0  0  0  0  0  0  0  0
  -27.2885  -29.5970  -18.4291 C   0  0  0  0  0  0  0  0  0  0  0  0
  -27.7341  -29.7018  -17.0547 C   0  0  0  0  0  0  0  0  0  0  0  0
  -26.8356  -30.1815  -16.0531 C   0  0  0  0  0  0  0  0  0  0  0  0
  -27.5039  -30.6360  -14.9555 C   0  0  0  0  0  0  0  0  0  0  0  0
  -29.1281  -30.1946  -15.0149 S   0  0  0  0  0  0  0  0  0  0  0  0
  -29.0233  -29.6035  -16.6034 C   0  0  0  0  0  0  0  0  0  0  0  0
  -28.0855  -29.7292  -19.4924 N   0  0  0  0  0  0  0  0  0  0  0  0
  -27.2255  -30.1697  -20.4439 N   0  0  0  0  0  0  0  0  0  0  0  0
  -27.7329  -30.3768  -21.7711 C   0  0  0  0  0  0  0  0  0  0  0  0
  -21.7127  -33.0962  -22.9757 C   0  0  1  0  0  0  0  0  0  0  0  0
  -22.2497  -32.6840  -24.3276 C   0  0  0  0  0  0  0  0  0  0  0  0
  -21.0980  -31.9618  -22.3476 O   0  0  0  0  0  0  0  0  0  0  0  0
  1  2  1  0
  3  2  1  6
  3  4  1  0
  4  5  1  0
  5  6  2  0
  5  7  1  0
  7  8  1  0
  8  9  2  0
  9 10  1  0
 10 11  1  0
 11 12  1  0
 12 13  2  0
 13 14  1  0
 14 15  1  0
 10 16  2  0
 16 17  1  0
 17 18  1  0
  3 19  1  0
 19 20  1  6
 19 21  1  0
 17  8  1  0
 15 11  2  0
M  END
>  <id>  (384) 
348800

>  <inchikey>  (384) 
BLVZCLDCNUIRHL-KOLCDFICSA-N

>  <alias>  (384) 
None

>  <smiles>  (384) 
CC[C@H](NC(=O)Nc1cc(-c2ccsc2)nn1C)[C@@H](C)O

>  <path>  (384) 
/opt/xchem-fragalysis-2/maxwin/RdRp_FFF/syndirella/mar_elabs/elabs_053/WXJNUXZTXDROIJ-UHFFFAOYSA-N/output/WXJNUXZTXDROIJ-UHFFFAOYSA-N-gwDJo3-1015-C/WXJNUXZTXDROIJ-UHFFFAOYSA-N-gwDJo3-1015-C.minimised.mol

>  <distance_score>  (384) 
1.433099

>  <energy_score>  (384) 
-19.841122

>  <compound>  (384) 
BLVZCLDCNUIRHL-UHFFFAOYSA-N

>  <compound_id>  (384) 
177635

>  <target>  (384) 
Flavi_NS5_RdRp

>  <tags>  (384) 
[]

>  <inspirations>  (384) 
{P Ã— 2}

>  <subsites>  (384) 
None

>  <reference>  (384) 
z0211a

>  <SLURM_JOB_ID>  (384) 
nan

>  <SLURM_JOB_NAME>  (384) 
nan

>  <csv_name>  (384) 
nan

>  <scratch_subdir>  (384) 
nan

>  <fragmenstein_runtime>  (384) 
nan

>  <fragmenstein_outcome>  (384) 
nan

>  <fragmenstein_mode>  (384) 
nan

>  <fragmenstein_error>  (384) 
nan

>  <exports>  (384) 
nan

>  <Multi-SuCOS>  (384) 
nan

>  <merge_set>  (384) 
nan

$$$$
FOVHBTQLABDIGP-NSHDSACASA-N
     RDKit          3D

 21 22  0  0  0  0  0  0  0  0999 V2000
  -23.6259  -35.9682  -21.9196 C   0  0  0  0  0  0  0  0  0  0  0  0
  -23.3414  -34.4907  -22.1545 C   0  0  0  0  0  0  0  0  0  0  0  0
  -22.1160  -34.2960  -23.0560 C   0  0  0  0  0  0  0  0  0  0  0  0
  -21.5956  -32.8660  -23.2187 C   0  0  2  0  0  0  0  0  0  0  0  0
  -21.0794  -32.3909  -21.9649 O   0  0  0  0  0  0  0  0  0  0  0  0
  -22.6574  -31.8937  -23.7188 C   0  0  0  0  0  0  0  0  0  0  0  0
  -23.5057  -31.5568  -22.6236 N   0  0  0  0  0  0  0  0  0  0  0  0
  -24.9601  -31.0624  -22.6060 C   0  0  0  0  0  0  0  0  0  0  0  0
  -25.7011  -30.9290  -23.4566 O   0  0  0  0  0  0  0  0  0  0  0  0
  -25.1493  -30.8977  -21.0816 N   0  0  0  0  0  0  0  0  0  0  0  0
  -26.2228  -30.4648  -20.3694 C   0  0  0  0  0  0  0  0  0  0  0  0
  -26.1919  -30.3575  -19.0103 C   0  0  0  0  0  0  0  0  0  0  0  0
  -27.4572  -29.8827  -18.6457 C   0  0  0  0  0  0  0  0  0  0  0  0
  -27.8287  -29.7983  -17.2495 C   0  0  0  0  0  0  0  0  0  0  0  0
  -26.8251  -29.9078  -16.2468 C   0  0  0  0  0  0  0  0  0  0  0  0
  -27.3565  -30.2655  -15.0450 C   0  0  0  0  0  0  0  0  0  0  0  0
  -29.0402  -30.1644  -15.0642 S   0  0  0  0  0  0  0  0  0  0  0  0
  -29.0967  -29.7822  -16.7267 C   0  0  0  0  0  0  0  0  0  0  0  0
  -28.2592  -29.6981  -19.6934 N   0  0  0  0  0  0  0  0  0  0  0  0
  -27.4647  -30.0285  -20.7447 N   0  0  0  0  0  0  0  0  0  0  0  0
  -27.9898  -29.8742  -22.0674 C   0  0  0  0  0  0  0  0  0  0  0  0
  1  2  1  0
  2  3  1  0
  3  4  1  0
  4  5  1  1
  4  6  1  0
  6  7  1  0
  7  8  1  0
  8  9  2  0
  8 10  1  0
 10 11  1  0
 11 12  2  0
 12 13  1  0
 13 14  1  0
 14 15  1  0
 15 16  2  0
 16 17  1  0
 17 18  1  0
 13 19  2  0
 19 20  1  0
 20 21  1  0
 20 11  1  0
 18 14  2  0
M  END
>  <id>  (385) 
348802

>  <inchikey>  (385) 
FOVHBTQLABDIGP-NSHDSACASA-N

>  <alias>  (385) 
None

>  <smiles>  (385) 
CCC[C@H](O)CNC(=O)Nc1cc(-c2ccsc2)nn1C

>  <path>  (385) 
/opt/xchem-fragalysis-2/maxwin/RdRp_FFF/syndirella/mar_elabs/elabs_053/WXJNUXZTXDROIJ-UHFFFAOYSA-N/output/WXJNUXZTXDROIJ-UHFFFAOYSA-N-gwDJo3-1018-A/WXJNUXZTXDROIJ-UHFFFAOYSA-N-gwDJo3-1018-A.minimised.mol

>  <distance_score>  (385) 
1.257837

>  <energy_score>  (385) 
-12.620094

>  <compound>  (385) 
FOVHBTQLABDIGP-UHFFFAOYSA-N

>  <compound_id>  (385) 
177637

>  <target>  (385) 
Flavi_NS5_RdRp

>  <tags>  (385) 
[]

>  <inspirations>  (385) 
{P Ã— 2}

>  <subsites>  (385) 
None

>  <reference>  (385) 
z0211a

>  <SLURM_JOB_ID>  (385) 
nan

>  <SLURM_JOB_NAME>  (385) 
nan

>  <csv_name>  (385) 
nan

>  <scratch_subdir>  (385) 
nan

>  <fragmenstein_runtime>  (385) 
nan

>  <fragmenstein_outcome>  (385) 
nan

>  <fragmenstein_mode>  (385) 
nan

>  <fragmenstein_error>  (385) 
nan

>  <exports>  (385) 
nan

>  <Multi-SuCOS>  (385) 
nan

>  <merge_set>  (385) 
nan

$$$$
RXKTVIZLHFSFTC-SECBINFHSA-N
     RDKit          3D

 21 22  0  0  0  0  0  0  0  0999 V2000
  -21.4484  -33.3294  -25.8511 C   0  0  0  0  0  0  0  0  0  0  0  0
  -21.2273  -32.8962  -24.4074 C   0  0  1  0  0  0  0  0  0  0  0  0
  -20.6702  -31.5743  -24.4028 O   0  0  0  0  0  0  0  0  0  0  0  0
  -22.5468  -32.9220  -23.6227 C   0  0  0  0  0  0  0  0  0  0  0  0
  -22.2500  -33.0991  -22.1918 N   0  0  0  0  0  0  0  0  0  0  0  0
  -22.3228  -34.5095  -21.7985 C   0  0  0  0  0  0  0  0  0  0  0  0
  -23.0862  -32.3528  -21.3976 N   0  0  0  0  0  0  0  0  0  0  0  0
  -24.6032  -31.9937  -21.5767 C   0  0  0  0  0  0  0  0  0  0  0  0
  -25.3555  -32.3382  -22.3660 O   0  0  0  0  0  0  0  0  0  0  0  0
  -24.7761  -31.0161  -20.3871 N   0  0  0  0  0  0  0  0  0  0  0  0
  -25.8847  -30.3858  -19.9200 C   0  0  0  0  0  0  0  0  0  0  0  0
  -25.9097  -29.7669  -18.7013 C   0  0  0  0  0  0  0  0  0  0  0  0
  -27.2746  -29.6698  -18.4168 C   0  0  0  0  0  0  0  0  0  0  0  0
  -27.7438  -29.7415  -17.0502 C   0  0  0  0  0  0  0  0  0  0  0  0
  -26.8634  -30.2137  -16.0286 C   0  0  0  0  0  0  0  0  0  0  0  0
  -27.5549  -30.6582  -14.9422 C   0  0  0  0  0  0  0  0  0  0  0  0
  -29.1699  -30.1937  -15.0287 S   0  0  0  0  0  0  0  0  0  0  0  0
  -29.0378  -29.6205  -16.6207 C   0  0  0  0  0  0  0  0  0  0  0  0
  -28.0436  -29.8397  -19.4941 N   0  0  0  0  0  0  0  0  0  0  0  0
  -27.1496  -30.2476  -20.4301 N   0  0  0  0  0  0  0  0  0  0  0  0
  -27.6266  -30.4279  -21.7731 C   0  0  0  0  0  0  0  0  0  0  0  0
  2  1  1  6
  2  3  1  0
  2  4  1  0
  4  5  1  0
  5  6  1  0
  5  7  1  0
  7  8  1  0
  8  9  2  0
  8 10  1  0
 10 11  1  0
 11 12  2  0
 12 13  1  0
 13 14  1  0
 14 15  1  0
 15 16  2  0
 16 17  1  0
 17 18  1  0
 13 19  2  0
 19 20  1  0
 20 21  1  0
 20 11  1  0
 18 14  2  0
M  END
>  <id>  (386) 
348809

>  <inchikey>  (386) 
RXKTVIZLHFSFTC-SECBINFHSA-N

>  <alias>  (386) 
None

>  <smiles>  (386) 
C[C@@H](O)CN(C)NC(=O)Nc1cc(-c2ccsc2)nn1C

>  <path>  (386) 
/opt/xchem-fragalysis-2/maxwin/RdRp_FFF/syndirella/mar_elabs/elabs_053/WXJNUXZTXDROIJ-UHFFFAOYSA-N/output/WXJNUXZTXDROIJ-UHFFFAOYSA-N-gwDJo3-1040-B/WXJNUXZTXDROIJ-UHFFFAOYSA-N-gwDJo3-1040-B.minimised.mol

>  <distance_score>  (386) 
1.523487

>  <energy_score>  (386) 
-29.120729

>  <compound>  (386) 
RXKTVIZLHFSFTC-UHFFFAOYSA-N

>  <compound_id>  (386) 
177653

>  <target>  (386) 
Flavi_NS5_RdRp

>  <tags>  (386) 
[]

>  <inspirations>  (386) 
{P Ã— 2}

>  <subsites>  (386) 
None

>  <reference>  (386) 
z0211a

>  <SLURM_JOB_ID>  (386) 
nan

>  <SLURM_JOB_NAME>  (386) 
nan

>  <csv_name>  (386) 
nan

>  <scratch_subdir>  (386) 
nan

>  <fragmenstein_runtime>  (386) 
nan

>  <fragmenstein_outcome>  (386) 
nan

>  <fragmenstein_mode>  (386) 
nan

>  <fragmenstein_error>  (386) 
nan

>  <exports>  (386) 
nan

>  <Multi-SuCOS>  (386) 
nan

>  <merge_set>  (386) 
nan

$$$$
NYZWHJYPQPGHEU-LDYMZIIASA-N
     RDKit          3D

 21 22  0  0  0  0  0  0  0  0999 V2000
  -24.0688  -33.6474  -24.4503 C   0  0  0  0  0  0  0  0  0  0  0  0
  -23.2973  -32.4740  -23.8546 C   0  0  1  0  0  0  0  0  0  0  0  0
  -23.9829  -31.9724  -22.6973 N   0  0  0  0  0  0  0  0  0  0  0  0
  -25.2407  -31.0948  -22.5869 C   0  0  0  0  0  0  0  0  0  0  0  0
  -25.9438  -30.7149  -23.3934 O   0  0  0  0  0  0  0  0  0  0  0  0
  -25.3038  -30.9369  -21.0525 N   0  0  0  0  0  0  0  0  0  0  0  0
  -26.2599  -30.3819  -20.2641 C   0  0  0  0  0  0  0  0  0  0  0  0
  -26.1154  -30.2110  -18.9185 C   0  0  0  0  0  0  0  0  0  0  0  0
  -27.3667  -29.7632  -18.4792 C   0  0  0  0  0  0  0  0  0  0  0  0
  -27.7132  -29.7771  -17.0756 C   0  0  0  0  0  0  0  0  0  0  0  0
  -26.7376  -30.1207  -16.0985 C   0  0  0  0  0  0  0  0  0  0  0  0
  -27.3244  -30.5445  -14.9434 C   0  0  0  0  0  0  0  0  0  0  0  0
  -28.9753  -30.1876  -14.9323 S   0  0  0  0  0  0  0  0  0  0  0  0
  -28.9755  -29.6695  -16.5512 C   0  0  0  0  0  0  0  0  0  0  0  0
  -28.2254  -29.5549  -19.4769 N   0  0  0  0  0  0  0  0  0  0  0  0
  -27.5150  -29.9248  -20.5667 N   0  0  0  0  0  0  0  0  0  0  0  0
  -28.1733  -29.9137  -21.8384 C   0  0  0  0  0  0  0  0  0  0  0  0
  -21.8630  -32.8266  -23.4291 C   0  0  2  0  0  0  0  0  0  0  0  0
  -21.4112  -31.9404  -22.3851 O   0  0  0  0  0  0  0  0  0  0  0  0
  -20.8530  -32.7730  -24.5689 C   0  0  0  0  0  0  0  0  0  0  0  0
  -21.2861  -33.3695  -25.7864 O   0  0  0  0  0  0  0  0  0  0  0  0
  2  1  1  1
  2  3  1  0
  3  4  1  0
  4  5  2  0
  4  6  1  0
  6  7  1  0
  7  8  2  0
  8  9  1  0
  9 10  1  0
 10 11  1  0
 11 12  2  0
 12 13  1  0
 13 14  1  0
  9 15  2  0
 15 16  1  0
 16 17  1  0
  2 18  1  0
 18 19  1  1
 18 20  1  0
 20 21  1  0
 16  7  1  0
 14 10  2  0
M  END
>  <id>  (387) 
348810

>  <inchikey>  (387) 
NYZWHJYPQPGHEU-LDYMZIIASA-N

>  <alias>  (387) 
None

>  <smiles>  (387) 
C[C@@H](NC(=O)Nc1cc(-c2ccsc2)nn1C)[C@H](O)CO

>  <path>  (387) 
/opt/xchem-fragalysis-2/maxwin/RdRp_FFF/syndirella/mar_elabs/elabs_053/WXJNUXZTXDROIJ-UHFFFAOYSA-N/output/WXJNUXZTXDROIJ-UHFFFAOYSA-N-gwDJo3-1041-B/WXJNUXZTXDROIJ-UHFFFAOYSA-N-gwDJo3-1041-B.minimised.mol

>  <distance_score>  (387) 
1.260566

>  <energy_score>  (387) 
-1.165122

>  <compound>  (387) 
NYZWHJYPQPGHEU-UHFFFAOYSA-N

>  <compound_id>  (387) 
177654

>  <target>  (387) 
Flavi_NS5_RdRp

>  <tags>  (387) 
[]

>  <inspirations>  (387) 
{P Ã— 2}

>  <subsites>  (387) 
None

>  <reference>  (387) 
z0211a

>  <SLURM_JOB_ID>  (387) 
nan

>  <SLURM_JOB_NAME>  (387) 
nan

>  <csv_name>  (387) 
nan

>  <scratch_subdir>  (387) 
nan

>  <fragmenstein_runtime>  (387) 
nan

>  <fragmenstein_outcome>  (387) 
nan

>  <fragmenstein_mode>  (387) 
nan

>  <fragmenstein_error>  (387) 
nan

>  <exports>  (387) 
nan

>  <Multi-SuCOS>  (387) 
nan

>  <merge_set>  (387) 
nan

$$$$
BPGPJRZACXVFTC-ZETCQYMHSA-N
     RDKit          3D

 21 22  0  0  0  0  0  0  0  0999 V2000
  -21.1359  -33.4967  -26.2530 C   0  0  0  0  0  0  0  0  0  0  0  0
  -22.4356  -34.2500  -26.0241 C   0  0  2  0  0  0  0  0  0  0  0  0
  -23.4346  -33.6406  -26.8445 O   0  0  0  0  0  0  0  0  0  0  0  0
  -22.8579  -34.2137  -24.5351 C   0  0  0  0  0  0  0  0  0  0  0  0
  -22.7594  -35.1225  -23.8081 O   0  0  0  0  0  0  0  0  0  0  0  0
  -23.4559  -32.7980  -24.3022 N   0  0  0  0  0  0  0  0  0  0  0  0
  -23.9318  -32.2257  -23.1839 N   0  0  0  0  0  0  0  0  0  0  0  0
  -25.1061  -31.2096  -22.9871 C   0  0  0  0  0  0  0  0  0  0  0  0
  -25.7609  -30.6793  -23.7603 O   0  0  0  0  0  0  0  0  0  0  0  0
  -25.1889  -31.2120  -21.4218 N   0  0  0  0  0  0  0  0  0  0  0  0
  -26.1192  -30.6544  -20.5809 C   0  0  0  0  0  0  0  0  0  0  0  0
  -26.0318  -30.5853  -19.2108 C   0  0  0  0  0  0  0  0  0  0  0  0
  -27.2378  -29.9917  -18.7938 C   0  0  0  0  0  0  0  0  0  0  0  0
  -27.6194  -29.8757  -17.4009 C   0  0  0  0  0  0  0  0  0  0  0  0
  -28.9755  -29.8000  -16.9784 C   0  0  0  0  0  0  0  0  0  0  0  0
  -29.0741  -30.0491  -15.6333 C   0  0  0  0  0  0  0  0  0  0  0  0
  -27.5588  -30.2918  -14.9109 S   0  0  0  0  0  0  0  0  0  0  0  0
  -26.7329  -29.9896  -16.3534 C   0  0  0  0  0  0  0  0  0  0  0  0
  -28.0441  -29.6978  -19.8092 N   0  0  0  0  0  0  0  0  0  0  0  0
  -27.3305  -30.0790  -20.8875 N   0  0  0  0  0  0  0  0  0  0  0  0
  -27.9271  -29.8606  -22.1691 C   0  0  0  0  0  0  0  0  0  0  0  0
  2  1  1  1
  2  3  1  0
  2  4  1  0
  4  5  2  0
  4  6  1  0
  6  7  1  0
  7  8  1  0
  8  9  2  0
  8 10  1  0
 10 11  1  0
 11 12  2  0
 12 13  1  0
 13 14  1  0
 14 15  1  0
 15 16  2  0
 16 17  1  0
 17 18  1  0
 13 19  2  0
 19 20  1  0
 20 21  1  0
 20 11  1  0
 18 14  2  0
M  END
>  <id>  (388) 
348876

>  <inchikey>  (388) 
BPGPJRZACXVFTC-ZETCQYMHSA-N

>  <alias>  (388) 
None

>  <smiles>  (388) 
C[C@H](O)C(=O)NNC(=O)Nc1cc(-c2ccsc2)nn1C

>  <path>  (388) 
/opt/xchem-fragalysis-2/maxwin/RdRp_FFF/syndirella/mar_elabs/elabs_053/WXJNUXZTXDROIJ-UHFFFAOYSA-N/output/WXJNUXZTXDROIJ-UHFFFAOYSA-N-gwDJo3-1159-A/WXJNUXZTXDROIJ-UHFFFAOYSA-N-gwDJo3-1159-A.minimised.mol

>  <distance_score>  (388) 
1.866754

>  <energy_score>  (388) 
-3.870541

>  <compound>  (388) 
BPGPJRZACXVFTC-UHFFFAOYSA-N

>  <compound_id>  (388) 
177756

>  <target>  (388) 
Flavi_NS5_RdRp

>  <tags>  (388) 
[]

>  <inspirations>  (388) 
{P Ã— 2}

>  <subsites>  (388) 
None

>  <reference>  (388) 
z0211a

>  <SLURM_JOB_ID>  (388) 
nan

>  <SLURM_JOB_NAME>  (388) 
nan

>  <csv_name>  (388) 
nan

>  <scratch_subdir>  (388) 
nan

>  <fragmenstein_runtime>  (388) 
nan

>  <fragmenstein_outcome>  (388) 
nan

>  <fragmenstein_mode>  (388) 
nan

>  <fragmenstein_error>  (388) 
nan

>  <exports>  (388) 
nan

>  <Multi-SuCOS>  (388) 
nan

>  <merge_set>  (388) 
nan

$$$$
ASLBNRWDFXEYJB-JTQLQIEISA-N
     RDKit          3D

 21 22  0  0  0  0  0  0  0  0999 V2000
  -22.6058  -34.4825  -26.3579 C   0  0  0  0  0  0  0  0  0  0  0  0
  -21.3455  -33.2112  -26.0898 S   0  0  0  0  0  0  0  0  0  0  0  0
  -21.0725  -33.4050  -24.2848 C   0  0  0  0  0  0  0  0  0  0  0  0
  -21.7280  -32.4179  -23.3390 C   0  0  1  0  0  0  0  0  0  0  0  0
  -21.0544  -31.1687  -23.3368 O   0  0  0  0  0  0  0  0  0  0  0  0
  -23.2040  -32.3005  -23.6405 C   0  0  0  0  0  0  0  0  0  0  0  0
  -23.8620  -31.6574  -22.5641 N   0  0  0  0  0  0  0  0  0  0  0  0
  -25.2196  -30.9655  -22.5074 C   0  0  0  0  0  0  0  0  0  0  0  0
  -25.9656  -30.7488  -23.3301 O   0  0  0  0  0  0  0  0  0  0  0  0
  -25.3125  -30.7218  -20.9918 N   0  0  0  0  0  0  0  0  0  0  0  0
  -26.3403  -30.2694  -20.2391 C   0  0  0  0  0  0  0  0  0  0  0  0
  -26.2895  -30.1249  -18.8842 C   0  0  0  0  0  0  0  0  0  0  0  0
  -27.5789  -29.7142  -18.5480 C   0  0  0  0  0  0  0  0  0  0  0  0
  -28.0350  -29.7250  -17.1898 C   0  0  0  0  0  0  0  0  0  0  0  0
  -29.4086  -29.7907  -16.8779 C   0  0  0  0  0  0  0  0  0  0  0  0
  -29.5579  -30.1389  -15.5701 C   0  0  0  0  0  0  0  0  0  0  0  0
  -28.0959  -30.3341  -14.7601 S   0  0  0  0  0  0  0  0  0  0  0  0
  -27.2032  -29.8598  -16.1026 C   0  0  0  0  0  0  0  0  0  0  0  0
  -28.3775  -29.5325  -19.5954 N   0  0  0  0  0  0  0  0  0  0  0  0
  -27.5913  -29.8725  -20.6272 N   0  0  0  0  0  0  0  0  0  0  0  0
  -28.1706  -29.8605  -21.9350 C   0  0  0  0  0  0  0  0  0  0  0  0
  1  2  1  0
  2  3  1  0
  3  4  1  0
  4  5  1  6
  4  6  1  0
  6  7  1  0
  7  8  1  0
  8  9  2  0
  8 10  1  0
 10 11  1  0
 11 12  2  0
 12 13  1  0
 13 14  1  0
 14 15  1  0
 15 16  2  0
 16 17  1  0
 17 18  1  0
 13 19  2  0
 19 20  1  0
 20 21  1  0
 20 11  1  0
 18 14  2  0
M  END
>  <id>  (389) 
348880

>  <inchikey>  (389) 
ASLBNRWDFXEYJB-JTQLQIEISA-N

>  <alias>  (389) 
None

>  <smiles>  (389) 
CSC[C@@H](O)CNC(=O)Nc1cc(-c2ccsc2)nn1C

>  <path>  (389) 
/opt/xchem-fragalysis-2/maxwin/RdRp_FFF/syndirella/mar_elabs/elabs_053/WXJNUXZTXDROIJ-UHFFFAOYSA-N/output/WXJNUXZTXDROIJ-UHFFFAOYSA-N-gwDJo3-1163-B/WXJNUXZTXDROIJ-UHFFFAOYSA-N-gwDJo3-1163-B.minimised.mol

>  <distance_score>  (389) 
1.310889

>  <energy_score>  (389) 
-39.694413

>  <compound>  (389) 
ASLBNRWDFXEYJB-UHFFFAOYSA-N

>  <compound_id>  (389) 
177760

>  <target>  (389) 
Flavi_NS5_RdRp

>  <tags>  (389) 
[]

>  <inspirations>  (389) 
{P Ã— 2}

>  <subsites>  (389) 
None

>  <reference>  (389) 
z0211a

>  <SLURM_JOB_ID>  (389) 
nan

>  <SLURM_JOB_NAME>  (389) 
nan

>  <csv_name>  (389) 
nan

>  <scratch_subdir>  (389) 
nan

>  <fragmenstein_runtime>  (389) 
nan

>  <fragmenstein_outcome>  (389) 
nan

>  <fragmenstein_mode>  (389) 
nan

>  <fragmenstein_error>  (389) 
nan

>  <exports>  (389) 
nan

>  <Multi-SuCOS>  (389) 
nan

>  <merge_set>  (389) 
nan

$$$$
BTDXXQAJIFLXCW-QMMMGPOBSA-N
     RDKit          3D

 21 22  0  0  0  0  0  0  0  0999 V2000
  -21.0292  -32.2219  -23.6634 C   0  0  0  0  0  0  0  0  0  0  0  0
  -21.9223  -33.3230  -23.6401 O   0  0  0  0  0  0  0  0  0  0  0  0
  -22.7872  -33.3753  -24.7858 C   0  0  1  0  0  0  0  0  0  0  0  0
  -22.1252  -34.1502  -25.9155 C   0  0  0  0  0  0  0  0  0  0  0  0
  -24.1707  -33.8838  -24.2943 C   0  0  0  0  0  0  0  0  0  0  0  0
  -25.0687  -34.9321  -25.0229 S   0  0  0  0  0  0  0  0  0  0  0  0
  -24.4023  -32.9828  -22.9800 N   0  0  0  0  0  0  0  0  0  0  0  0
  -25.6812  -32.7616  -22.0131 C   0  0  0  0  0  0  0  0  0  0  0  0
  -26.7143  -33.2647  -21.9921 O   0  0  0  0  0  0  0  0  0  0  0  0
  -25.1530  -31.6431  -21.2212 N   0  0  0  0  0  0  0  0  0  0  0  0
  -25.7607  -30.8396  -20.3149 C   0  0  0  0  0  0  0  0  0  0  0  0
  -25.2499  -30.3898  -19.1293 C   0  0  0  0  0  0  0  0  0  0  0  0
  -26.3839  -29.9199  -18.4468 C   0  0  0  0  0  0  0  0  0  0  0  0
  -26.4822  -29.9272  -16.9998 C   0  0  0  0  0  0  0  0  0  0  0  0
  -27.7361  -29.8008  -16.3413 C   0  0  0  0  0  0  0  0  0  0  0  0
  -27.6548  -30.2514  -15.0482 C   0  0  0  0  0  0  0  0  0  0  0  0
  -26.0685  -30.7580  -14.6437 S   0  0  0  0  0  0  0  0  0  0  0  0
  -25.4588  -30.2867  -16.1521 C   0  0  0  0  0  0  0  0  0  0  0  0
  -27.4470  -29.7782  -19.2407 N   0  0  0  0  0  0  0  0  0  0  0  0
  -27.0581  -30.3999  -20.3673 N   0  0  0  0  0  0  0  0  0  0  0  0
  -27.9750  -30.4413  -21.4737 C   0  0  0  0  0  0  0  0  0  0  0  0
  1  2  1  0
  2  3  1  0
  3  4  1  6
  3  5  1  0
  5  6  2  0
  5  7  1  0
  7  8  1  0
  8  9  2  0
  8 10  1  0
 10 11  1  0
 11 12  2  0
 12 13  1  0
 13 14  1  0
 14 15  1  0
 15 16  2  0
 16 17  1  0
 17 18  1  0
 13 19  2  0
 19 20  1  0
 20 21  1  0
 20 11  1  0
 18 14  2  0
M  END
>  <id>  (390) 
348885

>  <inchikey>  (390) 
BTDXXQAJIFLXCW-QMMMGPOBSA-N

>  <alias>  (390) 
None

>  <smiles>  (390) 
CO[C@@H](C)C(=S)NC(=O)Nc1cc(-c2ccsc2)nn1C

>  <path>  (390) 
/opt/xchem-fragalysis-2/maxwin/RdRp_FFF/syndirella/mar_elabs/elabs_053/WXJNUXZTXDROIJ-UHFFFAOYSA-N/output/WXJNUXZTXDROIJ-UHFFFAOYSA-N-gwDJo3-1166-B/WXJNUXZTXDROIJ-UHFFFAOYSA-N-gwDJo3-1166-B.minimised.mol

>  <distance_score>  (390) 
1.968341

>  <energy_score>  (390) 
-1.161132

>  <compound>  (390) 
BTDXXQAJIFLXCW-UHFFFAOYSA-N

>  <compound_id>  (390) 
177763

>  <target>  (390) 
Flavi_NS5_RdRp

>  <tags>  (390) 
[]

>  <inspirations>  (390) 
{P Ã— 2}

>  <subsites>  (390) 
None

>  <reference>  (390) 
z0211a

>  <SLURM_JOB_ID>  (390) 
nan

>  <SLURM_JOB_NAME>  (390) 
nan

>  <csv_name>  (390) 
nan

>  <scratch_subdir>  (390) 
nan

>  <fragmenstein_runtime>  (390) 
nan

>  <fragmenstein_outcome>  (390) 
nan

>  <fragmenstein_mode>  (390) 
nan

>  <fragmenstein_error>  (390) 
nan

>  <exports>  (390) 
nan

>  <Multi-SuCOS>  (390) 
nan

>  <merge_set>  (390) 
nan

$$$$
NIPKSXQAPAXJBP-CQSZACIVSA-N
     RDKit          3D

 21 22  0  0  0  0  0  0  0  0999 V2000
  -22.6773  -33.7599  -25.8929 C   0  0  0  0  0  0  0  0  0  0  0  0
  -21.8927  -33.9143  -24.5979 C   0  0  0  0  0  0  0  0  0  0  0  0
  -22.4457  -33.2428  -23.3460 C   0  0  1  0  0  0  0  0  0  0  0  0
  -23.6301  -34.0709  -22.7994 C   0  0  0  0  0  0  0  0  0  0  0  0
  -21.4231  -33.2228  -22.3312 O   0  0  0  0  0  0  0  0  0  0  0  0
  -22.8073  -31.7980  -23.6337 C   0  0  0  0  0  0  0  0  0  0  0  0
  -23.5861  -31.3185  -22.5533 N   0  0  0  0  0  0  0  0  0  0  0  0
  -25.0622  -30.9323  -22.4922 C   0  0  0  0  0  0  0  0  0  0  0  0
  -25.8381  -30.8736  -23.3143 O   0  0  0  0  0  0  0  0  0  0  0  0
  -25.2031  -30.7194  -20.9747 N   0  0  0  0  0  0  0  0  0  0  0  0
  -26.2676  -30.3204  -20.2410 C   0  0  0  0  0  0  0  0  0  0  0  0
  -26.2636  -30.1770  -18.8822 C   0  0  0  0  0  0  0  0  0  0  0  0
  -27.5677  -29.7812  -18.5899 C   0  0  0  0  0  0  0  0  0  0  0  0
  -28.0865  -29.7620  -17.2533 C   0  0  0  0  0  0  0  0  0  0  0  0
  -29.4766  -29.8156  -17.0310 C   0  0  0  0  0  0  0  0  0  0  0  0
  -29.7191  -30.1211  -15.7287 C   0  0  0  0  0  0  0  0  0  0  0  0
  -28.3215  -30.2382  -14.7943 S   0  0  0  0  0  0  0  0  0  0  0  0
  -27.3301  -29.8690  -16.1095 C   0  0  0  0  0  0  0  0  0  0  0  0
  -28.3349  -29.6164  -19.6640 N   0  0  0  0  0  0  0  0  0  0  0  0
  -27.5145  -29.9485  -20.6700 N   0  0  0  0  0  0  0  0  0  0  0  0
  -28.0443  -29.8739  -21.9982 C   0  0  0  0  0  0  0  0  0  0  0  0
  1  2  1  0
  2  3  1  0
  3  4  1  1
  3  5  1  0
  3  6  1  0
  6  7  1  0
  7  8  1  0
  8  9  2  0
  8 10  1  0
 10 11  1  0
 11 12  2  0
 12 13  1  0
 13 14  1  0
 14 15  1  0
 15 16  2  0
 16 17  1  0
 17 18  1  0
 13 19  2  0
 19 20  1  0
 20 21  1  0
 20 11  1  0
 18 14  2  0
M  END
>  <id>  (391) 
348920

>  <inchikey>  (391) 
NIPKSXQAPAXJBP-CQSZACIVSA-N

>  <alias>  (391) 
None

>  <smiles>  (391) 
CC[C@@](C)(O)CNC(=O)Nc1cc(-c2ccsc2)nn1C

>  <path>  (391) 
/opt/xchem-fragalysis-2/maxwin/RdRp_FFF/syndirella/mar_elabs/elabs_053/WXJNUXZTXDROIJ-UHFFFAOYSA-N/output/WXJNUXZTXDROIJ-UHFFFAOYSA-N-gwDJo3-1217-B/WXJNUXZTXDROIJ-UHFFFAOYSA-N-gwDJo3-1217-B.minimised.mol

>  <distance_score>  (391) 
1.360524

>  <energy_score>  (391) 
-15.058138

>  <compound>  (391) 
NIPKSXQAPAXJBP-UHFFFAOYSA-N

>  <compound_id>  (391) 
177812

>  <target>  (391) 
Flavi_NS5_RdRp

>  <tags>  (391) 
[]

>  <inspirations>  (391) 
{P Ã— 2}

>  <subsites>  (391) 
None

>  <reference>  (391) 
z0211a

>  <SLURM_JOB_ID>  (391) 
nan

>  <SLURM_JOB_NAME>  (391) 
nan

>  <csv_name>  (391) 
nan

>  <scratch_subdir>  (391) 
nan

>  <fragmenstein_runtime>  (391) 
nan

>  <fragmenstein_outcome>  (391) 
nan

>  <fragmenstein_mode>  (391) 
nan

>  <fragmenstein_error>  (391) 
nan

>  <exports>  (391) 
nan

>  <Multi-SuCOS>  (391) 
nan

>  <merge_set>  (391) 
nan

$$$$
ODKPFBNVQKMONA-ZDUSSCGKSA-N
     RDKit          3D

 21 22  0  0  0  0  0  0  0  0999 V2000
  -23.1689  -32.0317  -18.7261 C   0  0  0  0  0  0  0  0  0  0  0  0
  -24.4327  -31.1970  -18.6454 C   0  0  0  0  0  0  0  0  0  0  0  0
  -25.5213  -31.8831  -17.8078 C   0  0  0  0  0  0  0  0  0  0  0  0
  -26.8159  -31.2080  -17.8968 N   0  0  0  0  0  0  0  0  0  0  0  0
  -27.4593  -30.4253  -16.9795 C   0  0  0  0  0  0  0  0  0  0  0  0
  -28.3852  -29.6568  -17.6739 C   0  0  0  0  0  0  0  0  0  0  0  0
  -28.2779  -29.9814  -19.0562 C   0  0  0  0  0  0  0  0  0  0  0  0
  -28.7356  -29.4737  -20.2881 C   0  0  0  0  0  0  0  0  0  0  0  0
  -28.1362  -29.9474  -21.4705 C   0  0  0  0  0  0  0  0  0  0  0  0
  -27.2958  -31.0493  -21.4321 C   0  0  0  0  0  0  0  0  0  0  0  0
  -26.3740  -31.3346  -22.4311 N   0  0  0  0  0  0  0  0  0  0  0  0
  -25.4161  -32.5585  -22.6038 C   0  0  0  0  0  0  0  0  0  0  0  0
  -25.3236  -33.5130  -21.9881 O   0  0  0  0  0  0  0  0  0  0  0  0
  -24.5671  -32.0493  -23.7875 N   0  0  0  0  0  0  0  0  0  0  0  0
  -23.3793  -32.5862  -24.3733 C   0  0  0  0  0  0  0  0  0  0  0  0
  -22.2103  -32.7174  -23.3795 C   0  0  2  0  0  0  0  0  0  0  0  0
  -22.1396  -31.6893  -22.3907 O   0  0  0  0  0  0  0  0  0  0  0  0
  -20.8868  -32.7666  -24.1416 C   0  0  0  0  0  0  0  0  0  0  0  0
  -20.9259  -33.6400  -25.2695 O   0  0  0  0  0  0  0  0  0  0  0  0
  -27.1609  -31.7794  -20.2693 C   0  0  0  0  0  0  0  0  0  0  0  0
  -27.4541  -31.0902  -19.1053 C   0  0  0  0  0  0  0  0  0  0  0  0
  1  2  1  0
  2  3  1  0
  3  4  1  0
  4  5  1  0
  5  6  2  0
  6  7  1  0
  7  8  2  0
  8  9  1  0
  9 10  2  0
 10 11  1  0
 11 12  1  0
 12 13  2  0
 12 14  1  0
 14 15  1  0
 15 16  1  0
 16 17  1  1
 16 18  1  0
 18 19  1  0
 10 20  1  0
 20 21  2  0
 21  4  1  0
 21  7  1  0
M  END
>  <id>  (392) 
350073

>  <inchikey>  (392) 
ODKPFBNVQKMONA-ZDUSSCGKSA-N

>  <alias>  (392) 
None

>  <smiles>  (392) 
CCCn1ccc2ccc(NC(=O)NC[C@H](O)CO)cc21

>  <path>  (392) 
/opt/xchem-fragalysis-2/maxwin/RdRp_FFF/syndirella/mar_elabs/elabs_051/OXHXBAHSHMBTDQ-UHFFFAOYSA-N/output/OXHXBAHSHMBTDQ-UHFFFAOYSA-N-hA3FYp-184-A/OXHXBAHSHMBTDQ-UHFFFAOYSA-N-hA3FYp-184-A.minimised.mol

>  <distance_score>  (392) 
1.764522

>  <energy_score>  (392) 
-0.432398

>  <compound>  (392) 
ODKPFBNVQKMONA-UHFFFAOYSA-N

>  <compound_id>  (392) 
180370

>  <target>  (392) 
Flavi_NS5_RdRp

>  <tags>  (392) 
[]

>  <inspirations>  (392) 
{P Ã— 2}

>  <subsites>  (392) 
None

>  <reference>  (392) 
z0136a

>  <SLURM_JOB_ID>  (392) 
nan

>  <SLURM_JOB_NAME>  (392) 
nan

>  <csv_name>  (392) 
nan

>  <scratch_subdir>  (392) 
nan

>  <fragmenstein_runtime>  (392) 
nan

>  <fragmenstein_outcome>  (392) 
nan

>  <fragmenstein_mode>  (392) 
nan

>  <fragmenstein_error>  (392) 
nan

>  <exports>  (392) 
nan

>  <Multi-SuCOS>  (392) 
nan

>  <merge_set>  (392) 
nan

$$$$
JXBCIUDKZOQYKD-KRWDZBQOSA-N
     RDKit          3D

 22 23  0  0  0  0  0  0  0  0999 V2000
  -20.7218  -33.5324  -25.3989 C   0  0  0  0  0  0  0  0  0  0  0  0
  -21.5962  -33.7451  -24.4061 C   0  0  0  0  0  0  0  0  0  0  0  0
  -22.3062  -32.7086  -23.5656 C   0  0  2  0  0  0  0  0  0  0  0  0
  -21.4260  -31.5053  -23.2613 C   0  0  0  0  0  0  0  0  0  0  0  0
  -22.5423  -33.3388  -22.3033 O   0  0  0  0  0  0  0  0  0  0  0  0
  -23.6391  -32.4526  -24.3326 C   0  0  0  0  0  0  0  0  0  0  0  0
  -24.6402  -31.6144  -23.7332 N   0  0  0  0  0  0  0  0  0  0  0  0
  -24.7886  -31.1190  -22.2840 C   0  0  0  0  0  0  0  0  0  0  0  0
  -24.0972  -31.2465  -21.3892 O   0  0  0  0  0  0  0  0  0  0  0  0
  -26.2171  -30.4780  -22.3752 N   0  0  0  0  0  0  0  0  0  0  0  0
  -27.0488  -29.9825  -21.3711 C   0  0  0  0  0  0  0  0  0  0  0  0
  -28.4213  -29.8260  -21.5186 C   0  0  0  0  0  0  0  0  0  0  0  0
  -29.2733  -29.9297  -20.3946 C   0  0  0  0  0  0  0  0  0  0  0  0
  -28.7113  -30.3287  -19.1629 C   0  0  0  0  0  0  0  0  0  0  0  0
  -29.1836  -30.7425  -17.8858 C   0  0  0  0  0  0  0  0  0  0  0  0
  -28.0944  -31.1802  -17.1458 C   0  0  0  0  0  0  0  0  0  0  0  0
  -26.9887  -31.0718  -17.9428 N   0  0  0  0  0  0  0  0  0  0  0  0
  -25.6278  -31.5328  -17.6943 C   0  0  0  0  0  0  0  0  0  0  0  0
  -25.0062  -32.5432  -18.6618 C   0  0  0  0  0  0  0  0  0  0  0  0
  -23.4921  -32.3818  -18.7351 C   0  0  0  0  0  0  0  0  0  0  0  0
  -27.3305  -30.3929  -19.0830 C   0  0  0  0  0  0  0  0  0  0  0  0
  -26.4888  -30.0041  -20.1081 C   0  0  0  0  0  0  0  0  0  0  0  0
  1  2  2  0
  2  3  1  0
  3  4  1  1
  3  5  1  0
  3  6  1  0
  6  7  1  0
  7  8  1  0
  8  9  2  0
  8 10  1  0
 10 11  1  0
 11 12  2  0
 12 13  1  0
 13 14  2  0
 14 15  1  0
 15 16  2  0
 16 17  1  0
 17 18  1  0
 18 19  1  0
 19 20  1  0
 17 21  1  0
 21 22  2  0
 22 11  1  0
 21 14  1  0
M  END
>  <id>  (393) 
350152

>  <inchikey>  (393) 
JXBCIUDKZOQYKD-KRWDZBQOSA-N

>  <alias>  (393) 
None

>  <smiles>  (393) 
C=C[C@](C)(O)CNC(=O)Nc1ccc2ccn(CCC)c2c1

>  <path>  (393) 
/opt/xchem-fragalysis-2/maxwin/RdRp_FFF/syndirella/mar_elabs/elabs_051/OXHXBAHSHMBTDQ-UHFFFAOYSA-N/output/OXHXBAHSHMBTDQ-UHFFFAOYSA-N-hA3FYp-1543-A/OXHXBAHSHMBTDQ-UHFFFAOYSA-N-hA3FYp-1543-A.minimised.mol

>  <distance_score>  (393) 
1.618133

>  <energy_score>  (393) 
-2.167566

>  <compound>  (393) 
JXBCIUDKZOQYKD-UHFFFAOYSA-N

>  <compound_id>  (393) 
181274

>  <target>  (393) 
Flavi_NS5_RdRp

>  <tags>  (393) 
[]

>  <inspirations>  (393) 
{P Ã— 2}

>  <subsites>  (393) 
None

>  <reference>  (393) 
z0136a

>  <SLURM_JOB_ID>  (393) 
nan

>  <SLURM_JOB_NAME>  (393) 
nan

>  <csv_name>  (393) 
nan

>  <scratch_subdir>  (393) 
nan

>  <fragmenstein_runtime>  (393) 
nan

>  <fragmenstein_outcome>  (393) 
nan

>  <fragmenstein_mode>  (393) 
nan

>  <fragmenstein_error>  (393) 
nan

>  <exports>  (393) 
nan

>  <Multi-SuCOS>  (393) 
nan

>  <merge_set>  (393) 
nan

$$$$
ATVWXFDCCMZUKM-JTQLQIEISA-N
     RDKit          3D

 21 22  0  0  0  0  0  0  0  0999 V2000
  -24.8874  -32.9057  -16.9405 C   0  0  0  0  0  0  0  0  0  0  0  0
  -25.6500  -31.8998  -17.7904 C   0  0  0  0  0  0  0  0  0  0  0  0
  -26.9035  -31.2856  -17.1316 C   0  0  0  0  0  0  0  0  0  0  0  0
  -27.8760  -30.6433  -18.0116 N   0  0  0  0  0  0  0  0  0  0  0  0
  -29.2071  -30.5165  -17.6916 C   0  0  0  0  0  0  0  0  0  0  0  0
  -29.8777  -30.1393  -18.8328 C   0  0  0  0  0  0  0  0  0  0  0  0
  -28.9292  -30.0075  -19.8746 C   0  0  0  0  0  0  0  0  0  0  0  0
  -29.0122  -29.7533  -21.2576 C   0  0  0  0  0  0  0  0  0  0  0  0
  -27.8503  -29.8512  -22.0374 C   0  0  0  0  0  0  0  0  0  0  0  0
  -26.6258  -30.0388  -21.4310 C   0  0  0  0  0  0  0  0  0  0  0  0
  -25.4588  -30.4193  -22.0724 N   0  0  0  0  0  0  0  0  0  0  0  0
  -25.2503  -31.1069  -23.3533 C   0  0  0  0  0  0  0  0  0  0  0  0
  -26.0029  -31.4219  -24.1614 O   0  0  0  0  0  0  0  0  0  0  0  0
  -23.6546  -31.3662  -23.2020 N   0  0  0  0  0  0  0  0  0  0  0  0
  -22.6105  -32.2221  -24.0487 C   0  0  0  0  0  0  0  0  0  0  0  0
  -22.7771  -33.1926  -25.2607 S   0  0  0  0  0  0  0  0  0  0  0  0
  -21.2649  -31.8173  -23.3783 C   0  0  2  0  0  0  0  0  0  0  0  0
  -20.4337  -33.0074  -23.0025 C   0  0  0  0  0  0  0  0  0  0  0  0
  -21.4382  -31.0995  -22.1572 O   0  0  0  0  0  0  0  0  0  0  0  0
  -26.5115  -30.0396  -20.0446 C   0  0  0  0  0  0  0  0  0  0  0  0
  -27.6750  -30.1944  -19.2969 C   0  0  0  0  0  0  0  0  0  0  0  0
  1  2  1  0
  2  3  1  0
  3  4  1  0
  4  5  1  0
  5  6  2  0
  6  7  1  0
  7  8  2  0
  8  9  1  0
  9 10  2  0
 10 11  1  0
 11 12  1  0
 12 13  2  0
 12 14  1  0
 14 15  1  0
 15 16  2  0
 15 17  1  0
 17 18  1  1
 17 19  1  0
 10 20  1  0
 20 21  2  0
 21  4  1  0
 21  7  1  0
M  END
>  <id>  (394) 
350368

>  <inchikey>  (394) 
ATVWXFDCCMZUKM-JTQLQIEISA-N

>  <alias>  (394) 
None

>  <smiles>  (394) 
CCCn1ccc2ccc(NC(=O)NC(=S)[C@H](C)O)cc21

>  <path>  (394) 
/opt/xchem-fragalysis-2/maxwin/RdRp_FFF/syndirella/mar_elabs/elabs_051/OXHXBAHSHMBTDQ-UHFFFAOYSA-N/output/OXHXBAHSHMBTDQ-UHFFFAOYSA-N-5YpzV3-187-A/OXHXBAHSHMBTDQ-UHFFFAOYSA-N-5YpzV3-187-A.minimised.mol

>  <distance_score>  (394) 
1.756741

>  <energy_score>  (394) 
-14.231136

>  <compound>  (394) 
ATVWXFDCCMZUKM-UHFFFAOYSA-N

>  <compound_id>  (394) 
180368

>  <target>  (394) 
Flavi_NS5_RdRp

>  <tags>  (394) 
[]

>  <inspirations>  (394) 
{P Ã— 2}

>  <subsites>  (394) 
None

>  <reference>  (394) 
z0136a

>  <SLURM_JOB_ID>  (394) 
nan

>  <SLURM_JOB_NAME>  (394) 
nan

>  <csv_name>  (394) 
nan

>  <scratch_subdir>  (394) 
nan

>  <fragmenstein_runtime>  (394) 
nan

>  <fragmenstein_outcome>  (394) 
nan

>  <fragmenstein_mode>  (394) 
nan

>  <fragmenstein_error>  (394) 
nan

>  <exports>  (394) 
nan

>  <Multi-SuCOS>  (394) 
nan

>  <merge_set>  (394) 
nan

$$$$
VUOIIJQUCPBMSN-QGZVFWFLSA-N
     RDKit          3D

 22 23  0  0  0  0  0  0  0  0999 V2000
  -23.5607  -32.3788  -18.8598 C   0  0  0  0  0  0  0  0  0  0  0  0
  -25.0104  -32.6535  -18.4637 C   0  0  0  0  0  0  0  0  0  0  0  0
  -25.6404  -31.5007  -17.6770 C   0  0  0  0  0  0  0  0  0  0  0  0
  -26.9551  -31.0025  -18.0614 N   0  0  0  0  0  0  0  0  0  0  0  0
  -28.0622  -30.8204  -17.2767 C   0  0  0  0  0  0  0  0  0  0  0  0
  -29.0649  -30.2947  -18.0790 C   0  0  0  0  0  0  0  0  0  0  0  0
  -28.5444  -30.1391  -19.3943 C   0  0  0  0  0  0  0  0  0  0  0  0
  -29.0241  -29.7336  -20.6617 C   0  0  0  0  0  0  0  0  0  0  0  0
  -28.1865  -29.8635  -21.7993 C   0  0  0  0  0  0  0  0  0  0  0  0
  -26.9017  -30.3581  -21.6585 C   0  0  0  0  0  0  0  0  0  0  0  0
  -26.1256  -30.9464  -22.6516 N   0  0  0  0  0  0  0  0  0  0  0  0
  -25.0777  -32.1139  -22.5631 C   0  0  0  0  0  0  0  0  0  0  0  0
  -24.7875  -32.7748  -21.6826 O   0  0  0  0  0  0  0  0  0  0  0  0
  -24.4881  -32.0346  -23.9841 N   0  0  0  0  0  0  0  0  0  0  0  0
  -23.3509  -32.7031  -24.5606 C   0  0  0  0  0  0  0  0  0  0  0  0
  -22.0809  -32.7254  -23.6497 C   0  0  2  0  0  0  0  0  0  0  0  0
  -20.9278  -33.2050  -24.5283 C   0  0  0  0  0  0  0  0  0  0  0  0
  -22.2407  -33.6729  -22.5921 O   0  0  0  0  0  0  0  0  0  0  0  0
  -21.7293  -31.3886  -23.0009 C   0  0  0  0  0  0  0  0  0  0  0  0
  -20.6745  -31.4614  -21.8968 C   0  0  0  0  0  0  0  0  0  0  0  0
  -26.3667  -30.5078  -20.3975 C   0  0  0  0  0  0  0  0  0  0  0  0
  -27.2166  -30.5206  -19.3119 C   0  0  0  0  0  0  0  0  0  0  0  0
  1  2  1  0
  2  3  1  0
  3  4  1  0
  4  5  1  0
  5  6  2  0
  6  7  1  0
  7  8  2  0
  8  9  1  0
  9 10  2  0
 10 11  1  0
 11 12  1  0
 12 13  2  0
 12 14  1  0
 14 15  1  0
 15 16  1  0
 16 17  1  6
 16 18  1  0
 16 19  1  0
 19 20  1  0
 10 21  1  0
 21 22  2  0
 22  4  1  0
 22  7  1  0
M  END
>  <id>  (395) 
350451

>  <inchikey>  (395) 
VUOIIJQUCPBMSN-QGZVFWFLSA-N

>  <alias>  (395) 
None

>  <smiles>  (395) 
CCCn1ccc2ccc(NC(=O)NC[C@](C)(O)CC)cc21

>  <path>  (395) 
/opt/xchem-fragalysis-2/maxwin/RdRp_FFF/syndirella/mar_elabs/elabs_051/OXHXBAHSHMBTDQ-UHFFFAOYSA-N/output/OXHXBAHSHMBTDQ-UHFFFAOYSA-N-5YpzV3-1591-A/OXHXBAHSHMBTDQ-UHFFFAOYSA-N-5YpzV3-1591-A.minimised.mol

>  <distance_score>  (395) 
1.909148

>  <energy_score>  (395) 
-20.848185

>  <compound>  (395) 
VUOIIJQUCPBMSN-UHFFFAOYSA-N

>  <compound_id>  (395) 
181036

>  <target>  (395) 
Flavi_NS5_RdRp

>  <tags>  (395) 
[]

>  <inspirations>  (395) 
{P Ã— 2}

>  <subsites>  (395) 
None

>  <reference>  (395) 
z0136a

>  <SLURM_JOB_ID>  (395) 
nan

>  <SLURM_JOB_NAME>  (395) 
nan

>  <csv_name>  (395) 
nan

>  <scratch_subdir>  (395) 
nan

>  <fragmenstein_runtime>  (395) 
nan

>  <fragmenstein_outcome>  (395) 
nan

>  <fragmenstein_mode>  (395) 
nan

>  <fragmenstein_error>  (395) 
nan

>  <exports>  (395) 
nan

>  <Multi-SuCOS>  (395) 
nan

>  <merge_set>  (395) 
nan

$$$$
KIONHXLWKUEUSI-CQSZACIVSA-N
     RDKit          3D

 21 22  0  0  0  0  0  0  0  0999 V2000
  -23.4486  -32.4604  -18.9069 C   0  0  0  0  0  0  0  0  0  0  0  0
  -24.9644  -32.5552  -18.7824 C   0  0  0  0  0  0  0  0  0  0  0  0
  -25.5017  -31.5645  -17.7460 C   0  0  0  0  0  0  0  0  0  0  0  0
  -26.8679  -31.0756  -17.9098 N   0  0  0  0  0  0  0  0  0  0  0  0
  -27.9340  -31.1944  -17.0612 C   0  0  0  0  0  0  0  0  0  0  0  0
  -29.0622  -30.7744  -17.7522 C   0  0  0  0  0  0  0  0  0  0  0  0
  -28.6542  -30.3576  -19.0507 C   0  0  0  0  0  0  0  0  0  0  0  0
  -29.2747  -29.9779  -20.2603 C   0  0  0  0  0  0  0  0  0  0  0  0
  -28.4710  -29.8692  -21.4189 C   0  0  0  0  0  0  0  0  0  0  0  0
  -27.0897  -29.9898  -21.3244 C   0  0  0  0  0  0  0  0  0  0  0  0
  -26.2884  -30.4831  -22.3551 N   0  0  0  0  0  0  0  0  0  0  0  0
  -24.8209  -31.0318  -22.3233 C   0  0  0  0  0  0  0  0  0  0  0  0
  -24.0716  -31.0741  -21.4683 O   0  0  0  0  0  0  0  0  0  0  0  0
  -24.7273  -31.5879  -23.7570 N   0  0  0  0  0  0  0  0  0  0  0  0
  -23.7131  -32.3923  -24.3784 C   0  0  0  0  0  0  0  0  0  0  0  0
  -22.3958  -32.5840  -23.5947 C   0  0  2  0  0  0  0  0  0  0  0  0
  -21.7301  -31.3741  -23.2498 O   0  0  0  0  0  0  0  0  0  0  0  0
  -21.3862  -33.3346  -24.4701 C   0  0  0  0  0  0  0  0  0  0  0  0
  -21.8491  -34.7052  -24.9416 C   0  0  0  0  0  0  0  0  0  0  0  0
  -26.4800  -29.9785  -20.0840 C   0  0  0  0  0  0  0  0  0  0  0  0
  -27.2701  -30.3901  -19.0271 C   0  0  0  0  0  0  0  0  0  0  0  0
  1  2  1  0
  2  3  1  0
  3  4  1  0
  4  5  1  0
  5  6  2  0
  6  7  1  0
  7  8  2  0
  8  9  1  0
  9 10  2  0
 10 11  1  0
 11 12  1  0
 12 13  2  0
 12 14  1  0
 14 15  1  0
 15 16  1  0
 16 17  1  6
 16 18  1  0
 18 19  1  0
 10 20  1  0
 20 21  2  0
 21  4  1  0
 21  7  1  0
M  END
>  <id>  (396) 
350555

>  <inchikey>  (396) 
KIONHXLWKUEUSI-CQSZACIVSA-N

>  <alias>  (396) 
None

>  <smiles>  (396) 
CCCn1ccc2ccc(NC(=O)NC[C@H](O)CC)cc21

>  <path>  (396) 
/opt/xchem-fragalysis-2/maxwin/RdRp_FFF/syndirella/mar_elabs/elabs_051/OXHXBAHSHMBTDQ-UHFFFAOYSA-N/output/OXHXBAHSHMBTDQ-UHFFFAOYSA-N-d74YTe-87-A/OXHXBAHSHMBTDQ-UHFFFAOYSA-N-d74YTe-87-A.minimised.mol

>  <distance_score>  (396) 
1.71455

>  <energy_score>  (396) 
-2.553025

>  <compound>  (396) 
KIONHXLWKUEUSI-UHFFFAOYSA-N

>  <compound_id>  (396) 
180369

>  <target>  (396) 
Flavi_NS5_RdRp

>  <tags>  (396) 
[]

>  <inspirations>  (396) 
{P Ã— 2}

>  <subsites>  (396) 
None

>  <reference>  (396) 
z0136a

>  <SLURM_JOB_ID>  (396) 
nan

>  <SLURM_JOB_NAME>  (396) 
nan

>  <csv_name>  (396) 
nan

>  <scratch_subdir>  (396) 
nan

>  <fragmenstein_runtime>  (396) 
nan

>  <fragmenstein_outcome>  (396) 
nan

>  <fragmenstein_mode>  (396) 
nan

>  <fragmenstein_error>  (396) 
nan

>  <exports>  (396) 
nan

>  <Multi-SuCOS>  (396) 
nan

>  <merge_set>  (396) 
nan

$$$$
MIDFEBMHTWBICI-SMDDNHRTSA-N
     RDKit          3D

 22 23  0  0  0  0  0  0  0  0999 V2000
  -23.4912  -32.4082  -18.8595 C   0  0  0  0  0  0  0  0  0  0  0  0
  -25.0103  -32.4936  -18.7840 C   0  0  0  0  0  0  0  0  0  0  0  0
  -25.5759  -31.5028  -17.7629 C   0  0  0  0  0  0  0  0  0  0  0  0
  -26.9430  -31.0268  -17.9524 N   0  0  0  0  0  0  0  0  0  0  0  0
  -28.0240  -31.1637  -17.1258 C   0  0  0  0  0  0  0  0  0  0  0  0
  -29.1429  -30.7512  -17.8355 C   0  0  0  0  0  0  0  0  0  0  0  0
  -28.7140  -30.3248  -19.1237 C   0  0  0  0  0  0  0  0  0  0  0  0
  -29.3157  -29.9533  -20.3448 C   0  0  0  0  0  0  0  0  0  0  0  0
  -28.4901  -29.8454  -21.4876 C   0  0  0  0  0  0  0  0  0  0  0  0
  -27.1102  -29.9510  -21.3667 C   0  0  0  0  0  0  0  0  0  0  0  0
  -26.2950  -30.4998  -22.3598 N   0  0  0  0  0  0  0  0  0  0  0  0
  -24.8196  -31.0209  -22.2856 C   0  0  0  0  0  0  0  0  0  0  0  0
  -24.0731  -30.9933  -21.4260 O   0  0  0  0  0  0  0  0  0  0  0  0
  -24.7096  -31.6724  -23.6814 N   0  0  0  0  0  0  0  0  0  0  0  0
  -23.6655  -32.5115  -24.2502 C   0  0  2  0  0  0  0  0  0  0  0  0
  -24.0535  -33.9909  -24.0056 C   0  0  0  0  0  0  0  0  0  0  0  0
  -24.0730  -34.3497  -22.6264 O   0  0  0  0  0  0  0  0  0  0  0  0
  -22.2530  -32.1613  -23.6847 C   0  0  2  0  0  0  0  0  0  0  0  0
  -21.1642  -32.9144  -24.4327 C   0  0  0  0  0  0  0  0  0  0  0  0
  -22.1092  -32.5141  -22.3025 O   0  0  0  0  0  0  0  0  0  0  0  0
  -26.5253  -29.9107  -20.1139 C   0  0  0  0  0  0  0  0  0  0  0  0
  -27.3302  -30.3374  -19.0730 C   0  0  0  0  0  0  0  0  0  0  0  0
  1  2  1  0
  2  3  1  0
  3  4  1  0
  4  5  1  0
  5  6  2  0
  6  7  1  0
  7  8  2  0
  8  9  1  0
  9 10  2  0
 10 11  1  0
 11 12  1  0
 12 13  2  0
 12 14  1  0
 14 15  1  0
 15 16  1  1
 16 17  1  0
 15 18  1  0
 18 19  1  6
 18 20  1  0
 10 21  1  0
 21 22  2  0
 22  4  1  0
 22  7  1  0
M  END
>  <id>  (397) 
350568

>  <inchikey>  (397) 
MIDFEBMHTWBICI-SMDDNHRTSA-N

>  <alias>  (397) 
None

>  <smiles>  (397) 
CCCn1ccc2ccc(NC(=O)N[C@H](CO)[C@H](C)O)cc21

>  <path>  (397) 
/opt/xchem-fragalysis-2/maxwin/RdRp_FFF/syndirella/mar_elabs/elabs_051/OXHXBAHSHMBTDQ-UHFFFAOYSA-N/output/OXHXBAHSHMBTDQ-UHFFFAOYSA-N-d74YTe-275-A/OXHXBAHSHMBTDQ-UHFFFAOYSA-N-d74YTe-275-A.minimised.mol

>  <distance_score>  (397) 
1.554307

>  <energy_score>  (397) 
-2.410897

>  <compound>  (397) 
MIDFEBMHTWBICI-UHFFFAOYSA-N

>  <compound_id>  (397) 
181288

>  <target>  (397) 
Flavi_NS5_RdRp

>  <tags>  (397) 
[]

>  <inspirations>  (397) 
{P Ã— 2}

>  <subsites>  (397) 
None

>  <reference>  (397) 
z0136a

>  <SLURM_JOB_ID>  (397) 
nan

>  <SLURM_JOB_NAME>  (397) 
nan

>  <csv_name>  (397) 
nan

>  <scratch_subdir>  (397) 
nan

>  <fragmenstein_runtime>  (397) 
nan

>  <fragmenstein_outcome>  (397) 
nan

>  <fragmenstein_mode>  (397) 
nan

>  <fragmenstein_error>  (397) 
nan

>  <exports>  (397) 
nan

>  <Multi-SuCOS>  (397) 
nan

>  <merge_set>  (397) 
nan

$$$$
ZFGFQBONQPPJMM-UHFFFAOYSA-N
     RDKit          3D

 19 21  0  0  0  0  0  0  0  0999 V2000
  -26.5916  -32.4315  -13.8847 Br  0  0  0  0  0  0  0  0  0  0  0  0
  -26.2249  -31.2763  -15.3534 C   0  0  0  0  0  0  0  0  0  0  0  0
  -24.8971  -30.9032  -15.5267 C   0  0  0  0  0  0  0  0  0  0  0  0
  -24.5977  -30.1067  -16.6057 C   0  0  0  0  0  0  0  0  0  0  0  0
  -25.5102  -29.6863  -17.5009 N   0  0  0  0  0  0  0  0  0  0  0  0
  -26.8048  -30.0352  -17.3240 C   0  0  0  0  0  0  0  0  0  0  0  0
  -27.7614  -29.5953  -18.2622 C   0  0  0  0  0  0  0  0  0  0  0  0
  -27.3322  -28.8634  -19.4276 N   0  0  0  0  0  0  0  0  0  0  0  0
  -27.0385  -29.8300  -20.4865 C   0  0  0  0  0  0  0  0  0  0  0  0
  -26.5415  -29.1735  -21.7464 C   0  0  0  0  0  0  0  0  0  0  0  0
  -26.7081  -29.8782  -22.9422 C   0  0  0  0  0  0  0  0  0  0  0  0
  -26.2200  -29.3552  -24.1247 C   0  0  0  0  0  0  0  0  0  0  0  0
  -25.5761  -28.1795  -24.1817 N   0  0  0  0  0  0  0  0  0  0  0  0
  -25.3991  -27.5140  -23.0203 C   0  0  0  0  0  0  0  0  0  0  0  0
  -25.8521  -27.9626  -21.7906 C   0  0  0  0  0  0  0  0  0  0  0  0
  -29.1094  -29.9547  -18.1578 C   0  0  0  0  0  0  0  0  0  0  0  0
  -29.5321  -30.7198  -17.0839 C   0  0  0  0  0  0  0  0  0  0  0  0
  -28.6060  -31.1546  -16.1391 C   0  0  0  0  0  0  0  0  0  0  0  0
  -27.2298  -30.8358  -16.2462 C   0  0  0  0  0  0  0  0  0  0  0  0
  1  2  1  0
  2  3  2  0
  3  4  1  0
  4  5  2  0
  5  6  1  0
  6  7  2  0
  7  8  1  0
  8  9  1  0
  9 10  1  0
 10 11  2  0
 11 12  1  0
 12 13  2  0
 13 14  1  0
 14 15  2  0
  7 16  1  0
 16 17  2  0
 17 18  1  0
 18 19  2  0
 19  2  1  0
 19  6  1  0
 15 10  1  0
M  END
>  <id>  (398) 
354877

>  <inchikey>  (398) 
ZFGFQBONQPPJMM-UHFFFAOYSA-N

>  <alias>  (398) 
None

>  <smiles>  (398) 
Brc1ccnc2c(NCc3ccncc3)cccc12

>  <path>  (398) 
/opt/xchem-fragalysis-2/maxwin/RdRp_FFF/syndirella/mar_elabs/elabs_093/ZFGFQBONQPPJMM-UHFFFAOYSA-N/output/ZFGFQBONQPPJMM-UHFFFAOYSA-N-VJRuYn-scaffold-A/ZFGFQBONQPPJMM-UHFFFAOYSA-N-VJRuYn-scaffold-A.minimised.mol

>  <distance_score>  (398) 
0.641547

>  <energy_score>  (398) 
-11.947548

>  <compound>  (398) 
ASAP-0038694

>  <compound_id>  (398) 
56537

>  <target>  (398) 
Flavi_NS5_RdRp

>  <tags>  (398) 
['best elaborated iter1 scaffold poses']

>  <inspirations>  (398) 
{P Ã— 2}

>  <subsites>  (398) 
[[1m[4m"Green Site/RNA tunnel"[22m[24m]

>  <reference>  (398) 
z0221a

>  <SLURM_JOB_ID>  (398) 
nan

>  <SLURM_JOB_NAME>  (398) 
nan

>  <csv_name>  (398) 
nan

>  <scratch_subdir>  (398) 
nan

>  <fragmenstein_runtime>  (398) 
nan

>  <fragmenstein_outcome>  (398) 
nan

>  <fragmenstein_mode>  (398) 
nan

>  <fragmenstein_error>  (398) 
nan

>  <exports>  (398) 
/opt/xchem-fragalysis-2/maxwin/RdRp_FFF/hippo/iter1_elaborated_scaffold_poses.sdf

>  <Multi-SuCOS>  (398) 
nan

>  <merge_set>  (398) 
nan

$$$$
NVWMIEYMLBFUOD-UHFFFAOYSA-N
     RDKit          3D

 20 22  0  0  0  0  0  0  0  0999 V2000
  -25.7846  -31.2127  -24.8784 Br  0  0  0  0  0  0  0  0  0  0  0  0
  -26.1080  -29.6667  -23.8266 C   0  0  0  0  0  0  0  0  0  0  0  0
  -26.5624  -29.8863  -22.5365 C   0  0  0  0  0  0  0  0  0  0  0  0
  -26.2990  -28.9045  -21.5791 C   0  0  0  0  0  0  0  0  0  0  0  0
  -26.3774  -29.2493  -20.1195 C   0  0  0  0  0  0  0  0  0  0  0  0
  -27.7309  -29.1786  -19.6106 N   0  0  0  0  0  0  0  0  0  0  0  0
  -27.9650  -29.8783  -18.3873 C   0  0  0  0  0  0  0  0  0  0  0  0
  -29.3156  -30.1480  -18.1092 C   0  0  0  0  0  0  0  0  0  0  0  0
  -29.6809  -30.8078  -16.9492 C   0  0  0  0  0  0  0  0  0  0  0  0
  -28.7048  -31.2030  -16.0467 C   0  0  0  0  0  0  0  0  0  0  0  0
  -27.3384  -30.9224  -16.2615 C   0  0  0  0  0  0  0  0  0  0  0  0
  -26.3124  -31.3221  -15.3670 C   0  0  0  0  0  0  0  0  0  0  0  0
  -26.6420  -32.4035  -13.8304 Br  0  0  0  0  0  0  0  0  0  0  0  0
  -24.9867  -30.9750  -15.5835 C   0  0  0  0  0  0  0  0  0  0  0  0
  -24.7108  -30.2499  -16.7097 C   0  0  0  0  0  0  0  0  0  0  0  0
  -25.6496  -29.8968  -17.6072 N   0  0  0  0  0  0  0  0  0  0  0  0
  -26.9570  -30.2146  -17.4238 C   0  0  0  0  0  0  0  0  0  0  0  0
  -25.7270  -27.6971  -21.9798 C   0  0  0  0  0  0  0  0  0  0  0  0
  -25.3914  -27.5483  -23.3108 C   0  0  0  0  0  0  0  0  0  0  0  0
  -25.5778  -28.5030  -24.2443 N   0  0  0  0  0  0  0  0  0  0  0  0
  1  2  1  0
  2  3  2  0
  3  4  1  0
  4  5  1  0
  5  6  1  0
  6  7  1  0
  7  8  2  0
  8  9  1  0
  9 10  2  0
 10 11  1  0
 11 12  2  0
 12 13  1  0
 12 14  1  0
 14 15  2  0
 15 16  1  0
 16 17  2  0
  4 18  2  0
 18 19  1  0
 19 20  2  0
 20  2  1  0
 17  7  1  0
 17 11  1  0
M  END
>  <id>  (399) 
354894

>  <inchikey>  (399) 
NVWMIEYMLBFUOD-UHFFFAOYSA-N

>  <alias>  (399) 
None

>  <smiles>  (399) 
Brc1cc(CNc2cccc3c(Br)ccnc23)ccn1

>  <path>  (399) 
/opt/xchem-fragalysis-2/maxwin/RdRp_FFF/syndirella/mar_elabs/elabs_093/ZFGFQBONQPPJMM-UHFFFAOYSA-N/output/ZFGFQBONQPPJMM-UHFFFAOYSA-N-VJRuYn-16-A/ZFGFQBONQPPJMM-UHFFFAOYSA-N-VJRuYn-16-A.minimised.mol

>  <distance_score>  (399) 
1.065508

>  <energy_score>  (399) 
-12.711625

>  <compound>  (399) 
NVWMIEYMLBFUOD-UHFFFAOYSA-N

>  <compound_id>  (399) 
183938

>  <target>  (399) 
Flavi_NS5_RdRp

>  <tags>  (399) 
[]

>  <inspirations>  (399) 
{P Ã— 2}

>  <subsites>  (399) 
None

>  <reference>  (399) 
z0221a

>  <SLURM_JOB_ID>  (399) 
nan

>  <SLURM_JOB_NAME>  (399) 
nan

>  <csv_name>  (399) 
nan

>  <scratch_subdir>  (399) 
nan

>  <fragmenstein_runtime>  (399) 
nan

>  <fragmenstein_outcome>  (399) 
nan

>  <fragmenstein_mode>  (399) 
nan

>  <fragmenstein_error>  (399) 
nan

>  <exports>  (399) 
nan

>  <Multi-SuCOS>  (399) 
nan

>  <merge_set>  (399) 
nan

$$$$
DBCZDEKFBDKWIR-UHFFFAOYSA-N
     RDKit          3D

 21 23  0  0  0  0  0  0  0  0999 V2000
  -25.4129  -27.0631  -20.6890 C   0  0  0  0  0  0  0  0  0  0  0  0
  -25.7773  -27.9496  -21.8373 C   0  0  0  0  0  0  0  0  0  0  0  0
  -25.3977  -27.5715  -23.1266 C   0  0  0  0  0  0  0  0  0  0  0  0
  -25.6146  -28.2992  -24.2420 N   0  0  0  0  0  0  0  0  0  0  0  0
  -26.2346  -29.4712  -24.0750 C   0  0  0  0  0  0  0  0  0  0  0  0
  -26.3649  -30.2711  -25.1389 F   0  0  0  0  0  0  0  0  0  0  0  0
  -26.6903  -29.9243  -22.8531 C   0  0  0  0  0  0  0  0  0  0  0  0
  -26.4668  -29.1654  -21.6974 C   0  0  0  0  0  0  0  0  0  0  0  0
  -26.8281  -29.8232  -20.3869 C   0  0  0  0  0  0  0  0  0  0  0  0
  -27.5219  -28.9227  -19.4622 N   0  0  0  0  0  0  0  0  0  0  0  0
  -27.8768  -29.6718  -18.2810 C   0  0  0  0  0  0  0  0  0  0  0  0
  -29.1932  -30.1308  -18.1770 C   0  0  0  0  0  0  0  0  0  0  0  0
  -29.5586  -30.9117  -17.0939 C   0  0  0  0  0  0  0  0  0  0  0  0
  -28.6033  -31.2623  -16.1416 C   0  0  0  0  0  0  0  0  0  0  0  0
  -27.2545  -30.8388  -16.2461 C   0  0  0  0  0  0  0  0  0  0  0  0
  -26.2203  -31.1920  -15.3458 C   0  0  0  0  0  0  0  0  0  0  0  0
  -26.5016  -32.3695  -13.8752 Br  0  0  0  0  0  0  0  0  0  0  0  0
  -24.9240  -30.7170  -15.5145 C   0  0  0  0  0  0  0  0  0  0  0  0
  -24.6818  -29.9050  -16.5954 C   0  0  0  0  0  0  0  0  0  0  0  0
  -25.6262  -29.5635  -17.4922 N   0  0  0  0  0  0  0  0  0  0  0  0
  -26.8901  -30.0176  -17.3287 C   0  0  0  0  0  0  0  0  0  0  0  0
  1  2  1  0
  2  3  2  0
  3  4  1  0
  4  5  2  0
  5  6  1  0
  5  7  1  0
  7  8  2  0
  8  9  1  0
  9 10  1  0
 10 11  1  0
 11 12  2  0
 12 13  1  0
 13 14  2  0
 14 15  1  0
 15 16  2  0
 16 17  1  0
 16 18  1  0
 18 19  2  0
 19 20  1  0
 20 21  2  0
  8  2  1  0
 21 11  1  0
 21 15  1  0
M  END
>  <id>  (400) 
354945

>  <inchikey>  (400) 
DBCZDEKFBDKWIR-UHFFFAOYSA-N

>  <alias>  (400) 
None

>  <smiles>  (400) 
Cc1cnc(F)cc1CNc1cccc2c(Br)ccnc12

>  <path>  (400) 
/opt/xchem-fragalysis-2/maxwin/RdRp_FFF/syndirella/mar_elabs/elabs_093/ZFGFQBONQPPJMM-UHFFFAOYSA-N/output/ZFGFQBONQPPJMM-UHFFFAOYSA-N-VJRuYn-70-A/ZFGFQBONQPPJMM-UHFFFAOYSA-N-VJRuYn-70-A.minimised.mol

>  <distance_score>  (400) 
0.677053

>  <energy_score>  (400) 
-11.502929

>  <compound>  (400) 
DBCZDEKFBDKWIR-UHFFFAOYSA-N

>  <compound_id>  (400) 
183982

>  <target>  (400) 
Flavi_NS5_RdRp

>  <tags>  (400) 
[]

>  <inspirations>  (400) 
{P Ã— 2}

>  <subsites>  (400) 
None

>  <reference>  (400) 
z0221a

>  <SLURM_JOB_ID>  (400) 
nan

>  <SLURM_JOB_NAME>  (400) 
nan

>  <csv_name>  (400) 
nan

>  <scratch_subdir>  (400) 
nan

>  <fragmenstein_runtime>  (400) 
nan

>  <fragmenstein_outcome>  (400) 
nan

>  <fragmenstein_mode>  (400) 
nan

>  <fragmenstein_error>  (400) 
nan

>  <exports>  (400) 
nan

>  <Multi-SuCOS>  (400) 
nan

>  <merge_set>  (400) 
nan

$$$$
APWMJHXMKCAPLY-UHFFFAOYSA-N
     RDKit          3D

 21 23  0  0  0  0  0  0  0  0999 V2000
  -26.1949  -30.5537  -24.8728 F   0  0  0  0  0  0  0  0  0  0  0  0
  -26.1577  -29.5980  -23.9353 C   0  0  0  0  0  0  0  0  0  0  0  0
  -26.8011  -29.8314  -22.7327 C   0  0  0  0  0  0  0  0  0  0  0  0
  -26.7272  -28.8591  -21.7338 C   0  0  0  0  0  0  0  0  0  0  0  0
  -27.5517  -28.9772  -20.4892 C   0  0  0  0  0  0  0  0  0  0  0  0
  -27.0045  -30.0240  -19.6740 N   0  0  0  0  0  0  0  0  0  0  0  0
  -27.5797  -30.2444  -18.3981 C   0  0  0  0  0  0  0  0  0  0  0  0
  -28.9647  -30.1900  -18.1936 C   0  0  0  0  0  0  0  0  0  0  0  0
  -29.5013  -30.5533  -16.9675 C   0  0  0  0  0  0  0  0  0  0  0  0
  -28.6663  -31.0326  -15.9636 C   0  0  0  0  0  0  0  0  0  0  0  0
  -27.2671  -31.1286  -16.1520 C   0  0  0  0  0  0  0  0  0  0  0  0
  -26.3568  -31.6679  -15.2123 C   0  0  0  0  0  0  0  0  0  0  0  0
  -26.9214  -32.5223  -13.6075 Br  0  0  0  0  0  0  0  0  0  0  0  0
  -24.9881  -31.6645  -15.4527 C   0  0  0  0  0  0  0  0  0  0  0  0
  -24.5568  -31.1461  -16.6489 C   0  0  0  0  0  0  0  0  0  0  0  0
  -25.3848  -30.6798  -17.6007 N   0  0  0  0  0  0  0  0  0  0  0  0
  -26.7186  -30.6854  -17.3705 C   0  0  0  0  0  0  0  0  0  0  0  0
  -25.9350  -27.7391  -21.9571 C   0  0  0  0  0  0  0  0  0  0  0  0
  -25.3810  -27.5821  -23.2125 C   0  0  0  0  0  0  0  0  0  0  0  0
  -24.8786  -26.3785  -23.4970 F   0  0  0  0  0  0  0  0  0  0  0  0
  -25.4893  -28.4710  -24.2151 N   0  0  0  0  0  0  0  0  0  0  0  0
  1  2  1  0
  2  3  2  0
  3  4  1  0
  4  5  1  0
  5  6  1  0
  6  7  1  0
  7  8  2  0
  8  9  1  0
  9 10  2  0
 10 11  1  0
 11 12  2  0
 12 13  1  0
 12 14  1  0
 14 15  2  0
 15 16  1  0
 16 17  2  0
  4 18  2  0
 18 19  1  0
 19 20  1  0
 19 21  2  0
 21  2  1  0
 17  7  1  0
 17 11  1  0
M  END
>  <id>  (401) 
354967

>  <inchikey>  (401) 
APWMJHXMKCAPLY-UHFFFAOYSA-N

>  <alias>  (401) 
None

>  <smiles>  (401) 
Fc1cc(CNc2cccc3c(Br)ccnc23)cc(F)n1

>  <path>  (401) 
/opt/xchem-fragalysis-2/maxwin/RdRp_FFF/syndirella/mar_elabs/elabs_093/ZFGFQBONQPPJMM-UHFFFAOYSA-N/output/ZFGFQBONQPPJMM-UHFFFAOYSA-N-VJRuYn-95-A/ZFGFQBONQPPJMM-UHFFFAOYSA-N-VJRuYn-95-A.minimised.mol

>  <distance_score>  (401) 
1.099904

>  <energy_score>  (401) 
-20.095435

>  <compound>  (401) 
APWMJHXMKCAPLY-UHFFFAOYSA-N

>  <compound_id>  (401) 
184002

>  <target>  (401) 
Flavi_NS5_RdRp

>  <tags>  (401) 
[]

>  <inspirations>  (401) 
{P Ã— 2}

>  <subsites>  (401) 
None

>  <reference>  (401) 
z0221a

>  <SLURM_JOB_ID>  (401) 
nan

>  <SLURM_JOB_NAME>  (401) 
nan

>  <csv_name>  (401) 
nan

>  <scratch_subdir>  (401) 
nan

>  <fragmenstein_runtime>  (401) 
nan

>  <fragmenstein_outcome>  (401) 
nan

>  <fragmenstein_mode>  (401) 
nan

>  <fragmenstein_error>  (401) 
nan

>  <exports>  (401) 
nan

>  <Multi-SuCOS>  (401) 
nan

>  <merge_set>  (401) 
nan

$$$$
AWQDWKYDKALBOD-UHFFFAOYSA-N
     RDKit          3D

 23 26  0  0  0  0  0  0  0  0999 V2000
  -23.6346  -36.7221  -22.2552 C   0  0  0  0  0  0  0  0  0  0  0  0
  -22.6538  -35.6960  -21.8436 C   0  0  0  0  0  0  0  0  0  0  0  0
  -21.6779  -36.0912  -20.9768 O   0  0  0  0  0  0  0  0  0  0  0  0
  -20.8850  -35.0073  -20.7512 C   0  0  0  0  0  0  0  0  0  0  0  0
  -19.7608  -34.9864  -19.9293 C   0  0  0  0  0  0  0  0  0  0  0  0
  -19.0441  -33.7870  -19.8802 C   0  0  0  0  0  0  0  0  0  0  0  0
  -19.4492  -32.6757  -20.6197 C   0  0  0  0  0  0  0  0  0  0  0  0
  -20.5906  -32.7195  -21.4274 C   0  0  0  0  0  0  0  0  0  0  0  0
  -21.3315  -33.9154  -21.4836 C   0  0  0  0  0  0  0  0  0  0  0  0
  -22.5298  -34.3472  -22.1229 C   0  0  0  0  0  0  0  0  0  0  0  0
  -23.4782  -33.5762  -22.8957 C   0  0  0  0  0  0  0  0  0  0  0  0
  -23.9867  -34.0038  -23.9267 O   0  0  0  0  0  0  0  0  0  0  0  0
  -23.7931  -32.3364  -22.4195 O   0  0  0  0  0  0  0  0  0  0  0  0
  -23.8216  -32.1029  -20.9959 C   0  0  0  0  0  0  0  0  0  0  0  0
  -25.1129  -31.4376  -20.6030 C   0  0  0  0  0  0  0  0  0  0  0  0
  -25.3585  -31.2960  -19.1647 C   0  0  0  0  0  0  0  0  0  0  0  0
  -26.5059  -30.7370  -18.7462 C   0  0  0  0  0  0  0  0  0  0  0  0
  -27.4466  -30.3125  -19.6817 N   0  0  0  0  0  0  0  0  0  0  0  0
  -28.6647  -29.7607  -19.4709 N   0  0  0  0  0  0  0  0  0  0  0  0
  -29.1294  -29.6190  -20.7134 C   0  0  0  0  0  0  0  0  0  0  0  0
  -28.2867  -29.9894  -21.7131 N   0  0  0  0  0  0  0  0  0  0  0  0
  -27.2441  -30.4374  -21.0560 C   0  0  0  0  0  0  0  0  0  0  0  0
  -26.0245  -31.0056  -21.4994 C   0  0  0  0  0  0  0  0  0  0  0  0
  1  2  1  0
  2  3  1  0
  3  4  1  0
  4  5  2  0
  5  6  1  0
  6  7  2  0
  7  8  1  0
  8  9  2  0
  9 10  1  0
 10 11  1  0
 11 12  2  0
 11 13  1  0
 13 14  1  0
 14 15  1  0
 15 16  1  0
 16 17  2  0
 17 18  1  0
 18 19  1  0
 19 20  2  0
 20 21  1  0
 21 22  2  0
 22 23  1  0
 10  2  2  0
 23 15  2  0
  9  4  1  0
 22 18  1  0
M  END
>  <id>  (402) 
356261

>  <inchikey>  (402) 
AWQDWKYDKALBOD-UHFFFAOYSA-N

>  <alias>  (402) 
None

>  <smiles>  (402) 
Cc1oc2ccccc2c1C(=O)OCc1ccn2ncnc2c1

>  <path>  (402) 
/opt/xchem-fragalysis-2/maxwin/RdRp_FFF/syndirella/mar_elabs/elabs_102/AWQDWKYDKALBOD-UHFFFAOYSA-N/output/AWQDWKYDKALBOD-UHFFFAOYSA-N-zHH6MS-scaffold-A/AWQDWKYDKALBOD-UHFFFAOYSA-N-zHH6MS-scaffold-A.minimised.mol

>  <distance_score>  (402) 
0.540488

>  <energy_score>  (402) 
-27.844533

>  <compound>  (402) 
AWQDWKYDKALBOD-UHFFFAOYSA-N

>  <compound_id>  (402) 
60687

>  <target>  (402) 
Flavi_NS5_RdRp

>  <tags>  (402) 
['best elaborated iter1 scaffold poses']

>  <inspirations>  (402) 
{P Ã— 2}

>  <subsites>  (402) 
[[1m[4m"Green Site/RNA tunnel"[22m[24m]

>  <reference>  (402) 
z0521a

>  <SLURM_JOB_ID>  (402) 
nan

>  <SLURM_JOB_NAME>  (402) 
nan

>  <csv_name>  (402) 
nan

>  <scratch_subdir>  (402) 
nan

>  <fragmenstein_runtime>  (402) 
nan

>  <fragmenstein_outcome>  (402) 
nan

>  <fragmenstein_mode>  (402) 
nan

>  <fragmenstein_error>  (402) 
nan

>  <exports>  (402) 
/opt/xchem-fragalysis-2/maxwin/RdRp_FFF/hippo/iter1_elaborated_scaffold_poses.sdf

>  <Multi-SuCOS>  (402) 
nan

>  <merge_set>  (402) 
nan

$$$$
SHVBUHLFYIFMDF-UHFFFAOYSA-N
     RDKit          3D

 24 27  0  0  0  0  0  0  0  0999 V2000
  -23.7930  -36.8540  -22.2881 C   0  0  0  0  0  0  0  0  0  0  0  0
  -22.8178  -35.8219  -21.8821 C   0  0  0  0  0  0  0  0  0  0  0  0
  -21.8232  -36.2146  -21.0353 O   0  0  0  0  0  0  0  0  0  0  0  0
  -21.0309  -35.1280  -20.8237 C   0  0  0  0  0  0  0  0  0  0  0  0
  -19.8905  -35.1024  -20.0248 C   0  0  0  0  0  0  0  0  0  0  0  0
  -19.1717  -33.9047  -20.0108 C   0  0  0  0  0  0  0  0  0  0  0  0
  -19.6010  -32.8097  -20.7542 C   0  0  0  0  0  0  0  0  0  0  0  0
  -18.8355  -31.6892  -20.7130 O   0  0  0  0  0  0  0  0  0  0  0  0
  -20.7560  -32.8436  -21.5306 C   0  0  0  0  0  0  0  0  0  0  0  0
  -21.4962  -34.0398  -21.5506 C   0  0  0  0  0  0  0  0  0  0  0  0
  -22.7156  -34.4694  -22.1486 C   0  0  0  0  0  0  0  0  0  0  0  0
  -23.6926  -33.6912  -22.8783 C   0  0  0  0  0  0  0  0  0  0  0  0
  -24.2968  -34.1327  -23.8498 O   0  0  0  0  0  0  0  0  0  0  0  0
  -23.9078  -32.4172  -22.4360 O   0  0  0  0  0  0  0  0  0  0  0  0
  -23.9003  -32.1504  -21.0169 C   0  0  0  0  0  0  0  0  0  0  0  0
  -25.1676  -31.4512  -20.6126 C   0  0  0  0  0  0  0  0  0  0  0  0
  -25.4022  -31.3070  -19.1731 C   0  0  0  0  0  0  0  0  0  0  0  0
  -26.5408  -30.7348  -18.7485 C   0  0  0  0  0  0  0  0  0  0  0  0
  -27.4813  -30.2992  -19.6794 N   0  0  0  0  0  0  0  0  0  0  0  0
  -28.6968  -29.7451  -19.4633 N   0  0  0  0  0  0  0  0  0  0  0  0
  -29.1660  -29.6012  -20.7039 C   0  0  0  0  0  0  0  0  0  0  0  0
  -28.3255  -29.9643  -21.7076 N   0  0  0  0  0  0  0  0  0  0  0  0
  -27.2832  -30.4180  -21.0548 C   0  0  0  0  0  0  0  0  0  0  0  0
  -26.0718  -30.9962  -21.5042 C   0  0  0  0  0  0  0  0  0  0  0  0
  1  2  1  0
  2  3  1  0
  3  4  1  0
  4  5  2  0
  5  6  1  0
  6  7  2  0
  7  8  1  0
  7  9  1  0
  9 10  2  0
 10 11  1  0
 11 12  1  0
 12 13  2  0
 12 14  1  0
 14 15  1  0
 15 16  1  0
 16 17  1  0
 17 18  2  0
 18 19  1  0
 19 20  1  0
 20 21  2  0
 21 22  1  0
 22 23  2  0
 23 24  1  0
 11  2  2  0
 24 16  2  0
 10  4  1  0
 23 19  1  0
M  END
>  <id>  (403) 
356276

>  <inchikey>  (403) 
SHVBUHLFYIFMDF-UHFFFAOYSA-N

>  <alias>  (403) 
None

>  <smiles>  (403) 
Cc1oc2ccc(O)cc2c1C(=O)OCc1ccn2ncnc2c1

>  <path>  (403) 
/opt/xchem-fragalysis-2/maxwin/RdRp_FFF/syndirella/mar_elabs/elabs_102/AWQDWKYDKALBOD-UHFFFAOYSA-N/output/AWQDWKYDKALBOD-UHFFFAOYSA-N-zHH6MS-15-A/AWQDWKYDKALBOD-UHFFFAOYSA-N-zHH6MS-15-A.minimised.mol

>  <distance_score>  (403) 
0.577171

>  <energy_score>  (403) 
-36.987651

>  <compound>  (403) 
SHVBUHLFYIFMDF-UHFFFAOYSA-N

>  <compound_id>  (403) 
185502

>  <target>  (403) 
Flavi_NS5_RdRp

>  <tags>  (403) 
[]

>  <inspirations>  (403) 
{P Ã— 2}

>  <subsites>  (403) 
None

>  <reference>  (403) 
z0521a

>  <SLURM_JOB_ID>  (403) 
nan

>  <SLURM_JOB_NAME>  (403) 
nan

>  <csv_name>  (403) 
nan

>  <scratch_subdir>  (403) 
nan

>  <fragmenstein_runtime>  (403) 
nan

>  <fragmenstein_outcome>  (403) 
nan

>  <fragmenstein_mode>  (403) 
nan

>  <fragmenstein_error>  (403) 
nan

>  <exports>  (403) 
nan

>  <Multi-SuCOS>  (403) 
nan

>  <merge_set>  (403) 
nan

$$$$
KSTJCJKHKMMJGU-UHFFFAOYSA-N
     RDKit          3D

 24 27  0  0  0  0  0  0  0  0999 V2000
  -24.7859  -36.1801  -22.8254 O   0  0  0  0  0  0  0  0  0  0  0  0
  -23.7577  -36.4583  -22.2156 C   0  0  0  0  0  0  0  0  0  0  0  0
  -22.7002  -35.5475  -21.8744 C   0  0  0  0  0  0  0  0  0  0  0  0
  -21.7423  -35.9841  -20.9989 O   0  0  0  0  0  0  0  0  0  0  0  0
  -20.8983  -34.9396  -20.7751 C   0  0  0  0  0  0  0  0  0  0  0  0
  -19.7970  -34.9592  -19.9239 C   0  0  0  0  0  0  0  0  0  0  0  0
  -19.0355  -33.7884  -19.8633 C   0  0  0  0  0  0  0  0  0  0  0  0
  -19.3768  -32.6663  -20.6192 C   0  0  0  0  0  0  0  0  0  0  0  0
  -20.4928  -32.6712  -21.4627 C   0  0  0  0  0  0  0  0  0  0  0  0
  -21.2725  -33.8397  -21.5343 C   0  0  0  0  0  0  0  0  0  0  0  0
  -22.4586  -34.2299  -22.2170 C   0  0  0  0  0  0  0  0  0  0  0  0
  -23.2944  -33.4232  -23.0724 C   0  0  0  0  0  0  0  0  0  0  0  0
  -23.4691  -33.7021  -24.2528 O   0  0  0  0  0  0  0  0  0  0  0  0
  -23.8489  -32.3087  -22.5129 O   0  0  0  0  0  0  0  0  0  0  0  0
  -23.8615  -32.1094  -21.0832 C   0  0  0  0  0  0  0  0  0  0  0  0
  -25.1353  -31.4319  -20.6604 C   0  0  0  0  0  0  0  0  0  0  0  0
  -25.3574  -31.3050  -19.2168 C   0  0  0  0  0  0  0  0  0  0  0  0
  -26.4973  -30.7487  -18.7745 C   0  0  0  0  0  0  0  0  0  0  0  0
  -27.4518  -30.3131  -19.6909 N   0  0  0  0  0  0  0  0  0  0  0  0
  -28.6684  -29.7682  -19.4557 N   0  0  0  0  0  0  0  0  0  0  0  0
  -29.1528  -29.6166  -20.6896 C   0  0  0  0  0  0  0  0  0  0  0  0
  -28.3216  -29.9666  -21.7058 N   0  0  0  0  0  0  0  0  0  0  0  0
  -27.2684  -30.4190  -21.0694 C   0  0  0  0  0  0  0  0  0  0  0  0
  -26.0561  -30.9816  -21.5374 C   0  0  0  0  0  0  0  0  0  0  0  0
  1  2  2  0
  2  3  1  0
  3  4  1  0
  4  5  1  0
  5  6  2  0
  6  7  1  0
  7  8  2  0
  8  9  1  0
  9 10  2  0
 10 11  1  0
 11 12  1  0
 12 13  2  0
 12 14  1  0
 14 15  1  0
 15 16  1  0
 16 17  1  0
 17 18  2  0
 18 19  1  0
 19 20  1  0
 20 21  2  0
 21 22  1  0
 22 23  2  0
 23 24  1  0
 11  3  2  0
 24 16  2  0
 10  5  1  0
 23 19  1  0
M  END
>  <id>  (404) 
356282

>  <inchikey>  (404) 
KSTJCJKHKMMJGU-UHFFFAOYSA-N

>  <alias>  (404) 
None

>  <smiles>  (404) 
O=Cc1oc2ccccc2c1C(=O)OCc1ccn2ncnc2c1

>  <path>  (404) 
/opt/xchem-fragalysis-2/maxwin/RdRp_FFF/syndirella/mar_elabs/elabs_102/AWQDWKYDKALBOD-UHFFFAOYSA-N/output/AWQDWKYDKALBOD-UHFFFAOYSA-N-zHH6MS-21-A/AWQDWKYDKALBOD-UHFFFAOYSA-N-zHH6MS-21-A.minimised.mol

>  <distance_score>  (404) 
0.617219

>  <energy_score>  (404) 
-28.24226

>  <compound>  (404) 
KSTJCJKHKMMJGU-UHFFFAOYSA-N

>  <compound_id>  (404) 
185508

>  <target>  (404) 
Flavi_NS5_RdRp

>  <tags>  (404) 
[]

>  <inspirations>  (404) 
{P Ã— 2}

>  <subsites>  (404) 
None

>  <reference>  (404) 
z0521a

>  <SLURM_JOB_ID>  (404) 
nan

>  <SLURM_JOB_NAME>  (404) 
nan

>  <csv_name>  (404) 
nan

>  <scratch_subdir>  (404) 
nan

>  <fragmenstein_runtime>  (404) 
nan

>  <fragmenstein_outcome>  (404) 
nan

>  <fragmenstein_mode>  (404) 
nan

>  <fragmenstein_error>  (404) 
nan

>  <exports>  (404) 
nan

>  <Multi-SuCOS>  (404) 
nan

>  <merge_set>  (404) 
nan

$$$$
FYICVOKOWCTFDV-UHFFFAOYSA-N
     RDKit          3D

 25 28  0  0  0  0  0  0  0  0999 V2000
  -20.2345  -31.1842  -21.0945 C   0  0  0  0  0  0  0  0  0  0  0  0
  -19.3135  -32.2536  -20.9102 O   0  0  0  0  0  0  0  0  0  0  0  0
  -19.9694  -33.4461  -20.9920 C   0  0  0  0  0  0  0  0  0  0  0  0
  -19.6419  -34.4247  -20.0570 C   0  0  0  0  0  0  0  0  0  0  0  0
  -20.3497  -35.6320  -20.0178 C   0  0  0  0  0  0  0  0  0  0  0  0
  -21.4202  -35.7499  -20.9044 C   0  0  0  0  0  0  0  0  0  0  0  0
  -22.2466  -36.8260  -21.0477 O   0  0  0  0  0  0  0  0  0  0  0  0
  -23.1817  -36.4813  -21.9864 C   0  0  0  0  0  0  0  0  0  0  0  0
  -24.1837  -37.4962  -22.3529 C   0  0  0  0  0  0  0  0  0  0  0  0
  -23.0226  -35.1658  -22.3642 C   0  0  0  0  0  0  0  0  0  0  0  0
  -23.9731  -34.3829  -23.1271 C   0  0  0  0  0  0  0  0  0  0  0  0
  -24.5515  -34.8323  -24.1106 O   0  0  0  0  0  0  0  0  0  0  0  0
  -24.2189  -33.1050  -22.6910 O   0  0  0  0  0  0  0  0  0  0  0  0
  -24.0830  -32.7695  -21.2890 C   0  0  0  0  0  0  0  0  0  0  0  0
  -25.1652  -31.8244  -20.8406 C   0  0  0  0  0  0  0  0  0  0  0  0
  -25.3314  -31.6563  -19.3928 C   0  0  0  0  0  0  0  0  0  0  0  0
  -26.3613  -30.9290  -18.9278 C   0  0  0  0  0  0  0  0  0  0  0  0
  -27.2578  -30.3541  -19.8254 N   0  0  0  0  0  0  0  0  0  0  0  0
  -28.3940  -29.6605  -19.5713 N   0  0  0  0  0  0  0  0  0  0  0  0
  -28.8681  -29.4392  -20.7986 C   0  0  0  0  0  0  0  0  0  0  0  0
  -28.0964  -29.8762  -21.8274 N   0  0  0  0  0  0  0  0  0  0  0  0
  -27.0992  -30.4603  -21.2074 C   0  0  0  0  0  0  0  0  0  0  0  0
  -25.9818  -31.1810  -21.6981 C   0  0  0  0  0  0  0  0  0  0  0  0
  -21.7810  -34.7701  -21.8135 C   0  0  0  0  0  0  0  0  0  0  0  0
  -20.9642  -33.6531  -21.9518 C   0  0  0  0  0  0  0  0  0  0  0  0
  1  2  1  0
  2  3  1  0
  3  4  2  0
  4  5  1  0
  5  6  2  0
  6  7  1  0
  7  8  1  0
  8  9  1  0
  8 10  2  0
 10 11  1  0
 11 12  2  0
 11 13  1  0
 13 14  1  0
 14 15  1  0
 15 16  1  0
 16 17  2  0
 17 18  1  0
 18 19  1  0
 19 20  2  0
 20 21  1  0
 21 22  2  0
 22 23  1  0
 10 24  1  0
 24 25  2  0
 25  3  1  0
 24  6  1  0
 23 15  2  0
 22 18  1  0
M  END
>  <id>  (405) 
356307

>  <inchikey>  (405) 
FYICVOKOWCTFDV-UHFFFAOYSA-N

>  <alias>  (405) 
None

>  <smiles>  (405) 
COc1ccc2oc(C)c(C(=O)OCc3ccn4ncnc4c3)c2c1

>  <path>  (405) 
/opt/xchem-fragalysis-2/maxwin/RdRp_FFF/syndirella/mar_elabs/elabs_102/AWQDWKYDKALBOD-UHFFFAOYSA-N/output/AWQDWKYDKALBOD-UHFFFAOYSA-N-zHH6MS-45-A/AWQDWKYDKALBOD-UHFFFAOYSA-N-zHH6MS-45-A.minimised.mol

>  <distance_score>  (405) 
1.314136

>  <energy_score>  (405) 
-21.140568

>  <compound>  (405) 
FYICVOKOWCTFDV-UHFFFAOYSA-N

>  <compound_id>  (405) 
185532

>  <target>  (405) 
Flavi_NS5_RdRp

>  <tags>  (405) 
[]

>  <inspirations>  (405) 
{P Ã— 2}

>  <subsites>  (405) 
None

>  <reference>  (405) 
z0521a

>  <SLURM_JOB_ID>  (405) 
nan

>  <SLURM_JOB_NAME>  (405) 
nan

>  <csv_name>  (405) 
nan

>  <scratch_subdir>  (405) 
nan

>  <fragmenstein_runtime>  (405) 
nan

>  <fragmenstein_outcome>  (405) 
nan

>  <fragmenstein_mode>  (405) 
nan

>  <fragmenstein_error>  (405) 
nan

>  <exports>  (405) 
nan

>  <Multi-SuCOS>  (405) 
nan

>  <merge_set>  (405) 
nan

$$$$
SGOQIRYDERXCCT-UHFFFAOYSA-N
     RDKit          3D

 21 23  0  0  0  0  0  0  0  0999 V2000
  -27.5098  -30.3615  -23.2222 O   0  0  0  0  0  0  0  0  0  0  0  0
  -27.5186  -31.5565  -22.9542 C   0  0  0  0  0  0  0  0  0  0  0  0
  -27.7467  -32.0273  -21.6970 O   0  0  0  0  0  0  0  0  0  0  0  0
  -27.4749  -31.0579  -20.6629 C   0  0  0  0  0  0  0  0  0  0  0  0
  -28.6157  -30.0577  -20.3824 C   0  0  0  0  0  0  0  0  0  0  0  0
  -28.6557  -29.6312  -18.9586 N   0  0  0  0  0  0  0  0  0  0  0  0
  -29.5694  -30.4025  -18.1076 C   0  0  0  0  0  0  0  0  0  0  0  0
  -29.3966  -30.1234  -16.6214 C   0  0  0  0  0  0  0  0  0  0  0  0
  -27.9464  -30.3357  -16.2227 C   0  0  0  0  0  0  0  0  0  0  0  0
  -27.0646  -29.4898  -17.0973 C   0  0  0  0  0  0  0  0  0  0  0  0
  -25.8274  -29.0665  -16.5991 C   0  0  0  0  0  0  0  0  0  0  0  0
  -25.0217  -28.2275  -17.3587 C   0  0  0  0  0  0  0  0  0  0  0  0
  -25.4329  -27.8101  -18.6169 C   0  0  0  0  0  0  0  0  0  0  0  0
  -26.6426  -28.2716  -19.1314 C   0  0  0  0  0  0  0  0  0  0  0  0
  -27.4666  -29.1461  -18.4038 C   0  0  0  0  0  0  0  0  0  0  0  0
  -27.1773  -32.5758  -23.9485 C   0  0  0  0  0  0  0  0  0  0  0  0
  -26.2254  -32.2470  -24.9306 N   0  0  0  0  0  0  0  0  0  0  0  0
  -26.0468  -33.2531  -25.7540 C   0  0  0  0  0  0  0  0  0  0  0  0
  -26.9481  -34.6615  -25.4143 S   0  0  0  0  0  0  0  0  0  0  0  0
  -27.6640  -33.8590  -24.0879 C   0  0  0  0  0  0  0  0  0  0  0  0
  -29.0127  -34.7206  -23.0641 Br  0  0  0  0  0  0  0  0  0  0  0  0
  1  2  2  0
  2  3  1  0
  3  4  1  0
  4  5  1  0
  5  6  1  0
  6  7  1  0
  7  8  1  0
  8  9  1  0
  9 10  1  0
 10 11  2  0
 11 12  1  0
 12 13  2  0
 13 14  1  0
 14 15  2  0
  2 16  1  0
 16 17  1  0
 17 18  2  0
 18 19  1  0
 19 20  1  0
 20 21  1  0
 15  6  1  0
 20 16  2  0
 15 10  1  0
M  END
>  <id>  (406) 
364369

>  <inchikey>  (406) 
SGOQIRYDERXCCT-UHFFFAOYSA-N

>  <alias>  (406) 
None

>  <smiles>  (406) 
O=C(OCCN1CCCc2ccccc21)c1ncsc1Br

>  <path>  (406) 
/opt/xchem-fragalysis-2/maxwin/RdRp_FFF/syndirella/mar_elabs/elabs_103/SGOQIRYDERXCCT-UHFFFAOYSA-N/output/SGOQIRYDERXCCT-UHFFFAOYSA-N-Yph7Ye-scaffold-A/SGOQIRYDERXCCT-UHFFFAOYSA-N-Yph7Ye-scaffold-A.minimised.mol

>  <distance_score>  (406) 
0.985208

>  <energy_score>  (406) 
-75.0354

>  <compound>  (406) 
SGOQIRYDERXCCT-UHFFFAOYSA-N

>  <compound_id>  (406) 
28106

>  <target>  (406) 
Flavi_NS5_RdRp

>  <tags>  (406) 
['best elaborated iter1 scaffold poses']

>  <inspirations>  (406) 
{P Ã— 2}

>  <subsites>  (406) 
[[1m[4m"Green Site/RNA tunnel"[22m[24m]

>  <reference>  (406) 
z0165a

>  <SLURM_JOB_ID>  (406) 
nan

>  <SLURM_JOB_NAME>  (406) 
nan

>  <csv_name>  (406) 
nan

>  <scratch_subdir>  (406) 
nan

>  <fragmenstein_runtime>  (406) 
nan

>  <fragmenstein_outcome>  (406) 
nan

>  <fragmenstein_mode>  (406) 
nan

>  <fragmenstein_error>  (406) 
nan

>  <exports>  (406) 
/opt/xchem-fragalysis-2/maxwin/RdRp_FFF/hippo/iter1_elaborated_scaffold_poses.sdf

>  <Multi-SuCOS>  (406) 
nan

>  <merge_set>  (406) 
nan

$$$$
BVJPOLDJISOECX-UHFFFAOYSA-N
     RDKit          3D

 21 23  0  0  0  0  0  0  0  0999 V2000
  -25.7207  -34.5710  -24.5668 O   0  0  0  0  0  0  0  0  0  0  0  0
  -24.5721  -34.8196  -24.2403 C   0  0  0  0  0  0  0  0  0  0  0  0
  -23.5904  -35.6126  -25.0613 C   0  0  0  0  0  0  0  0  0  0  0  0
  -22.3319  -35.6765  -24.2042 C   0  0  0  0  0  0  0  0  0  0  0  0
  -22.5113  -34.5859  -23.1772 C   0  0  0  0  0  0  0  0  0  0  0  0
  -23.9442  -34.4207  -23.0730 N   0  0  0  0  0  0  0  0  0  0  0  0
  -24.4261  -33.2847  -22.3388 C   0  0  0  0  0  0  0  0  0  0  0  0
  -25.9029  -32.9293  -22.1960 C   0  0  0  0  0  0  0  0  0  0  0  0
  -26.0640  -31.7089  -21.4039 N   0  0  0  0  0  0  0  0  0  0  0  0
  -25.8851  -30.2219  -21.7996 C   0  0  0  0  0  0  0  0  0  0  0  0
  -25.6570  -29.7376  -22.8365 O   0  0  0  0  0  0  0  0  0  0  0  0
  -26.0222  -29.2927  -20.5806 C   0  0  0  0  0  0  0  0  0  0  0  0
  -27.1743  -29.6300  -19.6948 C   0  0  0  0  0  0  0  0  0  0  0  0
  -28.3841  -28.9560  -19.6073 C   0  0  0  0  0  0  0  0  0  0  0  0
  -29.4388  -29.5246  -18.9201 C   0  0  0  0  0  0  0  0  0  0  0  0
  -29.2261  -30.7322  -18.3164 C   0  0  0  0  0  0  0  0  0  0  0  0
  -30.2326  -31.3387  -17.6779 F   0  0  0  0  0  0  0  0  0  0  0  0
  -27.9564  -31.2708  -18.3260 C   0  0  0  0  0  0  0  0  0  0  0  0
  -26.9370  -30.7491  -18.9860 N   0  0  0  0  0  0  0  0  0  0  0  0
  -25.3031  -27.9538  -20.6205 C   0  0  0  0  0  0  0  0  0  0  0  0
  -24.7970  -29.0028  -19.7045 C   0  0  0  0  0  0  0  0  0  0  0  0
  1  2  2  0
  2  3  1  0
  3  4  1  0
  4  5  1  0
  5  6  1  0
  6  7  1  0
  7  8  1  0
  8  9  1  0
  9 10  1  0
 10 11  2  0
 10 12  1  0
 12 13  1  0
 13 14  2  0
 14 15  1  0
 15 16  2  0
 16 17  1  0
 16 18  1  0
 18 19  2  0
 12 20  1  0
 20 21  1  0
  6  2  1  0
 21 12  1  0
 19 13  1  0
M  END
>  <id>  (407) 
368293

>  <inchikey>  (407) 
BVJPOLDJISOECX-UHFFFAOYSA-N

>  <alias>  (407) 
None

>  <smiles>  (407) 
O=C1CCCN1CCNC(=O)C1(c2ccc(F)cn2)CC1

>  <path>  (407) 
/opt/xchem-fragalysis-2/maxwin/RdRp_FFF/syndirella/mar_elabs/elabs_008/GEKOBKXDLILBGR-UHFFFAOYSA-N/output/GEKOBKXDLILBGR-UHFFFAOYSA-N-cW4Hkb-22-A/GEKOBKXDLILBGR-UHFFFAOYSA-N-cW4Hkb-22-A.minimised.mol

>  <distance_score>  (407) 
1.812468

>  <energy_score>  (407) 
-0.34328

>  <compound>  (407) 
BVJPOLDJISOECX-UHFFFAOYSA-N

>  <compound_id>  (407) 
70857

>  <target>  (407) 
Flavi_NS5_RdRp

>  <tags>  (407) 
[]

>  <inspirations>  (407) 
{P Ã— 2}

>  <subsites>  (407) 
None

>  <reference>  (407) 
d0472b

>  <SLURM_JOB_ID>  (407) 
nan

>  <SLURM_JOB_NAME>  (407) 
nan

>  <csv_name>  (407) 
nan

>  <scratch_subdir>  (407) 
nan

>  <fragmenstein_runtime>  (407) 
nan

>  <fragmenstein_outcome>  (407) 
nan

>  <fragmenstein_mode>  (407) 
nan

>  <fragmenstein_error>  (407) 
nan

>  <exports>  (407) 
nan

>  <Multi-SuCOS>  (407) 
nan

>  <merge_set>  (407) 
nan

$$$$
FTMRJWBKOPJLND-UHFFFAOYSA-N
     RDKit          3D

 21 23  0  0  0  0  0  0  0  0999 V2000
  -23.9815  -34.5236  -23.8958 O   0  0  0  0  0  0  0  0  0  0  0  0
  -23.0253  -34.3984  -23.1499 C   0  0  0  0  0  0  0  0  0  0  0  0
  -21.6055  -34.2240  -23.6000 C   0  0  0  0  0  0  0  0  0  0  0  0
  -20.7823  -34.6575  -22.4146 C   0  0  0  0  0  0  0  0  0  0  0  0
  -21.7904  -34.7841  -21.3129 C   0  0  0  0  0  0  0  0  0  0  0  0
  -21.5214  -35.1736  -20.1849 O   0  0  0  0  0  0  0  0  0  0  0  0
  -23.0330  -34.4700  -21.7869 N   0  0  0  0  0  0  0  0  0  0  0  0
  -24.2447  -34.7722  -21.0483 C   0  0  0  0  0  0  0  0  0  0  0  0
  -24.4303  -34.0925  -19.6789 C   0  0  0  0  0  0  0  0  0  0  0  0
  -25.0030  -32.7826  -19.8205 N   0  0  0  0  0  0  0  0  0  0  0  0
  -26.2275  -32.3161  -20.5978 C   0  0  0  0  0  0  0  0  0  0  0  0
  -27.0181  -32.9224  -21.1882 O   0  0  0  0  0  0  0  0  0  0  0  0
  -26.2914  -30.8200  -20.6333 C   0  0  0  0  0  0  0  0  0  0  0  0
  -26.6344  -30.1150  -19.3546 C   0  0  0  0  0  0  0  0  0  0  0  0
  -27.9643  -29.9158  -19.0188 C   0  0  0  0  0  0  0  0  0  0  0  0
  -28.2832  -28.9260  -18.1273 C   0  0  0  0  0  0  0  0  0  0  0  0
  -27.2633  -28.2450  -17.4765 C   0  0  0  0  0  0  0  0  0  0  0  0
  -25.9613  -28.5890  -17.7613 C   0  0  0  0  0  0  0  0  0  0  0  0
  -25.6269  -29.4926  -18.6939 N   0  0  0  0  0  0  0  0  0  0  0  0
  -25.4036  -30.0513  -21.6192 C   0  0  0  0  0  0  0  0  0  0  0  0
  -26.8453  -30.1360  -21.8777 C   0  0  0  0  0  0  0  0  0  0  0  0
  1  2  2  0
  2  3  1  0
  3  4  1  0
  4  5  1  0
  5  6  2  0
  5  7  1  0
  7  8  1  0
  8  9  1  0
  9 10  1  0
 10 11  1  0
 11 12  2  0
 11 13  1  0
 13 14  1  0
 14 15  2  0
 15 16  1  0
 16 17  2  0
 17 18  1  0
 18 19  2  0
 13 20  1  0
 20 21  1  0
  7  2  1  0
 21 13  1  0
 19 14  1  0
M  END
>  <id>  (408) 
368296

>  <inchikey>  (408) 
FTMRJWBKOPJLND-UHFFFAOYSA-N

>  <alias>  (408) 
None

>  <smiles>  (408) 
O=C1CCC(=O)N1CCNC(=O)C1(c2ccccn2)CC1

>  <path>  (408) 
/opt/xchem-fragalysis-2/maxwin/RdRp_FFF/syndirella/mar_elabs/elabs_008/GEKOBKXDLILBGR-UHFFFAOYSA-N/output/GEKOBKXDLILBGR-UHFFFAOYSA-N-cW4Hkb-69-A/GEKOBKXDLILBGR-UHFFFAOYSA-N-cW4Hkb-69-A.minimised.mol

>  <distance_score>  (408) 
1.945641

>  <energy_score>  (408) 
-10.301923

>  <compound>  (408) 
FTMRJWBKOPJLND-UHFFFAOYSA-N

>  <compound_id>  (408) 
195805

>  <target>  (408) 
Flavi_NS5_RdRp

>  <tags>  (408) 
[]

>  <inspirations>  (408) 
{P Ã— 2}

>  <subsites>  (408) 
None

>  <reference>  (408) 
d0472b

>  <SLURM_JOB_ID>  (408) 
nan

>  <SLURM_JOB_NAME>  (408) 
nan

>  <csv_name>  (408) 
nan

>  <scratch_subdir>  (408) 
nan

>  <fragmenstein_runtime>  (408) 
nan

>  <fragmenstein_outcome>  (408) 
nan

>  <fragmenstein_mode>  (408) 
nan

>  <fragmenstein_error>  (408) 
nan

>  <exports>  (408) 
nan

>  <Multi-SuCOS>  (408) 
nan

>  <merge_set>  (408) 
nan

$$$$
LGJWUFHYOMSSRU-ZDUSSCGKSA-N
     RDKit          3D

 23 25  0  0  0  0  0  0  0  0999 V2000
  -10.2495  -38.5949  -20.7694 C   0  0  0  0  0  0  0  0  0  0  0  0
  -11.0895  -38.4296  -22.0270 C   0  0  0  0  0  0  0  0  0  0  0  0
  -12.2949  -37.6576  -21.8243 N   0  0  0  0  0  0  0  0  0  0  0  0
  -12.2841  -36.3633  -21.3716 C   0  0  0  0  0  0  0  0  0  0  0  0
  -13.5992  -36.0511  -21.1630 C   0  0  0  0  0  0  0  0  0  0  0  0
  -14.4083  -37.0668  -21.5868 N   0  0  0  0  0  0  0  0  0  0  0  0
  -13.6131  -38.0309  -22.0247 C   0  0  0  0  0  0  0  0  0  0  0  0
  -14.0887  -39.2667  -22.7523 C   0  0  2  0  0  0  0  0  0  0  0  0
  -15.3615  -38.9805  -23.5506 C   0  0  0  0  0  0  0  0  0  0  0  0
  -14.3059  -40.3982  -21.8693 N   0  0  0  0  0  0  0  0  0  0  0  0
  -13.3006  -41.3185  -21.1603 C   0  0  0  0  0  0  0  0  0  0  0  0
  -12.1384  -41.2695  -21.1092 O   0  0  0  0  0  0  0  0  0  0  0  0
  -13.9665  -42.5042  -20.5316 C   0  0  0  0  0  0  0  0  0  0  0  0
  -13.5253  -42.8916  -19.2715 C   0  0  0  0  0  0  0  0  0  0  0  0
  -14.0906  -44.0143  -18.7056 C   0  0  0  0  0  0  0  0  0  0  0  0
  -15.0115  -44.7888  -19.3150 N   0  0  0  0  0  0  0  0  0  0  0  0
  -15.4322  -44.4082  -20.5520 C   0  0  0  0  0  0  0  0  0  0  0  0
  -16.4429  -45.2171  -21.1626 N   0  0  0  0  0  0  0  0  0  0  0  0
  -16.9174  -46.4139  -20.6473 C   0  0  0  0  0  0  0  0  0  0  0  0
  -17.8941  -46.9044  -21.4832 C   0  0  0  0  0  0  0  0  0  0  0  0
  -18.0546  -45.9768  -22.5303 C   0  0  0  0  0  0  0  0  0  0  0  0
  -17.1457  -44.9627  -22.3229 C   0  0  0  0  0  0  0  0  0  0  0  0
  -14.9296  -43.2760  -21.1978 C   0  0  0  0  0  0  0  0  0  0  0  0
  1  2  1  0
  2  3  1  0
  3  4  1  0
  4  5  2  0
  5  6  1  0
  6  7  2  0
  7  8  1  0
  8  9  1  1
  8 10  1  0
 10 11  1  0
 11 12  2  0
 11 13  1  0
 13 14  2  0
 14 15  1  0
 15 16  2  0
 16 17  1  0
 17 18  1  0
 18 19  1  0
 19 20  2  0
 20 21  1  0
 21 22  2  0
 17 23  2  0
  7  3  1  0
 23 13  1  0
 22 18  1  0
M  END
>  <id>  (409) 
376793

>  <inchikey>  (409) 
LGJWUFHYOMSSRU-ZDUSSCGKSA-N

>  <alias>  (409) 
None

>  <smiles>  (409) 
CCn1ccnc1[C@H](C)NC(=O)c1ccnc(-n2cccc2)c1

>  <path>  (409) 
/opt/xchem-fragalysis-2/maxwin/RdRp_FFF/syndirella/mar_elabs/elabs_026/DNLUSRYLIQAQAE-UHFFFAOYSA-N/output/DNLUSRYLIQAQAE-UHFFFAOYSA-N-HYVCVu-73-A/DNLUSRYLIQAQAE-UHFFFAOYSA-N-HYVCVu-73-A.minimised.mol

>  <distance_score>  (409) 
0.923943

>  <energy_score>  (409) 
-1.770931

>  <compound>  (409) 
LGJWUFHYOMSSRU-UHFFFAOYSA-N

>  <compound_id>  (409) 
94781

>  <target>  (409) 
Flavi_NS5_RdRp

>  <tags>  (409) 
[]

>  <inspirations>  (409) 
{P Ã— 2}

>  <subsites>  (409) 
None

>  <reference>  (409) 
d0472a

>  <SLURM_JOB_ID>  (409) 
nan

>  <SLURM_JOB_NAME>  (409) 
nan

>  <csv_name>  (409) 
nan

>  <scratch_subdir>  (409) 
nan

>  <fragmenstein_runtime>  (409) 
nan

>  <fragmenstein_outcome>  (409) 
nan

>  <fragmenstein_mode>  (409) 
nan

>  <fragmenstein_error>  (409) 
nan

>  <exports>  (409) 
nan

>  <Multi-SuCOS>  (409) 
nan

>  <merge_set>  (409) 
nan

$$$$
NLDLGHMPACNJKG-AWEZNQCLSA-N
     RDKit          3D

 23 25  0  0  0  0  0  0  0  0999 V2000
  -16.0313  -38.3258  -24.7106 C   0  0  0  0  0  0  0  0  0  0  0  0
  -15.9674  -39.0961  -23.4023 C   0  0  0  0  0  0  0  0  0  0  0  0
  -14.5359  -39.4765  -22.9893 C   0  0  2  0  0  0  0  0  0  0  0  0
  -14.5967  -40.5960  -22.0607 N   0  0  0  0  0  0  0  0  0  0  0  0
  -13.4719  -41.3601  -21.3411 C   0  0  0  0  0  0  0  0  0  0  0  0
  -12.3229  -41.1666  -21.3166 O   0  0  0  0  0  0  0  0  0  0  0  0
  -14.0099  -42.5851  -20.6679 C   0  0  0  0  0  0  0  0  0  0  0  0
  -13.5265  -42.9198  -19.4109 C   0  0  0  0  0  0  0  0  0  0  0  0
  -14.0498  -44.0426  -18.8022 C   0  0  0  0  0  0  0  0  0  0  0  0
  -14.9718  -44.8566  -19.3626 N   0  0  0  0  0  0  0  0  0  0  0  0
  -15.4300  -44.5202  -20.5975 C   0  0  0  0  0  0  0  0  0  0  0  0
  -16.4541  -45.3378  -21.1674 N   0  0  0  0  0  0  0  0  0  0  0  0
  -16.8939  -46.5418  -20.6443 C   0  0  0  0  0  0  0  0  0  0  0  0
  -17.8712  -47.0503  -21.4691 C   0  0  0  0  0  0  0  0  0  0  0  0
  -18.0877  -46.1146  -22.4980 C   0  0  0  0  0  0  0  0  0  0  0  0
  -17.2034  -45.0799  -22.2985 C   0  0  0  0  0  0  0  0  0  0  0  0
  -14.9569  -43.4086  -21.2897 C   0  0  0  0  0  0  0  0  0  0  0  0
  -13.7448  -38.3285  -22.4127 C   0  0  0  0  0  0  0  0  0  0  0  0
  -14.1303  -37.0768  -22.2459 N   0  0  0  0  0  0  0  0  0  0  0  0
  -13.0428  -36.3968  -21.7658 C   0  0  0  0  0  0  0  0  0  0  0  0
  -11.9591  -37.2309  -21.6507 C   0  0  0  0  0  0  0  0  0  0  0  0
  -10.5820  -36.9916  -21.1783 C   0  0  0  0  0  0  0  0  0  0  0  0
  -12.4239  -38.4593  -22.0413 N   0  0  0  0  0  0  0  0  0  0  0  0
  1  2  1  0
  3  2  1  1
  3  4  1  0
  4  5  1  0
  5  6  2  0
  5  7  1  0
  7  8  2  0
  8  9  1  0
  9 10  2  0
 10 11  1  0
 11 12  1  0
 12 13  1  0
 13 14  2  0
 14 15  1  0
 15 16  2  0
 11 17  2  0
  3 18  1  0
 18 19  2  0
 19 20  1  0
 20 21  2  0
 21 22  1  0
 21 23  1  0
 17  7  1  0
 23 18  1  0
 16 12  1  0
M  END
>  <id>  (410) 
376807

>  <inchikey>  (410) 
NLDLGHMPACNJKG-AWEZNQCLSA-N

>  <alias>  (410) 
None

>  <smiles>  (410) 
CC[C@H](NC(=O)c1ccnc(-n2cccc2)c1)c1ncc(C)[nH]1

>  <path>  (410) 
/opt/xchem-fragalysis-2/maxwin/RdRp_FFF/syndirella/mar_elabs/elabs_026/DNLUSRYLIQAQAE-UHFFFAOYSA-N/output/DNLUSRYLIQAQAE-UHFFFAOYSA-N-HYVCVu-84-A/DNLUSRYLIQAQAE-UHFFFAOYSA-N-HYVCVu-84-A.minimised.mol

>  <distance_score>  (410) 
0.873151

>  <energy_score>  (410) 
-28.710921

>  <compound>  (410) 
NLDLGHMPACNJKG-UHFFFAOYSA-N

>  <compound_id>  (410) 
94777

>  <target>  (410) 
Flavi_NS5_RdRp

>  <tags>  (410) 
[]

>  <inspirations>  (410) 
{P Ã— 2}

>  <subsites>  (410) 
None

>  <reference>  (410) 
d0472a

>  <SLURM_JOB_ID>  (410) 
nan

>  <SLURM_JOB_NAME>  (410) 
nan

>  <csv_name>  (410) 
nan

>  <scratch_subdir>  (410) 
nan

>  <fragmenstein_runtime>  (410) 
nan

>  <fragmenstein_outcome>  (410) 
nan

>  <fragmenstein_mode>  (410) 
nan

>  <fragmenstein_error>  (410) 
nan

>  <exports>  (410) 
nan

>  <Multi-SuCOS>  (410) 
nan

>  <merge_set>  (410) 
nan

$$$$
LTTZYOXAFHHQDY-ZDUSSCGKSA-N
     RDKit          3D

 23 25  0  0  0  0  0  0  0  0999 V2000
  -12.8090  -35.0103  -20.9727 C   0  0  0  0  0  0  0  0  0  0  0  0
  -12.7985  -36.3937  -21.4927 C   0  0  0  0  0  0  0  0  0  0  0  0
  -13.9253  -36.9659  -22.0384 N   0  0  0  0  0  0  0  0  0  0  0  0
  -13.6071  -38.2163  -22.3221 C   0  0  0  0  0  0  0  0  0  0  0  0
  -14.4662  -39.2804  -22.9520 C   0  0  2  0  0  0  0  0  0  0  0  0
  -15.8497  -38.7562  -23.3193 C   0  0  0  0  0  0  0  0  0  0  0  0
  -14.5726  -40.4519  -22.0925 N   0  0  0  0  0  0  0  0  0  0  0  0
  -13.4796  -41.2909  -21.4051 C   0  0  0  0  0  0  0  0  0  0  0  0
  -12.3254  -41.1328  -21.3543 O   0  0  0  0  0  0  0  0  0  0  0  0
  -14.0464  -42.5081  -20.7420 C   0  0  0  0  0  0  0  0  0  0  0  0
  -13.5215  -42.8801  -19.5094 C   0  0  0  0  0  0  0  0  0  0  0  0
  -14.0291  -44.0113  -18.9061 C   0  0  0  0  0  0  0  0  0  0  0  0
  -14.9746  -44.8040  -19.4525 N   0  0  0  0  0  0  0  0  0  0  0  0
  -15.4700  -44.4389  -20.6661 C   0  0  0  0  0  0  0  0  0  0  0  0
  -16.4931  -45.2663  -21.2251 N   0  0  0  0  0  0  0  0  0  0  0  0
  -16.9193  -46.4715  -20.6906 C   0  0  0  0  0  0  0  0  0  0  0  0
  -17.8999  -46.9945  -21.5019 C   0  0  0  0  0  0  0  0  0  0  0  0
  -18.1224  -46.0728  -22.5425 C   0  0  0  0  0  0  0  0  0  0  0  0
  -17.2477  -45.0270  -22.3558 C   0  0  0  0  0  0  0  0  0  0  0  0
  -15.0268  -43.3037  -21.3460 C   0  0  0  0  0  0  0  0  0  0  0  0
  -12.2873  -38.4444  -22.0109 N   0  0  0  0  0  0  0  0  0  0  0  0
  -11.7594  -37.2971  -21.4887 C   0  0  0  0  0  0  0  0  0  0  0  0
  -10.3714  -37.2046  -20.9943 C   0  0  0  0  0  0  0  0  0  0  0  0
  1  2  1  0
  2  3  1  0
  3  4  2  0
  4  5  1  0
  5  6  1  1
  5  7  1  0
  7  8  1  0
  8  9  2  0
  8 10  1  0
 10 11  2  0
 11 12  1  0
 12 13  2  0
 13 14  1  0
 14 15  1  0
 15 16  1  0
 16 17  2  0
 17 18  1  0
 18 19  2  0
 14 20  2  0
  4 21  1  0
 21 22  1  0
 22 23  1  0
 22  2  2  0
 20 10  1  0
 19 15  1  0
M  END
>  <id>  (411) 
376813

>  <inchikey>  (411) 
LTTZYOXAFHHQDY-ZDUSSCGKSA-N

>  <alias>  (411) 
None

>  <smiles>  (411) 
Cc1nc([C@H](C)NC(=O)c2ccnc(-n3cccc3)c2)[nH]c1C

>  <path>  (411) 
/opt/xchem-fragalysis-2/maxwin/RdRp_FFF/syndirella/mar_elabs/elabs_026/DNLUSRYLIQAQAE-UHFFFAOYSA-N/output/DNLUSRYLIQAQAE-UHFFFAOYSA-N-HYVCVu-89-A/DNLUSRYLIQAQAE-UHFFFAOYSA-N-HYVCVu-89-A.minimised.mol

>  <distance_score>  (411) 
0.888144

>  <energy_score>  (411) 
-9.848736

>  <compound>  (411) 
LTTZYOXAFHHQDY-UHFFFAOYSA-N

>  <compound_id>  (411) 
94804

>  <target>  (411) 
Flavi_NS5_RdRp

>  <tags>  (411) 
[]

>  <inspirations>  (411) 
{P Ã— 2}

>  <subsites>  (411) 
None

>  <reference>  (411) 
d0472a

>  <SLURM_JOB_ID>  (411) 
nan

>  <SLURM_JOB_NAME>  (411) 
nan

>  <csv_name>  (411) 
nan

>  <scratch_subdir>  (411) 
nan

>  <fragmenstein_runtime>  (411) 
nan

>  <fragmenstein_outcome>  (411) 
nan

>  <fragmenstein_mode>  (411) 
nan

>  <fragmenstein_error>  (411) 
nan

>  <exports>  (411) 
nan

>  <Multi-SuCOS>  (411) 
nan

>  <merge_set>  (411) 
nan

$$$$
NZXYTKVSVNEWJQ-ZIAGYGMSSA-N
     RDKit          3D

 21 23  0  0  0  0  0  0  0  0999 V2000
  -29.0155  -30.1830  -14.5281 C   0  0  0  0  0  0  0  0  0  0  0  0
  -28.1092  -29.9447  -15.6205 C   0  0  0  0  0  0  0  0  0  0  0  0
  -26.7139  -30.0213  -15.5808 C   0  0  0  0  0  0  0  0  0  0  0  0
  -26.3507  -29.8028  -16.8780 C   0  0  0  0  0  0  0  0  0  0  0  0
  -27.5246  -29.7576  -17.6038 N   0  0  0  0  0  0  0  0  0  0  0  0
  -27.6864  -29.9238  -18.9786 C   0  0  0  0  0  0  0  0  0  0  0  0
  -28.9114  -29.7133  -19.5939 C   0  0  0  0  0  0  0  0  0  0  0  0
  -28.9661  -29.7861  -20.9739 C   0  0  0  0  0  0  0  0  0  0  0  0
  -27.8314  -30.1472  -21.7150 C   0  0  0  0  0  0  0  0  0  0  0  0
  -26.6557  -30.4570  -21.0667 C   0  0  0  0  0  0  0  0  0  0  0  0
  -25.4580  -30.8073  -21.6405 N   0  0  0  0  0  0  0  0  0  0  0  0
  -25.0754  -30.9853  -23.1203 C   0  0  0  0  0  0  0  0  0  0  0  0
  -25.6790  -30.7934  -24.0642 O   0  0  0  0  0  0  0  0  0  0  0  0
  -23.6647  -31.5798  -22.9428 N   0  0  0  0  0  0  0  0  0  0  0  0
  -22.7688  -32.1381  -23.9037 C   0  0  2  0  0  0  0  0  0  0  0  0
  -23.3403  -33.2100  -24.8385 C   0  0  0  0  0  0  0  0  0  0  0  0
  -22.0333  -33.9820  -24.6048 C   0  0  0  0  0  0  0  0  0  0  0  0
  -21.9095  -33.2511  -23.2545 C   0  0  1  0  0  0  0  0  0  0  0  0
  -20.6094  -32.8341  -22.8053 O   0  0  0  0  0  0  0  0  0  0  0  0
  -26.5860  -30.3443  -19.7003 C   0  0  0  0  0  0  0  0  0  0  0  0
  -28.5936  -29.6278  -16.8123 N   0  0  0  0  0  0  0  0  0  0  0  0
  1  2  1  0
  2  3  1  0
  3  4  2  0
  4  5  1  0
  5  6  1  0
  6  7  2  0
  7  8  1  0
  8  9  2  0
  9 10  1  0
 10 11  1  0
 11 12  1  0
 12 13  2  0
 12 14  1  0
 15 14  1  1
 15 16  1  0
 16 17  1  0
 17 18  1  0
 18 19  1  6
 10 20  2  0
  5 21  1  0
 21  2  2  0
 20  6  1  0
 18 15  1  0
M  END
>  <id>  (412) 
385681

>  <inchikey>  (412) 
NZXYTKVSVNEWJQ-ZIAGYGMSSA-N

>  <alias>  (412) 
None

>  <smiles>  (412) 
Cc1ccn(-c2cccc(NC(=O)N[C@@H]3CC[C@H]3O)c2)n1

>  <path>  (412) 
/opt/xchem-fragalysis-2/maxwin/RdRp_FFF/syndirella/mar_elabs/elabs_056/LYBJDPXLKAGWQA-UHFFFAOYSA-N/output/LYBJDPXLKAGWQA-UHFFFAOYSA-N-LGh55t-113-C/LYBJDPXLKAGWQA-UHFFFAOYSA-N-LGh55t-113-C.minimised.mol

>  <distance_score>  (412) 
1.834936

>  <energy_score>  (412) 
-4.607455

>  <compound>  (412) 
NZXYTKVSVNEWJQ-UHFFFAOYSA-N

>  <compound_id>  (412) 
198450

>  <target>  (412) 
Flavi_NS5_RdRp

>  <tags>  (412) 
[]

>  <inspirations>  (412) 
{P Ã— 2}

>  <subsites>  (412) 
None

>  <reference>  (412) 
z0211a

>  <SLURM_JOB_ID>  (412) 
nan

>  <SLURM_JOB_NAME>  (412) 
nan

>  <csv_name>  (412) 
nan

>  <scratch_subdir>  (412) 
nan

>  <fragmenstein_runtime>  (412) 
nan

>  <fragmenstein_outcome>  (412) 
nan

>  <fragmenstein_mode>  (412) 
nan

>  <fragmenstein_error>  (412) 
nan

>  <exports>  (412) 
nan

>  <Multi-SuCOS>  (412) 
nan

>  <merge_set>  (412) 
nan

$$$$
LWXWTVPGODXXSB-ZDUSSCGKSA-N
     RDKit          3D

 21 23  0  0  0  0  0  0  0  0999 V2000
  -28.9471  -30.1361  -14.6663 C   0  0  0  0  0  0  0  0  0  0  0  0
  -27.9791  -29.9640  -15.7318 C   0  0  0  0  0  0  0  0  0  0  0  0
  -26.5922  -30.1466  -15.6497 C   0  0  0  0  0  0  0  0  0  0  0  0
  -26.1681  -30.0111  -16.9436 C   0  0  0  0  0  0  0  0  0  0  0  0
  -27.3058  -29.8659  -17.7102 N   0  0  0  0  0  0  0  0  0  0  0  0
  -27.4399  -30.0273  -19.0958 C   0  0  0  0  0  0  0  0  0  0  0  0
  -28.6158  -29.6407  -19.7269 C   0  0  0  0  0  0  0  0  0  0  0  0
  -28.6694  -29.7010  -21.1048 C   0  0  0  0  0  0  0  0  0  0  0  0
  -27.5933  -30.2270  -21.8319 C   0  0  0  0  0  0  0  0  0  0  0  0
  -26.4811  -30.7360  -21.1829 C   0  0  0  0  0  0  0  0  0  0  0  0
  -25.4309  -31.3813  -21.8150 N   0  0  0  0  0  0  0  0  0  0  0  0
  -25.0334  -31.4224  -23.3085 C   0  0  0  0  0  0  0  0  0  0  0  0
  -25.5616  -30.9917  -24.2270 O   0  0  0  0  0  0  0  0  0  0  0  0
  -23.7543  -32.2270  -23.2025 N   0  0  0  0  0  0  0  0  0  0  0  0
  -22.8830  -32.7661  -24.2452 C   0  0  0  0  0  0  0  0  0  0  0  0
  -21.6033  -33.2177  -23.5791 C   0  0  2  0  0  0  0  0  0  0  0  0
  -21.7833  -34.4707  -22.9405 O   0  0  0  0  0  0  0  0  0  0  0  0
  -21.4784  -32.1210  -22.5848 C   0  0  0  0  0  0  0  0  0  0  0  0
  -22.5850  -31.3489  -23.0313 O   0  0  0  0  0  0  0  0  0  0  0  0
  -26.3969  -30.6133  -19.8108 C   0  0  0  0  0  0  0  0  0  0  0  0
  -28.3858  -29.6209  -16.9486 N   0  0  0  0  0  0  0  0  0  0  0  0
  1  2  1  0
  2  3  1  0
  3  4  2  0
  4  5  1  0
  5  6  1  0
  6  7  2  0
  7  8  1  0
  8  9  2  0
  9 10  1  0
 10 11  1  0
 11 12  1  0
 12 13  2  0
 12 14  1  0
 14 15  1  0
 15 16  1  0
 16 17  1  1
 16 18  1  0
 18 19  1  0
 10 20  2  0
  5 21  1  0
 21  2  2  0
 20  6  1  0
 19 14  1  0
M  END
>  <id>  (413) 
385683

>  <inchikey>  (413) 
LWXWTVPGODXXSB-ZDUSSCGKSA-N

>  <alias>  (413) 
None

>  <smiles>  (413) 
Cc1ccn(-c2cccc(NC(=O)N3C[C@H](O)CO3)c2)n1

>  <path>  (413) 
/opt/xchem-fragalysis-2/maxwin/RdRp_FFF/syndirella/mar_elabs/elabs_056/LYBJDPXLKAGWQA-UHFFFAOYSA-N/output/LYBJDPXLKAGWQA-UHFFFAOYSA-N-LGh55t-132-A/LYBJDPXLKAGWQA-UHFFFAOYSA-N-LGh55t-132-A.minimised.mol

>  <distance_score>  (413) 
1.953652

>  <energy_score>  (413) 
-6.382398

>  <compound>  (413) 
LWXWTVPGODXXSB-UHFFFAOYSA-N

>  <compound_id>  (413) 
198460

>  <target>  (413) 
Flavi_NS5_RdRp

>  <tags>  (413) 
[]

>  <inspirations>  (413) 
{P Ã— 2}

>  <subsites>  (413) 
None

>  <reference>  (413) 
z0211a

>  <SLURM_JOB_ID>  (413) 
nan

>  <SLURM_JOB_NAME>  (413) 
nan

>  <csv_name>  (413) 
nan

>  <scratch_subdir>  (413) 
nan

>  <fragmenstein_runtime>  (413) 
nan

>  <fragmenstein_outcome>  (413) 
nan

>  <fragmenstein_mode>  (413) 
nan

>  <fragmenstein_error>  (413) 
nan

>  <exports>  (413) 
nan

>  <Multi-SuCOS>  (413) 
nan

>  <merge_set>  (413) 
nan

$$$$
AHAKITHXPAFSRH-CYBMUJFWSA-N
     RDKit          3D

 21 22  0  0  0  0  0  0  0  0999 V2000
  -29.0356  -30.1309  -14.8061 C   0  0  0  0  0  0  0  0  0  0  0  0
  -28.0239  -29.9071  -15.8071 C   0  0  0  0  0  0  0  0  0  0  0  0
  -26.6444  -30.1334  -15.7141 C   0  0  0  0  0  0  0  0  0  0  0  0
  -26.2068  -29.9709  -17.0028 C   0  0  0  0  0  0  0  0  0  0  0  0
  -27.3410  -29.7765  -17.7623 N   0  0  0  0  0  0  0  0  0  0  0  0
  -27.5266  -29.9718  -19.1317 C   0  0  0  0  0  0  0  0  0  0  0  0
  -28.7070  -29.5600  -19.7395 C   0  0  0  0  0  0  0  0  0  0  0  0
  -28.7952  -29.6075  -21.1143 C   0  0  0  0  0  0  0  0  0  0  0  0
  -27.7501  -30.1581  -21.8573 C   0  0  0  0  0  0  0  0  0  0  0  0
  -26.6701  -30.7341  -21.2161 C   0  0  0  0  0  0  0  0  0  0  0  0
  -25.6681  -31.4262  -21.8515 N   0  0  0  0  0  0  0  0  0  0  0  0
  -25.1825  -31.3633  -23.3145 C   0  0  0  0  0  0  0  0  0  0  0  0
  -25.5962  -30.7866  -24.2020 O   0  0  0  0  0  0  0  0  0  0  0  0
  -23.9163  -32.2298  -23.1934 N   0  0  0  0  0  0  0  0  0  0  0  0
  -22.8715  -32.4692  -24.1266 C   0  0  0  0  0  0  0  0  0  0  0  0
  -21.5416  -32.0303  -23.4885 C   0  0  1  0  0  0  0  0  0  0  0  0
  -21.7336  -31.3767  -22.2241 O   0  0  0  0  0  0  0  0  0  0  0  0
  -20.6828  -33.2371  -23.1964 C   0  0  0  0  0  0  0  0  0  0  0  0
  -21.3635  -34.1356  -22.3214 O   0  0  0  0  0  0  0  0  0  0  0  0
  -26.5412  -30.6222  -19.8510 C   0  0  0  0  0  0  0  0  0  0  0  0
  -28.3976  -29.4732  -17.0003 N   0  0  0  0  0  0  0  0  0  0  0  0
  1  2  1  0
  2  3  1  0
  3  4  2  0
  4  5  1  0
  5  6  1  0
  6  7  2  0
  7  8  1  0
  8  9  2  0
  9 10  1  0
 10 11  1  0
 11 12  1  0
 12 13  2  0
 12 14  1  0
 14 15  1  0
 15 16  1  0
 16 17  1  1
 16 18  1  0
 18 19  1  0
 10 20  2  0
  5 21  1  0
 21  2  2  0
 20  6  1  0
M  END
>  <id>  (414) 
385688

>  <inchikey>  (414) 
AHAKITHXPAFSRH-CYBMUJFWSA-N

>  <alias>  (414) 
None

>  <smiles>  (414) 
Cc1ccn(-c2cccc(NC(=O)NC[C@@H](O)CO)c2)n1

>  <path>  (414) 
/opt/xchem-fragalysis-2/maxwin/RdRp_FFF/syndirella/mar_elabs/elabs_056/LYBJDPXLKAGWQA-UHFFFAOYSA-N/output/LYBJDPXLKAGWQA-UHFFFAOYSA-N-LGh55t-142-B/LYBJDPXLKAGWQA-UHFFFAOYSA-N-LGh55t-142-B.minimised.mol

>  <distance_score>  (414) 
1.914189

>  <energy_score>  (414) 
-22.128071

>  <compound>  (414) 
AHAKITHXPAFSRH-UHFFFAOYSA-N

>  <compound_id>  (414) 
198470

>  <target>  (414) 
Flavi_NS5_RdRp

>  <tags>  (414) 
[]

>  <inspirations>  (414) 
{P Ã— 2}

>  <subsites>  (414) 
None

>  <reference>  (414) 
z0211a

>  <SLURM_JOB_ID>  (414) 
nan

>  <SLURM_JOB_NAME>  (414) 
nan

>  <csv_name>  (414) 
nan

>  <scratch_subdir>  (414) 
nan

>  <fragmenstein_runtime>  (414) 
nan

>  <fragmenstein_outcome>  (414) 
nan

>  <fragmenstein_mode>  (414) 
nan

>  <fragmenstein_error>  (414) 
nan

>  <exports>  (414) 
nan

>  <Multi-SuCOS>  (414) 
nan

>  <merge_set>  (414) 
nan

$$$$
WMXWKEABCZLJJM-UHFFFAOYSA-N
     RDKit          3D

 22 23  0  0  0  0  0  0  0  0999 V2000
  -22.4695  -34.4892  -21.8650 C   0  0  0  0  0  0  0  0  0  0  0  0
  -21.6474  -34.2045  -22.9840 O   0  0  0  0  0  0  0  0  0  0  0  0
  -21.6848  -32.8841  -23.5396 C   0  0  0  0  0  0  0  0  0  0  0  0
  -21.0962  -31.8742  -22.5402 C   0  0  0  0  0  0  0  0  0  0  0  0
  -20.7382  -32.9739  -24.7391 C   0  0  0  0  0  0  0  0  0  0  0  0
  -23.0749  -32.5355  -24.0990 C   0  0  0  0  0  0  0  0  0  0  0  0
  -23.9594  -32.0497  -23.0946 N   0  0  0  0  0  0  0  0  0  0  0  0
  -25.2089  -31.1617  -23.2125 C   0  0  0  0  0  0  0  0  0  0  0  0
  -25.7420  -30.7617  -24.1322 O   0  0  0  0  0  0  0  0  0  0  0  0
  -25.5800  -31.0564  -21.7218 N   0  0  0  0  0  0  0  0  0  0  0  0
  -26.6962  -30.5317  -21.1173 C   0  0  0  0  0  0  0  0  0  0  0  0
  -27.8338  -30.0836  -21.7554 C   0  0  0  0  0  0  0  0  0  0  0  0
  -28.9402  -29.6685  -21.0046 C   0  0  0  0  0  0  0  0  0  0  0  0
  -28.8790  -29.6493  -19.6236 C   0  0  0  0  0  0  0  0  0  0  0  0
  -27.6696  -29.9552  -19.0162 C   0  0  0  0  0  0  0  0  0  0  0  0
  -27.4956  -29.7997  -17.6403 N   0  0  0  0  0  0  0  0  0  0  0  0
  -26.3218  -29.8899  -16.9193 C   0  0  0  0  0  0  0  0  0  0  0  0
  -26.6884  -30.0743  -15.6165 C   0  0  0  0  0  0  0  0  0  0  0  0
  -28.0817  -29.9509  -15.6507 C   0  0  0  0  0  0  0  0  0  0  0  0
  -28.9960  -30.1628  -14.5555 C   0  0  0  0  0  0  0  0  0  0  0  0
  -28.5551  -29.6176  -16.8436 N   0  0  0  0  0  0  0  0  0  0  0  0
  -26.6087  -30.4556  -19.7484 C   0  0  0  0  0  0  0  0  0  0  0  0
  1  2  1  0
  2  3  1  0
  3  4  1  0
  3  5  1  0
  3  6  1  0
  6  7  1  0
  7  8  1  0
  8  9  2  0
  8 10  1  0
 10 11  1  0
 11 12  2  0
 12 13  1  0
 13 14  2  0
 14 15  1  0
 15 16  1  0
 16 17  1  0
 17 18  2  0
 18 19  1  0
 19 20  1  0
 19 21  2  0
 15 22  2  0
 22 11  1  0
 21 16  1  0
M  END
>  <id>  (415) 
385801

>  <inchikey>  (415) 
WMXWKEABCZLJJM-UHFFFAOYSA-N

>  <alias>  (415) 
None

>  <smiles>  (415) 
COC(C)(C)CNC(=O)Nc1cccc(-n2ccc(C)n2)c1

>  <path>  (415) 
/opt/xchem-fragalysis-2/maxwin/RdRp_FFF/syndirella/mar_elabs/elabs_056/LYBJDPXLKAGWQA-UHFFFAOYSA-N/output/LYBJDPXLKAGWQA-UHFFFAOYSA-N-LGh55t-1397-A/LYBJDPXLKAGWQA-UHFFFAOYSA-N-LGh55t-1397-A.minimised.mol

>  <distance_score>  (415) 
1.822359

>  <energy_score>  (415) 
-30.341738

>  <compound>  (415) 
WMXWKEABCZLJJM-UHFFFAOYSA-N

>  <compound_id>  (415) 
199284

>  <target>  (415) 
Flavi_NS5_RdRp

>  <tags>  (415) 
[]

>  <inspirations>  (415) 
{P Ã— 2}

>  <subsites>  (415) 
None

>  <reference>  (415) 
z0211a

>  <SLURM_JOB_ID>  (415) 
nan

>  <SLURM_JOB_NAME>  (415) 
nan

>  <csv_name>  (415) 
nan

>  <scratch_subdir>  (415) 
nan

>  <fragmenstein_runtime>  (415) 
nan

>  <fragmenstein_outcome>  (415) 
nan

>  <fragmenstein_mode>  (415) 
nan

>  <fragmenstein_error>  (415) 
nan

>  <exports>  (415) 
nan

>  <Multi-SuCOS>  (415) 
nan

>  <merge_set>  (415) 
nan

$$$$
BETDDCGAKFABDT-BXUZGUMPSA-N
     RDKit          3D

 22 23  0  0  0  0  0  0  0  0999 V2000
  -28.9196  -30.1551  -14.6510 C   0  0  0  0  0  0  0  0  0  0  0  0
  -27.9887  -29.9673  -15.7470 C   0  0  0  0  0  0  0  0  0  0  0  0
  -26.5981  -30.1400  -15.7216 C   0  0  0  0  0  0  0  0  0  0  0  0
  -26.2231  -29.9914  -17.0306 C   0  0  0  0  0  0  0  0  0  0  0  0
  -27.3863  -29.8310  -17.7502 N   0  0  0  0  0  0  0  0  0  0  0  0
  -27.5860  -29.9516  -19.1336 C   0  0  0  0  0  0  0  0  0  0  0  0
  -28.8169  -29.6026  -19.6783 C   0  0  0  0  0  0  0  0  0  0  0  0
  -28.9648  -29.6234  -21.0481 C   0  0  0  0  0  0  0  0  0  0  0  0
  -27.9297  -30.1070  -21.8518 C   0  0  0  0  0  0  0  0  0  0  0  0
  -26.7708  -30.6112  -21.2908 C   0  0  0  0  0  0  0  0  0  0  0  0
  -25.8458  -31.2967  -22.0603 N   0  0  0  0  0  0  0  0  0  0  0  0
  -24.5030  -31.9698  -21.6575 C   0  0  0  0  0  0  0  0  0  0  0  0
  -23.9565  -31.9786  -20.6607 O   0  0  0  0  0  0  0  0  0  0  0  0
  -24.1826  -32.7052  -22.9772 N   0  0  0  0  0  0  0  0  0  0  0  0
  -23.1508  -33.6860  -23.2837 C   0  0  2  0  0  0  0  0  0  0  0  0
  -23.3752  -34.9616  -22.4566 C   0  0  0  0  0  0  0  0  0  0  0  0
  -24.6881  -35.4729  -22.7182 O   0  0  0  0  0  0  0  0  0  0  0  0
  -21.7274  -33.1337  -23.0503 C   0  0  1  0  0  0  0  0  0  0  0  0
  -21.4193  -31.9732  -23.9597 C   0  0  0  0  0  0  0  0  0  0  0  0
  -21.4446  -32.7748  -21.7049 O   0  0  0  0  0  0  0  0  0  0  0  0
  -26.5745  -30.4794  -19.9304 C   0  0  0  0  0  0  0  0  0  0  0  0
  -28.4470  -29.6217  -16.9440 N   0  0  0  0  0  0  0  0  0  0  0  0
  1  2  1  0
  2  3  1  0
  3  4  2  0
  4  5  1  0
  5  6  1  0
  6  7  2  0
  7  8  1  0
  8  9  2  0
  9 10  1  0
 10 11  1  0
 11 12  1  0
 12 13  2  0
 12 14  1  0
 14 15  1  0
 15 16  1  1
 16 17  1  0
 15 18  1  0
 18 19  1  6
 18 20  1  0
 10 21  2  0
  5 22  1  0
 22  2  2  0
 21  6  1  0
M  END
>  <id>  (416) 
385803

>  <inchikey>  (416) 
BETDDCGAKFABDT-BXUZGUMPSA-N

>  <alias>  (416) 
None

>  <smiles>  (416) 
Cc1ccn(-c2cccc(NC(=O)N[C@H](CO)[C@@H](C)O)c2)n1

>  <path>  (416) 
/opt/xchem-fragalysis-2/maxwin/RdRp_FFF/syndirella/mar_elabs/elabs_056/LYBJDPXLKAGWQA-UHFFFAOYSA-N/output/LYBJDPXLKAGWQA-UHFFFAOYSA-N-LGh55t-1399-C/LYBJDPXLKAGWQA-UHFFFAOYSA-N-LGh55t-1399-C.minimised.mol

>  <distance_score>  (416) 
1.945141

>  <energy_score>  (416) 
-10.188535

>  <compound>  (416) 
BETDDCGAKFABDT-UHFFFAOYSA-N

>  <compound_id>  (416) 
199286

>  <target>  (416) 
Flavi_NS5_RdRp

>  <tags>  (416) 
[]

>  <inspirations>  (416) 
{P Ã— 2}

>  <subsites>  (416) 
None

>  <reference>  (416) 
z0211a

>  <SLURM_JOB_ID>  (416) 
nan

>  <SLURM_JOB_NAME>  (416) 
nan

>  <csv_name>  (416) 
nan

>  <scratch_subdir>  (416) 
nan

>  <fragmenstein_runtime>  (416) 
nan

>  <fragmenstein_outcome>  (416) 
nan

>  <fragmenstein_mode>  (416) 
nan

>  <fragmenstein_error>  (416) 
nan

>  <exports>  (416) 
nan

>  <Multi-SuCOS>  (416) 
nan

>  <merge_set>  (416) 
nan

$$$$
YQEHXWQBQAAZSP-MRXNPFEDSA-N
     RDKit          3D

 22 23  0  0  0  0  0  0  0  0999 V2000
  -20.8662  -33.3666  -25.6695 C   0  0  0  0  0  0  0  0  0  0  0  0
  -20.8571  -33.2983  -24.1412 C   0  0  0  0  0  0  0  0  0  0  0  0
  -21.7343  -32.2068  -23.5286 C   0  0  1  0  0  0  0  0  0  0  0  0
  -21.5906  -32.2522  -22.0051 C   0  0  0  0  0  0  0  0  0  0  0  0
  -21.2234  -30.9507  -23.9719 O   0  0  0  0  0  0  0  0  0  0  0  0
  -23.1598  -32.4777  -24.0526 C   0  0  0  0  0  0  0  0  0  0  0  0
  -24.2148  -31.7295  -23.4684 N   0  0  0  0  0  0  0  0  0  0  0  0
  -24.8262  -31.8132  -22.1371 C   0  0  0  0  0  0  0  0  0  0  0  0
  -24.5350  -32.4670  -21.2124 O   0  0  0  0  0  0  0  0  0  0  0  0
  -25.9428  -30.8649  -22.3193 N   0  0  0  0  0  0  0  0  0  0  0  0
  -26.8929  -30.4175  -21.4338 C   0  0  0  0  0  0  0  0  0  0  0  0
  -28.0731  -29.8785  -21.9218 C   0  0  0  0  0  0  0  0  0  0  0  0
  -29.0804  -29.5012  -21.0447 C   0  0  0  0  0  0  0  0  0  0  0  0
  -28.8523  -29.5816  -19.6816 C   0  0  0  0  0  0  0  0  0  0  0  0
  -27.5958  -29.9700  -19.2048 C   0  0  0  0  0  0  0  0  0  0  0  0
  -27.3195  -29.8722  -17.8322 N   0  0  0  0  0  0  0  0  0  0  0  0
  -26.1266  -30.0536  -17.1668 C   0  0  0  0  0  0  0  0  0  0  0  0
  -26.4449  -30.1771  -15.8359 C   0  0  0  0  0  0  0  0  0  0  0  0
  -27.8352  -29.9797  -15.7994 C   0  0  0  0  0  0  0  0  0  0  0  0
  -28.7646  -30.1727  -14.6937 C   0  0  0  0  0  0  0  0  0  0  0  0
  -28.3250  -29.6109  -16.9770 N   0  0  0  0  0  0  0  0  0  0  0  0
  -26.6372  -30.4615  -20.0747 C   0  0  0  0  0  0  0  0  0  0  0  0
  1  2  1  0
  2  3  1  0
  3  4  1  1
  3  5  1  0
  3  6  1  0
  6  7  1  0
  7  8  1  0
  8  9  2  0
  8 10  1  0
 10 11  1  0
 11 12  2  0
 12 13  1  0
 13 14  2  0
 14 15  1  0
 15 16  1  0
 16 17  1  0
 17 18  2  0
 18 19  1  0
 19 20  1  0
 19 21  2  0
 15 22  2  0
 22 11  1  0
 21 16  1  0
M  END
>  <id>  (417) 
385807

>  <inchikey>  (417) 
YQEHXWQBQAAZSP-MRXNPFEDSA-N

>  <alias>  (417) 
None

>  <smiles>  (417) 
CC[C@@](C)(O)CNC(=O)Nc1cccc(-n2ccc(C)n2)c1

>  <path>  (417) 
/opt/xchem-fragalysis-2/maxwin/RdRp_FFF/syndirella/mar_elabs/elabs_056/LYBJDPXLKAGWQA-UHFFFAOYSA-N/output/LYBJDPXLKAGWQA-UHFFFAOYSA-N-LGh55t-1432-B/LYBJDPXLKAGWQA-UHFFFAOYSA-N-LGh55t-1432-B.minimised.mol

>  <distance_score>  (417) 
1.986786

>  <energy_score>  (417) 
-28.194469

>  <compound>  (417) 
YQEHXWQBQAAZSP-UHFFFAOYSA-N

>  <compound_id>  (417) 
199319

>  <target>  (417) 
Flavi_NS5_RdRp

>  <tags>  (417) 
[]

>  <inspirations>  (417) 
{P Ã— 2}

>  <subsites>  (417) 
None

>  <reference>  (417) 
z0211a

>  <SLURM_JOB_ID>  (417) 
nan

>  <SLURM_JOB_NAME>  (417) 
nan

>  <csv_name>  (417) 
nan

>  <scratch_subdir>  (417) 
nan

>  <fragmenstein_runtime>  (417) 
nan

>  <fragmenstein_outcome>  (417) 
nan

>  <fragmenstein_mode>  (417) 
nan

>  <fragmenstein_error>  (417) 
nan

>  <exports>  (417) 
nan

>  <Multi-SuCOS>  (417) 
nan

>  <merge_set>  (417) 
nan

$$$$
YPBLQXQNWBXTAK-NSHDSACASA-N
     RDKit          3D

 20 21  0  0  0  0  0  0  0  0999 V2000
  -27.1753  -30.1734  -22.7476 C   0  0  0  0  0  0  0  0  0  0  0  0
  -27.4000  -30.3026  -21.2665 C   0  0  0  0  0  0  0  0  0  0  0  0
  -28.6376  -29.8691  -20.7424 C   0  0  0  0  0  0  0  0  0  0  0  0
  -28.8356  -29.7214  -19.3778 C   0  0  0  0  0  0  0  0  0  0  0  0
  -27.7457  -29.8807  -18.5390 C   0  0  0  0  0  0  0  0  0  0  0  0
  -27.8814  -29.7688  -17.1420 N   0  0  0  0  0  0  0  0  0  0  0  0
  -26.8874  -29.9661  -16.2105 C   0  0  0  0  0  0  0  0  0  0  0  0
  -27.5298  -30.3884  -15.0813 C   0  0  0  0  0  0  0  0  0  0  0  0
  -28.8793  -30.1229  -15.3236 C   0  0  0  0  0  0  0  0  0  0  0  0
  -29.0927  -29.6447  -16.5490 N   0  0  0  0  0  0  0  0  0  0  0  0
  -26.5160  -30.2988  -19.0498 C   0  0  0  0  0  0  0  0  0  0  0  0
  -26.3646  -30.6042  -20.3867 C   0  0  0  0  0  0  0  0  0  0  0  0
  -25.1500  -31.1941  -20.7073 N   0  0  0  0  0  0  0  0  0  0  0  0
  -24.8163  -32.3164  -21.7235 C   0  0  0  0  0  0  0  0  0  0  0  0
  -25.4823  -32.8459  -22.4788 O   0  0  0  0  0  0  0  0  0  0  0  0
  -23.2952  -32.4318  -21.4799 N   0  0  0  0  0  0  0  0  0  0  0  0
  -22.2933  -33.1631  -22.1976 C   0  0  0  0  0  0  0  0  0  0  0  0
  -21.8161  -32.2692  -23.3410 C   0  0  2  0  0  0  0  0  0  0  0  0
  -20.9873  -33.0335  -24.3440 C   0  0  0  0  0  0  0  0  0  0  0  0
  -21.0027  -31.2318  -22.7945 O   0  0  0  0  0  0  0  0  0  0  0  0
  1  2  1  0
  2  3  2  0
  3  4  1  0
  4  5  2  0
  5  6  1  0
  6  7  1  0
  7  8  2  0
  8  9  1  0
  9 10  2  0
  5 11  1  0
 11 12  2  0
 12 13  1  0
 13 14  1  0
 14 15  2  0
 14 16  1  0
 16 17  1  0
 17 18  1  0
 18 19  1  6
 18 20  1  0
 12  2  1  0
 10  6  1  0
M  END
>  <id>  (418) 
385954

>  <inchikey>  (418) 
YPBLQXQNWBXTAK-NSHDSACASA-N

>  <alias>  (418) 
None

>  <smiles>  (418) 
Cc1ccc(-n2cccn2)cc1NC(=O)NC[C@H](C)O

>  <path>  (418) 
/opt/xchem-fragalysis-2/maxwin/RdRp_FFF/syndirella/mar_elabs/elabs_055/QLFFONPVDDKJCE-UHFFFAOYSA-N/output/QLFFONPVDDKJCE-UHFFFAOYSA-N-9smtnz-69-A/QLFFONPVDDKJCE-UHFFFAOYSA-N-9smtnz-69-A.minimised.mol

>  <distance_score>  (418) 
1.817921

>  <energy_score>  (418) 
-6.117413

>  <compound>  (418) 
YPBLQXQNWBXTAK-UHFFFAOYSA-N

>  <compound_id>  (418) 
201268

>  <target>  (418) 
Flavi_NS5_RdRp

>  <tags>  (418) 
[]

>  <inspirations>  (418) 
{P Ã— 2}

>  <subsites>  (418) 
None

>  <reference>  (418) 
z0211a

>  <SLURM_JOB_ID>  (418) 
nan

>  <SLURM_JOB_NAME>  (418) 
nan

>  <csv_name>  (418) 
nan

>  <scratch_subdir>  (418) 
nan

>  <fragmenstein_runtime>  (418) 
nan

>  <fragmenstein_outcome>  (418) 
nan

>  <fragmenstein_mode>  (418) 
nan

>  <fragmenstein_error>  (418) 
nan

>  <exports>  (418) 
nan

>  <Multi-SuCOS>  (418) 
nan

>  <merge_set>  (418) 
nan

$$$$
JCRAPXLSPGBXAI-CYBMUJFWSA-N
     RDKit          3D

 20 21  0  0  0  0  0  0  0  0999 V2000
  -21.0113  -33.3314  -25.5056 C   0  0  0  0  0  0  0  0  0  0  0  0
  -21.1082  -33.3483  -23.9789 C   0  0  0  0  0  0  0  0  0  0  0  0
  -22.0084  -32.2595  -23.4078 C   0  0  1  0  0  0  0  0  0  0  0  0
  -21.4354  -31.0197  -23.8053 O   0  0  0  0  0  0  0  0  0  0  0  0
  -23.4338  -32.4560  -23.9403 C   0  0  0  0  0  0  0  0  0  0  0  0
  -24.4490  -31.6847  -23.2882 N   0  0  0  0  0  0  0  0  0  0  0  0
  -24.7955  -31.5587  -21.8571 C   0  0  0  0  0  0  0  0  0  0  0  0
  -24.2687  -32.0020  -20.9100 O   0  0  0  0  0  0  0  0  0  0  0  0
  -26.0460  -30.7630  -21.9755 N   0  0  0  0  0  0  0  0  0  0  0  0
  -26.9741  -30.3854  -21.0152 C   0  0  0  0  0  0  0  0  0  0  0  0
  -28.2135  -29.9384  -21.4627 C   0  0  0  0  0  0  0  0  0  0  0  0
  -29.2276  -29.6482  -20.5603 C   0  0  0  0  0  0  0  0  0  0  0  0
  -28.9677  -29.7116  -19.1991 C   0  0  0  0  0  0  0  0  0  0  0  0
  -27.6812  -30.0223  -18.7429 C   0  0  0  0  0  0  0  0  0  0  0  0
  -27.4220  -29.9687  -17.3503 N   0  0  0  0  0  0  0  0  0  0  0  0
  -26.2311  -30.1843  -16.6898 C   0  0  0  0  0  0  0  0  0  0  0  0
  -26.5324  -30.2757  -15.3520 C   0  0  0  0  0  0  0  0  0  0  0  0
  -27.9057  -30.0095  -15.2823 C   0  0  0  0  0  0  0  0  0  0  0  0
  -28.4340  -29.7351  -16.4721 N   0  0  0  0  0  0  0  0  0  0  0  0
  -26.6920  -30.4128  -19.6532 C   0  0  0  0  0  0  0  0  0  0  0  0
  1  2  1  0
  2  3  1  0
  3  4  1  6
  3  5  1  0
  5  6  1  0
  6  7  1  0
  7  8  2  0
  7  9  1  0
  9 10  1  0
 10 11  2  0
 11 12  1  0
 12 13  2  0
 13 14  1  0
 14 15  1  0
 15 16  1  0
 16 17  2  0
 17 18  1  0
 18 19  2  0
 14 20  2  0
 20 10  1  0
 19 15  1  0
M  END
>  <id>  (419) 
385989

>  <inchikey>  (419) 
JCRAPXLSPGBXAI-CYBMUJFWSA-N

>  <alias>  (419) 
None

>  <smiles>  (419) 
CC[C@@H](O)CNC(=O)Nc1cccc(-n2cccn2)c1

>  <path>  (419) 
/opt/xchem-fragalysis-2/maxwin/RdRp_FFF/syndirella/mar_elabs/elabs_055/QLFFONPVDDKJCE-UHFFFAOYSA-N/output/QLFFONPVDDKJCE-UHFFFAOYSA-N-9smtnz-208-B/QLFFONPVDDKJCE-UHFFFAOYSA-N-9smtnz-208-B.minimised.mol

>  <distance_score>  (419) 
1.868613

>  <energy_score>  (419) 
-17.191236

>  <compound>  (419) 
JCRAPXLSPGBXAI-UHFFFAOYSA-N

>  <compound_id>  (419) 
201379

>  <target>  (419) 
Flavi_NS5_RdRp

>  <tags>  (419) 
[]

>  <inspirations>  (419) 
{P Ã— 2}

>  <subsites>  (419) 
None

>  <reference>  (419) 
z0211a

>  <SLURM_JOB_ID>  (419) 
nan

>  <SLURM_JOB_NAME>  (419) 
nan

>  <csv_name>  (419) 
nan

>  <scratch_subdir>  (419) 
nan

>  <fragmenstein_runtime>  (419) 
nan

>  <fragmenstein_outcome>  (419) 
nan

>  <fragmenstein_mode>  (419) 
nan

>  <fragmenstein_error>  (419) 
nan

>  <exports>  (419) 
nan

>  <Multi-SuCOS>  (419) 
nan

>  <merge_set>  (419) 
nan

$$$$
ZBMBWPDSPWHKGQ-LBPRGKRZSA-N
     RDKit          3D

 20 21  0  0  0  0  0  0  0  0999 V2000
  -24.9784  -32.1484  -23.1296 O   0  0  0  0  0  0  0  0  0  0  0  0
  -24.4990  -32.1998  -22.0632 C   0  0  0  0  0  0  0  0  0  0  0  0
  -23.2759  -32.8899  -21.5985 N   0  0  0  0  0  0  0  0  0  0  0  0
  -22.2740  -33.6128  -22.3282 C   0  0  0  0  0  0  0  0  0  0  0  0
  -21.2443  -32.6105  -22.8501 C   0  0  1  0  0  0  0  0  0  0  0  0
  -19.9353  -33.0011  -22.4338 O   0  0  0  0  0  0  0  0  0  0  0  0
  -21.3339  -32.4553  -24.3594 C   0  0  0  0  0  0  0  0  0  0  0  0
  -21.2144  -33.6555  -24.9880 F   0  0  0  0  0  0  0  0  0  0  0  0
  -24.9390  -31.5934  -20.7874 N   0  0  0  0  0  0  0  0  0  0  0  0
  -26.0801  -30.8757  -20.4728 C   0  0  0  0  0  0  0  0  0  0  0  0
  -27.0941  -30.5653  -21.3674 C   0  0  0  0  0  0  0  0  0  0  0  0
  -28.2674  -29.9600  -20.9022 C   0  0  0  0  0  0  0  0  0  0  0  0
  -28.4329  -29.6877  -19.5452 C   0  0  0  0  0  0  0  0  0  0  0  0
  -27.3808  -29.9383  -18.6677 C   0  0  0  0  0  0  0  0  0  0  0  0
  -27.5288  -29.7644  -17.2751 N   0  0  0  0  0  0  0  0  0  0  0  0
  -26.5447  -29.9256  -16.3258 C   0  0  0  0  0  0  0  0  0  0  0  0
  -27.1928  -30.2087  -15.1558 C   0  0  0  0  0  0  0  0  0  0  0  0
  -28.5448  -29.9772  -15.4344 C   0  0  0  0  0  0  0  0  0  0  0  0
  -28.7452  -29.5986  -16.6989 N   0  0  0  0  0  0  0  0  0  0  0  0
  -26.1991  -30.5087  -19.1418 C   0  0  0  0  0  0  0  0  0  0  0  0
  1  2  2  0
  2  3  1  0
  3  4  1  0
  4  5  1  0
  5  6  1  6
  5  7  1  0
  7  8  1  0
  2  9  1  0
  9 10  1  0
 10 11  2  0
 11 12  1  0
 12 13  2  0
 13 14  1  0
 14 15  1  0
 15 16  1  0
 16 17  2  0
 17 18  1  0
 18 19  2  0
 14 20  2  0
 20 10  1  0
 19 15  1  0
M  END
>  <id>  (420) 
385996

>  <inchikey>  (420) 
ZBMBWPDSPWHKGQ-LBPRGKRZSA-N

>  <alias>  (420) 
None

>  <smiles>  (420) 
O=C(NC[C@@H](O)CF)Nc1cccc(-n2cccn2)c1

>  <path>  (420) 
/opt/xchem-fragalysis-2/maxwin/RdRp_FFF/syndirella/mar_elabs/elabs_055/QLFFONPVDDKJCE-UHFFFAOYSA-N/output/QLFFONPVDDKJCE-UHFFFAOYSA-N-9smtnz-239-B/QLFFONPVDDKJCE-UHFFFAOYSA-N-9smtnz-239-B.minimised.mol

>  <distance_score>  (420) 
1.993323

>  <energy_score>  (420) 
-23.375257

>  <compound>  (420) 
ZBMBWPDSPWHKGQ-UHFFFAOYSA-N

>  <compound_id>  (420) 
201410

>  <target>  (420) 
Flavi_NS5_RdRp

>  <tags>  (420) 
[]

>  <inspirations>  (420) 
{P Ã— 2}

>  <subsites>  (420) 
None

>  <reference>  (420) 
z0211a

>  <SLURM_JOB_ID>  (420) 
nan

>  <SLURM_JOB_NAME>  (420) 
nan

>  <csv_name>  (420) 
nan

>  <scratch_subdir>  (420) 
nan

>  <fragmenstein_runtime>  (420) 
nan

>  <fragmenstein_outcome>  (420) 
nan

>  <fragmenstein_mode>  (420) 
nan

>  <fragmenstein_error>  (420) 
nan

>  <exports>  (420) 
nan

>  <Multi-SuCOS>  (420) 
nan

>  <merge_set>  (420) 
nan

$$$$
UTXSDMSNAFDQIE-LBPRGKRZSA-N
     RDKit          3D

 21 22  0  0  0  0  0  0  0  0999 V2000
  -29.1004  -30.1656  -14.6054 C   0  0  0  0  0  0  0  0  0  0  0  0
  -28.2387  -29.9447  -15.7377 C   0  0  0  0  0  0  0  0  0  0  0  0
  -26.8458  -29.9774  -15.6861 C   0  0  0  0  0  0  0  0  0  0  0  0
  -26.4767  -29.7798  -16.9844 C   0  0  0  0  0  0  0  0  0  0  0  0
  -25.1296  -29.5484  -17.5254 C   0  0  0  0  0  0  0  0  0  0  0  0
  -27.6449  -29.8351  -17.7262 N   0  0  0  0  0  0  0  0  0  0  0  0
  -27.7665  -30.1274  -19.0861 C   0  0  0  0  0  0  0  0  0  0  0  0
  -28.8081  -29.6373  -19.8412 C   0  0  0  0  0  0  0  0  0  0  0  0
  -28.6779  -29.7051  -21.2160 C   0  0  0  0  0  0  0  0  0  0  0  0
  -27.5844  -30.3619  -21.8075 C   0  0  0  0  0  0  0  0  0  0  0  0
  -26.6806  -31.0414  -21.0188 C   0  0  0  0  0  0  0  0  0  0  0  0
  -25.6426  -31.8445  -21.4440 N   0  0  0  0  0  0  0  0  0  0  0  0
  -24.9917  -31.9826  -22.8341 C   0  0  0  0  0  0  0  0  0  0  0  0
  -25.2736  -31.5088  -23.8277 O   0  0  0  0  0  0  0  0  0  0  0  0
  -23.8427  -32.9531  -22.4809 N   0  0  0  0  0  0  0  0  0  0  0  0
  -22.7688  -33.4437  -23.2817 C   0  0  0  0  0  0  0  0  0  0  0  0
  -21.8888  -32.2648  -23.6755 C   0  0  2  0  0  0  0  0  0  0  0  0
  -20.7789  -32.7385  -24.5780 C   0  0  0  0  0  0  0  0  0  0  0  0
  -21.3132  -31.6604  -22.5149 O   0  0  0  0  0  0  0  0  0  0  0  0
  -26.7806  -30.9188  -19.6572 C   0  0  0  0  0  0  0  0  0  0  0  0
  -28.7294  -29.6941  -16.9483 N   0  0  0  0  0  0  0  0  0  0  0  0
  1  2  1  0
  2  3  1  0
  3  4  2  0
  4  5  1  0
  4  6  1  0
  6  7  1  0
  7  8  2  0
  8  9  1  0
  9 10  2  0
 10 11  1  0
 11 12  1  0
 12 13  1  0
 13 14  2  0
 13 15  1  0
 15 16  1  0
 16 17  1  0
 17 18  1  6
 17 19  1  0
 11 20  2  0
  6 21  1  0
 21  2  2  0
 20  7  1  0
M  END
>  <id>  (421) 
386109

>  <inchikey>  (421) 
UTXSDMSNAFDQIE-LBPRGKRZSA-N

>  <alias>  (421) 
None

>  <smiles>  (421) 
Cc1cc(C)n(-c2cccc(NC(=O)NC[C@H](C)O)c2)n1

>  <path>  (421) 
/opt/xchem-fragalysis-2/maxwin/RdRp_FFF/syndirella/mar_elabs/elabs_055/QLFFONPVDDKJCE-UHFFFAOYSA-N/output/QLFFONPVDDKJCE-UHFFFAOYSA-N-9smtnz-1240-A/QLFFONPVDDKJCE-UHFFFAOYSA-N-9smtnz-1240-A.minimised.mol

>  <distance_score>  (421) 
1.862694

>  <energy_score>  (421) 
-5.52143

>  <compound>  (421) 
UTXSDMSNAFDQIE-UHFFFAOYSA-N

>  <compound_id>  (421) 
198377

>  <target>  (421) 
Flavi_NS5_RdRp

>  <tags>  (421) 
[]

>  <inspirations>  (421) 
{P Ã— 2}

>  <subsites>  (421) 
None

>  <reference>  (421) 
z0211a

>  <SLURM_JOB_ID>  (421) 
nan

>  <SLURM_JOB_NAME>  (421) 
nan

>  <csv_name>  (421) 
nan

>  <scratch_subdir>  (421) 
nan

>  <fragmenstein_runtime>  (421) 
nan

>  <fragmenstein_outcome>  (421) 
nan

>  <fragmenstein_mode>  (421) 
nan

>  <fragmenstein_error>  (421) 
nan

>  <exports>  (421) 
nan

>  <Multi-SuCOS>  (421) 
nan

>  <merge_set>  (421) 
nan

$$$$
JLRFXRZAFGHPDK-LBPRGKRZSA-N
     RDKit          3D

 21 22  0  0  0  0  0  0  0  0999 V2000
  -28.0045  -29.7835  -22.4867 C   0  0  0  0  0  0  0  0  0  0  0  0
  -27.8498  -30.0124  -21.0364 C   0  0  0  0  0  0  0  0  0  0  0  0
  -28.9815  -29.7053  -20.2547 C   0  0  0  0  0  0  0  0  0  0  0  0
  -28.9130  -29.7147  -18.8877 C   0  0  0  0  0  0  0  0  0  0  0  0
  -27.6882  -29.9900  -18.3092 C   0  0  0  0  0  0  0  0  0  0  0  0
  -27.5898  -29.9568  -16.9097 N   0  0  0  0  0  0  0  0  0  0  0  0
  -26.4862  -30.2520  -16.1478 C   0  0  0  0  0  0  0  0  0  0  0  0
  -26.9692  -30.5639  -14.9070 C   0  0  0  0  0  0  0  0  0  0  0  0
  -28.3229  -30.2046  -14.9510 C   0  0  0  0  0  0  0  0  0  0  0  0
  -28.6853  -29.7430  -16.1416 N   0  0  0  0  0  0  0  0  0  0  0  0
  -26.5879  -30.3969  -19.0798 C   0  0  0  0  0  0  0  0  0  0  0  0
  -26.6611  -30.4496  -20.4597 C   0  0  0  0  0  0  0  0  0  0  0  0
  -25.5136  -30.9475  -21.1004 N   0  0  0  0  0  0  0  0  0  0  0  0
  -25.1627  -31.0370  -22.6208 C   0  0  0  0  0  0  0  0  0  0  0  0
  -25.7283  -30.6500  -23.5294 O   0  0  0  0  0  0  0  0  0  0  0  0
  -23.8613  -31.8587  -22.5330 N   0  0  0  0  0  0  0  0  0  0  0  0
  -22.9596  -32.2783  -23.5606 C   0  0  0  0  0  0  0  0  0  0  0  0
  -21.5153  -32.3546  -23.0860 C   0  0  1  0  0  0  0  0  0  0  0  0
  -21.1499  -31.2375  -22.2800 O   0  0  0  0  0  0  0  0  0  0  0  0
  -21.2180  -33.6437  -22.3341 C   0  0  0  0  0  0  0  0  0  0  0  0
  -22.1890  -33.8614  -20.8469 Cl  0  0  0  0  0  0  0  0  0  0  0  0
  1  2  1  0
  2  3  2  0
  3  4  1  0
  4  5  2  0
  5  6  1  0
  6  7  1  0
  7  8  2  0
  8  9  1  0
  9 10  2  0
  5 11  1  0
 11 12  2  0
 12 13  1  0
 13 14  1  0
 14 15  2  0
 14 16  1  0
 16 17  1  0
 17 18  1  0
 18 19  1  1
 18 20  1  0
 20 21  1  0
 12  2  1  0
 10  6  1  0
M  END
>  <id>  (422) 
386160

>  <inchikey>  (422) 
JLRFXRZAFGHPDK-LBPRGKRZSA-N

>  <alias>  (422) 
None

>  <smiles>  (422) 
Cc1ccc(-n2cccn2)cc1NC(=O)NC[C@@H](O)CCl

>  <path>  (422) 
/opt/xchem-fragalysis-2/maxwin/RdRp_FFF/syndirella/mar_elabs/elabs_055/QLFFONPVDDKJCE-UHFFFAOYSA-N/output/QLFFONPVDDKJCE-UHFFFAOYSA-N-9smtnz-1712-B/QLFFONPVDDKJCE-UHFFFAOYSA-N-9smtnz-1712-B.minimised.mol

>  <distance_score>  (422) 
1.688002

>  <energy_score>  (422) 
-8.434267

>  <compound>  (422) 
JLRFXRZAFGHPDK-UHFFFAOYSA-N

>  <compound_id>  (422) 
202481

>  <target>  (422) 
Flavi_NS5_RdRp

>  <tags>  (422) 
[]

>  <inspirations>  (422) 
{P Ã— 2}

>  <subsites>  (422) 
None

>  <reference>  (422) 
z0211a

>  <SLURM_JOB_ID>  (422) 
nan

>  <SLURM_JOB_NAME>  (422) 
nan

>  <csv_name>  (422) 
nan

>  <scratch_subdir>  (422) 
nan

>  <fragmenstein_runtime>  (422) 
nan

>  <fragmenstein_outcome>  (422) 
nan

>  <fragmenstein_mode>  (422) 
nan

>  <fragmenstein_error>  (422) 
nan

>  <exports>  (422) 
nan

>  <Multi-SuCOS>  (422) 
nan

>  <merge_set>  (422) 
nan

$$$$
QVWVHGKKTIGJPT-OAHLLOKOSA-N
     RDKit          3D

 21 22  0  0  0  0  0  0  0  0999 V2000
  -21.2947  -33.2769  -25.4000 C   0  0  0  0  0  0  0  0  0  0  0  0
  -20.9975  -33.1515  -24.0969 C   0  0  0  0  0  0  0  0  0  0  0  0
  -21.9168  -32.7946  -22.9538 C   0  0  1  0  0  0  0  0  0  0  0  0
  -22.2657  -34.0531  -22.1539 C   0  0  0  0  0  0  0  0  0  0  0  0
  -21.1494  -31.9357  -22.1055 O   0  0  0  0  0  0  0  0  0  0  0  0
  -23.1722  -32.0695  -23.4498 C   0  0  0  0  0  0  0  0  0  0  0  0
  -24.0138  -31.5485  -22.4174 N   0  0  0  0  0  0  0  0  0  0  0  0
  -25.4247  -31.9804  -21.9648 C   0  0  0  0  0  0  0  0  0  0  0  0
  -26.0694  -32.8532  -22.3030 O   0  0  0  0  0  0  0  0  0  0  0  0
  -25.7432  -30.8208  -20.9932 N   0  0  0  0  0  0  0  0  0  0  0  0
  -26.9155  -30.4902  -20.3555 C   0  0  0  0  0  0  0  0  0  0  0  0
  -28.1307  -30.6512  -20.9943 C   0  0  0  0  0  0  0  0  0  0  0  0
  -29.3306  -30.3388  -20.3605 C   0  0  0  0  0  0  0  0  0  0  0  0
  -29.3201  -29.9489  -19.0409 C   0  0  0  0  0  0  0  0  0  0  0  0
  -28.0890  -29.8024  -18.4047 C   0  0  0  0  0  0  0  0  0  0  0  0
  -28.0242  -29.6975  -17.0063 N   0  0  0  0  0  0  0  0  0  0  0  0
  -29.0652  -29.7610  -16.1210 C   0  0  0  0  0  0  0  0  0  0  0  0
  -28.5193  -30.1000  -14.9137 C   0  0  0  0  0  0  0  0  0  0  0  0
  -27.1419  -30.1118  -15.1341 C   0  0  0  0  0  0  0  0  0  0  0  0
  -26.8298  -29.7279  -16.3669 N   0  0  0  0  0  0  0  0  0  0  0  0
  -26.8804  -29.9768  -19.0874 C   0  0  0  0  0  0  0  0  0  0  0  0
  1  2  2  0
  2  3  1  0
  3  4  1  1
  3  5  1  0
  3  6  1  0
  6  7  1  0
  7  8  1  0
  8  9  2  0
  8 10  1  0
 10 11  1  0
 11 12  2  0
 12 13  1  0
 13 14  2  0
 14 15  1  0
 15 16  1  0
 16 17  1  0
 17 18  2  0
 18 19  1  0
 19 20  2  0
 15 21  2  0
 21 11  1  0
 20 16  1  0
M  END
>  <id>  (423) 
386172

>  <inchikey>  (423) 
QVWVHGKKTIGJPT-OAHLLOKOSA-N

>  <alias>  (423) 
None

>  <smiles>  (423) 
C=C[C@@](C)(O)CNC(=O)Nc1cccc(-n2cccn2)c1

>  <path>  (423) 
/opt/xchem-fragalysis-2/maxwin/RdRp_FFF/syndirella/mar_elabs/elabs_055/QLFFONPVDDKJCE-UHFFFAOYSA-N/output/QLFFONPVDDKJCE-UHFFFAOYSA-N-9smtnz-1760-B/QLFFONPVDDKJCE-UHFFFAOYSA-N-9smtnz-1760-B.minimised.mol

>  <distance_score>  (423) 
1.797494

>  <energy_score>  (423) 
-33.686106

>  <compound>  (423) 
QVWVHGKKTIGJPT-UHFFFAOYSA-N

>  <compound_id>  (423) 
202528

>  <target>  (423) 
Flavi_NS5_RdRp

>  <tags>  (423) 
[]

>  <inspirations>  (423) 
{P Ã— 2}

>  <subsites>  (423) 
None

>  <reference>  (423) 
z0211a

>  <SLURM_JOB_ID>  (423) 
nan

>  <SLURM_JOB_NAME>  (423) 
nan

>  <csv_name>  (423) 
nan

>  <scratch_subdir>  (423) 
nan

>  <fragmenstein_runtime>  (423) 
nan

>  <fragmenstein_outcome>  (423) 
nan

>  <fragmenstein_mode>  (423) 
nan

>  <fragmenstein_error>  (423) 
nan

>  <exports>  (423) 
nan

>  <Multi-SuCOS>  (423) 
nan

>  <merge_set>  (423) 
nan

$$$$
BVPZGLAMIZHWPF-HNNXBMFYSA-N
     RDKit          3D

 21 22  0  0  0  0  0  0  0  0999 V2000
  -21.0226  -32.9542  -25.3003 C   0  0  0  0  0  0  0  0  0  0  0  0
  -21.1918  -33.4723  -23.8858 C   0  0  0  0  0  0  0  0  0  0  0  0
  -21.8975  -32.5591  -22.8929 C   0  0  2  0  0  0  0  0  0  0  0  0
  -20.9581  -31.4608  -22.3986 C   0  0  0  0  0  0  0  0  0  0  0  0
  -22.2049  -33.3512  -21.7302 O   0  0  0  0  0  0  0  0  0  0  0  0
  -23.1932  -32.0229  -23.5047 C   0  0  0  0  0  0  0  0  0  0  0  0
  -24.1083  -31.6020  -22.5022 N   0  0  0  0  0  0  0  0  0  0  0  0
  -25.3891  -30.8888  -22.6095 C   0  0  0  0  0  0  0  0  0  0  0  0
  -25.9981  -30.5657  -23.5551 O   0  0  0  0  0  0  0  0  0  0  0  0
  -25.7270  -30.7869  -21.1782 N   0  0  0  0  0  0  0  0  0  0  0  0
  -26.8824  -30.3707  -20.5527 C   0  0  0  0  0  0  0  0  0  0  0  0
  -28.0715  -30.1074  -21.2157 C   0  0  0  0  0  0  0  0  0  0  0  0
  -29.2222  -29.8233  -20.4800 C   0  0  0  0  0  0  0  0  0  0  0  0
  -29.1643  -29.7647  -19.0890 C   0  0  0  0  0  0  0  0  0  0  0  0
  -27.9374  -29.9193  -18.4450 C   0  0  0  0  0  0  0  0  0  0  0  0
  -27.8366  -29.8493  -17.0418 N   0  0  0  0  0  0  0  0  0  0  0  0
  -26.6881  -29.9846  -16.2939 C   0  0  0  0  0  0  0  0  0  0  0  0
  -27.0928  -30.2745  -15.0217 C   0  0  0  0  0  0  0  0  0  0  0  0
  -28.4807  -30.0928  -15.0472 C   0  0  0  0  0  0  0  0  0  0  0  0
  -28.9331  -29.7569  -16.2545 N   0  0  0  0  0  0  0  0  0  0  0  0
  -26.8036  -30.2474  -19.1793 C   0  0  0  0  0  0  0  0  0  0  0  0
  1  2  1  0
  2  3  1  0
  3  4  1  1
  3  5  1  0
  3  6  1  0
  6  7  1  0
  7  8  1  0
  8  9  2  0
  8 10  1  0
 10 11  1  0
 11 12  2  0
 12 13  1  0
 13 14  2  0
 14 15  1  0
 15 16  1  0
 16 17  1  0
 17 18  2  0
 18 19  1  0
 19 20  2  0
 15 21  2  0
 21 11  1  0
 20 16  1  0
M  END
>  <id>  (424) 
386174

>  <inchikey>  (424) 
BVPZGLAMIZHWPF-HNNXBMFYSA-N

>  <alias>  (424) 
None

>  <smiles>  (424) 
CC[C@](C)(O)CNC(=O)Nc1cccc(-n2cccn2)c1

>  <path>  (424) 
/opt/xchem-fragalysis-2/maxwin/RdRp_FFF/syndirella/mar_elabs/elabs_055/QLFFONPVDDKJCE-UHFFFAOYSA-N/output/QLFFONPVDDKJCE-UHFFFAOYSA-N-9smtnz-1785-A/QLFFONPVDDKJCE-UHFFFAOYSA-N-9smtnz-1785-A.minimised.mol

>  <distance_score>  (424) 
1.605396

>  <energy_score>  (424) 
-8.315751

>  <compound>  (424) 
BVPZGLAMIZHWPF-UHFFFAOYSA-N

>  <compound_id>  (424) 
202553

>  <target>  (424) 
Flavi_NS5_RdRp

>  <tags>  (424) 
[]

>  <inspirations>  (424) 
{P Ã— 2}

>  <subsites>  (424) 
None

>  <reference>  (424) 
z0211a

>  <SLURM_JOB_ID>  (424) 
nan

>  <SLURM_JOB_NAME>  (424) 
nan

>  <csv_name>  (424) 
nan

>  <scratch_subdir>  (424) 
nan

>  <fragmenstein_runtime>  (424) 
nan

>  <fragmenstein_outcome>  (424) 
nan

>  <fragmenstein_mode>  (424) 
nan

>  <fragmenstein_error>  (424) 
nan

>  <exports>  (424) 
nan

>  <Multi-SuCOS>  (424) 
nan

>  <merge_set>  (424) 
nan

$$$$
VLZLPTFJYNRDIA-OLZOCXBDSA-N
     RDKit          3D

 20 22  0  0  0  0  0  0  0  0999 V2000
  -28.8848  -30.1428  -14.6557 C   0  0  0  0  0  0  0  0  0  0  0  0
  -27.9546  -29.9948  -15.7603 C   0  0  0  0  0  0  0  0  0  0  0  0
  -26.5653  -30.1839  -15.7496 C   0  0  0  0  0  0  0  0  0  0  0  0
  -26.2056  -30.0854  -17.0694 C   0  0  0  0  0  0  0  0  0  0  0  0
  -27.3753  -29.9224  -17.7777 N   0  0  0  0  0  0  0  0  0  0  0  0
  -27.5970  -30.0385  -19.1592 C   0  0  0  0  0  0  0  0  0  0  0  0
  -28.8341  -29.6466  -19.6675 C   0  0  0  0  0  0  0  0  0  0  0  0
  -29.0024  -29.5890  -21.0314 C   0  0  0  0  0  0  0  0  0  0  0  0
  -27.9700  -30.0073  -21.8697 C   0  0  0  0  0  0  0  0  0  0  0  0
  -26.8025  -30.5526  -21.3584 C   0  0  0  0  0  0  0  0  0  0  0  0
  -25.8530  -31.0613  -22.2286 N   0  0  0  0  0  0  0  0  0  0  0  0
  -24.5943  -31.9415  -21.9488 C   0  0  0  0  0  0  0  0  0  0  0  0
  -24.2278  -32.4180  -20.9763 O   0  0  0  0  0  0  0  0  0  0  0  0
  -23.9814  -31.9818  -23.3865 N   0  0  0  0  0  0  0  0  0  0  0  0
  -22.8650  -32.6928  -23.8865 C   0  0  2  0  0  0  0  0  0  0  0  0
  -22.0737  -33.6429  -23.0396 C   0  0  0  0  0  0  0  0  0  0  0  0
  -21.4520  -32.3573  -23.4862 C   0  0  2  0  0  0  0  0  0  0  0  0
  -21.2691  -31.3897  -22.4456 O   0  0  0  0  0  0  0  0  0  0  0  0
  -26.6008  -30.5485  -19.9927 C   0  0  0  0  0  0  0  0  0  0  0  0
  -28.4210  -29.6794  -16.9611 N   0  0  0  0  0  0  0  0  0  0  0  0
  1  2  1  0
  2  3  1  0
  3  4  2  0
  4  5  1  0
  5  6  1  0
  6  7  2  0
  7  8  1  0
  8  9  2  0
  9 10  1  0
 10 11  1  0
 11 12  1  0
 12 13  2  0
 12 14  1  0
 15 14  1  1
 15 16  1  0
 16 17  1  0
 17 18  1  1
 10 19  2  0
  5 20  1  0
 20  2  2  0
 19  6  1  0
 17 15  1  0
M  END
>  <id>  (425) 
386592

>  <inchikey>  (425) 
VLZLPTFJYNRDIA-OLZOCXBDSA-N

>  <alias>  (425) 
None

>  <smiles>  (425) 
Cc1ccn(-c2cccc(NC(=O)N[C@@H]3C[C@@H]3O)c2)n1

>  <path>  (425) 
/opt/xchem-fragalysis-2/maxwin/RdRp_FFF/syndirella/mar_elabs/elabs_055/QLFFONPVDDKJCE-UHFFFAOYSA-N/output/QLFFONPVDDKJCE-UHFFFAOYSA-N-gmSv4W-78-A/QLFFONPVDDKJCE-UHFFFAOYSA-N-gmSv4W-78-A.minimised.mol

>  <distance_score>  (425) 
1.904842

>  <energy_score>  (425) 
-15.215325

>  <compound>  (425) 
VLZLPTFJYNRDIA-UHFFFAOYSA-N

>  <compound_id>  (425) 
198363

>  <target>  (425) 
Flavi_NS5_RdRp

>  <tags>  (425) 
[]

>  <inspirations>  (425) 
{P Ã— 2}

>  <subsites>  (425) 
None

>  <reference>  (425) 
z0211a

>  <SLURM_JOB_ID>  (425) 
nan

>  <SLURM_JOB_NAME>  (425) 
nan

>  <csv_name>  (425) 
nan

>  <scratch_subdir>  (425) 
nan

>  <fragmenstein_runtime>  (425) 
nan

>  <fragmenstein_outcome>  (425) 
nan

>  <fragmenstein_mode>  (425) 
nan

>  <fragmenstein_error>  (425) 
nan

>  <exports>  (425) 
nan

>  <Multi-SuCOS>  (425) 
nan

>  <merge_set>  (425) 
nan

$$$$
JCTRXRUCZCVGIV-QWHCGFSZSA-N
     RDKit          3D

 20 22  0  0  0  0  0  0  0  0999 V2000
  -24.3782  -32.4014  -20.1466 O   0  0  0  0  0  0  0  0  0  0  0  0
  -24.6614  -32.0001  -21.1767 C   0  0  0  0  0  0  0  0  0  0  0  0
  -25.8861  -31.1381  -21.6217 N   0  0  0  0  0  0  0  0  0  0  0  0
  -26.8991  -30.5596  -20.8683 C   0  0  0  0  0  0  0  0  0  0  0  0
  -28.0328  -30.0710  -21.4946 C   0  0  0  0  0  0  0  0  0  0  0  0
  -29.1471  -29.6824  -20.7472 C   0  0  0  0  0  0  0  0  0  0  0  0
  -29.1063  -29.7169  -19.3651 C   0  0  0  0  0  0  0  0  0  0  0  0
  -27.9107  -30.0398  -18.7367 C   0  0  0  0  0  0  0  0  0  0  0  0
  -27.8202  -29.9477  -17.3284 N   0  0  0  0  0  0  0  0  0  0  0  0
  -26.6963  -30.1120  -16.5479 C   0  0  0  0  0  0  0  0  0  0  0  0
  -27.1341  -30.2399  -15.2560 C   0  0  0  0  0  0  0  0  0  0  0  0
  -28.5123  -30.0076  -15.3256 C   0  0  0  0  0  0  0  0  0  0  0  0
  -28.9236  -29.7338  -16.5625 N   0  0  0  0  0  0  0  0  0  0  0  0
  -26.8215  -30.5031  -19.4870 C   0  0  0  0  0  0  0  0  0  0  0  0
  -23.9974  -32.2369  -22.5659 N   0  0  0  0  0  0  0  0  0  0  0  0
  -22.8939  -33.1092  -22.9476 C   0  0  1  0  0  0  0  0  0  0  0  0
  -22.5414  -33.0745  -24.4406 C   0  0  0  0  0  0  0  0  0  0  0  0
  -21.1114  -32.6543  -24.0931 C   0  0  0  0  0  0  0  0  0  0  0  0
  -21.4735  -32.6099  -22.6028 C   0  0  1  0  0  0  0  0  0  0  0  0
  -21.3186  -31.3329  -21.9610 O   0  0  0  0  0  0  0  0  0  0  0  0
  1  2  2  0
  2  3  1  0
  3  4  1  0
  4  5  2  0
  5  6  1  0
  6  7  2  0
  7  8  1  0
  8  9  1  0
  9 10  1  0
 10 11  2  0
 11 12  1  0
 12 13  2  0
  8 14  2  0
  2 15  1  0
 16 15  1  6
 16 17  1  0
 17 18  1  0
 18 19  1  0
 19 20  1  6
 14  4  1  0
 19 16  1  0
 13  9  1  0
M  END
>  <id>  (426) 
386615

>  <inchikey>  (426) 
JCTRXRUCZCVGIV-QWHCGFSZSA-N

>  <alias>  (426) 
None

>  <smiles>  (426) 
O=C(Nc1cccc(-n2cccn2)c1)N[C@H]1CC[C@H]1O

>  <path>  (426) 
/opt/xchem-fragalysis-2/maxwin/RdRp_FFF/syndirella/mar_elabs/elabs_055/QLFFONPVDDKJCE-UHFFFAOYSA-N/output/QLFFONPVDDKJCE-UHFFFAOYSA-N-gmSv4W-145-D/QLFFONPVDDKJCE-UHFFFAOYSA-N-gmSv4W-145-D.minimised.mol

>  <distance_score>  (426) 
1.77074

>  <energy_score>  (426) 
-24.257154

>  <compound>  (426) 
JCTRXRUCZCVGIV-UHFFFAOYSA-N

>  <compound_id>  (426) 
201326

>  <target>  (426) 
Flavi_NS5_RdRp

>  <tags>  (426) 
[]

>  <inspirations>  (426) 
{P Ã— 2}

>  <subsites>  (426) 
None

>  <reference>  (426) 
z0211a

>  <SLURM_JOB_ID>  (426) 
nan

>  <SLURM_JOB_NAME>  (426) 
nan

>  <csv_name>  (426) 
nan

>  <scratch_subdir>  (426) 
nan

>  <fragmenstein_runtime>  (426) 
nan

>  <fragmenstein_outcome>  (426) 
nan

>  <fragmenstein_mode>  (426) 
nan

>  <fragmenstein_error>  (426) 
nan

>  <exports>  (426) 
nan

>  <Multi-SuCOS>  (426) 
nan

>  <merge_set>  (426) 
nan

$$$$
WSCVFPAUHZEHLY-UHFFFAOYSA-N
     RDKit          3D

 21 23  0  0  0  0  0  0  0  0999 V2000
  -20.1266  -33.0080  -22.2928 C   0  0  0  0  0  0  0  0  0  0  0  0
  -20.8825  -33.2096  -23.4904 O   0  0  0  0  0  0  0  0  0  0  0  0
  -22.2964  -33.2129  -23.2357 C   0  0  0  0  0  0  0  0  0  0  0  0
  -22.8812  -31.8789  -22.8525 C   0  0  0  0  0  0  0  0  0  0  0  0
  -24.2202  -32.4823  -23.2689 N   0  0  0  0  0  0  0  0  0  0  0  0
  -25.3035  -31.4249  -23.3468 C   0  0  0  0  0  0  0  0  0  0  0  0
  -25.6354  -30.7687  -24.2246 O   0  0  0  0  0  0  0  0  0  0  0  0
  -25.7556  -31.4235  -21.8711 N   0  0  0  0  0  0  0  0  0  0  0  0
  -26.7401  -30.6969  -21.2397 C   0  0  0  0  0  0  0  0  0  0  0  0
  -27.8099  -30.0941  -21.8669 C   0  0  0  0  0  0  0  0  0  0  0  0
  -28.8663  -29.5783  -21.1068 C   0  0  0  0  0  0  0  0  0  0  0  0
  -28.8062  -29.5929  -19.7260 C   0  0  0  0  0  0  0  0  0  0  0  0
  -27.6328  -30.0179  -19.1226 C   0  0  0  0  0  0  0  0  0  0  0  0
  -27.4498  -29.8654  -17.7437 N   0  0  0  0  0  0  0  0  0  0  0  0
  -26.2779  -29.9939  -17.0261 C   0  0  0  0  0  0  0  0  0  0  0  0
  -26.6419  -30.1201  -15.7136 C   0  0  0  0  0  0  0  0  0  0  0  0
  -28.0335  -29.9609  -15.7390 C   0  0  0  0  0  0  0  0  0  0  0  0
  -28.9520  -30.1367  -14.6332 C   0  0  0  0  0  0  0  0  0  0  0  0
  -28.5008  -29.6407  -16.9398 N   0  0  0  0  0  0  0  0  0  0  0  0
  -26.6334  -30.6289  -19.8661 C   0  0  0  0  0  0  0  0  0  0  0  0
  -23.3242  -33.0568  -24.3495 C   0  0  0  0  0  0  0  0  0  0  0  0
  1  2  1  0
  2  3  1  0
  3  4  1  0
  4  5  1  0
  5  6  1  0
  6  7  2  0
  6  8  1  0
  8  9  1  0
  9 10  2  0
 10 11  1  0
 11 12  2  0
 12 13  1  0
 13 14  1  0
 14 15  1  0
 15 16  2  0
 16 17  1  0
 17 18  1  0
 17 19  2  0
 13 20  2  0
  5 21  1  0
 21  3  1  0
 20  9  1  0
 19 14  1  0
M  END
>  <id>  (427) 
386755

>  <inchikey>  (427) 
WSCVFPAUHZEHLY-UHFFFAOYSA-N

>  <alias>  (427) 
None

>  <smiles>  (427) 
COC1CN(C(=O)Nc2cccc(-n3ccc(C)n3)c2)C1

>  <path>  (427) 
/opt/xchem-fragalysis-2/maxwin/RdRp_FFF/syndirella/mar_elabs/elabs_055/QLFFONPVDDKJCE-UHFFFAOYSA-N/output/QLFFONPVDDKJCE-UHFFFAOYSA-N-gmSv4W-1467-A/QLFFONPVDDKJCE-UHFFFAOYSA-N-gmSv4W-1467-A.minimised.mol

>  <distance_score>  (427) 
1.911619

>  <energy_score>  (427) 
-0.576293

>  <compound>  (427) 
WSCVFPAUHZEHLY-UHFFFAOYSA-N

>  <compound_id>  (427) 
198436

>  <target>  (427) 
Flavi_NS5_RdRp

>  <tags>  (427) 
[]

>  <inspirations>  (427) 
{P Ã— 2}

>  <subsites>  (427) 
None

>  <reference>  (427) 
z0211a

>  <SLURM_JOB_ID>  (427) 
nan

>  <SLURM_JOB_NAME>  (427) 
nan

>  <csv_name>  (427) 
nan

>  <scratch_subdir>  (427) 
nan

>  <fragmenstein_runtime>  (427) 
nan

>  <fragmenstein_outcome>  (427) 
nan

>  <fragmenstein_mode>  (427) 
nan

>  <fragmenstein_error>  (427) 
nan

>  <exports>  (427) 
nan

>  <Multi-SuCOS>  (427) 
nan

>  <merge_set>  (427) 
nan

$$$$
YHRDBRQKCSKOCY-GFCCVEGCSA-N
     RDKit          3D

 21 22  0  0  0  0  0  0  0  0999 V2000
  -28.1204  -29.7552  -22.3912 C   0  0  0  0  0  0  0  0  0  0  0  0
  -28.0033  -29.9684  -20.9359 C   0  0  0  0  0  0  0  0  0  0  0  0
  -29.1726  -29.7708  -20.1778 C   0  0  0  0  0  0  0  0  0  0  0  0
  -29.1249  -29.7620  -18.8065 C   0  0  0  0  0  0  0  0  0  0  0  0
  -27.8879  -29.9143  -18.2084 C   0  0  0  0  0  0  0  0  0  0  0  0
  -27.7907  -29.8952  -16.8134 N   0  0  0  0  0  0  0  0  0  0  0  0
  -26.6725  -30.1725  -16.0654 C   0  0  0  0  0  0  0  0  0  0  0  0
  -27.1455  -30.5844  -14.8531 C   0  0  0  0  0  0  0  0  0  0  0  0
  -28.5005  -30.2323  -14.8691 C   0  0  0  0  0  0  0  0  0  0  0  0
  -28.8866  -29.7407  -16.0398 N   0  0  0  0  0  0  0  0  0  0  0  0
  -26.7477  -30.2081  -18.9563 C   0  0  0  0  0  0  0  0  0  0  0  0
  -26.8000  -30.2880  -20.3283 C   0  0  0  0  0  0  0  0  0  0  0  0
  -25.5920  -30.6612  -20.9166 N   0  0  0  0  0  0  0  0  0  0  0  0
  -25.2514  -30.9785  -22.3962 C   0  0  0  0  0  0  0  0  0  0  0  0
  -25.8927  -30.9027  -23.3277 O   0  0  0  0  0  0  0  0  0  0  0  0
  -23.8183  -31.4776  -22.2216 N   0  0  0  0  0  0  0  0  0  0  0  0
  -22.9278  -32.0706  -23.1588 C   0  0  0  0  0  0  0  0  0  0  0  0
  -21.5437  -32.0767  -22.5547 C   0  0  1  0  0  0  0  0  0  0  0  0
  -21.6208  -32.3679  -21.1377 O   0  0  0  0  0  0  0  0  0  0  0  0
  -20.6909  -33.1598  -23.1675 C   0  0  0  0  0  0  0  0  0  0  0  0
  -19.5216  -33.2868  -22.3587 O   0  0  0  0  0  0  0  0  0  0  0  0
  1  2  1  0
  2  3  2  0
  3  4  1  0
  4  5  2  0
  5  6  1  0
  6  7  1  0
  7  8  2  0
  8  9  1  0
  9 10  2  0
  5 11  1  0
 11 12  2  0
 12 13  1  0
 13 14  1  0
 14 15  2  0
 14 16  1  0
 16 17  1  0
 17 18  1  0
 18 19  1  1
 18 20  1  0
 20 21  1  0
 12  2  1  0
 10  6  1  0
M  END
>  <id>  (428) 
386775

>  <inchikey>  (428) 
YHRDBRQKCSKOCY-GFCCVEGCSA-N

>  <alias>  (428) 
None

>  <smiles>  (428) 
Cc1ccc(-n2cccn2)cc1NC(=O)NC[C@@H](O)CO

>  <path>  (428) 
/opt/xchem-fragalysis-2/maxwin/RdRp_FFF/syndirella/mar_elabs/elabs_055/QLFFONPVDDKJCE-UHFFFAOYSA-N/output/QLFFONPVDDKJCE-UHFFFAOYSA-N-gmSv4W-1583-B/QLFFONPVDDKJCE-UHFFFAOYSA-N-gmSv4W-1583-B.minimised.mol

>  <distance_score>  (428) 
1.593458

>  <energy_score>  (428) 
-8.963861

>  <compound>  (428) 
YHRDBRQKCSKOCY-UHFFFAOYSA-N

>  <compound_id>  (428) 
202434

>  <target>  (428) 
Flavi_NS5_RdRp

>  <tags>  (428) 
[]

>  <inspirations>  (428) 
{P Ã— 2}

>  <subsites>  (428) 
None

>  <reference>  (428) 
z0211a

>  <SLURM_JOB_ID>  (428) 
nan

>  <SLURM_JOB_NAME>  (428) 
nan

>  <csv_name>  (428) 
nan

>  <scratch_subdir>  (428) 
nan

>  <fragmenstein_runtime>  (428) 
nan

>  <fragmenstein_outcome>  (428) 
nan

>  <fragmenstein_mode>  (428) 
nan

>  <fragmenstein_error>  (428) 
nan

>  <exports>  (428) 
nan

>  <Multi-SuCOS>  (428) 
nan

>  <merge_set>  (428) 
nan

$$$$
XQWZEVABEOZHHD-LBPRGKRZSA-N
     RDKit          3D

 21 22  0  0  0  0  0  0  0  0999 V2000
  -20.5172  -31.5445  -20.9643 C   0  0  0  0  0  0  0  0  0  0  0  0
  -20.3407  -32.2557  -22.1810 O   0  0  0  0  0  0  0  0  0  0  0  0
  -21.5119  -32.2961  -23.0042 C   0  0  1  0  0  0  0  0  0  0  0  0
  -21.0694  -32.7074  -24.3964 C   0  0  0  0  0  0  0  0  0  0  0  0
  -22.5154  -33.3089  -22.4461 C   0  0  0  0  0  0  0  0  0  0  0  0
  -23.5254  -32.6094  -21.7081 N   0  0  0  0  0  0  0  0  0  0  0  0
  -24.6743  -31.7000  -22.1993 C   0  0  0  0  0  0  0  0  0  0  0  0
  -25.0126  -31.4495  -23.2554 O   0  0  0  0  0  0  0  0  0  0  0  0
  -25.2926  -31.3118  -20.8295 N   0  0  0  0  0  0  0  0  0  0  0  0
  -26.4797  -30.6299  -20.5301 C   0  0  0  0  0  0  0  0  0  0  0  0
  -26.6491  -30.4612  -19.1632 C   0  0  0  0  0  0  0  0  0  0  0  0
  -27.8344  -29.9746  -18.6041 C   0  0  0  0  0  0  0  0  0  0  0  0
  -27.9180  -29.8610  -17.2053 N   0  0  0  0  0  0  0  0  0  0  0  0
  -26.8735  -29.9919  -16.3184 C   0  0  0  0  0  0  0  0  0  0  0  0
  -27.4413  -30.3028  -15.1169 C   0  0  0  0  0  0  0  0  0  0  0  0
  -28.8102  -30.1001  -15.3114 C   0  0  0  0  0  0  0  0  0  0  0  0
  -29.1015  -29.7329  -16.5595 N   0  0  0  0  0  0  0  0  0  0  0  0
  -28.9179  -29.6996  -19.4067 C   0  0  0  0  0  0  0  0  0  0  0  0
  -28.7209  -29.7306  -20.7750 C   0  0  0  0  0  0  0  0  0  0  0  0
  -27.4985  -30.1627  -21.3531 C   0  0  0  0  0  0  0  0  0  0  0  0
  -27.3715  -29.9991  -22.8307 C   0  0  0  0  0  0  0  0  0  0  0  0
  1  2  1  0
  2  3  1  0
  3  4  1  6
  3  5  1  0
  5  6  1  0
  6  7  1  0
  7  8  2  0
  7  9  1  0
  9 10  1  0
 10 11  2  0
 11 12  1  0
 12 13  1  0
 13 14  1  0
 14 15  2  0
 15 16  1  0
 16 17  2  0
 12 18  2  0
 18 19  1  0
 19 20  2  0
 20 21  1  0
 20 10  1  0
 17 13  1  0
M  END
>  <id>  (429) 
386777

>  <inchikey>  (429) 
XQWZEVABEOZHHD-LBPRGKRZSA-N

>  <alias>  (429) 
None

>  <smiles>  (429) 
CO[C@@H](C)CNC(=O)Nc1cc(-n2cccn2)ccc1C

>  <path>  (429) 
/opt/xchem-fragalysis-2/maxwin/RdRp_FFF/syndirella/mar_elabs/elabs_055/QLFFONPVDDKJCE-UHFFFAOYSA-N/output/QLFFONPVDDKJCE-UHFFFAOYSA-N-gmSv4W-1589-B/QLFFONPVDDKJCE-UHFFFAOYSA-N-gmSv4W-1589-B.minimised.mol

>  <distance_score>  (429) 
1.68072

>  <energy_score>  (429) 
-11.605696

>  <compound>  (429) 
XQWZEVABEOZHHD-UHFFFAOYSA-N

>  <compound_id>  (429) 
202440

>  <target>  (429) 
Flavi_NS5_RdRp

>  <tags>  (429) 
[]

>  <inspirations>  (429) 
{P Ã— 2}

>  <subsites>  (429) 
None

>  <reference>  (429) 
z0211a

>  <SLURM_JOB_ID>  (429) 
nan

>  <SLURM_JOB_NAME>  (429) 
nan

>  <csv_name>  (429) 
nan

>  <scratch_subdir>  (429) 
nan

>  <fragmenstein_runtime>  (429) 
nan

>  <fragmenstein_outcome>  (429) 
nan

>  <fragmenstein_mode>  (429) 
nan

>  <fragmenstein_error>  (429) 
nan

>  <exports>  (429) 
nan

>  <Multi-SuCOS>  (429) 
nan

>  <merge_set>  (429) 
nan

$$$$
YVOILQXMBBNXFA-CQSZACIVSA-N
     RDKit          3D

 21 22  0  0  0  0  0  0  0  0999 V2000
  -20.9127  -33.9233  -26.6271 C   0  0  0  0  0  0  0  0  0  0  0  0
  -21.8542  -33.7174  -25.4656 C   0  0  0  0  0  0  0  0  0  0  0  0
  -21.1863  -32.9916  -24.2982 C   0  0  0  0  0  0  0  0  0  0  0  0
  -22.1686  -32.7496  -23.1573 C   0  0  1  0  0  0  0  0  0  0  0  0
  -21.4746  -32.2106  -22.0287 O   0  0  0  0  0  0  0  0  0  0  0  0
  -23.2407  -31.7710  -23.6142 C   0  0  0  0  0  0  0  0  0  0  0  0
  -24.1617  -31.4490  -22.5854 N   0  0  0  0  0  0  0  0  0  0  0  0
  -25.5505  -30.7918  -22.6610 C   0  0  0  0  0  0  0  0  0  0  0  0
  -26.1718  -30.4902  -23.5621 O   0  0  0  0  0  0  0  0  0  0  0  0
  -25.8723  -30.7099  -21.1578 N   0  0  0  0  0  0  0  0  0  0  0  0
  -27.0285  -30.3360  -20.5130 C   0  0  0  0  0  0  0  0  0  0  0  0
  -28.2241  -30.0875  -21.1570 C   0  0  0  0  0  0  0  0  0  0  0  0
  -29.3834  -29.8485  -20.4173 C   0  0  0  0  0  0  0  0  0  0  0  0
  -29.3302  -29.8036  -19.0335 C   0  0  0  0  0  0  0  0  0  0  0  0
  -28.0950  -29.9277  -18.4091 C   0  0  0  0  0  0  0  0  0  0  0  0
  -27.9855  -29.8572  -17.0091 N   0  0  0  0  0  0  0  0  0  0  0  0
  -26.8343  -29.9990  -16.2694 C   0  0  0  0  0  0  0  0  0  0  0  0
  -27.2377  -30.3238  -15.0066 C   0  0  0  0  0  0  0  0  0  0  0  0
  -28.6222  -30.1275  -15.0208 C   0  0  0  0  0  0  0  0  0  0  0  0
  -29.0790  -29.7705  -16.2182 N   0  0  0  0  0  0  0  0  0  0  0  0
  -26.9538  -30.2249  -19.1471 C   0  0  0  0  0  0  0  0  0  0  0  0
  1  2  1  0
  2  3  1  0
  3  4  1  0
  4  5  1  1
  4  6  1  0
  6  7  1  0
  7  8  1  0
  8  9  2  0
  8 10  1  0
 10 11  1  0
 11 12  2  0
 12 13  1  0
 13 14  2  0
 14 15  1  0
 15 16  1  0
 16 17  1  0
 17 18  2  0
 18 19  1  0
 19 20  2  0
 15 21  2  0
 21 11  1  0
 20 16  1  0
M  END
>  <id>  (430) 
386802

>  <inchikey>  (430) 
YVOILQXMBBNXFA-CQSZACIVSA-N

>  <alias>  (430) 
None

>  <smiles>  (430) 
CCC[C@@H](O)CNC(=O)Nc1cccc(-n2cccn2)c1

>  <path>  (430) 
/opt/xchem-fragalysis-2/maxwin/RdRp_FFF/syndirella/mar_elabs/elabs_055/QLFFONPVDDKJCE-UHFFFAOYSA-N/output/QLFFONPVDDKJCE-UHFFFAOYSA-N-gmSv4W-1739-B/QLFFONPVDDKJCE-UHFFFAOYSA-N-gmSv4W-1739-B.minimised.mol

>  <distance_score>  (430) 
1.668855

>  <energy_score>  (430) 
-15.365824

>  <compound>  (430) 
YVOILQXMBBNXFA-UHFFFAOYSA-N

>  <compound_id>  (430) 
202503

>  <target>  (430) 
Flavi_NS5_RdRp

>  <tags>  (430) 
[]

>  <inspirations>  (430) 
{P Ã— 2}

>  <subsites>  (430) 
None

>  <reference>  (430) 
z0211a

>  <SLURM_JOB_ID>  (430) 
nan

>  <SLURM_JOB_NAME>  (430) 
nan

>  <csv_name>  (430) 
nan

>  <scratch_subdir>  (430) 
nan

>  <fragmenstein_runtime>  (430) 
nan

>  <fragmenstein_outcome>  (430) 
nan

>  <fragmenstein_mode>  (430) 
nan

>  <fragmenstein_error>  (430) 
nan

>  <exports>  (430) 
nan

>  <Multi-SuCOS>  (430) 
nan

>  <merge_set>  (430) 
nan

$$$$
RYHVDZFDURCZRJ-UHFFFAOYSA-N
     RDKit          3D

 21 22  0  0  0  0  0  0  0  0999 V2000
  -20.7211  -32.8756  -24.1566 C   0  0  0  0  0  0  0  0  0  0  0  0
  -21.8352  -32.7168  -23.1385 C   0  0  0  0  0  0  0  0  0  0  0  0
  -22.0169  -33.9955  -22.3250 C   0  0  0  0  0  0  0  0  0  0  0  0
  -21.4852  -31.6728  -22.2167 O   0  0  0  0  0  0  0  0  0  0  0  0
  -23.1647  -32.3200  -23.8128 C   0  0  0  0  0  0  0  0  0  0  0  0
  -23.3269  -32.4155  -25.0292 N   0  0  0  0  0  0  0  0  0  0  0  0
  -24.0423  -31.7699  -22.7365 N   0  0  0  0  0  0  0  0  0  0  0  0
  -25.4437  -31.0159  -22.7835 C   0  0  0  0  0  0  0  0  0  0  0  0
  -26.1520  -30.7845  -23.6604 O   0  0  0  0  0  0  0  0  0  0  0  0
  -25.6112  -30.7878  -21.3379 N   0  0  0  0  0  0  0  0  0  0  0  0
  -26.6973  -30.3196  -20.6182 C   0  0  0  0  0  0  0  0  0  0  0  0
  -27.9292  -30.0692  -21.2188 C   0  0  0  0  0  0  0  0  0  0  0  0
  -29.0391  -29.7592  -20.4386 C   0  0  0  0  0  0  0  0  0  0  0  0
  -28.9099  -29.6893  -19.0569 C   0  0  0  0  0  0  0  0  0  0  0  0
  -27.6566  -29.8706  -18.4635 C   0  0  0  0  0  0  0  0  0  0  0  0
  -27.5385  -29.8463  -17.0569 N   0  0  0  0  0  0  0  0  0  0  0  0
  -26.4034  -30.0674  -16.3092 C   0  0  0  0  0  0  0  0  0  0  0  0
  -26.8294  -30.3423  -15.0366 C   0  0  0  0  0  0  0  0  0  0  0  0
  -28.2101  -30.1043  -15.0681 C   0  0  0  0  0  0  0  0  0  0  0  0
  -28.6334  -29.7198  -16.2693 N   0  0  0  0  0  0  0  0  0  0  0  0
  -26.5473  -30.1891  -19.2470 C   0  0  0  0  0  0  0  0  0  0  0  0
  1  2  1  0
  2  3  1  0
  2  4  1  0
  2  5  1  0
  5  6  2  3
  5  7  1  0
  7  8  1  0
  8  9  2  0
  8 10  1  0
 10 11  1  0
 11 12  2  0
 12 13  1  0
 13 14  2  0
 14 15  1  0
 15 16  1  0
 16 17  1  0
 17 18  2  0
 18 19  1  0
 19 20  2  0
 15 21  2  0
 21 11  1  0
 20 16  1  0
M  END
>  <id>  (431) 
386807

>  <inchikey>  (431) 
RYHVDZFDURCZRJ-UHFFFAOYSA-N

>  <alias>  (431) 
None

>  <smiles>  (431) 
CC(C)(O)C(=N)NC(=O)Nc1cccc(-n2cccn2)c1

>  <path>  (431) 
/opt/xchem-fragalysis-2/maxwin/RdRp_FFF/syndirella/mar_elabs/elabs_055/QLFFONPVDDKJCE-UHFFFAOYSA-N/output/QLFFONPVDDKJCE-UHFFFAOYSA-N-gmSv4W-1760-A/QLFFONPVDDKJCE-UHFFFAOYSA-N-gmSv4W-1760-A.minimised.mol

>  <distance_score>  (431) 
1.837164

>  <energy_score>  (431) 
-13.948495

>  <compound>  (431) 
RYHVDZFDURCZRJ-UHFFFAOYSA-N

>  <compound_id>  (431) 
202552

>  <target>  (431) 
Flavi_NS5_RdRp

>  <tags>  (431) 
[]

>  <inspirations>  (431) 
{P Ã— 2}

>  <subsites>  (431) 
None

>  <reference>  (431) 
z0211a

>  <SLURM_JOB_ID>  (431) 
nan

>  <SLURM_JOB_NAME>  (431) 
nan

>  <csv_name>  (431) 
nan

>  <scratch_subdir>  (431) 
nan

>  <fragmenstein_runtime>  (431) 
nan

>  <fragmenstein_outcome>  (431) 
nan

>  <fragmenstein_mode>  (431) 
nan

>  <fragmenstein_error>  (431) 
nan

>  <exports>  (431) 
nan

>  <Multi-SuCOS>  (431) 
nan

>  <merge_set>  (431) 
nan

$$$$
DYPQCVRUVQQFLI-SMDDNHRTSA-N
     RDKit          3D

 21 22  0  0  0  0  0  0  0  0999 V2000
  -23.0106  -34.5282  -25.5787 C   0  0  0  0  0  0  0  0  0  0  0  0
  -23.4145  -33.9758  -24.2184 C   0  0  0  0  0  0  0  0  0  0  0  0
  -22.9206  -32.5376  -23.9915 C   0  0  1  0  0  0  0  0  0  0  0  0
  -23.6969  -31.9174  -22.9384 N   0  0  0  0  0  0  0  0  0  0  0  0
  -24.9629  -31.1477  -22.9945 C   0  0  0  0  0  0  0  0  0  0  0  0
  -25.5936  -30.7936  -23.9182 O   0  0  0  0  0  0  0  0  0  0  0  0
  -25.2511  -31.0409  -21.5309 N   0  0  0  0  0  0  0  0  0  0  0  0
  -26.3779  -30.5798  -20.8589 C   0  0  0  0  0  0  0  0  0  0  0  0
  -27.5573  -30.2375  -21.5144 C   0  0  0  0  0  0  0  0  0  0  0  0
  -28.6689  -29.8115  -20.7848 C   0  0  0  0  0  0  0  0  0  0  0  0
  -28.6010  -29.7207  -19.3984 C   0  0  0  0  0  0  0  0  0  0  0  0
  -27.4023  -30.0102  -18.7403 C   0  0  0  0  0  0  0  0  0  0  0  0
  -27.3382  -29.9151  -17.3272 N   0  0  0  0  0  0  0  0  0  0  0  0
  -26.2442  -30.1298  -16.5159 C   0  0  0  0  0  0  0  0  0  0  0  0
  -26.7217  -30.2480  -15.2349 C   0  0  0  0  0  0  0  0  0  0  0  0
  -28.0912  -29.9729  -15.3419 C   0  0  0  0  0  0  0  0  0  0  0  0
  -28.4562  -29.6840  -16.5901 N   0  0  0  0  0  0  0  0  0  0  0  0
  -26.2955  -30.4565  -19.4727 C   0  0  0  0  0  0  0  0  0  0  0  0
  -21.4013  -32.4170  -23.7278 C   0  0  2  0  0  0  0  0  0  0  0  0
  -20.9439  -32.9618  -22.3807 C   0  0  0  0  0  0  0  0  0  0  0  0
  -20.9743  -31.0548  -23.8186 O   0  0  0  0  0  0  0  0  0  0  0  0
  1  2  1  0
  3  2  1  1
  3  4  1  0
  4  5  1  0
  5  6  2  0
  5  7  1  0
  7  8  1  0
  8  9  2  0
  9 10  1  0
 10 11  2  0
 11 12  1  0
 12 13  1  0
 13 14  1  0
 14 15  2  0
 15 16  1  0
 16 17  2  0
 12 18  2  0
  3 19  1  0
 19 20  1  1
 19 21  1  0
 18  8  1  0
 17 13  1  0
M  END
>  <id>  (432) 
386814

>  <inchikey>  (432) 
DYPQCVRUVQQFLI-SMDDNHRTSA-N

>  <alias>  (432) 
None

>  <smiles>  (432) 
CC[C@@H](NC(=O)Nc1cccc(-n2cccn2)c1)[C@H](C)O

>  <path>  (432) 
/opt/xchem-fragalysis-2/maxwin/RdRp_FFF/syndirella/mar_elabs/elabs_055/QLFFONPVDDKJCE-UHFFFAOYSA-N/output/QLFFONPVDDKJCE-UHFFFAOYSA-N-gmSv4W-1787-B/QLFFONPVDDKJCE-UHFFFAOYSA-N-gmSv4W-1787-B.minimised.mol

>  <distance_score>  (432) 
1.964189

>  <energy_score>  (432) 
-32.129256

>  <compound>  (432) 
DYPQCVRUVQQFLI-UHFFFAOYSA-N

>  <compound_id>  (432) 
202505

>  <target>  (432) 
Flavi_NS5_RdRp

>  <tags>  (432) 
[]

>  <inspirations>  (432) 
{P Ã— 2}

>  <subsites>  (432) 
None

>  <reference>  (432) 
z0211a

>  <SLURM_JOB_ID>  (432) 
nan

>  <SLURM_JOB_NAME>  (432) 
nan

>  <csv_name>  (432) 
nan

>  <scratch_subdir>  (432) 
nan

>  <fragmenstein_runtime>  (432) 
nan

>  <fragmenstein_outcome>  (432) 
nan

>  <fragmenstein_mode>  (432) 
nan

>  <fragmenstein_error>  (432) 
nan

>  <exports>  (432) 
nan

>  <Multi-SuCOS>  (432) 
nan

>  <merge_set>  (432) 
nan

$$$$
JYOBNZDNTUXTSX-CABCVRRESA-N
     RDKit          3D

 22 24  0  0  0  0  0  0  0  0999 V2000
  -28.9984  -30.1316  -14.6303 C   0  0  0  0  0  0  0  0  0  0  0  0
  -28.1070  -30.0024  -15.7607 C   0  0  0  0  0  0  0  0  0  0  0  0
  -26.7228  -30.1455  -15.7372 C   0  0  0  0  0  0  0  0  0  0  0  0
  -26.3519  -30.0522  -17.0540 C   0  0  0  0  0  0  0  0  0  0  0  0
  -24.9864  -30.0808  -17.5970 C   0  0  0  0  0  0  0  0  0  0  0  0
  -27.5266  -29.9630  -17.7851 N   0  0  0  0  0  0  0  0  0  0  0  0
  -27.7631  -30.0877  -19.1704 C   0  0  0  0  0  0  0  0  0  0  0  0
  -28.9886  -29.6574  -19.6703 C   0  0  0  0  0  0  0  0  0  0  0  0
  -29.1464  -29.5360  -21.0326 C   0  0  0  0  0  0  0  0  0  0  0  0
  -28.1143  -29.9245  -21.8844 C   0  0  0  0  0  0  0  0  0  0  0  0
  -26.9753  -30.5332  -21.3944 C   0  0  0  0  0  0  0  0  0  0  0  0
  -26.0172  -31.0096  -22.2741 N   0  0  0  0  0  0  0  0  0  0  0  0
  -24.7771  -31.9182  -22.0196 C   0  0  0  0  0  0  0  0  0  0  0  0
  -24.4343  -32.4477  -21.0688 O   0  0  0  0  0  0  0  0  0  0  0  0
  -24.1348  -31.8827  -23.4398 N   0  0  0  0  0  0  0  0  0  0  0  0
  -22.9740  -32.5922  -23.9700 C   0  0  2  0  0  0  0  0  0  0  0  0
  -22.9499  -34.1044  -23.6776 C   0  0  0  0  0  0  0  0  0  0  0  0
  -21.9475  -33.8321  -22.5474 C   0  0  0  0  0  0  0  0  0  0  0  0
  -21.6438  -32.4621  -23.1797 C   0  0  2  0  0  0  0  0  0  0  0  0
  -21.4817  -31.3833  -22.2468 O   0  0  0  0  0  0  0  0  0  0  0  0
  -26.8019  -30.6196  -20.0289 C   0  0  0  0  0  0  0  0  0  0  0  0
  -28.5863  -29.7448  -16.9689 N   0  0  0  0  0  0  0  0  0  0  0  0
  1  2  1  0
  2  3  1  0
  3  4  2  0
  4  5  1  0
  4  6  1  0
  6  7  1  0
  7  8  2  0
  8  9  1  0
  9 10  2  0
 10 11  1  0
 11 12  1  0
 12 13  1  0
 13 14  2  0
 13 15  1  0
 16 15  1  1
 16 17  1  0
 17 18  1  0
 18 19  1  0
 19 20  1  1
 11 21  2  0
  6 22  1  0
 22  2  2  0
 21  7  1  0
 19 16  1  0
M  END
>  <id>  (433) 
386957

>  <inchikey>  (433) 
JYOBNZDNTUXTSX-CABCVRRESA-N

>  <alias>  (433) 
None

>  <smiles>  (433) 
Cc1cc(C)n(-c2cccc(NC(=O)N[C@@H]3CC[C@@H]3O)c2)n1

>  <path>  (433) 
/opt/xchem-fragalysis-2/maxwin/RdRp_FFF/syndirella/mar_elabs/elabs_055/QLFFONPVDDKJCE-UHFFFAOYSA-N/output/QLFFONPVDDKJCE-UHFFFAOYSA-N-gmSv4W-2492-B/QLFFONPVDDKJCE-UHFFFAOYSA-N-gmSv4W-2492-B.minimised.mol

>  <distance_score>  (433) 
1.865594

>  <energy_score>  (433) 
-9.022683

>  <compound>  (433) 
JYOBNZDNTUXTSX-UHFFFAOYSA-N

>  <compound_id>  (433) 
199141

>  <target>  (433) 
Flavi_NS5_RdRp

>  <tags>  (433) 
[]

>  <inspirations>  (433) 
{P Ã— 2}

>  <subsites>  (433) 
None

>  <reference>  (433) 
z0211a

>  <SLURM_JOB_ID>  (433) 
nan

>  <SLURM_JOB_NAME>  (433) 
nan

>  <csv_name>  (433) 
nan

>  <scratch_subdir>  (433) 
nan

>  <fragmenstein_runtime>  (433) 
nan

>  <fragmenstein_outcome>  (433) 
nan

>  <fragmenstein_mode>  (433) 
nan

>  <fragmenstein_error>  (433) 
nan

>  <exports>  (433) 
nan

>  <Multi-SuCOS>  (433) 
nan

>  <merge_set>  (433) 
nan

$$$$
JQGNHKYGLCPDSB-UHFFFAOYSA-N
     RDKit          3D

 20 22  0  0  0  0  0  0  0  0999 V2000
  -21.6407  -33.8347  -23.5348 C   0  0  0  0  0  0  0  0  0  0  0  0
  -22.2993  -32.7121  -22.7869 C   0  0  0  0  0  0  0  0  0  0  0  0
  -21.4351  -32.2771  -21.7091 O   0  0  0  0  0  0  0  0  0  0  0  0
  -22.8566  -31.6470  -23.6909 C   0  0  0  0  0  0  0  0  0  0  0  0
  -23.8728  -31.3479  -22.6244 N   0  0  0  0  0  0  0  0  0  0  0  0
  -25.3139  -30.8972  -22.7379 C   0  0  0  0  0  0  0  0  0  0  0  0
  -25.9728  -30.7574  -23.6607 O   0  0  0  0  0  0  0  0  0  0  0  0
  -25.6583  -30.7813  -21.2389 N   0  0  0  0  0  0  0  0  0  0  0  0
  -26.8289  -30.3895  -20.6160 C   0  0  0  0  0  0  0  0  0  0  0  0
  -28.0101  -30.1263  -21.2846 C   0  0  0  0  0  0  0  0  0  0  0  0
  -29.1782  -29.8385  -20.5712 C   0  0  0  0  0  0  0  0  0  0  0  0
  -29.1595  -29.7832  -19.1871 C   0  0  0  0  0  0  0  0  0  0  0  0
  -27.9461  -29.9442  -18.5295 C   0  0  0  0  0  0  0  0  0  0  0  0
  -27.8815  -29.8665  -17.1233 N   0  0  0  0  0  0  0  0  0  0  0  0
  -26.7601  -30.0175  -16.3401 C   0  0  0  0  0  0  0  0  0  0  0  0
  -27.2113  -30.2935  -15.0800 C   0  0  0  0  0  0  0  0  0  0  0  0
  -28.5939  -30.0933  -15.1482 C   0  0  0  0  0  0  0  0  0  0  0  0
  -29.0017  -29.7524  -16.3688 N   0  0  0  0  0  0  0  0  0  0  0  0
  -26.7914  -30.2722  -19.2428 C   0  0  0  0  0  0  0  0  0  0  0  0
  -23.7707  -32.8917  -22.4754 C   0  0  0  0  0  0  0  0  0  0  0  0
  1  2  1  0
  2  3  1  0
  2  4  1  0
  4  5  1  0
  5  6  1  0
  6  7  2  0
  6  8  1  0
  8  9  1  0
  9 10  2  0
 10 11  1  0
 11 12  2  0
 12 13  1  0
 13 14  1  0
 14 15  1  0
 15 16  2  0
 16 17  1  0
 17 18  2  0
 13 19  2  0
  5 20  1  0
 20  2  1  0
 19  9  1  0
 18 14  1  0
M  END
>  <id>  (434) 
387225

>  <inchikey>  (434) 
JQGNHKYGLCPDSB-UHFFFAOYSA-N

>  <alias>  (434) 
None

>  <smiles>  (434) 
CC1(O)CN(C(=O)Nc2cccc(-n3cccn3)c2)C1

>  <path>  (434) 
/opt/xchem-fragalysis-2/maxwin/RdRp_FFF/syndirella/mar_elabs/elabs_055/QLFFONPVDDKJCE-UHFFFAOYSA-N/output/QLFFONPVDDKJCE-UHFFFAOYSA-N-vE6A8X-23-A/QLFFONPVDDKJCE-UHFFFAOYSA-N-vE6A8X-23-A.minimised.mol

>  <distance_score>  (434) 
1.690755

>  <energy_score>  (434) 
-1.989507

>  <compound>  (434) 
JQGNHKYGLCPDSB-UHFFFAOYSA-N

>  <compound_id>  (434) 
201338

>  <target>  (434) 
Flavi_NS5_RdRp

>  <tags>  (434) 
[]

>  <inspirations>  (434) 
{P Ã— 2}

>  <subsites>  (434) 
None

>  <reference>  (434) 
z0211a

>  <SLURM_JOB_ID>  (434) 
nan

>  <SLURM_JOB_NAME>  (434) 
nan

>  <csv_name>  (434) 
nan

>  <scratch_subdir>  (434) 
nan

>  <fragmenstein_runtime>  (434) 
nan

>  <fragmenstein_outcome>  (434) 
nan

>  <fragmenstein_mode>  (434) 
nan

>  <fragmenstein_error>  (434) 
nan

>  <exports>  (434) 
nan

>  <Multi-SuCOS>  (434) 
nan

>  <merge_set>  (434) 
nan

$$$$
BWPNFOQUEFBSGP-QWHCGFSZSA-N
     RDKit          3D

 20 22  0  0  0  0  0  0  0  0999 V2000
  -26.9236  -30.2311  -22.9471 C   0  0  0  0  0  0  0  0  0  0  0  0
  -27.0652  -30.3877  -21.4568 C   0  0  0  0  0  0  0  0  0  0  0  0
  -28.2513  -29.9028  -20.8666 C   0  0  0  0  0  0  0  0  0  0  0  0
  -28.3629  -29.7463  -19.4869 C   0  0  0  0  0  0  0  0  0  0  0  0
  -27.2542  -29.9966  -18.6834 C   0  0  0  0  0  0  0  0  0  0  0  0
  -27.3418  -29.8675  -17.2779 N   0  0  0  0  0  0  0  0  0  0  0  0
  -26.3278  -30.0585  -16.3654 C   0  0  0  0  0  0  0  0  0  0  0  0
  -26.9303  -30.2441  -15.1505 C   0  0  0  0  0  0  0  0  0  0  0  0
  -28.2859  -29.9809  -15.3828 C   0  0  0  0  0  0  0  0  0  0  0  0
  -28.5308  -29.6580  -16.6537 N   0  0  0  0  0  0  0  0  0  0  0  0
  -26.0739  -30.4773  -19.2570 C   0  0  0  0  0  0  0  0  0  0  0  0
  -25.9983  -30.7428  -20.6227 C   0  0  0  0  0  0  0  0  0  0  0  0
  -24.8028  -31.3240  -21.0339 N   0  0  0  0  0  0  0  0  0  0  0  0
  -24.5346  -32.3937  -22.0388 C   0  0  0  0  0  0  0  0  0  0  0  0
  -25.2659  -32.9422  -22.7751 O   0  0  0  0  0  0  0  0  0  0  0  0
  -23.0582  -32.5058  -21.8912 N   0  0  0  0  0  0  0  0  0  0  0  0
  -22.1116  -33.2229  -22.6457 C   0  0  1  0  0  0  0  0  0  0  0  0
  -21.8335  -32.8438  -24.0731 C   0  0  0  0  0  0  0  0  0  0  0  0
  -20.8172  -32.5520  -23.0141 C   0  0  1  0  0  0  0  0  0  0  0  0
  -20.6773  -31.1823  -22.5999 O   0  0  0  0  0  0  0  0  0  0  0  0
  1  2  1  0
  2  3  2  0
  3  4  1  0
  4  5  2  0
  5  6  1  0
  6  7  1  0
  7  8  2  0
  8  9  1  0
  9 10  2  0
  5 11  1  0
 11 12  2  0
 12 13  1  0
 13 14  1  0
 14 15  2  0
 14 16  1  0
 17 16  1  1
 17 18  1  0
 18 19  1  0
 19 20  1  1
 12  2  1  0
 19 17  1  0
 10  6  1  0
M  END
>  <id>  (435) 
387227

>  <inchikey>  (435) 
BWPNFOQUEFBSGP-QWHCGFSZSA-N

>  <alias>  (435) 
None

>  <smiles>  (435) 
Cc1ccc(-n2cccn2)cc1NC(=O)N[C@H]1C[C@H]1O

>  <path>  (435) 
/opt/xchem-fragalysis-2/maxwin/RdRp_FFF/syndirella/mar_elabs/elabs_055/QLFFONPVDDKJCE-UHFFFAOYSA-N/output/QLFFONPVDDKJCE-UHFFFAOYSA-N-vE6A8X-51-D/QLFFONPVDDKJCE-UHFFFAOYSA-N-vE6A8X-51-D.minimised.mol

>  <distance_score>  (435) 
1.972178

>  <energy_score>  (435) 
-30.278077

>  <compound>  (435) 
BWPNFOQUEFBSGP-UHFFFAOYSA-N

>  <compound_id>  (435) 
201248

>  <target>  (435) 
Flavi_NS5_RdRp

>  <tags>  (435) 
[]

>  <inspirations>  (435) 
{P Ã— 2}

>  <subsites>  (435) 
None

>  <reference>  (435) 
z0211a

>  <SLURM_JOB_ID>  (435) 
nan

>  <SLURM_JOB_NAME>  (435) 
nan

>  <csv_name>  (435) 
nan

>  <scratch_subdir>  (435) 
nan

>  <fragmenstein_runtime>  (435) 
nan

>  <fragmenstein_outcome>  (435) 
nan

>  <fragmenstein_mode>  (435) 
nan

>  <fragmenstein_error>  (435) 
nan

>  <exports>  (435) 
nan

>  <Multi-SuCOS>  (435) 
nan

>  <merge_set>  (435) 
nan

$$$$
MMTCAUUSAWUNLF-CHWSQXEVSA-N
     RDKit          3D

 20 22  0  0  0  0  0  0  0  0999 V2000
  -22.2980  -33.6209  -25.2126 C   0  0  0  0  0  0  0  0  0  0  0  0
  -21.1690  -33.1364  -24.4925 O   0  0  0  0  0  0  0  0  0  0  0  0
  -21.5482  -32.2110  -23.4572 C   0  0  2  0  0  0  0  0  0  0  0  0
  -20.6919  -32.2110  -22.2246 C   0  0  0  0  0  0  0  0  0  0  0  0
  -22.0576  -32.8224  -22.1802 C   0  0  1  0  0  0  0  0  0  0  0  0
  -23.1077  -32.1975  -21.4876 N   0  0  0  0  0  0  0  0  0  0  0  0
  -24.5580  -31.8597  -21.9460 C   0  0  0  0  0  0  0  0  0  0  0  0
  -25.1026  -32.1144  -22.9157 O   0  0  0  0  0  0  0  0  0  0  0  0
  -25.0529  -31.0964  -20.6883 N   0  0  0  0  0  0  0  0  0  0  0  0
  -26.3097  -30.6042  -20.3738 C   0  0  0  0  0  0  0  0  0  0  0  0
  -27.3575  -30.4635  -21.2642 C   0  0  0  0  0  0  0  0  0  0  0  0
  -28.6065  -30.0088  -20.8149 C   0  0  0  0  0  0  0  0  0  0  0  0
  -28.8354  -29.7575  -19.4723 C   0  0  0  0  0  0  0  0  0  0  0  0
  -27.7674  -29.8637  -18.5959 C   0  0  0  0  0  0  0  0  0  0  0  0
  -27.9631  -29.7458  -17.2076 N   0  0  0  0  0  0  0  0  0  0  0  0
  -27.0077  -29.9301  -16.2329 C   0  0  0  0  0  0  0  0  0  0  0  0
  -27.6937  -30.3539  -15.1300 C   0  0  0  0  0  0  0  0  0  0  0  0
  -29.0334  -30.1144  -15.4348 C   0  0  0  0  0  0  0  0  0  0  0  0
  -29.2000  -29.6408  -16.6683 N   0  0  0  0  0  0  0  0  0  0  0  0
  -26.5047  -30.2453  -19.0567 C   0  0  0  0  0  0  0  0  0  0  0  0
  1  2  1  0
  3  2  1  6
  3  4  1  0
  4  5  1  0
  5  6  1  1
  6  7  1  0
  7  8  2  0
  7  9  1  0
  9 10  1  0
 10 11  2  0
 11 12  1  0
 12 13  2  0
 13 14  1  0
 14 15  1  0
 15 16  1  0
 16 17  2  0
 17 18  1  0
 18 19  2  0
 14 20  2  0
  5  3  1  0
 20 10  1  0
 19 15  1  0
M  END
>  <id>  (436) 
387230

>  <inchikey>  (436) 
MMTCAUUSAWUNLF-CHWSQXEVSA-N

>  <alias>  (436) 
None

>  <smiles>  (436) 
CO[C@@H]1C[C@H]1NC(=O)Nc1cccc(-n2cccn2)c1

>  <path>  (436) 
/opt/xchem-fragalysis-2/maxwin/RdRp_FFF/syndirella/mar_elabs/elabs_055/QLFFONPVDDKJCE-UHFFFAOYSA-N/output/QLFFONPVDDKJCE-UHFFFAOYSA-N-vE6A8X-59-C/QLFFONPVDDKJCE-UHFFFAOYSA-N-vE6A8X-59-C.minimised.mol

>  <distance_score>  (436) 
1.698391

>  <energy_score>  (436) 
-22.736701

>  <compound>  (436) 
MMTCAUUSAWUNLF-UHFFFAOYSA-N

>  <compound_id>  (436) 
201331

>  <target>  (436) 
Flavi_NS5_RdRp

>  <tags>  (436) 
[]

>  <inspirations>  (436) 
{P Ã— 2}

>  <subsites>  (436) 
None

>  <reference>  (436) 
z0211a

>  <SLURM_JOB_ID>  (436) 
nan

>  <SLURM_JOB_NAME>  (436) 
nan

>  <csv_name>  (436) 
nan

>  <scratch_subdir>  (436) 
nan

>  <fragmenstein_runtime>  (436) 
nan

>  <fragmenstein_outcome>  (436) 
nan

>  <fragmenstein_mode>  (436) 
nan

>  <fragmenstein_error>  (436) 
nan

>  <exports>  (436) 
nan

>  <Multi-SuCOS>  (436) 
nan

>  <merge_set>  (436) 
nan

$$$$
RRXPOYRRGPKLBU-LBPRGKRZSA-N
     RDKit          3D

 20 21  0  0  0  0  0  0  0  0999 V2000
  -26.0506  -30.5388  -23.6508 O   0  0  0  0  0  0  0  0  0  0  0  0
  -25.4522  -30.8679  -22.7422 C   0  0  0  0  0  0  0  0  0  0  0  0
  -24.0789  -31.5629  -22.6516 N   0  0  0  0  0  0  0  0  0  0  0  0
  -23.1460  -31.8963  -23.6719 C   0  0  0  0  0  0  0  0  0  0  0  0
  -22.0360  -32.8075  -23.1655 C   0  0  2  0  0  0  0  0  0  0  0  0
  -21.5712  -32.3393  -21.8912 O   0  0  0  0  0  0  0  0  0  0  0  0
  -20.8925  -32.8127  -24.1764 C   0  0  0  0  0  0  0  0  0  0  0  0
  -21.2701  -33.3493  -25.4392 O   0  0  0  0  0  0  0  0  0  0  0  0
  -25.7983  -30.7936  -21.2378 N   0  0  0  0  0  0  0  0  0  0  0  0
  -26.9580  -30.3939  -20.6064 C   0  0  0  0  0  0  0  0  0  0  0  0
  -28.1330  -30.1053  -21.2723 C   0  0  0  0  0  0  0  0  0  0  0  0
  -29.3017  -29.8328  -20.5569 C   0  0  0  0  0  0  0  0  0  0  0  0
  -29.2826  -29.8008  -19.1729 C   0  0  0  0  0  0  0  0  0  0  0  0
  -28.0668  -29.9599  -18.5208 C   0  0  0  0  0  0  0  0  0  0  0  0
  -27.9932  -29.8748  -17.1179 N   0  0  0  0  0  0  0  0  0  0  0  0
  -26.8581  -29.9849  -16.3477 C   0  0  0  0  0  0  0  0  0  0  0  0
  -27.2852  -30.2648  -15.0812 C   0  0  0  0  0  0  0  0  0  0  0  0
  -28.6736  -30.1050  -15.1352 C   0  0  0  0  0  0  0  0  0  0  0  0
  -29.1085  -29.7920  -16.3543 N   0  0  0  0  0  0  0  0  0  0  0  0
  -26.9151  -30.2897  -19.2352 C   0  0  0  0  0  0  0  0  0  0  0  0
  1  2  2  0
  2  3  1  0
  3  4  1  0
  4  5  1  0
  5  6  1  1
  5  7  1  0
  7  8  1  0
  2  9  1  0
  9 10  1  0
 10 11  2  0
 11 12  1  0
 12 13  2  0
 13 14  1  0
 14 15  1  0
 15 16  1  0
 16 17  2  0
 17 18  1  0
 18 19  2  0
 14 20  2  0
 20 10  1  0
 19 15  1  0
M  END
>  <id>  (437) 
387249

>  <inchikey>  (437) 
RRXPOYRRGPKLBU-LBPRGKRZSA-N

>  <alias>  (437) 
None

>  <smiles>  (437) 
O=C(NC[C@H](O)CO)Nc1cccc(-n2cccn2)c1

>  <path>  (437) 
/opt/xchem-fragalysis-2/maxwin/RdRp_FFF/syndirella/mar_elabs/elabs_055/QLFFONPVDDKJCE-UHFFFAOYSA-N/output/QLFFONPVDDKJCE-UHFFFAOYSA-N-vE6A8X-124-A/QLFFONPVDDKJCE-UHFFFAOYSA-N-vE6A8X-124-A.minimised.mol

>  <distance_score>  (437) 
1.538279

>  <energy_score>  (437) 
-0.326653

>  <compound>  (437) 
RRXPOYRRGPKLBU-UHFFFAOYSA-N

>  <compound_id>  (437) 
201381

>  <target>  (437) 
Flavi_NS5_RdRp

>  <tags>  (437) 
[]

>  <inspirations>  (437) 
{P Ã— 2}

>  <subsites>  (437) 
None

>  <reference>  (437) 
z0211a

>  <SLURM_JOB_ID>  (437) 
nan

>  <SLURM_JOB_NAME>  (437) 
nan

>  <csv_name>  (437) 
nan

>  <scratch_subdir>  (437) 
nan

>  <fragmenstein_runtime>  (437) 
nan

>  <fragmenstein_outcome>  (437) 
nan

>  <fragmenstein_mode>  (437) 
nan

>  <fragmenstein_error>  (437) 
nan

>  <exports>  (437) 
nan

>  <Multi-SuCOS>  (437) 
nan

>  <merge_set>  (437) 
nan

$$$$
USFHDSYXEMFGRV-UHFFFAOYSA-N
     RDKit          3D

 21 22  0  0  0  0  0  0  0  0999 V2000
  -20.7867  -33.2512  -24.8883 C   0  0  0  0  0  0  0  0  0  0  0  0
  -21.6687  -33.7638  -23.9088 O   0  0  0  0  0  0  0  0  0  0  0  0
  -22.2748  -32.7961  -23.0399 C   0  0  0  0  0  0  0  0  0  0  0  0
  -21.2433  -31.8244  -22.4430 C   0  0  0  0  0  0  0  0  0  0  0  0
  -23.3670  -32.0741  -23.8437 C   0  0  0  0  0  0  0  0  0  0  0  0
  -22.9232  -33.5945  -21.8759 C   0  0  0  0  0  0  0  0  0  0  0  0
  -23.8558  -32.7539  -21.1820 N   0  0  0  0  0  0  0  0  0  0  0  0
  -25.3700  -32.5442  -21.4035 C   0  0  0  0  0  0  0  0  0  0  0  0
  -26.0876  -33.0659  -22.1139 O   0  0  0  0  0  0  0  0  0  0  0  0
  -25.5999  -31.3510  -20.4516 N   0  0  0  0  0  0  0  0  0  0  0  0
  -26.7537  -30.6638  -20.1450 C   0  0  0  0  0  0  0  0  0  0  0  0
  -27.8923  -30.6904  -20.9282 C   0  0  0  0  0  0  0  0  0  0  0  0
  -29.1121  -30.2341  -20.4257 C   0  0  0  0  0  0  0  0  0  0  0  0
  -29.2052  -29.8321  -19.1095 C   0  0  0  0  0  0  0  0  0  0  0  0
  -28.0349  -29.7581  -18.3648 C   0  0  0  0  0  0  0  0  0  0  0  0
  -28.0614  -29.6543  -16.9670 N   0  0  0  0  0  0  0  0  0  0  0  0
  -29.1496  -29.7202  -16.1443 C   0  0  0  0  0  0  0  0  0  0  0  0
  -28.6697  -30.0830  -14.9135 C   0  0  0  0  0  0  0  0  0  0  0  0
  -27.2848  -30.1263  -15.0634 C   0  0  0  0  0  0  0  0  0  0  0  0
  -26.9041  -29.7111  -16.2632 N   0  0  0  0  0  0  0  0  0  0  0  0
  -26.7920  -30.0551  -18.9222 C   0  0  0  0  0  0  0  0  0  0  0  0
  1  2  1  0
  2  3  1  0
  3  4  1  0
  3  5  1  0
  3  6  1  0
  6  7  1  0
  7  8  1  0
  8  9  2  0
  8 10  1  0
 10 11  1  0
 11 12  2  0
 12 13  1  0
 13 14  2  0
 14 15  1  0
 15 16  1  0
 16 17  1  0
 17 18  2  0
 18 19  1  0
 19 20  2  0
 15 21  2  0
 21 11  1  0
 20 16  1  0
M  END
>  <id>  (438) 
387309

>  <inchikey>  (438) 
USFHDSYXEMFGRV-UHFFFAOYSA-N

>  <alias>  (438) 
None

>  <smiles>  (438) 
COC(C)(C)CNC(=O)Nc1cccc(-n2cccn2)c1

>  <path>  (438) 
/opt/xchem-fragalysis-2/maxwin/RdRp_FFF/syndirella/mar_elabs/elabs_055/QLFFONPVDDKJCE-UHFFFAOYSA-N/output/QLFFONPVDDKJCE-UHFFFAOYSA-N-vE6A8X-436-A/QLFFONPVDDKJCE-UHFFFAOYSA-N-vE6A8X-436-A.minimised.mol

>  <distance_score>  (438) 
1.943733

>  <energy_score>  (438) 
-4.820149

>  <compound>  (438) 
USFHDSYXEMFGRV-UHFFFAOYSA-N

>  <compound_id>  (438) 
202501

>  <target>  (438) 
Flavi_NS5_RdRp

>  <tags>  (438) 
[]

>  <inspirations>  (438) 
{P Ã— 2}

>  <subsites>  (438) 
None

>  <reference>  (438) 
z0211a

>  <SLURM_JOB_ID>  (438) 
nan

>  <SLURM_JOB_NAME>  (438) 
nan

>  <csv_name>  (438) 
nan

>  <scratch_subdir>  (438) 
nan

>  <fragmenstein_runtime>  (438) 
nan

>  <fragmenstein_outcome>  (438) 
nan

>  <fragmenstein_mode>  (438) 
nan

>  <fragmenstein_error>  (438) 
nan

>  <exports>  (438) 
nan

>  <Multi-SuCOS>  (438) 
nan

>  <merge_set>  (438) 
nan

$$$$
DLZOWGAXDHLOMV-UONOGXRCSA-N
     RDKit          3D

 21 23  0  0  0  0  0  0  0  0999 V2000
  -20.2685  -31.5109  -21.3523 C   0  0  0  0  0  0  0  0  0  0  0  0
  -20.8206  -31.7281  -22.6447 O   0  0  0  0  0  0  0  0  0  0  0  0
  -21.2366  -33.0777  -22.8622 C   0  0  2  0  0  0  0  0  0  0  0  0
  -22.2383  -33.2271  -23.9607 C   0  0  0  0  0  0  0  0  0  0  0  0
  -22.6567  -33.4489  -22.5405 C   0  0  2  0  0  0  0  0  0  0  0  0
  -23.5115  -32.5339  -21.9051 N   0  0  0  0  0  0  0  0  0  0  0  0
  -25.0608  -32.5091  -21.8030 C   0  0  0  0  0  0  0  0  0  0  0  0
  -25.8424  -33.1864  -22.2852 O   0  0  0  0  0  0  0  0  0  0  0  0
  -25.2375  -31.2692  -20.8783 N   0  0  0  0  0  0  0  0  0  0  0  0
  -26.3841  -30.6102  -20.4737 C   0  0  0  0  0  0  0  0  0  0  0  0
  -26.4680  -30.3178  -19.1296 C   0  0  0  0  0  0  0  0  0  0  0  0
  -27.6761  -29.8881  -18.5743 C   0  0  0  0  0  0  0  0  0  0  0  0
  -27.7742  -29.7899  -17.1714 N   0  0  0  0  0  0  0  0  0  0  0  0
  -26.7587  -29.9945  -16.2655 C   0  0  0  0  0  0  0  0  0  0  0  0
  -27.3716  -30.3556  -15.0985 C   0  0  0  0  0  0  0  0  0  0  0  0
  -28.7275  -30.0922  -15.3139 C   0  0  0  0  0  0  0  0  0  0  0  0
  -28.9697  -29.6479  -16.5468 N   0  0  0  0  0  0  0  0  0  0  0  0
  -28.7923  -29.6976  -19.3772 C   0  0  0  0  0  0  0  0  0  0  0  0
  -28.6490  -29.8280  -20.7509 C   0  0  0  0  0  0  0  0  0  0  0  0
  -27.4410  -30.2803  -21.3145 C   0  0  0  0  0  0  0  0  0  0  0  0
  -27.2244  -30.1581  -22.7974 C   0  0  0  0  0  0  0  0  0  0  0  0
  1  2  1  0
  3  2  1  1
  3  4  1  0
  4  5  1  0
  5  6  1  1
  6  7  1  0
  7  8  2  0
  7  9  1  0
  9 10  1  0
 10 11  2  0
 11 12  1  0
 12 13  1  0
 13 14  1  0
 14 15  2  0
 15 16  1  0
 16 17  2  0
 12 18  2  0
 18 19  1  0
 19 20  2  0
 20 21  1  0
  5  3  1  0
 20 10  1  0
 17 13  1  0
M  END
>  <id>  (439) 
387313

>  <inchikey>  (439) 
DLZOWGAXDHLOMV-UONOGXRCSA-N

>  <alias>  (439) 
None

>  <smiles>  (439) 
CO[C@@H]1C[C@@H]1NC(=O)Nc1cc(-n2cccn2)ccc1C

>  <path>  (439) 
/opt/xchem-fragalysis-2/maxwin/RdRp_FFF/syndirella/mar_elabs/elabs_055/QLFFONPVDDKJCE-UHFFFAOYSA-N/output/QLFFONPVDDKJCE-UHFFFAOYSA-N-vE6A8X-454-B/QLFFONPVDDKJCE-UHFFFAOYSA-N-vE6A8X-454-B.minimised.mol

>  <distance_score>  (439) 
1.964915

>  <energy_score>  (439) 
-11.661251

>  <compound>  (439) 
DLZOWGAXDHLOMV-UHFFFAOYSA-N

>  <compound_id>  (439) 
202461

>  <target>  (439) 
Flavi_NS5_RdRp

>  <tags>  (439) 
[]

>  <inspirations>  (439) 
{P Ã— 2}

>  <subsites>  (439) 
None

>  <reference>  (439) 
z0211a

>  <SLURM_JOB_ID>  (439) 
nan

>  <SLURM_JOB_NAME>  (439) 
nan

>  <csv_name>  (439) 
nan

>  <scratch_subdir>  (439) 
nan

>  <fragmenstein_runtime>  (439) 
nan

>  <fragmenstein_outcome>  (439) 
nan

>  <fragmenstein_mode>  (439) 
nan

>  <fragmenstein_error>  (439) 
nan

>  <exports>  (439) 
nan

>  <Multi-SuCOS>  (439) 
nan

>  <merge_set>  (439) 
nan

$$$$
JORGRSBLFYXUTH-KBPBESRZSA-N
     RDKit          3D

 21 23  0  0  0  0  0  0  0  0999 V2000
  -21.4463  -33.5858  -25.8181 C   0  0  0  0  0  0  0  0  0  0  0  0
  -20.8768  -33.3614  -24.5312 O   0  0  0  0  0  0  0  0  0  0  0  0
  -21.8805  -33.3088  -23.5074 C   0  0  1  0  0  0  0  0  0  0  0  0
  -21.4329  -33.0733  -22.0986 C   0  0  0  0  0  0  0  0  0  0  0  0
  -22.0437  -31.9609  -22.8872 C   0  0  2  0  0  0  0  0  0  0  0  0
  -23.3453  -31.4608  -22.6975 N   0  0  0  0  0  0  0  0  0  0  0  0
  -24.5338  -32.0253  -21.8505 C   0  0  0  0  0  0  0  0  0  0  0  0
  -24.6223  -32.9999  -21.2621 O   0  0  0  0  0  0  0  0  0  0  0  0
  -25.5255  -30.8392  -21.9802 N   0  0  0  0  0  0  0  0  0  0  0  0
  -26.7306  -30.6092  -21.3489 C   0  0  0  0  0  0  0  0  0  0  0  0
  -27.8051  -29.9813  -21.9397 C   0  0  0  0  0  0  0  0  0  0  0  0
  -28.9150  -29.5984  -21.1725 C   0  0  0  0  0  0  0  0  0  0  0  0
  -28.8949  -29.7254  -19.7979 C   0  0  0  0  0  0  0  0  0  0  0  0
  -27.7293  -30.1890  -19.2087 C   0  0  0  0  0  0  0  0  0  0  0  0
  -27.5260  -30.0108  -17.8313 N   0  0  0  0  0  0  0  0  0  0  0  0
  -26.3369  -30.0879  -17.1342 C   0  0  0  0  0  0  0  0  0  0  0  0
  -26.6662  -30.1236  -15.8077 C   0  0  0  0  0  0  0  0  0  0  0  0
  -28.0594  -29.9804  -15.8061 C   0  0  0  0  0  0  0  0  0  0  0  0
  -28.9444  -30.1124  -14.6649 C   0  0  0  0  0  0  0  0  0  0  0  0
  -28.5609  -29.7426  -17.0135 N   0  0  0  0  0  0  0  0  0  0  0  0
  -26.7114  -30.7487  -19.9756 C   0  0  0  0  0  0  0  0  0  0  0  0
  1  2  1  0
  3  2  1  6
  3  4  1  0
  4  5  1  0
  5  6  1  1
  6  7  1  0
  7  8  2  0
  7  9  1  0
  9 10  1  0
 10 11  2  0
 11 12  1  0
 12 13  2  0
 13 14  1  0
 14 15  1  0
 15 16  1  0
 16 17  2  0
 17 18  1  0
 18 19  1  0
 18 20  2  0
 14 21  2  0
  5  3  1  0
 21 10  1  0
 20 15  1  0
M  END
>  <id>  (440) 
387317

>  <inchikey>  (440) 
JORGRSBLFYXUTH-KBPBESRZSA-N

>  <alias>  (440) 
None

>  <smiles>  (440) 
CO[C@H]1C[C@@H]1NC(=O)Nc1cccc(-n2ccc(C)n2)c1

>  <path>  (440) 
/opt/xchem-fragalysis-2/maxwin/RdRp_FFF/syndirella/mar_elabs/elabs_055/QLFFONPVDDKJCE-UHFFFAOYSA-N/output/QLFFONPVDDKJCE-UHFFFAOYSA-N-vE6A8X-458-B/QLFFONPVDDKJCE-UHFFFAOYSA-N-vE6A8X-458-B.minimised.mol

>  <distance_score>  (440) 
1.934635

>  <energy_score>  (440) 
-10.693023

>  <compound>  (440) 
JORGRSBLFYXUTH-UHFFFAOYSA-N

>  <compound_id>  (440) 
198440

>  <target>  (440) 
Flavi_NS5_RdRp

>  <tags>  (440) 
[]

>  <inspirations>  (440) 
{P Ã— 2}

>  <subsites>  (440) 
None

>  <reference>  (440) 
z0211a

>  <SLURM_JOB_ID>  (440) 
nan

>  <SLURM_JOB_NAME>  (440) 
nan

>  <csv_name>  (440) 
nan

>  <scratch_subdir>  (440) 
nan

>  <fragmenstein_runtime>  (440) 
nan

>  <fragmenstein_outcome>  (440) 
nan

>  <fragmenstein_mode>  (440) 
nan

>  <fragmenstein_error>  (440) 
nan

>  <exports>  (440) 
nan

>  <Multi-SuCOS>  (440) 
nan

>  <merge_set>  (440) 
nan

$$$$
ADYWLASXMCLZTC-BXUZGUMPSA-N
     RDKit          3D

 21 22  0  0  0  0  0  0  0  0999 V2000
  -21.3109  -33.4181  -25.7056 C   0  0  0  0  0  0  0  0  0  0  0  0
  -20.9851  -32.7422  -24.3845 C   0  0  0  0  0  0  0  0  0  0  0  0
  -22.0877  -32.7310  -23.3268 C   0  0  1  0  0  0  0  0  0  0  0  0
  -21.6711  -31.8141  -22.2962 O   0  0  0  0  0  0  0  0  0  0  0  0
  -23.4892  -32.3498  -23.8430 C   0  0  1  0  0  0  0  0  0  0  0  0
  -24.2798  -33.5392  -24.3881 C   0  0  0  0  0  0  0  0  0  0  0  0
  -24.2453  -31.7514  -22.7774 N   0  0  0  0  0  0  0  0  0  0  0  0
  -25.5327  -30.8990  -22.8203 C   0  0  0  0  0  0  0  0  0  0  0  0
  -26.1193  -30.4971  -23.7083 O   0  0  0  0  0  0  0  0  0  0  0  0
  -25.8452  -30.8396  -21.3055 N   0  0  0  0  0  0  0  0  0  0  0  0
  -26.9581  -30.3661  -20.6403 C   0  0  0  0  0  0  0  0  0  0  0  0
  -28.1365  -30.0363  -21.2837 C   0  0  0  0  0  0  0  0  0  0  0  0
  -29.2905  -29.7628  -20.5477 C   0  0  0  0  0  0  0  0  0  0  0  0
  -29.2513  -29.7644  -19.1641 C   0  0  0  0  0  0  0  0  0  0  0  0
  -28.0297  -29.9567  -18.5312 C   0  0  0  0  0  0  0  0  0  0  0  0
  -27.9419  -29.8934  -17.1276 N   0  0  0  0  0  0  0  0  0  0  0  0
  -26.8029  -30.0310  -16.3663 C   0  0  0  0  0  0  0  0  0  0  0  0
  -27.2235  -30.2847  -15.0912 C   0  0  0  0  0  0  0  0  0  0  0  0
  -28.6086  -30.0962  -15.1339 C   0  0  0  0  0  0  0  0  0  0  0  0
  -29.0464  -29.7796  -16.3505 N   0  0  0  0  0  0  0  0  0  0  0  0
  -26.8927  -30.2937  -19.2672 C   0  0  0  0  0  0  0  0  0  0  0  0
  1  2  1  0
  2  3  1  0
  3  4  1  1
  3  5  1  0
  5  6  1  1
  5  7  1  0
  7  8  1  0
  8  9  2  0
  8 10  1  0
 10 11  1  0
 11 12  2  0
 12 13  1  0
 13 14  2  0
 14 15  1  0
 15 16  1  0
 16 17  1  0
 17 18  2  0
 18 19  1  0
 19 20  2  0
 15 21  2  0
 21 11  1  0
 20 16  1  0
M  END
>  <id>  (441) 
387335

>  <inchikey>  (441) 
ADYWLASXMCLZTC-BXUZGUMPSA-N

>  <alias>  (441) 
None

>  <smiles>  (441) 
CC[C@@H](O)[C@@H](C)NC(=O)Nc1cccc(-n2cccn2)c1

>  <path>  (441) 
/opt/xchem-fragalysis-2/maxwin/RdRp_FFF/syndirella/mar_elabs/elabs_055/QLFFONPVDDKJCE-UHFFFAOYSA-N/output/QLFFONPVDDKJCE-UHFFFAOYSA-N-vE6A8X-490-D/QLFFONPVDDKJCE-UHFFFAOYSA-N-vE6A8X-490-D.minimised.mol

>  <distance_score>  (441) 
1.567034

>  <energy_score>  (441) 
-25.367868

>  <compound>  (441) 
ADYWLASXMCLZTC-UHFFFAOYSA-N

>  <compound_id>  (441) 
204187

>  <target>  (441) 
Flavi_NS5_RdRp

>  <tags>  (441) 
[]

>  <inspirations>  (441) 
{P Ã— 2}

>  <subsites>  (441) 
None

>  <reference>  (441) 
z0211a

>  <SLURM_JOB_ID>  (441) 
nan

>  <SLURM_JOB_NAME>  (441) 
nan

>  <csv_name>  (441) 
nan

>  <scratch_subdir>  (441) 
nan

>  <fragmenstein_runtime>  (441) 
nan

>  <fragmenstein_outcome>  (441) 
nan

>  <fragmenstein_mode>  (441) 
nan

>  <fragmenstein_error>  (441) 
nan

>  <exports>  (441) 
nan

>  <Multi-SuCOS>  (441) 
nan

>  <merge_set>  (441) 
nan

$$$$
BWUPATUOIPBGOV-ZWNOBZJWSA-N
     RDKit          3D

 21 22  0  0  0  0  0  0  0  0999 V2000
  -24.1499  -33.4951  -24.3308 C   0  0  0  0  0  0  0  0  0  0  0  0
  -23.4037  -32.2901  -23.7598 C   0  0  1  0  0  0  0  0  0  0  0  0
  -24.1907  -31.7010  -22.7058 N   0  0  0  0  0  0  0  0  0  0  0  0
  -25.4972  -30.8791  -22.7725 C   0  0  0  0  0  0  0  0  0  0  0  0
  -26.0804  -30.4969  -23.6715 O   0  0  0  0  0  0  0  0  0  0  0  0
  -25.8333  -30.8167  -21.2601 N   0  0  0  0  0  0  0  0  0  0  0  0
  -26.9666  -30.3646  -20.6142 C   0  0  0  0  0  0  0  0  0  0  0  0
  -28.1301  -30.0580  -21.2969 C   0  0  0  0  0  0  0  0  0  0  0  0
  -29.3122  -29.7972  -20.6047 C   0  0  0  0  0  0  0  0  0  0  0  0
  -29.3252  -29.8011  -19.2220 C   0  0  0  0  0  0  0  0  0  0  0  0
  -28.1224  -29.9684  -18.5466 C   0  0  0  0  0  0  0  0  0  0  0  0
  -28.0581  -29.9055  -17.1416 N   0  0  0  0  0  0  0  0  0  0  0  0
  -29.0973  -29.8259  -16.2522 C   0  0  0  0  0  0  0  0  0  0  0  0
  -28.5707  -30.0757  -15.0128 C   0  0  0  0  0  0  0  0  0  0  0  0
  -27.1985  -30.2009  -15.2278 C   0  0  0  0  0  0  0  0  0  0  0  0
  -26.8680  -30.0059  -16.4994 N   0  0  0  0  0  0  0  0  0  0  0  0
  -26.9478  -30.2762  -19.2410 C   0  0  0  0  0  0  0  0  0  0  0  0
  -22.0005  -32.6330  -23.2322 C   0  0  2  0  0  0  0  0  0  0  0  0
  -21.5808  -31.6768  -22.2427 O   0  0  0  0  0  0  0  0  0  0  0  0
  -20.9283  -32.6846  -24.3213 C   0  0  0  0  0  0  0  0  0  0  0  0
  -21.3102  -33.3518  -25.5178 O   0  0  0  0  0  0  0  0  0  0  0  0
  2  1  1  1
  2  3  1  0
  3  4  1  0
  4  5  2  0
  4  6  1  0
  6  7  1  0
  7  8  2  0
  8  9  1  0
  9 10  2  0
 10 11  1  0
 11 12  1  0
 12 13  1  0
 13 14  2  0
 14 15  1  0
 15 16  2  0
 11 17  2  0
  2 18  1  0
 18 19  1  1
 18 20  1  0
 20 21  1  0
 17  7  1  0
 16 12  1  0
M  END
>  <id>  (442) 
387336

>  <inchikey>  (442) 
BWUPATUOIPBGOV-ZWNOBZJWSA-N

>  <alias>  (442) 
None

>  <smiles>  (442) 
C[C@@H](NC(=O)Nc1cccc(-n2cccn2)c1)[C@H](O)CO

>  <path>  (442) 
/opt/xchem-fragalysis-2/maxwin/RdRp_FFF/syndirella/mar_elabs/elabs_055/QLFFONPVDDKJCE-UHFFFAOYSA-N/output/QLFFONPVDDKJCE-UHFFFAOYSA-N-vE6A8X-495-B/QLFFONPVDDKJCE-UHFFFAOYSA-N-vE6A8X-495-B.minimised.mol

>  <distance_score>  (442) 
1.964564

>  <energy_score>  (442) 
-26.426445

>  <compound>  (442) 
BWUPATUOIPBGOV-UHFFFAOYSA-N

>  <compound_id>  (442) 
202529

>  <target>  (442) 
Flavi_NS5_RdRp

>  <tags>  (442) 
[]

>  <inspirations>  (442) 
{P Ã— 2}

>  <subsites>  (442) 
None

>  <reference>  (442) 
z0211a

>  <SLURM_JOB_ID>  (442) 
nan

>  <SLURM_JOB_NAME>  (442) 
nan

>  <csv_name>  (442) 
nan

>  <scratch_subdir>  (442) 
nan

>  <fragmenstein_runtime>  (442) 
nan

>  <fragmenstein_outcome>  (442) 
nan

>  <fragmenstein_mode>  (442) 
nan

>  <fragmenstein_error>  (442) 
nan

>  <exports>  (442) 
nan

>  <Multi-SuCOS>  (442) 
nan

>  <merge_set>  (442) 
nan

$$$$
KIHGRPJEYHRTAB-GWCFXTLKSA-N
     RDKit          3D

 21 22  0  0  0  0  0  0  0  0999 V2000
  -20.9088  -32.7822  -24.4605 C   0  0  0  0  0  0  0  0  0  0  0  0
  -21.9797  -32.1979  -23.5693 C   0  0  2  0  0  0  0  0  0  0  0  0
  -21.3138  -31.4692  -22.5256 O   0  0  0  0  0  0  0  0  0  0  0  0
  -22.9003  -33.2505  -22.9384 C   0  0  2  0  0  0  0  0  0  0  0  0
  -23.6953  -34.0652  -23.9746 C   0  0  0  0  0  0  0  0  0  0  0  0
  -22.9147  -35.1153  -24.5378 O   0  0  0  0  0  0  0  0  0  0  0  0
  -23.8131  -32.5541  -22.0586 N   0  0  0  0  0  0  0  0  0  0  0  0
  -25.0273  -31.6552  -22.3846 C   0  0  0  0  0  0  0  0  0  0  0  0
  -25.5105  -31.4080  -23.3826 O   0  0  0  0  0  0  0  0  0  0  0  0
  -25.4512  -31.2750  -20.9490 N   0  0  0  0  0  0  0  0  0  0  0  0
  -26.5772  -30.6129  -20.4927 C   0  0  0  0  0  0  0  0  0  0  0  0
  -27.6751  -30.2988  -21.2742 C   0  0  0  0  0  0  0  0  0  0  0  0
  -28.8577  -29.8449  -20.6756 C   0  0  0  0  0  0  0  0  0  0  0  0
  -28.9419  -29.7015  -19.2993 C   0  0  0  0  0  0  0  0  0  0  0  0
  -27.7995  -29.9062  -18.5394 C   0  0  0  0  0  0  0  0  0  0  0  0
  -27.8355  -29.7996  -17.1350 N   0  0  0  0  0  0  0  0  0  0  0  0
  -26.7760  -29.9820  -16.2764 C   0  0  0  0  0  0  0  0  0  0  0  0
  -27.3272  -30.3339  -15.0770 C   0  0  0  0  0  0  0  0  0  0  0  0
  -28.6957  -30.0924  -15.2330 C   0  0  0  0  0  0  0  0  0  0  0  0
  -29.0024  -29.6708  -16.4596 N   0  0  0  0  0  0  0  0  0  0  0  0
  -26.6232  -30.3592  -19.1394 C   0  0  0  0  0  0  0  0  0  0  0  0
  2  1  1  6
  2  3  1  0
  2  4  1  0
  4  5  1  6
  5  6  1  0
  4  7  1  0
  7  8  1  0
  8  9  2  0
  8 10  1  0
 10 11  1  0
 11 12  2  0
 12 13  1  0
 13 14  2  0
 14 15  1  0
 15 16  1  0
 16 17  1  0
 17 18  2  0
 18 19  1  0
 19 20  2  0
 15 21  2  0
 21 11  1  0
 20 16  1  0
M  END
>  <id>  (443) 
387345

>  <inchikey>  (443) 
KIHGRPJEYHRTAB-GWCFXTLKSA-N

>  <alias>  (443) 
None

>  <smiles>  (443) 
C[C@H](O)[C@H](CO)NC(=O)Nc1cccc(-n2cccn2)c1

>  <path>  (443) 
/opt/xchem-fragalysis-2/maxwin/RdRp_FFF/syndirella/mar_elabs/elabs_055/QLFFONPVDDKJCE-UHFFFAOYSA-N/output/QLFFONPVDDKJCE-UHFFFAOYSA-N-vE6A8X-546-A/QLFFONPVDDKJCE-UHFFFAOYSA-N-vE6A8X-546-A.minimised.mol

>  <distance_score>  (443) 
1.728537

>  <energy_score>  (443) 
-37.344048

>  <compound>  (443) 
KIHGRPJEYHRTAB-UHFFFAOYSA-N

>  <compound_id>  (443) 
202510

>  <target>  (443) 
Flavi_NS5_RdRp

>  <tags>  (443) 
[]

>  <inspirations>  (443) 
{P Ã— 2}

>  <subsites>  (443) 
None

>  <reference>  (443) 
z0211a

>  <SLURM_JOB_ID>  (443) 
nan

>  <SLURM_JOB_NAME>  (443) 
nan

>  <csv_name>  (443) 
nan

>  <scratch_subdir>  (443) 
nan

>  <fragmenstein_runtime>  (443) 
nan

>  <fragmenstein_outcome>  (443) 
nan

>  <fragmenstein_mode>  (443) 
nan

>  <fragmenstein_error>  (443) 
nan

>  <exports>  (443) 
nan

>  <Multi-SuCOS>  (443) 
nan

>  <merge_set>  (443) 
nan

$$$$
PAAXPWKXFWKMMO-RISCZKNCSA-N
     RDKit          3D

 22 23  0  0  0  0  0  0  0  0999 V2000
  -25.8939  -31.0960  -14.5967 C   0  0  0  0  0  0  0  0  0  0  0  0
  -26.9742  -30.4604  -15.3864 C   0  0  0  0  0  0  0  0  0  0  0  0
  -28.3185  -30.2042  -15.0661 C   0  0  0  0  0  0  0  0  0  0  0  0
  -28.8861  -29.7604  -16.2358 C   0  0  0  0  0  0  0  0  0  0  0  0
  -27.9125  -29.8722  -17.1912 N   0  0  0  0  0  0  0  0  0  0  0  0
  -28.0472  -29.9209  -18.5905 C   0  0  0  0  0  0  0  0  0  0  0  0
  -29.2692  -29.7334  -19.2183 C   0  0  0  0  0  0  0  0  0  0  0  0
  -29.3040  -29.7254  -20.6036 C   0  0  0  0  0  0  0  0  0  0  0  0
  -28.1525  -30.0050  -21.3430 C   0  0  0  0  0  0  0  0  0  0  0  0
  -26.9799  -30.3510  -20.7013 C   0  0  0  0  0  0  0  0  0  0  0  0
  -25.8882  -30.8768  -21.3594 N   0  0  0  0  0  0  0  0  0  0  0  0
  -25.5576  -30.9283  -22.8718 C   0  0  0  0  0  0  0  0  0  0  0  0
  -26.1071  -30.4773  -23.7606 O   0  0  0  0  0  0  0  0  0  0  0  0
  -24.3232  -31.8551  -22.8270 N   0  0  0  0  0  0  0  0  0  0  0  0
  -23.4716  -32.3266  -23.8881 C   0  0  2  0  0  0  0  0  0  0  0  0
  -23.8243  -33.7954  -24.1330 C   0  0  0  0  0  0  0  0  0  0  0  0
  -21.9943  -32.0332  -23.5301 C   0  0  1  0  0  0  0  0  0  0  0  0
  -21.8271  -31.8877  -22.1067 O   0  0  0  0  0  0  0  0  0  0  0  0
  -21.0102  -33.0862  -24.0126 C   0  0  0  0  0  0  0  0  0  0  0  0
  -20.9178  -33.1228  -25.4350 O   0  0  0  0  0  0  0  0  0  0  0  0
  -26.9123  -30.2638  -19.3310 C   0  0  0  0  0  0  0  0  0  0  0  0
  -26.6997  -30.0618  -16.6262 N   0  0  0  0  0  0  0  0  0  0  0  0
  1  2  1  0
  2  3  1  0
  3  4  2  0
  4  5  1  0
  5  6  1  0
  6  7  2  0
  7  8  1  0
  8  9  2  0
  9 10  1  0
 10 11  1  0
 11 12  1  0
 12 13  2  0
 12 14  1  0
 14 15  1  0
 15 16  1  1
 15 17  1  0
 17 18  1  1
 17 19  1  0
 19 20  1  0
 10 21  2  0
  5 22  1  0
 22  2  2  0
 21  6  1  0
M  END
>  <id>  (444) 
387615

>  <inchikey>  (444) 
PAAXPWKXFWKMMO-RISCZKNCSA-N

>  <alias>  (444) 
None

>  <smiles>  (444) 
Cc1ccn(-c2cccc(NC(=O)N[C@H](C)[C@@H](O)CO)c2)n1

>  <path>  (444) 
/opt/xchem-fragalysis-2/maxwin/RdRp_FFF/syndirella/mar_elabs/elabs_055/QLFFONPVDDKJCE-UHFFFAOYSA-N/output/QLFFONPVDDKJCE-UHFFFAOYSA-N-vE6A8X-1922-C/QLFFONPVDDKJCE-UHFFFAOYSA-N-vE6A8X-1922-C.minimised.mol

>  <distance_score>  (444) 
1.775097

>  <energy_score>  (444) 
-8.750189

>  <compound>  (444) 
PAAXPWKXFWKMMO-UHFFFAOYSA-N

>  <compound_id>  (444) 
199329

>  <target>  (444) 
Flavi_NS5_RdRp

>  <tags>  (444) 
[]

>  <inspirations>  (444) 
{P Ã— 2}

>  <subsites>  (444) 
None

>  <reference>  (444) 
z0211a

>  <SLURM_JOB_ID>  (444) 
nan

>  <SLURM_JOB_NAME>  (444) 
nan

>  <csv_name>  (444) 
nan

>  <scratch_subdir>  (444) 
nan

>  <fragmenstein_runtime>  (444) 
nan

>  <fragmenstein_outcome>  (444) 
nan

>  <fragmenstein_mode>  (444) 
nan

>  <fragmenstein_error>  (444) 
nan

>  <exports>  (444) 
nan

>  <Multi-SuCOS>  (444) 
nan

>  <merge_set>  (444) 
nan

$$$$
FWMDVKIIMSXWFZ-KMDWOBIYSA-N
     RDKit          3D

 26 28  0  0  0  0  0  0  0  0999 V2000
  -25.3386  -27.5309  -22.8038 C   0  0  0  0  0  0  0  0  0  0  0  0
  -25.8930  -27.3428  -21.4681 N   0  0  0  0  0  0  0  0  0  0  0  0
  -25.3069  -26.2680  -20.6667 C   0  0  0  0  0  0  0  0  0  0  0  0
  -24.7154  -26.8162  -19.3856 C   0  0  0  0  0  0  0  0  0  0  0  0
  -25.8577  -27.4275  -18.5947 C   0  0  0  0  0  0  0  0  0  0  0  0
  -26.5844  -28.4585  -19.4177 C   0  0  0  0  0  0  0  0  0  0  0  0
  -27.2113  -29.5407  -18.7712 C   0  0  0  0  0  0  0  0  0  0  0  0
  -27.8633  -30.5335  -19.5088 C   0  0  0  0  0  0  0  0  0  0  0  0
  -28.3923  -31.7169  -18.8288 C   0  0  0  0  0  0  0  0  0  0  0  0
  -28.3944  -33.0081  -19.2149 C   0  0  0  0  0  0  0  0  0  0  0  0
  -27.9420  -33.5674  -20.5239 C   0  0  0  0  0  0  0  0  0  0  0  0
  -28.5206  -33.3545  -21.5082 O   0  0  0  0  0  0  0  0  0  0  0  0
  -26.6978  -34.4309  -20.2673 N   0  0  0  0  0  0  0  0  0  0  0  0
  -25.8311  -35.1523  -21.2022 C   0  0  2  0  0  0  0  0  0  0  0  0
  -25.2051  -36.3734  -20.5237 C   0  0  0  0  0  0  0  0  0  0  0  0
  -24.4285  -35.9799  -19.3882 O   0  0  0  0  0  0  0  0  0  0  0  0
  -24.7696  -34.1872  -21.7664 C   0  0  0  0  0  0  0  0  0  0  0  0
  -24.1500  -34.5958  -23.0299 N   0  0  0  0  0  0  0  0  0  0  0  0
  -22.7672  -34.9798  -23.1457 C   0  0  0  0  0  0  0  0  0  0  0  0
  -22.4026  -34.6789  -24.5957 C   0  0  0  0  0  0  0  0  0  0  0  0
  -23.7190  -34.6207  -25.3382 C   0  0  0  0  0  0  0  0  0  0  0  0
  -24.7007  -34.2717  -24.2616 C   0  0  0  0  0  0  0  0  0  0  0  0
  -25.7975  -33.7817  -24.4537 O   0  0  0  0  0  0  0  0  0  0  0  0
  -27.9978  -30.3474  -20.8748 C   0  0  0  0  0  0  0  0  0  0  0  0
  -27.3696  -29.2842  -21.5209 C   0  0  0  0  0  0  0  0  0  0  0  0
  -26.6112  -28.3410  -20.8228 C   0  0  0  0  0  0  0  0  0  0  0  0
  1  2  1  0
  2  3  1  0
  3  4  1  0
  4  5  1  0
  5  6  1  0
  6  7  2  0
  7  8  1  0
  8  9  1  0
  9 10  2  0
 10 11  1  0
 11 12  2  0
 11 13  1  0
 13 14  1  0
 14 15  1  1
 15 16  1  0
 14 17  1  0
 17 18  1  0
 18 19  1  0
 19 20  1  0
 20 21  1  0
 21 22  1  0
 22 23  2  0
  8 24  2  0
 24 25  1  0
 25 26  2  0
 26  2  1  0
 26  6  1  0
 22 18  1  0
M  END
>  <id>  (445) 
387929

>  <inchikey>  (445) 
FWMDVKIIMSXWFZ-KMDWOBIYSA-N

>  <alias>  (445) 
None

>  <smiles>  (445) 
CN1CCCc2cc(/C=C\C(=O)N[C@H](CO)CN3CCCC3=O)ccc21

>  <path>  (445) 
/opt/xchem-fragalysis-2/maxwin/RdRp_FFF/syndirella/mar_elabs/elabs_068/WZJPHEKPHALAMW-UHFFFAOYSA-N/output/WZJPHEKPHALAMW-UHFFFAOYSA-N-YNnfTY-45-A/WZJPHEKPHALAMW-UHFFFAOYSA-N-YNnfTY-45-A.minimised.mol

>  <distance_score>  (445) 
1.861122

>  <energy_score>  (445) 
-6.260235

>  <compound>  (445) 
FWMDVKIIMSXWFZ-UHFFFAOYSA-N

>  <compound_id>  (445) 
138510

>  <target>  (445) 
Flavi_NS5_RdRp

>  <tags>  (445) 
[]

>  <inspirations>  (445) 
{P Ã— 2}

>  <subsites>  (445) 
None

>  <reference>  (445) 
z0364a

>  <SLURM_JOB_ID>  (445) 
nan

>  <SLURM_JOB_NAME>  (445) 
nan

>  <csv_name>  (445) 
nan

>  <scratch_subdir>  (445) 
nan

>  <fragmenstein_runtime>  (445) 
nan

>  <fragmenstein_outcome>  (445) 
nan

>  <fragmenstein_mode>  (445) 
nan

>  <fragmenstein_error>  (445) 
nan

>  <exports>  (445) 
nan

>  <Multi-SuCOS>  (445) 
nan

>  <merge_set>  (445) 
nan

$$$$
NHYUNLPEJAFDNV-QMMMGPOBSA-N
     RDKit          3D

 18 19  0  0  0  0  0  0  0  0999 V2000
  -25.6825  -30.1818  -18.0475 C   0  0  0  0  0  0  0  0  0  0  0  0
  -26.8349  -30.0314  -18.9522 C   0  0  0  0  0  0  0  0  0  0  0  0
  -26.8923  -30.2073  -20.3106 C   0  0  0  0  0  0  0  0  0  0  0  0
  -25.8425  -30.6943  -21.0234 N   0  0  0  0  0  0  0  0  0  0  0  0
  -25.6418  -30.8199  -22.5497 C   0  0  0  0  0  0  0  0  0  0  0  0
  -26.2962  -30.4637  -23.4090 O   0  0  0  0  0  0  0  0  0  0  0  0
  -24.3215  -31.6255  -22.5658 N   0  0  0  0  0  0  0  0  0  0  0  0
  -23.6132  -32.2232  -23.6570 C   0  0  0  0  0  0  0  0  0  0  0  0
  -22.1007  -32.0049  -23.5165 C   0  0  2  0  0  0  0  0  0  0  0  0
  -21.3338  -33.1303  -24.1805 C   0  0  0  0  0  0  0  0  0  0  0  0
  -21.7141  -31.9585  -22.1360 O   0  0  0  0  0  0  0  0  0  0  0  0
  -28.1657  -29.7704  -20.6932 C   0  0  0  0  0  0  0  0  0  0  0  0
  -28.9212  -29.4660  -19.6329 N   0  0  0  0  0  0  0  0  0  0  0  0
  -28.1071  -29.6736  -18.5725 N   0  0  0  0  0  0  0  0  0  0  0  0
  -28.6801  -30.0696  -17.2790 C   0  0  0  0  0  0  0  0  0  0  0  0
  -27.7348  -30.0723  -16.0394 C   0  0  0  0  0  0  0  0  0  0  0  0
  -28.9819  -29.7885  -15.2269 C   0  0  0  0  0  0  0  0  0  0  0  0
  -29.5352  -29.1010  -16.5022 C   0  0  0  0  0  0  0  0  0  0  0  0
  1  2  1  0
  2  3  2  0
  3  4  1  0
  4  5  1  0
  5  6  2  0
  5  7  1  0
  7  8  1  0
  8  9  1  0
  9 10  1  6
  9 11  1  0
  3 12  1  0
 12 13  2  0
 13 14  1  0
 14 15  1  0
 15 16  1  0
 16 17  1  0
 17 18  1  0
 14  2  1  0
 18 15  1  0
M  END
>  <id>  (446) 
388965

>  <inchikey>  (446) 
NHYUNLPEJAFDNV-QMMMGPOBSA-N

>  <alias>  (446) 
None

>  <smiles>  (446) 
Cc1c(NC(=O)NC[C@H](C)O)cnn1C1CCC1

>  <path>  (446) 
/opt/xchem-fragalysis-2/maxwin/RdRp_FFF/syndirella/mar_elabs/elabs_066/NQDDIJLQMDSXML-UHFFFAOYSA-N/output/NQDDIJLQMDSXML-UHFFFAOYSA-N-ZsT2oh-8-A/NQDDIJLQMDSXML-UHFFFAOYSA-N-ZsT2oh-8-A.minimised.mol

>  <distance_score>  (446) 
1.17454

>  <energy_score>  (446) 
-3.906176

>  <compound>  (446) 
NHYUNLPEJAFDNV-UHFFFAOYSA-N

>  <compound_id>  (446) 
206969

>  <target>  (446) 
Flavi_NS5_RdRp

>  <tags>  (446) 
[]

>  <inspirations>  (446) 
{P Ã— 2}

>  <subsites>  (446) 
None

>  <reference>  (446) 
z0211a

>  <SLURM_JOB_ID>  (446) 
nan

>  <SLURM_JOB_NAME>  (446) 
nan

>  <csv_name>  (446) 
nan

>  <scratch_subdir>  (446) 
nan

>  <fragmenstein_runtime>  (446) 
nan

>  <fragmenstein_outcome>  (446) 
nan

>  <fragmenstein_mode>  (446) 
nan

>  <fragmenstein_error>  (446) 
nan

>  <exports>  (446) 
nan

>  <Multi-SuCOS>  (446) 
nan

>  <merge_set>  (446) 
nan

$$$$
LGXGYYODYYNRAY-MRVPVSSYSA-N
     RDKit          3D

 19 20  0  0  0  0  0  0  0  0999 V2000
  -25.3584  -30.3052  -17.9813 C   0  0  0  0  0  0  0  0  0  0  0  0
  -26.4962  -30.0129  -18.8845 C   0  0  0  0  0  0  0  0  0  0  0  0
  -26.6014  -30.1645  -20.2451 C   0  0  0  0  0  0  0  0  0  0  0  0
  -25.6210  -30.6480  -21.0554 N   0  0  0  0  0  0  0  0  0  0  0  0
  -25.5935  -30.8481  -22.5124 C   0  0  0  0  0  0  0  0  0  0  0  0
  -26.3848  -30.6044  -23.3127 O   0  0  0  0  0  0  0  0  0  0  0  0
  -24.1773  -31.5986  -22.6173 N   0  0  0  0  0  0  0  0  0  0  0  0
  -23.4930  -32.3024  -23.7535 C   0  0  0  0  0  0  0  0  0  0  0  0
  -23.7974  -32.4244  -24.9412 N   0  0  0  0  0  0  0  0  0  0  0  0
  -22.1645  -32.8488  -23.1906 C   0  0  1  0  0  0  0  0  0  0  0  0
  -21.0516  -32.8831  -24.2201 C   0  0  0  0  0  0  0  0  0  0  0  0
  -21.7452  -32.0515  -22.0789 O   0  0  0  0  0  0  0  0  0  0  0  0
  -27.8813  -29.6945  -20.5853 C   0  0  0  0  0  0  0  0  0  0  0  0
  -28.5568  -29.2781  -19.5156 N   0  0  0  0  0  0  0  0  0  0  0  0
  -27.7415  -29.5701  -18.4787 N   0  0  0  0  0  0  0  0  0  0  0  0
  -28.3685  -30.0217  -17.2354 C   0  0  0  0  0  0  0  0  0  0  0  0
  -27.5237  -30.0079  -15.9459 C   0  0  0  0  0  0  0  0  0  0  0  0
  -28.8463  -29.7844  -15.2146 C   0  0  0  0  0  0  0  0  0  0  0  0
  -29.3588  -29.1260  -16.5203 C   0  0  0  0  0  0  0  0  0  0  0  0
  1  2  1  0
  2  3  2  0
  3  4  1  0
  4  5  1  0
  5  6  2  0
  5  7  1  0
  7  8  1  0
  8  9  2  3
  8 10  1  0
 10 11  1  6
 10 12  1  0
  3 13  1  0
 13 14  2  0
 14 15  1  0
 15 16  1  0
 16 17  1  0
 17 18  1  0
 18 19  1  0
 15  2  1  0
 19 16  1  0
M  END
>  <id>  (447) 
389003

>  <inchikey>  (447) 
LGXGYYODYYNRAY-MRVPVSSYSA-N

>  <alias>  (447) 
None

>  <smiles>  (447) 
Cc1c(NC(=O)NC(=N)[C@@H](C)O)cnn1C1CCC1

>  <path>  (447) 
/opt/xchem-fragalysis-2/maxwin/RdRp_FFF/syndirella/mar_elabs/elabs_066/NQDDIJLQMDSXML-UHFFFAOYSA-N/output/NQDDIJLQMDSXML-UHFFFAOYSA-N-ZsT2oh-157-B/NQDDIJLQMDSXML-UHFFFAOYSA-N-ZsT2oh-157-B.minimised.mol

>  <distance_score>  (447) 
1.181603

>  <energy_score>  (447) 
-19.50322

>  <compound>  (447) 
LGXGYYODYYNRAY-UHFFFAOYSA-N

>  <compound_id>  (447) 
207079

>  <target>  (447) 
Flavi_NS5_RdRp

>  <tags>  (447) 
[]

>  <inspirations>  (447) 
{P Ã— 2}

>  <subsites>  (447) 
None

>  <reference>  (447) 
z0211a

>  <SLURM_JOB_ID>  (447) 
nan

>  <SLURM_JOB_NAME>  (447) 
nan

>  <csv_name>  (447) 
nan

>  <scratch_subdir>  (447) 
nan

>  <fragmenstein_runtime>  (447) 
nan

>  <fragmenstein_outcome>  (447) 
nan

>  <fragmenstein_mode>  (447) 
nan

>  <fragmenstein_error>  (447) 
nan

>  <exports>  (447) 
nan

>  <Multi-SuCOS>  (447) 
nan

>  <merge_set>  (447) 
nan

$$$$
OSLRIHDTSQFUTN-SNVBAGLBSA-N
     RDKit          3D

 19 20  0  0  0  0  0  0  0  0999 V2000
  -25.9890  -30.1587  -17.9019 C   0  0  0  0  0  0  0  0  0  0  0  0
  -27.1184  -30.1719  -18.8408 C   0  0  0  0  0  0  0  0  0  0  0  0
  -27.1021  -30.3127  -20.2062 C   0  0  0  0  0  0  0  0  0  0  0  0
  -26.0411  -30.7319  -20.9375 N   0  0  0  0  0  0  0  0  0  0  0  0
  -25.8275  -30.7566  -22.4684 C   0  0  0  0  0  0  0  0  0  0  0  0
  -26.4829  -30.3594  -23.3079 O   0  0  0  0  0  0  0  0  0  0  0  0
  -24.5145  -31.5685  -22.5258 N   0  0  0  0  0  0  0  0  0  0  0  0
  -23.8171  -32.1215  -23.6427 C   0  0  0  0  0  0  0  0  0  0  0  0
  -22.3015  -32.0145  -23.5146 C   0  0  1  0  0  0  0  0  0  0  0  0
  -21.8732  -32.0996  -22.1419 O   0  0  0  0  0  0  0  0  0  0  0  0
  -21.6617  -33.1600  -24.2882 C   0  0  0  0  0  0  0  0  0  0  0  0
  -20.2517  -33.0544  -24.2042 O   0  0  0  0  0  0  0  0  0  0  0  0
  -28.3858  -29.9741  -20.6441 C   0  0  0  0  0  0  0  0  0  0  0  0
  -29.2211  -29.8207  -19.6197 N   0  0  0  0  0  0  0  0  0  0  0  0
  -28.4490  -30.0375  -18.5300 N   0  0  0  0  0  0  0  0  0  0  0  0
  -29.1294  -30.2341  -17.2359 C   0  0  0  0  0  0  0  0  0  0  0  0
  -28.3894  -30.6648  -15.9474 C   0  0  0  0  0  0  0  0  0  0  0  0
  -28.3724  -29.2619  -15.4955 C   0  0  0  0  0  0  0  0  0  0  0  0
  -29.4161  -28.9277  -16.5507 C   0  0  0  0  0  0  0  0  0  0  0  0
  1  2  1  0
  2  3  2  0
  3  4  1  0
  4  5  1  0
  5  6  2  0
  5  7  1  0
  7  8  1  0
  8  9  1  0
  9 10  1  1
  9 11  1  0
 11 12  1  0
  3 13  1  0
 13 14  2  0
 14 15  1  0
 15 16  1  0
 16 17  1  0
 17 18  1  0
 18 19  1  0
 15  2  1  0
 19 16  1  0
M  END
>  <id>  (448) 
389005

>  <inchikey>  (448) 
OSLRIHDTSQFUTN-SNVBAGLBSA-N

>  <alias>  (448) 
None

>  <smiles>  (448) 
Cc1c(NC(=O)NC[C@@H](O)CO)cnn1C1CCC1

>  <path>  (448) 
/opt/xchem-fragalysis-2/maxwin/RdRp_FFF/syndirella/mar_elabs/elabs_066/NQDDIJLQMDSXML-UHFFFAOYSA-N/output/NQDDIJLQMDSXML-UHFFFAOYSA-N-ZsT2oh-158-B/NQDDIJLQMDSXML-UHFFFAOYSA-N-ZsT2oh-158-B.minimised.mol

>  <distance_score>  (448) 
1.191564

>  <energy_score>  (448) 
-16.522165

>  <compound>  (448) 
OSLRIHDTSQFUTN-UHFFFAOYSA-N

>  <compound_id>  (448) 
207080

>  <target>  (448) 
Flavi_NS5_RdRp

>  <tags>  (448) 
[]

>  <inspirations>  (448) 
{P Ã— 2}

>  <subsites>  (448) 
None

>  <reference>  (448) 
z0211a

>  <SLURM_JOB_ID>  (448) 
nan

>  <SLURM_JOB_NAME>  (448) 
nan

>  <csv_name>  (448) 
nan

>  <scratch_subdir>  (448) 
nan

>  <fragmenstein_runtime>  (448) 
nan

>  <fragmenstein_outcome>  (448) 
nan

>  <fragmenstein_mode>  (448) 
nan

>  <fragmenstein_error>  (448) 
nan

>  <exports>  (448) 
nan

>  <Multi-SuCOS>  (448) 
nan

>  <merge_set>  (448) 
nan

$$$$
FXPCXNMRAFMPLW-LLVKDONJSA-N
     RDKit          3D

 19 20  0  0  0  0  0  0  0  0999 V2000
  -21.1122  -32.8921  -25.1133 C   0  0  0  0  0  0  0  0  0  0  0  0
  -21.2989  -33.3791  -23.6899 C   0  0  0  0  0  0  0  0  0  0  0  0
  -22.0355  -32.4203  -22.7686 C   0  0  1  0  0  0  0  0  0  0  0  0
  -21.1997  -31.2967  -22.5014 O   0  0  0  0  0  0  0  0  0  0  0  0
  -23.4049  -32.0061  -23.3058 C   0  0  0  0  0  0  0  0  0  0  0  0
  -24.2410  -31.5456  -22.2348 N   0  0  0  0  0  0  0  0  0  0  0  0
  -25.6507  -30.9193  -22.2663 C   0  0  0  0  0  0  0  0  0  0  0  0
  -26.3608  -30.7563  -23.1352 O   0  0  0  0  0  0  0  0  0  0  0  0
  -25.8495  -30.6747  -20.7600 N   0  0  0  0  0  0  0  0  0  0  0  0
  -26.9512  -30.2871  -20.0711 C   0  0  0  0  0  0  0  0  0  0  0  0
  -28.2924  -30.1403  -20.4484 C   0  0  0  0  0  0  0  0  0  0  0  0
  -29.0715  -29.8381  -19.4031 N   0  0  0  0  0  0  0  0  0  0  0  0
  -28.2043  -29.7522  -18.3745 N   0  0  0  0  0  0  0  0  0  0  0  0
  -28.6034  -29.3298  -17.0224 C   0  0  0  0  0  0  0  0  0  0  0  0
  -27.7366  -29.9450  -15.8937 C   0  0  0  0  0  0  0  0  0  0  0  0
  -28.9999  -30.2436  -15.1304 C   0  0  0  0  0  0  0  0  0  0  0  0
  -29.8123  -30.0544  -16.4264 C   0  0  0  0  0  0  0  0  0  0  0  0
  -26.8981  -29.9166  -18.7571 C   0  0  0  0  0  0  0  0  0  0  0  0
  -25.7192  -29.6770  -17.9089 C   0  0  0  0  0  0  0  0  0  0  0  0
  1  2  1  0
  2  3  1  0
  3  4  1  6
  3  5  1  0
  5  6  1  0
  6  7  1  0
  7  8  2  0
  7  9  1  0
  9 10  1  0
 10 11  1  0
 11 12  2  0
 12 13  1  0
 13 14  1  0
 14 15  1  0
 15 16  1  0
 16 17  1  0
 13 18  1  0
 18 19  1  0
 18 10  2  0
 17 14  1  0
M  END
>  <id>  (449) 
389006

>  <inchikey>  (449) 
FXPCXNMRAFMPLW-LLVKDONJSA-N

>  <alias>  (449) 
None

>  <smiles>  (449) 
CC[C@@H](O)CNC(=O)Nc1cnn(C2CCC2)c1C

>  <path>  (449) 
/opt/xchem-fragalysis-2/maxwin/RdRp_FFF/syndirella/mar_elabs/elabs_066/NQDDIJLQMDSXML-UHFFFAOYSA-N/output/NQDDIJLQMDSXML-UHFFFAOYSA-N-ZsT2oh-159-B/NQDDIJLQMDSXML-UHFFFAOYSA-N-ZsT2oh-159-B.minimised.mol

>  <distance_score>  (449) 
0.978076

>  <energy_score>  (449) 
-27.581978

>  <compound>  (449) 
FXPCXNMRAFMPLW-UHFFFAOYSA-N

>  <compound_id>  (449) 
207081

>  <target>  (449) 
Flavi_NS5_RdRp

>  <tags>  (449) 
[]

>  <inspirations>  (449) 
{P Ã— 2}

>  <subsites>  (449) 
None

>  <reference>  (449) 
z0211a

>  <SLURM_JOB_ID>  (449) 
nan

>  <SLURM_JOB_NAME>  (449) 
nan

>  <csv_name>  (449) 
nan

>  <scratch_subdir>  (449) 
nan

>  <fragmenstein_runtime>  (449) 
nan

>  <fragmenstein_outcome>  (449) 
nan

>  <fragmenstein_mode>  (449) 
nan

>  <fragmenstein_error>  (449) 
nan

>  <exports>  (449) 
nan

>  <Multi-SuCOS>  (449) 
nan

>  <merge_set>  (449) 
nan

$$$$
WULUHLAORGQBTJ-PSASIEDQSA-N
     RDKit          3D

 19 19  0  0  0  0  0  0  0  0999 V2000
  -31.4150  -30.1482  -20.0413 C   0  0  0  0  0  0  0  0  0  0  0  0
  -30.2890  -30.8169  -19.2872 C   0  0  0  0  0  0  0  0  0  0  0  0
  -29.4009  -29.8075  -18.5670 C   0  0  1  0  0  0  0  0  0  0  0  0
  -29.8280  -29.6704  -17.0990 C   0  0  0  0  0  0  0  0  0  0  0  0
  -27.9752  -30.0273  -18.7356 N   0  0  0  0  0  0  0  0  0  0  0  0
  -27.1471  -29.7970  -17.6912 N   0  0  0  0  0  0  0  0  0  0  0  0
  -25.9580  -30.1834  -18.1507 C   0  0  0  0  0  0  0  0  0  0  0  0
  -26.0186  -30.5534  -19.5004 C   0  0  0  0  0  0  0  0  0  0  0  0
  -25.0174  -31.0184  -20.2879 N   0  0  0  0  0  0  0  0  0  0  0  0
  -25.0723  -31.7529  -21.6500 C   0  0  0  0  0  0  0  0  0  0  0  0
  -25.9632  -32.1267  -22.2461 O   0  0  0  0  0  0  0  0  0  0  0  0
  -23.5751  -31.7362  -22.0046 N   0  0  0  0  0  0  0  0  0  0  0  0
  -22.9057  -32.0980  -23.2159 C   0  0  0  0  0  0  0  0  0  0  0  0
  -21.6023  -32.8247  -22.9597 C   0  0  2  0  0  0  0  0  0  0  0  0
  -20.8126  -32.1307  -21.9866 O   0  0  0  0  0  0  0  0  0  0  0  0
  -20.8342  -32.9107  -24.2634 C   0  0  0  0  0  0  0  0  0  0  0  0
  -21.5523  -33.5854  -25.1990 F   0  0  0  0  0  0  0  0  0  0  0  0
  -27.2993  -30.2498  -19.9108 C   0  0  0  0  0  0  0  0  0  0  0  0
  -27.9200  -30.1527  -21.2617 C   0  0  0  0  0  0  0  0  0  0  0  0
  1  2  1  0
  2  3  1  0
  3  4  1  1
  3  5  1  0
  5  6  1  0
  6  7  2  0
  7  8  1  0
  8  9  1  0
  9 10  1  0
 10 11  2  0
 10 12  1  0
 12 13  1  0
 13 14  1  0
 14 15  1  1
 14 16  1  0
 16 17  1  0
  8 18  2  0
 18 19  1  0
 18  5  1  0
M  END
>  <id>  (450) 
389009

>  <inchikey>  (450) 
WULUHLAORGQBTJ-PSASIEDQSA-N

>  <alias>  (450) 
None

>  <smiles>  (450) 
CC[C@@H](C)n1ncc(NC(=O)NC[C@H](O)CF)c1C

>  <path>  (450) 
/opt/xchem-fragalysis-2/maxwin/RdRp_FFF/syndirella/mar_elabs/elabs_066/NQDDIJLQMDSXML-UHFFFAOYSA-N/output/NQDDIJLQMDSXML-UHFFFAOYSA-N-ZsT2oh-168-A/NQDDIJLQMDSXML-UHFFFAOYSA-N-ZsT2oh-168-A.minimised.mol

>  <distance_score>  (450) 
1.432758

>  <energy_score>  (450) 
-27.992013

>  <compound>  (450) 
WULUHLAORGQBTJ-UHFFFAOYSA-N

>  <compound_id>  (450) 
207089

>  <target>  (450) 
Flavi_NS5_RdRp

>  <tags>  (450) 
[]

>  <inspirations>  (450) 
{P Ã— 2}

>  <subsites>  (450) 
None

>  <reference>  (450) 
z0211a

>  <SLURM_JOB_ID>  (450) 
nan

>  <SLURM_JOB_NAME>  (450) 
nan

>  <csv_name>  (450) 
nan

>  <scratch_subdir>  (450) 
nan

>  <fragmenstein_runtime>  (450) 
nan

>  <fragmenstein_outcome>  (450) 
nan

>  <fragmenstein_mode>  (450) 
nan

>  <fragmenstein_error>  (450) 
nan

>  <exports>  (450) 
nan

>  <Multi-SuCOS>  (450) 
nan

>  <merge_set>  (450) 
nan

$$$$
YHQZYHMZIZRDFD-PSASIEDQSA-N
     RDKit          3D

 19 19  0  0  0  0  0  0  0  0999 V2000
  -30.3986  -31.2678  -18.9949 C   0  0  0  0  0  0  0  0  0  0  0  0
  -30.2671  -29.8202  -18.7114 C   0  0  0  0  0  0  0  0  0  0  0  0
  -29.1041  -29.3971  -17.8283 C   0  0  1  0  0  0  0  0  0  0  0  0
  -29.3668  -29.8246  -16.3734 C   0  0  0  0  0  0  0  0  0  0  0  0
  -27.7715  -29.7191  -18.3063 N   0  0  0  0  0  0  0  0  0  0  0  0
  -26.7905  -29.6132  -17.3822 N   0  0  0  0  0  0  0  0  0  0  0  0
  -25.7301  -30.1337  -17.9849 C   0  0  0  0  0  0  0  0  0  0  0  0
  -26.0023  -30.4712  -19.3156 C   0  0  0  0  0  0  0  0  0  0  0  0
  -25.1214  -31.0671  -20.1626 N   0  0  0  0  0  0  0  0  0  0  0  0
  -25.3330  -31.6518  -21.5783 C   0  0  0  0  0  0  0  0  0  0  0  0
  -26.2839  -31.7773  -22.1851 O   0  0  0  0  0  0  0  0  0  0  0  0
  -23.8656  -31.9190  -21.9613 N   0  0  0  0  0  0  0  0  0  0  0  0
  -23.2889  -32.3079  -23.2156 C   0  0  0  0  0  0  0  0  0  0  0  0
  -21.8088  -32.6145  -23.0337 C   0  0  2  0  0  0  0  0  0  0  0  0
  -21.2066  -31.5782  -22.2311 O   0  0  0  0  0  0  0  0  0  0  0  0
  -21.0182  -32.7339  -24.3296 C   0  0  0  0  0  0  0  0  0  0  0  0
  -21.8497  -33.5567  -25.6693 Cl  0  0  0  0  0  0  0  0  0  0  0  0
  -27.2849  -30.0137  -19.5660 C   0  0  0  0  0  0  0  0  0  0  0  0
  -28.0346  -29.8240  -20.8450 C   0  0  0  0  0  0  0  0  0  0  0  0
  1  2  1  0
  2  3  1  0
  3  4  1  1
  3  5  1  0
  5  6  1  0
  6  7  2  0
  7  8  1  0
  8  9  1  0
  9 10  1  0
 10 11  2  0
 10 12  1  0
 12 13  1  0
 13 14  1  0
 14 15  1  1
 14 16  1  0
 16 17  1  0
  8 18  2  0
 18 19  1  0
 18  5  1  0
M  END
>  <id>  (451) 
389015

>  <inchikey>  (451) 
YHQZYHMZIZRDFD-PSASIEDQSA-N

>  <alias>  (451) 
None

>  <smiles>  (451) 
CC[C@@H](C)n1ncc(NC(=O)NC[C@H](O)CCl)c1C

>  <path>  (451) 
/opt/xchem-fragalysis-2/maxwin/RdRp_FFF/syndirella/mar_elabs/elabs_066/NQDDIJLQMDSXML-UHFFFAOYSA-N/output/NQDDIJLQMDSXML-UHFFFAOYSA-N-ZsT2oh-183-B/NQDDIJLQMDSXML-UHFFFAOYSA-N-ZsT2oh-183-B.minimised.mol

>  <distance_score>  (451) 
1.743447

>  <energy_score>  (451) 
-7.318229

>  <compound>  (451) 
YHQZYHMZIZRDFD-UHFFFAOYSA-N

>  <compound_id>  (451) 
207098

>  <target>  (451) 
Flavi_NS5_RdRp

>  <tags>  (451) 
[]

>  <inspirations>  (451) 
{P Ã— 2}

>  <subsites>  (451) 
None

>  <reference>  (451) 
z0211a

>  <SLURM_JOB_ID>  (451) 
nan

>  <SLURM_JOB_NAME>  (451) 
nan

>  <csv_name>  (451) 
nan

>  <scratch_subdir>  (451) 
nan

>  <fragmenstein_runtime>  (451) 
nan

>  <fragmenstein_outcome>  (451) 
nan

>  <fragmenstein_mode>  (451) 
nan

>  <fragmenstein_error>  (451) 
nan

>  <exports>  (451) 
nan

>  <Multi-SuCOS>  (451) 
nan

>  <merge_set>  (451) 
nan

$$$$
PTHHNOGXQDCFFZ-UHFFFAOYSA-N
     RDKit          3D

 19 21  0  0  0  0  0  0  0  0999 V2000
  -20.8196  -32.6124  -24.2289 C   0  0  0  0  0  0  0  0  0  0  0  0
  -21.9495  -33.4029  -23.9185 O   0  0  0  0  0  0  0  0  0  0  0  0
  -22.6008  -33.0551  -22.6771 C   0  0  0  0  0  0  0  0  0  0  0  0
  -23.7921  -32.1410  -22.7623 C   0  0  0  0  0  0  0  0  0  0  0  0
  -24.4038  -32.8966  -21.5412 N   0  0  0  0  0  0  0  0  0  0  0  0
  -25.8968  -32.6443  -21.4247 C   0  0  0  0  0  0  0  0  0  0  0  0
  -26.7794  -33.2154  -21.8747 O   0  0  0  0  0  0  0  0  0  0  0  0
  -25.8710  -31.3630  -20.5646 N   0  0  0  0  0  0  0  0  0  0  0  0
  -26.8924  -30.6304  -20.0430 C   0  0  0  0  0  0  0  0  0  0  0  0
  -28.2222  -30.5101  -20.4646 C   0  0  0  0  0  0  0  0  0  0  0  0
  -28.9542  -29.7817  -19.6170 N   0  0  0  0  0  0  0  0  0  0  0  0
  -28.1268  -29.6290  -18.5511 N   0  0  0  0  0  0  0  0  0  0  0  0
  -28.6524  -30.0436  -17.2355 C   0  0  0  0  0  0  0  0  0  0  0  0
  -29.5158  -29.1051  -16.4402 C   0  0  0  0  0  0  0  0  0  0  0  0
  -28.9376  -29.8083  -15.1823 C   0  0  0  0  0  0  0  0  0  0  0  0
  -27.6914  -30.0640  -16.0148 C   0  0  0  0  0  0  0  0  0  0  0  0
  -26.8127  -29.8756  -18.9004 C   0  0  0  0  0  0  0  0  0  0  0  0
  -25.6554  -29.5765  -18.0512 C   0  0  0  0  0  0  0  0  0  0  0  0
  -23.6509  -34.0246  -22.1963 C   0  0  0  0  0  0  0  0  0  0  0  0
  1  2  1  0
  2  3  1  0
  3  4  1  0
  4  5  1  0
  5  6  1  0
  6  7  2  0
  6  8  1  0
  8  9  1  0
  9 10  1  0
 10 11  2  0
 11 12  1  0
 12 13  1  0
 13 14  1  0
 14 15  1  0
 15 16  1  0
 12 17  1  0
 17 18  1  0
  5 19  1  0
 19  3  1  0
 17  9  2  0
 16 13  1  0
M  END
>  <id>  (452) 
389029

>  <inchikey>  (452) 
PTHHNOGXQDCFFZ-UHFFFAOYSA-N

>  <alias>  (452) 
None

>  <smiles>  (452) 
COC1CN(C(=O)Nc2cnn(C3CCC3)c2C)C1

>  <path>  (452) 
/opt/xchem-fragalysis-2/maxwin/RdRp_FFF/syndirella/mar_elabs/elabs_066/NQDDIJLQMDSXML-UHFFFAOYSA-N/output/NQDDIJLQMDSXML-UHFFFAOYSA-N-ZsT2oh-206-A/NQDDIJLQMDSXML-UHFFFAOYSA-N-ZsT2oh-206-A.minimised.mol

>  <distance_score>  (452) 
1.730495

>  <energy_score>  (452) 
-6.682061

>  <compound>  (452) 
PTHHNOGXQDCFFZ-UHFFFAOYSA-N

>  <compound_id>  (452) 
207115

>  <target>  (452) 
Flavi_NS5_RdRp

>  <tags>  (452) 
[]

>  <inspirations>  (452) 
{P Ã— 2}

>  <subsites>  (452) 
None

>  <reference>  (452) 
z0211a

>  <SLURM_JOB_ID>  (452) 
nan

>  <SLURM_JOB_NAME>  (452) 
nan

>  <csv_name>  (452) 
nan

>  <scratch_subdir>  (452) 
nan

>  <fragmenstein_runtime>  (452) 
nan

>  <fragmenstein_outcome>  (452) 
nan

>  <fragmenstein_mode>  (452) 
nan

>  <fragmenstein_error>  (452) 
nan

>  <exports>  (452) 
nan

>  <Multi-SuCOS>  (452) 
nan

>  <merge_set>  (452) 
nan

$$$$
BJMAUFJYWQPZRX-JTQLQIEISA-N
     RDKit          3D

 19 20  0  0  0  0  0  0  0  0999 V2000
  -25.6776  -30.1572  -18.0618 C   0  0  0  0  0  0  0  0  0  0  0  0
  -26.8333  -30.0181  -18.9638 C   0  0  0  0  0  0  0  0  0  0  0  0
  -26.9024  -30.2152  -20.3190 C   0  0  0  0  0  0  0  0  0  0  0  0
  -25.8646  -30.7179  -21.0381 N   0  0  0  0  0  0  0  0  0  0  0  0
  -25.6617  -30.8181  -22.5666 C   0  0  0  0  0  0  0  0  0  0  0  0
  -26.3022  -30.4253  -23.4207 O   0  0  0  0  0  0  0  0  0  0  0  0
  -24.3569  -31.6508  -22.5954 N   0  0  0  0  0  0  0  0  0  0  0  0
  -23.6516  -32.2343  -23.6997 C   0  0  0  0  0  0  0  0  0  0  0  0
  -22.1348  -32.0308  -23.5655 C   0  0  1  0  0  0  0  0  0  0  0  0
  -21.7589  -31.9000  -22.1814 O   0  0  0  0  0  0  0  0  0  0  0  0
  -21.3548  -33.1947  -24.1630 C   0  0  0  0  0  0  0  0  0  0  0  0
  -21.5919  -33.3601  -25.9237 Cl  0  0  0  0  0  0  0  0  0  0  0  0
  -28.1798  -29.7845  -20.6964 C   0  0  0  0  0  0  0  0  0  0  0  0
  -28.9250  -29.4610  -19.6346 N   0  0  0  0  0  0  0  0  0  0  0  0
  -28.1046  -29.6622  -18.5779 N   0  0  0  0  0  0  0  0  0  0  0  0
  -28.6721  -30.0651  -17.2839 C   0  0  0  0  0  0  0  0  0  0  0  0
  -29.5333  -29.1044  -16.5033 C   0  0  0  0  0  0  0  0  0  0  0  0
  -28.9754  -29.7933  -15.2308 C   0  0  0  0  0  0  0  0  0  0  0  0
  -27.7264  -30.0670  -16.0453 C   0  0  0  0  0  0  0  0  0  0  0  0
  1  2  1  0
  2  3  2  0
  3  4  1  0
  4  5  1  0
  5  6  2  0
  5  7  1  0
  7  8  1  0
  8  9  1  0
  9 10  1  1
  9 11  1  0
 11 12  1  0
  3 13  1  0
 13 14  2  0
 14 15  1  0
 15 16  1  0
 16 17  1  0
 17 18  1  0
 18 19  1  0
 15  2  1  0
 19 16  1  0
M  END
>  <id>  (453) 
389033

>  <inchikey>  (453) 
BJMAUFJYWQPZRX-JTQLQIEISA-N

>  <alias>  (453) 
None

>  <smiles>  (453) 
Cc1c(NC(=O)NC[C@@H](O)CCl)cnn1C1CCC1

>  <path>  (453) 
/opt/xchem-fragalysis-2/maxwin/RdRp_FFF/syndirella/mar_elabs/elabs_066/NQDDIJLQMDSXML-UHFFFAOYSA-N/output/NQDDIJLQMDSXML-UHFFFAOYSA-N-ZsT2oh-215-B/NQDDIJLQMDSXML-UHFFFAOYSA-N-ZsT2oh-215-B.minimised.mol

>  <distance_score>  (453) 
1.482014

>  <energy_score>  (453) 
-11.738492

>  <compound>  (453) 
BJMAUFJYWQPZRX-UHFFFAOYSA-N

>  <compound_id>  (453) 
207124

>  <target>  (453) 
Flavi_NS5_RdRp

>  <tags>  (453) 
[]

>  <inspirations>  (453) 
{P Ã— 2}

>  <subsites>  (453) 
None

>  <reference>  (453) 
z0211a

>  <SLURM_JOB_ID>  (453) 
nan

>  <SLURM_JOB_NAME>  (453) 
nan

>  <csv_name>  (453) 
nan

>  <scratch_subdir>  (453) 
nan

>  <fragmenstein_runtime>  (453) 
nan

>  <fragmenstein_outcome>  (453) 
nan

>  <fragmenstein_mode>  (453) 
nan

>  <fragmenstein_error>  (453) 
nan

>  <exports>  (453) 
nan

>  <Multi-SuCOS>  (453) 
nan

>  <merge_set>  (453) 
nan

$$$$
CUNHPUPTERCBJQ-ZYHUDNBSSA-N
     RDKit          3D

 19 21  0  0  0  0  0  0  0  0999 V2000
  -20.7514  -33.0969  -25.0056 C   0  0  0  0  0  0  0  0  0  0  0  0
  -21.8930  -33.3926  -24.2306 O   0  0  0  0  0  0  0  0  0  0  0  0
  -22.1179  -32.4276  -23.1880 C   0  0  2  0  0  0  0  0  0  0  0  0
  -21.2415  -32.5213  -21.9716 C   0  0  0  0  0  0  0  0  0  0  0  0
  -22.6607  -33.0077  -21.9106 C   0  0  1  0  0  0  0  0  0  0  0  0
  -23.6168  -32.2995  -21.1636 N   0  0  0  0  0  0  0  0  0  0  0  0
  -25.1493  -32.1321  -21.3877 C   0  0  0  0  0  0  0  0  0  0  0  0
  -25.8367  -32.6089  -22.1620 O   0  0  0  0  0  0  0  0  0  0  0  0
  -25.4566  -31.0940  -20.2813 N   0  0  0  0  0  0  0  0  0  0  0  0
  -26.6385  -30.5503  -19.8880 C   0  0  0  0  0  0  0  0  0  0  0  0
  -27.9251  -30.5870  -20.4383 C   0  0  0  0  0  0  0  0  0  0  0  0
  -28.8266  -30.0141  -19.6310 N   0  0  0  0  0  0  0  0  0  0  0  0
  -28.1171  -29.7415  -18.5036 N   0  0  0  0  0  0  0  0  0  0  0  0
  -28.7212  -30.0979  -17.2035 C   0  0  0  0  0  0  0  0  0  0  0  0
  -29.5308  -29.0871  -16.4459 C   0  0  0  0  0  0  0  0  0  0  0  0
  -29.0361  -29.8028  -15.1593 C   0  0  0  0  0  0  0  0  0  0  0  0
  -27.7969  -30.1650  -15.9462 C   0  0  0  0  0  0  0  0  0  0  0  0
  -26.7615  -29.8265  -18.7303 C   0  0  0  0  0  0  0  0  0  0  0  0
  -25.7107  -29.3895  -17.8047 C   0  0  0  0  0  0  0  0  0  0  0  0
  1  2  1  0
  3  2  1  6
  3  4  1  0
  4  5  1  0
  5  6  1  1
  6  7  1  0
  7  8  2  0
  7  9  1  0
  9 10  1  0
 10 11  1  0
 11 12  2  0
 12 13  1  0
 13 14  1  0
 14 15  1  0
 15 16  1  0
 16 17  1  0
 13 18  1  0
 18 19  1  0
  5  3  1  0
 18 10  2  0
 17 14  1  0
M  END
>  <id>  (454) 
389035

>  <inchikey>  (454) 
CUNHPUPTERCBJQ-ZYHUDNBSSA-N

>  <alias>  (454) 
None

>  <smiles>  (454) 
CO[C@@H]1C[C@H]1NC(=O)Nc1cnn(C2CCC2)c1C

>  <path>  (454) 
/opt/xchem-fragalysis-2/maxwin/RdRp_FFF/syndirella/mar_elabs/elabs_066/NQDDIJLQMDSXML-UHFFFAOYSA-N/output/NQDDIJLQMDSXML-UHFFFAOYSA-N-ZsT2oh-223-C/NQDDIJLQMDSXML-UHFFFAOYSA-N-ZsT2oh-223-C.minimised.mol

>  <distance_score>  (454) 
1.638057

>  <energy_score>  (454) 
-6.336506

>  <compound>  (454) 
CUNHPUPTERCBJQ-UHFFFAOYSA-N

>  <compound_id>  (454) 
207132

>  <target>  (454) 
Flavi_NS5_RdRp

>  <tags>  (454) 
[]

>  <inspirations>  (454) 
{P Ã— 2}

>  <subsites>  (454) 
None

>  <reference>  (454) 
z0211a

>  <SLURM_JOB_ID>  (454) 
nan

>  <SLURM_JOB_NAME>  (454) 
nan

>  <csv_name>  (454) 
nan

>  <scratch_subdir>  (454) 
nan

>  <fragmenstein_runtime>  (454) 
nan

>  <fragmenstein_outcome>  (454) 
nan

>  <fragmenstein_mode>  (454) 
nan

>  <fragmenstein_error>  (454) 
nan

>  <exports>  (454) 
nan

>  <Multi-SuCOS>  (454) 
nan

>  <merge_set>  (454) 
nan

$$$$
BBGUMQHDQPKJCG-GXSJLCMTSA-N
     RDKit          3D

 19 19  0  0  0  0  0  0  0  0999 V2000
  -21.2270  -33.1485  -25.6780 C   0  0  0  0  0  0  0  0  0  0  0  0
  -21.1239  -33.3833  -24.1816 C   0  0  0  0  0  0  0  0  0  0  0  0
  -21.7294  -32.3226  -23.2861 C   0  0  1  0  0  0  0  0  0  0  0  0
  -21.0164  -31.1051  -23.4245 O   0  0  0  0  0  0  0  0  0  0  0  0
  -23.2209  -32.1563  -23.5526 C   0  0  0  0  0  0  0  0  0  0  0  0
  -23.8861  -31.8473  -22.3294 N   0  0  0  0  0  0  0  0  0  0  0  0
  -25.2439  -31.1781  -22.0774 C   0  0  0  0  0  0  0  0  0  0  0  0
  -26.0477  -30.8511  -22.8084 O   0  0  0  0  0  0  0  0  0  0  0  0
  -25.2374  -31.1742  -20.5373 N   0  0  0  0  0  0  0  0  0  0  0  0
  -26.2173  -30.8654  -19.6577 C   0  0  0  0  0  0  0  0  0  0  0  0
  -25.9728  -30.7506  -18.2867 C   0  0  0  0  0  0  0  0  0  0  0  0
  -27.0753  -30.4625  -17.6173 N   0  0  0  0  0  0  0  0  0  0  0  0
  -28.0599  -30.4534  -18.5607 N   0  0  0  0  0  0  0  0  0  0  0  0
  -29.2859  -29.7674  -18.1582 C   0  0  1  0  0  0  0  0  0  0  0  0
  -30.1615  -30.4262  -17.1022 C   0  0  0  0  0  0  0  0  0  0  0  0
  -28.7695  -28.4661  -17.5891 C   0  0  0  0  0  0  0  0  0  0  0  0
  -27.9679  -27.7590  -18.6812 C   0  0  0  0  0  0  0  0  0  0  0  0
  -27.5625  -30.6167  -19.8405 C   0  0  0  0  0  0  0  0  0  0  0  0
  -28.3963  -30.4900  -21.0566 C   0  0  0  0  0  0  0  0  0  0  0  0
  1  2  1  0
  2  3  1  0
  3  4  1  6
  3  5  1  0
  5  6  1  0
  6  7  1  0
  7  8  2  0
  7  9  1  0
  9 10  1  0
 10 11  1  0
 11 12  2  0
 12 13  1  0
 13 14  1  0
 14 15  1  1
 14 16  1  0
 16 17  1  0
 13 18  1  0
 18 19  1  0
 18 10  2  0
M  END
>  <id>  (455) 
389037

>  <inchikey>  (455) 
BBGUMQHDQPKJCG-GXSJLCMTSA-N

>  <alias>  (455) 
None

>  <smiles>  (455) 
CC[C@@H](O)CNC(=O)Nc1cnn([C@@H](C)CC)c1C

>  <path>  (455) 
/opt/xchem-fragalysis-2/maxwin/RdRp_FFF/syndirella/mar_elabs/elabs_066/NQDDIJLQMDSXML-UHFFFAOYSA-N/output/NQDDIJLQMDSXML-UHFFFAOYSA-N-ZsT2oh-226-B/NQDDIJLQMDSXML-UHFFFAOYSA-N-ZsT2oh-226-B.minimised.mol

>  <distance_score>  (455) 
1.311832

>  <energy_score>  (455) 
-2.972117

>  <compound>  (455) 
BBGUMQHDQPKJCG-UHFFFAOYSA-N

>  <compound_id>  (455) 
207135

>  <target>  (455) 
Flavi_NS5_RdRp

>  <tags>  (455) 
[]

>  <inspirations>  (455) 
{P Ã— 2}

>  <subsites>  (455) 
None

>  <reference>  (455) 
z0211a

>  <SLURM_JOB_ID>  (455) 
nan

>  <SLURM_JOB_NAME>  (455) 
nan

>  <csv_name>  (455) 
nan

>  <scratch_subdir>  (455) 
nan

>  <fragmenstein_runtime>  (455) 
nan

>  <fragmenstein_outcome>  (455) 
nan

>  <fragmenstein_mode>  (455) 
nan

>  <fragmenstein_error>  (455) 
nan

>  <exports>  (455) 
nan

>  <Multi-SuCOS>  (455) 
nan

>  <merge_set>  (455) 
nan

$$$$
RQDPBGKHDTWDSK-PSASIEDQSA-N
     RDKit          3D

 19 19  0  0  0  0  0  0  0  0999 V2000
  -31.4014  -30.1198  -20.0913 C   0  0  0  0  0  0  0  0  0  0  0  0
  -30.2168  -30.7858  -19.4330 C   0  0  0  0  0  0  0  0  0  0  0  0
  -29.3166  -29.7771  -18.7208 C   0  0  1  0  0  0  0  0  0  0  0  0
  -29.7831  -29.6211  -17.2617 C   0  0  0  0  0  0  0  0  0  0  0  0
  -27.8885  -30.0363  -18.8165 N   0  0  0  0  0  0  0  0  0  0  0  0
  -27.1116  -29.7408  -17.7499 N   0  0  0  0  0  0  0  0  0  0  0  0
  -25.9158  -30.2033  -18.1034 C   0  0  0  0  0  0  0  0  0  0  0  0
  -25.9075  -30.6909  -19.4200 C   0  0  0  0  0  0  0  0  0  0  0  0
  -24.8592  -31.3086  -20.0324 N   0  0  0  0  0  0  0  0  0  0  0  0
  -24.8048  -32.1249  -21.3541 C   0  0  0  0  0  0  0  0  0  0  0  0
  -25.6128  -32.3186  -22.1327 O   0  0  0  0  0  0  0  0  0  0  0  0
  -23.3187  -32.5572  -21.3261 N   0  0  0  0  0  0  0  0  0  0  0  0
  -22.5271  -33.2385  -22.3170 C   0  0  0  0  0  0  0  0  0  0  0  0
  -21.9421  -32.2065  -23.2808 C   0  0  1  0  0  0  0  0  0  0  0  0
  -21.1320  -31.2943  -22.5253 O   0  0  0  0  0  0  0  0  0  0  0  0
  -21.0572  -32.8545  -24.3343 C   0  0  0  0  0  0  0  0  0  0  0  0
  -21.7957  -33.6499  -25.2512 O   0  0  0  0  0  0  0  0  0  0  0  0
  -27.1516  -30.3732  -19.9280 C   0  0  0  0  0  0  0  0  0  0  0  0
  -27.6914  -30.3512  -21.3135 C   0  0  0  0  0  0  0  0  0  0  0  0
  1  2  1  0
  2  3  1  0
  3  4  1  1
  3  5  1  0
  5  6  1  0
  6  7  2  0
  7  8  1  0
  8  9  1  0
  9 10  1  0
 10 11  2  0
 10 12  1  0
 12 13  1  0
 13 14  1  0
 14 15  1  1
 14 16  1  0
 16 17  1  0
  8 18  2  0
 18 19  1  0
 18  5  1  0
M  END
>  <id>  (456) 
389039

>  <inchikey>  (456) 
RQDPBGKHDTWDSK-PSASIEDQSA-N

>  <alias>  (456) 
None

>  <smiles>  (456) 
CC[C@@H](C)n1ncc(NC(=O)NC[C@@H](O)CO)c1C

>  <path>  (456) 
/opt/xchem-fragalysis-2/maxwin/RdRp_FFF/syndirella/mar_elabs/elabs_066/NQDDIJLQMDSXML-UHFFFAOYSA-N/output/NQDDIJLQMDSXML-UHFFFAOYSA-N-ZsT2oh-227-C/NQDDIJLQMDSXML-UHFFFAOYSA-N-ZsT2oh-227-C.minimised.mol

>  <distance_score>  (456) 
1.59956

>  <energy_score>  (456) 
-22.537538

>  <compound>  (456) 
RQDPBGKHDTWDSK-UHFFFAOYSA-N

>  <compound_id>  (456) 
207136

>  <target>  (456) 
Flavi_NS5_RdRp

>  <tags>  (456) 
[]

>  <inspirations>  (456) 
{P Ã— 2}

>  <subsites>  (456) 
None

>  <reference>  (456) 
z0211a

>  <SLURM_JOB_ID>  (456) 
nan

>  <SLURM_JOB_NAME>  (456) 
nan

>  <csv_name>  (456) 
nan

>  <scratch_subdir>  (456) 
nan

>  <fragmenstein_runtime>  (456) 
nan

>  <fragmenstein_outcome>  (456) 
nan

>  <fragmenstein_mode>  (456) 
nan

>  <fragmenstein_error>  (456) 
nan

>  <exports>  (456) 
nan

>  <Multi-SuCOS>  (456) 
nan

>  <merge_set>  (456) 
nan

$$$$
ILIQZHZOJYKFKV-VXNVDRBHSA-N
     RDKit          3D

 19 19  0  0  0  0  0  0  0  0999 V2000
  -28.8108  -29.9978  -16.0159 C   0  0  0  0  0  0  0  0  0  0  0  0
  -29.3464  -29.3686  -17.2985 C   0  0  0  0  0  0  0  0  0  0  0  0
  -29.0049  -30.1078  -18.6138 C   0  0  1  0  0  0  0  0  0  0  0  0
  -30.1387  -30.0075  -19.6322 C   0  0  0  0  0  0  0  0  0  0  0  0
  -27.6460  -29.8584  -19.1014 N   0  0  0  0  0  0  0  0  0  0  0  0
  -26.6668  -29.7590  -18.1712 N   0  0  0  0  0  0  0  0  0  0  0  0
  -25.5885  -30.2361  -18.7854 C   0  0  0  0  0  0  0  0  0  0  0  0
  -25.8249  -30.4892  -20.1471 C   0  0  0  0  0  0  0  0  0  0  0  0
  -24.9212  -31.0306  -21.0227 N   0  0  0  0  0  0  0  0  0  0  0  0
  -25.0120  -31.2630  -22.4866 C   0  0  0  0  0  0  0  0  0  0  0  0
  -25.8350  -30.9709  -23.2369 O   0  0  0  0  0  0  0  0  0  0  0  0
  -23.6886  -32.1187  -22.6676 N   0  0  0  0  0  0  0  0  0  0  0  0
  -23.1484  -32.8933  -23.8224 C   0  0  0  0  0  0  0  0  0  0  0  0
  -23.5430  -33.0129  -24.9845 N   0  0  0  0  0  0  0  0  0  0  0  0
  -21.8772  -33.5828  -23.3295 C   0  0  1  0  0  0  0  0  0  0  0  0
  -20.6870  -32.8524  -23.9089 C   0  0  0  0  0  0  0  0  0  0  0  0
  -21.7918  -33.5395  -21.8995 O   0  0  0  0  0  0  0  0  0  0  0  0
  -27.1273  -30.0807  -20.3619 C   0  0  0  0  0  0  0  0  0  0  0  0
  -27.9037  -29.9494  -21.6131 C   0  0  0  0  0  0  0  0  0  0  0  0
  1  2  1  0
  2  3  1  0
  3  4  1  6
  3  5  1  0
  5  6  1  0
  6  7  2  0
  7  8  1  0
  8  9  1  0
  9 10  1  0
 10 11  2  0
 10 12  1  0
 12 13  1  0
 13 14  2  3
 13 15  1  0
 15 16  1  6
 15 17  1  0
  8 18  2  0
 18 19  1  0
 18  5  1  0
M  END
>  <id>  (457) 
389042

>  <inchikey>  (457) 
ILIQZHZOJYKFKV-VXNVDRBHSA-N

>  <alias>  (457) 
None

>  <smiles>  (457) 
CC[C@@H](C)n1ncc(NC(=O)NC(=N)[C@@H](C)O)c1C

>  <path>  (457) 
/opt/xchem-fragalysis-2/maxwin/RdRp_FFF/syndirella/mar_elabs/elabs_066/NQDDIJLQMDSXML-UHFFFAOYSA-N/output/NQDDIJLQMDSXML-UHFFFAOYSA-N-ZsT2oh-229-C/NQDDIJLQMDSXML-UHFFFAOYSA-N-ZsT2oh-229-C.minimised.mol

>  <distance_score>  (457) 
1.417567

>  <energy_score>  (457) 
-16.503833

>  <compound>  (457) 
ILIQZHZOJYKFKV-UHFFFAOYSA-N

>  <compound_id>  (457) 
207138

>  <target>  (457) 
Flavi_NS5_RdRp

>  <tags>  (457) 
[]

>  <inspirations>  (457) 
{P Ã— 2}

>  <subsites>  (457) 
None

>  <reference>  (457) 
z0211a

>  <SLURM_JOB_ID>  (457) 
nan

>  <SLURM_JOB_NAME>  (457) 
nan

>  <csv_name>  (457) 
nan

>  <scratch_subdir>  (457) 
nan

>  <fragmenstein_runtime>  (457) 
nan

>  <fragmenstein_outcome>  (457) 
nan

>  <fragmenstein_mode>  (457) 
nan

>  <fragmenstein_error>  (457) 
nan

>  <exports>  (457) 
nan

>  <Multi-SuCOS>  (457) 
nan

>  <merge_set>  (457) 
nan

$$$$
IMVPYGRCPANCAJ-APPZFPTMSA-N
     RDKit          3D

 19 19  0  0  0  0  0  0  0  0999 V2000
  -30.5100  -30.1884  -16.6703 C   0  0  0  0  0  0  0  0  0  0  0  0
  -29.2183  -29.6835  -17.2595 C   0  0  0  0  0  0  0  0  0  0  0  0
  -28.9331  -30.1782  -18.6892 C   0  0  1  0  0  0  0  0  0  0  0  0
  -29.9843  -29.8143  -19.7300 C   0  0  0  0  0  0  0  0  0  0  0  0
  -27.5472  -29.8986  -19.0751 N   0  0  0  0  0  0  0  0  0  0  0  0
  -26.6668  -29.4845  -18.1287 N   0  0  0  0  0  0  0  0  0  0  0  0
  -25.5079  -30.0027  -18.5310 C   0  0  0  0  0  0  0  0  0  0  0  0
  -25.6201  -30.6203  -19.7852 C   0  0  0  0  0  0  0  0  0  0  0  0
  -24.6333  -31.2138  -20.5080 N   0  0  0  0  0  0  0  0  0  0  0  0
  -24.7051  -32.1119  -21.6782 C   0  0  0  0  0  0  0  0  0  0  0  0
  -25.6154  -32.5796  -22.2030 O   0  0  0  0  0  0  0  0  0  0  0  0
  -23.1362  -32.1376  -22.0404 N   0  0  0  0  0  0  0  0  0  0  0  0
  -22.3022  -32.8916  -23.1603 C   0  0  0  0  0  0  0  0  0  0  0  0
  -22.7244  -33.7876  -24.3639 S   0  0  0  0  0  0  0  0  0  0  0  0
  -20.8480  -32.5654  -22.7917 C   0  0  2  0  0  0  0  0  0  0  0  0
  -20.4031  -33.4411  -21.6260 C   0  0  0  0  0  0  0  0  0  0  0  0
  -20.7314  -31.2158  -22.3407 O   0  0  0  0  0  0  0  0  0  0  0  0
  -26.9120  -30.3794  -20.1929 C   0  0  0  0  0  0  0  0  0  0  0  0
  -27.5812  -30.5413  -21.5020 C   0  0  0  0  0  0  0  0  0  0  0  0
  1  2  1  0
  2  3  1  0
  3  4  1  6
  3  5  1  0
  5  6  1  0
  6  7  2  0
  7  8  1  0
  8  9  1  0
  9 10  1  0
 10 11  2  0
 10 12  1  0
 12 13  1  0
 13 14  2  0
 13 15  1  0
 15 16  1  1
 15 17  1  0
  8 18  2  0
 18 19  1  0
 18  5  1  0
M  END
>  <id>  (458) 
389048

>  <inchikey>  (458) 
IMVPYGRCPANCAJ-APPZFPTMSA-N

>  <alias>  (458) 
None

>  <smiles>  (458) 
CC[C@@H](C)n1ncc(NC(=O)NC(=S)[C@H](C)O)c1C

>  <path>  (458) 
/opt/xchem-fragalysis-2/maxwin/RdRp_FFF/syndirella/mar_elabs/elabs_066/NQDDIJLQMDSXML-UHFFFAOYSA-N/output/NQDDIJLQMDSXML-UHFFFAOYSA-N-ZsT2oh-233-A/NQDDIJLQMDSXML-UHFFFAOYSA-N-ZsT2oh-233-A.minimised.mol

>  <distance_score>  (458) 
1.652659

>  <energy_score>  (458) 
-44.228932

>  <compound>  (458) 
IMVPYGRCPANCAJ-UHFFFAOYSA-N

>  <compound_id>  (458) 
207142

>  <target>  (458) 
Flavi_NS5_RdRp

>  <tags>  (458) 
[]

>  <inspirations>  (458) 
{P Ã— 2}

>  <subsites>  (458) 
None

>  <reference>  (458) 
z0211a

>  <SLURM_JOB_ID>  (458) 
nan

>  <SLURM_JOB_NAME>  (458) 
nan

>  <csv_name>  (458) 
nan

>  <scratch_subdir>  (458) 
nan

>  <fragmenstein_runtime>  (458) 
nan

>  <fragmenstein_outcome>  (458) 
nan

>  <fragmenstein_mode>  (458) 
nan

>  <fragmenstein_error>  (458) 
nan

>  <exports>  (458) 
nan

>  <Multi-SuCOS>  (458) 
nan

>  <merge_set>  (458) 
nan

$$$$
ASLSKSKHFKTKQX-RKDXNWHRSA-N
     RDKit          3D

 20 21  0  0  0  0  0  0  0  0999 V2000
  -25.3850  -30.0869  -17.9902 C   0  0  0  0  0  0  0  0  0  0  0  0
  -26.5743  -30.0857  -18.8727 C   0  0  0  0  0  0  0  0  0  0  0  0
  -26.6530  -30.3335  -20.2215 C   0  0  0  0  0  0  0  0  0  0  0  0
  -25.6262  -30.7213  -21.0238 N   0  0  0  0  0  0  0  0  0  0  0  0
  -25.5690  -30.9125  -22.4802 C   0  0  0  0  0  0  0  0  0  0  0  0
  -26.3604  -30.7044  -23.2888 O   0  0  0  0  0  0  0  0  0  0  0  0
  -24.1204  -31.5903  -22.5708 N   0  0  0  0  0  0  0  0  0  0  0  0
  -23.3892  -32.2541  -23.7017 C   0  0  0  0  0  0  0  0  0  0  0  0
  -23.6734  -32.3848  -24.8930 N   0  0  0  0  0  0  0  0  0  0  0  0
  -22.0510  -32.7509  -23.1239 C   0  0  1  0  0  0  0  0  0  0  0  0
  -20.9535  -32.8558  -24.1625 C   0  0  0  0  0  0  0  0  0  0  0  0
  -21.6295  -31.8716  -22.0772 O   0  0  0  0  0  0  0  0  0  0  0  0
  -27.9829  -30.0723  -20.5827 C   0  0  0  0  0  0  0  0  0  0  0  0
  -28.7229  -29.7344  -19.5302 N   0  0  0  0  0  0  0  0  0  0  0  0
  -27.8652  -29.7991  -18.4879 N   0  0  0  0  0  0  0  0  0  0  0  0
  -28.3926  -29.4692  -17.1828 C   0  0  2  0  0  0  0  0  0  0  0  0
  -27.6080  -29.9486  -15.9828 C   0  0  0  0  0  0  0  0  0  0  0  0
  -28.6467  -30.1628  -14.9281 C   0  0  0  0  0  0  0  0  0  0  0  0
  -29.8828  -30.4158  -15.5747 O   0  0  0  0  0  0  0  0  0  0  0  0
  -29.7966  -29.9988  -16.9361 C   0  0  0  0  0  0  0  0  0  0  0  0
  1  2  1  0
  2  3  2  0
  3  4  1  0
  4  5  1  0
  5  6  2  0
  5  7  1  0
  7  8  1  0
  8  9  2  3
  8 10  1  0
 10 11  1  6
 10 12  1  0
  3 13  1  0
 13 14  2  0
 14 15  1  0
 16 15  1  6
 16 17  1  0
 17 18  1  0
 18 19  1  0
 19 20  1  0
 15  2  1  0
 20 16  1  0
M  END
>  <id>  (459) 
389106

>  <inchikey>  (459) 
ASLSKSKHFKTKQX-RKDXNWHRSA-N

>  <alias>  (459) 
None

>  <smiles>  (459) 
Cc1c(NC(=O)NC(=N)[C@@H](C)O)cnn1[C@@H]1CCOC1

>  <path>  (459) 
/opt/xchem-fragalysis-2/maxwin/RdRp_FFF/syndirella/mar_elabs/elabs_066/NQDDIJLQMDSXML-UHFFFAOYSA-N/output/NQDDIJLQMDSXML-UHFFFAOYSA-N-ZsT2oh-353-D/NQDDIJLQMDSXML-UHFFFAOYSA-N-ZsT2oh-353-D.minimised.mol

>  <distance_score>  (459) 
1.817971

>  <energy_score>  (459) 
-21.601015

>  <compound>  (459) 
ASLSKSKHFKTKQX-UHFFFAOYSA-N

>  <compound_id>  (459) 
207231

>  <target>  (459) 
Flavi_NS5_RdRp

>  <tags>  (459) 
[]

>  <inspirations>  (459) 
{P Ã— 2}

>  <subsites>  (459) 
None

>  <reference>  (459) 
z0211a

>  <SLURM_JOB_ID>  (459) 
nan

>  <SLURM_JOB_NAME>  (459) 
nan

>  <csv_name>  (459) 
nan

>  <scratch_subdir>  (459) 
nan

>  <fragmenstein_runtime>  (459) 
nan

>  <fragmenstein_outcome>  (459) 
nan

>  <fragmenstein_mode>  (459) 
nan

>  <fragmenstein_error>  (459) 
nan

>  <exports>  (459) 
nan

>  <Multi-SuCOS>  (459) 
nan

>  <merge_set>  (459) 
nan

$$$$
ZTDCWHHRGYSMMP-CKYFFXLPSA-N
     RDKit          3D

 20 22  0  0  0  0  0  0  0  0999 V2000
  -22.7126  -33.6789  -24.9196 C   0  0  0  0  0  0  0  0  0  0  0  0
  -21.5285  -33.1875  -24.3005 O   0  0  0  0  0  0  0  0  0  0  0  0
  -21.8272  -32.1906  -23.3022 C   0  0  2  0  0  0  0  0  0  0  0  0
  -20.8441  -32.0829  -22.1738 C   0  0  0  0  0  0  0  0  0  0  0  0
  -22.1828  -32.7131  -21.9355 C   0  0  1  0  0  0  0  0  0  0  0  0
  -23.1599  -32.0689  -21.1515 N   0  0  0  0  0  0  0  0  0  0  0  0
  -24.7037  -31.9470  -21.3590 C   0  0  0  0  0  0  0  0  0  0  0  0
  -25.3812  -32.4170  -22.1493 O   0  0  0  0  0  0  0  0  0  0  0  0
  -25.0575  -31.0645  -20.1288 N   0  0  0  0  0  0  0  0  0  0  0  0
  -26.2696  -30.6988  -19.6244 C   0  0  0  0  0  0  0  0  0  0  0  0
  -27.5660  -30.8071  -20.1551 C   0  0  0  0  0  0  0  0  0  0  0  0
  -28.5054  -30.5058  -19.2490 N   0  0  0  0  0  0  0  0  0  0  0  0
  -27.7945  -30.2261  -18.1284 N   0  0  0  0  0  0  0  0  0  0  0  0
  -28.3751  -30.3598  -16.7964 C   0  0  2  0  0  0  0  0  0  0  0  0
  -29.8516  -30.6434  -16.7069 C   0  0  0  0  0  0  0  0  0  0  0  0
  -30.3931  -29.3181  -16.9918 C   0  0  0  0  0  0  0  0  0  0  0  0
  -29.4626  -28.3772  -16.4629 O   0  0  0  0  0  0  0  0  0  0  0  0
  -28.3295  -29.1053  -16.0289 C   0  0  0  0  0  0  0  0  0  0  0  0
  -26.4390  -30.1852  -18.3632 C   0  0  0  0  0  0  0  0  0  0  0  0
  -25.4599  -29.8121  -17.3309 C   0  0  0  0  0  0  0  0  0  0  0  0
  1  2  1  0
  3  2  1  6
  3  4  1  0
  4  5  1  0
  5  6  1  1
  6  7  1  0
  7  8  2  0
  7  9  1  0
  9 10  1  0
 10 11  1  0
 11 12  2  0
 12 13  1  0
 14 13  1  6
 14 15  1  0
 15 16  1  0
 16 17  1  0
 17 18  1  0
 13 19  1  0
 19 20  1  0
  5  3  1  0
 19 10  2  0
 18 14  1  0
M  END
>  <id>  (460) 
389115

>  <inchikey>  (460) 
ZTDCWHHRGYSMMP-CKYFFXLPSA-N

>  <alias>  (460) 
None

>  <smiles>  (460) 
CO[C@@H]1C[C@H]1NC(=O)Nc1cnn([C@@H]2CCOC2)c1C

>  <path>  (460) 
/opt/xchem-fragalysis-2/maxwin/RdRp_FFF/syndirella/mar_elabs/elabs_066/NQDDIJLQMDSXML-UHFFFAOYSA-N/output/NQDDIJLQMDSXML-UHFFFAOYSA-N-ZsT2oh-372-G/NQDDIJLQMDSXML-UHFFFAOYSA-N-ZsT2oh-372-G.minimised.mol

>  <distance_score>  (460) 
1.475442

>  <energy_score>  (460) 
-28.109346

>  <compound>  (460) 
ZTDCWHHRGYSMMP-UHFFFAOYSA-N

>  <compound_id>  (460) 
207239

>  <target>  (460) 
Flavi_NS5_RdRp

>  <tags>  (460) 
[]

>  <inspirations>  (460) 
{P Ã— 2}

>  <subsites>  (460) 
None

>  <reference>  (460) 
z0211a

>  <SLURM_JOB_ID>  (460) 
nan

>  <SLURM_JOB_NAME>  (460) 
nan

>  <csv_name>  (460) 
nan

>  <scratch_subdir>  (460) 
nan

>  <fragmenstein_runtime>  (460) 
nan

>  <fragmenstein_outcome>  (460) 
nan

>  <fragmenstein_mode>  (460) 
nan

>  <fragmenstein_error>  (460) 
nan

>  <exports>  (460) 
nan

>  <Multi-SuCOS>  (460) 
nan

>  <merge_set>  (460) 
nan

$$$$
WXGLJKQAYWXTGG-VHSXEESVSA-N
     RDKit          3D

 20 21  0  0  0  0  0  0  0  0999 V2000
  -25.5158  -29.4039  -17.5774 C   0  0  0  0  0  0  0  0  0  0  0  0
  -26.8234  -29.7821  -18.1004 C   0  0  0  0  0  0  0  0  0  0  0  0
  -27.1723  -30.1290  -19.3735 C   0  0  0  0  0  0  0  0  0  0  0  0
  -26.2261  -30.4006  -20.2958 N   0  0  0  0  0  0  0  0  0  0  0  0
  -26.3588  -30.7545  -21.7771 C   0  0  0  0  0  0  0  0  0  0  0  0
  -27.2753  -30.7928  -22.4420 O   0  0  0  0  0  0  0  0  0  0  0  0
  -24.8933  -31.1099  -22.0819 N   0  0  0  0  0  0  0  0  0  0  0  0
  -24.3025  -31.6729  -23.2531 C   0  0  0  0  0  0  0  0  0  0  0  0
  -22.9946  -32.3802  -22.8504 C   0  0  2  0  0  0  0  0  0  0  0  0
  -22.5066  -31.8463  -21.5983 O   0  0  0  0  0  0  0  0  0  0  0  0
  -21.9425  -32.2292  -23.9275 C   0  0  0  0  0  0  0  0  0  0  0  0
  -20.4909  -33.0961  -23.4309 Cl  0  0  0  0  0  0  0  0  0  0  0  0
  -28.5670  -30.1723  -19.3898 C   0  0  0  0  0  0  0  0  0  0  0  0
  -29.0600  -30.0531  -18.1471 N   0  0  0  0  0  0  0  0  0  0  0  0
  -27.9446  -30.0091  -17.3603 N   0  0  0  0  0  0  0  0  0  0  0  0
  -28.0040  -30.5571  -16.0126 C   0  0  1  0  0  0  0  0  0  0  0  0
  -26.7855  -31.3315  -15.4725 C   0  0  0  0  0  0  0  0  0  0  0  0
  -25.9975  -30.3748  -14.6601 C   0  0  0  0  0  0  0  0  0  0  0  0
  -26.8805  -29.2974  -14.4387 O   0  0  0  0  0  0  0  0  0  0  0  0
  -28.1906  -29.5507  -14.9647 C   0  0  0  0  0  0  0  0  0  0  0  0
  1  2  1  0
  2  3  2  0
  3  4  1  0
  4  5  1  0
  5  6  2  0
  5  7  1  0
  7  8  1  0
  8  9  1  0
  9 10  1  1
  9 11  1  0
 11 12  1  0
  3 13  1  0
 13 14  2  0
 14 15  1  0
 16 15  1  6
 16 17  1  0
 17 18  1  0
 18 19  1  0
 19 20  1  0
 15  2  1  0
 20 16  1  0
M  END
>  <id>  (461) 
389121

>  <inchikey>  (461) 
WXGLJKQAYWXTGG-VHSXEESVSA-N

>  <alias>  (461) 
None

>  <smiles>  (461) 
Cc1c(NC(=O)NC[C@H](O)CCl)cnn1[C@H]1CCOC1

>  <path>  (461) 
/opt/xchem-fragalysis-2/maxwin/RdRp_FFF/syndirella/mar_elabs/elabs_066/NQDDIJLQMDSXML-UHFFFAOYSA-N/output/NQDDIJLQMDSXML-UHFFFAOYSA-N-ZsT2oh-386-C/NQDDIJLQMDSXML-UHFFFAOYSA-N-ZsT2oh-386-C.minimised.mol

>  <distance_score>  (461) 
1.804978

>  <energy_score>  (461) 
-7.279963

>  <compound>  (461) 
WXGLJKQAYWXTGG-UHFFFAOYSA-N

>  <compound_id>  (461) 
207252

>  <target>  (461) 
Flavi_NS5_RdRp

>  <tags>  (461) 
[]

>  <inspirations>  (461) 
{P Ã— 2}

>  <subsites>  (461) 
None

>  <reference>  (461) 
z0211a

>  <SLURM_JOB_ID>  (461) 
nan

>  <SLURM_JOB_NAME>  (461) 
nan

>  <csv_name>  (461) 
nan

>  <scratch_subdir>  (461) 
nan

>  <fragmenstein_runtime>  (461) 
nan

>  <fragmenstein_outcome>  (461) 
nan

>  <fragmenstein_mode>  (461) 
nan

>  <fragmenstein_error>  (461) 
nan

>  <exports>  (461) 
nan

>  <Multi-SuCOS>  (461) 
nan

>  <merge_set>  (461) 
nan

$$$$
ZEKJQRXISCJJLI-CMPLNLGQSA-N
     RDKit          3D

 20 20  0  0  0  0  0  0  0  0999 V2000
  -23.9440  -33.8892  -25.3558 C   0  0  0  0  0  0  0  0  0  0  0  0
  -23.0122  -33.9659  -24.1557 C   0  0  0  0  0  0  0  0  0  0  0  0
  -22.3698  -32.6115  -23.8647 C   0  0  0  0  0  0  0  0  0  0  0  0
  -21.3318  -32.6193  -22.7443 C   0  0  1  0  0  0  0  0  0  0  0  0
  -20.8155  -31.2986  -22.5566 O   0  0  0  0  0  0  0  0  0  0  0  0
  -21.7848  -33.1717  -21.3887 C   0  0  0  0  0  0  0  0  0  0  0  0
  -22.7395  -32.3243  -20.7257 N   0  0  0  0  0  0  0  0  0  0  0  0
  -24.2812  -32.2381  -20.8764 C   0  0  0  0  0  0  0  0  0  0  0  0
  -24.9821  -32.7743  -21.5985 O   0  0  0  0  0  0  0  0  0  0  0  0
  -24.5941  -31.2294  -19.7364 N   0  0  0  0  0  0  0  0  0  0  0  0
  -25.7758  -30.6558  -19.3627 C   0  0  0  0  0  0  0  0  0  0  0  0
  -25.9629  -29.9780  -18.1511 C   0  0  0  0  0  0  0  0  0  0  0  0
  -27.2003  -29.5217  -18.0215 N   0  0  0  0  0  0  0  0  0  0  0  0
  -27.8568  -30.0424  -19.0886 N   0  0  0  0  0  0  0  0  0  0  0  0
  -29.2762  -29.7532  -19.1388 C   0  0  1  0  0  0  0  0  0  0  0  0
  -30.0687  -30.0722  -20.4081 C   0  0  0  0  0  0  0  0  0  0  0  0
  -30.1045  -30.2552  -17.9423 C   0  0  0  0  0  0  0  0  0  0  0  0
  -29.5724  -30.0116  -16.5394 C   0  0  0  0  0  0  0  0  0  0  0  0
  -26.9819  -30.5311  -20.0303 C   0  0  0  0  0  0  0  0  0  0  0  0
  -27.3524  -30.7722  -21.4395 C   0  0  0  0  0  0  0  0  0  0  0  0
  1  2  1  0
  2  3  1  0
  3  4  1  0
  4  5  1  1
  4  6  1  0
  6  7  1  0
  7  8  1  0
  8  9  2  0
  8 10  1  0
 10 11  1  0
 11 12  1  0
 12 13  2  0
 13 14  1  0
 14 15  1  0
 15 16  1  6
 15 17  1  0
 17 18  1  0
 14 19  1  0
 19 20  1  0
 19 11  2  0
M  END
>  <id>  (462) 
389268

>  <inchikey>  (462) 
ZEKJQRXISCJJLI-CMPLNLGQSA-N

>  <alias>  (462) 
None

>  <smiles>  (462) 
CCC[C@@H](O)CNC(=O)Nc1cnn([C@@H](C)CC)c1C

>  <path>  (462) 
/opt/xchem-fragalysis-2/maxwin/RdRp_FFF/syndirella/mar_elabs/elabs_066/NQDDIJLQMDSXML-UHFFFAOYSA-N/output/NQDDIJLQMDSXML-UHFFFAOYSA-N-ZsT2oh-1017-D/NQDDIJLQMDSXML-UHFFFAOYSA-N-ZsT2oh-1017-D.minimised.mol

>  <distance_score>  (462) 
1.599793

>  <energy_score>  (462) 
-13.084649

>  <compound>  (462) 
ZEKJQRXISCJJLI-UHFFFAOYSA-N

>  <compound_id>  (462) 
207717

>  <target>  (462) 
Flavi_NS5_RdRp

>  <tags>  (462) 
[]

>  <inspirations>  (462) 
{P Ã— 2}

>  <subsites>  (462) 
None

>  <reference>  (462) 
z0211a

>  <SLURM_JOB_ID>  (462) 
nan

>  <SLURM_JOB_NAME>  (462) 
nan

>  <csv_name>  (462) 
nan

>  <scratch_subdir>  (462) 
nan

>  <fragmenstein_runtime>  (462) 
nan

>  <fragmenstein_outcome>  (462) 
nan

>  <fragmenstein_mode>  (462) 
nan

>  <fragmenstein_error>  (462) 
nan

>  <exports>  (462) 
nan

>  <Multi-SuCOS>  (462) 
nan

>  <merge_set>  (462) 
nan

$$$$
JVXURVJXRHQGNP-MWLCHTKSSA-N
     RDKit          3D

 20 20  0  0  0  0  0  0  0  0999 V2000
  -30.7845  -30.3032  -20.2344 C   0  0  0  0  0  0  0  0  0  0  0  0
  -30.2954  -30.3332  -18.8089 C   0  0  0  0  0  0  0  0  0  0  0  0
  -29.0107  -29.5773  -18.4609 C   0  0  1  0  0  0  0  0  0  0  0  0
  -29.0519  -29.3675  -16.9246 C   0  0  0  0  0  0  0  0  0  0  0  0
  -27.7362  -30.1274  -18.8939 N   0  0  0  0  0  0  0  0  0  0  0  0
  -26.7968  -30.2639  -17.9331 N   0  0  0  0  0  0  0  0  0  0  0  0
  -25.7328  -30.7119  -18.5757 C   0  0  0  0  0  0  0  0  0  0  0  0
  -25.9328  -30.7478  -19.9619 C   0  0  0  0  0  0  0  0  0  0  0  0
  -24.9738  -31.1801  -20.8268 N   0  0  0  0  0  0  0  0  0  0  0  0
  -24.9898  -31.2837  -22.3709 C   0  0  0  0  0  0  0  0  0  0  0  0
  -25.7758  -30.9518  -23.1209 O   0  0  0  0  0  0  0  0  0  0  0  0
  -23.6148  -31.9335  -22.5941 N   0  0  0  0  0  0  0  0  0  0  0  0
  -22.9892  -32.3835  -23.7941 C   0  0  0  0  0  0  0  0  0  0  0  0
  -21.4747  -32.3969  -23.5999 C   0  0  1  0  0  0  0  0  0  0  0  0
  -20.9676  -31.1141  -23.2357 O   0  0  0  0  0  0  0  0  0  0  0  0
  -21.0424  -33.4103  -22.5348 C   0  0  0  0  0  0  0  0  0  0  0  0
  -21.6299  -33.1658  -21.2423 O   0  0  0  0  0  0  0  0  0  0  0  0
  -20.7670  -32.4246  -20.3793 C   0  0  0  0  0  0  0  0  0  0  0  0
  -27.2023  -30.2427  -20.1650 C   0  0  0  0  0  0  0  0  0  0  0  0
  -27.9358  -29.8979  -21.4024 C   0  0  0  0  0  0  0  0  0  0  0  0
  1  2  1  0
  2  3  1  0
  3  4  1  1
  3  5  1  0
  5  6  1  0
  6  7  2  0
  7  8  1  0
  8  9  1  0
  9 10  1  0
 10 11  2  0
 10 12  1  0
 12 13  1  0
 13 14  1  0
 14 15  1  1
 14 16  1  0
 16 17  1  0
 17 18  1  0
  8 19  2  0
 19 20  1  0
 19  5  1  0
M  END
>  <id>  (463) 
389270

>  <inchikey>  (463) 
JVXURVJXRHQGNP-MWLCHTKSSA-N

>  <alias>  (463) 
None

>  <smiles>  (463) 
CC[C@@H](C)n1ncc(NC(=O)NC[C@@H](O)COC)c1C

>  <path>  (463) 
/opt/xchem-fragalysis-2/maxwin/RdRp_FFF/syndirella/mar_elabs/elabs_066/NQDDIJLQMDSXML-UHFFFAOYSA-N/output/NQDDIJLQMDSXML-UHFFFAOYSA-N-ZsT2oh-1019-C/NQDDIJLQMDSXML-UHFFFAOYSA-N-ZsT2oh-1019-C.minimised.mol

>  <distance_score>  (463) 
1.433329

>  <energy_score>  (463) 
-30.453081

>  <compound>  (463) 
JVXURVJXRHQGNP-UHFFFAOYSA-N

>  <compound_id>  (463) 
207719

>  <target>  (463) 
Flavi_NS5_RdRp

>  <tags>  (463) 
[]

>  <inspirations>  (463) 
{P Ã— 2}

>  <subsites>  (463) 
None

>  <reference>  (463) 
z0211a

>  <SLURM_JOB_ID>  (463) 
nan

>  <SLURM_JOB_NAME>  (463) 
nan

>  <csv_name>  (463) 
nan

>  <scratch_subdir>  (463) 
nan

>  <fragmenstein_runtime>  (463) 
nan

>  <fragmenstein_outcome>  (463) 
nan

>  <fragmenstein_mode>  (463) 
nan

>  <fragmenstein_error>  (463) 
nan

>  <exports>  (463) 
nan

>  <Multi-SuCOS>  (463) 
nan

>  <merge_set>  (463) 
nan

$$$$
OLFSFNWANJAWHG-GZMMTYOYSA-N
     RDKit          3D

 20 20  0  0  0  0  0  0  0  0999 V2000
  -21.8811  -33.5635  -25.9137 C   0  0  0  0  0  0  0  0  0  0  0  0
  -21.5279  -32.9509  -24.5684 C   0  0  0  0  0  0  0  0  0  0  0  0
  -22.0309  -33.6946  -23.3262 C   0  0  1  0  0  0  0  0  0  0  0  0
  -21.5001  -33.0104  -22.1764 O   0  0  0  0  0  0  0  0  0  0  0  0
  -23.5791  -33.7920  -23.2573 C   0  0  0  0  0  0  0  0  0  0  0  0
  -24.2309  -34.4669  -24.0550 N   0  0  0  0  0  0  0  0  0  0  0  0
  -24.0048  -32.9027  -22.1237 N   0  0  0  0  0  0  0  0  0  0  0  0
  -25.4377  -32.5976  -21.4793 C   0  0  0  0  0  0  0  0  0  0  0  0
  -26.4985  -32.9315  -21.7887 O   0  0  0  0  0  0  0  0  0  0  0  0
  -24.9972  -31.6927  -20.3929 N   0  0  0  0  0  0  0  0  0  0  0  0
  -25.7183  -30.9390  -19.5219 C   0  0  0  0  0  0  0  0  0  0  0  0
  -25.3074  -30.4321  -18.2814 C   0  0  0  0  0  0  0  0  0  0  0  0
  -26.2930  -29.7862  -17.6621 N   0  0  0  0  0  0  0  0  0  0  0  0
  -27.3549  -29.9440  -18.4880 N   0  0  0  0  0  0  0  0  0  0  0  0
  -28.6378  -29.3823  -18.0871 C   0  0  1  0  0  0  0  0  0  0  0  0
  -29.8721  -30.1042  -18.6356 C   0  0  0  0  0  0  0  0  0  0  0  0
  -28.7701  -29.1371  -16.5713 C   0  0  0  0  0  0  0  0  0  0  0  0
  -28.9896  -30.3249  -15.6677 C   0  0  0  0  0  0  0  0  0  0  0  0
  -26.9947  -30.4562  -19.7110 C   0  0  0  0  0  0  0  0  0  0  0  0
  -27.8414  -30.3958  -20.9318 C   0  0  0  0  0  0  0  0  0  0  0  0
  1  2  1  0
  2  3  1  0
  3  4  1  1
  3  5  1  0
  5  6  2  3
  5  7  1  0
  7  8  1  0
  8  9  2  0
  8 10  1  0
 10 11  1  0
 11 12  1  0
 12 13  2  0
 13 14  1  0
 14 15  1  0
 15 16  1  1
 15 17  1  0
 17 18  1  0
 14 19  1  0
 19 20  1  0
 19 11  2  0
M  END
>  <id>  (464) 
389319

>  <inchikey>  (464) 
OLFSFNWANJAWHG-GZMMTYOYSA-N

>  <alias>  (464) 
None

>  <smiles>  (464) 
CC[C@@H](O)C(=N)NC(=O)Nc1cnn([C@@H](C)CC)c1C

>  <path>  (464) 
/opt/xchem-fragalysis-2/maxwin/RdRp_FFF/syndirella/mar_elabs/elabs_066/NQDDIJLQMDSXML-UHFFFAOYSA-N/output/NQDDIJLQMDSXML-UHFFFAOYSA-N-ZsT2oh-1150-D/NQDDIJLQMDSXML-UHFFFAOYSA-N-ZsT2oh-1150-D.minimised.mol

>  <distance_score>  (464) 
1.777058

>  <energy_score>  (464) 
-23.951219

>  <compound>  (464) 
OLFSFNWANJAWHG-UHFFFAOYSA-N

>  <compound_id>  (464) 
207823

>  <target>  (464) 
Flavi_NS5_RdRp

>  <tags>  (464) 
[]

>  <inspirations>  (464) 
{P Ã— 2}

>  <subsites>  (464) 
None

>  <reference>  (464) 
z0211a

>  <SLURM_JOB_ID>  (464) 
nan

>  <SLURM_JOB_NAME>  (464) 
nan

>  <csv_name>  (464) 
nan

>  <scratch_subdir>  (464) 
nan

>  <fragmenstein_runtime>  (464) 
nan

>  <fragmenstein_outcome>  (464) 
nan

>  <fragmenstein_mode>  (464) 
nan

>  <fragmenstein_error>  (464) 
nan

>  <exports>  (464) 
nan

>  <Multi-SuCOS>  (464) 
nan

>  <merge_set>  (464) 
nan

$$$$
JREQZSIZCJGPDL-JLLWLGSASA-N
     RDKit          3D

 20 20  0  0  0  0  0  0  0  0999 V2000
  -23.7392  -35.0158  -21.6985 C   0  0  0  0  0  0  0  0  0  0  0  0
  -22.3041  -34.6562  -21.3489 C   0  0  0  0  0  0  0  0  0  0  0  0
  -21.8919  -33.1749  -21.4314 C   0  0  2  0  0  0  0  0  0  0  0  0
  -22.7827  -32.2631  -20.7407 N   0  0  0  0  0  0  0  0  0  0  0  0
  -24.2593  -31.8745  -21.0426 C   0  0  0  0  0  0  0  0  0  0  0  0
  -24.9349  -32.1654  -21.9156 O   0  0  0  0  0  0  0  0  0  0  0  0
  -24.5712  -31.0506  -19.7624 N   0  0  0  0  0  0  0  0  0  0  0  0
  -25.7523  -30.5387  -19.3058 C   0  0  0  0  0  0  0  0  0  0  0  0
  -25.8996  -30.0352  -18.0029 C   0  0  0  0  0  0  0  0  0  0  0  0
  -27.1390  -29.6433  -17.7508 N   0  0  0  0  0  0  0  0  0  0  0  0
  -27.8213  -30.0045  -18.8612 N   0  0  0  0  0  0  0  0  0  0  0  0
  -29.2576  -29.7615  -18.8494 C   0  0  2  0  0  0  0  0  0  0  0  0
  -29.7879  -29.6192  -17.4037 C   0  0  0  0  0  0  0  0  0  0  0  0
  -30.1320  -30.7724  -19.5871 C   0  0  0  0  0  0  0  0  0  0  0  0
  -31.3755  -30.1253  -20.1525 C   0  0  0  0  0  0  0  0  0  0  0  0
  -26.9865  -30.3542  -19.9050 C   0  0  0  0  0  0  0  0  0  0  0  0
  -27.4408  -30.4647  -21.3140 C   0  0  0  0  0  0  0  0  0  0  0  0
  -21.4118  -32.6809  -22.8137 C   0  0  1  0  0  0  0  0  0  0  0  0
  -22.3523  -32.8209  -23.9894 C   0  0  0  0  0  0  0  0  0  0  0  0
  -20.9578  -31.3318  -22.7083 O   0  0  0  0  0  0  0  0  0  0  0  0
  1  2  1  0
  3  2  1  6
  3  4  1  0
  4  5  1  0
  5  6  2  0
  5  7  1  0
  7  8  1  0
  8  9  1  0
  9 10  2  0
 10 11  1  0
 11 12  1  0
 12 13  1  1
 12 14  1  0
 14 15  1  0
 11 16  1  0
 16 17  1  0
  3 18  1  0
 18 19  1  6
 18 20  1  0
 16  8  2  0
M  END
>  <id>  (465) 
389320

>  <inchikey>  (465) 
JREQZSIZCJGPDL-JLLWLGSASA-N

>  <alias>  (465) 
None

>  <smiles>  (465) 
CC[C@H](NC(=O)Nc1cnn([C@H](C)CC)c1C)[C@@H](C)O

>  <path>  (465) 
/opt/xchem-fragalysis-2/maxwin/RdRp_FFF/syndirella/mar_elabs/elabs_066/NQDDIJLQMDSXML-UHFFFAOYSA-N/output/NQDDIJLQMDSXML-UHFFFAOYSA-N-ZsT2oh-1151-E/NQDDIJLQMDSXML-UHFFFAOYSA-N-ZsT2oh-1151-E.minimised.mol

>  <distance_score>  (465) 
1.940349

>  <energy_score>  (465) 
-23.554769

>  <compound>  (465) 
JREQZSIZCJGPDL-UHFFFAOYSA-N

>  <compound_id>  (465) 
207824

>  <target>  (465) 
Flavi_NS5_RdRp

>  <tags>  (465) 
[]

>  <inspirations>  (465) 
{P Ã— 2}

>  <subsites>  (465) 
None

>  <reference>  (465) 
z0211a

>  <SLURM_JOB_ID>  (465) 
nan

>  <SLURM_JOB_NAME>  (465) 
nan

>  <csv_name>  (465) 
nan

>  <scratch_subdir>  (465) 
nan

>  <fragmenstein_runtime>  (465) 
nan

>  <fragmenstein_outcome>  (465) 
nan

>  <fragmenstein_mode>  (465) 
nan

>  <fragmenstein_error>  (465) 
nan

>  <exports>  (465) 
nan

>  <Multi-SuCOS>  (465) 
nan

>  <merge_set>  (465) 
nan

$$$$
CSXJDIJYGKDHOZ-HZMBPMFUSA-N
     RDKit          3D

 20 20  0  0  0  0  0  0  0  0999 V2000
  -29.1386  -30.2901  -15.6986 C   0  0  0  0  0  0  0  0  0  0  0  0
  -29.5693  -29.3260  -16.7877 C   0  0  0  0  0  0  0  0  0  0  0  0
  -29.2984  -29.7142  -18.2573 C   0  0  2  0  0  0  0  0  0  0  0  0
  -30.3075  -30.7213  -18.7787 C   0  0  0  0  0  0  0  0  0  0  0  0
  -27.9182  -29.9586  -18.6084 N   0  0  0  0  0  0  0  0  0  0  0  0
  -26.9722  -29.7539  -17.6746 N   0  0  0  0  0  0  0  0  0  0  0  0
  -25.8600  -30.1721  -18.2634 C   0  0  0  0  0  0  0  0  0  0  0  0
  -26.0730  -30.4685  -19.6171 C   0  0  0  0  0  0  0  0  0  0  0  0
  -25.1168  -30.9295  -20.4616 N   0  0  0  0  0  0  0  0  0  0  0  0
  -25.1644  -31.1813  -21.9843 C   0  0  0  0  0  0  0  0  0  0  0  0
  -26.0304  -31.1065  -22.7127 O   0  0  0  0  0  0  0  0  0  0  0  0
  -23.7250  -31.6585  -22.2025 N   0  0  0  0  0  0  0  0  0  0  0  0
  -23.0536  -32.0488  -23.3946 C   0  0  0  0  0  0  0  0  0  0  0  0
  -21.8555  -32.9301  -23.0343 C   0  0  1  0  0  0  0  0  0  0  0  0
  -20.8969  -32.9350  -24.2191 C   0  0  0  0  0  0  0  0  0  0  0  0
  -21.1687  -32.3328  -21.9206 O   0  0  0  0  0  0  0  0  0  0  0  0
  -22.2560  -34.3790  -22.6664 C   0  0  0  0  0  0  0  0  0  0  0  0
  -23.2201  -34.5387  -21.4960 C   0  0  0  0  0  0  0  0  0  0  0  0
  -27.3963  -30.1686  -19.8639 C   0  0  0  0  0  0  0  0  0  0  0  0
  -28.2001  -30.0988  -21.1148 C   0  0  0  0  0  0  0  0  0  0  0  0
  1  2  1  0
  2  3  1  0
  3  4  1  1
  3  5  1  0
  5  6  1  0
  6  7  2  0
  7  8  1  0
  8  9  1  0
  9 10  1  0
 10 11  2  0
 10 12  1  0
 12 13  1  0
 13 14  1  0
 14 15  1  6
 14 16  1  0
 14 17  1  0
 17 18  1  0
  8 19  2  0
 19 20  1  0
 19  5  1  0
M  END
>  <id>  (466) 
389354

>  <inchikey>  (466) 
CSXJDIJYGKDHOZ-HZMBPMFUSA-N

>  <alias>  (466) 
None

>  <smiles>  (466) 
CC[C@H](C)n1ncc(NC(=O)NC[C@@](C)(O)CC)c1C

>  <path>  (466) 
/opt/xchem-fragalysis-2/maxwin/RdRp_FFF/syndirella/mar_elabs/elabs_066/NQDDIJLQMDSXML-UHFFFAOYSA-N/output/NQDDIJLQMDSXML-UHFFFAOYSA-N-ZsT2oh-1193-C/NQDDIJLQMDSXML-UHFFFAOYSA-N-ZsT2oh-1193-C.minimised.mol

>  <distance_score>  (466) 
1.245518

>  <energy_score>  (466) 
-22.499288

>  <compound>  (466) 
CSXJDIJYGKDHOZ-UHFFFAOYSA-N

>  <compound_id>  (466) 
207859

>  <target>  (466) 
Flavi_NS5_RdRp

>  <tags>  (466) 
[]

>  <inspirations>  (466) 
{P Ã— 2}

>  <subsites>  (466) 
None

>  <reference>  (466) 
z0211a

>  <SLURM_JOB_ID>  (466) 
nan

>  <SLURM_JOB_NAME>  (466) 
nan

>  <csv_name>  (466) 
nan

>  <scratch_subdir>  (466) 
nan

>  <fragmenstein_runtime>  (466) 
nan

>  <fragmenstein_outcome>  (466) 
nan

>  <fragmenstein_mode>  (466) 
nan

>  <fragmenstein_error>  (466) 
nan

>  <exports>  (466) 
nan

>  <Multi-SuCOS>  (466) 
nan

>  <merge_set>  (466) 
nan

$$$$
LHUVULOSMONXMJ-MRVPVSSYSA-N
     RDKit          3D

 20 20  0  0  0  0  0  0  0  0999 V2000
  -29.0010  -30.2010  -15.7692 C   0  0  0  0  0  0  0  0  0  0  0  0
  -28.5893  -29.1134  -16.7405 C   0  0  0  0  0  0  0  0  0  0  0  0
  -28.3616  -29.5745  -18.1832 C   0  0  1  0  0  0  0  0  0  0  0  0
  -28.2264  -28.4258  -19.1856 C   0  0  0  0  0  0  0  0  0  0  0  0
  -27.1567  -30.3676  -18.3767 N   0  0  0  0  0  0  0  0  0  0  0  0
  -26.1335  -30.2769  -17.5052 N   0  0  0  0  0  0  0  0  0  0  0  0
  -25.1221  -30.8524  -18.1529 C   0  0  0  0  0  0  0  0  0  0  0  0
  -25.4904  -31.2468  -19.4520 C   0  0  0  0  0  0  0  0  0  0  0  0
  -24.6639  -31.6795  -20.4368 N   0  0  0  0  0  0  0  0  0  0  0  0
  -24.9167  -31.9072  -21.8739 C   0  0  0  0  0  0  0  0  0  0  0  0
  -25.8939  -31.8433  -22.4755 O   0  0  0  0  0  0  0  0  0  0  0  0
  -23.4471  -32.1558  -22.3264 N   0  0  0  0  0  0  0  0  0  0  0  0
  -22.8518  -32.4882  -23.6519 C   0  0  0  0  0  0  0  0  0  0  0  0
  -23.3518  -32.5760  -24.7741 N   0  0  0  0  0  0  0  0  0  0  0  0
  -21.3578  -32.7343  -23.4007 C   0  0  0  0  0  0  0  0  0  0  0  0
  -20.6535  -33.1088  -24.6899 C   0  0  0  0  0  0  0  0  0  0  0  0
  -20.6622  -31.5486  -22.7243 C   0  0  0  0  0  0  0  0  0  0  0  0
  -21.3042  -33.8310  -22.4761 O   0  0  0  0  0  0  0  0  0  0  0  0
  -26.8356  -30.9887  -19.5590 C   0  0  0  0  0  0  0  0  0  0  0  0
  -27.8082  -31.1320  -20.6773 C   0  0  0  0  0  0  0  0  0  0  0  0
  1  2  1  0
  2  3  1  0
  3  4  1  6
  3  5  1  0
  5  6  1  0
  6  7  2  0
  7  8  1  0
  8  9  1  0
  9 10  1  0
 10 11  2  0
 10 12  1  0
 12 13  1  0
 13 14  2  3
 13 15  1  0
 15 16  1  0
 15 17  1  0
 15 18  1  0
  8 19  2  0
 19 20  1  0
 19  5  1  0
M  END
>  <id>  (467) 
389355

>  <inchikey>  (467) 
LHUVULOSMONXMJ-MRVPVSSYSA-N

>  <alias>  (467) 
None

>  <smiles>  (467) 
CC[C@@H](C)n1ncc(NC(=O)NC(=N)C(C)(C)O)c1C

>  <path>  (467) 
/opt/xchem-fragalysis-2/maxwin/RdRp_FFF/syndirella/mar_elabs/elabs_066/NQDDIJLQMDSXML-UHFFFAOYSA-N/output/NQDDIJLQMDSXML-UHFFFAOYSA-N-ZsT2oh-1194-A/NQDDIJLQMDSXML-UHFFFAOYSA-N-ZsT2oh-1194-A.minimised.mol

>  <distance_score>  (467) 
1.849961

>  <energy_score>  (467) 
-17.944462

>  <compound>  (467) 
LHUVULOSMONXMJ-UHFFFAOYSA-N

>  <compound_id>  (467) 
207860

>  <target>  (467) 
Flavi_NS5_RdRp

>  <tags>  (467) 
[]

>  <inspirations>  (467) 
{P Ã— 2}

>  <subsites>  (467) 
None

>  <reference>  (467) 
z0211a

>  <SLURM_JOB_ID>  (467) 
nan

>  <SLURM_JOB_NAME>  (467) 
nan

>  <csv_name>  (467) 
nan

>  <scratch_subdir>  (467) 
nan

>  <fragmenstein_runtime>  (467) 
nan

>  <fragmenstein_outcome>  (467) 
nan

>  <fragmenstein_mode>  (467) 
nan

>  <fragmenstein_error>  (467) 
nan

>  <exports>  (467) 
nan

>  <Multi-SuCOS>  (467) 
nan

>  <merge_set>  (467) 
nan

$$$$
GKHMJZVPSOEDAD-KBVBSXBZSA-N
     RDKit          3D

 20 20  0  0  0  0  0  0  0  0999 V2000
  -30.6484  -30.9012  -16.9862 C   0  0  0  0  0  0  0  0  0  0  0  0
  -30.1687  -30.5678  -18.3928 C   0  0  0  0  0  0  0  0  0  0  0  0
  -29.0674  -29.5279  -18.4144 C   0  0  1  0  0  0  0  0  0  0  0  0
  -29.0567  -28.6836  -17.1521 C   0  0  0  0  0  0  0  0  0  0  0  0
  -27.7342  -30.0201  -18.6991 N   0  0  0  0  0  0  0  0  0  0  0  0
  -26.7911  -29.8792  -17.7424 N   0  0  0  0  0  0  0  0  0  0  0  0
  -25.6874  -30.3408  -18.3063 C   0  0  0  0  0  0  0  0  0  0  0  0
  -25.9236  -30.7611  -19.6171 C   0  0  0  0  0  0  0  0  0  0  0  0
  -24.9952  -31.3211  -20.4211 N   0  0  0  0  0  0  0  0  0  0  0  0
  -25.1607  -32.1774  -21.6904 C   0  0  0  0  0  0  0  0  0  0  0  0
  -26.0980  -32.5860  -22.1827 O   0  0  0  0  0  0  0  0  0  0  0  0
  -23.6946  -32.2301  -22.1477 N   0  0  0  0  0  0  0  0  0  0  0  0
  -23.1175  -32.7247  -23.3648 C   0  0  2  0  0  0  0  0  0  0  0  0
  -23.8607  -33.9183  -23.9544 C   0  0  0  0  0  0  0  0  0  0  0  0
  -21.6484  -33.0662  -23.0652 C   0  0  2  0  0  0  0  0  0  0  0  0
  -21.1144  -32.1968  -22.0374 O   0  0  0  0  0  0  0  0  0  0  0  0
  -20.7755  -32.8745  -24.2938 C   0  0  0  0  0  0  0  0  0  0  0  0
  -20.5671  -31.4829  -24.5422 O   0  0  0  0  0  0  0  0  0  0  0  0
  -27.2316  -30.4345  -19.9053 C   0  0  0  0  0  0  0  0  0  0  0  0
  -28.0218  -30.4532  -21.1637 C   0  0  0  0  0  0  0  0  0  0  0  0
  1  2  1  0
  2  3  1  0
  3  4  1  1
  3  5  1  0
  5  6  1  0
  6  7  2  0
  7  8  1  0
  8  9  1  0
  9 10  1  0
 10 11  2  0
 10 12  1  0
 12 13  1  0
 13 14  1  1
 13 15  1  0
 15 16  1  1
 15 17  1  0
 17 18  1  0
  8 19  2  0
 19 20  1  0
 19  5  1  0
M  END
>  <id>  (468) 
389358

>  <inchikey>  (468) 
GKHMJZVPSOEDAD-KBVBSXBZSA-N

>  <alias>  (468) 
None

>  <smiles>  (468) 
CC[C@@H](C)n1ncc(NC(=O)N[C@H](C)[C@H](O)CO)c1C

>  <path>  (468) 
/opt/xchem-fragalysis-2/maxwin/RdRp_FFF/syndirella/mar_elabs/elabs_066/NQDDIJLQMDSXML-UHFFFAOYSA-N/output/NQDDIJLQMDSXML-UHFFFAOYSA-N-ZsT2oh-1199-B/NQDDIJLQMDSXML-UHFFFAOYSA-N-ZsT2oh-1199-B.minimised.mol

>  <distance_score>  (468) 
1.362864

>  <energy_score>  (468) 
-0.966826

>  <compound>  (468) 
GKHMJZVPSOEDAD-UHFFFAOYSA-N

>  <compound_id>  (468) 
207865

>  <target>  (468) 
Flavi_NS5_RdRp

>  <tags>  (468) 
[]

>  <inspirations>  (468) 
{P Ã— 2}

>  <subsites>  (468) 
None

>  <reference>  (468) 
z0211a

>  <SLURM_JOB_ID>  (468) 
nan

>  <SLURM_JOB_NAME>  (468) 
nan

>  <csv_name>  (468) 
nan

>  <scratch_subdir>  (468) 
nan

>  <fragmenstein_runtime>  (468) 
nan

>  <fragmenstein_outcome>  (468) 
nan

>  <fragmenstein_mode>  (468) 
nan

>  <fragmenstein_error>  (468) 
nan

>  <exports>  (468) 
nan

>  <Multi-SuCOS>  (468) 
nan

>  <merge_set>  (468) 
nan

$$$$
VODDPVFOEGGIIZ-UWVGGRQHSA-N
     RDKit          3D

 20 20  0  0  0  0  0  0  0  0999 V2000
  -29.0296  -30.2527  -15.7721 C   0  0  0  0  0  0  0  0  0  0  0  0
  -28.8104  -29.1252  -16.7553 C   0  0  0  0  0  0  0  0  0  0  0  0
  -28.8621  -29.4418  -18.2698 C   0  0  2  0  0  0  0  0  0  0  0  0
  -30.1464  -30.1618  -18.6615 C   0  0  0  0  0  0  0  0  0  0  0  0
  -27.6550  -30.0351  -18.8153 N   0  0  0  0  0  0  0  0  0  0  0  0
  -26.6321  -30.2505  -17.9738 N   0  0  0  0  0  0  0  0  0  0  0  0
  -25.7323  -30.8621  -18.7283 C   0  0  0  0  0  0  0  0  0  0  0  0
  -26.1236  -30.9187  -20.0783 C   0  0  0  0  0  0  0  0  0  0  0  0
  -25.4033  -31.5702  -21.0313 N   0  0  0  0  0  0  0  0  0  0  0  0
  -25.3308  -31.3447  -22.5707 C   0  0  0  0  0  0  0  0  0  0  0  0
  -25.9230  -30.6338  -23.2420 O   0  0  0  0  0  0  0  0  0  0  0  0
  -24.2856  -32.4469  -22.9400 N   0  0  0  0  0  0  0  0  0  0  0  0
  -23.7442  -32.7830  -24.1500 N   0  0  0  0  0  0  0  0  0  0  0  0
  -23.9753  -34.1804  -24.4876 C   0  0  0  0  0  0  0  0  0  0  0  0
  -22.3460  -32.3568  -24.2301 C   0  0  0  0  0  0  0  0  0  0  0  0
  -21.3242  -33.0319  -23.3040 C   0  0  2  0  0  0  0  0  0  0  0  0
  -21.0883  -32.2731  -22.0034 C   0  0  0  0  0  0  0  0  0  0  0  0
  -20.0790  -33.0812  -23.9919 O   0  0  0  0  0  0  0  0  0  0  0  0
  -27.3342  -30.2592  -20.1401 C   0  0  0  0  0  0  0  0  0  0  0  0
  -28.2752  -29.9248  -21.2373 C   0  0  0  0  0  0  0  0  0  0  0  0
  1  2  1  0
  2  3  1  0
  3  4  1  1
  3  5  1  0
  5  6  1  0
  6  7  2  0
  7  8  1  0
  8  9  1  0
  9 10  1  0
 10 11  2  0
 10 12  1  0
 12 13  1  0
 13 14  1  0
 13 15  1  0
 15 16  1  0
 16 17  1  1
 16 18  1  0
  8 19  2  0
 19 20  1  0
 19  5  1  0
M  END
>  <id>  (469) 
389361

>  <inchikey>  (469) 
VODDPVFOEGGIIZ-UWVGGRQHSA-N

>  <alias>  (469) 
None

>  <smiles>  (469) 
CC[C@H](C)n1ncc(NC(=O)NN(C)C[C@H](C)O)c1C

>  <path>  (469) 
/opt/xchem-fragalysis-2/maxwin/RdRp_FFF/syndirella/mar_elabs/elabs_066/NQDDIJLQMDSXML-UHFFFAOYSA-N/output/NQDDIJLQMDSXML-UHFFFAOYSA-N-ZsT2oh-1200-C/NQDDIJLQMDSXML-UHFFFAOYSA-N-ZsT2oh-1200-C.minimised.mol

>  <distance_score>  (469) 
1.52826

>  <energy_score>  (469) 
-20.286555

>  <compound>  (469) 
VODDPVFOEGGIIZ-UHFFFAOYSA-N

>  <compound_id>  (469) 
207866

>  <target>  (469) 
Flavi_NS5_RdRp

>  <tags>  (469) 
[]

>  <inspirations>  (469) 
{P Ã— 2}

>  <subsites>  (469) 
None

>  <reference>  (469) 
z0211a

>  <SLURM_JOB_ID>  (469) 
nan

>  <SLURM_JOB_NAME>  (469) 
nan

>  <csv_name>  (469) 
nan

>  <scratch_subdir>  (469) 
nan

>  <fragmenstein_runtime>  (469) 
nan

>  <fragmenstein_outcome>  (469) 
nan

>  <fragmenstein_mode>  (469) 
nan

>  <fragmenstein_error>  (469) 
nan

>  <exports>  (469) 
nan

>  <Multi-SuCOS>  (469) 
nan

>  <merge_set>  (469) 
nan

$$$$
PXNKGYNYARSBEE-HZMBPMFUSA-N
     RDKit          3D

 20 20  0  0  0  0  0  0  0  0999 V2000
  -21.3180  -33.2409  -25.4014 C   0  0  0  0  0  0  0  0  0  0  0  0
  -20.8290  -33.0398  -24.1683 C   0  0  0  0  0  0  0  0  0  0  0  0
  -21.4926  -32.3982  -22.9794 C   0  0  2  0  0  0  0  0  0  0  0  0
  -20.6454  -31.2296  -22.4773 C   0  0  0  0  0  0  0  0  0  0  0  0
  -21.4493  -33.3554  -21.9162 O   0  0  0  0  0  0  0  0  0  0  0  0
  -22.9510  -32.0251  -23.2436 C   0  0  0  0  0  0  0  0  0  0  0  0
  -23.6371  -31.6244  -22.0600 N   0  0  0  0  0  0  0  0  0  0  0  0
  -25.1303  -31.3847  -21.8108 C   0  0  0  0  0  0  0  0  0  0  0  0
  -26.0046  -31.4011  -22.5307 O   0  0  0  0  0  0  0  0  0  0  0  0
  -25.0786  -31.0157  -20.3152 N   0  0  0  0  0  0  0  0  0  0  0  0
  -26.0435  -30.5308  -19.4975 C   0  0  0  0  0  0  0  0  0  0  0  0
  -25.8578  -30.2066  -18.1479 C   0  0  0  0  0  0  0  0  0  0  0  0
  -26.9732  -29.7424  -17.6022 N   0  0  0  0  0  0  0  0  0  0  0  0
  -27.9028  -29.9637  -18.5519 N   0  0  0  0  0  0  0  0  0  0  0  0
  -29.2895  -29.7046  -18.2372 C   0  0  1  0  0  0  0  0  0  0  0  0
  -30.2992  -30.7001  -18.7836 C   0  0  0  0  0  0  0  0  0  0  0  0
  -29.5874  -29.3277  -16.7700 C   0  0  0  0  0  0  0  0  0  0  0  0
  -29.1752  -30.3038  -15.6847 C   0  0  0  0  0  0  0  0  0  0  0  0
  -27.3521  -30.2030  -19.7895 C   0  0  0  0  0  0  0  0  0  0  0  0
  -28.1248  -30.1279  -21.0626 C   0  0  0  0  0  0  0  0  0  0  0  0
  1  2  2  0
  2  3  1  0
  3  4  1  1
  3  5  1  0
  3  6  1  0
  6  7  1  0
  7  8  1  0
  8  9  2  0
  8 10  1  0
 10 11  1  0
 11 12  1  0
 12 13  2  0
 13 14  1  0
 14 15  1  0
 15 16  1  1
 15 17  1  0
 17 18  1  0
 14 19  1  0
 19 20  1  0
 19 11  2  0
M  END
>  <id>  (470) 
389362

>  <inchikey>  (470) 
PXNKGYNYARSBEE-HZMBPMFUSA-N

>  <alias>  (470) 
None

>  <smiles>  (470) 
C=C[C@](C)(O)CNC(=O)Nc1cnn([C@@H](C)CC)c1C

>  <path>  (470) 
/opt/xchem-fragalysis-2/maxwin/RdRp_FFF/syndirella/mar_elabs/elabs_066/NQDDIJLQMDSXML-UHFFFAOYSA-N/output/NQDDIJLQMDSXML-UHFFFAOYSA-N-ZsT2oh-1201-A/NQDDIJLQMDSXML-UHFFFAOYSA-N-ZsT2oh-1201-A.minimised.mol

>  <distance_score>  (470) 
1.308748

>  <energy_score>  (470) 
-31.971334

>  <compound>  (470) 
PXNKGYNYARSBEE-UHFFFAOYSA-N

>  <compound_id>  (470) 
207867

>  <target>  (470) 
Flavi_NS5_RdRp

>  <tags>  (470) 
[]

>  <inspirations>  (470) 
{P Ã— 2}

>  <subsites>  (470) 
None

>  <reference>  (470) 
z0211a

>  <SLURM_JOB_ID>  (470) 
nan

>  <SLURM_JOB_NAME>  (470) 
nan

>  <csv_name>  (470) 
nan

>  <scratch_subdir>  (470) 
nan

>  <fragmenstein_runtime>  (470) 
nan

>  <fragmenstein_outcome>  (470) 
nan

>  <fragmenstein_mode>  (470) 
nan

>  <fragmenstein_error>  (470) 
nan

>  <exports>  (470) 
nan

>  <Multi-SuCOS>  (470) 
nan

>  <merge_set>  (470) 
nan

$$$$
RVABZMFPEAYKJN-CQSZACIVSA-N
     RDKit          3D

 20 21  0  0  0  0  0  0  0  0999 V2000
  -21.6918  -33.5158  -25.3368 C   0  0  0  0  0  0  0  0  0  0  0  0
  -21.1114  -32.8733  -24.0830 C   0  0  0  0  0  0  0  0  0  0  0  0
  -22.0643  -32.7784  -22.8776 C   0  0  1  0  0  0  0  0  0  0  0  0
  -22.3486  -34.1547  -22.2665 C   0  0  0  0  0  0  0  0  0  0  0  0
  -21.3757  -31.9962  -21.8870 O   0  0  0  0  0  0  0  0  0  0  0  0
  -23.3660  -32.0836  -23.2969 C   0  0  0  0  0  0  0  0  0  0  0  0
  -24.1534  -31.5926  -22.2045 N   0  0  0  0  0  0  0  0  0  0  0  0
  -25.5842  -31.9705  -21.7511 C   0  0  0  0  0  0  0  0  0  0  0  0
  -26.2904  -32.7718  -22.1403 O   0  0  0  0  0  0  0  0  0  0  0  0
  -25.8084  -30.8742  -20.6855 N   0  0  0  0  0  0  0  0  0  0  0  0
  -26.9296  -30.5267  -20.0047 C   0  0  0  0  0  0  0  0  0  0  0  0
  -28.2687  -30.6850  -20.3716 C   0  0  0  0  0  0  0  0  0  0  0  0
  -29.1012  -30.2205  -19.4399 N   0  0  0  0  0  0  0  0  0  0  0  0
  -28.2794  -29.9068  -18.4102 N   0  0  0  0  0  0  0  0  0  0  0  0
  -28.7700  -30.1651  -17.0484 C   0  0  0  0  0  0  0  0  0  0  0  0
  -27.7712  -30.1844  -15.8555 C   0  0  0  0  0  0  0  0  0  0  0  0
  -28.9623  -29.7384  -15.0284 C   0  0  0  0  0  0  0  0  0  0  0  0
  -29.4945  -29.0737  -16.3299 C   0  0  0  0  0  0  0  0  0  0  0  0
  -26.9532  -29.9012  -18.7855 C   0  0  0  0  0  0  0  0  0  0  0  0
  -25.8283  -29.4782  -17.9463 C   0  0  0  0  0  0  0  0  0  0  0  0
  1  2  1  0
  2  3  1  0
  3  4  1  1
  3  5  1  0
  3  6  1  0
  6  7  1  0
  7  8  1  0
  8  9  2  0
  8 10  1  0
 10 11  1  0
 11 12  1  0
 12 13  2  0
 13 14  1  0
 14 15  1  0
 15 16  1  0
 16 17  1  0
 17 18  1  0
 14 19  1  0
 19 20  1  0
 19 11  2  0
 18 15  1  0
M  END
>  <id>  (471) 
389386

>  <inchikey>  (471) 
RVABZMFPEAYKJN-CQSZACIVSA-N

>  <alias>  (471) 
None

>  <smiles>  (471) 
CC[C@@](C)(O)CNC(=O)Nc1cnn(C2CCC2)c1C

>  <path>  (471) 
/opt/xchem-fragalysis-2/maxwin/RdRp_FFF/syndirella/mar_elabs/elabs_066/NQDDIJLQMDSXML-UHFFFAOYSA-N/output/NQDDIJLQMDSXML-UHFFFAOYSA-N-ZsT2oh-1265-B/NQDDIJLQMDSXML-UHFFFAOYSA-N-ZsT2oh-1265-B.minimised.mol

>  <distance_score>  (471) 
1.183548

>  <energy_score>  (471) 
-7.878858

>  <compound>  (471) 
RVABZMFPEAYKJN-UHFFFAOYSA-N

>  <compound_id>  (471) 
207920

>  <target>  (471) 
Flavi_NS5_RdRp

>  <tags>  (471) 
[]

>  <inspirations>  (471) 
{P Ã— 2}

>  <subsites>  (471) 
None

>  <reference>  (471) 
z0211a

>  <SLURM_JOB_ID>  (471) 
nan

>  <SLURM_JOB_NAME>  (471) 
nan

>  <csv_name>  (471) 
nan

>  <scratch_subdir>  (471) 
nan

>  <fragmenstein_runtime>  (471) 
nan

>  <fragmenstein_outcome>  (471) 
nan

>  <fragmenstein_mode>  (471) 
nan

>  <fragmenstein_error>  (471) 
nan

>  <exports>  (471) 
nan

>  <Multi-SuCOS>  (471) 
nan

>  <merge_set>  (471) 
nan

$$$$
KMYBZZAVLWZGFJ-NSHDSACASA-N
     RDKit          3D

 20 21  0  0  0  0  0  0  0  0999 V2000
  -22.9591  -35.0286  -25.2148 C   0  0  0  0  0  0  0  0  0  0  0  0
  -21.9948  -33.6513  -25.8978 S   0  0  0  0  0  0  0  0  0  0  0  0
  -21.3679  -32.8830  -24.3506 C   0  0  0  0  0  0  0  0  0  0  0  0
  -22.3589  -32.5854  -23.2237 C   0  0  1  0  0  0  0  0  0  0  0  0
  -21.7060  -31.7345  -22.2599 O   0  0  0  0  0  0  0  0  0  0  0  0
  -23.6571  -31.9260  -23.6820 C   0  0  0  0  0  0  0  0  0  0  0  0
  -24.4426  -31.5139  -22.5607 N   0  0  0  0  0  0  0  0  0  0  0  0
  -25.7855  -30.7529  -22.5059 C   0  0  0  0  0  0  0  0  0  0  0  0
  -26.4766  -30.4220  -23.3443 O   0  0  0  0  0  0  0  0  0  0  0  0
  -25.9453  -30.6342  -20.9790 N   0  0  0  0  0  0  0  0  0  0  0  0
  -26.9879  -30.1870  -20.2374 C   0  0  0  0  0  0  0  0  0  0  0  0
  -28.2784  -29.7871  -20.5987 C   0  0  0  0  0  0  0  0  0  0  0  0
  -29.0265  -29.5256  -19.5238 N   0  0  0  0  0  0  0  0  0  0  0  0
  -28.1850  -29.7096  -18.4812 N   0  0  0  0  0  0  0  0  0  0  0  0
  -28.7264  -30.0928  -17.1739 C   0  0  0  0  0  0  0  0  0  0  0  0
  -29.5450  -29.0956  -16.4028 C   0  0  0  0  0  0  0  0  0  0  0  0
  -28.9820  -29.7733  -15.1266 C   0  0  0  0  0  0  0  0  0  0  0  0
  -27.7573  -30.0995  -15.9551 C   0  0  0  0  0  0  0  0  0  0  0  0
  -26.9085  -30.0199  -18.8810 C   0  0  0  0  0  0  0  0  0  0  0  0
  -25.7332  -30.1330  -18.0011 C   0  0  0  0  0  0  0  0  0  0  0  0
  1  2  1  0
  2  3  1  0
  3  4  1  0
  4  5  1  1
  4  6  1  0
  6  7  1  0
  7  8  1  0
  8  9  2  0
  8 10  1  0
 10 11  1  0
 11 12  1  0
 12 13  2  0
 13 14  1  0
 14 15  1  0
 15 16  1  0
 16 17  1  0
 17 18  1  0
 14 19  1  0
 19 20  1  0
 19 11  2  0
 18 15  1  0
M  END
>  <id>  (472) 
389390

>  <inchikey>  (472) 
KMYBZZAVLWZGFJ-NSHDSACASA-N

>  <alias>  (472) 
None

>  <smiles>  (472) 
CSC[C@@H](O)CNC(=O)Nc1cnn(C2CCC2)c1C

>  <path>  (472) 
/opt/xchem-fragalysis-2/maxwin/RdRp_FFF/syndirella/mar_elabs/elabs_066/NQDDIJLQMDSXML-UHFFFAOYSA-N/output/NQDDIJLQMDSXML-UHFFFAOYSA-N-ZsT2oh-1270-B/NQDDIJLQMDSXML-UHFFFAOYSA-N-ZsT2oh-1270-B.minimised.mol

>  <distance_score>  (472) 
1.200195

>  <energy_score>  (472) 
-31.927352

>  <compound>  (472) 
KMYBZZAVLWZGFJ-UHFFFAOYSA-N

>  <compound_id>  (472) 
207923

>  <target>  (472) 
Flavi_NS5_RdRp

>  <tags>  (472) 
[]

>  <inspirations>  (472) 
{P Ã— 2}

>  <subsites>  (472) 
None

>  <reference>  (472) 
z0211a

>  <SLURM_JOB_ID>  (472) 
nan

>  <SLURM_JOB_NAME>  (472) 
nan

>  <csv_name>  (472) 
nan

>  <scratch_subdir>  (472) 
nan

>  <fragmenstein_runtime>  (472) 
nan

>  <fragmenstein_outcome>  (472) 
nan

>  <fragmenstein_mode>  (472) 
nan

>  <fragmenstein_error>  (472) 
nan

>  <exports>  (472) 
nan

>  <Multi-SuCOS>  (472) 
nan

>  <merge_set>  (472) 
nan

$$$$
ZYOIXKNWWMXNLN-JTQLQIEISA-N
     RDKit          3D

 20 21  0  0  0  0  0  0  0  0999 V2000
  -25.5784  -29.4071  -17.6310 C   0  0  0  0  0  0  0  0  0  0  0  0
  -26.5071  -29.9028  -18.6524 C   0  0  0  0  0  0  0  0  0  0  0  0
  -26.2198  -30.5471  -19.8312 C   0  0  0  0  0  0  0  0  0  0  0  0
  -24.9469  -30.9314  -20.1537 N   0  0  0  0  0  0  0  0  0  0  0  0
  -24.3736  -31.5013  -21.4809 C   0  0  0  0  0  0  0  0  0  0  0  0
  -24.9042  -31.7930  -22.4482 O   0  0  0  0  0  0  0  0  0  0  0  0
  -22.8503  -31.4604  -21.1389 N   0  0  0  0  0  0  0  0  0  0  0  0
  -21.6921  -31.6885  -21.9826 C   0  0  0  0  0  0  0  0  0  0  0  0
  -20.9614  -32.9811  -21.6569 C   0  0  2  0  0  0  0  0  0  0  0  0
  -21.8697  -34.0576  -21.8204 O   0  0  0  0  0  0  0  0  0  0  0  0
  -20.3609  -32.9190  -20.2557 C   0  0  0  0  0  0  0  0  0  0  0  0
  -20.7668  -33.5129  -19.2689 O   0  0  0  0  0  0  0  0  0  0  0  0
  -19.2860  -32.1058  -20.1838 O   0  0  0  0  0  0  0  0  0  0  0  0
  -27.4471  -30.6046  -20.5099 C   0  0  0  0  0  0  0  0  0  0  0  0
  -28.4620  -30.1467  -19.7603 N   0  0  0  0  0  0  0  0  0  0  0  0
  -27.8790  -29.8460  -18.5686 N   0  0  0  0  0  0  0  0  0  0  0  0
  -28.6195  -30.1320  -17.3193 C   0  0  0  0  0  0  0  0  0  0  0  0
  -29.4510  -29.0843  -16.6295 C   0  0  0  0  0  0  0  0  0  0  0  0
  -29.0868  -29.8068  -15.3026 C   0  0  0  0  0  0  0  0  0  0  0  0
  -27.8037  -30.2159  -15.9836 C   0  0  0  0  0  0  0  0  0  0  0  0
  1  2  1  0
  2  3  2  0
  3  4  1  0
  4  5  1  0
  5  6  2  0
  5  7  1  0
  7  8  1  0
  8  9  1  0
  9 10  1  1
  9 11  1  0
 11 12  2  0
 11 13  1  0
  3 14  1  0
 14 15  2  0
 15 16  1  0
 16 17  1  0
 17 18  1  0
 18 19  1  0
 19 20  1  0
 16  2  1  0
 20 17  1  0
M  END
>  <id>  (473) 
389393

>  <inchikey>  (473) 
ZYOIXKNWWMXNLN-JTQLQIEISA-N

>  <alias>  (473) 
None

>  <smiles>  (473) 
Cc1c(NC(=O)NC[C@H](O)C(=O)O)cnn1C1CCC1

>  <path>  (473) 
/opt/xchem-fragalysis-2/maxwin/RdRp_FFF/syndirella/mar_elabs/elabs_066/NQDDIJLQMDSXML-UHFFFAOYSA-N/output/NQDDIJLQMDSXML-UHFFFAOYSA-N-ZsT2oh-1279-A/NQDDIJLQMDSXML-UHFFFAOYSA-N-ZsT2oh-1279-A.minimised.mol

>  <distance_score>  (473) 
1.933053

>  <energy_score>  (473) 
-17.026614

>  <compound>  (473) 
ZYOIXKNWWMXNLN-UHFFFAOYSA-N

>  <compound_id>  (473) 
207932

>  <target>  (473) 
Flavi_NS5_RdRp

>  <tags>  (473) 
[]

>  <inspirations>  (473) 
{P Ã— 2}

>  <subsites>  (473) 
None

>  <reference>  (473) 
z0211a

>  <SLURM_JOB_ID>  (473) 
nan

>  <SLURM_JOB_NAME>  (473) 
nan

>  <csv_name>  (473) 
nan

>  <scratch_subdir>  (473) 
nan

>  <fragmenstein_runtime>  (473) 
nan

>  <fragmenstein_outcome>  (473) 
nan

>  <fragmenstein_mode>  (473) 
nan

>  <fragmenstein_error>  (473) 
nan

>  <exports>  (473) 
nan

>  <Multi-SuCOS>  (473) 
nan

>  <merge_set>  (473) 
nan

$$$$
WBYZXQJMGLDTAN-NSHDSACASA-N
     RDKit          3D

 20 21  0  0  0  0  0  0  0  0999 V2000
  -22.6873  -34.4776  -25.6168 C   0  0  0  0  0  0  0  0  0  0  0  0
  -22.1141  -33.1776  -25.6214 O   0  0  0  0  0  0  0  0  0  0  0  0
  -21.4497  -32.8203  -24.4059 C   0  0  0  0  0  0  0  0  0  0  0  0
  -22.3787  -32.5360  -23.2178 C   0  0  1  0  0  0  0  0  0  0  0  0
  -21.6998  -31.6962  -22.2678 O   0  0  0  0  0  0  0  0  0  0  0  0
  -23.7048  -31.9032  -23.6368 C   0  0  0  0  0  0  0  0  0  0  0  0
  -24.4627  -31.4659  -22.5031 N   0  0  0  0  0  0  0  0  0  0  0  0
  -25.8576  -30.8019  -22.4265 C   0  0  0  0  0  0  0  0  0  0  0  0
  -26.5495  -30.4496  -23.2559 O   0  0  0  0  0  0  0  0  0  0  0  0
  -26.0753  -30.8519  -20.9018 N   0  0  0  0  0  0  0  0  0  0  0  0
  -27.1102  -30.4075  -20.1476 C   0  0  0  0  0  0  0  0  0  0  0  0
  -28.4468  -30.1441  -20.4677 C   0  0  0  0  0  0  0  0  0  0  0  0
  -29.1622  -29.8260  -19.3842 N   0  0  0  0  0  0  0  0  0  0  0  0
  -28.2529  -29.8236  -18.3900 N   0  0  0  0  0  0  0  0  0  0  0  0
  -28.5825  -29.3684  -17.0312 C   0  0  0  0  0  0  0  0  0  0  0  0
  -27.6870  -29.9516  -15.9106 C   0  0  0  0  0  0  0  0  0  0  0  0
  -28.9317  -30.1843  -15.0891 C   0  0  0  0  0  0  0  0  0  0  0  0
  -29.7787  -30.0569  -16.3713 C   0  0  0  0  0  0  0  0  0  0  0  0
  -26.9762  -30.0634  -18.8306 C   0  0  0  0  0  0  0  0  0  0  0  0
  -25.7480  -29.8954  -18.0367 C   0  0  0  0  0  0  0  0  0  0  0  0
  1  2  1  0
  2  3  1  0
  3  4  1  0
  4  5  1  1
  4  6  1  0
  6  7  1  0
  7  8  1  0
  8  9  2  0
  8 10  1  0
 10 11  1  0
 11 12  1  0
 12 13  2  0
 13 14  1  0
 14 15  1  0
 15 16  1  0
 16 17  1  0
 17 18  1  0
 14 19  1  0
 19 20  1  0
 19 11  2  0
 18 15  1  0
M  END
>  <id>  (474) 
389451

>  <inchikey>  (474) 
WBYZXQJMGLDTAN-NSHDSACASA-N

>  <alias>  (474) 
None

>  <smiles>  (474) 
COC[C@@H](O)CNC(=O)Nc1cnn(C2CCC2)c1C

>  <path>  (474) 
/opt/xchem-fragalysis-2/maxwin/RdRp_FFF/syndirella/mar_elabs/elabs_066/NQDDIJLQMDSXML-UHFFFAOYSA-N/output/NQDDIJLQMDSXML-UHFFFAOYSA-N-ZsT2oh-1330-B/NQDDIJLQMDSXML-UHFFFAOYSA-N-ZsT2oh-1330-B.minimised.mol

>  <distance_score>  (474) 
1.063577

>  <energy_score>  (474) 
-17.501397

>  <compound>  (474) 
WBYZXQJMGLDTAN-UHFFFAOYSA-N

>  <compound_id>  (474) 
207982

>  <target>  (474) 
Flavi_NS5_RdRp

>  <tags>  (474) 
[]

>  <inspirations>  (474) 
{P Ã— 2}

>  <subsites>  (474) 
None

>  <reference>  (474) 
z0211a

>  <SLURM_JOB_ID>  (474) 
nan

>  <SLURM_JOB_NAME>  (474) 
nan

>  <csv_name>  (474) 
nan

>  <scratch_subdir>  (474) 
nan

>  <fragmenstein_runtime>  (474) 
nan

>  <fragmenstein_outcome>  (474) 
nan

>  <fragmenstein_mode>  (474) 
nan

>  <fragmenstein_error>  (474) 
nan

>  <exports>  (474) 
nan

>  <Multi-SuCOS>  (474) 
nan

>  <merge_set>  (474) 
nan

$$$$
NPMXDKNRJFWKHX-XVKPBYJWSA-N
     RDKit          3D

 20 20  0  0  0  0  0  0  0  0999 V2000
  -29.1455  -30.2692  -15.8592 C   0  0  0  0  0  0  0  0  0  0  0  0
  -29.5024  -29.3099  -16.9777 C   0  0  0  0  0  0  0  0  0  0  0  0
  -29.2359  -29.7199  -18.4465 C   0  0  2  0  0  0  0  0  0  0  0  0
  -30.2922  -30.6844  -18.9671 C   0  0  0  0  0  0  0  0  0  0  0  0
  -27.8635  -30.0331  -18.7869 N   0  0  0  0  0  0  0  0  0  0  0  0
  -26.9212  -29.9211  -17.8339 N   0  0  0  0  0  0  0  0  0  0  0  0
  -25.8168  -30.3502  -18.4318 C   0  0  0  0  0  0  0  0  0  0  0  0
  -26.0159  -30.5680  -19.8040 C   0  0  0  0  0  0  0  0  0  0  0  0
  -25.0594  -31.0086  -20.6681 N   0  0  0  0  0  0  0  0  0  0  0  0
  -25.0812  -31.1282  -22.2125 C   0  0  0  0  0  0  0  0  0  0  0  0
  -25.9249  -30.9452  -22.9507 O   0  0  0  0  0  0  0  0  0  0  0  0
  -23.6519  -31.6564  -22.4444 N   0  0  0  0  0  0  0  0  0  0  0  0
  -22.9666  -31.9703  -23.6591 C   0  0  0  0  0  0  0  0  0  0  0  0
  -21.9937  -33.1206  -23.4904 C   0  0  2  0  0  0  0  0  0  0  0  0
  -20.8787  -32.6467  -22.7410 O   0  0  0  0  0  0  0  0  0  0  0  0
  -21.7078  -33.6091  -24.9089 C   0  0  0  0  0  0  0  0  0  0  0  0
  -20.8124  -33.2593  -25.6620 O   0  0  0  0  0  0  0  0  0  0  0  0
  -22.5997  -34.5461  -25.3044 O   0  0  0  0  0  0  0  0  0  0  0  0
  -27.3289  -30.2120  -20.0455 C   0  0  0  0  0  0  0  0  0  0  0  0
  -28.1219  -30.0762  -21.2948 C   0  0  0  0  0  0  0  0  0  0  0  0
  1  2  1  0
  2  3  1  0
  3  4  1  1
  3  5  1  0
  5  6  1  0
  6  7  2  0
  7  8  1  0
  8  9  1  0
  9 10  1  0
 10 11  2  0
 10 12  1  0
 12 13  1  0
 13 14  1  0
 14 15  1  6
 14 16  1  0
 16 17  2  0
 16 18  1  0
  8 19  2  0
 19 20  1  0
 19  5  1  0
M  END
>  <id>  (475) 
389468

>  <inchikey>  (475) 
NPMXDKNRJFWKHX-XVKPBYJWSA-N

>  <alias>  (475) 
None

>  <smiles>  (475) 
CC[C@H](C)n1ncc(NC(=O)NC[C@H](O)C(=O)O)c1C

>  <path>  (475) 
/opt/xchem-fragalysis-2/maxwin/RdRp_FFF/syndirella/mar_elabs/elabs_066/NQDDIJLQMDSXML-UHFFFAOYSA-N/output/NQDDIJLQMDSXML-UHFFFAOYSA-N-ZsT2oh-1368-A/NQDDIJLQMDSXML-UHFFFAOYSA-N-ZsT2oh-1368-A.minimised.mol

>  <distance_score>  (475) 
1.392327

>  <energy_score>  (475) 
-17.592814

>  <compound>  (475) 
NPMXDKNRJFWKHX-UHFFFAOYSA-N

>  <compound_id>  (475) 
208010

>  <target>  (475) 
Flavi_NS5_RdRp

>  <tags>  (475) 
[]

>  <inspirations>  (475) 
{P Ã— 2}

>  <subsites>  (475) 
None

>  <reference>  (475) 
z0211a

>  <SLURM_JOB_ID>  (475) 
nan

>  <SLURM_JOB_NAME>  (475) 
nan

>  <csv_name>  (475) 
nan

>  <scratch_subdir>  (475) 
nan

>  <fragmenstein_runtime>  (475) 
nan

>  <fragmenstein_outcome>  (475) 
nan

>  <fragmenstein_mode>  (475) 
nan

>  <fragmenstein_error>  (475) 
nan

>  <exports>  (475) 
nan

>  <Multi-SuCOS>  (475) 
nan

>  <merge_set>  (475) 
nan

$$$$
MIXYIIRZTYTPQN-GFCCVEGCSA-N
     RDKit          3D

 20 21  0  0  0  0  0  0  0  0999 V2000
  -20.9792  -33.2350  -26.2277 C   0  0  0  0  0  0  0  0  0  0  0  0
  -22.1287  -33.7517  -25.3932 C   0  0  0  0  0  0  0  0  0  0  0  0
  -21.8316  -33.6850  -23.8891 C   0  0  0  0  0  0  0  0  0  0  0  0
  -22.3514  -32.4564  -23.1470 C   0  0  1  0  0  0  0  0  0  0  0  0
  -21.4479  -31.3726  -23.3221 O   0  0  0  0  0  0  0  0  0  0  0  0
  -23.7848  -32.0985  -23.5483 C   0  0  0  0  0  0  0  0  0  0  0  0
  -24.4732  -31.4808  -22.4613 N   0  0  0  0  0  0  0  0  0  0  0  0
  -25.8091  -30.7136  -22.4330 C   0  0  0  0  0  0  0  0  0  0  0  0
  -26.4981  -30.4084  -23.2816 O   0  0  0  0  0  0  0  0  0  0  0  0
  -25.9829  -30.5732  -20.9124 N   0  0  0  0  0  0  0  0  0  0  0  0
  -27.0361  -30.1329  -20.1881 C   0  0  0  0  0  0  0  0  0  0  0  0
  -28.3440  -29.8073  -20.5548 C   0  0  0  0  0  0  0  0  0  0  0  0
  -29.0988  -29.5632  -19.4813 N   0  0  0  0  0  0  0  0  0  0  0  0
  -28.2484  -29.6996  -18.4390 N   0  0  0  0  0  0  0  0  0  0  0  0
  -28.7713  -30.0998  -17.1304 C   0  0  0  0  0  0  0  0  0  0  0  0
  -27.7929  -30.1204  -15.9188 C   0  0  0  0  0  0  0  0  0  0  0  0
  -29.0056  -29.7806  -15.0816 C   0  0  0  0  0  0  0  0  0  0  0  0
  -29.5735  -29.0987  -16.3527 C   0  0  0  0  0  0  0  0  0  0  0  0
  -26.9571  -29.9342  -18.8366 C   0  0  0  0  0  0  0  0  0  0  0  0
  -25.7771  -29.9883  -17.9587 C   0  0  0  0  0  0  0  0  0  0  0  0
  1  2  1  0
  2  3  1  0
  3  4  1  0
  4  5  1  6
  4  6  1  0
  6  7  1  0
  7  8  1  0
  8  9  2  0
  8 10  1  0
 10 11  1  0
 11 12  1  0
 12 13  2  0
 13 14  1  0
 14 15  1  0
 15 16  1  0
 16 17  1  0
 17 18  1  0
 14 19  1  0
 19 20  1  0
 19 11  2  0
 18 15  1  0
M  END
>  <id>  (476) 
389487

>  <inchikey>  (476) 
MIXYIIRZTYTPQN-GFCCVEGCSA-N

>  <alias>  (476) 
None

>  <smiles>  (476) 
CCC[C@@H](O)CNC(=O)Nc1cnn(C2CCC2)c1C

>  <path>  (476) 
/opt/xchem-fragalysis-2/maxwin/RdRp_FFF/syndirella/mar_elabs/elabs_066/NQDDIJLQMDSXML-UHFFFAOYSA-N/output/NQDDIJLQMDSXML-UHFFFAOYSA-N-ZsT2oh-1413-B/NQDDIJLQMDSXML-UHFFFAOYSA-N-ZsT2oh-1413-B.minimised.mol

>  <distance_score>  (476) 
1.397986

>  <energy_score>  (476) 
-11.058227

>  <compound>  (476) 
MIXYIIRZTYTPQN-UHFFFAOYSA-N

>  <compound_id>  (476) 
208039

>  <target>  (476) 
Flavi_NS5_RdRp

>  <tags>  (476) 
[]

>  <inspirations>  (476) 
{P Ã— 2}

>  <subsites>  (476) 
None

>  <reference>  (476) 
z0211a

>  <SLURM_JOB_ID>  (476) 
nan

>  <SLURM_JOB_NAME>  (476) 
nan

>  <csv_name>  (476) 
nan

>  <scratch_subdir>  (476) 
nan

>  <fragmenstein_runtime>  (476) 
nan

>  <fragmenstein_outcome>  (476) 
nan

>  <fragmenstein_mode>  (476) 
nan

>  <fragmenstein_error>  (476) 
nan

>  <exports>  (476) 
nan

>  <Multi-SuCOS>  (476) 
nan

>  <merge_set>  (476) 
nan

$$$$
XNYQWTXNJHCBBH-WCBMZHEXSA-N
     RDKit          3D

 20 20  0  0  0  0  0  0  0  0999 V2000
  -28.9400  -30.3312  -15.5883 C   0  0  0  0  0  0  0  0  0  0  0  0
  -28.7569  -29.1631  -16.5267 C   0  0  0  0  0  0  0  0  0  0  0  0
  -28.6938  -29.4363  -18.0409 C   0  0  2  0  0  0  0  0  0  0  0  0
  -29.9311  -30.1871  -18.5378 C   0  0  0  0  0  0  0  0  0  0  0  0
  -27.4235  -29.9742  -18.5111 N   0  0  0  0  0  0  0  0  0  0  0  0
  -26.4028  -30.0701  -17.6353 N   0  0  0  0  0  0  0  0  0  0  0  0
  -25.3966  -30.5332  -18.3658 C   0  0  0  0  0  0  0  0  0  0  0  0
  -25.7413  -30.6628  -19.7239 C   0  0  0  0  0  0  0  0  0  0  0  0
  -24.8852  -31.1242  -20.6810 N   0  0  0  0  0  0  0  0  0  0  0  0
  -25.0845  -31.3401  -22.1273 C   0  0  0  0  0  0  0  0  0  0  0  0
  -25.9861  -31.0976  -22.7987 O   0  0  0  0  0  0  0  0  0  0  0  0
  -23.7131  -32.1008  -22.4351 N   0  0  0  0  0  0  0  0  0  0  0  0
  -23.2081  -32.8207  -23.6541 C   0  0  0  0  0  0  0  0  0  0  0  0
  -23.7481  -33.0919  -24.7274 N   0  0  0  0  0  0  0  0  0  0  0  0
  -21.7867  -33.3106  -23.3043 C   0  0  1  0  0  0  0  0  0  0  0  0
  -20.8193  -32.8453  -24.3736 C   0  0  0  0  0  0  0  0  0  0  0  0
  -21.4083  -32.7846  -22.0188 O   0  0  0  0  0  0  0  0  0  0  0  0
  -20.4078  -33.5397  -21.3527 C   0  0  0  0  0  0  0  0  0  0  0  0
  -27.0464  -30.2215  -19.8158 C   0  0  0  0  0  0  0  0  0  0  0  0
  -27.9629  -30.0144  -20.9695 C   0  0  0  0  0  0  0  0  0  0  0  0
  1  2  1  0
  2  3  1  0
  3  4  1  1
  3  5  1  0
  5  6  1  0
  6  7  2  0
  7  8  1  0
  8  9  1  0
  9 10  1  0
 10 11  2  0
 10 12  1  0
 12 13  1  0
 13 14  2  3
 13 15  1  0
 15 16  1  6
 15 17  1  0
 17 18  1  0
  8 19  2  0
 19 20  1  0
 19  5  1  0
M  END
>  <id>  (477) 
389501

>  <inchikey>  (477) 
XNYQWTXNJHCBBH-WCBMZHEXSA-N

>  <alias>  (477) 
None

>  <smiles>  (477) 
CC[C@H](C)n1ncc(NC(=O)NC(=N)[C@@H](C)OC)c1C

>  <path>  (477) 
/opt/xchem-fragalysis-2/maxwin/RdRp_FFF/syndirella/mar_elabs/elabs_066/NQDDIJLQMDSXML-UHFFFAOYSA-N/output/NQDDIJLQMDSXML-UHFFFAOYSA-N-ZsT2oh-1425-C/NQDDIJLQMDSXML-UHFFFAOYSA-N-ZsT2oh-1425-C.minimised.mol

>  <distance_score>  (477) 
1.615309

>  <energy_score>  (477) 
-40.583615

>  <compound>  (477) 
XNYQWTXNJHCBBH-UHFFFAOYSA-N

>  <compound_id>  (477) 
208051

>  <target>  (477) 
Flavi_NS5_RdRp

>  <tags>  (477) 
[]

>  <inspirations>  (477) 
{P Ã— 2}

>  <subsites>  (477) 
None

>  <reference>  (477) 
z0211a

>  <SLURM_JOB_ID>  (477) 
nan

>  <SLURM_JOB_NAME>  (477) 
nan

>  <csv_name>  (477) 
nan

>  <scratch_subdir>  (477) 
nan

>  <fragmenstein_runtime>  (477) 
nan

>  <fragmenstein_outcome>  (477) 
nan

>  <fragmenstein_mode>  (477) 
nan

>  <fragmenstein_error>  (477) 
nan

>  <exports>  (477) 
nan

>  <Multi-SuCOS>  (477) 
nan

>  <merge_set>  (477) 
nan

$$$$
XMQSUTIAWDGLKT-PTOFAABTSA-N
     RDKit          3D

 20 20  0  0  0  0  0  0  0  0999 V2000
  -29.1646  -30.2796  -15.8244 C   0  0  0  0  0  0  0  0  0  0  0  0
  -29.5258  -29.3093  -16.9323 C   0  0  0  0  0  0  0  0  0  0  0  0
  -29.2207  -29.7084  -18.3962 C   0  0  2  0  0  0  0  0  0  0  0  0
  -30.2845  -30.6548  -18.9383 C   0  0  0  0  0  0  0  0  0  0  0  0
  -27.8391  -30.0452  -18.6729 N   0  0  0  0  0  0  0  0  0  0  0  0
  -26.9063  -29.7623  -17.7373 N   0  0  0  0  0  0  0  0  0  0  0  0
  -25.7772  -30.2248  -18.2653 C   0  0  0  0  0  0  0  0  0  0  0  0
  -25.9605  -30.6515  -19.5855 C   0  0  0  0  0  0  0  0  0  0  0  0
  -25.0108  -31.1334  -20.4289 N   0  0  0  0  0  0  0  0  0  0  0  0
  -25.1525  -31.8449  -21.7939 C   0  0  0  0  0  0  0  0  0  0  0  0
  -26.0809  -32.1849  -22.3501 O   0  0  0  0  0  0  0  0  0  0  0  0
  -23.6742  -31.8643  -22.2217 N   0  0  0  0  0  0  0  0  0  0  0  0
  -23.0693  -32.2301  -23.4814 C   0  0  2  0  0  0  0  0  0  0  0  0
  -23.7111  -33.4616  -24.1323 C   0  0  0  0  0  0  0  0  0  0  0  0
  -23.0450  -33.8173  -25.3463 O   0  0  0  0  0  0  0  0  0  0  0  0
  -21.5478  -32.3140  -23.3035 C   0  0  2  0  0  0  0  0  0  0  0  0
  -21.1191  -33.5367  -22.5243 C   0  0  0  0  0  0  0  0  0  0  0  0
  -21.0728  -31.1888  -22.5527 O   0  0  0  0  0  0  0  0  0  0  0  0
  -27.2758  -30.3559  -19.8880 C   0  0  0  0  0  0  0  0  0  0  0  0
  -28.0123  -30.2950  -21.1808 C   0  0  0  0  0  0  0  0  0  0  0  0
  1  2  1  0
  2  3  1  0
  3  4  1  1
  3  5  1  0
  5  6  1  0
  6  7  2  0
  7  8  1  0
  8  9  1  0
  9 10  1  0
 10 11  2  0
 10 12  1  0
 12 13  1  0
 13 14  1  1
 14 15  1  0
 13 16  1  0
 16 17  1  1
 16 18  1  0
  8 19  2  0
 19 20  1  0
 19  5  1  0
M  END
>  <id>  (478) 
389503

>  <inchikey>  (478) 
XMQSUTIAWDGLKT-PTOFAABTSA-N

>  <alias>  (478) 
None

>  <smiles>  (478) 
CC[C@H](C)n1ncc(NC(=O)N[C@H](CO)[C@H](C)O)c1C

>  <path>  (478) 
/opt/xchem-fragalysis-2/maxwin/RdRp_FFF/syndirella/mar_elabs/elabs_066/NQDDIJLQMDSXML-UHFFFAOYSA-N/output/NQDDIJLQMDSXML-UHFFFAOYSA-N-ZsT2oh-1429-A/NQDDIJLQMDSXML-UHFFFAOYSA-N-ZsT2oh-1429-A.minimised.mol

>  <distance_score>  (478) 
1.360144

>  <energy_score>  (478) 
-33.61754

>  <compound>  (478) 
XMQSUTIAWDGLKT-UHFFFAOYSA-N

>  <compound_id>  (478) 
208055

>  <target>  (478) 
Flavi_NS5_RdRp

>  <tags>  (478) 
[]

>  <inspirations>  (478) 
{P Ã— 2}

>  <subsites>  (478) 
None

>  <reference>  (478) 
z0211a

>  <SLURM_JOB_ID>  (478) 
nan

>  <SLURM_JOB_NAME>  (478) 
nan

>  <csv_name>  (478) 
nan

>  <scratch_subdir>  (478) 
nan

>  <fragmenstein_runtime>  (478) 
nan

>  <fragmenstein_outcome>  (478) 
nan

>  <fragmenstein_mode>  (478) 
nan

>  <fragmenstein_error>  (478) 
nan

>  <exports>  (478) 
nan

>  <Multi-SuCOS>  (478) 
nan

>  <merge_set>  (478) 
nan

$$$$
YNYRFGAHNJBYPG-MWLCHTKSSA-N
     RDKit          3D

 20 20  0  0  0  0  0  0  0  0999 V2000
  -29.2742  -30.2246  -16.0976 C   0  0  0  0  0  0  0  0  0  0  0  0
  -29.8378  -29.5648  -17.3488 C   0  0  0  0  0  0  0  0  0  0  0  0
  -29.4153  -30.1836  -18.7051 C   0  0  1  0  0  0  0  0  0  0  0  0
  -30.4259  -29.9366  -19.8225 C   0  0  0  0  0  0  0  0  0  0  0  0
  -28.0320  -29.8674  -19.0640 N   0  0  0  0  0  0  0  0  0  0  0  0
  -27.1988  -29.4338  -18.0890 N   0  0  0  0  0  0  0  0  0  0  0  0
  -26.0066  -29.8805  -18.4734 C   0  0  0  0  0  0  0  0  0  0  0  0
  -26.0454  -30.4335  -19.7602 C   0  0  0  0  0  0  0  0  0  0  0  0
  -24.9860  -30.9303  -20.4573 N   0  0  0  0  0  0  0  0  0  0  0  0
  -24.9458  -31.7587  -21.7684 C   0  0  0  0  0  0  0  0  0  0  0  0
  -25.7936  -32.1936  -22.3886 O   0  0  0  0  0  0  0  0  0  0  0  0
  -23.4286  -31.7314  -22.0361 N   0  0  0  0  0  0  0  0  0  0  0  0
  -22.6774  -32.1616  -23.1836 C   0  0  0  0  0  0  0  0  0  0  0  0
  -21.3267  -32.6822  -22.7116 C   0  0  1  0  0  0  0  0  0  0  0  0
  -20.7221  -31.6824  -21.8765 O   0  0  0  0  0  0  0  0  0  0  0  0
  -21.5300  -34.0011  -21.9542 C   0  0  0  0  0  0  0  0  0  0  0  0
  -20.2130  -34.3509  -20.7196 S   0  0  0  0  0  0  0  0  0  0  0  0
  -21.0129  -33.6629  -19.2397 C   0  0  0  0  0  0  0  0  0  0  0  0
  -27.3388  -30.2321  -20.1955 C   0  0  0  0  0  0  0  0  0  0  0  0
  -27.9485  -30.3512  -21.5333 C   0  0  0  0  0  0  0  0  0  0  0  0
  1  2  1  0
  2  3  1  0
  3  4  1  6
  3  5  1  0
  5  6  1  0
  6  7  2  0
  7  8  1  0
  8  9  1  0
  9 10  1  0
 10 11  2  0
 10 12  1  0
 12 13  1  0
 13 14  1  0
 14 15  1  1
 14 16  1  0
 16 17  1  0
 17 18  1  0
  8 19  2  0
 19 20  1  0
 19  5  1  0
M  END
>  <id>  (479) 
389507

>  <inchikey>  (479) 
YNYRFGAHNJBYPG-MWLCHTKSSA-N

>  <alias>  (479) 
None

>  <smiles>  (479) 
CC[C@@H](C)n1ncc(NC(=O)NC[C@@H](O)CSC)c1C

>  <path>  (479) 
/opt/xchem-fragalysis-2/maxwin/RdRp_FFF/syndirella/mar_elabs/elabs_066/NQDDIJLQMDSXML-UHFFFAOYSA-N/output/NQDDIJLQMDSXML-UHFFFAOYSA-N-ZsT2oh-1434-D/NQDDIJLQMDSXML-UHFFFAOYSA-N-ZsT2oh-1434-D.minimised.mol

>  <distance_score>  (479) 
1.584842

>  <energy_score>  (479) 
-22.824099

>  <compound>  (479) 
YNYRFGAHNJBYPG-UHFFFAOYSA-N

>  <compound_id>  (479) 
208060

>  <target>  (479) 
Flavi_NS5_RdRp

>  <tags>  (479) 
[]

>  <inspirations>  (479) 
{P Ã— 2}

>  <subsites>  (479) 
None

>  <reference>  (479) 
z0211a

>  <SLURM_JOB_ID>  (479) 
nan

>  <SLURM_JOB_NAME>  (479) 
nan

>  <csv_name>  (479) 
nan

>  <scratch_subdir>  (479) 
nan

>  <fragmenstein_runtime>  (479) 
nan

>  <fragmenstein_outcome>  (479) 
nan

>  <fragmenstein_mode>  (479) 
nan

>  <fragmenstein_error>  (479) 
nan

>  <exports>  (479) 
nan

>  <Multi-SuCOS>  (479) 
nan

>  <merge_set>  (479) 
nan

$$$$
JOQUWSZQRXCBON-PRHODGIISA-N
     RDKit          3D

 20 21  0  0  0  0  0  0  0  0999 V2000
  -25.2309  -29.4560  -17.5248 C   0  0  0  0  0  0  0  0  0  0  0  0
  -26.1264  -29.8588  -18.6226 C   0  0  0  0  0  0  0  0  0  0  0  0
  -25.8466  -30.5539  -19.7769 C   0  0  0  0  0  0  0  0  0  0  0  0
  -24.6267  -31.0913  -20.0757 N   0  0  0  0  0  0  0  0  0  0  0  0
  -24.2138  -32.0149  -21.1649 C   0  0  0  0  0  0  0  0  0  0  0  0
  -24.8579  -32.5605  -21.9787 O   0  0  0  0  0  0  0  0  0  0  0  0
  -22.7483  -32.0691  -20.9049 N   0  0  0  0  0  0  0  0  0  0  0  0
  -21.7066  -32.8789  -21.5127 C   0  0  2  0  0  0  0  0  0  0  0  0
  -20.4349  -32.7592  -20.6684 C   0  0  0  0  0  0  0  0  0  0  0  0
  -21.3975  -32.5571  -22.9927 C   0  0  2  0  0  0  0  0  0  0  0  0
  -20.9616  -31.2032  -23.1793 O   0  0  0  0  0  0  0  0  0  0  0  0
  -22.5272  -32.8712  -23.9767 C   0  0  0  0  0  0  0  0  0  0  0  0
  -22.0034  -32.7850  -25.3120 O   0  0  0  0  0  0  0  0  0  0  0  0
  -27.0470  -30.5472  -20.5056 C   0  0  0  0  0  0  0  0  0  0  0  0
  -28.0291  -29.9202  -19.8476 N   0  0  0  0  0  0  0  0  0  0  0  0
  -27.4987  -29.6936  -18.6168 N   0  0  0  0  0  0  0  0  0  0  0  0
  -28.3358  -30.0647  -17.4570 C   0  0  0  0  0  0  0  0  0  0  0  0
  -29.3345  -29.1017  -16.8523 C   0  0  0  0  0  0  0  0  0  0  0  0
  -29.0546  -29.8221  -15.5039 C   0  0  0  0  0  0  0  0  0  0  0  0
  -27.6718  -30.1207  -16.0555 C   0  0  0  0  0  0  0  0  0  0  0  0
  1  2  1  0
  2  3  2  0
  3  4  1  0
  4  5  1  0
  5  6  2  0
  5  7  1  0
  7  8  1  0
  8  9  1  1
  8 10  1  0
 10 11  1  1
 10 12  1  0
 12 13  1  0
  3 14  1  0
 14 15  2  0
 15 16  1  0
 16 17  1  0
 17 18  1  0
 18 19  1  0
 19 20  1  0
 16  2  1  0
 20 17  1  0
M  END
>  <id>  (480) 
389525

>  <inchikey>  (480) 
JOQUWSZQRXCBON-PRHODGIISA-N

>  <alias>  (480) 
None

>  <smiles>  (480) 
Cc1c(NC(=O)N[C@H](C)[C@H](O)CO)cnn1C1CCC1

>  <path>  (480) 
/opt/xchem-fragalysis-2/maxwin/RdRp_FFF/syndirella/mar_elabs/elabs_066/NQDDIJLQMDSXML-UHFFFAOYSA-N/output/NQDDIJLQMDSXML-UHFFFAOYSA-N-ZsT2oh-1478-A/NQDDIJLQMDSXML-UHFFFAOYSA-N-ZsT2oh-1478-A.minimised.mol

>  <distance_score>  (480) 
1.677776

>  <energy_score>  (480) 
-32.181834

>  <compound>  (480) 
JOQUWSZQRXCBON-UHFFFAOYSA-N

>  <compound_id>  (480) 
208097

>  <target>  (480) 
Flavi_NS5_RdRp

>  <tags>  (480) 
[]

>  <inspirations>  (480) 
{P Ã— 2}

>  <subsites>  (480) 
None

>  <reference>  (480) 
z0211a

>  <SLURM_JOB_ID>  (480) 
nan

>  <SLURM_JOB_NAME>  (480) 
nan

>  <csv_name>  (480) 
nan

>  <scratch_subdir>  (480) 
nan

>  <fragmenstein_runtime>  (480) 
nan

>  <fragmenstein_outcome>  (480) 
nan

>  <fragmenstein_mode>  (480) 
nan

>  <fragmenstein_error>  (480) 
nan

>  <exports>  (480) 
nan

>  <Multi-SuCOS>  (480) 
nan

>  <merge_set>  (480) 
nan

$$$$
DYSKRJLQKJHSHZ-SKDRFNHKSA-N
     RDKit          3D

 20 21  0  0  0  0  0  0  0  0999 V2000
  -25.6170  -29.4131  -17.8153 C   0  0  0  0  0  0  0  0  0  0  0  0
  -26.6263  -29.8346  -18.7934 C   0  0  0  0  0  0  0  0  0  0  0  0
  -26.4537  -30.5320  -19.9645 C   0  0  0  0  0  0  0  0  0  0  0  0
  -25.2482  -31.0631  -20.3233 N   0  0  0  0  0  0  0  0  0  0  0  0
  -24.8873  -32.0633  -21.4525 C   0  0  0  0  0  0  0  0  0  0  0  0
  -25.5374  -32.5127  -22.2738 O   0  0  0  0  0  0  0  0  0  0  0  0
  -23.4091  -32.3496  -21.0739 N   0  0  0  0  0  0  0  0  0  0  0  0
  -22.4761  -33.3358  -21.5979 C   0  0  1  0  0  0  0  0  0  0  0  0
  -23.1350  -34.6850  -21.9409 C   0  0  0  0  0  0  0  0  0  0  0  0
  -23.9859  -34.6526  -23.0820 O   0  0  0  0  0  0  0  0  0  0  0  0
  -21.5465  -32.7475  -22.6818 C   0  0  1  0  0  0  0  0  0  0  0  0
  -22.0986  -32.6272  -24.0866 C   0  0  0  0  0  0  0  0  0  0  0  0
  -21.0569  -31.4713  -22.2495 O   0  0  0  0  0  0  0  0  0  0  0  0
  -27.7240  -30.5578  -20.5565 C   0  0  0  0  0  0  0  0  0  0  0  0
  -28.6558  -29.9976  -19.7726 N   0  0  0  0  0  0  0  0  0  0  0  0
  -27.9896  -29.7310  -18.6166 N   0  0  0  0  0  0  0  0  0  0  0  0
  -28.6457  -30.0859  -17.3374 C   0  0  0  0  0  0  0  0  0  0  0  0
  -27.7699  -30.1451  -16.0434 C   0  0  0  0  0  0  0  0  0  0  0  0
  -29.0472  -29.8253  -15.2982 C   0  0  0  0  0  0  0  0  0  0  0  0
  -29.5038  -29.0969  -16.5926 C   0  0  0  0  0  0  0  0  0  0  0  0
  1  2  1  0
  2  3  2  0
  3  4  1  0
  4  5  1  0
  5  6  2  0
  5  7  1  0
  7  8  1  0
  8  9  1  6
  9 10  1  0
  8 11  1  0
 11 12  1  6
 11 13  1  0
  3 14  1  0
 14 15  2  0
 15 16  1  0
 16 17  1  0
 17 18  1  0
 18 19  1  0
 19 20  1  0
 16  2  1  0
 20 17  1  0
M  END
>  <id>  (481) 
389531

>  <inchikey>  (481) 
DYSKRJLQKJHSHZ-SKDRFNHKSA-N

>  <alias>  (481) 
None

>  <smiles>  (481) 
Cc1c(NC(=O)N[C@@H](CO)[C@@H](C)O)cnn1C1CCC1

>  <path>  (481) 
/opt/xchem-fragalysis-2/maxwin/RdRp_FFF/syndirella/mar_elabs/elabs_066/NQDDIJLQMDSXML-UHFFFAOYSA-N/output/NQDDIJLQMDSXML-UHFFFAOYSA-N-ZsT2oh-1480-D/NQDDIJLQMDSXML-UHFFFAOYSA-N-ZsT2oh-1480-D.minimised.mol

>  <distance_score>  (481) 
1.409693

>  <energy_score>  (481) 
-12.516595

>  <compound>  (481) 
DYSKRJLQKJHSHZ-UHFFFAOYSA-N

>  <compound_id>  (481) 
208099

>  <target>  (481) 
Flavi_NS5_RdRp

>  <tags>  (481) 
[]

>  <inspirations>  (481) 
{P Ã— 2}

>  <subsites>  (481) 
None

>  <reference>  (481) 
z0211a

>  <SLURM_JOB_ID>  (481) 
nan

>  <SLURM_JOB_NAME>  (481) 
nan

>  <csv_name>  (481) 
nan

>  <scratch_subdir>  (481) 
nan

>  <fragmenstein_runtime>  (481) 
nan

>  <fragmenstein_outcome>  (481) 
nan

>  <fragmenstein_mode>  (481) 
nan

>  <fragmenstein_error>  (481) 
nan

>  <exports>  (481) 
nan

>  <Multi-SuCOS>  (481) 
nan

>  <merge_set>  (481) 
nan

$$$$
GDWVQFNDAKIYRV-CQSZACIVSA-N
     RDKit          3D

 20 21  0  0  0  0  0  0  0  0999 V2000
  -21.5683  -33.2885  -25.5693 C   0  0  0  0  0  0  0  0  0  0  0  0
  -21.2178  -33.0105  -24.3048 C   0  0  0  0  0  0  0  0  0  0  0  0
  -22.1101  -32.5987  -23.1596 C   0  0  1  0  0  0  0  0  0  0  0  0
  -22.1497  -33.7525  -22.1463 C   0  0  0  0  0  0  0  0  0  0  0  0
  -21.4511  -31.5081  -22.5057 O   0  0  0  0  0  0  0  0  0  0  0  0
  -23.5418  -32.1897  -23.5743 C   0  0  0  0  0  0  0  0  0  0  0  0
  -24.2559  -31.5674  -22.4956 N   0  0  0  0  0  0  0  0  0  0  0  0
  -25.6116  -30.8259  -22.4892 C   0  0  0  0  0  0  0  0  0  0  0  0
  -26.3004  -30.5475  -23.3488 O   0  0  0  0  0  0  0  0  0  0  0  0
  -25.7931  -30.6465  -20.9680 N   0  0  0  0  0  0  0  0  0  0  0  0
  -26.8575  -30.1929  -20.2564 C   0  0  0  0  0  0  0  0  0  0  0  0
  -28.1444  -29.8049  -20.6480 C   0  0  0  0  0  0  0  0  0  0  0  0
  -28.9118  -29.5105  -19.5943 N   0  0  0  0  0  0  0  0  0  0  0  0
  -28.0942  -29.6840  -18.5295 N   0  0  0  0  0  0  0  0  0  0  0  0
  -28.6637  -30.0799  -17.2365 C   0  0  0  0  0  0  0  0  0  0  0  0
  -29.5206  -29.1050  -16.4701 C   0  0  0  0  0  0  0  0  0  0  0  0
  -28.9775  -29.7895  -15.1891 C   0  0  0  0  0  0  0  0  0  0  0  0
  -27.7277  -30.0870  -15.9926 C   0  0  0  0  0  0  0  0  0  0  0  0
  -26.8105  -30.0066  -18.9000 C   0  0  0  0  0  0  0  0  0  0  0  0
  -25.6616  -30.1257  -17.9875 C   0  0  0  0  0  0  0  0  0  0  0  0
  1  2  2  0
  2  3  1  0
  3  4  1  1
  3  5  1  0
  3  6  1  0
  6  7  1  0
  7  8  1  0
  8  9  2  0
  8 10  1  0
 10 11  1  0
 11 12  1  0
 12 13  2  0
 13 14  1  0
 14 15  1  0
 15 16  1  0
 16 17  1  0
 17 18  1  0
 14 19  1  0
 19 20  1  0
 19 11  2  0
 18 15  1  0
M  END
>  <id>  (482) 
389533

>  <inchikey>  (482) 
GDWVQFNDAKIYRV-CQSZACIVSA-N

>  <alias>  (482) 
None

>  <smiles>  (482) 
C=C[C@@](C)(O)CNC(=O)Nc1cnn(C2CCC2)c1C

>  <path>  (482) 
/opt/xchem-fragalysis-2/maxwin/RdRp_FFF/syndirella/mar_elabs/elabs_066/NQDDIJLQMDSXML-UHFFFAOYSA-N/output/NQDDIJLQMDSXML-UHFFFAOYSA-N-ZsT2oh-1483-B/NQDDIJLQMDSXML-UHFFFAOYSA-N-ZsT2oh-1483-B.minimised.mol

>  <distance_score>  (482) 
1.17535

>  <energy_score>  (482) 
-20.197089

>  <compound>  (482) 
GDWVQFNDAKIYRV-UHFFFAOYSA-N

>  <compound_id>  (482) 
208102

>  <target>  (482) 
Flavi_NS5_RdRp

>  <tags>  (482) 
[]

>  <inspirations>  (482) 
{P Ã— 2}

>  <subsites>  (482) 
None

>  <reference>  (482) 
z0211a

>  <SLURM_JOB_ID>  (482) 
nan

>  <SLURM_JOB_NAME>  (482) 
nan

>  <csv_name>  (482) 
nan

>  <scratch_subdir>  (482) 
nan

>  <fragmenstein_runtime>  (482) 
nan

>  <fragmenstein_outcome>  (482) 
nan

>  <fragmenstein_mode>  (482) 
nan

>  <fragmenstein_error>  (482) 
nan

>  <exports>  (482) 
nan

>  <Multi-SuCOS>  (482) 
nan

>  <merge_set>  (482) 
nan

$$$$
BGEJDCJSMXOCCR-PWSUYJOCSA-N
     RDKit          3D

 20 21  0  0  0  0  0  0  0  0999 V2000
  -24.4684  -33.3418  -24.7867 C   0  0  0  0  0  0  0  0  0  0  0  0
  -23.9513  -34.2729  -23.6975 C   0  0  0  0  0  0  0  0  0  0  0  0
  -23.3075  -33.6142  -22.4667 C   0  0  2  0  0  0  0  0  0  0  0  0
  -24.1410  -32.6371  -21.7954 N   0  0  0  0  0  0  0  0  0  0  0  0
  -25.6791  -32.6077  -21.5752 C   0  0  0  0  0  0  0  0  0  0  0  0
  -26.4920  -33.3098  -21.9592 O   0  0  0  0  0  0  0  0  0  0  0  0
  -25.7748  -31.3942  -20.6090 N   0  0  0  0  0  0  0  0  0  0  0  0
  -26.8641  -30.8003  -20.0426 C   0  0  0  0  0  0  0  0  0  0  0  0
  -28.2253  -30.8611  -20.3733 C   0  0  0  0  0  0  0  0  0  0  0  0
  -29.0048  -30.2552  -19.4694 N   0  0  0  0  0  0  0  0  0  0  0  0
  -28.1277  -29.8759  -18.5229 N   0  0  0  0  0  0  0  0  0  0  0  0
  -28.5249  -29.3402  -17.2044 C   0  0  0  0  0  0  0  0  0  0  0  0
  -29.7441  -29.9940  -16.5391 C   0  0  0  0  0  0  0  0  0  0  0  0
  -28.9175  -30.1554  -15.2498 C   0  0  0  0  0  0  0  0  0  0  0  0
  -27.6562  -29.8973  -16.0412 C   0  0  0  0  0  0  0  0  0  0  0  0
  -26.8176  -30.0204  -18.9157 C   0  0  0  0  0  0  0  0  0  0  0  0
  -25.6651  -29.5607  -18.1290 C   0  0  0  0  0  0  0  0  0  0  0  0
  -21.8660  -33.0571  -22.6421 C   0  0  1  0  0  0  0  0  0  0  0  0
  -21.6025  -32.2574  -23.8980 C   0  0  0  0  0  0  0  0  0  0  0  0
  -21.5521  -32.2373  -21.5047 O   0  0  0  0  0  0  0  0  0  0  0  0
  1  2  1  0
  3  2  1  6
  3  4  1  0
  4  5  1  0
  5  6  2  0
  5  7  1  0
  7  8  1  0
  8  9  1  0
  9 10  2  0
 10 11  1  0
 11 12  1  0
 12 13  1  0
 13 14  1  0
 14 15  1  0
 11 16  1  0
 16 17  1  0
  3 18  1  0
 18 19  1  6
 18 20  1  0
 16  8  2  0
 15 12  1  0
M  END
>  <id>  (483) 
389535

>  <inchikey>  (483) 
BGEJDCJSMXOCCR-PWSUYJOCSA-N

>  <alias>  (483) 
None

>  <smiles>  (483) 
CC[C@H](NC(=O)Nc1cnn(C2CCC2)c1C)[C@@H](C)O

>  <path>  (483) 
/opt/xchem-fragalysis-2/maxwin/RdRp_FFF/syndirella/mar_elabs/elabs_066/NQDDIJLQMDSXML-UHFFFAOYSA-N/output/NQDDIJLQMDSXML-UHFFFAOYSA-N-ZsT2oh-1491-C/NQDDIJLQMDSXML-UHFFFAOYSA-N-ZsT2oh-1491-C.minimised.mol

>  <distance_score>  (483) 
1.323207

>  <energy_score>  (483) 
-19.233137

>  <compound>  (483) 
BGEJDCJSMXOCCR-UHFFFAOYSA-N

>  <compound_id>  (483) 
208110

>  <target>  (483) 
Flavi_NS5_RdRp

>  <tags>  (483) 
[]

>  <inspirations>  (483) 
{P Ã— 2}

>  <subsites>  (483) 
None

>  <reference>  (483) 
z0211a

>  <SLURM_JOB_ID>  (483) 
nan

>  <SLURM_JOB_NAME>  (483) 
nan

>  <csv_name>  (483) 
nan

>  <scratch_subdir>  (483) 
nan

>  <fragmenstein_runtime>  (483) 
nan

>  <fragmenstein_outcome>  (483) 
nan

>  <fragmenstein_mode>  (483) 
nan

>  <fragmenstein_error>  (483) 
nan

>  <exports>  (483) 
nan

>  <Multi-SuCOS>  (483) 
nan

>  <merge_set>  (483) 
nan

$$$$
RTIWDVMFOCZIAH-VIFPVBQESA-N
     RDKit          3D

 20 21  0  0  0  0  0  0  0  0999 V2000
  -19.9857  -32.0760  -20.5233 C   0  0  0  0  0  0  0  0  0  0  0  0
  -21.0735  -31.9357  -21.4240 O   0  0  0  0  0  0  0  0  0  0  0  0
  -21.2469  -33.0288  -22.3374 C   0  0  1  0  0  0  0  0  0  0  0  0
  -21.4539  -34.3469  -21.5869 C   0  0  0  0  0  0  0  0  0  0  0  0
  -22.5245  -32.7502  -23.1693 C   0  0  0  0  0  0  0  0  0  0  0  0
  -22.7283  -33.2474  -24.6356 S   0  0  0  0  0  0  0  0  0  0  0  0
  -23.4907  -31.9886  -22.1385 N   0  0  0  0  0  0  0  0  0  0  0  0
  -24.9987  -31.3629  -22.2810 C   0  0  0  0  0  0  0  0  0  0  0  0
  -25.6954  -31.2564  -23.1851 O   0  0  0  0  0  0  0  0  0  0  0  0
  -25.2307  -31.0611  -20.8580 N   0  0  0  0  0  0  0  0  0  0  0  0
  -26.3611  -30.6584  -20.2074 C   0  0  0  0  0  0  0  0  0  0  0  0
  -27.6850  -30.5257  -20.6577 C   0  0  0  0  0  0  0  0  0  0  0  0
  -28.5164  -30.1465  -19.6810 N   0  0  0  0  0  0  0  0  0  0  0  0
  -27.7133  -30.0170  -18.6056 N   0  0  0  0  0  0  0  0  0  0  0  0
  -28.1988  -29.4077  -17.3484 C   0  0  0  0  0  0  0  0  0  0  0  0
  -29.5477  -29.9098  -16.8147 C   0  0  0  0  0  0  0  0  0  0  0  0
  -28.9005  -30.1027  -15.4342 C   0  0  0  0  0  0  0  0  0  0  0  0
  -27.5306  -29.9528  -16.0646 C   0  0  0  0  0  0  0  0  0  0  0  0
  -26.3868  -30.2580  -18.8923 C   0  0  0  0  0  0  0  0  0  0  0  0
  -25.2671  -30.0695  -17.9443 C   0  0  0  0  0  0  0  0  0  0  0  0
  1  2  1  0
  2  3  1  0
  3  4  1  1
  3  5  1  0
  5  6  2  0
  5  7  1  0
  7  8  1  0
  8  9  2  0
  8 10  1  0
 10 11  1  0
 11 12  1  0
 12 13  2  0
 13 14  1  0
 14 15  1  0
 15 16  1  0
 16 17  1  0
 17 18  1  0
 14 19  1  0
 19 20  1  0
 19 11  2  0
 18 15  1  0
M  END
>  <id>  (484) 
389542

>  <inchikey>  (484) 
RTIWDVMFOCZIAH-VIFPVBQESA-N

>  <alias>  (484) 
None

>  <smiles>  (484) 
CO[C@@H](C)C(=S)NC(=O)Nc1cnn(C2CCC2)c1C

>  <path>  (484) 
/opt/xchem-fragalysis-2/maxwin/RdRp_FFF/syndirella/mar_elabs/elabs_066/NQDDIJLQMDSXML-UHFFFAOYSA-N/output/NQDDIJLQMDSXML-UHFFFAOYSA-N-ZsT2oh-1506-B/NQDDIJLQMDSXML-UHFFFAOYSA-N-ZsT2oh-1506-B.minimised.mol

>  <distance_score>  (484) 
1.384757

>  <energy_score>  (484) 
-34.053946

>  <compound>  (484) 
RTIWDVMFOCZIAH-UHFFFAOYSA-N

>  <compound_id>  (484) 
208120

>  <target>  (484) 
Flavi_NS5_RdRp

>  <tags>  (484) 
[]

>  <inspirations>  (484) 
{P Ã— 2}

>  <subsites>  (484) 
None

>  <reference>  (484) 
z0211a

>  <SLURM_JOB_ID>  (484) 
nan

>  <SLURM_JOB_NAME>  (484) 
nan

>  <csv_name>  (484) 
nan

>  <scratch_subdir>  (484) 
nan

>  <fragmenstein_runtime>  (484) 
nan

>  <fragmenstein_outcome>  (484) 
nan

>  <fragmenstein_mode>  (484) 
nan

>  <fragmenstein_error>  (484) 
nan

>  <exports>  (484) 
nan

>  <Multi-SuCOS>  (484) 
nan

>  <merge_set>  (484) 
nan

$$$$
HTKFHHHCJWZMRO-NSHDSACASA-N
     RDKit          3D

 23 25  0  0  0  0  0  0  0  0999 V2000
  -10.3483  -71.0572  -22.7465 C   0  0  0  0  0  0  0  0  0  0  0  0
  -10.9780  -71.1655  -21.3632 C   0  0  1  0  0  0  0  0  0  0  0  0
  -11.9978  -72.3159  -21.3593 C   0  0  0  0  0  0  0  0  0  0  0  0
  -13.1072  -72.0897  -20.3380 C   0  0  0  0  0  0  0  0  0  0  0  0
  -13.8852  -70.8895  -20.6069 N   0  0  0  0  0  0  0  0  0  0  0  0
  -14.5181  -70.6304  -21.8802 C   0  0  0  0  0  0  0  0  0  0  0  0
  -15.0579  -69.2277  -21.7075 C   0  0  0  0  0  0  0  0  0  0  0  0
  -15.4379  -69.1771  -20.2341 C   0  0  0  0  0  0  0  0  0  0  0  0
  -14.4899  -70.1550  -19.5987 C   0  0  0  0  0  0  0  0  0  0  0  0
  -14.3517  -70.3160  -18.3955 O   0  0  0  0  0  0  0  0  0  0  0  0
   -9.9660  -71.4848  -20.3890 O   0  0  0  0  0  0  0  0  0  0  0  0
   -9.0550  -70.5108  -20.1553 C   0  0  0  0  0  0  0  0  0  0  0  0
   -9.0862  -69.3594  -20.5459 O   0  0  0  0  0  0  0  0  0  0  0  0
   -7.9271  -71.0937  -19.4171 C   0  0  0  0  0  0  0  0  0  0  0  0
   -8.1269  -71.9676  -18.3616 C   0  0  0  0  0  0  0  0  0  0  0  0
   -7.0018  -72.5368  -17.8215 C   0  0  0  0  0  0  0  0  0  0  0  0
   -7.1215  -73.6309  -16.5072 Cl  0  0  0  0  0  0  0  0  0  0  0  0
   -5.7453  -72.3260  -18.2682 N   0  0  0  0  0  0  0  0  0  0  0  0
   -5.5636  -71.4843  -19.3166 C   0  0  0  0  0  0  0  0  0  0  0  0
   -4.2034  -71.3693  -19.9506 C   0  0  0  0  0  0  0  0  0  0  0  0
   -3.9974  -72.0084  -21.3069 C   0  0  0  0  0  0  0  0  0  0  0  0
   -3.3207  -72.5861  -20.1002 C   0  0  0  0  0  0  0  0  0  0  0  0
   -6.6411  -70.8062  -19.8696 C   0  0  0  0  0  0  0  0  0  0  0  0
  2  1  1  6
  2  3  1  0
  3  4  1  0
  4  5  1  0
  5  6  1  0
  6  7  1  0
  7  8  1  0
  8  9  1  0
  9 10  2  0
  2 11  1  0
 11 12  1  0
 12 13  2  0
 12 14  1  0
 14 15  2  0
 15 16  1  0
 16 17  1  0
 16 18  2  0
 18 19  1  0
 19 20  1  0
 20 21  1  0
 21 22  1  0
 19 23  2  0
  9  5  1  0
 23 14  1  0
 22 20  1  0
M  END
>  <id>  (485) 
390574

>  <inchikey>  (485) 
HTKFHHHCJWZMRO-NSHDSACASA-N

>  <alias>  (485) 
None

>  <smiles>  (485) 
C[C@@H](CCN1CCCC1=O)OC(=O)c1cc(Cl)nc(C2CC2)c1

>  <path>  (485) 
/opt/xchem-fragalysis-2/maxwin/RdRp_FFF/syndirella/mar_elabs/elabs_104/PPLQPJVUYBOHPD-UHFFFAOYSA-N/output/PPLQPJVUYBOHPD-UHFFFAOYSA-N-aFKH7M-472-B/PPLQPJVUYBOHPD-UHFFFAOYSA-N-aFKH7M-472-B.minimised.mol

>  <distance_score>  (485) 
1.420161

>  <energy_score>  (485) 
-23.904416

>  <compound>  (485) 
HTKFHHHCJWZMRO-UHFFFAOYSA-N

>  <compound_id>  (485) 
209097

>  <target>  (485) 
Flavi_NS5_RdRp

>  <tags>  (485) 
[]

>  <inspirations>  (485) 
{P Ã— 2}

>  <subsites>  (485) 
None

>  <reference>  (485) 
d0566a

>  <SLURM_JOB_ID>  (485) 
nan

>  <SLURM_JOB_NAME>  (485) 
nan

>  <csv_name>  (485) 
nan

>  <scratch_subdir>  (485) 
nan

>  <fragmenstein_runtime>  (485) 
nan

>  <fragmenstein_outcome>  (485) 
nan

>  <fragmenstein_mode>  (485) 
nan

>  <fragmenstein_error>  (485) 
nan

>  <exports>  (485) 
nan

>  <Multi-SuCOS>  (485) 
nan

>  <merge_set>  (485) 
nan

$$$$
FFFNZRZZQWEHCT-UHFFFAOYSA-N
     RDKit          3D

 23 25  0  0  0  0  0  0  0  0999 V2000
   -9.3790  -69.7804  -20.9075 O   0  0  0  0  0  0  0  0  0  0  0  0
   -9.4561  -70.5374  -19.9547 C   0  0  0  0  0  0  0  0  0  0  0  0
  -10.6039  -70.9212  -19.3362 O   0  0  0  0  0  0  0  0  0  0  0  0
  -11.8187  -70.4688  -19.9584 C   0  0  0  0  0  0  0  0  0  0  0  0
  -12.1856  -71.3684  -21.1359 C   0  0  0  0  0  0  0  0  0  0  0  0
  -12.4988  -72.7965  -20.6810 C   0  0  0  0  0  0  0  0  0  0  0  0
  -12.4781  -73.7261  -21.7941 N   0  0  0  0  0  0  0  0  0  0  0  0
  -13.5382  -73.9638  -22.6174 C   0  0  0  0  0  0  0  0  0  0  0  0
  -14.6559  -73.4749  -22.5332 O   0  0  0  0  0  0  0  0  0  0  0  0
  -13.1147  -74.9256  -23.6887 C   0  0  0  0  0  0  0  0  0  0  0  0
  -11.6565  -75.2204  -23.3865 C   0  0  0  0  0  0  0  0  0  0  0  0
  -11.3391  -74.3602  -22.2011 C   0  0  0  0  0  0  0  0  0  0  0  0
  -10.2312  -74.2537  -21.6964 O   0  0  0  0  0  0  0  0  0  0  0  0
   -8.2819  -71.2075  -19.3427 C   0  0  0  0  0  0  0  0  0  0  0  0
   -8.3762  -71.9430  -18.1711 C   0  0  0  0  0  0  0  0  0  0  0  0
   -7.2345  -72.5698  -17.7338 C   0  0  0  0  0  0  0  0  0  0  0  0
   -7.2569  -73.5163  -16.3037 Cl  0  0  0  0  0  0  0  0  0  0  0  0
   -6.0410  -72.5176  -18.3574 N   0  0  0  0  0  0  0  0  0  0  0  0
   -5.9463  -71.8084  -19.5080 C   0  0  0  0  0  0  0  0  0  0  0  0
   -4.6517  -71.8651  -20.2737 C   0  0  0  0  0  0  0  0  0  0  0  0
   -3.4010  -71.2763  -19.6653 C   0  0  0  0  0  0  0  0  0  0  0  0
   -4.0394  -70.6196  -20.8529 C   0  0  0  0  0  0  0  0  0  0  0  0
   -7.0528  -71.1223  -20.0024 C   0  0  0  0  0  0  0  0  0  0  0  0
  1  2  2  0
  2  3  1  0
  3  4  1  0
  4  5  1  0
  5  6  1  0
  6  7  1  0
  7  8  1  0
  8  9  2  0
  8 10  1  0
 10 11  1  0
 11 12  1  0
 12 13  2  0
  2 14  1  0
 14 15  2  0
 15 16  1  0
 16 17  1  0
 16 18  2  0
 18 19  1  0
 19 20  1  0
 20 21  1  0
 21 22  1  0
 19 23  2  0
 12  7  1  0
 23 14  1  0
 22 20  1  0
M  END
>  <id>  (486) 
390590

>  <inchikey>  (486) 
FFFNZRZZQWEHCT-UHFFFAOYSA-N

>  <alias>  (486) 
None

>  <smiles>  (486) 
O=C(OCCCN1C(=O)CCC1=O)c1cc(Cl)nc(C2CC2)c1

>  <path>  (486) 
/opt/xchem-fragalysis-2/maxwin/RdRp_FFF/syndirella/mar_elabs/elabs_104/PPLQPJVUYBOHPD-UHFFFAOYSA-N/output/PPLQPJVUYBOHPD-UHFFFAOYSA-N-aFKH7M-497-A/PPLQPJVUYBOHPD-UHFFFAOYSA-N-aFKH7M-497-A.minimised.mol

>  <distance_score>  (486) 
1.549046

>  <energy_score>  (486) 
-36.650838

>  <compound>  (486) 
FFFNZRZZQWEHCT-UHFFFAOYSA-N

>  <compound_id>  (486) 
209106

>  <target>  (486) 
Flavi_NS5_RdRp

>  <tags>  (486) 
[]

>  <inspirations>  (486) 
{P Ã— 2}

>  <subsites>  (486) 
None

>  <reference>  (486) 
d0566a

>  <SLURM_JOB_ID>  (486) 
nan

>  <SLURM_JOB_NAME>  (486) 
nan

>  <csv_name>  (486) 
nan

>  <scratch_subdir>  (486) 
nan

>  <fragmenstein_runtime>  (486) 
nan

>  <fragmenstein_outcome>  (486) 
nan

>  <fragmenstein_mode>  (486) 
nan

>  <fragmenstein_error>  (486) 
nan

>  <exports>  (486) 
nan

>  <Multi-SuCOS>  (486) 
nan

>  <merge_set>  (486) 
nan

$$$$
LRCBYZNKHFRDEB-LBPRGKRZSA-N
     RDKit          3D

 23 25  0  0  0  0  0  0  0  0999 V2000
  -12.1292  -73.2264  -19.6320 N   0  0  0  0  0  0  0  0  0  0  0  0
  -11.8205  -72.3490  -20.7885 C   0  0  2  0  0  0  0  0  0  0  0  0
  -11.7156  -70.8762  -20.3360 C   0  0  0  0  0  0  0  0  0  0  0  0
  -10.5341  -70.7312  -19.5229 O   0  0  0  0  0  0  0  0  0  0  0  0
   -9.3891  -70.5668  -20.2287 C   0  0  0  0  0  0  0  0  0  0  0  0
   -9.3108  -70.1785  -21.3825 O   0  0  0  0  0  0  0  0  0  0  0  0
   -8.2199  -71.0272  -19.4424 C   0  0  0  0  0  0  0  0  0  0  0  0
   -8.3677  -71.8092  -18.3052 C   0  0  0  0  0  0  0  0  0  0  0  0
   -7.2227  -72.3235  -17.7490 C   0  0  0  0  0  0  0  0  0  0  0  0
   -7.3058  -73.3361  -16.3671 Cl  0  0  0  0  0  0  0  0  0  0  0  0
   -5.9789  -72.1270  -18.2325 N   0  0  0  0  0  0  0  0  0  0  0  0
   -5.8345  -71.3797  -19.3546 C   0  0  0  0  0  0  0  0  0  0  0  0
   -4.4801  -71.2771  -20.0070 C   0  0  0  0  0  0  0  0  0  0  0  0
   -3.5401  -72.4602  -20.0114 C   0  0  0  0  0  0  0  0  0  0  0  0
   -4.2371  -72.0618  -21.2772 C   0  0  0  0  0  0  0  0  0  0  0  0
   -6.9422  -70.7852  -19.9513 C   0  0  0  0  0  0  0  0  0  0  0  0
  -12.8472  -72.5275  -21.9238 C   0  0  0  0  0  0  0  0  0  0  0  0
  -13.0016  -73.9208  -22.3443 N   0  0  0  0  0  0  0  0  0  0  0  0
  -11.8833  -74.7145  -22.8043 C   0  0  0  0  0  0  0  0  0  0  0  0
  -12.5117  -76.0665  -23.0696 C   0  0  0  0  0  0  0  0  0  0  0  0
  -13.9014  -75.7125  -23.5771 C   0  0  0  0  0  0  0  0  0  0  0  0
  -14.1835  -74.3808  -22.9210 C   0  0  0  0  0  0  0  0  0  0  0  0
  -15.2544  -73.7943  -22.9550 O   0  0  0  0  0  0  0  0  0  0  0  0
  2  1  1  1
  2  3  1  0
  3  4  1  0
  4  5  1  0
  5  6  2  0
  5  7  1  0
  7  8  2  0
  8  9  1  0
  9 10  1  0
  9 11  2  0
 11 12  1  0
 12 13  1  0
 13 14  1  0
 14 15  1  0
 12 16  2  0
  2 17  1  0
 17 18  1  0
 18 19  1  0
 19 20  1  0
 20 21  1  0
 21 22  1  0
 22 23  2  0
 16  7  1  0
 22 18  1  0
 15 13  1  0
M  END
>  <id>  (487) 
390608

>  <inchikey>  (487) 
LRCBYZNKHFRDEB-LBPRGKRZSA-N

>  <alias>  (487) 
None

>  <smiles>  (487) 
N[C@H](COC(=O)c1cc(Cl)nc(C2CC2)c1)CN1CCCC1=O

>  <path>  (487) 
/opt/xchem-fragalysis-2/maxwin/RdRp_FFF/syndirella/mar_elabs/elabs_104/PPLQPJVUYBOHPD-UHFFFAOYSA-N/output/PPLQPJVUYBOHPD-UHFFFAOYSA-N-aFKH7M-513-A/PPLQPJVUYBOHPD-UHFFFAOYSA-N-aFKH7M-513-A.minimised.mol

>  <distance_score>  (487) 
1.65765

>  <energy_score>  (487) 
-100.062488

>  <compound>  (487) 
LRCBYZNKHFRDEB-UHFFFAOYSA-N

>  <compound_id>  (487) 
209121

>  <target>  (487) 
Flavi_NS5_RdRp

>  <tags>  (487) 
[]

>  <inspirations>  (487) 
{P Ã— 2}

>  <subsites>  (487) 
None

>  <reference>  (487) 
d0566a

>  <SLURM_JOB_ID>  (487) 
nan

>  <SLURM_JOB_NAME>  (487) 
nan

>  <csv_name>  (487) 
nan

>  <scratch_subdir>  (487) 
nan

>  <fragmenstein_runtime>  (487) 
nan

>  <fragmenstein_outcome>  (487) 
nan

>  <fragmenstein_mode>  (487) 
nan

>  <fragmenstein_error>  (487) 
nan

>  <exports>  (487) 
nan

>  <Multi-SuCOS>  (487) 
nan

>  <merge_set>  (487) 
nan

$$$$
PXBNPMJFJYZMNN-NSHDSACASA-N
     RDKit          3D

 23 25  0  0  0  0  0  0  0  0999 V2000
  -26.9233  -31.0827  -22.7734 O   0  0  0  0  0  0  0  0  0  0  0  0
  -26.5822  -30.7708  -21.7015 C   0  0  0  0  0  0  0  0  0  0  0  0
  -27.3661  -29.6946  -20.9553 C   0  0  0  0  0  0  0  0  0  0  0  0
  -28.1097  -30.0215  -19.6912 C   0  0  0  0  0  0  0  0  0  0  0  0
  -29.4397  -30.1393  -19.8544 N   0  0  0  0  0  0  0  0  0  0  0  0
  -29.9467  -30.1312  -18.6317 N   0  0  0  0  0  0  0  0  0  0  0  0
  -29.0058  -30.0928  -17.6666 C   0  0  0  0  0  0  0  0  0  0  0  0
  -27.7754  -30.0669  -18.2832 C   0  0  0  0  0  0  0  0  0  0  0  0
  -26.5386  -29.9989  -17.4293 C   0  0  0  0  0  0  0  0  0  0  0  0
  -26.7831  -30.3422  -15.9401 C   0  0  0  0  0  0  0  0  0  0  0  0
  -28.0844  -29.7219  -15.4114 C   0  0  0  0  0  0  0  0  0  0  0  0
  -29.3089  -30.1103  -16.2297 C   0  0  0  0  0  0  0  0  0  0  0  0
  -25.3922  -31.2690  -20.8418 N   0  0  0  0  0  0  0  0  0  0  0  0
  -24.3087  -32.1964  -21.1666 C   0  0  2  0  0  0  0  0  0  0  0  0
  -23.4989  -32.5860  -19.9129 C   0  0  0  0  0  0  0  0  0  0  0  0
  -23.2539  -31.4396  -19.0942 O   0  0  0  0  0  0  0  0  0  0  0  0
  -23.3842  -31.6500  -22.2636 C   0  0  0  0  0  0  0  0  0  0  0  0
  -22.7598  -32.6825  -23.0863 N   0  0  0  0  0  0  0  0  0  0  0  0
  -21.3515  -32.6607  -23.3850 C   0  0  0  0  0  0  0  0  0  0  0  0
  -21.2670  -33.2982  -24.7573 C   0  0  0  0  0  0  0  0  0  0  0  0
  -22.4682  -34.2255  -24.8134 C   0  0  0  0  0  0  0  0  0  0  0  0
  -23.4703  -33.4829  -23.9718 C   0  0  0  0  0  0  0  0  0  0  0  0
  -24.6777  -33.6103  -24.0586 O   0  0  0  0  0  0  0  0  0  0  0  0
  1  2  2  0
  2  3  1  0
  3  4  1  0
  4  5  2  0
  5  6  1  0
  6  7  1  0
  7  8  2  0
  8  9  1  0
  9 10  1  0
 10 11  1  0
 11 12  1  0
  2 13  1  0
 13 14  1  0
 14 15  1  1
 15 16  1  0
 14 17  1  0
 17 18  1  0
 18 19  1  0
 19 20  1  0
 20 21  1  0
 21 22  1  0
 22 23  2  0
  8  4  1  0
 22 18  1  0
 12  7  1  0
M  END
>  <id>  (488) 
395752

>  <inchikey>  (488) 
PXBNPMJFJYZMNN-NSHDSACASA-N

>  <alias>  (488) 
None

>  <smiles>  (488) 
O=C(Cc1n[nH]c2c1CCCC2)N[C@H](CO)CN1CCCC1=O

>  <path>  (488) 
/opt/xchem-fragalysis-2/maxwin/RdRp_FFF/syndirella/mar_elabs/elabs_015/XWUQVDZICNOZJP-UHFFFAOYSA-N/output/XWUQVDZICNOZJP-UHFFFAOYSA-N-opzXQN-42-A/XWUQVDZICNOZJP-UHFFFAOYSA-N-opzXQN-42-A.minimised.mol

>  <distance_score>  (488) 
0.737169

>  <energy_score>  (488) 
-6.606088

>  <compound>  (488) 
PXBNPMJFJYZMNN-UHFFFAOYSA-N

>  <compound_id>  (488) 
210043

>  <target>  (488) 
Flavi_NS5_RdRp

>  <tags>  (488) 
[]

>  <inspirations>  (488) 
{P Ã— 2}

>  <subsites>  (488) 
None

>  <reference>  (488) 
z0936a

>  <SLURM_JOB_ID>  (488) 
nan

>  <SLURM_JOB_NAME>  (488) 
nan

>  <csv_name>  (488) 
nan

>  <scratch_subdir>  (488) 
nan

>  <fragmenstein_runtime>  (488) 
nan

>  <fragmenstein_outcome>  (488) 
nan

>  <fragmenstein_mode>  (488) 
nan

>  <fragmenstein_error>  (488) 
nan

>  <exports>  (488) 
nan

>  <Multi-SuCOS>  (488) 
nan

>  <merge_set>  (488) 
nan

$$$$
GLQKWFORXQLRDV-OAHLLOKOSA-N
     RDKit          3D

 21 22  0  0  0  0  0  0  0  0999 V2000
  -25.9364  -31.5108  -21.9332 C   0  0  0  0  0  0  0  0  0  0  0  0
  -26.3170  -32.6034  -20.9393 C   0  0  0  0  0  0  0  0  0  0  0  0
  -26.9573  -32.1525  -19.7332 O   0  0  0  0  0  0  0  0  0  0  0  0
  -27.8735  -31.1566  -19.7525 C   0  0  0  0  0  0  0  0  0  0  0  0
  -28.4090  -30.6683  -20.7319 O   0  0  0  0  0  0  0  0  0  0  0  0
  -28.0840  -30.6767  -18.3640 C   0  0  0  0  0  0  0  0  0  0  0  0
  -26.9732  -30.3473  -17.5583 C   0  0  0  0  0  0  0  0  0  0  0  0
  -25.6916  -30.3129  -18.1447 N   0  0  0  0  0  0  0  0  0  0  0  0
  -25.5734  -29.0311  -18.8888 C   0  0  0  0  0  0  0  0  0  0  0  0
  -24.5257  -30.6042  -17.3155 C   0  0  0  0  0  0  0  0  0  0  0  0
  -24.0237  -32.0259  -17.0183 C   0  0  2  0  0  0  0  0  0  0  0  0
  -22.5724  -32.0040  -17.1244 O   0  0  0  0  0  0  0  0  0  0  0  0
  -24.5435  -33.2269  -17.7733 C   0  0  0  0  0  0  0  0  0  0  0  0
  -24.0671  -34.3807  -16.9035 C   0  0  0  0  0  0  0  0  0  0  0  0
  -23.8273  -33.8372  -15.5887 O   0  0  0  0  0  0  0  0  0  0  0  0
  -24.2959  -32.4712  -15.5958 C   0  0  0  0  0  0  0  0  0  0  0  0
  -27.2016  -29.9144  -16.2475 C   0  0  0  0  0  0  0  0  0  0  0  0
  -28.5016  -29.7758  -15.8094 C   0  0  0  0  0  0  0  0  0  0  0  0
  -29.5711  -30.0070  -16.5876 N   0  0  0  0  0  0  0  0  0  0  0  0
  -29.3564  -30.4388  -17.8625 C   0  0  0  0  0  0  0  0  0  0  0  0
  -30.5849  -30.6289  -18.6875 C   0  0  0  0  0  0  0  0  0  0  0  0
  1  2  1  0
  2  3  1  0
  3  4  1  0
  4  5  2  0
  4  6  1  0
  6  7  2  0
  7  8  1  0
  8  9  1  0
  8 10  1  0
 10 11  1  0
 11 12  1  1
 11 13  1  0
 13 14  1  0
 14 15  1  0
 15 16  1  0
  7 17  1  0
 17 18  2  0
 18 19  1  0
 19 20  2  0
 20 21  1  0
 20  6  1  0
 16 11  1  0
M  END
>  <id>  (489) 
400510

>  <inchikey>  (489) 
GLQKWFORXQLRDV-OAHLLOKOSA-N

>  <alias>  (489) 
None

>  <smiles>  (489) 
CCOC(=O)c1c(N(C)C[C@]2(O)CCOC2)ccnc1C

>  <path>  (489) 
/opt/xchem-fragalysis-2/maxwin/RdRp_FFF/syndirella/mar_elabs/elabs_029/VDFCXTONXACPCO-UHFFFAOYSA-N/output/VDFCXTONXACPCO-UHFFFAOYSA-N-Ge9uik-2545-A/VDFCXTONXACPCO-UHFFFAOYSA-N-Ge9uik-2545-A.minimised.mol

>  <distance_score>  (489) 
1.63349

>  <energy_score>  (489) 
-37.163845

>  <compound>  (489) 
GLQKWFORXQLRDV-UHFFFAOYSA-N

>  <compound_id>  (489) 
212463

>  <target>  (489) 
Flavi_NS5_RdRp

>  <tags>  (489) 
[]

>  <inspirations>  (489) 
{P Ã— 2}

>  <subsites>  (489) 
None

>  <reference>  (489) 
z0628a

>  <SLURM_JOB_ID>  (489) 
nan

>  <SLURM_JOB_NAME>  (489) 
nan

>  <csv_name>  (489) 
nan

>  <scratch_subdir>  (489) 
nan

>  <fragmenstein_runtime>  (489) 
nan

>  <fragmenstein_outcome>  (489) 
nan

>  <fragmenstein_mode>  (489) 
nan

>  <fragmenstein_error>  (489) 
nan

>  <exports>  (489) 
nan

>  <Multi-SuCOS>  (489) 
nan

>  <merge_set>  (489) 
nan

$$$$
UHZKYCOTPVGZOQ-OAHLLOKOSA-N
     RDKit          3D

 21 22  0  0  0  0  0  0  0  0999 V2000
  -25.8250  -29.7003  -22.2655 C   0  0  0  0  0  0  0  0  0  0  0  0
  -26.5321  -30.7430  -21.4446 C   0  0  0  0  0  0  0  0  0  0  0  0
  -26.7815  -30.2358  -20.1373 O   0  0  0  0  0  0  0  0  0  0  0  0
  -27.6596  -31.0123  -19.4491 C   0  0  0  0  0  0  0  0  0  0  0  0
  -28.2008  -32.0304  -19.8400 O   0  0  0  0  0  0  0  0  0  0  0  0
  -27.8188  -30.4595  -18.1052 C   0  0  0  0  0  0  0  0  0  0  0  0
  -26.6977  -30.2875  -17.2722 C   0  0  0  0  0  0  0  0  0  0  0  0
  -25.3763  -30.7046  -17.6244 N   0  0  0  0  0  0  0  0  0  0  0  0
  -25.3273  -32.1940  -17.7775 C   0  0  0  0  0  0  0  0  0  0  0  0
  -24.2149  -32.9181  -16.9599 C   0  0  2  0  0  0  0  0  0  0  0  0
  -24.8068  -33.3925  -15.7200 O   0  0  0  0  0  0  0  0  0  0  0  0
  -23.0425  -32.0571  -16.5049 C   0  0  0  0  0  0  0  0  0  0  0  0
  -21.9722  -32.8588  -15.7613 C   0  0  0  0  0  0  0  0  0  0  0  0
  -21.8782  -34.2980  -16.2458 C   0  0  0  0  0  0  0  0  0  0  0  0
  -22.2854  -34.3777  -17.6067 O   0  0  0  0  0  0  0  0  0  0  0  0
  -23.6925  -34.1501  -17.7570 C   0  0  0  0  0  0  0  0  0  0  0  0
  -26.9041  -29.8239  -15.9784 C   0  0  0  0  0  0  0  0  0  0  0  0
  -28.1996  -29.5553  -15.5746 C   0  0  0  0  0  0  0  0  0  0  0  0
  -29.2873  -29.7234  -16.3549 N   0  0  0  0  0  0  0  0  0  0  0  0
  -29.0940  -30.1999  -17.6100 C   0  0  0  0  0  0  0  0  0  0  0  0
  -30.3327  -30.4964  -18.4018 C   0  0  0  0  0  0  0  0  0  0  0  0
  1  2  1  0
  2  3  1  0
  3  4  1  0
  4  5  2  0
  4  6  1  0
  6  7  2  0
  7  8  1  0
  8  9  1  0
  9 10  1  0
 10 11  1  1
 10 12  1  0
 12 13  1  0
 13 14  1  0
 14 15  1  0
 15 16  1  0
  7 17  1  0
 17 18  2  0
 18 19  1  0
 19 20  2  0
 20 21  1  0
 20  6  1  0
 16 10  1  0
M  END
>  <id>  (490) 
400511

>  <inchikey>  (490) 
UHZKYCOTPVGZOQ-OAHLLOKOSA-N

>  <alias>  (490) 
None

>  <smiles>  (490) 
CCOC(=O)c1c(NC[C@]2(O)CCCOC2)ccnc1C

>  <path>  (490) 
/opt/xchem-fragalysis-2/maxwin/RdRp_FFF/syndirella/mar_elabs/elabs_029/VDFCXTONXACPCO-UHFFFAOYSA-N/output/VDFCXTONXACPCO-UHFFFAOYSA-N-Ge9uik-2547-A/VDFCXTONXACPCO-UHFFFAOYSA-N-Ge9uik-2547-A.minimised.mol

>  <distance_score>  (490) 
1.332051

>  <energy_score>  (490) 
-34.506886

>  <compound>  (490) 
UHZKYCOTPVGZOQ-UHFFFAOYSA-N

>  <compound_id>  (490) 
212465

>  <target>  (490) 
Flavi_NS5_RdRp

>  <tags>  (490) 
[]

>  <inspirations>  (490) 
{P Ã— 2}

>  <subsites>  (490) 
None

>  <reference>  (490) 
z0628a

>  <SLURM_JOB_ID>  (490) 
nan

>  <SLURM_JOB_NAME>  (490) 
nan

>  <csv_name>  (490) 
nan

>  <scratch_subdir>  (490) 
nan

>  <fragmenstein_runtime>  (490) 
nan

>  <fragmenstein_outcome>  (490) 
nan

>  <fragmenstein_mode>  (490) 
nan

>  <fragmenstein_error>  (490) 
nan

>  <exports>  (490) 
nan

>  <Multi-SuCOS>  (490) 
nan

>  <merge_set>  (490) 
nan

$$$$
VARMXBWJFFTRFE-GFCCVEGCSA-N
     RDKit          3D

 23 25  0  0  0  0  0  0  0  0999 V2000
   -2.1852  -70.5241  -20.2465 N   0  0  0  0  0  0  0  0  0  0  0  0
   -3.4779  -71.1351  -19.8883 C   0  0  1  0  0  0  0  0  0  0  0  0
   -3.4871  -72.6607  -20.1847 C   0  0  0  0  0  0  0  0  0  0  0  0
   -4.8063  -73.0276  -20.6263 O   0  0  0  0  0  0  0  0  0  0  0  0
   -5.5398  -73.7494  -19.7421 C   0  0  0  0  0  0  0  0  0  0  0  0
   -5.2272  -74.8191  -19.2571 O   0  0  0  0  0  0  0  0  0  0  0  0
   -6.7406  -72.9462  -19.3989 C   0  0  0  0  0  0  0  0  0  0  0  0
   -7.1121  -71.8812  -20.2058 C   0  0  0  0  0  0  0  0  0  0  0  0
   -7.9640  -70.9673  -19.6628 C   0  0  0  0  0  0  0  0  0  0  0  0
   -8.2039  -69.8022  -20.3208 O   0  0  0  0  0  0  0  0  0  0  0  0
   -8.5276  -71.0826  -18.4496 N   0  0  0  0  0  0  0  0  0  0  0  0
   -8.2575  -72.1782  -17.6969 C   0  0  0  0  0  0  0  0  0  0  0  0
   -8.9241  -72.2524  -16.3388 C   0  0  0  0  0  0  0  0  0  0  0  0
   -8.1634  -72.7302  -15.1242 C   0  0  0  0  0  0  0  0  0  0  0  0
   -9.2820  -73.5633  -15.6830 C   0  0  0  0  0  0  0  0  0  0  0  0
   -7.3556  -73.1287  -18.1605 C   0  0  0  0  0  0  0  0  0  0  0  0
   -3.8668  -70.7922  -18.4247 C   0  0  0  0  0  0  0  0  0  0  0  0
   -3.0361  -71.3894  -17.3881 N   0  0  0  0  0  0  0  0  0  0  0  0
   -1.6485  -71.0481  -17.1955 C   0  0  0  0  0  0  0  0  0  0  0  0
   -1.3416  -71.6325  -15.8300 C   0  0  0  0  0  0  0  0  0  0  0  0
   -2.2354  -72.8653  -15.7566 C   0  0  0  0  0  0  0  0  0  0  0  0
   -3.4133  -72.4760  -16.6139 C   0  0  0  0  0  0  0  0  0  0  0  0
   -4.4958  -73.0377  -16.6355 O   0  0  0  0  0  0  0  0  0  0  0  0
  2  1  1  1
  2  3  1  0
  3  4  1  0
  4  5  1  0
  5  6  2  0
  5  7  1  0
  7  8  2  0
  8  9  1  0
  9 10  1  0
  9 11  2  0
 11 12  1  0
 12 13  1  0
 13 14  1  0
 14 15  1  0
 12 16  2  0
  2 17  1  0
 17 18  1  0
 18 19  1  0
 19 20  1  0
 20 21  1  0
 21 22  1  0
 22 23  2  0
 16  7  1  0
 22 18  1  0
 15 13  1  0
M  END
>  <id>  (491) 
403516

>  <inchikey>  (491) 
VARMXBWJFFTRFE-GFCCVEGCSA-N

>  <alias>  (491) 
None

>  <smiles>  (491) 
N[C@@H](COC(=O)c1cc(O)nc(C2CC2)c1)CN1CCCC1=O

>  <path>  (491) 
/opt/xchem-fragalysis-2/maxwin/RdRp_FFF/syndirella/mar_elabs/elabs_045/PPLQPJVUYBOHPD-UHFFFAOYSA-N/output/PPLQPJVUYBOHPD-UHFFFAOYSA-N-wTLPgu-1027-B/PPLQPJVUYBOHPD-UHFFFAOYSA-N-wTLPgu-1027-B.minimised.mol

>  <distance_score>  (491) 
1.802062

>  <energy_score>  (491) 
-17.313883

>  <compound>  (491) 
VARMXBWJFFTRFE-UHFFFAOYSA-N

>  <compound_id>  (491) 
209008

>  <target>  (491) 
Flavi_NS5_RdRp

>  <tags>  (491) 
[]

>  <inspirations>  (491) 
{P Ã— 2}

>  <subsites>  (491) 
None

>  <reference>  (491) 
d0566a

>  <SLURM_JOB_ID>  (491) 
nan

>  <SLURM_JOB_NAME>  (491) 
nan

>  <csv_name>  (491) 
nan

>  <scratch_subdir>  (491) 
nan

>  <fragmenstein_runtime>  (491) 
nan

>  <fragmenstein_outcome>  (491) 
nan

>  <fragmenstein_mode>  (491) 
nan

>  <fragmenstein_error>  (491) 
nan

>  <exports>  (491) 
nan

>  <Multi-SuCOS>  (491) 
nan

>  <merge_set>  (491) 
nan

$$$$
LEZIQSUBOABGFM-UHFFFAOYSA-N
     RDKit          3D

 20 22  0  0  0  0  0  0  0  0999 V2000
  -21.2599  -33.6370  -25.8220 C   0  0  0  0  0  0  0  0  0  0  0  0
  -21.1810  -32.9948  -24.5562 O   0  0  0  0  0  0  0  0  0  0  0  0
  -22.3600  -33.0830  -23.7183 C   0  0  0  0  0  0  0  0  0  0  0  0
  -22.8859  -31.7984  -23.1466 C   0  0  0  0  0  0  0  0  0  0  0  0
  -24.3312  -32.3779  -23.2280 N   0  0  0  0  0  0  0  0  0  0  0  0
  -25.3802  -31.2680  -23.1821 C   0  0  0  0  0  0  0  0  0  0  0  0
  -25.8630  -30.6722  -24.0317 O   0  0  0  0  0  0  0  0  0  0  0  0
  -25.6698  -31.2588  -21.6662 N   0  0  0  0  0  0  0  0  0  0  0  0
  -26.6252  -30.6142  -20.9610 C   0  0  0  0  0  0  0  0  0  0  0  0
  -27.8047  -30.0397  -21.4690 C   0  0  0  0  0  0  0  0  0  0  0  0
  -28.5466  -29.7158  -20.3603 C   0  0  0  0  0  0  0  0  0  0  0  0
  -27.7445  -29.9832  -19.2728 N   0  0  0  0  0  0  0  0  0  0  0  0
  -28.0801  -29.8308  -17.9017 C   0  0  0  0  0  0  0  0  0  0  0  0
  -27.0752  -29.9466  -16.9993 N   0  0  0  0  0  0  0  0  0  0  0  0
  -27.4235  -30.0662  -15.7144 C   0  0  0  0  0  0  0  0  0  0  0  0
  -28.7301  -30.0607  -15.3049 C   0  0  0  0  0  0  0  0  0  0  0  0
  -29.6742  -29.8918  -16.2916 C   0  0  0  0  0  0  0  0  0  0  0  0
  -29.3850  -29.7353  -17.5885 N   0  0  0  0  0  0  0  0  0  0  0  0
  -26.5645  -30.5474  -19.6388 N   0  0  0  0  0  0  0  0  0  0  0  0
  -23.7068  -33.0745  -24.3936 C   0  0  0  0  0  0  0  0  0  0  0  0
  1  2  1  0
  2  3  1  0
  3  4  1  0
  4  5  1  0
  5  6  1  0
  6  7  2  0
  6  8  1  0
  8  9  1  0
  9 10  1  0
 10 11  2  0
 11 12  1  0
 12 13  1  0
 13 14  2  0
 14 15  1  0
 15 16  2  0
 16 17  1  0
 17 18  2  0
 12 19  1  0
  5 20  1  0
 20  3  1  0
 19  9  2  0
 18 13  1  0
M  END
>  <id>  (492) 
405074

>  <inchikey>  (492) 
LEZIQSUBOABGFM-UHFFFAOYSA-N

>  <alias>  (492) 
None

>  <smiles>  (492) 
COC1CN(C(=O)Nc2ccn(-c3ncccn3)n2)C1

>  <path>  (492) 
/opt/xchem-fragalysis-2/maxwin/RdRp_FFF/syndirella/mar_elabs/elabs_054/VRFUMBMWIYOQKS-UHFFFAOYSA-N/output/VRFUMBMWIYOQKS-UHFFFAOYSA-N-P9W3JB-87-A/VRFUMBMWIYOQKS-UHFFFAOYSA-N-P9W3JB-87-A.minimised.mol

>  <distance_score>  (492) 
1.214455

>  <energy_score>  (492) 
-19.38596

>  <compound>  (492) 
LEZIQSUBOABGFM-UHFFFAOYSA-N

>  <compound_id>  (492) 
215911

>  <target>  (492) 
Flavi_NS5_RdRp

>  <tags>  (492) 
[]

>  <inspirations>  (492) 
{P Ã— 2}

>  <subsites>  (492) 
None

>  <reference>  (492) 
z0211a

>  <SLURM_JOB_ID>  (492) 
nan

>  <SLURM_JOB_NAME>  (492) 
nan

>  <csv_name>  (492) 
nan

>  <scratch_subdir>  (492) 
nan

>  <fragmenstein_runtime>  (492) 
nan

>  <fragmenstein_outcome>  (492) 
nan

>  <fragmenstein_mode>  (492) 
nan

>  <fragmenstein_error>  (492) 
nan

>  <exports>  (492) 
nan

>  <Multi-SuCOS>  (492) 
nan

>  <merge_set>  (492) 
nan

$$$$
NBJKXGPJLDVZKG-SSDOTTSWSA-N
     RDKit          3D

 20 21  0  0  0  0  0  0  0  0999 V2000
  -20.6009  -32.9733  -24.2418 C   0  0  0  0  0  0  0  0  0  0  0  0
  -21.7956  -33.1251  -23.3298 C   0  0  1  0  0  0  0  0  0  0  0  0
  -21.5647  -32.3923  -22.1237 O   0  0  0  0  0  0  0  0  0  0  0  0
  -23.0652  -32.6202  -24.0206 C   0  0  0  0  0  0  0  0  0  0  0  0
  -23.2073  -32.6906  -25.2420 N   0  0  0  0  0  0  0  0  0  0  0  0
  -23.9240  -32.0246  -22.9579 N   0  0  0  0  0  0  0  0  0  0  0  0
  -25.2725  -31.1731  -23.0242 C   0  0  0  0  0  0  0  0  0  0  0  0
  -25.9441  -30.8842  -23.9131 O   0  0  0  0  0  0  0  0  0  0  0  0
  -25.4543  -30.9500  -21.5853 N   0  0  0  0  0  0  0  0  0  0  0  0
  -26.4927  -30.4292  -20.9009 C   0  0  0  0  0  0  0  0  0  0  0  0
  -27.7509  -30.0652  -21.4108 C   0  0  0  0  0  0  0  0  0  0  0  0
  -28.4906  -29.7324  -20.3054 C   0  0  0  0  0  0  0  0  0  0  0  0
  -27.6494  -29.8675  -19.2202 N   0  0  0  0  0  0  0  0  0  0  0  0
  -28.0119  -29.7580  -17.8483 C   0  0  0  0  0  0  0  0  0  0  0  0
  -29.3298  -29.7124  -17.5698 N   0  0  0  0  0  0  0  0  0  0  0  0
  -29.6578  -29.8883  -16.2854 C   0  0  0  0  0  0  0  0  0  0  0  0
  -28.7388  -30.0483  -15.2760 C   0  0  0  0  0  0  0  0  0  0  0  0
  -27.4203  -30.0170  -15.6492 C   0  0  0  0  0  0  0  0  0  0  0  0
  -27.0320  -29.8601  -16.9204 N   0  0  0  0  0  0  0  0  0  0  0  0
  -26.4023  -30.2497  -19.5920 N   0  0  0  0  0  0  0  0  0  0  0  0
  2  1  1  6
  2  3  1  0
  2  4  1  0
  4  5  2  3
  4  6  1  0
  6  7  1  0
  7  8  2  0
  7  9  1  0
  9 10  1  0
 10 11  1  0
 11 12  2  0
 12 13  1  0
 13 14  1  0
 14 15  2  0
 15 16  1  0
 16 17  2  0
 17 18  1  0
 18 19  2  0
 13 20  1  0
 20 10  2  0
 19 14  1  0
M  END
>  <id>  (493) 
405099

>  <inchikey>  (493) 
NBJKXGPJLDVZKG-SSDOTTSWSA-N

>  <alias>  (493) 
None

>  <smiles>  (493) 
C[C@@H](O)C(=N)NC(=O)Nc1ccn(-c2ncccn2)n1

>  <path>  (493) 
/opt/xchem-fragalysis-2/maxwin/RdRp_FFF/syndirella/mar_elabs/elabs_054/VRFUMBMWIYOQKS-UHFFFAOYSA-N/output/VRFUMBMWIYOQKS-UHFFFAOYSA-N-P9W3JB-112-B/VRFUMBMWIYOQKS-UHFFFAOYSA-N-P9W3JB-112-B.minimised.mol

>  <distance_score>  (493) 
1.092021

>  <energy_score>  (493) 
-45.868338

>  <compound>  (493) 
NBJKXGPJLDVZKG-UHFFFAOYSA-N

>  <compound_id>  (493) 
215931

>  <target>  (493) 
Flavi_NS5_RdRp

>  <tags>  (493) 
[]

>  <inspirations>  (493) 
{P Ã— 2}

>  <subsites>  (493) 
None

>  <reference>  (493) 
z0211a

>  <SLURM_JOB_ID>  (493) 
nan

>  <SLURM_JOB_NAME>  (493) 
nan

>  <csv_name>  (493) 
nan

>  <scratch_subdir>  (493) 
nan

>  <fragmenstein_runtime>  (493) 
nan

>  <fragmenstein_outcome>  (493) 
nan

>  <fragmenstein_mode>  (493) 
nan

>  <fragmenstein_error>  (493) 
nan

>  <exports>  (493) 
nan

>  <Multi-SuCOS>  (493) 
nan

>  <merge_set>  (493) 
nan

$$$$
NHCQYQCGZNTQOK-MRVPVSSYSA-N
     RDKit          3D

 20 21  0  0  0  0  0  0  0  0999 V2000
  -25.8748  -30.7289  -23.8000 O   0  0  0  0  0  0  0  0  0  0  0  0
  -25.2496  -30.9612  -22.8827 C   0  0  0  0  0  0  0  0  0  0  0  0
  -23.8230  -31.5265  -22.7684 N   0  0  0  0  0  0  0  0  0  0  0  0
  -22.8665  -31.8227  -23.7777 C   0  0  0  0  0  0  0  0  0  0  0  0
  -21.8098  -32.8301  -23.3717 C   0  0  2  0  0  0  0  0  0  0  0  0
  -21.1048  -32.3891  -22.2014 O   0  0  0  0  0  0  0  0  0  0  0  0
  -20.7948  -32.9359  -24.5029 C   0  0  0  0  0  0  0  0  0  0  0  0
  -21.4609  -33.6130  -26.0161 Cl  0  0  0  0  0  0  0  0  0  0  0  0
  -25.5786  -30.8027  -21.3905 N   0  0  0  0  0  0  0  0  0  0  0  0
  -26.7179  -30.4337  -20.7860 C   0  0  0  0  0  0  0  0  0  0  0  0
  -27.9574  -30.0907  -21.3409 C   0  0  0  0  0  0  0  0  0  0  0  0
  -28.7651  -29.8438  -20.2560 C   0  0  0  0  0  0  0  0  0  0  0  0
  -27.9513  -29.9472  -19.1493 N   0  0  0  0  0  0  0  0  0  0  0  0
  -28.2966  -29.8082  -17.7877 C   0  0  0  0  0  0  0  0  0  0  0  0
  -27.2733  -29.8451  -16.8957 N   0  0  0  0  0  0  0  0  0  0  0  0
  -27.5890  -30.0138  -15.6134 C   0  0  0  0  0  0  0  0  0  0  0  0
  -28.8867  -30.1112  -15.1978 C   0  0  0  0  0  0  0  0  0  0  0  0
  -29.8528  -30.0117  -16.1751 C   0  0  0  0  0  0  0  0  0  0  0  0
  -29.5987  -29.8284  -17.4717 N   0  0  0  0  0  0  0  0  0  0  0  0
  -26.6999  -30.3280  -19.4721 N   0  0  0  0  0  0  0  0  0  0  0  0
  1  2  2  0
  2  3  1  0
  3  4  1  0
  4  5  1  0
  5  6  1  1
  5  7  1  0
  7  8  1  0
  2  9  1  0
  9 10  1  0
 10 11  1  0
 11 12  2  0
 12 13  1  0
 13 14  1  0
 14 15  2  0
 15 16  1  0
 16 17  2  0
 17 18  1  0
 18 19  2  0
 13 20  1  0
 20 10  2  0
 19 14  1  0
M  END
>  <id>  (494) 
405107

>  <inchikey>  (494) 
NHCQYQCGZNTQOK-MRVPVSSYSA-N

>  <alias>  (494) 
None

>  <smiles>  (494) 
O=C(NC[C@H](O)CCl)Nc1ccn(-c2ncccn2)n1

>  <path>  (494) 
/opt/xchem-fragalysis-2/maxwin/RdRp_FFF/syndirella/mar_elabs/elabs_054/VRFUMBMWIYOQKS-UHFFFAOYSA-N/output/VRFUMBMWIYOQKS-UHFFFAOYSA-N-P9W3JB-116-A/VRFUMBMWIYOQKS-UHFFFAOYSA-N-P9W3JB-116-A.minimised.mol

>  <distance_score>  (494) 
1.013968

>  <energy_score>  (494) 
-6.999385

>  <compound>  (494) 
NHCQYQCGZNTQOK-UHFFFAOYSA-N

>  <compound_id>  (494) 
215935

>  <target>  (494) 
Flavi_NS5_RdRp

>  <tags>  (494) 
[]

>  <inspirations>  (494) 
{P Ã— 2}

>  <subsites>  (494) 
None

>  <reference>  (494) 
z0211a

>  <SLURM_JOB_ID>  (494) 
nan

>  <SLURM_JOB_NAME>  (494) 
nan

>  <csv_name>  (494) 
nan

>  <scratch_subdir>  (494) 
nan

>  <fragmenstein_runtime>  (494) 
nan

>  <fragmenstein_outcome>  (494) 
nan

>  <fragmenstein_mode>  (494) 
nan

>  <fragmenstein_error>  (494) 
nan

>  <exports>  (494) 
nan

>  <Multi-SuCOS>  (494) 
nan

>  <merge_set>  (494) 
nan

$$$$
XLZPOBHIECBUDB-QMMMGPOBSA-N
     RDKit          3D

 21 22  0  0  0  0  0  0  0  0999 V2000
  -26.1456  -30.4701  -15.0219 C   0  0  0  0  0  0  0  0  0  0  0  0
  -27.2411  -30.0996  -15.9682 C   0  0  0  0  0  0  0  0  0  0  0  0
  -28.5491  -29.9724  -15.5582 C   0  0  0  0  0  0  0  0  0  0  0  0
  -29.4795  -29.7475  -16.5501 C   0  0  0  0  0  0  0  0  0  0  0  0
  -29.1828  -29.6682  -17.8583 N   0  0  0  0  0  0  0  0  0  0  0  0
  -27.8828  -29.8302  -18.1675 C   0  0  0  0  0  0  0  0  0  0  0  0
  -27.5234  -30.0153  -19.5357 N   0  0  0  0  0  0  0  0  0  0  0  0
  -28.3405  -29.9487  -20.6446 C   0  0  0  0  0  0  0  0  0  0  0  0
  -27.5541  -30.2804  -21.7254 C   0  0  0  0  0  0  0  0  0  0  0  0
  -26.2898  -30.5542  -21.1831 C   0  0  0  0  0  0  0  0  0  0  0  0
  -25.1367  -30.9141  -21.7875 N   0  0  0  0  0  0  0  0  0  0  0  0
  -24.8463  -31.2171  -23.1958 C   0  0  0  0  0  0  0  0  0  0  0  0
  -25.5177  -31.1451  -24.1278 O   0  0  0  0  0  0  0  0  0  0  0  0
  -23.3500  -31.7722  -23.0048 N   0  0  0  0  0  0  0  0  0  0  0  0
  -22.3955  -32.4584  -23.9485 C   0  0  0  0  0  0  0  0  0  0  0  0
  -22.5322  -32.8551  -25.1056 N   0  0  0  0  0  0  0  0  0  0  0  0
  -21.0779  -32.6283  -23.1809 C   0  0  2  0  0  0  0  0  0  0  0  0
  -21.2141  -33.7573  -22.1714 C   0  0  0  0  0  0  0  0  0  0  0  0
  -20.7805  -31.4428  -22.4429 O   0  0  0  0  0  0  0  0  0  0  0  0
  -26.2584  -30.3711  -19.8715 N   0  0  0  0  0  0  0  0  0  0  0  0
  -26.8951  -29.9812  -17.2570 N   0  0  0  0  0  0  0  0  0  0  0  0
  1  2  1  0
  2  3  2  0
  3  4  1  0
  4  5  2  0
  5  6  1  0
  6  7  1  0
  7  8  1  0
  8  9  2  0
  9 10  1  0
 10 11  1  0
 11 12  1  0
 12 13  2  0
 12 14  1  0
 14 15  1  0
 15 16  2  3
 15 17  1  0
 17 18  1  1
 17 19  1  0
 10 20  2  0
  6 21  2  0
 21  2  1  0
 20  7  1  0
M  END
>  <id>  (495) 
405340

>  <inchikey>  (495) 
XLZPOBHIECBUDB-QMMMGPOBSA-N

>  <alias>  (495) 
None

>  <smiles>  (495) 
Cc1ccnc(-n2ccc(NC(=O)NC(=N)[C@H](C)O)n2)n1

>  <path>  (495) 
/opt/xchem-fragalysis-2/maxwin/RdRp_FFF/syndirella/mar_elabs/elabs_054/VRFUMBMWIYOQKS-UHFFFAOYSA-N/output/VRFUMBMWIYOQKS-UHFFFAOYSA-N-P9W3JB-807-A/VRFUMBMWIYOQKS-UHFFFAOYSA-N-P9W3JB-807-A.minimised.mol

>  <distance_score>  (495) 
1.32694

>  <energy_score>  (495) 
-7.655266

>  <compound>  (495) 
XLZPOBHIECBUDB-UHFFFAOYSA-N

>  <compound_id>  (495) 
216305

>  <target>  (495) 
Flavi_NS5_RdRp

>  <tags>  (495) 
[]

>  <inspirations>  (495) 
{P Ã— 2}

>  <subsites>  (495) 
None

>  <reference>  (495) 
z0211a

>  <SLURM_JOB_ID>  (495) 
nan

>  <SLURM_JOB_NAME>  (495) 
nan

>  <csv_name>  (495) 
nan

>  <scratch_subdir>  (495) 
nan

>  <fragmenstein_runtime>  (495) 
nan

>  <fragmenstein_outcome>  (495) 
nan

>  <fragmenstein_mode>  (495) 
nan

>  <fragmenstein_error>  (495) 
nan

>  <exports>  (495) 
nan

>  <Multi-SuCOS>  (495) 
nan

>  <merge_set>  (495) 
nan

$$$$
MEFZMMNHEBXRTF-CYBMUJFWSA-N
     RDKit          3D

 21 22  0  0  0  0  0  0  0  0999 V2000
  -19.7186  -33.4637  -21.7253 C   0  0  0  0  0  0  0  0  0  0  0  0
  -20.5699  -32.9531  -22.8972 C   0  0  0  0  0  0  0  0  0  0  0  0
  -22.0605  -33.0316  -22.5953 C   0  0  1  0  0  0  0  0  0  0  0  0
  -22.6120  -34.4602  -22.6795 C   0  0  0  0  0  0  0  0  0  0  0  0
  -22.2066  -32.5670  -21.2235 O   0  0  0  0  0  0  0  0  0  0  0  0
  -22.8960  -32.0967  -23.5127 C   0  0  0  0  0  0  0  0  0  0  0  0
  -23.8055  -31.4852  -22.6078 N   0  0  0  0  0  0  0  0  0  0  0  0
  -25.2050  -30.9199  -22.8403 C   0  0  0  0  0  0  0  0  0  0  0  0
  -25.7965  -30.7957  -23.8002 O   0  0  0  0  0  0  0  0  0  0  0  0
  -25.6128  -30.6637  -21.3808 N   0  0  0  0  0  0  0  0  0  0  0  0
  -26.7947  -30.3137  -20.8590 C   0  0  0  0  0  0  0  0  0  0  0  0
  -28.0453  -30.0722  -21.4266 C   0  0  0  0  0  0  0  0  0  0  0  0
  -28.8737  -29.8391  -20.3492 C   0  0  0  0  0  0  0  0  0  0  0  0
  -28.0637  -29.8722  -19.2335 N   0  0  0  0  0  0  0  0  0  0  0  0
  -28.4069  -29.7786  -17.8657 C   0  0  0  0  0  0  0  0  0  0  0  0
  -27.3717  -29.7794  -16.9841 N   0  0  0  0  0  0  0  0  0  0  0  0
  -27.6580  -29.9666  -15.6973 C   0  0  0  0  0  0  0  0  0  0  0  0
  -28.9440  -30.1076  -15.2625 C   0  0  0  0  0  0  0  0  0  0  0  0
  -29.9270  -30.0386  -16.2272 C   0  0  0  0  0  0  0  0  0  0  0  0
  -29.7012  -29.8548  -17.5312 N   0  0  0  0  0  0  0  0  0  0  0  0
  -26.7853  -30.1189  -19.5546 N   0  0  0  0  0  0  0  0  0  0  0  0
  1  2  1  0
  2  3  1  0
  3  4  1  1
  3  5  1  0
  3  6  1  0
  6  7  1  0
  7  8  1  0
  8  9  2  0
  8 10  1  0
 10 11  1  0
 11 12  1  0
 12 13  2  0
 13 14  1  0
 14 15  1  0
 15 16  2  0
 16 17  1  0
 17 18  2  0
 18 19  1  0
 19 20  2  0
 14 21  1  0
 21 11  2  0
 20 15  1  0
M  END
>  <id>  (496) 
405352

>  <inchikey>  (496) 
MEFZMMNHEBXRTF-CYBMUJFWSA-N

>  <alias>  (496) 
None

>  <smiles>  (496) 
CC[C@@](C)(O)CNC(=O)Nc1ccn(-c2ncccn2)n1

>  <path>  (496) 
/opt/xchem-fragalysis-2/maxwin/RdRp_FFF/syndirella/mar_elabs/elabs_054/VRFUMBMWIYOQKS-UHFFFAOYSA-N/output/VRFUMBMWIYOQKS-UHFFFAOYSA-N-P9W3JB-817-B/VRFUMBMWIYOQKS-UHFFFAOYSA-N-P9W3JB-817-B.minimised.mol

>  <distance_score>  (496) 
1.040805

>  <energy_score>  (496) 
-25.875426

>  <compound>  (496) 
MEFZMMNHEBXRTF-UHFFFAOYSA-N

>  <compound_id>  (496) 
216315

>  <target>  (496) 
Flavi_NS5_RdRp

>  <tags>  (496) 
[]

>  <inspirations>  (496) 
{P Ã— 2}

>  <subsites>  (496) 
None

>  <reference>  (496) 
z0211a

>  <SLURM_JOB_ID>  (496) 
nan

>  <SLURM_JOB_NAME>  (496) 
nan

>  <csv_name>  (496) 
nan

>  <scratch_subdir>  (496) 
nan

>  <fragmenstein_runtime>  (496) 
nan

>  <fragmenstein_outcome>  (496) 
nan

>  <fragmenstein_mode>  (496) 
nan

>  <fragmenstein_error>  (496) 
nan

>  <exports>  (496) 
nan

>  <Multi-SuCOS>  (496) 
nan

>  <merge_set>  (496) 
nan

$$$$
WMVZTEUEOKXTBA-UHFFFAOYSA-N
     RDKit          3D

 21 22  0  0  0  0  0  0  0  0999 V2000
  -20.5994  -33.0701  -24.3973 C   0  0  0  0  0  0  0  0  0  0  0  0
  -21.6414  -32.9586  -23.2864 C   0  0  0  0  0  0  0  0  0  0  0  0
  -21.0465  -32.0945  -22.1704 C   0  0  0  0  0  0  0  0  0  0  0  0
  -21.9099  -34.2522  -22.7458 O   0  0  0  0  0  0  0  0  0  0  0  0
  -22.9727  -32.4442  -23.9133 C   0  0  0  0  0  0  0  0  0  0  0  0
  -23.1146  -32.5382  -25.1334 N   0  0  0  0  0  0  0  0  0  0  0  0
  -23.8569  -31.8859  -22.8613 N   0  0  0  0  0  0  0  0  0  0  0  0
  -25.2497  -31.1126  -22.9357 C   0  0  0  0  0  0  0  0  0  0  0  0
  -25.9374  -30.8741  -23.8263 O   0  0  0  0  0  0  0  0  0  0  0  0
  -25.4408  -30.8798  -21.5030 N   0  0  0  0  0  0  0  0  0  0  0  0
  -26.5036  -30.4076  -20.8245 C   0  0  0  0  0  0  0  0  0  0  0  0
  -27.7716  -30.0923  -21.3408 C   0  0  0  0  0  0  0  0  0  0  0  0
  -28.5208  -29.7646  -20.2410 C   0  0  0  0  0  0  0  0  0  0  0  0
  -27.6763  -29.8616  -19.1547 N   0  0  0  0  0  0  0  0  0  0  0  0
  -28.0418  -29.7525  -17.7859 C   0  0  0  0  0  0  0  0  0  0  0  0
  -27.0598  -29.8382  -16.8584 N   0  0  0  0  0  0  0  0  0  0  0  0
  -27.4470  -30.0144  -15.5906 C   0  0  0  0  0  0  0  0  0  0  0  0
  -28.7654  -30.0718  -15.2215 C   0  0  0  0  0  0  0  0  0  0  0  0
  -29.6862  -29.9231  -16.2309 C   0  0  0  0  0  0  0  0  0  0  0  0
  -29.3604  -29.7318  -17.5121 N   0  0  0  0  0  0  0  0  0  0  0  0
  -26.4166  -30.2042  -19.5201 N   0  0  0  0  0  0  0  0  0  0  0  0
  1  2  1  0
  2  3  1  0
  2  4  1  0
  2  5  1  0
  5  6  2  3
  5  7  1  0
  7  8  1  0
  8  9  2  0
  8 10  1  0
 10 11  1  0
 11 12  1  0
 12 13  2  0
 13 14  1  0
 14 15  1  0
 15 16  2  0
 16 17  1  0
 17 18  2  0
 18 19  1  0
 19 20  2  0
 14 21  1  0
 21 11  2  0
 20 15  1  0
M  END
>  <id>  (497) 
405353

>  <inchikey>  (497) 
WMVZTEUEOKXTBA-UHFFFAOYSA-N

>  <alias>  (497) 
None

>  <smiles>  (497) 
CC(C)(O)C(=N)NC(=O)Nc1ccn(-c2ncccn2)n1

>  <path>  (497) 
/opt/xchem-fragalysis-2/maxwin/RdRp_FFF/syndirella/mar_elabs/elabs_054/VRFUMBMWIYOQKS-UHFFFAOYSA-N/output/VRFUMBMWIYOQKS-UHFFFAOYSA-N-P9W3JB-818-A/VRFUMBMWIYOQKS-UHFFFAOYSA-N-P9W3JB-818-A.minimised.mol

>  <distance_score>  (497) 
1.062421

>  <energy_score>  (497) 
-19.379972

>  <compound>  (497) 
WMVZTEUEOKXTBA-UHFFFAOYSA-N

>  <compound_id>  (497) 
216316

>  <target>  (497) 
Flavi_NS5_RdRp

>  <tags>  (497) 
[]

>  <inspirations>  (497) 
{P Ã— 2}

>  <subsites>  (497) 
None

>  <reference>  (497) 
z0211a

>  <SLURM_JOB_ID>  (497) 
nan

>  <SLURM_JOB_NAME>  (497) 
nan

>  <csv_name>  (497) 
nan

>  <scratch_subdir>  (497) 
nan

>  <fragmenstein_runtime>  (497) 
nan

>  <fragmenstein_outcome>  (497) 
nan

>  <fragmenstein_mode>  (497) 
nan

>  <fragmenstein_error>  (497) 
nan

>  <exports>  (497) 
nan

>  <Multi-SuCOS>  (497) 
nan

>  <merge_set>  (497) 
nan

$$$$
HOJBHXVRBPMPTK-MRVPVSSYSA-N
     RDKit          3D

 21 22  0  0  0  0  0  0  0  0999 V2000
  -21.5361  -34.6033  -20.9235 C   0  0  0  0  0  0  0  0  0  0  0  0
  -22.1827  -33.5714  -21.6583 O   0  0  0  0  0  0  0  0  0  0  0  0
  -21.8549  -33.5787  -23.0577 C   0  0  2  0  0  0  0  0  0  0  0  0
  -20.5838  -32.7870  -23.2806 C   0  0  0  0  0  0  0  0  0  0  0  0
  -22.9805  -32.8945  -23.8547 C   0  0  0  0  0  0  0  0  0  0  0  0
  -23.0299  -32.9381  -25.0869 N   0  0  0  0  0  0  0  0  0  0  0  0
  -23.8756  -32.2496  -22.8496 N   0  0  0  0  0  0  0  0  0  0  0  0
  -25.1499  -31.2990  -23.0033 C   0  0  0  0  0  0  0  0  0  0  0  0
  -25.7293  -30.9480  -23.9358 O   0  0  0  0  0  0  0  0  0  0  0  0
  -25.4234  -31.0834  -21.5764 N   0  0  0  0  0  0  0  0  0  0  0  0
  -26.4689  -30.4968  -20.9603 C   0  0  0  0  0  0  0  0  0  0  0  0
  -27.6908  -30.0790  -21.5121 C   0  0  0  0  0  0  0  0  0  0  0  0
  -28.4569  -29.7233  -20.4281 C   0  0  0  0  0  0  0  0  0  0  0  0
  -27.6573  -29.8871  -19.3150 N   0  0  0  0  0  0  0  0  0  0  0  0
  -28.0433  -29.7599  -17.9491 C   0  0  0  0  0  0  0  0  0  0  0  0
  -27.0766  -29.8623  -17.0059 N   0  0  0  0  0  0  0  0  0  0  0  0
  -27.4789  -29.9989  -15.7368 C   0  0  0  0  0  0  0  0  0  0  0  0
  -28.8009  -30.0125  -15.3774 C   0  0  0  0  0  0  0  0  0  0  0  0
  -29.7064  -29.8506  -16.4001 C   0  0  0  0  0  0  0  0  0  0  0  0
  -29.3629  -29.6950  -17.6856 N   0  0  0  0  0  0  0  0  0  0  0  0
  -26.4195  -30.3225  -19.6480 N   0  0  0  0  0  0  0  0  0  0  0  0
  1  2  1  0
  2  3  1  0
  3  4  1  1
  3  5  1  0
  5  6  2  3
  5  7  1  0
  7  8  1  0
  8  9  2  0
  8 10  1  0
 10 11  1  0
 11 12  1  0
 12 13  2  0
 13 14  1  0
 14 15  1  0
 15 16  2  0
 16 17  1  0
 17 18  2  0
 18 19  1  0
 19 20  2  0
 14 21  1  0
 21 11  2  0
 20 15  1  0
M  END
>  <id>  (498) 
405363

>  <inchikey>  (498) 
HOJBHXVRBPMPTK-MRVPVSSYSA-N

>  <alias>  (498) 
None

>  <smiles>  (498) 
CO[C@H](C)C(=N)NC(=O)Nc1ccn(-c2ncccn2)n1

>  <path>  (498) 
/opt/xchem-fragalysis-2/maxwin/RdRp_FFF/syndirella/mar_elabs/elabs_054/VRFUMBMWIYOQKS-UHFFFAOYSA-N/output/VRFUMBMWIYOQKS-UHFFFAOYSA-N-P9W3JB-828-A/VRFUMBMWIYOQKS-UHFFFAOYSA-N-P9W3JB-828-A.minimised.mol

>  <distance_score>  (498) 
1.264418

>  <energy_score>  (498) 
-54.185665

>  <compound>  (498) 
HOJBHXVRBPMPTK-UHFFFAOYSA-N

>  <compound_id>  (498) 
216324

>  <target>  (498) 
Flavi_NS5_RdRp

>  <tags>  (498) 
[]

>  <inspirations>  (498) 
{P Ã— 2}

>  <subsites>  (498) 
None

>  <reference>  (498) 
z0211a

>  <SLURM_JOB_ID>  (498) 
nan

>  <SLURM_JOB_NAME>  (498) 
nan

>  <csv_name>  (498) 
nan

>  <scratch_subdir>  (498) 
nan

>  <fragmenstein_runtime>  (498) 
nan

>  <fragmenstein_outcome>  (498) 
nan

>  <fragmenstein_mode>  (498) 
nan

>  <fragmenstein_error>  (498) 
nan

>  <exports>  (498) 
nan

>  <Multi-SuCOS>  (498) 
nan

>  <merge_set>  (498) 
nan

$$$$
BQLNZHOJOWBBJK-QMMMGPOBSA-N
     RDKit          3D

 21 22  0  0  0  0  0  0  0  0999 V2000
  -26.3450  -30.4651  -14.9032 C   0  0  0  0  0  0  0  0  0  0  0  0
  -27.4536  -30.0791  -15.8225 C   0  0  0  0  0  0  0  0  0  0  0  0
  -28.7756  -30.0648  -15.4512 C   0  0  0  0  0  0  0  0  0  0  0  0
  -29.6930  -29.8667  -16.4652 C   0  0  0  0  0  0  0  0  0  0  0  0
  -29.3701  -29.7199  -17.7616 N   0  0  0  0  0  0  0  0  0  0  0  0
  -28.0532  -29.7399  -18.0204 C   0  0  0  0  0  0  0  0  0  0  0  0
  -27.5998  -29.9224  -19.3547 N   0  0  0  0  0  0  0  0  0  0  0  0
  -28.3237  -30.0571  -20.5175 C   0  0  0  0  0  0  0  0  0  0  0  0
  -27.4293  -30.5150  -21.4653 C   0  0  0  0  0  0  0  0  0  0  0  0
  -26.2065  -30.6173  -20.7893 C   0  0  0  0  0  0  0  0  0  0  0  0
  -24.9822  -31.0374  -21.1560 N   0  0  0  0  0  0  0  0  0  0  0  0
  -24.5327  -31.7278  -22.3584 C   0  0  0  0  0  0  0  0  0  0  0  0
  -25.1309  -32.1455  -23.2468 O   0  0  0  0  0  0  0  0  0  0  0  0
  -22.9368  -31.6465  -22.0785 N   0  0  0  0  0  0  0  0  0  0  0  0
  -21.6821  -32.1995  -22.8602 C   0  0  0  0  0  0  0  0  0  0  0  0
  -21.5321  -32.9285  -24.2302 S   0  0  0  0  0  0  0  0  0  0  0  0
  -20.4933  -31.8138  -21.9284 C   0  0  2  0  0  0  0  0  0  0  0  0
  -19.8224  -33.0421  -21.3332 C   0  0  0  0  0  0  0  0  0  0  0  0
  -20.8753  -30.9509  -20.8558 O   0  0  0  0  0  0  0  0  0  0  0  0
  -26.2829  -30.1227  -19.5670 N   0  0  0  0  0  0  0  0  0  0  0  0
  -27.0883  -29.8252  -17.0782 N   0  0  0  0  0  0  0  0  0  0  0  0
  1  2  1  0
  2  3  2  0
  3  4  1  0
  4  5  2  0
  5  6  1  0
  6  7  1  0
  7  8  1  0
  8  9  2  0
  9 10  1  0
 10 11  1  0
 11 12  1  0
 12 13  2  0
 12 14  1  0
 14 15  1  0
 15 16  2  0
 15 17  1  0
 17 18  1  1
 17 19  1  0
 10 20  2  0
  6 21  2  0
 21  2  1  0
 20  7  1  0
M  END
>  <id>  (499) 
405380

>  <inchikey>  (499) 
BQLNZHOJOWBBJK-QMMMGPOBSA-N

>  <alias>  (499) 
None

>  <smiles>  (499) 
Cc1ccnc(-n2ccc(NC(=O)NC(=S)[C@H](C)O)n2)n1

>  <path>  (499) 
/opt/xchem-fragalysis-2/maxwin/RdRp_FFF/syndirella/mar_elabs/elabs_054/VRFUMBMWIYOQKS-UHFFFAOYSA-N/output/VRFUMBMWIYOQKS-UHFFFAOYSA-N-P9W3JB-838-A/VRFUMBMWIYOQKS-UHFFFAOYSA-N-P9W3JB-838-A.minimised.mol

>  <distance_score>  (499) 
1.394486

>  <energy_score>  (499) 
-41.823352

>  <compound>  (499) 
BQLNZHOJOWBBJK-UHFFFAOYSA-N

>  <compound_id>  (499) 
216332

>  <target>  (499) 
Flavi_NS5_RdRp

>  <tags>  (499) 
[]

>  <inspirations>  (499) 
{P Ã— 2}

>  <subsites>  (499) 
None

>  <reference>  (499) 
z0211a

>  <SLURM_JOB_ID>  (499) 
nan

>  <SLURM_JOB_NAME>  (499) 
nan

>  <csv_name>  (499) 
nan

>  <scratch_subdir>  (499) 
nan

>  <fragmenstein_runtime>  (499) 
nan

>  <fragmenstein_outcome>  (499) 
nan

>  <fragmenstein_mode>  (499) 
nan

>  <fragmenstein_error>  (499) 
nan

>  <exports>  (499) 
nan

>  <Multi-SuCOS>  (499) 
nan

>  <merge_set>  (499) 
nan

$$$$
MMMOVYJVJVQAGK-SECBINFHSA-N
     RDKit          3D

 21 22  0  0  0  0  0  0  0  0999 V2000
  -26.2423  -30.5025  -14.9406 C   0  0  0  0  0  0  0  0  0  0  0  0
  -27.4384  -30.1512  -15.7606 C   0  0  0  0  0  0  0  0  0  0  0  0
  -28.7178  -30.1637  -15.2686 C   0  0  0  0  0  0  0  0  0  0  0  0
  -29.7333  -29.9704  -16.1856 C   0  0  0  0  0  0  0  0  0  0  0  0
  -29.5541  -29.7640  -17.4956 N   0  0  0  0  0  0  0  0  0  0  0  0
  -28.2738  -29.7849  -17.8819 C   0  0  0  0  0  0  0  0  0  0  0  0
  -27.9697  -29.9173  -19.2545 N   0  0  0  0  0  0  0  0  0  0  0  0
  -28.7879  -29.8052  -20.3555 C   0  0  0  0  0  0  0  0  0  0  0  0
  -27.9878  -30.0739  -21.4456 C   0  0  0  0  0  0  0  0  0  0  0  0
  -26.7503  -30.4327  -20.8996 C   0  0  0  0  0  0  0  0  0  0  0  0
  -25.6060  -30.8311  -21.4739 N   0  0  0  0  0  0  0  0  0  0  0  0
  -25.2356  -30.9791  -22.9569 C   0  0  0  0  0  0  0  0  0  0  0  0
  -25.8235  -30.7127  -23.8903 O   0  0  0  0  0  0  0  0  0  0  0  0
  -23.8337  -31.5942  -22.8062 N   0  0  0  0  0  0  0  0  0  0  0  0
  -22.8564  -31.9089  -23.7881 C   0  0  0  0  0  0  0  0  0  0  0  0
  -21.7768  -32.8017  -23.2128 C   0  0  2  0  0  0  0  0  0  0  0  0
  -21.1994  -32.1867  -22.0546 O   0  0  0  0  0  0  0  0  0  0  0  0
  -20.7362  -33.0543  -24.2856 C   0  0  0  0  0  0  0  0  0  0  0  0
  -20.3682  -31.8955  -24.8986 F   0  0  0  0  0  0  0  0  0  0  0  0
  -26.7270  -30.3106  -19.5892 N   0  0  0  0  0  0  0  0  0  0  0  0
  -27.2124  -29.8994  -17.0476 N   0  0  0  0  0  0  0  0  0  0  0  0
  1  2  1  0
  2  3  2  0
  3  4  1  0
  4  5  2  0
  5  6  1  0
  6  7  1  0
  7  8  1  0
  8  9  2  0
  9 10  1  0
 10 11  1  0
 11 12  1  0
 12 13  2  0
 12 14  1  0
 14 15  1  0
 15 16  1  0
 16 17  1  1
 16 18  1  0
 18 19  1  0
 10 20  2  0
  6 21  2  0
 21  2  1  0
 20  7  1  0
M  END
>  <id>  (500) 
405393

>  <inchikey>  (500) 
MMMOVYJVJVQAGK-SECBINFHSA-N

>  <alias>  (500) 
None

>  <smiles>  (500) 
Cc1ccnc(-n2ccc(NC(=O)NC[C@H](O)CF)n2)n1

>  <path>  (500) 
/opt/xchem-fragalysis-2/maxwin/RdRp_FFF/syndirella/mar_elabs/elabs_054/VRFUMBMWIYOQKS-UHFFFAOYSA-N/output/VRFUMBMWIYOQKS-UHFFFAOYSA-N-P9W3JB-871-A/VRFUMBMWIYOQKS-UHFFFAOYSA-N-P9W3JB-871-A.minimised.mol

>  <distance_score>  (500) 
0.988557

>  <energy_score>  (500) 
-8.423172

>  <compound>  (500) 
MMMOVYJVJVQAGK-UHFFFAOYSA-N

>  <compound_id>  (500) 
216362

>  <target>  (500) 
Flavi_NS5_RdRp

>  <tags>  (500) 
[]

>  <inspirations>  (500) 
{P Ã— 2}

>  <subsites>  (500) 
None

>  <reference>  (500) 
z0211a

>  <SLURM_JOB_ID>  (500) 
nan

>  <SLURM_JOB_NAME>  (500) 
nan

>  <csv_name>  (500) 
nan

>  <scratch_subdir>  (500) 
nan

>  <fragmenstein_runtime>  (500) 
nan

>  <fragmenstein_outcome>  (500) 
nan

>  <fragmenstein_mode>  (500) 
nan

>  <fragmenstein_error>  (500) 
nan

>  <exports>  (500) 
nan

>  <Multi-SuCOS>  (500) 
nan

>  <merge_set>  (500) 
nan

$$$$
UKUUSZCYKMDEPA-CYBMUJFWSA-N
     RDKit          3D

 21 22  0  0  0  0  0  0  0  0999 V2000
  -21.1985  -33.3044  -25.7103 C   0  0  0  0  0  0  0  0  0  0  0  0
  -20.9175  -33.0623  -24.4202 C   0  0  0  0  0  0  0  0  0  0  0  0
  -21.8598  -32.6789  -23.3102 C   0  0  1  0  0  0  0  0  0  0  0  0
  -21.8774  -33.8148  -22.2761 C   0  0  0  0  0  0  0  0  0  0  0  0
  -21.2927  -31.5411  -22.6580 O   0  0  0  0  0  0  0  0  0  0  0  0
  -23.2721  -32.3753  -23.8244 C   0  0  0  0  0  0  0  0  0  0  0  0
  -24.1237  -31.8695  -22.8024 N   0  0  0  0  0  0  0  0  0  0  0  0
  -25.3944  -31.0095  -22.9000 C   0  0  0  0  0  0  0  0  0  0  0  0
  -25.9710  -30.6539  -23.8096 O   0  0  0  0  0  0  0  0  0  0  0  0
  -25.7084  -30.8598  -21.4045 N   0  0  0  0  0  0  0  0  0  0  0  0
  -26.7841  -30.3508  -20.7904 C   0  0  0  0  0  0  0  0  0  0  0  0
  -28.0196  -29.9691  -21.3268 C   0  0  0  0  0  0  0  0  0  0  0  0
  -28.8020  -29.7113  -20.2270 C   0  0  0  0  0  0  0  0  0  0  0  0
  -27.9732  -29.8379  -19.1336 N   0  0  0  0  0  0  0  0  0  0  0  0
  -28.3041  -29.7529  -17.7651 C   0  0  0  0  0  0  0  0  0  0  0  0
  -27.2715  -29.8117  -16.8855 N   0  0  0  0  0  0  0  0  0  0  0  0
  -27.5733  -30.0148  -15.6049 C   0  0  0  0  0  0  0  0  0  0  0  0
  -28.8663  -30.1286  -15.1796 C   0  0  0  0  0  0  0  0  0  0  0  0
  -29.8421  -30.0152  -16.1451 C   0  0  0  0  0  0  0  0  0  0  0  0
  -29.6027  -29.7948  -17.4382 N   0  0  0  0  0  0  0  0  0  0  0  0
  -26.7261  -30.2051  -19.4820 N   0  0  0  0  0  0  0  0  0  0  0  0
  1  2  2  0
  2  3  1  0
  3  4  1  1
  3  5  1  0
  3  6  1  0
  6  7  1  0
  7  8  1  0
  8  9  2  0
  8 10  1  0
 10 11  1  0
 11 12  1  0
 12 13  2  0
 13 14  1  0
 14 15  1  0
 15 16  2  0
 16 17  1  0
 17 18  2  0
 18 19  1  0
 19 20  2  0
 14 21  1  0
 21 11  2  0
 20 15  1  0
M  END
>  <id>  (501) 
405423

>  <inchikey>  (501) 
UKUUSZCYKMDEPA-CYBMUJFWSA-N

>  <alias>  (501) 
None

>  <smiles>  (501) 
C=C[C@@](C)(O)CNC(=O)Nc1ccn(-c2ncccn2)n1

>  <path>  (501) 
/opt/xchem-fragalysis-2/maxwin/RdRp_FFF/syndirella/mar_elabs/elabs_054/VRFUMBMWIYOQKS-UHFFFAOYSA-N/output/VRFUMBMWIYOQKS-UHFFFAOYSA-N-P9W3JB-958-B/VRFUMBMWIYOQKS-UHFFFAOYSA-N-P9W3JB-958-B.minimised.mol

>  <distance_score>  (501) 
0.999643

>  <energy_score>  (501) 
-7.523343

>  <compound>  (501) 
UKUUSZCYKMDEPA-UHFFFAOYSA-N

>  <compound_id>  (501) 
216433

>  <target>  (501) 
Flavi_NS5_RdRp

>  <tags>  (501) 
[]

>  <inspirations>  (501) 
{P Ã— 2}

>  <subsites>  (501) 
None

>  <reference>  (501) 
z0211a

>  <SLURM_JOB_ID>  (501) 
nan

>  <SLURM_JOB_NAME>  (501) 
nan

>  <csv_name>  (501) 
nan

>  <scratch_subdir>  (501) 
nan

>  <fragmenstein_runtime>  (501) 
nan

>  <fragmenstein_outcome>  (501) 
nan

>  <fragmenstein_mode>  (501) 
nan

>  <fragmenstein_error>  (501) 
nan

>  <exports>  (501) 
nan

>  <Multi-SuCOS>  (501) 
nan

>  <merge_set>  (501) 
nan

$$$$
VTSCCJMUFHHGKT-QMMMGPOBSA-N
     RDKit          3D

 21 22  0  0  0  0  0  0  0  0999 V2000
  -21.4754  -33.3716  -20.3774 C   0  0  0  0  0  0  0  0  0  0  0  0
  -20.7917  -33.6046  -21.7199 C   0  0  0  0  0  0  0  0  0  0  0  0
  -20.8702  -32.4651  -22.7398 C   0  0  2  0  0  0  0  0  0  0  0  0
  -20.6458  -31.2109  -22.0996 O   0  0  0  0  0  0  0  0  0  0  0  0
  -22.2010  -32.4297  -23.5004 C   0  0  0  0  0  0  0  0  0  0  0  0
  -22.2722  -32.8094  -24.6708 N   0  0  0  0  0  0  0  0  0  0  0  0
  -23.2273  -31.8552  -22.5805 N   0  0  0  0  0  0  0  0  0  0  0  0
  -24.7446  -31.4271  -22.8075 C   0  0  0  0  0  0  0  0  0  0  0  0
  -25.4336  -31.5345  -23.7223 O   0  0  0  0  0  0  0  0  0  0  0  0
  -25.0328  -30.9357  -21.4521 N   0  0  0  0  0  0  0  0  0  0  0  0
  -26.1987  -30.5597  -20.8799 C   0  0  0  0  0  0  0  0  0  0  0  0
  -27.4581  -30.3777  -21.4734 C   0  0  0  0  0  0  0  0  0  0  0  0
  -28.2879  -30.0229  -20.4369 C   0  0  0  0  0  0  0  0  0  0  0  0
  -27.5049  -30.0009  -19.3008 N   0  0  0  0  0  0  0  0  0  0  0  0
  -27.9458  -29.8167  -17.9557 C   0  0  0  0  0  0  0  0  0  0  0  0
  -27.0100  -29.8556  -16.9770 N   0  0  0  0  0  0  0  0  0  0  0  0
  -27.4574  -29.9627  -15.7195 C   0  0  0  0  0  0  0  0  0  0  0  0
  -28.7910  -29.9860  -15.4036 C   0  0  0  0  0  0  0  0  0  0  0  0
  -29.6643  -29.8693  -16.4594 C   0  0  0  0  0  0  0  0  0  0  0  0
  -29.2764  -29.7686  -17.7392 N   0  0  0  0  0  0  0  0  0  0  0  0
  -26.2058  -30.2762  -19.5844 N   0  0  0  0  0  0  0  0  0  0  0  0
  1  2  1  0
  2  3  1  0
  3  4  1  1
  3  5  1  0
  5  6  2  3
  5  7  1  0
  7  8  1  0
  8  9  2  0
  8 10  1  0
 10 11  1  0
 11 12  1  0
 12 13  2  0
 13 14  1  0
 14 15  1  0
 15 16  2  0
 16 17  1  0
 17 18  2  0
 18 19  1  0
 19 20  2  0
 14 21  1  0
 21 11  2  0
 20 15  1  0
M  END
>  <id>  (502) 
405430

>  <inchikey>  (502) 
VTSCCJMUFHHGKT-QMMMGPOBSA-N

>  <alias>  (502) 
None

>  <smiles>  (502) 
CC[C@H](O)C(=N)NC(=O)Nc1ccn(-c2ncccn2)n1

>  <path>  (502) 
/opt/xchem-fragalysis-2/maxwin/RdRp_FFF/syndirella/mar_elabs/elabs_054/VRFUMBMWIYOQKS-UHFFFAOYSA-N/output/VRFUMBMWIYOQKS-UHFFFAOYSA-N-P9W3JB-996-A/VRFUMBMWIYOQKS-UHFFFAOYSA-N-P9W3JB-996-A.minimised.mol

>  <distance_score>  (502) 
1.269202

>  <energy_score>  (502) 
-26.475696

>  <compound>  (502) 
VTSCCJMUFHHGKT-UHFFFAOYSA-N

>  <compound_id>  (502) 
216450

>  <target>  (502) 
Flavi_NS5_RdRp

>  <tags>  (502) 
[]

>  <inspirations>  (502) 
{P Ã— 2}

>  <subsites>  (502) 
None

>  <reference>  (502) 
z0211a

>  <SLURM_JOB_ID>  (502) 
nan

>  <SLURM_JOB_NAME>  (502) 
nan

>  <csv_name>  (502) 
nan

>  <scratch_subdir>  (502) 
nan

>  <fragmenstein_runtime>  (502) 
nan

>  <fragmenstein_outcome>  (502) 
nan

>  <fragmenstein_mode>  (502) 
nan

>  <fragmenstein_error>  (502) 
nan

>  <exports>  (502) 
nan

>  <Multi-SuCOS>  (502) 
nan

>  <merge_set>  (502) 
nan

$$$$
CJGUHVRMDXUEJZ-ZETCQYMHSA-N
     RDKit          3D

 21 22  0  0  0  0  0  0  0  0999 V2000
  -23.6155  -35.1783  -26.3409 C   0  0  0  0  0  0  0  0  0  0  0  0
  -22.7589  -33.9206  -26.3834 C   0  0  2  0  0  0  0  0  0  0  0  0
  -21.4782  -34.2693  -26.8984 O   0  0  0  0  0  0  0  0  0  0  0  0
  -22.6770  -33.2944  -24.9699 C   0  0  0  0  0  0  0  0  0  0  0  0
  -21.7775  -33.4898  -24.2491 O   0  0  0  0  0  0  0  0  0  0  0  0
  -24.0028  -32.5181  -24.7382 N   0  0  0  0  0  0  0  0  0  0  0  0
  -24.4959  -31.9493  -23.6285 N   0  0  0  0  0  0  0  0  0  0  0  0
  -25.6801  -30.9392  -23.4478 C   0  0  0  0  0  0  0  0  0  0  0  0
  -26.3274  -30.4128  -24.2299 O   0  0  0  0  0  0  0  0  0  0  0  0
  -25.7840  -30.9428  -21.8912 N   0  0  0  0  0  0  0  0  0  0  0  0
  -26.7168  -30.3996  -21.0739 C   0  0  0  0  0  0  0  0  0  0  0  0
  -27.9555  -29.8736  -21.4847 C   0  0  0  0  0  0  0  0  0  0  0  0
  -28.6536  -29.6584  -20.3261 C   0  0  0  0  0  0  0  0  0  0  0  0
  -27.7788  -29.9277  -19.2968 N   0  0  0  0  0  0  0  0  0  0  0  0
  -28.0586  -29.8283  -17.9080 C   0  0  0  0  0  0  0  0  0  0  0  0
  -27.0213  -29.9496  -17.0471 N   0  0  0  0  0  0  0  0  0  0  0  0
  -27.3223  -30.0853  -15.7505 C   0  0  0  0  0  0  0  0  0  0  0  0
  -28.6134  -30.0897  -15.2911 C   0  0  0  0  0  0  0  0  0  0  0  0
  -29.5942  -29.9196  -16.2391 C   0  0  0  0  0  0  0  0  0  0  0  0
  -29.3534  -29.7509  -17.5434 N   0  0  0  0  0  0  0  0  0  0  0  0
  -26.5957  -30.4240  -19.7538 N   0  0  0  0  0  0  0  0  0  0  0  0
  2  1  1  1
  2  3  1  0
  2  4  1  0
  4  5  2  0
  4  6  1  0
  6  7  1  0
  7  8  1  0
  8  9  2  0
  8 10  1  0
 10 11  1  0
 11 12  1  0
 12 13  2  0
 13 14  1  0
 14 15  1  0
 15 16  2  0
 16 17  1  0
 17 18  2  0
 18 19  1  0
 19 20  2  0
 14 21  1  0
 21 11  2  0
 20 15  1  0
M  END
>  <id>  (503) 
405493

>  <inchikey>  (503) 
CJGUHVRMDXUEJZ-ZETCQYMHSA-N

>  <alias>  (503) 
None

>  <smiles>  (503) 
C[C@H](O)C(=O)NNC(=O)Nc1ccn(-c2ncccn2)n1

>  <path>  (503) 
/opt/xchem-fragalysis-2/maxwin/RdRp_FFF/syndirella/mar_elabs/elabs_054/VRFUMBMWIYOQKS-UHFFFAOYSA-N/output/VRFUMBMWIYOQKS-UHFFFAOYSA-N-P9W3JB-1114-B/VRFUMBMWIYOQKS-UHFFFAOYSA-N-P9W3JB-1114-B.minimised.mol

>  <distance_score>  (503) 
1.551364

>  <energy_score>  (503) 
-6.582358

>  <compound>  (503) 
CJGUHVRMDXUEJZ-UHFFFAOYSA-N

>  <compound_id>  (503) 
216533

>  <target>  (503) 
Flavi_NS5_RdRp

>  <tags>  (503) 
[]

>  <inspirations>  (503) 
{P Ã— 2}

>  <subsites>  (503) 
None

>  <reference>  (503) 
z0211a

>  <SLURM_JOB_ID>  (503) 
nan

>  <SLURM_JOB_NAME>  (503) 
nan

>  <csv_name>  (503) 
nan

>  <scratch_subdir>  (503) 
nan

>  <fragmenstein_runtime>  (503) 
nan

>  <fragmenstein_outcome>  (503) 
nan

>  <fragmenstein_mode>  (503) 
nan

>  <fragmenstein_error>  (503) 
nan

>  <exports>  (503) 
nan

>  <Multi-SuCOS>  (503) 
nan

>  <merge_set>  (503) 
nan

$$$$
LFSJOALQOIUUHO-MRVPVSSYSA-N
     RDKit          3D

 21 22  0  0  0  0  0  0  0  0999 V2000
  -21.5880  -34.6233  -20.2041 C   0  0  0  0  0  0  0  0  0  0  0  0
  -22.1221  -33.6494  -21.0939 O   0  0  0  0  0  0  0  0  0  0  0  0
  -21.6177  -33.7596  -22.4355 C   0  0  2  0  0  0  0  0  0  0  0  0
  -20.3407  -32.9441  -22.5302 C   0  0  0  0  0  0  0  0  0  0  0  0
  -22.6560  -33.1961  -23.4409 C   0  0  0  0  0  0  0  0  0  0  0  0
  -22.6183  -33.4313  -24.9849 S   0  0  0  0  0  0  0  0  0  0  0  0
  -23.6701  -32.4232  -22.4998 N   0  0  0  0  0  0  0  0  0  0  0  0
  -24.9695  -31.5097  -22.8017 C   0  0  0  0  0  0  0  0  0  0  0  0
  -25.5183  -31.2659  -23.7811 O   0  0  0  0  0  0  0  0  0  0  0  0
  -25.2973  -31.1611  -21.4165 N   0  0  0  0  0  0  0  0  0  0  0  0
  -26.3741  -30.5389  -20.8979 C   0  0  0  0  0  0  0  0  0  0  0  0
  -27.5828  -30.1693  -21.5088 C   0  0  0  0  0  0  0  0  0  0  0  0
  -28.3894  -29.7712  -20.4664 C   0  0  0  0  0  0  0  0  0  0  0  0
  -27.6270  -29.8799  -19.3203 N   0  0  0  0  0  0  0  0  0  0  0  0
  -28.0564  -29.7434  -17.9673 C   0  0  0  0  0  0  0  0  0  0  0  0
  -27.1107  -29.8241  -17.0006 N   0  0  0  0  0  0  0  0  0  0  0  0
  -27.5362  -29.9721  -15.7413 C   0  0  0  0  0  0  0  0  0  0  0  0
  -28.8647  -30.0097  -15.4119 C   0  0  0  0  0  0  0  0  0  0  0  0
  -29.7507  -29.8610  -16.4544 C   0  0  0  0  0  0  0  0  0  0  0  0
  -29.3830  -29.7033  -17.7344 N   0  0  0  0  0  0  0  0  0  0  0  0
  -26.3671  -30.2828  -19.5986 N   0  0  0  0  0  0  0  0  0  0  0  0
  1  2  1  0
  2  3  1  0
  3  4  1  1
  3  5  1  0
  5  6  2  0
  5  7  1  0
  7  8  1  0
  8  9  2  0
  8 10  1  0
 10 11  1  0
 11 12  1  0
 12 13  2  0
 13 14  1  0
 14 15  1  0
 15 16  2  0
 16 17  1  0
 17 18  2  0
 18 19  1  0
 19 20  2  0
 14 21  1  0
 21 11  2  0
 20 15  1  0
M  END
>  <id>  (504) 
405546

>  <inchikey>  (504) 
LFSJOALQOIUUHO-MRVPVSSYSA-N

>  <alias>  (504) 
None

>  <smiles>  (504) 
CO[C@H](C)C(=S)NC(=O)Nc1ccn(-c2ncccn2)n1

>  <path>  (504) 
/opt/xchem-fragalysis-2/maxwin/RdRp_FFF/syndirella/mar_elabs/elabs_054/VRFUMBMWIYOQKS-UHFFFAOYSA-N/output/VRFUMBMWIYOQKS-UHFFFAOYSA-N-P9W3JB-1197-A/VRFUMBMWIYOQKS-UHFFFAOYSA-N-P9W3JB-1197-A.minimised.mol

>  <distance_score>  (504) 
1.274055

>  <energy_score>  (504) 
-72.662759

>  <compound>  (504) 
LFSJOALQOIUUHO-UHFFFAOYSA-N

>  <compound_id>  (504) 
216597

>  <target>  (504) 
Flavi_NS5_RdRp

>  <tags>  (504) 
[]

>  <inspirations>  (504) 
{P Ã— 2}

>  <subsites>  (504) 
None

>  <reference>  (504) 
z0211a

>  <SLURM_JOB_ID>  (504) 
nan

>  <SLURM_JOB_NAME>  (504) 
nan

>  <csv_name>  (504) 
nan

>  <scratch_subdir>  (504) 
nan

>  <fragmenstein_runtime>  (504) 
nan

>  <fragmenstein_outcome>  (504) 
nan

>  <fragmenstein_mode>  (504) 
nan

>  <fragmenstein_error>  (504) 
nan

>  <exports>  (504) 
nan

>  <Multi-SuCOS>  (504) 
nan

>  <merge_set>  (504) 
nan

$$$$
GQBOKEYCBNAEGY-BDAKNGLRSA-N
     RDKit          3D

 21 22  0  0  0  0  0  0  0  0999 V2000
  -23.8014  -33.8977  -23.8339 C   0  0  0  0  0  0  0  0  0  0  0  0
  -23.3744  -32.4288  -23.7905 C   0  0  1  0  0  0  0  0  0  0  0  0
  -24.1421  -31.7835  -22.7737 N   0  0  0  0  0  0  0  0  0  0  0  0
  -25.4188  -30.9364  -22.8776 C   0  0  0  0  0  0  0  0  0  0  0  0
  -25.9878  -30.5763  -23.7902 O   0  0  0  0  0  0  0  0  0  0  0  0
  -25.7521  -30.8073  -21.3859 N   0  0  0  0  0  0  0  0  0  0  0  0
  -26.8386  -30.3170  -20.7799 C   0  0  0  0  0  0  0  0  0  0  0  0
  -28.0769  -29.9433  -21.3096 C   0  0  0  0  0  0  0  0  0  0  0  0
  -28.8561  -29.7020  -20.2033 C   0  0  0  0  0  0  0  0  0  0  0  0
  -28.0183  -29.8174  -19.1148 N   0  0  0  0  0  0  0  0  0  0  0  0
  -28.3359  -29.7337  -17.7437 C   0  0  0  0  0  0  0  0  0  0  0  0
  -27.2940  -29.7763  -16.8719 N   0  0  0  0  0  0  0  0  0  0  0  0
  -27.5822  -29.9997  -15.5921 C   0  0  0  0  0  0  0  0  0  0  0  0
  -28.8700  -30.1372  -15.1593 C   0  0  0  0  0  0  0  0  0  0  0  0
  -29.8550  -30.0296  -16.1161 C   0  0  0  0  0  0  0  0  0  0  0  0
  -29.6305  -29.7950  -17.4084 N   0  0  0  0  0  0  0  0  0  0  0  0
  -26.7718  -30.1715  -19.4724 N   0  0  0  0  0  0  0  0  0  0  0  0
  -21.8877  -32.1777  -23.4803 C   0  0  1  0  0  0  0  0  0  0  0  0
  -21.6008  -32.3778  -22.0893 O   0  0  0  0  0  0  0  0  0  0  0  0
  -20.9895  -33.0839  -24.3027 C   0  0  0  0  0  0  0  0  0  0  0  0
  -21.1126  -32.8559  -25.7039 O   0  0  0  0  0  0  0  0  0  0  0  0
  2  1  1  1
  2  3  1  0
  3  4  1  0
  4  5  2  0
  4  6  1  0
  6  7  1  0
  7  8  1  0
  8  9  2  0
  9 10  1  0
 10 11  1  0
 11 12  2  0
 12 13  1  0
 13 14  2  0
 14 15  1  0
 15 16  2  0
 10 17  1  0
  2 18  1  0
 18 19  1  1
 18 20  1  0
 20 21  1  0
 17  7  2  0
 16 11  1  0
M  END
>  <id>  (505) 
405555

>  <inchikey>  (505) 
GQBOKEYCBNAEGY-BDAKNGLRSA-N

>  <alias>  (505) 
None

>  <smiles>  (505) 
C[C@@H](NC(=O)Nc1ccn(-c2ncccn2)n1)[C@@H](O)CO

>  <path>  (505) 
/opt/xchem-fragalysis-2/maxwin/RdRp_FFF/syndirella/mar_elabs/elabs_054/VRFUMBMWIYOQKS-UHFFFAOYSA-N/output/VRFUMBMWIYOQKS-UHFFFAOYSA-N-P9W3JB-1215-D/VRFUMBMWIYOQKS-UHFFFAOYSA-N-P9W3JB-1215-D.minimised.mol

>  <distance_score>  (505) 
1.104164

>  <energy_score>  (505) 
-19.913305

>  <compound>  (505) 
GQBOKEYCBNAEGY-UHFFFAOYSA-N

>  <compound_id>  (505) 
216614

>  <target>  (505) 
Flavi_NS5_RdRp

>  <tags>  (505) 
[]

>  <inspirations>  (505) 
{P Ã— 2}

>  <subsites>  (505) 
None

>  <reference>  (505) 
z0211a

>  <SLURM_JOB_ID>  (505) 
nan

>  <SLURM_JOB_NAME>  (505) 
nan

>  <csv_name>  (505) 
nan

>  <scratch_subdir>  (505) 
nan

>  <fragmenstein_runtime>  (505) 
nan

>  <fragmenstein_outcome>  (505) 
nan

>  <fragmenstein_mode>  (505) 
nan

>  <fragmenstein_error>  (505) 
nan

>  <exports>  (505) 
nan

>  <Multi-SuCOS>  (505) 
nan

>  <merge_set>  (505) 
nan

$$$$
SUYMGKWGAVGXKD-VIFPVBQESA-N
     RDKit          3D

 22 23  0  0  0  0  0  0  0  0999 V2000
  -20.8192  -32.3392  -19.4902 C   0  0  0  0  0  0  0  0  0  0  0  0
  -21.6519  -32.5094  -20.6266 O   0  0  0  0  0  0  0  0  0  0  0  0
  -20.9750  -32.3813  -21.8945 C   0  0  1  0  0  0  0  0  0  0  0  0
  -19.8891  -33.4194  -21.9863 C   0  0  0  0  0  0  0  0  0  0  0  0
  -22.0655  -32.4529  -23.0120 C   0  0  0  0  0  0  0  0  0  0  0  0
  -21.8762  -32.9130  -24.4894 S   0  0  0  0  0  0  0  0  0  0  0  0
  -23.3052  -31.8451  -22.2294 N   0  0  0  0  0  0  0  0  0  0  0  0
  -24.7741  -31.3847  -22.6976 C   0  0  0  0  0  0  0  0  0  0  0  0
  -25.3120  -31.4602  -23.7105 O   0  0  0  0  0  0  0  0  0  0  0  0
  -25.2489  -30.9049  -21.4063 N   0  0  0  0  0  0  0  0  0  0  0  0
  -26.4674  -30.5004  -21.0145 C   0  0  0  0  0  0  0  0  0  0  0  0
  -27.6784  -30.2608  -21.6686 C   0  0  0  0  0  0  0  0  0  0  0  0
  -28.5579  -29.9141  -20.6587 C   0  0  0  0  0  0  0  0  0  0  0  0
  -27.8267  -29.9294  -19.4909 N   0  0  0  0  0  0  0  0  0  0  0  0
  -28.2446  -29.7816  -18.1398 C   0  0  0  0  0  0  0  0  0  0  0  0
  -29.5530  -29.7479  -17.8486 N   0  0  0  0  0  0  0  0  0  0  0  0
  -29.8451  -29.8776  -16.5430 C   0  0  0  0  0  0  0  0  0  0  0  0
  -28.9055  -30.0436  -15.5440 C   0  0  0  0  0  0  0  0  0  0  0  0
  -27.5919  -30.0563  -15.9417 C   0  0  0  0  0  0  0  0  0  0  0  0
  -26.4681  -30.3813  -15.0159 C   0  0  0  0  0  0  0  0  0  0  0  0
  -27.2562  -29.8622  -17.2180 N   0  0  0  0  0  0  0  0  0  0  0  0
  -26.5340  -30.2192  -19.7265 N   0  0  0  0  0  0  0  0  0  0  0  0
  1  2  1  0
  2  3  1  0
  3  4  1  6
  3  5  1  0
  5  6  2  0
  5  7  1  0
  7  8  1  0
  8  9  2  0
  8 10  1  0
 10 11  1  0
 11 12  1  0
 12 13  2  0
 13 14  1  0
 14 15  1  0
 15 16  2  0
 16 17  1  0
 17 18  2  0
 18 19  1  0
 19 20  1  0
 19 21  2  0
 14 22  1  0
 22 11  2  0
 21 15  1  0
M  END
>  <id>  (506) 
406328

>  <inchikey>  (506) 
SUYMGKWGAVGXKD-VIFPVBQESA-N

>  <alias>  (506) 
None

>  <smiles>  (506) 
CO[C@@H](C)C(=S)NC(=O)Nc1ccn(-c2nccc(C)n2)n1

>  <path>  (506) 
/opt/xchem-fragalysis-2/maxwin/RdRp_FFF/syndirella/mar_elabs/elabs_054/VRFUMBMWIYOQKS-UHFFFAOYSA-N/output/VRFUMBMWIYOQKS-UHFFFAOYSA-N-P9W3JB-4015-B/VRFUMBMWIYOQKS-UHFFFAOYSA-N-P9W3JB-4015-B.minimised.mol

>  <distance_score>  (506) 
1.26066

>  <energy_score>  (506) 
-50.870466

>  <compound>  (506) 
SUYMGKWGAVGXKD-UHFFFAOYSA-N

>  <compound_id>  (506) 
218344

>  <target>  (506) 
Flavi_NS5_RdRp

>  <tags>  (506) 
[]

>  <inspirations>  (506) 
{P Ã— 2}

>  <subsites>  (506) 
None

>  <reference>  (506) 
z0211a

>  <SLURM_JOB_ID>  (506) 
nan

>  <SLURM_JOB_NAME>  (506) 
nan

>  <csv_name>  (506) 
nan

>  <scratch_subdir>  (506) 
nan

>  <fragmenstein_runtime>  (506) 
nan

>  <fragmenstein_outcome>  (506) 
nan

>  <fragmenstein_mode>  (506) 
nan

>  <fragmenstein_error>  (506) 
nan

>  <exports>  (506) 
nan

>  <Multi-SuCOS>  (506) 
nan

>  <merge_set>  (506) 
nan

$$$$
QZDLEYDNNVOVFJ-JTQLQIEISA-N
     RDKit          3D

 22 23  0  0  0  0  0  0  0  0999 V2000
  -26.1353  -30.4270  -15.1653 C   0  0  0  0  0  0  0  0  0  0  0  0
  -27.3995  -30.0930  -15.8840 C   0  0  0  0  0  0  0  0  0  0  0  0
  -28.6341  -30.1718  -15.2939 C   0  0  0  0  0  0  0  0  0  0  0  0
  -29.7233  -29.9752  -16.1184 C   0  0  0  0  0  0  0  0  0  0  0  0
  -29.6619  -29.7134  -17.4274 N   0  0  0  0  0  0  0  0  0  0  0  0
  -28.4245  -29.7456  -17.9260 C   0  0  0  0  0  0  0  0  0  0  0  0
  -28.2641  -29.9086  -19.3154 N   0  0  0  0  0  0  0  0  0  0  0  0
  -29.0967  -29.5909  -20.3601 C   0  0  0  0  0  0  0  0  0  0  0  0
  -28.3591  -29.8121  -21.5028 C   0  0  0  0  0  0  0  0  0  0  0  0
  -27.2513  -30.5176  -21.0518 C   0  0  0  0  0  0  0  0  0  0  0  0
  -26.2528  -31.1477  -21.6670 N   0  0  0  0  0  0  0  0  0  0  0  0
  -25.6804  -30.9657  -23.0826 C   0  0  0  0  0  0  0  0  0  0  0  0
  -26.0336  -30.3061  -23.9415 O   0  0  0  0  0  0  0  0  0  0  0  0
  -24.4687  -31.9278  -22.9892 N   0  0  0  0  0  0  0  0  0  0  0  0
  -23.4538  -32.1678  -23.8818 N   0  0  0  0  0  0  0  0  0  0  0  0
  -23.8736  -33.1125  -24.9104 C   0  0  0  0  0  0  0  0  0  0  0  0
  -22.3730  -32.7107  -23.0424 C   0  0  0  0  0  0  0  0  0  0  0  0
  -20.9693  -32.5924  -23.5964 C   0  0  2  0  0  0  0  0  0  0  0  0
  -20.0479  -33.0243  -22.4571 C   0  0  0  0  0  0  0  0  0  0  0  0
  -20.6766  -31.2384  -23.9609 O   0  0  0  0  0  0  0  0  0  0  0  0
  -27.1973  -30.5983  -19.7403 N   0  0  0  0  0  0  0  0  0  0  0  0
  -27.2894  -29.8636  -17.1929 N   0  0  0  0  0  0  0  0  0  0  0  0
  1  2  1  0
  2  3  2  0
  3  4  1  0
  4  5  2  0
  5  6  1  0
  6  7  1  0
  7  8  1  0
  8  9  2  0
  9 10  1  0
 10 11  1  0
 11 12  1  0
 12 13  2  0
 12 14  1  0
 14 15  1  0
 15 16  1  0
 15 17  1  0
 17 18  1  0
 18 19  1  1
 18 20  1  0
 10 21  2  0
  6 22  2  0
 22  2  1  0
 21  7  1  0
M  END
>  <id>  (507) 
406333

>  <inchikey>  (507) 
QZDLEYDNNVOVFJ-JTQLQIEISA-N

>  <alias>  (507) 
None

>  <smiles>  (507) 
Cc1ccnc(-n2ccc(NC(=O)NN(C)C[C@H](C)O)n2)n1

>  <path>  (507) 
/opt/xchem-fragalysis-2/maxwin/RdRp_FFF/syndirella/mar_elabs/elabs_054/VRFUMBMWIYOQKS-UHFFFAOYSA-N/output/VRFUMBMWIYOQKS-UHFFFAOYSA-N-P9W3JB-4019-A/VRFUMBMWIYOQKS-UHFFFAOYSA-N-P9W3JB-4019-A.minimised.mol

>  <distance_score>  (507) 
1.14426

>  <energy_score>  (507) 
-31.299978

>  <compound>  (507) 
QZDLEYDNNVOVFJ-UHFFFAOYSA-N

>  <compound_id>  (507) 
218348

>  <target>  (507) 
Flavi_NS5_RdRp

>  <tags>  (507) 
[]

>  <inspirations>  (507) 
{P Ã— 2}

>  <subsites>  (507) 
None

>  <reference>  (507) 
z0211a

>  <SLURM_JOB_ID>  (507) 
nan

>  <SLURM_JOB_NAME>  (507) 
nan

>  <csv_name>  (507) 
nan

>  <scratch_subdir>  (507) 
nan

>  <fragmenstein_runtime>  (507) 
nan

>  <fragmenstein_outcome>  (507) 
nan

>  <fragmenstein_mode>  (507) 
nan

>  <fragmenstein_error>  (507) 
nan

>  <exports>  (507) 
nan

>  <Multi-SuCOS>  (507) 
nan

>  <merge_set>  (507) 
nan

$$$$
RTCJULCWKNNNPY-SECBINFHSA-N
     RDKit          3D

 22 23  0  0  0  0  0  0  0  0999 V2000
  -23.0133  -34.4553  -21.3798 C   0  0  0  0  0  0  0  0  0  0  0  0
  -21.8866  -34.4365  -22.4021 C   0  0  0  0  0  0  0  0  0  0  0  0
  -21.5655  -33.0652  -22.9959 C   0  0  1  0  0  0  0  0  0  0  0  0
  -20.4282  -33.1588  -23.8442 O   0  0  0  0  0  0  0  0  0  0  0  0
  -22.7166  -32.5309  -23.8644 C   0  0  0  0  0  0  0  0  0  0  0  0
  -22.7531  -32.7270  -25.0828 N   0  0  0  0  0  0  0  0  0  0  0  0
  -23.6496  -31.8036  -22.9437 N   0  0  0  0  0  0  0  0  0  0  0  0
  -25.0721  -31.1168  -23.1826 C   0  0  0  0  0  0  0  0  0  0  0  0
  -25.6859  -30.9470  -24.1443 O   0  0  0  0  0  0  0  0  0  0  0  0
  -25.4082  -30.8515  -21.7794 N   0  0  0  0  0  0  0  0  0  0  0  0
  -26.5518  -30.4221  -21.2161 C   0  0  0  0  0  0  0  0  0  0  0  0
  -27.7933  -30.0893  -21.7671 C   0  0  0  0  0  0  0  0  0  0  0  0
  -28.5889  -29.7863  -20.6827 C   0  0  0  0  0  0  0  0  0  0  0  0
  -27.7857  -29.9058  -19.5690 N   0  0  0  0  0  0  0  0  0  0  0  0
  -28.1371  -29.7791  -18.1955 C   0  0  0  0  0  0  0  0  0  0  0  0
  -29.4350  -29.6886  -17.8615 N   0  0  0  0  0  0  0  0  0  0  0  0
  -29.7000  -29.8087  -16.5500 C   0  0  0  0  0  0  0  0  0  0  0  0
  -28.7407  -30.0027  -15.5786 C   0  0  0  0  0  0  0  0  0  0  0  0
  -27.4386  -30.0630  -16.0161 C   0  0  0  0  0  0  0  0  0  0  0  0
  -26.3073  -30.4066  -15.1071 C   0  0  0  0  0  0  0  0  0  0  0  0
  -27.1260  -29.9075  -17.3069 N   0  0  0  0  0  0  0  0  0  0  0  0
  -26.5262  -30.2682  -19.9026 N   0  0  0  0  0  0  0  0  0  0  0  0
  1  2  1  0
  2  3  1  0
  3  4  1  6
  3  5  1  0
  5  6  2  3
  5  7  1  0
  7  8  1  0
  8  9  2  0
  8 10  1  0
 10 11  1  0
 11 12  1  0
 12 13  2  0
 13 14  1  0
 14 15  1  0
 15 16  2  0
 16 17  1  0
 17 18  2  0
 18 19  1  0
 19 20  1  0
 19 21  2  0
 14 22  1  0
 22 11  2  0
 21 15  1  0
M  END
>  <id>  (508) 
406336

>  <inchikey>  (508) 
RTCJULCWKNNNPY-SECBINFHSA-N

>  <alias>  (508) 
None

>  <smiles>  (508) 
CC[C@@H](O)C(=N)NC(=O)Nc1ccn(-c2nccc(C)n2)n1

>  <path>  (508) 
/opt/xchem-fragalysis-2/maxwin/RdRp_FFF/syndirella/mar_elabs/elabs_054/VRFUMBMWIYOQKS-UHFFFAOYSA-N/output/VRFUMBMWIYOQKS-UHFFFAOYSA-N-P9W3JB-4023-B/VRFUMBMWIYOQKS-UHFFFAOYSA-N-P9W3JB-4023-B.minimised.mol

>  <distance_score>  (508) 
1.487984

>  <energy_score>  (508) 
-4.949048

>  <compound>  (508) 
RTCJULCWKNNNPY-UHFFFAOYSA-N

>  <compound_id>  (508) 
218352

>  <target>  (508) 
Flavi_NS5_RdRp

>  <tags>  (508) 
[]

>  <inspirations>  (508) 
{P Ã— 2}

>  <subsites>  (508) 
None

>  <reference>  (508) 
z0211a

>  <SLURM_JOB_ID>  (508) 
nan

>  <SLURM_JOB_NAME>  (508) 
nan

>  <csv_name>  (508) 
nan

>  <scratch_subdir>  (508) 
nan

>  <fragmenstein_runtime>  (508) 
nan

>  <fragmenstein_outcome>  (508) 
nan

>  <fragmenstein_mode>  (508) 
nan

>  <fragmenstein_error>  (508) 
nan

>  <exports>  (508) 
nan

>  <Multi-SuCOS>  (508) 
nan

>  <merge_set>  (508) 
nan

$$$$
SVVKYFRGBLXUQN-UHFFFAOYSA-N
     RDKit          3D

 22 23  0  0  0  0  0  0  0  0999 V2000
  -30.5146  -30.1820  -16.3071 C   0  0  0  0  0  0  0  0  0  0  0  0
  -29.1163  -29.8582  -16.6533 C   0  0  0  0  0  0  0  0  0  0  0  0
  -28.1122  -29.9204  -15.7067 C   0  0  0  0  0  0  0  0  0  0  0  0
  -26.8328  -29.8180  -16.1807 C   0  0  0  0  0  0  0  0  0  0  0  0
  -26.5595  -29.7062  -17.4846 N   0  0  0  0  0  0  0  0  0  0  0  0
  -27.6175  -29.6966  -18.3343 C   0  0  0  0  0  0  0  0  0  0  0  0
  -27.3710  -29.9177  -19.7116 N   0  0  0  0  0  0  0  0  0  0  0  0
  -28.2666  -29.8882  -20.7625 C   0  0  0  0  0  0  0  0  0  0  0  0
  -27.5526  -30.2347  -21.8886 C   0  0  0  0  0  0  0  0  0  0  0  0
  -26.2725  -30.5171  -21.4106 C   0  0  0  0  0  0  0  0  0  0  0  0
  -25.1376  -30.9036  -22.0037 N   0  0  0  0  0  0  0  0  0  0  0  0
  -24.8508  -31.2201  -23.3958 C   0  0  0  0  0  0  0  0  0  0  0  0
  -25.5138  -31.1406  -24.3330 O   0  0  0  0  0  0  0  0  0  0  0  0
  -23.3878  -31.7980  -23.1870 N   0  0  0  0  0  0  0  0  0  0  0  0
  -22.4487  -32.5048  -24.1021 C   0  0  0  0  0  0  0  0  0  0  0  0
  -22.5793  -32.9109  -25.2593 N   0  0  0  0  0  0  0  0  0  0  0  0
  -21.1530  -32.8039  -23.3054 C   0  0  0  0  0  0  0  0  0  0  0  0
  -21.4351  -33.9388  -22.3217 C   0  0  0  0  0  0  0  0  0  0  0  0
  -20.5833  -31.5990  -22.5529 C   0  0  0  0  0  0  0  0  0  0  0  0
  -20.1836  -33.2183  -24.2609 O   0  0  0  0  0  0  0  0  0  0  0  0
  -26.1506  -30.3083  -20.1110 N   0  0  0  0  0  0  0  0  0  0  0  0
  -28.8992  -29.6865  -17.9600 N   0  0  0  0  0  0  0  0  0  0  0  0
  1  2  1  0
  2  3  2  0
  3  4  1  0
  4  5  2  0
  5  6  1  0
  6  7  1  0
  7  8  1  0
  8  9  2  0
  9 10  1  0
 10 11  1  0
 11 12  1  0
 12 13  2  0
 12 14  1  0
 14 15  1  0
 15 16  2  3
 15 17  1  0
 17 18  1  0
 17 19  1  0
 17 20  1  0
 10 21  2  0
  6 22  2  0
 22  2  1  0
 21  7  1  0
M  END
>  <id>  (509) 
406343

>  <inchikey>  (509) 
SVVKYFRGBLXUQN-UHFFFAOYSA-N

>  <alias>  (509) 
None

>  <smiles>  (509) 
Cc1ccnc(-n2ccc(NC(=O)NC(=N)C(C)(C)O)n2)n1

>  <path>  (509) 
/opt/xchem-fragalysis-2/maxwin/RdRp_FFF/syndirella/mar_elabs/elabs_054/VRFUMBMWIYOQKS-UHFFFAOYSA-N/output/VRFUMBMWIYOQKS-UHFFFAOYSA-N-P9W3JB-4032-A/VRFUMBMWIYOQKS-UHFFFAOYSA-N-P9W3JB-4032-A.minimised.mol

>  <distance_score>  (509) 
1.390854

>  <energy_score>  (509) 
-43.847233

>  <compound>  (509) 
SVVKYFRGBLXUQN-UHFFFAOYSA-N

>  <compound_id>  (509) 
218361

>  <target>  (509) 
Flavi_NS5_RdRp

>  <tags>  (509) 
[]

>  <inspirations>  (509) 
{P Ã— 2}

>  <subsites>  (509) 
None

>  <reference>  (509) 
z0211a

>  <SLURM_JOB_ID>  (509) 
nan

>  <SLURM_JOB_NAME>  (509) 
nan

>  <csv_name>  (509) 
nan

>  <scratch_subdir>  (509) 
nan

>  <fragmenstein_runtime>  (509) 
nan

>  <fragmenstein_outcome>  (509) 
nan

>  <fragmenstein_mode>  (509) 
nan

>  <fragmenstein_error>  (509) 
nan

>  <exports>  (509) 
nan

>  <Multi-SuCOS>  (509) 
nan

>  <merge_set>  (509) 
nan

$$$$
OPWWJUGODUTCQO-VIFPVBQESA-N
     RDKit          3D

 22 23  0  0  0  0  0  0  0  0999 V2000
  -20.0798  -30.9919  -21.2927 C   0  0  0  0  0  0  0  0  0  0  0  0
  -21.1916  -31.6203  -21.9078 O   0  0  0  0  0  0  0  0  0  0  0  0
  -20.9465  -31.9942  -23.2763 C   0  0  1  0  0  0  0  0  0  0  0  0
  -20.2741  -33.3262  -23.2761 C   0  0  0  0  0  0  0  0  0  0  0  0
  -22.2634  -32.1745  -24.0413 C   0  0  0  0  0  0  0  0  0  0  0  0
  -22.3456  -32.5976  -25.1959 N   0  0  0  0  0  0  0  0  0  0  0  0
  -23.2816  -31.6490  -23.1155 N   0  0  0  0  0  0  0  0  0  0  0  0
  -24.8001  -31.3392  -23.2935 C   0  0  0  0  0  0  0  0  0  0  0  0
  -25.5159  -31.5206  -24.1746 O   0  0  0  0  0  0  0  0  0  0  0  0
  -25.0592  -30.8318  -21.9547 N   0  0  0  0  0  0  0  0  0  0  0  0
  -26.2090  -30.5180  -21.3452 C   0  0  0  0  0  0  0  0  0  0  0  0
  -27.5060  -30.3220  -21.8226 C   0  0  0  0  0  0  0  0  0  0  0  0
  -28.2309  -29.9719  -20.7062 C   0  0  0  0  0  0  0  0  0  0  0  0
  -27.3323  -29.9356  -19.6581 N   0  0  0  0  0  0  0  0  0  0  0  0
  -27.5956  -29.7051  -18.2858 C   0  0  0  0  0  0  0  0  0  0  0  0
  -26.5512  -29.7062  -17.4206 N   0  0  0  0  0  0  0  0  0  0  0  0
  -26.8427  -29.8285  -16.1221 C   0  0  0  0  0  0  0  0  0  0  0  0
  -28.1285  -29.9370  -15.6669 C   0  0  0  0  0  0  0  0  0  0  0  0
  -29.1189  -29.8713  -16.6273 C   0  0  0  0  0  0  0  0  0  0  0  0
  -30.5235  -30.1892  -16.3053 C   0  0  0  0  0  0  0  0  0  0  0  0
  -28.8827  -29.6992  -17.9293 N   0  0  0  0  0  0  0  0  0  0  0  0
  -26.0927  -30.2605  -20.0535 N   0  0  0  0  0  0  0  0  0  0  0  0
  1  2  1  0
  2  3  1  0
  3  4  1  1
  3  5  1  0
  5  6  2  3
  5  7  1  0
  7  8  1  0
  8  9  2  0
  8 10  1  0
 10 11  1  0
 11 12  1  0
 12 13  2  0
 13 14  1  0
 14 15  1  0
 15 16  2  0
 16 17  1  0
 17 18  2  0
 18 19  1  0
 19 20  1  0
 19 21  2  0
 14 22  1  0
 22 11  2  0
 21 15  1  0
M  END
>  <id>  (510) 
406362

>  <inchikey>  (510) 
OPWWJUGODUTCQO-VIFPVBQESA-N

>  <alias>  (510) 
None

>  <smiles>  (510) 
CO[C@@H](C)C(=N)NC(=O)Nc1ccn(-c2nccc(C)n2)n1

>  <path>  (510) 
/opt/xchem-fragalysis-2/maxwin/RdRp_FFF/syndirella/mar_elabs/elabs_054/VRFUMBMWIYOQKS-UHFFFAOYSA-N/output/VRFUMBMWIYOQKS-UHFFFAOYSA-N-P9W3JB-4072-B/VRFUMBMWIYOQKS-UHFFFAOYSA-N-P9W3JB-4072-B.minimised.mol

>  <distance_score>  (510) 
1.331602

>  <energy_score>  (510) 
-10.724709

>  <compound>  (510) 
OPWWJUGODUTCQO-UHFFFAOYSA-N

>  <compound_id>  (510) 
218401

>  <target>  (510) 
Flavi_NS5_RdRp

>  <tags>  (510) 
[]

>  <inspirations>  (510) 
{P Ã— 2}

>  <subsites>  (510) 
None

>  <reference>  (510) 
z0211a

>  <SLURM_JOB_ID>  (510) 
nan

>  <SLURM_JOB_NAME>  (510) 
nan

>  <csv_name>  (510) 
nan

>  <scratch_subdir>  (510) 
nan

>  <fragmenstein_runtime>  (510) 
nan

>  <fragmenstein_outcome>  (510) 
nan

>  <fragmenstein_mode>  (510) 
nan

>  <fragmenstein_error>  (510) 
nan

>  <exports>  (510) 
nan

>  <Multi-SuCOS>  (510) 
nan

>  <merge_set>  (510) 
nan

$$$$
MRGJJZCRRCAVJE-MRVPVSSYSA-N
     RDKit          3D

 22 23  0  0  0  0  0  0  0  0999 V2000
  -26.2065  -30.5164  -14.9759 C   0  0  0  0  0  0  0  0  0  0  0  0
  -27.4043  -30.1583  -15.7921 C   0  0  0  0  0  0  0  0  0  0  0  0
  -28.6787  -30.1597  -15.2849 C   0  0  0  0  0  0  0  0  0  0  0  0
  -29.7013  -29.9471  -16.1881 C   0  0  0  0  0  0  0  0  0  0  0  0
  -29.5331  -29.7251  -17.4968 N   0  0  0  0  0  0  0  0  0  0  0  0
  -28.2587  -29.7696  -17.9026 C   0  0  0  0  0  0  0  0  0  0  0  0
  -27.9855  -29.8840  -19.2844 N   0  0  0  0  0  0  0  0  0  0  0  0
  -28.8136  -29.6764  -20.3639 C   0  0  0  0  0  0  0  0  0  0  0  0
  -28.0519  -29.9425  -21.4807 C   0  0  0  0  0  0  0  0  0  0  0  0
  -26.8465  -30.4388  -20.9742 C   0  0  0  0  0  0  0  0  0  0  0  0
  -25.7861  -30.9815  -21.5901 N   0  0  0  0  0  0  0  0  0  0  0  0
  -25.4269  -31.0476  -23.0852 C   0  0  0  0  0  0  0  0  0  0  0  0
  -25.9433  -30.5861  -23.9862 O   0  0  0  0  0  0  0  0  0  0  0  0
  -24.2224  -32.0055  -23.0095 N   0  0  0  0  0  0  0  0  0  0  0  0
  -23.3684  -32.4997  -24.0397 C   0  0  0  0  0  0  0  0  0  0  0  0
  -21.9525  -32.0622  -23.7069 C   0  0  1  0  0  0  0  0  0  0  0  0
  -21.7124  -32.2853  -22.2950 O   0  0  0  0  0  0  0  0  0  0  0  0
  -20.9546  -32.8655  -24.4895 C   0  0  0  0  0  0  0  0  0  0  0  0
  -19.9252  -33.3112  -24.0113 O   0  0  0  0  0  0  0  0  0  0  0  0
  -21.2092  -33.0628  -25.7951 O   0  0  0  0  0  0  0  0  0  0  0  0
  -26.7859  -30.3665  -19.6595 N   0  0  0  0  0  0  0  0  0  0  0  0
  -27.1880  -29.9130  -17.0842 N   0  0  0  0  0  0  0  0  0  0  0  0
  1  2  1  0
  2  3  2  0
  3  4  1  0
  4  5  2  0
  5  6  1  0
  6  7  1  0
  7  8  1  0
  8  9  2  0
  9 10  1  0
 10 11  1  0
 11 12  1  0
 12 13  2  0
 12 14  1  0
 14 15  1  0
 15 16  1  0
 16 17  1  1
 16 18  1  0
 18 19  2  0
 18 20  1  0
 10 21  2  0
  6 22  2  0
 22  2  1  0
 21  7  1  0
M  END
>  <id>  (511) 
406371

>  <inchikey>  (511) 
MRGJJZCRRCAVJE-MRVPVSSYSA-N

>  <alias>  (511) 
None

>  <smiles>  (511) 
Cc1ccnc(-n2ccc(NC(=O)NC[C@@H](O)C(=O)O)n2)n1

>  <path>  (511) 
/opt/xchem-fragalysis-2/maxwin/RdRp_FFF/syndirella/mar_elabs/elabs_054/VRFUMBMWIYOQKS-UHFFFAOYSA-N/output/VRFUMBMWIYOQKS-UHFFFAOYSA-N-P9W3JB-4086-B/VRFUMBMWIYOQKS-UHFFFAOYSA-N-P9W3JB-4086-B.minimised.mol

>  <distance_score>  (511) 
1.019588

>  <energy_score>  (511) 
-19.740581

>  <compound>  (511) 
MRGJJZCRRCAVJE-UHFFFAOYSA-N

>  <compound_id>  (511) 
218415

>  <target>  (511) 
Flavi_NS5_RdRp

>  <tags>  (511) 
[]

>  <inspirations>  (511) 
{P Ã— 2}

>  <subsites>  (511) 
None

>  <reference>  (511) 
z0211a

>  <SLURM_JOB_ID>  (511) 
nan

>  <SLURM_JOB_NAME>  (511) 
nan

>  <csv_name>  (511) 
nan

>  <scratch_subdir>  (511) 
nan

>  <fragmenstein_runtime>  (511) 
nan

>  <fragmenstein_outcome>  (511) 
nan

>  <fragmenstein_mode>  (511) 
nan

>  <fragmenstein_error>  (511) 
nan

>  <exports>  (511) 
nan

>  <Multi-SuCOS>  (511) 
nan

>  <merge_set>  (511) 
nan

$$$$
GAEWVGDBVLQIIJ-SECBINFHSA-N
     RDKit          3D

 20 21  0  0  0  0  0  0  0  0999 V2000
  -26.2208  -30.5104  -14.9515 C   0  0  0  0  0  0  0  0  0  0  0  0
  -27.4195  -30.1559  -15.7672 C   0  0  0  0  0  0  0  0  0  0  0  0
  -28.6963  -30.1676  -15.2680 C   0  0  0  0  0  0  0  0  0  0  0  0
  -29.7163  -29.9620  -16.1770 C   0  0  0  0  0  0  0  0  0  0  0  0
  -29.5445  -29.7384  -17.4852 N   0  0  0  0  0  0  0  0  0  0  0  0
  -28.2671  -29.7702  -17.8806 C   0  0  0  0  0  0  0  0  0  0  0  0
  -27.9763  -29.8899  -19.2572 N   0  0  0  0  0  0  0  0  0  0  0  0
  -28.7927  -29.7165  -20.3518 C   0  0  0  0  0  0  0  0  0  0  0  0
  -28.0047  -29.9741  -21.4534 C   0  0  0  0  0  0  0  0  0  0  0  0
  -26.7877  -30.4149  -20.9211 C   0  0  0  0  0  0  0  0  0  0  0  0
  -25.6814  -30.8969  -21.5063 N   0  0  0  0  0  0  0  0  0  0  0  0
  -25.3270  -31.0482  -22.9936 C   0  0  0  0  0  0  0  0  0  0  0  0
  -25.8923  -30.7165  -23.9203 O   0  0  0  0  0  0  0  0  0  0  0  0
  -24.0316  -31.8706  -22.8585 N   0  0  0  0  0  0  0  0  0  0  0  0
  -23.1420  -32.3573  -23.8545 C   0  0  0  0  0  0  0  0  0  0  0  0
  -21.7835  -32.6452  -23.2355 C   0  0  1  0  0  0  0  0  0  0  0  0
  -20.7803  -32.9425  -24.3223 C   0  0  0  0  0  0  0  0  0  0  0  0
  -21.3102  -31.5506  -22.4513 O   0  0  0  0  0  0  0  0  0  0  0  0
  -26.7579  -30.3410  -19.6075 N   0  0  0  0  0  0  0  0  0  0  0  0
  -27.2005  -29.9015  -17.0556 N   0  0  0  0  0  0  0  0  0  0  0  0
  1  2  1  0
  2  3  2  0
  3  4  1  0
  4  5  2  0
  5  6  1  0
  6  7  1  0
  7  8  1  0
  8  9  2  0
  9 10  1  0
 10 11  1  0
 11 12  1  0
 12 13  2  0
 12 14  1  0
 14 15  1  0
 15 16  1  0
 16 17  1  6
 16 18  1  0
 10 19  2  0
  6 20  2  0
 20  2  1  0
 19  7  1  0
M  END
>  <id>  (512) 
406641

>  <inchikey>  (512) 
GAEWVGDBVLQIIJ-SECBINFHSA-N

>  <alias>  (512) 
None

>  <smiles>  (512) 
Cc1ccnc(-n2ccc(NC(=O)NC[C@@H](C)O)n2)n1

>  <path>  (512) 
/opt/xchem-fragalysis-2/maxwin/RdRp_FFF/syndirella/mar_elabs/elabs_054/VRFUMBMWIYOQKS-UHFFFAOYSA-N/output/VRFUMBMWIYOQKS-UHFFFAOYSA-N-Df6TQP-14-B/VRFUMBMWIYOQKS-UHFFFAOYSA-N-Df6TQP-14-B.minimised.mol

>  <distance_score>  (512) 
0.99043

>  <energy_score>  (512) 
-33.178073

>  <compound>  (512) 
GAEWVGDBVLQIIJ-UHFFFAOYSA-N

>  <compound_id>  (512) 
54696

>  <target>  (512) 
Flavi_NS5_RdRp

>  <tags>  (512) 
[]

>  <inspirations>  (512) 
{P Ã— 2}

>  <subsites>  (512) 
None

>  <reference>  (512) 
z0211a

>  <SLURM_JOB_ID>  (512) 
nan

>  <SLURM_JOB_NAME>  (512) 
nan

>  <csv_name>  (512) 
nan

>  <scratch_subdir>  (512) 
nan

>  <fragmenstein_runtime>  (512) 
nan

>  <fragmenstein_outcome>  (512) 
nan

>  <fragmenstein_mode>  (512) 
nan

>  <fragmenstein_error>  (512) 
nan

>  <exports>  (512) 
nan

>  <Multi-SuCOS>  (512) 
nan

>  <merge_set>  (512) 
nan

$$$$
KYUVYEYFGTVRDE-MRVPVSSYSA-N
     RDKit          3D

 20 22  0  0  0  0  0  0  0  0999 V2000
  -25.6461  -30.8807  -23.8505 O   0  0  0  0  0  0  0  0  0  0  0  0
  -25.1603  -31.3368  -22.9236 C   0  0  0  0  0  0  0  0  0  0  0  0
  -25.5498  -31.2282  -21.4407 N   0  0  0  0  0  0  0  0  0  0  0  0
  -26.6133  -30.6422  -20.8579 C   0  0  0  0  0  0  0  0  0  0  0  0
  -27.7912  -30.1468  -21.4398 C   0  0  0  0  0  0  0  0  0  0  0  0
  -28.5917  -29.8023  -20.3743 C   0  0  0  0  0  0  0  0  0  0  0  0
  -27.8232  -29.9901  -19.2459 N   0  0  0  0  0  0  0  0  0  0  0  0
  -28.1939  -29.8158  -17.8888 C   0  0  0  0  0  0  0  0  0  0  0  0
  -27.1963  -29.8857  -16.9713 N   0  0  0  0  0  0  0  0  0  0  0  0
  -27.5491  -30.0237  -15.6926 C   0  0  0  0  0  0  0  0  0  0  0  0
  -28.8584  -30.0668  -15.3016 C   0  0  0  0  0  0  0  0  0  0  0  0
  -29.7975  -29.9324  -16.3006 C   0  0  0  0  0  0  0  0  0  0  0  0
  -29.5040  -29.7719  -17.5962 N   0  0  0  0  0  0  0  0  0  0  0  0
  -26.6135  -30.5119  -19.5421 N   0  0  0  0  0  0  0  0  0  0  0  0
  -23.9438  -32.2253  -22.7955 N   0  0  0  0  0  0  0  0  0  0  0  0
  -23.1034  -32.8320  -23.8198 C   0  0  0  0  0  0  0  0  0  0  0  0
  -21.7807  -33.2754  -23.2247 C   0  0  1  0  0  0  0  0  0  0  0  0
  -20.7388  -33.0535  -24.1711 O   0  0  0  0  0  0  0  0  0  0  0  0
  -21.7217  -32.3041  -22.0967 C   0  0  0  0  0  0  0  0  0  0  0  0
  -22.7171  -31.4283  -22.6186 O   0  0  0  0  0  0  0  0  0  0  0  0
  1  2  2  0
  2  3  1  0
  3  4  1  0
  4  5  1  0
  5  6  2  0
  6  7  1  0
  7  8  1  0
  8  9  2  0
  9 10  1  0
 10 11  2  0
 11 12  1  0
 12 13  2  0
  7 14  1  0
  2 15  1  0
 15 16  1  0
 16 17  1  0
 17 18  1  6
 17 19  1  0
 19 20  1  0
 14  4  2  0
 20 15  1  0
 13  8  1  0
M  END
>  <id>  (513) 
406666

>  <inchikey>  (513) 
KYUVYEYFGTVRDE-MRVPVSSYSA-N

>  <alias>  (513) 
None

>  <smiles>  (513) 
O=C(Nc1ccn(-c2ncccn2)n1)N1C[C@@H](O)CO1

>  <path>  (513) 
/opt/xchem-fragalysis-2/maxwin/RdRp_FFF/syndirella/mar_elabs/elabs_054/VRFUMBMWIYOQKS-UHFFFAOYSA-N/output/VRFUMBMWIYOQKS-UHFFFAOYSA-N-Df6TQP-84-B/VRFUMBMWIYOQKS-UHFFFAOYSA-N-Df6TQP-84-B.minimised.mol

>  <distance_score>  (513) 
1.06277

>  <energy_score>  (513) 
-7.457945

>  <compound>  (513) 
KYUVYEYFGTVRDE-UHFFFAOYSA-N

>  <compound_id>  (513) 
215918

>  <target>  (513) 
Flavi_NS5_RdRp

>  <tags>  (513) 
[]

>  <inspirations>  (513) 
{P Ã— 2}

>  <subsites>  (513) 
None

>  <reference>  (513) 
z0211a

>  <SLURM_JOB_ID>  (513) 
nan

>  <SLURM_JOB_NAME>  (513) 
nan

>  <csv_name>  (513) 
nan

>  <scratch_subdir>  (513) 
nan

>  <fragmenstein_runtime>  (513) 
nan

>  <fragmenstein_outcome>  (513) 
nan

>  <fragmenstein_mode>  (513) 
nan

>  <fragmenstein_error>  (513) 
nan

>  <exports>  (513) 
nan

>  <Multi-SuCOS>  (513) 
nan

>  <merge_set>  (513) 
nan

$$$$
NEMCJEAHQDONQD-QMMMGPOBSA-N
     RDKit          3D

 20 21  0  0  0  0  0  0  0  0999 V2000
  -25.8817  -30.7466  -23.7560 O   0  0  0  0  0  0  0  0  0  0  0  0
  -25.2596  -30.9374  -22.8278 C   0  0  0  0  0  0  0  0  0  0  0  0
  -23.8329  -31.4829  -22.6847 N   0  0  0  0  0  0  0  0  0  0  0  0
  -22.8682  -31.8092  -23.6757 C   0  0  0  0  0  0  0  0  0  0  0  0
  -21.7826  -32.6603  -23.0612 C   0  0  2  0  0  0  0  0  0  0  0  0
  -20.9703  -31.8668  -22.1898 O   0  0  0  0  0  0  0  0  0  0  0  0
  -20.9629  -33.3136  -24.1569 C   0  0  0  0  0  0  0  0  0  0  0  0
  -20.7367  -32.5154  -25.3104 O   0  0  0  0  0  0  0  0  0  0  0  0
  -25.6311  -30.8225  -21.3433 N   0  0  0  0  0  0  0  0  0  0  0  0
  -26.7545  -30.3837  -20.7615 C   0  0  0  0  0  0  0  0  0  0  0  0
  -27.9988  -30.0740  -21.3209 C   0  0  0  0  0  0  0  0  0  0  0  0
  -28.8011  -29.7972  -20.2390 C   0  0  0  0  0  0  0  0  0  0  0  0
  -27.9810  -29.8660  -19.1336 N   0  0  0  0  0  0  0  0  0  0  0  0
  -28.3261  -29.7608  -17.7700 C   0  0  0  0  0  0  0  0  0  0  0  0
  -27.2988  -29.7940  -16.8821 N   0  0  0  0  0  0  0  0  0  0  0  0
  -27.6054  -29.9971  -15.6033 C   0  0  0  0  0  0  0  0  0  0  0  0
  -28.8993  -30.1236  -15.1858 C   0  0  0  0  0  0  0  0  0  0  0  0
  -29.8707  -30.0254  -16.1580 C   0  0  0  0  0  0  0  0  0  0  0  0
  -29.6262  -29.8155  -17.4521 N   0  0  0  0  0  0  0  0  0  0  0  0
  -26.7162  -30.1865  -19.4594 N   0  0  0  0  0  0  0  0  0  0  0  0
  1  2  2  0
  2  3  1  0
  3  4  1  0
  4  5  1  0
  5  6  1  6
  5  7  1  0
  7  8  1  0
  2  9  1  0
  9 10  1  0
 10 11  1  0
 11 12  2  0
 12 13  1  0
 13 14  1  0
 14 15  2  0
 15 16  1  0
 16 17  2  0
 17 18  1  0
 18 19  2  0
 13 20  1  0
 20 10  2  0
 19 14  1  0
M  END
>  <id>  (514) 
406675

>  <inchikey>  (514) 
NEMCJEAHQDONQD-QMMMGPOBSA-N

>  <alias>  (514) 
None

>  <smiles>  (514) 
O=C(NC[C@H](O)CO)Nc1ccn(-c2ncccn2)n1

>  <path>  (514) 
/opt/xchem-fragalysis-2/maxwin/RdRp_FFF/syndirella/mar_elabs/elabs_054/VRFUMBMWIYOQKS-UHFFFAOYSA-N/output/VRFUMBMWIYOQKS-UHFFFAOYSA-N-Df6TQP-102-A/VRFUMBMWIYOQKS-UHFFFAOYSA-N-Df6TQP-102-A.minimised.mol

>  <distance_score>  (514) 
0.977642

>  <energy_score>  (514) 
-20.014706

>  <compound>  (514) 
NEMCJEAHQDONQD-UHFFFAOYSA-N

>  <compound_id>  (514) 
215921

>  <target>  (514) 
Flavi_NS5_RdRp

>  <tags>  (514) 
[]

>  <inspirations>  (514) 
{P Ã— 2}

>  <subsites>  (514) 
None

>  <reference>  (514) 
z0211a

>  <SLURM_JOB_ID>  (514) 
nan

>  <SLURM_JOB_NAME>  (514) 
nan

>  <csv_name>  (514) 
nan

>  <scratch_subdir>  (514) 
nan

>  <fragmenstein_runtime>  (514) 
nan

>  <fragmenstein_outcome>  (514) 
nan

>  <fragmenstein_mode>  (514) 
nan

>  <fragmenstein_error>  (514) 
nan

>  <exports>  (514) 
nan

>  <Multi-SuCOS>  (514) 
nan

>  <merge_set>  (514) 
nan

$$$$
FJFSTFQXNSMWLW-VIFPVBQESA-N
     RDKit          3D

 20 21  0  0  0  0  0  0  0  0999 V2000
  -21.8276  -33.9256  -21.6646 C   0  0  0  0  0  0  0  0  0  0  0  0
  -21.4914  -32.5932  -22.0232 O   0  0  0  0  0  0  0  0  0  0  0  0
  -21.7283  -32.2098  -23.3901 C   0  0  1  0  0  0  0  0  0  0  0  0
  -20.8536  -32.9886  -24.3514 C   0  0  0  0  0  0  0  0  0  0  0  0
  -23.1875  -32.3455  -23.8172 C   0  0  0  0  0  0  0  0  0  0  0  0
  -24.0487  -31.8439  -22.8052 N   0  0  0  0  0  0  0  0  0  0  0  0
  -25.3402  -31.0173  -22.9160 C   0  0  0  0  0  0  0  0  0  0  0  0
  -25.9269  -30.6920  -23.8312 O   0  0  0  0  0  0  0  0  0  0  0  0
  -25.6566  -30.8489  -21.4206 N   0  0  0  0  0  0  0  0  0  0  0  0
  -26.7453  -30.3553  -20.8131 C   0  0  0  0  0  0  0  0  0  0  0  0
  -27.9853  -29.9944  -21.3553 C   0  0  0  0  0  0  0  0  0  0  0  0
  -28.7746  -29.7324  -20.2606 C   0  0  0  0  0  0  0  0  0  0  0  0
  -27.9508  -29.8484  -19.1620 N   0  0  0  0  0  0  0  0  0  0  0  0
  -28.2910  -29.7603  -17.7941 C   0  0  0  0  0  0  0  0  0  0  0  0
  -27.2643  -29.8144  -16.9074 N   0  0  0  0  0  0  0  0  0  0  0  0
  -27.5739  -30.0104  -15.6269 C   0  0  0  0  0  0  0  0  0  0  0  0
  -28.8693  -30.1196  -15.2068 C   0  0  0  0  0  0  0  0  0  0  0  0
  -29.8398  -30.0083  -16.1780 C   0  0  0  0  0  0  0  0  0  0  0  0
  -29.5919  -29.7986  -17.4724 N   0  0  0  0  0  0  0  0  0  0  0  0
  -26.6968  -30.2006  -19.5040 N   0  0  0  0  0  0  0  0  0  0  0  0
  1  2  1  0
  2  3  1  0
  3  4  1  6
  3  5  1  0
  5  6  1  0
  6  7  1  0
  7  8  2  0
  7  9  1  0
  9 10  1  0
 10 11  1  0
 11 12  2  0
 12 13  1  0
 13 14  1  0
 14 15  2  0
 15 16  1  0
 16 17  2  0
 17 18  1  0
 18 19  2  0
 13 20  1  0
 20 10  2  0
 19 14  1  0
M  END
>  <id>  (515) 
406682

>  <inchikey>  (515) 
FJFSTFQXNSMWLW-VIFPVBQESA-N

>  <alias>  (515) 
None

>  <smiles>  (515) 
CO[C@@H](C)CNC(=O)Nc1ccn(-c2ncccn2)n1

>  <path>  (515) 
/opt/xchem-fragalysis-2/maxwin/RdRp_FFF/syndirella/mar_elabs/elabs_054/VRFUMBMWIYOQKS-UHFFFAOYSA-N/output/VRFUMBMWIYOQKS-UHFFFAOYSA-N-Df6TQP-108-B/VRFUMBMWIYOQKS-UHFFFAOYSA-N-Df6TQP-108-B.minimised.mol

>  <distance_score>  (515) 
0.988013

>  <energy_score>  (515) 
-9.228321

>  <compound>  (515) 
FJFSTFQXNSMWLW-UHFFFAOYSA-N

>  <compound_id>  (515) 
215927

>  <target>  (515) 
Flavi_NS5_RdRp

>  <tags>  (515) 
[]

>  <inspirations>  (515) 
{P Ã— 2}

>  <subsites>  (515) 
None

>  <reference>  (515) 
z0211a

>  <SLURM_JOB_ID>  (515) 
nan

>  <SLURM_JOB_NAME>  (515) 
nan

>  <csv_name>  (515) 
nan

>  <scratch_subdir>  (515) 
nan

>  <fragmenstein_runtime>  (515) 
nan

>  <fragmenstein_outcome>  (515) 
nan

>  <fragmenstein_mode>  (515) 
nan

>  <fragmenstein_error>  (515) 
nan

>  <exports>  (515) 
nan

>  <Multi-SuCOS>  (515) 
nan

>  <merge_set>  (515) 
nan

$$$$
UAKGGXWDHGXTCP-ZETCQYMHSA-N
     RDKit          3D

 20 21  0  0  0  0  0  0  0  0999 V2000
  -20.0056  -32.8228  -22.0590 C   0  0  0  0  0  0  0  0  0  0  0  0
  -21.3733  -33.4108  -21.8097 C   0  0  2  0  0  0  0  0  0  0  0  0
  -21.2696  -34.8179  -21.6776 O   0  0  0  0  0  0  0  0  0  0  0  0
  -22.4030  -32.9852  -22.8995 C   0  0  0  0  0  0  0  0  0  0  0  0
  -22.3037  -33.3713  -24.4077 S   0  0  0  0  0  0  0  0  0  0  0  0
  -23.5161  -32.2174  -22.0573 N   0  0  0  0  0  0  0  0  0  0  0  0
  -24.8848  -31.4714  -22.4755 C   0  0  0  0  0  0  0  0  0  0  0  0
  -25.4269  -31.3848  -23.4836 O   0  0  0  0  0  0  0  0  0  0  0  0
  -25.2781  -31.0165  -21.1481 N   0  0  0  0  0  0  0  0  0  0  0  0
  -26.4169  -30.4518  -20.7169 C   0  0  0  0  0  0  0  0  0  0  0  0
  -27.6309  -30.2031  -21.3705 C   0  0  0  0  0  0  0  0  0  0  0  0
  -28.4815  -29.8008  -20.3643 C   0  0  0  0  0  0  0  0  0  0  0  0
  -27.7382  -29.8131  -19.2014 N   0  0  0  0  0  0  0  0  0  0  0  0
  -28.1930  -29.7061  -17.8592 C   0  0  0  0  0  0  0  0  0  0  0  0
  -29.5195  -29.7494  -17.6473 N   0  0  0  0  0  0  0  0  0  0  0  0
  -29.8895  -29.9453  -16.3762 C   0  0  0  0  0  0  0  0  0  0  0  0
  -29.0057  -30.0622  -15.3270 C   0  0  0  0  0  0  0  0  0  0  0  0
  -27.6785  -29.9493  -15.6363 C   0  0  0  0  0  0  0  0  0  0  0  0
  -27.2494  -29.7504  -16.8844 N   0  0  0  0  0  0  0  0  0  0  0  0
  -26.4425  -30.1026  -19.4424 N   0  0  0  0  0  0  0  0  0  0  0  0
  2  1  1  6
  2  3  1  0
  2  4  1  0
  4  5  2  0
  4  6  1  0
  6  7  1  0
  7  8  2  0
  7  9  1  0
  9 10  1  0
 10 11  1  0
 11 12  2  0
 12 13  1  0
 13 14  1  0
 14 15  2  0
 15 16  1  0
 16 17  2  0
 17 18  1  0
 18 19  2  0
 13 20  1  0
 20 10  2  0
 19 14  1  0
M  END
>  <id>  (516) 
406686

>  <inchikey>  (516) 
UAKGGXWDHGXTCP-ZETCQYMHSA-N

>  <alias>  (516) 
None

>  <smiles>  (516) 
C[C@H](O)C(=S)NC(=O)Nc1ccn(-c2ncccn2)n1

>  <path>  (516) 
/opt/xchem-fragalysis-2/maxwin/RdRp_FFF/syndirella/mar_elabs/elabs_054/VRFUMBMWIYOQKS-UHFFFAOYSA-N/output/VRFUMBMWIYOQKS-UHFFFAOYSA-N-Df6TQP-113-A/VRFUMBMWIYOQKS-UHFFFAOYSA-N-Df6TQP-113-A.minimised.mol

>  <distance_score>  (516) 
1.464359

>  <energy_score>  (516) 
-41.627665

>  <compound>  (516) 
UAKGGXWDHGXTCP-UHFFFAOYSA-N

>  <compound_id>  (516) 
215919

>  <target>  (516) 
Flavi_NS5_RdRp

>  <tags>  (516) 
[]

>  <inspirations>  (516) 
{P Ã— 2}

>  <subsites>  (516) 
None

>  <reference>  (516) 
z0211a

>  <SLURM_JOB_ID>  (516) 
nan

>  <SLURM_JOB_NAME>  (516) 
nan

>  <csv_name>  (516) 
nan

>  <scratch_subdir>  (516) 
nan

>  <fragmenstein_runtime>  (516) 
nan

>  <fragmenstein_outcome>  (516) 
nan

>  <fragmenstein_mode>  (516) 
nan

>  <fragmenstein_error>  (516) 
nan

>  <exports>  (516) 
nan

>  <Multi-SuCOS>  (516) 
nan

>  <merge_set>  (516) 
nan

$$$$
PMPCCEWJCIXPGI-IUCAKERBSA-N
     RDKit          3D

 21 22  0  0  0  0  0  0  0  0999 V2000
  -20.7267  -33.2280  -23.6450 C   0  0  0  0  0  0  0  0  0  0  0  0
  -21.7648  -32.1628  -23.4145 C   0  0  2  0  0  0  0  0  0  0  0  0
  -21.4534  -31.5678  -22.1440 O   0  0  0  0  0  0  0  0  0  0  0  0
  -23.1681  -32.7891  -23.3909 C   0  0  2  0  0  0  0  0  0  0  0  0
  -23.8208  -32.9811  -24.7651 C   0  0  0  0  0  0  0  0  0  0  0  0
  -22.9681  -33.6246  -25.7084 O   0  0  0  0  0  0  0  0  0  0  0  0
  -23.9683  -32.0426  -22.4640 N   0  0  0  0  0  0  0  0  0  0  0  0
  -25.2323  -31.1997  -22.6938 C   0  0  0  0  0  0  0  0  0  0  0  0
  -25.7640  -30.9235  -23.6558 O   0  0  0  0  0  0  0  0  0  0  0  0
  -25.6172  -30.9286  -21.2362 N   0  0  0  0  0  0  0  0  0  0  0  0
  -26.7202  -30.3755  -20.7191 C   0  0  0  0  0  0  0  0  0  0  0  0
  -27.9411  -30.0397  -21.3146 C   0  0  0  0  0  0  0  0  0  0  0  0
  -28.7590  -29.7267  -20.2522 C   0  0  0  0  0  0  0  0  0  0  0  0
  -27.9663  -29.8029  -19.1271 N   0  0  0  0  0  0  0  0  0  0  0  0
  -28.3344  -29.7201  -17.7681 C   0  0  0  0  0  0  0  0  0  0  0  0
  -27.3174  -29.7636  -16.8681 N   0  0  0  0  0  0  0  0  0  0  0  0
  -27.6371  -29.9903  -15.5970 C   0  0  0  0  0  0  0  0  0  0  0  0
  -28.9350  -30.1284  -15.1977 C   0  0  0  0  0  0  0  0  0  0  0  0
  -29.8959  -30.0207  -16.1801 C   0  0  0  0  0  0  0  0  0  0  0  0
  -29.6373  -29.7893  -17.4683 N   0  0  0  0  0  0  0  0  0  0  0  0
  -26.6970  -30.1278  -19.4263 N   0  0  0  0  0  0  0  0  0  0  0  0
  2  1  1  1
  2  3  1  0
  2  4  1  0
  4  5  1  6
  5  6  1  0
  4  7  1  0
  7  8  1  0
  8  9  2  0
  8 10  1  0
 10 11  1  0
 11 12  1  0
 12 13  2  0
 13 14  1  0
 14 15  1  0
 15 16  2  0
 16 17  1  0
 17 18  2  0
 18 19  1  0
 19 20  2  0
 14 21  1  0
 21 11  2  0
 20 15  1  0
M  END
>  <id>  (517) 
406867

>  <inchikey>  (517) 
PMPCCEWJCIXPGI-IUCAKERBSA-N

>  <alias>  (517) 
None

>  <smiles>  (517) 
C[C@H](O)[C@H](CO)NC(=O)Nc1ccn(-c2ncccn2)n1

>  <path>  (517) 
/opt/xchem-fragalysis-2/maxwin/RdRp_FFF/syndirella/mar_elabs/elabs_054/VRFUMBMWIYOQKS-UHFFFAOYSA-N/output/VRFUMBMWIYOQKS-UHFFFAOYSA-N-Df6TQP-798-A/VRFUMBMWIYOQKS-UHFFFAOYSA-N-Df6TQP-798-A.minimised.mol

>  <distance_score>  (517) 
0.944787

>  <energy_score>  (517) 
-17.587455

>  <compound>  (517) 
PMPCCEWJCIXPGI-UHFFFAOYSA-N

>  <compound_id>  (517) 
216309

>  <target>  (517) 
Flavi_NS5_RdRp

>  <tags>  (517) 
[]

>  <inspirations>  (517) 
{P Ã— 2}

>  <subsites>  (517) 
None

>  <reference>  (517) 
z0211a

>  <SLURM_JOB_ID>  (517) 
nan

>  <SLURM_JOB_NAME>  (517) 
nan

>  <csv_name>  (517) 
nan

>  <scratch_subdir>  (517) 
nan

>  <fragmenstein_runtime>  (517) 
nan

>  <fragmenstein_outcome>  (517) 
nan

>  <fragmenstein_mode>  (517) 
nan

>  <fragmenstein_error>  (517) 
nan

>  <exports>  (517) 
nan

>  <Multi-SuCOS>  (517) 
nan

>  <merge_set>  (517) 
nan

$$$$
FSTIJYFWLRNFMT-VIFPVBQESA-N
     RDKit          3D

 21 22  0  0  0  0  0  0  0  0999 V2000
  -21.5350  -33.5623  -25.5906 C   0  0  0  0  0  0  0  0  0  0  0  0
  -21.0812  -32.6780  -24.4380 C   0  0  2  0  0  0  0  0  0  0  0  0
  -20.0652  -33.3140  -23.6798 O   0  0  0  0  0  0  0  0  0  0  0  0
  -22.2180  -32.2269  -23.5241 C   0  0  0  0  0  0  0  0  0  0  0  0
  -22.4226  -33.0565  -22.3094 N   0  0  0  0  0  0  0  0  0  0  0  0
  -22.8767  -34.4166  -22.6152 C   0  0  0  0  0  0  0  0  0  0  0  0
  -23.3790  -32.4008  -21.5683 N   0  0  0  0  0  0  0  0  0  0  0  0
  -24.8914  -32.1478  -21.8676 C   0  0  0  0  0  0  0  0  0  0  0  0
  -25.5427  -32.5164  -22.7262 O   0  0  0  0  0  0  0  0  0  0  0  0
  -25.2161  -31.1725  -20.7177 N   0  0  0  0  0  0  0  0  0  0  0  0
  -26.3729  -30.5767  -20.3817 C   0  0  0  0  0  0  0  0  0  0  0  0
  -27.6056  -30.5474  -21.0567 C   0  0  0  0  0  0  0  0  0  0  0  0
  -28.4830  -29.9738  -20.1645 C   0  0  0  0  0  0  0  0  0  0  0  0
  -27.7412  -29.7624  -19.0238 N   0  0  0  0  0  0  0  0  0  0  0  0
  -28.2007  -29.6501  -17.6939 C   0  0  0  0  0  0  0  0  0  0  0  0
  -27.2382  -29.6603  -16.7383 N   0  0  0  0  0  0  0  0  0  0  0  0
  -27.6226  -29.9374  -15.4964 C   0  0  0  0  0  0  0  0  0  0  0  0
  -28.9359  -30.1228  -15.1718 C   0  0  0  0  0  0  0  0  0  0  0  0
  -29.8464  -30.0250  -16.2008 C   0  0  0  0  0  0  0  0  0  0  0  0
  -29.5173  -29.7815  -17.4711 N   0  0  0  0  0  0  0  0  0  0  0  0
  -26.4161  -29.8882  -19.2565 N   0  0  0  0  0  0  0  0  0  0  0  0
  2  1  1  6
  2  3  1  0
  2  4  1  0
  4  5  1  0
  5  6  1  0
  5  7  1  0
  7  8  1  0
  8  9  2  0
  8 10  1  0
 10 11  1  0
 11 12  1  0
 12 13  2  0
 13 14  1  0
 14 15  1  0
 15 16  2  0
 16 17  1  0
 17 18  2  0
 18 19  1  0
 19 20  2  0
 14 21  1  0
 21 11  2  0
 20 15  1  0
M  END
>  <id>  (518) 
406979

>  <inchikey>  (518) 
FSTIJYFWLRNFMT-VIFPVBQESA-N

>  <alias>  (518) 
None

>  <smiles>  (518) 
C[C@H](O)CN(C)NC(=O)Nc1ccn(-c2ncccn2)n1

>  <path>  (518) 
/opt/xchem-fragalysis-2/maxwin/RdRp_FFF/syndirella/mar_elabs/elabs_054/VRFUMBMWIYOQKS-UHFFFAOYSA-N/output/VRFUMBMWIYOQKS-UHFFFAOYSA-N-Df6TQP-954-B/VRFUMBMWIYOQKS-UHFFFAOYSA-N-Df6TQP-954-B.minimised.mol

>  <distance_score>  (518) 
1.154479

>  <energy_score>  (518) 
-59.502051

>  <compound>  (518) 
FSTIJYFWLRNFMT-UHFFFAOYSA-N

>  <compound_id>  (518) 
216434

>  <target>  (518) 
Flavi_NS5_RdRp

>  <tags>  (518) 
[]

>  <inspirations>  (518) 
{P Ã— 2}

>  <subsites>  (518) 
None

>  <reference>  (518) 
z0211a

>  <SLURM_JOB_ID>  (518) 
nan

>  <SLURM_JOB_NAME>  (518) 
nan

>  <csv_name>  (518) 
nan

>  <scratch_subdir>  (518) 
nan

>  <fragmenstein_runtime>  (518) 
nan

>  <fragmenstein_outcome>  (518) 
nan

>  <fragmenstein_mode>  (518) 
nan

>  <fragmenstein_error>  (518) 
nan

>  <exports>  (518) 
nan

>  <Multi-SuCOS>  (518) 
nan

>  <merge_set>  (518) 
nan

$$$$
MEHZRFICLVIAJW-SNVBAGLBSA-N
     RDKit          3D

 21 22  0  0  0  0  0  0  0  0999 V2000
  -21.2316  -31.8046  -20.9915 C   0  0  0  0  0  0  0  0  0  0  0  0
  -20.7801  -31.9572  -22.3260 O   0  0  0  0  0  0  0  0  0  0  0  0
  -21.6459  -32.7023  -23.1884 C   0  0  2  0  0  0  0  0  0  0  0  0
  -20.7958  -33.0665  -24.3919 C   0  0  0  0  0  0  0  0  0  0  0  0
  -22.8256  -31.9046  -23.7285 C   0  0  0  0  0  0  0  0  0  0  0  0
  -23.8598  -31.6821  -22.7797 N   0  0  0  0  0  0  0  0  0  0  0  0
  -25.2526  -31.0460  -22.9523 C   0  0  0  0  0  0  0  0  0  0  0  0
  -25.7841  -30.6858  -23.8886 O   0  0  0  0  0  0  0  0  0  0  0  0
  -25.6695  -30.9564  -21.4769 N   0  0  0  0  0  0  0  0  0  0  0  0
  -26.8045  -30.5110  -20.9205 C   0  0  0  0  0  0  0  0  0  0  0  0
  -27.9986  -30.0330  -21.4703 C   0  0  0  0  0  0  0  0  0  0  0  0
  -28.8039  -29.7720  -20.3807 C   0  0  0  0  0  0  0  0  0  0  0  0
  -28.0082  -29.9657  -19.2747 N   0  0  0  0  0  0  0  0  0  0  0  0
  -28.2973  -29.8010  -17.9028 C   0  0  0  0  0  0  0  0  0  0  0  0
  -29.5735  -29.7514  -17.5081 N   0  0  0  0  0  0  0  0  0  0  0  0
  -29.7453  -29.9534  -16.1962 C   0  0  0  0  0  0  0  0  0  0  0  0
  -28.7261  -30.1486  -15.2833 C   0  0  0  0  0  0  0  0  0  0  0  0
  -27.4493  -30.1472  -15.7823 C   0  0  0  0  0  0  0  0  0  0  0  0
  -26.2515  -30.4903  -14.9609 C   0  0  0  0  0  0  0  0  0  0  0  0
  -27.2303  -29.9190  -17.0754 N   0  0  0  0  0  0  0  0  0  0  0  0
  -26.8111  -30.4824  -19.6050 N   0  0  0  0  0  0  0  0  0  0  0  0
  1  2  1  0
  2  3  1  0
  3  4  1  6
  3  5  1  0
  5  6  1  0
  6  7  1  0
  7  8  2  0
  7  9  1  0
  9 10  1  0
 10 11  1  0
 11 12  2  0
 12 13  1  0
 13 14  1  0
 14 15  2  0
 15 16  1  0
 16 17  2  0
 17 18  1  0
 18 19  1  0
 18 20  2  0
 13 21  1  0
 21 10  2  0
 20 14  1  0
M  END
>  <id>  (519) 
407001

>  <inchikey>  (519) 
MEHZRFICLVIAJW-SNVBAGLBSA-N

>  <alias>  (519) 
None

>  <smiles>  (519) 
CO[C@H](C)CNC(=O)Nc1ccn(-c2nccc(C)n2)n1

>  <path>  (519) 
/opt/xchem-fragalysis-2/maxwin/RdRp_FFF/syndirella/mar_elabs/elabs_054/VRFUMBMWIYOQKS-UHFFFAOYSA-N/output/VRFUMBMWIYOQKS-UHFFFAOYSA-N-Df6TQP-1004-A/VRFUMBMWIYOQKS-UHFFFAOYSA-N-Df6TQP-1004-A.minimised.mol

>  <distance_score>  (519) 
1.000212

>  <energy_score>  (519) 
-16.85543

>  <compound>  (519) 
MEHZRFICLVIAJW-UHFFFAOYSA-N

>  <compound_id>  (519) 
216335

>  <target>  (519) 
Flavi_NS5_RdRp

>  <tags>  (519) 
[]

>  <inspirations>  (519) 
{P Ã— 2}

>  <subsites>  (519) 
None

>  <reference>  (519) 
z0211a

>  <SLURM_JOB_ID>  (519) 
nan

>  <SLURM_JOB_NAME>  (519) 
nan

>  <csv_name>  (519) 
nan

>  <scratch_subdir>  (519) 
nan

>  <fragmenstein_runtime>  (519) 
nan

>  <fragmenstein_outcome>  (519) 
nan

>  <fragmenstein_mode>  (519) 
nan

>  <fragmenstein_error>  (519) 
nan

>  <exports>  (519) 
nan

>  <Multi-SuCOS>  (519) 
nan

>  <merge_set>  (519) 
nan

$$$$
ASASJSZZITYABY-VIFPVBQESA-N
     RDKit          3D

 21 22  0  0  0  0  0  0  0  0999 V2000
  -26.1860  -30.5300  -14.9628 C   0  0  0  0  0  0  0  0  0  0  0  0
  -27.3957  -30.1663  -15.7588 C   0  0  0  0  0  0  0  0  0  0  0  0
  -28.6643  -30.1884  -15.2393 C   0  0  0  0  0  0  0  0  0  0  0  0
  -29.6993  -29.9707  -16.1266 C   0  0  0  0  0  0  0  0  0  0  0  0
  -29.5498  -29.7200  -17.4311 N   0  0  0  0  0  0  0  0  0  0  0  0
  -28.2802  -29.7448  -17.8495 C   0  0  0  0  0  0  0  0  0  0  0  0
  -28.0239  -29.8439  -19.2335 N   0  0  0  0  0  0  0  0  0  0  0  0
  -28.8654  -29.6394  -20.3030 C   0  0  0  0  0  0  0  0  0  0  0  0
  -28.1165  -29.9001  -21.4290 C   0  0  0  0  0  0  0  0  0  0  0  0
  -26.9130  -30.4065  -20.9328 C   0  0  0  0  0  0  0  0  0  0  0  0
  -25.8745  -30.9803  -21.5520 N   0  0  0  0  0  0  0  0  0  0  0  0
  -25.4610  -30.9575  -23.0304 C   0  0  0  0  0  0  0  0  0  0  0  0
  -25.9861  -30.5119  -23.9332 O   0  0  0  0  0  0  0  0  0  0  0  0
  -24.1782  -31.8036  -22.9423 N   0  0  0  0  0  0  0  0  0  0  0  0
  -23.3553  -32.3353  -23.9688 C   0  0  0  0  0  0  0  0  0  0  0  0
  -21.8803  -32.0567  -23.6774 C   0  0  1  0  0  0  0  0  0  0  0  0
  -21.6404  -31.9642  -22.2615 O   0  0  0  0  0  0  0  0  0  0  0  0
  -21.0406  -33.1885  -24.2351 C   0  0  0  0  0  0  0  0  0  0  0  0
  -21.1542  -33.3138  -26.0133 Cl  0  0  0  0  0  0  0  0  0  0  0  0
  -26.8270  -30.3193  -19.6223 N   0  0  0  0  0  0  0  0  0  0  0  0
  -27.1972  -29.8933  -17.0475 N   0  0  0  0  0  0  0  0  0  0  0  0
  1  2  1  0
  2  3  2  0
  3  4  1  0
  4  5  2  0
  5  6  1  0
  6  7  1  0
  7  8  1  0
  8  9  2  0
  9 10  1  0
 10 11  1  0
 11 12  1  0
 12 13  2  0
 12 14  1  0
 14 15  1  0
 15 16  1  0
 16 17  1  1
 16 18  1  0
 18 19  1  0
 10 20  2  0
  6 21  2  0
 21  2  1  0
 20  7  1  0
M  END
>  <id>  (520) 
407008

>  <inchikey>  (520) 
ASASJSZZITYABY-VIFPVBQESA-N

>  <alias>  (520) 
None

>  <smiles>  (520) 
Cc1ccnc(-n2ccc(NC(=O)NC[C@@H](O)CCl)n2)n1

>  <path>  (520) 
/opt/xchem-fragalysis-2/maxwin/RdRp_FFF/syndirella/mar_elabs/elabs_054/VRFUMBMWIYOQKS-UHFFFAOYSA-N/output/VRFUMBMWIYOQKS-UHFFFAOYSA-N-Df6TQP-1009-B/VRFUMBMWIYOQKS-UHFFFAOYSA-N-Df6TQP-1009-B.minimised.mol

>  <distance_score>  (520) 
0.982473

>  <energy_score>  (520) 
-20.071169

>  <compound>  (520) 
ASASJSZZITYABY-UHFFFAOYSA-N

>  <compound_id>  (520) 
216367

>  <target>  (520) 
Flavi_NS5_RdRp

>  <tags>  (520) 
[]

>  <inspirations>  (520) 
{P Ã— 2}

>  <subsites>  (520) 
None

>  <reference>  (520) 
z0211a

>  <SLURM_JOB_ID>  (520) 
nan

>  <SLURM_JOB_NAME>  (520) 
nan

>  <csv_name>  (520) 
nan

>  <scratch_subdir>  (520) 
nan

>  <fragmenstein_runtime>  (520) 
nan

>  <fragmenstein_outcome>  (520) 
nan

>  <fragmenstein_mode>  (520) 
nan

>  <fragmenstein_error>  (520) 
nan

>  <exports>  (520) 
nan

>  <Multi-SuCOS>  (520) 
nan

>  <merge_set>  (520) 
nan

$$$$
YUQHXEOVLKZWEG-SECBINFHSA-N
     RDKit          3D

 21 23  0  0  0  0  0  0  0  0999 V2000
  -26.2111  -30.5219  -14.9731 C   0  0  0  0  0  0  0  0  0  0  0  0
  -27.3713  -30.1536  -15.8379 C   0  0  0  0  0  0  0  0  0  0  0  0
  -28.6598  -30.0903  -15.3687 C   0  0  0  0  0  0  0  0  0  0  0  0
  -29.6446  -29.8568  -16.3086 C   0  0  0  0  0  0  0  0  0  0  0  0
  -29.4250  -29.6863  -17.6203 N   0  0  0  0  0  0  0  0  0  0  0  0
  -28.1425  -29.8130  -17.9886 C   0  0  0  0  0  0  0  0  0  0  0  0
  -27.8354  -30.0133  -19.3573 N   0  0  0  0  0  0  0  0  0  0  0  0
  -28.6005  -29.7523  -20.4713 C   0  0  0  0  0  0  0  0  0  0  0  0
  -27.8281  -30.1210  -21.5526 C   0  0  0  0  0  0  0  0  0  0  0  0
  -26.6905  -30.7243  -20.9951 C   0  0  0  0  0  0  0  0  0  0  0  0
  -25.6634  -31.3683  -21.5827 N   0  0  0  0  0  0  0  0  0  0  0  0
  -25.1817  -31.3531  -23.0417 C   0  0  0  0  0  0  0  0  0  0  0  0
  -25.6326  -30.8525  -23.9637 O   0  0  0  0  0  0  0  0  0  0  0  0
  -23.9452  -32.2142  -22.9030 N   0  0  0  0  0  0  0  0  0  0  0  0
  -23.0358  -32.7296  -23.9135 C   0  0  0  0  0  0  0  0  0  0  0  0
  -21.7779  -33.2450  -23.2490 C   0  0  1  0  0  0  0  0  0  0  0  0
  -20.6569  -33.1177  -24.1109 O   0  0  0  0  0  0  0  0  0  0  0  0
  -21.7297  -32.2631  -22.1298 C   0  0  0  0  0  0  0  0  0  0  0  0
  -22.7549  -31.3959  -22.6106 O   0  0  0  0  0  0  0  0  0  0  0  0
  -26.6836  -30.6416  -19.6773 N   0  0  0  0  0  0  0  0  0  0  0  0
  -27.1059  -29.9683  -17.1322 N   0  0  0  0  0  0  0  0  0  0  0  0
  1  2  1  0
  2  3  2  0
  3  4  1  0
  4  5  2  0
  5  6  1  0
  6  7  1  0
  7  8  1  0
  8  9  2  0
  9 10  1  0
 10 11  1  0
 11 12  1  0
 12 13  2  0
 12 14  1  0
 14 15  1  0
 15 16  1  0
 16 17  1  6
 16 18  1  0
 18 19  1  0
 10 20  2  0
  6 21  2  0
 21  2  1  0
 20  7  1  0
 19 14  1  0
M  END
>  <id>  (521) 
407010

>  <inchikey>  (521) 
YUQHXEOVLKZWEG-SECBINFHSA-N

>  <alias>  (521) 
None

>  <smiles>  (521) 
Cc1ccnc(-n2ccc(NC(=O)N3C[C@@H](O)CO3)n2)n1

>  <path>  (521) 
/opt/xchem-fragalysis-2/maxwin/RdRp_FFF/syndirella/mar_elabs/elabs_054/VRFUMBMWIYOQKS-UHFFFAOYSA-N/output/VRFUMBMWIYOQKS-UHFFFAOYSA-N-Df6TQP-1013-B/VRFUMBMWIYOQKS-UHFFFAOYSA-N-Df6TQP-1013-B.minimised.mol

>  <distance_score>  (521) 
1.077147

>  <energy_score>  (521) 
-0.94252

>  <compound>  (521) 
YUQHXEOVLKZWEG-UHFFFAOYSA-N

>  <compound_id>  (521) 
216354

>  <target>  (521) 
Flavi_NS5_RdRp

>  <tags>  (521) 
[]

>  <inspirations>  (521) 
{P Ã— 2}

>  <subsites>  (521) 
None

>  <reference>  (521) 
z0211a

>  <SLURM_JOB_ID>  (521) 
nan

>  <SLURM_JOB_NAME>  (521) 
nan

>  <csv_name>  (521) 
nan

>  <scratch_subdir>  (521) 
nan

>  <fragmenstein_runtime>  (521) 
nan

>  <fragmenstein_outcome>  (521) 
nan

>  <fragmenstein_mode>  (521) 
nan

>  <fragmenstein_error>  (521) 
nan

>  <exports>  (521) 
nan

>  <Multi-SuCOS>  (521) 
nan

>  <merge_set>  (521) 
nan

$$$$
YZIADUASLBJCQJ-UHFFFAOYSA-N
     RDKit          3D

 21 23  0  0  0  0  0  0  0  0999 V2000
  -20.2291  -32.7906  -22.2533 C   0  0  0  0  0  0  0  0  0  0  0  0
  -20.9663  -33.0004  -23.4540 O   0  0  0  0  0  0  0  0  0  0  0  0
  -22.2593  -32.3482  -23.5217 C   0  0  0  0  0  0  0  0  0  0  0  0
  -23.0658  -32.2823  -22.2792 C   0  0  0  0  0  0  0  0  0  0  0  0
  -24.3886  -32.6677  -22.9900 N   0  0  0  0  0  0  0  0  0  0  0  0
  -25.3326  -31.4778  -23.0876 C   0  0  0  0  0  0  0  0  0  0  0  0
  -25.4408  -30.6865  -23.9048 O   0  0  0  0  0  0  0  0  0  0  0  0
  -26.0228  -31.5971  -21.7220 N   0  0  0  0  0  0  0  0  0  0  0  0
  -26.9962  -30.8539  -21.1698 C   0  0  0  0  0  0  0  0  0  0  0  0
  -27.9613  -30.0122  -21.7331 C   0  0  0  0  0  0  0  0  0  0  0  0
  -28.7653  -29.6375  -20.6741 C   0  0  0  0  0  0  0  0  0  0  0  0
  -28.1061  -30.0691  -19.5508 N   0  0  0  0  0  0  0  0  0  0  0  0
  -28.3543  -29.8051  -18.1877 C   0  0  0  0  0  0  0  0  0  0  0  0
  -29.6132  -29.6928  -17.7493 N   0  0  0  0  0  0  0  0  0  0  0  0
  -29.7502  -29.8362  -16.4212 C   0  0  0  0  0  0  0  0  0  0  0  0
  -28.7063  -30.0211  -15.5360 C   0  0  0  0  0  0  0  0  0  0  0  0
  -27.4498  -30.0469  -16.0864 C   0  0  0  0  0  0  0  0  0  0  0  0
  -26.2248  -30.3761  -15.3191 C   0  0  0  0  0  0  0  0  0  0  0  0
  -27.2668  -29.9083  -17.3958 N   0  0  0  0  0  0  0  0  0  0  0  0
  -27.1051  -30.9217  -19.8571 N   0  0  0  0  0  0  0  0  0  0  0  0
  -23.3866  -33.2132  -23.9885 C   0  0  0  0  0  0  0  0  0  0  0  0
  1  2  1  0
  2  3  1  0
  3  4  1  0
  4  5  1  0
  5  6  1  0
  6  7  2  0
  6  8  1  0
  8  9  1  0
  9 10  1  0
 10 11  2  0
 11 12  1  0
 12 13  1  0
 13 14  2  0
 14 15  1  0
 15 16  2  0
 16 17  1  0
 17 18  1  0
 17 19  2  0
 12 20  1  0
  5 21  1  0
 21  3  1  0
 20  9  2  0
 19 13  1  0
M  END
>  <id>  (522) 
407016

>  <inchikey>  (522) 
YZIADUASLBJCQJ-UHFFFAOYSA-N

>  <alias>  (522) 
None

>  <smiles>  (522) 
COC1CN(C(=O)Nc2ccn(-c3nccc(C)n3)n2)C1

>  <path>  (522) 
/opt/xchem-fragalysis-2/maxwin/RdRp_FFF/syndirella/mar_elabs/elabs_054/VRFUMBMWIYOQKS-UHFFFAOYSA-N/output/VRFUMBMWIYOQKS-UHFFFAOYSA-N-Df6TQP-1024-A/VRFUMBMWIYOQKS-UHFFFAOYSA-N-Df6TQP-1024-A.minimised.mol

>  <distance_score>  (522) 
1.26954

>  <energy_score>  (522) 
-8.041807

>  <compound>  (522) 
YZIADUASLBJCQJ-UHFFFAOYSA-N

>  <compound_id>  (522) 
216565

>  <target>  (522) 
Flavi_NS5_RdRp

>  <tags>  (522) 
[]

>  <inspirations>  (522) 
{P Ã— 2}

>  <subsites>  (522) 
None

>  <reference>  (522) 
z0211a

>  <SLURM_JOB_ID>  (522) 
nan

>  <SLURM_JOB_NAME>  (522) 
nan

>  <csv_name>  (522) 
nan

>  <scratch_subdir>  (522) 
nan

>  <fragmenstein_runtime>  (522) 
nan

>  <fragmenstein_outcome>  (522) 
nan

>  <fragmenstein_mode>  (522) 
nan

>  <fragmenstein_error>  (522) 
nan

>  <exports>  (522) 
nan

>  <Multi-SuCOS>  (522) 
nan

>  <merge_set>  (522) 
nan

$$$$
DSDDXGRZESAOMQ-SECBINFHSA-N
     RDKit          3D

 21 22  0  0  0  0  0  0  0  0999 V2000
  -26.2252  -30.5076  -14.9761 C   0  0  0  0  0  0  0  0  0  0  0  0
  -27.4155  -30.1520  -15.8041 C   0  0  0  0  0  0  0  0  0  0  0  0
  -28.6932  -30.1446  -15.3047 C   0  0  0  0  0  0  0  0  0  0  0  0
  -29.7094  -29.9355  -16.2161 C   0  0  0  0  0  0  0  0  0  0  0  0
  -29.5312  -29.7277  -17.5263 N   0  0  0  0  0  0  0  0  0  0  0  0
  -28.2551  -29.7850  -17.9237 C   0  0  0  0  0  0  0  0  0  0  0  0
  -27.9744  -29.9241  -19.3022 N   0  0  0  0  0  0  0  0  0  0  0  0
  -28.7893  -29.7175  -20.3924 C   0  0  0  0  0  0  0  0  0  0  0  0
  -28.0167  -29.9947  -21.4999 C   0  0  0  0  0  0  0  0  0  0  0  0
  -26.8188  -30.4923  -20.9785 C   0  0  0  0  0  0  0  0  0  0  0  0
  -25.7333  -31.0117  -21.5715 N   0  0  0  0  0  0  0  0  0  0  0  0
  -25.3412  -31.0704  -23.0585 C   0  0  0  0  0  0  0  0  0  0  0  0
  -25.8486  -30.6211  -23.9705 O   0  0  0  0  0  0  0  0  0  0  0  0
  -24.0632  -31.9258  -22.9488 N   0  0  0  0  0  0  0  0  0  0  0  0
  -23.1189  -32.3072  -23.9462 C   0  0  0  0  0  0  0  0  0  0  0  0
  -21.7106  -32.0269  -23.4096 C   0  0  1  0  0  0  0  0  0  0  0  0
  -21.7492  -31.4050  -22.1087 O   0  0  0  0  0  0  0  0  0  0  0  0
  -20.9404  -33.3183  -23.2371 C   0  0  0  0  0  0  0  0  0  0  0  0
  -19.8132  -33.0890  -22.3950 O   0  0  0  0  0  0  0  0  0  0  0  0
  -26.7760  -30.4246  -19.6627 N   0  0  0  0  0  0  0  0  0  0  0  0
  -27.1886  -29.9199  -17.0974 N   0  0  0  0  0  0  0  0  0  0  0  0
  1  2  1  0
  2  3  2  0
  3  4  1  0
  4  5  2  0
  5  6  1  0
  6  7  1  0
  7  8  1  0
  8  9  2  0
  9 10  1  0
 10 11  1  0
 11 12  1  0
 12 13  2  0
 12 14  1  0
 14 15  1  0
 15 16  1  0
 16 17  1  1
 16 18  1  0
 18 19  1  0
 10 20  2  0
  6 21  2  0
 21  2  1  0
 20  7  1  0
M  END
>  <id>  (523) 
407022

>  <inchikey>  (523) 
DSDDXGRZESAOMQ-SECBINFHSA-N

>  <alias>  (523) 
None

>  <smiles>  (523) 
Cc1ccnc(-n2ccc(NC(=O)NC[C@@H](O)CO)n2)n1

>  <path>  (523) 
/opt/xchem-fragalysis-2/maxwin/RdRp_FFF/syndirella/mar_elabs/elabs_054/VRFUMBMWIYOQKS-UHFFFAOYSA-N/output/VRFUMBMWIYOQKS-UHFFFAOYSA-N-Df6TQP-1030-B/VRFUMBMWIYOQKS-UHFFFAOYSA-N-Df6TQP-1030-B.minimised.mol

>  <distance_score>  (523) 
1.002011

>  <energy_score>  (523) 
-27.203583

>  <compound>  (523) 
DSDDXGRZESAOMQ-UHFFFAOYSA-N

>  <compound_id>  (523) 
216307

>  <target>  (523) 
Flavi_NS5_RdRp

>  <tags>  (523) 
[]

>  <inspirations>  (523) 
{P Ã— 2}

>  <subsites>  (523) 
None

>  <reference>  (523) 
z0211a

>  <SLURM_JOB_ID>  (523) 
nan

>  <SLURM_JOB_NAME>  (523) 
nan

>  <csv_name>  (523) 
nan

>  <scratch_subdir>  (523) 
nan

>  <fragmenstein_runtime>  (523) 
nan

>  <fragmenstein_outcome>  (523) 
nan

>  <fragmenstein_mode>  (523) 
nan

>  <fragmenstein_error>  (523) 
nan

>  <exports>  (523) 
nan

>  <Multi-SuCOS>  (523) 
nan

>  <merge_set>  (523) 
nan

$$$$
QSWXMDVYCLMTET-JTQLQIEISA-N
     RDKit          3D

 21 22  0  0  0  0  0  0  0  0999 V2000
  -20.9733  -33.3311  -26.0282 C   0  0  0  0  0  0  0  0  0  0  0  0
  -20.8849  -33.3284  -24.5105 C   0  0  0  0  0  0  0  0  0  0  0  0
  -21.6434  -32.2359  -23.8007 C   0  0  2  0  0  0  0  0  0  0  0  0
  -21.3918  -32.3792  -22.3881 O   0  0  0  0  0  0  0  0  0  0  0  0
  -23.1219  -32.4162  -24.1144 C   0  0  0  0  0  0  0  0  0  0  0  0
  -23.8671  -31.7693  -23.1152 N   0  0  0  0  0  0  0  0  0  0  0  0
  -25.1984  -31.0303  -23.1972 C   0  0  0  0  0  0  0  0  0  0  0  0
  -25.8409  -30.7766  -24.0932 O   0  0  0  0  0  0  0  0  0  0  0  0
  -25.4556  -30.8239  -21.7076 N   0  0  0  0  0  0  0  0  0  0  0  0
  -26.5351  -30.3742  -21.0727 C   0  0  0  0  0  0  0  0  0  0  0  0
  -27.8059  -30.0353  -21.5423 C   0  0  0  0  0  0  0  0  0  0  0  0
  -28.4838  -29.6490  -20.4121 C   0  0  0  0  0  0  0  0  0  0  0  0
  -27.5674  -29.7115  -19.3804 N   0  0  0  0  0  0  0  0  0  0  0  0
  -27.7848  -29.5129  -18.0088 C   0  0  0  0  0  0  0  0  0  0  0  0
  -26.7334  -29.6484  -17.1613 N   0  0  0  0  0  0  0  0  0  0  0  0
  -27.0165  -29.9345  -15.8892 C   0  0  0  0  0  0  0  0  0  0  0  0
  -28.3032  -30.0864  -15.4578 C   0  0  0  0  0  0  0  0  0  0  0  0
  -29.2849  -29.8565  -16.4021 C   0  0  0  0  0  0  0  0  0  0  0  0
  -30.6847  -30.2292  -16.1898 C   0  0  0  0  0  0  0  0  0  0  0  0
  -29.0583  -29.4833  -17.6512 N   0  0  0  0  0  0  0  0  0  0  0  0
  -26.3821  -30.1760  -19.7806 N   0  0  0  0  0  0  0  0  0  0  0  0
  1  2  1  0
  2  3  1  0
  3  4  1  1
  3  5  1  0
  5  6  1  0
  6  7  1  0
  7  8  2  0
  7  9  1  0
  9 10  1  0
 10 11  1  0
 11 12  2  0
 12 13  1  0
 13 14  1  0
 14 15  2  0
 15 16  1  0
 16 17  2  0
 17 18  1  0
 18 19  1  0
 18 20  2  0
 13 21  1  0
 21 10  2  0
 20 14  1  0
M  END
>  <id>  (524) 
407036

>  <inchikey>  (524) 
QSWXMDVYCLMTET-JTQLQIEISA-N

>  <alias>  (524) 
None

>  <smiles>  (524) 
CC[C@H](O)CNC(=O)Nc1ccn(-c2nccc(C)n2)n1

>  <path>  (524) 
/opt/xchem-fragalysis-2/maxwin/RdRp_FFF/syndirella/mar_elabs/elabs_054/VRFUMBMWIYOQKS-UHFFFAOYSA-N/output/VRFUMBMWIYOQKS-UHFFFAOYSA-N-Df6TQP-1050-A/VRFUMBMWIYOQKS-UHFFFAOYSA-N-Df6TQP-1050-A.minimised.mol

>  <distance_score>  (524) 
1.127857

>  <energy_score>  (524) 
-24.624928

>  <compound>  (524) 
QSWXMDVYCLMTET-UHFFFAOYSA-N

>  <compound_id>  (524) 
216308

>  <target>  (524) 
Flavi_NS5_RdRp

>  <tags>  (524) 
[]

>  <inspirations>  (524) 
{P Ã— 2}

>  <subsites>  (524) 
None

>  <reference>  (524) 
z0211a

>  <SLURM_JOB_ID>  (524) 
nan

>  <SLURM_JOB_NAME>  (524) 
nan

>  <csv_name>  (524) 
nan

>  <scratch_subdir>  (524) 
nan

>  <fragmenstein_runtime>  (524) 
nan

>  <fragmenstein_outcome>  (524) 
nan

>  <fragmenstein_mode>  (524) 
nan

>  <fragmenstein_error>  (524) 
nan

>  <exports>  (524) 
nan

>  <Multi-SuCOS>  (524) 
nan

>  <merge_set>  (524) 
nan

$$$$
XKHZXUFOTSHQLK-SSDOTTSWSA-N
     RDKit          3D

 21 22  0  0  0  0  0  0  0  0999 V2000
  -26.0770  -30.5439  -23.9227 O   0  0  0  0  0  0  0  0  0  0  0  0
  -25.4809  -30.9283  -23.0362 C   0  0  0  0  0  0  0  0  0  0  0  0
  -24.1983  -31.7752  -22.9925 N   0  0  0  0  0  0  0  0  0  0  0  0
  -23.4599  -32.3876  -24.0461 C   0  0  0  0  0  0  0  0  0  0  0  0
  -21.9930  -32.1026  -23.8021 C   0  0  1  0  0  0  0  0  0  0  0  0
  -21.6624  -32.5046  -22.4535 O   0  0  0  0  0  0  0  0  0  0  0  0
  -21.1722  -32.8557  -24.8251 C   0  0  0  0  0  0  0  0  0  0  0  0
  -21.4093  -33.0752  -26.0015 O   0  0  0  0  0  0  0  0  0  0  0  0
  -20.0172  -33.2691  -24.2715 O   0  0  0  0  0  0  0  0  0  0  0  0
  -25.7731  -30.8421  -21.5287 N   0  0  0  0  0  0  0  0  0  0  0  0
  -26.8461  -30.3710  -20.8773 C   0  0  0  0  0  0  0  0  0  0  0  0
  -28.0736  -29.9257  -21.3796 C   0  0  0  0  0  0  0  0  0  0  0  0
  -28.8428  -29.7135  -20.2609 C   0  0  0  0  0  0  0  0  0  0  0  0
  -28.0043  -29.8963  -19.1835 N   0  0  0  0  0  0  0  0  0  0  0  0
  -28.3071  -29.7916  -17.8085 C   0  0  0  0  0  0  0  0  0  0  0  0
  -29.6007  -29.7991  -17.4590 N   0  0  0  0  0  0  0  0  0  0  0  0
  -29.8253  -30.0030  -16.1601 C   0  0  0  0  0  0  0  0  0  0  0  0
  -28.8380  -30.1194  -15.2072 C   0  0  0  0  0  0  0  0  0  0  0  0
  -27.5497  -30.0294  -15.6543 C   0  0  0  0  0  0  0  0  0  0  0  0
  -27.2615  -29.8546  -16.9438 N   0  0  0  0  0  0  0  0  0  0  0  0
  -26.7836  -30.3247  -19.5599 N   0  0  0  0  0  0  0  0  0  0  0  0
  1  2  2  0
  2  3  1  0
  3  4  1  0
  4  5  1  0
  5  6  1  1
  5  7  1  0
  7  8  2  0
  7  9  1  0
  2 10  1  0
 10 11  1  0
 11 12  1  0
 12 13  2  0
 13 14  1  0
 14 15  1  0
 15 16  2  0
 16 17  1  0
 17 18  2  0
 18 19  1  0
 19 20  2  0
 14 21  1  0
 21 11  2  0
 20 15  1  0
M  END
>  <id>  (525) 
407093

>  <inchikey>  (525) 
XKHZXUFOTSHQLK-SSDOTTSWSA-N

>  <alias>  (525) 
None

>  <smiles>  (525) 
O=C(NC[C@@H](O)C(=O)O)Nc1ccn(-c2ncccn2)n1

>  <path>  (525) 
/opt/xchem-fragalysis-2/maxwin/RdRp_FFF/syndirella/mar_elabs/elabs_054/VRFUMBMWIYOQKS-UHFFFAOYSA-N/output/VRFUMBMWIYOQKS-UHFFFAOYSA-N-Df6TQP-1141-B/VRFUMBMWIYOQKS-UHFFFAOYSA-N-Df6TQP-1141-B.minimised.mol

>  <distance_score>  (525) 
1.042831

>  <energy_score>  (525) 
-42.08478

>  <compound>  (525) 
XKHZXUFOTSHQLK-UHFFFAOYSA-N

>  <compound_id>  (525) 
216554

>  <target>  (525) 
Flavi_NS5_RdRp

>  <tags>  (525) 
[]

>  <inspirations>  (525) 
{P Ã— 2}

>  <subsites>  (525) 
None

>  <reference>  (525) 
z0211a

>  <SLURM_JOB_ID>  (525) 
nan

>  <SLURM_JOB_NAME>  (525) 
nan

>  <csv_name>  (525) 
nan

>  <scratch_subdir>  (525) 
nan

>  <fragmenstein_runtime>  (525) 
nan

>  <fragmenstein_outcome>  (525) 
nan

>  <fragmenstein_mode>  (525) 
nan

>  <fragmenstein_error>  (525) 
nan

>  <exports>  (525) 
nan

>  <Multi-SuCOS>  (525) 
nan

>  <merge_set>  (525) 
nan

$$$$
GTWLCOJCSQUZKQ-SECBINFHSA-N
     RDKit          3D

 21 22  0  0  0  0  0  0  0  0999 V2000
  -21.6681  -33.6488  -26.3941 C   0  0  0  0  0  0  0  0  0  0  0  0
  -20.8407  -32.8094  -25.6084 O   0  0  0  0  0  0  0  0  0  0  0  0
  -20.9402  -33.0734  -24.2077 C   0  0  0  0  0  0  0  0  0  0  0  0
  -21.7981  -32.0318  -23.5036 C   0  0  2  0  0  0  0  0  0  0  0  0
  -21.5794  -32.1263  -22.0866 O   0  0  0  0  0  0  0  0  0  0  0  0
  -23.2626  -32.3003  -23.8360 C   0  0  0  0  0  0  0  0  0  0  0  0
  -24.1235  -31.8197  -22.8171 N   0  0  0  0  0  0  0  0  0  0  0  0
  -25.3955  -30.9615  -22.9108 C   0  0  0  0  0  0  0  0  0  0  0  0
  -25.9628  -30.5877  -23.8192 O   0  0  0  0  0  0  0  0  0  0  0  0
  -25.7268  -30.8456  -21.4169 N   0  0  0  0  0  0  0  0  0  0  0  0
  -26.8102  -30.3536  -20.8043 C   0  0  0  0  0  0  0  0  0  0  0  0
  -28.0431  -29.9602  -21.3350 C   0  0  0  0  0  0  0  0  0  0  0  0
  -28.8243  -29.7163  -20.2307 C   0  0  0  0  0  0  0  0  0  0  0  0
  -27.9936  -29.8529  -19.1400 N   0  0  0  0  0  0  0  0  0  0  0  0
  -28.3152  -29.7603  -17.7699 C   0  0  0  0  0  0  0  0  0  0  0  0
  -27.2766  -29.8185  -16.8967 N   0  0  0  0  0  0  0  0  0  0  0  0
  -27.5707  -30.0157  -15.6132 C   0  0  0  0  0  0  0  0  0  0  0  0
  -28.8613  -30.1289  -15.1804 C   0  0  0  0  0  0  0  0  0  0  0  0
  -29.8427  -30.0164  -16.1404 C   0  0  0  0  0  0  0  0  0  0  0  0
  -29.6115  -29.7946  -17.4348 N   0  0  0  0  0  0  0  0  0  0  0  0
  -26.7526  -30.2356  -19.4932 N   0  0  0  0  0  0  0  0  0  0  0  0
  1  2  1  0
  2  3  1  0
  3  4  1  0
  4  5  1  1
  4  6  1  0
  6  7  1  0
  7  8  1  0
  8  9  2  0
  8 10  1  0
 10 11  1  0
 11 12  1  0
 12 13  2  0
 13 14  1  0
 14 15  1  0
 15 16  2  0
 16 17  1  0
 17 18  2  0
 18 19  1  0
 19 20  2  0
 14 21  1  0
 21 11  2  0
 20 15  1  0
M  END
>  <id>  (526) 
407120

>  <inchikey>  (526) 
GTWLCOJCSQUZKQ-SECBINFHSA-N

>  <alias>  (526) 
None

>  <smiles>  (526) 
COC[C@H](O)CNC(=O)Nc1ccn(-c2ncccn2)n1

>  <path>  (526) 
/opt/xchem-fragalysis-2/maxwin/RdRp_FFF/syndirella/mar_elabs/elabs_054/VRFUMBMWIYOQKS-UHFFFAOYSA-N/output/VRFUMBMWIYOQKS-UHFFFAOYSA-N-Df6TQP-1209-A/VRFUMBMWIYOQKS-UHFFFAOYSA-N-Df6TQP-1209-A.minimised.mol

>  <distance_score>  (526) 
0.968876

>  <energy_score>  (526) 
-34.193244

>  <compound>  (526) 
GTWLCOJCSQUZKQ-UHFFFAOYSA-N

>  <compound_id>  (526) 
216430

>  <target>  (526) 
Flavi_NS5_RdRp

>  <tags>  (526) 
[]

>  <inspirations>  (526) 
{P Ã— 2}

>  <subsites>  (526) 
None

>  <reference>  (526) 
z0211a

>  <SLURM_JOB_ID>  (526) 
nan

>  <SLURM_JOB_NAME>  (526) 
nan

>  <csv_name>  (526) 
nan

>  <scratch_subdir>  (526) 
nan

>  <fragmenstein_runtime>  (526) 
nan

>  <fragmenstein_outcome>  (526) 
nan

>  <fragmenstein_mode>  (526) 
nan

>  <fragmenstein_error>  (526) 
nan

>  <exports>  (526) 
nan

>  <Multi-SuCOS>  (526) 
nan

>  <merge_set>  (526) 
nan

$$$$
NLNIDEBMXTWPRJ-SECBINFHSA-N
     RDKit          3D

 20 21  0  0  0  0  0  0  0  0999 V2000
  -21.0419  -33.1861  -25.5995 C   0  0  0  0  0  0  0  0  0  0  0  0
  -21.0525  -33.3965  -24.0923 C   0  0  0  0  0  0  0  0  0  0  0  0
  -21.7992  -32.3560  -23.2900 C   0  0  1  0  0  0  0  0  0  0  0  0
  -21.1136  -31.1169  -23.3783 O   0  0  0  0  0  0  0  0  0  0  0  0
  -23.2430  -32.2727  -23.7650 C   0  0  0  0  0  0  0  0  0  0  0  0
  -24.0435  -31.6622  -22.7636 N   0  0  0  0  0  0  0  0  0  0  0  0
  -25.3663  -30.8904  -22.8806 C   0  0  0  0  0  0  0  0  0  0  0  0
  -25.9530  -30.5755  -23.7987 O   0  0  0  0  0  0  0  0  0  0  0  0
  -25.7097  -30.7605  -21.3908 N   0  0  0  0  0  0  0  0  0  0  0  0
  -26.8239  -30.3246  -20.7929 C   0  0  0  0  0  0  0  0  0  0  0  0
  -28.0674  -29.9800  -21.3302 C   0  0  0  0  0  0  0  0  0  0  0  0
  -28.8588  -29.7472  -20.2303 C   0  0  0  0  0  0  0  0  0  0  0  0
  -28.0273  -29.8510  -19.1364 N   0  0  0  0  0  0  0  0  0  0  0  0
  -28.3511  -29.7632  -17.7674 C   0  0  0  0  0  0  0  0  0  0  0  0
  -27.3108  -29.8052  -16.8946 N   0  0  0  0  0  0  0  0  0  0  0  0
  -27.6007  -30.0052  -15.6110 C   0  0  0  0  0  0  0  0  0  0  0  0
  -28.8894  -30.1292  -15.1770 C   0  0  0  0  0  0  0  0  0  0  0  0
  -29.8729  -30.0304  -16.1368 C   0  0  0  0  0  0  0  0  0  0  0  0
  -29.6460  -29.8168  -17.4329 N   0  0  0  0  0  0  0  0  0  0  0  0
  -26.7728  -30.1860  -19.4843 N   0  0  0  0  0  0  0  0  0  0  0  0
  1  2  1  0
  2  3  1  0
  3  4  1  6
  3  5  1  0
  5  6  1  0
  6  7  1  0
  7  8  2  0
  7  9  1  0
  9 10  1  0
 10 11  1  0
 11 12  2  0
 12 13  1  0
 13 14  1  0
 14 15  2  0
 15 16  1  0
 16 17  2  0
 17 18  1  0
 18 19  2  0
 13 20  1  0
 20 10  2  0
 19 14  1  0
M  END
>  <id>  (527) 
408149

>  <inchikey>  (527) 
NLNIDEBMXTWPRJ-SECBINFHSA-N

>  <alias>  (527) 
None

>  <smiles>  (527) 
CC[C@@H](O)CNC(=O)Nc1ccn(-c2ncccn2)n1

>  <path>  (527) 
/opt/xchem-fragalysis-2/maxwin/RdRp_FFF/syndirella/mar_elabs/elabs_054/VRFUMBMWIYOQKS-UHFFFAOYSA-N/output/VRFUMBMWIYOQKS-UHFFFAOYSA-N-t3VKFn-22-B/VRFUMBMWIYOQKS-UHFFFAOYSA-N-t3VKFn-22-B.minimised.mol

>  <distance_score>  (527) 
1.033904

>  <energy_score>  (527) 
-45.116528

>  <compound>  (527) 
NLNIDEBMXTWPRJ-UHFFFAOYSA-N

>  <compound_id>  (527) 
215920

>  <target>  (527) 
Flavi_NS5_RdRp

>  <tags>  (527) 
[]

>  <inspirations>  (527) 
{P Ã— 2}

>  <subsites>  (527) 
None

>  <reference>  (527) 
z0211a

>  <SLURM_JOB_ID>  (527) 
nan

>  <SLURM_JOB_NAME>  (527) 
nan

>  <csv_name>  (527) 
nan

>  <scratch_subdir>  (527) 
nan

>  <fragmenstein_runtime>  (527) 
nan

>  <fragmenstein_outcome>  (527) 
nan

>  <fragmenstein_mode>  (527) 
nan

>  <fragmenstein_error>  (527) 
nan

>  <exports>  (527) 
nan

>  <Multi-SuCOS>  (527) 
nan

>  <merge_set>  (527) 
nan

$$$$
UWWXOFXSJCLQCF-QMMMGPOBSA-N
     RDKit          3D

 20 21  0  0  0  0  0  0  0  0999 V2000
  -26.0423  -30.5103  -23.8643 O   0  0  0  0  0  0  0  0  0  0  0  0
  -25.4508  -30.8714  -22.9660 C   0  0  0  0  0  0  0  0  0  0  0  0
  -24.1479  -31.6814  -22.8951 N   0  0  0  0  0  0  0  0  0  0  0  0
  -23.3799  -32.2782  -23.9266 C   0  0  0  0  0  0  0  0  0  0  0  0
  -21.8919  -32.1000  -23.6312 C   0  0  1  0  0  0  0  0  0  0  0  0
  -21.6801  -31.6826  -22.2692 O   0  0  0  0  0  0  0  0  0  0  0  0
  -21.2035  -33.4195  -23.8729 C   0  0  0  0  0  0  0  0  0  0  0  0
  -19.8643  -33.2200  -23.9226 F   0  0  0  0  0  0  0  0  0  0  0  0
  -25.7688  -30.7822  -21.4665 N   0  0  0  0  0  0  0  0  0  0  0  0
  -26.8624  -30.3368  -20.8370 C   0  0  0  0  0  0  0  0  0  0  0  0
  -28.1037  -29.9495  -21.3489 C   0  0  0  0  0  0  0  0  0  0  0  0
  -28.8762  -29.7289  -20.2341 C   0  0  0  0  0  0  0  0  0  0  0  0
  -28.0316  -29.8643  -19.1540 N   0  0  0  0  0  0  0  0  0  0  0  0
  -28.3364  -29.7715  -17.7802 C   0  0  0  0  0  0  0  0  0  0  0  0
  -27.2878  -29.8251  -16.9176 N   0  0  0  0  0  0  0  0  0  0  0  0
  -27.5695  -30.0186  -15.6304 C   0  0  0  0  0  0  0  0  0  0  0  0
  -28.8554  -30.1317  -15.1834 C   0  0  0  0  0  0  0  0  0  0  0  0
  -29.8463  -30.0247  -16.1339 C   0  0  0  0  0  0  0  0  0  0  0  0
  -29.6287  -29.8094  -17.4311 N   0  0  0  0  0  0  0  0  0  0  0  0
  -26.7927  -30.2379  -19.5243 N   0  0  0  0  0  0  0  0  0  0  0  0
  1  2  2  0
  2  3  1  0
  3  4  1  0
  4  5  1  0
  5  6  1  1
  5  7  1  0
  7  8  1  0
  2  9  1  0
  9 10  1  0
 10 11  1  0
 11 12  2  0
 12 13  1  0
 13 14  1  0
 14 15  2  0
 15 16  1  0
 16 17  2  0
 17 18  1  0
 18 19  2  0
 13 20  1  0
 20 10  2  0
 19 14  1  0
M  END
>  <id>  (528) 
408157

>  <inchikey>  (528) 
UWWXOFXSJCLQCF-QMMMGPOBSA-N

>  <alias>  (528) 
None

>  <smiles>  (528) 
O=C(NC[C@@H](O)CF)Nc1ccn(-c2ncccn2)n1

>  <path>  (528) 
/opt/xchem-fragalysis-2/maxwin/RdRp_FFF/syndirella/mar_elabs/elabs_054/VRFUMBMWIYOQKS-UHFFFAOYSA-N/output/VRFUMBMWIYOQKS-UHFFFAOYSA-N-t3VKFn-30-B/VRFUMBMWIYOQKS-UHFFFAOYSA-N-t3VKFn-30-B.minimised.mol

>  <distance_score>  (528) 
0.982196

>  <energy_score>  (528) 
-37.023719

>  <compound>  (528) 
UWWXOFXSJCLQCF-UHFFFAOYSA-N

>  <compound_id>  (528) 
215928

>  <target>  (528) 
Flavi_NS5_RdRp

>  <tags>  (528) 
[]

>  <inspirations>  (528) 
{P Ã— 2}

>  <subsites>  (528) 
None

>  <reference>  (528) 
z0211a

>  <SLURM_JOB_ID>  (528) 
nan

>  <SLURM_JOB_NAME>  (528) 
nan

>  <csv_name>  (528) 
nan

>  <scratch_subdir>  (528) 
nan

>  <fragmenstein_runtime>  (528) 
nan

>  <fragmenstein_outcome>  (528) 
nan

>  <fragmenstein_mode>  (528) 
nan

>  <fragmenstein_error>  (528) 
nan

>  <exports>  (528) 
nan

>  <Multi-SuCOS>  (528) 
nan

>  <merge_set>  (528) 
nan

$$$$
DKNIESIEVPRWFZ-NXEZZACHSA-N
     RDKit          3D

 21 22  0  0  0  0  0  0  0  0999 V2000
  -24.5704  -33.7117  -25.5925 C   0  0  0  0  0  0  0  0  0  0  0  0
  -23.6894  -33.8535  -24.3588 C   0  0  0  0  0  0  0  0  0  0  0  0
  -23.1501  -32.5114  -23.8105 C   0  0  1  0  0  0  0  0  0  0  0  0
  -24.0472  -32.0148  -22.8007 N   0  0  0  0  0  0  0  0  0  0  0  0
  -25.3512  -31.2005  -22.9344 C   0  0  0  0  0  0  0  0  0  0  0  0
  -25.9271  -30.8800  -23.8611 O   0  0  0  0  0  0  0  0  0  0  0  0
  -25.6963  -31.0386  -21.4428 N   0  0  0  0  0  0  0  0  0  0  0  0
  -26.7246  -30.4091  -20.8507 C   0  0  0  0  0  0  0  0  0  0  0  0
  -27.9343  -29.9557  -21.4005 C   0  0  0  0  0  0  0  0  0  0  0  0
  -28.7173  -29.6563  -20.3077 C   0  0  0  0  0  0  0  0  0  0  0  0
  -27.9055  -29.8171  -19.2056 N   0  0  0  0  0  0  0  0  0  0  0  0
  -28.2358  -29.7329  -17.8355 C   0  0  0  0  0  0  0  0  0  0  0  0
  -29.5349  -29.7481  -17.4932 N   0  0  0  0  0  0  0  0  0  0  0  0
  -29.7691  -29.9828  -16.1976 C   0  0  0  0  0  0  0  0  0  0  0  0
  -28.7871  -30.1358  -15.2434 C   0  0  0  0  0  0  0  0  0  0  0  0
  -27.4948  -30.0382  -15.6835 C   0  0  0  0  0  0  0  0  0  0  0  0
  -27.1957  -29.8282  -16.9658 N   0  0  0  0  0  0  0  0  0  0  0  0
  -26.6712  -30.2470  -19.5431 N   0  0  0  0  0  0  0  0  0  0  0  0
  -21.7638  -32.6895  -23.1769 C   0  0  1  0  0  0  0  0  0  0  0  0
  -20.6960  -32.8400  -24.2379 C   0  0  0  0  0  0  0  0  0  0  0  0
  -21.4242  -31.5935  -22.3231 O   0  0  0  0  0  0  0  0  0  0  0  0
  1  2  1  0
  3  2  1  1
  3  4  1  0
  4  5  1  0
  5  6  2  0
  5  7  1  0
  7  8  1  0
  8  9  1  0
  9 10  2  0
 10 11  1  0
 11 12  1  0
 12 13  2  0
 13 14  1  0
 14 15  2  0
 15 16  1  0
 16 17  2  0
 11 18  1  0
  3 19  1  0
 19 20  1  6
 19 21  1  0
 18  8  2  0
 17 12  1  0
M  END
>  <id>  (529) 
408259

>  <inchikey>  (529) 
DKNIESIEVPRWFZ-NXEZZACHSA-N

>  <alias>  (529) 
None

>  <smiles>  (529) 
CC[C@@H](NC(=O)Nc1ccn(-c2ncccn2)n1)[C@@H](C)O

>  <path>  (529) 
/opt/xchem-fragalysis-2/maxwin/RdRp_FFF/syndirella/mar_elabs/elabs_054/VRFUMBMWIYOQKS-UHFFFAOYSA-N/output/VRFUMBMWIYOQKS-UHFFFAOYSA-N-t3VKFn-214-D/VRFUMBMWIYOQKS-UHFFFAOYSA-N-t3VKFn-214-D.minimised.mol

>  <distance_score>  (529) 
0.994923

>  <energy_score>  (529) 
-20.739417

>  <compound>  (529) 
DKNIESIEVPRWFZ-UHFFFAOYSA-N

>  <compound_id>  (529) 
216418

>  <target>  (529) 
Flavi_NS5_RdRp

>  <tags>  (529) 
[]

>  <inspirations>  (529) 
{P Ã— 2}

>  <subsites>  (529) 
None

>  <reference>  (529) 
z0211a

>  <SLURM_JOB_ID>  (529) 
nan

>  <SLURM_JOB_NAME>  (529) 
nan

>  <csv_name>  (529) 
nan

>  <scratch_subdir>  (529) 
nan

>  <fragmenstein_runtime>  (529) 
nan

>  <fragmenstein_outcome>  (529) 
nan

>  <fragmenstein_mode>  (529) 
nan

>  <fragmenstein_error>  (529) 
nan

>  <exports>  (529) 
nan

>  <Multi-SuCOS>  (529) 
nan

>  <merge_set>  (529) 
nan

$$$$
MLEDAQCIYKIOGH-VIFPVBQESA-N
     RDKit          3D

 21 22  0  0  0  0  0  0  0  0999 V2000
  -20.9088  -33.4243  -19.8817 C   0  0  0  0  0  0  0  0  0  0  0  0
  -21.4966  -34.3003  -21.3601 S   0  0  0  0  0  0  0  0  0  0  0  0
  -20.8051  -33.1953  -22.6500 C   0  0  0  0  0  0  0  0  0  0  0  0
  -21.6495  -31.9485  -22.8454 C   0  0  1  0  0  0  0  0  0  0  0  0
  -20.8852  -30.9415  -23.5068 O   0  0  0  0  0  0  0  0  0  0  0  0
  -22.9368  -32.2625  -23.6225 C   0  0  0  0  0  0  0  0  0  0  0  0
  -24.0301  -32.0528  -22.7309 N   0  0  0  0  0  0  0  0  0  0  0  0
  -25.3092  -31.2111  -22.9009 C   0  0  0  0  0  0  0  0  0  0  0  0
  -25.6953  -30.6357  -23.8004 O   0  0  0  0  0  0  0  0  0  0  0  0
  -25.8550  -31.2970  -21.4668 N   0  0  0  0  0  0  0  0  0  0  0  0
  -26.8729  -30.6482  -20.8847 C   0  0  0  0  0  0  0  0  0  0  0  0
  -27.9959  -30.0252  -21.4350 C   0  0  0  0  0  0  0  0  0  0  0  0
  -28.7688  -29.6975  -20.3439 C   0  0  0  0  0  0  0  0  0  0  0  0
  -27.9958  -29.9655  -19.2356 N   0  0  0  0  0  0  0  0  0  0  0  0
  -28.3088  -29.7951  -17.8681 C   0  0  0  0  0  0  0  0  0  0  0  0
  -27.2727  -29.8745  -16.9918 N   0  0  0  0  0  0  0  0  0  0  0  0
  -27.5773  -30.0280  -15.7024 C   0  0  0  0  0  0  0  0  0  0  0  0
  -28.8713  -30.0904  -15.2673 C   0  0  0  0  0  0  0  0  0  0  0  0
  -29.8465  -29.9552  -16.2313 C   0  0  0  0  0  0  0  0  0  0  0  0
  -29.6045  -29.7596  -17.5304 N   0  0  0  0  0  0  0  0  0  0  0  0
  -26.8427  -30.5785  -19.5671 N   0  0  0  0  0  0  0  0  0  0  0  0
  1  2  1  0
  2  3  1  0
  3  4  1  0
  4  5  1  6
  4  6  1  0
  6  7  1  0
  7  8  1  0
  8  9  2  0
  8 10  1  0
 10 11  1  0
 11 12  1  0
 12 13  2  0
 13 14  1  0
 14 15  1  0
 15 16  2  0
 16 17  1  0
 17 18  2  0
 18 19  1  0
 19 20  2  0
 14 21  1  0
 21 11  2  0
 20 15  1  0
M  END
>  <id>  (530) 
408271

>  <inchikey>  (530) 
MLEDAQCIYKIOGH-VIFPVBQESA-N

>  <alias>  (530) 
None

>  <smiles>  (530) 
CSC[C@@H](O)CNC(=O)Nc1ccn(-c2ncccn2)n1

>  <path>  (530) 
/opt/xchem-fragalysis-2/maxwin/RdRp_FFF/syndirella/mar_elabs/elabs_054/VRFUMBMWIYOQKS-UHFFFAOYSA-N/output/VRFUMBMWIYOQKS-UHFFFAOYSA-N-t3VKFn-253-B/VRFUMBMWIYOQKS-UHFFFAOYSA-N-t3VKFn-253-B.minimised.mol

>  <distance_score>  (530) 
1.105307

>  <energy_score>  (530) 
-2.531041

>  <compound>  (530) 
MLEDAQCIYKIOGH-UHFFFAOYSA-N

>  <compound_id>  (530) 
216404

>  <target>  (530) 
Flavi_NS5_RdRp

>  <tags>  (530) 
[]

>  <inspirations>  (530) 
{P Ã— 2}

>  <subsites>  (530) 
None

>  <reference>  (530) 
z0211a

>  <SLURM_JOB_ID>  (530) 
nan

>  <SLURM_JOB_NAME>  (530) 
nan

>  <csv_name>  (530) 
nan

>  <scratch_subdir>  (530) 
nan

>  <fragmenstein_runtime>  (530) 
nan

>  <fragmenstein_outcome>  (530) 
nan

>  <fragmenstein_mode>  (530) 
nan

>  <fragmenstein_error>  (530) 
nan

>  <exports>  (530) 
nan

>  <Multi-SuCOS>  (530) 
nan

>  <merge_set>  (530) 
nan

$$$$
WVBHFDIUHSJYHB-ZJUUUORDSA-N
     RDKit          3D

 21 22  0  0  0  0  0  0  0  0999 V2000
  -22.0574  -33.8551  -21.1614 C   0  0  0  0  0  0  0  0  0  0  0  0
  -21.2861  -33.6923  -22.4660 C   0  0  0  0  0  0  0  0  0  0  0  0
  -21.5524  -32.4152  -23.2545 C   0  0  2  0  0  0  0  0  0  0  0  0
  -21.2089  -31.3142  -22.4120 O   0  0  0  0  0  0  0  0  0  0  0  0
  -22.9731  -32.2651  -23.8203 C   0  0  1  0  0  0  0  0  0  0  0  0
  -23.5140  -33.4964  -24.5350 C   0  0  0  0  0  0  0  0  0  0  0  0
  -23.8722  -31.8008  -22.8078 N   0  0  0  0  0  0  0  0  0  0  0  0
  -25.2081  -31.0416  -22.9307 C   0  0  0  0  0  0  0  0  0  0  0  0
  -25.8059  -30.7520  -23.8519 O   0  0  0  0  0  0  0  0  0  0  0  0
  -25.5429  -30.8814  -21.4349 N   0  0  0  0  0  0  0  0  0  0  0  0
  -26.6624  -30.4407  -20.8355 C   0  0  0  0  0  0  0  0  0  0  0  0
  -27.9030  -30.1010  -21.3917 C   0  0  0  0  0  0  0  0  0  0  0  0
  -28.7055  -29.8231  -20.3097 C   0  0  0  0  0  0  0  0  0  0  0  0
  -27.8940  -29.9214  -19.1998 N   0  0  0  0  0  0  0  0  0  0  0  0
  -28.2507  -29.7947  -17.8364 C   0  0  0  0  0  0  0  0  0  0  0  0
  -27.2357  -29.8364  -16.9362 N   0  0  0  0  0  0  0  0  0  0  0  0
  -27.5633  -30.0078  -15.6557 C   0  0  0  0  0  0  0  0  0  0  0  0
  -28.8643  -30.0985  -15.2469 C   0  0  0  0  0  0  0  0  0  0  0  0
  -29.8229  -29.9906  -16.2302 C   0  0  0  0  0  0  0  0  0  0  0  0
  -29.5564  -29.8100  -17.5271 N   0  0  0  0  0  0  0  0  0  0  0  0
  -26.6352  -30.2822  -19.5250 N   0  0  0  0  0  0  0  0  0  0  0  0
  1  2  1  0
  2  3  1  0
  3  4  1  1
  3  5  1  0
  5  6  1  1
  5  7  1  0
  7  8  1  0
  8  9  2  0
  8 10  1  0
 10 11  1  0
 11 12  1  0
 12 13  2  0
 13 14  1  0
 14 15  1  0
 15 16  2  0
 16 17  1  0
 17 18  2  0
 18 19  1  0
 19 20  2  0
 14 21  1  0
 21 11  2  0
 20 15  1  0
M  END
>  <id>  (531) 
408279

>  <inchikey>  (531) 
WVBHFDIUHSJYHB-ZJUUUORDSA-N

>  <alias>  (531) 
None

>  <smiles>  (531) 
CC[C@H](O)[C@@H](C)NC(=O)Nc1ccn(-c2ncccn2)n1

>  <path>  (531) 
/opt/xchem-fragalysis-2/maxwin/RdRp_FFF/syndirella/mar_elabs/elabs_054/VRFUMBMWIYOQKS-UHFFFAOYSA-N/output/VRFUMBMWIYOQKS-UHFFFAOYSA-N-t3VKFn-278-C/VRFUMBMWIYOQKS-UHFFFAOYSA-N-t3VKFn-278-C.minimised.mol

>  <distance_score>  (531) 
1.04671

>  <energy_score>  (531) 
-18.295109

>  <compound>  (531) 
WVBHFDIUHSJYHB-UHFFFAOYSA-N

>  <compound_id>  (531) 
218663

>  <target>  (531) 
Flavi_NS5_RdRp

>  <tags>  (531) 
[]

>  <inspirations>  (531) 
{P Ã— 2}

>  <subsites>  (531) 
None

>  <reference>  (531) 
z0211a

>  <SLURM_JOB_ID>  (531) 
nan

>  <SLURM_JOB_NAME>  (531) 
nan

>  <csv_name>  (531) 
nan

>  <scratch_subdir>  (531) 
nan

>  <fragmenstein_runtime>  (531) 
nan

>  <fragmenstein_outcome>  (531) 
nan

>  <fragmenstein_mode>  (531) 
nan

>  <fragmenstein_error>  (531) 
nan

>  <exports>  (531) 
nan

>  <Multi-SuCOS>  (531) 
nan

>  <merge_set>  (531) 
nan

$$$$
RUHHNMPFILXDMN-SNVBAGLBSA-N
     RDKit          3D

 21 22  0  0  0  0  0  0  0  0999 V2000
  -22.4191  -34.8377  -25.7734 C   0  0  0  0  0  0  0  0  0  0  0  0
  -21.5128  -33.6229  -25.9222 C   0  0  0  0  0  0  0  0  0  0  0  0
  -21.0274  -32.9454  -24.6304 C   0  0  0  0  0  0  0  0  0  0  0  0
  -22.0178  -32.7439  -23.4903 C   0  0  1  0  0  0  0  0  0  0  0  0
  -21.4726  -31.7675  -22.5886 O   0  0  0  0  0  0  0  0  0  0  0  0
  -23.4030  -32.3398  -23.9690 C   0  0  0  0  0  0  0  0  0  0  0  0
  -24.1476  -31.7368  -22.9216 N   0  0  0  0  0  0  0  0  0  0  0  0
  -25.4380  -30.8997  -22.9701 C   0  0  0  0  0  0  0  0  0  0  0  0
  -26.0330  -30.5196  -23.8585 O   0  0  0  0  0  0  0  0  0  0  0  0
  -25.7372  -30.8171  -21.4653 N   0  0  0  0  0  0  0  0  0  0  0  0
  -26.8161  -30.3557  -20.8188 C   0  0  0  0  0  0  0  0  0  0  0  0
  -28.0578  -29.9648  -21.3337 C   0  0  0  0  0  0  0  0  0  0  0  0
  -28.8300  -29.7319  -20.2221 C   0  0  0  0  0  0  0  0  0  0  0  0
  -27.9879  -29.8705  -19.1406 N   0  0  0  0  0  0  0  0  0  0  0  0
  -28.3025  -29.7745  -17.7690 C   0  0  0  0  0  0  0  0  0  0  0  0
  -27.2623  -29.8309  -16.8988 N   0  0  0  0  0  0  0  0  0  0  0  0
  -27.5545  -30.0220  -15.6135 C   0  0  0  0  0  0  0  0  0  0  0  0
  -28.8445  -30.1276  -15.1760 C   0  0  0  0  0  0  0  0  0  0  0  0
  -29.8279  -30.0158  -16.1336 C   0  0  0  0  0  0  0  0  0  0  0  0
  -29.5985  -29.8046  -17.4298 N   0  0  0  0  0  0  0  0  0  0  0  0
  -26.7490  -30.2505  -19.5067 N   0  0  0  0  0  0  0  0  0  0  0  0
  1  2  1  0
  2  3  1  0
  3  4  1  0
  4  5  1  1
  4  6  1  0
  6  7  1  0
  7  8  1  0
  8  9  2  0
  8 10  1  0
 10 11  1  0
 11 12  1  0
 12 13  2  0
 13 14  1  0
 14 15  1  0
 15 16  2  0
 16 17  1  0
 17 18  2  0
 18 19  1  0
 19 20  2  0
 14 21  1  0
 21 11  2  0
 20 15  1  0
M  END
>  <id>  (532) 
408301

>  <inchikey>  (532) 
RUHHNMPFILXDMN-SNVBAGLBSA-N

>  <alias>  (532) 
None

>  <smiles>  (532) 
CCC[C@@H](O)CNC(=O)Nc1ccn(-c2ncccn2)n1

>  <path>  (532) 
/opt/xchem-fragalysis-2/maxwin/RdRp_FFF/syndirella/mar_elabs/elabs_054/VRFUMBMWIYOQKS-UHFFFAOYSA-N/output/VRFUMBMWIYOQKS-UHFFFAOYSA-N-t3VKFn-320-B/VRFUMBMWIYOQKS-UHFFFAOYSA-N-t3VKFn-320-B.minimised.mol

>  <distance_score>  (532) 
1.02096

>  <energy_score>  (532) 
-23.691511

>  <compound>  (532) 
RUHHNMPFILXDMN-UHFFFAOYSA-N

>  <compound_id>  (532) 
216416

>  <target>  (532) 
Flavi_NS5_RdRp

>  <tags>  (532) 
[]

>  <inspirations>  (532) 
{P Ã— 2}

>  <subsites>  (532) 
None

>  <reference>  (532) 
z0211a

>  <SLURM_JOB_ID>  (532) 
nan

>  <SLURM_JOB_NAME>  (532) 
nan

>  <csv_name>  (532) 
nan

>  <scratch_subdir>  (532) 
nan

>  <fragmenstein_runtime>  (532) 
nan

>  <fragmenstein_outcome>  (532) 
nan

>  <fragmenstein_mode>  (532) 
nan

>  <fragmenstein_error>  (532) 
nan

>  <exports>  (532) 
nan

>  <Multi-SuCOS>  (532) 
nan

>  <merge_set>  (532) 
nan

$$$$
NVGGXUOXBLMPRM-UHFFFAOYSA-N
     RDKit          3D

 21 22  0  0  0  0  0  0  0  0999 V2000
  -20.9087  -32.9918  -25.2776 C   0  0  0  0  0  0  0  0  0  0  0  0
  -21.0251  -33.5777  -23.9983 O   0  0  0  0  0  0  0  0  0  0  0  0
  -21.7827  -32.8721  -23.0090 C   0  0  0  0  0  0  0  0  0  0  0  0
  -20.9287  -31.7652  -22.3837 C   0  0  0  0  0  0  0  0  0  0  0  0
  -22.0639  -33.9339  -21.9286 C   0  0  0  0  0  0  0  0  0  0  0  0
  -23.0964  -32.3396  -23.5948 C   0  0  0  0  0  0  0  0  0  0  0  0
  -23.9267  -31.7004  -22.6373 N   0  0  0  0  0  0  0  0  0  0  0  0
  -25.2754  -30.9860  -22.8090 C   0  0  0  0  0  0  0  0  0  0  0  0
  -25.8648  -30.7483  -23.7478 O   0  0  0  0  0  0  0  0  0  0  0  0
  -25.6364  -30.7796  -21.3320 N   0  0  0  0  0  0  0  0  0  0  0  0
  -26.7715  -30.3494  -20.7685 C   0  0  0  0  0  0  0  0  0  0  0  0
  -28.0049  -30.0094  -21.3335 C   0  0  0  0  0  0  0  0  0  0  0  0
  -28.8194  -29.7683  -20.2507 C   0  0  0  0  0  0  0  0  0  0  0  0
  -28.0109  -29.8680  -19.1394 N   0  0  0  0  0  0  0  0  0  0  0  0
  -28.3544  -29.7664  -17.7758 C   0  0  0  0  0  0  0  0  0  0  0  0
  -27.3236  -29.7999  -16.8912 N   0  0  0  0  0  0  0  0  0  0  0  0
  -27.6234  -29.9966  -15.6100 C   0  0  0  0  0  0  0  0  0  0  0  0
  -28.9157  -30.1229  -15.1886 C   0  0  0  0  0  0  0  0  0  0  0  0
  -29.8907  -30.0277  -16.1585 C   0  0  0  0  0  0  0  0  0  0  0  0
  -29.6525  -29.8187  -17.4540 N   0  0  0  0  0  0  0  0  0  0  0  0
  -26.7534  -30.2154  -19.4589 N   0  0  0  0  0  0  0  0  0  0  0  0
  1  2  1  0
  2  3  1  0
  3  4  1  0
  3  5  1  0
  3  6  1  0
  6  7  1  0
  7  8  1  0
  8  9  2  0
  8 10  1  0
 10 11  1  0
 11 12  1  0
 12 13  2  0
 13 14  1  0
 14 15  1  0
 15 16  2  0
 16 17  1  0
 17 18  2  0
 18 19  1  0
 19 20  2  0
 14 21  1  0
 21 11  2  0
 20 15  1  0
M  END
>  <id>  (533) 
408307

>  <inchikey>  (533) 
NVGGXUOXBLMPRM-UHFFFAOYSA-N

>  <alias>  (533) 
None

>  <smiles>  (533) 
COC(C)(C)CNC(=O)Nc1ccn(-c2ncccn2)n1

>  <path>  (533) 
/opt/xchem-fragalysis-2/maxwin/RdRp_FFF/syndirella/mar_elabs/elabs_054/VRFUMBMWIYOQKS-UHFFFAOYSA-N/output/VRFUMBMWIYOQKS-UHFFFAOYSA-N-t3VKFn-336-A/VRFUMBMWIYOQKS-UHFFFAOYSA-N-t3VKFn-336-A.minimised.mol

>  <distance_score>  (533) 
0.97584

>  <energy_score>  (533) 
-43.151244

>  <compound>  (533) 
NVGGXUOXBLMPRM-UHFFFAOYSA-N

>  <compound_id>  (533) 
216431

>  <target>  (533) 
Flavi_NS5_RdRp

>  <tags>  (533) 
[]

>  <inspirations>  (533) 
{P Ã— 2}

>  <subsites>  (533) 
None

>  <reference>  (533) 
z0211a

>  <SLURM_JOB_ID>  (533) 
nan

>  <SLURM_JOB_NAME>  (533) 
nan

>  <csv_name>  (533) 
nan

>  <scratch_subdir>  (533) 
nan

>  <fragmenstein_runtime>  (533) 
nan

>  <fragmenstein_outcome>  (533) 
nan

>  <fragmenstein_mode>  (533) 
nan

>  <fragmenstein_error>  (533) 
nan

>  <exports>  (533) 
nan

>  <Multi-SuCOS>  (533) 
nan

>  <merge_set>  (533) 
nan

$$$$
QBSGUKZGANSCMI-ZJUUUORDSA-N
     RDKit          3D

 22 23  0  0  0  0  0  0  0  0999 V2000
  -26.1548  -30.5119  -14.9736 C   0  0  0  0  0  0  0  0  0  0  0  0
  -27.3907  -30.1633  -15.7351 C   0  0  0  0  0  0  0  0  0  0  0  0
  -28.6449  -30.2231  -15.1874 C   0  0  0  0  0  0  0  0  0  0  0  0
  -29.7062  -30.0183  -16.0454 C   0  0  0  0  0  0  0  0  0  0  0  0
  -29.5998  -29.7461  -17.3478 N   0  0  0  0  0  0  0  0  0  0  0  0
  -28.3406  -29.7301  -17.7943 C   0  0  0  0  0  0  0  0  0  0  0  0
  -28.1167  -29.7958  -19.1832 N   0  0  0  0  0  0  0  0  0  0  0  0
  -28.9970  -29.6374  -20.2293 C   0  0  0  0  0  0  0  0  0  0  0  0
  -28.2584  -29.8264  -21.3755 C   0  0  0  0  0  0  0  0  0  0  0  0
  -27.0152  -30.2575  -20.9131 C   0  0  0  0  0  0  0  0  0  0  0  0
  -25.9476  -30.7439  -21.5503 N   0  0  0  0  0  0  0  0  0  0  0  0
  -25.6398  -30.8314  -23.0481 C   0  0  0  0  0  0  0  0  0  0  0  0
  -26.2172  -30.4347  -23.9406 O   0  0  0  0  0  0  0  0  0  0  0  0
  -24.3764  -31.6992  -22.9897 N   0  0  0  0  0  0  0  0  0  0  0  0
  -23.6365  -32.3220  -24.0329 C   0  0  2  0  0  0  0  0  0  0  0  0
  -24.1863  -33.7321  -24.2476 C   0  0  0  0  0  0  0  0  0  0  0  0
  -22.1748  -32.2633  -23.5751 C   0  0  1  0  0  0  0  0  0  0  0  0
  -22.0663  -32.6945  -22.1966 O   0  0  0  0  0  0  0  0  0  0  0  0
  -21.2704  -33.1372  -24.4098 C   0  0  0  0  0  0  0  0  0  0  0  0
  -19.9957  -33.1176  -23.7935 O   0  0  0  0  0  0  0  0  0  0  0  0
  -26.9043  -30.1850  -19.6052 N   0  0  0  0  0  0  0  0  0  0  0  0
  -27.2333  -29.8630  -17.0222 N   0  0  0  0  0  0  0  0  0  0  0  0
  1  2  1  0
  2  3  2  0
  3  4  1  0
  4  5  2  0
  5  6  1  0
  6  7  1  0
  7  8  1  0
  8  9  2  0
  9 10  1  0
 10 11  1  0
 11 12  1  0
 12 13  2  0
 12 14  1  0
 14 15  1  0
 15 16  1  1
 15 17  1  0
 17 18  1  1
 17 19  1  0
 19 20  1  0
 10 21  2  0
  6 22  2  0
 22  2  1  0
 21  7  1  0
M  END
>  <id>  (534) 
408435

>  <inchikey>  (534) 
QBSGUKZGANSCMI-ZJUUUORDSA-N

>  <alias>  (534) 
None

>  <smiles>  (534) 
Cc1ccnc(-n2ccc(NC(=O)N[C@H](C)[C@@H](O)CO)n2)n1

>  <path>  (534) 
/opt/xchem-fragalysis-2/maxwin/RdRp_FFF/syndirella/mar_elabs/elabs_054/VRFUMBMWIYOQKS-UHFFFAOYSA-N/output/VRFUMBMWIYOQKS-UHFFFAOYSA-N-t3VKFn-724-C/VRFUMBMWIYOQKS-UHFFFAOYSA-N-t3VKFn-724-C.minimised.mol

>  <distance_score>  (534) 
1.011639

>  <energy_score>  (534) 
-22.641714

>  <compound>  (534) 
QBSGUKZGANSCMI-UHFFFAOYSA-N

>  <compound_id>  (534) 
218347

>  <target>  (534) 
Flavi_NS5_RdRp

>  <tags>  (534) 
[]

>  <inspirations>  (534) 
{P Ã— 2}

>  <subsites>  (534) 
None

>  <reference>  (534) 
z0211a

>  <SLURM_JOB_ID>  (534) 
nan

>  <SLURM_JOB_NAME>  (534) 
nan

>  <csv_name>  (534) 
nan

>  <scratch_subdir>  (534) 
nan

>  <fragmenstein_runtime>  (534) 
nan

>  <fragmenstein_outcome>  (534) 
nan

>  <fragmenstein_mode>  (534) 
nan

>  <fragmenstein_error>  (534) 
nan

>  <exports>  (534) 
nan

>  <Multi-SuCOS>  (534) 
nan

>  <merge_set>  (534) 
nan

$$$$
ODZBJMUSTHOONE-UHFFFAOYSA-N
     RDKit          3D

 22 23  0  0  0  0  0  0  0  0999 V2000
  -21.1128  -33.6468  -25.7004 C   0  0  0  0  0  0  0  0  0  0  0  0
  -20.5634  -33.0157  -24.5494 O   0  0  0  0  0  0  0  0  0  0  0  0
  -21.4717  -32.6524  -23.4967 C   0  0  0  0  0  0  0  0  0  0  0  0
  -21.4252  -33.7137  -22.3919 C   0  0  0  0  0  0  0  0  0  0  0  0
  -20.8890  -31.3792  -22.8764 C   0  0  0  0  0  0  0  0  0  0  0  0
  -22.9111  -32.4668  -23.9980 C   0  0  0  0  0  0  0  0  0  0  0  0
  -23.7559  -31.9102  -23.0116 N   0  0  0  0  0  0  0  0  0  0  0  0
  -25.0910  -31.1755  -23.1492 C   0  0  0  0  0  0  0  0  0  0  0  0
  -25.6572  -30.8517  -24.0752 O   0  0  0  0  0  0  0  0  0  0  0  0
  -25.4718  -31.0769  -21.6720 N   0  0  0  0  0  0  0  0  0  0  0  0
  -26.5251  -30.5070  -21.0876 C   0  0  0  0  0  0  0  0  0  0  0  0
  -27.7512  -30.0685  -21.5920 C   0  0  0  0  0  0  0  0  0  0  0  0
  -28.4312  -29.6319  -20.4789 C   0  0  0  0  0  0  0  0  0  0  0  0
  -27.5456  -29.7413  -19.4249 N   0  0  0  0  0  0  0  0  0  0  0  0
  -27.7738  -29.5196  -18.0560 C   0  0  0  0  0  0  0  0  0  0  0  0
  -26.7252  -29.6515  -17.2033 N   0  0  0  0  0  0  0  0  0  0  0  0
  -27.0123  -29.9240  -15.9288 C   0  0  0  0  0  0  0  0  0  0  0  0
  -28.3000  -30.0673  -15.4980 C   0  0  0  0  0  0  0  0  0  0  0  0
  -29.2801  -29.8448  -16.4468 C   0  0  0  0  0  0  0  0  0  0  0  0
  -30.6796  -30.2204  -16.2238 C   0  0  0  0  0  0  0  0  0  0  0  0
  -29.0496  -29.4826  -17.7015 N   0  0  0  0  0  0  0  0  0  0  0  0
  -26.3853  -30.2912  -19.7961 N   0  0  0  0  0  0  0  0  0  0  0  0
  1  2  1  0
  2  3  1  0
  3  4  1  0
  3  5  1  0
  3  6  1  0
  6  7  1  0
  7  8  1  0
  8  9  2  0
  8 10  1  0
 10 11  1  0
 11 12  1  0
 12 13  2  0
 13 14  1  0
 14 15  1  0
 15 16  2  0
 16 17  1  0
 17 18  2  0
 18 19  1  0
 19 20  1  0
 19 21  2  0
 14 22  1  0
 22 11  2  0
 21 15  1  0
M  END
>  <id>  (535) 
408465

>  <inchikey>  (535) 
ODZBJMUSTHOONE-UHFFFAOYSA-N

>  <alias>  (535) 
None

>  <smiles>  (535) 
COC(C)(C)CNC(=O)Nc1ccn(-c2nccc(C)n2)n1

>  <path>  (535) 
/opt/xchem-fragalysis-2/maxwin/RdRp_FFF/syndirella/mar_elabs/elabs_054/VRFUMBMWIYOQKS-UHFFFAOYSA-N/output/VRFUMBMWIYOQKS-UHFFFAOYSA-N-t3VKFn-763-A/VRFUMBMWIYOQKS-UHFFFAOYSA-N-t3VKFn-763-A.minimised.mol

>  <distance_score>  (535) 
1.208625

>  <energy_score>  (535) 
-24.755095

>  <compound>  (535) 
ODZBJMUSTHOONE-UHFFFAOYSA-N

>  <compound_id>  (535) 
218358

>  <target>  (535) 
Flavi_NS5_RdRp

>  <tags>  (535) 
[]

>  <inspirations>  (535) 
{P Ã— 2}

>  <subsites>  (535) 
None

>  <reference>  (535) 
z0211a

>  <SLURM_JOB_ID>  (535) 
nan

>  <SLURM_JOB_NAME>  (535) 
nan

>  <csv_name>  (535) 
nan

>  <scratch_subdir>  (535) 
nan

>  <fragmenstein_runtime>  (535) 
nan

>  <fragmenstein_outcome>  (535) 
nan

>  <fragmenstein_mode>  (535) 
nan

>  <fragmenstein_error>  (535) 
nan

>  <exports>  (535) 
nan

>  <Multi-SuCOS>  (535) 
nan

>  <merge_set>  (535) 
nan

$$$$
NMMXTFSCQBLHKU-SNVBAGLBSA-N
     RDKit          3D

 22 23  0  0  0  0  0  0  0  0999 V2000
  -19.7298  -33.8803  -20.6526 C   0  0  0  0  0  0  0  0  0  0  0  0
  -19.4314  -33.2299  -21.8865 O   0  0  0  0  0  0  0  0  0  0  0  0
  -20.4928  -33.3291  -22.8472 C   0  0  0  0  0  0  0  0  0  0  0  0
  -21.2124  -32.0057  -22.9775 C   0  0  2  0  0  0  0  0  0  0  0  0
  -21.4601  -31.5312  -21.6343 O   0  0  0  0  0  0  0  0  0  0  0  0
  -22.5203  -32.2204  -23.7500 C   0  0  0  0  0  0  0  0  0  0  0  0
  -23.5409  -31.8944  -22.8327 N   0  0  0  0  0  0  0  0  0  0  0  0
  -24.9468  -31.3552  -23.0687 C   0  0  0  0  0  0  0  0  0  0  0  0
  -25.5078  -31.1686  -24.0345 O   0  0  0  0  0  0  0  0  0  0  0  0
  -25.3363  -31.0472  -21.6228 N   0  0  0  0  0  0  0  0  0  0  0  0
  -26.4703  -30.5612  -21.1179 C   0  0  0  0  0  0  0  0  0  0  0  0
  -27.6909  -30.1627  -21.6649 C   0  0  0  0  0  0  0  0  0  0  0  0
  -28.4285  -29.7467  -20.5758 C   0  0  0  0  0  0  0  0  0  0  0  0
  -27.5762  -29.8225  -19.4923 N   0  0  0  0  0  0  0  0  0  0  0  0
  -27.8257  -29.5676  -18.1319 C   0  0  0  0  0  0  0  0  0  0  0  0
  -26.7780  -29.6508  -17.2691 N   0  0  0  0  0  0  0  0  0  0  0  0
  -27.0584  -29.8786  -15.9856 C   0  0  0  0  0  0  0  0  0  0  0  0
  -28.3428  -30.0190  -15.5489 C   0  0  0  0  0  0  0  0  0  0  0  0
  -29.3246  -29.8486  -16.5077 C   0  0  0  0  0  0  0  0  0  0  0  0
  -30.7202  -30.2202  -16.2588 C   0  0  0  0  0  0  0  0  0  0  0  0
  -29.1022  -29.5429  -17.7807 N   0  0  0  0  0  0  0  0  0  0  0  0
  -26.4039  -30.3646  -19.8170 N   0  0  0  0  0  0  0  0  0  0  0  0
  1  2  1  0
  2  3  1  0
  3  4  1  0
  4  5  1  1
  4  6  1  0
  6  7  1  0
  7  8  1  0
  8  9  2  0
  8 10  1  0
 10 11  1  0
 11 12  1  0
 12 13  2  0
 13 14  1  0
 14 15  1  0
 15 16  2  0
 16 17  1  0
 17 18  2  0
 18 19  1  0
 19 20  1  0
 19 21  2  0
 14 22  1  0
 22 11  2  0
 21 15  1  0
M  END
>  <id>  (536) 
408527

>  <inchikey>  (536) 
NMMXTFSCQBLHKU-SNVBAGLBSA-N

>  <alias>  (536) 
None

>  <smiles>  (536) 
COC[C@H](O)CNC(=O)Nc1ccn(-c2nccc(C)n2)n1

>  <path>  (536) 
/opt/xchem-fragalysis-2/maxwin/RdRp_FFF/syndirella/mar_elabs/elabs_054/VRFUMBMWIYOQKS-UHFFFAOYSA-N/output/VRFUMBMWIYOQKS-UHFFFAOYSA-N-t3VKFn-894-A/VRFUMBMWIYOQKS-UHFFFAOYSA-N-t3VKFn-894-A.minimised.mol

>  <distance_score>  (536) 
1.1459

>  <energy_score>  (536) 
-2.361251

>  <compound>  (536) 
NMMXTFSCQBLHKU-UHFFFAOYSA-N

>  <compound_id>  (536) 
218357

>  <target>  (536) 
Flavi_NS5_RdRp

>  <tags>  (536) 
[]

>  <inspirations>  (536) 
{P Ã— 2}

>  <subsites>  (536) 
None

>  <reference>  (536) 
z0211a

>  <SLURM_JOB_ID>  (536) 
nan

>  <SLURM_JOB_NAME>  (536) 
nan

>  <csv_name>  (536) 
nan

>  <scratch_subdir>  (536) 
nan

>  <fragmenstein_runtime>  (536) 
nan

>  <fragmenstein_outcome>  (536) 
nan

>  <fragmenstein_mode>  (536) 
nan

>  <fragmenstein_error>  (536) 
nan

>  <exports>  (536) 
nan

>  <Multi-SuCOS>  (536) 
nan

>  <merge_set>  (536) 
nan

$$$$
HEQGINDQINLOEG-SNVBAGLBSA-N
     RDKit          3D

 22 23  0  0  0  0  0  0  0  0999 V2000
  -22.1943  -35.1679  -26.7217 C   0  0  0  0  0  0  0  0  0  0  0  0
  -22.6114  -34.8555  -24.9973 S   0  0  0  0  0  0  0  0  0  0  0  0
  -21.6459  -33.2939  -24.7477 C   0  0  0  0  0  0  0  0  0  0  0  0
  -22.3001  -32.3766  -23.7138 C   0  0  2  0  0  0  0  0  0  0  0  0
  -22.1574  -32.9401  -22.3982 O   0  0  0  0  0  0  0  0  0  0  0  0
  -23.7705  -32.1551  -24.0610 C   0  0  0  0  0  0  0  0  0  0  0  0
  -24.4698  -31.5470  -23.0005 N   0  0  0  0  0  0  0  0  0  0  0  0
  -25.7564  -30.7127  -23.0080 C   0  0  0  0  0  0  0  0  0  0  0  0
  -26.3835  -30.3405  -23.8753 O   0  0  0  0  0  0  0  0  0  0  0  0
  -25.9966  -30.6184  -21.5030 N   0  0  0  0  0  0  0  0  0  0  0  0
  -27.0447  -30.1541  -20.8225 C   0  0  0  0  0  0  0  0  0  0  0  0
  -28.3168  -29.7752  -21.2543 C   0  0  0  0  0  0  0  0  0  0  0  0
  -29.0290  -29.6187  -20.0895 C   0  0  0  0  0  0  0  0  0  0  0  0
  -28.1140  -29.7402  -19.0700 N   0  0  0  0  0  0  0  0  0  0  0  0
  -28.3101  -29.7018  -17.6791 C   0  0  0  0  0  0  0  0  0  0  0  0
  -29.5611  -29.7342  -17.2142 N   0  0  0  0  0  0  0  0  0  0  0  0
  -29.6428  -30.0548  -15.9238 C   0  0  0  0  0  0  0  0  0  0  0  0
  -28.5657  -30.2885  -15.0957 C   0  0  0  0  0  0  0  0  0  0  0  0
  -27.3201  -30.2004  -15.6570 C   0  0  0  0  0  0  0  0  0  0  0  0
  -26.0703  -30.5667  -14.9269 C   0  0  0  0  0  0  0  0  0  0  0  0
  -27.1863  -29.8489  -16.9325 N   0  0  0  0  0  0  0  0  0  0  0  0
  -26.8936  -30.0669  -19.5213 N   0  0  0  0  0  0  0  0  0  0  0  0
  1  2  1  0
  2  3  1  0
  3  4  1  0
  4  5  1  1
  4  6  1  0
  6  7  1  0
  7  8  1  0
  8  9  2  0
  8 10  1  0
 10 11  1  0
 11 12  1  0
 12 13  2  0
 13 14  1  0
 14 15  1  0
 15 16  2  0
 16 17  1  0
 17 18  2  0
 18 19  1  0
 19 20  1  0
 19 21  2  0
 14 22  1  0
 22 11  2  0
 21 15  1  0
M  END
>  <id>  (537) 
408556

>  <inchikey>  (537) 
HEQGINDQINLOEG-SNVBAGLBSA-N

>  <alias>  (537) 
None

>  <smiles>  (537) 
CSC[C@H](O)CNC(=O)Nc1ccn(-c2nccc(C)n2)n1

>  <path>  (537) 
/opt/xchem-fragalysis-2/maxwin/RdRp_FFF/syndirella/mar_elabs/elabs_054/VRFUMBMWIYOQKS-UHFFFAOYSA-N/output/VRFUMBMWIYOQKS-UHFFFAOYSA-N-t3VKFn-966-A/VRFUMBMWIYOQKS-UHFFFAOYSA-N-t3VKFn-966-A.minimised.mol

>  <distance_score>  (537) 
1.05401

>  <energy_score>  (537) 
-39.82279

>  <compound>  (537) 
HEQGINDQINLOEG-UHFFFAOYSA-N

>  <compound_id>  (537) 
218376

>  <target>  (537) 
Flavi_NS5_RdRp

>  <tags>  (537) 
[]

>  <inspirations>  (537) 
{P Ã— 2}

>  <subsites>  (537) 
None

>  <reference>  (537) 
z0211a

>  <SLURM_JOB_ID>  (537) 
nan

>  <SLURM_JOB_NAME>  (537) 
nan

>  <csv_name>  (537) 
nan

>  <scratch_subdir>  (537) 
nan

>  <fragmenstein_runtime>  (537) 
nan

>  <fragmenstein_outcome>  (537) 
nan

>  <fragmenstein_mode>  (537) 
nan

>  <fragmenstein_error>  (537) 
nan

>  <exports>  (537) 
nan

>  <Multi-SuCOS>  (537) 
nan

>  <merge_set>  (537) 
nan

$$$$
BDESXMXCUILGGS-AWEZNQCLSA-N
     RDKit          3D

 22 23  0  0  0  0  0  0  0  0999 V2000
  -22.3089  -33.7129  -21.1330 C   0  0  0  0  0  0  0  0  0  0  0  0
  -21.5480  -33.7866  -22.4513 C   0  0  0  0  0  0  0  0  0  0  0  0
  -21.7084  -32.6042  -23.4210 C   0  0  2  0  0  0  0  0  0  0  0  0
  -20.8257  -32.8809  -24.6382 C   0  0  0  0  0  0  0  0  0  0  0  0
  -21.2021  -31.4293  -22.7708 O   0  0  0  0  0  0  0  0  0  0  0  0
  -23.1509  -32.4052  -23.9076 C   0  0  0  0  0  0  0  0  0  0  0  0
  -23.9516  -31.7720  -22.9121 N   0  0  0  0  0  0  0  0  0  0  0  0
  -25.2762  -30.9958  -23.0418 C   0  0  0  0  0  0  0  0  0  0  0  0
  -25.8635  -30.6951  -23.9661 O   0  0  0  0  0  0  0  0  0  0  0  0
  -25.6192  -30.8378  -21.5493 N   0  0  0  0  0  0  0  0  0  0  0  0
  -26.7360  -30.3860  -20.9563 C   0  0  0  0  0  0  0  0  0  0  0  0
  -27.9780  -30.0136  -21.4817 C   0  0  0  0  0  0  0  0  0  0  0  0
  -28.7597  -29.7484  -20.3779 C   0  0  0  0  0  0  0  0  0  0  0  0
  -27.9306  -29.8805  -19.2867 N   0  0  0  0  0  0  0  0  0  0  0  0
  -28.2299  -29.7758  -17.9086 C   0  0  0  0  0  0  0  0  0  0  0  0
  -29.5104  -29.7433  -17.5202 N   0  0  0  0  0  0  0  0  0  0  0  0
  -29.6954  -29.9541  -16.2110 C   0  0  0  0  0  0  0  0  0  0  0  0
  -28.6823  -30.1572  -15.2947 C   0  0  0  0  0  0  0  0  0  0  0  0
  -27.4016  -30.1527  -15.7866 C   0  0  0  0  0  0  0  0  0  0  0  0
  -26.2120  -30.5039  -14.9561 C   0  0  0  0  0  0  0  0  0  0  0  0
  -27.1690  -29.9077  -17.0760 N   0  0  0  0  0  0  0  0  0  0  0  0
  -26.6861  -30.2579  -19.6453 N   0  0  0  0  0  0  0  0  0  0  0  0
  1  2  1  0
  2  3  1  0
  3  4  1  6
  3  5  1  0
  3  6  1  0
  6  7  1  0
  7  8  1  0
  8  9  2  0
  8 10  1  0
 10 11  1  0
 11 12  1  0
 12 13  2  0
 13 14  1  0
 14 15  1  0
 15 16  2  0
 16 17  1  0
 17 18  2  0
 18 19  1  0
 19 20  1  0
 19 21  2  0
 14 22  1  0
 22 11  2  0
 21 15  1  0
M  END
>  <id>  (538) 
408586

>  <inchikey>  (538) 
BDESXMXCUILGGS-AWEZNQCLSA-N

>  <alias>  (538) 
None

>  <smiles>  (538) 
CC[C@](C)(O)CNC(=O)Nc1ccn(-c2nccc(C)n2)n1

>  <path>  (538) 
/opt/xchem-fragalysis-2/maxwin/RdRp_FFF/syndirella/mar_elabs/elabs_054/VRFUMBMWIYOQKS-UHFFFAOYSA-N/output/VRFUMBMWIYOQKS-UHFFFAOYSA-N-t3VKFn-1019-A/VRFUMBMWIYOQKS-UHFFFAOYSA-N-t3VKFn-1019-A.minimised.mol

>  <distance_score>  (538) 
1.060864

>  <energy_score>  (538) 
-54.550776

>  <compound>  (538) 
BDESXMXCUILGGS-UHFFFAOYSA-N

>  <compound_id>  (538) 
218378

>  <target>  (538) 
Flavi_NS5_RdRp

>  <tags>  (538) 
[]

>  <inspirations>  (538) 
{P Ã— 2}

>  <subsites>  (538) 
None

>  <reference>  (538) 
z0211a

>  <SLURM_JOB_ID>  (538) 
nan

>  <SLURM_JOB_NAME>  (538) 
nan

>  <csv_name>  (538) 
nan

>  <scratch_subdir>  (538) 
nan

>  <fragmenstein_runtime>  (538) 
nan

>  <fragmenstein_outcome>  (538) 
nan

>  <fragmenstein_mode>  (538) 
nan

>  <fragmenstein_error>  (538) 
nan

>  <exports>  (538) 
nan

>  <Multi-SuCOS>  (538) 
nan

>  <merge_set>  (538) 
nan

$$$$
JZIREUSUZOGALG-VHSXEESVSA-N
     RDKit          3D

 22 23  0  0  0  0  0  0  0  0999 V2000
  -26.1962  -30.5232  -14.9583 C   0  0  0  0  0  0  0  0  0  0  0  0
  -27.4047  -30.1594  -15.7559 C   0  0  0  0  0  0  0  0  0  0  0  0
  -28.6752  -30.1916  -15.2419 C   0  0  0  0  0  0  0  0  0  0  0  0
  -29.7083  -29.9825  -16.1339 C   0  0  0  0  0  0  0  0  0  0  0  0
  -29.5550  -29.7363  -17.4391 N   0  0  0  0  0  0  0  0  0  0  0  0
  -28.2827  -29.7451  -17.8500 C   0  0  0  0  0  0  0  0  0  0  0  0
  -28.0137  -29.8386  -19.2323 N   0  0  0  0  0  0  0  0  0  0  0  0
  -28.8586  -29.6833  -20.3081 C   0  0  0  0  0  0  0  0  0  0  0  0
  -28.0935  -29.9266  -21.4276 C   0  0  0  0  0  0  0  0  0  0  0  0
  -26.8602  -30.3465  -20.9224 C   0  0  0  0  0  0  0  0  0  0  0  0
  -25.7701  -30.8329  -21.5290 N   0  0  0  0  0  0  0  0  0  0  0  0
  -25.4236  -30.9348  -23.0212 C   0  0  0  0  0  0  0  0  0  0  0  0
  -25.9821  -30.5524  -23.9324 O   0  0  0  0  0  0  0  0  0  0  0  0
  -24.1516  -31.7940  -22.9225 N   0  0  0  0  0  0  0  0  0  0  0  0
  -23.3763  -32.4264  -23.9486 C   0  0  2  0  0  0  0  0  0  0  0  0
  -23.8288  -33.8997  -24.0382 C   0  0  0  0  0  0  0  0  0  0  0  0
  -23.5162  -34.6545  -22.8661 O   0  0  0  0  0  0  0  0  0  0  0  0
  -21.8936  -32.2140  -23.5963 C   0  0  2  0  0  0  0  0  0  0  0  0
  -20.9759  -32.9710  -24.5276 C   0  0  0  0  0  0  0  0  0  0  0  0
  -21.6333  -32.6665  -22.2564 O   0  0  0  0  0  0  0  0  0  0  0  0
  -26.7879  -30.2419  -19.6124 N   0  0  0  0  0  0  0  0  0  0  0  0
  -27.2021  -29.8745  -17.0412 N   0  0  0  0  0  0  0  0  0  0  0  0
  1  2  1  0
  2  3  2  0
  3  4  1  0
  4  5  2  0
  5  6  1  0
  6  7  1  0
  7  8  1  0
  8  9  2  0
  9 10  1  0
 10 11  1  0
 11 12  1  0
 12 13  2  0
 12 14  1  0
 14 15  1  0
 15 16  1  1
 16 17  1  0
 15 18  1  0
 18 19  1  6
 18 20  1  0
 10 21  2  0
  6 22  2  0
 22  2  1  0
 21  7  1  0
M  END
>  <id>  (539) 
408589

>  <inchikey>  (539) 
JZIREUSUZOGALG-VHSXEESVSA-N

>  <alias>  (539) 
None

>  <smiles>  (539) 
Cc1ccnc(-n2ccc(NC(=O)N[C@H](CO)[C@H](C)O)n2)n1

>  <path>  (539) 
/opt/xchem-fragalysis-2/maxwin/RdRp_FFF/syndirella/mar_elabs/elabs_054/VRFUMBMWIYOQKS-UHFFFAOYSA-N/output/VRFUMBMWIYOQKS-UHFFFAOYSA-N-t3VKFn-1023-A/VRFUMBMWIYOQKS-UHFFFAOYSA-N-t3VKFn-1023-A.minimised.mol

>  <distance_score>  (539) 
0.999374

>  <energy_score>  (539) 
-6.347412

>  <compound>  (539) 
JZIREUSUZOGALG-UHFFFAOYSA-N

>  <compound_id>  (539) 
218404

>  <target>  (539) 
Flavi_NS5_RdRp

>  <tags>  (539) 
[]

>  <inspirations>  (539) 
{P Ã— 2}

>  <subsites>  (539) 
None

>  <reference>  (539) 
z0211a

>  <SLURM_JOB_ID>  (539) 
nan

>  <SLURM_JOB_NAME>  (539) 
nan

>  <csv_name>  (539) 
nan

>  <scratch_subdir>  (539) 
nan

>  <fragmenstein_runtime>  (539) 
nan

>  <fragmenstein_outcome>  (539) 
nan

>  <fragmenstein_mode>  (539) 
nan

>  <fragmenstein_error>  (539) 
nan

>  <exports>  (539) 
nan

>  <Multi-SuCOS>  (539) 
nan

>  <merge_set>  (539) 
nan

$$$$
XSWUIMRTKPVMQL-QWRGUYRKSA-N
     RDKit          3D

 22 23  0  0  0  0  0  0  0  0999 V2000
  -23.1215  -35.3696  -24.6446 C   0  0  0  0  0  0  0  0  0  0  0  0
  -23.7566  -34.0750  -24.1660 C   0  0  0  0  0  0  0  0  0  0  0  0
  -22.9308  -33.2952  -23.1248 C   0  0  2  0  0  0  0  0  0  0  0  0
  -23.8388  -32.5730  -22.2651 N   0  0  0  0  0  0  0  0  0  0  0  0
  -25.0205  -31.6394  -22.6160 C   0  0  0  0  0  0  0  0  0  0  0  0
  -25.4763  -31.3798  -23.6229 O   0  0  0  0  0  0  0  0  0  0  0  0
  -25.4586  -31.2477  -21.1971 N   0  0  0  0  0  0  0  0  0  0  0  0
  -26.5411  -30.5731  -20.7750 C   0  0  0  0  0  0  0  0  0  0  0  0
  -27.7241  -30.1875  -21.4234 C   0  0  0  0  0  0  0  0  0  0  0  0
  -28.5551  -29.7585  -20.4055 C   0  0  0  0  0  0  0  0  0  0  0  0
  -27.8073  -29.8371  -19.2521 N   0  0  0  0  0  0  0  0  0  0  0  0
  -28.1896  -29.7053  -17.8967 C   0  0  0  0  0  0  0  0  0  0  0  0
  -29.4866  -29.6940  -17.5683 N   0  0  0  0  0  0  0  0  0  0  0  0
  -29.7250  -29.9278  -16.2692 C   0  0  0  0  0  0  0  0  0  0  0  0
  -28.7499  -30.1527  -15.3144 C   0  0  0  0  0  0  0  0  0  0  0  0
  -27.4512  -30.1364  -15.7518 C   0  0  0  0  0  0  0  0  0  0  0  0
  -26.2880  -30.5262  -14.9035 C   0  0  0  0  0  0  0  0  0  0  0  0
  -27.1697  -29.8386  -17.0165 N   0  0  0  0  0  0  0  0  0  0  0  0
  -26.5468  -30.2404  -19.5021 N   0  0  0  0  0  0  0  0  0  0  0  0
  -21.9767  -32.2366  -23.6958 C   0  0  2  0  0  0  0  0  0  0  0  0
  -20.9003  -32.7929  -24.5910 C   0  0  0  0  0  0  0  0  0  0  0  0
  -21.3153  -31.5637  -22.6118 O   0  0  0  0  0  0  0  0  0  0  0  0
  1  2  1  0
  3  2  1  6
  3  4  1  0
  4  5  1  0
  5  6  2  0
  5  7  1  0
  7  8  1  0
  8  9  1  0
  9 10  2  0
 10 11  1  0
 11 12  1  0
 12 13  2  0
 13 14  1  0
 14 15  2  0
 15 16  1  0
 16 17  1  0
 16 18  2  0
 11 19  1  0
  3 20  1  0
 20 21  1  6
 20 22  1  0
 19  8  2  0
 18 12  1  0
M  END
>  <id>  (540) 
408662

>  <inchikey>  (540) 
XSWUIMRTKPVMQL-QWRGUYRKSA-N

>  <alias>  (540) 
None

>  <smiles>  (540) 
CC[C@H](NC(=O)Nc1ccn(-c2nccc(C)n2)n1)[C@H](C)O

>  <path>  (540) 
/opt/xchem-fragalysis-2/maxwin/RdRp_FFF/syndirella/mar_elabs/elabs_054/VRFUMBMWIYOQKS-UHFFFAOYSA-N/output/VRFUMBMWIYOQKS-UHFFFAOYSA-N-t3VKFn-1127-A/VRFUMBMWIYOQKS-UHFFFAOYSA-N-t3VKFn-1127-A.minimised.mol

>  <distance_score>  (540) 
1.024048

>  <energy_score>  (540) 
-20.515376

>  <compound>  (540) 
XSWUIMRTKPVMQL-UHFFFAOYSA-N

>  <compound_id>  (540) 
218353

>  <target>  (540) 
Flavi_NS5_RdRp

>  <tags>  (540) 
[]

>  <inspirations>  (540) 
{P Ã— 2}

>  <subsites>  (540) 
None

>  <reference>  (540) 
z0211a

>  <SLURM_JOB_ID>  (540) 
nan

>  <SLURM_JOB_NAME>  (540) 
nan

>  <csv_name>  (540) 
nan

>  <scratch_subdir>  (540) 
nan

>  <fragmenstein_runtime>  (540) 
nan

>  <fragmenstein_outcome>  (540) 
nan

>  <fragmenstein_mode>  (540) 
nan

>  <fragmenstein_error>  (540) 
nan

>  <exports>  (540) 
nan

>  <Multi-SuCOS>  (540) 
nan

>  <merge_set>  (540) 
nan

$$$$
NHMIYLVORPYDCK-HNNXBMFYSA-N
     RDKit          3D

 20 22  0  0  0  0  0  0  0  0999 V2000
  -23.5481  -32.2648  -24.5788 C   0  0  0  0  0  0  0  0  0  0  0  0
  -24.9647  -31.7042  -24.5890 C   0  0  0  0  0  0  0  0  0  0  0  0
  -25.1818  -30.7457  -23.4911 C   0  0  0  0  0  0  0  0  0  0  0  0
  -24.9387  -31.0890  -22.2564 N   0  0  0  0  0  0  0  0  0  0  0  0
  -25.4311  -30.1310  -21.4080 C   0  0  0  0  0  0  0  0  0  0  0  0
  -25.4082  -30.5036  -19.9674 C   0  0  2  0  0  0  0  0  0  0  0  0
  -24.1461  -31.0388  -19.6018 O   0  0  0  0  0  0  0  0  0  0  0  0
  -26.3666  -31.5605  -19.7430 N   0  0  0  0  0  0  0  0  0  0  0  0
  -27.6056  -30.9620  -19.4679 C   0  0  0  0  0  0  0  0  0  0  0  0
  -28.4518  -30.8178  -20.5100 N   0  0  0  0  0  0  0  0  0  0  0  0
  -29.6733  -30.3285  -20.2424 C   0  0  0  0  0  0  0  0  0  0  0  0
  -30.0943  -29.9991  -18.9720 C   0  0  0  0  0  0  0  0  0  0  0  0
  -29.1945  -30.1124  -17.9081 C   0  0  0  0  0  0  0  0  0  0  0  0
  -29.5591  -29.8100  -16.5945 C   0  0  0  0  0  0  0  0  0  0  0  0
  -28.6452  -29.9348  -15.5479 C   0  0  0  0  0  0  0  0  0  0  0  0
  -27.3544  -30.3813  -15.7931 C   0  0  0  0  0  0  0  0  0  0  0  0
  -26.9857  -30.7129  -17.0857 C   0  0  0  0  0  0  0  0  0  0  0  0
  -27.8995  -30.5800  -18.1531 C   0  0  0  0  0  0  0  0  0  0  0  0
  -26.1186  -29.1106  -22.0141 C   0  0  0  0  0  0  0  0  0  0  0  0
  -25.8851  -29.2142  -23.6972 S   0  0  0  0  0  0  0  0  0  0  0  0
  1  2  1  0
  2  3  1  0
  3  4  2  0
  4  5  1  0
  5  6  1  0
  6  7  1  6
  6  8  1  0
  8  9  1  0
  9 10  2  0
 10 11  1  0
 11 12  2  0
 12 13  1  0
 13 14  2  0
 14 15  1  0
 15 16  2  0
 16 17  1  0
 17 18  2  0
  5 19  2  0
 19 20  1  0
 20  3  1  0
 18  9  1  0
 18 13  1  0
M  END
>  <id>  (541) 
409723

>  <inchikey>  (541) 
NHMIYLVORPYDCK-HNNXBMFYSA-N

>  <alias>  (541) 
None

>  <smiles>  (541) 
CCc1nc([C@H](O)Nc2nccc3ccccc23)cs1

>  <path>  (541) 
/opt/xchem-fragalysis-2/maxwin/RdRp_FFF/syndirella/mar_elabs/elabs_088/QYRRPPSGQNMPRP-UHFFFAOYSA-N/output/QYRRPPSGQNMPRP-UHFFFAOYSA-N-UmPEEA-636-A/QYRRPPSGQNMPRP-UHFFFAOYSA-N-UmPEEA-636-A.minimised.mol

>  <distance_score>  (541) 
1.735113

>  <energy_score>  (541) 
-91.446669

>  <compound>  (541) 
NHMIYLVORPYDCK-UHFFFAOYSA-N

>  <compound_id>  (541) 
129145

>  <target>  (541) 
Flavi_NS5_RdRp

>  <tags>  (541) 
[]

>  <inspirations>  (541) 
{P Ã— 2}

>  <subsites>  (541) 
None

>  <reference>  (541) 
z0111a

>  <SLURM_JOB_ID>  (541) 
nan

>  <SLURM_JOB_NAME>  (541) 
nan

>  <csv_name>  (541) 
nan

>  <scratch_subdir>  (541) 
nan

>  <fragmenstein_runtime>  (541) 
nan

>  <fragmenstein_outcome>  (541) 
nan

>  <fragmenstein_mode>  (541) 
nan

>  <fragmenstein_error>  (541) 
nan

>  <exports>  (541) 
nan

>  <Multi-SuCOS>  (541) 
nan

>  <merge_set>  (541) 
nan

$$$$
XCIYUEUVIJXWRI-INIZCTEOSA-N
     RDKit          3D

 21 23  0  0  0  0  0  0  0  0999 V2000
  -23.5353  -32.2848  -24.5916 C   0  0  0  0  0  0  0  0  0  0  0  0
  -24.9156  -31.6410  -24.5668 C   0  0  0  0  0  0  0  0  0  0  0  0
  -25.0327  -30.6109  -23.5181 C   0  0  0  0  0  0  0  0  0  0  0  0
  -24.6239  -30.8465  -22.3015 N   0  0  0  0  0  0  0  0  0  0  0  0
  -25.3198  -30.0382  -21.4360 C   0  0  0  0  0  0  0  0  0  0  0  0
  -25.3185  -30.4783  -20.0087 C   0  0  2  0  0  0  0  0  0  0  0  0
  -24.0468  -31.0052  -19.6353 O   0  0  0  0  0  0  0  0  0  0  0  0
  -26.2913  -31.5251  -19.7536 N   0  0  0  0  0  0  0  0  0  0  0  0
  -26.3350  -32.5896  -20.7480 C   0  0  0  0  0  0  0  0  0  0  0  0
  -27.5472  -30.9315  -19.5248 C   0  0  0  0  0  0  0  0  0  0  0  0
  -28.4071  -30.7620  -20.5583 N   0  0  0  0  0  0  0  0  0  0  0  0
  -29.6353  -30.2948  -20.2804 C   0  0  0  0  0  0  0  0  0  0  0  0
  -30.0620  -29.9971  -19.0055 C   0  0  0  0  0  0  0  0  0  0  0  0
  -29.1612  -30.1195  -17.9458 C   0  0  0  0  0  0  0  0  0  0  0  0
  -29.5353  -29.8362  -16.6289 C   0  0  0  0  0  0  0  0  0  0  0  0
  -28.6262  -29.9685  -15.5797 C   0  0  0  0  0  0  0  0  0  0  0  0
  -27.3315  -30.4015  -15.8266 C   0  0  0  0  0  0  0  0  0  0  0  0
  -26.9539  -30.7106  -17.1238 C   0  0  0  0  0  0  0  0  0  0  0  0
  -27.8600  -30.5735  -18.1994 C   0  0  0  0  0  0  0  0  0  0  0  0
  -26.1218  -29.0933  -22.0266 C   0  0  0  0  0  0  0  0  0  0  0  0
  -25.9120  -29.1739  -23.7145 S   0  0  0  0  0  0  0  0  0  0  0  0
  1  2  1  0
  2  3  1  0
  3  4  2  0
  4  5  1  0
  5  6  1  0
  6  7  1  6
  6  8  1  0
  8  9  1  0
  8 10  1  0
 10 11  2  0
 11 12  1  0
 12 13  2  0
 13 14  1  0
 14 15  2  0
 15 16  1  0
 16 17  2  0
 17 18  1  0
 18 19  2  0
  5 20  2  0
 20 21  1  0
 21  3  1  0
 19 10  1  0
 19 14  1  0
M  END
>  <id>  (542) 
410577

>  <inchikey>  (542) 
XCIYUEUVIJXWRI-INIZCTEOSA-N

>  <alias>  (542) 
None

>  <smiles>  (542) 
CCc1nc([C@H](O)N(C)c2nccc3ccccc23)cs1

>  <path>  (542) 
/opt/xchem-fragalysis-2/maxwin/RdRp_FFF/syndirella/mar_elabs/elabs_088/QYRRPPSGQNMPRP-UHFFFAOYSA-N/output/QYRRPPSGQNMPRP-UHFFFAOYSA-N-UmPEEA-4449-A/QYRRPPSGQNMPRP-UHFFFAOYSA-N-UmPEEA-4449-A.minimised.mol

>  <distance_score>  (542) 
1.742224

>  <energy_score>  (542) 
-94.093971

>  <compound>  (542) 
XCIYUEUVIJXWRI-UHFFFAOYSA-N

>  <compound_id>  (542) 
130980

>  <target>  (542) 
Flavi_NS5_RdRp

>  <tags>  (542) 
[]

>  <inspirations>  (542) 
{P Ã— 2}

>  <subsites>  (542) 
None

>  <reference>  (542) 
z0111a

>  <SLURM_JOB_ID>  (542) 
nan

>  <SLURM_JOB_NAME>  (542) 
nan

>  <csv_name>  (542) 
nan

>  <scratch_subdir>  (542) 
nan

>  <fragmenstein_runtime>  (542) 
nan

>  <fragmenstein_outcome>  (542) 
nan

>  <fragmenstein_mode>  (542) 
nan

>  <fragmenstein_error>  (542) 
nan

>  <exports>  (542) 
nan

>  <Multi-SuCOS>  (542) 
nan

>  <merge_set>  (542) 
nan

$$$$
DCVNYXTXONGTJY-UHFFFAOYSA-N
     RDKit          3D

 21 23  0  0  0  0  0  0  0  0999 V2000
  -24.6355  -32.8361  -24.2120 C   0  0  0  0  0  0  0  0  0  0  0  0
  -24.6316  -31.3419  -24.5280 C   0  0  0  0  0  0  0  0  0  0  0  0
  -24.9775  -30.5157  -23.3604 C   0  0  0  0  0  0  0  0  0  0  0  0
  -24.5819  -30.8332  -22.1598 N   0  0  0  0  0  0  0  0  0  0  0  0
  -25.3098  -30.1268  -21.2374 C   0  0  0  0  0  0  0  0  0  0  0  0
  -25.2646  -30.6663  -19.8575 C   0  0  0  0  0  0  0  0  0  0  0  0
  -26.2257  -31.7597  -19.6549 N   0  0  0  0  0  0  0  0  0  0  0  0
  -26.2045  -32.7575  -20.7262 C   0  0  0  0  0  0  0  0  0  0  0  0
  -27.5130  -31.2291  -19.4166 C   0  0  0  0  0  0  0  0  0  0  0  0
  -28.4174  -31.1843  -20.4284 N   0  0  0  0  0  0  0  0  0  0  0  0
  -29.6241  -30.6368  -20.1781 C   0  0  0  0  0  0  0  0  0  0  0  0
  -30.0054  -30.1585  -18.9449 C   0  0  0  0  0  0  0  0  0  0  0  0
  -29.0903  -30.2216  -17.8947 C   0  0  0  0  0  0  0  0  0  0  0  0
  -29.4369  -29.7931  -16.6117 C   0  0  0  0  0  0  0  0  0  0  0  0
  -28.5222  -29.8614  -15.5637 C   0  0  0  0  0  0  0  0  0  0  0  0
  -27.2494  -30.3705  -15.7786 C   0  0  0  0  0  0  0  0  0  0  0  0
  -26.8991  -30.8207  -17.0418 C   0  0  0  0  0  0  0  0  0  0  0  0
  -27.8068  -30.7498  -18.1208 C   0  0  0  0  0  0  0  0  0  0  0  0
  -26.1650  -29.1987  -21.7676 C   0  0  0  0  0  0  0  0  0  0  0  0
  -27.4165  -28.2020  -20.7216 Br  0  0  0  0  0  0  0  0  0  0  0  0
  -25.9599  -29.1374  -23.4511 S   0  0  0  0  0  0  0  0  0  0  0  0
  1  2  1  0
  2  3  1  0
  3  4  2  0
  4  5  1  0
  5  6  1  0
  6  7  1  0
  7  8  1  0
  7  9  1  0
  9 10  2  0
 10 11  1  0
 11 12  2  0
 12 13  1  0
 13 14  2  0
 14 15  1  0
 15 16  2  0
 16 17  1  0
 17 18  2  0
  5 19  2  0
 19 20  1  0
 19 21  1  0
 21  3  1  0
 18  9  1  0
 18 13  1  0
M  END
>  <id>  (543) 
410885

>  <inchikey>  (543) 
DCVNYXTXONGTJY-UHFFFAOYSA-N

>  <alias>  (543) 
None

>  <smiles>  (543) 
CCc1nc(CN(C)c2nccc3ccccc23)c(Br)s1

>  <path>  (543) 
/opt/xchem-fragalysis-2/maxwin/RdRp_FFF/syndirella/mar_elabs/elabs_088/QYRRPPSGQNMPRP-UHFFFAOYSA-N/output/QYRRPPSGQNMPRP-UHFFFAOYSA-N-UmPEEA-5774-A/QYRRPPSGQNMPRP-UHFFFAOYSA-N-UmPEEA-5774-A.minimised.mol

>  <distance_score>  (543) 
1.75723

>  <energy_score>  (543) 
-57.61662

>  <compound>  (543) 
DCVNYXTXONGTJY-UHFFFAOYSA-N

>  <compound_id>  (543) 
131506

>  <target>  (543) 
Flavi_NS5_RdRp

>  <tags>  (543) 
[]

>  <inspirations>  (543) 
{P Ã— 2}

>  <subsites>  (543) 
None

>  <reference>  (543) 
z0111a

>  <SLURM_JOB_ID>  (543) 
nan

>  <SLURM_JOB_NAME>  (543) 
nan

>  <csv_name>  (543) 
nan

>  <scratch_subdir>  (543) 
nan

>  <fragmenstein_runtime>  (543) 
nan

>  <fragmenstein_outcome>  (543) 
nan

>  <fragmenstein_mode>  (543) 
nan

>  <fragmenstein_error>  (543) 
nan

>  <exports>  (543) 
nan

>  <Multi-SuCOS>  (543) 
nan

>  <merge_set>  (543) 
nan

$$$$
OHRTWOOAHMMSLB-AWEZNQCLSA-N
     RDKit          3D

 21 23  0  0  0  0  0  0  0  0999 V2000
  -24.8461  -31.5155  -24.7384 C   0  0  0  0  0  0  0  0  0  0  0  0
  -25.0631  -30.6551  -23.5769 C   0  0  0  0  0  0  0  0  0  0  0  0
  -24.6616  -31.0699  -22.4106 N   0  0  0  0  0  0  0  0  0  0  0  0
  -25.2586  -30.3128  -21.4368 C   0  0  0  0  0  0  0  0  0  0  0  0
  -25.2048  -30.9482  -20.0993 C   0  0  2  0  0  0  0  0  0  0  0  0
  -23.9418  -31.5639  -19.8754 O   0  0  0  0  0  0  0  0  0  0  0  0
  -26.1811  -32.0246  -20.0510 N   0  0  0  0  0  0  0  0  0  0  0  0
  -27.4456  -31.4770  -19.7922 C   0  0  0  0  0  0  0  0  0  0  0  0
  -28.3039  -31.3645  -20.8204 N   0  0  0  0  0  0  0  0  0  0  0  0
  -29.4912  -30.7464  -20.6140 C   0  0  0  0  0  0  0  0  0  0  0  0
  -29.9021  -30.2643  -19.4051 C   0  0  0  0  0  0  0  0  0  0  0  0
  -29.0023  -30.3918  -18.3621 C   0  0  0  0  0  0  0  0  0  0  0  0
  -29.3297  -29.8961  -17.1373 C   0  0  0  0  0  0  0  0  0  0  0  0
  -28.3762  -29.9745  -16.1425 C   0  0  0  0  0  0  0  0  0  0  0  0
  -28.7364  -29.0169  -14.6483 Br  0  0  0  0  0  0  0  0  0  0  0  0
  -27.1553  -30.6092  -16.2441 C   0  0  0  0  0  0  0  0  0  0  0  0
  -26.8470  -31.1573  -17.4533 C   0  0  0  0  0  0  0  0  0  0  0  0
  -27.7442  -31.0069  -18.5270 C   0  0  0  0  0  0  0  0  0  0  0  0
  -26.0585  -29.2974  -21.8918 C   0  0  0  0  0  0  0  0  0  0  0  0
  -27.2598  -28.3005  -20.7840 Br  0  0  0  0  0  0  0  0  0  0  0  0
  -25.9176  -29.1890  -23.5796 S   0  0  0  0  0  0  0  0  0  0  0  0
  1  2  1  0
  2  3  2  0
  3  4  1  0
  4  5  1  0
  5  6  1  6
  5  7  1  0
  7  8  1  0
  8  9  2  0
  9 10  1  0
 10 11  2  0
 11 12  1  0
 12 13  2  0
 13 14  1  0
 14 15  1  0
 14 16  2  0
 16 17  1  0
 17 18  2  0
  4 19  2  0
 19 20  1  0
 19 21  1  0
 21  2  1  0
 18  8  1  0
 18 12  1  0
M  END
>  <id>  (544) 
410899

>  <inchikey>  (544) 
OHRTWOOAHMMSLB-AWEZNQCLSA-N

>  <alias>  (544) 
None

>  <smiles>  (544) 
Cc1nc([C@H](O)Nc2nccc3cc(Br)ccc23)c(Br)s1

>  <path>  (544) 
/opt/xchem-fragalysis-2/maxwin/RdRp_FFF/syndirella/mar_elabs/elabs_088/QYRRPPSGQNMPRP-UHFFFAOYSA-N/output/QYRRPPSGQNMPRP-UHFFFAOYSA-N-UmPEEA-5874-A/QYRRPPSGQNMPRP-UHFFFAOYSA-N-UmPEEA-5874-A.minimised.mol

>  <distance_score>  (544) 
1.813896

>  <energy_score>  (544) 
-43.793723

>  <compound>  (544) 
OHRTWOOAHMMSLB-UHFFFAOYSA-N

>  <compound_id>  (544) 
131535

>  <target>  (544) 
Flavi_NS5_RdRp

>  <tags>  (544) 
[]

>  <inspirations>  (544) 
{P Ã— 2}

>  <subsites>  (544) 
None

>  <reference>  (544) 
z0111a

>  <SLURM_JOB_ID>  (544) 
nan

>  <SLURM_JOB_NAME>  (544) 
nan

>  <csv_name>  (544) 
nan

>  <scratch_subdir>  (544) 
nan

>  <fragmenstein_runtime>  (544) 
nan

>  <fragmenstein_outcome>  (544) 
nan

>  <fragmenstein_mode>  (544) 
nan

>  <fragmenstein_error>  (544) 
nan

>  <exports>  (544) 
nan

>  <Multi-SuCOS>  (544) 
nan

>  <merge_set>  (544) 
nan

$$$$
NAEZULOUIUBEIA-GXFFZTMASA-N
     RDKit          3D

 25 27  0  0  0  0  0  0  0  0999 V2000
  -20.7727  -43.8262  -21.5424 C   0  0  0  0  0  0  0  0  0  0  0  0
  -19.7684  -44.2406  -20.5460 C   0  0  0  0  0  0  0  0  0  0  0  0
  -18.4925  -44.5139  -21.0048 N   0  0  0  0  0  0  0  0  0  0  0  0
  -17.6722  -44.6752  -19.9831 C   0  0  0  0  0  0  0  0  0  0  0  0
  -16.2052  -44.5257  -20.0730 C   0  0  0  0  0  0  0  0  0  0  0  0
  -15.6138  -44.2014  -21.2942 C   0  0  0  0  0  0  0  0  0  0  0  0
  -14.2867  -43.7849  -21.3096 C   0  0  0  0  0  0  0  0  0  0  0  0
  -13.5885  -43.6952  -20.1135 C   0  0  0  0  0  0  0  0  0  0  0  0
  -14.2325  -44.0723  -18.9518 C   0  0  0  0  0  0  0  0  0  0  0  0
  -15.5094  -44.5109  -18.9039 N   0  0  0  0  0  0  0  0  0  0  0  0
  -18.4666  -44.8375  -18.4601 S   0  0  0  0  0  0  0  0  0  0  0  0
  -19.9318  -44.3268  -19.1780 C   0  0  0  0  0  0  0  0  0  0  0  0
  -21.0731  -43.9710  -18.3498 C   0  0  0  0  0  0  0  0  0  0  0  0
  -21.2464  -42.8660  -18.0314 O   0  0  0  0  0  0  0  0  0  0  0  0
  -21.8883  -45.2311  -18.0462 N   0  0  0  0  0  0  0  0  0  0  0  0
  -23.0585  -45.4220  -17.1937 C   0  0  2  0  0  0  0  0  0  0  0  0
  -23.0930  -46.8370  -16.6703 C   0  0  2  0  0  0  0  0  0  0  0  0
  -22.6813  -47.1841  -15.2669 C   0  0  0  0  0  0  0  0  0  0  0  0
  -21.8847  -47.7205  -16.4414 C   0  0  0  0  0  0  0  0  0  0  0  0
  -20.4738  -47.2200  -16.5807 C   0  0  0  0  0  0  0  0  0  0  0  0
  -22.1098  -49.1132  -16.9432 C   0  0  0  0  0  0  0  0  0  0  0  0
  -24.3755  -45.1487  -17.9439 C   0  0  0  0  0  0  0  0  0  0  0  0
  -25.4461  -45.6045  -17.2597 F   0  0  0  0  0  0  0  0  0  0  0  0
  -24.5744  -43.8338  -18.1433 F   0  0  0  0  0  0  0  0  0  0  0  0
  -24.3875  -45.8200  -19.1170 F   0  0  0  0  0  0  0  0  0  0  0  0
  1  2  1  0
  2  3  1  0
  3  4  2  0
  4  5  1  0
  5  6  2  0
  6  7  1  0
  7  8  2  0
  8  9  1  0
  9 10  2  0
  4 11  1  0
 11 12  1  0
 12 13  1  0
 13 14  2  0
 13 15  1  0
 16 15  1  6
 16 17  1  0
 17 18  1  1
 18 19  1  0
 19 20  1  0
 19 21  1  0
 16 22  1  0
 22 23  1  0
 22 24  1  0
 22 25  1  0
 12  2  2  0
 19 17  1  0
 10  5  1  0
M  END
>  <id>  (545) 
411711

>  <inchikey>  (545) 
NAEZULOUIUBEIA-GXFFZTMASA-N

>  <alias>  (545) 
None

>  <smiles>  (545) 
Cc1nc(-c2ccccn2)sc1C(=O)N[C@H]([C@@H]1CC1(C)C)C(F)(F)F

>  <path>  (545) 
/opt/xchem-fragalysis-2/maxwin/RdRp_FFF/syndirella/mar_elabs/elabs_044/HGMRINZTTPAZBD-UHFFFAOYSA-N/output/HGMRINZTTPAZBD-UHFFFAOYSA-N-ZWdiVr-1403-A/HGMRINZTTPAZBD-UHFFFAOYSA-N-ZWdiVr-1403-A.minimised.mol

>  <distance_score>  (545) 
1.05865

>  <energy_score>  (545) 
-54.125512

>  <compound>  (545) 
NAEZULOUIUBEIA-UHFFFAOYSA-N

>  <compound_id>  (545) 
146115

>  <target>  (545) 
Flavi_NS5_RdRp

>  <tags>  (545) 
[]

>  <inspirations>  (545) 
{P Ã— 2}

>  <subsites>  (545) 
None

>  <reference>  (545) 
d0264a

>  <SLURM_JOB_ID>  (545) 
nan

>  <SLURM_JOB_NAME>  (545) 
nan

>  <csv_name>  (545) 
nan

>  <scratch_subdir>  (545) 
nan

>  <fragmenstein_runtime>  (545) 
nan

>  <fragmenstein_outcome>  (545) 
nan

>  <fragmenstein_mode>  (545) 
nan

>  <fragmenstein_error>  (545) 
nan

>  <exports>  (545) 
nan

>  <Multi-SuCOS>  (545) 
nan

>  <merge_set>  (545) 
nan

$$$$
XRXOWQRJGKHMIM-CYBMUJFWSA-N
     RDKit          3D

 21 22  0  0  0  0  0  0  0  0999 V2000
  -21.0850  -32.8076  -24.7596 C   0  0  0  0  0  0  0  0  0  0  0  0
  -21.1725  -33.3227  -23.3333 C   0  0  0  0  0  0  0  0  0  0  0  0
  -21.9284  -32.4130  -22.3705 C   0  0  1  0  0  0  0  0  0  0  0  0
  -21.1900  -31.2067  -22.2158 O   0  0  0  0  0  0  0  0  0  0  0  0
  -23.3612  -32.1698  -22.8303 C   0  0  0  0  0  0  0  0  0  0  0  0
  -24.1913  -31.5490  -21.8351 N   0  0  0  0  0  0  0  0  0  0  0  0
  -25.5681  -30.8559  -21.9695 C   0  0  0  0  0  0  0  0  0  0  0  0
  -26.1852  -30.6217  -22.8956 O   0  0  0  0  0  0  0  0  0  0  0  0
  -25.8918  -30.6316  -20.4632 N   0  0  0  0  0  0  0  0  0  0  0  0
  -27.0346  -30.1802  -19.8613 C   0  0  0  0  0  0  0  0  0  0  0  0
  -28.2101  -29.9834  -20.5527 C   0  0  0  0  0  0  0  0  0  0  0  0
  -29.1948  -29.9507  -19.5688 C   0  0  0  0  0  0  0  0  0  0  0  0
  -30.6402  -30.1316  -19.7480 C   0  0  0  0  0  0  0  0  0  0  0  0
  -28.6763  -29.8252  -18.3502 N   0  0  0  0  0  0  0  0  0  0  0  0
  -27.3310  -29.9839  -18.5141 N   0  0  0  0  0  0  0  0  0  0  0  0
  -26.5242  -30.0960  -17.3491 C   0  0  0  0  0  0  0  0  0  0  0  0
  -25.1365  -30.2165  -17.4147 C   0  0  0  0  0  0  0  0  0  0  0  0
  -24.4312  -30.6708  -16.3005 C   0  0  0  0  0  0  0  0  0  0  0  0
  -25.1049  -30.9834  -15.1259 C   0  0  0  0  0  0  0  0  0  0  0  0
  -26.4797  -30.7836  -15.0457 C   0  0  0  0  0  0  0  0  0  0  0  0
  -27.1828  -30.2726  -16.1216 C   0  0  0  0  0  0  0  0  0  0  0  0
  1  2  1  0
  2  3  1  0
  3  4  1  6
  3  5  1  0
  5  6  1  0
  6  7  1  0
  7  8  2  0
  7  9  1  0
  9 10  1  0
 10 11  2  0
 11 12  1  0
 12 13  1  0
 12 14  2  0
 14 15  1  0
 15 16  1  0
 16 17  2  0
 17 18  1  0
 18 19  2  0
 19 20  1  0
 20 21  2  0
 15 10  1  0
 21 16  1  0
M  END
>  <id>  (546) 
412590

>  <inchikey>  (546) 
XRXOWQRJGKHMIM-CYBMUJFWSA-N

>  <alias>  (546) 
None

>  <smiles>  (546) 
CC[C@@H](O)CNC(=O)Nc1cc(C)nn1-c1ccccc1

>  <path>  (546) 
/opt/xchem-fragalysis-2/maxwin/RdRp_FFF/syndirella/mar_elabs/elabs_062/FGZCUNYQGFTGLS-UHFFFAOYSA-N/output/FGZCUNYQGFTGLS-UHFFFAOYSA-N-pMke9u-192-B/FGZCUNYQGFTGLS-UHFFFAOYSA-N-pMke9u-192-B.minimised.mol

>  <distance_score>  (546) 
1.17996

>  <energy_score>  (546) 
-22.702193

>  <compound>  (546) 
XRXOWQRJGKHMIM-UHFFFAOYSA-N

>  <compound_id>  (546) 
225211

>  <target>  (546) 
Flavi_NS5_RdRp

>  <tags>  (546) 
[]

>  <inspirations>  (546) 
{P Ã— 2}

>  <subsites>  (546) 
None

>  <reference>  (546) 
z0211a

>  <SLURM_JOB_ID>  (546) 
nan

>  <SLURM_JOB_NAME>  (546) 
nan

>  <csv_name>  (546) 
nan

>  <scratch_subdir>  (546) 
nan

>  <fragmenstein_runtime>  (546) 
nan

>  <fragmenstein_outcome>  (546) 
nan

>  <fragmenstein_mode>  (546) 
nan

>  <fragmenstein_error>  (546) 
nan

>  <exports>  (546) 
nan

>  <Multi-SuCOS>  (546) 
nan

>  <merge_set>  (546) 
nan

$$$$
ZHBIZAWIEZPUCA-JTQLQIEISA-N
     RDKit          3D

 21 22  0  0  0  0  0  0  0  0999 V2000
  -29.9438  -30.0205  -20.2362 C   0  0  0  0  0  0  0  0  0  0  0  0
  -28.4991  -30.1886  -19.9746 C   0  0  0  0  0  0  0  0  0  0  0  0
  -27.5219  -30.7073  -20.8356 C   0  0  0  0  0  0  0  0  0  0  0  0
  -26.3489  -30.7139  -20.1137 C   0  0  0  0  0  0  0  0  0  0  0  0
  -25.1079  -31.0708  -20.5739 N   0  0  0  0  0  0  0  0  0  0  0  0
  -24.6987  -31.6946  -21.8515 C   0  0  0  0  0  0  0  0  0  0  0  0
  -25.3345  -32.0925  -22.7190 O   0  0  0  0  0  0  0  0  0  0  0  0
  -23.0707  -31.5963  -21.6518 N   0  0  0  0  0  0  0  0  0  0  0  0
  -21.8375  -32.1048  -22.5306 C   0  0  0  0  0  0  0  0  0  0  0  0
  -21.7533  -32.9606  -23.8333 S   0  0  0  0  0  0  0  0  0  0  0  0
  -20.5652  -31.6420  -21.7598 C   0  0  2  0  0  0  0  0  0  0  0  0
  -19.9162  -32.8129  -21.0290 C   0  0  0  0  0  0  0  0  0  0  0  0
  -20.7753  -30.5940  -20.8240 O   0  0  0  0  0  0  0  0  0  0  0  0
  -26.6884  -30.2821  -18.8355 N   0  0  0  0  0  0  0  0  0  0  0  0
  -25.9818  -30.3937  -17.6029 C   0  0  0  0  0  0  0  0  0  0  0  0
  -24.8041  -31.1396  -17.4722 C   0  0  0  0  0  0  0  0  0  0  0  0
  -24.2307  -31.3410  -16.2138 C   0  0  0  0  0  0  0  0  0  0  0  0
  -24.8410  -30.8250  -15.0773 C   0  0  0  0  0  0  0  0  0  0  0  0
  -26.0161  -30.0949  -15.1997 C   0  0  0  0  0  0  0  0  0  0  0  0
  -26.5798  -29.8661  -16.4497 C   0  0  0  0  0  0  0  0  0  0  0  0
  -27.9726  -29.8199  -18.8076 N   0  0  0  0  0  0  0  0  0  0  0  0
  1  2  1  0
  2  3  1  0
  3  4  2  0
  4  5  1  0
  5  6  1  0
  6  7  2  0
  6  8  1  0
  8  9  1  0
  9 10  2  0
  9 11  1  0
 11 12  1  1
 11 13  1  0
  4 14  1  0
 14 15  1  0
 15 16  2  0
 16 17  1  0
 17 18  2  0
 18 19  1  0
 19 20  2  0
 14 21  1  0
 21  2  2  0
 20 15  1  0
M  END
>  <id>  (547) 
412591

>  <inchikey>  (547) 
ZHBIZAWIEZPUCA-JTQLQIEISA-N

>  <alias>  (547) 
None

>  <smiles>  (547) 
Cc1cc(NC(=O)NC(=S)[C@H](C)O)n(-c2ccccc2)n1

>  <path>  (547) 
/opt/xchem-fragalysis-2/maxwin/RdRp_FFF/syndirella/mar_elabs/elabs_062/FGZCUNYQGFTGLS-UHFFFAOYSA-N/output/FGZCUNYQGFTGLS-UHFFFAOYSA-N-pMke9u-193-A/FGZCUNYQGFTGLS-UHFFFAOYSA-N-pMke9u-193-A.minimised.mol

>  <distance_score>  (547) 
1.798756

>  <energy_score>  (547) 
-0.966804

>  <compound>  (547) 
ZHBIZAWIEZPUCA-UHFFFAOYSA-N

>  <compound_id>  (547) 
225212

>  <target>  (547) 
Flavi_NS5_RdRp

>  <tags>  (547) 
[]

>  <inspirations>  (547) 
{P Ã— 2}

>  <subsites>  (547) 
None

>  <reference>  (547) 
z0211a

>  <SLURM_JOB_ID>  (547) 
nan

>  <SLURM_JOB_NAME>  (547) 
nan

>  <csv_name>  (547) 
nan

>  <scratch_subdir>  (547) 
nan

>  <fragmenstein_runtime>  (547) 
nan

>  <fragmenstein_outcome>  (547) 
nan

>  <fragmenstein_mode>  (547) 
nan

>  <fragmenstein_error>  (547) 
nan

>  <exports>  (547) 
nan

>  <Multi-SuCOS>  (547) 
nan

>  <merge_set>  (547) 
nan

$$$$
NTMFBJXAYZUUEV-SNVBAGLBSA-N
     RDKit          3D

 21 22  0  0  0  0  0  0  0  0999 V2000
  -30.2492  -30.0528  -20.1656 C   0  0  0  0  0  0  0  0  0  0  0  0
  -28.7873  -30.1485  -19.9895 C   0  0  0  0  0  0  0  0  0  0  0  0
  -27.8770  -30.8265  -20.8019 C   0  0  0  0  0  0  0  0  0  0  0  0
  -26.6623  -30.7670  -20.1610 C   0  0  0  0  0  0  0  0  0  0  0  0
  -25.5111  -31.3659  -20.5981 N   0  0  0  0  0  0  0  0  0  0  0  0
  -25.3104  -32.5524  -21.4713 C   0  0  0  0  0  0  0  0  0  0  0  0
  -26.0802  -33.2875  -21.9193 O   0  0  0  0  0  0  0  0  0  0  0  0
  -23.7025  -32.5234  -21.5497 N   0  0  0  0  0  0  0  0  0  0  0  0
  -22.7130  -33.3720  -22.3061 C   0  0  0  0  0  0  0  0  0  0  0  0
  -22.8636  -34.3758  -23.0066 N   0  0  0  0  0  0  0  0  0  0  0  0
  -21.3324  -32.7073  -22.1737 C   0  0  1  0  0  0  0  0  0  0  0  0
  -21.1184  -31.8284  -23.3954 C   0  0  0  0  0  0  0  0  0  0  0  0
  -21.2794  -31.8798  -21.0139 O   0  0  0  0  0  0  0  0  0  0  0  0
  -26.9138  -30.1147  -18.9537 N   0  0  0  0  0  0  0  0  0  0  0  0
  -26.2180  -30.1746  -17.7102 C   0  0  0  0  0  0  0  0  0  0  0  0
  -26.9070  -29.7510  -16.5613 C   0  0  0  0  0  0  0  0  0  0  0  0
  -26.3981  -30.0131  -15.2947 C   0  0  0  0  0  0  0  0  0  0  0  0
  -25.1754  -30.6516  -15.1487 C   0  0  0  0  0  0  0  0  0  0  0  0
  -24.4593  -31.0257  -16.2790 C   0  0  0  0  0  0  0  0  0  0  0  0
  -24.9780  -30.7970  -17.5567 C   0  0  0  0  0  0  0  0  0  0  0  0
  -28.1756  -29.5816  -18.9527 N   0  0  0  0  0  0  0  0  0  0  0  0
  1  2  1  0
  2  3  1  0
  3  4  2  0
  4  5  1  0
  5  6  1  0
  6  7  2  0
  6  8  1  0
  8  9  1  0
  9 10  2  3
  9 11  1  0
 11 12  1  6
 11 13  1  0
  4 14  1  0
 14 15  1  0
 15 16  2  0
 16 17  1  0
 17 18  2  0
 18 19  1  0
 19 20  2  0
 14 21  1  0
 21  2  2  0
 20 15  1  0
M  END
>  <id>  (548) 
412596

>  <inchikey>  (548) 
NTMFBJXAYZUUEV-SNVBAGLBSA-N

>  <alias>  (548) 
None

>  <smiles>  (548) 
Cc1cc(NC(=O)NC(=N)[C@@H](C)O)n(-c2ccccc2)n1

>  <path>  (548) 
/opt/xchem-fragalysis-2/maxwin/RdRp_FFF/syndirella/mar_elabs/elabs_062/FGZCUNYQGFTGLS-UHFFFAOYSA-N/output/FGZCUNYQGFTGLS-UHFFFAOYSA-N-pMke9u-204-B/FGZCUNYQGFTGLS-UHFFFAOYSA-N-pMke9u-204-B.minimised.mol

>  <distance_score>  (548) 
1.846224

>  <energy_score>  (548) 
-3.706472

>  <compound>  (548) 
NTMFBJXAYZUUEV-UHFFFAOYSA-N

>  <compound_id>  (548) 
225219

>  <target>  (548) 
Flavi_NS5_RdRp

>  <tags>  (548) 
[]

>  <inspirations>  (548) 
{P Ã— 2}

>  <subsites>  (548) 
None

>  <reference>  (548) 
z0211a

>  <SLURM_JOB_ID>  (548) 
nan

>  <SLURM_JOB_NAME>  (548) 
nan

>  <csv_name>  (548) 
nan

>  <scratch_subdir>  (548) 
nan

>  <fragmenstein_runtime>  (548) 
nan

>  <fragmenstein_outcome>  (548) 
nan

>  <fragmenstein_mode>  (548) 
nan

>  <fragmenstein_error>  (548) 
nan

>  <exports>  (548) 
nan

>  <Multi-SuCOS>  (548) 
nan

>  <merge_set>  (548) 
nan

$$$$
MEIXXEMJEIKOME-LLVKDONJSA-N
     RDKit          3D

 22 23  0  0  0  0  0  0  0  0999 V2000
  -24.8602  -31.3555  -14.1465 C   0  0  0  0  0  0  0  0  0  0  0  0
  -25.5156  -30.7363  -15.3389 C   0  0  0  0  0  0  0  0  0  0  0  0
  -26.8707  -30.4134  -15.3396 C   0  0  0  0  0  0  0  0  0  0  0  0
  -27.4912  -29.9960  -16.5107 C   0  0  0  0  0  0  0  0  0  0  0  0
  -26.7656  -29.9558  -17.7115 C   0  0  0  0  0  0  0  0  0  0  0  0
  -27.5007  -29.9457  -18.9283 N   0  0  0  0  0  0  0  0  0  0  0  0
  -28.8501  -29.7816  -18.8571 N   0  0  0  0  0  0  0  0  0  0  0  0
  -29.2907  -29.9339  -20.1021 C   0  0  0  0  0  0  0  0  0  0  0  0
  -30.7372  -30.0801  -20.3523 C   0  0  0  0  0  0  0  0  0  0  0  0
  -28.2337  -30.0538  -21.0129 C   0  0  0  0  0  0  0  0  0  0  0  0
  -27.1138  -30.2467  -20.2341 C   0  0  0  0  0  0  0  0  0  0  0  0
  -25.9117  -30.7351  -20.6828 N   0  0  0  0  0  0  0  0  0  0  0  0
  -25.4119  -30.9484  -22.0631 C   0  0  0  0  0  0  0  0  0  0  0  0
  -25.8894  -30.6813  -23.0776 O   0  0  0  0  0  0  0  0  0  0  0  0
  -24.0004  -31.6297  -21.7032 N   0  0  0  0  0  0  0  0  0  0  0  0
  -22.9161  -32.2210  -22.5654 C   0  0  0  0  0  0  0  0  0  0  0  0
  -22.7794  -32.2675  -23.7901 N   0  0  0  0  0  0  0  0  0  0  0  0
  -21.8971  -32.8831  -21.6139 C   0  0  1  0  0  0  0  0  0  0  0  0
  -20.4663  -32.6299  -22.0548 C   0  0  0  0  0  0  0  0  0  0  0  0
  -22.0894  -32.4358  -20.2696 O   0  0  0  0  0  0  0  0  0  0  0  0
  -25.3810  -30.0905  -17.6719 C   0  0  0  0  0  0  0  0  0  0  0  0
  -24.7645  -30.5038  -16.4924 C   0  0  0  0  0  0  0  0  0  0  0  0
  1  2  1  0
  2  3  2  0
  3  4  1  0
  4  5  2  0
  5  6  1  0
  6  7  1  0
  7  8  2  0
  8  9  1  0
  8 10  1  0
 10 11  2  0
 11 12  1  0
 12 13  1  0
 13 14  2  0
 13 15  1  0
 15 16  1  0
 16 17  2  3
 16 18  1  0
 18 19  1  6
 18 20  1  0
  5 21  1  0
 21 22  2  0
 22  2  1  0
 11  6  1  0
M  END
>  <id>  (549) 
412685

>  <inchikey>  (549) 
MEIXXEMJEIKOME-LLVKDONJSA-N

>  <alias>  (549) 
None

>  <smiles>  (549) 
Cc1ccc(-n2nc(C)cc2NC(=O)NC(=N)[C@@H](C)O)cc1

>  <path>  (549) 
/opt/xchem-fragalysis-2/maxwin/RdRp_FFF/syndirella/mar_elabs/elabs_062/FGZCUNYQGFTGLS-UHFFFAOYSA-N/output/FGZCUNYQGFTGLS-UHFFFAOYSA-N-pMke9u-535-B/FGZCUNYQGFTGLS-UHFFFAOYSA-N-pMke9u-535-B.minimised.mol

>  <distance_score>  (549) 
1.577464

>  <energy_score>  (549) 
-15.233205

>  <compound>  (549) 
MEIXXEMJEIKOME-UHFFFAOYSA-N

>  <compound_id>  (549) 
225379

>  <target>  (549) 
Flavi_NS5_RdRp

>  <tags>  (549) 
[]

>  <inspirations>  (549) 
{P Ã— 2}

>  <subsites>  (549) 
None

>  <reference>  (549) 
z0211a

>  <SLURM_JOB_ID>  (549) 
nan

>  <SLURM_JOB_NAME>  (549) 
nan

>  <csv_name>  (549) 
nan

>  <scratch_subdir>  (549) 
nan

>  <fragmenstein_runtime>  (549) 
nan

>  <fragmenstein_outcome>  (549) 
nan

>  <fragmenstein_mode>  (549) 
nan

>  <fragmenstein_error>  (549) 
nan

>  <exports>  (549) 
nan

>  <Multi-SuCOS>  (549) 
nan

>  <merge_set>  (549) 
nan

$$$$
AQZDCBVOXGGJSW-CYBMUJFWSA-N
     RDKit          3D

 22 23  0  0  0  0  0  0  0  0999 V2000
  -20.6407  -32.1698  -20.4969 C   0  0  0  0  0  0  0  0  0  0  0  0
  -21.4362  -31.5844  -21.5174 O   0  0  0  0  0  0  0  0  0  0  0  0
  -22.0922  -32.5335  -22.3586 C   0  0  2  0  0  0  0  0  0  0  0  0
  -21.1564  -32.9519  -23.4882 C   0  0  0  0  0  0  0  0  0  0  0  0
  -23.3340  -31.8844  -22.9619 C   0  0  0  0  0  0  0  0  0  0  0  0
  -24.3116  -31.4202  -22.0102 N   0  0  0  0  0  0  0  0  0  0  0  0
  -25.6941  -30.7549  -22.2349 C   0  0  0  0  0  0  0  0  0  0  0  0
  -26.2673  -30.5584  -23.1987 O   0  0  0  0  0  0  0  0  0  0  0  0
  -26.1112  -30.5173  -20.7473 N   0  0  0  0  0  0  0  0  0  0  0  0
  -27.3057  -30.0973  -20.2167 C   0  0  0  0  0  0  0  0  0  0  0  0
  -28.4325  -29.9116  -20.9946 C   0  0  0  0  0  0  0  0  0  0  0  0
  -29.4926  -29.8815  -20.0937 C   0  0  0  0  0  0  0  0  0  0  0  0
  -30.9232  -30.0840  -20.3134 C   0  0  0  0  0  0  0  0  0  0  0  0
  -29.0652  -29.7447  -18.8526 N   0  0  0  0  0  0  0  0  0  0  0  0
  -27.7168  -29.8603  -18.9098 N   0  0  0  0  0  0  0  0  0  0  0  0
  -27.0678  -29.8961  -17.6581 C   0  0  0  0  0  0  0  0  0  0  0  0
  -25.7124  -30.1555  -17.5268 C   0  0  0  0  0  0  0  0  0  0  0  0
  -25.2624  -30.6369  -16.3044 C   0  0  0  0  0  0  0  0  0  0  0  0
  -26.1526  -30.8394  -15.2392 C   0  0  0  0  0  0  0  0  0  0  0  0
  -25.7000  -31.6340  -14.0643 C   0  0  0  0  0  0  0  0  0  0  0  0
  -27.4534  -30.3580  -15.3148 C   0  0  0  0  0  0  0  0  0  0  0  0
  -27.9047  -29.8615  -16.5183 C   0  0  0  0  0  0  0  0  0  0  0  0
  1  2  1  0
  2  3  1  0
  3  4  1  6
  3  5  1  0
  5  6  1  0
  6  7  1  0
  7  8  2  0
  7  9  1  0
  9 10  1  0
 10 11  2  0
 11 12  1  0
 12 13  1  0
 12 14  2  0
 14 15  1  0
 15 16  1  0
 16 17  2  0
 17 18  1  0
 18 19  2  0
 19 20  1  0
 19 21  1  0
 21 22  2  0
 15 10  1  0
 22 16  1  0
M  END
>  <id>  (550) 
412689

>  <inchikey>  (550) 
AQZDCBVOXGGJSW-CYBMUJFWSA-N

>  <alias>  (550) 
None

>  <smiles>  (550) 
CO[C@H](C)CNC(=O)Nc1cc(C)nn1-c1ccc(C)cc1

>  <path>  (550) 
/opt/xchem-fragalysis-2/maxwin/RdRp_FFF/syndirella/mar_elabs/elabs_062/FGZCUNYQGFTGLS-UHFFFAOYSA-N/output/FGZCUNYQGFTGLS-UHFFFAOYSA-N-pMke9u-543-A/FGZCUNYQGFTGLS-UHFFFAOYSA-N-pMke9u-543-A.minimised.mol

>  <distance_score>  (550) 
1.200947

>  <energy_score>  (550) 
-5.472803

>  <compound>  (550) 
AQZDCBVOXGGJSW-UHFFFAOYSA-N

>  <compound_id>  (550) 
225386

>  <target>  (550) 
Flavi_NS5_RdRp

>  <tags>  (550) 
[]

>  <inspirations>  (550) 
{P Ã— 2}

>  <subsites>  (550) 
None

>  <reference>  (550) 
z0211a

>  <SLURM_JOB_ID>  (550) 
nan

>  <SLURM_JOB_NAME>  (550) 
nan

>  <csv_name>  (550) 
nan

>  <scratch_subdir>  (550) 
nan

>  <fragmenstein_runtime>  (550) 
nan

>  <fragmenstein_outcome>  (550) 
nan

>  <fragmenstein_mode>  (550) 
nan

>  <fragmenstein_error>  (550) 
nan

>  <exports>  (550) 
nan

>  <Multi-SuCOS>  (550) 
nan

>  <merge_set>  (550) 
nan

$$$$
HGUSJCJUYIOTAT-CYBMUJFWSA-N
     RDKit          3D

 22 23  0  0  0  0  0  0  0  0999 V2000
  -25.7869  -31.4746  -14.2222 C   0  0  0  0  0  0  0  0  0  0  0  0
  -26.3249  -30.7046  -15.3775 C   0  0  0  0  0  0  0  0  0  0  0  0
  -27.6543  -30.2975  -15.4099 C   0  0  0  0  0  0  0  0  0  0  0  0
  -28.1861  -29.8687  -16.6099 C   0  0  0  0  0  0  0  0  0  0  0  0
  -27.3925  -29.8820  -17.7776 C   0  0  0  0  0  0  0  0  0  0  0  0
  -28.0727  -29.8964  -19.0110 N   0  0  0  0  0  0  0  0  0  0  0  0
  -29.4266  -29.8884  -18.9389 N   0  0  0  0  0  0  0  0  0  0  0  0
  -29.8476  -29.8656  -20.1914 C   0  0  0  0  0  0  0  0  0  0  0  0
  -31.2796  -30.0508  -20.4454 C   0  0  0  0  0  0  0  0  0  0  0  0
  -28.7808  -29.7559  -21.0828 C   0  0  0  0  0  0  0  0  0  0  0  0
  -27.6655  -30.0582  -20.3295 C   0  0  0  0  0  0  0  0  0  0  0  0
  -26.4917  -30.5000  -20.8852 N   0  0  0  0  0  0  0  0  0  0  0  0
  -26.0387  -30.5553  -22.3819 C   0  0  0  0  0  0  0  0  0  0  0  0
  -26.5569  -30.1709  -23.3222 O   0  0  0  0  0  0  0  0  0  0  0  0
  -24.6984  -31.3276  -22.2185 N   0  0  0  0  0  0  0  0  0  0  0  0
  -23.7947  -31.8507  -23.2142 C   0  0  0  0  0  0  0  0  0  0  0  0
  -22.4717  -32.4022  -22.6842 C   0  0  2  0  0  0  0  0  0  0  0  0
  -21.9167  -31.4970  -21.7242 O   0  0  0  0  0  0  0  0  0  0  0  0
  -21.4272  -32.6276  -23.7822 C   0  0  0  0  0  0  0  0  0  0  0  0
  -22.0293  -33.5282  -25.1952 Cl  0  0  0  0  0  0  0  0  0  0  0  0
  -26.0182  -30.0467  -17.6882 C   0  0  0  0  0  0  0  0  0  0  0  0
  -25.4883  -30.4698  -16.4770 C   0  0  0  0  0  0  0  0  0  0  0  0
  1  2  1  0
  2  3  2  0
  3  4  1  0
  4  5  2  0
  5  6  1  0
  6  7  1  0
  7  8  2  0
  8  9  1  0
  8 10  1  0
 10 11  2  0
 11 12  1  0
 12 13  1  0
 13 14  2  0
 13 15  1  0
 15 16  1  0
 16 17  1  0
 17 18  1  1
 17 19  1  0
 19 20  1  0
  5 21  1  0
 21 22  2  0
 22  2  1  0
 11  6  1  0
M  END
>  <id>  (551) 
412710

>  <inchikey>  (551) 
HGUSJCJUYIOTAT-CYBMUJFWSA-N

>  <alias>  (551) 
None

>  <smiles>  (551) 
Cc1ccc(-n2nc(C)cc2NC(=O)NC[C@H](O)CCl)cc1

>  <path>  (551) 
/opt/xchem-fragalysis-2/maxwin/RdRp_FFF/syndirella/mar_elabs/elabs_062/FGZCUNYQGFTGLS-UHFFFAOYSA-N/output/FGZCUNYQGFTGLS-UHFFFAOYSA-N-pMke9u-598-A/FGZCUNYQGFTGLS-UHFFFAOYSA-N-pMke9u-598-A.minimised.mol

>  <distance_score>  (551) 
1.217746

>  <energy_score>  (551) 
-10.255674

>  <compound>  (551) 
HGUSJCJUYIOTAT-UHFFFAOYSA-N

>  <compound_id>  (551) 
225409

>  <target>  (551) 
Flavi_NS5_RdRp

>  <tags>  (551) 
[]

>  <inspirations>  (551) 
{P Ã— 2}

>  <subsites>  (551) 
None

>  <reference>  (551) 
z0211a

>  <SLURM_JOB_ID>  (551) 
nan

>  <SLURM_JOB_NAME>  (551) 
nan

>  <csv_name>  (551) 
nan

>  <scratch_subdir>  (551) 
nan

>  <fragmenstein_runtime>  (551) 
nan

>  <fragmenstein_outcome>  (551) 
nan

>  <fragmenstein_mode>  (551) 
nan

>  <fragmenstein_error>  (551) 
nan

>  <exports>  (551) 
nan

>  <Multi-SuCOS>  (551) 
nan

>  <merge_set>  (551) 
nan

$$$$
KUCHQPMFQFLWBQ-ZDUSSCGKSA-N
     RDKit          3D

 22 23  0  0  0  0  0  0  0  0999 V2000
  -23.8705  -31.1545  -15.8568 C   0  0  0  0  0  0  0  0  0  0  0  0
  -25.2187  -30.6018  -16.2160 C   0  0  0  0  0  0  0  0  0  0  0  0
  -26.2305  -30.5964  -15.2565 C   0  0  0  0  0  0  0  0  0  0  0  0
  -27.5179  -30.1792  -15.5865 C   0  0  0  0  0  0  0  0  0  0  0  0
  -28.6493  -30.2782  -14.6393 C   0  0  0  0  0  0  0  0  0  0  0  0
  -27.7988  -29.7526  -16.8685 C   0  0  0  0  0  0  0  0  0  0  0  0
  -26.8307  -29.8712  -17.8700 C   0  0  0  0  0  0  0  0  0  0  0  0
  -27.3187  -29.8303  -19.1987 N   0  0  0  0  0  0  0  0  0  0  0  0
  -28.5993  -29.4031  -19.3628 N   0  0  0  0  0  0  0  0  0  0  0  0
  -28.9489  -29.7916  -20.5786 C   0  0  0  0  0  0  0  0  0  0  0  0
  -30.3736  -29.7798  -20.9432 C   0  0  0  0  0  0  0  0  0  0  0  0
  -27.8402  -30.2448  -21.3039 C   0  0  0  0  0  0  0  0  0  0  0  0
  -26.8119  -30.3451  -20.3880 C   0  0  0  0  0  0  0  0  0  0  0  0
  -25.5909  -30.9291  -20.6080 N   0  0  0  0  0  0  0  0  0  0  0  0
  -24.9965  -31.5602  -21.8957 C   0  0  0  0  0  0  0  0  0  0  0  0
  -25.4158  -31.6067  -22.9521 O   0  0  0  0  0  0  0  0  0  0  0  0
  -23.6730  -32.1246  -21.3181 N   0  0  0  0  0  0  0  0  0  0  0  0
  -22.6596  -32.9417  -21.9351 C   0  0  0  0  0  0  0  0  0  0  0  0
  -21.9800  -32.1803  -23.0754 C   0  0  2  0  0  0  0  0  0  0  0  0
  -21.1657  -33.0961  -23.9619 C   0  0  0  0  0  0  0  0  0  0  0  0
  -21.0808  -31.2250  -22.5160 O   0  0  0  0  0  0  0  0  0  0  0  0
  -25.5206  -30.2097  -17.5256 C   0  0  0  0  0  0  0  0  0  0  0  0
  1  2  1  0
  2  3  2  0
  3  4  1  0
  4  5  1  0
  4  6  2  0
  6  7  1  0
  7  8  1  0
  8  9  1  0
  9 10  2  0
 10 11  1  0
 10 12  1  0
 12 13  2  0
 13 14  1  0
 14 15  1  0
 15 16  2  0
 15 17  1  0
 17 18  1  0
 18 19  1  0
 19 20  1  6
 19 21  1  0
  7 22  2  0
 22  2  1  0
 13  8  1  0
M  END
>  <id>  (552) 
412858

>  <inchikey>  (552) 
KUCHQPMFQFLWBQ-ZDUSSCGKSA-N

>  <alias>  (552) 
None

>  <smiles>  (552) 
Cc1cc(C)cc(-n2nc(C)cc2NC(=O)NC[C@H](C)O)c1

>  <path>  (552) 
/opt/xchem-fragalysis-2/maxwin/RdRp_FFF/syndirella/mar_elabs/elabs_062/FGZCUNYQGFTGLS-UHFFFAOYSA-N/output/FGZCUNYQGFTGLS-UHFFFAOYSA-N-pMke9u-1176-A/FGZCUNYQGFTGLS-UHFFFAOYSA-N-pMke9u-1176-A.minimised.mol

>  <distance_score>  (552) 
1.071016

>  <energy_score>  (552) 
-7.219845

>  <compound>  (552) 
KUCHQPMFQFLWBQ-UHFFFAOYSA-N

>  <compound_id>  (552) 
225616

>  <target>  (552) 
Flavi_NS5_RdRp

>  <tags>  (552) 
[]

>  <inspirations>  (552) 
{P Ã— 2}

>  <subsites>  (552) 
None

>  <reference>  (552) 
z0211a

>  <SLURM_JOB_ID>  (552) 
nan

>  <SLURM_JOB_NAME>  (552) 
nan

>  <csv_name>  (552) 
nan

>  <scratch_subdir>  (552) 
nan

>  <fragmenstein_runtime>  (552) 
nan

>  <fragmenstein_outcome>  (552) 
nan

>  <fragmenstein_mode>  (552) 
nan

>  <fragmenstein_error>  (552) 
nan

>  <exports>  (552) 
nan

>  <Multi-SuCOS>  (552) 
nan

>  <merge_set>  (552) 
nan

$$$$
NQUJCKJNTVQZAI-CQSZACIVSA-N
     RDKit          3D

 22 23  0  0  0  0  0  0  0  0999 V2000
  -21.9572  -33.6711  -26.3693 C   0  0  0  0  0  0  0  0  0  0  0  0
  -22.5831  -33.3699  -25.0160 C   0  0  0  0  0  0  0  0  0  0  0  0
  -21.5243  -33.0991  -23.9466 C   0  0  0  0  0  0  0  0  0  0  0  0
  -22.1324  -32.9332  -22.5521 C   0  0  1  0  0  0  0  0  0  0  0  0
  -21.1086  -33.2122  -21.5919 O   0  0  0  0  0  0  0  0  0  0  0  0
  -22.5775  -31.5051  -22.3356 C   0  0  0  0  0  0  0  0  0  0  0  0
  -23.7079  -31.3368  -21.4669 N   0  0  0  0  0  0  0  0  0  0  0  0
  -25.2090  -31.1581  -21.7991 C   0  0  0  0  0  0  0  0  0  0  0  0
  -25.7494  -31.1969  -22.7985 O   0  0  0  0  0  0  0  0  0  0  0  0
  -25.7433  -30.8092  -20.3831 N   0  0  0  0  0  0  0  0  0  0  0  0
  -26.9788  -30.3712  -19.9851 C   0  0  0  0  0  0  0  0  0  0  0  0
  -28.0918  -30.3355  -20.7996 C   0  0  0  0  0  0  0  0  0  0  0  0
  -29.1610  -30.0273  -19.9561 C   0  0  0  0  0  0  0  0  0  0  0  0
  -30.6023  -30.1233  -20.2115 C   0  0  0  0  0  0  0  0  0  0  0  0
  -28.7417  -29.6803  -18.7483 N   0  0  0  0  0  0  0  0  0  0  0  0
  -27.4131  -29.9580  -18.7293 N   0  0  0  0  0  0  0  0  0  0  0  0
  -26.7856  -29.9640  -17.4590 C   0  0  0  0  0  0  0  0  0  0  0  0
  -25.4117  -30.1180  -17.2782 C   0  0  0  0  0  0  0  0  0  0  0  0
  -24.9228  -30.4614  -16.0197 C   0  0  0  0  0  0  0  0  0  0  0  0
  -25.8006  -30.6293  -14.9537 C   0  0  0  0  0  0  0  0  0  0  0  0
  -27.1560  -30.3703  -15.1137 C   0  0  0  0  0  0  0  0  0  0  0  0
  -27.6454  -29.9901  -16.3455 C   0  0  0  0  0  0  0  0  0  0  0  0
  1  2  1  0
  2  3  1  0
  3  4  1  0
  4  5  1  1
  4  6  1  0
  6  7  1  0
  7  8  1  0
  8  9  2  0
  8 10  1  0
 10 11  1  0
 11 12  2  0
 12 13  1  0
 13 14  1  0
 13 15  2  0
 15 16  1  0
 16 17  1  0
 17 18  2  0
 18 19  1  0
 19 20  2  0
 20 21  1  0
 21 22  2  0
 16 11  1  0
 22 17  1  0
M  END
>  <id>  (553) 
412998

>  <inchikey>  (553) 
NQUJCKJNTVQZAI-CQSZACIVSA-N

>  <alias>  (553) 
None

>  <smiles>  (553) 
CCC[C@@H](O)CNC(=O)Nc1cc(C)nn1-c1ccccc1

>  <path>  (553) 
/opt/xchem-fragalysis-2/maxwin/RdRp_FFF/syndirella/mar_elabs/elabs_062/FGZCUNYQGFTGLS-UHFFFAOYSA-N/output/FGZCUNYQGFTGLS-UHFFFAOYSA-N-pMke9u-2138-B/FGZCUNYQGFTGLS-UHFFFAOYSA-N-pMke9u-2138-B.minimised.mol

>  <distance_score>  (553) 
0.971419

>  <energy_score>  (553) 
-11.437375

>  <compound>  (553) 
NQUJCKJNTVQZAI-UHFFFAOYSA-N

>  <compound_id>  (553) 
225884

>  <target>  (553) 
Flavi_NS5_RdRp

>  <tags>  (553) 
[]

>  <inspirations>  (553) 
{P Ã— 2}

>  <subsites>  (553) 
None

>  <reference>  (553) 
z0211a

>  <SLURM_JOB_ID>  (553) 
nan

>  <SLURM_JOB_NAME>  (553) 
nan

>  <csv_name>  (553) 
nan

>  <scratch_subdir>  (553) 
nan

>  <fragmenstein_runtime>  (553) 
nan

>  <fragmenstein_outcome>  (553) 
nan

>  <fragmenstein_mode>  (553) 
nan

>  <fragmenstein_error>  (553) 
nan

>  <exports>  (553) 
nan

>  <Multi-SuCOS>  (553) 
nan

>  <merge_set>  (553) 
nan

$$$$
UIOMPUQELQMVMI-LBPRGKRZSA-N
     RDKit          3D

 22 23  0  0  0  0  0  0  0  0999 V2000
  -18.7536  -33.4389  -20.3233 C   0  0  0  0  0  0  0  0  0  0  0  0
  -19.8949  -33.5255  -21.3233 C   0  0  0  0  0  0  0  0  0  0  0  0
  -21.0414  -32.5726  -21.0120 C   0  0  2  0  0  0  0  0  0  0  0  0
  -21.5557  -32.8372  -19.7029 O   0  0  0  0  0  0  0  0  0  0  0  0
  -22.2349  -32.6788  -21.9962 C   0  0  0  0  0  0  0  0  0  0  0  0
  -22.1872  -33.2787  -23.0715 N   0  0  0  0  0  0  0  0  0  0  0  0
  -23.3634  -31.9278  -21.3128 N   0  0  0  0  0  0  0  0  0  0  0  0
  -24.9166  -31.7396  -21.6900 C   0  0  0  0  0  0  0  0  0  0  0  0
  -25.5182  -32.0689  -22.6160 O   0  0  0  0  0  0  0  0  0  0  0  0
  -25.3573  -31.0371  -20.4622 N   0  0  0  0  0  0  0  0  0  0  0  0
  -26.5775  -30.5061  -20.1271 C   0  0  0  0  0  0  0  0  0  0  0  0
  -27.6768  -30.4525  -20.9595 C   0  0  0  0  0  0  0  0  0  0  0  0
  -28.7347  -29.9936  -20.1687 C   0  0  0  0  0  0  0  0  0  0  0  0
  -30.1709  -29.9448  -20.5003 C   0  0  0  0  0  0  0  0  0  0  0  0
  -28.3141  -29.6193  -18.9663 N   0  0  0  0  0  0  0  0  0  0  0  0
  -27.0115  -30.0171  -18.8918 N   0  0  0  0  0  0  0  0  0  0  0  0
  -26.4148  -30.0460  -17.5966 C   0  0  0  0  0  0  0  0  0  0  0  0
  -27.2730  -29.8815  -16.4963 C   0  0  0  0  0  0  0  0  0  0  0  0
  -26.8338  -30.1663  -15.2122 C   0  0  0  0  0  0  0  0  0  0  0  0
  -25.5219  -30.5619  -14.9918 C   0  0  0  0  0  0  0  0  0  0  0  0
  -24.6381  -30.6313  -16.0599 C   0  0  0  0  0  0  0  0  0  0  0  0
  -25.0787  -30.3651  -17.3585 C   0  0  0  0  0  0  0  0  0  0  0  0
  1  2  1  0
  2  3  1  0
  3  4  1  1
  3  5  1  0
  5  6  2  3
  5  7  1  0
  7  8  1  0
  8  9  2  0
  8 10  1  0
 10 11  1  0
 11 12  2  0
 12 13  1  0
 13 14  1  0
 13 15  2  0
 15 16  1  0
 16 17  1  0
 17 18  2  0
 18 19  1  0
 19 20  2  0
 20 21  1  0
 21 22  2  0
 16 11  1  0
 22 17  1  0
M  END
>  <id>  (554) 
413003

>  <inchikey>  (554) 
UIOMPUQELQMVMI-LBPRGKRZSA-N

>  <alias>  (554) 
None

>  <smiles>  (554) 
CC[C@H](O)C(=N)NC(=O)Nc1cc(C)nn1-c1ccccc1

>  <path>  (554) 
/opt/xchem-fragalysis-2/maxwin/RdRp_FFF/syndirella/mar_elabs/elabs_062/FGZCUNYQGFTGLS-UHFFFAOYSA-N/output/FGZCUNYQGFTGLS-UHFFFAOYSA-N-pMke9u-2142-A/FGZCUNYQGFTGLS-UHFFFAOYSA-N-pMke9u-2142-A.minimised.mol

>  <distance_score>  (554) 
1.64241

>  <energy_score>  (554) 
-4.437429

>  <compound>  (554) 
UIOMPUQELQMVMI-UHFFFAOYSA-N

>  <compound_id>  (554) 
225888

>  <target>  (554) 
Flavi_NS5_RdRp

>  <tags>  (554) 
[]

>  <inspirations>  (554) 
{P Ã— 2}

>  <subsites>  (554) 
None

>  <reference>  (554) 
z0211a

>  <SLURM_JOB_ID>  (554) 
nan

>  <SLURM_JOB_NAME>  (554) 
nan

>  <csv_name>  (554) 
nan

>  <scratch_subdir>  (554) 
nan

>  <fragmenstein_runtime>  (554) 
nan

>  <fragmenstein_outcome>  (554) 
nan

>  <fragmenstein_mode>  (554) 
nan

>  <fragmenstein_error>  (554) 
nan

>  <exports>  (554) 
nan

>  <Multi-SuCOS>  (554) 
nan

>  <merge_set>  (554) 
nan

$$$$
JDIMEZUPAHKSDT-MRXNPFEDSA-N
     RDKit          3D

 22 23  0  0  0  0  0  0  0  0999 V2000
  -21.5240  -32.9904  -24.7960 C   0  0  0  0  0  0  0  0  0  0  0  0
  -22.2671  -32.7601  -23.7037 C   0  0  0  0  0  0  0  0  0  0  0  0
  -21.8697  -32.9946  -22.2660 C   0  0  1  0  0  0  0  0  0  0  0  0
  -22.6042  -34.2216  -21.7134 C   0  0  0  0  0  0  0  0  0  0  0  0
  -20.4618  -33.2897  -22.2512 O   0  0  0  0  0  0  0  0  0  0  0  0
  -22.0111  -31.7671  -21.3514 C   0  0  0  0  0  0  0  0  0  0  0  0
  -23.2615  -31.4839  -20.6979 N   0  0  0  0  0  0  0  0  0  0  0  0
  -24.7043  -31.3938  -21.2772 C   0  0  0  0  0  0  0  0  0  0  0  0
  -25.0908  -31.6071  -22.3294 O   0  0  0  0  0  0  0  0  0  0  0  0
  -25.4452  -30.8296  -20.0280 N   0  0  0  0  0  0  0  0  0  0  0  0
  -26.7292  -30.3580  -19.8929 C   0  0  0  0  0  0  0  0  0  0  0  0
  -27.7368  -30.3959  -20.8368 C   0  0  0  0  0  0  0  0  0  0  0  0
  -28.8849  -29.9367  -20.1731 C   0  0  0  0  0  0  0  0  0  0  0  0
  -30.2929  -29.9827  -20.5781 C   0  0  0  0  0  0  0  0  0  0  0  0
  -28.5961  -29.4573  -18.9736 N   0  0  0  0  0  0  0  0  0  0  0  0
  -27.3202  -29.8311  -18.7397 N   0  0  0  0  0  0  0  0  0  0  0  0
  -26.9134  -29.8588  -17.3826 C   0  0  0  0  0  0  0  0  0  0  0  0
  -25.5933  -30.0643  -16.9931 C   0  0  0  0  0  0  0  0  0  0  0  0
  -25.3360  -30.5204  -15.7097 C   0  0  0  0  0  0  0  0  0  0  0  0
  -26.3830  -30.7235  -14.8193 C   0  0  0  0  0  0  0  0  0  0  0  0
  -27.6812  -30.3474  -15.1466 C   0  0  0  0  0  0  0  0  0  0  0  0
  -27.9453  -29.8836  -16.4208 C   0  0  0  0  0  0  0  0  0  0  0  0
  1  2  2  0
  2  3  1  0
  3  4  1  1
  3  5  1  0
  3  6  1  0
  6  7  1  0
  7  8  1  0
  8  9  2  0
  8 10  1  0
 10 11  1  0
 11 12  2  0
 12 13  1  0
 13 14  1  0
 13 15  2  0
 15 16  1  0
 16 17  1  0
 17 18  2  0
 18 19  1  0
 19 20  2  0
 20 21  1  0
 21 22  2  0
 16 11  1  0
 22 17  1  0
M  END
>  <id>  (555) 
413006

>  <inchikey>  (555) 
JDIMEZUPAHKSDT-MRXNPFEDSA-N

>  <alias>  (555) 
None

>  <smiles>  (555) 
C=C[C@@](C)(O)CNC(=O)Nc1cc(C)nn1-c1ccccc1

>  <path>  (555) 
/opt/xchem-fragalysis-2/maxwin/RdRp_FFF/syndirella/mar_elabs/elabs_062/FGZCUNYQGFTGLS-UHFFFAOYSA-N/output/FGZCUNYQGFTGLS-UHFFFAOYSA-N-pMke9u-2144-B/FGZCUNYQGFTGLS-UHFFFAOYSA-N-pMke9u-2144-B.minimised.mol

>  <distance_score>  (555) 
1.40065

>  <energy_score>  (555) 
-15.067369

>  <compound>  (555) 
JDIMEZUPAHKSDT-UHFFFAOYSA-N

>  <compound_id>  (555) 
225890

>  <target>  (555) 
Flavi_NS5_RdRp

>  <tags>  (555) 
[]

>  <inspirations>  (555) 
{P Ã— 2}

>  <subsites>  (555) 
None

>  <reference>  (555) 
z0211a

>  <SLURM_JOB_ID>  (555) 
nan

>  <SLURM_JOB_NAME>  (555) 
nan

>  <csv_name>  (555) 
nan

>  <scratch_subdir>  (555) 
nan

>  <fragmenstein_runtime>  (555) 
nan

>  <fragmenstein_outcome>  (555) 
nan

>  <fragmenstein_mode>  (555) 
nan

>  <fragmenstein_error>  (555) 
nan

>  <exports>  (555) 
nan

>  <Multi-SuCOS>  (555) 
nan

>  <merge_set>  (555) 
nan

$$$$
KMJOOUPGYABZNI-LBPRGKRZSA-N
     RDKit          3D

 22 23  0  0  0  0  0  0  0  0999 V2000
  -30.8084  -30.0671  -20.3125 C   0  0  0  0  0  0  0  0  0  0  0  0
  -29.3867  -29.9038  -20.0035 C   0  0  0  0  0  0  0  0  0  0  0  0
  -28.2753  -30.1246  -20.8266 C   0  0  0  0  0  0  0  0  0  0  0  0
  -27.2446  -30.3271  -19.9368 C   0  0  0  0  0  0  0  0  0  0  0  0
  -26.0904  -31.0063  -20.2062 N   0  0  0  0  0  0  0  0  0  0  0  0
  -25.4975  -31.4843  -21.5606 C   0  0  0  0  0  0  0  0  0  0  0  0
  -25.8597  -31.3057  -22.6274 O   0  0  0  0  0  0  0  0  0  0  0  0
  -24.2873  -32.3266  -21.0315 N   0  0  0  0  0  0  0  0  0  0  0  0
  -23.2932  -32.9950  -21.7220 N   0  0  0  0  0  0  0  0  0  0  0  0
  -23.8532  -34.1092  -22.4883 C   0  0  0  0  0  0  0  0  0  0  0  0
  -22.6302  -32.0163  -22.6028 C   0  0  0  0  0  0  0  0  0  0  0  0
  -21.3051  -32.4491  -23.2382 C   0  0  2  0  0  0  0  0  0  0  0  0
  -20.3150  -32.9059  -22.1756 C   0  0  0  0  0  0  0  0  0  0  0  0
  -20.7358  -31.3283  -23.9429 O   0  0  0  0  0  0  0  0  0  0  0  0
  -27.7063  -29.8899  -18.7061 N   0  0  0  0  0  0  0  0  0  0  0  0
  -27.0722  -29.8803  -17.4490 C   0  0  0  0  0  0  0  0  0  0  0  0
  -27.8992  -29.9735  -16.3211 C   0  0  0  0  0  0  0  0  0  0  0  0
  -27.3443  -30.3498  -15.1156 C   0  0  0  0  0  0  0  0  0  0  0  0
  -25.9689  -30.5365  -15.0047 C   0  0  0  0  0  0  0  0  0  0  0  0
  -25.1331  -30.2976  -16.0913 C   0  0  0  0  0  0  0  0  0  0  0  0
  -25.6834  -29.9554  -17.3212 C   0  0  0  0  0  0  0  0  0  0  0  0
  -29.0351  -29.6562  -18.7487 N   0  0  0  0  0  0  0  0  0  0  0  0
  1  2  1  0
  2  3  1  0
  3  4  2  0
  4  5  1  0
  5  6  1  0
  6  7  2  0
  6  8  1  0
  8  9  1  0
  9 10  1  0
  9 11  1  0
 11 12  1  0
 12 13  1  1
 12 14  1  0
  4 15  1  0
 15 16  1  0
 16 17  2  0
 17 18  1  0
 18 19  2  0
 19 20  1  0
 20 21  2  0
 15 22  1  0
 22  2  2  0
 21 16  1  0
M  END
>  <id>  (556) 
413007

>  <inchikey>  (556) 
KMJOOUPGYABZNI-LBPRGKRZSA-N

>  <alias>  (556) 
None

>  <smiles>  (556) 
Cc1cc(NC(=O)NN(C)C[C@H](C)O)n(-c2ccccc2)n1

>  <path>  (556) 
/opt/xchem-fragalysis-2/maxwin/RdRp_FFF/syndirella/mar_elabs/elabs_062/FGZCUNYQGFTGLS-UHFFFAOYSA-N/output/FGZCUNYQGFTGLS-UHFFFAOYSA-N-pMke9u-2145-B/FGZCUNYQGFTGLS-UHFFFAOYSA-N-pMke9u-2145-B.minimised.mol

>  <distance_score>  (556) 
1.256015

>  <energy_score>  (556) 
-7.035596

>  <compound>  (556) 
KMJOOUPGYABZNI-UHFFFAOYSA-N

>  <compound_id>  (556) 
225891

>  <target>  (556) 
Flavi_NS5_RdRp

>  <tags>  (556) 
[]

>  <inspirations>  (556) 
{P Ã— 2}

>  <subsites>  (556) 
None

>  <reference>  (556) 
z0211a

>  <SLURM_JOB_ID>  (556) 
nan

>  <SLURM_JOB_NAME>  (556) 
nan

>  <csv_name>  (556) 
nan

>  <scratch_subdir>  (556) 
nan

>  <fragmenstein_runtime>  (556) 
nan

>  <fragmenstein_outcome>  (556) 
nan

>  <fragmenstein_mode>  (556) 
nan

>  <fragmenstein_error>  (556) 
nan

>  <exports>  (556) 
nan

>  <Multi-SuCOS>  (556) 
nan

>  <merge_set>  (556) 
nan

$$$$
JODJVGCVHMWBKB-DGCLKSJQSA-N
     RDKit          3D

 22 23  0  0  0  0  0  0  0  0999 V2000
  -30.7817  -30.1922  -19.9556 C   0  0  0  0  0  0  0  0  0  0  0  0
  -29.3249  -30.1022  -19.8381 C   0  0  0  0  0  0  0  0  0  0  0  0
  -28.3642  -30.6705  -20.6641 C   0  0  0  0  0  0  0  0  0  0  0  0
  -27.1548  -30.4661  -20.0455 C   0  0  0  0  0  0  0  0  0  0  0  0
  -25.9851  -30.9253  -20.5704 N   0  0  0  0  0  0  0  0  0  0  0  0
  -25.7186  -32.0851  -21.5693 C   0  0  0  0  0  0  0  0  0  0  0  0
  -26.4344  -32.8471  -22.0178 O   0  0  0  0  0  0  0  0  0  0  0  0
  -24.2178  -31.8357  -21.8532 N   0  0  0  0  0  0  0  0  0  0  0  0
  -23.3343  -32.4373  -22.8349 C   0  0  2  0  0  0  0  0  0  0  0  0
  -23.8580  -33.7909  -23.3190 C   0  0  0  0  0  0  0  0  0  0  0  0
  -21.9140  -32.5182  -22.2626 C   0  0  2  0  0  0  0  0  0  0  0  0
  -21.4440  -31.2285  -21.8677 O   0  0  0  0  0  0  0  0  0  0  0  0
  -20.9114  -33.1439  -23.2209 C   0  0  0  0  0  0  0  0  0  0  0  0
  -20.9267  -32.5384  -24.5089 O   0  0  0  0  0  0  0  0  0  0  0  0
  -27.4594  -29.8576  -18.8392 N   0  0  0  0  0  0  0  0  0  0  0  0
  -26.7836  -29.9110  -17.5995 C   0  0  0  0  0  0  0  0  0  0  0  0
  -27.5727  -29.7694  -16.4439 C   0  0  0  0  0  0  0  0  0  0  0  0
  -27.0592  -30.1296  -15.2129 C   0  0  0  0  0  0  0  0  0  0  0  0
  -25.7425  -30.5598  -15.1048 C   0  0  0  0  0  0  0  0  0  0  0  0
  -24.9289  -30.6173  -16.2322 C   0  0  0  0  0  0  0  0  0  0  0  0
  -25.4500  -30.3038  -17.4864 C   0  0  0  0  0  0  0  0  0  0  0  0
  -28.7622  -29.4592  -18.8219 N   0  0  0  0  0  0  0  0  0  0  0  0
  1  2  1  0
  2  3  1  0
  3  4  2  0
  4  5  1  0
  5  6  1  0
  6  7  2  0
  6  8  1  0
  8  9  1  0
  9 10  1  1
  9 11  1  0
 11 12  1  6
 11 13  1  0
 13 14  1  0
  4 15  1  0
 15 16  1  0
 16 17  2  0
 17 18  1  0
 18 19  2  0
 19 20  1  0
 20 21  2  0
 15 22  1  0
 22  2  2  0
 21 16  1  0
M  END
>  <id>  (557) 
413008

>  <inchikey>  (557) 
JODJVGCVHMWBKB-DGCLKSJQSA-N

>  <alias>  (557) 
None

>  <smiles>  (557) 
Cc1cc(NC(=O)N[C@H](C)[C@H](O)CO)n(-c2ccccc2)n1

>  <path>  (557) 
/opt/xchem-fragalysis-2/maxwin/RdRp_FFF/syndirella/mar_elabs/elabs_062/FGZCUNYQGFTGLS-UHFFFAOYSA-N/output/FGZCUNYQGFTGLS-UHFFFAOYSA-N-pMke9u-2146-A/FGZCUNYQGFTGLS-UHFFFAOYSA-N-pMke9u-2146-A.minimised.mol

>  <distance_score>  (557) 
1.161764

>  <energy_score>  (557) 
-19.727311

>  <compound>  (557) 
JODJVGCVHMWBKB-UHFFFAOYSA-N

>  <compound_id>  (557) 
225892

>  <target>  (557) 
Flavi_NS5_RdRp

>  <tags>  (557) 
[]

>  <inspirations>  (557) 
{P Ã— 2}

>  <subsites>  (557) 
None

>  <reference>  (557) 
z0211a

>  <SLURM_JOB_ID>  (557) 
nan

>  <SLURM_JOB_NAME>  (557) 
nan

>  <csv_name>  (557) 
nan

>  <scratch_subdir>  (557) 
nan

>  <fragmenstein_runtime>  (557) 
nan

>  <fragmenstein_outcome>  (557) 
nan

>  <fragmenstein_mode>  (557) 
nan

>  <fragmenstein_error>  (557) 
nan

>  <exports>  (557) 
nan

>  <Multi-SuCOS>  (557) 
nan

>  <merge_set>  (557) 
nan

$$$$
YPVUEECIGIFNBY-UHFFFAOYSA-N
     RDKit          3D

 22 23  0  0  0  0  0  0  0  0999 V2000
  -30.7072  -30.1415  -19.9616 C   0  0  0  0  0  0  0  0  0  0  0  0
  -29.2456  -29.9828  -19.8451 C   0  0  0  0  0  0  0  0  0  0  0  0
  -28.3013  -30.0149  -20.8683 C   0  0  0  0  0  0  0  0  0  0  0  0
  -27.0899  -30.2232  -20.2425 C   0  0  0  0  0  0  0  0  0  0  0  0
  -25.9734  -30.6539  -20.9126 N   0  0  0  0  0  0  0  0  0  0  0  0
  -25.7360  -30.8491  -22.3642 C   0  0  0  0  0  0  0  0  0  0  0  0
  -26.4103  -30.6096  -23.2658 O   0  0  0  0  0  0  0  0  0  0  0  0
  -24.3154  -31.5850  -22.2761 N   0  0  0  0  0  0  0  0  0  0  0  0
  -23.3768  -32.0981  -23.3379 C   0  0  0  0  0  0  0  0  0  0  0  0
  -23.4886  -32.1658  -24.5630 N   0  0  0  0  0  0  0  0  0  0  0  0
  -22.0646  -32.5194  -22.6339 C   0  0  0  0  0  0  0  0  0  0  0  0
  -20.9163  -32.7085  -23.6162 C   0  0  0  0  0  0  0  0  0  0  0  0
  -22.2733  -33.7888  -21.8135 C   0  0  0  0  0  0  0  0  0  0  0  0
  -21.7298  -31.4618  -21.7258 O   0  0  0  0  0  0  0  0  0  0  0  0
  -27.3252  -30.0332  -18.8808 N   0  0  0  0  0  0  0  0  0  0  0  0
  -26.4744  -30.1022  -17.7393 C   0  0  0  0  0  0  0  0  0  0  0  0
  -25.1130  -30.3889  -17.8088 C   0  0  0  0  0  0  0  0  0  0  0  0
  -24.3908  -30.6554  -16.6411 C   0  0  0  0  0  0  0  0  0  0  0  0
  -25.0024  -30.5860  -15.3963 C   0  0  0  0  0  0  0  0  0  0  0  0
  -26.3384  -30.2280  -15.3150 C   0  0  0  0  0  0  0  0  0  0  0  0
  -27.0688  -29.9745  -16.4702 C   0  0  0  0  0  0  0  0  0  0  0  0
  -28.6648  -29.8719  -18.6550 N   0  0  0  0  0  0  0  0  0  0  0  0
  1  2  1  0
  2  3  1  0
  3  4  2  0
  4  5  1  0
  5  6  1  0
  6  7  2  0
  6  8  1  0
  8  9  1  0
  9 10  2  3
  9 11  1  0
 11 12  1  0
 11 13  1  0
 11 14  1  0
  4 15  1  0
 15 16  1  0
 16 17  2  0
 17 18  1  0
 18 19  2  0
 19 20  1  0
 20 21  2  0
 15 22  1  0
 22  2  2  0
 21 16  1  0
M  END
>  <id>  (558) 
413014

>  <inchikey>  (558) 
YPVUEECIGIFNBY-UHFFFAOYSA-N

>  <alias>  (558) 
None

>  <smiles>  (558) 
Cc1cc(NC(=O)NC(=N)C(C)(C)O)n(-c2ccccc2)n1

>  <path>  (558) 
/opt/xchem-fragalysis-2/maxwin/RdRp_FFF/syndirella/mar_elabs/elabs_062/FGZCUNYQGFTGLS-UHFFFAOYSA-N/output/FGZCUNYQGFTGLS-UHFFFAOYSA-N-pMke9u-2152-A/FGZCUNYQGFTGLS-UHFFFAOYSA-N-pMke9u-2152-A.minimised.mol

>  <distance_score>  (558) 
1.267873

>  <energy_score>  (558) 
-41.532905

>  <compound>  (558) 
YPVUEECIGIFNBY-UHFFFAOYSA-N

>  <compound_id>  (558) 
225898

>  <target>  (558) 
Flavi_NS5_RdRp

>  <tags>  (558) 
[]

>  <inspirations>  (558) 
{P Ã— 2}

>  <subsites>  (558) 
None

>  <reference>  (558) 
z0211a

>  <SLURM_JOB_ID>  (558) 
nan

>  <SLURM_JOB_NAME>  (558) 
nan

>  <csv_name>  (558) 
nan

>  <scratch_subdir>  (558) 
nan

>  <fragmenstein_runtime>  (558) 
nan

>  <fragmenstein_outcome>  (558) 
nan

>  <fragmenstein_mode>  (558) 
nan

>  <fragmenstein_error>  (558) 
nan

>  <exports>  (558) 
nan

>  <Multi-SuCOS>  (558) 
nan

>  <merge_set>  (558) 
nan

$$$$
TURQCVWKTXNLCD-LLVKDONJSA-N
     RDKit          3D

 22 23  0  0  0  0  0  0  0  0999 V2000
  -21.3594  -33.7416  -19.7408 C   0  0  0  0  0  0  0  0  0  0  0  0
  -22.1787  -32.9855  -20.6254 O   0  0  0  0  0  0  0  0  0  0  0  0
  -21.8677  -33.1921  -22.0129 C   0  0  2  0  0  0  0  0  0  0  0  0
  -20.5139  -32.6052  -22.3826 C   0  0  0  0  0  0  0  0  0  0  0  0
  -22.9503  -32.5141  -22.8859 C   0  0  0  0  0  0  0  0  0  0  0  0
  -22.9305  -32.6299  -24.1143 N   0  0  0  0  0  0  0  0  0  0  0  0
  -23.9011  -31.8015  -21.9682 N   0  0  0  0  0  0  0  0  0  0  0  0
  -25.2846  -31.0306  -22.2388 C   0  0  0  0  0  0  0  0  0  0  0  0
  -25.8319  -30.7757  -23.2201 O   0  0  0  0  0  0  0  0  0  0  0  0
  -25.7008  -30.8273  -20.8271 N   0  0  0  0  0  0  0  0  0  0  0  0
  -26.8830  -30.3666  -20.3030 C   0  0  0  0  0  0  0  0  0  0  0  0
  -28.0335  -30.1720  -21.0400 C   0  0  0  0  0  0  0  0  0  0  0  0
  -29.0542  -30.0006  -20.1018 C   0  0  0  0  0  0  0  0  0  0  0  0
  -30.5125  -30.0627  -20.3102 C   0  0  0  0  0  0  0  0  0  0  0  0
  -28.5670  -29.8570  -18.8759 N   0  0  0  0  0  0  0  0  0  0  0  0
  -27.2262  -30.0868  -18.9784 N   0  0  0  0  0  0  0  0  0  0  0  0
  -26.4811  -30.1081  -17.7632 C   0  0  0  0  0  0  0  0  0  0  0  0
  -27.1971  -29.9440  -16.5619 C   0  0  0  0  0  0  0  0  0  0  0  0
  -26.5873  -30.1618  -15.3339 C   0  0  0  0  0  0  0  0  0  0  0  0
  -25.2477  -30.5117  -15.2754 C   0  0  0  0  0  0  0  0  0  0  0  0
  -24.5137  -30.6035  -16.4526 C   0  0  0  0  0  0  0  0  0  0  0  0
  -25.1176  -30.3798  -17.6938 C   0  0  0  0  0  0  0  0  0  0  0  0
  1  2  1  0
  2  3  1  0
  3  4  1  6
  3  5  1  0
  5  6  2  3
  5  7  1  0
  7  8  1  0
  8  9  2  0
  8 10  1  0
 10 11  1  0
 11 12  2  0
 12 13  1  0
 13 14  1  0
 13 15  2  0
 15 16  1  0
 16 17  1  0
 17 18  2  0
 18 19  1  0
 19 20  2  0
 20 21  1  0
 21 22  2  0
 16 11  1  0
 22 17  1  0
M  END
>  <id>  (559) 
413020

>  <inchikey>  (559) 
TURQCVWKTXNLCD-LLVKDONJSA-N

>  <alias>  (559) 
None

>  <smiles>  (559) 
CO[C@H](C)C(=N)NC(=O)Nc1cc(C)nn1-c1ccccc1

>  <path>  (559) 
/opt/xchem-fragalysis-2/maxwin/RdRp_FFF/syndirella/mar_elabs/elabs_062/FGZCUNYQGFTGLS-UHFFFAOYSA-N/output/FGZCUNYQGFTGLS-UHFFFAOYSA-N-pMke9u-2163-A/FGZCUNYQGFTGLS-UHFFFAOYSA-N-pMke9u-2163-A.minimised.mol

>  <distance_score>  (559) 
1.794697

>  <energy_score>  (559) 
-30.328735

>  <compound>  (559) 
TURQCVWKTXNLCD-UHFFFAOYSA-N

>  <compound_id>  (559) 
225909

>  <target>  (559) 
Flavi_NS5_RdRp

>  <tags>  (559) 
[]

>  <inspirations>  (559) 
{P Ã— 2}

>  <subsites>  (559) 
None

>  <reference>  (559) 
z0211a

>  <SLURM_JOB_ID>  (559) 
nan

>  <SLURM_JOB_NAME>  (559) 
nan

>  <csv_name>  (559) 
nan

>  <scratch_subdir>  (559) 
nan

>  <fragmenstein_runtime>  (559) 
nan

>  <fragmenstein_outcome>  (559) 
nan

>  <fragmenstein_mode>  (559) 
nan

>  <fragmenstein_error>  (559) 
nan

>  <exports>  (559) 
nan

>  <Multi-SuCOS>  (559) 
nan

>  <merge_set>  (559) 
nan

$$$$
RVAFYVOYLLYCSP-DGCLKSJQSA-N
     RDKit          3D

 22 23  0  0  0  0  0  0  0  0999 V2000
  -30.9086  -30.1158  -20.1729 C   0  0  0  0  0  0  0  0  0  0  0  0
  -29.4625  -29.9803  -19.9971 C   0  0  0  0  0  0  0  0  0  0  0  0
  -28.4489  -29.9719  -20.9536 C   0  0  0  0  0  0  0  0  0  0  0  0
  -27.2930  -30.2299  -20.2471 C   0  0  0  0  0  0  0  0  0  0  0  0
  -26.1323  -30.6520  -20.8399 N   0  0  0  0  0  0  0  0  0  0  0  0
  -25.7367  -30.7217  -22.3469 C   0  0  0  0  0  0  0  0  0  0  0  0
  -26.2987  -30.3667  -23.2713 O   0  0  0  0  0  0  0  0  0  0  0  0
  -24.3759  -31.4541  -22.2224 N   0  0  0  0  0  0  0  0  0  0  0  0
  -23.4874  -31.9751  -23.2529 C   0  0  2  0  0  0  0  0  0  0  0  0
  -24.2124  -33.0322  -24.1007 C   0  0  0  0  0  0  0  0  0  0  0  0
  -24.5651  -34.1710  -23.3165 O   0  0  0  0  0  0  0  0  0  0  0  0
  -22.1580  -32.4622  -22.6523 C   0  0  1  0  0  0  0  0  0  0  0  0
  -21.1409  -32.8721  -23.7056 C   0  0  0  0  0  0  0  0  0  0  0  0
  -21.5643  -31.4265  -21.8641 O   0  0  0  0  0  0  0  0  0  0  0  0
  -27.6256  -30.0416  -18.9098 N   0  0  0  0  0  0  0  0  0  0  0  0
  -26.8673  -30.0254  -17.7175 C   0  0  0  0  0  0  0  0  0  0  0  0
  -25.4835  -30.1761  -17.6996 C   0  0  0  0  0  0  0  0  0  0  0  0
  -24.8356  -30.4001  -16.4851 C   0  0  0  0  0  0  0  0  0  0  0  0
  -25.5580  -30.4298  -15.2950 C   0  0  0  0  0  0  0  0  0  0  0  0
  -26.9246  -30.1898  -15.3037 C   0  0  0  0  0  0  0  0  0  0  0  0
  -27.5773  -29.9625  -16.5010 C   0  0  0  0  0  0  0  0  0  0  0  0
  -28.9731  -29.9565  -18.7683 N   0  0  0  0  0  0  0  0  0  0  0  0
  1  2  1  0
  2  3  1  0
  3  4  2  0
  4  5  1  0
  5  6  1  0
  6  7  2  0
  6  8  1  0
  8  9  1  0
  9 10  1  1
 10 11  1  0
  9 12  1  0
 12 13  1  6
 12 14  1  0
  4 15  1  0
 15 16  1  0
 16 17  2  0
 17 18  1  0
 18 19  2  0
 19 20  1  0
 20 21  2  0
 15 22  1  0
 22  2  2  0
 21 16  1  0
M  END
>  <id>  (560) 
413030

>  <inchikey>  (560) 
RVAFYVOYLLYCSP-DGCLKSJQSA-N

>  <alias>  (560) 
None

>  <smiles>  (560) 
Cc1cc(NC(=O)N[C@H](CO)[C@@H](C)O)n(-c2ccccc2)n1

>  <path>  (560) 
/opt/xchem-fragalysis-2/maxwin/RdRp_FFF/syndirella/mar_elabs/elabs_062/FGZCUNYQGFTGLS-UHFFFAOYSA-N/output/FGZCUNYQGFTGLS-UHFFFAOYSA-N-pMke9u-2171-C/FGZCUNYQGFTGLS-UHFFFAOYSA-N-pMke9u-2171-C.minimised.mol

>  <distance_score>  (560) 
1.024426

>  <energy_score>  (560) 
-2.693232

>  <compound>  (560) 
RVAFYVOYLLYCSP-UHFFFAOYSA-N

>  <compound_id>  (560) 
225917

>  <target>  (560) 
Flavi_NS5_RdRp

>  <tags>  (560) 
[]

>  <inspirations>  (560) 
{P Ã— 2}

>  <subsites>  (560) 
None

>  <reference>  (560) 
z0211a

>  <SLURM_JOB_ID>  (560) 
nan

>  <SLURM_JOB_NAME>  (560) 
nan

>  <csv_name>  (560) 
nan

>  <scratch_subdir>  (560) 
nan

>  <fragmenstein_runtime>  (560) 
nan

>  <fragmenstein_outcome>  (560) 
nan

>  <fragmenstein_mode>  (560) 
nan

>  <fragmenstein_error>  (560) 
nan

>  <exports>  (560) 
nan

>  <Multi-SuCOS>  (560) 
nan

>  <merge_set>  (560) 
nan

$$$$
ACSXCWOAVRTSEA-ZDUSSCGKSA-N
     RDKit          3D

 22 23  0  0  0  0  0  0  0  0999 V2000
  -22.2753  -35.3121  -21.0183 C   0  0  0  0  0  0  0  0  0  0  0  0
  -22.6332  -35.1187  -22.7850 S   0  0  0  0  0  0  0  0  0  0  0  0
  -21.6429  -33.6116  -23.1408 C   0  0  0  0  0  0  0  0  0  0  0  0
  -22.1915  -32.3508  -22.4835 C   0  0  1  0  0  0  0  0  0  0  0  0
  -21.2207  -31.3141  -22.6399 O   0  0  0  0  0  0  0  0  0  0  0  0
  -23.5438  -31.9472  -23.0707 C   0  0  0  0  0  0  0  0  0  0  0  0
  -24.4149  -31.3839  -22.0746 N   0  0  0  0  0  0  0  0  0  0  0  0
  -25.7723  -30.6648  -22.2252 C   0  0  0  0  0  0  0  0  0  0  0  0
  -26.3414  -30.3582  -23.1606 O   0  0  0  0  0  0  0  0  0  0  0  0
  -26.1683  -30.5502  -20.7264 N   0  0  0  0  0  0  0  0  0  0  0  0
  -27.3336  -30.1371  -20.1510 C   0  0  0  0  0  0  0  0  0  0  0  0
  -28.4928  -29.9236  -20.8603 C   0  0  0  0  0  0  0  0  0  0  0  0
  -29.4985  -29.9447  -19.8978 C   0  0  0  0  0  0  0  0  0  0  0  0
  -30.9374  -30.1326  -20.0846 C   0  0  0  0  0  0  0  0  0  0  0  0
  -29.0064  -29.8681  -18.6688 N   0  0  0  0  0  0  0  0  0  0  0  0
  -27.6586  -29.9558  -18.8140 N   0  0  0  0  0  0  0  0  0  0  0  0
  -26.8848  -29.9755  -17.6282 C   0  0  0  0  0  0  0  0  0  0  0  0
  -25.4948  -30.0862  -17.6241 C   0  0  0  0  0  0  0  0  0  0  0  0
  -24.8375  -30.3780  -16.4297 C   0  0  0  0  0  0  0  0  0  0  0  0
  -25.5569  -30.5131  -15.2458 C   0  0  0  0  0  0  0  0  0  0  0  0
  -26.9289  -30.3064  -15.2382 C   0  0  0  0  0  0  0  0  0  0  0  0
  -27.5912  -30.0034  -16.4114 C   0  0  0  0  0  0  0  0  0  0  0  0
  1  2  1  0
  2  3  1  0
  3  4  1  0
  4  5  1  6
  4  6  1  0
  6  7  1  0
  7  8  1  0
  8  9  2  0
  8 10  1  0
 10 11  1  0
 11 12  2  0
 12 13  1  0
 13 14  1  0
 13 15  2  0
 15 16  1  0
 16 17  1  0
 17 18  2  0
 18 19  1  0
 19 20  2  0
 20 21  1  0
 21 22  2  0
 16 11  1  0
 22 17  1  0
M  END
>  <id>  (561) 
413050

>  <inchikey>  (561) 
ACSXCWOAVRTSEA-ZDUSSCGKSA-N

>  <alias>  (561) 
None

>  <smiles>  (561) 
CSC[C@@H](O)CNC(=O)Nc1cc(C)nn1-c1ccccc1

>  <path>  (561) 
/opt/xchem-fragalysis-2/maxwin/RdRp_FFF/syndirella/mar_elabs/elabs_062/FGZCUNYQGFTGLS-UHFFFAOYSA-N/output/FGZCUNYQGFTGLS-UHFFFAOYSA-N-pMke9u-2199-B/FGZCUNYQGFTGLS-UHFFFAOYSA-N-pMke9u-2199-B.minimised.mol

>  <distance_score>  (561) 
0.968467

>  <energy_score>  (561) 
-21.118181

>  <compound>  (561) 
ACSXCWOAVRTSEA-UHFFFAOYSA-N

>  <compound_id>  (561) 
225933

>  <target>  (561) 
Flavi_NS5_RdRp

>  <tags>  (561) 
[]

>  <inspirations>  (561) 
{P Ã— 2}

>  <subsites>  (561) 
None

>  <reference>  (561) 
z0211a

>  <SLURM_JOB_ID>  (561) 
nan

>  <SLURM_JOB_NAME>  (561) 
nan

>  <csv_name>  (561) 
nan

>  <scratch_subdir>  (561) 
nan

>  <fragmenstein_runtime>  (561) 
nan

>  <fragmenstein_outcome>  (561) 
nan

>  <fragmenstein_mode>  (561) 
nan

>  <fragmenstein_error>  (561) 
nan

>  <exports>  (561) 
nan

>  <Multi-SuCOS>  (561) 
nan

>  <merge_set>  (561) 
nan

$$$$
GMCMQBGVZHFUFQ-AWEZNQCLSA-N
     RDKit          3D

 23 24  0  0  0  0  0  0  0  0999 V2000
  -23.9378  -31.2858  -16.3482 C   0  0  0  0  0  0  0  0  0  0  0  0
  -25.2952  -30.6740  -16.5469 C   0  0  0  0  0  0  0  0  0  0  0  0
  -26.1775  -30.6291  -15.4604 C   0  0  0  0  0  0  0  0  0  0  0  0
  -27.4874  -30.2005  -15.6401 C   0  0  0  0  0  0  0  0  0  0  0  0
  -28.5409  -30.3286  -14.6101 C   0  0  0  0  0  0  0  0  0  0  0  0
  -27.8983  -29.7584  -16.8773 C   0  0  0  0  0  0  0  0  0  0  0  0
  -27.0778  -29.9247  -17.9983 C   0  0  0  0  0  0  0  0  0  0  0  0
  -27.7539  -29.8764  -19.2392 N   0  0  0  0  0  0  0  0  0  0  0  0
  -29.1047  -29.7137  -19.1680 N   0  0  0  0  0  0  0  0  0  0  0  0
  -29.5494  -29.8094  -20.4073 C   0  0  0  0  0  0  0  0  0  0  0  0
  -30.9906  -29.9945  -20.6150 C   0  0  0  0  0  0  0  0  0  0  0  0
  -28.4934  -29.8361  -21.3144 C   0  0  0  0  0  0  0  0  0  0  0  0
  -27.3772  -30.1017  -20.5509 C   0  0  0  0  0  0  0  0  0  0  0  0
  -26.2001  -30.5515  -21.0704 N   0  0  0  0  0  0  0  0  0  0  0  0
  -25.7432  -30.6950  -22.5492 C   0  0  0  0  0  0  0  0  0  0  0  0
  -26.2636  -30.3855  -23.5119 O   0  0  0  0  0  0  0  0  0  0  0  0
  -24.4145  -31.4459  -22.3319 N   0  0  0  0  0  0  0  0  0  0  0  0
  -23.4283  -31.8747  -23.2738 C   0  0  0  0  0  0  0  0  0  0  0  0
  -22.2821  -32.5920  -22.5891 C   0  0  2  0  0  0  0  0  0  0  0  0
  -21.8901  -31.8801  -21.4070 O   0  0  0  0  0  0  0  0  0  0  0  0
  -21.0919  -32.7056  -23.5237 C   0  0  0  0  0  0  0  0  0  0  0  0
  -20.0193  -33.2664  -22.7730 O   0  0  0  0  0  0  0  0  0  0  0  0
  -25.7462  -30.3031  -17.8262 C   0  0  0  0  0  0  0  0  0  0  0  0
  1  2  1  0
  2  3  2  0
  3  4  1  0
  4  5  1  0
  4  6  2  0
  6  7  1  0
  7  8  1  0
  8  9  1  0
  9 10  2  0
 10 11  1  0
 10 12  1  0
 12 13  2  0
 13 14  1  0
 14 15  1  0
 15 16  2  0
 15 17  1  0
 17 18  1  0
 18 19  1  0
 19 20  1  1
 19 21  1  0
 21 22  1  0
  7 23  2  0
 23  2  1  0
 13  8  1  0
M  END
>  <id>  (562) 
413473

>  <inchikey>  (562) 
GMCMQBGVZHFUFQ-AWEZNQCLSA-N

>  <alias>  (562) 
None

>  <smiles>  (562) 
Cc1cc(C)cc(-n2nc(C)cc2NC(=O)NC[C@H](O)CO)c1

>  <path>  (562) 
/opt/xchem-fragalysis-2/maxwin/RdRp_FFF/syndirella/mar_elabs/elabs_062/FGZCUNYQGFTGLS-UHFFFAOYSA-N/output/FGZCUNYQGFTGLS-UHFFFAOYSA-N-pMke9u-3429-A/FGZCUNYQGFTGLS-UHFFFAOYSA-N-pMke9u-3429-A.minimised.mol

>  <distance_score>  (562) 
0.999455

>  <energy_score>  (562) 
-35.489038

>  <compound>  (562) 
GMCMQBGVZHFUFQ-UHFFFAOYSA-N

>  <compound_id>  (562) 
226560

>  <target>  (562) 
Flavi_NS5_RdRp

>  <tags>  (562) 
[]

>  <inspirations>  (562) 
{P Ã— 2}

>  <subsites>  (562) 
None

>  <reference>  (562) 
z0211a

>  <SLURM_JOB_ID>  (562) 
nan

>  <SLURM_JOB_NAME>  (562) 
nan

>  <csv_name>  (562) 
nan

>  <scratch_subdir>  (562) 
nan

>  <fragmenstein_runtime>  (562) 
nan

>  <fragmenstein_outcome>  (562) 
nan

>  <fragmenstein_mode>  (562) 
nan

>  <fragmenstein_error>  (562) 
nan

>  <exports>  (562) 
nan

>  <Multi-SuCOS>  (562) 
nan

>  <merge_set>  (562) 
nan

$$$$
IWCVJUBKJRUBNY-LBPRGKRZSA-N
     RDKit          3D

 23 24  0  0  0  0  0  0  0  0999 V2000
  -23.7105  -31.5883  -15.7705 C   0  0  0  0  0  0  0  0  0  0  0  0
  -24.9874  -30.9108  -16.1772 C   0  0  0  0  0  0  0  0  0  0  0  0
  -26.0208  -30.7652  -15.2438 C   0  0  0  0  0  0  0  0  0  0  0  0
  -27.2409  -30.2118  -15.6272 C   0  0  0  0  0  0  0  0  0  0  0  0
  -28.4547  -30.2460  -14.7652 C   0  0  0  0  0  0  0  0  0  0  0  0
  -27.3939  -29.7281  -16.9155 C   0  0  0  0  0  0  0  0  0  0  0  0
  -26.4290  -29.9938  -17.8973 C   0  0  0  0  0  0  0  0  0  0  0  0
  -26.8874  -29.8918  -19.2398 N   0  0  0  0  0  0  0  0  0  0  0  0
  -28.1227  -29.3428  -19.4247 N   0  0  0  0  0  0  0  0  0  0  0  0
  -28.5781  -29.8925  -20.5423 C   0  0  0  0  0  0  0  0  0  0  0  0
  -30.0165  -29.8122  -20.8524 C   0  0  0  0  0  0  0  0  0  0  0  0
  -27.5361  -30.4974  -21.2542 C   0  0  0  0  0  0  0  0  0  0  0  0
  -26.4342  -30.4747  -20.4206 C   0  0  0  0  0  0  0  0  0  0  0  0
  -25.1874  -30.9623  -20.7173 N   0  0  0  0  0  0  0  0  0  0  0  0
  -24.7302  -31.8231  -21.8342 C   0  0  0  0  0  0  0  0  0  0  0  0
  -25.3297  -32.3418  -22.6644 O   0  0  0  0  0  0  0  0  0  0  0  0
  -23.1123  -31.7200  -21.5623 N   0  0  0  0  0  0  0  0  0  0  0  0
  -21.8341  -32.2062  -22.4007 C   0  0  0  0  0  0  0  0  0  0  0  0
  -21.6842  -32.8551  -23.8132 S   0  0  0  0  0  0  0  0  0  0  0  0
  -20.6198  -31.9877  -21.4617 C   0  0  2  0  0  0  0  0  0  0  0  0
  -20.5149  -33.1493  -20.4803 C   0  0  0  0  0  0  0  0  0  0  0  0
  -20.6760  -30.7551  -20.7570 O   0  0  0  0  0  0  0  0  0  0  0  0
  -25.2103  -30.5548  -17.5176 C   0  0  0  0  0  0  0  0  0  0  0  0
  1  2  1  0
  2  3  2  0
  3  4  1  0
  4  5  1  0
  4  6  2  0
  6  7  1  0
  7  8  1  0
  8  9  1  0
  9 10  2  0
 10 11  1  0
 10 12  1  0
 12 13  2  0
 13 14  1  0
 14 15  1  0
 15 16  2  0
 15 17  1  0
 17 18  1  0
 18 19  2  0
 18 20  1  0
 20 21  1  1
 20 22  1  0
  7 23  2  0
 23  2  1  0
 13  8  1  0
M  END
>  <id>  (563) 
413474

>  <inchikey>  (563) 
IWCVJUBKJRUBNY-LBPRGKRZSA-N

>  <alias>  (563) 
None

>  <smiles>  (563) 
Cc1cc(C)cc(-n2nc(C)cc2NC(=O)NC(=S)[C@H](C)O)c1

>  <path>  (563) 
/opt/xchem-fragalysis-2/maxwin/RdRp_FFF/syndirella/mar_elabs/elabs_062/FGZCUNYQGFTGLS-UHFFFAOYSA-N/output/FGZCUNYQGFTGLS-UHFFFAOYSA-N-pMke9u-3430-A/FGZCUNYQGFTGLS-UHFFFAOYSA-N-pMke9u-3430-A.minimised.mol

>  <distance_score>  (563) 
1.580571

>  <energy_score>  (563) 
-22.284803

>  <compound>  (563) 
IWCVJUBKJRUBNY-UHFFFAOYSA-N

>  <compound_id>  (563) 
226561

>  <target>  (563) 
Flavi_NS5_RdRp

>  <tags>  (563) 
[]

>  <inspirations>  (563) 
{P Ã— 2}

>  <subsites>  (563) 
None

>  <reference>  (563) 
z0211a

>  <SLURM_JOB_ID>  (563) 
nan

>  <SLURM_JOB_NAME>  (563) 
nan

>  <csv_name>  (563) 
nan

>  <scratch_subdir>  (563) 
nan

>  <fragmenstein_runtime>  (563) 
nan

>  <fragmenstein_outcome>  (563) 
nan

>  <fragmenstein_mode>  (563) 
nan

>  <fragmenstein_error>  (563) 
nan

>  <exports>  (563) 
nan

>  <Multi-SuCOS>  (563) 
nan

>  <merge_set>  (563) 
nan

$$$$
JPQSHASKRYSKMQ-AWEZNQCLSA-N
     RDKit          3D

 23 24  0  0  0  0  0  0  0  0999 V2000
  -28.6555  -30.2863  -14.6385 C   0  0  0  0  0  0  0  0  0  0  0  0
  -27.5078  -30.1800  -15.5644 C   0  0  0  0  0  0  0  0  0  0  0  0
  -26.2290  -30.6113  -15.2180 C   0  0  0  0  0  0  0  0  0  0  0  0
  -25.1998  -30.6053  -16.1574 C   0  0  0  0  0  0  0  0  0  0  0  0
  -23.8575  -31.1608  -15.7814 C   0  0  0  0  0  0  0  0  0  0  0  0
  -25.4779  -30.1926  -17.4651 C   0  0  0  0  0  0  0  0  0  0  0  0
  -26.7793  -29.8406  -17.8285 C   0  0  0  0  0  0  0  0  0  0  0  0
  -27.2477  -29.7973  -19.1649 N   0  0  0  0  0  0  0  0  0  0  0  0
  -28.5194  -29.3517  -19.3521 N   0  0  0  0  0  0  0  0  0  0  0  0
  -28.8897  -29.8322  -20.5292 C   0  0  0  0  0  0  0  0  0  0  0  0
  -30.3168  -29.8207  -20.8877 C   0  0  0  0  0  0  0  0  0  0  0  0
  -27.7935  -30.3534  -21.2281 C   0  0  0  0  0  0  0  0  0  0  0  0
  -26.7462  -30.3735  -20.3292 C   0  0  0  0  0  0  0  0  0  0  0  0
  -25.5117  -30.9369  -20.5343 N   0  0  0  0  0  0  0  0  0  0  0  0
  -25.0069  -31.8633  -21.6728 C   0  0  0  0  0  0  0  0  0  0  0  0
  -25.5290  -32.2134  -22.6208 O   0  0  0  0  0  0  0  0  0  0  0  0
  -23.5505  -32.0878  -21.1904 N   0  0  0  0  0  0  0  0  0  0  0  0
  -22.4898  -32.8785  -21.7623 C   0  0  0  0  0  0  0  0  0  0  0  0
  -21.9437  -32.1978  -23.0207 C   0  0  1  0  0  0  0  0  0  0  0  0
  -21.0425  -31.1683  -22.5984 O   0  0  0  0  0  0  0  0  0  0  0  0
  -21.1798  -33.1782  -23.8902 C   0  0  0  0  0  0  0  0  0  0  0  0
  -20.9088  -32.6094  -25.1025 F   0  0  0  0  0  0  0  0  0  0  0  0
  -27.7641  -29.7298  -16.8434 C   0  0  0  0  0  0  0  0  0  0  0  0
  1  2  1  0
  2  3  2  0
  3  4  1  0
  4  5  1  0
  4  6  2  0
  6  7  1  0
  7  8  1  0
  8  9  1  0
  9 10  2  0
 10 11  1  0
 10 12  1  0
 12 13  2  0
 13 14  1  0
 14 15  1  0
 15 16  2  0
 15 17  1  0
 17 18  1  0
 18 19  1  0
 19 20  1  1
 19 21  1  0
 21 22  1  0
  7 23  2  0
 23  2  1  0
 13  8  1  0
M  END
>  <id>  (564) 
413479

>  <inchikey>  (564) 
JPQSHASKRYSKMQ-AWEZNQCLSA-N

>  <alias>  (564) 
None

>  <smiles>  (564) 
Cc1cc(C)cc(-n2nc(C)cc2NC(=O)NC[C@@H](O)CF)c1

>  <path>  (564) 
/opt/xchem-fragalysis-2/maxwin/RdRp_FFF/syndirella/mar_elabs/elabs_062/FGZCUNYQGFTGLS-UHFFFAOYSA-N/output/FGZCUNYQGFTGLS-UHFFFAOYSA-N-pMke9u-3443-B/FGZCUNYQGFTGLS-UHFFFAOYSA-N-pMke9u-3443-B.minimised.mol

>  <distance_score>  (564) 
1.133544

>  <energy_score>  (564) 
-24.366345

>  <compound>  (564) 
JPQSHASKRYSKMQ-UHFFFAOYSA-N

>  <compound_id>  (564) 
226571

>  <target>  (564) 
Flavi_NS5_RdRp

>  <tags>  (564) 
[]

>  <inspirations>  (564) 
{P Ã— 2}

>  <subsites>  (564) 
None

>  <reference>  (564) 
z0211a

>  <SLURM_JOB_ID>  (564) 
nan

>  <SLURM_JOB_NAME>  (564) 
nan

>  <csv_name>  (564) 
nan

>  <scratch_subdir>  (564) 
nan

>  <fragmenstein_runtime>  (564) 
nan

>  <fragmenstein_outcome>  (564) 
nan

>  <fragmenstein_mode>  (564) 
nan

>  <fragmenstein_error>  (564) 
nan

>  <exports>  (564) 
nan

>  <Multi-SuCOS>  (564) 
nan

>  <merge_set>  (564) 
nan

$$$$
ONHWBVAGYSJXMQ-GFCCVEGCSA-N
     RDKit          3D

 21 22  0  0  0  0  0  0  0  0999 V2000
  -30.8942  -30.1105  -20.2023 C   0  0  0  0  0  0  0  0  0  0  0  0
  -29.4521  -29.9624  -20.0038 C   0  0  0  0  0  0  0  0  0  0  0  0
  -28.4207  -29.9536  -20.9433 C   0  0  0  0  0  0  0  0  0  0  0  0
  -27.2776  -30.1992  -20.2119 C   0  0  0  0  0  0  0  0  0  0  0  0
  -26.0980  -30.6215  -20.7667 N   0  0  0  0  0  0  0  0  0  0  0  0
  -25.6826  -30.7685  -22.2625 C   0  0  0  0  0  0  0  0  0  0  0  0
  -26.2433  -30.4855  -23.2119 O   0  0  0  0  0  0  0  0  0  0  0  0
  -24.3130  -31.4723  -22.0807 N   0  0  0  0  0  0  0  0  0  0  0  0
  -23.4208  -32.0449  -23.0579 C   0  0  0  0  0  0  0  0  0  0  0  0
  -22.0536  -32.4142  -22.4975 C   0  0  2  0  0  0  0  0  0  0  0  0
  -21.3782  -31.2749  -21.9663 O   0  0  0  0  0  0  0  0  0  0  0  0
  -21.1932  -33.0817  -23.5611 C   0  0  0  0  0  0  0  0  0  0  0  0
  -21.1122  -32.3010  -24.6722 F   0  0  0  0  0  0  0  0  0  0  0  0
  -27.6376  -30.0135  -18.8829 N   0  0  0  0  0  0  0  0  0  0  0  0
  -26.8966  -30.0017  -17.6807 C   0  0  0  0  0  0  0  0  0  0  0  0
  -25.5104  -30.1338  -17.6481 C   0  0  0  0  0  0  0  0  0  0  0  0
  -24.8757  -30.3747  -16.4303 C   0  0  0  0  0  0  0  0  0  0  0  0
  -25.6153  -30.4403  -15.2523 C   0  0  0  0  0  0  0  0  0  0  0  0
  -26.9848  -30.2158  -15.2753 C   0  0  0  0  0  0  0  0  0  0  0  0
  -27.6241  -29.9685  -16.4751 C   0  0  0  0  0  0  0  0  0  0  0  0
  -28.9859  -29.9292  -18.7657 N   0  0  0  0  0  0  0  0  0  0  0  0
  1  2  1  0
  2  3  1  0
  3  4  2  0
  4  5  1  0
  5  6  1  0
  6  7  2  0
  6  8  1  0
  8  9  1  0
  9 10  1  0
 10 11  1  6
 10 12  1  0
 12 13  1  0
  4 14  1  0
 14 15  1  0
 15 16  2  0
 16 17  1  0
 17 18  2  0
 18 19  1  0
 19 20  2  0
 14 21  1  0
 21  2  2  0
 20 15  1  0
M  END
>  <id>  (565) 
413812

>  <inchikey>  (565) 
ONHWBVAGYSJXMQ-GFCCVEGCSA-N

>  <alias>  (565) 
None

>  <smiles>  (565) 
Cc1cc(NC(=O)NC[C@H](O)CF)n(-c2ccccc2)n1

>  <path>  (565) 
/opt/xchem-fragalysis-2/maxwin/RdRp_FFF/syndirella/mar_elabs/elabs_062/FGZCUNYQGFTGLS-UHFFFAOYSA-N/output/FGZCUNYQGFTGLS-UHFFFAOYSA-N-4HKAHD-196-A/FGZCUNYQGFTGLS-UHFFFAOYSA-N-4HKAHD-196-A.minimised.mol

>  <distance_score>  (565) 
1.000063

>  <energy_score>  (565) 
-1.541041

>  <compound>  (565) 
ONHWBVAGYSJXMQ-UHFFFAOYSA-N

>  <compound_id>  (565) 
225214

>  <target>  (565) 
Flavi_NS5_RdRp

>  <tags>  (565) 
[]

>  <inspirations>  (565) 
{P Ã— 2}

>  <subsites>  (565) 
None

>  <reference>  (565) 
z0211a

>  <SLURM_JOB_ID>  (565) 
nan

>  <SLURM_JOB_NAME>  (565) 
nan

>  <csv_name>  (565) 
nan

>  <scratch_subdir>  (565) 
nan

>  <fragmenstein_runtime>  (565) 
nan

>  <fragmenstein_outcome>  (565) 
nan

>  <fragmenstein_mode>  (565) 
nan

>  <fragmenstein_error>  (565) 
nan

>  <exports>  (565) 
nan

>  <Multi-SuCOS>  (565) 
nan

>  <merge_set>  (565) 
nan

$$$$
KVIYOQMZQOAJFT-LBPRGKRZSA-N
     RDKit          3D

 21 22  0  0  0  0  0  0  0  0999 V2000
  -30.9035  -30.1164  -20.2017 C   0  0  0  0  0  0  0  0  0  0  0  0
  -29.4636  -29.9527  -19.9999 C   0  0  0  0  0  0  0  0  0  0  0  0
  -28.4291  -29.9501  -20.9358 C   0  0  0  0  0  0  0  0  0  0  0  0
  -27.2885  -30.1808  -20.1968 C   0  0  0  0  0  0  0  0  0  0  0  0
  -26.1044  -30.6045  -20.7396 N   0  0  0  0  0  0  0  0  0  0  0  0
  -25.6809  -30.7703  -22.2305 C   0  0  0  0  0  0  0  0  0  0  0  0
  -26.2382  -30.5037  -23.1865 O   0  0  0  0  0  0  0  0  0  0  0  0
  -24.3112  -31.4666  -22.0318 N   0  0  0  0  0  0  0  0  0  0  0  0
  -23.4121  -32.0524  -22.9969 C   0  0  0  0  0  0  0  0  0  0  0  0
  -22.0558  -32.4130  -22.4019 C   0  0  2  0  0  0  0  0  0  0  0  0
  -21.3382  -31.2505  -21.9865 O   0  0  0  0  0  0  0  0  0  0  0  0
  -21.1983  -33.2201  -23.3735 C   0  0  0  0  0  0  0  0  0  0  0  0
  -21.0657  -32.5952  -24.6456 O   0  0  0  0  0  0  0  0  0  0  0  0
  -27.6545  -29.9885  -18.8705 N   0  0  0  0  0  0  0  0  0  0  0  0
  -26.9191  -29.9838  -17.6647 C   0  0  0  0  0  0  0  0  0  0  0  0
  -27.6532  -29.9687  -16.4632 C   0  0  0  0  0  0  0  0  0  0  0  0
  -27.0194  -30.2312  -15.2639 C   0  0  0  0  0  0  0  0  0  0  0  0
  -25.6488  -30.4495  -15.2361 C   0  0  0  0  0  0  0  0  0  0  0  0
  -24.9027  -30.3630  -16.4085 C   0  0  0  0  0  0  0  0  0  0  0  0
  -25.5323  -30.1095  -17.6263 C   0  0  0  0  0  0  0  0  0  0  0  0
  -29.0027  -29.8917  -18.7607 N   0  0  0  0  0  0  0  0  0  0  0  0
  1  2  1  0
  2  3  1  0
  3  4  2  0
  4  5  1  0
  5  6  1  0
  6  7  2  0
  6  8  1  0
  8  9  1  0
  9 10  1  0
 10 11  1  6
 10 12  1  0
 12 13  1  0
  4 14  1  0
 14 15  1  0
 15 16  2  0
 16 17  1  0
 17 18  2  0
 18 19  1  0
 19 20  2  0
 14 21  1  0
 21  2  2  0
 20 15  1  0
M  END
>  <id>  (566) 
413815

>  <inchikey>  (566) 
KVIYOQMZQOAJFT-LBPRGKRZSA-N

>  <alias>  (566) 
None

>  <smiles>  (566) 
Cc1cc(NC(=O)NC[C@H](O)CO)n(-c2ccccc2)n1

>  <path>  (566) 
/opt/xchem-fragalysis-2/maxwin/RdRp_FFF/syndirella/mar_elabs/elabs_062/FGZCUNYQGFTGLS-UHFFFAOYSA-N/output/FGZCUNYQGFTGLS-UHFFFAOYSA-N-4HKAHD-199-A/FGZCUNYQGFTGLS-UHFFFAOYSA-N-4HKAHD-199-A.minimised.mol

>  <distance_score>  (566) 
0.996174

>  <energy_score>  (566) 
-14.960696

>  <compound>  (566) 
KVIYOQMZQOAJFT-UHFFFAOYSA-N

>  <compound_id>  (566) 
225210

>  <target>  (566) 
Flavi_NS5_RdRp

>  <tags>  (566) 
[]

>  <inspirations>  (566) 
{P Ã— 2}

>  <subsites>  (566) 
None

>  <reference>  (566) 
z0211a

>  <SLURM_JOB_ID>  (566) 
nan

>  <SLURM_JOB_NAME>  (566) 
nan

>  <csv_name>  (566) 
nan

>  <scratch_subdir>  (566) 
nan

>  <fragmenstein_runtime>  (566) 
nan

>  <fragmenstein_outcome>  (566) 
nan

>  <fragmenstein_mode>  (566) 
nan

>  <fragmenstein_error>  (566) 
nan

>  <exports>  (566) 
nan

>  <Multi-SuCOS>  (566) 
nan

>  <merge_set>  (566) 
nan

$$$$
YJCAWTYKCTZVBL-LBPRGKRZSA-N
     RDKit          3D

 21 22  0  0  0  0  0  0  0  0999 V2000
  -31.0047  -30.1053  -20.2242 C   0  0  0  0  0  0  0  0  0  0  0  0
  -29.5708  -29.9218  -20.0092 C   0  0  0  0  0  0  0  0  0  0  0  0
  -28.5312  -29.8779  -20.9406 C   0  0  0  0  0  0  0  0  0  0  0  0
  -27.4052  -30.1421  -20.1958 C   0  0  0  0  0  0  0  0  0  0  0  0
  -26.2248  -30.6010  -20.7069 N   0  0  0  0  0  0  0  0  0  0  0  0
  -25.7592  -30.7542  -22.1836 C   0  0  0  0  0  0  0  0  0  0  0  0
  -26.2724  -30.4471  -23.1513 O   0  0  0  0  0  0  0  0  0  0  0  0
  -24.4377  -31.5152  -21.9543 N   0  0  0  0  0  0  0  0  0  0  0  0
  -23.4445  -31.9622  -22.8938 C   0  0  0  0  0  0  0  0  0  0  0  0
  -22.0898  -32.0270  -22.1908 C   0  0  1  0  0  0  0  0  0  0  0  0
  -22.3323  -32.3894  -20.8146 O   0  0  0  0  0  0  0  0  0  0  0  0
  -21.1560  -33.0451  -22.8191 C   0  0  0  0  0  0  0  0  0  0  0  0
  -19.7314  -33.2157  -21.7432 Cl  0  0  0  0  0  0  0  0  0  0  0  0
  -27.7741  -29.9635  -18.8692 N   0  0  0  0  0  0  0  0  0  0  0  0
  -27.0332  -29.9541  -17.6665 C   0  0  0  0  0  0  0  0  0  0  0  0
  -27.7601  -29.9654  -16.4616 C   0  0  0  0  0  0  0  0  0  0  0  0
  -27.1122  -30.2251  -15.2687 C   0  0  0  0  0  0  0  0  0  0  0  0
  -25.7363  -30.4132  -15.2515 C   0  0  0  0  0  0  0  0  0  0  0  0
  -24.9990  -30.2974  -16.4270 C   0  0  0  0  0  0  0  0  0  0  0  0
  -25.6422  -30.0462  -17.6378 C   0  0  0  0  0  0  0  0  0  0  0  0
  -29.1220  -29.8923  -18.7633 N   0  0  0  0  0  0  0  0  0  0  0  0
  1  2  1  0
  2  3  1  0
  3  4  2  0
  4  5  1  0
  5  6  1  0
  6  7  2  0
  6  8  1  0
  8  9  1  0
  9 10  1  0
 10 11  1  1
 10 12  1  0
 12 13  1  0
  4 14  1  0
 14 15  1  0
 15 16  2  0
 16 17  1  0
 17 18  2  0
 18 19  1  0
 19 20  2  0
 14 21  1  0
 21  2  2  0
 20 15  1  0
M  END
>  <id>  (567) 
413818

>  <inchikey>  (567) 
YJCAWTYKCTZVBL-LBPRGKRZSA-N

>  <alias>  (567) 
None

>  <smiles>  (567) 
Cc1cc(NC(=O)NC[C@@H](O)CCl)n(-c2ccccc2)n1

>  <path>  (567) 
/opt/xchem-fragalysis-2/maxwin/RdRp_FFF/syndirella/mar_elabs/elabs_062/FGZCUNYQGFTGLS-UHFFFAOYSA-N/output/FGZCUNYQGFTGLS-UHFFFAOYSA-N-4HKAHD-210-B/FGZCUNYQGFTGLS-UHFFFAOYSA-N-4HKAHD-210-B.minimised.mol

>  <distance_score>  (567) 
1.035077

>  <energy_score>  (567) 
-20.958315

>  <compound>  (567) 
YJCAWTYKCTZVBL-UHFFFAOYSA-N

>  <compound_id>  (567) 
225222

>  <target>  (567) 
Flavi_NS5_RdRp

>  <tags>  (567) 
[]

>  <inspirations>  (567) 
{P Ã— 2}

>  <subsites>  (567) 
None

>  <reference>  (567) 
z0211a

>  <SLURM_JOB_ID>  (567) 
nan

>  <SLURM_JOB_NAME>  (567) 
nan

>  <csv_name>  (567) 
nan

>  <scratch_subdir>  (567) 
nan

>  <fragmenstein_runtime>  (567) 
nan

>  <fragmenstein_outcome>  (567) 
nan

>  <fragmenstein_mode>  (567) 
nan

>  <fragmenstein_error>  (567) 
nan

>  <exports>  (567) 
nan

>  <Multi-SuCOS>  (567) 
nan

>  <merge_set>  (567) 
nan

$$$$
IZKDREKRZIKFNZ-INIZCTEOSA-N
     RDKit          3D

 22 23  0  0  0  0  0  0  0  0999 V2000
  -23.4273  -34.4916  -21.7083 C   0  0  0  0  0  0  0  0  0  0  0  0
  -22.3289  -34.1048  -22.6937 C   0  0  0  0  0  0  0  0  0  0  0  0
  -22.0809  -32.5942  -22.8248 C   0  0  2  0  0  0  0  0  0  0  0  0
  -20.9432  -32.3863  -23.8246 C   0  0  0  0  0  0  0  0  0  0  0  0
  -21.6519  -32.0534  -21.5678 O   0  0  0  0  0  0  0  0  0  0  0  0
  -23.3210  -31.8335  -23.3108 C   0  0  0  0  0  0  0  0  0  0  0  0
  -24.2559  -31.4769  -22.2792 N   0  0  0  0  0  0  0  0  0  0  0  0
  -25.6345  -30.7762  -22.3733 C   0  0  0  0  0  0  0  0  0  0  0  0
  -26.2382  -30.4605  -23.2857 O   0  0  0  0  0  0  0  0  0  0  0  0
  -25.9833  -30.6876  -20.8555 N   0  0  0  0  0  0  0  0  0  0  0  0
  -27.1384  -30.2926  -20.2333 C   0  0  0  0  0  0  0  0  0  0  0  0
  -28.3185  -30.0806  -20.9153 C   0  0  0  0  0  0  0  0  0  0  0  0
  -29.3046  -30.0187  -19.9341 C   0  0  0  0  0  0  0  0  0  0  0  0
  -30.7590  -30.1360  -20.0745 C   0  0  0  0  0  0  0  0  0  0  0  0
  -28.7775  -29.9194  -18.7235 N   0  0  0  0  0  0  0  0  0  0  0  0
  -27.4361  -30.0816  -18.8901 N   0  0  0  0  0  0  0  0  0  0  0  0
  -26.6571  -30.0970  -17.7055 C   0  0  0  0  0  0  0  0  0  0  0  0
  -27.3521  -29.9762  -16.4832 C   0  0  0  0  0  0  0  0  0  0  0  0
  -26.7022  -30.2093  -15.2862 C   0  0  0  0  0  0  0  0  0  0  0  0
  -25.3506  -30.5182  -15.2819 C   0  0  0  0  0  0  0  0  0  0  0  0
  -24.6392  -30.5582  -16.4783 C   0  0  0  0  0  0  0  0  0  0  0  0
  -25.2840  -30.3294  -17.6942 C   0  0  0  0  0  0  0  0  0  0  0  0
  1  2  1  0
  2  3  1  0
  3  4  1  6
  3  5  1  0
  3  6  1  0
  6  7  1  0
  7  8  1  0
  8  9  2  0
  8 10  1  0
 10 11  1  0
 11 12  2  0
 12 13  1  0
 13 14  1  0
 13 15  2  0
 15 16  1  0
 16 17  1  0
 17 18  2  0
 18 19  1  0
 19 20  2  0
 20 21  1  0
 21 22  2  0
 16 11  1  0
 22 17  1  0
M  END
>  <id>  (568) 
414266

>  <inchikey>  (568) 
IZKDREKRZIKFNZ-INIZCTEOSA-N

>  <alias>  (568) 
None

>  <smiles>  (568) 
CC[C@](C)(O)CNC(=O)Nc1cc(C)nn1-c1ccccc1

>  <path>  (568) 
/opt/xchem-fragalysis-2/maxwin/RdRp_FFF/syndirella/mar_elabs/elabs_062/FGZCUNYQGFTGLS-UHFFFAOYSA-N/output/FGZCUNYQGFTGLS-UHFFFAOYSA-N-4HKAHD-2138-A/FGZCUNYQGFTGLS-UHFFFAOYSA-N-4HKAHD-2138-A.minimised.mol

>  <distance_score>  (568) 
1.039504

>  <energy_score>  (568) 
-34.260553

>  <compound>  (568) 
IZKDREKRZIKFNZ-UHFFFAOYSA-N

>  <compound_id>  (568) 
225921

>  <target>  (568) 
Flavi_NS5_RdRp

>  <tags>  (568) 
[]

>  <inspirations>  (568) 
{P Ã— 2}

>  <subsites>  (568) 
None

>  <reference>  (568) 
z0211a

>  <SLURM_JOB_ID>  (568) 
nan

>  <SLURM_JOB_NAME>  (568) 
nan

>  <csv_name>  (568) 
nan

>  <scratch_subdir>  (568) 
nan

>  <fragmenstein_runtime>  (568) 
nan

>  <fragmenstein_outcome>  (568) 
nan

>  <fragmenstein_mode>  (568) 
nan

>  <fragmenstein_error>  (568) 
nan

>  <exports>  (568) 
nan

>  <Multi-SuCOS>  (568) 
nan

>  <merge_set>  (568) 
nan

$$$$
BBAUBPNOSPHSGJ-NSHDSACASA-N
     RDKit          3D

 22 23  0  0  0  0  0  0  0  0999 V2000
  -21.4535  -32.7443  -19.8077 C   0  0  0  0  0  0  0  0  0  0  0  0
  -21.6453  -31.7706  -20.8347 O   0  0  0  0  0  0  0  0  0  0  0  0
  -21.5507  -32.2704  -22.1813 C   0  0  1  0  0  0  0  0  0  0  0  0
  -20.2769  -33.0656  -22.3815 C   0  0  0  0  0  0  0  0  0  0  0  0
  -22.8789  -32.9629  -22.5980 C   0  0  0  0  0  0  0  0  0  0  0  0
  -23.0190  -34.1537  -23.5959 S   0  0  0  0  0  0  0  0  0  0  0  0
  -23.9519  -32.1303  -21.7561 N   0  0  0  0  0  0  0  0  0  0  0  0
  -25.5471  -32.2897  -21.5514 C   0  0  0  0  0  0  0  0  0  0  0  0
  -26.3084  -33.0030  -22.0341 O   0  0  0  0  0  0  0  0  0  0  0  0
  -25.7442  -31.2057  -20.5725 N   0  0  0  0  0  0  0  0  0  0  0  0
  -26.8866  -30.6914  -20.0391 C   0  0  0  0  0  0  0  0  0  0  0  0
  -28.1292  -30.7686  -20.6152 C   0  0  0  0  0  0  0  0  0  0  0  0
  -29.0127  -30.1957  -19.7005 C   0  0  0  0  0  0  0  0  0  0  0  0
  -30.4857  -30.1759  -19.7882 C   0  0  0  0  0  0  0  0  0  0  0  0
  -28.3644  -29.6753  -18.6576 N   0  0  0  0  0  0  0  0  0  0  0  0
  -27.0749  -30.1225  -18.7849 N   0  0  0  0  0  0  0  0  0  0  0  0
  -26.2556  -30.1835  -17.6161 C   0  0  0  0  0  0  0  0  0  0  0  0
  -24.9916  -30.7850  -17.5907 C   0  0  0  0  0  0  0  0  0  0  0  0
  -24.3272  -30.9935  -16.3789 C   0  0  0  0  0  0  0  0  0  0  0  0
  -24.9202  -30.6181  -15.1826 C   0  0  0  0  0  0  0  0  0  0  0  0
  -26.1679  -30.0116  -15.2020 C   0  0  0  0  0  0  0  0  0  0  0  0
  -26.8267  -29.7759  -16.4031 C   0  0  0  0  0  0  0  0  0  0  0  0
  1  2  1  0
  2  3  1  0
  3  4  1  1
  3  5  1  0
  5  6  2  0
  5  7  1  0
  7  8  1  0
  8  9  2  0
  8 10  1  0
 10 11  1  0
 11 12  2  0
 12 13  1  0
 13 14  1  0
 13 15  2  0
 15 16  1  0
 16 17  1  0
 17 18  2  0
 18 19  1  0
 19 20  2  0
 20 21  1  0
 21 22  2  0
 16 11  1  0
 22 17  1  0
M  END
>  <id>  (569) 
414277

>  <inchikey>  (569) 
BBAUBPNOSPHSGJ-NSHDSACASA-N

>  <alias>  (569) 
None

>  <smiles>  (569) 
CO[C@@H](C)C(=S)NC(=O)Nc1cc(C)nn1-c1ccccc1

>  <path>  (569) 
/opt/xchem-fragalysis-2/maxwin/RdRp_FFF/syndirella/mar_elabs/elabs_062/FGZCUNYQGFTGLS-UHFFFAOYSA-N/output/FGZCUNYQGFTGLS-UHFFFAOYSA-N-4HKAHD-2150-B/FGZCUNYQGFTGLS-UHFFFAOYSA-N-4HKAHD-2150-B.minimised.mol

>  <distance_score>  (569) 
1.411612

>  <energy_score>  (569) 
-11.028191

>  <compound>  (569) 
BBAUBPNOSPHSGJ-UHFFFAOYSA-N

>  <compound_id>  (569) 
225895

>  <target>  (569) 
Flavi_NS5_RdRp

>  <tags>  (569) 
[]

>  <inspirations>  (569) 
{P Ã— 2}

>  <subsites>  (569) 
None

>  <reference>  (569) 
z0211a

>  <SLURM_JOB_ID>  (569) 
nan

>  <SLURM_JOB_NAME>  (569) 
nan

>  <csv_name>  (569) 
nan

>  <scratch_subdir>  (569) 
nan

>  <fragmenstein_runtime>  (569) 
nan

>  <fragmenstein_outcome>  (569) 
nan

>  <fragmenstein_mode>  (569) 
nan

>  <fragmenstein_error>  (569) 
nan

>  <exports>  (569) 
nan

>  <Multi-SuCOS>  (569) 
nan

>  <merge_set>  (569) 
nan

$$$$
VQJACPCSYLQNAO-LLVKDONJSA-N
     RDKit          3D

 22 23  0  0  0  0  0  0  0  0999 V2000
  -30.8070  -30.0962  -20.2969 C   0  0  0  0  0  0  0  0  0  0  0  0
  -29.3720  -29.9463  -20.0488 C   0  0  0  0  0  0  0  0  0  0  0  0
  -28.2955  -30.0571  -20.9332 C   0  0  0  0  0  0  0  0  0  0  0  0
  -27.1931  -30.2284  -20.1235 C   0  0  0  0  0  0  0  0  0  0  0  0
  -25.9814  -30.7054  -20.5476 N   0  0  0  0  0  0  0  0  0  0  0  0
  -25.4499  -30.9657  -21.9865 C   0  0  0  0  0  0  0  0  0  0  0  0
  -25.9252  -30.7452  -22.9963 O   0  0  0  0  0  0  0  0  0  0  0  0
  -24.1179  -31.6726  -21.6421 N   0  0  0  0  0  0  0  0  0  0  0  0
  -23.0686  -32.1609  -22.5045 C   0  0  0  0  0  0  0  0  0  0  0  0
  -21.7034  -31.9610  -21.8649 C   0  0  1  0  0  0  0  0  0  0  0  0
  -21.7771  -32.3972  -20.5002 O   0  0  0  0  0  0  0  0  0  0  0  0
  -20.6169  -32.7432  -22.5701 C   0  0  0  0  0  0  0  0  0  0  0  0
  -19.6584  -33.2531  -22.0050 O   0  0  0  0  0  0  0  0  0  0  0  0
  -20.7208  -32.8058  -23.9097 O   0  0  0  0  0  0  0  0  0  0  0  0
  -27.6221  -29.9430  -18.8318 N   0  0  0  0  0  0  0  0  0  0  0  0
  -26.9540  -29.9371  -17.5859 C   0  0  0  0  0  0  0  0  0  0  0  0
  -25.5689  -30.0378  -17.4694 C   0  0  0  0  0  0  0  0  0  0  0  0
  -25.0066  -30.3292  -16.2280 C   0  0  0  0  0  0  0  0  0  0  0  0
  -25.8208  -30.4806  -15.1094 C   0  0  0  0  0  0  0  0  0  0  0  0
  -27.1910  -30.2741  -15.2078 C   0  0  0  0  0  0  0  0  0  0  0  0
  -27.7565  -29.9667  -16.4299 C   0  0  0  0  0  0  0  0  0  0  0  0
  -28.9666  -29.7934  -18.7982 N   0  0  0  0  0  0  0  0  0  0  0  0
  1  2  1  0
  2  3  1  0
  3  4  2  0
  4  5  1  0
  5  6  1  0
  6  7  2  0
  6  8  1  0
  8  9  1  0
  9 10  1  0
 10 11  1  1
 10 12  1  0
 12 13  2  0
 12 14  1  0
  4 15  1  0
 15 16  1  0
 16 17  2  0
 17 18  1  0
 18 19  2  0
 19 20  1  0
 20 21  2  0
 15 22  1  0
 22  2  2  0
 21 16  1  0
M  END
>  <id>  (570) 
414285

>  <inchikey>  (570) 
VQJACPCSYLQNAO-LLVKDONJSA-N

>  <alias>  (570) 
None

>  <smiles>  (570) 
Cc1cc(NC(=O)NC[C@@H](O)C(=O)O)n(-c2ccccc2)n1

>  <path>  (570) 
/opt/xchem-fragalysis-2/maxwin/RdRp_FFF/syndirella/mar_elabs/elabs_062/FGZCUNYQGFTGLS-UHFFFAOYSA-N/output/FGZCUNYQGFTGLS-UHFFFAOYSA-N-4HKAHD-2164-B/FGZCUNYQGFTGLS-UHFFFAOYSA-N-4HKAHD-2164-B.minimised.mol

>  <distance_score>  (570) 
1.0673

>  <energy_score>  (570) 
-4.411668

>  <compound>  (570) 
VQJACPCSYLQNAO-UHFFFAOYSA-N

>  <compound_id>  (570) 
225906

>  <target>  (570) 
Flavi_NS5_RdRp

>  <tags>  (570) 
[]

>  <inspirations>  (570) 
{P Ã— 2}

>  <subsites>  (570) 
None

>  <reference>  (570) 
z0211a

>  <SLURM_JOB_ID>  (570) 
nan

>  <SLURM_JOB_NAME>  (570) 
nan

>  <csv_name>  (570) 
nan

>  <scratch_subdir>  (570) 
nan

>  <fragmenstein_runtime>  (570) 
nan

>  <fragmenstein_outcome>  (570) 
nan

>  <fragmenstein_mode>  (570) 
nan

>  <fragmenstein_error>  (570) 
nan

>  <exports>  (570) 
nan

>  <Multi-SuCOS>  (570) 
nan

>  <merge_set>  (570) 
nan

$$$$
KFFCVIMNVHLOMH-TZMCWYRMSA-N
     RDKit          3D

 22 23  0  0  0  0  0  0  0  0999 V2000
  -24.5497  -34.1795  -23.7285 C   0  0  0  0  0  0  0  0  0  0  0  0
  -24.0358  -32.8410  -24.2428 C   0  0  0  0  0  0  0  0  0  0  0  0
  -23.3463  -31.9688  -23.1761 C   0  0  1  0  0  0  0  0  0  0  0  0
  -24.2861  -31.5308  -22.1624 N   0  0  0  0  0  0  0  0  0  0  0  0
  -25.6447  -30.7978  -22.3029 C   0  0  0  0  0  0  0  0  0  0  0  0
  -26.2333  -30.5124  -23.2349 O   0  0  0  0  0  0  0  0  0  0  0  0
  -26.0162  -30.6568  -20.7960 N   0  0  0  0  0  0  0  0  0  0  0  0
  -27.1788  -30.2388  -20.2059 C   0  0  0  0  0  0  0  0  0  0  0  0
  -28.3429  -30.0008  -20.9054 C   0  0  0  0  0  0  0  0  0  0  0  0
  -29.3453  -29.9830  -19.9366 C   0  0  0  0  0  0  0  0  0  0  0  0
  -30.7947  -30.1195  -20.1040 C   0  0  0  0  0  0  0  0  0  0  0  0
  -28.8410  -29.9260  -18.7125 N   0  0  0  0  0  0  0  0  0  0  0  0
  -27.4953  -30.0464  -18.8667 N   0  0  0  0  0  0  0  0  0  0  0  0
  -26.7192  -30.0585  -17.6824 C   0  0  0  0  0  0  0  0  0  0  0  0
  -27.4179  -29.9919  -16.4603 C   0  0  0  0  0  0  0  0  0  0  0  0
  -26.7594  -30.2443  -15.2725 C   0  0  0  0  0  0  0  0  0  0  0  0
  -25.3984  -30.5124  -15.2774 C   0  0  0  0  0  0  0  0  0  0  0  0
  -24.6856  -30.4890  -16.4734 C   0  0  0  0  0  0  0  0  0  0  0  0
  -25.3377  -30.2393  -17.6802 C   0  0  0  0  0  0  0  0  0  0  0  0
  -22.1071  -32.6224  -22.5339 C   0  0  1  0  0  0  0  0  0  0  0  0
  -20.9951  -32.8534  -23.5438 C   0  0  0  0  0  0  0  0  0  0  0  0
  -21.6130  -31.7763  -21.4917 O   0  0  0  0  0  0  0  0  0  0  0  0
  1  2  1  0
  3  2  1  6
  3  4  1  0
  4  5  1  0
  5  6  2  0
  5  7  1  0
  7  8  1  0
  8  9  2  0
  9 10  1  0
 10 11  1  0
 10 12  2  0
 12 13  1  0
 13 14  1  0
 14 15  2  0
 15 16  1  0
 16 17  2  0
 17 18  1  0
 18 19  2  0
  3 20  1  0
 20 21  1  6
 20 22  1  0
 13  8  1  0
 19 14  1  0
M  END
>  <id>  (571) 
414306

>  <inchikey>  (571) 
KFFCVIMNVHLOMH-TZMCWYRMSA-N

>  <alias>  (571) 
None

>  <smiles>  (571) 
CC[C@@H](NC(=O)Nc1cc(C)nn1-c1ccccc1)[C@@H](C)O

>  <path>  (571) 
/opt/xchem-fragalysis-2/maxwin/RdRp_FFF/syndirella/mar_elabs/elabs_062/FGZCUNYQGFTGLS-UHFFFAOYSA-N/output/FGZCUNYQGFTGLS-UHFFFAOYSA-N-4HKAHD-2196-D/FGZCUNYQGFTGLS-UHFFFAOYSA-N-4HKAHD-2196-D.minimised.mol

>  <distance_score>  (571) 
0.991714

>  <energy_score>  (571) 
-22.52256

>  <compound>  (571) 
KFFCVIMNVHLOMH-UHFFFAOYSA-N

>  <compound_id>  (571) 
225886

>  <target>  (571) 
Flavi_NS5_RdRp

>  <tags>  (571) 
[]

>  <inspirations>  (571) 
{P Ã— 2}

>  <subsites>  (571) 
None

>  <reference>  (571) 
z0211a

>  <SLURM_JOB_ID>  (571) 
nan

>  <SLURM_JOB_NAME>  (571) 
nan

>  <csv_name>  (571) 
nan

>  <scratch_subdir>  (571) 
nan

>  <fragmenstein_runtime>  (571) 
nan

>  <fragmenstein_outcome>  (571) 
nan

>  <fragmenstein_mode>  (571) 
nan

>  <fragmenstein_error>  (571) 
nan

>  <exports>  (571) 
nan

>  <Multi-SuCOS>  (571) 
nan

>  <merge_set>  (571) 
nan

$$$$
BEAFZWJXYAYIIW-ZDUSSCGKSA-N
     RDKit          3D

 22 23  0  0  0  0  0  0  0  0999 V2000
  -25.8373  -31.5142  -14.1951 C   0  0  0  0  0  0  0  0  0  0  0  0
  -26.3442  -30.7150  -15.3449 C   0  0  0  0  0  0  0  0  0  0  0  0
  -27.6734  -30.3095  -15.4069 C   0  0  0  0  0  0  0  0  0  0  0  0
  -28.1730  -29.8617  -16.6144 C   0  0  0  0  0  0  0  0  0  0  0  0
  -27.3453  -29.8535  -17.7585 C   0  0  0  0  0  0  0  0  0  0  0  0
  -27.9866  -29.8532  -19.0131 N   0  0  0  0  0  0  0  0  0  0  0  0
  -29.3382  -29.7799  -18.9845 N   0  0  0  0  0  0  0  0  0  0  0  0
  -29.7259  -29.8348  -20.2467 C   0  0  0  0  0  0  0  0  0  0  0  0
  -31.1534  -30.0342  -20.5220 C   0  0  0  0  0  0  0  0  0  0  0  0
  -28.6330  -29.8014  -21.1145 C   0  0  0  0  0  0  0  0  0  0  0  0
  -27.5408  -30.0660  -20.3134 C   0  0  0  0  0  0  0  0  0  0  0  0
  -26.3502  -30.5431  -20.8049 N   0  0  0  0  0  0  0  0  0  0  0  0
  -25.8435  -30.6720  -22.2801 C   0  0  0  0  0  0  0  0  0  0  0  0
  -26.3233  -30.3281  -23.2554 O   0  0  0  0  0  0  0  0  0  0  0  0
  -24.5347  -31.4757  -22.0336 N   0  0  0  0  0  0  0  0  0  0  0  0
  -23.6201  -32.0880  -22.9738 C   0  0  0  0  0  0  0  0  0  0  0  0
  -22.2553  -32.4462  -22.3879 C   0  0  2  0  0  0  0  0  0  0  0  0
  -21.5742  -31.2893  -21.8976 O   0  0  0  0  0  0  0  0  0  0  0  0
  -21.3429  -33.0955  -23.4316 C   0  0  0  0  0  0  0  0  0  0  0  0
  -20.9521  -32.1405  -24.4202 O   0  0  0  0  0  0  0  0  0  0  0  0
  -25.9737  -30.0148  -17.6316 C   0  0  0  0  0  0  0  0  0  0  0  0
  -25.4769  -30.4571  -16.4143 C   0  0  0  0  0  0  0  0  0  0  0  0
  1  2  1  0
  2  3  2  0
  3  4  1  0
  4  5  2  0
  5  6  1  0
  6  7  1  0
  7  8  2  0
  8  9  1  0
  8 10  1  0
 10 11  2  0
 11 12  1  0
 12 13  1  0
 13 14  2  0
 13 15  1  0
 15 16  1  0
 16 17  1  0
 17 18  1  6
 17 19  1  0
 19 20  1  0
  5 21  1  0
 21 22  2  0
 22  2  1  0
 11  6  1  0
M  END
>  <id>  (572) 
414399

>  <inchikey>  (572) 
BEAFZWJXYAYIIW-ZDUSSCGKSA-N

>  <alias>  (572) 
None

>  <smiles>  (572) 
Cc1ccc(-n2nc(C)cc2NC(=O)NC[C@H](O)CO)cc1

>  <path>  (572) 
/opt/xchem-fragalysis-2/maxwin/RdRp_FFF/syndirella/mar_elabs/elabs_062/FGZCUNYQGFTGLS-UHFFFAOYSA-N/output/FGZCUNYQGFTGLS-UHFFFAOYSA-N-4HKAHD-2424-A/FGZCUNYQGFTGLS-UHFFFAOYSA-N-4HKAHD-2424-A.minimised.mol

>  <distance_score>  (572) 
1.16535

>  <energy_score>  (572) 
-9.249504

>  <compound>  (572) 
BEAFZWJXYAYIIW-UHFFFAOYSA-N

>  <compound_id>  (572) 
225381

>  <target>  (572) 
Flavi_NS5_RdRp

>  <tags>  (572) 
[]

>  <inspirations>  (572) 
{P Ã— 2}

>  <subsites>  (572) 
None

>  <reference>  (572) 
z0211a

>  <SLURM_JOB_ID>  (572) 
nan

>  <SLURM_JOB_NAME>  (572) 
nan

>  <csv_name>  (572) 
nan

>  <scratch_subdir>  (572) 
nan

>  <fragmenstein_runtime>  (572) 
nan

>  <fragmenstein_outcome>  (572) 
nan

>  <fragmenstein_mode>  (572) 
nan

>  <fragmenstein_error>  (572) 
nan

>  <exports>  (572) 
nan

>  <Multi-SuCOS>  (572) 
nan

>  <merge_set>  (572) 
nan

$$$$
HAGOIOPRHWOBPP-LLVKDONJSA-N
     RDKit          3D

 22 23  0  0  0  0  0  0  0  0999 V2000
  -24.9510  -31.4273  -14.1088 C   0  0  0  0  0  0  0  0  0  0  0  0
  -25.5904  -30.7531  -15.2805 C   0  0  0  0  0  0  0  0  0  0  0  0
  -26.9537  -30.4627  -15.3011 C   0  0  0  0  0  0  0  0  0  0  0  0
  -27.5566  -30.0043  -16.4668 C   0  0  0  0  0  0  0  0  0  0  0  0
  -26.8027  -29.9003  -17.6447 C   0  0  0  0  0  0  0  0  0  0  0  0
  -27.5064  -29.8868  -18.8807 N   0  0  0  0  0  0  0  0  0  0  0  0
  -28.8538  -29.7073  -18.8499 N   0  0  0  0  0  0  0  0  0  0  0  0
  -29.2640  -29.9142  -20.0985 C   0  0  0  0  0  0  0  0  0  0  0  0
  -30.7039  -30.0664  -20.3817 C   0  0  0  0  0  0  0  0  0  0  0  0
  -28.1866  -30.0837  -20.9781 C   0  0  0  0  0  0  0  0  0  0  0  0
  -27.0850  -30.2319  -20.1653 C   0  0  0  0  0  0  0  0  0  0  0  0
  -25.8686  -30.7389  -20.5500 N   0  0  0  0  0  0  0  0  0  0  0  0
  -25.3469  -31.0712  -21.8937 C   0  0  0  0  0  0  0  0  0  0  0  0
  -25.8107  -30.9105  -22.9302 O   0  0  0  0  0  0  0  0  0  0  0  0
  -23.9242  -31.7411  -21.4315 N   0  0  0  0  0  0  0  0  0  0  0  0
  -22.7576  -32.4846  -22.2403 C   0  0  0  0  0  0  0  0  0  0  0  0
  -22.6209  -32.9178  -23.7339 S   0  0  0  0  0  0  0  0  0  0  0  0
  -21.6899  -32.7766  -21.1451 C   0  0  1  0  0  0  0  0  0  0  0  0
  -20.3397  -32.1480  -21.4647 C   0  0  0  0  0  0  0  0  0  0  0  0
  -22.1248  -32.3304  -19.8521 O   0  0  0  0  0  0  0  0  0  0  0  0
  -25.4156  -29.9967  -17.5754 C   0  0  0  0  0  0  0  0  0  0  0  0
  -24.8167  -30.4479  -16.4015 C   0  0  0  0  0  0  0  0  0  0  0  0
  1  2  1  0
  2  3  2  0
  3  4  1  0
  4  5  2  0
  5  6  1  0
  6  7  1  0
  7  8  2  0
  8  9  1  0
  8 10  1  0
 10 11  2  0
 11 12  1  0
 12 13  1  0
 13 14  2  0
 13 15  1  0
 15 16  1  0
 16 17  2  0
 16 18  1  0
 18 19  1  6
 18 20  1  0
  5 21  1  0
 21 22  2  0
 22  2  1  0
 11  6  1  0
M  END
>  <id>  (573) 
414406

>  <inchikey>  (573) 
HAGOIOPRHWOBPP-LLVKDONJSA-N

>  <alias>  (573) 
None

>  <smiles>  (573) 
Cc1ccc(-n2nc(C)cc2NC(=O)NC(=S)[C@@H](C)O)cc1

>  <path>  (573) 
/opt/xchem-fragalysis-2/maxwin/RdRp_FFF/syndirella/mar_elabs/elabs_062/FGZCUNYQGFTGLS-UHFFFAOYSA-N/output/FGZCUNYQGFTGLS-UHFFFAOYSA-N-4HKAHD-2458-B/FGZCUNYQGFTGLS-UHFFFAOYSA-N-4HKAHD-2458-B.minimised.mol

>  <distance_score>  (573) 
1.649752

>  <energy_score>  (573) 
-27.942341

>  <compound>  (573) 
HAGOIOPRHWOBPP-UHFFFAOYSA-N

>  <compound_id>  (573) 
225383

>  <target>  (573) 
Flavi_NS5_RdRp

>  <tags>  (573) 
[]

>  <inspirations>  (573) 
{P Ã— 2}

>  <subsites>  (573) 
None

>  <reference>  (573) 
z0211a

>  <SLURM_JOB_ID>  (573) 
nan

>  <SLURM_JOB_NAME>  (573) 
nan

>  <csv_name>  (573) 
nan

>  <scratch_subdir>  (573) 
nan

>  <fragmenstein_runtime>  (573) 
nan

>  <fragmenstein_outcome>  (573) 
nan

>  <fragmenstein_mode>  (573) 
nan

>  <fragmenstein_error>  (573) 
nan

>  <exports>  (573) 
nan

>  <Multi-SuCOS>  (573) 
nan

>  <merge_set>  (573) 
nan

$$$$
VBGGSDDYILZJFA-GFCCVEGCSA-N
     RDKit          3D

 23 24  0  0  0  0  0  0  0  0999 V2000
  -28.5162  -30.2513  -14.7435 C   0  0  0  0  0  0  0  0  0  0  0  0
  -27.3563  -30.1861  -15.6713 C   0  0  0  0  0  0  0  0  0  0  0  0
  -26.0884  -30.6517  -15.3335 C   0  0  0  0  0  0  0  0  0  0  0  0
  -25.0858  -30.7335  -16.3067 C   0  0  0  0  0  0  0  0  0  0  0  0
  -23.7594  -31.3378  -15.9427 C   0  0  0  0  0  0  0  0  0  0  0  0
  -25.3747  -30.3785  -17.6360 C   0  0  0  0  0  0  0  0  0  0  0  0
  -26.6586  -29.9570  -17.9811 C   0  0  0  0  0  0  0  0  0  0  0  0
  -27.1731  -29.8933  -19.3070 N   0  0  0  0  0  0  0  0  0  0  0  0
  -28.4491  -29.4378  -19.4349 N   0  0  0  0  0  0  0  0  0  0  0  0
  -28.8373  -29.7888  -20.6500 C   0  0  0  0  0  0  0  0  0  0  0  0
  -30.2730  -29.7475  -20.9709 C   0  0  0  0  0  0  0  0  0  0  0  0
  -27.7524  -30.2225  -21.4187 C   0  0  0  0  0  0  0  0  0  0  0  0
  -26.7004  -30.3580  -20.5331 C   0  0  0  0  0  0  0  0  0  0  0  0
  -25.4735  -30.8940  -20.8195 N   0  0  0  0  0  0  0  0  0  0  0  0
  -24.8892  -31.3283  -22.1093 C   0  0  0  0  0  0  0  0  0  0  0  0
  -25.3041  -31.2449  -23.1813 O   0  0  0  0  0  0  0  0  0  0  0  0
  -23.4950  -31.8936  -21.5567 N   0  0  0  0  0  0  0  0  0  0  0  0
  -22.3467  -32.5784  -22.2376 C   0  0  0  0  0  0  0  0  0  0  0  0
  -22.1263  -32.8187  -23.4268 N   0  0  0  0  0  0  0  0  0  0  0  0
  -21.3865  -33.0419  -21.1215 C   0  0  1  0  0  0  0  0  0  0  0  0
  -19.9522  -32.6764  -21.4465 C   0  0  0  0  0  0  0  0  0  0  0  0
  -21.7629  -32.4938  -19.8552 O   0  0  0  0  0  0  0  0  0  0  0  0
  -27.6038  -29.7595  -16.9645 C   0  0  0  0  0  0  0  0  0  0  0  0
  1  2  1  0
  2  3  2  0
  3  4  1  0
  4  5  1  0
  4  6  2  0
  6  7  1  0
  7  8  1  0
  8  9  1  0
  9 10  2  0
 10 11  1  0
 10 12  1  0
 12 13  2  0
 13 14  1  0
 14 15  1  0
 15 16  2  0
 15 17  1  0
 17 18  1  0
 18 19  2  3
 18 20  1  0
 20 21  1  6
 20 22  1  0
  7 23  2  0
 23  2  1  0
 13  8  1  0
M  END
>  <id>  (574) 
414966

>  <inchikey>  (574) 
VBGGSDDYILZJFA-GFCCVEGCSA-N

>  <alias>  (574) 
None

>  <smiles>  (574) 
Cc1cc(C)cc(-n2nc(C)cc2NC(=O)NC(=N)[C@@H](C)O)c1

>  <path>  (574) 
/opt/xchem-fragalysis-2/maxwin/RdRp_FFF/syndirella/mar_elabs/elabs_062/FGZCUNYQGFTGLS-UHFFFAOYSA-N/output/FGZCUNYQGFTGLS-UHFFFAOYSA-N-4HKAHD-4288-B/FGZCUNYQGFTGLS-UHFFFAOYSA-N-4HKAHD-4288-B.minimised.mol

>  <distance_score>  (574) 
1.427665

>  <energy_score>  (574) 
-15.892344

>  <compound>  (574) 
VBGGSDDYILZJFA-UHFFFAOYSA-N

>  <compound_id>  (574) 
226555

>  <target>  (574) 
Flavi_NS5_RdRp

>  <tags>  (574) 
[]

>  <inspirations>  (574) 
{P Ã— 2}

>  <subsites>  (574) 
None

>  <reference>  (574) 
z0211a

>  <SLURM_JOB_ID>  (574) 
nan

>  <SLURM_JOB_NAME>  (574) 
nan

>  <csv_name>  (574) 
nan

>  <scratch_subdir>  (574) 
nan

>  <fragmenstein_runtime>  (574) 
nan

>  <fragmenstein_outcome>  (574) 
nan

>  <fragmenstein_mode>  (574) 
nan

>  <fragmenstein_error>  (574) 
nan

>  <exports>  (574) 
nan

>  <Multi-SuCOS>  (574) 
nan

>  <merge_set>  (574) 
nan

$$$$
BWDNQWCSJBOUIA-LBPRGKRZSA-N
     RDKit          3D

 21 22  0  0  0  0  0  0  0  0999 V2000
  -20.4311  -31.5039  -20.8627 C   0  0  0  0  0  0  0  0  0  0  0  0
  -20.5873  -32.2959  -22.0293 O   0  0  0  0  0  0  0  0  0  0  0  0
  -21.9352  -32.3591  -22.5116 C   0  0  1  0  0  0  0  0  0  0  0  0
  -21.8571  -32.9529  -23.9124 C   0  0  0  0  0  0  0  0  0  0  0  0
  -22.7979  -33.2389  -21.5852 C   0  0  0  0  0  0  0  0  0  0  0  0
  -23.8097  -32.4660  -20.9039 N   0  0  0  0  0  0  0  0  0  0  0  0
  -25.2954  -32.2134  -21.2691 C   0  0  0  0  0  0  0  0  0  0  0  0
  -25.9288  -32.6434  -22.1119 O   0  0  0  0  0  0  0  0  0  0  0  0
  -25.6739  -31.2156  -20.1365 N   0  0  0  0  0  0  0  0  0  0  0  0
  -26.8394  -30.5270  -19.9129 C   0  0  0  0  0  0  0  0  0  0  0  0
  -27.9219  -30.5085  -20.7666 C   0  0  0  0  0  0  0  0  0  0  0  0
  -28.9774  -29.9790  -20.0177 C   0  0  0  0  0  0  0  0  0  0  0  0
  -30.4154  -30.0243  -20.3084 C   0  0  0  0  0  0  0  0  0  0  0  0
  -28.5532  -29.4693  -18.8685 N   0  0  0  0  0  0  0  0  0  0  0  0
  -27.2678  -29.8889  -18.7497 N   0  0  0  0  0  0  0  0  0  0  0  0
  -26.7163  -29.9080  -17.4461 C   0  0  0  0  0  0  0  0  0  0  0  0
  -27.6350  -29.9265  -16.3809 C   0  0  0  0  0  0  0  0  0  0  0  0
  -27.2137  -30.3323  -15.1309 C   0  0  0  0  0  0  0  0  0  0  0  0
  -25.8720  -30.6307  -14.9141 C   0  0  0  0  0  0  0  0  0  0  0  0
  -24.9374  -30.4728  -15.9331 C   0  0  0  0  0  0  0  0  0  0  0  0
  -25.3568  -30.1032  -17.2067 C   0  0  0  0  0  0  0  0  0  0  0  0
  1  2  1  0
  2  3  1  0
  3  4  1  6
  3  5  1  0
  5  6  1  0
  6  7  1  0
  7  8  2  0
  7  9  1  0
  9 10  1  0
 10 11  2  0
 11 12  1  0
 12 13  1  0
 12 14  2  0
 14 15  1  0
 15 16  1  0
 16 17  2  0
 17 18  1  0
 18 19  2  0
 19 20  1  0
 20 21  2  0
 15 10  1  0
 21 16  1  0
M  END
>  <id>  (575) 
414983

>  <inchikey>  (575) 
BWDNQWCSJBOUIA-LBPRGKRZSA-N

>  <alias>  (575) 
None

>  <smiles>  (575) 
CO[C@@H](C)CNC(=O)Nc1cc(C)nn1-c1ccccc1

>  <path>  (575) 
/opt/xchem-fragalysis-2/maxwin/RdRp_FFF/syndirella/mar_elabs/elabs_062/FGZCUNYQGFTGLS-UHFFFAOYSA-N/output/FGZCUNYQGFTGLS-UHFFFAOYSA-N-SnPu3r-25-B/FGZCUNYQGFTGLS-UHFFFAOYSA-N-SnPu3r-25-B.minimised.mol

>  <distance_score>  (575) 
1.192715

>  <energy_score>  (575) 
-5.252478

>  <compound>  (575) 
BWDNQWCSJBOUIA-UHFFFAOYSA-N

>  <compound_id>  (575) 
225216

>  <target>  (575) 
Flavi_NS5_RdRp

>  <tags>  (575) 
[]

>  <inspirations>  (575) 
{P Ã— 2}

>  <subsites>  (575) 
None

>  <reference>  (575) 
z0211a

>  <SLURM_JOB_ID>  (575) 
nan

>  <SLURM_JOB_NAME>  (575) 
nan

>  <csv_name>  (575) 
nan

>  <scratch_subdir>  (575) 
nan

>  <fragmenstein_runtime>  (575) 
nan

>  <fragmenstein_outcome>  (575) 
nan

>  <fragmenstein_mode>  (575) 
nan

>  <fragmenstein_error>  (575) 
nan

>  <exports>  (575) 
nan

>  <Multi-SuCOS>  (575) 
nan

>  <merge_set>  (575) 
nan

$$$$
MNNULVKDUQGIAC-ZDUSSCGKSA-N
     RDKit          3D

 22 23  0  0  0  0  0  0  0  0999 V2000
  -26.0916  -31.6465  -14.0959 C   0  0  0  0  0  0  0  0  0  0  0  0
  -26.4587  -30.7207  -15.2035 C   0  0  0  0  0  0  0  0  0  0  0  0
  -25.4554  -30.3650  -16.1084 C   0  0  0  0  0  0  0  0  0  0  0  0
  -25.7908  -29.8310  -17.3378 C   0  0  0  0  0  0  0  0  0  0  0  0
  -27.1342  -29.6864  -17.6521 C   0  0  0  0  0  0  0  0  0  0  0  0
  -27.5762  -29.6820  -18.9926 N   0  0  0  0  0  0  0  0  0  0  0  0
  -28.8668  -29.3419  -19.2070 N   0  0  0  0  0  0  0  0  0  0  0  0
  -29.1561  -29.8035  -20.4138 C   0  0  0  0  0  0  0  0  0  0  0  0
  -30.5602  -29.8608  -20.8408 C   0  0  0  0  0  0  0  0  0  0  0  0
  -28.0169  -30.2856  -21.0687 C   0  0  0  0  0  0  0  0  0  0  0  0
  -27.0103  -30.2702  -20.1267 C   0  0  0  0  0  0  0  0  0  0  0  0
  -25.7746  -30.8580  -20.2830 N   0  0  0  0  0  0  0  0  0  0  0  0
  -25.2820  -31.9088  -21.3245 C   0  0  0  0  0  0  0  0  0  0  0  0
  -25.8164  -32.3587  -22.2245 O   0  0  0  0  0  0  0  0  0  0  0  0
  -23.8335  -32.1275  -20.8050 N   0  0  0  0  0  0  0  0  0  0  0  0
  -22.7395  -32.8851  -21.3725 C   0  0  0  0  0  0  0  0  0  0  0  0
  -22.1683  -32.2128  -22.6301 C   0  0  1  0  0  0  0  0  0  0  0  0
  -21.2432  -31.2083  -22.1999 O   0  0  0  0  0  0  0  0  0  0  0  0
  -21.4120  -33.2106  -23.4958 C   0  0  0  0  0  0  0  0  0  0  0  0
  -21.0939  -32.6373  -24.6941 F   0  0  0  0  0  0  0  0  0  0  0  0
  -28.1181  -29.7815  -16.6480 C   0  0  0  0  0  0  0  0  0  0  0  0
  -27.7761  -30.3142  -15.4159 C   0  0  0  0  0  0  0  0  0  0  0  0
  1  2  1  0
  2  3  2  0
  3  4  1  0
  4  5  2  0
  5  6  1  0
  6  7  1  0
  7  8  2  0
  8  9  1  0
  8 10  1  0
 10 11  2  0
 11 12  1  0
 12 13  1  0
 13 14  2  0
 13 15  1  0
 15 16  1  0
 16 17  1  0
 17 18  1  1
 17 19  1  0
 19 20  1  0
  5 21  1  0
 21 22  2  0
 22  2  1  0
 11  6  1  0
M  END
>  <id>  (576) 
415093

>  <inchikey>  (576) 
MNNULVKDUQGIAC-ZDUSSCGKSA-N

>  <alias>  (576) 
None

>  <smiles>  (576) 
Cc1ccc(-n2nc(C)cc2NC(=O)NC[C@@H](O)CF)cc1

>  <path>  (576) 
/opt/xchem-fragalysis-2/maxwin/RdRp_FFF/syndirella/mar_elabs/elabs_062/FGZCUNYQGFTGLS-UHFFFAOYSA-N/output/FGZCUNYQGFTGLS-UHFFFAOYSA-N-SnPu3r-383-B/FGZCUNYQGFTGLS-UHFFFAOYSA-N-SnPu3r-383-B.minimised.mol

>  <distance_score>  (576) 
1.238278

>  <energy_score>  (576) 
-14.65207

>  <compound>  (576) 
MNNULVKDUQGIAC-UHFFFAOYSA-N

>  <compound_id>  (576) 
225399

>  <target>  (576) 
Flavi_NS5_RdRp

>  <tags>  (576) 
[]

>  <inspirations>  (576) 
{P Ã— 2}

>  <subsites>  (576) 
None

>  <reference>  (576) 
z0211a

>  <SLURM_JOB_ID>  (576) 
nan

>  <SLURM_JOB_NAME>  (576) 
nan

>  <csv_name>  (576) 
nan

>  <scratch_subdir>  (576) 
nan

>  <fragmenstein_runtime>  (576) 
nan

>  <fragmenstein_outcome>  (576) 
nan

>  <fragmenstein_mode>  (576) 
nan

>  <fragmenstein_error>  (576) 
nan

>  <exports>  (576) 
nan

>  <Multi-SuCOS>  (576) 
nan

>  <merge_set>  (576) 
nan

$$$$
BXMLTODMBOVMFI-ZDUSSCGKSA-N
     RDKit          3D

 22 23  0  0  0  0  0  0  0  0999 V2000
  -21.2337  -33.5600  -26.0310 C   0  0  0  0  0  0  0  0  0  0  0  0
  -21.3724  -32.6309  -24.9702 O   0  0  0  0  0  0  0  0  0  0  0  0
  -21.2563  -33.2469  -23.6827 C   0  0  0  0  0  0  0  0  0  0  0  0
  -21.9792  -32.4211  -22.6129 C   0  0  1  0  0  0  0  0  0  0  0  0
  -21.2333  -31.2345  -22.3368 O   0  0  0  0  0  0  0  0  0  0  0  0
  -23.4049  -32.1272  -23.0756 C   0  0  0  0  0  0  0  0  0  0  0  0
  -24.2621  -31.5405  -22.0815 N   0  0  0  0  0  0  0  0  0  0  0  0
  -25.6069  -30.7858  -22.2357 C   0  0  0  0  0  0  0  0  0  0  0  0
  -26.1677  -30.4678  -23.1733 O   0  0  0  0  0  0  0  0  0  0  0  0
  -26.0075  -30.6664  -20.7359 N   0  0  0  0  0  0  0  0  0  0  0  0
  -27.1719  -30.2328  -20.1627 C   0  0  0  0  0  0  0  0  0  0  0  0
  -28.3315  -30.0248  -20.8794 C   0  0  0  0  0  0  0  0  0  0  0  0
  -29.3425  -29.9764  -19.9213 C   0  0  0  0  0  0  0  0  0  0  0  0
  -30.7897  -30.1249  -20.0988 C   0  0  0  0  0  0  0  0  0  0  0  0
  -28.8483  -29.8714  -18.6964 N   0  0  0  0  0  0  0  0  0  0  0  0
  -27.5030  -30.0120  -18.8315 N   0  0  0  0  0  0  0  0  0  0  0  0
  -26.7443  -30.0301  -17.6362 C   0  0  0  0  0  0  0  0  0  0  0  0
  -27.4651  -29.9969  -16.4270 C   0  0  0  0  0  0  0  0  0  0  0  0
  -26.8276  -30.2832  -15.2364 C   0  0  0  0  0  0  0  0  0  0  0  0
  -25.4645  -30.5402  -15.2214 C   0  0  0  0  0  0  0  0  0  0  0  0
  -24.7283  -30.4733  -16.4009 C   0  0  0  0  0  0  0  0  0  0  0  0
  -25.3610  -30.1975  -17.6124 C   0  0  0  0  0  0  0  0  0  0  0  0
  1  2  1  0
  2  3  1  0
  3  4  1  0
  4  5  1  6
  4  6  1  0
  6  7  1  0
  7  8  1  0
  8  9  2  0
  8 10  1  0
 10 11  1  0
 11 12  2  0
 12 13  1  0
 13 14  1  0
 13 15  2  0
 15 16  1  0
 16 17  1  0
 17 18  2  0
 18 19  1  0
 19 20  2  0
 20 21  1  0
 21 22  2  0
 16 11  1  0
 22 17  1  0
M  END
>  <id>  (577) 
415114

>  <inchikey>  (577) 
BXMLTODMBOVMFI-ZDUSSCGKSA-N

>  <alias>  (577) 
None

>  <smiles>  (577) 
COC[C@@H](O)CNC(=O)Nc1cc(C)nn1-c1ccccc1

>  <path>  (577) 
/opt/xchem-fragalysis-2/maxwin/RdRp_FFF/syndirella/mar_elabs/elabs_062/FGZCUNYQGFTGLS-UHFFFAOYSA-N/output/FGZCUNYQGFTGLS-UHFFFAOYSA-N-SnPu3r-487-B/FGZCUNYQGFTGLS-UHFFFAOYSA-N-SnPu3r-487-B.minimised.mol

>  <distance_score>  (577) 
1.145749

>  <energy_score>  (577) 
-22.047196

>  <compound>  (577) 
BXMLTODMBOVMFI-UHFFFAOYSA-N

>  <compound_id>  (577) 
225882

>  <target>  (577) 
Flavi_NS5_RdRp

>  <tags>  (577) 
[]

>  <inspirations>  (577) 
{P Ã— 2}

>  <subsites>  (577) 
None

>  <reference>  (577) 
z0211a

>  <SLURM_JOB_ID>  (577) 
nan

>  <SLURM_JOB_NAME>  (577) 
nan

>  <csv_name>  (577) 
nan

>  <scratch_subdir>  (577) 
nan

>  <fragmenstein_runtime>  (577) 
nan

>  <fragmenstein_outcome>  (577) 
nan

>  <fragmenstein_mode>  (577) 
nan

>  <fragmenstein_error>  (577) 
nan

>  <exports>  (577) 
nan

>  <Multi-SuCOS>  (577) 
nan

>  <merge_set>  (577) 
nan

$$$$
NOFCNZNLBUGVBF-TZMCWYRMSA-N
     RDKit          3D

 22 23  0  0  0  0  0  0  0  0999 V2000
  -21.8031  -34.4818  -21.5177 C   0  0  0  0  0  0  0  0  0  0  0  0
  -21.3162  -33.5122  -22.5872 C   0  0  0  0  0  0  0  0  0  0  0  0
  -21.9793  -32.1433  -22.4816 C   0  0  1  0  0  0  0  0  0  0  0  0
  -21.0946  -31.2147  -23.1135 O   0  0  0  0  0  0  0  0  0  0  0  0
  -23.4027  -31.9939  -23.0775 C   0  0  1  0  0  0  0  0  0  0  0  0
  -24.0051  -33.2015  -23.7917 C   0  0  0  0  0  0  0  0  0  0  0  0
  -24.3298  -31.5029  -22.0754 N   0  0  0  0  0  0  0  0  0  0  0  0
  -25.6895  -30.7816  -22.2362 C   0  0  0  0  0  0  0  0  0  0  0  0
  -26.2201  -30.4136  -23.1731 O   0  0  0  0  0  0  0  0  0  0  0  0
  -26.1125  -30.6926  -20.7418 N   0  0  0  0  0  0  0  0  0  0  0  0
  -27.2676  -30.2326  -20.1764 C   0  0  0  0  0  0  0  0  0  0  0  0
  -28.4185  -29.9821  -20.8894 C   0  0  0  0  0  0  0  0  0  0  0  0
  -29.4278  -29.9665  -19.9275 C   0  0  0  0  0  0  0  0  0  0  0  0
  -30.8727  -30.1211  -20.1082 C   0  0  0  0  0  0  0  0  0  0  0  0
  -28.9349  -29.8982  -18.6986 N   0  0  0  0  0  0  0  0  0  0  0  0
  -27.5900  -30.0187  -18.8428 N   0  0  0  0  0  0  0  0  0  0  0  0
  -26.8157  -30.0222  -17.6576 C   0  0  0  0  0  0  0  0  0  0  0  0
  -27.5185  -29.9955  -16.4382 C   0  0  0  0  0  0  0  0  0  0  0  0
  -26.8566  -30.2636  -15.2563 C   0  0  0  0  0  0  0  0  0  0  0  0
  -25.4890  -30.4984  -15.2623 C   0  0  0  0  0  0  0  0  0  0  0  0
  -24.7726  -30.4248  -16.4538 C   0  0  0  0  0  0  0  0  0  0  0  0
  -25.4286  -30.1631  -17.6555 C   0  0  0  0  0  0  0  0  0  0  0  0
  1  2  1  0
  2  3  1  0
  3  4  1  6
  3  5  1  0
  5  6  1  1
  5  7  1  0
  7  8  1  0
  8  9  2  0
  8 10  1  0
 10 11  1  0
 11 12  2  0
 12 13  1  0
 13 14  1  0
 13 15  2  0
 15 16  1  0
 16 17  1  0
 17 18  2  0
 18 19  1  0
 19 20  2  0
 20 21  1  0
 21 22  2  0
 16 11  1  0
 22 17  1  0
M  END
>  <id>  (578) 
415137

>  <inchikey>  (578) 
NOFCNZNLBUGVBF-TZMCWYRMSA-N

>  <alias>  (578) 
None

>  <smiles>  (578) 
CC[C@@H](O)[C@@H](C)NC(=O)Nc1cc(C)nn1-c1ccccc1

>  <path>  (578) 
/opt/xchem-fragalysis-2/maxwin/RdRp_FFF/syndirella/mar_elabs/elabs_062/FGZCUNYQGFTGLS-UHFFFAOYSA-N/output/FGZCUNYQGFTGLS-UHFFFAOYSA-N-SnPu3r-524-D/FGZCUNYQGFTGLS-UHFFFAOYSA-N-SnPu3r-524-D.minimised.mol

>  <distance_score>  (578) 
1.218807

>  <energy_score>  (578) 
-12.604601

>  <compound>  (578) 
NOFCNZNLBUGVBF-UHFFFAOYSA-N

>  <compound_id>  (578) 
227044

>  <target>  (578) 
Flavi_NS5_RdRp

>  <tags>  (578) 
[]

>  <inspirations>  (578) 
{P Ã— 2}

>  <subsites>  (578) 
None

>  <reference>  (578) 
z0211a

>  <SLURM_JOB_ID>  (578) 
nan

>  <SLURM_JOB_NAME>  (578) 
nan

>  <csv_name>  (578) 
nan

>  <scratch_subdir>  (578) 
nan

>  <fragmenstein_runtime>  (578) 
nan

>  <fragmenstein_outcome>  (578) 
nan

>  <fragmenstein_mode>  (578) 
nan

>  <fragmenstein_error>  (578) 
nan

>  <exports>  (578) 
nan

>  <Multi-SuCOS>  (578) 
nan

>  <merge_set>  (578) 
nan

$$$$
RSKPGIKZSCZVIB-UHFFFAOYSA-N
     RDKit          3D

 22 23  0  0  0  0  0  0  0  0999 V2000
  -21.0508  -32.9658  -24.7043 C   0  0  0  0  0  0  0  0  0  0  0  0
  -21.4739  -33.4890  -23.4544 O   0  0  0  0  0  0  0  0  0  0  0  0
  -22.2002  -32.5773  -22.6011 C   0  0  0  0  0  0  0  0  0  0  0  0
  -21.1932  -31.6565  -21.8999 C   0  0  0  0  0  0  0  0  0  0  0  0
  -23.2383  -31.7730  -23.3944 C   0  0  0  0  0  0  0  0  0  0  0  0
  -22.9130  -33.4410  -21.5171 C   0  0  0  0  0  0  0  0  0  0  0  0
  -23.9183  -32.6944  -20.7956 N   0  0  0  0  0  0  0  0  0  0  0  0
  -25.4304  -32.4943  -21.0944 C   0  0  0  0  0  0  0  0  0  0  0  0
  -26.0879  -32.9542  -21.9039 O   0  0  0  0  0  0  0  0  0  0  0  0
  -25.7586  -31.4062  -20.0308 N   0  0  0  0  0  0  0  0  0  0  0  0
  -26.8918  -30.6556  -19.8500 C   0  0  0  0  0  0  0  0  0  0  0  0
  -27.9716  -30.6296  -20.7046 C   0  0  0  0  0  0  0  0  0  0  0  0
  -29.0016  -30.0196  -19.9822 C   0  0  0  0  0  0  0  0  0  0  0  0
  -30.4410  -30.0302  -20.2697 C   0  0  0  0  0  0  0  0  0  0  0  0
  -28.5528  -29.4693  -18.8606 N   0  0  0  0  0  0  0  0  0  0  0  0
  -27.2835  -29.9307  -18.7274 N   0  0  0  0  0  0  0  0  0  0  0  0
  -26.7231  -29.9268  -17.4296 C   0  0  0  0  0  0  0  0  0  0  0  0
  -25.3618  -30.1275  -17.2010 C   0  0  0  0  0  0  0  0  0  0  0  0
  -24.9356  -30.4913  -15.9288 C   0  0  0  0  0  0  0  0  0  0  0  0
  -25.8663  -30.6390  -14.9043 C   0  0  0  0  0  0  0  0  0  0  0  0
  -27.2082  -30.3335  -15.1145 C   0  0  0  0  0  0  0  0  0  0  0  0
  -27.6362  -29.9299  -16.3618 C   0  0  0  0  0  0  0  0  0  0  0  0
  1  2  1  0
  2  3  1  0
  3  4  1  0
  3  5  1  0
  3  6  1  0
  6  7  1  0
  7  8  1  0
  8  9  2  0
  8 10  1  0
 10 11  1  0
 11 12  2  0
 12 13  1  0
 13 14  1  0
 13 15  2  0
 15 16  1  0
 16 17  1  0
 17 18  2  0
 18 19  1  0
 19 20  2  0
 20 21  1  0
 21 22  2  0
 16 11  1  0
 22 17  1  0
M  END
>  <id>  (579) 
415142

>  <inchikey>  (579) 
RSKPGIKZSCZVIB-UHFFFAOYSA-N

>  <alias>  (579) 
None

>  <smiles>  (579) 
COC(C)(C)CNC(=O)Nc1cc(C)nn1-c1ccccc1

>  <path>  (579) 
/opt/xchem-fragalysis-2/maxwin/RdRp_FFF/syndirella/mar_elabs/elabs_062/FGZCUNYQGFTGLS-UHFFFAOYSA-N/output/FGZCUNYQGFTGLS-UHFFFAOYSA-N-SnPu3r-550-A/FGZCUNYQGFTGLS-UHFFFAOYSA-N-SnPu3r-550-A.minimised.mol

>  <distance_score>  (579) 
1.20472

>  <energy_score>  (579) 
-20.000532

>  <compound>  (579) 
RSKPGIKZSCZVIB-UHFFFAOYSA-N

>  <compound_id>  (579) 
225881

>  <target>  (579) 
Flavi_NS5_RdRp

>  <tags>  (579) 
[]

>  <inspirations>  (579) 
{P Ã— 2}

>  <subsites>  (579) 
None

>  <reference>  (579) 
z0211a

>  <SLURM_JOB_ID>  (579) 
nan

>  <SLURM_JOB_NAME>  (579) 
nan

>  <csv_name>  (579) 
nan

>  <scratch_subdir>  (579) 
nan

>  <fragmenstein_runtime>  (579) 
nan

>  <fragmenstein_outcome>  (579) 
nan

>  <fragmenstein_mode>  (579) 
nan

>  <fragmenstein_error>  (579) 
nan

>  <exports>  (579) 
nan

>  <Multi-SuCOS>  (579) 
nan

>  <merge_set>  (579) 
nan

$$$$
LQLWRMXRAZDJGA-VIFPVBQESA-N
     RDKit          3D

 18 19  0  0  0  0  0  0  0  0999 V2000
  -30.2813  -30.2029  -18.7314 C   0  0  0  0  0  0  0  0  0  0  0  0
  -28.8297  -30.1213  -18.9228 C   0  0  0  0  0  0  0  0  0  0  0  0
  -28.0797  -30.3459  -20.0541 C   0  0  0  0  0  0  0  0  0  0  0  0
  -26.7453  -30.3414  -19.6077 C   0  0  0  0  0  0  0  0  0  0  0  0
  -25.6750  -30.6861  -20.3516 N   0  0  0  0  0  0  0  0  0  0  0  0
  -25.5731  -31.0468  -21.8484 C   0  0  0  0  0  0  0  0  0  0  0  0
  -26.3628  -31.0272  -22.6618 O   0  0  0  0  0  0  0  0  0  0  0  0
  -24.1016  -31.5038  -21.9000 N   0  0  0  0  0  0  0  0  0  0  0  0
  -23.3021  -31.9392  -23.0093 C   0  0  0  0  0  0  0  0  0  0  0  0
  -21.9933  -32.5760  -22.5555 C   0  0  2  0  0  0  0  0  0  0  0  0
  -21.3552  -31.7195  -21.5968 O   0  0  0  0  0  0  0  0  0  0  0  0
  -21.0443  -32.7701  -23.7331 C   0  0  0  0  0  0  0  0  0  0  0  0
  -20.6802  -31.5091  -24.2961 O   0  0  0  0  0  0  0  0  0  0  0  0
  -26.6409  -29.9974  -18.3316 N   0  0  0  0  0  0  0  0  0  0  0  0
  -27.9170  -29.8912  -17.9304 N   0  0  0  0  0  0  0  0  0  0  0  0
  -28.2043  -29.5137  -16.5324 C   0  0  0  0  0  0  0  0  0  0  0  0
  -28.8427  -30.3153  -15.4438 C   0  0  0  0  0  0  0  0  0  0  0  0
  -27.3591  -30.1556  -15.4424 C   0  0  0  0  0  0  0  0  0  0  0  0
  1  2  1  0
  2  3  2  0
  3  4  1  0
  4  5  1  0
  5  6  1  0
  6  7  2  0
  6  8  1  0
  8  9  1  0
  9 10  1  0
 10 11  1  1
 10 12  1  0
 12 13  1  0
  4 14  2  0
 14 15  1  0
 15 16  1  0
 16 17  1  0
 17 18  1  0
 15  2  1  0
 18 16  1  0
M  END
>  <id>  (580) 
415982

>  <inchikey>  (580) 
LQLWRMXRAZDJGA-VIFPVBQESA-N

>  <alias>  (580) 
None

>  <smiles>  (580) 
Cc1cc(NC(=O)NC[C@H](O)CO)nn1C1CC1

>  <path>  (580) 
/opt/xchem-fragalysis-2/maxwin/RdRp_FFF/syndirella/mar_elabs/elabs_059/GZPXXQDQKSPFSB-UHFFFAOYSA-N/output/GZPXXQDQKSPFSB-UHFFFAOYSA-N-TaAYU4-34-A/GZPXXQDQKSPFSB-UHFFFAOYSA-N-TaAYU4-34-A.minimised.mol

>  <distance_score>  (580) 
0.973896

>  <energy_score>  (580) 
-15.99164

>  <compound>  (580) 
LQLWRMXRAZDJGA-UHFFFAOYSA-N

>  <compound_id>  (580) 
228675

>  <target>  (580) 
Flavi_NS5_RdRp

>  <tags>  (580) 
[]

>  <inspirations>  (580) 
{P Ã— 2}

>  <subsites>  (580) 
None

>  <reference>  (580) 
z0211a

>  <SLURM_JOB_ID>  (580) 
nan

>  <SLURM_JOB_NAME>  (580) 
nan

>  <csv_name>  (580) 
nan

>  <scratch_subdir>  (580) 
nan

>  <fragmenstein_runtime>  (580) 
nan

>  <fragmenstein_outcome>  (580) 
nan

>  <fragmenstein_mode>  (580) 
nan

>  <fragmenstein_error>  (580) 
nan

>  <exports>  (580) 
nan

>  <Multi-SuCOS>  (580) 
nan

>  <merge_set>  (580) 
nan

$$$$
ATHNMCDKHJXFNB-SNVBAGLBSA-N
     RDKit          3D

 18 19  0  0  0  0  0  0  0  0999 V2000
  -20.2958  -33.1637  -23.1068 C   0  0  0  0  0  0  0  0  0  0  0  0
  -21.5874  -32.7410  -23.7626 C   0  0  0  0  0  0  0  0  0  0  0  0
  -22.5475  -32.3531  -22.6646 C   0  0  1  0  0  0  0  0  0  0  0  0
  -21.9259  -31.3596  -21.8384 O   0  0  0  0  0  0  0  0  0  0  0  0
  -23.8790  -31.8317  -23.1769 C   0  0  0  0  0  0  0  0  0  0  0  0
  -24.5506  -31.2542  -22.0544 N   0  0  0  0  0  0  0  0  0  0  0  0
  -25.9871  -30.7448  -21.9121 C   0  0  0  0  0  0  0  0  0  0  0  0
  -26.8086  -30.6454  -22.6853 O   0  0  0  0  0  0  0  0  0  0  0  0
  -26.0108  -30.4819  -20.3984 N   0  0  0  0  0  0  0  0  0  0  0  0
  -27.0273  -30.1540  -19.5910 C   0  0  0  0  0  0  0  0  0  0  0  0
  -28.3787  -30.1430  -19.9562 C   0  0  0  0  0  0  0  0  0  0  0  0
  -29.0405  -30.0168  -18.7604 C   0  0  0  0  0  0  0  0  0  0  0  0
  -30.4584  -30.1823  -18.4647 C   0  0  0  0  0  0  0  0  0  0  0  0
  -28.0713  -29.8085  -17.8223 N   0  0  0  0  0  0  0  0  0  0  0  0
  -28.2736  -29.4914  -16.3994 C   0  0  0  0  0  0  0  0  0  0  0  0
  -27.3536  -30.1553  -15.3877 C   0  0  0  0  0  0  0  0  0  0  0  0
  -28.8314  -30.3540  -15.3163 C   0  0  0  0  0  0  0  0  0  0  0  0
  -26.8294  -29.8806  -18.3103 N   0  0  0  0  0  0  0  0  0  0  0  0
  1  2  1  0
  2  3  1  0
  3  4  1  6
  3  5  1  0
  5  6  1  0
  6  7  1  0
  7  8  2  0
  7  9  1  0
  9 10  1  0
 10 11  1  0
 11 12  2  0
 12 13  1  0
 12 14  1  0
 14 15  1  0
 15 16  1  0
 16 17  1  0
 14 18  1  0
 18 10  2  0
 17 15  1  0
M  END
>  <id>  (581) 
415986

>  <inchikey>  (581) 
ATHNMCDKHJXFNB-SNVBAGLBSA-N

>  <alias>  (581) 
None

>  <smiles>  (581) 
CC[C@@H](O)CNC(=O)Nc1cc(C)n(C2CC2)n1

>  <path>  (581) 
/opt/xchem-fragalysis-2/maxwin/RdRp_FFF/syndirella/mar_elabs/elabs_059/GZPXXQDQKSPFSB-UHFFFAOYSA-N/output/GZPXXQDQKSPFSB-UHFFFAOYSA-N-TaAYU4-36-B/GZPXXQDQKSPFSB-UHFFFAOYSA-N-TaAYU4-36-B.minimised.mol

>  <distance_score>  (581) 
1.01469

>  <energy_score>  (581) 
-33.105533

>  <compound>  (581) 
ATHNMCDKHJXFNB-UHFFFAOYSA-N

>  <compound_id>  (581) 
228677

>  <target>  (581) 
Flavi_NS5_RdRp

>  <tags>  (581) 
[]

>  <inspirations>  (581) 
{P Ã— 2}

>  <subsites>  (581) 
None

>  <reference>  (581) 
z0211a

>  <SLURM_JOB_ID>  (581) 
nan

>  <SLURM_JOB_NAME>  (581) 
nan

>  <csv_name>  (581) 
nan

>  <scratch_subdir>  (581) 
nan

>  <fragmenstein_runtime>  (581) 
nan

>  <fragmenstein_outcome>  (581) 
nan

>  <fragmenstein_mode>  (581) 
nan

>  <fragmenstein_error>  (581) 
nan

>  <exports>  (581) 
nan

>  <Multi-SuCOS>  (581) 
nan

>  <merge_set>  (581) 
nan

$$$$
SQYQPBCLBZKHSW-ZETCQYMHSA-N
     RDKit          3D

 18 19  0  0  0  0  0  0  0  0999 V2000
  -29.8385  -30.2947  -19.6943 C   0  0  0  0  0  0  0  0  0  0  0  0
  -28.3731  -30.3678  -19.5297 C   0  0  0  0  0  0  0  0  0  0  0  0
  -27.4277  -30.7826  -20.4445 C   0  0  0  0  0  0  0  0  0  0  0  0
  -26.1916  -30.6880  -19.7828 C   0  0  0  0  0  0  0  0  0  0  0  0
  -24.9877  -31.0781  -20.2655 N   0  0  0  0  0  0  0  0  0  0  0  0
  -24.6399  -31.8268  -21.4865 C   0  0  0  0  0  0  0  0  0  0  0  0
  -25.3172  -32.3199  -22.2748 O   0  0  0  0  0  0  0  0  0  0  0  0
  -23.0139  -31.6997  -21.3875 N   0  0  0  0  0  0  0  0  0  0  0  0
  -21.8348  -32.1068  -22.3820 C   0  0  0  0  0  0  0  0  0  0  0  0
  -21.8226  -32.8637  -23.7496 S   0  0  0  0  0  0  0  0  0  0  0  0
  -20.5241  -31.6582  -21.6764 C   0  0  2  0  0  0  0  0  0  0  0  0
  -19.8904  -32.8325  -20.9390 C   0  0  0  0  0  0  0  0  0  0  0  0
  -20.6724  -30.5764  -20.7672 O   0  0  0  0  0  0  0  0  0  0  0  0
  -26.3200  -30.1458  -18.5764 N   0  0  0  0  0  0  0  0  0  0  0  0
  -27.6548  -30.0906  -18.3895 N   0  0  0  0  0  0  0  0  0  0  0  0
  -28.1447  -30.0137  -16.9879 C   0  0  0  0  0  0  0  0  0  0  0  0
  -29.0228  -28.9284  -16.4790 C   0  0  0  0  0  0  0  0  0  0  0  0
  -29.5482  -30.3128  -16.4981 C   0  0  0  0  0  0  0  0  0  0  0  0
  1  2  1  0
  2  3  2  0
  3  4  1  0
  4  5  1  0
  5  6  1  0
  6  7  2  0
  6  8  1  0
  8  9  1  0
  9 10  2  0
  9 11  1  0
 11 12  1  1
 11 13  1  0
  4 14  2  0
 14 15  1  0
 15 16  1  0
 16 17  1  0
 17 18  1  0
 15  2  1  0
 18 16  1  0
M  END
>  <id>  (582) 
415987

>  <inchikey>  (582) 
SQYQPBCLBZKHSW-ZETCQYMHSA-N

>  <alias>  (582) 
None

>  <smiles>  (582) 
Cc1cc(NC(=O)NC(=S)[C@H](C)O)nn1C1CC1

>  <path>  (582) 
/opt/xchem-fragalysis-2/maxwin/RdRp_FFF/syndirella/mar_elabs/elabs_059/GZPXXQDQKSPFSB-UHFFFAOYSA-N/output/GZPXXQDQKSPFSB-UHFFFAOYSA-N-TaAYU4-37-A/GZPXXQDQKSPFSB-UHFFFAOYSA-N-TaAYU4-37-A.minimised.mol

>  <distance_score>  (582) 
1.678923

>  <energy_score>  (582) 
-18.452583

>  <compound>  (582) 
SQYQPBCLBZKHSW-UHFFFAOYSA-N

>  <compound_id>  (582) 
228678

>  <target>  (582) 
Flavi_NS5_RdRp

>  <tags>  (582) 
[]

>  <inspirations>  (582) 
{P Ã— 2}

>  <subsites>  (582) 
None

>  <reference>  (582) 
z0211a

>  <SLURM_JOB_ID>  (582) 
nan

>  <SLURM_JOB_NAME>  (582) 
nan

>  <csv_name>  (582) 
nan

>  <scratch_subdir>  (582) 
nan

>  <fragmenstein_runtime>  (582) 
nan

>  <fragmenstein_outcome>  (582) 
nan

>  <fragmenstein_mode>  (582) 
nan

>  <fragmenstein_error>  (582) 
nan

>  <exports>  (582) 
nan

>  <Multi-SuCOS>  (582) 
nan

>  <merge_set>  (582) 
nan

$$$$
VMBVFRDVSTUJJY-SSDOTTSWSA-N
     RDKit          3D

 18 19  0  0  0  0  0  0  0  0999 V2000
  -30.3779  -30.1188  -20.2611 C   0  0  0  0  0  0  0  0  0  0  0  0
  -28.9190  -30.1676  -20.0447 C   0  0  0  0  0  0  0  0  0  0  0  0
  -27.8813  -30.3310  -20.9370 C   0  0  0  0  0  0  0  0  0  0  0  0
  -26.7394  -30.5226  -20.1359 C   0  0  0  0  0  0  0  0  0  0  0  0
  -25.5110  -30.9154  -20.5440 N   0  0  0  0  0  0  0  0  0  0  0  0
  -24.9881  -31.1829  -21.8951 C   0  0  0  0  0  0  0  0  0  0  0  0
  -25.4833  -31.0458  -22.9267 O   0  0  0  0  0  0  0  0  0  0  0  0
  -23.5515  -31.7642  -21.4809 N   0  0  0  0  0  0  0  0  0  0  0  0
  -22.4535  -32.4008  -22.2840 C   0  0  0  0  0  0  0  0  0  0  0  0
  -22.3229  -32.5741  -23.4982 N   0  0  0  0  0  0  0  0  0  0  0  0
  -21.4313  -32.9546  -21.2698 C   0  0  1  0  0  0  0  0  0  0  0  0
  -20.0121  -32.6286  -21.6808 C   0  0  0  0  0  0  0  0  0  0  0  0
  -21.6870  -32.4727  -19.9510 O   0  0  0  0  0  0  0  0  0  0  0  0
  -26.9984  -30.3388  -18.8457 N   0  0  0  0  0  0  0  0  0  0  0  0
  -28.3260  -30.1585  -18.8126 N   0  0  0  0  0  0  0  0  0  0  0  0
  -29.0687  -30.1768  -17.5356 C   0  0  0  0  0  0  0  0  0  0  0  0
  -29.3060  -28.9717  -16.7091 C   0  0  0  0  0  0  0  0  0  0  0  0
  -28.3678  -30.0087  -16.1968 C   0  0  0  0  0  0  0  0  0  0  0  0
  1  2  1  0
  2  3  2  0
  3  4  1  0
  4  5  1  0
  5  6  1  0
  6  7  2  0
  6  8  1  0
  8  9  1  0
  9 10  2  3
  9 11  1  0
 11 12  1  6
 11 13  1  0
  4 14  2  0
 14 15  1  0
 15 16  1  0
 16 17  1  0
 17 18  1  0
 15  2  1  0
 18 16  1  0
M  END
>  <id>  (583) 
415990

>  <inchikey>  (583) 
VMBVFRDVSTUJJY-SSDOTTSWSA-N

>  <alias>  (583) 
None

>  <smiles>  (583) 
Cc1cc(NC(=O)NC(=N)[C@@H](C)O)nn1C1CC1

>  <path>  (583) 
/opt/xchem-fragalysis-2/maxwin/RdRp_FFF/syndirella/mar_elabs/elabs_059/GZPXXQDQKSPFSB-UHFFFAOYSA-N/output/GZPXXQDQKSPFSB-UHFFFAOYSA-N-TaAYU4-39-B/GZPXXQDQKSPFSB-UHFFFAOYSA-N-TaAYU4-39-B.minimised.mol

>  <distance_score>  (583) 
1.693802

>  <energy_score>  (583) 
-24.272093

>  <compound>  (583) 
VMBVFRDVSTUJJY-UHFFFAOYSA-N

>  <compound_id>  (583) 
228680

>  <target>  (583) 
Flavi_NS5_RdRp

>  <tags>  (583) 
[]

>  <inspirations>  (583) 
{P Ã— 2}

>  <subsites>  (583) 
None

>  <reference>  (583) 
z0211a

>  <SLURM_JOB_ID>  (583) 
nan

>  <SLURM_JOB_NAME>  (583) 
nan

>  <csv_name>  (583) 
nan

>  <scratch_subdir>  (583) 
nan

>  <fragmenstein_runtime>  (583) 
nan

>  <fragmenstein_outcome>  (583) 
nan

>  <fragmenstein_mode>  (583) 
nan

>  <fragmenstein_error>  (583) 
nan

>  <exports>  (583) 
nan

>  <Multi-SuCOS>  (583) 
nan

>  <merge_set>  (583) 
nan

$$$$
UIGMCVRVGZPVKH-SECBINFHSA-N
     RDKit          3D

 18 19  0  0  0  0  0  0  0  0999 V2000
  -20.7867  -31.2979  -21.4974 C   0  0  0  0  0  0  0  0  0  0  0  0
  -21.3066  -32.5973  -21.6891 O   0  0  0  0  0  0  0  0  0  0  0  0
  -22.0264  -32.8470  -22.9003 C   0  0  2  0  0  0  0  0  0  0  0  0
  -21.0758  -32.9046  -24.0895 C   0  0  0  0  0  0  0  0  0  0  0  0
  -23.1801  -31.8934  -23.1942 C   0  0  0  0  0  0  0  0  0  0  0  0
  -24.0019  -31.5821  -22.0621 N   0  0  0  0  0  0  0  0  0  0  0  0
  -25.4495  -31.0423  -21.9939 C   0  0  0  0  0  0  0  0  0  0  0  0
  -26.1996  -30.8474  -22.8242 O   0  0  0  0  0  0  0  0  0  0  0  0
  -25.5795  -30.8488  -20.4646 N   0  0  0  0  0  0  0  0  0  0  0  0
  -26.6437  -30.4846  -19.7164 C   0  0  0  0  0  0  0  0  0  0  0  0
  -27.9710  -30.3872  -20.1762 C   0  0  0  0  0  0  0  0  0  0  0  0
  -28.7223  -30.1658  -19.0438 C   0  0  0  0  0  0  0  0  0  0  0  0
  -30.1811  -30.1786  -18.8651 C   0  0  0  0  0  0  0  0  0  0  0  0
  -27.8075  -30.0068  -18.0370 N   0  0  0  0  0  0  0  0  0  0  0  0
  -28.0906  -29.5627  -16.6580 C   0  0  0  0  0  0  0  0  0  0  0  0
  -27.3995  -30.2214  -15.4838 C   0  0  0  0  0  0  0  0  0  0  0  0
  -28.8897  -30.2658  -15.6043 C   0  0  0  0  0  0  0  0  0  0  0  0
  -26.5377  -30.2064  -18.4228 N   0  0  0  0  0  0  0  0  0  0  0  0
  1  2  1  0
  2  3  1  0
  3  4  1  6
  3  5  1  0
  5  6  1  0
  6  7  1  0
  7  8  2  0
  7  9  1  0
  9 10  1  0
 10 11  1  0
 11 12  2  0
 12 13  1  0
 12 14  1  0
 14 15  1  0
 15 16  1  0
 16 17  1  0
 14 18  1  0
 18 10  2  0
 17 15  1  0
M  END
>  <id>  (584) 
415991

>  <inchikey>  (584) 
UIGMCVRVGZPVKH-SECBINFHSA-N

>  <alias>  (584) 
None

>  <smiles>  (584) 
CO[C@H](C)CNC(=O)Nc1cc(C)n(C2CC2)n1

>  <path>  (584) 
/opt/xchem-fragalysis-2/maxwin/RdRp_FFF/syndirella/mar_elabs/elabs_059/GZPXXQDQKSPFSB-UHFFFAOYSA-N/output/GZPXXQDQKSPFSB-UHFFFAOYSA-N-TaAYU4-40-A/GZPXXQDQKSPFSB-UHFFFAOYSA-N-TaAYU4-40-A.minimised.mol

>  <distance_score>  (584) 
0.981207

>  <energy_score>  (584) 
-22.346102

>  <compound>  (584) 
UIGMCVRVGZPVKH-UHFFFAOYSA-N

>  <compound_id>  (584) 
228681

>  <target>  (584) 
Flavi_NS5_RdRp

>  <tags>  (584) 
[]

>  <inspirations>  (584) 
{P Ã— 2}

>  <subsites>  (584) 
None

>  <reference>  (584) 
z0211a

>  <SLURM_JOB_ID>  (584) 
nan

>  <SLURM_JOB_NAME>  (584) 
nan

>  <csv_name>  (584) 
nan

>  <scratch_subdir>  (584) 
nan

>  <fragmenstein_runtime>  (584) 
nan

>  <fragmenstein_outcome>  (584) 
nan

>  <fragmenstein_mode>  (584) 
nan

>  <fragmenstein_error>  (584) 
nan

>  <exports>  (584) 
nan

>  <Multi-SuCOS>  (584) 
nan

>  <merge_set>  (584) 
nan

$$$$
HDLWIBAPTZPBOO-SECBINFHSA-N
     RDKit          3D

 18 19  0  0  0  0  0  0  0  0999 V2000
  -30.5164  -30.1828  -19.8208 C   0  0  0  0  0  0  0  0  0  0  0  0
  -29.0467  -30.1696  -19.7944 C   0  0  0  0  0  0  0  0  0  0  0  0
  -28.1316  -30.2145  -20.8177 C   0  0  0  0  0  0  0  0  0  0  0  0
  -26.8946  -30.4448  -20.1872 C   0  0  0  0  0  0  0  0  0  0  0  0
  -25.7521  -30.7741  -20.8287 N   0  0  0  0  0  0  0  0  0  0  0  0
  -25.4482  -30.8821  -22.3443 C   0  0  0  0  0  0  0  0  0  0  0  0
  -26.0988  -30.6350  -23.2428 O   0  0  0  0  0  0  0  0  0  0  0  0
  -24.0422  -31.5187  -22.2752 N   0  0  0  0  0  0  0  0  0  0  0  0
  -23.1359  -31.8839  -23.3243 C   0  0  0  0  0  0  0  0  0  0  0  0
  -21.9524  -32.6984  -22.8272 C   0  0  2  0  0  0  0  0  0  0  0  0
  -21.3431  -32.0492  -21.7067 O   0  0  0  0  0  0  0  0  0  0  0  0
  -20.9488  -32.8497  -23.9561 C   0  0  0  0  0  0  0  0  0  0  0  0
  -21.4838  -33.5773  -24.9719 F   0  0  0  0  0  0  0  0  0  0  0  0
  -26.9837  -30.3739  -18.8635 N   0  0  0  0  0  0  0  0  0  0  0  0
  -28.2973  -30.1992  -18.6526 N   0  0  0  0  0  0  0  0  0  0  0  0
  -28.8729  -30.2017  -17.2943 C   0  0  0  0  0  0  0  0  0  0  0  0
  -29.0745  -28.9641  -16.5223 C   0  0  0  0  0  0  0  0  0  0  0  0
  -28.0370  -29.9373  -16.0604 C   0  0  0  0  0  0  0  0  0  0  0  0
  1  2  1  0
  2  3  2  0
  3  4  1  0
  4  5  1  0
  5  6  1  0
  6  7  2  0
  6  8  1  0
  8  9  1  0
  9 10  1  0
 10 11  1  1
 10 12  1  0
 12 13  1  0
  4 14  2  0
 14 15  1  0
 15 16  1  0
 16 17  1  0
 17 18  1  0
 15  2  1  0
 18 16  1  0
M  END
>  <id>  (585) 
415997

>  <inchikey>  (585) 
HDLWIBAPTZPBOO-SECBINFHSA-N

>  <alias>  (585) 
None

>  <smiles>  (585) 
Cc1cc(NC(=O)NC[C@H](O)CF)nn1C1CC1

>  <path>  (585) 
/opt/xchem-fragalysis-2/maxwin/RdRp_FFF/syndirella/mar_elabs/elabs_059/GZPXXQDQKSPFSB-UHFFFAOYSA-N/output/GZPXXQDQKSPFSB-UHFFFAOYSA-N-TaAYU4-43-A/GZPXXQDQKSPFSB-UHFFFAOYSA-N-TaAYU4-43-A.minimised.mol

>  <distance_score>  (585) 
1.301871

>  <energy_score>  (585) 
-23.958332

>  <compound>  (585) 
HDLWIBAPTZPBOO-UHFFFAOYSA-N

>  <compound_id>  (585) 
228684

>  <target>  (585) 
Flavi_NS5_RdRp

>  <tags>  (585) 
[]

>  <inspirations>  (585) 
{P Ã— 2}

>  <subsites>  (585) 
None

>  <reference>  (585) 
z0211a

>  <SLURM_JOB_ID>  (585) 
nan

>  <SLURM_JOB_NAME>  (585) 
nan

>  <csv_name>  (585) 
nan

>  <scratch_subdir>  (585) 
nan

>  <fragmenstein_runtime>  (585) 
nan

>  <fragmenstein_outcome>  (585) 
nan

>  <fragmenstein_mode>  (585) 
nan

>  <fragmenstein_error>  (585) 
nan

>  <exports>  (585) 
nan

>  <Multi-SuCOS>  (585) 
nan

>  <merge_set>  (585) 
nan

$$$$
VQSDJDCPHGUAGF-NSHDSACASA-N
     RDKit          3D

 19 20  0  0  0  0  0  0  0  0999 V2000
  -22.1026  -34.0890  -26.2465 C   0  0  0  0  0  0  0  0  0  0  0  0
  -22.4875  -33.7384  -24.8157 C   0  0  0  0  0  0  0  0  0  0  0  0
  -21.4024  -32.9185  -24.1137 C   0  0  0  0  0  0  0  0  0  0  0  0
  -21.9512  -32.0829  -22.9603 C   0  0  2  0  0  0  0  0  0  0  0  0
  -20.9341  -31.1413  -22.5890 O   0  0  0  0  0  0  0  0  0  0  0  0
  -22.3464  -32.8774  -21.7082 C   0  0  0  0  0  0  0  0  0  0  0  0
  -23.3427  -32.1422  -20.9611 N   0  0  0  0  0  0  0  0  0  0  0  0
  -24.8513  -31.9101  -21.2541 C   0  0  0  0  0  0  0  0  0  0  0  0
  -25.4789  -32.2054  -22.1577 O   0  0  0  0  0  0  0  0  0  0  0  0
  -25.2439  -31.1180  -19.9746 N   0  0  0  0  0  0  0  0  0  0  0  0
  -26.4512  -30.6541  -19.5648 C   0  0  0  0  0  0  0  0  0  0  0  0
  -27.6480  -30.7283  -20.3077 C   0  0  0  0  0  0  0  0  0  0  0  0
  -28.6326  -30.2549  -19.4696 C   0  0  0  0  0  0  0  0  0  0  0  0
  -30.0878  -30.1595  -19.6912 C   0  0  0  0  0  0  0  0  0  0  0  0
  -27.9737  -29.9237  -18.3135 N   0  0  0  0  0  0  0  0  0  0  0  0
  -28.6117  -29.3895  -17.0951 C   0  0  0  0  0  0  0  0  0  0  0  0
  -29.7681  -30.0631  -16.4077 C   0  0  0  0  0  0  0  0  0  0  0  0
  -28.4414  -29.9891  -15.7193 C   0  0  0  0  0  0  0  0  0  0  0  0
  -26.6390  -30.0752  -18.3806 N   0  0  0  0  0  0  0  0  0  0  0  0
  1  2  1  0
  2  3  1  0
  3  4  1  0
  4  5  1  1
  4  6  1  0
  6  7  1  0
  7  8  1  0
  8  9  2  0
  8 10  1  0
 10 11  1  0
 11 12  1  0
 12 13  2  0
 13 14  1  0
 13 15  1  0
 15 16  1  0
 16 17  1  0
 17 18  1  0
 15 19  1  0
 19 11  2  0
 18 16  1  0
M  END
>  <id>  (586) 
416054

>  <inchikey>  (586) 
VQSDJDCPHGUAGF-NSHDSACASA-N

>  <alias>  (586) 
None

>  <smiles>  (586) 
CCC[C@H](O)CNC(=O)Nc1cc(C)n(C2CC2)n1

>  <path>  (586) 
/opt/xchem-fragalysis-2/maxwin/RdRp_FFF/syndirella/mar_elabs/elabs_059/GZPXXQDQKSPFSB-UHFFFAOYSA-N/output/GZPXXQDQKSPFSB-UHFFFAOYSA-N-TaAYU4-125-A/GZPXXQDQKSPFSB-UHFFFAOYSA-N-TaAYU4-125-A.minimised.mol

>  <distance_score>  (586) 
1.227487

>  <energy_score>  (586) 
-31.205693

>  <compound>  (586) 
VQSDJDCPHGUAGF-UHFFFAOYSA-N

>  <compound_id>  (586) 
228743

>  <target>  (586) 
Flavi_NS5_RdRp

>  <tags>  (586) 
[]

>  <inspirations>  (586) 
{P Ã— 2}

>  <subsites>  (586) 
None

>  <reference>  (586) 
z0211a

>  <SLURM_JOB_ID>  (586) 
nan

>  <SLURM_JOB_NAME>  (586) 
nan

>  <csv_name>  (586) 
nan

>  <scratch_subdir>  (586) 
nan

>  <fragmenstein_runtime>  (586) 
nan

>  <fragmenstein_outcome>  (586) 
nan

>  <fragmenstein_mode>  (586) 
nan

>  <fragmenstein_error>  (586) 
nan

>  <exports>  (586) 
nan

>  <Multi-SuCOS>  (586) 
nan

>  <merge_set>  (586) 
nan

$$$$
VWQATEIKUIUKSR-SNVBAGLBSA-N
     RDKit          3D

 19 20  0  0  0  0  0  0  0  0999 V2000
  -21.8654  -34.4281  -20.1475 C   0  0  0  0  0  0  0  0  0  0  0  0
  -22.1767  -33.3928  -21.0710 O   0  0  0  0  0  0  0  0  0  0  0  0
  -21.4846  -33.5537  -22.3172 C   0  0  0  0  0  0  0  0  0  0  0  0
  -21.7492  -32.3532  -23.2240 C   0  0  2  0  0  0  0  0  0  0  0  0
  -21.0996  -31.2028  -22.6706 O   0  0  0  0  0  0  0  0  0  0  0  0
  -23.2410  -32.1168  -23.4748 C   0  0  0  0  0  0  0  0  0  0  0  0
  -23.9986  -31.7305  -22.3171 N   0  0  0  0  0  0  0  0  0  0  0  0
  -25.3787  -31.0288  -22.2078 C   0  0  0  0  0  0  0  0  0  0  0  0
  -26.1210  -30.7373  -23.0194 O   0  0  0  0  0  0  0  0  0  0  0  0
  -25.4947  -30.9343  -20.6627 N   0  0  0  0  0  0  0  0  0  0  0  0
  -26.5397  -30.5658  -19.8823 C   0  0  0  0  0  0  0  0  0  0  0  0
  -27.8711  -30.4070  -20.3203 C   0  0  0  0  0  0  0  0  0  0  0  0
  -28.6060  -30.2024  -19.1728 C   0  0  0  0  0  0  0  0  0  0  0  0
  -30.0638  -30.1582  -18.9740 C   0  0  0  0  0  0  0  0  0  0  0  0
  -27.6749  -30.1070  -18.1712 N   0  0  0  0  0  0  0  0  0  0  0  0
  -27.9224  -29.5979  -16.8067 C   0  0  0  0  0  0  0  0  0  0  0  0
  -28.7861  -30.1887  -15.7328 C   0  0  0  0  0  0  0  0  0  0  0  0
  -27.2957  -30.2362  -15.5889 C   0  0  0  0  0  0  0  0  0  0  0  0
  -26.4188  -30.3552  -18.5760 N   0  0  0  0  0  0  0  0  0  0  0  0
  1  2  1  0
  2  3  1  0
  3  4  1  0
  4  5  1  1
  4  6  1  0
  6  7  1  0
  7  8  1  0
  8  9  2  0
  8 10  1  0
 10 11  1  0
 11 12  1  0
 12 13  2  0
 13 14  1  0
 13 15  1  0
 15 16  1  0
 16 17  1  0
 17 18  1  0
 15 19  1  0
 19 11  2  0
 18 16  1  0
M  END
>  <id>  (587) 
416056

>  <inchikey>  (587) 
VWQATEIKUIUKSR-SNVBAGLBSA-N

>  <alias>  (587) 
None

>  <smiles>  (587) 
COC[C@H](O)CNC(=O)Nc1cc(C)n(C2CC2)n1

>  <path>  (587) 
/opt/xchem-fragalysis-2/maxwin/RdRp_FFF/syndirella/mar_elabs/elabs_059/GZPXXQDQKSPFSB-UHFFFAOYSA-N/output/GZPXXQDQKSPFSB-UHFFFAOYSA-N-TaAYU4-127-A/GZPXXQDQKSPFSB-UHFFFAOYSA-N-TaAYU4-127-A.minimised.mol

>  <distance_score>  (587) 
1.06034

>  <energy_score>  (587) 
-12.422118

>  <compound>  (587) 
VWQATEIKUIUKSR-UHFFFAOYSA-N

>  <compound_id>  (587) 
228745

>  <target>  (587) 
Flavi_NS5_RdRp

>  <tags>  (587) 
[]

>  <inspirations>  (587) 
{P Ã— 2}

>  <subsites>  (587) 
None

>  <reference>  (587) 
z0211a

>  <SLURM_JOB_ID>  (587) 
nan

>  <SLURM_JOB_NAME>  (587) 
nan

>  <csv_name>  (587) 
nan

>  <scratch_subdir>  (587) 
nan

>  <fragmenstein_runtime>  (587) 
nan

>  <fragmenstein_outcome>  (587) 
nan

>  <fragmenstein_mode>  (587) 
nan

>  <fragmenstein_error>  (587) 
nan

>  <exports>  (587) 
nan

>  <Multi-SuCOS>  (587) 
nan

>  <merge_set>  (587) 
nan

$$$$
OFFHWAKEGHSHPD-UHFFFAOYSA-N
     RDKit          3D

 19 20  0  0  0  0  0  0  0  0999 V2000
  -21.6286  -33.5043  -25.1649 C   0  0  0  0  0  0  0  0  0  0  0  0
  -21.0091  -33.0013  -23.9907 O   0  0  0  0  0  0  0  0  0  0  0  0
  -21.8732  -32.7388  -22.8632 C   0  0  0  0  0  0  0  0  0  0  0  0
  -21.0051  -31.9549  -21.8683 C   0  0  0  0  0  0  0  0  0  0  0  0
  -22.2886  -34.0682  -22.2147 C   0  0  0  0  0  0  0  0  0  0  0  0
  -23.1000  -31.9118  -23.2712 C   0  0  0  0  0  0  0  0  0  0  0  0
  -24.0035  -31.5352  -22.2229 N   0  0  0  0  0  0  0  0  0  0  0  0
  -25.4053  -30.8878  -22.2946 C   0  0  0  0  0  0  0  0  0  0  0  0
  -26.0540  -30.6393  -23.1941 O   0  0  0  0  0  0  0  0  0  0  0  0
  -25.7085  -30.7712  -20.7790 N   0  0  0  0  0  0  0  0  0  0  0  0
  -26.8485  -30.4306  -20.1390 C   0  0  0  0  0  0  0  0  0  0  0  0
  -28.0837  -30.2091  -20.7764 C   0  0  0  0  0  0  0  0  0  0  0  0
  -29.0005  -30.1532  -19.7562 C   0  0  0  0  0  0  0  0  0  0  0  0
  -30.4713  -30.1725  -19.7919 C   0  0  0  0  0  0  0  0  0  0  0  0
  -28.2534  -30.1650  -18.6107 N   0  0  0  0  0  0  0  0  0  0  0  0
  -28.8436  -30.1884  -17.2616 C   0  0  0  0  0  0  0  0  0  0  0  0
  -29.1597  -28.9533  -16.5226 C   0  0  0  0  0  0  0  0  0  0  0  0
  -28.0877  -29.8607  -16.0006 C   0  0  0  0  0  0  0  0  0  0  0  0
  -26.9394  -30.3454  -18.8157 N   0  0  0  0  0  0  0  0  0  0  0  0
  1  2  1  0
  2  3  1  0
  3  4  1  0
  3  5  1  0
  3  6  1  0
  6  7  1  0
  7  8  1  0
  8  9  2  0
  8 10  1  0
 10 11  1  0
 11 12  1  0
 12 13  2  0
 13 14  1  0
 13 15  1  0
 15 16  1  0
 16 17  1  0
 17 18  1  0
 15 19  1  0
 19 11  2  0
 18 16  1  0
M  END
>  <id>  (588) 
416058

>  <inchikey>  (588) 
OFFHWAKEGHSHPD-UHFFFAOYSA-N

>  <alias>  (588) 
None

>  <smiles>  (588) 
COC(C)(C)CNC(=O)Nc1cc(C)n(C2CC2)n1

>  <path>  (588) 
/opt/xchem-fragalysis-2/maxwin/RdRp_FFF/syndirella/mar_elabs/elabs_059/GZPXXQDQKSPFSB-UHFFFAOYSA-N/output/GZPXXQDQKSPFSB-UHFFFAOYSA-N-TaAYU4-128-A/GZPXXQDQKSPFSB-UHFFFAOYSA-N-TaAYU4-128-A.minimised.mol

>  <distance_score>  (588) 
0.97507

>  <energy_score>  (588) 
-27.007394

>  <compound>  (588) 
OFFHWAKEGHSHPD-UHFFFAOYSA-N

>  <compound_id>  (588) 
228746

>  <target>  (588) 
Flavi_NS5_RdRp

>  <tags>  (588) 
[]

>  <inspirations>  (588) 
{P Ã— 2}

>  <subsites>  (588) 
None

>  <reference>  (588) 
z0211a

>  <SLURM_JOB_ID>  (588) 
nan

>  <SLURM_JOB_NAME>  (588) 
nan

>  <csv_name>  (588) 
nan

>  <scratch_subdir>  (588) 
nan

>  <fragmenstein_runtime>  (588) 
nan

>  <fragmenstein_outcome>  (588) 
nan

>  <fragmenstein_mode>  (588) 
nan

>  <fragmenstein_error>  (588) 
nan

>  <exports>  (588) 
nan

>  <Multi-SuCOS>  (588) 
nan

>  <merge_set>  (588) 
nan

$$$$
QAQYLVTUANVLME-MRVPVSSYSA-N
     RDKit          3D

 19 20  0  0  0  0  0  0  0  0999 V2000
  -21.4901  -34.1181  -19.9038 C   0  0  0  0  0  0  0  0  0  0  0  0
  -22.1325  -33.1709  -20.7478 O   0  0  0  0  0  0  0  0  0  0  0  0
  -21.7784  -33.3012  -22.1307 C   0  0  2  0  0  0  0  0  0  0  0  0
  -20.4227  -32.6819  -22.4089 C   0  0  0  0  0  0  0  0  0  0  0  0
  -22.8356  -32.5790  -22.9961 C   0  0  0  0  0  0  0  0  0  0  0  0
  -22.8198  -32.6721  -24.2275 N   0  0  0  0  0  0  0  0  0  0  0  0
  -23.7888  -31.8926  -22.0619 N   0  0  0  0  0  0  0  0  0  0  0  0
  -25.1789  -31.1309  -22.3121 C   0  0  0  0  0  0  0  0  0  0  0  0
  -25.7329  -30.8630  -23.2864 O   0  0  0  0  0  0  0  0  0  0  0  0
  -25.5885  -30.9601  -20.9032 N   0  0  0  0  0  0  0  0  0  0  0  0
  -26.7572  -30.5283  -20.3698 C   0  0  0  0  0  0  0  0  0  0  0  0
  -27.9366  -30.2385  -21.0846 C   0  0  0  0  0  0  0  0  0  0  0  0
  -28.9197  -30.1357  -20.1259 C   0  0  0  0  0  0  0  0  0  0  0  0
  -30.3889  -30.0830  -20.2546 C   0  0  0  0  0  0  0  0  0  0  0  0
  -28.2530  -30.1900  -18.9337 N   0  0  0  0  0  0  0  0  0  0  0  0
  -28.9200  -30.1628  -17.6137 C   0  0  0  0  0  0  0  0  0  0  0  0
  -28.1436  -29.9317  -16.3298 C   0  0  0  0  0  0  0  0  0  0  0  0
  -29.1174  -28.9194  -16.8301 C   0  0  0  0  0  0  0  0  0  0  0  0
  -26.9402  -30.4452  -19.0552 N   0  0  0  0  0  0  0  0  0  0  0  0
  1  2  1  0
  2  3  1  0
  3  4  1  1
  3  5  1  0
  5  6  2  3
  5  7  1  0
  7  8  1  0
  8  9  2  0
  8 10  1  0
 10 11  1  0
 11 12  1  0
 12 13  2  0
 13 14  1  0
 13 15  1  0
 15 16  1  0
 16 17  1  0
 17 18  1  0
 15 19  1  0
 19 11  2  0
 18 16  1  0
M  END
>  <id>  (589) 
416062

>  <inchikey>  (589) 
QAQYLVTUANVLME-MRVPVSSYSA-N

>  <alias>  (589) 
None

>  <smiles>  (589) 
CO[C@H](C)C(=N)NC(=O)Nc1cc(C)n(C2CC2)n1

>  <path>  (589) 
/opt/xchem-fragalysis-2/maxwin/RdRp_FFF/syndirella/mar_elabs/elabs_059/GZPXXQDQKSPFSB-UHFFFAOYSA-N/output/GZPXXQDQKSPFSB-UHFFFAOYSA-N-TaAYU4-133-A/GZPXXQDQKSPFSB-UHFFFAOYSA-N-TaAYU4-133-A.minimised.mol

>  <distance_score>  (589) 
1.472645

>  <energy_score>  (589) 
-12.593269

>  <compound>  (589) 
QAQYLVTUANVLME-UHFFFAOYSA-N

>  <compound_id>  (589) 
228751

>  <target>  (589) 
Flavi_NS5_RdRp

>  <tags>  (589) 
[]

>  <inspirations>  (589) 
{P Ã— 2}

>  <subsites>  (589) 
None

>  <reference>  (589) 
z0211a

>  <SLURM_JOB_ID>  (589) 
nan

>  <SLURM_JOB_NAME>  (589) 
nan

>  <csv_name>  (589) 
nan

>  <scratch_subdir>  (589) 
nan

>  <fragmenstein_runtime>  (589) 
nan

>  <fragmenstein_outcome>  (589) 
nan

>  <fragmenstein_mode>  (589) 
nan

>  <fragmenstein_error>  (589) 
nan

>  <exports>  (589) 
nan

>  <Multi-SuCOS>  (589) 
nan

>  <merge_set>  (589) 
nan

$$$$
CTFUPASKIPZJPW-PSASIEDQSA-N
     RDKit          3D

 19 20  0  0  0  0  0  0  0  0999 V2000
  -30.4857  -30.1748  -19.7726 C   0  0  0  0  0  0  0  0  0  0  0  0
  -29.0153  -30.1440  -19.7458 C   0  0  0  0  0  0  0  0  0  0  0  0
  -28.1051  -30.1852  -20.7720 C   0  0  0  0  0  0  0  0  0  0  0  0
  -26.8673  -30.4209  -20.1443 C   0  0  0  0  0  0  0  0  0  0  0  0
  -25.7392  -30.7733  -20.7985 N   0  0  0  0  0  0  0  0  0  0  0  0
  -25.4517  -30.8775  -22.3170 C   0  0  0  0  0  0  0  0  0  0  0  0
  -26.1040  -30.6080  -23.2074 O   0  0  0  0  0  0  0  0  0  0  0  0
  -24.0615  -31.5489  -22.2655 N   0  0  0  0  0  0  0  0  0  0  0  0
  -23.1642  -31.9328  -23.3371 C   0  0  2  0  0  0  0  0  0  0  0  0
  -23.9115  -32.7207  -24.4262 C   0  0  0  0  0  0  0  0  0  0  0  0
  -24.4321  -33.9458  -23.9063 O   0  0  0  0  0  0  0  0  0  0  0  0
  -21.9644  -32.6982  -22.7599 C   0  0  1  0  0  0  0  0  0  0  0  0
  -20.8788  -32.9013  -23.7992 C   0  0  0  0  0  0  0  0  0  0  0  0
  -21.4077  -31.9546  -21.6666 O   0  0  0  0  0  0  0  0  0  0  0  0
  -26.9487  -30.3454  -18.8200 N   0  0  0  0  0  0  0  0  0  0  0  0
  -28.2608  -30.1646  -18.6055 N   0  0  0  0  0  0  0  0  0  0  0  0
  -28.8424  -30.1896  -17.2531 C   0  0  0  0  0  0  0  0  0  0  0  0
  -28.0815  -29.8583  -15.9965 C   0  0  0  0  0  0  0  0  0  0  0  0
  -29.1582  -28.9540  -16.5149 C   0  0  0  0  0  0  0  0  0  0  0  0
  1  2  1  0
  2  3  2  0
  3  4  1  0
  4  5  1  0
  5  6  1  0
  6  7  2  0
  6  8  1  0
  8  9  1  0
  9 10  1  6
 10 11  1  0
  9 12  1  0
 12 13  1  6
 12 14  1  0
  4 15  2  0
 15 16  1  0
 16 17  1  0
 17 18  1  0
 18 19  1  0
 16  2  1  0
 19 17  1  0
M  END
>  <id>  (590) 
416072

>  <inchikey>  (590) 
CTFUPASKIPZJPW-PSASIEDQSA-N

>  <alias>  (590) 
None

>  <smiles>  (590) 
Cc1cc(NC(=O)N[C@H](CO)[C@@H](C)O)nn1C1CC1

>  <path>  (590) 
/opt/xchem-fragalysis-2/maxwin/RdRp_FFF/syndirella/mar_elabs/elabs_059/GZPXXQDQKSPFSB-UHFFFAOYSA-N/output/GZPXXQDQKSPFSB-UHFFFAOYSA-N-TaAYU4-136-C/GZPXXQDQKSPFSB-UHFFFAOYSA-N-TaAYU4-136-C.minimised.mol

>  <distance_score>  (590) 
0.96933

>  <energy_score>  (590) 
-17.131198

>  <compound>  (590) 
CTFUPASKIPZJPW-UHFFFAOYSA-N

>  <compound_id>  (590) 
228754

>  <target>  (590) 
Flavi_NS5_RdRp

>  <tags>  (590) 
[]

>  <inspirations>  (590) 
{P Ã— 2}

>  <subsites>  (590) 
None

>  <reference>  (590) 
z0211a

>  <SLURM_JOB_ID>  (590) 
nan

>  <SLURM_JOB_NAME>  (590) 
nan

>  <csv_name>  (590) 
nan

>  <scratch_subdir>  (590) 
nan

>  <fragmenstein_runtime>  (590) 
nan

>  <fragmenstein_outcome>  (590) 
nan

>  <fragmenstein_mode>  (590) 
nan

>  <fragmenstein_error>  (590) 
nan

>  <exports>  (590) 
nan

>  <Multi-SuCOS>  (590) 
nan

>  <merge_set>  (590) 
nan

$$$$
BPJJLYSPQHLBOX-QMMMGPOBSA-N
     RDKit          3D

 19 20  0  0  0  0  0  0  0  0999 V2000
  -30.3147  -30.1749  -18.6392 C   0  0  0  0  0  0  0  0  0  0  0  0
  -28.8740  -30.0691  -18.8833 C   0  0  0  0  0  0  0  0  0  0  0  0
  -28.1688  -30.1966  -20.0563 C   0  0  0  0  0  0  0  0  0  0  0  0
  -26.8238  -30.2792  -19.6523 C   0  0  0  0  0  0  0  0  0  0  0  0
  -25.7986  -30.6161  -20.4598 N   0  0  0  0  0  0  0  0  0  0  0  0
  -25.7653  -30.8609  -21.9842 C   0  0  0  0  0  0  0  0  0  0  0  0
  -26.5799  -30.7369  -22.7641 O   0  0  0  0  0  0  0  0  0  0  0  0
  -24.3241  -31.3962  -22.1243 N   0  0  0  0  0  0  0  0  0  0  0  0
  -23.6508  -31.9713  -23.2567 C   0  0  0  0  0  0  0  0  0  0  0  0
  -22.2583  -32.4757  -22.9170 C   0  0  2  0  0  0  0  0  0  0  0  0
  -21.5288  -31.4768  -22.2074 O   0  0  0  0  0  0  0  0  0  0  0  0
  -21.5800  -32.9492  -24.1990 C   0  0  0  0  0  0  0  0  0  0  0  0
  -22.1013  -33.2545  -25.2613 O   0  0  0  0  0  0  0  0  0  0  0  0
  -20.2502  -33.0898  -24.0509 O   0  0  0  0  0  0  0  0  0  0  0  0
  -26.6683  -30.0611  -18.3540 N   0  0  0  0  0  0  0  0  0  0  0  0
  -27.9259  -29.9128  -17.9107 N   0  0  0  0  0  0  0  0  0  0  0  0
  -28.1655  -29.5324  -16.5053 C   0  0  0  0  0  0  0  0  0  0  0  0
  -27.3051  -30.1765  -15.4317 C   0  0  0  0  0  0  0  0  0  0  0  0
  -28.7913  -30.3222  -15.4017 C   0  0  0  0  0  0  0  0  0  0  0  0
  1  2  1  0
  2  3  2  0
  3  4  1  0
  4  5  1  0
  5  6  1  0
  6  7  2  0
  6  8  1  0
  8  9  1  0
  9 10  1  0
 10 11  1  6
 10 12  1  0
 12 13  2  0
 12 14  1  0
  4 15  2  0
 15 16  1  0
 16 17  1  0
 17 18  1  0
 18 19  1  0
 16  2  1  0
 19 17  1  0
M  END
>  <id>  (591) 
416085

>  <inchikey>  (591) 
BPJJLYSPQHLBOX-QMMMGPOBSA-N

>  <alias>  (591) 
None

>  <smiles>  (591) 
Cc1cc(NC(=O)NC[C@H](O)C(=O)O)nn1C1CC1

>  <path>  (591) 
/opt/xchem-fragalysis-2/maxwin/RdRp_FFF/syndirella/mar_elabs/elabs_059/GZPXXQDQKSPFSB-UHFFFAOYSA-N/output/GZPXXQDQKSPFSB-UHFFFAOYSA-N-TaAYU4-148-A/GZPXXQDQKSPFSB-UHFFFAOYSA-N-TaAYU4-148-A.minimised.mol

>  <distance_score>  (591) 
0.959466

>  <energy_score>  (591) 
-30.408905

>  <compound>  (591) 
BPJJLYSPQHLBOX-UHFFFAOYSA-N

>  <compound_id>  (591) 
228766

>  <target>  (591) 
Flavi_NS5_RdRp

>  <tags>  (591) 
[]

>  <inspirations>  (591) 
{P Ã— 2}

>  <subsites>  (591) 
None

>  <reference>  (591) 
z0211a

>  <SLURM_JOB_ID>  (591) 
nan

>  <SLURM_JOB_NAME>  (591) 
nan

>  <csv_name>  (591) 
nan

>  <scratch_subdir>  (591) 
nan

>  <fragmenstein_runtime>  (591) 
nan

>  <fragmenstein_outcome>  (591) 
nan

>  <fragmenstein_mode>  (591) 
nan

>  <fragmenstein_error>  (591) 
nan

>  <exports>  (591) 
nan

>  <Multi-SuCOS>  (591) 
nan

>  <merge_set>  (591) 
nan

$$$$
AVTRDRXBENEDCV-KOLCDFICSA-N
     RDKit          3D

 19 20  0  0  0  0  0  0  0  0999 V2000
  -24.4879  -32.0999  -24.3688 C   0  0  0  0  0  0  0  0  0  0  0  0
  -24.0891  -33.4381  -23.7771 C   0  0  0  0  0  0  0  0  0  0  0  0
  -23.3129  -33.3370  -22.4501 C   0  0  2  0  0  0  0  0  0  0  0  0
  -24.0650  -32.5960  -21.4605 N   0  0  0  0  0  0  0  0  0  0  0  0
  -25.5949  -32.5059  -21.2221 C   0  0  0  0  0  0  0  0  0  0  0  0
  -26.4519  -33.0620  -21.7260 O   0  0  0  0  0  0  0  0  0  0  0  0
  -25.6207  -31.3866  -20.1492 N   0  0  0  0  0  0  0  0  0  0  0  0
  -26.6626  -30.7227  -19.6030 C   0  0  0  0  0  0  0  0  0  0  0  0
  -27.9843  -30.7554  -20.0838 C   0  0  0  0  0  0  0  0  0  0  0  0
  -28.7479  -30.2396  -19.0613 C   0  0  0  0  0  0  0  0  0  0  0  0
  -30.2094  -30.2086  -18.9180 C   0  0  0  0  0  0  0  0  0  0  0  0
  -27.8433  -29.8912  -18.0940 N   0  0  0  0  0  0  0  0  0  0  0  0
  -28.1531  -29.4733  -16.7122 C   0  0  0  0  0  0  0  0  0  0  0  0
  -28.9246  -30.2293  -15.6708 C   0  0  0  0  0  0  0  0  0  0  0  0
  -27.4386  -30.1397  -15.5522 C   0  0  0  0  0  0  0  0  0  0  0  0
  -26.5623  -30.0164  -18.4824 N   0  0  0  0  0  0  0  0  0  0  0  0
  -21.8542  -32.8103  -22.5270 C   0  0  1  0  0  0  0  0  0  0  0  0
  -21.1764  -32.9185  -23.8795 C   0  0  0  0  0  0  0  0  0  0  0  0
  -21.7334  -31.4754  -22.0333 O   0  0  0  0  0  0  0  0  0  0  0  0
  1  2  1  0
  3  2  1  6
  3  4  1  0
  4  5  1  0
  5  6  2  0
  5  7  1  0
  7  8  1  0
  8  9  1  0
  9 10  2  0
 10 11  1  0
 10 12  1  0
 12 13  1  0
 13 14  1  0
 14 15  1  0
 12 16  1  0
  3 17  1  0
 17 18  1  6
 17 19  1  0
 16  8  2  0
 15 13  1  0
M  END
>  <id>  (592) 
416091

>  <inchikey>  (592) 
AVTRDRXBENEDCV-KOLCDFICSA-N

>  <alias>  (592) 
None

>  <smiles>  (592) 
CC[C@H](NC(=O)Nc1cc(C)n(C2CC2)n1)[C@@H](C)O

>  <path>  (592) 
/opt/xchem-fragalysis-2/maxwin/RdRp_FFF/syndirella/mar_elabs/elabs_059/GZPXXQDQKSPFSB-UHFFFAOYSA-N/output/GZPXXQDQKSPFSB-UHFFFAOYSA-N-TaAYU4-155-C/GZPXXQDQKSPFSB-UHFFFAOYSA-N-TaAYU4-155-C.minimised.mol

>  <distance_score>  (592) 
1.214739

>  <energy_score>  (592) 
-18.029444

>  <compound>  (592) 
AVTRDRXBENEDCV-UHFFFAOYSA-N

>  <compound_id>  (592) 
228773

>  <target>  (592) 
Flavi_NS5_RdRp

>  <tags>  (592) 
[]

>  <inspirations>  (592) 
{P Ã— 2}

>  <subsites>  (592) 
None

>  <reference>  (592) 
z0211a

>  <SLURM_JOB_ID>  (592) 
nan

>  <SLURM_JOB_NAME>  (592) 
nan

>  <csv_name>  (592) 
nan

>  <scratch_subdir>  (592) 
nan

>  <fragmenstein_runtime>  (592) 
nan

>  <fragmenstein_outcome>  (592) 
nan

>  <fragmenstein_mode>  (592) 
nan

>  <fragmenstein_error>  (592) 
nan

>  <exports>  (592) 
nan

>  <Multi-SuCOS>  (592) 
nan

>  <merge_set>  (592) 
nan

$$$$
AJBJPBGQTFFNJF-QMMMGPOBSA-N
     RDKit          3D

 19 20  0  0  0  0  0  0  0  0999 V2000
  -20.4919  -31.4485  -21.3279 C   0  0  0  0  0  0  0  0  0  0  0  0
  -21.7439  -32.0239  -21.6689 O   0  0  0  0  0  0  0  0  0  0  0  0
  -21.9657  -32.2066  -23.0819 C   0  0  1  0  0  0  0  0  0  0  0  0
  -21.0141  -33.2584  -23.6266 C   0  0  0  0  0  0  0  0  0  0  0  0
  -23.4680  -32.5945  -23.2820 C   0  0  0  0  0  0  0  0  0  0  0  0
  -24.0281  -33.4096  -24.4921 S   0  0  0  0  0  0  0  0  0  0  0  0
  -24.1741  -31.9211  -22.0181 N   0  0  0  0  0  0  0  0  0  0  0  0
  -25.7044  -31.9312  -21.4766 C   0  0  0  0  0  0  0  0  0  0  0  0
  -26.6661  -32.3670  -21.9271 O   0  0  0  0  0  0  0  0  0  0  0  0
  -25.5049  -31.1266  -20.2754 N   0  0  0  0  0  0  0  0  0  0  0  0
  -26.3953  -30.5993  -19.4151 C   0  0  0  0  0  0  0  0  0  0  0  0
  -27.7941  -30.5415  -19.5788 C   0  0  0  0  0  0  0  0  0  0  0  0
  -28.2715  -30.0476  -18.3841 C   0  0  0  0  0  0  0  0  0  0  0  0
  -29.6535  -29.8108  -17.9283 C   0  0  0  0  0  0  0  0  0  0  0  0
  -27.1532  -29.9041  -17.6078 N   0  0  0  0  0  0  0  0  0  0  0  0
  -27.1114  -29.6281  -16.1702 C   0  0  0  0  0  0  0  0  0  0  0  0
  -28.0529  -30.1938  -15.1443 C   0  0  0  0  0  0  0  0  0  0  0  0
  -26.6223  -30.6463  -15.1700 C   0  0  0  0  0  0  0  0  0  0  0  0
  -26.0026  -30.0652  -18.2677 N   0  0  0  0  0  0  0  0  0  0  0  0
  1  2  1  0
  2  3  1  0
  3  4  1  1
  3  5  1  0
  5  6  2  0
  5  7  1  0
  7  8  1  0
  8  9  2  0
  8 10  1  0
 10 11  1  0
 11 12  1  0
 12 13  2  0
 13 14  1  0
 13 15  1  0
 15 16  1  0
 16 17  1  0
 17 18  1  0
 15 19  1  0
 19 11  2  0
 18 16  1  0
M  END
>  <id>  (593) 
416094

>  <inchikey>  (593) 
AJBJPBGQTFFNJF-QMMMGPOBSA-N

>  <alias>  (593) 
None

>  <smiles>  (593) 
CO[C@@H](C)C(=S)NC(=O)Nc1cc(C)n(C2CC2)n1

>  <path>  (593) 
/opt/xchem-fragalysis-2/maxwin/RdRp_FFF/syndirella/mar_elabs/elabs_059/GZPXXQDQKSPFSB-UHFFFAOYSA-N/output/GZPXXQDQKSPFSB-UHFFFAOYSA-N-TaAYU4-160-B/GZPXXQDQKSPFSB-UHFFFAOYSA-N-TaAYU4-160-B.minimised.mol

>  <distance_score>  (593) 
1.169172

>  <energy_score>  (593) 
-34.798989

>  <compound>  (593) 
AJBJPBGQTFFNJF-UHFFFAOYSA-N

>  <compound_id>  (593) 
228778

>  <target>  (593) 
Flavi_NS5_RdRp

>  <tags>  (593) 
[]

>  <inspirations>  (593) 
{P Ã— 2}

>  <subsites>  (593) 
None

>  <reference>  (593) 
z0211a

>  <SLURM_JOB_ID>  (593) 
nan

>  <SLURM_JOB_NAME>  (593) 
nan

>  <csv_name>  (593) 
nan

>  <scratch_subdir>  (593) 
nan

>  <fragmenstein_runtime>  (593) 
nan

>  <fragmenstein_outcome>  (593) 
nan

>  <fragmenstein_mode>  (593) 
nan

>  <fragmenstein_error>  (593) 
nan

>  <exports>  (593) 
nan

>  <Multi-SuCOS>  (593) 
nan

>  <merge_set>  (593) 
nan

$$$$
JERVFMXACNLWIO-UHFFFAOYSA-N
     RDKit          3D

 19 20  0  0  0  0  0  0  0  0999 V2000
  -30.3543  -30.2387  -19.9909 C   0  0  0  0  0  0  0  0  0  0  0  0
  -28.8827  -30.2981  -19.8651 C   0  0  0  0  0  0  0  0  0  0  0  0
  -27.9292  -30.6918  -20.7696 C   0  0  0  0  0  0  0  0  0  0  0  0
  -26.7064  -30.6794  -20.0686 C   0  0  0  0  0  0  0  0  0  0  0  0
  -25.5502  -31.1761  -20.5708 N   0  0  0  0  0  0  0  0  0  0  0  0
  -25.3128  -32.1268  -21.6740 C   0  0  0  0  0  0  0  0  0  0  0  0
  -26.0606  -32.7239  -22.3118 O   0  0  0  0  0  0  0  0  0  0  0  0
  -23.7197  -31.9890  -21.7749 N   0  0  0  0  0  0  0  0  0  0  0  0
  -22.7276  -32.5026  -22.7795 C   0  0  0  0  0  0  0  0  0  0  0  0
  -22.8643  -33.2435  -23.7578 N   0  0  0  0  0  0  0  0  0  0  0  0
  -21.2647  -32.0019  -22.4684 C   0  0  0  0  0  0  0  0  0  0  0  0
  -20.3534  -33.2074  -22.6724 C   0  0  0  0  0  0  0  0  0  0  0  0
  -20.9945  -31.4731  -21.0656 C   0  0  0  0  0  0  0  0  0  0  0  0
  -20.8749  -31.0024  -23.4125 O   0  0  0  0  0  0  0  0  0  0  0  0
  -26.8404  -30.1530  -18.8552 N   0  0  0  0  0  0  0  0  0  0  0  0
  -28.1816  -30.0825  -18.7106 N   0  0  0  0  0  0  0  0  0  0  0  0
  -28.8288  -30.0979  -17.3866 C   0  0  0  0  0  0  0  0  0  0  0  0
  -28.0925  -29.7767  -16.1100 C   0  0  0  0  0  0  0  0  0  0  0  0
  -29.1687  -28.8772  -16.6348 C   0  0  0  0  0  0  0  0  0  0  0  0
  1  2  1  0
  2  3  2  0
  3  4  1  0
  4  5  1  0
  5  6  1  0
  6  7  2  0
  6  8  1  0
  8  9  1  0
  9 10  2  3
  9 11  1  0
 11 12  1  0
 11 13  1  0
 11 14  1  0
  4 15  2  0
 15 16  1  0
 16 17  1  0
 17 18  1  0
 18 19  1  0
 16  2  1  0
 19 17  1  0
M  END
>  <id>  (594) 
416097

>  <inchikey>  (594) 
JERVFMXACNLWIO-UHFFFAOYSA-N

>  <alias>  (594) 
None

>  <smiles>  (594) 
Cc1cc(NC(=O)NC(=N)C(C)(C)O)nn1C1CC1

>  <path>  (594) 
/opt/xchem-fragalysis-2/maxwin/RdRp_FFF/syndirella/mar_elabs/elabs_059/GZPXXQDQKSPFSB-UHFFFAOYSA-N/output/GZPXXQDQKSPFSB-UHFFFAOYSA-N-TaAYU4-162-A/GZPXXQDQKSPFSB-UHFFFAOYSA-N-TaAYU4-162-A.minimised.mol

>  <distance_score>  (594) 
1.420383

>  <energy_score>  (594) 
-17.938993

>  <compound>  (594) 
JERVFMXACNLWIO-UHFFFAOYSA-N

>  <compound_id>  (594) 
228780

>  <target>  (594) 
Flavi_NS5_RdRp

>  <tags>  (594) 
[]

>  <inspirations>  (594) 
{P Ã— 2}

>  <subsites>  (594) 
None

>  <reference>  (594) 
z0211a

>  <SLURM_JOB_ID>  (594) 
nan

>  <SLURM_JOB_NAME>  (594) 
nan

>  <csv_name>  (594) 
nan

>  <scratch_subdir>  (594) 
nan

>  <fragmenstein_runtime>  (594) 
nan

>  <fragmenstein_outcome>  (594) 
nan

>  <fragmenstein_mode>  (594) 
nan

>  <fragmenstein_error>  (594) 
nan

>  <exports>  (594) 
nan

>  <Multi-SuCOS>  (594) 
nan

>  <merge_set>  (594) 
nan

$$$$
HZSXQUFNFZPSGX-ZDUSSCGKSA-N
     RDKit          3D

 19 20  0  0  0  0  0  0  0  0999 V2000
  -22.4623  -33.9532  -20.9324 C   0  0  0  0  0  0  0  0  0  0  0  0
  -21.7446  -33.7890  -22.2666 C   0  0  0  0  0  0  0  0  0  0  0  0
  -21.8761  -32.4164  -22.9414 C   0  0  2  0  0  0  0  0  0  0  0  0
  -21.0636  -32.4736  -24.2382 C   0  0  0  0  0  0  0  0  0  0  0  0
  -21.2680  -31.4212  -22.1080 O   0  0  0  0  0  0  0  0  0  0  0  0
  -23.3264  -32.0174  -23.2575 C   0  0  0  0  0  0  0  0  0  0  0  0
  -24.0951  -31.5847  -22.1201 N   0  0  0  0  0  0  0  0  0  0  0  0
  -25.5232  -30.9904  -22.0426 C   0  0  0  0  0  0  0  0  0  0  0  0
  -26.2994  -30.8377  -22.8581 O   0  0  0  0  0  0  0  0  0  0  0  0
  -25.6202  -30.7605  -20.5138 N   0  0  0  0  0  0  0  0  0  0  0  0
  -26.6769  -30.4058  -19.7467 C   0  0  0  0  0  0  0  0  0  0  0  0
  -28.0150  -30.3443  -20.1833 C   0  0  0  0  0  0  0  0  0  0  0  0
  -28.7548  -30.1452  -19.0389 C   0  0  0  0  0  0  0  0  0  0  0  0
  -30.2092  -30.1910  -18.8362 C   0  0  0  0  0  0  0  0  0  0  0  0
  -27.8306  -29.9697  -18.0447 N   0  0  0  0  0  0  0  0  0  0  0  0
  -28.1049  -29.5373  -16.6571 C   0  0  0  0  0  0  0  0  0  0  0  0
  -28.7747  -30.2710  -15.5375 C   0  0  0  0  0  0  0  0  0  0  0  0
  -27.2857  -30.1545  -15.5353 C   0  0  0  0  0  0  0  0  0  0  0  0
  -26.5596  -30.1275  -18.4541 N   0  0  0  0  0  0  0  0  0  0  0  0
  1  2  1  0
  2  3  1  0
  3  4  1  6
  3  5  1  0
  3  6  1  0
  6  7  1  0
  7  8  1  0
  8  9  2  0
  8 10  1  0
 10 11  1  0
 11 12  1  0
 12 13  2  0
 13 14  1  0
 13 15  1  0
 15 16  1  0
 16 17  1  0
 17 18  1  0
 15 19  1  0
 19 11  2  0
 18 16  1  0
M  END
>  <id>  (595) 
416098

>  <inchikey>  (595) 
HZSXQUFNFZPSGX-ZDUSSCGKSA-N

>  <alias>  (595) 
None

>  <smiles>  (595) 
CC[C@](C)(O)CNC(=O)Nc1cc(C)n(C2CC2)n1

>  <path>  (595) 
/opt/xchem-fragalysis-2/maxwin/RdRp_FFF/syndirella/mar_elabs/elabs_059/GZPXXQDQKSPFSB-UHFFFAOYSA-N/output/GZPXXQDQKSPFSB-UHFFFAOYSA-N-TaAYU4-163-A/GZPXXQDQKSPFSB-UHFFFAOYSA-N-TaAYU4-163-A.minimised.mol

>  <distance_score>  (595) 
1.027094

>  <energy_score>  (595) 
-29.349138

>  <compound>  (595) 
HZSXQUFNFZPSGX-UHFFFAOYSA-N

>  <compound_id>  (595) 
228781

>  <target>  (595) 
Flavi_NS5_RdRp

>  <tags>  (595) 
[]

>  <inspirations>  (595) 
{P Ã— 2}

>  <subsites>  (595) 
None

>  <reference>  (595) 
z0211a

>  <SLURM_JOB_ID>  (595) 
nan

>  <SLURM_JOB_NAME>  (595) 
nan

>  <csv_name>  (595) 
nan

>  <scratch_subdir>  (595) 
nan

>  <fragmenstein_runtime>  (595) 
nan

>  <fragmenstein_outcome>  (595) 
nan

>  <fragmenstein_mode>  (595) 
nan

>  <fragmenstein_error>  (595) 
nan

>  <exports>  (595) 
nan

>  <Multi-SuCOS>  (595) 
nan

>  <merge_set>  (595) 
nan

$$$$
DIZCKSSZTRWHCZ-SNVBAGLBSA-N
     RDKit          3D

 19 20  0  0  0  0  0  0  0  0999 V2000
  -22.8313  -34.9742  -24.6040 C   0  0  0  0  0  0  0  0  0  0  0  0
  -22.0984  -33.5936  -25.5282 S   0  0  0  0  0  0  0  0  0  0  0  0
  -21.2155  -32.7170  -24.1696 C   0  0  0  0  0  0  0  0  0  0  0  0
  -21.9878  -32.1262  -22.9739 C   0  0  2  0  0  0  0  0  0  0  0  0
  -21.7637  -32.9677  -21.8314 O   0  0  0  0  0  0  0  0  0  0  0  0
  -23.4859  -31.9532  -23.1942 C   0  0  0  0  0  0  0  0  0  0  0  0
  -24.1952  -31.3987  -22.0734 N   0  0  0  0  0  0  0  0  0  0  0  0
  -25.6313  -30.8353  -21.9775 C   0  0  0  0  0  0  0  0  0  0  0  0
  -26.4094  -30.6686  -22.7877 O   0  0  0  0  0  0  0  0  0  0  0  0
  -25.7275  -30.6451  -20.4471 N   0  0  0  0  0  0  0  0  0  0  0  0
  -26.7817  -30.3194  -19.6725 C   0  0  0  0  0  0  0  0  0  0  0  0
  -28.1205  -30.2685  -20.0997 C   0  0  0  0  0  0  0  0  0  0  0  0
  -28.8484  -30.1039  -18.9438 C   0  0  0  0  0  0  0  0  0  0  0  0
  -30.2956  -30.1934  -18.7264 C   0  0  0  0  0  0  0  0  0  0  0  0
  -27.9184  -29.9226  -17.9574 N   0  0  0  0  0  0  0  0  0  0  0  0
  -28.1807  -29.5281  -16.5584 C   0  0  0  0  0  0  0  0  0  0  0  0
  -27.3311  -30.1615  -15.4679 C   0  0  0  0  0  0  0  0  0  0  0  0
  -28.8168  -30.3088  -15.4531 C   0  0  0  0  0  0  0  0  0  0  0  0
  -26.6515  -30.0611  -18.3782 N   0  0  0  0  0  0  0  0  0  0  0  0
  1  2  1  0
  2  3  1  0
  3  4  1  0
  4  5  1  1
  4  6  1  0
  6  7  1  0
  7  8  1  0
  8  9  2  0
  8 10  1  0
 10 11  1  0
 11 12  1  0
 12 13  2  0
 13 14  1  0
 13 15  1  0
 15 16  1  0
 16 17  1  0
 17 18  1  0
 15 19  1  0
 19 11  2  0
 18 16  1  0
M  END
>  <id>  (596) 
416106

>  <inchikey>  (596) 
DIZCKSSZTRWHCZ-SNVBAGLBSA-N

>  <alias>  (596) 
None

>  <smiles>  (596) 
CSC[C@H](O)CNC(=O)Nc1cc(C)n(C2CC2)n1

>  <path>  (596) 
/opt/xchem-fragalysis-2/maxwin/RdRp_FFF/syndirella/mar_elabs/elabs_059/GZPXXQDQKSPFSB-UHFFFAOYSA-N/output/GZPXXQDQKSPFSB-UHFFFAOYSA-N-TaAYU4-166-A/GZPXXQDQKSPFSB-UHFFFAOYSA-N-TaAYU4-166-A.minimised.mol

>  <distance_score>  (596) 
0.898006

>  <energy_score>  (596) 
-27.310329

>  <compound>  (596) 
DIZCKSSZTRWHCZ-UHFFFAOYSA-N

>  <compound_id>  (596) 
228784

>  <target>  (596) 
Flavi_NS5_RdRp

>  <tags>  (596) 
[]

>  <inspirations>  (596) 
{P Ã— 2}

>  <subsites>  (596) 
None

>  <reference>  (596) 
z0211a

>  <SLURM_JOB_ID>  (596) 
nan

>  <SLURM_JOB_NAME>  (596) 
nan

>  <csv_name>  (596) 
nan

>  <scratch_subdir>  (596) 
nan

>  <fragmenstein_runtime>  (596) 
nan

>  <fragmenstein_outcome>  (596) 
nan

>  <fragmenstein_mode>  (596) 
nan

>  <fragmenstein_error>  (596) 
nan

>  <exports>  (596) 
nan

>  <Multi-SuCOS>  (596) 
nan

>  <merge_set>  (596) 
nan

$$$$
YGLRGBOGWZLGNT-SECBINFHSA-N
     RDKit          3D

 19 20  0  0  0  0  0  0  0  0999 V2000
  -18.8210  -33.7726  -20.3412 C   0  0  0  0  0  0  0  0  0  0  0  0
  -19.8004  -32.9968  -21.2158 C   0  0  0  0  0  0  0  0  0  0  0  0
  -21.2449  -33.2982  -20.8186 C   0  0  1  0  0  0  0  0  0  0  0  0
  -21.5519  -32.6648  -19.5761 O   0  0  0  0  0  0  0  0  0  0  0  0
  -22.2773  -32.9261  -21.9203 C   0  0  0  0  0  0  0  0  0  0  0  0
  -22.1323  -33.2425  -23.1037 N   0  0  0  0  0  0  0  0  0  0  0  0
  -23.4191  -32.2466  -21.1963 N   0  0  0  0  0  0  0  0  0  0  0  0
  -24.7971  -31.5989  -21.7215 C   0  0  0  0  0  0  0  0  0  0  0  0
  -25.2734  -31.5731  -22.7714 O   0  0  0  0  0  0  0  0  0  0  0  0
  -25.3202  -31.1268  -20.4236 N   0  0  0  0  0  0  0  0  0  0  0  0
  -26.5313  -30.6184  -20.0923 C   0  0  0  0  0  0  0  0  0  0  0  0
  -27.6224  -30.3821  -20.9506 C   0  0  0  0  0  0  0  0  0  0  0  0
  -28.6864  -30.1241  -20.1121 C   0  0  0  0  0  0  0  0  0  0  0  0
  -30.1258  -29.9901  -20.4087 C   0  0  0  0  0  0  0  0  0  0  0  0
  -28.1534  -30.1231  -18.8517 N   0  0  0  0  0  0  0  0  0  0  0  0
  -28.9615  -30.1544  -17.6127 C   0  0  0  0  0  0  0  0  0  0  0  0
  -28.3276  -29.9804  -16.2419 C   0  0  0  0  0  0  0  0  0  0  0  0
  -29.2783  -28.9688  -16.7813 C   0  0  0  0  0  0  0  0  0  0  0  0
  -26.8347  -30.3687  -18.8217 N   0  0  0  0  0  0  0  0  0  0  0  0
  1  2  1  0
  2  3  1  0
  3  4  1  1
  3  5  1  0
  5  6  2  3
  5  7  1  0
  7  8  1  0
  8  9  2  0
  8 10  1  0
 10 11  1  0
 11 12  1  0
 12 13  2  0
 13 14  1  0
 13 15  1  0
 15 16  1  0
 16 17  1  0
 17 18  1  0
 15 19  1  0
 19 11  2  0
 18 16  1  0
M  END
>  <id>  (597) 
416116

>  <inchikey>  (597) 
YGLRGBOGWZLGNT-SECBINFHSA-N

>  <alias>  (597) 
None

>  <smiles>  (597) 
CC[C@@H](O)C(=N)NC(=O)Nc1cc(C)n(C2CC2)n1

>  <path>  (597) 
/opt/xchem-fragalysis-2/maxwin/RdRp_FFF/syndirella/mar_elabs/elabs_059/GZPXXQDQKSPFSB-UHFFFAOYSA-N/output/GZPXXQDQKSPFSB-UHFFFAOYSA-N-TaAYU4-171-B/GZPXXQDQKSPFSB-UHFFFAOYSA-N-TaAYU4-171-B.minimised.mol

>  <distance_score>  (597) 
1.593374

>  <energy_score>  (597) 
-15.879146

>  <compound>  (597) 
YGLRGBOGWZLGNT-UHFFFAOYSA-N

>  <compound_id>  (597) 
228789

>  <target>  (597) 
Flavi_NS5_RdRp

>  <tags>  (597) 
[]

>  <inspirations>  (597) 
{P Ã— 2}

>  <subsites>  (597) 
None

>  <reference>  (597) 
z0211a

>  <SLURM_JOB_ID>  (597) 
nan

>  <SLURM_JOB_NAME>  (597) 
nan

>  <csv_name>  (597) 
nan

>  <scratch_subdir>  (597) 
nan

>  <fragmenstein_runtime>  (597) 
nan

>  <fragmenstein_outcome>  (597) 
nan

>  <fragmenstein_mode>  (597) 
nan

>  <fragmenstein_error>  (597) 
nan

>  <exports>  (597) 
nan

>  <Multi-SuCOS>  (597) 
nan

>  <merge_set>  (597) 
nan

$$$$
RCGBAWBPDOOXAQ-PSASIEDQSA-N
     RDKit          3D

 19 20  0  0  0  0  0  0  0  0999 V2000
  -30.4508  -30.1794  -19.3104 C   0  0  0  0  0  0  0  0  0  0  0  0
  -28.9905  -30.0372  -19.3771 C   0  0  0  0  0  0  0  0  0  0  0  0
  -28.1561  -30.0739  -20.4697 C   0  0  0  0  0  0  0  0  0  0  0  0
  -26.8761  -30.2725  -19.9239 C   0  0  0  0  0  0  0  0  0  0  0  0
  -25.7920  -30.6850  -20.6183 N   0  0  0  0  0  0  0  0  0  0  0  0
  -25.5847  -30.8602  -22.1445 C   0  0  0  0  0  0  0  0  0  0  0  0
  -26.2743  -30.6081  -23.0130 O   0  0  0  0  0  0  0  0  0  0  0  0
  -24.2089  -31.5717  -22.1335 N   0  0  0  0  0  0  0  0  0  0  0  0
  -23.3779  -32.0261  -23.2320 C   0  0  2  0  0  0  0  0  0  0  0  0
  -24.0899  -33.1213  -24.0197 C   0  0  0  0  0  0  0  0  0  0  0  0
  -22.0125  -32.4737  -22.6888 C   0  0  2  0  0  0  0  0  0  0  0  0
  -21.4530  -31.4263  -21.8753 O   0  0  0  0  0  0  0  0  0  0  0  0
  -20.9858  -32.7930  -23.7714 C   0  0  0  0  0  0  0  0  0  0  0  0
  -20.6171  -31.5979  -24.4627 O   0  0  0  0  0  0  0  0  0  0  0  0
  -26.8622  -30.1263  -18.6046 N   0  0  0  0  0  0  0  0  0  0  0  0
  -28.1629  -29.9859  -18.2838 N   0  0  0  0  0  0  0  0  0  0  0  0
  -28.6106  -30.2336  -16.8886 C   0  0  0  0  0  0  0  0  0  0  0  0
  -28.7503  -29.2973  -15.7627 C   0  0  0  0  0  0  0  0  0  0  0  0
  -27.5626  -30.1888  -15.7785 C   0  0  0  0  0  0  0  0  0  0  0  0
  1  2  1  0
  2  3  2  0
  3  4  1  0
  4  5  1  0
  5  6  1  0
  6  7  2  0
  6  8  1  0
  8  9  1  0
  9 10  1  1
  9 11  1  0
 11 12  1  1
 11 13  1  0
 13 14  1  0
  4 15  2  0
 15 16  1  0
 16 17  1  0
 17 18  1  0
 18 19  1  0
 16  2  1  0
 19 17  1  0
M  END
>  <id>  (598) 
416126

>  <inchikey>  (598) 
RCGBAWBPDOOXAQ-PSASIEDQSA-N

>  <alias>  (598) 
None

>  <smiles>  (598) 
Cc1cc(NC(=O)N[C@H](C)[C@H](O)CO)nn1C1CC1

>  <path>  (598) 
/opt/xchem-fragalysis-2/maxwin/RdRp_FFF/syndirella/mar_elabs/elabs_059/GZPXXQDQKSPFSB-UHFFFAOYSA-N/output/GZPXXQDQKSPFSB-UHFFFAOYSA-N-TaAYU4-183-A/GZPXXQDQKSPFSB-UHFFFAOYSA-N-TaAYU4-183-A.minimised.mol

>  <distance_score>  (598) 
0.851986

>  <energy_score>  (598) 
-24.798875

>  <compound>  (598) 
RCGBAWBPDOOXAQ-UHFFFAOYSA-N

>  <compound_id>  (598) 
228801

>  <target>  (598) 
Flavi_NS5_RdRp

>  <tags>  (598) 
[]

>  <inspirations>  (598) 
{P Ã— 2}

>  <subsites>  (598) 
None

>  <reference>  (598) 
z0211a

>  <SLURM_JOB_ID>  (598) 
nan

>  <SLURM_JOB_NAME>  (598) 
nan

>  <csv_name>  (598) 
nan

>  <scratch_subdir>  (598) 
nan

>  <fragmenstein_runtime>  (598) 
nan

>  <fragmenstein_outcome>  (598) 
nan

>  <fragmenstein_mode>  (598) 
nan

>  <fragmenstein_error>  (598) 
nan

>  <exports>  (598) 
nan

>  <Multi-SuCOS>  (598) 
nan

>  <merge_set>  (598) 
nan

$$$$
QBFSJYSPVVUHPU-SECBINFHSA-N
     RDKit          3D

 19 20  0  0  0  0  0  0  0  0999 V2000
  -30.2732  -30.2111  -18.8938 C   0  0  0  0  0  0  0  0  0  0  0  0
  -28.8097  -30.1679  -18.9959 C   0  0  0  0  0  0  0  0  0  0  0  0
  -27.9968  -30.6022  -20.0188 C   0  0  0  0  0  0  0  0  0  0  0  0
  -26.6968  -30.5375  -19.4898 C   0  0  0  0  0  0  0  0  0  0  0  0
  -25.6018  -31.1175  -20.0154 N   0  0  0  0  0  0  0  0  0  0  0  0
  -25.4553  -32.0709  -21.2292 C   0  0  0  0  0  0  0  0  0  0  0  0
  -26.2324  -32.4270  -21.9847 O   0  0  0  0  0  0  0  0  0  0  0  0
  -23.9275  -32.3841  -21.1298 N   0  0  0  0  0  0  0  0  0  0  0  0
  -23.1066  -33.0949  -21.9770 N   0  0  0  0  0  0  0  0  0  0  0  0
  -23.7379  -34.3438  -22.4019 C   0  0  0  0  0  0  0  0  0  0  0  0
  -22.7193  -32.2211  -23.1075 C   0  0  0  0  0  0  0  0  0  0  0  0
  -21.3668  -32.5737  -23.7387 C   0  0  1  0  0  0  0  0  0  0  0  0
  -20.3600  -33.0488  -22.7027 C   0  0  0  0  0  0  0  0  0  0  0  0
  -21.5057  -33.5256  -24.7931 O   0  0  0  0  0  0  0  0  0  0  0  0
  -26.6570  -29.9000  -18.3280 N   0  0  0  0  0  0  0  0  0  0  0  0
  -27.9516  -29.8103  -17.9904 N   0  0  0  0  0  0  0  0  0  0  0  0
  -28.3074  -29.4563  -16.6032 C   0  0  0  0  0  0  0  0  0  0  0  0
  -29.0630  -30.2897  -15.6142 C   0  0  0  0  0  0  0  0  0  0  0  0
  -27.5850  -30.1511  -15.4632 C   0  0  0  0  0  0  0  0  0  0  0  0
  1  2  1  0
  2  3  2  0
  3  4  1  0
  4  5  1  0
  5  6  1  0
  6  7  2  0
  6  8  1  0
  8  9  1  0
  9 10  1  0
  9 11  1  0
 11 12  1  0
 12 13  1  1
 12 14  1  0
  4 15  2  0
 15 16  1  0
 16 17  1  0
 17 18  1  0
 18 19  1  0
 16  2  1  0
 19 17  1  0
M  END
>  <id>  (599) 
416131

>  <inchikey>  (599) 
QBFSJYSPVVUHPU-SECBINFHSA-N

>  <alias>  (599) 
None

>  <smiles>  (599) 
Cc1cc(NC(=O)NN(C)C[C@@H](C)O)nn1C1CC1

>  <path>  (599) 
/opt/xchem-fragalysis-2/maxwin/RdRp_FFF/syndirella/mar_elabs/elabs_059/GZPXXQDQKSPFSB-UHFFFAOYSA-N/output/GZPXXQDQKSPFSB-UHFFFAOYSA-N-TaAYU4-184-B/GZPXXQDQKSPFSB-UHFFFAOYSA-N-TaAYU4-184-B.minimised.mol

>  <distance_score>  (599) 
1.205612

>  <energy_score>  (599) 
-5.91728

>  <compound>  (599) 
QBFSJYSPVVUHPU-UHFFFAOYSA-N

>  <compound_id>  (599) 
228802

>  <target>  (599) 
Flavi_NS5_RdRp

>  <tags>  (599) 
[]

>  <inspirations>  (599) 
{P Ã— 2}

>  <subsites>  (599) 
None

>  <reference>  (599) 
z0211a

>  <SLURM_JOB_ID>  (599) 
nan

>  <SLURM_JOB_NAME>  (599) 
nan

>  <csv_name>  (599) 
nan

>  <scratch_subdir>  (599) 
nan

>  <fragmenstein_runtime>  (599) 
nan

>  <fragmenstein_outcome>  (599) 
nan

>  <fragmenstein_mode>  (599) 
nan

>  <fragmenstein_error>  (599) 
nan

>  <exports>  (599) 
nan

>  <Multi-SuCOS>  (599) 
nan

>  <merge_set>  (599) 
nan

$$$$
BCRKYJYJPDRSBH-BDAKNGLRSA-N
     RDKit          3D

 18 19  0  0  0  0  0  0  0  0999 V2000
  -20.9906  -32.8376  -24.0863 C   0  0  0  0  0  0  0  0  0  0  0  0
  -21.9441  -32.5248  -22.9529 C   0  0  1  0  0  0  0  0  0  0  0  0
  -21.3357  -31.5716  -22.0816 O   0  0  0  0  0  0  0  0  0  0  0  0
  -23.2725  -31.9997  -23.4806 C   0  0  0  0  0  0  0  0  0  0  0  0
  -24.1766  -31.7150  -22.4076 N   0  0  0  0  0  0  0  0  0  0  0  0
  -25.5492  -31.0048  -22.4172 C   0  0  0  0  0  0  0  0  0  0  0  0
  -26.1717  -30.6220  -23.2873 O   0  0  0  0  0  0  0  0  0  0  0  0
  -25.8712  -31.0602  -20.9087 N   0  0  0  0  0  0  0  0  0  0  0  0
  -26.9322  -30.5899  -20.2255 C   0  0  0  0  0  0  0  0  0  0  0  0
  -28.1693  -30.1560  -20.7291 C   0  0  0  0  0  0  0  0  0  0  0  0
  -28.9164  -29.8581  -19.6138 C   0  0  0  0  0  0  0  0  0  0  0  0
  -28.0699  -30.0150  -18.5538 N   0  0  0  0  0  0  0  0  0  0  0  0
  -28.2292  -29.4911  -17.2237 C   0  0  1  0  0  0  0  0  0  0  0  0
  -29.4136  -29.9760  -16.4161 C   0  0  0  0  0  0  0  0  0  0  0  0
  -28.8217  -30.3341  -15.0701 C   0  0  0  0  0  0  0  0  0  0  0  0
  -27.5486  -29.7143  -14.9821 O   0  0  0  0  0  0  0  0  0  0  0  0
  -27.0259  -29.7258  -16.3105 C   0  0  0  0  0  0  0  0  0  0  0  0
  -26.8792  -30.5180  -18.9034 N   0  0  0  0  0  0  0  0  0  0  0  0
  2  1  1  6
  2  3  1  0
  2  4  1  0
  4  5  1  0
  5  6  1  0
  6  7  2  0
  6  8  1  0
  8  9  1  0
  9 10  1  0
 10 11  2  0
 11 12  1  0
 13 12  1  6
 13 14  1  0
 14 15  1  0
 15 16  1  0
 16 17  1  0
 12 18  1  0
 18  9  2  0
 17 13  1  0
M  END
>  <id>  (600) 
420792

>  <inchikey>  (600) 
BCRKYJYJPDRSBH-BDAKNGLRSA-N

>  <alias>  (600) 
None

>  <smiles>  (600) 
C[C@@H](O)CNC(=O)Nc1ccn([C@H]2CCOC2)n1

>  <path>  (600) 
/opt/xchem-fragalysis-2/maxwin/RdRp_FFF/syndirella/mar_elabs/elabs_060/VEAPMNAYWNOMRJ-UHFFFAOYSA-N/output/VEAPMNAYWNOMRJ-UHFFFAOYSA-N-oBUHPJ-16-D/VEAPMNAYWNOMRJ-UHFFFAOYSA-N-oBUHPJ-16-D.minimised.mol

>  <distance_score>  (600) 
0.754881

>  <energy_score>  (600) 
-11.026325

>  <compound>  (600) 
BCRKYJYJPDRSBH-UHFFFAOYSA-N

>  <compound_id>  (600) 
231163

>  <target>  (600) 
Flavi_NS5_RdRp

>  <tags>  (600) 
[]

>  <inspirations>  (600) 
{P Ã— 2}

>  <subsites>  (600) 
None

>  <reference>  (600) 
z0211a

>  <SLURM_JOB_ID>  (600) 
nan

>  <SLURM_JOB_NAME>  (600) 
nan

>  <csv_name>  (600) 
nan

>  <scratch_subdir>  (600) 
nan

>  <fragmenstein_runtime>  (600) 
nan

>  <fragmenstein_outcome>  (600) 
nan

>  <fragmenstein_mode>  (600) 
nan

>  <fragmenstein_error>  (600) 
nan

>  <exports>  (600) 
nan

>  <Multi-SuCOS>  (600) 
nan

>  <merge_set>  (600) 
nan

$$$$
RUZWOPWFZYOICG-UWVGGRQHSA-N
     RDKit          3D

 19 20  0  0  0  0  0  0  0  0999 V2000
  -21.3463  -33.2701  -25.5905 C   0  0  0  0  0  0  0  0  0  0  0  0
  -21.2213  -33.2117  -24.0758 C   0  0  0  0  0  0  0  0  0  0  0  0
  -21.9743  -32.0486  -23.4355 C   0  0  2  0  0  0  0  0  0  0  0  0
  -21.6310  -32.0273  -22.0431 O   0  0  0  0  0  0  0  0  0  0  0  0
  -23.4885  -32.2146  -23.6078 C   0  0  0  0  0  0  0  0  0  0  0  0
  -24.2345  -31.6827  -22.5073 N   0  0  0  0  0  0  0  0  0  0  0  0
  -25.5734  -30.9064  -22.4860 C   0  0  0  0  0  0  0  0  0  0  0  0
  -26.2155  -30.5253  -23.3438 O   0  0  0  0  0  0  0  0  0  0  0  0
  -25.8315  -30.8911  -20.9611 N   0  0  0  0  0  0  0  0  0  0  0  0
  -26.9186  -30.5048  -20.2634 C   0  0  0  0  0  0  0  0  0  0  0  0
  -28.1677  -30.0833  -20.7494 C   0  0  0  0  0  0  0  0  0  0  0  0
  -28.9231  -29.8521  -19.6230 C   0  0  0  0  0  0  0  0  0  0  0  0
  -28.0711  -30.0254  -18.5693 N   0  0  0  0  0  0  0  0  0  0  0  0
  -28.2167  -29.5068  -17.2348 C   0  0  1  0  0  0  0  0  0  0  0  0
  -29.4001  -29.9763  -16.4174 C   0  0  0  0  0  0  0  0  0  0  0  0
  -28.8038  -30.3282  -15.0711 C   0  0  0  0  0  0  0  0  0  0  0  0
  -27.5178  -29.7318  -14.9978 O   0  0  0  0  0  0  0  0  0  0  0  0
  -27.0090  -29.7549  -16.3312 C   0  0  0  0  0  0  0  0  0  0  0  0
  -26.8773  -30.5088  -18.9382 N   0  0  0  0  0  0  0  0  0  0  0  0
  1  2  1  0
  2  3  1  0
  3  4  1  1
  3  5  1  0
  5  6  1  0
  6  7  1  0
  7  8  2  0
  7  9  1  0
  9 10  1  0
 10 11  1  0
 11 12  2  0
 12 13  1  0
 14 13  1  6
 14 15  1  0
 15 16  1  0
 16 17  1  0
 17 18  1  0
 13 19  1  0
 19 10  2  0
 18 14  1  0
M  END
>  <id>  (601) 
420811

>  <inchikey>  (601) 
RUZWOPWFZYOICG-UWVGGRQHSA-N

>  <alias>  (601) 
None

>  <smiles>  (601) 
CC[C@H](O)CNC(=O)Nc1ccn([C@H]2CCOC2)n1

>  <path>  (601) 
/opt/xchem-fragalysis-2/maxwin/RdRp_FFF/syndirella/mar_elabs/elabs_060/VEAPMNAYWNOMRJ-UHFFFAOYSA-N/output/VEAPMNAYWNOMRJ-UHFFFAOYSA-N-oBUHPJ-45-A/VEAPMNAYWNOMRJ-UHFFFAOYSA-N-oBUHPJ-45-A.minimised.mol

>  <distance_score>  (601) 
0.747203

>  <energy_score>  (601) 
-6.620117

>  <compound>  (601) 
RUZWOPWFZYOICG-UHFFFAOYSA-N

>  <compound_id>  (601) 
231179

>  <target>  (601) 
Flavi_NS5_RdRp

>  <tags>  (601) 
[]

>  <inspirations>  (601) 
{P Ã— 2}

>  <subsites>  (601) 
None

>  <reference>  (601) 
z0211a

>  <SLURM_JOB_ID>  (601) 
nan

>  <SLURM_JOB_NAME>  (601) 
nan

>  <csv_name>  (601) 
nan

>  <scratch_subdir>  (601) 
nan

>  <fragmenstein_runtime>  (601) 
nan

>  <fragmenstein_outcome>  (601) 
nan

>  <fragmenstein_mode>  (601) 
nan

>  <fragmenstein_error>  (601) 
nan

>  <exports>  (601) 
nan

>  <Multi-SuCOS>  (601) 
nan

>  <merge_set>  (601) 
nan

$$$$
QDMYTQANQGXDSE-IUCAKERBSA-N
     RDKit          3D

 19 20  0  0  0  0  0  0  0  0999 V2000
  -26.1224  -30.6004  -23.2583 O   0  0  0  0  0  0  0  0  0  0  0  0
  -25.5126  -30.9724  -22.3749 C   0  0  0  0  0  0  0  0  0  0  0  0
  -24.1431  -31.6849  -22.3369 N   0  0  0  0  0  0  0  0  0  0  0  0
  -23.3106  -32.1565  -23.4070 C   0  0  0  0  0  0  0  0  0  0  0  0
  -21.9356  -32.5305  -22.8640 C   0  0  2  0  0  0  0  0  0  0  0  0
  -21.3437  -31.4265  -22.1645 O   0  0  0  0  0  0  0  0  0  0  0  0
  -20.9792  -32.9461  -23.9714 C   0  0  0  0  0  0  0  0  0  0  0  0
  -20.5724  -31.8045  -24.7238 O   0  0  0  0  0  0  0  0  0  0  0  0
  -25.8235  -30.9397  -20.8648 N   0  0  0  0  0  0  0  0  0  0  0  0
  -26.9314  -30.5447  -20.2113 C   0  0  0  0  0  0  0  0  0  0  0  0
  -28.1786  -30.1571  -20.7252 C   0  0  0  0  0  0  0  0  0  0  0  0
  -28.9446  -29.8819  -19.6147 C   0  0  0  0  0  0  0  0  0  0  0  0
  -28.1034  -30.0166  -18.5474 N   0  0  0  0  0  0  0  0  0  0  0  0
  -28.2710  -29.4954  -17.2170 C   0  0  1  0  0  0  0  0  0  0  0  0
  -29.4531  -29.9873  -16.4119 C   0  0  0  0  0  0  0  0  0  0  0  0
  -28.8599  -30.3427  -15.0653 C   0  0  0  0  0  0  0  0  0  0  0  0
  -27.5876  -29.7226  -14.9753 O   0  0  0  0  0  0  0  0  0  0  0  0
  -27.0672  -29.7360  -16.3035 C   0  0  0  0  0  0  0  0  0  0  0  0
  -26.8996  -30.4886  -18.8888 N   0  0  0  0  0  0  0  0  0  0  0  0
  1  2  2  0
  2  3  1  0
  3  4  1  0
  4  5  1  0
  5  6  1  6
  5  7  1  0
  7  8  1  0
  2  9  1  0
  9 10  1  0
 10 11  1  0
 11 12  2  0
 12 13  1  0
 14 13  1  6
 14 15  1  0
 15 16  1  0
 16 17  1  0
 17 18  1  0
 13 19  1  0
 19 10  2  0
 18 14  1  0
M  END
>  <id>  (602) 
420815

>  <inchikey>  (602) 
QDMYTQANQGXDSE-IUCAKERBSA-N

>  <alias>  (602) 
None

>  <smiles>  (602) 
O=C(NC[C@H](O)CO)Nc1ccn([C@H]2CCOC2)n1

>  <path>  (602) 
/opt/xchem-fragalysis-2/maxwin/RdRp_FFF/syndirella/mar_elabs/elabs_060/VEAPMNAYWNOMRJ-UHFFFAOYSA-N/output/VEAPMNAYWNOMRJ-UHFFFAOYSA-N-oBUHPJ-46-A/VEAPMNAYWNOMRJ-UHFFFAOYSA-N-oBUHPJ-46-A.minimised.mol

>  <distance_score>  (602) 
0.741449

>  <energy_score>  (602) 
-3.87104

>  <compound>  (602) 
QDMYTQANQGXDSE-UHFFFAOYSA-N

>  <compound_id>  (602) 
231180

>  <target>  (602) 
Flavi_NS5_RdRp

>  <tags>  (602) 
[]

>  <inspirations>  (602) 
{P Ã— 2}

>  <subsites>  (602) 
None

>  <reference>  (602) 
z0211a

>  <SLURM_JOB_ID>  (602) 
nan

>  <SLURM_JOB_NAME>  (602) 
nan

>  <csv_name>  (602) 
nan

>  <scratch_subdir>  (602) 
nan

>  <fragmenstein_runtime>  (602) 
nan

>  <fragmenstein_outcome>  (602) 
nan

>  <fragmenstein_mode>  (602) 
nan

>  <fragmenstein_error>  (602) 
nan

>  <exports>  (602) 
nan

>  <Multi-SuCOS>  (602) 
nan

>  <merge_set>  (602) 
nan

$$$$
HSIHDVOFJGEPPV-SNVBAGLBSA-N
     RDKit          3D

 19 19  0  0  0  0  0  0  0  0999 V2000
  -25.6151  -31.6294  -14.2606 C   0  0  0  0  0  0  0  0  0  0  0  0
  -26.9756  -31.2107  -14.3717 O   0  0  0  0  0  0  0  0  0  0  0  0
  -27.1514  -30.3695  -15.5029 C   0  0  0  0  0  0  0  0  0  0  0  0
  -28.6387  -30.1707  -15.7226 C   0  0  0  0  0  0  0  0  0  0  0  0
  -29.0088  -29.4235  -16.9883 C   0  0  0  0  0  0  0  0  0  0  0  0
  -28.4255  -29.8299  -18.2469 N   0  0  0  0  0  0  0  0  0  0  0  0
  -29.0972  -29.8038  -19.4271 C   0  0  0  0  0  0  0  0  0  0  0  0
  -28.1387  -29.9150  -20.4015 C   0  0  0  0  0  0  0  0  0  0  0  0
  -28.3763  -29.7869  -21.8391 C   0  0  0  0  0  0  0  0  0  0  0  0
  -26.9399  -30.2222  -19.7135 C   0  0  0  0  0  0  0  0  0  0  0  0
  -25.7700  -30.6744  -20.2637 N   0  0  0  0  0  0  0  0  0  0  0  0
  -25.4141  -31.0098  -21.7496 C   0  0  0  0  0  0  0  0  0  0  0  0
  -26.0272  -30.8780  -22.6986 O   0  0  0  0  0  0  0  0  0  0  0  0
  -24.0270  -31.6666  -21.5388 N   0  0  0  0  0  0  0  0  0  0  0  0
  -23.1823  -32.3696  -22.4616 C   0  0  0  0  0  0  0  0  0  0  0  0
  -21.6987  -32.4142  -22.1468 C   0  0  1  0  0  0  0  0  0  0  0  0
  -20.9621  -33.0313  -23.3247 C   0  0  0  0  0  0  0  0  0  0  0  0
  -21.1512  -31.1284  -21.9069 O   0  0  0  0  0  0  0  0  0  0  0  0
  -27.0994  -30.0438  -18.3991 N   0  0  0  0  0  0  0  0  0  0  0  0
  1  2  1  0
  2  3  1  0
  3  4  1  0
  4  5  1  0
  5  6  1  0
  6  7  1  0
  7  8  2  0
  8  9  1  0
  8 10  1  0
 10 11  1  0
 11 12  1  0
 12 13  2  0
 12 14  1  0
 14 15  1  0
 15 16  1  0
 16 17  1  6
 16 18  1  0
 10 19  2  0
 19  6  1  0
M  END
>  <id>  (603) 
420883

>  <inchikey>  (603) 
HSIHDVOFJGEPPV-SNVBAGLBSA-N

>  <alias>  (603) 
None

>  <smiles>  (603) 
COCCCn1cc(C)c(NC(=O)NC[C@@H](C)O)n1

>  <path>  (603) 
/opt/xchem-fragalysis-2/maxwin/RdRp_FFF/syndirella/mar_elabs/elabs_060/VEAPMNAYWNOMRJ-UHFFFAOYSA-N/output/VEAPMNAYWNOMRJ-UHFFFAOYSA-N-oBUHPJ-87-B/VEAPMNAYWNOMRJ-UHFFFAOYSA-N-oBUHPJ-87-B.minimised.mol

>  <distance_score>  (603) 
0.698953

>  <energy_score>  (603) 
-40.797548

>  <compound>  (603) 
HSIHDVOFJGEPPV-UHFFFAOYSA-N

>  <compound_id>  (603) 
231217

>  <target>  (603) 
Flavi_NS5_RdRp

>  <tags>  (603) 
[]

>  <inspirations>  (603) 
{P Ã— 2}

>  <subsites>  (603) 
None

>  <reference>  (603) 
z0211a

>  <SLURM_JOB_ID>  (603) 
nan

>  <SLURM_JOB_NAME>  (603) 
nan

>  <csv_name>  (603) 
nan

>  <scratch_subdir>  (603) 
nan

>  <fragmenstein_runtime>  (603) 
nan

>  <fragmenstein_outcome>  (603) 
nan

>  <fragmenstein_mode>  (603) 
nan

>  <fragmenstein_error>  (603) 
nan

>  <exports>  (603) 
nan

>  <Multi-SuCOS>  (603) 
nan

>  <merge_set>  (603) 
nan

$$$$
PHASMRRNFBWKDI-VIFPVBQESA-N
     RDKit          3D

 19 21  0  0  0  0  0  0  0  0999 V2000
  -21.0401  -32.6496  -24.7039 C   0  0  0  0  0  0  0  0  0  0  0  0
  -21.3353  -33.4884  -23.6102 O   0  0  0  0  0  0  0  0  0  0  0  0
  -22.6005  -33.3285  -22.9391 C   0  0  0  0  0  0  0  0  0  0  0  0
  -23.0507  -31.9741  -22.4615 C   0  0  0  0  0  0  0  0  0  0  0  0
  -24.5103  -32.5113  -22.5946 N   0  0  0  0  0  0  0  0  0  0  0  0
  -25.5239  -31.3790  -22.5579 C   0  0  0  0  0  0  0  0  0  0  0  0
  -25.9648  -30.7555  -23.4081 O   0  0  0  0  0  0  0  0  0  0  0  0
  -25.8549  -31.3895  -21.0559 N   0  0  0  0  0  0  0  0  0  0  0  0
  -26.8086  -30.7333  -20.3672 C   0  0  0  0  0  0  0  0  0  0  0  0
  -27.9551  -30.0933  -20.8667 C   0  0  0  0  0  0  0  0  0  0  0  0
  -28.6664  -29.7322  -19.7463 C   0  0  0  0  0  0  0  0  0  0  0  0
  -27.8721  -30.0537  -18.6811 N   0  0  0  0  0  0  0  0  0  0  0  0
  -27.9808  -29.5596  -17.3297 C   0  0  1  0  0  0  0  0  0  0  0  0
  -29.2788  -29.8442  -16.6153 C   0  0  0  0  0  0  0  0  0  0  0  0
  -28.8498  -30.0088  -15.1820 C   0  0  0  0  0  0  0  0  0  0  0  0
  -27.5269  -30.5073  -15.1695 O   0  0  0  0  0  0  0  0  0  0  0  0
  -26.8861  -30.0264  -16.3580 C   0  0  0  0  0  0  0  0  0  0  0  0
  -26.7655  -30.7117  -19.0422 N   0  0  0  0  0  0  0  0  0  0  0  0
  -23.8685  -33.2080  -23.7600 C   0  0  0  0  0  0  0  0  0  0  0  0
  1  2  1  0
  2  3  1  0
  3  4  1  0
  4  5  1  0
  5  6  1  0
  6  7  2  0
  6  8  1  0
  8  9  1  0
  9 10  1  0
 10 11  2  0
 11 12  1  0
 13 12  1  6
 13 14  1  0
 14 15  1  0
 15 16  1  0
 16 17  1  0
 12 18  1  0
  5 19  1  0
 19  3  1  0
 18  9  2  0
 17 13  1  0
M  END
>  <id>  (604) 
420994

>  <inchikey>  (604) 
PHASMRRNFBWKDI-VIFPVBQESA-N

>  <alias>  (604) 
None

>  <smiles>  (604) 
COC1CN(C(=O)Nc2ccn([C@H]3CCOC3)n2)C1

>  <path>  (604) 
/opt/xchem-fragalysis-2/maxwin/RdRp_FFF/syndirella/mar_elabs/elabs_060/VEAPMNAYWNOMRJ-UHFFFAOYSA-N/output/VEAPMNAYWNOMRJ-UHFFFAOYSA-N-oBUHPJ-215-A/VEAPMNAYWNOMRJ-UHFFFAOYSA-N-oBUHPJ-215-A.minimised.mol

>  <distance_score>  (604) 
0.989069

>  <energy_score>  (604) 
-29.425123

>  <compound>  (604) 
PHASMRRNFBWKDI-UHFFFAOYSA-N

>  <compound_id>  (604) 
231308

>  <target>  (604) 
Flavi_NS5_RdRp

>  <tags>  (604) 
[]

>  <inspirations>  (604) 
{P Ã— 2}

>  <subsites>  (604) 
None

>  <reference>  (604) 
z0211a

>  <SLURM_JOB_ID>  (604) 
nan

>  <SLURM_JOB_NAME>  (604) 
nan

>  <csv_name>  (604) 
nan

>  <scratch_subdir>  (604) 
nan

>  <fragmenstein_runtime>  (604) 
nan

>  <fragmenstein_outcome>  (604) 
nan

>  <fragmenstein_mode>  (604) 
nan

>  <fragmenstein_error>  (604) 
nan

>  <exports>  (604) 
nan

>  <Multi-SuCOS>  (604) 
nan

>  <merge_set>  (604) 
nan

$$$$
CVOWFHQURUWITJ-VIFPVBQESA-N
     RDKit          3D

 19 21  0  0  0  0  0  0  0  0999 V2000
  -21.8948  -33.8387  -23.5053 C   0  0  0  0  0  0  0  0  0  0  0  0
  -22.4680  -32.7419  -22.6424 C   0  0  0  0  0  0  0  0  0  0  0  0
  -21.4714  -32.3331  -21.6715 O   0  0  0  0  0  0  0  0  0  0  0  0
  -23.1312  -31.6469  -23.4372 C   0  0  0  0  0  0  0  0  0  0  0  0
  -24.0137  -31.3733  -22.2445 N   0  0  0  0  0  0  0  0  0  0  0  0
  -25.4653  -30.9208  -22.1727 C   0  0  0  0  0  0  0  0  0  0  0  0
  -26.2301  -30.7618  -23.0064 O   0  0  0  0  0  0  0  0  0  0  0  0
  -25.6190  -30.8036  -20.6423 N   0  0  0  0  0  0  0  0  0  0  0  0
  -26.7162  -30.5707  -19.8870 C   0  0  0  0  0  0  0  0  0  0  0  0
  -28.0288  -30.3446  -20.3502 C   0  0  0  0  0  0  0  0  0  0  0  0
  -28.7919  -30.2285  -19.2138 C   0  0  0  0  0  0  0  0  0  0  0  0
  -27.9186  -30.3695  -18.1648 N   0  0  0  0  0  0  0  0  0  0  0  0
  -28.2672  -30.3512  -16.7480 C   0  0  1  0  0  0  0  0  0  0  0  0
  -27.2847  -30.8910  -15.6835 C   0  0  0  0  0  0  0  0  0  0  0  0
  -26.2281  -29.8505  -15.5966 C   0  0  0  0  0  0  0  0  0  0  0  0
  -26.8588  -28.6891  -16.0858 O   0  0  0  0  0  0  0  0  0  0  0  0
  -28.2467  -28.9457  -16.3377 C   0  0  0  0  0  0  0  0  0  0  0  0
  -26.6474  -30.5573  -18.5600 N   0  0  0  0  0  0  0  0  0  0  0  0
  -23.8951  -32.9236  -22.1440 C   0  0  0  0  0  0  0  0  0  0  0  0
  1  2  1  0
  2  3  1  0
  2  4  1  0
  4  5  1  0
  5  6  1  0
  6  7  2  0
  6  8  1  0
  8  9  1  0
  9 10  1  0
 10 11  2  0
 11 12  1  0
 13 12  1  6
 13 14  1  0
 14 15  1  0
 15 16  1  0
 16 17  1  0
 12 18  1  0
  5 19  1  0
 19  2  1  0
 18  9  2  0
 17 13  1  0
M  END
>  <id>  (605) 
421000

>  <inchikey>  (605) 
CVOWFHQURUWITJ-VIFPVBQESA-N

>  <alias>  (605) 
None

>  <smiles>  (605) 
CC1(O)CN(C(=O)Nc2ccn([C@H]3CCOC3)n2)C1

>  <path>  (605) 
/opt/xchem-fragalysis-2/maxwin/RdRp_FFF/syndirella/mar_elabs/elabs_060/VEAPMNAYWNOMRJ-UHFFFAOYSA-N/output/VEAPMNAYWNOMRJ-UHFFFAOYSA-N-oBUHPJ-221-B/VEAPMNAYWNOMRJ-UHFFFAOYSA-N-oBUHPJ-221-B.minimised.mol

>  <distance_score>  (605) 
1.265743

>  <energy_score>  (605) 
-22.560496

>  <compound>  (605) 
CVOWFHQURUWITJ-UHFFFAOYSA-N

>  <compound_id>  (605) 
231313

>  <target>  (605) 
Flavi_NS5_RdRp

>  <tags>  (605) 
[]

>  <inspirations>  (605) 
{P Ã— 2}

>  <subsites>  (605) 
None

>  <reference>  (605) 
z0211a

>  <SLURM_JOB_ID>  (605) 
nan

>  <SLURM_JOB_NAME>  (605) 
nan

>  <csv_name>  (605) 
nan

>  <scratch_subdir>  (605) 
nan

>  <fragmenstein_runtime>  (605) 
nan

>  <fragmenstein_outcome>  (605) 
nan

>  <fragmenstein_mode>  (605) 
nan

>  <fragmenstein_error>  (605) 
nan

>  <exports>  (605) 
nan

>  <Multi-SuCOS>  (605) 
nan

>  <merge_set>  (605) 
nan

$$$$
SGUHKCZHDJMNGI-VIFPVBQESA-N
     RDKit          3D

 19 20  0  0  0  0  0  0  0  0999 V2000
  -25.8858  -31.4943  -14.3728 C   0  0  0  0  0  0  0  0  0  0  0  0
  -27.2155  -31.0013  -14.5465 O   0  0  0  0  0  0  0  0  0  0  0  0
  -27.2999  -30.2205  -15.7331 C   0  0  0  0  0  0  0  0  0  0  0  0
  -28.7626  -30.0180  -16.0867 C   0  0  0  0  0  0  0  0  0  0  0  0
  -29.0204  -29.3467  -17.4308 C   0  0  0  0  0  0  0  0  0  0  0  0
  -28.3543  -29.8742  -18.6022 N   0  0  0  0  0  0  0  0  0  0  0  0
  -28.9414  -30.1917  -19.7935 C   0  0  0  0  0  0  0  0  0  0  0  0
  -27.9342  -30.7205  -20.5658 C   0  0  0  0  0  0  0  0  0  0  0  0
  -26.7776  -30.6644  -19.7622 C   0  0  0  0  0  0  0  0  0  0  0  0
  -25.5727  -31.2353  -20.0226 N   0  0  0  0  0  0  0  0  0  0  0  0
  -25.1296  -32.1579  -21.1852 C   0  0  0  0  0  0  0  0  0  0  0  0
  -25.6988  -32.4983  -22.1181 O   0  0  0  0  0  0  0  0  0  0  0  0
  -23.7111  -32.4773  -20.7267 N   0  0  0  0  0  0  0  0  0  0  0  0
  -22.7070  -33.3875  -21.2959 C   0  0  0  0  0  0  0  0  0  0  0  0
  -22.5533  -33.1123  -22.7783 C   0  0  2  0  0  0  0  0  0  0  0  0
  -21.3273  -33.5941  -23.3062 O   0  0  0  0  0  0  0  0  0  0  0  0
  -22.5835  -31.6344  -22.6742 C   0  0  0  0  0  0  0  0  0  0  0  0
  -22.7338  -31.4793  -21.2557 O   0  0  0  0  0  0  0  0  0  0  0  0
  -27.0117  -29.9958  -18.6323 N   0  0  0  0  0  0  0  0  0  0  0  0
  1  2  1  0
  2  3  1  0
  3  4  1  0
  4  5  1  0
  5  6  1  0
  6  7  1  0
  7  8  2  0
  8  9  1  0
  9 10  1  0
 10 11  1  0
 11 12  2  0
 11 13  1  0
 13 14  1  0
 14 15  1  0
 15 16  1  1
 15 17  1  0
 17 18  1  0
  9 19  2  0
 19  6  1  0
 18 13  1  0
M  END
>  <id>  (606) 
421054

>  <inchikey>  (606) 
SGUHKCZHDJMNGI-VIFPVBQESA-N

>  <alias>  (606) 
None

>  <smiles>  (606) 
COCCCn1ccc(NC(=O)N2C[C@H](O)CO2)n1

>  <path>  (606) 
/opt/xchem-fragalysis-2/maxwin/RdRp_FFF/syndirella/mar_elabs/elabs_060/VEAPMNAYWNOMRJ-UHFFFAOYSA-N/output/VEAPMNAYWNOMRJ-UHFFFAOYSA-N-oBUHPJ-286-A/VEAPMNAYWNOMRJ-UHFFFAOYSA-N-oBUHPJ-286-A.minimised.mol

>  <distance_score>  (606) 
1.103503

>  <energy_score>  (606) 
-3.495894

>  <compound>  (606) 
SGUHKCZHDJMNGI-UHFFFAOYSA-N

>  <compound_id>  (606) 
231366

>  <target>  (606) 
Flavi_NS5_RdRp

>  <tags>  (606) 
[]

>  <inspirations>  (606) 
{P Ã— 2}

>  <subsites>  (606) 
None

>  <reference>  (606) 
z0211a

>  <SLURM_JOB_ID>  (606) 
nan

>  <SLURM_JOB_NAME>  (606) 
nan

>  <csv_name>  (606) 
nan

>  <scratch_subdir>  (606) 
nan

>  <fragmenstein_runtime>  (606) 
nan

>  <fragmenstein_outcome>  (606) 
nan

>  <fragmenstein_mode>  (606) 
nan

>  <fragmenstein_error>  (606) 
nan

>  <exports>  (606) 
nan

>  <Multi-SuCOS>  (606) 
nan

>  <merge_set>  (606) 
nan

$$$$
VVIOZNOSKNIVRK-VHSXEESVSA-N
     RDKit          3D

 19 20  0  0  0  0  0  0  0  0999 V2000
  -21.2346  -33.0428  -24.1058 C   0  0  0  0  0  0  0  0  0  0  0  0
  -22.0902  -32.0716  -23.3157 C   0  0  2  0  0  0  0  0  0  0  0  0
  -21.7478  -32.2127  -21.9347 O   0  0  0  0  0  0  0  0  0  0  0  0
  -23.5696  -32.3842  -23.5484 C   0  0  0  0  0  0  0  0  0  0  0  0
  -24.4237  -31.8876  -22.5079 N   0  0  0  0  0  0  0  0  0  0  0  0
  -25.6490  -30.9404  -22.5814 C   0  0  0  0  0  0  0  0  0  0  0  0
  -26.0896  -30.3749  -23.4660 O   0  0  0  0  0  0  0  0  0  0  0  0
  -26.1568  -31.0705  -21.1224 N   0  0  0  0  0  0  0  0  0  0  0  0
  -27.2943  -30.6224  -20.5494 C   0  0  0  0  0  0  0  0  0  0  0  0
  -28.3557  -29.9435  -21.1632 C   0  0  0  0  0  0  0  0  0  0  0  0
  -29.2688  -29.7379  -20.1578 C   0  0  0  0  0  0  0  0  0  0  0  0
  -28.6499  -30.1421  -19.0117 N   0  0  0  0  0  0  0  0  0  0  0  0
  -29.0859  -29.9075  -17.6550 C   0  0  0  0  0  0  0  0  0  0  0  0
  -28.0247  -29.5319  -16.6151 C   0  0  1  0  0  0  0  0  0  0  0  0
  -28.0215  -30.3274  -15.3138 C   0  0  0  0  0  0  0  0  0  0  0  0
  -26.5595  -30.6814  -15.1104 C   0  0  0  0  0  0  0  0  0  0  0  0
  -25.8575  -29.6058  -15.7406 O   0  0  0  0  0  0  0  0  0  0  0  0
  -26.5419  -29.4600  -16.9935 C   0  0  0  0  0  0  0  0  0  0  0  0
  -27.5278  -30.8282  -19.2580 N   0  0  0  0  0  0  0  0  0  0  0  0
  2  1  1  6
  2  3  1  0
  2  4  1  0
  4  5  1  0
  5  6  1  0
  6  7  2  0
  6  8  1  0
  8  9  1  0
  9 10  1  0
 10 11  2  0
 11 12  1  0
 12 13  1  0
 14 13  1  6
 14 15  1  0
 15 16  1  0
 16 17  1  0
 17 18  1  0
 12 19  1  0
 19  9  2  0
 18 14  1  0
M  END
>  <id>  (607) 
421098

>  <inchikey>  (607) 
VVIOZNOSKNIVRK-VHSXEESVSA-N

>  <alias>  (607) 
None

>  <smiles>  (607) 
C[C@H](O)CNC(=O)Nc1ccn(C[C@H]2CCOC2)n1

>  <path>  (607) 
/opt/xchem-fragalysis-2/maxwin/RdRp_FFF/syndirella/mar_elabs/elabs_060/VEAPMNAYWNOMRJ-UHFFFAOYSA-N/output/VEAPMNAYWNOMRJ-UHFFFAOYSA-N-oBUHPJ-353-C/VEAPMNAYWNOMRJ-UHFFFAOYSA-N-oBUHPJ-353-C.minimised.mol

>  <distance_score>  (607) 
0.931929

>  <energy_score>  (607) 
-12.314856

>  <compound>  (607) 
VVIOZNOSKNIVRK-UHFFFAOYSA-N

>  <compound_id>  (607) 
231413

>  <target>  (607) 
Flavi_NS5_RdRp

>  <tags>  (607) 
[]

>  <inspirations>  (607) 
{P Ã— 2}

>  <subsites>  (607) 
None

>  <reference>  (607) 
z0211a

>  <SLURM_JOB_ID>  (607) 
nan

>  <SLURM_JOB_NAME>  (607) 
nan

>  <csv_name>  (607) 
nan

>  <scratch_subdir>  (607) 
nan

>  <fragmenstein_runtime>  (607) 
nan

>  <fragmenstein_outcome>  (607) 
nan

>  <fragmenstein_mode>  (607) 
nan

>  <fragmenstein_error>  (607) 
nan

>  <exports>  (607) 
nan

>  <Multi-SuCOS>  (607) 
nan

>  <merge_set>  (607) 
nan

$$$$
OYBRCFSKSWSXHQ-VIFPVBQESA-N
     RDKit          3D

 19 19  0  0  0  0  0  0  0  0999 V2000
  -26.2359  -31.5228  -14.5327 C   0  0  0  0  0  0  0  0  0  0  0  0
  -27.5190  -30.9412  -14.7780 O   0  0  0  0  0  0  0  0  0  0  0  0
  -27.4406  -30.0478  -15.8858 C   0  0  0  0  0  0  0  0  0  0  0  0
  -28.8179  -29.4924  -16.2100 C   0  0  0  0  0  0  0  0  0  0  0  0
  -29.5841  -30.0343  -17.4053 C   0  0  0  0  0  0  0  0  0  0  0  0
  -28.9423  -30.0563  -18.7023 N   0  0  0  0  0  0  0  0  0  0  0  0
  -29.5860  -29.8301  -19.8871 C   0  0  0  0  0  0  0  0  0  0  0  0
  -28.6235  -29.8929  -20.8582 C   0  0  0  0  0  0  0  0  0  0  0  0
  -27.4677  -30.3421  -20.1966 C   0  0  0  0  0  0  0  0  0  0  0  0
  -26.3297  -30.7329  -20.8270 N   0  0  0  0  0  0  0  0  0  0  0  0
  -25.9436  -30.6795  -22.3359 C   0  0  0  0  0  0  0  0  0  0  0  0
  -26.5025  -30.2324  -23.2232 O   0  0  0  0  0  0  0  0  0  0  0  0
  -24.6243  -31.5034  -22.2914 N   0  0  0  0  0  0  0  0  0  0  0  0
  -23.8019  -32.0065  -23.3631 C   0  0  0  0  0  0  0  0  0  0  0  0
  -22.2894  -32.0151  -23.0949 C   0  0  1  0  0  0  0  0  0  0  0  0
  -21.9778  -31.6136  -21.7593 O   0  0  0  0  0  0  0  0  0  0  0  0
  -21.6298  -33.3600  -23.3940 C   0  0  0  0  0  0  0  0  0  0  0  0
  -22.3330  -34.7042  -22.4448 Cl  0  0  0  0  0  0  0  0  0  0  0  0
  -27.6453  -30.3955  -18.8761 N   0  0  0  0  0  0  0  0  0  0  0  0
  1  2  1  0
  2  3  1  0
  3  4  1  0
  4  5  1  0
  5  6  1  0
  6  7  1  0
  7  8  2  0
  8  9  1  0
  9 10  1  0
 10 11  1  0
 11 12  2  0
 11 13  1  0
 13 14  1  0
 14 15  1  0
 15 16  1  1
 15 17  1  0
 17 18  1  0
  9 19  2  0
 19  6  1  0
M  END
>  <id>  (608) 
421138

>  <inchikey>  (608) 
OYBRCFSKSWSXHQ-VIFPVBQESA-N

>  <alias>  (608) 
None

>  <smiles>  (608) 
COCCCn1ccc(NC(=O)NC[C@@H](O)CCl)n1

>  <path>  (608) 
/opt/xchem-fragalysis-2/maxwin/RdRp_FFF/syndirella/mar_elabs/elabs_060/VEAPMNAYWNOMRJ-UHFFFAOYSA-N/output/VEAPMNAYWNOMRJ-UHFFFAOYSA-N-oBUHPJ-383-B/VEAPMNAYWNOMRJ-UHFFFAOYSA-N-oBUHPJ-383-B.minimised.mol

>  <distance_score>  (608) 
0.756569

>  <energy_score>  (608) 
-19.409369

>  <compound>  (608) 
OYBRCFSKSWSXHQ-UHFFFAOYSA-N

>  <compound_id>  (608) 
231438

>  <target>  (608) 
Flavi_NS5_RdRp

>  <tags>  (608) 
[]

>  <inspirations>  (608) 
{P Ã— 2}

>  <subsites>  (608) 
None

>  <reference>  (608) 
z0211a

>  <SLURM_JOB_ID>  (608) 
nan

>  <SLURM_JOB_NAME>  (608) 
nan

>  <csv_name>  (608) 
nan

>  <scratch_subdir>  (608) 
nan

>  <fragmenstein_runtime>  (608) 
nan

>  <fragmenstein_outcome>  (608) 
nan

>  <fragmenstein_mode>  (608) 
nan

>  <fragmenstein_error>  (608) 
nan

>  <exports>  (608) 
nan

>  <Multi-SuCOS>  (608) 
nan

>  <merge_set>  (608) 
nan

$$$$
AYPOUXSWBAOBSX-VIFPVBQESA-N
     RDKit          3D

 19 19  0  0  0  0  0  0  0  0999 V2000
  -25.7131  -31.4671  -14.4182 C   0  0  0  0  0  0  0  0  0  0  0  0
  -27.0678  -31.0306  -14.5176 O   0  0  0  0  0  0  0  0  0  0  0  0
  -27.2638  -30.2508  -15.6908 C   0  0  0  0  0  0  0  0  0  0  0  0
  -28.7570  -30.1036  -15.9113 C   0  0  0  0  0  0  0  0  0  0  0  0
  -29.1578  -29.4028  -17.1968 C   0  0  0  0  0  0  0  0  0  0  0  0
  -28.6463  -29.8893  -18.4599 N   0  0  0  0  0  0  0  0  0  0  0  0
  -29.3714  -29.9581  -19.6169 C   0  0  0  0  0  0  0  0  0  0  0  0
  -28.4566  -30.1557  -20.6164 C   0  0  0  0  0  0  0  0  0  0  0  0
  -27.2224  -30.3170  -19.9621 C   0  0  0  0  0  0  0  0  0  0  0  0
  -26.0691  -30.6756  -20.5790 N   0  0  0  0  0  0  0  0  0  0  0  0
  -25.7363  -30.8075  -22.0920 C   0  0  0  0  0  0  0  0  0  0  0  0
  -26.3656  -30.5592  -23.0069 O   0  0  0  0  0  0  0  0  0  0  0  0
  -24.3344  -31.4655  -21.9886 N   0  0  0  0  0  0  0  0  0  0  0  0
  -23.4871  -32.0288  -23.0156 C   0  0  0  0  0  0  0  0  0  0  0  0
  -22.1110  -32.4323  -22.4929 C   0  0  2  0  0  0  0  0  0  0  0  0
  -21.4332  -31.3078  -21.9207 O   0  0  0  0  0  0  0  0  0  0  0  0
  -21.2163  -32.9932  -23.5972 C   0  0  0  0  0  0  0  0  0  0  0  0
  -20.8121  -31.9511  -24.4860 O   0  0  0  0  0  0  0  0  0  0  0  0
  -27.3243  -30.0963  -18.6521 N   0  0  0  0  0  0  0  0  0  0  0  0
  1  2  1  0
  2  3  1  0
  3  4  1  0
  4  5  1  0
  5  6  1  0
  6  7  1  0
  7  8  2  0
  8  9  1  0
  9 10  1  0
 10 11  1  0
 11 12  2  0
 11 13  1  0
 13 14  1  0
 14 15  1  0
 15 16  1  6
 15 17  1  0
 17 18  1  0
  9 19  2  0
 19  6  1  0
M  END
>  <id>  (609) 
421145

>  <inchikey>  (609) 
AYPOUXSWBAOBSX-VIFPVBQESA-N

>  <alias>  (609) 
None

>  <smiles>  (609) 
COCCCn1ccc(NC(=O)NC[C@H](O)CO)n1

>  <path>  (609) 
/opt/xchem-fragalysis-2/maxwin/RdRp_FFF/syndirella/mar_elabs/elabs_060/VEAPMNAYWNOMRJ-UHFFFAOYSA-N/output/VEAPMNAYWNOMRJ-UHFFFAOYSA-N-oBUHPJ-389-A/VEAPMNAYWNOMRJ-UHFFFAOYSA-N-oBUHPJ-389-A.minimised.mol

>  <distance_score>  (609) 
0.672601

>  <energy_score>  (609) 
-26.509743

>  <compound>  (609) 
AYPOUXSWBAOBSX-UHFFFAOYSA-N

>  <compound_id>  (609) 
231444

>  <target>  (609) 
Flavi_NS5_RdRp

>  <tags>  (609) 
[]

>  <inspirations>  (609) 
{P Ã— 2}

>  <subsites>  (609) 
None

>  <reference>  (609) 
z0211a

>  <SLURM_JOB_ID>  (609) 
nan

>  <SLURM_JOB_NAME>  (609) 
nan

>  <csv_name>  (609) 
nan

>  <scratch_subdir>  (609) 
nan

>  <fragmenstein_runtime>  (609) 
nan

>  <fragmenstein_outcome>  (609) 
nan

>  <fragmenstein_mode>  (609) 
nan

>  <fragmenstein_error>  (609) 
nan

>  <exports>  (609) 
nan

>  <Multi-SuCOS>  (609) 
nan

>  <merge_set>  (609) 
nan

$$$$
CPSYQIVDPOXQPY-JTQLQIEISA-N
     RDKit          3D

 19 19  0  0  0  0  0  0  0  0999 V2000
  -21.1240  -32.8536  -24.9059 C   0  0  0  0  0  0  0  0  0  0  0  0
  -21.1861  -33.1566  -23.4232 C   0  0  0  0  0  0  0  0  0  0  0  0
  -21.9464  -32.1087  -22.6064 C   0  0  2  0  0  0  0  0  0  0  0  0
  -21.7875  -32.4414  -21.2239 O   0  0  0  0  0  0  0  0  0  0  0  0
  -23.4312  -32.0659  -22.9698 C   0  0  0  0  0  0  0  0  0  0  0  0
  -24.2832  -31.4853  -21.9656 N   0  0  0  0  0  0  0  0  0  0  0  0
  -25.6911  -30.8440  -22.0910 C   0  0  0  0  0  0  0  0  0  0  0  0
  -26.3199  -30.6270  -23.0142 O   0  0  0  0  0  0  0  0  0  0  0  0
  -26.0321  -30.6800  -20.5836 N   0  0  0  0  0  0  0  0  0  0  0  0
  -27.1935  -30.3226  -19.9799 C   0  0  0  0  0  0  0  0  0  0  0  0
  -28.4228  -30.1465  -20.6416 C   0  0  0  0  0  0  0  0  0  0  0  0
  -29.3455  -29.9555  -19.6461 C   0  0  0  0  0  0  0  0  0  0  0  0
  -28.6307  -29.9167  -18.4809 N   0  0  0  0  0  0  0  0  0  0  0  0
  -29.1545  -29.4769  -17.2043 C   0  0  0  0  0  0  0  0  0  0  0  0
  -28.5731  -30.0417  -15.9124 C   0  0  0  0  0  0  0  0  0  0  0  0
  -27.0550  -30.0149  -15.8466 C   0  0  0  0  0  0  0  0  0  0  0  0
  -26.5984  -30.2973  -14.5318 O   0  0  0  0  0  0  0  0  0  0  0  0
  -26.2242  -31.6594  -14.3666 C   0  0  0  0  0  0  0  0  0  0  0  0
  -27.3123  -30.1335  -18.6681 N   0  0  0  0  0  0  0  0  0  0  0  0
  1  2  1  0
  2  3  1  0
  3  4  1  1
  3  5  1  0
  5  6  1  0
  6  7  1  0
  7  8  2  0
  7  9  1  0
  9 10  1  0
 10 11  1  0
 11 12  2  0
 12 13  1  0
 13 14  1  0
 14 15  1  0
 15 16  1  0
 16 17  1  0
 17 18  1  0
 13 19  1  0
 19 10  2  0
M  END
>  <id>  (610) 
421149

>  <inchikey>  (610) 
CPSYQIVDPOXQPY-JTQLQIEISA-N

>  <alias>  (610) 
None

>  <smiles>  (610) 
CC[C@H](O)CNC(=O)Nc1ccn(CCCOC)n1

>  <path>  (610) 
/opt/xchem-fragalysis-2/maxwin/RdRp_FFF/syndirella/mar_elabs/elabs_060/VEAPMNAYWNOMRJ-UHFFFAOYSA-N/output/VEAPMNAYWNOMRJ-UHFFFAOYSA-N-oBUHPJ-391-A/VEAPMNAYWNOMRJ-UHFFFAOYSA-N-oBUHPJ-391-A.minimised.mol

>  <distance_score>  (610) 
0.792774

>  <energy_score>  (610) 
-32.163681

>  <compound>  (610) 
CPSYQIVDPOXQPY-UHFFFAOYSA-N

>  <compound_id>  (610) 
231446

>  <target>  (610) 
Flavi_NS5_RdRp

>  <tags>  (610) 
[]

>  <inspirations>  (610) 
{P Ã— 2}

>  <subsites>  (610) 
None

>  <reference>  (610) 
z0211a

>  <SLURM_JOB_ID>  (610) 
nan

>  <SLURM_JOB_NAME>  (610) 
nan

>  <csv_name>  (610) 
nan

>  <scratch_subdir>  (610) 
nan

>  <fragmenstein_runtime>  (610) 
nan

>  <fragmenstein_outcome>  (610) 
nan

>  <fragmenstein_mode>  (610) 
nan

>  <fragmenstein_error>  (610) 
nan

>  <exports>  (610) 
nan

>  <Multi-SuCOS>  (610) 
nan

>  <merge_set>  (610) 
nan

$$$$
SNVZUEOHTVDKNF-VIFPVBQESA-N
     RDKit          3D

 19 19  0  0  0  0  0  0  0  0999 V2000
  -25.8396  -31.4989  -14.3928 C   0  0  0  0  0  0  0  0  0  0  0  0
  -27.1797  -31.0245  -14.5364 O   0  0  0  0  0  0  0  0  0  0  0  0
  -27.3039  -30.2337  -15.7116 C   0  0  0  0  0  0  0  0  0  0  0  0
  -28.7797  -30.0363  -16.0067 C   0  0  0  0  0  0  0  0  0  0  0  0
  -29.0900  -29.3281  -17.3178 C   0  0  0  0  0  0  0  0  0  0  0  0
  -28.4383  -29.8138  -18.5136 N   0  0  0  0  0  0  0  0  0  0  0  0
  -29.0559  -30.2292  -19.6572 C   0  0  0  0  0  0  0  0  0  0  0  0
  -28.0489  -30.7172  -20.4534 C   0  0  0  0  0  0  0  0  0  0  0  0
  -26.8617  -30.5184  -19.7197 C   0  0  0  0  0  0  0  0  0  0  0  0
  -25.6326  -30.9969  -20.0421 N   0  0  0  0  0  0  0  0  0  0  0  0
  -25.1988  -31.9854  -21.1630 C   0  0  0  0  0  0  0  0  0  0  0  0
  -25.8078  -32.4614  -22.0007 O   0  0  0  0  0  0  0  0  0  0  0  0
  -23.7059  -32.1796  -20.7715 N   0  0  0  0  0  0  0  0  0  0  0  0
  -22.6604  -32.9406  -21.4179 C   0  0  0  0  0  0  0  0  0  0  0  0
  -22.1476  -32.2337  -22.6778 C   0  0  1  0  0  0  0  0  0  0  0  0
  -21.2452  -31.2071  -22.2527 O   0  0  0  0  0  0  0  0  0  0  0  0
  -21.3904  -33.1969  -23.5801 C   0  0  0  0  0  0  0  0  0  0  0  0
  -21.1799  -32.6173  -24.7982 F   0  0  0  0  0  0  0  0  0  0  0  0
  -27.0904  -29.8136  -18.6102 N   0  0  0  0  0  0  0  0  0  0  0  0
  1  2  1  0
  2  3  1  0
  3  4  1  0
  4  5  1  0
  5  6  1  0
  6  7  1  0
  7  8  2  0
  8  9  1  0
  9 10  1  0
 10 11  1  0
 11 12  2  0
 11 13  1  0
 13 14  1  0
 14 15  1  0
 15 16  1  1
 15 17  1  0
 17 18  1  0
  9 19  2  0
 19  6  1  0
M  END
>  <id>  (611) 
421159

>  <inchikey>  (611) 
SNVZUEOHTVDKNF-VIFPVBQESA-N

>  <alias>  (611) 
None

>  <smiles>  (611) 
COCCCn1ccc(NC(=O)NC[C@@H](O)CF)n1

>  <path>  (611) 
/opt/xchem-fragalysis-2/maxwin/RdRp_FFF/syndirella/mar_elabs/elabs_060/VEAPMNAYWNOMRJ-UHFFFAOYSA-N/output/VEAPMNAYWNOMRJ-UHFFFAOYSA-N-oBUHPJ-398-B/VEAPMNAYWNOMRJ-UHFFFAOYSA-N-oBUHPJ-398-B.minimised.mol

>  <distance_score>  (611) 
0.992171

>  <energy_score>  (611) 
-20.162221

>  <compound>  (611) 
SNVZUEOHTVDKNF-UHFFFAOYSA-N

>  <compound_id>  (611) 
231453

>  <target>  (611) 
Flavi_NS5_RdRp

>  <tags>  (611) 
[]

>  <inspirations>  (611) 
{P Ã— 2}

>  <subsites>  (611) 
None

>  <reference>  (611) 
z0211a

>  <SLURM_JOB_ID>  (611) 
nan

>  <SLURM_JOB_NAME>  (611) 
nan

>  <csv_name>  (611) 
nan

>  <scratch_subdir>  (611) 
nan

>  <fragmenstein_runtime>  (611) 
nan

>  <fragmenstein_outcome>  (611) 
nan

>  <fragmenstein_mode>  (611) 
nan

>  <fragmenstein_error>  (611) 
nan

>  <exports>  (611) 
nan

>  <Multi-SuCOS>  (611) 
nan

>  <merge_set>  (611) 
nan

$$$$
DJMFLQRRUMYMEE-IUCAKERBSA-N
     RDKit          3D

 20 21  0  0  0  0  0  0  0  0999 V2000
  -20.9901  -31.6496  -21.5330 C   0  0  0  0  0  0  0  0  0  0  0  0
  -21.0089  -32.2590  -22.9265 C   0  0  0  0  0  0  0  0  0  0  0  0
  -22.2070  -33.1668  -23.1700 C   0  0  2  0  0  0  0  0  0  0  0  0
  -21.8398  -34.1333  -24.1536 O   0  0  0  0  0  0  0  0  0  0  0  0
  -23.4207  -32.4316  -23.7721 C   0  0  0  0  0  0  0  0  0  0  0  0
  -23.6189  -32.4759  -24.9871 N   0  0  0  0  0  0  0  0  0  0  0  0
  -24.2217  -31.8305  -22.6485 N   0  0  0  0  0  0  0  0  0  0  0  0
  -25.5726  -30.9364  -22.6314 C   0  0  0  0  0  0  0  0  0  0  0  0
  -26.1986  -30.4845  -23.4866 O   0  0  0  0  0  0  0  0  0  0  0  0
  -25.8148  -30.9571  -21.1842 N   0  0  0  0  0  0  0  0  0  0  0  0
  -26.8721  -30.5357  -20.4642 C   0  0  0  0  0  0  0  0  0  0  0  0
  -28.1202  -30.0716  -20.9058 C   0  0  0  0  0  0  0  0  0  0  0  0
  -28.8245  -29.8145  -19.7528 C   0  0  0  0  0  0  0  0  0  0  0  0
  -27.9444  -30.0220  -18.7280 N   0  0  0  0  0  0  0  0  0  0  0  0
  -28.0216  -29.4612  -17.4020 C   0  0  1  0  0  0  0  0  0  0  0  0
  -29.2053  -29.8560  -16.5420 C   0  0  0  0  0  0  0  0  0  0  0  0
  -28.6022  -30.2013  -15.1962 C   0  0  0  0  0  0  0  0  0  0  0  0
  -27.2751  -29.6880  -15.1747 O   0  0  0  0  0  0  0  0  0  0  0  0
  -26.8028  -29.7225  -16.5224 C   0  0  0  0  0  0  0  0  0  0  0  0
  -26.7860  -30.5568  -19.1405 N   0  0  0  0  0  0  0  0  0  0  0  0
  1  2  1  0
  2  3  1  0
  3  4  1  6
  3  5  1  0
  5  6  2  3
  5  7  1  0
  7  8  1  0
  8  9  2  0
  8 10  1  0
 10 11  1  0
 11 12  1  0
 12 13  2  0
 13 14  1  0
 15 14  1  6
 15 16  1  0
 16 17  1  0
 17 18  1  0
 18 19  1  0
 14 20  1  0
 20 11  2  0
 19 15  1  0
M  END
>  <id>  (612) 
422849

>  <inchikey>  (612) 
DJMFLQRRUMYMEE-IUCAKERBSA-N

>  <alias>  (612) 
None

>  <smiles>  (612) 
CC[C@H](O)C(=N)NC(=O)Nc1ccn([C@H]2CCOC2)n1

>  <path>  (612) 
/opt/xchem-fragalysis-2/maxwin/RdRp_FFF/syndirella/mar_elabs/elabs_060/VEAPMNAYWNOMRJ-UHFFFAOYSA-N/output/VEAPMNAYWNOMRJ-UHFFFAOYSA-N-oBUHPJ-2112-C/VEAPMNAYWNOMRJ-UHFFFAOYSA-N-oBUHPJ-2112-C.minimised.mol

>  <distance_score>  (612) 
1.347615

>  <energy_score>  (612) 
-21.135358

>  <compound>  (612) 
DJMFLQRRUMYMEE-UHFFFAOYSA-N

>  <compound_id>  (612) 
232627

>  <target>  (612) 
Flavi_NS5_RdRp

>  <tags>  (612) 
[]

>  <inspirations>  (612) 
{P Ã— 2}

>  <subsites>  (612) 
None

>  <reference>  (612) 
z0211a

>  <SLURM_JOB_ID>  (612) 
nan

>  <SLURM_JOB_NAME>  (612) 
nan

>  <csv_name>  (612) 
nan

>  <scratch_subdir>  (612) 
nan

>  <fragmenstein_runtime>  (612) 
nan

>  <fragmenstein_outcome>  (612) 
nan

>  <fragmenstein_mode>  (612) 
nan

>  <fragmenstein_error>  (612) 
nan

>  <exports>  (612) 
nan

>  <Multi-SuCOS>  (612) 
nan

>  <merge_set>  (612) 
nan

$$$$
PWJRRENNXWYUBN-JTQLQIEISA-N
     RDKit          3D

 20 20  0  0  0  0  0  0  0  0999 V2000
  -26.2231  -31.6583  -14.3680 C   0  0  0  0  0  0  0  0  0  0  0  0
  -26.5935  -30.2948  -14.5312 O   0  0  0  0  0  0  0  0  0  0  0  0
  -27.0760  -30.0150  -15.8371 C   0  0  0  0  0  0  0  0  0  0  0  0
  -28.5951  -30.0558  -15.8778 C   0  0  0  0  0  0  0  0  0  0  0  0
  -29.2061  -29.4890  -17.1556 C   0  0  0  0  0  0  0  0  0  0  0  0
  -28.7027  -29.9205  -18.4428 N   0  0  0  0  0  0  0  0  0  0  0  0
  -29.4285  -29.9440  -19.6018 C   0  0  0  0  0  0  0  0  0  0  0  0
  -28.5148  -30.1143  -20.6097 C   0  0  0  0  0  0  0  0  0  0  0  0
  -27.2852  -30.3150  -19.9598 C   0  0  0  0  0  0  0  0  0  0  0  0
  -26.1291  -30.6767  -20.5659 N   0  0  0  0  0  0  0  0  0  0  0  0
  -25.7805  -30.7992  -22.0740 C   0  0  0  0  0  0  0  0  0  0  0  0
  -26.3974  -30.5392  -22.9940 O   0  0  0  0  0  0  0  0  0  0  0  0
  -24.3879  -31.4739  -21.9594 N   0  0  0  0  0  0  0  0  0  0  0  0
  -23.5390  -32.0409  -22.9775 C   0  0  0  0  0  0  0  0  0  0  0  0
  -22.1453  -32.4147  -22.4815 C   0  0  2  0  0  0  0  0  0  0  0  0
  -21.3274  -31.2699  -22.2431 O   0  0  0  0  0  0  0  0  0  0  0  0
  -21.3993  -33.3916  -23.3980 C   0  0  0  0  0  0  0  0  0  0  0  0
  -21.2824  -32.9555  -25.1717 S   0  0  0  0  0  0  0  0  0  0  0  0
  -22.6423  -33.9495  -25.8343 C   0  0  0  0  0  0  0  0  0  0  0  0
  -27.3899  -30.1466  -18.6454 N   0  0  0  0  0  0  0  0  0  0  0  0
  1  2  1  0
  2  3  1  0
  3  4  1  0
  4  5  1  0
  5  6  1  0
  6  7  1  0
  7  8  2  0
  8  9  1  0
  9 10  1  0
 10 11  1  0
 11 12  2  0
 11 13  1  0
 13 14  1  0
 14 15  1  0
 15 16  1  6
 15 17  1  0
 17 18  1  0
 18 19  1  0
  9 20  2  0
 20  6  1  0
M  END
>  <id>  (613) 
422860

>  <inchikey>  (613) 
PWJRRENNXWYUBN-JTQLQIEISA-N

>  <alias>  (613) 
None

>  <smiles>  (613) 
COCCCn1ccc(NC(=O)NC[C@H](O)CSC)n1

>  <path>  (613) 
/opt/xchem-fragalysis-2/maxwin/RdRp_FFF/syndirella/mar_elabs/elabs_060/VEAPMNAYWNOMRJ-UHFFFAOYSA-N/output/VEAPMNAYWNOMRJ-UHFFFAOYSA-N-oBUHPJ-2118-A/VEAPMNAYWNOMRJ-UHFFFAOYSA-N-oBUHPJ-2118-A.minimised.mol

>  <distance_score>  (613) 
0.767753

>  <energy_score>  (613) 
-17.818993

>  <compound>  (613) 
PWJRRENNXWYUBN-UHFFFAOYSA-N

>  <compound_id>  (613) 
232633

>  <target>  (613) 
Flavi_NS5_RdRp

>  <tags>  (613) 
[]

>  <inspirations>  (613) 
{P Ã— 2}

>  <subsites>  (613) 
None

>  <reference>  (613) 
z0211a

>  <SLURM_JOB_ID>  (613) 
nan

>  <SLURM_JOB_NAME>  (613) 
nan

>  <csv_name>  (613) 
nan

>  <scratch_subdir>  (613) 
nan

>  <fragmenstein_runtime>  (613) 
nan

>  <fragmenstein_outcome>  (613) 
nan

>  <fragmenstein_mode>  (613) 
nan

>  <fragmenstein_error>  (613) 
nan

>  <exports>  (613) 
nan

>  <Multi-SuCOS>  (613) 
nan

>  <merge_set>  (613) 
nan

$$$$
YPASUEHATVQHIL-CYBMUJFWSA-N
     RDKit          3D

 20 20  0  0  0  0  0  0  0  0999 V2000
  -21.1525  -32.7411  -24.7139 C   0  0  0  0  0  0  0  0  0  0  0  0
  -21.2166  -33.2967  -23.3022 C   0  0  0  0  0  0  0  0  0  0  0  0
  -21.9394  -32.4052  -22.2756 C   0  0  1  0  0  0  0  0  0  0  0  0
  -21.8836  -33.1025  -20.9089 C   0  0  0  0  0  0  0  0  0  0  0  0
  -21.1884  -31.1988  -22.1500 O   0  0  0  0  0  0  0  0  0  0  0  0
  -23.3859  -32.1341  -22.7254 C   0  0  0  0  0  0  0  0  0  0  0  0
  -24.2551  -31.5098  -21.7616 N   0  0  0  0  0  0  0  0  0  0  0  0
  -25.6651  -30.8912  -21.9351 C   0  0  0  0  0  0  0  0  0  0  0  0
  -26.2851  -30.7295  -22.8740 O   0  0  0  0  0  0  0  0  0  0  0  0
  -26.0234  -30.6522  -20.4449 N   0  0  0  0  0  0  0  0  0  0  0  0
  -27.1925  -30.2762  -19.8739 C   0  0  0  0  0  0  0  0  0  0  0  0
  -28.4216  -30.1797  -20.5519 C   0  0  0  0  0  0  0  0  0  0  0  0
  -29.3545  -29.9593  -19.5728 C   0  0  0  0  0  0  0  0  0  0  0  0
  -28.6470  -29.8385  -18.4096 N   0  0  0  0  0  0  0  0  0  0  0  0
  -29.1856  -29.3810  -17.1483 C   0  0  0  0  0  0  0  0  0  0  0  0
  -28.7943  -30.1138  -15.8784 C   0  0  0  0  0  0  0  0  0  0  0  0
  -27.3035  -30.2707  -15.6453 C   0  0  0  0  0  0  0  0  0  0  0  0
  -27.1301  -31.0928  -14.4991 O   0  0  0  0  0  0  0  0  0  0  0  0
  -25.7722  -31.5148  -14.3758 C   0  0  0  0  0  0  0  0  0  0  0  0
  -27.3182  -29.9970  -18.5796 N   0  0  0  0  0  0  0  0  0  0  0  0
  1  2  1  0
  2  3  1  0
  3  4  1  1
  3  5  1  0
  3  6  1  0
  6  7  1  0
  7  8  1  0
  8  9  2  0
  8 10  1  0
 10 11  1  0
 11 12  1  0
 12 13  2  0
 13 14  1  0
 14 15  1  0
 15 16  1  0
 16 17  1  0
 17 18  1  0
 18 19  1  0
 14 20  1  0
 20 11  2  0
M  END
>  <id>  (614) 
422868

>  <inchikey>  (614) 
YPASUEHATVQHIL-CYBMUJFWSA-N

>  <alias>  (614) 
None

>  <smiles>  (614) 
CC[C@@](C)(O)CNC(=O)Nc1ccn(CCCOC)n1

>  <path>  (614) 
/opt/xchem-fragalysis-2/maxwin/RdRp_FFF/syndirella/mar_elabs/elabs_060/VEAPMNAYWNOMRJ-UHFFFAOYSA-N/output/VEAPMNAYWNOMRJ-UHFFFAOYSA-N-oBUHPJ-2121-B/VEAPMNAYWNOMRJ-UHFFFAOYSA-N-oBUHPJ-2121-B.minimised.mol

>  <distance_score>  (614) 
0.687785

>  <energy_score>  (614) 
-42.090236

>  <compound>  (614) 
YPASUEHATVQHIL-UHFFFAOYSA-N

>  <compound_id>  (614) 
232636

>  <target>  (614) 
Flavi_NS5_RdRp

>  <tags>  (614) 
[]

>  <inspirations>  (614) 
{P Ã— 2}

>  <subsites>  (614) 
None

>  <reference>  (614) 
z0211a

>  <SLURM_JOB_ID>  (614) 
nan

>  <SLURM_JOB_NAME>  (614) 
nan

>  <csv_name>  (614) 
nan

>  <scratch_subdir>  (614) 
nan

>  <fragmenstein_runtime>  (614) 
nan

>  <fragmenstein_outcome>  (614) 
nan

>  <fragmenstein_mode>  (614) 
nan

>  <fragmenstein_error>  (614) 
nan

>  <exports>  (614) 
nan

>  <Multi-SuCOS>  (614) 
nan

>  <merge_set>  (614) 
nan

$$$$
CLEMCFUSLUUMNP-UHFFFAOYSA-N
     RDKit          3D

 20 20  0  0  0  0  0  0  0  0999 V2000
  -24.9050  -31.2528  -15.6359 C   0  0  0  0  0  0  0  0  0  0  0  0
  -26.3241  -31.2190  -15.5922 O   0  0  0  0  0  0  0  0  0  0  0  0
  -26.8308  -29.8960  -15.5397 C   0  0  0  0  0  0  0  0  0  0  0  0
  -28.3367  -29.9308  -15.7682 C   0  0  0  0  0  0  0  0  0  0  0  0
  -28.8077  -29.3482  -17.0993 C   0  0  0  0  0  0  0  0  0  0  0  0
  -28.2920  -29.9079  -18.3275 N   0  0  0  0  0  0  0  0  0  0  0  0
  -29.0680  -30.2834  -19.3859 C   0  0  0  0  0  0  0  0  0  0  0  0
  -28.1963  -30.8087  -20.3005 C   0  0  0  0  0  0  0  0  0  0  0  0
  -26.9137  -30.6766  -19.7265 C   0  0  0  0  0  0  0  0  0  0  0  0
  -25.7842  -31.1988  -20.2766 N   0  0  0  0  0  0  0  0  0  0  0  0
  -25.6106  -32.1734  -21.3816 C   0  0  0  0  0  0  0  0  0  0  0  0
  -26.3974  -32.7698  -21.9766 O   0  0  0  0  0  0  0  0  0  0  0  0
  -24.0016  -32.0585  -21.5603 N   0  0  0  0  0  0  0  0  0  0  0  0
  -23.0533  -32.6070  -22.6155 C   0  0  0  0  0  0  0  0  0  0  0  0
  -23.2474  -33.3595  -23.5757 N   0  0  0  0  0  0  0  0  0  0  0  0
  -21.5585  -32.0941  -22.3895 C   0  0  0  0  0  0  0  0  0  0  0  0
  -20.6077  -33.2850  -22.5400 C   0  0  0  0  0  0  0  0  0  0  0  0
  -21.2353  -31.4549  -21.0490 C   0  0  0  0  0  0  0  0  0  0  0  0
  -21.2111  -31.1874  -23.4399 O   0  0  0  0  0  0  0  0  0  0  0  0
  -26.9625  -29.9746  -18.5923 N   0  0  0  0  0  0  0  0  0  0  0  0
  1  2  1  0
  2  3  1  0
  3  4  1  0
  4  5  1  0
  5  6  1  0
  6  7  1  0
  7  8  2  0
  8  9  1  0
  9 10  1  0
 10 11  1  0
 11 12  2  0
 11 13  1  0
 13 14  1  0
 14 15  2  3
 14 16  1  0
 16 17  1  0
 16 18  1  0
 16 19  1  0
  9 20  2  0
 20  6  1  0
M  END
>  <id>  (615) 
422869

>  <inchikey>  (615) 
CLEMCFUSLUUMNP-UHFFFAOYSA-N

>  <alias>  (615) 
None

>  <smiles>  (615) 
COCCCn1ccc(NC(=O)NC(=N)C(C)(C)O)n1

>  <path>  (615) 
/opt/xchem-fragalysis-2/maxwin/RdRp_FFF/syndirella/mar_elabs/elabs_060/VEAPMNAYWNOMRJ-UHFFFAOYSA-N/output/VEAPMNAYWNOMRJ-UHFFFAOYSA-N-oBUHPJ-2122-A/VEAPMNAYWNOMRJ-UHFFFAOYSA-N-oBUHPJ-2122-A.minimised.mol

>  <distance_score>  (615) 
1.177857

>  <energy_score>  (615) 
-21.576836

>  <compound>  (615) 
CLEMCFUSLUUMNP-UHFFFAOYSA-N

>  <compound_id>  (615) 
232637

>  <target>  (615) 
Flavi_NS5_RdRp

>  <tags>  (615) 
[]

>  <inspirations>  (615) 
{P Ã— 2}

>  <subsites>  (615) 
None

>  <reference>  (615) 
z0211a

>  <SLURM_JOB_ID>  (615) 
nan

>  <SLURM_JOB_NAME>  (615) 
nan

>  <csv_name>  (615) 
nan

>  <scratch_subdir>  (615) 
nan

>  <fragmenstein_runtime>  (615) 
nan

>  <fragmenstein_outcome>  (615) 
nan

>  <fragmenstein_mode>  (615) 
nan

>  <fragmenstein_error>  (615) 
nan

>  <exports>  (615) 
nan

>  <Multi-SuCOS>  (615) 
nan

>  <merge_set>  (615) 
nan

$$$$
NUSHRTQLSUSCIP-BDAKNGLRSA-N
     RDKit          3D

 20 21  0  0  0  0  0  0  0  0999 V2000
  -21.5604  -34.7872  -20.1435 C   0  0  0  0  0  0  0  0  0  0  0  0
  -22.1057  -33.7427  -20.9419 O   0  0  0  0  0  0  0  0  0  0  0  0
  -21.6614  -33.7808  -22.3085 C   0  0  2  0  0  0  0  0  0  0  0  0
  -20.4003  -32.9369  -22.4157 C   0  0  0  0  0  0  0  0  0  0  0  0
  -22.7591  -33.1964  -23.2359 C   0  0  0  0  0  0  0  0  0  0  0  0
  -22.7497  -33.3157  -24.7935 S   0  0  0  0  0  0  0  0  0  0  0  0
  -23.7658  -32.5065  -22.2182 N   0  0  0  0  0  0  0  0  0  0  0  0
  -25.0846  -31.5866  -22.4281 C   0  0  0  0  0  0  0  0  0  0  0  0
  -25.6538  -31.2783  -23.3763 O   0  0  0  0  0  0  0  0  0  0  0  0
  -25.3910  -31.3441  -21.0161 N   0  0  0  0  0  0  0  0  0  0  0  0
  -26.4656  -30.7733  -20.4346 C   0  0  0  0  0  0  0  0  0  0  0  0
  -27.6654  -30.3141  -21.0051 C   0  0  0  0  0  0  0  0  0  0  0  0
  -28.4147  -29.8658  -19.9385 C   0  0  0  0  0  0  0  0  0  0  0  0
  -27.6308  -30.0462  -18.8335 N   0  0  0  0  0  0  0  0  0  0  0  0
  -27.7957  -29.4407  -17.5350 C   0  0  1  0  0  0  0  0  0  0  0  0
  -29.0590  -29.7625  -16.7574 C   0  0  0  0  0  0  0  0  0  0  0  0
  -28.5759  -30.1229  -15.3661 C   0  0  0  0  0  0  0  0  0  0  0  0
  -27.2397  -29.6464  -15.2455 O   0  0  0  0  0  0  0  0  0  0  0  0
  -26.6635  -29.7314  -16.5508 C   0  0  0  0  0  0  0  0  0  0  0  0
  -26.4630  -30.6345  -19.1159 N   0  0  0  0  0  0  0  0  0  0  0  0
  1  2  1  0
  2  3  1  0
  3  4  1  1
  3  5  1  0
  5  6  2  0
  5  7  1  0
  7  8  1  0
  8  9  2  0
  8 10  1  0
 10 11  1  0
 11 12  1  0
 12 13  2  0
 13 14  1  0
 15 14  1  6
 15 16  1  0
 16 17  1  0
 17 18  1  0
 18 19  1  0
 14 20  1  0
 20 11  2  0
 19 15  1  0
M  END
>  <id>  (616) 
422940

>  <inchikey>  (616) 
NUSHRTQLSUSCIP-BDAKNGLRSA-N

>  <alias>  (616) 
None

>  <smiles>  (616) 
CO[C@H](C)C(=S)NC(=O)Nc1ccn([C@H]2CCOC2)n1

>  <path>  (616) 
/opt/xchem-fragalysis-2/maxwin/RdRp_FFF/syndirella/mar_elabs/elabs_060/VEAPMNAYWNOMRJ-UHFFFAOYSA-N/output/VEAPMNAYWNOMRJ-UHFFFAOYSA-N-oBUHPJ-2197-A/VEAPMNAYWNOMRJ-UHFFFAOYSA-N-oBUHPJ-2197-A.minimised.mol

>  <distance_score>  (616) 
1.226572

>  <energy_score>  (616) 
-29.283529

>  <compound>  (616) 
NUSHRTQLSUSCIP-UHFFFAOYSA-N

>  <compound_id>  (616) 
232699

>  <target>  (616) 
Flavi_NS5_RdRp

>  <tags>  (616) 
[]

>  <inspirations>  (616) 
{P Ã— 2}

>  <subsites>  (616) 
None

>  <reference>  (616) 
z0211a

>  <SLURM_JOB_ID>  (616) 
nan

>  <SLURM_JOB_NAME>  (616) 
nan

>  <csv_name>  (616) 
nan

>  <scratch_subdir>  (616) 
nan

>  <fragmenstein_runtime>  (616) 
nan

>  <fragmenstein_outcome>  (616) 
nan

>  <fragmenstein_mode>  (616) 
nan

>  <fragmenstein_error>  (616) 
nan

>  <exports>  (616) 
nan

>  <Multi-SuCOS>  (616) 
nan

>  <merge_set>  (616) 
nan

$$$$
QCDBWIYGEGDMQV-ZJUUUORDSA-N
     RDKit          3D

 20 21  0  0  0  0  0  0  0  0999 V2000
  -20.5449  -33.0429  -22.3550 C   0  0  0  0  0  0  0  0  0  0  0  0
  -21.0955  -32.4154  -23.6311 C   0  0  1  0  0  0  0  0  0  0  0  0
  -20.9584  -33.3153  -24.7278 O   0  0  0  0  0  0  0  0  0  0  0  0
  -22.5492  -31.9770  -23.4622 C   0  0  0  0  0  0  0  0  0  0  0  0
  -23.4623  -33.0973  -23.1367 N   0  0  0  0  0  0  0  0  0  0  0  0
  -24.2002  -33.5397  -24.3292 C   0  0  0  0  0  0  0  0  0  0  0  0
  -24.3452  -32.6369  -22.1810 N   0  0  0  0  0  0  0  0  0  0  0  0
  -25.4696  -31.5478  -22.2796 C   0  0  0  0  0  0  0  0  0  0  0  0
  -25.8473  -30.9588  -23.1807 O   0  0  0  0  0  0  0  0  0  0  0  0
  -25.9827  -31.5817  -20.8214 N   0  0  0  0  0  0  0  0  0  0  0  0
  -26.9464  -30.8619  -20.2200 C   0  0  0  0  0  0  0  0  0  0  0  0
  -28.0203  -30.1813  -20.8128 C   0  0  0  0  0  0  0  0  0  0  0  0
  -28.7706  -29.7338  -19.7506 C   0  0  0  0  0  0  0  0  0  0  0  0
  -28.0474  -30.0329  -18.6314 N   0  0  0  0  0  0  0  0  0  0  0  0
  -28.2007  -29.4792  -17.3104 C   0  0  1  0  0  0  0  0  0  0  0  0
  -29.3893  -29.9419  -16.4932 C   0  0  0  0  0  0  0  0  0  0  0  0
  -28.8020  -30.2995  -15.1436 C   0  0  0  0  0  0  0  0  0  0  0  0
  -27.5221  -29.6910  -15.0590 O   0  0  0  0  0  0  0  0  0  0  0  0
  -26.9996  -29.7053  -16.3888 C   0  0  0  0  0  0  0  0  0  0  0  0
  -26.9663  -30.7729  -18.9000 N   0  0  0  0  0  0  0  0  0  0  0  0
  2  1  1  1
  2  3  1  0
  2  4  1  0
  4  5  1  0
  5  6  1  0
  5  7  1  0
  7  8  1  0
  8  9  2  0
  8 10  1  0
 10 11  1  0
 11 12  1  0
 12 13  2  0
 13 14  1  0
 15 14  1  6
 15 16  1  0
 16 17  1  0
 17 18  1  0
 18 19  1  0
 14 20  1  0
 20 11  2  0
 19 15  1  0
M  END
>  <id>  (617) 
422983

>  <inchikey>  (617) 
QCDBWIYGEGDMQV-ZJUUUORDSA-N

>  <alias>  (617) 
None

>  <smiles>  (617) 
C[C@@H](O)CN(C)NC(=O)Nc1ccn([C@H]2CCOC2)n1

>  <path>  (617) 
/opt/xchem-fragalysis-2/maxwin/RdRp_FFF/syndirella/mar_elabs/elabs_060/VEAPMNAYWNOMRJ-UHFFFAOYSA-N/output/VEAPMNAYWNOMRJ-UHFFFAOYSA-N-oBUHPJ-2251-C/VEAPMNAYWNOMRJ-UHFFFAOYSA-N-oBUHPJ-2251-C.minimised.mol

>  <distance_score>  (617) 
0.898402

>  <energy_score>  (617) 
-38.039865

>  <compound>  (617) 
QCDBWIYGEGDMQV-UHFFFAOYSA-N

>  <compound_id>  (617) 
232742

>  <target>  (617) 
Flavi_NS5_RdRp

>  <tags>  (617) 
[]

>  <inspirations>  (617) 
{P Ã— 2}

>  <subsites>  (617) 
None

>  <reference>  (617) 
z0211a

>  <SLURM_JOB_ID>  (617) 
nan

>  <SLURM_JOB_NAME>  (617) 
nan

>  <csv_name>  (617) 
nan

>  <scratch_subdir>  (617) 
nan

>  <fragmenstein_runtime>  (617) 
nan

>  <fragmenstein_outcome>  (617) 
nan

>  <fragmenstein_mode>  (617) 
nan

>  <fragmenstein_error>  (617) 
nan

>  <exports>  (617) 
nan

>  <Multi-SuCOS>  (617) 
nan

>  <merge_set>  (617) 
nan

$$$$
ROKAKSOJWJEAPF-MFKMUULPSA-N
     RDKit          3D

 20 21  0  0  0  0  0  0  0  0999 V2000
  -20.7862  -33.0396  -24.9616 C   0  0  0  0  0  0  0  0  0  0  0  0
  -21.4994  -33.3730  -23.8790 C   0  0  0  0  0  0  0  0  0  0  0  0
  -21.9492  -32.4407  -22.7848 C   0  0  2  0  0  0  0  0  0  0  0  0
  -20.9137  -31.3874  -22.3968 C   0  0  0  0  0  0  0  0  0  0  0  0
  -22.1603  -33.2358  -21.6160 O   0  0  0  0  0  0  0  0  0  0  0  0
  -23.2963  -31.8668  -23.2467 C   0  0  0  0  0  0  0  0  0  0  0  0
  -24.1719  -31.4348  -22.2052 N   0  0  0  0  0  0  0  0  0  0  0  0
  -25.5826  -30.8110  -22.2794 C   0  0  0  0  0  0  0  0  0  0  0  0
  -26.1973  -30.4920  -23.1795 O   0  0  0  0  0  0  0  0  0  0  0  0
  -25.9489  -30.8366  -20.7804 N   0  0  0  0  0  0  0  0  0  0  0  0
  -27.0557  -30.4056  -20.1455 C   0  0  0  0  0  0  0  0  0  0  0  0
  -28.2842  -30.0719  -20.7391 C   0  0  0  0  0  0  0  0  0  0  0  0
  -29.1200  -29.7994  -19.6860 C   0  0  0  0  0  0  0  0  0  0  0  0
  -28.3388  -29.8700  -18.5689 N   0  0  0  0  0  0  0  0  0  0  0  0
  -28.6922  -29.4747  -17.2269 C   0  0  2  0  0  0  0  0  0  0  0  0
  -27.6579  -29.8425  -16.1812 C   0  0  0  0  0  0  0  0  0  0  0  0
  -28.4520  -30.1740  -14.9604 C   0  0  0  0  0  0  0  0  0  0  0  0
  -29.7811  -30.4575  -15.3575 O   0  0  0  0  0  0  0  0  0  0  0  0
  -29.9806  -30.0745  -16.7151 C   0  0  0  0  0  0  0  0  0  0  0  0
  -27.0775  -30.2539  -18.8290 N   0  0  0  0  0  0  0  0  0  0  0  0
  1  2  2  0
  2  3  1  0
  3  4  1  1
  3  5  1  0
  3  6  1  0
  6  7  1  0
  7  8  1  0
  8  9  2  0
  8 10  1  0
 10 11  1  0
 11 12  1  0
 12 13  2  0
 13 14  1  0
 15 14  1  6
 15 16  1  0
 16 17  1  0
 17 18  1  0
 18 19  1  0
 14 20  1  0
 20 11  2  0
 19 15  1  0
M  END
>  <id>  (618) 
422985

>  <inchikey>  (618) 
ROKAKSOJWJEAPF-MFKMUULPSA-N

>  <alias>  (618) 
None

>  <smiles>  (618) 
C=C[C@](C)(O)CNC(=O)Nc1ccn([C@@H]2CCOC2)n1

>  <path>  (618) 
/opt/xchem-fragalysis-2/maxwin/RdRp_FFF/syndirella/mar_elabs/elabs_060/VEAPMNAYWNOMRJ-UHFFFAOYSA-N/output/VEAPMNAYWNOMRJ-UHFFFAOYSA-N-oBUHPJ-2252-A/VEAPMNAYWNOMRJ-UHFFFAOYSA-N-oBUHPJ-2252-A.minimised.mol

>  <distance_score>  (618) 
1.012456

>  <energy_score>  (618) 
-36.313355

>  <compound>  (618) 
ROKAKSOJWJEAPF-UHFFFAOYSA-N

>  <compound_id>  (618) 
232743

>  <target>  (618) 
Flavi_NS5_RdRp

>  <tags>  (618) 
[]

>  <inspirations>  (618) 
{P Ã— 2}

>  <subsites>  (618) 
None

>  <reference>  (618) 
z0211a

>  <SLURM_JOB_ID>  (618) 
nan

>  <SLURM_JOB_NAME>  (618) 
nan

>  <csv_name>  (618) 
nan

>  <scratch_subdir>  (618) 
nan

>  <fragmenstein_runtime>  (618) 
nan

>  <fragmenstein_outcome>  (618) 
nan

>  <fragmenstein_mode>  (618) 
nan

>  <fragmenstein_error>  (618) 
nan

>  <exports>  (618) 
nan

>  <Multi-SuCOS>  (618) 
nan

>  <merge_set>  (618) 
nan

$$$$
SPKIRVOZNLFPQD-SNVBAGLBSA-N
     RDKit          3D

 20 21  0  0  0  0  0  0  0  0999 V2000
  -26.0060  -31.4961  -14.3649 C   0  0  0  0  0  0  0  0  0  0  0  0
  -27.3078  -30.9419  -14.5847 O   0  0  0  0  0  0  0  0  0  0  0  0
  -27.3115  -30.1724  -15.7830 C   0  0  0  0  0  0  0  0  0  0  0  0
  -28.7438  -29.9961  -16.2568 C   0  0  0  0  0  0  0  0  0  0  0  0
  -28.9195  -29.3896  -17.6484 C   0  0  0  0  0  0  0  0  0  0  0  0
  -28.1861  -29.8964  -18.7911 N   0  0  0  0  0  0  0  0  0  0  0  0
  -28.5247  -29.7072  -20.0988 C   0  0  0  0  0  0  0  0  0  0  0  0
  -27.4730  -30.2015  -20.8495 C   0  0  0  0  0  0  0  0  0  0  0  0
  -27.3838  -30.1863  -22.3186 C   0  0  0  0  0  0  0  0  0  0  0  0
  -26.5663  -30.7319  -19.8952 C   0  0  0  0  0  0  0  0  0  0  0  0
  -25.4309  -31.4842  -20.0196 N   0  0  0  0  0  0  0  0  0  0  0  0
  -24.6256  -31.8916  -21.2865 C   0  0  0  0  0  0  0  0  0  0  0  0
  -24.7650  -31.5874  -22.3834 O   0  0  0  0  0  0  0  0  0  0  0  0
  -23.6600  -32.8919  -20.6562 N   0  0  0  0  0  0  0  0  0  0  0  0
  -22.7026  -33.8224  -21.2824 C   0  0  0  0  0  0  0  0  0  0  0  0
  -21.7662  -33.0968  -22.2338 C   0  0  1  0  0  0  0  0  0  0  0  0
  -22.3152  -32.8826  -23.5296 O   0  0  0  0  0  0  0  0  0  0  0  0
  -21.6259  -31.8576  -21.4316 C   0  0  0  0  0  0  0  0  0  0  0  0
  -22.3760  -32.2344  -20.2693 O   0  0  0  0  0  0  0  0  0  0  0  0
  -26.9773  -30.4461  -18.6583 N   0  0  0  0  0  0  0  0  0  0  0  0
  1  2  1  0
  2  3  1  0
  3  4  1  0
  4  5  1  0
  5  6  1  0
  6  7  1  0
  7  8  2  0
  8  9  1  0
  8 10  1  0
 10 11  1  0
 11 12  1  0
 12 13  2  0
 12 14  1  0
 14 15  1  0
 15 16  1  0
 16 17  1  6
 16 18  1  0
 18 19  1  0
 10 20  2  0
 20  6  1  0
 19 14  1  0
M  END
>  <id>  (619) 
423121

>  <inchikey>  (619) 
SPKIRVOZNLFPQD-SNVBAGLBSA-N

>  <alias>  (619) 
None

>  <smiles>  (619) 
COCCCn1cc(C)c(NC(=O)N2C[C@@H](O)CO2)n1

>  <path>  (619) 
/opt/xchem-fragalysis-2/maxwin/RdRp_FFF/syndirella/mar_elabs/elabs_060/VEAPMNAYWNOMRJ-UHFFFAOYSA-N/output/VEAPMNAYWNOMRJ-UHFFFAOYSA-N-oBUHPJ-2434-B/VEAPMNAYWNOMRJ-UHFFFAOYSA-N-oBUHPJ-2434-B.minimised.mol

>  <distance_score>  (619) 
1.198092

>  <energy_score>  (619) 
-1.097251

>  <compound>  (619) 
SPKIRVOZNLFPQD-UHFFFAOYSA-N

>  <compound_id>  (619) 
232887

>  <target>  (619) 
Flavi_NS5_RdRp

>  <tags>  (619) 
[]

>  <inspirations>  (619) 
{P Ã— 2}

>  <subsites>  (619) 
None

>  <reference>  (619) 
z0211a

>  <SLURM_JOB_ID>  (619) 
nan

>  <SLURM_JOB_NAME>  (619) 
nan

>  <csv_name>  (619) 
nan

>  <scratch_subdir>  (619) 
nan

>  <fragmenstein_runtime>  (619) 
nan

>  <fragmenstein_outcome>  (619) 
nan

>  <fragmenstein_mode>  (619) 
nan

>  <fragmenstein_error>  (619) 
nan

>  <exports>  (619) 
nan

>  <Multi-SuCOS>  (619) 
nan

>  <merge_set>  (619) 
nan

$$$$
WDMMKIYRDMEHCC-VIFPVBQESA-N
     RDKit          3D

 20 20  0  0  0  0  0  0  0  0999 V2000
  -24.1615  -31.0336  -14.8929 C   0  0  0  0  0  0  0  0  0  0  0  0
  -25.3959  -30.9715  -14.1866 O   0  0  0  0  0  0  0  0  0  0  0  0
  -26.5110  -31.1813  -15.0580 C   0  0  0  0  0  0  0  0  0  0  0  0
  -27.1624  -29.8362  -15.3261 C   0  0  0  0  0  0  0  0  0  0  0  0
  -28.2991  -29.8110  -16.3325 C   0  0  0  0  0  0  0  0  0  0  0  0
  -27.8830  -29.8796  -17.7167 N   0  0  0  0  0  0  0  0  0  0  0  0
  -28.7112  -29.8246  -18.7911 C   0  0  0  0  0  0  0  0  0  0  0  0
  -27.9190  -30.0584  -19.8938 C   0  0  0  0  0  0  0  0  0  0  0  0
  -28.3828  -30.0923  -21.2908 C   0  0  0  0  0  0  0  0  0  0  0  0
  -26.6270  -30.2958  -19.3615 C   0  0  0  0  0  0  0  0  0  0  0  0
  -25.4823  -30.7003  -19.9730 N   0  0  0  0  0  0  0  0  0  0  0  0
  -25.2521  -31.2334  -21.3333 C   0  0  0  0  0  0  0  0  0  0  0  0
  -25.9806  -31.3583  -22.2178 O   0  0  0  0  0  0  0  0  0  0  0  0
  -23.6681  -31.4802  -21.2244 N   0  0  0  0  0  0  0  0  0  0  0  0
  -22.6649  -32.0434  -22.1972 C   0  0  0  0  0  0  0  0  0  0  0  0
  -22.7746  -32.3914  -23.3753 N   0  0  0  0  0  0  0  0  0  0  0  0
  -21.2979  -32.0693  -21.4749 C   0  0  2  0  0  0  0  0  0  0  0  0
  -20.4577  -33.2511  -21.9185 C   0  0  0  0  0  0  0  0  0  0  0  0
  -21.4602  -32.1320  -20.0583 O   0  0  0  0  0  0  0  0  0  0  0  0
  -26.5956  -30.0703  -18.0482 N   0  0  0  0  0  0  0  0  0  0  0  0
  1  2  1  0
  2  3  1  0
  3  4  1  0
  4  5  1  0
  5  6  1  0
  6  7  1  0
  7  8  2  0
  8  9  1  0
  8 10  1  0
 10 11  1  0
 11 12  1  0
 12 13  2  0
 12 14  1  0
 14 15  1  0
 15 16  2  3
 15 17  1  0
 17 18  1  6
 17 19  1  0
 10 20  2  0
 20  6  1  0
M  END
>  <id>  (620) 
423139

>  <inchikey>  (620) 
WDMMKIYRDMEHCC-VIFPVBQESA-N

>  <alias>  (620) 
None

>  <smiles>  (620) 
COCCCn1cc(C)c(NC(=O)NC(=N)[C@H](C)O)n1

>  <path>  (620) 
/opt/xchem-fragalysis-2/maxwin/RdRp_FFF/syndirella/mar_elabs/elabs_060/VEAPMNAYWNOMRJ-UHFFFAOYSA-N/output/VEAPMNAYWNOMRJ-UHFFFAOYSA-N-oBUHPJ-2452-A/VEAPMNAYWNOMRJ-UHFFFAOYSA-N-oBUHPJ-2452-A.minimised.mol

>  <distance_score>  (620) 
1.419085

>  <energy_score>  (620) 
-11.645734

>  <compound>  (620) 
WDMMKIYRDMEHCC-UHFFFAOYSA-N

>  <compound_id>  (620) 
232905

>  <target>  (620) 
Flavi_NS5_RdRp

>  <tags>  (620) 
[]

>  <inspirations>  (620) 
{P Ã— 2}

>  <subsites>  (620) 
None

>  <reference>  (620) 
z0211a

>  <SLURM_JOB_ID>  (620) 
nan

>  <SLURM_JOB_NAME>  (620) 
nan

>  <csv_name>  (620) 
nan

>  <scratch_subdir>  (620) 
nan

>  <fragmenstein_runtime>  (620) 
nan

>  <fragmenstein_outcome>  (620) 
nan

>  <fragmenstein_mode>  (620) 
nan

>  <fragmenstein_error>  (620) 
nan

>  <exports>  (620) 
nan

>  <Multi-SuCOS>  (620) 
nan

>  <merge_set>  (620) 
nan

$$$$
MOCJOTKBAODHNA-VIFPVBQESA-N
     RDKit          3D

 20 20  0  0  0  0  0  0  0  0999 V2000
  -24.6970  -31.6194  -14.2618 C   0  0  0  0  0  0  0  0  0  0  0  0
  -26.0143  -31.0890  -14.1484 O   0  0  0  0  0  0  0  0  0  0  0  0
  -26.4474  -30.5165  -15.3820 C   0  0  0  0  0  0  0  0  0  0  0  0
  -27.9483  -30.2618  -15.3123 C   0  0  0  0  0  0  0  0  0  0  0  0
  -28.5985  -29.5645  -16.5045 C   0  0  0  0  0  0  0  0  0  0  0  0
  -28.0956  -29.8060  -17.8348 N   0  0  0  0  0  0  0  0  0  0  0  0
  -28.8535  -29.8213  -18.9620 C   0  0  0  0  0  0  0  0  0  0  0  0
  -27.9811  -30.0485  -20.0012 C   0  0  0  0  0  0  0  0  0  0  0  0
  -28.3418  -30.1037  -21.4240 C   0  0  0  0  0  0  0  0  0  0  0  0
  -26.7276  -30.2625  -19.3796 C   0  0  0  0  0  0  0  0  0  0  0  0
  -25.5719  -30.7455  -19.9181 N   0  0  0  0  0  0  0  0  0  0  0  0
  -25.3155  -31.4040  -21.2209 C   0  0  0  0  0  0  0  0  0  0  0  0
  -26.0197  -31.5906  -22.1099 O   0  0  0  0  0  0  0  0  0  0  0  0
  -23.7299  -31.7200  -21.0200 N   0  0  0  0  0  0  0  0  0  0  0  0
  -22.5964  -32.2865  -22.0125 C   0  0  0  0  0  0  0  0  0  0  0  0
  -22.6536  -32.8259  -23.4790 S   0  0  0  0  0  0  0  0  0  0  0  0
  -21.2763  -32.1005  -21.2027 C   0  0  2  0  0  0  0  0  0  0  0  0
  -20.2030  -33.1473  -21.4661 C   0  0  0  0  0  0  0  0  0  0  0  0
  -21.5407  -32.1217  -19.8003 O   0  0  0  0  0  0  0  0  0  0  0  0
  -26.7791  -29.9225  -18.0902 N   0  0  0  0  0  0  0  0  0  0  0  0
  1  2  1  0
  2  3  1  0
  3  4  1  0
  4  5  1  0
  5  6  1  0
  6  7  1  0
  7  8  2  0
  8  9  1  0
  8 10  1  0
 10 11  1  0
 11 12  1  0
 12 13  2  0
 12 14  1  0
 14 15  1  0
 15 16  2  0
 15 17  1  0
 17 18  1  1
 17 19  1  0
 10 20  2  0
 20  6  1  0
M  END
>  <id>  (621) 
423143

>  <inchikey>  (621) 
MOCJOTKBAODHNA-VIFPVBQESA-N

>  <alias>  (621) 
None

>  <smiles>  (621) 
COCCCn1cc(C)c(NC(=O)NC(=S)[C@H](C)O)n1

>  <path>  (621) 
/opt/xchem-fragalysis-2/maxwin/RdRp_FFF/syndirella/mar_elabs/elabs_060/VEAPMNAYWNOMRJ-UHFFFAOYSA-N/output/VEAPMNAYWNOMRJ-UHFFFAOYSA-N-oBUHPJ-2456-A/VEAPMNAYWNOMRJ-UHFFFAOYSA-N-oBUHPJ-2456-A.minimised.mol

>  <distance_score>  (621) 
1.308105

>  <energy_score>  (621) 
-45.889602

>  <compound>  (621) 
MOCJOTKBAODHNA-UHFFFAOYSA-N

>  <compound_id>  (621) 
232909

>  <target>  (621) 
Flavi_NS5_RdRp

>  <tags>  (621) 
[]

>  <inspirations>  (621) 
{P Ã— 2}

>  <subsites>  (621) 
None

>  <reference>  (621) 
z0211a

>  <SLURM_JOB_ID>  (621) 
nan

>  <SLURM_JOB_NAME>  (621) 
nan

>  <csv_name>  (621) 
nan

>  <scratch_subdir>  (621) 
nan

>  <fragmenstein_runtime>  (621) 
nan

>  <fragmenstein_outcome>  (621) 
nan

>  <fragmenstein_mode>  (621) 
nan

>  <fragmenstein_error>  (621) 
nan

>  <exports>  (621) 
nan

>  <Multi-SuCOS>  (621) 
nan

>  <merge_set>  (621) 
nan

$$$$
XVSYWHVAWYUQJP-LLVKDONJSA-N
     RDKit          3D

 20 20  0  0  0  0  0  0  0  0999 V2000
  -29.0641  -30.0216  -14.4512 C   0  0  0  0  0  0  0  0  0  0  0  0
  -28.0254  -30.8721  -14.8520 O   0  0  0  0  0  0  0  0  0  0  0  0
  -27.1200  -30.2310  -15.7396 C   0  0  0  0  0  0  0  0  0  0  0  0
  -27.7944  -29.3083  -16.7445 C   0  0  0  0  0  0  0  0  0  0  0  0
  -28.8669  -29.9185  -17.6102 C   0  0  0  0  0  0  0  0  0  0  0  0
  -28.3594  -30.3243  -18.8912 N   0  0  0  0  0  0  0  0  0  0  0  0
  -28.9912  -30.0660  -20.0577 C   0  0  0  0  0  0  0  0  0  0  0  0
  -28.0144  -30.1829  -21.0114 C   0  0  0  0  0  0  0  0  0  0  0  0
  -28.1504  -29.7527  -22.3933 C   0  0  0  0  0  0  0  0  0  0  0  0
  -26.8812  -30.6971  -20.3467 C   0  0  0  0  0  0  0  0  0  0  0  0
  -25.6856  -31.0474  -20.8888 N   0  0  0  0  0  0  0  0  0  0  0  0
  -25.2056  -31.0243  -22.3682 C   0  0  0  0  0  0  0  0  0  0  0  0
  -25.7256  -30.6393  -23.3016 O   0  0  0  0  0  0  0  0  0  0  0  0
  -23.8231  -31.6807  -22.1991 N   0  0  0  0  0  0  0  0  0  0  0  0
  -22.8604  -32.0693  -23.1753 C   0  0  0  0  0  0  0  0  0  0  0  0
  -21.5627  -32.6441  -22.6504 C   0  0  1  0  0  0  0  0  0  0  0  0
  -20.7301  -33.0075  -23.8665 C   0  0  0  0  0  0  0  0  0  0  0  0
  -20.8257  -31.6666  -21.9097 O   0  0  0  0  0  0  0  0  0  0  0  0
  -20.6685  -32.0185  -20.5394 C   0  0  0  0  0  0  0  0  0  0  0  0
  -27.0953  -30.7668  -19.0346 N   0  0  0  0  0  0  0  0  0  0  0  0
  1  2  1  0
  2  3  1  0
  3  4  1  0
  4  5  1  0
  5  6  1  0
  6  7  1  0
  7  8  2  0
  8  9  1  0
  8 10  1  0
 10 11  1  0
 11 12  1  0
 12 13  2  0
 12 14  1  0
 14 15  1  0
 15 16  1  0
 16 17  1  6
 16 18  1  0
 18 19  1  0
 10 20  2  0
 20  6  1  0
M  END
>  <id>  (622) 
423147

>  <inchikey>  (622) 
XVSYWHVAWYUQJP-LLVKDONJSA-N

>  <alias>  (622) 
None

>  <smiles>  (622) 
COCCCn1cc(C)c(NC(=O)NC[C@@H](C)OC)n1

>  <path>  (622) 
/opt/xchem-fragalysis-2/maxwin/RdRp_FFF/syndirella/mar_elabs/elabs_060/VEAPMNAYWNOMRJ-UHFFFAOYSA-N/output/VEAPMNAYWNOMRJ-UHFFFAOYSA-N-oBUHPJ-2459-B/VEAPMNAYWNOMRJ-UHFFFAOYSA-N-oBUHPJ-2459-B.minimised.mol

>  <distance_score>  (622) 
0.883521

>  <energy_score>  (622) 
-4.614943

>  <compound>  (622) 
XVSYWHVAWYUQJP-UHFFFAOYSA-N

>  <compound_id>  (622) 
232912

>  <target>  (622) 
Flavi_NS5_RdRp

>  <tags>  (622) 
[]

>  <inspirations>  (622) 
{P Ã— 2}

>  <subsites>  (622) 
None

>  <reference>  (622) 
z0211a

>  <SLURM_JOB_ID>  (622) 
nan

>  <SLURM_JOB_NAME>  (622) 
nan

>  <csv_name>  (622) 
nan

>  <scratch_subdir>  (622) 
nan

>  <fragmenstein_runtime>  (622) 
nan

>  <fragmenstein_outcome>  (622) 
nan

>  <fragmenstein_mode>  (622) 
nan

>  <fragmenstein_error>  (622) 
nan

>  <exports>  (622) 
nan

>  <Multi-SuCOS>  (622) 
nan

>  <merge_set>  (622) 
nan

$$$$
UPVISPXSIYZYIG-IUCAKERBSA-N
     RDKit          3D

 19 20  0  0  0  0  0  0  0  0999 V2000
  -26.1959  -30.6234  -23.2215 O   0  0  0  0  0  0  0  0  0  0  0  0
  -25.5513  -30.9387  -22.3418 C   0  0  0  0  0  0  0  0  0  0  0  0
  -24.1342  -31.5487  -22.3121 N   0  0  0  0  0  0  0  0  0  0  0  0
  -23.2126  -31.7950  -23.3718 C   0  0  0  0  0  0  0  0  0  0  0  0
  -21.7643  -31.9939  -22.9232 C   0  0  1  0  0  0  0  0  0  0  0  0
  -21.5719  -31.7520  -21.5241 O   0  0  0  0  0  0  0  0  0  0  0  0
  -21.2546  -33.3821  -23.2757 C   0  0  0  0  0  0  0  0  0  0  0  0
  -22.1714  -34.6508  -22.4035 Cl  0  0  0  0  0  0  0  0  0  0  0  0
  -25.8723  -30.9780  -20.8364 N   0  0  0  0  0  0  0  0  0  0  0  0
  -26.9637  -30.5669  -20.1677 C   0  0  0  0  0  0  0  0  0  0  0  0
  -28.2174  -30.1928  -20.6769 C   0  0  0  0  0  0  0  0  0  0  0  0
  -28.9724  -29.8969  -19.5657 C   0  0  0  0  0  0  0  0  0  0  0  0
  -28.1185  -30.0079  -18.5066 N   0  0  0  0  0  0  0  0  0  0  0  0
  -28.2882  -29.4865  -17.1784 C   0  0  1  0  0  0  0  0  0  0  0  0
  -29.4630  -29.9987  -16.3759 C   0  0  0  0  0  0  0  0  0  0  0  0
  -28.8624  -30.3538  -15.0337 C   0  0  0  0  0  0  0  0  0  0  0  0
  -27.6053  -29.7054  -14.9406 O   0  0  0  0  0  0  0  0  0  0  0  0
  -27.0806  -29.7116  -16.2671 C   0  0  0  0  0  0  0  0  0  0  0  0
  -26.9126  -30.4714  -18.8492 N   0  0  0  0  0  0  0  0  0  0  0  0
  1  2  2  0
  2  3  1  0
  3  4  1  0
  4  5  1  0
  5  6  1  1
  5  7  1  0
  7  8  1  0
  2  9  1  0
  9 10  1  0
 10 11  1  0
 11 12  2  0
 12 13  1  0
 14 13  1  6
 14 15  1  0
 15 16  1  0
 16 17  1  0
 17 18  1  0
 13 19  1  0
 19 10  2  0
 18 14  1  0
M  END
>  <id>  (623) 
423650

>  <inchikey>  (623) 
UPVISPXSIYZYIG-IUCAKERBSA-N

>  <alias>  (623) 
None

>  <smiles>  (623) 
O=C(NC[C@@H](O)CCl)Nc1ccn([C@H]2CCOC2)n1

>  <path>  (623) 
/opt/xchem-fragalysis-2/maxwin/RdRp_FFF/syndirella/mar_elabs/elabs_060/VEAPMNAYWNOMRJ-UHFFFAOYSA-N/output/VEAPMNAYWNOMRJ-UHFFFAOYSA-N-Xhtsx2-363-D/VEAPMNAYWNOMRJ-UHFFFAOYSA-N-Xhtsx2-363-D.minimised.mol

>  <distance_score>  (623) 
0.729098

>  <energy_score>  (623) 
-22.33303

>  <compound>  (623) 
UPVISPXSIYZYIG-UHFFFAOYSA-N

>  <compound_id>  (623) 
231193

>  <target>  (623) 
Flavi_NS5_RdRp

>  <tags>  (623) 
[]

>  <inspirations>  (623) 
{P Ã— 2}

>  <subsites>  (623) 
None

>  <reference>  (623) 
z0211a

>  <SLURM_JOB_ID>  (623) 
nan

>  <SLURM_JOB_NAME>  (623) 
nan

>  <csv_name>  (623) 
nan

>  <scratch_subdir>  (623) 
nan

>  <fragmenstein_runtime>  (623) 
nan

>  <fragmenstein_outcome>  (623) 
nan

>  <fragmenstein_mode>  (623) 
nan

>  <fragmenstein_error>  (623) 
nan

>  <exports>  (623) 
nan

>  <Multi-SuCOS>  (623) 
nan

>  <merge_set>  (623) 
nan

$$$$
WURFADFWXDCRFN-ZJUUUORDSA-N
     RDKit          3D

 19 20  0  0  0  0  0  0  0  0999 V2000
  -21.0170  -31.4295  -21.5110 C   0  0  0  0  0  0  0  0  0  0  0  0
  -21.4668  -32.7236  -21.8640 O   0  0  0  0  0  0  0  0  0  0  0  0
  -22.0287  -32.8919  -23.1711 C   0  0  2  0  0  0  0  0  0  0  0  0
  -20.9427  -32.8613  -24.2334 C   0  0  0  0  0  0  0  0  0  0  0  0
  -23.1506  -31.9244  -23.5371 C   0  0  0  0  0  0  0  0  0  0  0  0
  -24.0996  -31.7470  -22.4853 N   0  0  0  0  0  0  0  0  0  0  0  0
  -25.4743  -31.0405  -22.4863 C   0  0  0  0  0  0  0  0  0  0  0  0
  -26.0602  -30.5755  -23.3417 O   0  0  0  0  0  0  0  0  0  0  0  0
  -25.8260  -31.1671  -20.9899 N   0  0  0  0  0  0  0  0  0  0  0  0
  -26.8735  -30.6829  -20.2962 C   0  0  0  0  0  0  0  0  0  0  0  0
  -28.0949  -30.1805  -20.7712 C   0  0  0  0  0  0  0  0  0  0  0  0
  -28.8065  -29.8632  -19.6366 C   0  0  0  0  0  0  0  0  0  0  0  0
  -27.9541  -30.0868  -18.5918 N   0  0  0  0  0  0  0  0  0  0  0  0
  -28.0578  -29.5830  -17.2449 C   0  0  1  0  0  0  0  0  0  0  0  0
  -29.3442  -29.8735  -16.5132 C   0  0  0  0  0  0  0  0  0  0  0  0
  -28.8874  -29.9966  -15.0854 C   0  0  0  0  0  0  0  0  0  0  0  0
  -27.5791  -30.5305  -15.0927 O   0  0  0  0  0  0  0  0  0  0  0  0
  -26.9485  -30.0444  -16.2840 C   0  0  0  0  0  0  0  0  0  0  0  0
  -26.7940  -30.6298  -18.9754 N   0  0  0  0  0  0  0  0  0  0  0  0
  1  2  1  0
  2  3  1  0
  3  4  1  6
  3  5  1  0
  5  6  1  0
  6  7  1  0
  7  8  2  0
  7  9  1  0
  9 10  1  0
 10 11  1  0
 11 12  2  0
 12 13  1  0
 14 13  1  6
 14 15  1  0
 15 16  1  0
 16 17  1  0
 17 18  1  0
 13 19  1  0
 19 10  2  0
 18 14  1  0
M  END
>  <id>  (624) 
423661

>  <inchikey>  (624) 
WURFADFWXDCRFN-ZJUUUORDSA-N

>  <alias>  (624) 
None

>  <smiles>  (624) 
CO[C@H](C)CNC(=O)Nc1ccn([C@H]2CCOC2)n1

>  <path>  (624) 
/opt/xchem-fragalysis-2/maxwin/RdRp_FFF/syndirella/mar_elabs/elabs_060/VEAPMNAYWNOMRJ-UHFFFAOYSA-N/output/VEAPMNAYWNOMRJ-UHFFFAOYSA-N-Xhtsx2-368-A/VEAPMNAYWNOMRJ-UHFFFAOYSA-N-Xhtsx2-368-A.minimised.mol

>  <distance_score>  (624) 
0.808557

>  <energy_score>  (624) 
-0.162769

>  <compound>  (624) 
WURFADFWXDCRFN-UHFFFAOYSA-N

>  <compound_id>  (624) 
231185

>  <target>  (624) 
Flavi_NS5_RdRp

>  <tags>  (624) 
[]

>  <inspirations>  (624) 
{P Ã— 2}

>  <subsites>  (624) 
None

>  <reference>  (624) 
z0211a

>  <SLURM_JOB_ID>  (624) 
nan

>  <SLURM_JOB_NAME>  (624) 
nan

>  <csv_name>  (624) 
nan

>  <scratch_subdir>  (624) 
nan

>  <fragmenstein_runtime>  (624) 
nan

>  <fragmenstein_outcome>  (624) 
nan

>  <fragmenstein_mode>  (624) 
nan

>  <fragmenstein_error>  (624) 
nan

>  <exports>  (624) 
nan

>  <Multi-SuCOS>  (624) 
nan

>  <merge_set>  (624) 
nan

$$$$
MIAMHMYIHLQIGK-JGVFFNPUSA-N
     RDKit          3D

 19 20  0  0  0  0  0  0  0  0999 V2000
  -19.9584  -33.3462  -21.3422 C   0  0  0  0  0  0  0  0  0  0  0  0
  -20.9088  -32.1621  -21.3230 C   0  0  2  0  0  0  0  0  0  0  0  0
  -21.4046  -32.0661  -19.9846 O   0  0  0  0  0  0  0  0  0  0  0  0
  -22.0786  -32.2747  -22.3478 C   0  0  0  0  0  0  0  0  0  0  0  0
  -21.9214  -32.7073  -23.8390 S   0  0  0  0  0  0  0  0  0  0  0  0
  -23.3395  -31.7819  -21.4918 N   0  0  0  0  0  0  0  0  0  0  0  0
  -24.8925  -31.4509  -21.8891 C   0  0  0  0  0  0  0  0  0  0  0  0
  -25.4295  -31.4232  -22.9024 O   0  0  0  0  0  0  0  0  0  0  0  0
  -25.3833  -31.1261  -20.5438 N   0  0  0  0  0  0  0  0  0  0  0  0
  -26.5693  -30.6218  -20.1365 C   0  0  0  0  0  0  0  0  0  0  0  0
  -27.7373  -30.3812  -20.8809 C   0  0  0  0  0  0  0  0  0  0  0  0
  -28.6455  -29.8923  -19.9683 C   0  0  0  0  0  0  0  0  0  0  0  0
  -27.9950  -29.8803  -18.7667 N   0  0  0  0  0  0  0  0  0  0  0  0
  -28.5064  -29.4512  -17.4812 C   0  0  2  0  0  0  0  0  0  0  0  0
  -27.6231  -29.8157  -16.2976 C   0  0  0  0  0  0  0  0  0  0  0  0
  -28.5804  -30.1279  -15.1840 C   0  0  0  0  0  0  0  0  0  0  0  0
  -29.8428  -30.4397  -15.7600 O   0  0  0  0  0  0  0  0  0  0  0  0
  -29.8605  -30.0329  -17.1269 C   0  0  0  0  0  0  0  0  0  0  0  0
  -26.7089  -30.2524  -18.8683 N   0  0  0  0  0  0  0  0  0  0  0  0
  2  1  1  1
  2  3  1  0
  2  4  1  0
  4  5  2  0
  4  6  1  0
  6  7  1  0
  7  8  2  0
  7  9  1  0
  9 10  1  0
 10 11  1  0
 11 12  2  0
 12 13  1  0
 14 13  1  6
 14 15  1  0
 15 16  1  0
 16 17  1  0
 17 18  1  0
 13 19  1  0
 19 10  2  0
 18 14  1  0
M  END
>  <id>  (625) 
423685

>  <inchikey>  (625) 
MIAMHMYIHLQIGK-JGVFFNPUSA-N

>  <alias>  (625) 
None

>  <smiles>  (625) 
C[C@H](O)C(=S)NC(=O)Nc1ccn([C@@H]2CCOC2)n1

>  <path>  (625) 
/opt/xchem-fragalysis-2/maxwin/RdRp_FFF/syndirella/mar_elabs/elabs_060/VEAPMNAYWNOMRJ-UHFFFAOYSA-N/output/VEAPMNAYWNOMRJ-UHFFFAOYSA-N-Xhtsx2-379-A/VEAPMNAYWNOMRJ-UHFFFAOYSA-N-Xhtsx2-379-A.minimised.mol

>  <distance_score>  (625) 
1.411813

>  <energy_score>  (625) 
-9.560825

>  <compound>  (625) 
MIAMHMYIHLQIGK-UHFFFAOYSA-N

>  <compound_id>  (625) 
231166

>  <target>  (625) 
Flavi_NS5_RdRp

>  <tags>  (625) 
[]

>  <inspirations>  (625) 
{P Ã— 2}

>  <subsites>  (625) 
None

>  <reference>  (625) 
z0211a

>  <SLURM_JOB_ID>  (625) 
nan

>  <SLURM_JOB_NAME>  (625) 
nan

>  <csv_name>  (625) 
nan

>  <scratch_subdir>  (625) 
nan

>  <fragmenstein_runtime>  (625) 
nan

>  <fragmenstein_outcome>  (625) 
nan

>  <fragmenstein_mode>  (625) 
nan

>  <fragmenstein_error>  (625) 
nan

>  <exports>  (625) 
nan

>  <Multi-SuCOS>  (625) 
nan

>  <merge_set>  (625) 
nan

$$$$
JOKMPXGSQVGPJT-SFYZADRCSA-N
     RDKit          3D

 19 20  0  0  0  0  0  0  0  0999 V2000
  -20.8221  -32.6662  -23.6465 C   0  0  0  0  0  0  0  0  0  0  0  0
  -22.0718  -33.4214  -23.2388 C   0  0  1  0  0  0  0  0  0  0  0  0
  -22.1782  -33.4305  -21.8102 O   0  0  0  0  0  0  0  0  0  0  0  0
  -23.3000  -32.7411  -23.8688 C   0  0  0  0  0  0  0  0  0  0  0  0
  -23.5201  -32.7985  -25.0789 N   0  0  0  0  0  0  0  0  0  0  0  0
  -24.0597  -32.0942  -22.7449 N   0  0  0  0  0  0  0  0  0  0  0  0
  -25.3738  -31.1557  -22.7214 C   0  0  0  0  0  0  0  0  0  0  0  0
  -25.9963  -30.6969  -23.5744 O   0  0  0  0  0  0  0  0  0  0  0  0
  -25.5953  -31.1427  -21.2689 N   0  0  0  0  0  0  0  0  0  0  0  0
  -26.6291  -30.6707  -20.5403 C   0  0  0  0  0  0  0  0  0  0  0  0
  -27.8656  -30.1755  -20.9910 C   0  0  0  0  0  0  0  0  0  0  0  0
  -28.5502  -29.8391  -19.8466 C   0  0  0  0  0  0  0  0  0  0  0  0
  -27.6834  -30.0743  -18.8158 N   0  0  0  0  0  0  0  0  0  0  0  0
  -27.7415  -29.4856  -17.5012 C   0  0  1  0  0  0  0  0  0  0  0  0
  -28.9782  -29.7587  -16.6651 C   0  0  0  0  0  0  0  0  0  0  0  0
  -28.4428  -30.1072  -15.2907 C   0  0  0  0  0  0  0  0  0  0  0  0
  -27.0805  -29.6888  -15.2472 O   0  0  0  0  0  0  0  0  0  0  0  0
  -26.5740  -29.8200  -16.5792 C   0  0  0  0  0  0  0  0  0  0  0  0
  -26.5454  -30.6600  -19.2153 N   0  0  0  0  0  0  0  0  0  0  0  0
  2  1  1  1
  2  3  1  0
  2  4  1  0
  4  5  2  3
  4  6  1  0
  6  7  1  0
  7  8  2  0
  7  9  1  0
  9 10  1  0
 10 11  1  0
 11 12  2  0
 12 13  1  0
 14 13  1  6
 14 15  1  0
 15 16  1  0
 16 17  1  0
 17 18  1  0
 13 19  1  0
 19 10  2  0
 18 14  1  0
M  END
>  <id>  (626) 
423689

>  <inchikey>  (626) 
JOKMPXGSQVGPJT-SFYZADRCSA-N

>  <alias>  (626) 
None

>  <smiles>  (626) 
C[C@@H](O)C(=N)NC(=O)Nc1ccn([C@H]2CCOC2)n1

>  <path>  (626) 
/opt/xchem-fragalysis-2/maxwin/RdRp_FFF/syndirella/mar_elabs/elabs_060/VEAPMNAYWNOMRJ-UHFFFAOYSA-N/output/VEAPMNAYWNOMRJ-UHFFFAOYSA-N-Xhtsx2-385-B/VEAPMNAYWNOMRJ-UHFFFAOYSA-N-Xhtsx2-385-B.minimised.mol

>  <distance_score>  (626) 
1.079313

>  <energy_score>  (626) 
-8.933544

>  <compound>  (626) 
JOKMPXGSQVGPJT-UHFFFAOYSA-N

>  <compound_id>  (626) 
231182

>  <target>  (626) 
Flavi_NS5_RdRp

>  <tags>  (626) 
[]

>  <inspirations>  (626) 
{P Ã— 2}

>  <subsites>  (626) 
None

>  <reference>  (626) 
z0211a

>  <SLURM_JOB_ID>  (626) 
nan

>  <SLURM_JOB_NAME>  (626) 
nan

>  <csv_name>  (626) 
nan

>  <scratch_subdir>  (626) 
nan

>  <fragmenstein_runtime>  (626) 
nan

>  <fragmenstein_outcome>  (626) 
nan

>  <fragmenstein_mode>  (626) 
nan

>  <fragmenstein_error>  (626) 
nan

>  <exports>  (626) 
nan

>  <Multi-SuCOS>  (626) 
nan

>  <merge_set>  (626) 
nan

$$$$
IHLMCTWLZIBMHS-QMMMGPOBSA-N
     RDKit          3D

 19 19  0  0  0  0  0  0  0  0999 V2000
  -25.9285  -31.5942  -14.4291 C   0  0  0  0  0  0  0  0  0  0  0  0
  -26.0882  -30.1972  -14.6483 O   0  0  0  0  0  0  0  0  0  0  0  0
  -26.6471  -29.9152  -15.9316 C   0  0  0  0  0  0  0  0  0  0  0  0
  -28.1732  -29.9208  -15.8838 C   0  0  0  0  0  0  0  0  0  0  0  0
  -28.8575  -29.3300  -17.1174 C   0  0  0  0  0  0  0  0  0  0  0  0
  -28.4263  -29.8134  -18.4102 N   0  0  0  0  0  0  0  0  0  0  0  0
  -29.2437  -30.2671  -19.4010 C   0  0  0  0  0  0  0  0  0  0  0  0
  -28.3986  -30.7819  -20.3493 C   0  0  0  0  0  0  0  0  0  0  0  0
  -27.0973  -30.5590  -19.8634 C   0  0  0  0  0  0  0  0  0  0  0  0
  -25.9614  -31.0622  -20.4111 N   0  0  0  0  0  0  0  0  0  0  0  0
  -25.7670  -32.1491  -21.3933 C   0  0  0  0  0  0  0  0  0  0  0  0
  -26.5295  -32.8701  -21.8630 O   0  0  0  0  0  0  0  0  0  0  0  0
  -24.1657  -31.9506  -21.6565 N   0  0  0  0  0  0  0  0  0  0  0  0
  -23.1031  -32.7502  -22.5588 C   0  0  0  0  0  0  0  0  0  0  0  0
  -23.2587  -33.9269  -23.5747 S   0  0  0  0  0  0  0  0  0  0  0  0
  -21.7620  -32.0216  -22.2631 C   0  0  2  0  0  0  0  0  0  0  0  0
  -20.5243  -32.9069  -22.2523 C   0  0  0  0  0  0  0  0  0  0  0  0
  -21.8418  -31.3391  -21.0103 O   0  0  0  0  0  0  0  0  0  0  0  0
  -27.1192  -29.8094  -18.7618 N   0  0  0  0  0  0  0  0  0  0  0  0
  1  2  1  0
  2  3  1  0
  3  4  1  0
  4  5  1  0
  5  6  1  0
  6  7  1  0
  7  8  2  0
  8  9  1  0
  9 10  1  0
 10 11  1  0
 11 12  2  0
 11 13  1  0
 13 14  1  0
 14 15  2  0
 14 16  1  0
 16 17  1  1
 16 18  1  0
  9 19  2  0
 19  6  1  0
M  END
>  <id>  (627) 
423693

>  <inchikey>  (627) 
IHLMCTWLZIBMHS-QMMMGPOBSA-N

>  <alias>  (627) 
None

>  <smiles>  (627) 
COCCCn1ccc(NC(=O)NC(=S)[C@H](C)O)n1

>  <path>  (627) 
/opt/xchem-fragalysis-2/maxwin/RdRp_FFF/syndirella/mar_elabs/elabs_060/VEAPMNAYWNOMRJ-UHFFFAOYSA-N/output/VEAPMNAYWNOMRJ-UHFFFAOYSA-N-Xhtsx2-390-A/VEAPMNAYWNOMRJ-UHFFFAOYSA-N-Xhtsx2-390-A.minimised.mol

>  <distance_score>  (627) 
1.247645

>  <energy_score>  (627) 
-26.745184

>  <compound>  (627) 
IHLMCTWLZIBMHS-UHFFFAOYSA-N

>  <compound_id>  (627) 
231447

>  <target>  (627) 
Flavi_NS5_RdRp

>  <tags>  (627) 
[]

>  <inspirations>  (627) 
{P Ã— 2}

>  <subsites>  (627) 
None

>  <reference>  (627) 
z0211a

>  <SLURM_JOB_ID>  (627) 
nan

>  <SLURM_JOB_NAME>  (627) 
nan

>  <csv_name>  (627) 
nan

>  <scratch_subdir>  (627) 
nan

>  <fragmenstein_runtime>  (627) 
nan

>  <fragmenstein_outcome>  (627) 
nan

>  <fragmenstein_mode>  (627) 
nan

>  <fragmenstein_error>  (627) 
nan

>  <exports>  (627) 
nan

>  <Multi-SuCOS>  (627) 
nan

>  <merge_set>  (627) 
nan

$$$$
MLLYPRBAFDEFAU-QMMMGPOBSA-N
     RDKit          3D

 19 19  0  0  0  0  0  0  0  0999 V2000
  -24.9621  -31.3081  -14.5257 C   0  0  0  0  0  0  0  0  0  0  0  0
  -26.2998  -30.8344  -14.4091 O   0  0  0  0  0  0  0  0  0  0  0  0
  -26.7556  -30.2600  -15.6320 C   0  0  0  0  0  0  0  0  0  0  0  0
  -28.2718  -30.1120  -15.5725 C   0  0  0  0  0  0  0  0  0  0  0  0
  -28.9328  -29.4433  -16.7767 C   0  0  0  0  0  0  0  0  0  0  0  0
  -28.5112  -29.8305  -18.1049 N   0  0  0  0  0  0  0  0  0  0  0  0
  -29.3339  -30.0161  -19.1776 C   0  0  0  0  0  0  0  0  0  0  0  0
  -28.5054  -30.2433  -20.2468 C   0  0  0  0  0  0  0  0  0  0  0  0
  -27.2025  -30.2458  -19.7107 C   0  0  0  0  0  0  0  0  0  0  0  0
  -26.0735  -30.5922  -20.3787 N   0  0  0  0  0  0  0  0  0  0  0  0
  -25.8535  -30.8794  -21.8081 C   0  0  0  0  0  0  0  0  0  0  0  0
  -26.5754  -30.8009  -22.7005 O   0  0  0  0  0  0  0  0  0  0  0  0
  -24.3404  -31.4318  -21.7139 N   0  0  0  0  0  0  0  0  0  0  0  0
  -23.3701  -31.9169  -22.7712 C   0  0  0  0  0  0  0  0  0  0  0  0
  -23.5064  -32.0993  -23.9837 N   0  0  0  0  0  0  0  0  0  0  0  0
  -22.0308  -32.2041  -22.0636 C   0  0  2  0  0  0  0  0  0  0  0  0
  -20.9778  -32.8029  -22.9802 C   0  0  0  0  0  0  0  0  0  0  0  0
  -22.2842  -33.0931  -20.9742 O   0  0  0  0  0  0  0  0  0  0  0  0
  -27.2016  -29.9055  -18.4248 N   0  0  0  0  0  0  0  0  0  0  0  0
  1  2  1  0
  2  3  1  0
  3  4  1  0
  4  5  1  0
  5  6  1  0
  6  7  1  0
  7  8  2  0
  8  9  1  0
  9 10  1  0
 10 11  1  0
 11 12  2  0
 11 13  1  0
 13 14  1  0
 14 15  2  3
 14 16  1  0
 16 17  1  6
 16 18  1  0
  9 19  2  0
 19  6  1  0
M  END
>  <id>  (628) 
423695

>  <inchikey>  (628) 
MLLYPRBAFDEFAU-QMMMGPOBSA-N

>  <alias>  (628) 
None

>  <smiles>  (628) 
COCCCn1ccc(NC(=O)NC(=N)[C@H](C)O)n1

>  <path>  (628) 
/opt/xchem-fragalysis-2/maxwin/RdRp_FFF/syndirella/mar_elabs/elabs_060/VEAPMNAYWNOMRJ-UHFFFAOYSA-N/output/VEAPMNAYWNOMRJ-UHFFFAOYSA-N-Xhtsx2-392-A/VEAPMNAYWNOMRJ-UHFFFAOYSA-N-Xhtsx2-392-A.minimised.mol

>  <distance_score>  (628) 
1.027113

>  <energy_score>  (628) 
-10.33466

>  <compound>  (628) 
MLLYPRBAFDEFAU-UHFFFAOYSA-N

>  <compound_id>  (628) 
231469

>  <target>  (628) 
Flavi_NS5_RdRp

>  <tags>  (628) 
[]

>  <inspirations>  (628) 
{P Ã— 2}

>  <subsites>  (628) 
None

>  <reference>  (628) 
z0211a

>  <SLURM_JOB_ID>  (628) 
nan

>  <SLURM_JOB_NAME>  (628) 
nan

>  <csv_name>  (628) 
nan

>  <scratch_subdir>  (628) 
nan

>  <fragmenstein_runtime>  (628) 
nan

>  <fragmenstein_outcome>  (628) 
nan

>  <fragmenstein_mode>  (628) 
nan

>  <fragmenstein_error>  (628) 
nan

>  <exports>  (628) 
nan

>  <Multi-SuCOS>  (628) 
nan

>  <merge_set>  (628) 
nan

$$$$
IRFZMMNECXUAQV-SNVBAGLBSA-N
     RDKit          3D

 19 19  0  0  0  0  0  0  0  0999 V2000
  -26.2209  -31.5384  -14.4903 C   0  0  0  0  0  0  0  0  0  0  0  0
  -27.5113  -30.9664  -14.7238 O   0  0  0  0  0  0  0  0  0  0  0  0
  -27.4461  -30.0746  -15.8336 C   0  0  0  0  0  0  0  0  0  0  0  0
  -28.8294  -29.5283  -16.1503 C   0  0  0  0  0  0  0  0  0  0  0  0
  -29.5670  -30.0151  -17.3887 C   0  0  0  0  0  0  0  0  0  0  0  0
  -28.8917  -30.0208  -18.6677 N   0  0  0  0  0  0  0  0  0  0  0  0
  -29.5157  -29.8626  -19.8746 C   0  0  0  0  0  0  0  0  0  0  0  0
  -28.5332  -29.9658  -20.8231 C   0  0  0  0  0  0  0  0  0  0  0  0
  -27.3725  -30.3181  -20.1121 C   0  0  0  0  0  0  0  0  0  0  0  0
  -26.1973  -30.6839  -20.6845 N   0  0  0  0  0  0  0  0  0  0  0  0
  -25.7893  -30.7637  -22.1846 C   0  0  0  0  0  0  0  0  0  0  0  0
  -26.3642  -30.4607  -23.1200 O   0  0  0  0  0  0  0  0  0  0  0  0
  -24.4135  -31.4708  -22.0376 N   0  0  0  0  0  0  0  0  0  0  0  0
  -23.4467  -31.8501  -23.0392 C   0  0  0  0  0  0  0  0  0  0  0  0
  -22.1980  -32.5368  -22.4814 C   0  0  1  0  0  0  0  0  0  0  0  0
  -21.2613  -32.8998  -23.6290 C   0  0  0  0  0  0  0  0  0  0  0  0
  -21.5346  -31.6392  -21.5886 O   0  0  0  0  0  0  0  0  0  0  0  0
  -20.7585  -32.2842  -20.5892 C   0  0  0  0  0  0  0  0  0  0  0  0
  -27.5754  -30.2898  -18.7958 N   0  0  0  0  0  0  0  0  0  0  0  0
  1  2  1  0
  2  3  1  0
  3  4  1  0
  4  5  1  0
  5  6  1  0
  6  7  1  0
  7  8  2  0
  8  9  1  0
  9 10  1  0
 10 11  1  0
 11 12  2  0
 11 13  1  0
 13 14  1  0
 14 15  1  0
 15 16  1  6
 15 17  1  0
 17 18  1  0
  9 19  2  0
 19  6  1  0
M  END
>  <id>  (629) 
423704

>  <inchikey>  (629) 
IRFZMMNECXUAQV-SNVBAGLBSA-N

>  <alias>  (629) 
None

>  <smiles>  (629) 
COCCCn1ccc(NC(=O)NC[C@@H](C)OC)n1

>  <path>  (629) 
/opt/xchem-fragalysis-2/maxwin/RdRp_FFF/syndirella/mar_elabs/elabs_060/VEAPMNAYWNOMRJ-UHFFFAOYSA-N/output/VEAPMNAYWNOMRJ-UHFFFAOYSA-N-Xhtsx2-398-B/VEAPMNAYWNOMRJ-UHFFFAOYSA-N-Xhtsx2-398-B.minimised.mol

>  <distance_score>  (629) 
0.682249

>  <energy_score>  (629) 
-27.652791

>  <compound>  (629) 
IRFZMMNECXUAQV-UHFFFAOYSA-N

>  <compound_id>  (629) 
231450

>  <target>  (629) 
Flavi_NS5_RdRp

>  <tags>  (629) 
[]

>  <inspirations>  (629) 
{P Ã— 2}

>  <subsites>  (629) 
None

>  <reference>  (629) 
z0211a

>  <SLURM_JOB_ID>  (629) 
nan

>  <SLURM_JOB_NAME>  (629) 
nan

>  <csv_name>  (629) 
nan

>  <scratch_subdir>  (629) 
nan

>  <fragmenstein_runtime>  (629) 
nan

>  <fragmenstein_outcome>  (629) 
nan

>  <fragmenstein_mode>  (629) 
nan

>  <fragmenstein_error>  (629) 
nan

>  <exports>  (629) 
nan

>  <Multi-SuCOS>  (629) 
nan

>  <merge_set>  (629) 
nan

$$$$
SATSJEMTQZWHCE-UHFFFAOYSA-N
     RDKit          3D

 19 20  0  0  0  0  0  0  0  0999 V2000
  -26.2185  -31.6503  -14.3764 C   0  0  0  0  0  0  0  0  0  0  0  0
  -26.6018  -30.2920  -14.5527 O   0  0  0  0  0  0  0  0  0  0  0  0
  -27.0065  -30.0119  -15.8855 C   0  0  0  0  0  0  0  0  0  0  0  0
  -28.5205  -30.0172  -15.9988 C   0  0  0  0  0  0  0  0  0  0  0  0
  -29.0436  -29.4740  -17.3224 C   0  0  0  0  0  0  0  0  0  0  0  0
  -28.5050  -29.9637  -18.5758 N   0  0  0  0  0  0  0  0  0  0  0  0
  -29.2173  -30.0209  -19.7421 C   0  0  0  0  0  0  0  0  0  0  0  0
  -28.2909  -30.2238  -20.7303 C   0  0  0  0  0  0  0  0  0  0  0  0
  -27.0526  -30.3669  -20.0706 C   0  0  0  0  0  0  0  0  0  0  0  0
  -25.8816  -30.6480  -20.7086 N   0  0  0  0  0  0  0  0  0  0  0  0
  -25.5879  -30.8788  -22.2165 C   0  0  0  0  0  0  0  0  0  0  0  0
  -26.2761  -30.7885  -23.1255 O   0  0  0  0  0  0  0  0  0  0  0  0
  -24.1253  -31.3138  -22.1269 N   0  0  0  0  0  0  0  0  0  0  0  0
  -23.1339  -31.6537  -23.2178 C   0  0  0  0  0  0  0  0  0  0  0  0
  -22.5462  -32.7236  -22.3445 C   0  0  0  0  0  0  0  0  0  0  0  0
  -21.9434  -33.8520  -23.1560 C   0  0  0  0  0  0  0  0  0  0  0  0
  -21.5841  -32.3021  -21.3490 O   0  0  0  0  0  0  0  0  0  0  0  0
  -24.0007  -32.8571  -21.9098 C   0  0  0  0  0  0  0  0  0  0  0  0
  -27.1808  -30.1793  -18.7561 N   0  0  0  0  0  0  0  0  0  0  0  0
  1  2  1  0
  2  3  1  0
  3  4  1  0
  4  5  1  0
  5  6  1  0
  6  7  1  0
  7  8  2  0
  8  9  1  0
  9 10  1  0
 10 11  1  0
 11 12  2  0
 11 13  1  0
 13 14  1  0
 14 15  1  0
 15 16  1  0
 15 17  1  0
 15 18  1  0
  9 19  2  0
 19  6  1  0
 18 13  1  0
M  END
>  <id>  (630) 
423719

>  <inchikey>  (630) 
SATSJEMTQZWHCE-UHFFFAOYSA-N

>  <alias>  (630) 
None

>  <smiles>  (630) 
COCCCn1ccc(NC(=O)N2CC(C)(O)C2)n1

>  <path>  (630) 
/opt/xchem-fragalysis-2/maxwin/RdRp_FFF/syndirella/mar_elabs/elabs_060/VEAPMNAYWNOMRJ-UHFFFAOYSA-N/output/VEAPMNAYWNOMRJ-UHFFFAOYSA-N-Xhtsx2-419-A/VEAPMNAYWNOMRJ-UHFFFAOYSA-N-Xhtsx2-419-A.minimised.mol

>  <distance_score>  (630) 
0.801561

>  <energy_score>  (630) 
-30.615316

>  <compound>  (630) 
SATSJEMTQZWHCE-UHFFFAOYSA-N

>  <compound_id>  (630) 
231474

>  <target>  (630) 
Flavi_NS5_RdRp

>  <tags>  (630) 
[]

>  <inspirations>  (630) 
{P Ã— 2}

>  <subsites>  (630) 
None

>  <reference>  (630) 
z0211a

>  <SLURM_JOB_ID>  (630) 
nan

>  <SLURM_JOB_NAME>  (630) 
nan

>  <csv_name>  (630) 
nan

>  <scratch_subdir>  (630) 
nan

>  <fragmenstein_runtime>  (630) 
nan

>  <fragmenstein_outcome>  (630) 
nan

>  <fragmenstein_mode>  (630) 
nan

>  <fragmenstein_error>  (630) 
nan

>  <exports>  (630) 
nan

>  <Multi-SuCOS>  (630) 
nan

>  <merge_set>  (630) 
nan

$$$$
ICZFDRDGCHFGTD-ZJUUUORDSA-N
     RDKit          3D

 20 22  0  0  0  0  0  0  0  0999 V2000
  -25.9501  -30.3369  -23.4749 O   0  0  0  0  0  0  0  0  0  0  0  0
  -25.6134  -31.0519  -22.6481 C   0  0  0  0  0  0  0  0  0  0  0  0
  -26.2727  -31.3919  -21.2890 N   0  0  0  0  0  0  0  0  0  0  0  0
  -27.3683  -30.8665  -20.6889 C   0  0  0  0  0  0  0  0  0  0  0  0
  -28.2898  -30.0022  -21.3033 C   0  0  0  0  0  0  0  0  0  0  0  0
  -29.2084  -29.7047  -20.3316 C   0  0  0  0  0  0  0  0  0  0  0  0
  -28.7178  -30.2521  -19.1854 N   0  0  0  0  0  0  0  0  0  0  0  0
  -29.1840  -29.9862  -17.8427 C   0  0  0  0  0  0  0  0  0  0  0  0
  -28.1452  -29.5009  -16.8328 C   0  0  1  0  0  0  0  0  0  0  0  0
  -28.1030  -30.2060  -15.4804 C   0  0  0  0  0  0  0  0  0  0  0  0
  -26.6227  -30.4506  -15.2447 C   0  0  0  0  0  0  0  0  0  0  0  0
  -25.9672  -29.4323  -16.0061 O   0  0  0  0  0  0  0  0  0  0  0  0
  -26.6761  -29.4333  -17.2495 C   0  0  0  0  0  0  0  0  0  0  0  0
  -27.6869  -31.0875  -19.4146 N   0  0  0  0  0  0  0  0  0  0  0  0
  -24.3352  -31.8718  -22.5167 N   0  0  0  0  0  0  0  0  0  0  0  0
  -23.2171  -32.0551  -23.4576 C   0  0  0  0  0  0  0  0  0  0  0  0
  -21.9703  -32.5808  -22.7941 C   0  0  2  0  0  0  0  0  0  0  0  0
  -21.9009  -33.9972  -22.8107 O   0  0  0  0  0  0  0  0  0  0  0  0
  -22.2165  -31.9959  -21.4511 C   0  0  0  0  0  0  0  0  0  0  0  0
  -23.2822  -31.1121  -21.8069 O   0  0  0  0  0  0  0  0  0  0  0  0
  1  2  2  0
  2  3  1  0
  3  4  1  0
  4  5  1  0
  5  6  2  0
  6  7  1  0
  7  8  1  0
  9  8  1  6
  9 10  1  0
 10 11  1  0
 11 12  1  0
 12 13  1  0
  7 14  1  0
  2 15  1  0
 15 16  1  0
 16 17  1  0
 17 18  1  1
 17 19  1  0
 19 20  1  0
 14  4  2  0
 20 15  1  0
 13  9  1  0
M  END
>  <id>  (631) 
424200

>  <inchikey>  (631) 
ICZFDRDGCHFGTD-ZJUUUORDSA-N

>  <alias>  (631) 
None

>  <smiles>  (631) 
O=C(Nc1ccn(C[C@H]2CCOC2)n1)N1C[C@H](O)CO1

>  <path>  (631) 
/opt/xchem-fragalysis-2/maxwin/RdRp_FFF/syndirella/mar_elabs/elabs_060/VEAPMNAYWNOMRJ-UHFFFAOYSA-N/output/VEAPMNAYWNOMRJ-UHFFFAOYSA-N-Xhtsx2-847-B/VEAPMNAYWNOMRJ-UHFFFAOYSA-N-Xhtsx2-847-B.minimised.mol

>  <distance_score>  (631) 
1.056031

>  <energy_score>  (631) 
-6.513262

>  <compound>  (631) 
ICZFDRDGCHFGTD-UHFFFAOYSA-N

>  <compound_id>  (631) 
233015

>  <target>  (631) 
Flavi_NS5_RdRp

>  <tags>  (631) 
[]

>  <inspirations>  (631) 
{P Ã— 2}

>  <subsites>  (631) 
None

>  <reference>  (631) 
z0211a

>  <SLURM_JOB_ID>  (631) 
nan

>  <SLURM_JOB_NAME>  (631) 
nan

>  <csv_name>  (631) 
nan

>  <scratch_subdir>  (631) 
nan

>  <fragmenstein_runtime>  (631) 
nan

>  <fragmenstein_outcome>  (631) 
nan

>  <fragmenstein_mode>  (631) 
nan

>  <fragmenstein_error>  (631) 
nan

>  <exports>  (631) 
nan

>  <Multi-SuCOS>  (631) 
nan

>  <merge_set>  (631) 
nan

$$$$
ZQNUNCASRIDQJD-SNVBAGLBSA-N
     RDKit          3D

 20 22  0  0  0  0  0  0  0  0999 V2000
  -20.5886  -32.9241  -23.2196 C   0  0  0  0  0  0  0  0  0  0  0  0
  -21.7222  -33.1068  -24.0508 O   0  0  0  0  0  0  0  0  0  0  0  0
  -22.9705  -33.0363  -23.3377 C   0  0  0  0  0  0  0  0  0  0  0  0
  -23.3941  -31.6964  -22.7923 C   0  0  0  0  0  0  0  0  0  0  0  0
  -24.8425  -32.2066  -22.9096 N   0  0  0  0  0  0  0  0  0  0  0  0
  -25.8452  -31.0693  -22.7737 C   0  0  0  0  0  0  0  0  0  0  0  0
  -26.3072  -30.3917  -23.5723 O   0  0  0  0  0  0  0  0  0  0  0  0
  -26.1300  -31.1672  -21.2624 N   0  0  0  0  0  0  0  0  0  0  0  0
  -27.0553  -30.5464  -20.5064 C   0  0  0  0  0  0  0  0  0  0  0  0
  -28.2377  -29.9278  -20.9398 C   0  0  0  0  0  0  0  0  0  0  0  0
  -28.9143  -29.6326  -19.7809 C   0  0  0  0  0  0  0  0  0  0  0  0
  -28.0278  -29.8645  -18.7732 N   0  0  0  0  0  0  0  0  0  0  0  0
  -28.0310  -29.2993  -17.4361 C   0  0  0  0  0  0  0  0  0  0  0  0
  -27.8834  -30.3256  -16.3282 C   0  0  1  0  0  0  0  0  0  0  0  0
  -26.4819  -30.9322  -16.1986 C   0  0  0  0  0  0  0  0  0  0  0  0
  -25.7431  -29.9351  -15.3839 C   0  0  0  0  0  0  0  0  0  0  0  0
  -26.7316  -29.4258  -14.5005 O   0  0  0  0  0  0  0  0  0  0  0  0
  -28.0343  -29.8070  -14.9401 C   0  0  0  0  0  0  0  0  0  0  0  0
  -26.9489  -30.5439  -19.1828 N   0  0  0  0  0  0  0  0  0  0  0  0
  -24.2407  -32.8402  -24.1394 C   0  0  0  0  0  0  0  0  0  0  0  0
  1  2  1  0
  2  3  1  0
  3  4  1  0
  4  5  1  0
  5  6  1  0
  6  7  2  0
  6  8  1  0
  8  9  1  0
  9 10  1  0
 10 11  2  0
 11 12  1  0
 12 13  1  0
 14 13  1  6
 14 15  1  0
 15 16  1  0
 16 17  1  0
 17 18  1  0
 12 19  1  0
  5 20  1  0
 20  3  1  0
 19  9  2  0
 18 14  1  0
M  END
>  <id>  (632) 
424210

>  <inchikey>  (632) 
ZQNUNCASRIDQJD-SNVBAGLBSA-N

>  <alias>  (632) 
None

>  <smiles>  (632) 
COC1CN(C(=O)Nc2ccn(C[C@H]3CCOC3)n2)C1

>  <path>  (632) 
/opt/xchem-fragalysis-2/maxwin/RdRp_FFF/syndirella/mar_elabs/elabs_060/VEAPMNAYWNOMRJ-UHFFFAOYSA-N/output/VEAPMNAYWNOMRJ-UHFFFAOYSA-N-Xhtsx2-858-B/VEAPMNAYWNOMRJ-UHFFFAOYSA-N-Xhtsx2-858-B.minimised.mol

>  <distance_score>  (632) 
1.44422

>  <energy_score>  (632) 
-15.160589

>  <compound>  (632) 
ZQNUNCASRIDQJD-UHFFFAOYSA-N

>  <compound_id>  (632) 
233026

>  <target>  (632) 
Flavi_NS5_RdRp

>  <tags>  (632) 
[]

>  <inspirations>  (632) 
{P Ã— 2}

>  <subsites>  (632) 
None

>  <reference>  (632) 
z0211a

>  <SLURM_JOB_ID>  (632) 
nan

>  <SLURM_JOB_NAME>  (632) 
nan

>  <csv_name>  (632) 
nan

>  <scratch_subdir>  (632) 
nan

>  <fragmenstein_runtime>  (632) 
nan

>  <fragmenstein_outcome>  (632) 
nan

>  <fragmenstein_mode>  (632) 
nan

>  <fragmenstein_error>  (632) 
nan

>  <exports>  (632) 
nan

>  <Multi-SuCOS>  (632) 
nan

>  <merge_set>  (632) 
nan

$$$$
XPMOGKFSXLOFMX-RKDXNWHRSA-N
     RDKit          3D

 20 21  0  0  0  0  0  0  0  0999 V2000
  -20.2965  -32.8975  -22.2548 C   0  0  0  0  0  0  0  0  0  0  0  0
  -21.4322  -31.9390  -22.5681 C   0  0  1  0  0  0  0  0  0  0  0  0
  -21.0394  -31.0707  -23.6220 O   0  0  0  0  0  0  0  0  0  0  0  0
  -22.7745  -32.6704  -22.8845 C   0  0  0  0  0  0  0  0  0  0  0  0
  -22.8999  -33.8649  -23.8846 S   0  0  0  0  0  0  0  0  0  0  0  0
  -23.8358  -31.9506  -21.9215 N   0  0  0  0  0  0  0  0  0  0  0  0
  -25.4407  -32.1306  -21.7182 C   0  0  0  0  0  0  0  0  0  0  0  0
  -26.1847  -32.8827  -22.1681 O   0  0  0  0  0  0  0  0  0  0  0  0
  -25.6699  -30.9730  -20.8536 N   0  0  0  0  0  0  0  0  0  0  0  0
  -26.7985  -30.5191  -20.2735 C   0  0  0  0  0  0  0  0  0  0  0  0
  -28.1317  -30.8455  -20.5531 C   0  0  0  0  0  0  0  0  0  0  0  0
  -28.8562  -30.3076  -19.5141 C   0  0  0  0  0  0  0  0  0  0  0  0
  -27.9155  -29.7773  -18.6794 N   0  0  0  0  0  0  0  0  0  0  0  0
  -28.0417  -29.6047  -17.2527 C   0  0  0  0  0  0  0  0  0  0  0  0
  -26.7494  -29.6970  -16.4221 C   0  0  1  0  0  0  0  0  0  0  0  0
  -26.9795  -30.3415  -15.0665 C   0  0  0  0  0  0  0  0  0  0  0  0
  -25.7172  -31.1297  -14.7814 C   0  0  0  0  0  0  0  0  0  0  0  0
  -24.7557  -30.6841  -15.7302 O   0  0  0  0  0  0  0  0  0  0  0  0
  -25.4998  -30.4100  -16.9256 C   0  0  0  0  0  0  0  0  0  0  0  0
  -26.7164  -29.6665  -19.2597 N   0  0  0  0  0  0  0  0  0  0  0  0
  2  1  1  6
  2  3  1  0
  2  4  1  0
  4  5  2  0
  4  6  1  0
  6  7  1  0
  7  8  2  0
  7  9  1  0
  9 10  1  0
 10 11  1  0
 11 12  2  0
 12 13  1  0
 13 14  1  0
 15 14  1  6
 15 16  1  0
 16 17  1  0
 17 18  1  0
 18 19  1  0
 13 20  1  0
 20 10  2  0
 19 15  1  0
M  END
>  <id>  (633) 
424212

>  <inchikey>  (633) 
XPMOGKFSXLOFMX-RKDXNWHRSA-N

>  <alias>  (633) 
None

>  <smiles>  (633) 
C[C@@H](O)C(=S)NC(=O)Nc1ccn(C[C@H]2CCOC2)n1

>  <path>  (633) 
/opt/xchem-fragalysis-2/maxwin/RdRp_FFF/syndirella/mar_elabs/elabs_060/VEAPMNAYWNOMRJ-UHFFFAOYSA-N/output/VEAPMNAYWNOMRJ-UHFFFAOYSA-N-Xhtsx2-866-D/VEAPMNAYWNOMRJ-UHFFFAOYSA-N-Xhtsx2-866-D.minimised.mol

>  <distance_score>  (633) 
1.491331

>  <energy_score>  (633) 
-3.734911

>  <compound>  (633) 
XPMOGKFSXLOFMX-UHFFFAOYSA-N

>  <compound_id>  (633) 
233030

>  <target>  (633) 
Flavi_NS5_RdRp

>  <tags>  (633) 
[]

>  <inspirations>  (633) 
{P Ã— 2}

>  <subsites>  (633) 
None

>  <reference>  (633) 
z0211a

>  <SLURM_JOB_ID>  (633) 
nan

>  <SLURM_JOB_NAME>  (633) 
nan

>  <csv_name>  (633) 
nan

>  <scratch_subdir>  (633) 
nan

>  <fragmenstein_runtime>  (633) 
nan

>  <fragmenstein_outcome>  (633) 
nan

>  <fragmenstein_mode>  (633) 
nan

>  <fragmenstein_error>  (633) 
nan

>  <exports>  (633) 
nan

>  <Multi-SuCOS>  (633) 
nan

>  <merge_set>  (633) 
nan

$$$$
ILICBEAGNJGEQA-MNOVXSKESA-N
     RDKit          3D

 20 21  0  0  0  0  0  0  0  0999 V2000
  -21.7620  -33.5139  -25.4849 C   0  0  0  0  0  0  0  0  0  0  0  0
  -21.1482  -32.7951  -24.2939 C   0  0  0  0  0  0  0  0  0  0  0  0
  -22.1706  -32.2105  -23.3237 C   0  0  2  0  0  0  0  0  0  0  0  0
  -21.4411  -31.4973  -22.3213 O   0  0  0  0  0  0  0  0  0  0  0  0
  -23.0223  -33.2855  -22.6451 C   0  0  0  0  0  0  0  0  0  0  0  0
  -24.0745  -32.7118  -21.8461 N   0  0  0  0  0  0  0  0  0  0  0  0
  -25.1881  -31.6995  -22.2278 C   0  0  0  0  0  0  0  0  0  0  0  0
  -25.4587  -31.2508  -23.2380 O   0  0  0  0  0  0  0  0  0  0  0  0
  -25.8845  -31.5594  -20.8521 N   0  0  0  0  0  0  0  0  0  0  0  0
  -27.0399  -30.9429  -20.5139 C   0  0  0  0  0  0  0  0  0  0  0  0
  -27.8954  -30.1466  -21.2910 C   0  0  0  0  0  0  0  0  0  0  0  0
  -28.8662  -29.7086  -20.4150 C   0  0  0  0  0  0  0  0  0  0  0  0
  -28.5165  -30.2118  -19.1971 N   0  0  0  0  0  0  0  0  0  0  0  0
  -29.0875  -29.9157  -17.9030 C   0  0  0  0  0  0  0  0  0  0  0  0
  -28.1122  -29.4676  -16.8076 C   0  0  1  0  0  0  0  0  0  0  0  0
  -28.1344  -30.2365  -15.4883 C   0  0  0  0  0  0  0  0  0  0  0  0
  -26.6720  -30.5463  -15.2256 C   0  0  0  0  0  0  0  0  0  0  0  0
  -25.9748  -29.4682  -15.8553 O   0  0  0  0  0  0  0  0  0  0  0  0
  -26.6166  -29.3564  -17.1298 C   0  0  0  0  0  0  0  0  0  0  0  0
  -27.4953  -31.0677  -19.2740 N   0  0  0  0  0  0  0  0  0  0  0  0
  1  2  1  0
  2  3  1  0
  3  4  1  1
  3  5  1  0
  5  6  1  0
  6  7  1  0
  7  8  2  0
  7  9  1  0
  9 10  1  0
 10 11  1  0
 11 12  2  0
 12 13  1  0
 13 14  1  0
 15 14  1  6
 15 16  1  0
 16 17  1  0
 17 18  1  0
 18 19  1  0
 13 20  1  0
 20 10  2  0
 19 15  1  0
M  END
>  <id>  (634) 
424215

>  <inchikey>  (634) 
ILICBEAGNJGEQA-MNOVXSKESA-N

>  <alias>  (634) 
None

>  <smiles>  (634) 
CC[C@H](O)CNC(=O)Nc1ccn(C[C@H]2CCOC2)n1

>  <path>  (634) 
/opt/xchem-fragalysis-2/maxwin/RdRp_FFF/syndirella/mar_elabs/elabs_060/VEAPMNAYWNOMRJ-UHFFFAOYSA-N/output/VEAPMNAYWNOMRJ-UHFFFAOYSA-N-Xhtsx2-867-C/VEAPMNAYWNOMRJ-UHFFFAOYSA-N-Xhtsx2-867-C.minimised.mol

>  <distance_score>  (634) 
1.025253

>  <energy_score>  (634) 
-3.727394

>  <compound>  (634) 
ILICBEAGNJGEQA-UHFFFAOYSA-N

>  <compound_id>  (634) 
233031

>  <target>  (634) 
Flavi_NS5_RdRp

>  <tags>  (634) 
[]

>  <inspirations>  (634) 
{P Ã— 2}

>  <subsites>  (634) 
None

>  <reference>  (634) 
z0211a

>  <SLURM_JOB_ID>  (634) 
nan

>  <SLURM_JOB_NAME>  (634) 
nan

>  <csv_name>  (634) 
nan

>  <scratch_subdir>  (634) 
nan

>  <fragmenstein_runtime>  (634) 
nan

>  <fragmenstein_outcome>  (634) 
nan

>  <fragmenstein_mode>  (634) 
nan

>  <fragmenstein_error>  (634) 
nan

>  <exports>  (634) 
nan

>  <Multi-SuCOS>  (634) 
nan

>  <merge_set>  (634) 
nan

$$$$
DXMBDGXCHYBBLE-IUCAKERBSA-N
     RDKit          3D

 20 21  0  0  0  0  0  0  0  0999 V2000
  -20.4931  -33.0932  -22.4770 C   0  0  0  0  0  0  0  0  0  0  0  0
  -21.6689  -32.1439  -22.4635 C   0  0  2  0  0  0  0  0  0  0  0  0
  -21.6519  -31.4167  -21.2349 O   0  0  0  0  0  0  0  0  0  0  0  0
  -23.0380  -32.8501  -22.6590 C   0  0  0  0  0  0  0  0  0  0  0  0
  -23.1892  -33.9003  -23.2879 N   0  0  0  0  0  0  0  0  0  0  0  0
  -24.0257  -31.9627  -21.9401 N   0  0  0  0  0  0  0  0  0  0  0  0
  -25.6026  -32.1199  -21.6422 C   0  0  0  0  0  0  0  0  0  0  0  0
  -26.3662  -32.9166  -21.9808 O   0  0  0  0  0  0  0  0  0  0  0  0
  -25.7865  -30.9135  -20.8282 N   0  0  0  0  0  0  0  0  0  0  0  0
  -26.8724  -30.4484  -20.1776 C   0  0  0  0  0  0  0  0  0  0  0  0
  -28.2268  -30.7519  -20.3803 C   0  0  0  0  0  0  0  0  0  0  0  0
  -28.8777  -30.2325  -19.2831 C   0  0  0  0  0  0  0  0  0  0  0  0
  -27.8792  -29.7401  -18.4929 N   0  0  0  0  0  0  0  0  0  0  0  0
  -27.8644  -29.6995  -17.0417 C   0  0  0  0  0  0  0  0  0  0  0  0
  -26.5768  -30.2979  -16.4691 C   0  0  2  0  0  0  0  0  0  0  0  0
  -26.6774  -30.6874  -15.0170 C   0  0  0  0  0  0  0  0  0  0  0  0
  -25.2176  -30.8493  -14.6902 C   0  0  0  0  0  0  0  0  0  0  0  0
  -24.6317  -29.6812  -15.2706 O   0  0  0  0  0  0  0  0  0  0  0  0
  -25.3353  -29.4225  -16.5051 C   0  0  0  0  0  0  0  0  0  0  0  0
  -26.7131  -29.6249  -19.1470 N   0  0  0  0  0  0  0  0  0  0  0  0
  2  1  1  1
  2  3  1  0
  2  4  1  0
  4  5  2  3
  4  6  1  0
  6  7  1  0
  7  8  2  0
  7  9  1  0
  9 10  1  0
 10 11  1  0
 11 12  2  0
 12 13  1  0
 13 14  1  0
 15 14  1  1
 15 16  1  0
 16 17  1  0
 17 18  1  0
 18 19  1  0
 13 20  1  0
 20 10  2  0
 19 15  1  0
M  END
>  <id>  (635) 
424223

>  <inchikey>  (635) 
DXMBDGXCHYBBLE-IUCAKERBSA-N

>  <alias>  (635) 
None

>  <smiles>  (635) 
C[C@H](O)C(=N)NC(=O)Nc1ccn(C[C@@H]2CCOC2)n1

>  <path>  (635) 
/opt/xchem-fragalysis-2/maxwin/RdRp_FFF/syndirella/mar_elabs/elabs_060/VEAPMNAYWNOMRJ-UHFFFAOYSA-N/output/VEAPMNAYWNOMRJ-UHFFFAOYSA-N-Xhtsx2-871-C/VEAPMNAYWNOMRJ-UHFFFAOYSA-N-Xhtsx2-871-C.minimised.mol

>  <distance_score>  (635) 
1.51252

>  <energy_score>  (635) 
-11.999071

>  <compound>  (635) 
DXMBDGXCHYBBLE-UHFFFAOYSA-N

>  <compound_id>  (635) 
233035

>  <target>  (635) 
Flavi_NS5_RdRp

>  <tags>  (635) 
[]

>  <inspirations>  (635) 
{P Ã— 2}

>  <subsites>  (635) 
None

>  <reference>  (635) 
z0211a

>  <SLURM_JOB_ID>  (635) 
nan

>  <SLURM_JOB_NAME>  (635) 
nan

>  <csv_name>  (635) 
nan

>  <scratch_subdir>  (635) 
nan

>  <fragmenstein_runtime>  (635) 
nan

>  <fragmenstein_outcome>  (635) 
nan

>  <fragmenstein_mode>  (635) 
nan

>  <fragmenstein_error>  (635) 
nan

>  <exports>  (635) 
nan

>  <Multi-SuCOS>  (635) 
nan

>  <merge_set>  (635) 
nan

$$$$
NPPBHBFMVIBNQX-GHMZBOCLSA-N
     RDKit          3D

 20 21  0  0  0  0  0  0  0  0999 V2000
  -20.7262  -32.2654  -20.5430 C   0  0  0  0  0  0  0  0  0  0  0  0
  -21.4575  -31.6567  -21.5971 O   0  0  0  0  0  0  0  0  0  0  0  0
  -22.0696  -32.5844  -22.4927 C   0  0  2  0  0  0  0  0  0  0  0  0
  -21.0908  -32.9248  -23.6101 C   0  0  0  0  0  0  0  0  0  0  0  0
  -23.3125  -31.9420  -23.1028 C   0  0  0  0  0  0  0  0  0  0  0  0
  -24.3617  -31.6413  -22.1634 N   0  0  0  0  0  0  0  0  0  0  0  0
  -25.6816  -30.8473  -22.3519 C   0  0  0  0  0  0  0  0  0  0  0  0
  -26.1407  -30.3959  -23.2918 O   0  0  0  0  0  0  0  0  0  0  0  0
  -26.2441  -30.9373  -20.9007 N   0  0  0  0  0  0  0  0  0  0  0  0
  -27.4564  -30.5833  -20.4059 C   0  0  0  0  0  0  0  0  0  0  0  0
  -28.4486  -29.9702  -21.1918 C   0  0  0  0  0  0  0  0  0  0  0  0
  -29.5531  -29.9052  -20.3930 C   0  0  0  0  0  0  0  0  0  0  0  0
  -29.1588  -30.3846  -19.1758 N   0  0  0  0  0  0  0  0  0  0  0  0
  -30.0341  -30.4336  -18.0264 C   0  0  0  0  0  0  0  0  0  0  0  0
  -29.6118  -29.8080  -16.7091 C   0  0  1  0  0  0  0  0  0  0  0  0
  -28.9071  -30.4889  -15.5615 C   0  0  0  0  0  0  0  0  0  0  0  0
  -27.4310  -30.2249  -15.7292 C   0  0  0  0  0  0  0  0  0  0  0  0
  -27.3464  -29.0679  -16.5442 O   0  0  0  0  0  0  0  0  0  0  0  0
  -28.6622  -28.6900  -16.9428 C   0  0  0  0  0  0  0  0  0  0  0  0
  -27.8775  -30.8088  -19.1581 N   0  0  0  0  0  0  0  0  0  0  0  0
  1  2  1  0
  2  3  1  0
  3  4  1  6
  3  5  1  0
  5  6  1  0
  6  7  1  0
  7  8  2  0
  7  9  1  0
  9 10  1  0
 10 11  1  0
 11 12  2  0
 12 13  1  0
 13 14  1  0
 15 14  1  6
 15 16  1  0
 16 17  1  0
 17 18  1  0
 18 19  1  0
 13 20  1  0
 20 10  2  0
 19 15  1  0
M  END
>  <id>  (636) 
424235

>  <inchikey>  (636) 
NPPBHBFMVIBNQX-GHMZBOCLSA-N

>  <alias>  (636) 
None

>  <smiles>  (636) 
CO[C@H](C)CNC(=O)Nc1ccn(C[C@H]2CCOC2)n1

>  <path>  (636) 
/opt/xchem-fragalysis-2/maxwin/RdRp_FFF/syndirella/mar_elabs/elabs_060/VEAPMNAYWNOMRJ-UHFFFAOYSA-N/output/VEAPMNAYWNOMRJ-UHFFFAOYSA-N-Xhtsx2-877-C/VEAPMNAYWNOMRJ-UHFFFAOYSA-N-Xhtsx2-877-C.minimised.mol

>  <distance_score>  (636) 
0.921073

>  <energy_score>  (636) 
-21.405184

>  <compound>  (636) 
NPPBHBFMVIBNQX-UHFFFAOYSA-N

>  <compound_id>  (636) 
233041

>  <target>  (636) 
Flavi_NS5_RdRp

>  <tags>  (636) 
[]

>  <inspirations>  (636) 
{P Ã— 2}

>  <subsites>  (636) 
None

>  <reference>  (636) 
z0211a

>  <SLURM_JOB_ID>  (636) 
nan

>  <SLURM_JOB_NAME>  (636) 
nan

>  <csv_name>  (636) 
nan

>  <scratch_subdir>  (636) 
nan

>  <fragmenstein_runtime>  (636) 
nan

>  <fragmenstein_outcome>  (636) 
nan

>  <fragmenstein_mode>  (636) 
nan

>  <fragmenstein_error>  (636) 
nan

>  <exports>  (636) 
nan

>  <Multi-SuCOS>  (636) 
nan

>  <merge_set>  (636) 
nan

$$$$
CNTUDZRUURSQFW-ZJUUUORDSA-N
     RDKit          3D

 20 21  0  0  0  0  0  0  0  0999 V2000
  -26.1670  -30.3442  -23.1945 O   0  0  0  0  0  0  0  0  0  0  0  0
  -25.7567  -30.8183  -22.2454 C   0  0  0  0  0  0  0  0  0  0  0  0
  -24.4393  -31.5811  -22.0018 N   0  0  0  0  0  0  0  0  0  0  0  0
  -23.4146  -31.9850  -22.9222 C   0  0  0  0  0  0  0  0  0  0  0  0
  -22.0936  -32.0675  -22.1646 C   0  0  1  0  0  0  0  0  0  0  0  0
  -22.3791  -32.5774  -20.8432 O   0  0  0  0  0  0  0  0  0  0  0  0
  -21.0944  -32.9876  -22.8384 C   0  0  0  0  0  0  0  0  0  0  0  0
  -19.7012  -33.1802  -21.7254 Cl  0  0  0  0  0  0  0  0  0  0  0  0
  -26.3782  -30.9227  -20.8274 N   0  0  0  0  0  0  0  0  0  0  0  0
  -27.5974  -30.5585  -20.3795 C   0  0  0  0  0  0  0  0  0  0  0  0
  -28.5876  -29.9434  -21.1570 C   0  0  0  0  0  0  0  0  0  0  0  0
  -29.6940  -29.9138  -20.3544 C   0  0  0  0  0  0  0  0  0  0  0  0
  -29.2862  -30.3911  -19.1407 N   0  0  0  0  0  0  0  0  0  0  0  0
  -30.1194  -30.4292  -17.9629 C   0  0  0  0  0  0  0  0  0  0  0  0
  -29.6329  -29.7958  -16.6724 C   0  0  1  0  0  0  0  0  0  0  0  0
  -28.9199  -30.4877  -15.5375 C   0  0  0  0  0  0  0  0  0  0  0  0
  -27.4435  -30.2265  -15.7119 C   0  0  0  0  0  0  0  0  0  0  0  0
  -27.3513  -29.0872  -16.5503 O   0  0  0  0  0  0  0  0  0  0  0  0
  -28.6664  -28.6999  -16.9414 C   0  0  0  0  0  0  0  0  0  0  0  0
  -28.0064  -30.7978  -19.1335 N   0  0  0  0  0  0  0  0  0  0  0  0
  1  2  2  0
  2  3  1  0
  3  4  1  0
  4  5  1  0
  5  6  1  1
  5  7  1  0
  7  8  1  0
  2  9  1  0
  9 10  1  0
 10 11  1  0
 11 12  2  0
 12 13  1  0
 13 14  1  0
 15 14  1  6
 15 16  1  0
 16 17  1  0
 17 18  1  0
 18 19  1  0
 13 20  1  0
 20 10  2  0
 19 15  1  0
M  END
>  <id>  (637) 
424246

>  <inchikey>  (637) 
CNTUDZRUURSQFW-ZJUUUORDSA-N

>  <alias>  (637) 
None

>  <smiles>  (637) 
O=C(NC[C@@H](O)CCl)Nc1ccn(C[C@H]2CCOC2)n1

>  <path>  (637) 
/opt/xchem-fragalysis-2/maxwin/RdRp_FFF/syndirella/mar_elabs/elabs_060/VEAPMNAYWNOMRJ-UHFFFAOYSA-N/output/VEAPMNAYWNOMRJ-UHFFFAOYSA-N-Xhtsx2-882-D/VEAPMNAYWNOMRJ-UHFFFAOYSA-N-Xhtsx2-882-D.minimised.mol

>  <distance_score>  (637) 
1.022473

>  <energy_score>  (637) 
-23.026998

>  <compound>  (637) 
CNTUDZRUURSQFW-UHFFFAOYSA-N

>  <compound_id>  (637) 
233046

>  <target>  (637) 
Flavi_NS5_RdRp

>  <tags>  (637) 
[]

>  <inspirations>  (637) 
{P Ã— 2}

>  <subsites>  (637) 
None

>  <reference>  (637) 
z0211a

>  <SLURM_JOB_ID>  (637) 
nan

>  <SLURM_JOB_NAME>  (637) 
nan

>  <csv_name>  (637) 
nan

>  <scratch_subdir>  (637) 
nan

>  <fragmenstein_runtime>  (637) 
nan

>  <fragmenstein_outcome>  (637) 
nan

>  <fragmenstein_mode>  (637) 
nan

>  <fragmenstein_error>  (637) 
nan

>  <exports>  (637) 
nan

>  <Multi-SuCOS>  (637) 
nan

>  <merge_set>  (637) 
nan

$$$$
IIGCACOYGNRDFF-DTWKUNHWSA-N
     RDKit          3D

 20 21  0  0  0  0  0  0  0  0999 V2000
  -20.5338  -31.7497  -20.4936 C   0  0  0  0  0  0  0  0  0  0  0  0
  -21.6554  -32.1781  -21.2573 O   0  0  0  0  0  0  0  0  0  0  0  0
  -21.4559  -32.0911  -22.6726 C   0  0  1  0  0  0  0  0  0  0  0  0
  -20.6925  -33.3042  -23.1466 C   0  0  0  0  0  0  0  0  0  0  0  0
  -22.8269  -31.9883  -23.4004 C   0  0  0  0  0  0  0  0  0  0  0  0
  -22.9613  -32.1966  -24.6092 N   0  0  0  0  0  0  0  0  0  0  0  0
  -23.7992  -31.5137  -22.3558 N   0  0  0  0  0  0  0  0  0  0  0  0
  -25.3160  -31.0058  -22.4516 C   0  0  0  0  0  0  0  0  0  0  0  0
  -26.0462  -30.9595  -23.3393 O   0  0  0  0  0  0  0  0  0  0  0  0
  -25.5275  -30.7038  -21.0334 N   0  0  0  0  0  0  0  0  0  0  0  0
  -26.6043  -30.2056  -20.3906 C   0  0  0  0  0  0  0  0  0  0  0  0
  -27.9113  -29.9925  -20.8610 C   0  0  0  0  0  0  0  0  0  0  0  0
  -28.6246  -29.6013  -19.7493 C   0  0  0  0  0  0  0  0  0  0  0  0
  -27.7227  -29.5667  -18.7194 N   0  0  0  0  0  0  0  0  0  0  0  0
  -27.9930  -29.8796  -17.3520 C   0  0  2  0  0  0  0  0  0  0  0  0
  -29.0913  -29.2843  -16.5227 C   0  0  0  0  0  0  0  0  0  0  0  0
  -28.7170  -29.8844  -15.1757 C   0  0  0  0  0  0  0  0  0  0  0  0
  -27.2914  -29.8972  -15.0906 O   0  0  0  0  0  0  0  0  0  0  0  0
  -26.7830  -29.8500  -16.4266 C   0  0  0  0  0  0  0  0  0  0  0  0
  -26.4701  -29.8320  -19.1264 N   0  0  0  0  0  0  0  0  0  0  0  0
  1  2  1  0
  2  3  1  0
  3  4  1  6
  3  5  1  0
  5  6  2  3
  5  7  1  0
  7  8  1  0
  8  9  2  0
  8 10  1  0
 10 11  1  0
 11 12  1  0
 12 13  2  0
 13 14  1  0
 15 14  1  6
 15 16  1  0
 16 17  1  0
 17 18  1  0
 18 19  1  0
 14 20  1  0
 20 11  2  0
 19 15  1  0
M  END
>  <id>  (638) 
425124

>  <inchikey>  (638) 
IIGCACOYGNRDFF-DTWKUNHWSA-N

>  <alias>  (638) 
None

>  <smiles>  (638) 
CO[C@@H](C)C(=N)NC(=O)Nc1ccn([C@@H]2CCOC2)n1

>  <path>  (638) 
/opt/xchem-fragalysis-2/maxwin/RdRp_FFF/syndirella/mar_elabs/elabs_060/VEAPMNAYWNOMRJ-UHFFFAOYSA-N/output/VEAPMNAYWNOMRJ-UHFFFAOYSA-N-Xhtsx2-1923-B/VEAPMNAYWNOMRJ-UHFFFAOYSA-N-Xhtsx2-1923-B.minimised.mol

>  <distance_score>  (638) 
1.034575

>  <energy_score>  (638) 
-35.020037

>  <compound>  (638) 
IIGCACOYGNRDFF-UHFFFAOYSA-N

>  <compound_id>  (638) 
233091

>  <target>  (638) 
Flavi_NS5_RdRp

>  <tags>  (638) 
[]

>  <inspirations>  (638) 
{P Ã— 2}

>  <subsites>  (638) 
None

>  <reference>  (638) 
z0211a

>  <SLURM_JOB_ID>  (638) 
nan

>  <SLURM_JOB_NAME>  (638) 
nan

>  <csv_name>  (638) 
nan

>  <scratch_subdir>  (638) 
nan

>  <fragmenstein_runtime>  (638) 
nan

>  <fragmenstein_outcome>  (638) 
nan

>  <fragmenstein_mode>  (638) 
nan

>  <fragmenstein_error>  (638) 
nan

>  <exports>  (638) 
nan

>  <Multi-SuCOS>  (638) 
nan

>  <merge_set>  (638) 
nan

$$$$
TWPFLPOBOWNRPF-JTQLQIEISA-N
     RDKit          3D

 20 21  0  0  0  0  0  0  0  0999 V2000
  -21.7725  -33.5284  -25.1611 C   0  0  0  0  0  0  0  0  0  0  0  0
  -21.1476  -32.9928  -24.0045 O   0  0  0  0  0  0  0  0  0  0  0  0
  -22.0016  -32.7287  -22.8698 C   0  0  0  0  0  0  0  0  0  0  0  0
  -21.1188  -31.9378  -21.8926 C   0  0  0  0  0  0  0  0  0  0  0  0
  -22.3980  -34.0575  -22.2073 C   0  0  0  0  0  0  0  0  0  0  0  0
  -23.2473  -31.9128  -23.2627 C   0  0  0  0  0  0  0  0  0  0  0  0
  -24.1200  -31.5181  -22.1908 N   0  0  0  0  0  0  0  0  0  0  0  0
  -25.5165  -30.8498  -22.2294 C   0  0  0  0  0  0  0  0  0  0  0  0
  -26.1848  -30.5958  -23.1135 O   0  0  0  0  0  0  0  0  0  0  0  0
  -25.7669  -30.6948  -20.7095 N   0  0  0  0  0  0  0  0  0  0  0  0
  -26.8733  -30.3031  -20.0409 C   0  0  0  0  0  0  0  0  0  0  0  0
  -28.1342  -30.0145  -20.5973 C   0  0  0  0  0  0  0  0  0  0  0  0
  -28.9652  -29.8573  -19.5161 C   0  0  0  0  0  0  0  0  0  0  0  0
  -28.1679  -29.9942  -18.4126 N   0  0  0  0  0  0  0  0  0  0  0  0
  -28.6248  -30.2252  -17.0656 C   0  0  1  0  0  0  0  0  0  0  0  0
  -27.5604  -30.6939  -16.0585 C   0  0  0  0  0  0  0  0  0  0  0  0
  -27.2922  -29.4862  -15.2920 C   0  0  0  0  0  0  0  0  0  0  0  0
  -28.6345  -29.0440  -15.0903 O   0  0  0  0  0  0  0  0  0  0  0  0
  -29.2314  -29.0498  -16.3875 C   0  0  0  0  0  0  0  0  0  0  0  0
  -26.8747  -30.1945  -18.7165 N   0  0  0  0  0  0  0  0  0  0  0  0
  1  2  1  0
  2  3  1  0
  3  4  1  0
  3  5  1  0
  3  6  1  0
  6  7  1  0
  7  8  1  0
  8  9  2  0
  8 10  1  0
 10 11  1  0
 11 12  1  0
 12 13  2  0
 13 14  1  0
 15 14  1  6
 15 16  1  0
 16 17  1  0
 17 18  1  0
 18 19  1  0
 14 20  1  0
 20 11  2  0
 19 15  1  0
M  END
>  <id>  (639) 
425173

>  <inchikey>  (639) 
TWPFLPOBOWNRPF-JTQLQIEISA-N

>  <alias>  (639) 
None

>  <smiles>  (639) 
COC(C)(C)CNC(=O)Nc1ccn([C@H]2CCOC2)n1

>  <path>  (639) 
/opt/xchem-fragalysis-2/maxwin/RdRp_FFF/syndirella/mar_elabs/elabs_060/VEAPMNAYWNOMRJ-UHFFFAOYSA-N/output/VEAPMNAYWNOMRJ-UHFFFAOYSA-N-Xhtsx2-1940-B/VEAPMNAYWNOMRJ-UHFFFAOYSA-N-Xhtsx2-1940-B.minimised.mol

>  <distance_score>  (639) 
1.046713

>  <energy_score>  (639) 
-21.096314

>  <compound>  (639) 
TWPFLPOBOWNRPF-UHFFFAOYSA-N

>  <compound_id>  (639) 
232641

>  <target>  (639) 
Flavi_NS5_RdRp

>  <tags>  (639) 
[]

>  <inspirations>  (639) 
{P Ã— 2}

>  <subsites>  (639) 
None

>  <reference>  (639) 
z0211a

>  <SLURM_JOB_ID>  (639) 
nan

>  <SLURM_JOB_NAME>  (639) 
nan

>  <csv_name>  (639) 
nan

>  <scratch_subdir>  (639) 
nan

>  <fragmenstein_runtime>  (639) 
nan

>  <fragmenstein_outcome>  (639) 
nan

>  <fragmenstein_mode>  (639) 
nan

>  <fragmenstein_error>  (639) 
nan

>  <exports>  (639) 
nan

>  <Multi-SuCOS>  (639) 
nan

>  <merge_set>  (639) 
nan

$$$$
JLECBCPGTTUIDH-MRVPVSSYSA-N
     RDKit          3D

 20 21  0  0  0  0  0  0  0  0999 V2000
  -20.8968  -32.8084  -24.1007 C   0  0  0  0  0  0  0  0  0  0  0  0
  -21.9614  -32.5858  -23.0373 C   0  0  0  0  0  0  0  0  0  0  0  0
  -22.1082  -33.8327  -22.1668 C   0  0  0  0  0  0  0  0  0  0  0  0
  -21.5447  -31.5164  -22.1792 O   0  0  0  0  0  0  0  0  0  0  0  0
  -23.3330  -32.2031  -23.6485 C   0  0  0  0  0  0  0  0  0  0  0  0
  -23.5730  -32.3679  -24.8460 N   0  0  0  0  0  0  0  0  0  0  0  0
  -24.1553  -31.6101  -22.5410 N   0  0  0  0  0  0  0  0  0  0  0  0
  -25.5845  -30.8837  -22.5349 C   0  0  0  0  0  0  0  0  0  0  0  0
  -26.3526  -30.7166  -23.3741 O   0  0  0  0  0  0  0  0  0  0  0  0
  -25.6636  -30.5789  -21.1062 N   0  0  0  0  0  0  0  0  0  0  0  0
  -26.6849  -30.1033  -20.3631 C   0  0  0  0  0  0  0  0  0  0  0  0
  -27.9979  -29.8062  -20.7742 C   0  0  0  0  0  0  0  0  0  0  0  0
  -28.6711  -29.5284  -19.6087 C   0  0  0  0  0  0  0  0  0  0  0  0
  -27.7356  -29.5801  -18.6140 N   0  0  0  0  0  0  0  0  0  0  0  0
  -27.9789  -29.8876  -17.2436 C   0  0  2  0  0  0  0  0  0  0  0  0
  -29.0744  -29.2944  -16.4115 C   0  0  0  0  0  0  0  0  0  0  0  0
  -28.6856  -29.8875  -15.0682 C   0  0  0  0  0  0  0  0  0  0  0  0
  -27.2593  -29.8944  -14.9970 O   0  0  0  0  0  0  0  0  0  0  0  0
  -26.7601  -29.8529  -16.3361 C   0  0  0  0  0  0  0  0  0  0  0  0
  -26.5099  -29.8903  -19.0690 N   0  0  0  0  0  0  0  0  0  0  0  0
  1  2  1  0
  2  3  1  0
  2  4  1  0
  2  5  1  0
  5  6  2  3
  5  7  1  0
  7  8  1  0
  8  9  2  0
  8 10  1  0
 10 11  1  0
 11 12  1  0
 12 13  2  0
 13 14  1  0
 15 14  1  6
 15 16  1  0
 16 17  1  0
 17 18  1  0
 18 19  1  0
 14 20  1  0
 20 11  2  0
 19 15  1  0
M  END
>  <id>  (640) 
425179

>  <inchikey>  (640) 
JLECBCPGTTUIDH-MRVPVSSYSA-N

>  <alias>  (640) 
None

>  <smiles>  (640) 
CC(C)(O)C(=N)NC(=O)Nc1ccn([C@@H]2CCOC2)n1

>  <path>  (640) 
/opt/xchem-fragalysis-2/maxwin/RdRp_FFF/syndirella/mar_elabs/elabs_060/VEAPMNAYWNOMRJ-UHFFFAOYSA-N/output/VEAPMNAYWNOMRJ-UHFFFAOYSA-N-Xhtsx2-1942-B/VEAPMNAYWNOMRJ-UHFFFAOYSA-N-Xhtsx2-1942-B.minimised.mol

>  <distance_score>  (640) 
0.975176

>  <energy_score>  (640) 
-37.902105

>  <compound>  (640) 
JLECBCPGTTUIDH-UHFFFAOYSA-N

>  <compound_id>  (640) 
232497

>  <target>  (640) 
Flavi_NS5_RdRp

>  <tags>  (640) 
[]

>  <inspirations>  (640) 
{P Ã— 2}

>  <subsites>  (640) 
None

>  <reference>  (640) 
z0211a

>  <SLURM_JOB_ID>  (640) 
nan

>  <SLURM_JOB_NAME>  (640) 
nan

>  <csv_name>  (640) 
nan

>  <scratch_subdir>  (640) 
nan

>  <fragmenstein_runtime>  (640) 
nan

>  <fragmenstein_outcome>  (640) 
nan

>  <fragmenstein_mode>  (640) 
nan

>  <fragmenstein_error>  (640) 
nan

>  <exports>  (640) 
nan

>  <Multi-SuCOS>  (640) 
nan

>  <merge_set>  (640) 
nan

$$$$
WEYFOJKVOMNYMO-MXWKQRLJSA-N
     RDKit          3D

 20 21  0  0  0  0  0  0  0  0999 V2000
  -20.4817  -32.9631  -24.7871 C   0  0  0  0  0  0  0  0  0  0  0  0
  -21.9346  -33.2515  -24.5560 C   0  0  0  0  0  0  0  0  0  0  0  0
  -22.5649  -32.2690  -23.5813 C   0  0  2  0  0  0  0  0  0  0  0  0
  -21.9603  -32.4168  -22.2910 O   0  0  0  0  0  0  0  0  0  0  0  0
  -24.0819  -32.5069  -23.5287 C   0  0  1  0  0  0  0  0  0  0  0  0
  -24.4867  -33.9725  -23.3281 C   0  0  0  0  0  0  0  0  0  0  0  0
  -24.6646  -31.7605  -22.4577 N   0  0  0  0  0  0  0  0  0  0  0  0
  -25.8816  -30.8182  -22.4458 C   0  0  0  0  0  0  0  0  0  0  0  0
  -26.5340  -30.4530  -23.2980 O   0  0  0  0  0  0  0  0  0  0  0  0
  -26.0126  -30.6012  -20.9342 N   0  0  0  0  0  0  0  0  0  0  0  0
  -26.9761  -30.0017  -20.2241 C   0  0  0  0  0  0  0  0  0  0  0  0
  -28.2792  -29.6832  -20.6328 C   0  0  0  0  0  0  0  0  0  0  0  0
  -28.9531  -29.5148  -19.4470 C   0  0  0  0  0  0  0  0  0  0  0  0
  -28.0032  -29.5487  -18.4634 N   0  0  0  0  0  0  0  0  0  0  0  0
  -28.1995  -29.9236  -17.1068 C   0  0  2  0  0  0  0  0  0  0  0  0
  -29.2198  -29.3066  -16.2170 C   0  0  0  0  0  0  0  0  0  0  0  0
  -28.8000  -29.9626  -14.9172 C   0  0  0  0  0  0  0  0  0  0  0  0
  -27.3783  -30.0351  -14.8954 O   0  0  0  0  0  0  0  0  0  0  0  0
  -26.9381  -29.9517  -16.2506 C   0  0  0  0  0  0  0  0  0  0  0  0
  -26.7784  -29.7971  -18.9352 N   0  0  0  0  0  0  0  0  0  0  0  0
  1  2  1  0
  2  3  1  0
  3  4  1  1
  3  5  1  0
  5  6  1  1
  5  7  1  0
  7  8  1  0
  8  9  2  0
  8 10  1  0
 10 11  1  0
 11 12  1  0
 12 13  2  0
 13 14  1  0
 15 14  1  6
 15 16  1  0
 16 17  1  0
 17 18  1  0
 18 19  1  0
 14 20  1  0
 20 11  2  0
 19 15  1  0
M  END
>  <id>  (641) 
425273

>  <inchikey>  (641) 
WEYFOJKVOMNYMO-MXWKQRLJSA-N

>  <alias>  (641) 
None

>  <smiles>  (641) 
CC[C@H](O)[C@@H](C)NC(=O)Nc1ccn([C@@H]2CCOC2)n1

>  <path>  (641) 
/opt/xchem-fragalysis-2/maxwin/RdRp_FFF/syndirella/mar_elabs/elabs_060/VEAPMNAYWNOMRJ-UHFFFAOYSA-N/output/VEAPMNAYWNOMRJ-UHFFFAOYSA-N-Xhtsx2-1995-C/VEAPMNAYWNOMRJ-UHFFFAOYSA-N-Xhtsx2-1995-C.minimised.mol

>  <distance_score>  (641) 
0.881545

>  <energy_score>  (641) 
-7.279044

>  <compound>  (641) 
WEYFOJKVOMNYMO-UHFFFAOYSA-N

>  <compound_id>  (641) 
233106

>  <target>  (641) 
Flavi_NS5_RdRp

>  <tags>  (641) 
[]

>  <inspirations>  (641) 
{P Ã— 2}

>  <subsites>  (641) 
None

>  <reference>  (641) 
z0211a

>  <SLURM_JOB_ID>  (641) 
nan

>  <SLURM_JOB_NAME>  (641) 
nan

>  <csv_name>  (641) 
nan

>  <scratch_subdir>  (641) 
nan

>  <fragmenstein_runtime>  (641) 
nan

>  <fragmenstein_outcome>  (641) 
nan

>  <fragmenstein_mode>  (641) 
nan

>  <fragmenstein_error>  (641) 
nan

>  <exports>  (641) 
nan

>  <Multi-SuCOS>  (641) 
nan

>  <merge_set>  (641) 
nan

$$$$
KRFQFLRWSUVFHZ-OUAUKWLOSA-N
     RDKit          3D

 20 21  0  0  0  0  0  0  0  0999 V2000
  -24.4945  -33.5289  -25.4020 C   0  0  0  0  0  0  0  0  0  0  0  0
  -24.0193  -33.6532  -23.9626 C   0  0  0  0  0  0  0  0  0  0  0  0
  -23.3462  -32.3604  -23.4566 C   0  0  1  0  0  0  0  0  0  0  0  0
  -24.1246  -31.7966  -22.3823 N   0  0  0  0  0  0  0  0  0  0  0  0
  -25.4484  -30.9963  -22.4171 C   0  0  0  0  0  0  0  0  0  0  0  0
  -26.0540  -30.6152  -23.3016 O   0  0  0  0  0  0  0  0  0  0  0  0
  -25.7577  -30.9559  -20.9027 N   0  0  0  0  0  0  0  0  0  0  0  0
  -26.8603  -30.5408  -20.2474 C   0  0  0  0  0  0  0  0  0  0  0  0
  -28.1080  -30.1553  -20.7644 C   0  0  0  0  0  0  0  0  0  0  0  0
  -28.8764  -29.8730  -19.6571 C   0  0  0  0  0  0  0  0  0  0  0  0
  -28.0415  -30.0123  -18.5848 N   0  0  0  0  0  0  0  0  0  0  0  0
  -28.2204  -29.4921  -17.2542 C   0  0  1  0  0  0  0  0  0  0  0  0
  -29.4169  -29.9670  -16.4577 C   0  0  0  0  0  0  0  0  0  0  0  0
  -28.8425  -30.3278  -15.1039 C   0  0  0  0  0  0  0  0  0  0  0  0
  -27.5629  -29.7235  -15.0027 O   0  0  0  0  0  0  0  0  0  0  0  0
  -27.0293  -29.7392  -16.3264 C   0  0  0  0  0  0  0  0  0  0  0  0
  -26.8318  -30.4758  -18.9237 N   0  0  0  0  0  0  0  0  0  0  0  0
  -21.9067  -32.6023  -22.9690 C   0  0  1  0  0  0  0  0  0  0  0  0
  -20.9621  -32.8938  -24.1187 C   0  0  0  0  0  0  0  0  0  0  0  0
  -21.3968  -31.4750  -22.2551 O   0  0  0  0  0  0  0  0  0  0  0  0
  1  2  1  0
  3  2  1  1
  3  4  1  0
  4  5  1  0
  5  6  2  0
  5  7  1  0
  7  8  1  0
  8  9  1  0
  9 10  2  0
 10 11  1  0
 12 11  1  6
 12 13  1  0
 13 14  1  0
 14 15  1  0
 15 16  1  0
 11 17  1  0
  3 18  1  0
 18 19  1  6
 18 20  1  0
 17  8  2  0
 16 12  1  0
M  END
>  <id>  (642) 
425281

>  <inchikey>  (642) 
KRFQFLRWSUVFHZ-OUAUKWLOSA-N

>  <alias>  (642) 
None

>  <smiles>  (642) 
CC[C@@H](NC(=O)Nc1ccn([C@H]2CCOC2)n1)[C@@H](C)O

>  <path>  (642) 
/opt/xchem-fragalysis-2/maxwin/RdRp_FFF/syndirella/mar_elabs/elabs_060/VEAPMNAYWNOMRJ-UHFFFAOYSA-N/output/VEAPMNAYWNOMRJ-UHFFFAOYSA-N-Xhtsx2-1997-F/VEAPMNAYWNOMRJ-UHFFFAOYSA-N-Xhtsx2-1997-F.minimised.mol

>  <distance_score>  (642) 
0.761432

>  <energy_score>  (642) 
-31.412727

>  <compound>  (642) 
KRFQFLRWSUVFHZ-UHFFFAOYSA-N

>  <compound_id>  (642) 
232628

>  <target>  (642) 
Flavi_NS5_RdRp

>  <tags>  (642) 
[]

>  <inspirations>  (642) 
{P Ã— 2}

>  <subsites>  (642) 
None

>  <reference>  (642) 
z0211a

>  <SLURM_JOB_ID>  (642) 
nan

>  <SLURM_JOB_NAME>  (642) 
nan

>  <csv_name>  (642) 
nan

>  <scratch_subdir>  (642) 
nan

>  <fragmenstein_runtime>  (642) 
nan

>  <fragmenstein_outcome>  (642) 
nan

>  <fragmenstein_mode>  (642) 
nan

>  <fragmenstein_error>  (642) 
nan

>  <exports>  (642) 
nan

>  <Multi-SuCOS>  (642) 
nan

>  <merge_set>  (642) 
nan

$$$$
MCTWEVPYVYAZMI-GHMZBOCLSA-N
     RDKit          3D

 20 21  0  0  0  0  0  0  0  0999 V2000
  -22.9377  -35.0767  -24.8614 C   0  0  0  0  0  0  0  0  0  0  0  0
  -22.1499  -33.8818  -25.3862 C   0  0  0  0  0  0  0  0  0  0  0  0
  -21.4534  -33.0396  -24.3096 C   0  0  0  0  0  0  0  0  0  0  0  0
  -22.3271  -32.5792  -23.1473 C   0  0  1  0  0  0  0  0  0  0  0  0
  -21.5759  -31.6440  -22.3601 O   0  0  0  0  0  0  0  0  0  0  0  0
  -23.6402  -31.9583  -23.6102 C   0  0  0  0  0  0  0  0  0  0  0  0
  -24.3633  -31.3955  -22.5194 N   0  0  0  0  0  0  0  0  0  0  0  0
  -25.7473  -30.7180  -22.4829 C   0  0  0  0  0  0  0  0  0  0  0  0
  -26.4568  -30.4537  -23.3278 O   0  0  0  0  0  0  0  0  0  0  0  0
  -25.9002  -30.5383  -20.9650 N   0  0  0  0  0  0  0  0  0  0  0  0
  -26.9442  -30.1059  -20.2416 C   0  0  0  0  0  0  0  0  0  0  0  0
  -28.2511  -29.8032  -20.6517 C   0  0  0  0  0  0  0  0  0  0  0  0
  -28.9385  -29.6257  -19.4728 C   0  0  0  0  0  0  0  0  0  0  0  0
  -27.9987  -29.6743  -18.4829 N   0  0  0  0  0  0  0  0  0  0  0  0
  -28.1955  -29.9536  -17.1044 C   0  0  2  0  0  0  0  0  0  0  0  0
  -29.2003  -29.2795  -16.2392 C   0  0  0  0  0  0  0  0  0  0  0  0
  -28.7770  -29.8760  -14.9090 C   0  0  0  0  0  0  0  0  0  0  0  0
  -27.3584  -30.0002  -14.8996 O   0  0  0  0  0  0  0  0  0  0  0  0
  -26.9273  -29.9505  -16.2581 C   0  0  0  0  0  0  0  0  0  0  0  0
  -26.7775  -29.9607  -18.9401 N   0  0  0  0  0  0  0  0  0  0  0  0
  1  2  1  0
  2  3  1  0
  3  4  1  0
  4  5  1  6
  4  6  1  0
  6  7  1  0
  7  8  1  0
  8  9  2  0
  8 10  1  0
 10 11  1  0
 11 12  1  0
 12 13  2  0
 13 14  1  0
 15 14  1  6
 15 16  1  0
 16 17  1  0
 17 18  1  0
 18 19  1  0
 14 20  1  0
 20 11  2  0
 19 15  1  0
M  END
>  <id>  (643) 
425354

>  <inchikey>  (643) 
MCTWEVPYVYAZMI-GHMZBOCLSA-N

>  <alias>  (643) 
None

>  <smiles>  (643) 
CCC[C@@H](O)CNC(=O)Nc1ccn([C@@H]2CCOC2)n1

>  <path>  (643) 
/opt/xchem-fragalysis-2/maxwin/RdRp_FFF/syndirella/mar_elabs/elabs_060/VEAPMNAYWNOMRJ-UHFFFAOYSA-N/output/VEAPMNAYWNOMRJ-UHFFFAOYSA-N-Xhtsx2-2073-D/VEAPMNAYWNOMRJ-UHFFFAOYSA-N-Xhtsx2-2073-D.minimised.mol

>  <distance_score>  (643) 
0.830198

>  <energy_score>  (643) 
-21.579993

>  <compound>  (643) 
MCTWEVPYVYAZMI-UHFFFAOYSA-N

>  <compound_id>  (643) 
232638

>  <target>  (643) 
Flavi_NS5_RdRp

>  <tags>  (643) 
[]

>  <inspirations>  (643) 
{P Ã— 2}

>  <subsites>  (643) 
None

>  <reference>  (643) 
z0211a

>  <SLURM_JOB_ID>  (643) 
nan

>  <SLURM_JOB_NAME>  (643) 
nan

>  <csv_name>  (643) 
nan

>  <scratch_subdir>  (643) 
nan

>  <fragmenstein_runtime>  (643) 
nan

>  <fragmenstein_outcome>  (643) 
nan

>  <fragmenstein_mode>  (643) 
nan

>  <fragmenstein_error>  (643) 
nan

>  <exports>  (643) 
nan

>  <Multi-SuCOS>  (643) 
nan

>  <merge_set>  (643) 
nan

$$$$
SFZCFSXNQGSJAS-SNVBAGLBSA-N
     RDKit          3D

 20 20  0  0  0  0  0  0  0  0999 V2000
  -28.8881  -30.1273  -14.3611 C   0  0  0  0  0  0  0  0  0  0  0  0
  -27.7644  -30.6379  -15.0308 O   0  0  0  0  0  0  0  0  0  0  0  0
  -27.5941  -29.9910  -16.2877 C   0  0  0  0  0  0  0  0  0  0  0  0
  -28.9396  -29.8291  -16.9679 C   0  0  0  0  0  0  0  0  0  0  0  0
  -28.9151  -29.2500  -18.3280 C   0  0  0  0  0  0  0  0  0  0  0  0
  -28.4166  -29.9848  -19.4423 N   0  0  0  0  0  0  0  0  0  0  0  0
  -29.0110  -29.8839  -20.6681 C   0  0  0  0  0  0  0  0  0  0  0  0
  -28.0194  -30.1537  -21.5619 C   0  0  0  0  0  0  0  0  0  0  0  0
  -26.9225  -30.5494  -20.7802 C   0  0  0  0  0  0  0  0  0  0  0  0
  -25.7760  -31.0001  -21.3179 N   0  0  0  0  0  0  0  0  0  0  0  0
  -25.3064  -31.0337  -22.7919 C   0  0  0  0  0  0  0  0  0  0  0  0
  -25.7964  -30.6170  -23.7272 O   0  0  0  0  0  0  0  0  0  0  0  0
  -24.0357  -31.8830  -22.6305 N   0  0  0  0  0  0  0  0  0  0  0  0
  -23.1800  -32.4576  -23.6120 C   0  0  0  0  0  0  0  0  0  0  0  0
  -21.7167  -32.1006  -23.4192 C   0  0  1  0  0  0  0  0  0  0  0  0
  -21.3650  -32.2143  -22.0337 O   0  0  0  0  0  0  0  0  0  0  0  0
  -20.9053  -33.0919  -24.2443 C   0  0  0  0  0  0  0  0  0  0  0  0
  -20.9614  -32.7787  -25.6376 O   0  0  0  0  0  0  0  0  0  0  0  0
  -21.6232  -33.7657  -26.4148 C   0  0  0  0  0  0  0  0  0  0  0  0
  -27.1574  -30.4502  -19.4724 N   0  0  0  0  0  0  0  0  0  0  0  0
  1  2  1  0
  2  3  1  0
  3  4  1  0
  4  5  1  0
  5  6  1  0
  6  7  1  0
  7  8  2  0
  8  9  1  0
  9 10  1  0
 10 11  1  0
 11 12  2  0
 11 13  1  0
 13 14  1  0
 14 15  1  0
 15 16  1  1
 15 17  1  0
 17 18  1  0
 18 19  1  0
  9 20  2  0
 20  6  1  0
M  END
>  <id>  (644) 
425403

>  <inchikey>  (644) 
SFZCFSXNQGSJAS-SNVBAGLBSA-N

>  <alias>  (644) 
None

>  <smiles>  (644) 
COCCCn1ccc(NC(=O)NC[C@@H](O)COC)n1

>  <path>  (644) 
/opt/xchem-fragalysis-2/maxwin/RdRp_FFF/syndirella/mar_elabs/elabs_060/VEAPMNAYWNOMRJ-UHFFFAOYSA-N/output/VEAPMNAYWNOMRJ-UHFFFAOYSA-N-Xhtsx2-2117-B/VEAPMNAYWNOMRJ-UHFFFAOYSA-N-Xhtsx2-2117-B.minimised.mol

>  <distance_score>  (644) 
0.960705

>  <energy_score>  (644) 
-26.244658

>  <compound>  (644) 
SFZCFSXNQGSJAS-UHFFFAOYSA-N

>  <compound_id>  (644) 
233121

>  <target>  (644) 
Flavi_NS5_RdRp

>  <tags>  (644) 
[]

>  <inspirations>  (644) 
{P Ã— 2}

>  <subsites>  (644) 
None

>  <reference>  (644) 
z0211a

>  <SLURM_JOB_ID>  (644) 
nan

>  <SLURM_JOB_NAME>  (644) 
nan

>  <csv_name>  (644) 
nan

>  <scratch_subdir>  (644) 
nan

>  <fragmenstein_runtime>  (644) 
nan

>  <fragmenstein_outcome>  (644) 
nan

>  <fragmenstein_mode>  (644) 
nan

>  <fragmenstein_error>  (644) 
nan

>  <exports>  (644) 
nan

>  <Multi-SuCOS>  (644) 
nan

>  <merge_set>  (644) 
nan

$$$$
BZYDQVSBBVAFAZ-GHMZBOCLSA-N
     RDKit          3D

 20 20  0  0  0  0  0  0  0  0999 V2000
  -22.2496  -34.4374  -21.6464 C   0  0  0  0  0  0  0  0  0  0  0  0
  -21.5893  -33.5041  -22.6504 C   0  0  0  0  0  0  0  0  0  0  0  0
  -22.1020  -32.0681  -22.5559 C   0  0  1  0  0  0  0  0  0  0  0  0
  -21.1533  -31.2543  -23.2555 O   0  0  0  0  0  0  0  0  0  0  0  0
  -23.5265  -31.7852  -23.1036 C   0  0  1  0  0  0  0  0  0  0  0  0
  -24.0911  -32.8095  -24.0857 C   0  0  0  0  0  0  0  0  0  0  0  0
  -24.4825  -31.4810  -22.0547 N   0  0  0  0  0  0  0  0  0  0  0  0
  -25.8719  -30.7896  -22.1300 C   0  0  0  0  0  0  0  0  0  0  0  0
  -26.4715  -30.4411  -23.0328 O   0  0  0  0  0  0  0  0  0  0  0  0
  -26.2257  -30.7578  -20.6186 N   0  0  0  0  0  0  0  0  0  0  0  0
  -27.3695  -30.3916  -19.9939 C   0  0  0  0  0  0  0  0  0  0  0  0
  -28.5889  -30.1117  -20.6313 C   0  0  0  0  0  0  0  0  0  0  0  0
  -29.4925  -29.9441  -19.6145 C   0  0  0  0  0  0  0  0  0  0  0  0
  -28.7594  -29.9687  -18.4600 N   0  0  0  0  0  0  0  0  0  0  0  0
  -29.2323  -29.5090  -17.1713 C   0  0  0  0  0  0  0  0  0  0  0  0
  -28.6149  -30.0635  -15.8927 C   0  0  0  0  0  0  0  0  0  0  0  0
  -27.0967  -30.0095  -15.8546 C   0  0  0  0  0  0  0  0  0  0  0  0
  -26.6175  -30.2902  -14.5476 O   0  0  0  0  0  0  0  0  0  0  0  0
  -26.2265  -31.6476  -14.3889 C   0  0  0  0  0  0  0  0  0  0  0  0
  -27.4631  -30.2641  -18.6736 N   0  0  0  0  0  0  0  0  0  0  0  0
  1  2  1  0
  2  3  1  0
  3  4  1  6
  3  5  1  0
  5  6  1  1
  5  7  1  0
  7  8  1  0
  8  9  2  0
  8 10  1  0
 10 11  1  0
 11 12  1  0
 12 13  2  0
 13 14  1  0
 14 15  1  0
 15 16  1  0
 16 17  1  0
 17 18  1  0
 18 19  1  0
 14 20  1  0
 20 11  2  0
M  END
>  <id>  (645) 
425409

>  <inchikey>  (645) 
BZYDQVSBBVAFAZ-GHMZBOCLSA-N

>  <alias>  (645) 
None

>  <smiles>  (645) 
CC[C@@H](O)[C@@H](C)NC(=O)Nc1ccn(CCCOC)n1

>  <path>  (645) 
/opt/xchem-fragalysis-2/maxwin/RdRp_FFF/syndirella/mar_elabs/elabs_060/VEAPMNAYWNOMRJ-UHFFFAOYSA-N/output/VEAPMNAYWNOMRJ-UHFFFAOYSA-N-Xhtsx2-2122-D/VEAPMNAYWNOMRJ-UHFFFAOYSA-N-Xhtsx2-2122-D.minimised.mol

>  <distance_score>  (645) 
0.937188

>  <energy_score>  (645) 
-42.468631

>  <compound>  (645) 
BZYDQVSBBVAFAZ-UHFFFAOYSA-N

>  <compound_id>  (645) 
233125

>  <target>  (645) 
Flavi_NS5_RdRp

>  <tags>  (645) 
[]

>  <inspirations>  (645) 
{P Ã— 2}

>  <subsites>  (645) 
None

>  <reference>  (645) 
z0211a

>  <SLURM_JOB_ID>  (645) 
nan

>  <SLURM_JOB_NAME>  (645) 
nan

>  <csv_name>  (645) 
nan

>  <scratch_subdir>  (645) 
nan

>  <fragmenstein_runtime>  (645) 
nan

>  <fragmenstein_outcome>  (645) 
nan

>  <fragmenstein_mode>  (645) 
nan

>  <fragmenstein_error>  (645) 
nan

>  <exports>  (645) 
nan

>  <Multi-SuCOS>  (645) 
nan

>  <merge_set>  (645) 
nan

$$$$
IWEFEUSLPOUZPS-VIFPVBQESA-N
     RDKit          3D

 20 20  0  0  0  0  0  0  0  0999 V2000
  -25.0019  -31.2969  -14.4969 C   0  0  0  0  0  0  0  0  0  0  0  0
  -26.3445  -30.8314  -14.4075 O   0  0  0  0  0  0  0  0  0  0  0  0
  -26.7795  -30.2598  -15.6383 C   0  0  0  0  0  0  0  0  0  0  0  0
  -28.2965  -30.1072  -15.6046 C   0  0  0  0  0  0  0  0  0  0  0  0
  -28.9399  -29.4482  -16.8253 C   0  0  0  0  0  0  0  0  0  0  0  0
  -28.4867  -29.8306  -18.1447 N   0  0  0  0  0  0  0  0  0  0  0  0
  -29.2769  -29.9842  -19.2469 C   0  0  0  0  0  0  0  0  0  0  0  0
  -28.4181  -30.2119  -20.2930 C   0  0  0  0  0  0  0  0  0  0  0  0
  -27.1357  -30.2556  -19.7119 C   0  0  0  0  0  0  0  0  0  0  0  0
  -25.9883  -30.6219  -20.3364 N   0  0  0  0  0  0  0  0  0  0  0  0
  -25.7311  -30.9618  -21.7435 C   0  0  0  0  0  0  0  0  0  0  0  0
  -26.4260  -30.9220  -22.6526 O   0  0  0  0  0  0  0  0  0  0  0  0
  -24.1872  -31.4984  -21.5789 N   0  0  0  0  0  0  0  0  0  0  0  0
  -23.1699  -32.2389  -22.5927 C   0  0  0  0  0  0  0  0  0  0  0  0
  -23.3439  -32.7881  -24.0438 S   0  0  0  0  0  0  0  0  0  0  0  0
  -21.8358  -32.2694  -21.7841 C   0  0  2  0  0  0  0  0  0  0  0  0
  -20.7554  -33.1957  -22.3371 C   0  0  0  0  0  0  0  0  0  0  0  0
  -22.1912  -32.6247  -20.4355 O   0  0  0  0  0  0  0  0  0  0  0  0
  -21.1096  -32.5662  -19.5118 C   0  0  0  0  0  0  0  0  0  0  0  0
  -27.1704  -29.9284  -18.4233 N   0  0  0  0  0  0  0  0  0  0  0  0
  1  2  1  0
  2  3  1  0
  3  4  1  0
  4  5  1  0
  5  6  1  0
  6  7  1  0
  7  8  2  0
  8  9  1  0
  9 10  1  0
 10 11  1  0
 11 12  2  0
 11 13  1  0
 13 14  1  0
 14 15  2  0
 14 16  1  0
 16 17  1  6
 16 18  1  0
 18 19  1  0
  9 20  2  0
 20  6  1  0
M  END
>  <id>  (646) 
425421

>  <inchikey>  (646) 
IWEFEUSLPOUZPS-VIFPVBQESA-N

>  <alias>  (646) 
None

>  <smiles>  (646) 
COCCCn1ccc(NC(=O)NC(=S)[C@H](C)OC)n1

>  <path>  (646) 
/opt/xchem-fragalysis-2/maxwin/RdRp_FFF/syndirella/mar_elabs/elabs_060/VEAPMNAYWNOMRJ-UHFFFAOYSA-N/output/VEAPMNAYWNOMRJ-UHFFFAOYSA-N-Xhtsx2-2132-A/VEAPMNAYWNOMRJ-UHFFFAOYSA-N-Xhtsx2-2132-A.minimised.mol

>  <distance_score>  (646) 
1.051747

>  <energy_score>  (646) 
-8.047045

>  <compound>  (646) 
IWEFEUSLPOUZPS-UHFFFAOYSA-N

>  <compound_id>  (646) 
232648

>  <target>  (646) 
Flavi_NS5_RdRp

>  <tags>  (646) 
[]

>  <inspirations>  (646) 
{P Ã— 2}

>  <subsites>  (646) 
None

>  <reference>  (646) 
z0211a

>  <SLURM_JOB_ID>  (646) 
nan

>  <SLURM_JOB_NAME>  (646) 
nan

>  <csv_name>  (646) 
nan

>  <scratch_subdir>  (646) 
nan

>  <fragmenstein_runtime>  (646) 
nan

>  <fragmenstein_outcome>  (646) 
nan

>  <fragmenstein_mode>  (646) 
nan

>  <fragmenstein_error>  (646) 
nan

>  <exports>  (646) 
nan

>  <Multi-SuCOS>  (646) 
nan

>  <merge_set>  (646) 
nan

$$$$
XFFJWIZSYDIUEL-VIFPVBQESA-N
     RDKit          3D

 20 20  0  0  0  0  0  0  0  0999 V2000
  -25.0879  -31.3555  -14.4940 C   0  0  0  0  0  0  0  0  0  0  0  0
  -26.4315  -30.8844  -14.4474 O   0  0  0  0  0  0  0  0  0  0  0  0
  -26.8003  -30.2573  -15.6737 C   0  0  0  0  0  0  0  0  0  0  0  0
  -28.3144  -30.0836  -15.6925 C   0  0  0  0  0  0  0  0  0  0  0  0
  -28.9010  -29.4218  -16.9372 C   0  0  0  0  0  0  0  0  0  0  0  0
  -28.4439  -29.8587  -18.2385 N   0  0  0  0  0  0  0  0  0  0  0  0
  -29.2358  -30.0623  -19.3315 C   0  0  0  0  0  0  0  0  0  0  0  0
  -28.3756  -30.3234  -20.3678 C   0  0  0  0  0  0  0  0  0  0  0  0
  -27.0873  -30.3103  -19.7969 C   0  0  0  0  0  0  0  0  0  0  0  0
  -25.9332  -30.6274  -20.4387 N   0  0  0  0  0  0  0  0  0  0  0  0
  -25.6731  -30.9134  -21.8632 C   0  0  0  0  0  0  0  0  0  0  0  0
  -26.3771  -30.8587  -22.7719 O   0  0  0  0  0  0  0  0  0  0  0  0
  -24.1274  -31.3546  -21.7458 N   0  0  0  0  0  0  0  0  0  0  0  0
  -23.1577  -31.9272  -22.7560 C   0  0  0  0  0  0  0  0  0  0  0  0
  -23.2666  -32.1335  -23.9689 N   0  0  0  0  0  0  0  0  0  0  0  0
  -21.8186  -32.1730  -22.0207 C   0  0  2  0  0  0  0  0  0  0  0  0
  -20.9732  -33.2166  -22.7358 C   0  0  0  0  0  0  0  0  0  0  0  0
  -22.1201  -32.5613  -20.6741 O   0  0  0  0  0  0  0  0  0  0  0  0
  -20.9919  -32.5142  -19.8066 C   0  0  0  0  0  0  0  0  0  0  0  0
  -27.1262  -29.9478  -18.5171 N   0  0  0  0  0  0  0  0  0  0  0  0
  1  2  1  0
  2  3  1  0
  3  4  1  0
  4  5  1  0
  5  6  1  0
  6  7  1  0
  7  8  2  0
  8  9  1  0
  9 10  1  0
 10 11  1  0
 11 12  2  0
 11 13  1  0
 13 14  1  0
 14 15  2  3
 14 16  1  0
 16 17  1  6
 16 18  1  0
 18 19  1  0
  9 20  2  0
 20  6  1  0
M  END
>  <id>  (647) 
425424

>  <inchikey>  (647) 
XFFJWIZSYDIUEL-VIFPVBQESA-N

>  <alias>  (647) 
None

>  <smiles>  (647) 
COCCCn1ccc(NC(=O)NC(=N)[C@H](C)OC)n1

>  <path>  (647) 
/opt/xchem-fragalysis-2/maxwin/RdRp_FFF/syndirella/mar_elabs/elabs_060/VEAPMNAYWNOMRJ-UHFFFAOYSA-N/output/VEAPMNAYWNOMRJ-UHFFFAOYSA-N-Xhtsx2-2134-A/VEAPMNAYWNOMRJ-UHFFFAOYSA-N-Xhtsx2-2134-A.minimised.mol

>  <distance_score>  (647) 
0.928705

>  <energy_score>  (647) 
-47.771369

>  <compound>  (647) 
XFFJWIZSYDIUEL-UHFFFAOYSA-N

>  <compound_id>  (647) 
233129

>  <target>  (647) 
Flavi_NS5_RdRp

>  <tags>  (647) 
[]

>  <inspirations>  (647) 
{P Ã— 2}

>  <subsites>  (647) 
None

>  <reference>  (647) 
z0211a

>  <SLURM_JOB_ID>  (647) 
nan

>  <SLURM_JOB_NAME>  (647) 
nan

>  <csv_name>  (647) 
nan

>  <scratch_subdir>  (647) 
nan

>  <fragmenstein_runtime>  (647) 
nan

>  <fragmenstein_outcome>  (647) 
nan

>  <fragmenstein_mode>  (647) 
nan

>  <fragmenstein_error>  (647) 
nan

>  <exports>  (647) 
nan

>  <Multi-SuCOS>  (647) 
nan

>  <merge_set>  (647) 
nan

$$$$
IOUJLLIQFTZTMW-SNVBAGLBSA-N
     RDKit          3D

 20 20  0  0  0  0  0  0  0  0999 V2000
  -25.6831  -31.6263  -14.2738 C   0  0  0  0  0  0  0  0  0  0  0  0
  -27.0534  -31.2374  -14.3760 O   0  0  0  0  0  0  0  0  0  0  0  0
  -27.2443  -30.3647  -15.4815 C   0  0  0  0  0  0  0  0  0  0  0  0
  -28.7361  -30.1809  -15.6943 C   0  0  0  0  0  0  0  0  0  0  0  0
  -29.1293  -29.3981  -16.9335 C   0  0  0  0  0  0  0  0  0  0  0  0
  -28.5231  -29.7592  -18.1936 N   0  0  0  0  0  0  0  0  0  0  0  0
  -29.1752  -29.8069  -19.3859 C   0  0  0  0  0  0  0  0  0  0  0  0
  -28.1939  -29.9256  -20.3396 C   0  0  0  0  0  0  0  0  0  0  0  0
  -28.3810  -29.8575  -21.7896 C   0  0  0  0  0  0  0  0  0  0  0  0
  -27.0059  -30.1483  -19.6127 C   0  0  0  0  0  0  0  0  0  0  0  0
  -25.8047  -30.5823  -20.0828 N   0  0  0  0  0  0  0  0  0  0  0  0
  -25.3943  -31.0659  -21.5052 C   0  0  0  0  0  0  0  0  0  0  0  0
  -25.9903  -31.0887  -22.4724 O   0  0  0  0  0  0  0  0  0  0  0  0
  -23.9628  -31.5535  -21.2060 N   0  0  0  0  0  0  0  0  0  0  0  0
  -22.9548  -32.0835  -22.0873 C   0  0  0  0  0  0  0  0  0  0  0  0
  -21.6435  -32.3288  -21.3756 C   0  0  2  0  0  0  0  0  0  0  0  0
  -21.0227  -31.0831  -21.0599 O   0  0  0  0  0  0  0  0  0  0  0  0
  -20.7033  -33.1594  -22.2308 C   0  0  0  0  0  0  0  0  0  0  0  0
  -19.3437  -33.7049  -21.1838 Cl  0  0  0  0  0  0  0  0  0  0  0  0
  -27.1869  -29.8755  -18.3209 N   0  0  0  0  0  0  0  0  0  0  0  0
  1  2  1  0
  2  3  1  0
  3  4  1  0
  4  5  1  0
  5  6  1  0
  6  7  1  0
  7  8  2  0
  8  9  1  0
  8 10  1  0
 10 11  1  0
 11 12  1  0
 12 13  2  0
 12 14  1  0
 14 15  1  0
 15 16  1  0
 16 17  1  6
 16 18  1  0
 18 19  1  0
 10 20  2  0
 20  6  1  0
M  END
>  <id>  (648) 
425451

>  <inchikey>  (648) 
IOUJLLIQFTZTMW-SNVBAGLBSA-N

>  <alias>  (648) 
None

>  <smiles>  (648) 
COCCCn1cc(C)c(NC(=O)NC[C@H](O)CCl)n1

>  <path>  (648) 
/opt/xchem-fragalysis-2/maxwin/RdRp_FFF/syndirella/mar_elabs/elabs_060/VEAPMNAYWNOMRJ-UHFFFAOYSA-N/output/VEAPMNAYWNOMRJ-UHFFFAOYSA-N-Xhtsx2-2181-A/VEAPMNAYWNOMRJ-UHFFFAOYSA-N-Xhtsx2-2181-A.minimised.mol

>  <distance_score>  (648) 
0.935929

>  <energy_score>  (648) 
-35.440815

>  <compound>  (648) 
IOUJLLIQFTZTMW-UHFFFAOYSA-N

>  <compound_id>  (648) 
232896

>  <target>  (648) 
Flavi_NS5_RdRp

>  <tags>  (648) 
[]

>  <inspirations>  (648) 
{P Ã— 2}

>  <subsites>  (648) 
None

>  <reference>  (648) 
z0211a

>  <SLURM_JOB_ID>  (648) 
nan

>  <SLURM_JOB_NAME>  (648) 
nan

>  <csv_name>  (648) 
nan

>  <scratch_subdir>  (648) 
nan

>  <fragmenstein_runtime>  (648) 
nan

>  <fragmenstein_outcome>  (648) 
nan

>  <fragmenstein_mode>  (648) 
nan

>  <fragmenstein_error>  (648) 
nan

>  <exports>  (648) 
nan

>  <Multi-SuCOS>  (648) 
nan

>  <merge_set>  (648) 
nan

$$$$
YJFBAOMIJFNZEX-UHFFFAOYSA-N
     RDKit          3D

 20 21  0  0  0  0  0  0  0  0999 V2000
  -28.9376  -30.0862  -14.3773 C   0  0  0  0  0  0  0  0  0  0  0  0
  -27.8129  -30.6289  -15.0142 O   0  0  0  0  0  0  0  0  0  0  0  0
  -27.5883  -29.9908  -16.2670 C   0  0  0  0  0  0  0  0  0  0  0  0
  -28.9026  -29.8048  -17.0113 C   0  0  0  0  0  0  0  0  0  0  0  0
  -28.7949  -29.2783  -18.3973 C   0  0  0  0  0  0  0  0  0  0  0  0
  -28.1594  -30.0673  -19.4072 N   0  0  0  0  0  0  0  0  0  0  0  0
  -28.6400  -30.1018  -20.6850 C   0  0  0  0  0  0  0  0  0  0  0  0
  -27.5471  -30.3706  -21.4669 C   0  0  0  0  0  0  0  0  0  0  0  0
  -27.4040  -30.0847  -22.9083 C   0  0  0  0  0  0  0  0  0  0  0  0
  -26.5271  -30.7216  -20.5469 C   0  0  0  0  0  0  0  0  0  0  0  0
  -25.2809  -31.0879  -20.9146 N   0  0  0  0  0  0  0  0  0  0  0  0
  -24.7991  -31.9203  -22.1189 C   0  0  0  0  0  0  0  0  0  0  0  0
  -25.3945  -32.4714  -22.9195 O   0  0  0  0  0  0  0  0  0  0  0  0
  -23.3201  -31.7095  -21.9852 N   0  0  0  0  0  0  0  0  0  0  0  0
  -22.1957  -32.0716  -22.9110 C   0  0  0  0  0  0  0  0  0  0  0  0
  -21.3379  -32.4224  -21.7473 C   0  0  0  0  0  0  0  0  0  0  0  0
  -20.4107  -33.5476  -22.0968 C   0  0  0  0  0  0  0  0  0  0  0  0
  -20.6171  -31.3574  -21.1015 O   0  0  0  0  0  0  0  0  0  0  0  0
  -22.6534  -32.8568  -21.1659 C   0  0  0  0  0  0  0  0  0  0  0  0
  -26.8647  -30.4024  -19.2981 N   0  0  0  0  0  0  0  0  0  0  0  0
  1  2  1  0
  2  3  1  0
  3  4  1  0
  4  5  1  0
  5  6  1  0
  6  7  1  0
  7  8  2  0
  8  9  1  0
  8 10  1  0
 10 11  1  0
 11 12  1  0
 12 13  2  0
 12 14  1  0
 14 15  1  0
 15 16  1  0
 16 17  1  0
 16 18  1  0
 16 19  1  0
 10 20  2  0
 20  6  1  0
 19 14  1  0
M  END
>  <id>  (649) 
425455

>  <inchikey>  (649) 
YJFBAOMIJFNZEX-UHFFFAOYSA-N

>  <alias>  (649) 
None

>  <smiles>  (649) 
COCCCn1cc(C)c(NC(=O)N2CC(C)(O)C2)n1

>  <path>  (649) 
/opt/xchem-fragalysis-2/maxwin/RdRp_FFF/syndirella/mar_elabs/elabs_060/VEAPMNAYWNOMRJ-UHFFFAOYSA-N/output/VEAPMNAYWNOMRJ-UHFFFAOYSA-N-Xhtsx2-2188-A/VEAPMNAYWNOMRJ-UHFFFAOYSA-N-Xhtsx2-2188-A.minimised.mol

>  <distance_score>  (649) 
1.356055

>  <energy_score>  (649) 
-4.125939

>  <compound>  (649) 
YJFBAOMIJFNZEX-UHFFFAOYSA-N

>  <compound_id>  (649) 
232885

>  <target>  (649) 
Flavi_NS5_RdRp

>  <tags>  (649) 
[]

>  <inspirations>  (649) 
{P Ã— 2}

>  <subsites>  (649) 
None

>  <reference>  (649) 
z0211a

>  <SLURM_JOB_ID>  (649) 
nan

>  <SLURM_JOB_NAME>  (649) 
nan

>  <csv_name>  (649) 
nan

>  <scratch_subdir>  (649) 
nan

>  <fragmenstein_runtime>  (649) 
nan

>  <fragmenstein_outcome>  (649) 
nan

>  <fragmenstein_mode>  (649) 
nan

>  <fragmenstein_error>  (649) 
nan

>  <exports>  (649) 
nan

>  <Multi-SuCOS>  (649) 
nan

>  <merge_set>  (649) 
nan

$$$$
YSANXDKVQZMKJS-LLVKDONJSA-N
     RDKit          3D

 20 20  0  0  0  0  0  0  0  0999 V2000
  -21.7889  -33.5299  -24.7724 C   0  0  0  0  0  0  0  0  0  0  0  0
  -21.0860  -32.6772  -23.7279 C   0  0  0  0  0  0  0  0  0  0  0  0
  -21.8779  -32.4188  -22.4367 C   0  0  1  0  0  0  0  0  0  0  0  0
  -21.3121  -31.2746  -21.8017 O   0  0  0  0  0  0  0  0  0  0  0  0
  -23.3540  -32.2005  -22.7082 C   0  0  0  0  0  0  0  0  0  0  0  0
  -24.1699  -31.6948  -21.6431 N   0  0  0  0  0  0  0  0  0  0  0  0
  -25.6992  -31.7816  -21.4255 C   0  0  0  0  0  0  0  0  0  0  0  0
  -26.4946  -32.3292  -22.0233 O   0  0  0  0  0  0  0  0  0  0  0  0
  -25.8414  -30.8179  -20.2123 N   0  0  0  0  0  0  0  0  0  0  0  0
  -26.9545  -30.3140  -19.6150 C   0  0  0  0  0  0  0  0  0  0  0  0
  -27.0742  -29.9191  -18.3528 N   0  0  0  0  0  0  0  0  0  0  0  0
  -28.4148  -29.8070  -18.1836 N   0  0  0  0  0  0  0  0  0  0  0  0
  -29.0079  -29.4706  -16.9091 C   0  0  0  0  0  0  0  0  0  0  0  0
  -28.4178  -30.0878  -15.6486 C   0  0  0  0  0  0  0  0  0  0  0  0
  -26.8977  -30.1150  -15.6291 C   0  0  0  0  0  0  0  0  0  0  0  0
  -26.4018  -30.4185  -14.3394 O   0  0  0  0  0  0  0  0  0  0  0  0
  -26.0946  -31.7951  -14.1828 C   0  0  0  0  0  0  0  0  0  0  0  0
  -29.1017  -29.8423  -19.3588 C   0  0  0  0  0  0  0  0  0  0  0  0
  -28.1485  -30.0367  -20.3231 C   0  0  0  0  0  0  0  0  0  0  0  0
  -28.3170  -29.9397  -21.7768 C   0  0  0  0  0  0  0  0  0  0  0  0
  1  2  1  0
  2  3  1  0
  3  4  1  6
  3  5  1  0
  5  6  1  0
  6  7  1  0
  7  8  2  0
  7  9  1  0
  9 10  1  0
 10 11  2  0
 11 12  1  0
 12 13  1  0
 13 14  1  0
 14 15  1  0
 15 16  1  0
 16 17  1  0
 12 18  1  0
 18 19  2  0
 19 20  1  0
 19 10  1  0
M  END
>  <id>  (650) 
425483

>  <inchikey>  (650) 
YSANXDKVQZMKJS-LLVKDONJSA-N

>  <alias>  (650) 
None

>  <smiles>  (650) 
CC[C@@H](O)CNC(=O)Nc1nn(CCCOC)cc1C

>  <path>  (650) 
/opt/xchem-fragalysis-2/maxwin/RdRp_FFF/syndirella/mar_elabs/elabs_060/VEAPMNAYWNOMRJ-UHFFFAOYSA-N/output/VEAPMNAYWNOMRJ-UHFFFAOYSA-N-Xhtsx2-2209-B/VEAPMNAYWNOMRJ-UHFFFAOYSA-N-Xhtsx2-2209-B.minimised.mol

>  <distance_score>  (650) 
0.811091

>  <energy_score>  (650) 
-12.129506

>  <compound>  (650) 
YSANXDKVQZMKJS-UHFFFAOYSA-N

>  <compound_id>  (650) 
232908

>  <target>  (650) 
Flavi_NS5_RdRp

>  <tags>  (650) 
[]

>  <inspirations>  (650) 
{P Ã— 2}

>  <subsites>  (650) 
None

>  <reference>  (650) 
z0211a

>  <SLURM_JOB_ID>  (650) 
nan

>  <SLURM_JOB_NAME>  (650) 
nan

>  <csv_name>  (650) 
nan

>  <scratch_subdir>  (650) 
nan

>  <fragmenstein_runtime>  (650) 
nan

>  <fragmenstein_outcome>  (650) 
nan

>  <fragmenstein_mode>  (650) 
nan

>  <fragmenstein_error>  (650) 
nan

>  <exports>  (650) 
nan

>  <Multi-SuCOS>  (650) 
nan

>  <merge_set>  (650) 
nan

$$$$
XNCINBDDEFOVRS-UWVGGRQHSA-N
     RDKit          3D

 20 21  0  0  0  0  0  0  0  0999 V2000
  -21.2929  -33.7103  -26.4704 C   0  0  0  0  0  0  0  0  0  0  0  0
  -21.5300  -32.7667  -25.4376 O   0  0  0  0  0  0  0  0  0  0  0  0
  -21.3406  -33.3301  -24.1373 C   0  0  0  0  0  0  0  0  0  0  0  0
  -22.0196  -32.5003  -23.0508 C   0  0  1  0  0  0  0  0  0  0  0  0
  -21.2267  -31.3642  -22.7064 O   0  0  0  0  0  0  0  0  0  0  0  0
  -23.4302  -32.1163  -23.4839 C   0  0  0  0  0  0  0  0  0  0  0  0
  -24.1783  -31.5738  -22.3920 N   0  0  0  0  0  0  0  0  0  0  0  0
  -25.5529  -30.8728  -22.3729 C   0  0  0  0  0  0  0  0  0  0  0  0
  -26.2335  -30.5689  -23.2294 O   0  0  0  0  0  0  0  0  0  0  0  0
  -25.7746  -30.7989  -20.8515 N   0  0  0  0  0  0  0  0  0  0  0  0
  -26.8603  -30.4403  -20.1468 C   0  0  0  0  0  0  0  0  0  0  0  0
  -28.1615  -30.1592  -20.5924 C   0  0  0  0  0  0  0  0  0  0  0  0
  -28.8786  -29.9200  -19.4416 C   0  0  0  0  0  0  0  0  0  0  0  0
  -27.9741  -30.0075  -18.4230 N   0  0  0  0  0  0  0  0  0  0  0  0
  -28.1136  -29.5930  -17.0562 C   0  0  1  0  0  0  0  0  0  0  0  0
  -29.4064  -29.9154  -16.3567 C   0  0  0  0  0  0  0  0  0  0  0  0
  -28.9485  -29.9927  -14.9284 C   0  0  0  0  0  0  0  0  0  0  0  0
  -27.6699  -30.5934  -14.9300 O   0  0  0  0  0  0  0  0  0  0  0  0
  -27.0159  -30.1129  -16.1105 C   0  0  0  0  0  0  0  0  0  0  0  0
  -26.7446  -30.3232  -18.8350 N   0  0  0  0  0  0  0  0  0  0  0  0
  1  2  1  0
  2  3  1  0
  3  4  1  0
  4  5  1  6
  4  6  1  0
  6  7  1  0
  7  8  1  0
  8  9  2  0
  8 10  1  0
 10 11  1  0
 11 12  1  0
 12 13  2  0
 13 14  1  0
 15 14  1  6
 15 16  1  0
 16 17  1  0
 17 18  1  0
 18 19  1  0
 14 20  1  0
 20 11  2  0
 19 15  1  0
M  END
>  <id>  (651) 
425505

>  <inchikey>  (651) 
XNCINBDDEFOVRS-UWVGGRQHSA-N

>  <alias>  (651) 
None

>  <smiles>  (651) 
COC[C@@H](O)CNC(=O)Nc1ccn([C@H]2CCOC2)n1

>  <path>  (651) 
/opt/xchem-fragalysis-2/maxwin/RdRp_FFF/syndirella/mar_elabs/elabs_060/VEAPMNAYWNOMRJ-UHFFFAOYSA-N/output/VEAPMNAYWNOMRJ-UHFFFAOYSA-N-Xhtsx2-2243-D/VEAPMNAYWNOMRJ-UHFFFAOYSA-N-Xhtsx2-2243-D.minimised.mol

>  <distance_score>  (651) 
0.762418

>  <energy_score>  (651) 
-34.099259

>  <compound>  (651) 
XNCINBDDEFOVRS-UHFFFAOYSA-N

>  <compound_id>  (651) 
232640

>  <target>  (651) 
Flavi_NS5_RdRp

>  <tags>  (651) 
[]

>  <inspirations>  (651) 
{P Ã— 2}

>  <subsites>  (651) 
None

>  <reference>  (651) 
z0211a

>  <SLURM_JOB_ID>  (651) 
nan

>  <SLURM_JOB_NAME>  (651) 
nan

>  <csv_name>  (651) 
nan

>  <scratch_subdir>  (651) 
nan

>  <fragmenstein_runtime>  (651) 
nan

>  <fragmenstein_outcome>  (651) 
nan

>  <fragmenstein_mode>  (651) 
nan

>  <fragmenstein_error>  (651) 
nan

>  <exports>  (651) 
nan

>  <Multi-SuCOS>  (651) 
nan

>  <merge_set>  (651) 
nan

$$$$
XGJXJAFTHXYRSD-YUMQZZPRSA-N
     RDKit          3D

 20 21  0  0  0  0  0  0  0  0999 V2000
  -20.7903  -33.3063  -25.2470 C   0  0  0  0  0  0  0  0  0  0  0  0
  -21.5701  -32.2415  -24.5285 C   0  0  2  0  0  0  0  0  0  0  0  0
  -20.7182  -31.1368  -24.2345 O   0  0  0  0  0  0  0  0  0  0  0  0
  -22.3377  -32.7504  -23.3171 C   0  0  0  0  0  0  0  0  0  0  0  0
  -22.1983  -33.7808  -22.7872 O   0  0  0  0  0  0  0  0  0  0  0  0
  -23.3760  -31.6194  -23.0646 N   0  0  0  0  0  0  0  0  0  0  0  0
  -24.3022  -31.5011  -22.1351 N   0  0  0  0  0  0  0  0  0  0  0  0
  -25.7195  -30.8831  -22.2062 C   0  0  0  0  0  0  0  0  0  0  0  0
  -26.2948  -30.4665  -23.0923 O   0  0  0  0  0  0  0  0  0  0  0  0
  -26.1213  -31.0041  -20.7313 N   0  0  0  0  0  0  0  0  0  0  0  0
  -27.2117  -30.5726  -20.0935 C   0  0  0  0  0  0  0  0  0  0  0  0
  -28.4418  -30.1382  -20.5981 C   0  0  0  0  0  0  0  0  0  0  0  0
  -29.1875  -29.8629  -19.4751 C   0  0  0  0  0  0  0  0  0  0  0  0
  -28.3240  -29.9891  -18.4277 N   0  0  0  0  0  0  0  0  0  0  0  0
  -28.4479  -29.4811  -17.0928 C   0  0  1  0  0  0  0  0  0  0  0  0
  -29.5639  -30.0585  -16.2608 C   0  0  0  0  0  0  0  0  0  0  0  0
  -28.8994  -30.3812  -14.9412 C   0  0  0  0  0  0  0  0  0  0  0  0
  -27.6603  -29.6949  -14.8953 O   0  0  0  0  0  0  0  0  0  0  0  0
  -27.1941  -29.6928  -16.2402 C   0  0  0  0  0  0  0  0  0  0  0  0
  -27.1482  -30.5017  -18.7794 N   0  0  0  0  0  0  0  0  0  0  0  0
  2  1  1  1
  2  3  1  0
  2  4  1  0
  4  5  2  0
  4  6  1  0
  6  7  1  0
  7  8  1  0
  8  9  2  0
  8 10  1  0
 10 11  1  0
 11 12  1  0
 12 13  2  0
 13 14  1  0
 15 14  1  6
 15 16  1  0
 16 17  1  0
 17 18  1  0
 18 19  1  0
 14 20  1  0
 20 11  2  0
 19 15  1  0
M  END
>  <id>  (652) 
425616

>  <inchikey>  (652) 
XGJXJAFTHXYRSD-YUMQZZPRSA-N

>  <alias>  (652) 
None

>  <smiles>  (652) 
C[C@H](O)C(=O)NNC(=O)Nc1ccn([C@H]2CCOC2)n1

>  <path>  (652) 
/opt/xchem-fragalysis-2/maxwin/RdRp_FFF/syndirella/mar_elabs/elabs_060/VEAPMNAYWNOMRJ-UHFFFAOYSA-N/output/VEAPMNAYWNOMRJ-UHFFFAOYSA-N-Xhtsx2-2344-A/VEAPMNAYWNOMRJ-UHFFFAOYSA-N-Xhtsx2-2344-A.minimised.mol

>  <distance_score>  (652) 
0.942742

>  <energy_score>  (652) 
-4.675132

>  <compound>  (652) 
XGJXJAFTHXYRSD-UHFFFAOYSA-N

>  <compound_id>  (652) 
233155

>  <target>  (652) 
Flavi_NS5_RdRp

>  <tags>  (652) 
[]

>  <inspirations>  (652) 
{P Ã— 2}

>  <subsites>  (652) 
None

>  <reference>  (652) 
z0211a

>  <SLURM_JOB_ID>  (652) 
nan

>  <SLURM_JOB_NAME>  (652) 
nan

>  <csv_name>  (652) 
nan

>  <scratch_subdir>  (652) 
nan

>  <fragmenstein_runtime>  (652) 
nan

>  <fragmenstein_outcome>  (652) 
nan

>  <fragmenstein_mode>  (652) 
nan

>  <fragmenstein_error>  (652) 
nan

>  <exports>  (652) 
nan

>  <Multi-SuCOS>  (652) 
nan

>  <merge_set>  (652) 
nan

$$$$
AHVFUKRVZVHIKL-JGVFFNPUSA-N
     RDKit          3D

 20 21  0  0  0  0  0  0  0  0999 V2000
  -26.3453  -30.5049  -23.3473 O   0  0  0  0  0  0  0  0  0  0  0  0
  -25.7039  -30.9238  -22.5075 C   0  0  0  0  0  0  0  0  0  0  0  0
  -24.4070  -31.7645  -22.5648 N   0  0  0  0  0  0  0  0  0  0  0  0
  -23.7130  -32.3245  -23.6865 C   0  0  0  0  0  0  0  0  0  0  0  0
  -22.2065  -32.1338  -23.5901 C   0  0  1  0  0  0  0  0  0  0  0  0
  -21.7221  -32.6151  -22.3326 O   0  0  0  0  0  0  0  0  0  0  0  0
  -21.5349  -32.8308  -24.7622 C   0  0  0  0  0  0  0  0  0  0  0  0
  -20.5228  -32.4564  -25.3332 O   0  0  0  0  0  0  0  0  0  0  0  0
  -22.1006  -33.9926  -25.1453 O   0  0  0  0  0  0  0  0  0  0  0  0
  -25.9260  -30.9078  -20.9790 N   0  0  0  0  0  0  0  0  0  0  0  0
  -26.9753  -30.4746  -20.2546 C   0  0  0  0  0  0  0  0  0  0  0  0
  -28.2217  -30.0267  -20.7245 C   0  0  0  0  0  0  0  0  0  0  0  0
  -28.9644  -29.8105  -19.5886 C   0  0  0  0  0  0  0  0  0  0  0  0
  -28.0994  -29.9921  -18.5476 N   0  0  0  0  0  0  0  0  0  0  0  0
  -28.2339  -29.4835  -17.2092 C   0  0  1  0  0  0  0  0  0  0  0  0
  -29.4028  -29.9816  -16.3891 C   0  0  0  0  0  0  0  0  0  0  0  0
  -28.7919  -30.3356  -15.0512 C   0  0  0  0  0  0  0  0  0  0  0  0
  -27.5143  -29.7238  -14.9819 O   0  0  0  0  0  0  0  0  0  0  0  0
  -27.0141  -29.7165  -16.3195 C   0  0  0  0  0  0  0  0  0  0  0  0
  -26.9179  -30.4916  -18.9306 N   0  0  0  0  0  0  0  0  0  0  0  0
  1  2  2  0
  2  3  1  0
  3  4  1  0
  4  5  1  0
  5  6  1  1
  5  7  1  0
  7  8  2  0
  7  9  1  0
  2 10  1  0
 10 11  1  0
 11 12  1  0
 12 13  2  0
 13 14  1  0
 15 14  1  6
 15 16  1  0
 16 17  1  0
 17 18  1  0
 18 19  1  0
 14 20  1  0
 20 11  2  0
 19 15  1  0
M  END
>  <id>  (653) 
425625

>  <inchikey>  (653) 
AHVFUKRVZVHIKL-JGVFFNPUSA-N

>  <alias>  (653) 
None

>  <smiles>  (653) 
O=C(NC[C@@H](O)C(=O)O)Nc1ccn([C@H]2CCOC2)n1

>  <path>  (653) 
/opt/xchem-fragalysis-2/maxwin/RdRp_FFF/syndirella/mar_elabs/elabs_060/VEAPMNAYWNOMRJ-UHFFFAOYSA-N/output/VEAPMNAYWNOMRJ-UHFFFAOYSA-N-Xhtsx2-2358-D/VEAPMNAYWNOMRJ-UHFFFAOYSA-N-Xhtsx2-2358-D.minimised.mol

>  <distance_score>  (653) 
1.082274

>  <energy_score>  (653) 
-8.104703

>  <compound>  (653) 
AHVFUKRVZVHIKL-UHFFFAOYSA-N

>  <compound_id>  (653) 
233157

>  <target>  (653) 
Flavi_NS5_RdRp

>  <tags>  (653) 
[]

>  <inspirations>  (653) 
{P Ã— 2}

>  <subsites>  (653) 
None

>  <reference>  (653) 
z0211a

>  <SLURM_JOB_ID>  (653) 
nan

>  <SLURM_JOB_NAME>  (653) 
nan

>  <csv_name>  (653) 
nan

>  <scratch_subdir>  (653) 
nan

>  <fragmenstein_runtime>  (653) 
nan

>  <fragmenstein_outcome>  (653) 
nan

>  <fragmenstein_mode>  (653) 
nan

>  <fragmenstein_error>  (653) 
nan

>  <exports>  (653) 
nan

>  <Multi-SuCOS>  (653) 
nan

>  <merge_set>  (653) 
nan

$$$$
DUYNAWHKBAXAPB-SNVBAGLBSA-N
     RDKit          3D

 20 20  0  0  0  0  0  0  0  0999 V2000
  -25.7603  -31.6309  -14.2738 C   0  0  0  0  0  0  0  0  0  0  0  0
  -27.1174  -31.2023  -14.3976 O   0  0  0  0  0  0  0  0  0  0  0  0
  -27.2693  -30.3481  -15.5223 C   0  0  0  0  0  0  0  0  0  0  0  0
  -28.7504  -30.1352  -15.7787 C   0  0  0  0  0  0  0  0  0  0  0  0
  -29.0943  -29.3467  -17.0331 C   0  0  0  0  0  0  0  0  0  0  0  0
  -28.3740  -29.6519  -18.2479 N   0  0  0  0  0  0  0  0  0  0  0  0
  -28.9268  -29.7862  -19.4832 C   0  0  0  0  0  0  0  0  0  0  0  0
  -27.8750  -30.0356  -20.3344 C   0  0  0  0  0  0  0  0  0  0  0  0
  -27.9623  -30.1858  -21.7923 C   0  0  0  0  0  0  0  0  0  0  0  0
  -26.7431  -30.1408  -19.4925 C   0  0  0  0  0  0  0  0  0  0  0  0
  -25.5119  -30.6417  -19.7920 N   0  0  0  0  0  0  0  0  0  0  0  0
  -25.0416  -31.5086  -20.9999 C   0  0  0  0  0  0  0  0  0  0  0  0
  -25.6092  -31.8454  -21.9292 O   0  0  0  0  0  0  0  0  0  0  0  0
  -23.5825  -31.8037  -20.5535 N   0  0  0  0  0  0  0  0  0  0  0  0
  -22.5786  -32.6608  -21.1431 C   0  0  0  0  0  0  0  0  0  0  0  0
  -22.2037  -32.2380  -22.5748 C   0  0  1  0  0  0  0  0  0  0  0  0
  -21.1751  -31.2483  -22.5081 O   0  0  0  0  0  0  0  0  0  0  0  0
  -21.6545  -33.4139  -23.3776 C   0  0  0  0  0  0  0  0  0  0  0  0
  -22.6647  -34.3830  -23.6308 O   0  0  0  0  0  0  0  0  0  0  0  0
  -27.0246  -29.6732  -18.2748 N   0  0  0  0  0  0  0  0  0  0  0  0
  1  2  1  0
  2  3  1  0
  3  4  1  0
  4  5  1  0
  5  6  1  0
  6  7  1  0
  7  8  2  0
  8  9  1  0
  8 10  1  0
 10 11  1  0
 11 12  1  0
 12 13  2  0
 12 14  1  0
 14 15  1  0
 15 16  1  0
 16 17  1  1
 16 18  1  0
 18 19  1  0
 10 20  2  0
 20  6  1  0
M  END
>  <id>  (654) 
425901

>  <inchikey>  (654) 
DUYNAWHKBAXAPB-SNVBAGLBSA-N

>  <alias>  (654) 
None

>  <smiles>  (654) 
COCCCn1cc(C)c(NC(=O)NC[C@@H](O)CO)n1

>  <path>  (654) 
/opt/xchem-fragalysis-2/maxwin/RdRp_FFF/syndirella/mar_elabs/elabs_060/VEAPMNAYWNOMRJ-UHFFFAOYSA-N/output/VEAPMNAYWNOMRJ-UHFFFAOYSA-N-Xhtsx2-2592-B/VEAPMNAYWNOMRJ-UHFFFAOYSA-N-Xhtsx2-2592-B.minimised.mol

>  <distance_score>  (654) 
0.997455

>  <energy_score>  (654) 
-16.479738

>  <compound>  (654) 
DUYNAWHKBAXAPB-UHFFFAOYSA-N

>  <compound_id>  (654) 
232907

>  <target>  (654) 
Flavi_NS5_RdRp

>  <tags>  (654) 
[]

>  <inspirations>  (654) 
{P Ã— 2}

>  <subsites>  (654) 
None

>  <reference>  (654) 
z0211a

>  <SLURM_JOB_ID>  (654) 
nan

>  <SLURM_JOB_NAME>  (654) 
nan

>  <csv_name>  (654) 
nan

>  <scratch_subdir>  (654) 
nan

>  <fragmenstein_runtime>  (654) 
nan

>  <fragmenstein_outcome>  (654) 
nan

>  <fragmenstein_mode>  (654) 
nan

>  <fragmenstein_error>  (654) 
nan

>  <exports>  (654) 
nan

>  <Multi-SuCOS>  (654) 
nan

>  <merge_set>  (654) 
nan

$$$$
ORBJYHQSABGMFF-DTWKUNHWSA-N
     RDKit          3D

 19 20  0  0  0  0  0  0  0  0999 V2000
  -26.1237  -30.6418  -23.2644 O   0  0  0  0  0  0  0  0  0  0  0  0
  -25.4810  -30.9578  -22.3824 C   0  0  0  0  0  0  0  0  0  0  0  0
  -24.1102  -31.6707  -22.3504 N   0  0  0  0  0  0  0  0  0  0  0  0
  -23.2311  -32.0429  -23.4219 C   0  0  0  0  0  0  0  0  0  0  0  0
  -21.8858  -32.4930  -22.8721 C   0  0  2  0  0  0  0  0  0  0  0  0
  -21.2607  -31.4447  -22.1270 O   0  0  0  0  0  0  0  0  0  0  0  0
  -20.9675  -32.9851  -23.9746 C   0  0  0  0  0  0  0  0  0  0  0  0
  -20.7246  -32.0042  -24.8845 F   0  0  0  0  0  0  0  0  0  0  0  0
  -25.7661  -30.8935  -20.8666 N   0  0  0  0  0  0  0  0  0  0  0  0
  -26.8806  -30.5305  -20.2032 C   0  0  0  0  0  0  0  0  0  0  0  0
  -28.1450  -30.1934  -20.7138 C   0  0  0  0  0  0  0  0  0  0  0  0
  -28.9111  -29.9148  -19.6043 C   0  0  0  0  0  0  0  0  0  0  0  0
  -28.0619  -30.0167  -18.5398 N   0  0  0  0  0  0  0  0  0  0  0  0
  -28.2431  -29.4948  -17.2115 C   0  0  1  0  0  0  0  0  0  0  0  0
  -29.4344  -29.9814  -16.4161 C   0  0  0  0  0  0  0  0  0  0  0  0
  -28.8534  -30.3423  -15.0658 C   0  0  0  0  0  0  0  0  0  0  0  0
  -27.5806  -29.7251  -14.9639 O   0  0  0  0  0  0  0  0  0  0  0  0
  -27.0484  -29.7371  -16.2873 C   0  0  0  0  0  0  0  0  0  0  0  0
  -26.8420  -30.4482  -18.8819 N   0  0  0  0  0  0  0  0  0  0  0  0
  1  2  2  0
  2  3  1  0
  3  4  1  0
  4  5  1  0
  5  6  1  6
  5  7  1  0
  7  8  1  0
  2  9  1  0
  9 10  1  0
 10 11  1  0
 11 12  2  0
 12 13  1  0
 14 13  1  6
 14 15  1  0
 15 16  1  0
 16 17  1  0
 17 18  1  0
 13 19  1  0
 19 10  2  0
 18 14  1  0
M  END
>  <id>  (655) 
426036

>  <inchikey>  (655) 
ORBJYHQSABGMFF-DTWKUNHWSA-N

>  <alias>  (655) 
None

>  <smiles>  (655) 
O=C(NC[C@H](O)CF)Nc1ccn([C@H]2CCOC2)n1

>  <path>  (655) 
/opt/xchem-fragalysis-2/maxwin/RdRp_FFF/syndirella/mar_elabs/elabs_060/VEAPMNAYWNOMRJ-UHFFFAOYSA-N/output/VEAPMNAYWNOMRJ-UHFFFAOYSA-N-VVXPXL-165-A/VEAPMNAYWNOMRJ-UHFFFAOYSA-N-VVXPXL-165-A.minimised.mol

>  <distance_score>  (655) 
0.743907

>  <energy_score>  (655) 
-26.018297

>  <compound>  (655) 
ORBJYHQSABGMFF-UHFFFAOYSA-N

>  <compound_id>  (655) 
231188

>  <target>  (655) 
Flavi_NS5_RdRp

>  <tags>  (655) 
[]

>  <inspirations>  (655) 
{P Ã— 2}

>  <subsites>  (655) 
None

>  <reference>  (655) 
z0211a

>  <SLURM_JOB_ID>  (655) 
nan

>  <SLURM_JOB_NAME>  (655) 
nan

>  <csv_name>  (655) 
nan

>  <scratch_subdir>  (655) 
nan

>  <fragmenstein_runtime>  (655) 
nan

>  <fragmenstein_outcome>  (655) 
nan

>  <fragmenstein_mode>  (655) 
nan

>  <fragmenstein_error>  (655) 
nan

>  <exports>  (655) 
nan

>  <Multi-SuCOS>  (655) 
nan

>  <merge_set>  (655) 
nan

$$$$
YBZDLJUGKFQMAH-GXFFZTMASA-N
     RDKit          3D

 20 21  0  0  0  0  0  0  0  0999 V2000
  -21.1486  -32.9769  -25.2535 C   0  0  0  0  0  0  0  0  0  0  0  0
  -21.1423  -33.3777  -23.7890 C   0  0  0  0  0  0  0  0  0  0  0  0
  -21.8121  -32.4025  -22.8176 C   0  0  1  0  0  0  0  0  0  0  0  0
  -21.6549  -32.9678  -21.3966 C   0  0  0  0  0  0  0  0  0  0  0  0
  -21.0744  -31.1840  -22.8501 O   0  0  0  0  0  0  0  0  0  0  0  0
  -23.2821  -32.1968  -23.2307 C   0  0  0  0  0  0  0  0  0  0  0  0
  -24.1004  -31.6344  -22.1997 N   0  0  0  0  0  0  0  0  0  0  0  0
  -25.4728  -30.9367  -22.2834 C   0  0  0  0  0  0  0  0  0  0  0  0
  -26.0966  -30.6509  -23.1877 O   0  0  0  0  0  0  0  0  0  0  0  0
  -25.7928  -30.8339  -20.7811 N   0  0  0  0  0  0  0  0  0  0  0  0
  -26.9225  -30.4639  -20.1551 C   0  0  0  0  0  0  0  0  0  0  0  0
  -28.1852  -30.1554  -20.6826 C   0  0  0  0  0  0  0  0  0  0  0  0
  -28.9675  -29.8887  -19.5806 C   0  0  0  0  0  0  0  0  0  0  0  0
  -28.1272  -29.9681  -18.5078 N   0  0  0  0  0  0  0  0  0  0  0  0
  -28.3283  -29.4714  -17.1743 C   0  0  1  0  0  0  0  0  0  0  0  0
  -29.5067  -30.0053  -16.3930 C   0  0  0  0  0  0  0  0  0  0  0  0
  -28.9184  -30.3636  -15.0452 C   0  0  0  0  0  0  0  0  0  0  0  0
  -27.6633  -29.7148  -14.9321 O   0  0  0  0  0  0  0  0  0  0  0  0
  -27.1294  -29.7098  -16.2530 C   0  0  0  0  0  0  0  0  0  0  0  0
  -26.8954  -30.3671  -18.8365 N   0  0  0  0  0  0  0  0  0  0  0  0
  1  2  1  0
  2  3  1  0
  3  4  1  1
  3  5  1  0
  3  6  1  0
  6  7  1  0
  7  8  1  0
  8  9  2  0
  8 10  1  0
 10 11  1  0
 11 12  1  0
 12 13  2  0
 13 14  1  0
 15 14  1  6
 15 16  1  0
 16 17  1  0
 17 18  1  0
 18 19  1  0
 14 20  1  0
 20 11  2  0
 19 15  1  0
M  END
>  <id>  (656) 
426339

>  <inchikey>  (656) 
YBZDLJUGKFQMAH-GXFFZTMASA-N

>  <alias>  (656) 
None

>  <smiles>  (656) 
CC[C@@](C)(O)CNC(=O)Nc1ccn([C@H]2CCOC2)n1

>  <path>  (656) 
/opt/xchem-fragalysis-2/maxwin/RdRp_FFF/syndirella/mar_elabs/elabs_060/VEAPMNAYWNOMRJ-UHFFFAOYSA-N/output/VEAPMNAYWNOMRJ-UHFFFAOYSA-N-VVXPXL-549-B/VEAPMNAYWNOMRJ-UHFFFAOYSA-N-VVXPXL-549-B.minimised.mol

>  <distance_score>  (656) 
0.765324

>  <energy_score>  (656) 
-3.516314

>  <compound>  (656) 
YBZDLJUGKFQMAH-UHFFFAOYSA-N

>  <compound_id>  (656) 
232496

>  <target>  (656) 
Flavi_NS5_RdRp

>  <tags>  (656) 
[]

>  <inspirations>  (656) 
{P Ã— 2}

>  <subsites>  (656) 
None

>  <reference>  (656) 
z0211a

>  <SLURM_JOB_ID>  (656) 
nan

>  <SLURM_JOB_NAME>  (656) 
nan

>  <csv_name>  (656) 
nan

>  <scratch_subdir>  (656) 
nan

>  <fragmenstein_runtime>  (656) 
nan

>  <fragmenstein_outcome>  (656) 
nan

>  <fragmenstein_mode>  (656) 
nan

>  <fragmenstein_error>  (656) 
nan

>  <exports>  (656) 
nan

>  <Multi-SuCOS>  (656) 
nan

>  <merge_set>  (656) 
nan

$$$$
KDJWRXVEOSHBRM-VHSXEESVSA-N
     RDKit          3D

 20 21  0  0  0  0  0  0  0  0999 V2000
  -24.0373  -34.9122  -21.5352 C   0  0  0  0  0  0  0  0  0  0  0  0
  -22.5599  -34.0766  -20.9121 S   0  0  0  0  0  0  0  0  0  0  0  0
  -21.6643  -33.8241  -22.4926 C   0  0  0  0  0  0  0  0  0  0  0  0
  -21.6519  -32.3761  -22.9729 C   0  0  2  0  0  0  0  0  0  0  0  0
  -21.0486  -31.5427  -21.9790 O   0  0  0  0  0  0  0  0  0  0  0  0
  -23.0132  -31.8512  -23.4244 C   0  0  0  0  0  0  0  0  0  0  0  0
  -23.9507  -31.6073  -22.3660 N   0  0  0  0  0  0  0  0  0  0  0  0
  -25.3667  -30.9843  -22.4054 C   0  0  0  0  0  0  0  0  0  0  0  0
  -25.9999  -30.6545  -23.2906 O   0  0  0  0  0  0  0  0  0  0  0  0
  -25.6726  -30.9490  -20.8896 N   0  0  0  0  0  0  0  0  0  0  0  0
  -26.7995  -30.6022  -20.2334 C   0  0  0  0  0  0  0  0  0  0  0  0
  -28.0567  -30.2543  -20.7569 C   0  0  0  0  0  0  0  0  0  0  0  0
  -28.8293  -29.9518  -19.6575 C   0  0  0  0  0  0  0  0  0  0  0  0
  -27.9939  -30.0629  -18.5819 N   0  0  0  0  0  0  0  0  0  0  0  0
  -28.1780  -29.5119  -17.2637 C   0  0  1  0  0  0  0  0  0  0  0  0
  -29.3874  -29.9558  -16.4674 C   0  0  0  0  0  0  0  0  0  0  0  0
  -28.8257  -30.3211  -15.1098 C   0  0  0  0  0  0  0  0  0  0  0  0
  -27.5425  -29.7256  -15.0020 O   0  0  0  0  0  0  0  0  0  0  0  0
  -26.9973  -29.7534  -16.3210 C   0  0  0  0  0  0  0  0  0  0  0  0
  -26.7775  -30.5197  -18.9104 N   0  0  0  0  0  0  0  0  0  0  0  0
  1  2  1  0
  2  3  1  0
  3  4  1  0
  4  5  1  1
  4  6  1  0
  6  7  1  0
  7  8  1  0
  8  9  2  0
  8 10  1  0
 10 11  1  0
 11 12  1  0
 12 13  2  0
 13 14  1  0
 15 14  1  6
 15 16  1  0
 16 17  1  0
 17 18  1  0
 18 19  1  0
 14 20  1  0
 20 11  2  0
 19 15  1  0
M  END
>  <id>  (657) 
426340

>  <inchikey>  (657) 
KDJWRXVEOSHBRM-VHSXEESVSA-N

>  <alias>  (657) 
None

>  <smiles>  (657) 
CSC[C@H](O)CNC(=O)Nc1ccn([C@H]2CCOC2)n1

>  <path>  (657) 
/opt/xchem-fragalysis-2/maxwin/RdRp_FFF/syndirella/mar_elabs/elabs_060/VEAPMNAYWNOMRJ-UHFFFAOYSA-N/output/VEAPMNAYWNOMRJ-UHFFFAOYSA-N-VVXPXL-550-A/VEAPMNAYWNOMRJ-UHFFFAOYSA-N-VVXPXL-550-A.minimised.mol

>  <distance_score>  (657) 
0.828705

>  <energy_score>  (657) 
-10.239691

>  <compound>  (657) 
KDJWRXVEOSHBRM-UHFFFAOYSA-N

>  <compound_id>  (657) 
232539

>  <target>  (657) 
Flavi_NS5_RdRp

>  <tags>  (657) 
[]

>  <inspirations>  (657) 
{P Ã— 2}

>  <subsites>  (657) 
None

>  <reference>  (657) 
z0211a

>  <SLURM_JOB_ID>  (657) 
nan

>  <SLURM_JOB_NAME>  (657) 
nan

>  <csv_name>  (657) 
nan

>  <scratch_subdir>  (657) 
nan

>  <fragmenstein_runtime>  (657) 
nan

>  <fragmenstein_outcome>  (657) 
nan

>  <fragmenstein_mode>  (657) 
nan

>  <fragmenstein_error>  (657) 
nan

>  <exports>  (657) 
nan

>  <Multi-SuCOS>  (657) 
nan

>  <merge_set>  (657) 
nan

$$$$
XIJHPNJCLGPKSA-KXUCPTDWSA-N
     RDKit          3D

 20 21  0  0  0  0  0  0  0  0999 V2000
  -20.9299  -32.8878  -23.9371 C   0  0  0  0  0  0  0  0  0  0  0  0
  -22.0375  -32.7498  -22.9099 C   0  0  1  0  0  0  0  0  0  0  0  0
  -21.5160  -32.0494  -21.7724 O   0  0  0  0  0  0  0  0  0  0  0  0
  -23.2443  -31.9760  -23.4714 C   0  0  1  0  0  0  0  0  0  0  0  0
  -23.9970  -32.7455  -24.5663 C   0  0  0  0  0  0  0  0  0  0  0  0
  -24.5217  -33.9754  -24.0628 O   0  0  0  0  0  0  0  0  0  0  0  0
  -24.1238  -31.6120  -22.3823 N   0  0  0  0  0  0  0  0  0  0  0  0
  -25.5093  -30.9291  -22.4007 C   0  0  0  0  0  0  0  0  0  0  0  0
  -26.1700  -30.6333  -23.2758 O   0  0  0  0  0  0  0  0  0  0  0  0
  -25.7754  -30.8599  -20.8831 N   0  0  0  0  0  0  0  0  0  0  0  0
  -26.8890  -30.5157  -20.2071 C   0  0  0  0  0  0  0  0  0  0  0  0
  -28.1470  -30.1461  -20.7132 C   0  0  0  0  0  0  0  0  0  0  0  0
  -28.9156  -29.8967  -19.5991 C   0  0  0  0  0  0  0  0  0  0  0  0
  -28.0691  -30.0306  -18.5358 N   0  0  0  0  0  0  0  0  0  0  0  0
  -28.2369  -29.5052  -17.2073 C   0  0  1  0  0  0  0  0  0  0  0  0
  -29.4250  -29.9847  -16.4034 C   0  0  0  0  0  0  0  0  0  0  0  0
  -28.8371  -30.3418  -15.0553 C   0  0  0  0  0  0  0  0  0  0  0  0
  -27.5615  -29.7279  -14.9637 O   0  0  0  0  0  0  0  0  0  0  0  0
  -27.0369  -29.7460  -16.2904 C   0  0  0  0  0  0  0  0  0  0  0  0
  -26.8603  -30.4890  -18.8834 N   0  0  0  0  0  0  0  0  0  0  0  0
  2  1  1  6
  2  3  1  0
  2  4  1  0
  4  5  1  6
  5  6  1  0
  4  7  1  0
  7  8  1  0
  8  9  2  0
  8 10  1  0
 10 11  1  0
 11 12  1  0
 12 13  2  0
 13 14  1  0
 15 14  1  6
 15 16  1  0
 16 17  1  0
 17 18  1  0
 18 19  1  0
 14 20  1  0
 20 11  2  0
 19 15  1  0
M  END
>  <id>  (658) 
426494

>  <inchikey>  (658) 
XIJHPNJCLGPKSA-KXUCPTDWSA-N

>  <alias>  (658) 
None

>  <smiles>  (658) 
C[C@@H](O)[C@@H](CO)NC(=O)Nc1ccn([C@H]2CCOC2)n1

>  <path>  (658) 
/opt/xchem-fragalysis-2/maxwin/RdRp_FFF/syndirella/mar_elabs/elabs_060/VEAPMNAYWNOMRJ-UHFFFAOYSA-N/output/VEAPMNAYWNOMRJ-UHFFFAOYSA-N-VVXPXL-679-D/VEAPMNAYWNOMRJ-UHFFFAOYSA-N-VVXPXL-679-D.minimised.mol

>  <distance_score>  (658) 
0.744339

>  <energy_score>  (658) 
-49.108279

>  <compound>  (658) 
XIJHPNJCLGPKSA-UHFFFAOYSA-N

>  <compound_id>  (658) 
233184

>  <target>  (658) 
Flavi_NS5_RdRp

>  <tags>  (658) 
[]

>  <inspirations>  (658) 
{P Ã— 2}

>  <subsites>  (658) 
None

>  <reference>  (658) 
z0211a

>  <SLURM_JOB_ID>  (658) 
nan

>  <SLURM_JOB_NAME>  (658) 
nan

>  <csv_name>  (658) 
nan

>  <scratch_subdir>  (658) 
nan

>  <fragmenstein_runtime>  (658) 
nan

>  <fragmenstein_outcome>  (658) 
nan

>  <fragmenstein_mode>  (658) 
nan

>  <fragmenstein_error>  (658) 
nan

>  <exports>  (658) 
nan

>  <Multi-SuCOS>  (658) 
nan

>  <merge_set>  (658) 
nan

$$$$
FYGXZJRRHNAXKX-KXUCPTDWSA-N
     RDKit          3D

 20 21  0  0  0  0  0  0  0  0999 V2000
  -24.2359  -33.0449  -24.4210 C   0  0  0  0  0  0  0  0  0  0  0  0
  -23.5490  -32.0148  -23.5350 C   0  0  1  0  0  0  0  0  0  0  0  0
  -24.3895  -31.6242  -22.4361 N   0  0  0  0  0  0  0  0  0  0  0  0
  -25.7402  -30.8776  -22.4264 C   0  0  0  0  0  0  0  0  0  0  0  0
  -26.3394  -30.4326  -23.2827 O   0  0  0  0  0  0  0  0  0  0  0  0
  -26.0837  -31.0031  -20.9307 N   0  0  0  0  0  0  0  0  0  0  0  0
  -27.1373  -30.5417  -20.2387 C   0  0  0  0  0  0  0  0  0  0  0  0
  -28.3726  -30.0762  -20.7065 C   0  0  0  0  0  0  0  0  0  0  0  0
  -29.0997  -29.8299  -19.5652 C   0  0  0  0  0  0  0  0  0  0  0  0
  -28.2258  -29.9989  -18.5303 N   0  0  0  0  0  0  0  0  0  0  0  0
  -28.3347  -29.4899  -17.1906 C   0  0  1  0  0  0  0  0  0  0  0  0
  -29.4733  -30.0126  -16.3464 C   0  0  0  0  0  0  0  0  0  0  0  0
  -28.8253  -30.3462  -15.0200 C   0  0  0  0  0  0  0  0  0  0  0  0
  -27.5577  -29.7094  -14.9827 O   0  0  0  0  0  0  0  0  0  0  0  0
  -27.0905  -29.7163  -16.3306 C   0  0  0  0  0  0  0  0  0  0  0  0
  -27.0555  -30.5109  -18.9180 N   0  0  0  0  0  0  0  0  0  0  0  0
  -22.2278  -32.5083  -22.9436 C   0  0  2  0  0  0  0  0  0  0  0  0
  -21.6855  -31.5358  -22.0249 O   0  0  0  0  0  0  0  0  0  0  0  0
  -21.1530  -32.7833  -23.9753 C   0  0  0  0  0  0  0  0  0  0  0  0
  -19.9862  -33.1929  -23.2734 O   0  0  0  0  0  0  0  0  0  0  0  0
  2  1  1  1
  2  3  1  0
  3  4  1  0
  4  5  2  0
  4  6  1  0
  6  7  1  0
  7  8  1  0
  8  9  2  0
  9 10  1  0
 11 10  1  6
 11 12  1  0
 12 13  1  0
 13 14  1  0
 14 15  1  0
 10 16  1  0
  2 17  1  0
 17 18  1  1
 17 19  1  0
 19 20  1  0
 16  7  2  0
 15 11  1  0
M  END
>  <id>  (659) 
426596

>  <inchikey>  (659) 
FYGXZJRRHNAXKX-KXUCPTDWSA-N

>  <alias>  (659) 
None

>  <smiles>  (659) 
C[C@@H](NC(=O)Nc1ccn([C@H]2CCOC2)n1)[C@H](O)CO

>  <path>  (659) 
/opt/xchem-fragalysis-2/maxwin/RdRp_FFF/syndirella/mar_elabs/elabs_060/VEAPMNAYWNOMRJ-UHFFFAOYSA-N/output/VEAPMNAYWNOMRJ-UHFFFAOYSA-N-VVXPXL-729-D/VEAPMNAYWNOMRJ-UHFFFAOYSA-N-VVXPXL-729-D.minimised.mol

>  <distance_score>  (659) 
0.773887

>  <energy_score>  (659) 
-9.100764

>  <compound>  (659) 
FYGXZJRRHNAXKX-UHFFFAOYSA-N

>  <compound_id>  (659) 
232741

>  <target>  (659) 
Flavi_NS5_RdRp

>  <tags>  (659) 
[]

>  <inspirations>  (659) 
{P Ã— 2}

>  <subsites>  (659) 
None

>  <reference>  (659) 
z0211a

>  <SLURM_JOB_ID>  (659) 
nan

>  <SLURM_JOB_NAME>  (659) 
nan

>  <csv_name>  (659) 
nan

>  <scratch_subdir>  (659) 
nan

>  <fragmenstein_runtime>  (659) 
nan

>  <fragmenstein_outcome>  (659) 
nan

>  <fragmenstein_mode>  (659) 
nan

>  <fragmenstein_error>  (659) 
nan

>  <exports>  (659) 
nan

>  <Multi-SuCOS>  (659) 
nan

>  <merge_set>  (659) 
nan

$$$$
GKMFPORJZOKQKU-SNVBAGLBSA-N
     RDKit          3D

 20 22  0  0  0  0  0  0  0  0999 V2000
  -21.8790  -33.8811  -23.6047 C   0  0  0  0  0  0  0  0  0  0  0  0
  -22.5391  -32.8378  -22.7407 C   0  0  0  0  0  0  0  0  0  0  0  0
  -21.7055  -32.5819  -21.5831 O   0  0  0  0  0  0  0  0  0  0  0  0
  -22.9931  -31.6357  -23.5204 C   0  0  0  0  0  0  0  0  0  0  0  0
  -24.0617  -31.4177  -22.4783 N   0  0  0  0  0  0  0  0  0  0  0  0
  -25.4802  -30.8759  -22.6140 C   0  0  0  0  0  0  0  0  0  0  0  0
  -26.0739  -30.5864  -23.5482 O   0  0  0  0  0  0  0  0  0  0  0  0
  -25.9136  -30.9298  -21.1305 N   0  0  0  0  0  0  0  0  0  0  0  0
  -27.0773  -30.5639  -20.5425 C   0  0  0  0  0  0  0  0  0  0  0  0
  -28.2257  -30.0522  -21.1679 C   0  0  0  0  0  0  0  0  0  0  0  0
  -29.1157  -29.8180  -20.1471 C   0  0  0  0  0  0  0  0  0  0  0  0
  -28.4367  -30.0987  -18.9956 N   0  0  0  0  0  0  0  0  0  0  0  0
  -28.8995  -29.8610  -17.6483 C   0  0  0  0  0  0  0  0  0  0  0  0
  -27.8785  -29.5551  -16.5464 C   0  0  1  0  0  0  0  0  0  0  0  0
  -27.9629  -30.3940  -15.2766 C   0  0  0  0  0  0  0  0  0  0  0  0
  -26.5304  -30.8338  -15.0442 C   0  0  0  0  0  0  0  0  0  0  0  0
  -25.7632  -29.7431  -15.5599 O   0  0  0  0  0  0  0  0  0  0  0  0
  -26.3750  -29.4848  -16.8338 C   0  0  0  0  0  0  0  0  0  0  0  0
  -27.2450  -30.6602  -19.2283 N   0  0  0  0  0  0  0  0  0  0  0  0
  -24.0403  -32.9726  -22.5230 C   0  0  0  0  0  0  0  0  0  0  0  0
  1  2  1  0
  2  3  1  0
  2  4  1  0
  4  5  1  0
  5  6  1  0
  6  7  2  0
  6  8  1  0
  8  9  1  0
  9 10  1  0
 10 11  2  0
 11 12  1  0
 12 13  1  0
 14 13  1  6
 14 15  1  0
 15 16  1  0
 16 17  1  0
 17 18  1  0
 12 19  1  0
  5 20  1  0
 20  2  1  0
 19  9  2  0
 18 14  1  0
M  END
>  <id>  (660) 
426618

>  <inchikey>  (660) 
GKMFPORJZOKQKU-SNVBAGLBSA-N

>  <alias>  (660) 
None

>  <smiles>  (660) 
CC1(O)CN(C(=O)Nc2ccn(C[C@H]3CCOC3)n2)C1

>  <path>  (660) 
/opt/xchem-fragalysis-2/maxwin/RdRp_FFF/syndirella/mar_elabs/elabs_060/VEAPMNAYWNOMRJ-UHFFFAOYSA-N/output/VEAPMNAYWNOMRJ-UHFFFAOYSA-N-VVXPXL-752-B/VEAPMNAYWNOMRJ-UHFFFAOYSA-N-VVXPXL-752-B.minimised.mol

>  <distance_score>  (660) 
0.925232

>  <energy_score>  (660) 
-17.262859

>  <compound>  (660) 
GKMFPORJZOKQKU-UHFFFAOYSA-N

>  <compound_id>  (660) 
233009

>  <target>  (660) 
Flavi_NS5_RdRp

>  <tags>  (660) 
[]

>  <inspirations>  (660) 
{P Ã— 2}

>  <subsites>  (660) 
None

>  <reference>  (660) 
z0211a

>  <SLURM_JOB_ID>  (660) 
nan

>  <SLURM_JOB_NAME>  (660) 
nan

>  <csv_name>  (660) 
nan

>  <scratch_subdir>  (660) 
nan

>  <fragmenstein_runtime>  (660) 
nan

>  <fragmenstein_outcome>  (660) 
nan

>  <fragmenstein_mode>  (660) 
nan

>  <fragmenstein_error>  (660) 
nan

>  <exports>  (660) 
nan

>  <Multi-SuCOS>  (660) 
nan

>  <merge_set>  (660) 
nan

$$$$
AYTAILJLJQXPGE-QWRGUYRKSA-N
     RDKit          3D

 20 20  0  0  0  0  0  0  0  0999 V2000
  -22.2010  -35.4989  -21.1699 C   0  0  0  0  0  0  0  0  0  0  0  0
  -23.2550  -34.4302  -21.4151 C   0  0  0  0  0  0  0  0  0  0  0  0
  -22.7056  -32.9978  -21.2731 C   0  0  2  0  0  0  0  0  0  0  0  0
  -23.7498  -32.1689  -20.6775 N   0  0  0  0  0  0  0  0  0  0  0  0
  -25.2326  -31.9572  -21.1016 C   0  0  0  0  0  0  0  0  0  0  0  0
  -25.8425  -32.4609  -21.9225 O   0  0  0  0  0  0  0  0  0  0  0  0
  -25.6653  -30.9346  -20.0139 N   0  0  0  0  0  0  0  0  0  0  0  0
  -26.8933  -30.4479  -19.7050 C   0  0  0  0  0  0  0  0  0  0  0  0
  -28.0730  -30.6228  -20.4559 C   0  0  0  0  0  0  0  0  0  0  0  0
  -29.0861  -30.1663  -19.6480 C   0  0  0  0  0  0  0  0  0  0  0  0
  -28.4765  -29.7821  -18.4886 N   0  0  0  0  0  0  0  0  0  0  0  0
  -29.1315  -29.3280  -17.2825 C   0  0  0  0  0  0  0  0  0  0  0  0
  -28.8027  -30.0503  -15.9832 C   0  0  0  0  0  0  0  0  0  0  0  0
  -27.3235  -30.2388  -15.6986 C   0  0  0  0  0  0  0  0  0  0  0  0
  -27.1876  -31.0347  -14.5277 O   0  0  0  0  0  0  0  0  0  0  0  0
  -25.8459  -31.5082  -14.3972 C   0  0  0  0  0  0  0  0  0  0  0  0
  -27.1296  -29.7812  -18.5752 N   0  0  0  0  0  0  0  0  0  0  0  0
  -22.2308  -32.3359  -22.5943 C   0  0  2  0  0  0  0  0  0  0  0  0
  -21.4229  -33.2093  -23.5350 C   0  0  0  0  0  0  0  0  0  0  0  0
  -21.3674  -31.2510  -22.2398 O   0  0  0  0  0  0  0  0  0  0  0  0
  1  2  1  0
  3  2  1  6
  3  4  1  0
  4  5  1  0
  5  6  2  0
  5  7  1  0
  7  8  1  0
  8  9  1  0
  9 10  2  0
 10 11  1  0
 11 12  1  0
 12 13  1  0
 13 14  1  0
 14 15  1  0
 15 16  1  0
 11 17  1  0
  3 18  1  0
 18 19  1  6
 18 20  1  0
 17  8  2  0
M  END
>  <id>  (661) 
426723

>  <inchikey>  (661) 
AYTAILJLJQXPGE-QWRGUYRKSA-N

>  <alias>  (661) 
None

>  <smiles>  (661) 
CC[C@H](NC(=O)Nc1ccn(CCCOC)n1)[C@H](C)O

>  <path>  (661) 
/opt/xchem-fragalysis-2/maxwin/RdRp_FFF/syndirella/mar_elabs/elabs_060/VEAPMNAYWNOMRJ-UHFFFAOYSA-N/output/VEAPMNAYWNOMRJ-UHFFFAOYSA-N-VVXPXL-925-B/VEAPMNAYWNOMRJ-UHFFFAOYSA-N-VVXPXL-925-B.minimised.mol

>  <distance_score>  (661) 
0.997549

>  <energy_score>  (661) 
-15.67782

>  <compound>  (661) 
AYTAILJLJQXPGE-UHFFFAOYSA-N

>  <compound_id>  (661) 
233124

>  <target>  (661) 
Flavi_NS5_RdRp

>  <tags>  (661) 
[]

>  <inspirations>  (661) 
{P Ã— 2}

>  <subsites>  (661) 
None

>  <reference>  (661) 
z0211a

>  <SLURM_JOB_ID>  (661) 
nan

>  <SLURM_JOB_NAME>  (661) 
nan

>  <csv_name>  (661) 
nan

>  <scratch_subdir>  (661) 
nan

>  <fragmenstein_runtime>  (661) 
nan

>  <fragmenstein_outcome>  (661) 
nan

>  <fragmenstein_mode>  (661) 
nan

>  <fragmenstein_error>  (661) 
nan

>  <exports>  (661) 
nan

>  <Multi-SuCOS>  (661) 
nan

>  <merge_set>  (661) 
nan

$$$$
ISPKKEIZFLJTJE-NXEZZACHSA-N
     RDKit          3D

 20 21  0  0  0  0  0  0  0  0999 V2000
  -26.2269  -30.3312  -23.2514 O   0  0  0  0  0  0  0  0  0  0  0  0
  -25.7747  -30.8015  -22.3186 C   0  0  0  0  0  0  0  0  0  0  0  0
  -24.4350  -31.5549  -22.1273 N   0  0  0  0  0  0  0  0  0  0  0  0
  -23.4428  -31.9488  -23.0903 C   0  0  0  0  0  0  0  0  0  0  0  0
  -22.0532  -32.0805  -22.4854 C   0  0  1  0  0  0  0  0  0  0  0  0
  -22.0545  -33.1595  -21.5412 O   0  0  0  0  0  0  0  0  0  0  0  0
  -21.0024  -32.3782  -23.5493 C   0  0  0  0  0  0  0  0  0  0  0  0
  -21.4055  -33.4528  -24.3964 O   0  0  0  0  0  0  0  0  0  0  0  0
  -26.3399  -30.9096  -20.8740 N   0  0  0  0  0  0  0  0  0  0  0  0
  -27.5473  -30.5536  -20.3771 C   0  0  0  0  0  0  0  0  0  0  0  0
  -28.5369  -29.9093  -21.1386 C   0  0  0  0  0  0  0  0  0  0  0  0
  -29.6449  -29.8948  -20.3409 C   0  0  0  0  0  0  0  0  0  0  0  0
  -29.2405  -30.3974  -19.1366 N   0  0  0  0  0  0  0  0  0  0  0  0
  -30.0848  -30.4397  -17.9658 C   0  0  0  0  0  0  0  0  0  0  0  0
  -29.6156  -29.8089  -16.6678 C   0  0  1  0  0  0  0  0  0  0  0  0
  -28.8922  -30.4905  -15.5331 C   0  0  0  0  0  0  0  0  0  0  0  0
  -27.4189  -30.2263  -15.7240 C   0  0  0  0  0  0  0  0  0  0  0  0
  -27.3450  -29.0690  -16.5401 O   0  0  0  0  0  0  0  0  0  0  0  0
  -28.6645  -28.6986  -16.9326 C   0  0  0  0  0  0  0  0  0  0  0  0
  -27.9651  -30.8286  -19.1408 N   0  0  0  0  0  0  0  0  0  0  0  0
  1  2  2  0
  2  3  1  0
  3  4  1  0
  4  5  1  0
  5  6  1  1
  5  7  1  0
  7  8  1  0
  2  9  1  0
  9 10  1  0
 10 11  1  0
 11 12  2  0
 12 13  1  0
 13 14  1  0
 15 14  1  6
 15 16  1  0
 16 17  1  0
 17 18  1  0
 18 19  1  0
 13 20  1  0
 20 10  2  0
 19 15  1  0
M  END
>  <id>  (662) 
426966

>  <inchikey>  (662) 
ISPKKEIZFLJTJE-NXEZZACHSA-N

>  <alias>  (662) 
None

>  <smiles>  (662) 
O=C(NC[C@@H](O)CO)Nc1ccn(C[C@H]2CCOC2)n1

>  <path>  (662) 
/opt/xchem-fragalysis-2/maxwin/RdRp_FFF/syndirella/mar_elabs/elabs_060/VEAPMNAYWNOMRJ-UHFFFAOYSA-N/output/VEAPMNAYWNOMRJ-UHFFFAOYSA-N-VVXPXL-1106-D/VEAPMNAYWNOMRJ-UHFFFAOYSA-N-VVXPXL-1106-D.minimised.mol

>  <distance_score>  (662) 
0.989384

>  <energy_score>  (662) 
-17.319284

>  <compound>  (662) 
ISPKKEIZFLJTJE-UHFFFAOYSA-N

>  <compound_id>  (662) 
233036

>  <target>  (662) 
Flavi_NS5_RdRp

>  <tags>  (662) 
[]

>  <inspirations>  (662) 
{P Ã— 2}

>  <subsites>  (662) 
None

>  <reference>  (662) 
z0211a

>  <SLURM_JOB_ID>  (662) 
nan

>  <SLURM_JOB_NAME>  (662) 
nan

>  <csv_name>  (662) 
nan

>  <scratch_subdir>  (662) 
nan

>  <fragmenstein_runtime>  (662) 
nan

>  <fragmenstein_outcome>  (662) 
nan

>  <fragmenstein_mode>  (662) 
nan

>  <fragmenstein_error>  (662) 
nan

>  <exports>  (662) 
nan

>  <Multi-SuCOS>  (662) 
nan

>  <merge_set>  (662) 
nan

$$$$
SKIWCJUIZXRDRV-SNVBAGLBSA-N
     RDKit          3D

 20 20  0  0  0  0  0  0  0  0999 V2000
  -25.5950  -31.6470  -14.2639 C   0  0  0  0  0  0  0  0  0  0  0  0
  -26.9570  -31.2304  -14.3588 O   0  0  0  0  0  0  0  0  0  0  0  0
  -27.1466  -30.3796  -15.4809 C   0  0  0  0  0  0  0  0  0  0  0  0
  -28.6370  -30.1823  -15.6812 C   0  0  0  0  0  0  0  0  0  0  0  0
  -29.0191  -29.4255  -16.9362 C   0  0  0  0  0  0  0  0  0  0  0  0
  -28.4626  -29.8452  -18.2019 N   0  0  0  0  0  0  0  0  0  0  0  0
  -29.1649  -29.8474  -19.3643 C   0  0  0  0  0  0  0  0  0  0  0  0
  -28.2246  -29.9351  -20.3575 C   0  0  0  0  0  0  0  0  0  0  0  0
  -28.4791  -29.7655  -21.7861 C   0  0  0  0  0  0  0  0  0  0  0  0
  -27.0059  -30.2236  -19.6997 C   0  0  0  0  0  0  0  0  0  0  0  0
  -25.8358  -30.6308  -20.2816 N   0  0  0  0  0  0  0  0  0  0  0  0
  -25.5010  -30.9270  -21.7801 C   0  0  0  0  0  0  0  0  0  0  0  0
  -26.1366  -30.7950  -22.7135 O   0  0  0  0  0  0  0  0  0  0  0  0
  -24.0854  -31.5225  -21.6137 N   0  0  0  0  0  0  0  0  0  0  0  0
  -23.1489  -31.9836  -22.5998 C   0  0  0  0  0  0  0  0  0  0  0  0
  -21.8360  -32.4921  -22.0535 C   0  0  2  0  0  0  0  0  0  0  0  0
  -21.2254  -31.4885  -21.2411 O   0  0  0  0  0  0  0  0  0  0  0  0
  -20.9134  -32.8407  -23.2061 C   0  0  0  0  0  0  0  0  0  0  0  0
  -19.7497  -33.3085  -22.6720 F   0  0  0  0  0  0  0  0  0  0  0  0
  -27.1355  -30.0330  -18.3837 N   0  0  0  0  0  0  0  0  0  0  0  0
  1  2  1  0
  2  3  1  0
  3  4  1  0
  4  5  1  0
  5  6  1  0
  6  7  1  0
  7  8  2  0
  8  9  1  0
  8 10  1  0
 10 11  1  0
 11 12  1  0
 12 13  2  0
 12 14  1  0
 14 15  1  0
 15 16  1  0
 16 17  1  1
 16 18  1  0
 18 19  1  0
 10 20  2  0
 20  6  1  0
M  END
>  <id>  (663) 
427210

>  <inchikey>  (663) 
SKIWCJUIZXRDRV-SNVBAGLBSA-N

>  <alias>  (663) 
None

>  <smiles>  (663) 
COCCCn1cc(C)c(NC(=O)NC[C@H](O)CF)n1

>  <path>  (663) 
/opt/xchem-fragalysis-2/maxwin/RdRp_FFF/syndirella/mar_elabs/elabs_060/VEAPMNAYWNOMRJ-UHFFFAOYSA-N/output/VEAPMNAYWNOMRJ-UHFFFAOYSA-N-VVXPXL-1343-A/VEAPMNAYWNOMRJ-UHFFFAOYSA-N-VVXPXL-1343-A.minimised.mol

>  <distance_score>  (663) 
0.708878

>  <energy_score>  (663) 
-24.480803

>  <compound>  (663) 
SKIWCJUIZXRDRV-UHFFFAOYSA-N

>  <compound_id>  (663) 
232915

>  <target>  (663) 
Flavi_NS5_RdRp

>  <tags>  (663) 
[]

>  <inspirations>  (663) 
{P Ã— 2}

>  <subsites>  (663) 
None

>  <reference>  (663) 
z0211a

>  <SLURM_JOB_ID>  (663) 
nan

>  <SLURM_JOB_NAME>  (663) 
nan

>  <csv_name>  (663) 
nan

>  <scratch_subdir>  (663) 
nan

>  <fragmenstein_runtime>  (663) 
nan

>  <fragmenstein_outcome>  (663) 
nan

>  <fragmenstein_mode>  (663) 
nan

>  <fragmenstein_error>  (663) 
nan

>  <exports>  (663) 
nan

>  <Multi-SuCOS>  (663) 
nan

>  <merge_set>  (663) 
nan

$$$$
OJTPUDWGMUAZHE-VHSXEESVSA-N
     RDKit          3D

 20 21  0  0  0  0  0  0  0  0999 V2000
  -26.0704  -30.5676  -23.5882 O   0  0  0  0  0  0  0  0  0  0  0  0
  -25.5004  -30.9527  -22.6833 C   0  0  0  0  0  0  0  0  0  0  0  0
  -24.1385  -31.6791  -22.5952 N   0  0  0  0  0  0  0  0  0  0  0  0
  -23.1811  -31.9807  -23.6156 C   0  0  0  0  0  0  0  0  0  0  0  0
  -21.9113  -32.5440  -22.9961 C   0  0  2  0  0  0  0  0  0  0  0  0
  -21.3341  -31.6057  -22.0814 O   0  0  0  0  0  0  0  0  0  0  0  0
  -20.9040  -32.9336  -24.0599 C   0  0  0  0  0  0  0  0  0  0  0  0
  -20.5763  -31.8587  -24.8281 F   0  0  0  0  0  0  0  0  0  0  0  0
  -25.9030  -30.9955  -21.1964 N   0  0  0  0  0  0  0  0  0  0  0  0
  -26.9913  -30.5097  -20.5742 C   0  0  0  0  0  0  0  0  0  0  0  0
  -28.1718  -29.9415  -21.0689 C   0  0  0  0  0  0  0  0  0  0  0  0
  -28.9263  -29.6711  -19.9448 C   0  0  0  0  0  0  0  0  0  0  0  0
  -28.1168  -29.9476  -18.8847 N   0  0  0  0  0  0  0  0  0  0  0  0
  -28.3093  -29.6701  -17.4664 C   0  0  0  0  0  0  0  0  0  0  0  0
  -27.0812  -30.0846  -16.6530 C   0  0  2  0  0  0  0  0  0  0  0  0
  -27.2502  -30.3435  -15.1846 C   0  0  0  0  0  0  0  0  0  0  0  0
  -25.7977  -30.6090  -14.8506 C   0  0  0  0  0  0  0  0  0  0  0  0
  -25.0625  -29.6001  -15.5550 O   0  0  0  0  0  0  0  0  0  0  0  0
  -25.8039  -29.2688  -16.7451 C   0  0  0  0  0  0  0  0  0  0  0  0
  -26.9926  -30.5646  -19.2546 N   0  0  0  0  0  0  0  0  0  0  0  0
  1  2  2  0
  2  3  1  0
  3  4  1  0
  4  5  1  0
  5  6  1  1
  5  7  1  0
  7  8  1  0
  2  9  1  0
  9 10  1  0
 10 11  1  0
 11 12  2  0
 12 13  1  0
 13 14  1  0
 15 14  1  1
 15 16  1  0
 16 17  1  0
 17 18  1  0
 18 19  1  0
 13 20  1  0
 20 10  2  0
 19 15  1  0
M  END
>  <id>  (664) 
427338

>  <inchikey>  (664) 
OJTPUDWGMUAZHE-VHSXEESVSA-N

>  <alias>  (664) 
None

>  <smiles>  (664) 
O=C(NC[C@H](O)CF)Nc1ccn(C[C@@H]2CCOC2)n1

>  <path>  (664) 
/opt/xchem-fragalysis-2/maxwin/RdRp_FFF/syndirella/mar_elabs/elabs_060/VEAPMNAYWNOMRJ-UHFFFAOYSA-N/output/VEAPMNAYWNOMRJ-UHFFFAOYSA-N-VVXPXL-1378-C/VEAPMNAYWNOMRJ-UHFFFAOYSA-N-VVXPXL-1378-C.minimised.mol

>  <distance_score>  (664) 
1.154756

>  <energy_score>  (664) 
-20.932641

>  <compound>  (664) 
OJTPUDWGMUAZHE-UHFFFAOYSA-N

>  <compound_id>  (664) 
233039

>  <target>  (664) 
Flavi_NS5_RdRp

>  <tags>  (664) 
[]

>  <inspirations>  (664) 
{P Ã— 2}

>  <subsites>  (664) 
None

>  <reference>  (664) 
z0211a

>  <SLURM_JOB_ID>  (664) 
nan

>  <SLURM_JOB_NAME>  (664) 
nan

>  <csv_name>  (664) 
nan

>  <scratch_subdir>  (664) 
nan

>  <fragmenstein_runtime>  (664) 
nan

>  <fragmenstein_outcome>  (664) 
nan

>  <fragmenstein_mode>  (664) 
nan

>  <fragmenstein_error>  (664) 
nan

>  <exports>  (664) 
nan

>  <Multi-SuCOS>  (664) 
nan

>  <merge_set>  (664) 
nan

$$$$
OFCCPJXTSAORDG-UHFFFAOYSA-N
     RDKit          3D

 23 25  0  0  0  0  0  0  0  0999 V2000
  -27.0340  -30.2860  -22.2816 O   0  0  0  0  0  0  0  0  0  0  0  0
  -26.9841  -30.7256  -21.2051 C   0  0  0  0  0  0  0  0  0  0  0  0
  -26.0461  -31.7829  -20.6043 N   0  0  0  0  0  0  0  0  0  0  0  0
  -25.0213  -32.6014  -21.2308 C   0  0  0  0  0  0  0  0  0  0  0  0
  -23.9123  -31.7743  -21.9013 C   0  0  0  0  0  0  0  0  0  0  0  0
  -23.0762  -32.5378  -22.8159 N   0  0  0  0  0  0  0  0  0  0  0  0
  -21.6520  -32.6809  -22.6327 C   0  0  0  0  0  0  0  0  0  0  0  0
  -21.1336  -32.9451  -24.0351 C   0  0  0  0  0  0  0  0  0  0  0  0
  -22.3062  -33.6031  -24.7488 C   0  0  0  0  0  0  0  0  0  0  0  0
  -23.4982  -32.9982  -24.0521 C   0  0  0  0  0  0  0  0  0  0  0  0
  -24.6323  -32.9617  -24.5012 O   0  0  0  0  0  0  0  0  0  0  0  0
  -28.0545  -30.2478  -20.2614 C   0  0  0  0  0  0  0  0  0  0  0  0
  -29.2531  -29.9060  -20.8845 C   0  0  0  0  0  0  0  0  0  0  0  0
  -30.3701  -29.7770  -20.1164 C   0  0  0  0  0  0  0  0  0  0  0  0
  -31.5712  -29.5752  -20.6963 O   0  0  0  0  0  0  0  0  0  0  0  0
  -30.3888  -29.8410  -18.7914 N   0  0  0  0  0  0  0  0  0  0  0  0
  -29.2064  -29.9311  -18.1859 C   0  0  0  0  0  0  0  0  0  0  0  0
  -29.2329  -29.8022  -16.8183 C   0  0  0  0  0  0  0  0  0  0  0  0
  -28.0584  -29.8033  -16.0879 C   0  0  0  0  0  0  0  0  0  0  0  0
  -28.1208  -29.6957  -14.7561 F   0  0  0  0  0  0  0  0  0  0  0  0
  -26.8272  -29.9273  -16.7093 C   0  0  0  0  0  0  0  0  0  0  0  0
  -26.7809  -30.1088  -18.0892 C   0  0  0  0  0  0  0  0  0  0  0  0
  -27.9722  -30.1251  -18.8587 C   0  0  0  0  0  0  0  0  0  0  0  0
  1  2  2  0
  2  3  1  0
  3  4  1  0
  4  5  1  0
  5  6  1  0
  6  7  1  0
  7  8  1  0
  8  9  1  0
  9 10  1  0
 10 11  2  0
  2 12  1  0
 12 13  2  0
 13 14  1  0
 14 15  1  0
 14 16  2  0
 16 17  1  0
 17 18  2  0
 18 19  1  0
 19 20  1  0
 19 21  2  0
 21 22  1  0
 22 23  2  0
 10  6  1  0
 23 12  1  0
 23 17  1  0
M  END
>  <id>  (665) 
428860

>  <inchikey>  (665) 
OFCCPJXTSAORDG-UHFFFAOYSA-N

>  <alias>  (665) 
None

>  <smiles>  (665) 
O=C(NCCN1CCCC1=O)c1cc(O)nc2cc(F)ccc12

>  <path>  (665) 
/opt/xchem-fragalysis-2/maxwin/RdRp_FFF/syndirella/mar_elabs/elabs_016/NLPSSNMFGBLZAP-UHFFFAOYSA-N/output/NLPSSNMFGBLZAP-UHFFFAOYSA-N-hCH2co-86-A/NLPSSNMFGBLZAP-UHFFFAOYSA-N-hCH2co-86-A.minimised.mol

>  <distance_score>  (665) 
0.740521

>  <energy_score>  (665) 
-7.175683

>  <compound>  (665) 
OFCCPJXTSAORDG-UHFFFAOYSA-N

>  <compound_id>  (665) 
105675

>  <target>  (665) 
Flavi_NS5_RdRp

>  <tags>  (665) 
[]

>  <inspirations>  (665) 
{P Ã— 2}

>  <subsites>  (665) 
None

>  <reference>  (665) 
z1018a

>  <SLURM_JOB_ID>  (665) 
nan

>  <SLURM_JOB_NAME>  (665) 
nan

>  <csv_name>  (665) 
nan

>  <scratch_subdir>  (665) 
nan

>  <fragmenstein_runtime>  (665) 
nan

>  <fragmenstein_outcome>  (665) 
nan

>  <fragmenstein_mode>  (665) 
nan

>  <fragmenstein_error>  (665) 
nan

>  <exports>  (665) 
nan

>  <Multi-SuCOS>  (665) 
nan

>  <merge_set>  (665) 
nan

$$$$
IZMLPJPTJRZGEK-NSHDSACASA-N
     RDKit          3D

 23 25  0  0  0  0  0  0  0  0999 V2000
  -25.4408  -33.8671  -21.6593 C   0  0  0  0  0  0  0  0  0  0  0  0
  -24.8401  -32.5993  -21.0587 C   0  0  1  0  0  0  0  0  0  0  0  0
  -24.0229  -31.7741  -22.0834 C   0  0  0  0  0  0  0  0  0  0  0  0
  -23.0954  -32.5073  -22.9265 N   0  0  0  0  0  0  0  0  0  0  0  0
  -21.7131  -32.7239  -22.5827 C   0  0  0  0  0  0  0  0  0  0  0  0
  -21.0631  -32.9810  -23.9310 C   0  0  0  0  0  0  0  0  0  0  0  0
  -22.1693  -33.6230  -24.7591 C   0  0  0  0  0  0  0  0  0  0  0  0
  -23.4147  -33.0023  -24.1802 C   0  0  0  0  0  0  0  0  0  0  0  0
  -24.5095  -32.9806  -24.7195 O   0  0  0  0  0  0  0  0  0  0  0  0
  -25.9103  -31.7908  -20.4632 N   0  0  0  0  0  0  0  0  0  0  0  0
  -26.8915  -30.7969  -21.1112 C   0  0  0  0  0  0  0  0  0  0  0  0
  -26.9556  -30.4049  -22.2065 O   0  0  0  0  0  0  0  0  0  0  0  0
  -27.9754  -30.2995  -20.1885 C   0  0  0  0  0  0  0  0  0  0  0  0
  -29.1695  -29.9689  -20.8300 C   0  0  0  0  0  0  0  0  0  0  0  0
  -30.2941  -29.8070  -20.0771 C   0  0  0  0  0  0  0  0  0  0  0  0
  -31.4885  -29.5953  -20.6712 O   0  0  0  0  0  0  0  0  0  0  0  0
  -30.3249  -29.8420  -18.7511 N   0  0  0  0  0  0  0  0  0  0  0  0
  -29.1465  -29.9309  -18.1327 C   0  0  0  0  0  0  0  0  0  0  0  0
  -29.1754  -29.7788  -16.7631 C   0  0  0  0  0  0  0  0  0  0  0  0
  -28.0077  -29.7642  -16.0066 C   0  0  0  0  0  0  0  0  0  0  0  0
  -26.7771  -29.8947  -16.6336 C   0  0  0  0  0  0  0  0  0  0  0  0
  -26.7247  -30.0958  -18.0110 C   0  0  0  0  0  0  0  0  0  0  0  0
  -27.9082  -30.1394  -18.7896 C   0  0  0  0  0  0  0  0  0  0  0  0
  2  1  1  6
  2  3  1  0
  3  4  1  0
  4  5  1  0
  5  6  1  0
  6  7  1  0
  7  8  1  0
  8  9  2  0
  2 10  1  0
 10 11  1  0
 11 12  2  0
 11 13  1  0
 13 14  2  0
 14 15  1  0
 15 16  1  0
 15 17  2  0
 17 18  1  0
 18 19  2  0
 19 20  1  0
 20 21  2  0
 21 22  1  0
 22 23  2  0
  8  4  1  0
 23 13  1  0
 23 18  1  0
M  END
>  <id>  (666) 
428864

>  <inchikey>  (666) 
IZMLPJPTJRZGEK-NSHDSACASA-N

>  <alias>  (666) 
None

>  <smiles>  (666) 
C[C@@H](CN1CCCC1=O)NC(=O)c1cc(O)nc2ccccc12

>  <path>  (666) 
/opt/xchem-fragalysis-2/maxwin/RdRp_FFF/syndirella/mar_elabs/elabs_016/NLPSSNMFGBLZAP-UHFFFAOYSA-N/output/NLPSSNMFGBLZAP-UHFFFAOYSA-N-hCH2co-98-B/NLPSSNMFGBLZAP-UHFFFAOYSA-N-hCH2co-98-B.minimised.mol

>  <distance_score>  (666) 
0.759754

>  <energy_score>  (666) 
-17.382565

>  <compound>  (666) 
IZMLPJPTJRZGEK-UHFFFAOYSA-N

>  <compound_id>  (666) 
105697

>  <target>  (666) 
Flavi_NS5_RdRp

>  <tags>  (666) 
[]

>  <inspirations>  (666) 
{P Ã— 2}

>  <subsites>  (666) 
None

>  <reference>  (666) 
z1018a

>  <SLURM_JOB_ID>  (666) 
nan

>  <SLURM_JOB_NAME>  (666) 
nan

>  <csv_name>  (666) 
nan

>  <scratch_subdir>  (666) 
nan

>  <fragmenstein_runtime>  (666) 
nan

>  <fragmenstein_outcome>  (666) 
nan

>  <fragmenstein_mode>  (666) 
nan

>  <fragmenstein_error>  (666) 
nan

>  <exports>  (666) 
nan

>  <Multi-SuCOS>  (666) 
nan

>  <merge_set>  (666) 
nan

$$$$
KMROSLKZFAVSRD-LLVKDONJSA-N
     RDKit          3D

 24 26  0  0  0  0  0  0  0  0999 V2000
  -20.5268  -32.3344  -26.1864 C   0  0  0  0  0  0  0  0  0  0  0  0
  -20.9114  -32.0751  -24.8456 O   0  0  0  0  0  0  0  0  0  0  0  0
  -21.2919  -33.2383  -24.1090 C   0  0  2  0  0  0  0  0  0  0  0  0
  -22.5337  -33.9186  -24.6783 C   0  0  0  0  0  0  0  0  0  0  0  0
  -23.6520  -33.1869  -23.9901 C   0  0  0  0  0  0  0  0  0  0  0  0
  -24.8004  -33.1279  -24.3999 O   0  0  0  0  0  0  0  0  0  0  0  0
  -23.1622  -32.6658  -22.8071 N   0  0  0  0  0  0  0  0  0  0  0  0
  -23.9460  -31.8521  -21.8894 C   0  0  0  0  0  0  0  0  0  0  0  0
  -25.0468  -32.6517  -21.1695 C   0  0  0  0  0  0  0  0  0  0  0  0
  -26.0663  -31.8244  -20.5550 N   0  0  0  0  0  0  0  0  0  0  0  0
  -26.9823  -30.7522  -21.1638 C   0  0  0  0  0  0  0  0  0  0  0  0
  -27.0119  -30.3074  -22.2392 O   0  0  0  0  0  0  0  0  0  0  0  0
  -28.0465  -30.2538  -20.2243 C   0  0  0  0  0  0  0  0  0  0  0  0
  -29.2451  -29.9208  -20.8508 C   0  0  0  0  0  0  0  0  0  0  0  0
  -30.3610  -29.7827  -20.0828 C   0  0  0  0  0  0  0  0  0  0  0  0
  -31.5608  -29.5834  -20.6687 O   0  0  0  0  0  0  0  0  0  0  0  0
  -30.3779  -29.8333  -18.7568 N   0  0  0  0  0  0  0  0  0  0  0  0
  -29.1930  -29.9205  -18.1505 C   0  0  0  0  0  0  0  0  0  0  0  0
  -29.2060  -29.7818  -16.7789 C   0  0  0  0  0  0  0  0  0  0  0  0
  -28.0296  -29.7690  -16.0355 C   0  0  0  0  0  0  0  0  0  0  0  0
  -26.8061  -29.8945  -16.6771 C   0  0  0  0  0  0  0  0  0  0  0  0
  -26.7696  -30.0834  -18.0568 C   0  0  0  0  0  0  0  0  0  0  0  0
  -27.9623  -30.1157  -18.8232 C   0  0  0  0  0  0  0  0  0  0  0  0
  -21.7256  -32.8065  -22.7041 C   0  0  0  0  0  0  0  0  0  0  0  0
  1  2  1  0
  3  2  1  6
  3  4  1  0
  4  5  1  0
  5  6  2  0
  5  7  1  0
  7  8  1  0
  8  9  1  0
  9 10  1  0
 10 11  1  0
 11 12  2  0
 11 13  1  0
 13 14  2  0
 14 15  1  0
 15 16  1  0
 15 17  2  0
 17 18  1  0
 18 19  2  0
 19 20  1  0
 20 21  2  0
 21 22  1  0
 22 23  2  0
  7 24  1  0
 24  3  1  0
 23 13  1  0
 23 18  1  0
M  END
>  <id>  (667) 
429354

>  <inchikey>  (667) 
KMROSLKZFAVSRD-LLVKDONJSA-N

>  <alias>  (667) 
None

>  <smiles>  (667) 
CO[C@@H]1CC(=O)N(CCNC(=O)c2cc(O)nc3ccccc23)C1

>  <path>  (667) 
/opt/xchem-fragalysis-2/maxwin/RdRp_FFF/syndirella/mar_elabs/elabs_016/NLPSSNMFGBLZAP-UHFFFAOYSA-N/output/NLPSSNMFGBLZAP-UHFFFAOYSA-N-hCH2co-835-A/NLPSSNMFGBLZAP-UHFFFAOYSA-N-hCH2co-835-A.minimised.mol

>  <distance_score>  (667) 
0.7525

>  <energy_score>  (667) 
-23.899752

>  <compound>  (667) 
KMROSLKZFAVSRD-UHFFFAOYSA-N

>  <compound_id>  (667) 
106308

>  <target>  (667) 
Flavi_NS5_RdRp

>  <tags>  (667) 
[]

>  <inspirations>  (667) 
{P Ã— 2}

>  <subsites>  (667) 
None

>  <reference>  (667) 
z1018a

>  <SLURM_JOB_ID>  (667) 
nan

>  <SLURM_JOB_NAME>  (667) 
nan

>  <csv_name>  (667) 
nan

>  <scratch_subdir>  (667) 
nan

>  <fragmenstein_runtime>  (667) 
nan

>  <fragmenstein_outcome>  (667) 
nan

>  <fragmenstein_mode>  (667) 
nan

>  <fragmenstein_error>  (667) 
nan

>  <exports>  (667) 
nan

>  <Multi-SuCOS>  (667) 
nan

>  <merge_set>  (667) 
nan

$$$$
QTNGUEUPNPEHQQ-NSHDSACASA-N
     RDKit          3D

 24 26  0  0  0  0  0  0  0  0999 V2000
  -26.9427  -30.3731  -22.2253 O   0  0  0  0  0  0  0  0  0  0  0  0
  -26.9090  -30.7940  -21.1403 C   0  0  0  0  0  0  0  0  0  0  0  0
  -25.9556  -31.8134  -20.4967 N   0  0  0  0  0  0  0  0  0  0  0  0
  -24.8756  -32.6211  -21.0899 C   0  0  2  0  0  0  0  0  0  0  0  0
  -24.1223  -33.4108  -20.0025 C   0  0  0  0  0  0  0  0  0  0  0  0
  -23.7866  -34.7203  -20.4536 O   0  0  0  0  0  0  0  0  0  0  0  0
  -23.9010  -31.7477  -21.9201 C   0  0  0  0  0  0  0  0  0  0  0  0
  -23.0722  -32.4629  -22.8758 N   0  0  0  0  0  0  0  0  0  0  0  0
  -21.6762  -32.7415  -22.6485 C   0  0  0  0  0  0  0  0  0  0  0  0
  -21.1556  -33.0374  -24.0431 C   0  0  0  0  0  0  0  0  0  0  0  0
  -22.3548  -33.6498  -24.7558 C   0  0  0  0  0  0  0  0  0  0  0  0
  -23.5237  -32.9783  -24.0776 C   0  0  0  0  0  0  0  0  0  0  0  0
  -24.6608  -32.9323  -24.5186 O   0  0  0  0  0  0  0  0  0  0  0  0
  -27.9898  -30.2881  -20.2170 C   0  0  0  0  0  0  0  0  0  0  0  0
  -29.1792  -29.9509  -20.8612 C   0  0  0  0  0  0  0  0  0  0  0  0
  -30.3071  -29.7980  -20.1114 C   0  0  0  0  0  0  0  0  0  0  0  0
  -31.4984  -29.5867  -20.7111 O   0  0  0  0  0  0  0  0  0  0  0  0
  -30.3444  -29.8444  -18.7860 N   0  0  0  0  0  0  0  0  0  0  0  0
  -29.1690  -29.9319  -18.1626 C   0  0  0  0  0  0  0  0  0  0  0  0
  -29.2048  -29.7853  -16.7924 C   0  0  0  0  0  0  0  0  0  0  0  0
  -28.0407  -29.7664  -16.0307 C   0  0  0  0  0  0  0  0  0  0  0  0
  -26.8070  -29.8864  -16.6532 C   0  0  0  0  0  0  0  0  0  0  0  0
  -26.7475  -30.0811  -18.0314 C   0  0  0  0  0  0  0  0  0  0  0  0
  -27.9275  -30.1317  -18.8161 C   0  0  0  0  0  0  0  0  0  0  0  0
  1  2  2  0
  2  3  1  0
  3  4  1  0
  4  5  1  1
  5  6  1  0
  4  7  1  0
  7  8  1  0
  8  9  1  0
  9 10  1  0
 10 11  1  0
 11 12  1  0
 12 13  2  0
  2 14  1  0
 14 15  2  0
 15 16  1  0
 16 17  1  0
 16 18  2  0
 18 19  1  0
 19 20  2  0
 20 21  1  0
 21 22  2  0
 22 23  1  0
 23 24  2  0
 12  8  1  0
 24 14  1  0
 24 19  1  0
M  END
>  <id>  (668) 
429536

>  <inchikey>  (668) 
QTNGUEUPNPEHQQ-NSHDSACASA-N

>  <alias>  (668) 
None

>  <smiles>  (668) 
O=C(N[C@H](CO)CN1CCCC1=O)c1cc(O)nc2ccccc12

>  <path>  (668) 
/opt/xchem-fragalysis-2/maxwin/RdRp_FFF/syndirella/mar_elabs/elabs_016/NLPSSNMFGBLZAP-UHFFFAOYSA-N/output/NLPSSNMFGBLZAP-UHFFFAOYSA-N-hCH2co-1033-A/NLPSSNMFGBLZAP-UHFFFAOYSA-N-hCH2co-1033-A.minimised.mol

>  <distance_score>  (668) 
0.733312

>  <energy_score>  (668) 
-15.031766

>  <compound>  (668) 
QTNGUEUPNPEHQQ-UHFFFAOYSA-N

>  <compound_id>  (668) 
106469

>  <target>  (668) 
Flavi_NS5_RdRp

>  <tags>  (668) 
[]

>  <inspirations>  (668) 
{P Ã— 2}

>  <subsites>  (668) 
None

>  <reference>  (668) 
z1018a

>  <SLURM_JOB_ID>  (668) 
nan

>  <SLURM_JOB_NAME>  (668) 
nan

>  <csv_name>  (668) 
nan

>  <scratch_subdir>  (668) 
nan

>  <fragmenstein_runtime>  (668) 
nan

>  <fragmenstein_outcome>  (668) 
nan

>  <fragmenstein_mode>  (668) 
nan

>  <fragmenstein_error>  (668) 
nan

>  <exports>  (668) 
nan

>  <Multi-SuCOS>  (668) 
nan

>  <merge_set>  (668) 
nan

$$$$
IYXDRNCERPOEKD-NSHDSACASA-N
     RDKit          3D

 25 27  0  0  0  0  0  0  0  0999 V2000
  -26.8338  -30.2648  -22.6453 O   0  0  0  0  0  0  0  0  0  0  0  0
  -26.8863  -30.7454  -21.5874 C   0  0  0  0  0  0  0  0  0  0  0  0
  -26.0719  -31.8911  -20.9751 N   0  0  0  0  0  0  0  0  0  0  0  0
  -25.0692  -32.7659  -21.5723 C   0  0  2  0  0  0  0  0  0  0  0  0
  -24.7554  -33.9675  -20.6730 C   0  0  0  0  0  0  0  0  0  0  0  0
  -24.4167  -33.5527  -19.3511 O   0  0  0  0  0  0  0  0  0  0  0  0
  -23.7977  -31.9752  -21.9562 C   0  0  0  0  0  0  0  0  0  0  0  0
  -22.9407  -32.6686  -22.9128 N   0  0  0  0  0  0  0  0  0  0  0  0
  -21.5058  -32.6938  -22.7609 C   0  0  0  0  0  0  0  0  0  0  0  0
  -20.9835  -32.8834  -24.1729 C   0  0  0  0  0  0  0  0  0  0  0  0
  -22.1274  -33.5513  -24.9185 C   0  0  0  0  0  0  0  0  0  0  0  0
  -23.3393  -33.0393  -24.1878 C   0  0  0  0  0  0  0  0  0  0  0  0
  -24.4717  -33.0113  -24.6427 O   0  0  0  0  0  0  0  0  0  0  0  0
  -27.9692  -30.2205  -20.7069 C   0  0  0  0  0  0  0  0  0  0  0  0
  -29.1044  -29.7490  -21.3577 C   0  0  0  0  0  0  0  0  0  0  0  0
  -30.2494  -29.6305  -20.6283 C   0  0  0  0  0  0  0  0  0  0  0  0
  -31.4329  -29.4026  -21.2160 O   0  0  0  0  0  0  0  0  0  0  0  0
  -30.3368  -29.7732  -19.3187 N   0  0  0  0  0  0  0  0  0  0  0  0
  -29.1842  -29.9282  -18.6890 C   0  0  0  0  0  0  0  0  0  0  0  0
  -29.2608  -29.8286  -17.3392 C   0  0  0  0  0  0  0  0  0  0  0  0
  -28.1011  -29.8994  -16.5975 C   0  0  0  0  0  0  0  0  0  0  0  0
  -28.2833  -29.9165  -14.7681 Br  0  0  0  0  0  0  0  0  0  0  0  0
  -26.8480  -30.0619  -17.1618 C   0  0  0  0  0  0  0  0  0  0  0  0
  -26.7671  -30.2347  -18.5266 C   0  0  0  0  0  0  0  0  0  0  0  0
  -27.9373  -30.1608  -19.3131 C   0  0  0  0  0  0  0  0  0  0  0  0
  1  2  2  0
  2  3  1  0
  3  4  1  0
  4  5  1  1
  5  6  1  0
  4  7  1  0
  7  8  1  0
  8  9  1  0
  9 10  1  0
 10 11  1  0
 11 12  1  0
 12 13  2  0
  2 14  1  0
 14 15  2  0
 15 16  1  0
 16 17  1  0
 16 18  2  0
 18 19  1  0
 19 20  2  0
 20 21  1  0
 21 22  1  0
 21 23  2  0
 23 24  1  0
 24 25  2  0
 12  8  1  0
 25 14  1  0
 25 19  1  0
M  END
>  <id>  (669) 
432418

>  <inchikey>  (669) 
IYXDRNCERPOEKD-NSHDSACASA-N

>  <alias>  (669) 
None

>  <smiles>  (669) 
O=C(N[C@H](CO)CN1CCCC1=O)c1cc(O)nc2cc(Br)ccc12

>  <path>  (669) 
/opt/xchem-fragalysis-2/maxwin/RdRp_FFF/syndirella/mar_elabs/elabs_016/NLPSSNMFGBLZAP-UHFFFAOYSA-N/output/NLPSSNMFGBLZAP-UHFFFAOYSA-N-hCH2co-4466-A/NLPSSNMFGBLZAP-UHFFFAOYSA-N-hCH2co-4466-A.minimised.mol

>  <distance_score>  (669) 
0.727696

>  <energy_score>  (669) 
-15.56835

>  <compound>  (669) 
IYXDRNCERPOEKD-UHFFFAOYSA-N

>  <compound_id>  (669) 
109266

>  <target>  (669) 
Flavi_NS5_RdRp

>  <tags>  (669) 
[]

>  <inspirations>  (669) 
{P Ã— 2}

>  <subsites>  (669) 
None

>  <reference>  (669) 
z1018a

>  <SLURM_JOB_ID>  (669) 
nan

>  <SLURM_JOB_NAME>  (669) 
nan

>  <csv_name>  (669) 
nan

>  <scratch_subdir>  (669) 
nan

>  <fragmenstein_runtime>  (669) 
nan

>  <fragmenstein_outcome>  (669) 
nan

>  <fragmenstein_mode>  (669) 
nan

>  <fragmenstein_error>  (669) 
nan

>  <exports>  (669) 
nan

>  <Multi-SuCOS>  (669) 
nan

>  <merge_set>  (669) 
nan

$$$$
DOHYWUYYQUHHHA-LLVKDONJSA-N
     RDKit          3D

 24 26  0  0  0  0  0  0  0  0999 V2000
  -25.6336  -30.8478  -22.5178 O   0  0  0  0  0  0  0  0  0  0  0  0
  -25.8571  -31.1792  -21.4259 C   0  0  0  0  0  0  0  0  0  0  0  0
  -25.1207  -32.1618  -20.5197 N   0  0  0  0  0  0  0  0  0  0  0  0
  -23.9891  -33.0342  -20.7929 C   0  0  1  0  0  0  0  0  0  0  0  0
  -24.4781  -34.3989  -21.3049 C   0  0  0  0  0  0  0  0  0  0  0  0
  -25.5573  -34.3179  -22.2354 O   0  0  0  0  0  0  0  0  0  0  0  0
  -22.9421  -32.2764  -21.6670 C   0  0  0  0  0  0  0  0  0  0  0  0
  -22.4189  -32.9162  -22.8662 N   0  0  0  0  0  0  0  0  0  0  0  0
  -21.0057  -32.8247  -23.1490 C   0  0  0  0  0  0  0  0  0  0  0  0
  -20.8738  -33.0019  -24.6480 C   0  0  0  0  0  0  0  0  0  0  0  0
  -22.1974  -33.5902  -25.0954 C   0  0  0  0  0  0  0  0  0  0  0  0
  -23.1501  -33.1285  -24.0286 C   0  0  0  0  0  0  0  0  0  0  0  0
  -24.3598  -33.0362  -24.1773 O   0  0  0  0  0  0  0  0  0  0  0  0
  -27.0711  -30.5448  -20.8015 C   0  0  0  0  0  0  0  0  0  0  0  0
  -27.9369  -29.9782  -21.7501 C   0  0  0  0  0  0  0  0  0  0  0  0
  -29.1860  -29.5503  -21.3988 C   0  0  0  0  0  0  0  0  0  0  0  0
  -29.5829  -29.7469  -20.0985 C   0  0  0  0  0  0  0  0  0  0  0  0
  -31.4179  -29.7690  -19.8793 Br  0  0  0  0  0  0  0  0  0  0  0  0
  -28.6904  -29.9940  -19.0648 C   0  0  0  0  0  0  0  0  0  0  0  0
  -29.0833  -29.8192  -17.7816 N   0  0  0  0  0  0  0  0  0  0  0  0
  -28.1503  -29.8212  -16.8148 C   0  0  0  0  0  0  0  0  0  0  0  0
  -26.8162  -30.0544  -17.0576 C   0  0  0  0  0  0  0  0  0  0  0  0
  -26.4340  -30.3664  -18.3594 C   0  0  0  0  0  0  0  0  0  0  0  0
  -27.3713  -30.3531  -19.4206 C   0  0  0  0  0  0  0  0  0  0  0  0
  1  2  2  0
  2  3  1  0
  3  4  1  0
  4  5  1  6
  5  6  1  0
  4  7  1  0
  7  8  1  0
  8  9  1  0
  9 10  1  0
 10 11  1  0
 11 12  1  0
 12 13  2  0
  2 14  1  0
 14 15  2  0
 15 16  1  0
 16 17  2  0
 17 18  1  0
 17 19  1  0
 19 20  2  0
 20 21  1  0
 21 22  2  0
 22 23  1  0
 23 24  2  0
 12  8  1  0
 24 14  1  0
 24 19  1  0
M  END
>  <id>  (670) 
433573

>  <inchikey>  (670) 
DOHYWUYYQUHHHA-LLVKDONJSA-N

>  <alias>  (670) 
None

>  <smiles>  (670) 
O=C(N[C@@H](CO)CN1CCCC1=O)c1ccc(Br)c2ncccc12

>  <path>  (670) 
/opt/xchem-fragalysis-2/maxwin/RdRp_FFF/syndirella/mar_elabs/elabs_041/XZCHKOUIHXKRTC-UHFFFAOYSA-N/output/XZCHKOUIHXKRTC-UHFFFAOYSA-N-N5hSaF-878-B/XZCHKOUIHXKRTC-UHFFFAOYSA-N-N5hSaF-878-B.minimised.mol

>  <distance_score>  (670) 
0.847044

>  <energy_score>  (670) 
-10.342214

>  <compound>  (670) 
DOHYWUYYQUHHHA-UHFFFAOYSA-N

>  <compound_id>  (670) 
175101

>  <target>  (670) 
Flavi_NS5_RdRp

>  <tags>  (670) 
[]

>  <inspirations>  (670) 
{P Ã— 2}

>  <subsites>  (670) 
None

>  <reference>  (670) 
z1018a

>  <SLURM_JOB_ID>  (670) 
nan

>  <SLURM_JOB_NAME>  (670) 
nan

>  <csv_name>  (670) 
nan

>  <scratch_subdir>  (670) 
nan

>  <fragmenstein_runtime>  (670) 
nan

>  <fragmenstein_outcome>  (670) 
nan

>  <fragmenstein_mode>  (670) 
nan

>  <fragmenstein_error>  (670) 
nan

>  <exports>  (670) 
nan

>  <Multi-SuCOS>  (670) 
nan

>  <merge_set>  (670) 
nan

$$$$
ILUCFTMOHNKUBV-ZETCQYMHSA-N
     RDKit          3D

 19 19  0  0  0  0  0  0  0  0999 V2000
  -26.9580  -30.9215  -14.7955 C   0  0  0  0  0  0  0  0  0  0  0  0
  -28.2422  -30.1778  -15.0964 C   0  0  0  0  0  0  0  0  0  0  0  0
  -27.9843  -29.3909  -16.2550 O   0  0  0  0  0  0  0  0  0  0  0  0
  -28.9003  -29.5987  -17.2333 C   0  0  0  0  0  0  0  0  0  0  0  0
  -30.1047  -29.6567  -17.0374 O   0  0  0  0  0  0  0  0  0  0  0  0
  -28.2027  -29.8274  -18.4631 C   0  0  0  0  0  0  0  0  0  0  0  0
  -26.8368  -29.9189  -18.6761 C   0  0  0  0  0  0  0  0  0  0  0  0
  -26.7043  -30.6456  -19.8705 C   0  0  0  0  0  0  0  0  0  0  0  0
  -25.5406  -31.2352  -20.2585 N   0  0  0  0  0  0  0  0  0  0  0  0
  -25.2695  -32.2956  -21.3595 C   0  0  0  0  0  0  0  0  0  0  0  0
  -25.9955  -32.8640  -22.0286 O   0  0  0  0  0  0  0  0  0  0  0  0
  -23.7223  -32.3879  -21.2512 N   0  0  0  0  0  0  0  0  0  0  0  0
  -22.7759  -33.1456  -22.0309 C   0  0  0  0  0  0  0  0  0  0  0  0
  -22.1346  -32.2429  -23.0853 C   0  0  2  0  0  0  0  0  0  0  0  0
  -21.2691  -33.0270  -24.0496 C   0  0  0  0  0  0  0  0  0  0  0  0
  -21.2911  -31.3022  -22.4172 O   0  0  0  0  0  0  0  0  0  0  0  0
  -27.8726  -30.7546  -20.4993 N   0  0  0  0  0  0  0  0  0  0  0  0
  -28.7649  -30.2032  -19.6521 N   0  0  0  0  0  0  0  0  0  0  0  0
  -30.1568  -30.2162  -20.0163 C   0  0  0  0  0  0  0  0  0  0  0  0
  1  2  1  0
  2  3  1  0
  3  4  1  0
  4  5  2  0
  4  6  1  0
  6  7  2  0
  7  8  1  0
  8  9  1  0
  9 10  1  0
 10 11  2  0
 10 12  1  0
 12 13  1  0
 13 14  1  0
 14 15  1  6
 14 16  1  0
  8 17  2  0
 17 18  1  0
 18 19  1  0
 18  6  1  0
M  END
>  <id>  (671) 
435941

>  <inchikey>  (671) 
ILUCFTMOHNKUBV-ZETCQYMHSA-N

>  <alias>  (671) 
None

>  <smiles>  (671) 
CCOC(=O)c1cc(NC(=O)NC[C@H](C)O)nn1C

>  <path>  (671) 
/opt/xchem-fragalysis-2/maxwin/RdRp_FFF/syndirella/mar_elabs/elabs_061/WVGFLLFSIMGYJN-UHFFFAOYSA-N/output/WVGFLLFSIMGYJN-UHFFFAOYSA-N-dfzEwH-29-A/WVGFLLFSIMGYJN-UHFFFAOYSA-N-dfzEwH-29-A.minimised.mol

>  <distance_score>  (671) 
1.171391

>  <energy_score>  (671) 
-19.077806

>  <compound>  (671) 
ILUCFTMOHNKUBV-UHFFFAOYSA-N

>  <compound_id>  (671) 
234725

>  <target>  (671) 
Flavi_NS5_RdRp

>  <tags>  (671) 
[]

>  <inspirations>  (671) 
{P Ã— 2}

>  <subsites>  (671) 
None

>  <reference>  (671) 
z0211a

>  <SLURM_JOB_ID>  (671) 
nan

>  <SLURM_JOB_NAME>  (671) 
nan

>  <csv_name>  (671) 
nan

>  <scratch_subdir>  (671) 
nan

>  <fragmenstein_runtime>  (671) 
nan

>  <fragmenstein_outcome>  (671) 
nan

>  <fragmenstein_mode>  (671) 
nan

>  <fragmenstein_error>  (671) 
nan

>  <exports>  (671) 
nan

>  <Multi-SuCOS>  (671) 
nan

>  <merge_set>  (671) 
nan

$$$$
GLMCXPLVXRJBQK-ZCFIWIBFSA-N
     RDKit          3D

 19 19  0  0  0  0  0  0  0  0999 V2000
  -27.8412  -30.0232  -14.9602 C   0  0  0  0  0  0  0  0  0  0  0  0
  -27.5788  -29.6230  -16.2915 O   0  0  0  0  0  0  0  0  0  0  0  0
  -28.6591  -29.7056  -17.1081 C   0  0  0  0  0  0  0  0  0  0  0  0
  -29.8226  -29.6988  -16.7328 O   0  0  0  0  0  0  0  0  0  0  0  0
  -28.1768  -29.8978  -18.4414 C   0  0  0  0  0  0  0  0  0  0  0  0
  -26.8738  -29.8681  -18.9039 C   0  0  0  0  0  0  0  0  0  0  0  0
  -26.9036  -30.5682  -20.1180 C   0  0  0  0  0  0  0  0  0  0  0  0
  -25.7941  -30.8902  -20.8259 N   0  0  0  0  0  0  0  0  0  0  0  0
  -25.5413  -32.0479  -21.8217 C   0  0  0  0  0  0  0  0  0  0  0  0
  -26.2075  -32.9229  -22.1178 O   0  0  0  0  0  0  0  0  0  0  0  0
  -24.1580  -31.6097  -22.3726 N   0  0  0  0  0  0  0  0  0  0  0  0
  -23.3875  -32.1277  -23.4645 C   0  0  0  0  0  0  0  0  0  0  0  0
  -22.0944  -32.8181  -23.0361 C   0  0  2  0  0  0  0  0  0  0  0  0
  -21.5021  -32.1523  -21.9094 O   0  0  0  0  0  0  0  0  0  0  0  0
  -21.0630  -32.8095  -24.1618 C   0  0  0  0  0  0  0  0  0  0  0  0
  -21.6454  -33.5045  -25.6974 Cl  0  0  0  0  0  0  0  0  0  0  0  0
  -28.1492  -30.8441  -20.4935 N   0  0  0  0  0  0  0  0  0  0  0  0
  -28.9115  -30.3188  -19.5149 N   0  0  0  0  0  0  0  0  0  0  0  0
  -30.3420  -30.3891  -19.6392 C   0  0  0  0  0  0  0  0  0  0  0  0
  1  2  1  0
  2  3  1  0
  3  4  2  0
  3  5  1  0
  5  6  2  0
  6  7  1  0
  7  8  1  0
  8  9  1  0
  9 10  2  0
  9 11  1  0
 11 12  1  0
 12 13  1  0
 13 14  1  1
 13 15  1  0
 15 16  1  0
  7 17  2  0
 17 18  1  0
 18 19  1  0
 18  5  1  0
M  END
>  <id>  (672) 
435947

>  <inchikey>  (672) 
GLMCXPLVXRJBQK-ZCFIWIBFSA-N

>  <alias>  (672) 
None

>  <smiles>  (672) 
COC(=O)c1cc(NC(=O)NC[C@H](O)CCl)nn1C

>  <path>  (672) 
/opt/xchem-fragalysis-2/maxwin/RdRp_FFF/syndirella/mar_elabs/elabs_061/WVGFLLFSIMGYJN-UHFFFAOYSA-N/output/WVGFLLFSIMGYJN-UHFFFAOYSA-N-dfzEwH-61-A/WVGFLLFSIMGYJN-UHFFFAOYSA-N-dfzEwH-61-A.minimised.mol

>  <distance_score>  (672) 
1.153048

>  <energy_score>  (672) 
-9.555786

>  <compound>  (672) 
GLMCXPLVXRJBQK-UHFFFAOYSA-N

>  <compound_id>  (672) 
234747

>  <target>  (672) 
Flavi_NS5_RdRp

>  <tags>  (672) 
[]

>  <inspirations>  (672) 
{P Ã— 2}

>  <subsites>  (672) 
None

>  <reference>  (672) 
z0211a

>  <SLURM_JOB_ID>  (672) 
nan

>  <SLURM_JOB_NAME>  (672) 
nan

>  <csv_name>  (672) 
nan

>  <scratch_subdir>  (672) 
nan

>  <fragmenstein_runtime>  (672) 
nan

>  <fragmenstein_outcome>  (672) 
nan

>  <fragmenstein_mode>  (672) 
nan

>  <fragmenstein_error>  (672) 
nan

>  <exports>  (672) 
nan

>  <Multi-SuCOS>  (672) 
nan

>  <merge_set>  (672) 
nan

$$$$
TXQMKCFXNRYVQN-ZETCQYMHSA-N
     RDKit          3D

 19 19  0  0  0  0  0  0  0  0999 V2000
  -28.2546  -30.2295  -14.9498 C   0  0  0  0  0  0  0  0  0  0  0  0
  -27.8268  -29.8104  -16.2318 O   0  0  0  0  0  0  0  0  0  0  0  0
  -28.8297  -29.7608  -17.1468 C   0  0  0  0  0  0  0  0  0  0  0  0
  -30.0183  -29.6966  -16.8676 O   0  0  0  0  0  0  0  0  0  0  0  0
  -28.2483  -29.8960  -18.4483 C   0  0  0  0  0  0  0  0  0  0  0  0
  -26.9129  -30.0556  -18.7773 C   0  0  0  0  0  0  0  0  0  0  0  0
  -26.8895  -30.3353  -20.1479 C   0  0  0  0  0  0  0  0  0  0  0  0
  -25.7788  -30.7133  -20.8272 N   0  0  0  0  0  0  0  0  0  0  0  0
  -25.5395  -30.8712  -22.3485 C   0  0  0  0  0  0  0  0  0  0  0  0
  -26.2195  -30.6323  -23.2277 O   0  0  0  0  0  0  0  0  0  0  0  0
  -24.1466  -31.5429  -22.3160 N   0  0  0  0  0  0  0  0  0  0  0  0
  -23.3760  -32.1317  -23.3701 C   0  0  0  0  0  0  0  0  0  0  0  0
  -21.8789  -32.0918  -23.0579 C   0  0  2  0  0  0  0  0  0  0  0  0
  -21.1470  -33.0326  -24.0000 C   0  0  0  0  0  0  0  0  0  0  0  0
  -21.6891  -32.5367  -21.7011 O   0  0  0  0  0  0  0  0  0  0  0  0
  -20.5769  -31.9171  -21.0671 C   0  0  0  0  0  0  0  0  0  0  0  0
  -28.1042  -30.2560  -20.6801 N   0  0  0  0  0  0  0  0  0  0  0  0
  -28.9189  -30.0422  -19.6328 N   0  0  0  0  0  0  0  0  0  0  0  0
  -30.3357  -30.1624  -19.8502 C   0  0  0  0  0  0  0  0  0  0  0  0
  1  2  1  0
  2  3  1  0
  3  4  2  0
  3  5  1  0
  5  6  2  0
  6  7  1  0
  7  8  1  0
  8  9  1  0
  9 10  2  0
  9 11  1  0
 11 12  1  0
 12 13  1  0
 13 14  1  6
 13 15  1  0
 15 16  1  0
  7 17  2  0
 17 18  1  0
 18 19  1  0
 18  5  1  0
M  END
>  <id>  (673) 
435959

>  <inchikey>  (673) 
TXQMKCFXNRYVQN-ZETCQYMHSA-N

>  <alias>  (673) 
None

>  <smiles>  (673) 
COC(=O)c1cc(NC(=O)NC[C@H](C)OC)nn1C

>  <path>  (673) 
/opt/xchem-fragalysis-2/maxwin/RdRp_FFF/syndirella/mar_elabs/elabs_061/WVGFLLFSIMGYJN-UHFFFAOYSA-N/output/WVGFLLFSIMGYJN-UHFFFAOYSA-N-dfzEwH-74-A/WVGFLLFSIMGYJN-UHFFFAOYSA-N-dfzEwH-74-A.minimised.mol

>  <distance_score>  (673) 
0.896712

>  <energy_score>  (673) 
-17.73163

>  <compound>  (673) 
TXQMKCFXNRYVQN-UHFFFAOYSA-N

>  <compound_id>  (673) 
234760

>  <target>  (673) 
Flavi_NS5_RdRp

>  <tags>  (673) 
[]

>  <inspirations>  (673) 
{P Ã— 2}

>  <subsites>  (673) 
None

>  <reference>  (673) 
z0211a

>  <SLURM_JOB_ID>  (673) 
nan

>  <SLURM_JOB_NAME>  (673) 
nan

>  <csv_name>  (673) 
nan

>  <scratch_subdir>  (673) 
nan

>  <fragmenstein_runtime>  (673) 
nan

>  <fragmenstein_outcome>  (673) 
nan

>  <fragmenstein_mode>  (673) 
nan

>  <fragmenstein_error>  (673) 
nan

>  <exports>  (673) 
nan

>  <Multi-SuCOS>  (673) 
nan

>  <merge_set>  (673) 
nan

$$$$
FTGFZIBBFGANIH-RXMQYKEDSA-N
     RDKit          3D

 19 19  0  0  0  0  0  0  0  0999 V2000
  -27.9120  -30.0509  -15.0035 C   0  0  0  0  0  0  0  0  0  0  0  0
  -27.5953  -29.8153  -16.3632 O   0  0  0  0  0  0  0  0  0  0  0  0
  -28.6580  -29.8150  -17.2083 C   0  0  0  0  0  0  0  0  0  0  0  0
  -29.8292  -29.7946  -16.8591 O   0  0  0  0  0  0  0  0  0  0  0  0
  -28.1518  -29.9421  -18.5442 C   0  0  0  0  0  0  0  0  0  0  0  0
  -26.8315  -30.0761  -18.9457 C   0  0  0  0  0  0  0  0  0  0  0  0
  -26.8732  -30.3394  -20.3187 C   0  0  0  0  0  0  0  0  0  0  0  0
  -25.7941  -30.6926  -21.0636 N   0  0  0  0  0  0  0  0  0  0  0  0
  -25.6496  -30.8718  -22.5188 C   0  0  0  0  0  0  0  0  0  0  0  0
  -26.3994  -30.6790  -23.3713 O   0  0  0  0  0  0  0  0  0  0  0  0
  -24.1731  -31.5140  -22.5286 N   0  0  0  0  0  0  0  0  0  0  0  0
  -23.3532  -32.1573  -23.6283 C   0  0  0  0  0  0  0  0  0  0  0  0
  -23.5648  -32.2881  -24.8347 N   0  0  0  0  0  0  0  0  0  0  0  0
  -22.0512  -32.6202  -22.9335 C   0  0  1  0  0  0  0  0  0  0  0  0
  -20.8725  -32.8025  -23.8651 C   0  0  0  0  0  0  0  0  0  0  0  0
  -21.6935  -31.6767  -21.9228 O   0  0  0  0  0  0  0  0  0  0  0  0
  -28.1179  -30.2883  -20.7816 N   0  0  0  0  0  0  0  0  0  0  0  0
  -28.8821  -30.0829  -19.6944 N   0  0  0  0  0  0  0  0  0  0  0  0
  -30.3124  -30.1791  -19.8560 C   0  0  0  0  0  0  0  0  0  0  0  0
  1  2  1  0
  2  3  1  0
  3  4  2  0
  3  5  1  0
  5  6  2  0
  6  7  1  0
  7  8  1  0
  8  9  1  0
  9 10  2  0
  9 11  1  0
 11 12  1  0
 12 13  2  3
 12 14  1  0
 14 15  1  6
 14 16  1  0
  7 17  2  0
 17 18  1  0
 18 19  1  0
 18  5  1  0
M  END
>  <id>  (674) 
435971

>  <inchikey>  (674) 
FTGFZIBBFGANIH-RXMQYKEDSA-N

>  <alias>  (674) 
None

>  <smiles>  (674) 
COC(=O)c1cc(NC(=O)NC(=N)[C@@H](C)O)nn1C

>  <path>  (674) 
/opt/xchem-fragalysis-2/maxwin/RdRp_FFF/syndirella/mar_elabs/elabs_061/WVGFLLFSIMGYJN-UHFFFAOYSA-N/output/WVGFLLFSIMGYJN-UHFFFAOYSA-N-dfzEwH-85-B/WVGFLLFSIMGYJN-UHFFFAOYSA-N-dfzEwH-85-B.minimised.mol

>  <distance_score>  (674) 
1.077618

>  <energy_score>  (674) 
-11.367879

>  <compound>  (674) 
FTGFZIBBFGANIH-UHFFFAOYSA-N

>  <compound_id>  (674) 
234770

>  <target>  (674) 
Flavi_NS5_RdRp

>  <tags>  (674) 
[]

>  <inspirations>  (674) 
{P Ã— 2}

>  <subsites>  (674) 
None

>  <reference>  (674) 
z0211a

>  <SLURM_JOB_ID>  (674) 
nan

>  <SLURM_JOB_NAME>  (674) 
nan

>  <csv_name>  (674) 
nan

>  <scratch_subdir>  (674) 
nan

>  <fragmenstein_runtime>  (674) 
nan

>  <fragmenstein_outcome>  (674) 
nan

>  <fragmenstein_mode>  (674) 
nan

>  <fragmenstein_error>  (674) 
nan

>  <exports>  (674) 
nan

>  <Multi-SuCOS>  (674) 
nan

>  <merge_set>  (674) 
nan

$$$$
ZVMXMNCBYUVKHU-QMMMGPOBSA-N
     RDKit          3D

 20 20  0  0  0  0  0  0  0  0999 V2000
  -28.2023  -30.6566  -14.7970 C   0  0  0  0  0  0  0  0  0  0  0  0
  -26.9103  -30.2654  -15.4784 C   0  0  0  0  0  0  0  0  0  0  0  0
  -27.0714  -29.1874  -16.4036 O   0  0  0  0  0  0  0  0  0  0  0  0
  -28.1074  -29.3287  -17.2782 C   0  0  0  0  0  0  0  0  0  0  0  0
  -29.2493  -28.9881  -17.0082 O   0  0  0  0  0  0  0  0  0  0  0  0
  -27.6343  -29.8452  -18.5240 C   0  0  0  0  0  0  0  0  0  0  0  0
  -26.3439  -30.1909  -18.8718 C   0  0  0  0  0  0  0  0  0  0  0  0
  -26.3978  -30.5744  -20.2167 C   0  0  0  0  0  0  0  0  0  0  0  0
  -25.2945  -30.9425  -20.9129 N   0  0  0  0  0  0  0  0  0  0  0  0
  -25.0949  -31.1600  -22.4299 C   0  0  0  0  0  0  0  0  0  0  0  0
  -25.8463  -31.1315  -23.2799 O   0  0  0  0  0  0  0  0  0  0  0  0
  -23.5985  -31.5262  -22.4358 N   0  0  0  0  0  0  0  0  0  0  0  0
  -22.7251  -31.8382  -23.5249 C   0  0  0  0  0  0  0  0  0  0  0  0
  -21.5886  -32.7231  -23.0306 C   0  0  1  0  0  0  0  0  0  0  0  0
  -21.0848  -32.1989  -21.7941 O   0  0  0  0  0  0  0  0  0  0  0  0
  -22.0034  -34.1829  -22.8501 C   0  0  0  0  0  0  0  0  0  0  0  0
  -23.1697  -34.4481  -21.9043 C   0  0  0  0  0  0  0  0  0  0  0  0
  -27.6394  -30.5160  -20.6894 N   0  0  0  0  0  0  0  0  0  0  0  0
  -28.3833  -30.1254  -19.6370 N   0  0  0  0  0  0  0  0  0  0  0  0
  -29.8141  -30.0783  -19.8015 C   0  0  0  0  0  0  0  0  0  0  0  0
  1  2  1  0
  2  3  1  0
  3  4  1  0
  4  5  2  0
  4  6  1  0
  6  7  2  0
  7  8  1  0
  8  9  1  0
  9 10  1  0
 10 11  2  0
 10 12  1  0
 12 13  1  0
 13 14  1  0
 14 15  1  1
 14 16  1  0
 16 17  1  0
  8 18  2  0
 18 19  1  0
 19 20  1  0
 19  6  1  0
M  END
>  <id>  (675) 
435988

>  <inchikey>  (675) 
ZVMXMNCBYUVKHU-QMMMGPOBSA-N

>  <alias>  (675) 
None

>  <smiles>  (675) 
CCOC(=O)c1cc(NC(=O)NC[C@@H](O)CC)nn1C

>  <path>  (675) 
/opt/xchem-fragalysis-2/maxwin/RdRp_FFF/syndirella/mar_elabs/elabs_061/WVGFLLFSIMGYJN-UHFFFAOYSA-N/output/WVGFLLFSIMGYJN-UHFFFAOYSA-N-dfzEwH-266-B/WVGFLLFSIMGYJN-UHFFFAOYSA-N-dfzEwH-266-B.minimised.mol

>  <distance_score>  (675) 
1.123958

>  <energy_score>  (675) 
-20.87791

>  <compound>  (675) 
ZVMXMNCBYUVKHU-UHFFFAOYSA-N

>  <compound_id>  (675) 
234900

>  <target>  (675) 
Flavi_NS5_RdRp

>  <tags>  (675) 
[]

>  <inspirations>  (675) 
{P Ã— 2}

>  <subsites>  (675) 
None

>  <reference>  (675) 
z0211a

>  <SLURM_JOB_ID>  (675) 
nan

>  <SLURM_JOB_NAME>  (675) 
nan

>  <csv_name>  (675) 
nan

>  <scratch_subdir>  (675) 
nan

>  <fragmenstein_runtime>  (675) 
nan

>  <fragmenstein_outcome>  (675) 
nan

>  <fragmenstein_mode>  (675) 
nan

>  <fragmenstein_error>  (675) 
nan

>  <exports>  (675) 
nan

>  <Multi-SuCOS>  (675) 
nan

>  <merge_set>  (675) 
nan

$$$$
AJAKLTCWYPKTSD-ZETCQYMHSA-N
     RDKit          3D

 20 20  0  0  0  0  0  0  0  0999 V2000
  -26.8454  -31.0023  -14.7506 C   0  0  0  0  0  0  0  0  0  0  0  0
  -28.1253  -30.2612  -15.0720 C   0  0  0  0  0  0  0  0  0  0  0  0
  -27.8842  -29.5691  -16.2909 O   0  0  0  0  0  0  0  0  0  0  0  0
  -28.8754  -29.7223  -17.2030 C   0  0  0  0  0  0  0  0  0  0  0  0
  -30.0636  -29.7959  -16.9241 O   0  0  0  0  0  0  0  0  0  0  0  0
  -28.2719  -29.8768  -18.4927 C   0  0  0  0  0  0  0  0  0  0  0  0
  -26.9291  -30.0258  -18.8029 C   0  0  0  0  0  0  0  0  0  0  0  0
  -26.8846  -30.3345  -20.1679 C   0  0  0  0  0  0  0  0  0  0  0  0
  -25.7630  -30.6939  -20.8441 N   0  0  0  0  0  0  0  0  0  0  0  0
  -25.5230  -30.8762  -22.3652 C   0  0  0  0  0  0  0  0  0  0  0  0
  -26.2128  -30.6758  -23.2470 O   0  0  0  0  0  0  0  0  0  0  0  0
  -24.1076  -31.5069  -22.3246 N   0  0  0  0  0  0  0  0  0  0  0  0
  -23.3220  -32.0950  -23.3719 C   0  0  0  0  0  0  0  0  0  0  0  0
  -21.8274  -32.0861  -23.0644 C   0  0  1  0  0  0  0  0  0  0  0  0
  -21.5937  -32.4496  -21.6935 O   0  0  0  0  0  0  0  0  0  0  0  0
  -21.1050  -33.0687  -23.9722 C   0  0  0  0  0  0  0  0  0  0  0  0
  -21.1587  -32.6707  -25.2695 F   0  0  0  0  0  0  0  0  0  0  0  0
  -28.0977  -30.2956  -20.7108 N   0  0  0  0  0  0  0  0  0  0  0  0
  -28.9259  -30.0601  -19.6796 N   0  0  0  0  0  0  0  0  0  0  0  0
  -30.3409  -30.1715  -19.9118 C   0  0  0  0  0  0  0  0  0  0  0  0
  1  2  1  0
  2  3  1  0
  3  4  1  0
  4  5  2  0
  4  6  1  0
  6  7  2  0
  7  8  1  0
  8  9  1  0
  9 10  1  0
 10 11  2  0
 10 12  1  0
 12 13  1  0
 13 14  1  0
 14 15  1  1
 14 16  1  0
 16 17  1  0
  8 18  2  0
 18 19  1  0
 19 20  1  0
 19  6  1  0
M  END
>  <id>  (676) 
435996

>  <inchikey>  (676) 
AJAKLTCWYPKTSD-ZETCQYMHSA-N

>  <alias>  (676) 
None

>  <smiles>  (676) 
CCOC(=O)c1cc(NC(=O)NC[C@@H](O)CF)nn1C

>  <path>  (676) 
/opt/xchem-fragalysis-2/maxwin/RdRp_FFF/syndirella/mar_elabs/elabs_061/WVGFLLFSIMGYJN-UHFFFAOYSA-N/output/WVGFLLFSIMGYJN-UHFFFAOYSA-N-dfzEwH-273-B/WVGFLLFSIMGYJN-UHFFFAOYSA-N-dfzEwH-273-B.minimised.mol

>  <distance_score>  (676) 
0.801792

>  <energy_score>  (676) 
-4.355737

>  <compound>  (676) 
AJAKLTCWYPKTSD-UHFFFAOYSA-N

>  <compound_id>  (676) 
234907

>  <target>  (676) 
Flavi_NS5_RdRp

>  <tags>  (676) 
[]

>  <inspirations>  (676) 
{P Ã— 2}

>  <subsites>  (676) 
None

>  <reference>  (676) 
z0211a

>  <SLURM_JOB_ID>  (676) 
nan

>  <SLURM_JOB_NAME>  (676) 
nan

>  <csv_name>  (676) 
nan

>  <scratch_subdir>  (676) 
nan

>  <fragmenstein_runtime>  (676) 
nan

>  <fragmenstein_outcome>  (676) 
nan

>  <fragmenstein_mode>  (676) 
nan

>  <fragmenstein_error>  (676) 
nan

>  <exports>  (676) 
nan

>  <Multi-SuCOS>  (676) 
nan

>  <merge_set>  (676) 
nan

$$$$
YMOCKFDSXCGABU-MRVPVSSYSA-N
     RDKit          3D

 20 20  0  0  0  0  0  0  0  0999 V2000
  -22.2996  -33.6355  -26.2184 C   0  0  0  0  0  0  0  0  0  0  0  0
  -21.0337  -33.2307  -25.4835 C   0  0  0  0  0  0  0  0  0  0  0  0
  -21.0772  -33.4208  -23.9669 C   0  0  0  0  0  0  0  0  0  0  0  0
  -21.7350  -32.3500  -23.1213 C   0  0  1  0  0  0  0  0  0  0  0  0
  -21.0117  -31.1353  -23.2438 O   0  0  0  0  0  0  0  0  0  0  0  0
  -23.2063  -32.1833  -23.4483 C   0  0  0  0  0  0  0  0  0  0  0  0
  -23.9033  -31.6871  -22.3089 N   0  0  0  0  0  0  0  0  0  0  0  0
  -25.2976  -31.0631  -22.1924 C   0  0  0  0  0  0  0  0  0  0  0  0
  -26.1064  -30.9287  -22.9723 O   0  0  0  0  0  0  0  0  0  0  0  0
  -25.3124  -30.7674  -20.6894 N   0  0  0  0  0  0  0  0  0  0  0  0
  -26.3077  -30.3594  -19.8973 C   0  0  0  0  0  0  0  0  0  0  0  0
  -27.6700  -30.2791  -20.2120 C   0  0  0  0  0  0  0  0  0  0  0  0
  -28.2769  -30.0249  -19.0017 C   0  0  0  0  0  0  0  0  0  0  0  0
  -29.6623  -30.0987  -18.6714 C   0  0  0  0  0  0  0  0  0  0  0  0
  -30.5350  -30.6350  -19.3356 O   0  0  0  0  0  0  0  0  0  0  0  0
  -29.8214  -29.5524  -17.4485 O   0  0  0  0  0  0  0  0  0  0  0  0
  -30.7275  -30.2148  -16.5989 C   0  0  0  0  0  0  0  0  0  0  0  0
  -27.2464  -29.8293  -18.1180 N   0  0  0  0  0  0  0  0  0  0  0  0
  -27.2919  -29.6270  -16.7029 C   0  0  0  0  0  0  0  0  0  0  0  0
  -26.0429  -30.0457  -18.6411 N   0  0  0  0  0  0  0  0  0  0  0  0
  1  2  1  0
  2  3  1  0
  3  4  1  0
  4  5  1  6
  4  6  1  0
  6  7  1  0
  7  8  1  0
  8  9  2  0
  8 10  1  0
 10 11  1  0
 11 12  1  0
 12 13  2  0
 13 14  1  0
 14 15  2  0
 14 16  1  0
 16 17  1  0
 13 18  1  0
 18 19  1  0
 18 20  1  0
 20 11  2  0
M  END
>  <id>  (677) 
436032

>  <inchikey>  (677) 
YMOCKFDSXCGABU-MRVPVSSYSA-N

>  <alias>  (677) 
None

>  <smiles>  (677) 
CCC[C@@H](O)CNC(=O)Nc1cc(C(=O)OC)n(C)n1

>  <path>  (677) 
/opt/xchem-fragalysis-2/maxwin/RdRp_FFF/syndirella/mar_elabs/elabs_061/WVGFLLFSIMGYJN-UHFFFAOYSA-N/output/WVGFLLFSIMGYJN-UHFFFAOYSA-N-dfzEwH-519-B/WVGFLLFSIMGYJN-UHFFFAOYSA-N-dfzEwH-519-B.minimised.mol

>  <distance_score>  (677) 
1.313728

>  <energy_score>  (677) 
-18.887303

>  <compound>  (677) 
YMOCKFDSXCGABU-UHFFFAOYSA-N

>  <compound_id>  (677) 
235000

>  <target>  (677) 
Flavi_NS5_RdRp

>  <tags>  (677) 
[]

>  <inspirations>  (677) 
{P Ã— 2}

>  <subsites>  (677) 
None

>  <reference>  (677) 
z0211a

>  <SLURM_JOB_ID>  (677) 
nan

>  <SLURM_JOB_NAME>  (677) 
nan

>  <csv_name>  (677) 
nan

>  <scratch_subdir>  (677) 
nan

>  <fragmenstein_runtime>  (677) 
nan

>  <fragmenstein_outcome>  (677) 
nan

>  <fragmenstein_mode>  (677) 
nan

>  <fragmenstein_error>  (677) 
nan

>  <exports>  (677) 
nan

>  <Multi-SuCOS>  (677) 
nan

>  <merge_set>  (677) 
nan

$$$$
NKEYAPNIXMYNJR-SSDOTTSWSA-N
     RDKit          3D

 20 20  0  0  0  0  0  0  0  0999 V2000
  -21.1924  -32.9483  -20.0114 C   0  0  0  0  0  0  0  0  0  0  0  0
  -21.5384  -32.4412  -21.2947 O   0  0  0  0  0  0  0  0  0  0  0  0
  -21.0928  -33.3056  -22.3462 C   0  0  0  0  0  0  0  0  0  0  0  0
  -21.5015  -32.7236  -23.6950 C   0  0  2  0  0  0  0  0  0  0  0  0
  -21.0313  -31.3762  -23.7667 O   0  0  0  0  0  0  0  0  0  0  0  0
  -23.0078  -32.8104  -23.9750 C   0  0  0  0  0  0  0  0  0  0  0  0
  -23.7657  -32.0915  -22.9976 N   0  0  0  0  0  0  0  0  0  0  0  0
  -25.1469  -32.4030  -22.3721 C   0  0  0  0  0  0  0  0  0  0  0  0
  -25.8245  -33.3095  -22.4983 O   0  0  0  0  0  0  0  0  0  0  0  0
  -25.2951  -31.1658  -21.4620 N   0  0  0  0  0  0  0  0  0  0  0  0
  -26.3047  -30.7952  -20.6492 C   0  0  0  0  0  0  0  0  0  0  0  0
  -27.6613  -31.1535  -20.6394 C   0  0  0  0  0  0  0  0  0  0  0  0
  -28.2206  -30.4983  -19.5541 C   0  0  0  0  0  0  0  0  0  0  0  0
  -29.5580  -30.5404  -19.0214 C   0  0  0  0  0  0  0  0  0  0  0  0
  -30.5316  -31.0556  -19.5484 O   0  0  0  0  0  0  0  0  0  0  0  0
  -29.5421  -29.9913  -17.7807 O   0  0  0  0  0  0  0  0  0  0  0  0
  -30.5806  -30.3195  -16.8767 C   0  0  0  0  0  0  0  0  0  0  0  0
  -27.1661  -29.8261  -19.0070 N   0  0  0  0  0  0  0  0  0  0  0  0
  -27.1496  -29.0102  -17.8359 C   0  0  0  0  0  0  0  0  0  0  0  0
  -26.0322  -29.9215  -19.6919 N   0  0  0  0  0  0  0  0  0  0  0  0
  1  2  1  0
  2  3  1  0
  3  4  1  0
  4  5  1  1
  4  6  1  0
  6  7  1  0
  7  8  1  0
  8  9  2  0
  8 10  1  0
 10 11  1  0
 11 12  1  0
 12 13  2  0
 13 14  1  0
 14 15  2  0
 14 16  1  0
 16 17  1  0
 13 18  1  0
 18 19  1  0
 18 20  1  0
 20 11  2  0
M  END
>  <id>  (678) 
436033

>  <inchikey>  (678) 
NKEYAPNIXMYNJR-SSDOTTSWSA-N

>  <alias>  (678) 
None

>  <smiles>  (678) 
COC[C@H](O)CNC(=O)Nc1cc(C(=O)OC)n(C)n1

>  <path>  (678) 
/opt/xchem-fragalysis-2/maxwin/RdRp_FFF/syndirella/mar_elabs/elabs_061/WVGFLLFSIMGYJN-UHFFFAOYSA-N/output/WVGFLLFSIMGYJN-UHFFFAOYSA-N-dfzEwH-521-A/WVGFLLFSIMGYJN-UHFFFAOYSA-N-dfzEwH-521-A.minimised.mol

>  <distance_score>  (678) 
1.782337

>  <energy_score>  (678) 
-19.030388

>  <compound>  (678) 
NKEYAPNIXMYNJR-UHFFFAOYSA-N

>  <compound_id>  (678) 
235002

>  <target>  (678) 
Flavi_NS5_RdRp

>  <tags>  (678) 
[]

>  <inspirations>  (678) 
{P Ã— 2}

>  <subsites>  (678) 
None

>  <reference>  (678) 
z0211a

>  <SLURM_JOB_ID>  (678) 
nan

>  <SLURM_JOB_NAME>  (678) 
nan

>  <csv_name>  (678) 
nan

>  <scratch_subdir>  (678) 
nan

>  <fragmenstein_runtime>  (678) 
nan

>  <fragmenstein_outcome>  (678) 
nan

>  <fragmenstein_mode>  (678) 
nan

>  <fragmenstein_error>  (678) 
nan

>  <exports>  (678) 
nan

>  <Multi-SuCOS>  (678) 
nan

>  <merge_set>  (678) 
nan

$$$$
YWTZCUUUNOIMJK-UHFFFAOYSA-N
     RDKit          3D

 20 20  0  0  0  0  0  0  0  0999 V2000
  -28.2894  -30.2175  -14.9481 C   0  0  0  0  0  0  0  0  0  0  0  0
  -27.8466  -29.8034  -16.2271 O   0  0  0  0  0  0  0  0  0  0  0  0
  -28.8358  -29.7738  -17.1573 C   0  0  0  0  0  0  0  0  0  0  0  0
  -30.0283  -29.7066  -16.8979 O   0  0  0  0  0  0  0  0  0  0  0  0
  -28.2368  -29.9337  -18.4479 C   0  0  0  0  0  0  0  0  0  0  0  0
  -26.8998  -30.1260  -18.7521 C   0  0  0  0  0  0  0  0  0  0  0  0
  -26.8589  -30.4221  -20.1183 C   0  0  0  0  0  0  0  0  0  0  0  0
  -25.7392  -30.8032  -20.7803 N   0  0  0  0  0  0  0  0  0  0  0  0
  -25.4699  -30.9387  -22.2977 C   0  0  0  0  0  0  0  0  0  0  0  0
  -26.1278  -30.6765  -23.1866 O   0  0  0  0  0  0  0  0  0  0  0  0
  -24.0605  -31.5752  -22.2506 N   0  0  0  0  0  0  0  0  0  0  0  0
  -23.1623  -31.9200  -23.3126 C   0  0  0  0  0  0  0  0  0  0  0  0
  -21.8836  -32.6366  -22.8509 C   0  0  0  0  0  0  0  0  0  0  0  0
  -21.0208  -32.9351  -24.0799 C   0  0  0  0  0  0  0  0  0  0  0  0
  -21.0600  -31.7598  -21.8952 C   0  0  0  0  0  0  0  0  0  0  0  0
  -22.1396  -33.8467  -22.1109 O   0  0  0  0  0  0  0  0  0  0  0  0
  -23.0294  -34.7859  -22.6927 C   0  0  0  0  0  0  0  0  0  0  0  0
  -28.0642  -30.3329  -20.6707 N   0  0  0  0  0  0  0  0  0  0  0  0
  -28.8906  -30.0758  -19.6420 N   0  0  0  0  0  0  0  0  0  0  0  0
  -30.3062  -30.1454  -19.8882 C   0  0  0  0  0  0  0  0  0  0  0  0
  1  2  1  0
  2  3  1  0
  3  4  2  0
  3  5  1  0
  5  6  2  0
  6  7  1  0
  7  8  1  0
  8  9  1  0
  9 10  2  0
  9 11  1  0
 11 12  1  0
 12 13  1  0
 13 14  1  0
 13 15  1  0
 13 16  1  0
 16 17  1  0
  7 18  2  0
 18 19  1  0
 19 20  1  0
 19  5  1  0
M  END
>  <id>  (679) 
436034

>  <inchikey>  (679) 
YWTZCUUUNOIMJK-UHFFFAOYSA-N

>  <alias>  (679) 
None

>  <smiles>  (679) 
COC(=O)c1cc(NC(=O)NCC(C)(C)OC)nn1C

>  <path>  (679) 
/opt/xchem-fragalysis-2/maxwin/RdRp_FFF/syndirella/mar_elabs/elabs_061/WVGFLLFSIMGYJN-UHFFFAOYSA-N/output/WVGFLLFSIMGYJN-UHFFFAOYSA-N-dfzEwH-522-A/WVGFLLFSIMGYJN-UHFFFAOYSA-N-dfzEwH-522-A.minimised.mol

>  <distance_score>  (679) 
0.907647

>  <energy_score>  (679) 
-9.345955

>  <compound>  (679) 
YWTZCUUUNOIMJK-UHFFFAOYSA-N

>  <compound_id>  (679) 
235003

>  <target>  (679) 
Flavi_NS5_RdRp

>  <tags>  (679) 
[]

>  <inspirations>  (679) 
{P Ã— 2}

>  <subsites>  (679) 
None

>  <reference>  (679) 
z0211a

>  <SLURM_JOB_ID>  (679) 
nan

>  <SLURM_JOB_NAME>  (679) 
nan

>  <csv_name>  (679) 
nan

>  <scratch_subdir>  (679) 
nan

>  <fragmenstein_runtime>  (679) 
nan

>  <fragmenstein_outcome>  (679) 
nan

>  <fragmenstein_mode>  (679) 
nan

>  <fragmenstein_error>  (679) 
nan

>  <exports>  (679) 
nan

>  <Multi-SuCOS>  (679) 
nan

>  <merge_set>  (679) 
nan

$$$$
OXGRNVNCJLBISZ-GFCCVEGCSA-N
     RDKit          3D

 20 20  0  0  0  0  0  0  0  0999 V2000
  -20.7662  -32.9934  -25.4776 C   0  0  0  0  0  0  0  0  0  0  0  0
  -21.5619  -33.4166  -24.4935 C   0  0  0  0  0  0  0  0  0  0  0  0
  -21.9611  -32.6507  -23.2609 C   0  0  1  0  0  0  0  0  0  0  0  0
  -21.7019  -33.5133  -22.0220 C   0  0  0  0  0  0  0  0  0  0  0  0
  -21.1823  -31.4626  -23.1144 O   0  0  0  0  0  0  0  0  0  0  0  0
  -23.4401  -32.3208  -23.4689 C   0  0  0  0  0  0  0  0  0  0  0  0
  -24.0194  -31.6604  -22.3527 N   0  0  0  0  0  0  0  0  0  0  0  0
  -25.3908  -31.0006  -22.1932 C   0  0  0  0  0  0  0  0  0  0  0  0
  -26.2122  -30.8292  -22.9514 O   0  0  0  0  0  0  0  0  0  0  0  0
  -25.3636  -30.7329  -20.6868 N   0  0  0  0  0  0  0  0  0  0  0  0
  -26.3277  -30.3125  -19.8658 C   0  0  0  0  0  0  0  0  0  0  0  0
  -27.6900  -30.2012  -20.1680 C   0  0  0  0  0  0  0  0  0  0  0  0
  -28.2810  -29.9760  -18.9467 C   0  0  0  0  0  0  0  0  0  0  0  0
  -29.6628  -30.0545  -18.6114 C   0  0  0  0  0  0  0  0  0  0  0  0
  -30.5394  -30.5735  -19.2841 O   0  0  0  0  0  0  0  0  0  0  0  0
  -29.8131  -29.5365  -17.3759 O   0  0  0  0  0  0  0  0  0  0  0  0
  -30.7399  -30.2047  -16.5572 C   0  0  0  0  0  0  0  0  0  0  0  0
  -27.2413  -29.8112  -18.0681 N   0  0  0  0  0  0  0  0  0  0  0  0
  -27.2752  -29.6403  -16.6491 C   0  0  0  0  0  0  0  0  0  0  0  0
  -26.0449  -30.0373  -18.6051 N   0  0  0  0  0  0  0  0  0  0  0  0
  1  2  2  0
  2  3  1  0
  3  4  1  1
  3  5  1  0
  3  6  1  0
  6  7  1  0
  7  8  1  0
  8  9  2  0
  8 10  1  0
 10 11  1  0
 11 12  1  0
 12 13  2  0
 13 14  1  0
 14 15  2  0
 14 16  1  0
 16 17  1  0
 13 18  1  0
 18 19  1  0
 18 20  1  0
 20 11  2  0
M  END
>  <id>  (680) 
436040

>  <inchikey>  (680) 
OXGRNVNCJLBISZ-GFCCVEGCSA-N

>  <alias>  (680) 
None

>  <smiles>  (680) 
C=C[C@@](C)(O)CNC(=O)Nc1cc(C(=O)OC)n(C)n1

>  <path>  (680) 
/opt/xchem-fragalysis-2/maxwin/RdRp_FFF/syndirella/mar_elabs/elabs_061/WVGFLLFSIMGYJN-UHFFFAOYSA-N/output/WVGFLLFSIMGYJN-UHFFFAOYSA-N-dfzEwH-536-B/WVGFLLFSIMGYJN-UHFFFAOYSA-N-dfzEwH-536-B.minimised.mol

>  <distance_score>  (680) 
1.357446

>  <energy_score>  (680) 
-31.439565

>  <compound>  (680) 
OXGRNVNCJLBISZ-UHFFFAOYSA-N

>  <compound_id>  (680) 
235017

>  <target>  (680) 
Flavi_NS5_RdRp

>  <tags>  (680) 
[]

>  <inspirations>  (680) 
{P Ã— 2}

>  <subsites>  (680) 
None

>  <reference>  (680) 
z0211a

>  <SLURM_JOB_ID>  (680) 
nan

>  <SLURM_JOB_NAME>  (680) 
nan

>  <csv_name>  (680) 
nan

>  <scratch_subdir>  (680) 
nan

>  <fragmenstein_runtime>  (680) 
nan

>  <fragmenstein_outcome>  (680) 
nan

>  <fragmenstein_mode>  (680) 
nan

>  <fragmenstein_error>  (680) 
nan

>  <exports>  (680) 
nan

>  <Multi-SuCOS>  (680) 
nan

>  <merge_set>  (680) 
nan

$$$$
HDWSAMQNLADRFF-LURJTMIESA-N
     RDKit          3D

 20 20  0  0  0  0  0  0  0  0999 V2000
  -28.2615  -30.1857  -14.9758 C   0  0  0  0  0  0  0  0  0  0  0  0
  -27.8732  -29.7626  -16.2702 O   0  0  0  0  0  0  0  0  0  0  0  0
  -28.8800  -29.7977  -17.1812 C   0  0  0  0  0  0  0  0  0  0  0  0
  -30.0703  -29.8036  -16.9026 O   0  0  0  0  0  0  0  0  0  0  0  0
  -28.2954  -29.9250  -18.4830 C   0  0  0  0  0  0  0  0  0  0  0  0
  -26.9532  -30.0289  -18.8148 C   0  0  0  0  0  0  0  0  0  0  0  0
  -26.9225  -30.3313  -20.1795 C   0  0  0  0  0  0  0  0  0  0  0  0
  -25.8028  -30.6315  -20.8858 N   0  0  0  0  0  0  0  0  0  0  0  0
  -25.6089  -30.8471  -22.3284 C   0  0  0  0  0  0  0  0  0  0  0  0
  -26.3479  -30.7361  -23.2025 O   0  0  0  0  0  0  0  0  0  0  0  0
  -24.0957  -31.3796  -22.2857 N   0  0  0  0  0  0  0  0  0  0  0  0
  -23.2140  -31.9907  -23.3371 C   0  0  0  0  0  0  0  0  0  0  0  0
  -23.3874  -32.1737  -24.5444 N   0  0  0  0  0  0  0  0  0  0  0  0
  -21.8709  -32.3039  -22.6489 C   0  0  2  0  0  0  0  0  0  0  0  0
  -20.8960  -33.0318  -23.5538 C   0  0  0  0  0  0  0  0  0  0  0  0
  -22.0717  -32.9364  -21.3799 O   0  0  0  0  0  0  0  0  0  0  0  0
  -22.4852  -34.2955  -21.4490 C   0  0  0  0  0  0  0  0  0  0  0  0
  -28.1447  -30.3383  -20.7016 N   0  0  0  0  0  0  0  0  0  0  0  0
  -28.9650  -30.1065  -19.6634 N   0  0  0  0  0  0  0  0  0  0  0  0
  -30.3847  -30.2141  -19.8951 C   0  0  0  0  0  0  0  0  0  0  0  0
  1  2  1  0
  2  3  1  0
  3  4  2  0
  3  5  1  0
  5  6  2  0
  6  7  1  0
  7  8  1  0
  8  9  1  0
  9 10  2  0
  9 11  1  0
 11 12  1  0
 12 13  2  3
 12 14  1  0
 14 15  1  6
 14 16  1  0
 16 17  1  0
  7 18  2  0
 18 19  1  0
 19 20  1  0
 19  5  1  0
M  END
>  <id>  (681) 
436044

>  <inchikey>  (681) 
HDWSAMQNLADRFF-LURJTMIESA-N

>  <alias>  (681) 
None

>  <smiles>  (681) 
COC(=O)c1cc(NC(=O)NC(=N)[C@H](C)OC)nn1C

>  <path>  (681) 
/opt/xchem-fragalysis-2/maxwin/RdRp_FFF/syndirella/mar_elabs/elabs_061/WVGFLLFSIMGYJN-UHFFFAOYSA-N/output/WVGFLLFSIMGYJN-UHFFFAOYSA-N-dfzEwH-593-A/WVGFLLFSIMGYJN-UHFFFAOYSA-N-dfzEwH-593-A.minimised.mol

>  <distance_score>  (681) 
1.051536

>  <energy_score>  (681) 
-5.712136

>  <compound>  (681) 
HDWSAMQNLADRFF-UHFFFAOYSA-N

>  <compound_id>  (681) 
235052

>  <target>  (681) 
Flavi_NS5_RdRp

>  <tags>  (681) 
[]

>  <inspirations>  (681) 
{P Ã— 2}

>  <subsites>  (681) 
None

>  <reference>  (681) 
z0211a

>  <SLURM_JOB_ID>  (681) 
nan

>  <SLURM_JOB_NAME>  (681) 
nan

>  <csv_name>  (681) 
nan

>  <scratch_subdir>  (681) 
nan

>  <fragmenstein_runtime>  (681) 
nan

>  <fragmenstein_outcome>  (681) 
nan

>  <fragmenstein_mode>  (681) 
nan

>  <fragmenstein_error>  (681) 
nan

>  <exports>  (681) 
nan

>  <Multi-SuCOS>  (681) 
nan

>  <merge_set>  (681) 
nan

$$$$
MBHFZQXOLXRSLN-LURJTMIESA-N
     RDKit          3D

 20 20  0  0  0  0  0  0  0  0999 V2000
  -28.8145  -30.1319  -15.1207 C   0  0  0  0  0  0  0  0  0  0  0  0
  -28.7037  -29.9430  -16.5226 O   0  0  0  0  0  0  0  0  0  0  0  0
  -27.4472  -29.6311  -16.9242 C   0  0  0  0  0  0  0  0  0  0  0  0
  -26.5649  -29.2069  -16.1891 O   0  0  0  0  0  0  0  0  0  0  0  0
  -27.2666  -29.9632  -18.3052 C   0  0  0  0  0  0  0  0  0  0  0  0
  -26.0466  -30.1105  -18.9392 C   0  0  0  0  0  0  0  0  0  0  0  0
  -26.3283  -30.8627  -20.0881 C   0  0  0  0  0  0  0  0  0  0  0  0
  -25.3793  -31.4028  -20.8872 N   0  0  0  0  0  0  0  0  0  0  0  0
  -25.4483  -32.5275  -21.8304 C   0  0  0  0  0  0  0  0  0  0  0  0
  -26.3059  -33.2613  -22.0545 O   0  0  0  0  0  0  0  0  0  0  0  0
  -23.9898  -32.3364  -22.5169 N   0  0  0  0  0  0  0  0  0  0  0  0
  -23.2030  -33.1597  -23.6512 C   0  0  0  0  0  0  0  0  0  0  0  0
  -23.6156  -34.3636  -24.5545 S   0  0  0  0  0  0  0  0  0  0  0  0
  -21.8679  -32.3753  -23.7116 C   0  0  2  0  0  0  0  0  0  0  0  0
  -20.9220  -32.7014  -24.8501 C   0  0  0  0  0  0  0  0  0  0  0  0
  -21.2008  -32.6093  -22.4612 O   0  0  0  0  0  0  0  0  0  0  0  0
  -20.5977  -31.4512  -21.9012 C   0  0  0  0  0  0  0  0  0  0  0  0
  -27.6352  -30.9905  -20.2840 N   0  0  0  0  0  0  0  0  0  0  0  0
  -28.1933  -30.3550  -19.2397 N   0  0  0  0  0  0  0  0  0  0  0  0
  -29.6319  -30.2395  -19.2206 C   0  0  0  0  0  0  0  0  0  0  0  0
  1  2  1  0
  2  3  1  0
  3  4  2  0
  3  5  1  0
  5  6  2  0
  6  7  1  0
  7  8  1  0
  8  9  1  0
  9 10  2  0
  9 11  1  0
 11 12  1  0
 12 13  2  0
 12 14  1  0
 14 15  1  6
 14 16  1  0
 16 17  1  0
  7 18  2  0
 18 19  1  0
 19 20  1  0
 19  5  1  0
M  END
>  <id>  (682) 
436077

>  <inchikey>  (682) 
MBHFZQXOLXRSLN-LURJTMIESA-N

>  <alias>  (682) 
None

>  <smiles>  (682) 
COC(=O)c1cc(NC(=O)NC(=S)[C@H](C)OC)nn1C

>  <path>  (682) 
/opt/xchem-fragalysis-2/maxwin/RdRp_FFF/syndirella/mar_elabs/elabs_061/WVGFLLFSIMGYJN-UHFFFAOYSA-N/output/WVGFLLFSIMGYJN-UHFFFAOYSA-N-dfzEwH-686-A/WVGFLLFSIMGYJN-UHFFFAOYSA-N-dfzEwH-686-A.minimised.mol

>  <distance_score>  (682) 
1.374634

>  <energy_score>  (682) 
-11.88912

>  <compound>  (682) 
MBHFZQXOLXRSLN-UHFFFAOYSA-N

>  <compound_id>  (682) 
235136

>  <target>  (682) 
Flavi_NS5_RdRp

>  <tags>  (682) 
[]

>  <inspirations>  (682) 
{P Ã— 2}

>  <subsites>  (682) 
None

>  <reference>  (682) 
z0211a

>  <SLURM_JOB_ID>  (682) 
nan

>  <SLURM_JOB_NAME>  (682) 
nan

>  <csv_name>  (682) 
nan

>  <scratch_subdir>  (682) 
nan

>  <fragmenstein_runtime>  (682) 
nan

>  <fragmenstein_outcome>  (682) 
nan

>  <fragmenstein_mode>  (682) 
nan

>  <fragmenstein_error>  (682) 
nan

>  <exports>  (682) 
nan

>  <Multi-SuCOS>  (682) 
nan

>  <merge_set>  (682) 
nan

$$$$
DPDREXVMXWBIJN-ZETCQYMHSA-N
     RDKit          3D

 20 20  0  0  0  0  0  0  0  0999 V2000
  -28.5308  -30.1914  -14.8971 C   0  0  0  0  0  0  0  0  0  0  0  0
  -27.8696  -29.8082  -16.0899 O   0  0  0  0  0  0  0  0  0  0  0  0
  -28.7182  -29.6013  -17.1294 C   0  0  0  0  0  0  0  0  0  0  0  0
  -29.9029  -29.3332  -17.0090 O   0  0  0  0  0  0  0  0  0  0  0  0
  -28.0062  -29.8492  -18.3437 C   0  0  0  0  0  0  0  0  0  0  0  0
  -26.6429  -30.0026  -18.5235 C   0  0  0  0  0  0  0  0  0  0  0  0
  -26.5111  -30.6630  -19.7517 C   0  0  0  0  0  0  0  0  0  0  0  0
  -25.3568  -31.2353  -20.1769 N   0  0  0  0  0  0  0  0  0  0  0  0
  -25.0924  -32.2125  -21.3581 C   0  0  0  0  0  0  0  0  0  0  0  0
  -25.7996  -32.6001  -22.1687 O   0  0  0  0  0  0  0  0  0  0  0  0
  -23.5472  -32.4287  -21.1723 N   0  0  0  0  0  0  0  0  0  0  0  0
  -22.6273  -33.0659  -21.9886 N   0  0  0  0  0  0  0  0  0  0  0  0
  -23.1143  -34.3984  -22.3542 C   0  0  0  0  0  0  0  0  0  0  0  0
  -22.4090  -32.1850  -23.1622 C   0  0  0  0  0  0  0  0  0  0  0  0
  -21.2828  -32.6059  -24.1136 C   0  0  2  0  0  0  0  0  0  0  0  0
  -21.7410  -33.4838  -25.2682 C   0  0  0  0  0  0  0  0  0  0  0  0
  -20.2265  -33.2335  -23.3957 O   0  0  0  0  0  0  0  0  0  0  0  0
  -27.6699  -30.7166  -20.4036 N   0  0  0  0  0  0  0  0  0  0  0  0
  -28.5594  -30.1640  -19.5562 N   0  0  0  0  0  0  0  0  0  0  0  0
  -29.9398  -30.1128  -19.9624 C   0  0  0  0  0  0  0  0  0  0  0  0
  1  2  1  0
  2  3  1  0
  3  4  2  0
  3  5  1  0
  5  6  2  0
  6  7  1  0
  7  8  1  0
  8  9  1  0
  9 10  2  0
  9 11  1  0
 11 12  1  0
 12 13  1  0
 12 14  1  0
 14 15  1  0
 15 16  1  6
 15 17  1  0
  7 18  2  0
 18 19  1  0
 19 20  1  0
 19  5  1  0
M  END
>  <id>  (683) 
436081

>  <inchikey>  (683) 
DPDREXVMXWBIJN-ZETCQYMHSA-N

>  <alias>  (683) 
None

>  <smiles>  (683) 
COC(=O)c1cc(NC(=O)NN(C)C[C@H](C)O)nn1C

>  <path>  (683) 
/opt/xchem-fragalysis-2/maxwin/RdRp_FFF/syndirella/mar_elabs/elabs_061/WVGFLLFSIMGYJN-UHFFFAOYSA-N/output/WVGFLLFSIMGYJN-UHFFFAOYSA-N-dfzEwH-700-A/WVGFLLFSIMGYJN-UHFFFAOYSA-N-dfzEwH-700-A.minimised.mol

>  <distance_score>  (683) 
1.176446

>  <energy_score>  (683) 
-18.194788

>  <compound>  (683) 
DPDREXVMXWBIJN-UHFFFAOYSA-N

>  <compound_id>  (683) 
235141

>  <target>  (683) 
Flavi_NS5_RdRp

>  <tags>  (683) 
[]

>  <inspirations>  (683) 
{P Ã— 2}

>  <subsites>  (683) 
None

>  <reference>  (683) 
z0211a

>  <SLURM_JOB_ID>  (683) 
nan

>  <SLURM_JOB_NAME>  (683) 
nan

>  <csv_name>  (683) 
nan

>  <scratch_subdir>  (683) 
nan

>  <fragmenstein_runtime>  (683) 
nan

>  <fragmenstein_outcome>  (683) 
nan

>  <fragmenstein_mode>  (683) 
nan

>  <fragmenstein_error>  (683) 
nan

>  <exports>  (683) 
nan

>  <Multi-SuCOS>  (683) 
nan

>  <merge_set>  (683) 
nan

$$$$
ASBZOVFYZXLTJH-UHFFFAOYSA-N
     RDKit          3D

 21 21  0  0  0  0  0  0  0  0999 V2000
  -28.4657  -30.8185  -14.7468 C   0  0  0  0  0  0  0  0  0  0  0  0
  -27.8670  -29.5805  -15.3101 C   0  0  0  0  0  0  0  0  0  0  0  0
  -27.5169  -29.7075  -16.6669 O   0  0  0  0  0  0  0  0  0  0  0  0
  -28.5752  -29.6327  -17.5159 C   0  0  0  0  0  0  0  0  0  0  0  0
  -29.7330  -29.4179  -17.1910 O   0  0  0  0  0  0  0  0  0  0  0  0
  -28.0911  -29.9458  -18.8118 C   0  0  0  0  0  0  0  0  0  0  0  0
  -26.7852  -29.9860  -19.2419 C   0  0  0  0  0  0  0  0  0  0  0  0
  -26.8226  -30.7044  -20.4399 C   0  0  0  0  0  0  0  0  0  0  0  0
  -25.6834  -31.0367  -21.0863 N   0  0  0  0  0  0  0  0  0  0  0  0
  -25.3798  -32.2133  -22.0341 C   0  0  0  0  0  0  0  0  0  0  0  0
  -26.0255  -33.0996  -22.3366 O   0  0  0  0  0  0  0  0  0  0  0  0
  -23.9809  -31.7807  -22.5301 N   0  0  0  0  0  0  0  0  0  0  0  0
  -23.1613  -32.3182  -23.5656 C   0  0  0  0  0  0  0  0  0  0  0  0
  -21.8098  -32.8606  -23.0619 C   0  0  0  0  0  0  0  0  0  0  0  0
  -20.9180  -33.0672  -24.2863 C   0  0  0  0  0  0  0  0  0  0  0  0
  -21.0937  -31.8790  -22.1194 C   0  0  0  0  0  0  0  0  0  0  0  0
  -21.8897  -34.0862  -22.3123 O   0  0  0  0  0  0  0  0  0  0  0  0
  -22.7825  -35.0815  -22.7833 C   0  0  0  0  0  0  0  0  0  0  0  0
  -28.0707  -30.9612  -20.8261 N   0  0  0  0  0  0  0  0  0  0  0  0
  -28.8304  -30.3845  -19.8697 N   0  0  0  0  0  0  0  0  0  0  0  0
  -30.2642  -30.4048  -19.9852 C   0  0  0  0  0  0  0  0  0  0  0  0
  1  2  1  0
  2  3  1  0
  3  4  1  0
  4  5  2  0
  4  6  1  0
  6  7  2  0
  7  8  1  0
  8  9  1  0
  9 10  1  0
 10 11  2  0
 10 12  1  0
 12 13  1  0
 13 14  1  0
 14 15  1  0
 14 16  1  0
 14 17  1  0
 17 18  1  0
  8 19  2  0
 19 20  1  0
 20 21  1  0
 20  6  1  0
M  END
>  <id>  (684) 
436491

>  <inchikey>  (684) 
ASBZOVFYZXLTJH-UHFFFAOYSA-N

>  <alias>  (684) 
None

>  <smiles>  (684) 
CCOC(=O)c1cc(NC(=O)NCC(C)(C)OC)nn1C

>  <path>  (684) 
/opt/xchem-fragalysis-2/maxwin/RdRp_FFF/syndirella/mar_elabs/elabs_061/WVGFLLFSIMGYJN-UHFFFAOYSA-N/output/WVGFLLFSIMGYJN-UHFFFAOYSA-N-dfzEwH-2524-A/WVGFLLFSIMGYJN-UHFFFAOYSA-N-dfzEwH-2524-A.minimised.mol

>  <distance_score>  (684) 
1.052755

>  <energy_score>  (684) 
-7.887573

>  <compound>  (684) 
ASBZOVFYZXLTJH-UHFFFAOYSA-N

>  <compound_id>  (684) 
236246

>  <target>  (684) 
Flavi_NS5_RdRp

>  <tags>  (684) 
[]

>  <inspirations>  (684) 
{P Ã— 2}

>  <subsites>  (684) 
None

>  <reference>  (684) 
z0211a

>  <SLURM_JOB_ID>  (684) 
nan

>  <SLURM_JOB_NAME>  (684) 
nan

>  <csv_name>  (684) 
nan

>  <scratch_subdir>  (684) 
nan

>  <fragmenstein_runtime>  (684) 
nan

>  <fragmenstein_outcome>  (684) 
nan

>  <fragmenstein_mode>  (684) 
nan

>  <fragmenstein_error>  (684) 
nan

>  <exports>  (684) 
nan

>  <Multi-SuCOS>  (684) 
nan

>  <merge_set>  (684) 
nan

$$$$
NYWBUMNROUAHNQ-QMMMGPOBSA-N
     RDKit          3D

 21 21  0  0  0  0  0  0  0  0999 V2000
  -28.6374  -30.4483  -14.8534 C   0  0  0  0  0  0  0  0  0  0  0  0
  -27.3388  -30.1175  -15.5198 C   0  0  0  0  0  0  0  0  0  0  0  0
  -27.6630  -29.5764  -16.7906 O   0  0  0  0  0  0  0  0  0  0  0  0
  -26.5240  -29.2777  -17.4442 C   0  0  0  0  0  0  0  0  0  0  0  0
  -25.6200  -28.5914  -16.9829 O   0  0  0  0  0  0  0  0  0  0  0  0
  -26.4898  -29.9561  -18.6926 C   0  0  0  0  0  0  0  0  0  0  0  0
  -25.3283  -30.3771  -19.2785 C   0  0  0  0  0  0  0  0  0  0  0  0
  -25.6989  -31.0596  -20.4350 C   0  0  0  0  0  0  0  0  0  0  0  0
  -24.7384  -31.4894  -21.2817 N   0  0  0  0  0  0  0  0  0  0  0  0
  -24.7967  -32.4434  -22.3833 C   0  0  0  0  0  0  0  0  0  0  0  0
  -25.6595  -33.1158  -22.7459 O   0  0  0  0  0  0  0  0  0  0  0  0
  -23.3109  -32.2379  -22.9399 N   0  0  0  0  0  0  0  0  0  0  0  0
  -22.5472  -32.9165  -24.0254 C   0  0  0  0  0  0  0  0  0  0  0  0
  -22.8803  -33.7675  -24.8502 N   0  0  0  0  0  0  0  0  0  0  0  0
  -21.0858  -32.4336  -23.9058 C   0  0  1  0  0  0  0  0  0  0  0  0
  -20.9248  -31.0273  -23.8195 O   0  0  0  0  0  0  0  0  0  0  0  0
  -20.4491  -33.0901  -22.6631 C   0  0  0  0  0  0  0  0  0  0  0  0
  -20.3303  -32.2346  -21.4035 C   0  0  0  0  0  0  0  0  0  0  0  0
  -27.0206  -31.1384  -20.5585 N   0  0  0  0  0  0  0  0  0  0  0  0
  -27.4866  -30.3976  -19.5229 N   0  0  0  0  0  0  0  0  0  0  0  0
  -28.9023  -30.1232  -19.4492 C   0  0  0  0  0  0  0  0  0  0  0  0
  1  2  1  0
  2  3  1  0
  3  4  1  0
  4  5  2  0
  4  6  1  0
  6  7  2  0
  7  8  1  0
  8  9  1  0
  9 10  1  0
 10 11  2  0
 10 12  1  0
 12 13  1  0
 13 14  2  3
 13 15  1  0
 15 16  1  1
 15 17  1  0
 17 18  1  0
  8 19  2  0
 19 20  1  0
 20 21  1  0
 20  6  1  0
M  END
>  <id>  (685) 
436494

>  <inchikey>  (685) 
NYWBUMNROUAHNQ-QMMMGPOBSA-N

>  <alias>  (685) 
None

>  <smiles>  (685) 
CCOC(=O)c1cc(NC(=O)NC(=N)[C@@H](O)CC)nn1C

>  <path>  (685) 
/opt/xchem-fragalysis-2/maxwin/RdRp_FFF/syndirella/mar_elabs/elabs_061/WVGFLLFSIMGYJN-UHFFFAOYSA-N/output/WVGFLLFSIMGYJN-UHFFFAOYSA-N-dfzEwH-2530-B/WVGFLLFSIMGYJN-UHFFFAOYSA-N-dfzEwH-2530-B.minimised.mol

>  <distance_score>  (685) 
1.796282

>  <energy_score>  (685) 
-11.296811

>  <compound>  (685) 
NYWBUMNROUAHNQ-UHFFFAOYSA-N

>  <compound_id>  (685) 
236252

>  <target>  (685) 
Flavi_NS5_RdRp

>  <tags>  (685) 
[]

>  <inspirations>  (685) 
{P Ã— 2}

>  <subsites>  (685) 
None

>  <reference>  (685) 
z0211a

>  <SLURM_JOB_ID>  (685) 
nan

>  <SLURM_JOB_NAME>  (685) 
nan

>  <csv_name>  (685) 
nan

>  <scratch_subdir>  (685) 
nan

>  <fragmenstein_runtime>  (685) 
nan

>  <fragmenstein_outcome>  (685) 
nan

>  <fragmenstein_mode>  (685) 
nan

>  <fragmenstein_error>  (685) 
nan

>  <exports>  (685) 
nan

>  <Multi-SuCOS>  (685) 
nan

>  <merge_set>  (685) 
nan

$$$$
QJAOYCUVFYCWBY-CYBMUJFWSA-N
     RDKit          3D

 21 21  0  0  0  0  0  0  0  0999 V2000
  -21.2255  -33.2909  -25.9608 C   0  0  0  0  0  0  0  0  0  0  0  0
  -20.9443  -33.0382  -24.6741 C   0  0  0  0  0  0  0  0  0  0  0  0
  -21.8945  -32.8030  -23.5382 C   0  0  1  0  0  0  0  0  0  0  0  0
  -21.6880  -33.9304  -22.5094 C   0  0  0  0  0  0  0  0  0  0  0  0
  -21.4767  -31.6081  -22.8731 O   0  0  0  0  0  0  0  0  0  0  0  0
  -23.3651  -32.7261  -24.0054 C   0  0  0  0  0  0  0  0  0  0  0  0
  -24.1962  -32.4655  -22.8828 N   0  0  0  0  0  0  0  0  0  0  0  0
  -25.3589  -31.4823  -22.7154 C   0  0  0  0  0  0  0  0  0  0  0  0
  -25.8585  -30.8023  -23.4716 O   0  0  0  0  0  0  0  0  0  0  0  0
  -25.5785  -31.6161  -21.2071 N   0  0  0  0  0  0  0  0  0  0  0  0
  -26.3505  -30.9070  -20.3778 C   0  0  0  0  0  0  0  0  0  0  0  0
  -25.8228  -30.4620  -19.1746 C   0  0  0  0  0  0  0  0  0  0  0  0
  -26.8396  -29.7733  -18.5730 C   0  0  0  0  0  0  0  0  0  0  0  0
  -26.6595  -29.1142  -17.3315 C   0  0  0  0  0  0  0  0  0  0  0  0
  -25.6345  -28.5644  -16.9472 O   0  0  0  0  0  0  0  0  0  0  0  0
  -27.7600  -29.2581  -16.5761 O   0  0  0  0  0  0  0  0  0  0  0  0
  -27.4195  -30.0463  -15.4528 C   0  0  0  0  0  0  0  0  0  0  0  0
  -28.7225  -30.5269  -14.9058 C   0  0  0  0  0  0  0  0  0  0  0  0
  -27.9417  -29.9982  -19.3617 N   0  0  0  0  0  0  0  0  0  0  0  0
  -29.3406  -29.8109  -19.0757 C   0  0  0  0  0  0  0  0  0  0  0  0
  -27.6242  -30.5761  -20.5405 N   0  0  0  0  0  0  0  0  0  0  0  0
  1  2  2  0
  2  3  1  0
  3  4  1  1
  3  5  1  0
  3  6  1  0
  6  7  1  0
  7  8  1  0
  8  9  2  0
  8 10  1  0
 10 11  1  0
 11 12  1  0
 12 13  2  0
 13 14  1  0
 14 15  2  0
 14 16  1  0
 16 17  1  0
 17 18  1  0
 13 19  1  0
 19 20  1  0
 19 21  1  0
 21 11  2  0
M  END
>  <id>  (686) 
436497

>  <inchikey>  (686) 
QJAOYCUVFYCWBY-CYBMUJFWSA-N

>  <alias>  (686) 
None

>  <smiles>  (686) 
C=C[C@@](C)(O)CNC(=O)Nc1cc(C(=O)OCC)n(C)n1

>  <path>  (686) 
/opt/xchem-fragalysis-2/maxwin/RdRp_FFF/syndirella/mar_elabs/elabs_061/WVGFLLFSIMGYJN-UHFFFAOYSA-N/output/WVGFLLFSIMGYJN-UHFFFAOYSA-N-dfzEwH-2533-B/WVGFLLFSIMGYJN-UHFFFAOYSA-N-dfzEwH-2533-B.minimised.mol

>  <distance_score>  (686) 
1.506233

>  <energy_score>  (686) 
-0.059744

>  <compound>  (686) 
QJAOYCUVFYCWBY-UHFFFAOYSA-N

>  <compound_id>  (686) 
236255

>  <target>  (686) 
Flavi_NS5_RdRp

>  <tags>  (686) 
[]

>  <inspirations>  (686) 
{P Ã— 2}

>  <subsites>  (686) 
None

>  <reference>  (686) 
z0211a

>  <SLURM_JOB_ID>  (686) 
nan

>  <SLURM_JOB_NAME>  (686) 
nan

>  <csv_name>  (686) 
nan

>  <scratch_subdir>  (686) 
nan

>  <fragmenstein_runtime>  (686) 
nan

>  <fragmenstein_outcome>  (686) 
nan

>  <fragmenstein_mode>  (686) 
nan

>  <fragmenstein_error>  (686) 
nan

>  <exports>  (686) 
nan

>  <Multi-SuCOS>  (686) 
nan

>  <merge_set>  (686) 
nan

$$$$
SOEYJCVGRZWXDT-VXNVDRBHSA-N
     RDKit          3D

 21 21  0  0  0  0  0  0  0  0999 V2000
  -28.2342  -30.7658  -14.7115 C   0  0  0  0  0  0  0  0  0  0  0  0
  -27.0238  -30.2323  -15.4337 C   0  0  0  0  0  0  0  0  0  0  0  0
  -27.3477  -29.1365  -16.2904 O   0  0  0  0  0  0  0  0  0  0  0  0
  -28.4199  -29.3301  -17.1073 C   0  0  0  0  0  0  0  0  0  0  0  0
  -29.5708  -29.1259  -16.7536 O   0  0  0  0  0  0  0  0  0  0  0  0
  -27.9711  -29.7578  -18.3927 C   0  0  0  0  0  0  0  0  0  0  0  0
  -26.6734  -30.0117  -18.7871 C   0  0  0  0  0  0  0  0  0  0  0  0
  -26.7557  -30.4040  -20.1207 C   0  0  0  0  0  0  0  0  0  0  0  0
  -25.6779  -30.7858  -20.8361 N   0  0  0  0  0  0  0  0  0  0  0  0
  -25.5020  -30.9663  -22.3548 C   0  0  0  0  0  0  0  0  0  0  0  0
  -26.2173  -30.7456  -23.2073 O   0  0  0  0  0  0  0  0  0  0  0  0
  -24.1108  -31.6285  -22.3684 N   0  0  0  0  0  0  0  0  0  0  0  0
  -23.2947  -32.0629  -23.4737 C   0  0  2  0  0  0  0  0  0  0  0  0
  -24.0199  -33.1556  -24.2557 C   0  0  0  0  0  0  0  0  0  0  0  0
  -21.9464  -32.5055  -22.8921 C   0  0  2  0  0  0  0  0  0  0  0  0
  -21.2582  -31.4050  -22.2861 O   0  0  0  0  0  0  0  0  0  0  0  0
  -21.0366  -33.2119  -23.8796 C   0  0  0  0  0  0  0  0  0  0  0  0
  -20.9109  -32.5514  -25.1316 O   0  0  0  0  0  0  0  0  0  0  0  0
  -28.0074  -30.3972  -20.5637 N   0  0  0  0  0  0  0  0  0  0  0  0
  -28.7385  -30.0532  -19.4886 N   0  0  0  0  0  0  0  0  0  0  0  0
  -30.1705  -30.1391  -19.6027 C   0  0  0  0  0  0  0  0  0  0  0  0
  1  2  1  0
  2  3  1  0
  3  4  1  0
  4  5  2  0
  4  6  1  0
  6  7  2  0
  7  8  1  0
  8  9  1  0
  9 10  1  0
 10 11  2  0
 10 12  1  0
 12 13  1  0
 13 14  1  1
 13 15  1  0
 15 16  1  6
 15 17  1  0
 17 18  1  0
  8 19  2  0
 19 20  1  0
 20 21  1  0
 20  6  1  0
M  END
>  <id>  (687) 
436499

>  <inchikey>  (687) 
SOEYJCVGRZWXDT-VXNVDRBHSA-N

>  <alias>  (687) 
None

>  <smiles>  (687) 
CCOC(=O)c1cc(NC(=O)N[C@H](C)[C@H](O)CO)nn1C

>  <path>  (687) 
/opt/xchem-fragalysis-2/maxwin/RdRp_FFF/syndirella/mar_elabs/elabs_061/WVGFLLFSIMGYJN-UHFFFAOYSA-N/output/WVGFLLFSIMGYJN-UHFFFAOYSA-N-dfzEwH-2535-A/WVGFLLFSIMGYJN-UHFFFAOYSA-N-dfzEwH-2535-A.minimised.mol

>  <distance_score>  (687) 
0.924531

>  <energy_score>  (687) 
-7.163648

>  <compound>  (687) 
SOEYJCVGRZWXDT-UHFFFAOYSA-N

>  <compound_id>  (687) 
236257

>  <target>  (687) 
Flavi_NS5_RdRp

>  <tags>  (687) 
[]

>  <inspirations>  (687) 
{P Ã— 2}

>  <subsites>  (687) 
None

>  <reference>  (687) 
z0211a

>  <SLURM_JOB_ID>  (687) 
nan

>  <SLURM_JOB_NAME>  (687) 
nan

>  <csv_name>  (687) 
nan

>  <scratch_subdir>  (687) 
nan

>  <fragmenstein_runtime>  (687) 
nan

>  <fragmenstein_outcome>  (687) 
nan

>  <fragmenstein_mode>  (687) 
nan

>  <fragmenstein_error>  (687) 
nan

>  <exports>  (687) 
nan

>  <Multi-SuCOS>  (687) 
nan

>  <merge_set>  (687) 
nan

$$$$
UATOOTBROWPIKC-UHFFFAOYSA-N
     RDKit          3D

 21 21  0  0  0  0  0  0  0  0999 V2000
  -25.0248  -32.1099  -13.5659 C   0  0  0  0  0  0  0  0  0  0  0  0
  -25.1409  -31.5003  -14.9464 C   0  0  0  0  0  0  0  0  0  0  0  0
  -25.7390  -30.1968  -14.8356 O   0  0  0  0  0  0  0  0  0  0  0  0
  -26.9076  -30.0246  -15.5205 C   0  0  0  0  0  0  0  0  0  0  0  0
  -27.9783  -29.8729  -14.9488 O   0  0  0  0  0  0  0  0  0  0  0  0
  -26.7181  -29.9688  -16.9474 C   0  0  0  0  0  0  0  0  0  0  0  0
  -25.5733  -30.0805  -17.7177 C   0  0  0  0  0  0  0  0  0  0  0  0
  -26.0309  -30.3068  -19.0274 C   0  0  0  0  0  0  0  0  0  0  0  0
  -25.2414  -30.7477  -20.0404 N   0  0  0  0  0  0  0  0  0  0  0  0
  -25.5927  -31.2765  -21.3735 C   0  0  0  0  0  0  0  0  0  0  0  0
  -26.6181  -31.3671  -21.8944 O   0  0  0  0  0  0  0  0  0  0  0  0
  -24.1242  -31.7628  -21.8268 N   0  0  0  0  0  0  0  0  0  0  0  0
  -23.6146  -32.3883  -23.1033 C   0  0  0  0  0  0  0  0  0  0  0  0
  -24.2025  -32.7739  -24.1163 N   0  0  0  0  0  0  0  0  0  0  0  0
  -22.0841  -32.5940  -22.9098 C   0  0  0  0  0  0  0  0  0  0  0  0
  -21.3516  -32.8765  -24.2134 C   0  0  0  0  0  0  0  0  0  0  0  0
  -21.8469  -33.7460  -21.9300 C   0  0  0  0  0  0  0  0  0  0  0  0
  -21.5360  -31.4208  -22.2980 O   0  0  0  0  0  0  0  0  0  0  0  0
  -27.3389  -30.1014  -19.1262 N   0  0  0  0  0  0  0  0  0  0  0  0
  -27.7369  -29.8614  -17.8660 N   0  0  0  0  0  0  0  0  0  0  0  0
  -29.1413  -29.6404  -17.6070 C   0  0  0  0  0  0  0  0  0  0  0  0
  1  2  1  0
  2  3  1  0
  3  4  1  0
  4  5  2  0
  4  6  1  0
  6  7  2  0
  7  8  1  0
  8  9  1  0
  9 10  1  0
 10 11  2  0
 10 12  1  0
 12 13  1  0
 13 14  2  3
 13 15  1  0
 15 16  1  0
 15 17  1  0
 15 18  1  0
  8 19  2  0
 19 20  1  0
 20 21  1  0
 20  6  1  0
M  END
>  <id>  (688) 
436505

>  <inchikey>  (688) 
UATOOTBROWPIKC-UHFFFAOYSA-N

>  <alias>  (688) 
None

>  <smiles>  (688) 
CCOC(=O)c1cc(NC(=O)NC(=N)C(C)(C)O)nn1C

>  <path>  (688) 
/opt/xchem-fragalysis-2/maxwin/RdRp_FFF/syndirella/mar_elabs/elabs_061/WVGFLLFSIMGYJN-UHFFFAOYSA-N/output/WVGFLLFSIMGYJN-UHFFFAOYSA-N-dfzEwH-2540-A/WVGFLLFSIMGYJN-UHFFFAOYSA-N-dfzEwH-2540-A.minimised.mol

>  <distance_score>  (688) 
1.990382

>  <energy_score>  (688) 
-8.623005

>  <compound>  (688) 
UATOOTBROWPIKC-UHFFFAOYSA-N

>  <compound_id>  (688) 
236262

>  <target>  (688) 
Flavi_NS5_RdRp

>  <tags>  (688) 
[]

>  <inspirations>  (688) 
{P Ã— 2}

>  <subsites>  (688) 
None

>  <reference>  (688) 
z0211a

>  <SLURM_JOB_ID>  (688) 
nan

>  <SLURM_JOB_NAME>  (688) 
nan

>  <csv_name>  (688) 
nan

>  <scratch_subdir>  (688) 
nan

>  <fragmenstein_runtime>  (688) 
nan

>  <fragmenstein_outcome>  (688) 
nan

>  <fragmenstein_mode>  (688) 
nan

>  <fragmenstein_error>  (688) 
nan

>  <exports>  (688) 
nan

>  <Multi-SuCOS>  (688) 
nan

>  <merge_set>  (688) 
nan

$$$$
WJTIJVWFOLJJGD-SSDOTTSWSA-N
     RDKit          3D

 21 21  0  0  0  0  0  0  0  0999 V2000
  -26.7932  -31.0189  -14.7370 C   0  0  0  0  0  0  0  0  0  0  0  0
  -28.0818  -30.2903  -15.0509 C   0  0  0  0  0  0  0  0  0  0  0  0
  -27.8663  -29.6265  -16.2882 O   0  0  0  0  0  0  0  0  0  0  0  0
  -28.9102  -29.7295  -17.1467 C   0  0  0  0  0  0  0  0  0  0  0  0
  -30.0828  -29.7934  -16.8064 O   0  0  0  0  0  0  0  0  0  0  0  0
  -28.3799  -29.8465  -18.4704 C   0  0  0  0  0  0  0  0  0  0  0  0
  -27.0581  -29.9986  -18.8613 C   0  0  0  0  0  0  0  0  0  0  0  0
  -27.1009  -30.2359  -20.2381 C   0  0  0  0  0  0  0  0  0  0  0  0
  -26.0589  -30.6272  -21.0083 N   0  0  0  0  0  0  0  0  0  0  0  0
  -25.9184  -30.6874  -22.5484 C   0  0  0  0  0  0  0  0  0  0  0  0
  -26.6319  -30.3455  -23.3652 O   0  0  0  0  0  0  0  0  0  0  0  0
  -24.5699  -31.4414  -22.6494 N   0  0  0  0  0  0  0  0  0  0  0  0
  -23.9020  -31.9952  -23.7858 C   0  0  0  0  0  0  0  0  0  0  0  0
  -22.4007  -32.1916  -23.6097 C   0  0  1  0  0  0  0  0  0  0  0  0
  -22.1072  -32.6899  -22.2910 O   0  0  0  0  0  0  0  0  0  0  0  0
  -21.9967  -33.2092  -24.6732 C   0  0  0  0  0  0  0  0  0  0  0  0
  -21.5098  -33.0112  -25.7742 O   0  0  0  0  0  0  0  0  0  0  0  0
  -22.3427  -34.4658  -24.2903 O   0  0  0  0  0  0  0  0  0  0  0  0
  -28.3378  -30.1377  -20.7105 N   0  0  0  0  0  0  0  0  0  0  0  0
  -29.1030  -29.9920  -19.6219 N   0  0  0  0  0  0  0  0  0  0  0  0
  -30.5193  -30.1869  -19.7685 C   0  0  0  0  0  0  0  0  0  0  0  0
  1  2  1  0
  2  3  1  0
  3  4  1  0
  4  5  2  0
  4  6  1  0
  6  7  2  0
  7  8  1  0
  8  9  1  0
  9 10  1  0
 10 11  2  0
 10 12  1  0
 12 13  1  0
 13 14  1  0
 14 15  1  1
 14 16  1  0
 16 17  2  0
 16 18  1  0
  8 19  2  0
 19 20  1  0
 20 21  1  0
 20  6  1  0
M  END
>  <id>  (689) 
436521

>  <inchikey>  (689) 
WJTIJVWFOLJJGD-SSDOTTSWSA-N

>  <alias>  (689) 
None

>  <smiles>  (689) 
CCOC(=O)c1cc(NC(=O)NC[C@@H](O)C(=O)O)nn1C

>  <path>  (689) 
/opt/xchem-fragalysis-2/maxwin/RdRp_FFF/syndirella/mar_elabs/elabs_061/WVGFLLFSIMGYJN-UHFFFAOYSA-N/output/WVGFLLFSIMGYJN-UHFFFAOYSA-N-dfzEwH-2637-B/WVGFLLFSIMGYJN-UHFFFAOYSA-N-dfzEwH-2637-B.minimised.mol

>  <distance_score>  (689) 
0.944133

>  <energy_score>  (689) 
-18.647275

>  <compound>  (689) 
WJTIJVWFOLJJGD-UHFFFAOYSA-N

>  <compound_id>  (689) 
236357

>  <target>  (689) 
Flavi_NS5_RdRp

>  <tags>  (689) 
[]

>  <inspirations>  (689) 
{P Ã— 2}

>  <subsites>  (689) 
None

>  <reference>  (689) 
z0211a

>  <SLURM_JOB_ID>  (689) 
nan

>  <SLURM_JOB_NAME>  (689) 
nan

>  <csv_name>  (689) 
nan

>  <scratch_subdir>  (689) 
nan

>  <fragmenstein_runtime>  (689) 
nan

>  <fragmenstein_outcome>  (689) 
nan

>  <fragmenstein_mode>  (689) 
nan

>  <fragmenstein_error>  (689) 
nan

>  <exports>  (689) 
nan

>  <Multi-SuCOS>  (689) 
nan

>  <merge_set>  (689) 
nan

$$$$
WSYGPWNEMZWFRP-LURJTMIESA-N
     RDKit          3D

 19 19  0  0  0  0  0  0  0  0999 V2000
  -28.2318  -30.2125  -14.9403 C   0  0  0  0  0  0  0  0  0  0  0  0
  -27.8208  -29.7870  -16.2252 O   0  0  0  0  0  0  0  0  0  0  0  0
  -28.8268  -29.7780  -17.1366 C   0  0  0  0  0  0  0  0  0  0  0  0
  -30.0160  -29.7312  -16.8570 O   0  0  0  0  0  0  0  0  0  0  0  0
  -28.2465  -29.9312  -18.4363 C   0  0  0  0  0  0  0  0  0  0  0  0
  -26.9119  -30.1039  -18.7627 C   0  0  0  0  0  0  0  0  0  0  0  0
  -26.8899  -30.3938  -20.1302 C   0  0  0  0  0  0  0  0  0  0  0  0
  -25.7759  -30.7409  -20.8197 N   0  0  0  0  0  0  0  0  0  0  0  0
  -25.5429  -30.8783  -22.3429 C   0  0  0  0  0  0  0  0  0  0  0  0
  -26.2332  -30.6454  -23.2152 O   0  0  0  0  0  0  0  0  0  0  0  0
  -24.1249  -31.4971  -22.3280 N   0  0  0  0  0  0  0  0  0  0  0  0
  -23.2609  -31.8559  -23.4078 C   0  0  0  0  0  0  0  0  0  0  0  0
  -22.0877  -32.7264  -22.9744 C   0  0  2  0  0  0  0  0  0  0  0  0
  -21.5162  -32.2049  -21.7681 O   0  0  0  0  0  0  0  0  0  0  0  0
  -21.0272  -32.7634  -24.0762 C   0  0  0  0  0  0  0  0  0  0  0  0
  -21.5141  -33.2836  -25.3097 O   0  0  0  0  0  0  0  0  0  0  0  0
  -28.1064  -30.3263  -20.6612 N   0  0  0  0  0  0  0  0  0  0  0  0
  -28.9182  -30.0832  -19.6186 N   0  0  0  0  0  0  0  0  0  0  0  0
  -30.3369  -30.1699  -19.8390 C   0  0  0  0  0  0  0  0  0  0  0  0
  1  2  1  0
  2  3  1  0
  3  4  2  0
  3  5  1  0
  5  6  2  0
  6  7  1  0
  7  8  1  0
  8  9  1  0
  9 10  2  0
  9 11  1  0
 11 12  1  0
 12 13  1  0
 13 14  1  1
 13 15  1  0
 15 16  1  0
  7 17  2  0
 17 18  1  0
 18 19  1  0
 18  5  1  0
M  END
>  <id>  (690) 
436972

>  <inchikey>  (690) 
WSYGPWNEMZWFRP-LURJTMIESA-N

>  <alias>  (690) 
None

>  <smiles>  (690) 
COC(=O)c1cc(NC(=O)NC[C@H](O)CO)nn1C

>  <path>  (690) 
/opt/xchem-fragalysis-2/maxwin/RdRp_FFF/syndirella/mar_elabs/elabs_061/WVGFLLFSIMGYJN-UHFFFAOYSA-N/output/WVGFLLFSIMGYJN-UHFFFAOYSA-N-2SFedS-72-A/WVGFLLFSIMGYJN-UHFFFAOYSA-N-2SFedS-72-A.minimised.mol

>  <distance_score>  (690) 
0.912965

>  <energy_score>  (690) 
-25.717953

>  <compound>  (690) 
WSYGPWNEMZWFRP-UHFFFAOYSA-N

>  <compound_id>  (690) 
234765

>  <target>  (690) 
Flavi_NS5_RdRp

>  <tags>  (690) 
[]

>  <inspirations>  (690) 
{P Ã— 2}

>  <subsites>  (690) 
None

>  <reference>  (690) 
z0211a

>  <SLURM_JOB_ID>  (690) 
nan

>  <SLURM_JOB_NAME>  (690) 
nan

>  <csv_name>  (690) 
nan

>  <scratch_subdir>  (690) 
nan

>  <fragmenstein_runtime>  (690) 
nan

>  <fragmenstein_outcome>  (690) 
nan

>  <fragmenstein_mode>  (690) 
nan

>  <fragmenstein_error>  (690) 
nan

>  <exports>  (690) 
nan

>  <Multi-SuCOS>  (690) 
nan

>  <merge_set>  (690) 
nan

$$$$
WFTHCXXBAPHZEO-ZCFIWIBFSA-N
     RDKit          3D

 19 19  0  0  0  0  0  0  0  0999 V2000
  -28.2263  -30.2231  -14.9450 C   0  0  0  0  0  0  0  0  0  0  0  0
  -27.8156  -29.7956  -16.2299 O   0  0  0  0  0  0  0  0  0  0  0  0
  -28.8225  -29.7696  -17.1401 C   0  0  0  0  0  0  0  0  0  0  0  0
  -30.0111  -29.7131  -16.8582 O   0  0  0  0  0  0  0  0  0  0  0  0
  -28.2444  -29.9185  -18.4420 C   0  0  0  0  0  0  0  0  0  0  0  0
  -26.9114  -30.1022  -18.7688 C   0  0  0  0  0  0  0  0  0  0  0  0
  -26.8908  -30.3818  -20.1387 C   0  0  0  0  0  0  0  0  0  0  0  0
  -25.7841  -30.7668  -20.8200 N   0  0  0  0  0  0  0  0  0  0  0  0
  -25.5372  -30.8902  -22.3429 C   0  0  0  0  0  0  0  0  0  0  0  0
  -26.2052  -30.6131  -23.2202 O   0  0  0  0  0  0  0  0  0  0  0  0
  -24.1455  -31.5682  -22.3206 N   0  0  0  0  0  0  0  0  0  0  0  0
  -23.3615  -32.1170  -23.3911 C   0  0  0  0  0  0  0  0  0  0  0  0
  -21.9596  -32.4912  -22.9239 C   0  0  2  0  0  0  0  0  0  0  0  0
  -21.3570  -31.4197  -22.1889 O   0  0  0  0  0  0  0  0  0  0  0  0
  -21.0813  -32.8584  -24.1052 C   0  0  0  0  0  0  0  0  0  0  0  0
  -21.6959  -33.7837  -24.8870 F   0  0  0  0  0  0  0  0  0  0  0  0
  -28.1035  -30.2848  -20.6732 N   0  0  0  0  0  0  0  0  0  0  0  0
  -28.9161  -30.0591  -19.6261 N   0  0  0  0  0  0  0  0  0  0  0  0
  -30.3341  -30.1607  -19.8441 C   0  0  0  0  0  0  0  0  0  0  0  0
  1  2  1  0
  2  3  1  0
  3  4  2  0
  3  5  1  0
  5  6  2  0
  6  7  1  0
  7  8  1  0
  8  9  1  0
  9 10  2  0
  9 11  1  0
 11 12  1  0
 12 13  1  0
 13 14  1  6
 13 15  1  0
 15 16  1  0
  7 17  2  0
 17 18  1  0
 18 19  1  0
 18  5  1  0
M  END
>  <id>  (691) 
436977

>  <inchikey>  (691) 
WFTHCXXBAPHZEO-ZCFIWIBFSA-N

>  <alias>  (691) 
None

>  <smiles>  (691) 
COC(=O)c1cc(NC(=O)NC[C@H](O)CF)nn1C

>  <path>  (691) 
/opt/xchem-fragalysis-2/maxwin/RdRp_FFF/syndirella/mar_elabs/elabs_061/WVGFLLFSIMGYJN-UHFFFAOYSA-N/output/WVGFLLFSIMGYJN-UHFFFAOYSA-N-2SFedS-75-A/WVGFLLFSIMGYJN-UHFFFAOYSA-N-2SFedS-75-A.minimised.mol

>  <distance_score>  (691) 
1.015419

>  <energy_score>  (691) 
-29.136434

>  <compound>  (691) 
WFTHCXXBAPHZEO-UHFFFAOYSA-N

>  <compound_id>  (691) 
234764

>  <target>  (691) 
Flavi_NS5_RdRp

>  <tags>  (691) 
[]

>  <inspirations>  (691) 
{P Ã— 2}

>  <subsites>  (691) 
None

>  <reference>  (691) 
z0211a

>  <SLURM_JOB_ID>  (691) 
nan

>  <SLURM_JOB_NAME>  (691) 
nan

>  <csv_name>  (691) 
nan

>  <scratch_subdir>  (691) 
nan

>  <fragmenstein_runtime>  (691) 
nan

>  <fragmenstein_outcome>  (691) 
nan

>  <fragmenstein_mode>  (691) 
nan

>  <fragmenstein_error>  (691) 
nan

>  <exports>  (691) 
nan

>  <Multi-SuCOS>  (691) 
nan

>  <merge_set>  (691) 
nan

$$$$
NAYFNWQHDMQZFP-YFKPBYRVSA-N
     RDKit          3D

 19 19  0  0  0  0  0  0  0  0999 V2000
  -28.7823  -30.1286  -15.1514 C   0  0  0  0  0  0  0  0  0  0  0  0
  -28.6529  -29.9445  -16.5528 O   0  0  0  0  0  0  0  0  0  0  0  0
  -27.3906  -29.6395  -16.9446 C   0  0  0  0  0  0  0  0  0  0  0  0
  -26.5117  -29.2226  -16.2018 O   0  0  0  0  0  0  0  0  0  0  0  0
  -27.2035  -29.9706  -18.3260 C   0  0  0  0  0  0  0  0  0  0  0  0
  -25.9842  -30.1151  -18.9635 C   0  0  0  0  0  0  0  0  0  0  0  0
  -26.2676  -30.8601  -20.1174 C   0  0  0  0  0  0  0  0  0  0  0  0
  -25.3282  -31.3935  -20.9336 N   0  0  0  0  0  0  0  0  0  0  0  0
  -25.4014  -32.5285  -21.8642 C   0  0  0  0  0  0  0  0  0  0  0  0
  -26.2524  -33.2777  -22.0610 O   0  0  0  0  0  0  0  0  0  0  0  0
  -23.9606  -32.3225  -22.5883 N   0  0  0  0  0  0  0  0  0  0  0  0
  -23.1909  -33.1434  -23.7294 C   0  0  0  0  0  0  0  0  0  0  0  0
  -23.6055  -34.3618  -24.6100 S   0  0  0  0  0  0  0  0  0  0  0  0
  -21.8722  -32.3485  -23.8237 C   0  0  2  0  0  0  0  0  0  0  0  0
  -20.8847  -32.7232  -24.9054 C   0  0  0  0  0  0  0  0  0  0  0  0
  -21.2291  -32.3899  -22.5458 O   0  0  0  0  0  0  0  0  0  0  0  0
  -27.5757  -30.9966  -20.3045 N   0  0  0  0  0  0  0  0  0  0  0  0
  -28.1309  -30.3577  -19.2615 N   0  0  0  0  0  0  0  0  0  0  0  0
  -29.5685  -30.2306  -19.2448 C   0  0  0  0  0  0  0  0  0  0  0  0
  1  2  1  0
  2  3  1  0
  3  4  2  0
  3  5  1  0
  5  6  2  0
  6  7  1  0
  7  8  1  0
  8  9  1  0
  9 10  2  0
  9 11  1  0
 11 12  1  0
 12 13  2  0
 12 14  1  0
 14 15  1  6
 14 16  1  0
  7 17  2  0
 17 18  1  0
 18 19  1  0
 18  5  1  0
M  END
>  <id>  (692) 
436987

>  <inchikey>  (692) 
NAYFNWQHDMQZFP-YFKPBYRVSA-N

>  <alias>  (692) 
None

>  <smiles>  (692) 
COC(=O)c1cc(NC(=O)NC(=S)[C@H](C)O)nn1C

>  <path>  (692) 
/opt/xchem-fragalysis-2/maxwin/RdRp_FFF/syndirella/mar_elabs/elabs_061/WVGFLLFSIMGYJN-UHFFFAOYSA-N/output/WVGFLLFSIMGYJN-UHFFFAOYSA-N-2SFedS-84-A/WVGFLLFSIMGYJN-UHFFFAOYSA-N-2SFedS-84-A.minimised.mol

>  <distance_score>  (692) 
1.396615

>  <energy_score>  (692) 
-13.141376

>  <compound>  (692) 
NAYFNWQHDMQZFP-UHFFFAOYSA-N

>  <compound_id>  (692) 
234753

>  <target>  (692) 
Flavi_NS5_RdRp

>  <tags>  (692) 
[]

>  <inspirations>  (692) 
{P Ã— 2}

>  <subsites>  (692) 
None

>  <reference>  (692) 
z0211a

>  <SLURM_JOB_ID>  (692) 
nan

>  <SLURM_JOB_NAME>  (692) 
nan

>  <csv_name>  (692) 
nan

>  <scratch_subdir>  (692) 
nan

>  <fragmenstein_runtime>  (692) 
nan

>  <fragmenstein_outcome>  (692) 
nan

>  <fragmenstein_mode>  (692) 
nan

>  <fragmenstein_error>  (692) 
nan

>  <exports>  (692) 
nan

>  <Multi-SuCOS>  (692) 
nan

>  <merge_set>  (692) 
nan

$$$$
PSEIVBMGFCBFAB-SSDOTTSWSA-N
     RDKit          3D

 19 19  0  0  0  0  0  0  0  0999 V2000
  -21.8218  -34.6944  -21.9887 C   0  0  0  0  0  0  0  0  0  0  0  0
  -21.0872  -33.6055  -22.7678 C   0  0  0  0  0  0  0  0  0  0  0  0
  -21.8519  -32.3077  -22.7547 C   0  0  1  0  0  0  0  0  0  0  0  0
  -20.9910  -31.2511  -23.1707 O   0  0  0  0  0  0  0  0  0  0  0  0
  -23.1006  -32.3648  -23.6461 C   0  0  0  0  0  0  0  0  0  0  0  0
  -24.0652  -31.5995  -22.9337 N   0  0  0  0  0  0  0  0  0  0  0  0
  -25.3817  -32.0314  -22.2589 C   0  0  0  0  0  0  0  0  0  0  0  0
  -25.9051  -33.0390  -22.2483 O   0  0  0  0  0  0  0  0  0  0  0  0
  -25.7214  -30.7311  -21.5257 N   0  0  0  0  0  0  0  0  0  0  0  0
  -26.6677  -30.4697  -20.6167 C   0  0  0  0  0  0  0  0  0  0  0  0
  -27.9885  -30.9006  -20.5609 C   0  0  0  0  0  0  0  0  0  0  0  0
  -28.4897  -30.3608  -19.3934 C   0  0  0  0  0  0  0  0  0  0  0  0
  -29.7968  -30.4883  -18.8357 C   0  0  0  0  0  0  0  0  0  0  0  0
  -30.7064  -31.1536  -19.3021 O   0  0  0  0  0  0  0  0  0  0  0  0
  -29.8189  -29.8236  -17.6595 O   0  0  0  0  0  0  0  0  0  0  0  0
  -30.6896  -30.3026  -16.6592 C   0  0  0  0  0  0  0  0  0  0  0  0
  -27.4090  -29.7689  -18.8021 N   0  0  0  0  0  0  0  0  0  0  0  0
  -27.2359  -29.3582  -17.4431 C   0  0  0  0  0  0  0  0  0  0  0  0
  -26.3483  -29.6875  -19.5954 N   0  0  0  0  0  0  0  0  0  0  0  0
  1  2  1  0
  2  3  1  0
  3  4  1  6
  3  5  1  0
  5  6  1  0
  6  7  1  0
  7  8  2  0
  7  9  1  0
  9 10  1  0
 10 11  1  0
 11 12  2  0
 12 13  1  0
 13 14  2  0
 13 15  1  0
 15 16  1  0
 12 17  1  0
 17 18  1  0
 17 19  1  0
 19 10  2  0
M  END
>  <id>  (693) 
436989

>  <inchikey>  (693) 
PSEIVBMGFCBFAB-SSDOTTSWSA-N

>  <alias>  (693) 
None

>  <smiles>  (693) 
CC[C@@H](O)CNC(=O)Nc1cc(C(=O)OC)n(C)n1

>  <path>  (693) 
/opt/xchem-fragalysis-2/maxwin/RdRp_FFF/syndirella/mar_elabs/elabs_061/WVGFLLFSIMGYJN-UHFFFAOYSA-N/output/WVGFLLFSIMGYJN-UHFFFAOYSA-N-2SFedS-85-B/WVGFLLFSIMGYJN-UHFFFAOYSA-N-2SFedS-85-B.minimised.mol

>  <distance_score>  (693) 
1.637378

>  <energy_score>  (693) 
-12.906153

>  <compound>  (693) 
PSEIVBMGFCBFAB-UHFFFAOYSA-N

>  <compound_id>  (693) 
234752

>  <target>  (693) 
Flavi_NS5_RdRp

>  <tags>  (693) 
[]

>  <inspirations>  (693) 
{P Ã— 2}

>  <subsites>  (693) 
None

>  <reference>  (693) 
z0211a

>  <SLURM_JOB_ID>  (693) 
nan

>  <SLURM_JOB_NAME>  (693) 
nan

>  <csv_name>  (693) 
nan

>  <scratch_subdir>  (693) 
nan

>  <fragmenstein_runtime>  (693) 
nan

>  <fragmenstein_outcome>  (693) 
nan

>  <fragmenstein_mode>  (693) 
nan

>  <fragmenstein_error>  (693) 
nan

>  <exports>  (693) 
nan

>  <Multi-SuCOS>  (693) 
nan

>  <merge_set>  (693) 
nan

$$$$
XWTOJMABMPEUHQ-UHFFFAOYSA-N
     RDKit          3D

 19 20  0  0  0  0  0  0  0  0999 V2000
  -27.8854  -30.0525  -14.9611 C   0  0  0  0  0  0  0  0  0  0  0  0
  -27.5530  -29.8068  -16.3129 O   0  0  0  0  0  0  0  0  0  0  0  0
  -28.6028  -29.8146  -17.1716 C   0  0  0  0  0  0  0  0  0  0  0  0
  -29.7787  -29.7730  -16.8404 O   0  0  0  0  0  0  0  0  0  0  0  0
  -28.0737  -29.9781  -18.4933 C   0  0  0  0  0  0  0  0  0  0  0  0
  -26.7485  -30.1308  -18.8607 C   0  0  0  0  0  0  0  0  0  0  0  0
  -26.7567  -30.4221  -20.2286 C   0  0  0  0  0  0  0  0  0  0  0  0
  -25.6302  -30.7042  -20.9305 N   0  0  0  0  0  0  0  0  0  0  0  0
  -25.4182  -30.8925  -22.4442 C   0  0  0  0  0  0  0  0  0  0  0  0
  -26.1463  -30.7620  -23.3141 O   0  0  0  0  0  0  0  0  0  0  0  0
  -23.9679  -31.3450  -22.4386 N   0  0  0  0  0  0  0  0  0  0  0  0
  -23.0368  -31.6569  -23.5803 C   0  0  0  0  0  0  0  0  0  0  0  0
  -22.4114  -32.7254  -22.7235 C   0  0  0  0  0  0  0  0  0  0  0  0
  -21.8146  -33.8518  -23.5258 C   0  0  0  0  0  0  0  0  0  0  0  0
  -21.4542  -32.2933  -21.7249 O   0  0  0  0  0  0  0  0  0  0  0  0
  -23.8549  -32.8890  -22.2816 C   0  0  0  0  0  0  0  0  0  0  0  0
  -27.9930  -30.4033  -20.7200 N   0  0  0  0  0  0  0  0  0  0  0  0
  -28.7769  -30.1361  -19.6564 N   0  0  0  0  0  0  0  0  0  0  0  0
  -30.2037  -30.1666  -19.8415 C   0  0  0  0  0  0  0  0  0  0  0  0
  1  2  1  0
  2  3  1  0
  3  4  2  0
  3  5  1  0
  5  6  2  0
  6  7  1  0
  7  8  1  0
  8  9  1  0
  9 10  2  0
  9 11  1  0
 11 12  1  0
 12 13  1  0
 13 14  1  0
 13 15  1  0
 13 16  1  0
  7 17  2  0
 17 18  1  0
 18 19  1  0
 18  5  1  0
 16 11  1  0
M  END
>  <id>  (694) 
436992

>  <inchikey>  (694) 
XWTOJMABMPEUHQ-UHFFFAOYSA-N

>  <alias>  (694) 
None

>  <smiles>  (694) 
COC(=O)c1cc(NC(=O)N2CC(C)(O)C2)nn1C

>  <path>  (694) 
/opt/xchem-fragalysis-2/maxwin/RdRp_FFF/syndirella/mar_elabs/elabs_061/WVGFLLFSIMGYJN-UHFFFAOYSA-N/output/WVGFLLFSIMGYJN-UHFFFAOYSA-N-2SFedS-92-A/WVGFLLFSIMGYJN-UHFFFAOYSA-N-2SFedS-92-A.minimised.mol

>  <distance_score>  (694) 
1.169186

>  <energy_score>  (694) 
-23.587533

>  <compound>  (694) 
XWTOJMABMPEUHQ-UHFFFAOYSA-N

>  <compound_id>  (694) 
234776

>  <target>  (694) 
Flavi_NS5_RdRp

>  <tags>  (694) 
[]

>  <inspirations>  (694) 
{P Ã— 2}

>  <subsites>  (694) 
None

>  <reference>  (694) 
z0211a

>  <SLURM_JOB_ID>  (694) 
nan

>  <SLURM_JOB_NAME>  (694) 
nan

>  <csv_name>  (694) 
nan

>  <scratch_subdir>  (694) 
nan

>  <fragmenstein_runtime>  (694) 
nan

>  <fragmenstein_outcome>  (694) 
nan

>  <fragmenstein_mode>  (694) 
nan

>  <fragmenstein_error>  (694) 
nan

>  <exports>  (694) 
nan

>  <Multi-SuCOS>  (694) 
nan

>  <merge_set>  (694) 
nan

$$$$
AXTUCNAWLYARSH-LURJTMIESA-N
     RDKit          3D

 20 20  0  0  0  0  0  0  0  0999 V2000
  -28.1827  -30.5686  -14.8849 C   0  0  0  0  0  0  0  0  0  0  0  0
  -26.8346  -30.2436  -15.4952 C   0  0  0  0  0  0  0  0  0  0  0  0
  -26.8916  -29.1440  -16.4097 O   0  0  0  0  0  0  0  0  0  0  0  0
  -27.8627  -29.2571  -17.3585 C   0  0  0  0  0  0  0  0  0  0  0  0
  -28.9952  -28.8258  -17.2043 O   0  0  0  0  0  0  0  0  0  0  0  0
  -27.3520  -29.9041  -18.5224 C   0  0  0  0  0  0  0  0  0  0  0  0
  -26.0489  -30.2328  -18.8424 C   0  0  0  0  0  0  0  0  0  0  0  0
  -26.1337  -30.9617  -20.0339 C   0  0  0  0  0  0  0  0  0  0  0  0
  -25.0679  -31.4891  -20.6804 N   0  0  0  0  0  0  0  0  0  0  0  0
  -25.0005  -32.3593  -21.8567 C   0  0  0  0  0  0  0  0  0  0  0  0
  -25.8373  -32.8587  -22.4589 O   0  0  0  0  0  0  0  0  0  0  0  0
  -23.3884  -32.3001  -22.0913 N   0  0  0  0  0  0  0  0  0  0  0  0
  -22.4266  -32.9851  -23.1542 C   0  0  0  0  0  0  0  0  0  0  0  0
  -22.6772  -34.0311  -24.2800 S   0  0  0  0  0  0  0  0  0  0  0  0
  -21.0321  -32.4522  -22.7732 C   0  0  2  0  0  0  0  0  0  0  0  0
  -20.4646  -33.3008  -21.6397 C   0  0  0  0  0  0  0  0  0  0  0  0
  -21.0863  -31.1291  -22.2529 O   0  0  0  0  0  0  0  0  0  0  0  0
  -27.3868  -31.0474  -20.4695 N   0  0  0  0  0  0  0  0  0  0  0  0
  -28.1068  -30.3666  -19.5669 N   0  0  0  0  0  0  0  0  0  0  0  0
  -29.5300  -30.2267  -19.7709 C   0  0  0  0  0  0  0  0  0  0  0  0
  1  2  1  0
  2  3  1  0
  3  4  1  0
  4  5  2  0
  4  6  1  0
  6  7  2  0
  7  8  1  0
  8  9  1  0
  9 10  1  0
 10 11  2  0
 10 12  1  0
 12 13  1  0
 13 14  2  0
 13 15  1  0
 15 16  1  1
 15 17  1  0
  8 18  2  0
 18 19  1  0
 19 20  1  0
 19  6  1  0
M  END
>  <id>  (695) 
436998

>  <inchikey>  (695) 
AXTUCNAWLYARSH-LURJTMIESA-N

>  <alias>  (695) 
None

>  <smiles>  (695) 
CCOC(=O)c1cc(NC(=O)NC(=S)[C@H](C)O)nn1C

>  <path>  (695) 
/opt/xchem-fragalysis-2/maxwin/RdRp_FFF/syndirella/mar_elabs/elabs_061/WVGFLLFSIMGYJN-UHFFFAOYSA-N/output/WVGFLLFSIMGYJN-UHFFFAOYSA-N-2SFedS-207-A/WVGFLLFSIMGYJN-UHFFFAOYSA-N-2SFedS-207-A.minimised.mol

>  <distance_score>  (695) 
1.46074

>  <energy_score>  (695) 
-22.955986

>  <compound>  (695) 
AXTUCNAWLYARSH-UHFFFAOYSA-N

>  <compound_id>  (695) 
234901

>  <target>  (695) 
Flavi_NS5_RdRp

>  <tags>  (695) 
[]

>  <inspirations>  (695) 
{P Ã— 2}

>  <subsites>  (695) 
None

>  <reference>  (695) 
z0211a

>  <SLURM_JOB_ID>  (695) 
nan

>  <SLURM_JOB_NAME>  (695) 
nan

>  <csv_name>  (695) 
nan

>  <scratch_subdir>  (695) 
nan

>  <fragmenstein_runtime>  (695) 
nan

>  <fragmenstein_outcome>  (695) 
nan

>  <fragmenstein_mode>  (695) 
nan

>  <fragmenstein_error>  (695) 
nan

>  <exports>  (695) 
nan

>  <Multi-SuCOS>  (695) 
nan

>  <merge_set>  (695) 
nan

$$$$
XXWIVKNHUOQKRF-ZCFIWIBFSA-N
     RDKit          3D

 20 20  0  0  0  0  0  0  0  0999 V2000
  -26.2658  -31.0761  -14.7596 C   0  0  0  0  0  0  0  0  0  0  0  0
  -27.5566  -30.3408  -15.0676 C   0  0  0  0  0  0  0  0  0  0  0  0
  -27.3829  -29.7418  -16.3454 O   0  0  0  0  0  0  0  0  0  0  0  0
  -28.4829  -29.7476  -17.1395 C   0  0  0  0  0  0  0  0  0  0  0  0
  -29.6368  -29.7245  -16.7377 O   0  0  0  0  0  0  0  0  0  0  0  0
  -28.0287  -29.8842  -18.4919 C   0  0  0  0  0  0  0  0  0  0  0  0
  -26.7213  -30.0253  -18.9310 C   0  0  0  0  0  0  0  0  0  0  0  0
  -26.8065  -30.3154  -20.2939 C   0  0  0  0  0  0  0  0  0  0  0  0
  -25.7517  -30.6794  -21.0659 N   0  0  0  0  0  0  0  0  0  0  0  0
  -25.6501  -30.8706  -22.5191 C   0  0  0  0  0  0  0  0  0  0  0  0
  -26.4224  -30.6813  -23.3503 O   0  0  0  0  0  0  0  0  0  0  0  0
  -24.1808  -31.5186  -22.5675 N   0  0  0  0  0  0  0  0  0  0  0  0
  -23.4038  -32.1687  -23.6761 C   0  0  0  0  0  0  0  0  0  0  0  0
  -23.6516  -32.3079  -24.8745 N   0  0  0  0  0  0  0  0  0  0  0  0
  -22.0752  -32.6399  -23.0592 C   0  0  1  0  0  0  0  0  0  0  0  0
  -20.9652  -32.8148  -24.0747 C   0  0  0  0  0  0  0  0  0  0  0  0
  -21.6641  -31.7026  -22.0602 O   0  0  0  0  0  0  0  0  0  0  0  0
  -28.0641  -30.2716  -20.7212 N   0  0  0  0  0  0  0  0  0  0  0  0
  -28.7959  -30.0542  -19.6135 N   0  0  0  0  0  0  0  0  0  0  0  0
  -30.2296  -30.1718  -19.7255 C   0  0  0  0  0  0  0  0  0  0  0  0
  1  2  1  0
  2  3  1  0
  3  4  1  0
  4  5  2  0
  4  6  1  0
  6  7  2  0
  7  8  1  0
  8  9  1  0
  9 10  1  0
 10 11  2  0
 10 12  1  0
 12 13  1  0
 13 14  2  3
 13 15  1  0
 15 16  1  6
 15 17  1  0
  8 18  2  0
 18 19  1  0
 19 20  1  0
 19  6  1  0
M  END
>  <id>  (696) 
437011

>  <inchikey>  (696) 
XXWIVKNHUOQKRF-ZCFIWIBFSA-N

>  <alias>  (696) 
None

>  <smiles>  (696) 
CCOC(=O)c1cc(NC(=O)NC(=N)[C@@H](C)O)nn1C

>  <path>  (696) 
/opt/xchem-fragalysis-2/maxwin/RdRp_FFF/syndirella/mar_elabs/elabs_061/WVGFLLFSIMGYJN-UHFFFAOYSA-N/output/WVGFLLFSIMGYJN-UHFFFAOYSA-N-2SFedS-267-B/WVGFLLFSIMGYJN-UHFFFAOYSA-N-2SFedS-267-B.minimised.mol

>  <distance_score>  (696) 
0.897575

>  <energy_score>  (696) 
-30.365876

>  <compound>  (696) 
XXWIVKNHUOQKRF-UHFFFAOYSA-N

>  <compound_id>  (696) 
234884

>  <target>  (696) 
Flavi_NS5_RdRp

>  <tags>  (696) 
[]

>  <inspirations>  (696) 
{P Ã— 2}

>  <subsites>  (696) 
None

>  <reference>  (696) 
z0211a

>  <SLURM_JOB_ID>  (696) 
nan

>  <SLURM_JOB_NAME>  (696) 
nan

>  <csv_name>  (696) 
nan

>  <scratch_subdir>  (696) 
nan

>  <fragmenstein_runtime>  (696) 
nan

>  <fragmenstein_outcome>  (696) 
nan

>  <fragmenstein_mode>  (696) 
nan

>  <fragmenstein_error>  (696) 
nan

>  <exports>  (696) 
nan

>  <Multi-SuCOS>  (696) 
nan

>  <merge_set>  (696) 
nan

$$$$
KJUVYHGHSRDCMF-ZETCQYMHSA-N
     RDKit          3D

 20 20  0  0  0  0  0  0  0  0999 V2000
  -27.4125  -30.9431  -14.8019 C   0  0  0  0  0  0  0  0  0  0  0  0
  -28.6178  -30.1557  -15.3042 C   0  0  0  0  0  0  0  0  0  0  0  0
  -28.5926  -29.9288  -16.7149 O   0  0  0  0  0  0  0  0  0  0  0  0
  -27.4089  -29.4564  -17.1641 C   0  0  0  0  0  0  0  0  0  0  0  0
  -26.5854  -28.8587  -16.4846 O   0  0  0  0  0  0  0  0  0  0  0  0
  -27.1895  -29.8322  -18.5164 C   0  0  0  0  0  0  0  0  0  0  0  0
  -25.9305  -29.9623  -19.0421 C   0  0  0  0  0  0  0  0  0  0  0  0
  -26.0827  -30.8025  -20.1484 C   0  0  0  0  0  0  0  0  0  0  0  0
  -24.9706  -31.3958  -20.6471 N   0  0  0  0  0  0  0  0  0  0  0  0
  -24.8213  -32.6070  -21.5897 C   0  0  0  0  0  0  0  0  0  0  0  0
  -25.6127  -33.2200  -22.1319 O   0  0  0  0  0  0  0  0  0  0  0  0
  -23.2876  -32.8067  -21.5000 N   0  0  0  0  0  0  0  0  0  0  0  0
  -22.4378  -33.7568  -22.1484 C   0  0  0  0  0  0  0  0  0  0  0  0
  -21.4568  -33.0510  -23.0828 C   0  0  2  0  0  0  0  0  0  0  0  0
  -21.0873  -31.7532  -22.5878 O   0  0  0  0  0  0  0  0  0  0  0  0
  -21.9811  -32.9623  -24.5102 C   0  0  0  0  0  0  0  0  0  0  0  0
  -20.9149  -32.5699  -25.3797 O   0  0  0  0  0  0  0  0  0  0  0  0
  -27.3664  -30.9643  -20.4709 N   0  0  0  0  0  0  0  0  0  0  0  0
  -28.0310  -30.3063  -19.4866 N   0  0  0  0  0  0  0  0  0  0  0  0
  -29.4719  -30.2521  -19.5158 C   0  0  0  0  0  0  0  0  0  0  0  0
  1  2  1  0
  2  3  1  0
  3  4  1  0
  4  5  2  0
  4  6  1  0
  6  7  2  0
  7  8  1  0
  8  9  1  0
  9 10  1  0
 10 11  2  0
 10 12  1  0
 12 13  1  0
 13 14  1  0
 14 15  1  1
 14 16  1  0
 16 17  1  0
  8 18  2  0
 18 19  1  0
 19 20  1  0
 19  6  1  0
M  END
>  <id>  (697) 
437012

>  <inchikey>  (697) 
KJUVYHGHSRDCMF-ZETCQYMHSA-N

>  <alias>  (697) 
None

>  <smiles>  (697) 
CCOC(=O)c1cc(NC(=O)NC[C@H](O)CO)nn1C

>  <path>  (697) 
/opt/xchem-fragalysis-2/maxwin/RdRp_FFF/syndirella/mar_elabs/elabs_061/WVGFLLFSIMGYJN-UHFFFAOYSA-N/output/WVGFLLFSIMGYJN-UHFFFAOYSA-N-2SFedS-268-A/WVGFLLFSIMGYJN-UHFFFAOYSA-N-2SFedS-268-A.minimised.mol

>  <distance_score>  (697) 
1.427964

>  <energy_score>  (697) 
-4.134164

>  <compound>  (697) 
KJUVYHGHSRDCMF-UHFFFAOYSA-N

>  <compound_id>  (697) 
234886

>  <target>  (697) 
Flavi_NS5_RdRp

>  <tags>  (697) 
[]

>  <inspirations>  (697) 
{P Ã— 2}

>  <subsites>  (697) 
None

>  <reference>  (697) 
z0211a

>  <SLURM_JOB_ID>  (697) 
nan

>  <SLURM_JOB_NAME>  (697) 
nan

>  <csv_name>  (697) 
nan

>  <scratch_subdir>  (697) 
nan

>  <fragmenstein_runtime>  (697) 
nan

>  <fragmenstein_outcome>  (697) 
nan

>  <fragmenstein_mode>  (697) 
nan

>  <fragmenstein_error>  (697) 
nan

>  <exports>  (697) 
nan

>  <Multi-SuCOS>  (697) 
nan

>  <merge_set>  (697) 
nan

$$$$
FITYSCYHDMZEOD-SSDOTTSWSA-N
     RDKit          3D

 20 20  0  0  0  0  0  0  0  0999 V2000
  -28.5647  -30.1768  -14.9415 C   0  0  0  0  0  0  0  0  0  0  0  0
  -29.2581  -29.5204  -16.1218 C   0  0  0  0  0  0  0  0  0  0  0  0
  -28.7672  -29.9485  -17.3826 O   0  0  0  0  0  0  0  0  0  0  0  0
  -27.4773  -29.6424  -17.6545 C   0  0  0  0  0  0  0  0  0  0  0  0
  -26.7179  -29.0085  -16.9379 O   0  0  0  0  0  0  0  0  0  0  0  0
  -27.1162  -30.2690  -18.8766 C   0  0  0  0  0  0  0  0  0  0  0  0
  -25.9265  -30.9001  -19.1313 C   0  0  0  0  0  0  0  0  0  0  0  0
  -26.0790  -31.4933  -20.3937 C   0  0  0  0  0  0  0  0  0  0  0  0
  -25.1106  -32.3024  -20.8931 N   0  0  0  0  0  0  0  0  0  0  0  0
  -24.7588  -32.6574  -22.3550 C   0  0  0  0  0  0  0  0  0  0  0  0
  -25.2807  -32.3780  -23.3240 O   0  0  0  0  0  0  0  0  0  0  0  0
  -23.4361  -33.4154  -22.1177 N   0  0  0  0  0  0  0  0  0  0  0  0
  -22.4566  -33.8909  -23.0525 C   0  0  0  0  0  0  0  0  0  0  0  0
  -21.1756  -33.1116  -22.7344 C   0  0  2  0  0  0  0  0  0  0  0  0
  -20.8790  -33.3690  -21.3468 O   0  0  0  0  0  0  0  0  0  0  0  0
  -21.3379  -31.6183  -22.9605 C   0  0  0  0  0  0  0  0  0  0  0  0
  -20.0539  -30.7299  -22.0666 Cl  0  0  0  0  0  0  0  0  0  0  0  0
  -27.2484  -31.1747  -20.9519 N   0  0  0  0  0  0  0  0  0  0  0  0
  -27.8789  -30.4589  -19.9964 N   0  0  0  0  0  0  0  0  0  0  0  0
  -29.2226  -29.9857  -20.2237 C   0  0  0  0  0  0  0  0  0  0  0  0
  1  2  1  0
  2  3  1  0
  3  4  1  0
  4  5  2  0
  4  6  1  0
  6  7  2  0
  7  8  1  0
  8  9  1  0
  9 10  1  0
 10 11  2  0
 10 12  1  0
 12 13  1  0
 13 14  1  0
 14 15  1  1
 14 16  1  0
 16 17  1  0
  8 18  2  0
 18 19  1  0
 19 20  1  0
 19  6  1  0
M  END
>  <id>  (698) 
437020

>  <inchikey>  (698) 
FITYSCYHDMZEOD-SSDOTTSWSA-N

>  <alias>  (698) 
None

>  <smiles>  (698) 
CCOC(=O)c1cc(NC(=O)NC[C@H](O)CCl)nn1C

>  <path>  (698) 
/opt/xchem-fragalysis-2/maxwin/RdRp_FFF/syndirella/mar_elabs/elabs_061/WVGFLLFSIMGYJN-UHFFFAOYSA-N/output/WVGFLLFSIMGYJN-UHFFFAOYSA-N-2SFedS-278-A/WVGFLLFSIMGYJN-UHFFFAOYSA-N-2SFedS-278-A.minimised.mol

>  <distance_score>  (698) 
1.69126

>  <energy_score>  (698) 
-19.873416

>  <compound>  (698) 
FITYSCYHDMZEOD-UHFFFAOYSA-N

>  <compound_id>  (698) 
234912

>  <target>  (698) 
Flavi_NS5_RdRp

>  <tags>  (698) 
[]

>  <inspirations>  (698) 
{P Ã— 2}

>  <subsites>  (698) 
None

>  <reference>  (698) 
z0211a

>  <SLURM_JOB_ID>  (698) 
nan

>  <SLURM_JOB_NAME>  (698) 
nan

>  <csv_name>  (698) 
nan

>  <scratch_subdir>  (698) 
nan

>  <fragmenstein_runtime>  (698) 
nan

>  <fragmenstein_outcome>  (698) 
nan

>  <fragmenstein_mode>  (698) 
nan

>  <fragmenstein_error>  (698) 
nan

>  <exports>  (698) 
nan

>  <Multi-SuCOS>  (698) 
nan

>  <merge_set>  (698) 
nan

$$$$
RUEPAUHCSJOQNS-UHFFFAOYSA-N
     RDKit          3D

 20 20  0  0  0  0  0  0  0  0999 V2000
  -27.9425  -30.0604  -15.0047 C   0  0  0  0  0  0  0  0  0  0  0  0
  -27.6197  -29.8275  -16.3637 O   0  0  0  0  0  0  0  0  0  0  0  0
  -28.6825  -29.8130  -17.2095 C   0  0  0  0  0  0  0  0  0  0  0  0
  -29.8532  -29.7764  -16.8609 O   0  0  0  0  0  0  0  0  0  0  0  0
  -28.1761  -29.9443  -18.5452 C   0  0  0  0  0  0  0  0  0  0  0  0
  -26.8569  -30.0915  -18.9459 C   0  0  0  0  0  0  0  0  0  0  0  0
  -26.8998  -30.3360  -20.3217 C   0  0  0  0  0  0  0  0  0  0  0  0
  -25.8269  -30.6971  -21.0714 N   0  0  0  0  0  0  0  0  0  0  0  0
  -25.6780  -30.8324  -22.5295 C   0  0  0  0  0  0  0  0  0  0  0  0
  -26.4146  -30.5891  -23.3785 O   0  0  0  0  0  0  0  0  0  0  0  0
  -24.2157  -31.5216  -22.5505 N   0  0  0  0  0  0  0  0  0  0  0  0
  -23.4040  -32.1489  -23.6620 C   0  0  0  0  0  0  0  0  0  0  0  0
  -23.6727  -32.3778  -24.8408 N   0  0  0  0  0  0  0  0  0  0  0  0
  -22.0349  -32.5397  -23.0456 C   0  0  0  0  0  0  0  0  0  0  0  0
  -20.9561  -32.7474  -24.0983 C   0  0  0  0  0  0  0  0  0  0  0  0
  -22.1955  -33.8066  -22.2052 C   0  0  0  0  0  0  0  0  0  0  0  0
  -21.6244  -31.4960  -22.1540 O   0  0  0  0  0  0  0  0  0  0  0  0
  -28.1412  -30.2579  -20.7878 N   0  0  0  0  0  0  0  0  0  0  0  0
  -28.9070  -30.0773  -19.6963 N   0  0  0  0  0  0  0  0  0  0  0  0
  -30.3367  -30.1886  -19.8549 C   0  0  0  0  0  0  0  0  0  0  0  0
  1  2  1  0
  2  3  1  0
  3  4  2  0
  3  5  1  0
  5  6  2  0
  6  7  1  0
  7  8  1  0
  8  9  1  0
  9 10  2  0
  9 11  1  0
 11 12  1  0
 12 13  2  3
 12 14  1  0
 14 15  1  0
 14 16  1  0
 14 17  1  0
  7 18  2  0
 18 19  1  0
 19 20  1  0
 19  5  1  0
M  END
>  <id>  (699) 
437061

>  <inchikey>  (699) 
RUEPAUHCSJOQNS-UHFFFAOYSA-N

>  <alias>  (699) 
None

>  <smiles>  (699) 
COC(=O)c1cc(NC(=O)NC(=N)C(C)(C)O)nn1C

>  <path>  (699) 
/opt/xchem-fragalysis-2/maxwin/RdRp_FFF/syndirella/mar_elabs/elabs_061/WVGFLLFSIMGYJN-UHFFFAOYSA-N/output/WVGFLLFSIMGYJN-UHFFFAOYSA-N-2SFedS-536-A/WVGFLLFSIMGYJN-UHFFFAOYSA-N-2SFedS-536-A.minimised.mol

>  <distance_score>  (699) 
1.17562

>  <energy_score>  (699) 
-24.669713

>  <compound>  (699) 
RUEPAUHCSJOQNS-UHFFFAOYSA-N

>  <compound_id>  (699) 
235134

>  <target>  (699) 
Flavi_NS5_RdRp

>  <tags>  (699) 
[]

>  <inspirations>  (699) 
{P Ã— 2}

>  <subsites>  (699) 
None

>  <reference>  (699) 
z0211a

>  <SLURM_JOB_ID>  (699) 
nan

>  <SLURM_JOB_NAME>  (699) 
nan

>  <csv_name>  (699) 
nan

>  <scratch_subdir>  (699) 
nan

>  <fragmenstein_runtime>  (699) 
nan

>  <fragmenstein_outcome>  (699) 
nan

>  <fragmenstein_mode>  (699) 
nan

>  <fragmenstein_error>  (699) 
nan

>  <exports>  (699) 
nan

>  <Multi-SuCOS>  (699) 
nan

>  <merge_set>  (699) 
nan

$$$$
NRTCROQAHYGTJJ-YUMQZZPRSA-N
     RDKit          3D

 20 20  0  0  0  0  0  0  0  0999 V2000
  -23.4378  -35.5865  -21.6971 C   0  0  0  0  0  0  0  0  0  0  0  0
  -23.0422  -34.6220  -22.8088 C   0  0  0  0  0  0  0  0  0  0  0  0
  -22.3889  -33.3375  -22.2804 C   0  0  2  0  0  0  0  0  0  0  0  0
  -23.2604  -32.5792  -21.4070 N   0  0  0  0  0  0  0  0  0  0  0  0
  -24.7886  -32.3353  -21.4803 C   0  0  0  0  0  0  0  0  0  0  0  0
  -25.5674  -32.7603  -22.1921 O   0  0  0  0  0  0  0  0  0  0  0  0
  -24.9389  -31.3203  -20.3295 N   0  0  0  0  0  0  0  0  0  0  0  0
  -26.0405  -30.7438  -19.8133 C   0  0  0  0  0  0  0  0  0  0  0  0
  -27.3823  -30.8091  -20.2331 C   0  0  0  0  0  0  0  0  0  0  0  0
  -28.1087  -30.2687  -19.1836 C   0  0  0  0  0  0  0  0  0  0  0  0
  -29.5274  -30.2905  -18.9483 C   0  0  0  0  0  0  0  0  0  0  0  0
  -30.3693  -30.8681  -19.6180 O   0  0  0  0  0  0  0  0  0  0  0  0
  -29.7785  -29.6351  -17.7918 O   0  0  0  0  0  0  0  0  0  0  0  0
  -30.6323  -30.2758  -16.8608 C   0  0  0  0  0  0  0  0  0  0  0  0
  -27.1547  -29.8444  -18.2932 N   0  0  0  0  0  0  0  0  0  0  0  0
  -27.3121  -29.4524  -16.9261 C   0  0  0  0  0  0  0  0  0  0  0  0
  -25.9024  -30.0520  -18.6930 N   0  0  0  0  0  0  0  0  0  0  0  0
  -21.9373  -32.3576  -23.3825 C   0  0  2  0  0  0  0  0  0  0  0  0
  -21.0302  -32.9748  -24.4237 C   0  0  0  0  0  0  0  0  0  0  0  0
  -21.1843  -31.3145  -22.7464 O   0  0  0  0  0  0  0  0  0  0  0  0
  1  2  1  0
  3  2  1  6
  3  4  1  0
  4  5  1  0
  5  6  2  0
  5  7  1  0
  7  8  1  0
  8  9  1  0
  9 10  2  0
 10 11  1  0
 11 12  2  0
 11 13  1  0
 13 14  1  0
 10 15  1  0
 15 16  1  0
 15 17  1  0
  3 18  1  0
 18 19  1  6
 18 20  1  0
 17  8  2  0
M  END
>  <id>  (700) 
437085

>  <inchikey>  (700) 
NRTCROQAHYGTJJ-YUMQZZPRSA-N

>  <alias>  (700) 
None

>  <smiles>  (700) 
CC[C@H](NC(=O)Nc1cc(C(=O)OC)n(C)n1)[C@H](C)O

>  <path>  (700) 
/opt/xchem-fragalysis-2/maxwin/RdRp_FFF/syndirella/mar_elabs/elabs_061/WVGFLLFSIMGYJN-UHFFFAOYSA-N/output/WVGFLLFSIMGYJN-UHFFFAOYSA-N-2SFedS-630-A/WVGFLLFSIMGYJN-UHFFFAOYSA-N-2SFedS-630-A.minimised.mol

>  <distance_score>  (700) 
1.560907

>  <energy_score>  (700) 
-22.111606

>  <compound>  (700) 
NRTCROQAHYGTJJ-UHFFFAOYSA-N

>  <compound_id>  (700) 
234999

>  <target>  (700) 
Flavi_NS5_RdRp

>  <tags>  (700) 
[]

>  <inspirations>  (700) 
{P Ã— 2}

>  <subsites>  (700) 
None

>  <reference>  (700) 
z0211a

>  <SLURM_JOB_ID>  (700) 
nan

>  <SLURM_JOB_NAME>  (700) 
nan

>  <csv_name>  (700) 
nan

>  <scratch_subdir>  (700) 
nan

>  <fragmenstein_runtime>  (700) 
nan

>  <fragmenstein_outcome>  (700) 
nan

>  <fragmenstein_mode>  (700) 
nan

>  <fragmenstein_error>  (700) 
nan

>  <exports>  (700) 
nan

>  <Multi-SuCOS>  (700) 
nan

>  <merge_set>  (700) 
nan

$$$$
RCRCCJAILRFDPZ-APPZFPTMSA-N
     RDKit          3D

 20 20  0  0  0  0  0  0  0  0999 V2000
  -21.9492  -34.1160  -21.7714 C   0  0  0  0  0  0  0  0  0  0  0  0
  -21.4751  -33.6313  -23.1362 C   0  0  0  0  0  0  0  0  0  0  0  0
  -21.9298  -32.2366  -23.5382 C   0  0  2  0  0  0  0  0  0  0  0  0
  -21.4148  -31.3311  -22.5564 O   0  0  0  0  0  0  0  0  0  0  0  0
  -23.4500  -32.0484  -23.7176 C   0  0  1  0  0  0  0  0  0  0  0  0
  -24.1462  -33.1640  -24.4826 C   0  0  0  0  0  0  0  0  0  0  0  0
  -24.0565  -31.7812  -22.4472 N   0  0  0  0  0  0  0  0  0  0  0  0
  -25.4217  -31.1542  -22.1054 C   0  0  0  0  0  0  0  0  0  0  0  0
  -26.2734  -30.8374  -22.7840 O   0  0  0  0  0  0  0  0  0  0  0  0
  -25.3007  -31.1057  -20.5778 N   0  0  0  0  0  0  0  0  0  0  0  0
  -26.1300  -30.5972  -19.6570 C   0  0  0  0  0  0  0  0  0  0  0  0
  -27.4718  -30.1776  -19.7699 C   0  0  0  0  0  0  0  0  0  0  0  0
  -27.8002  -29.7982  -18.4855 C   0  0  0  0  0  0  0  0  0  0  0  0
  -28.9845  -29.4255  -17.8095 C   0  0  0  0  0  0  0  0  0  0  0  0
  -29.0849  -28.4818  -17.0397 O   0  0  0  0  0  0  0  0  0  0  0  0
  -29.9647  -30.3159  -18.0593 O   0  0  0  0  0  0  0  0  0  0  0  0
  -30.6862  -30.5024  -16.8550 C   0  0  0  0  0  0  0  0  0  0  0  0
  -26.6735  -29.9859  -17.7491 N   0  0  0  0  0  0  0  0  0  0  0  0
  -26.5727  -29.9213  -16.3262 C   0  0  0  0  0  0  0  0  0  0  0  0
  -25.6513  -30.4698  -18.4294 N   0  0  0  0  0  0  0  0  0  0  0  0
  1  2  1  0
  2  3  1  0
  3  4  1  1
  3  5  1  0
  5  6  1  1
  5  7  1  0
  7  8  1  0
  8  9  2  0
  8 10  1  0
 10 11  1  0
 11 12  1  0
 12 13  2  0
 13 14  1  0
 14 15  2  0
 14 16  1  0
 16 17  1  0
 13 18  1  0
 18 19  1  0
 18 20  1  0
 20 11  2  0
M  END
>  <id>  (701) 
437097

>  <inchikey>  (701) 
RCRCCJAILRFDPZ-APPZFPTMSA-N

>  <alias>  (701) 
None

>  <smiles>  (701) 
CC[C@H](O)[C@@H](C)NC(=O)Nc1cc(C(=O)OC)n(C)n1

>  <path>  (701) 
/opt/xchem-fragalysis-2/maxwin/RdRp_FFF/syndirella/mar_elabs/elabs_061/WVGFLLFSIMGYJN-UHFFFAOYSA-N/output/WVGFLLFSIMGYJN-UHFFFAOYSA-N-2SFedS-684-C/WVGFLLFSIMGYJN-UHFFFAOYSA-N-2SFedS-684-C.minimised.mol

>  <distance_score>  (701) 
1.477421

>  <energy_score>  (701) 
-20.56572

>  <compound>  (701) 
RCRCCJAILRFDPZ-UHFFFAOYSA-N

>  <compound_id>  (701) 
237140

>  <target>  (701) 
Flavi_NS5_RdRp

>  <tags>  (701) 
[]

>  <inspirations>  (701) 
{P Ã— 2}

>  <subsites>  (701) 
None

>  <reference>  (701) 
z0211a

>  <SLURM_JOB_ID>  (701) 
nan

>  <SLURM_JOB_NAME>  (701) 
nan

>  <csv_name>  (701) 
nan

>  <scratch_subdir>  (701) 
nan

>  <fragmenstein_runtime>  (701) 
nan

>  <fragmenstein_outcome>  (701) 
nan

>  <fragmenstein_mode>  (701) 
nan

>  <fragmenstein_error>  (701) 
nan

>  <exports>  (701) 
nan

>  <Multi-SuCOS>  (701) 
nan

>  <merge_set>  (701) 
nan

$$$$
DZKOZBJUEHONDO-YFKPBYRVSA-N
     RDKit          3D

 20 20  0  0  0  0  0  0  0  0999 V2000
  -27.2093  -30.1723  -15.0542 C   0  0  0  0  0  0  0  0  0  0  0  0
  -26.9101  -30.0529  -16.4377 O   0  0  0  0  0  0  0  0  0  0  0  0
  -27.9476  -29.7570  -17.2638 C   0  0  0  0  0  0  0  0  0  0  0  0
  -29.0520  -29.3814  -16.8989 O   0  0  0  0  0  0  0  0  0  0  0  0
  -27.5352  -30.0325  -18.6119 C   0  0  0  0  0  0  0  0  0  0  0  0
  -26.2804  -30.4054  -19.0666 C   0  0  0  0  0  0  0  0  0  0  0  0
  -26.4079  -30.6063  -20.4480 C   0  0  0  0  0  0  0  0  0  0  0  0
  -25.4077  -31.0489  -21.2573 N   0  0  0  0  0  0  0  0  0  0  0  0
  -25.2996  -31.0633  -22.8141 C   0  0  0  0  0  0  0  0  0  0  0  0
  -26.0036  -30.6365  -23.6070 O   0  0  0  0  0  0  0  0  0  0  0  0
  -23.9981  -31.9230  -22.9733 N   0  0  0  0  0  0  0  0  0  0  0  0
  -23.4329  -32.4486  -24.0732 N   0  0  0  0  0  0  0  0  0  0  0  0
  -22.8949  -33.8825  -24.3447 C   0  0  0  0  0  0  0  0  0  0  0  0
  -22.7913  -34.8007  -23.6288 O   0  0  0  0  0  0  0  0  0  0  0  0
  -22.5396  -33.9310  -25.8493 C   0  0  2  0  0  0  0  0  0  0  0  0
  -21.1606  -33.3528  -26.1107 C   0  0  0  0  0  0  0  0  0  0  0  0
  -23.4744  -33.1903  -26.6325 O   0  0  0  0  0  0  0  0  0  0  0  0
  -27.6516  -30.3627  -20.8538 N   0  0  0  0  0  0  0  0  0  0  0  0
  -28.3332  -30.0844  -19.7250 N   0  0  0  0  0  0  0  0  0  0  0  0
  -29.7691  -30.0012  -19.8188 C   0  0  0  0  0  0  0  0  0  0  0  0
  1  2  1  0
  2  3  1  0
  3  4  2  0
  3  5  1  0
  5  6  2  0
  6  7  1  0
  7  8  1  0
  8  9  1  0
  9 10  2  0
  9 11  1  0
 11 12  1  0
 12 13  1  0
 13 14  2  0
 13 15  1  0
 15 16  1  1
 15 17  1  0
  7 18  2  0
 18 19  1  0
 19 20  1  0
 19  5  1  0
M  END
>  <id>  (702) 
437109

>  <inchikey>  (702) 
DZKOZBJUEHONDO-YFKPBYRVSA-N

>  <alias>  (702) 
None

>  <smiles>  (702) 
COC(=O)c1cc(NC(=O)NNC(=O)[C@H](C)O)nn1C

>  <path>  (702) 
/opt/xchem-fragalysis-2/maxwin/RdRp_FFF/syndirella/mar_elabs/elabs_061/WVGFLLFSIMGYJN-UHFFFAOYSA-N/output/WVGFLLFSIMGYJN-UHFFFAOYSA-N-2SFedS-717-A/WVGFLLFSIMGYJN-UHFFFAOYSA-N-2SFedS-717-A.minimised.mol

>  <distance_score>  (702) 
1.821848

>  <energy_score>  (702) 
-4.55407

>  <compound>  (702) 
DZKOZBJUEHONDO-UHFFFAOYSA-N

>  <compound_id>  (702) 
235171

>  <target>  (702) 
Flavi_NS5_RdRp

>  <tags>  (702) 
[]

>  <inspirations>  (702) 
{P Ã— 2}

>  <subsites>  (702) 
None

>  <reference>  (702) 
z0211a

>  <SLURM_JOB_ID>  (702) 
nan

>  <SLURM_JOB_NAME>  (702) 
nan

>  <csv_name>  (702) 
nan

>  <scratch_subdir>  (702) 
nan

>  <fragmenstein_runtime>  (702) 
nan

>  <fragmenstein_outcome>  (702) 
nan

>  <fragmenstein_mode>  (702) 
nan

>  <fragmenstein_error>  (702) 
nan

>  <exports>  (702) 
nan

>  <Multi-SuCOS>  (702) 
nan

>  <merge_set>  (702) 
nan

$$$$
FYOULIIOSSVNAV-LURJTMIESA-N
     RDKit          3D

 20 20  0  0  0  0  0  0  0  0999 V2000
  -28.9389  -30.1660  -14.9140 C   0  0  0  0  0  0  0  0  0  0  0  0
  -28.8158  -29.9647  -16.3078 O   0  0  0  0  0  0  0  0  0  0  0  0
  -27.5338  -29.7140  -16.6588 C   0  0  0  0  0  0  0  0  0  0  0  0
  -26.6364  -29.4409  -15.8712 O   0  0  0  0  0  0  0  0  0  0  0  0
  -27.3449  -29.9101  -18.0595 C   0  0  0  0  0  0  0  0  0  0  0  0
  -26.1114  -30.1319  -18.6311 C   0  0  0  0  0  0  0  0  0  0  0  0
  -26.3667  -30.4314  -19.9664 C   0  0  0  0  0  0  0  0  0  0  0  0
  -25.3994  -30.8153  -20.8238 N   0  0  0  0  0  0  0  0  0  0  0  0
  -25.4283  -30.9706  -22.3550 C   0  0  0  0  0  0  0  0  0  0  0  0
  -26.2461  -30.7242  -23.1018 O   0  0  0  0  0  0  0  0  0  0  0  0
  -24.0615  -31.6522  -22.5632 N   0  0  0  0  0  0  0  0  0  0  0  0
  -23.4117  -32.0734  -23.7621 C   0  0  0  0  0  0  0  0  0  0  0  0
  -22.3690  -33.1327  -23.4641 C   0  0  2  0  0  0  0  0  0  0  0  0
  -21.4238  -32.6207  -22.5145 O   0  0  0  0  0  0  0  0  0  0  0  0
  -21.7770  -33.5484  -24.7982 C   0  0  0  0  0  0  0  0  0  0  0  0
  -22.2839  -34.2932  -25.6227 O   0  0  0  0  0  0  0  0  0  0  0  0
  -20.5789  -32.9858  -25.0472 O   0  0  0  0  0  0  0  0  0  0  0  0
  -27.6579  -30.3313  -20.2633 N   0  0  0  0  0  0  0  0  0  0  0  0
  -28.2472  -30.0530  -19.0864 N   0  0  0  0  0  0  0  0  0  0  0  0
  -29.6884  -30.0541  -19.0559 C   0  0  0  0  0  0  0  0  0  0  0  0
  1  2  1  0
  2  3  1  0
  3  4  2  0
  3  5  1  0
  5  6  2  0
  6  7  1  0
  7  8  1  0
  8  9  1  0
  9 10  2  0
  9 11  1  0
 11 12  1  0
 12 13  1  0
 13 14  1  1
 13 15  1  0
 15 16  2  0
 15 17  1  0
  7 18  2  0
 18 19  1  0
 19 20  1  0
 19  5  1  0
M  END
>  <id>  (703) 
437120

>  <inchikey>  (703) 
FYOULIIOSSVNAV-LURJTMIESA-N

>  <alias>  (703) 
None

>  <smiles>  (703) 
COC(=O)c1cc(NC(=O)NC[C@H](O)C(=O)O)nn1C

>  <path>  (703) 
/opt/xchem-fragalysis-2/maxwin/RdRp_FFF/syndirella/mar_elabs/elabs_061/WVGFLLFSIMGYJN-UHFFFAOYSA-N/output/WVGFLLFSIMGYJN-UHFFFAOYSA-N-2SFedS-741-A/WVGFLLFSIMGYJN-UHFFFAOYSA-N-2SFedS-741-A.minimised.mol

>  <distance_score>  (703) 
1.158439

>  <energy_score>  (703) 
-32.577029

>  <compound>  (703) 
FYOULIIOSSVNAV-UHFFFAOYSA-N

>  <compound_id>  (703) 
235154

>  <target>  (703) 
Flavi_NS5_RdRp

>  <tags>  (703) 
[]

>  <inspirations>  (703) 
{P Ã— 2}

>  <subsites>  (703) 
None

>  <reference>  (703) 
z0211a

>  <SLURM_JOB_ID>  (703) 
nan

>  <SLURM_JOB_NAME>  (703) 
nan

>  <csv_name>  (703) 
nan

>  <scratch_subdir>  (703) 
nan

>  <fragmenstein_runtime>  (703) 
nan

>  <fragmenstein_outcome>  (703) 
nan

>  <fragmenstein_mode>  (703) 
nan

>  <fragmenstein_error>  (703) 
nan

>  <exports>  (703) 
nan

>  <Multi-SuCOS>  (703) 
nan

>  <merge_set>  (703) 
nan

$$$$
DTFMDOOOOVBZTF-MRVPVSSYSA-N
     RDKit          3D

 21 21  0  0  0  0  0  0  0  0999 V2000
  -26.7554  -31.0031  -14.7917 C   0  0  0  0  0  0  0  0  0  0  0  0
  -28.0114  -30.2668  -15.2019 C   0  0  0  0  0  0  0  0  0  0  0  0
  -27.7486  -29.7062  -16.4870 O   0  0  0  0  0  0  0  0  0  0  0  0
  -28.8125  -29.7423  -17.3294 C   0  0  0  0  0  0  0  0  0  0  0  0
  -29.9785  -29.6964  -16.9622 O   0  0  0  0  0  0  0  0  0  0  0  0
  -28.3358  -29.9402  -18.6709 C   0  0  0  0  0  0  0  0  0  0  0  0
  -27.0456  -30.2079  -19.0994 C   0  0  0  0  0  0  0  0  0  0  0  0
  -27.1631  -30.5607  -20.4506 C   0  0  0  0  0  0  0  0  0  0  0  0
  -26.2142  -31.1354  -21.2232 N   0  0  0  0  0  0  0  0  0  0  0  0
  -24.8727  -31.8085  -20.8319 C   0  0  0  0  0  0  0  0  0  0  0  0
  -24.3630  -31.8968  -19.8187 O   0  0  0  0  0  0  0  0  0  0  0  0
  -24.4830  -32.4115  -22.2034 N   0  0  0  0  0  0  0  0  0  0  0  0
  -23.3179  -33.1705  -22.5942 C   0  0  0  0  0  0  0  0  0  0  0  0
  -22.2205  -32.2571  -23.1513 C   0  0  1  0  0  0  0  0  0  0  0  0
  -21.4722  -31.6727  -22.0802 O   0  0  0  0  0  0  0  0  0  0  0  0
  -21.2442  -33.0198  -24.0510 C   0  0  0  0  0  0  0  0  0  0  0  0
  -21.8552  -33.9690  -24.9273 O   0  0  0  0  0  0  0  0  0  0  0  0
  -22.5917  -33.3961  -25.9882 C   0  0  0  0  0  0  0  0  0  0  0  0
  -28.3935  -30.3626  -20.9091 N   0  0  0  0  0  0  0  0  0  0  0  0
  -29.1062  -30.0846  -19.7959 N   0  0  0  0  0  0  0  0  0  0  0  0
  -30.5380  -30.1906  -19.8776 C   0  0  0  0  0  0  0  0  0  0  0  0
  1  2  1  0
  2  3  1  0
  3  4  1  0
  4  5  2  0
  4  6  1  0
  6  7  2  0
  7  8  1  0
  8  9  1  0
  9 10  1  0
 10 11  2  0
 10 12  1  0
 12 13  1  0
 13 14  1  0
 14 15  1  1
 14 16  1  0
 16 17  1  0
 17 18  1  0
  8 19  2  0
 19 20  1  0
 20 21  1  0
 20  6  1  0
M  END
>  <id>  (704) 
437523

>  <inchikey>  (704) 
DTFMDOOOOVBZTF-MRVPVSSYSA-N

>  <alias>  (704) 
None

>  <smiles>  (704) 
CCOC(=O)c1cc(NC(=O)NC[C@@H](O)COC)nn1C

>  <path>  (704) 
/opt/xchem-fragalysis-2/maxwin/RdRp_FFF/syndirella/mar_elabs/elabs_061/WVGFLLFSIMGYJN-UHFFFAOYSA-N/output/WVGFLLFSIMGYJN-UHFFFAOYSA-N-2SFedS-2501-B/WVGFLLFSIMGYJN-UHFFFAOYSA-N-2SFedS-2501-B.minimised.mol

>  <distance_score>  (704) 
1.206729

>  <energy_score>  (704) 
-22.801727

>  <compound>  (704) 
DTFMDOOOOVBZTF-UHFFFAOYSA-N

>  <compound_id>  (704) 
236247

>  <target>  (704) 
Flavi_NS5_RdRp

>  <tags>  (704) 
[]

>  <inspirations>  (704) 
{P Ã— 2}

>  <subsites>  (704) 
None

>  <reference>  (704) 
z0211a

>  <SLURM_JOB_ID>  (704) 
nan

>  <SLURM_JOB_NAME>  (704) 
nan

>  <csv_name>  (704) 
nan

>  <scratch_subdir>  (704) 
nan

>  <fragmenstein_runtime>  (704) 
nan

>  <fragmenstein_outcome>  (704) 
nan

>  <fragmenstein_mode>  (704) 
nan

>  <fragmenstein_error>  (704) 
nan

>  <exports>  (704) 
nan

>  <Multi-SuCOS>  (704) 
nan

>  <merge_set>  (704) 
nan

$$$$
WKMJSLNEAXKNIZ-QMMMGPOBSA-N
     RDKit          3D

 21 21  0  0  0  0  0  0  0  0999 V2000
  -26.6256  -31.2007  -14.6979 C   0  0  0  0  0  0  0  0  0  0  0  0
  -27.7543  -30.3361  -15.2101 C   0  0  0  0  0  0  0  0  0  0  0  0
  -27.3483  -29.8653  -16.4945 O   0  0  0  0  0  0  0  0  0  0  0  0
  -28.3704  -29.7293  -17.3792 C   0  0  0  0  0  0  0  0  0  0  0  0
  -29.5306  -29.5225  -17.0538 O   0  0  0  0  0  0  0  0  0  0  0  0
  -27.8680  -29.9667  -18.7048 C   0  0  0  0  0  0  0  0  0  0  0  0
  -26.5724  -30.2553  -19.1101 C   0  0  0  0  0  0  0  0  0  0  0  0
  -26.6341  -30.4841  -20.4964 C   0  0  0  0  0  0  0  0  0  0  0  0
  -25.5772  -30.8470  -21.2772 N   0  0  0  0  0  0  0  0  0  0  0  0
  -25.4369  -30.8909  -22.8357 C   0  0  0  0  0  0  0  0  0  0  0  0
  -26.1650  -30.5561  -23.6534 O   0  0  0  0  0  0  0  0  0  0  0  0
  -24.0518  -31.6224  -22.9486 N   0  0  0  0  0  0  0  0  0  0  0  0
  -23.3977  -32.1313  -24.0534 N   0  0  0  0  0  0  0  0  0  0  0  0
  -24.1267  -33.2265  -24.6706 C   0  0  0  0  0  0  0  0  0  0  0  0
  -21.9835  -32.3977  -23.7588 C   0  0  0  0  0  0  0  0  0  0  0  0
  -21.6231  -33.1789  -22.4742 C   0  0  2  0  0  0  0  0  0  0  0  0
  -22.2177  -34.5739  -22.3718 C   0  0  0  0  0  0  0  0  0  0  0  0
  -22.0534  -32.4436  -21.3117 O   0  0  0  0  0  0  0  0  0  0  0  0
  -27.8773  -30.3384  -20.9437 N   0  0  0  0  0  0  0  0  0  0  0  0
  -28.6139  -30.0703  -19.8497 N   0  0  0  0  0  0  0  0  0  0  0  0
  -30.0461  -30.0566  -20.0021 C   0  0  0  0  0  0  0  0  0  0  0  0
  1  2  1  0
  2  3  1  0
  3  4  1  0
  4  5  2  0
  4  6  1  0
  6  7  2  0
  7  8  1  0
  8  9  1  0
  9 10  1  0
 10 11  2  0
 10 12  1  0
 12 13  1  0
 13 14  1  0
 13 15  1  0
 15 16  1  0
 16 17  1  6
 16 18  1  0
  8 19  2  0
 19 20  1  0
 20 21  1  0
 20  6  1  0
M  END
>  <id>  (705) 
437530

>  <inchikey>  (705) 
WKMJSLNEAXKNIZ-QMMMGPOBSA-N

>  <alias>  (705) 
None

>  <smiles>  (705) 
CCOC(=O)c1cc(NC(=O)NN(C)C[C@H](C)O)nn1C

>  <path>  (705) 
/opt/xchem-fragalysis-2/maxwin/RdRp_FFF/syndirella/mar_elabs/elabs_061/WVGFLLFSIMGYJN-UHFFFAOYSA-N/output/WVGFLLFSIMGYJN-UHFFFAOYSA-N-2SFedS-2526-B/WVGFLLFSIMGYJN-UHFFFAOYSA-N-2SFedS-2526-B.minimised.mol

>  <distance_score>  (705) 
1.105685

>  <energy_score>  (705) 
-24.868298

>  <compound>  (705) 
WKMJSLNEAXKNIZ-UHFFFAOYSA-N

>  <compound_id>  (705) 
236256

>  <target>  (705) 
Flavi_NS5_RdRp

>  <tags>  (705) 
[]

>  <inspirations>  (705) 
{P Ã— 2}

>  <subsites>  (705) 
None

>  <reference>  (705) 
z0211a

>  <SLURM_JOB_ID>  (705) 
nan

>  <SLURM_JOB_NAME>  (705) 
nan

>  <csv_name>  (705) 
nan

>  <scratch_subdir>  (705) 
nan

>  <fragmenstein_runtime>  (705) 
nan

>  <fragmenstein_outcome>  (705) 
nan

>  <fragmenstein_mode>  (705) 
nan

>  <fragmenstein_error>  (705) 
nan

>  <exports>  (705) 
nan

>  <Multi-SuCOS>  (705) 
nan

>  <merge_set>  (705) 
nan

$$$$
FBSAINMKQIAAOD-BDAKNGLRSA-N
     RDKit          3D

 21 21  0  0  0  0  0  0  0  0999 V2000
  -26.9347  -30.9682  -14.7552 C   0  0  0  0  0  0  0  0  0  0  0  0
  -28.2366  -30.2456  -15.0303 C   0  0  0  0  0  0  0  0  0  0  0  0
  -28.0128  -29.4594  -16.1920 O   0  0  0  0  0  0  0  0  0  0  0  0
  -28.9608  -29.6450  -17.1422 C   0  0  0  0  0  0  0  0  0  0  0  0
  -30.1558  -29.7500  -16.9096 O   0  0  0  0  0  0  0  0  0  0  0  0
  -28.2979  -29.7881  -18.4016 C   0  0  0  0  0  0  0  0  0  0  0  0
  -26.9394  -29.9399  -18.6395 C   0  0  0  0  0  0  0  0  0  0  0  0
  -26.8390  -30.3291  -19.9772 C   0  0  0  0  0  0  0  0  0  0  0  0
  -25.7411  -30.8711  -20.5593 N   0  0  0  0  0  0  0  0  0  0  0  0
  -25.4657  -31.2290  -22.0376 C   0  0  0  0  0  0  0  0  0  0  0  0
  -26.0941  -31.0460  -22.9666 O   0  0  0  0  0  0  0  0  0  0  0  0
  -24.1289  -32.0017  -21.8674 N   0  0  0  0  0  0  0  0  0  0  0  0
  -23.3623  -32.7854  -22.8294 C   0  0  1  0  0  0  0  0  0  0  0  0
  -23.8219  -32.5284  -24.2739 C   0  0  0  0  0  0  0  0  0  0  0  0
  -23.3939  -33.5488  -25.3214 C   0  0  0  0  0  0  0  0  0  0  0  0
  -21.8609  -32.6197  -22.5011 C   0  0  1  0  0  0  0  0  0  0  0  0
  -20.8913  -32.9332  -23.6113 C   0  0  0  0  0  0  0  0  0  0  0  0
  -21.5495  -31.3238  -21.9952 O   0  0  0  0  0  0  0  0  0  0  0  0
  -28.0131  -30.2425  -20.5956 N   0  0  0  0  0  0  0  0  0  0  0  0
  -28.8940  -29.9878  -19.6159 N   0  0  0  0  0  0  0  0  0  0  0  0
  -30.2932  -30.1274  -19.9197 C   0  0  0  0  0  0  0  0  0  0  0  0
  1  2  1  0
  2  3  1  0
  3  4  1  0
  4  5  2  0
  4  6  1  0
  6  7  2  0
  7  8  1  0
  8  9  1  0
  9 10  1  0
 10 11  2  0
 10 12  1  0
 12 13  1  0
 13 14  1  6
 14 15  1  0
 13 16  1  0
 16 17  1  6
 16 18  1  0
  8 19  2  0
 19 20  1  0
 20 21  1  0
 20  6  1  0
M  END
>  <id>  (706) 
437536

>  <inchikey>  (706) 
FBSAINMKQIAAOD-BDAKNGLRSA-N

>  <alias>  (706) 
None

>  <smiles>  (706) 
CCOC(=O)c1cc(NC(=O)N[C@@H](CC)[C@@H](C)O)nn1C

>  <path>  (706) 
/opt/xchem-fragalysis-2/maxwin/RdRp_FFF/syndirella/mar_elabs/elabs_061/WVGFLLFSIMGYJN-UHFFFAOYSA-N/output/WVGFLLFSIMGYJN-UHFFFAOYSA-N-2SFedS-2531-D/WVGFLLFSIMGYJN-UHFFFAOYSA-N-2SFedS-2531-D.minimised.mol

>  <distance_score>  (706) 
0.827272

>  <energy_score>  (706) 
-14.675115

>  <compound>  (706) 
FBSAINMKQIAAOD-UHFFFAOYSA-N

>  <compound_id>  (706) 
236251

>  <target>  (706) 
Flavi_NS5_RdRp

>  <tags>  (706) 
[]

>  <inspirations>  (706) 
{P Ã— 2}

>  <subsites>  (706) 
None

>  <reference>  (706) 
z0211a

>  <SLURM_JOB_ID>  (706) 
nan

>  <SLURM_JOB_NAME>  (706) 
nan

>  <csv_name>  (706) 
nan

>  <scratch_subdir>  (706) 
nan

>  <fragmenstein_runtime>  (706) 
nan

>  <fragmenstein_outcome>  (706) 
nan

>  <fragmenstein_mode>  (706) 
nan

>  <fragmenstein_error>  (706) 
nan

>  <exports>  (706) 
nan

>  <Multi-SuCOS>  (706) 
nan

>  <merge_set>  (706) 
nan

$$$$
QDQWTCXFROMOKG-ZETCQYMHSA-N
     RDKit          3D

 21 21  0  0  0  0  0  0  0  0999 V2000
  -26.5801  -30.9106  -14.8401 C   0  0  0  0  0  0  0  0  0  0  0  0
  -27.9302  -30.2631  -15.0938 C   0  0  0  0  0  0  0  0  0  0  0  0
  -27.8101  -29.5606  -16.3248 O   0  0  0  0  0  0  0  0  0  0  0  0
  -28.8436  -29.7562  -17.1816 C   0  0  0  0  0  0  0  0  0  0  0  0
  -30.0131  -29.8714  -16.8456 O   0  0  0  0  0  0  0  0  0  0  0  0
  -28.2945  -29.8966  -18.4971 C   0  0  0  0  0  0  0  0  0  0  0  0
  -26.9582  -29.9938  -18.8525 C   0  0  0  0  0  0  0  0  0  0  0  0
  -26.9482  -30.3167  -20.2118 C   0  0  0  0  0  0  0  0  0  0  0  0
  -25.8312  -30.6213  -20.9204 N   0  0  0  0  0  0  0  0  0  0  0  0
  -25.6401  -30.8331  -22.3624 C   0  0  0  0  0  0  0  0  0  0  0  0
  -26.3790  -30.7146  -23.2357 O   0  0  0  0  0  0  0  0  0  0  0  0
  -24.1293  -31.3757  -22.3219 N   0  0  0  0  0  0  0  0  0  0  0  0
  -23.2522  -31.9888  -23.3751 C   0  0  0  0  0  0  0  0  0  0  0  0
  -23.4271  -32.1669  -24.5826 N   0  0  0  0  0  0  0  0  0  0  0  0
  -21.9104  -32.3125  -22.6883 C   0  0  2  0  0  0  0  0  0  0  0  0
  -20.9343  -33.0344  -23.5975 C   0  0  0  0  0  0  0  0  0  0  0  0
  -22.1115  -32.9547  -21.4244 O   0  0  0  0  0  0  0  0  0  0  0  0
  -22.5435  -34.3078  -21.5049 C   0  0  0  0  0  0  0  0  0  0  0  0
  -28.1790  -30.3375  -20.7132 N   0  0  0  0  0  0  0  0  0  0  0  0
  -28.9833  -30.1091  -19.6603 N   0  0  0  0  0  0  0  0  0  0  0  0
  -30.4064  -30.2318  -19.8594 C   0  0  0  0  0  0  0  0  0  0  0  0
  1  2  1  0
  2  3  1  0
  3  4  1  0
  4  5  2  0
  4  6  1  0
  6  7  2  0
  7  8  1  0
  8  9  1  0
  9 10  1  0
 10 11  2  0
 10 12  1  0
 12 13  1  0
 13 14  2  3
 13 15  1  0
 15 16  1  6
 15 17  1  0
 17 18  1  0
  8 19  2  0
 19 20  1  0
 20 21  1  0
 20  6  1  0
M  END
>  <id>  (707) 
437540

>  <inchikey>  (707) 
QDQWTCXFROMOKG-ZETCQYMHSA-N

>  <alias>  (707) 
None

>  <smiles>  (707) 
CCOC(=O)c1cc(NC(=O)NC(=N)[C@H](C)OC)nn1C

>  <path>  (707) 
/opt/xchem-fragalysis-2/maxwin/RdRp_FFF/syndirella/mar_elabs/elabs_061/WVGFLLFSIMGYJN-UHFFFAOYSA-N/output/WVGFLLFSIMGYJN-UHFFFAOYSA-N-2SFedS-2537-A/WVGFLLFSIMGYJN-UHFFFAOYSA-N-2SFedS-2537-A.minimised.mol

>  <distance_score>  (707) 
0.879096

>  <energy_score>  (707) 
-25.412435

>  <compound>  (707) 
QDQWTCXFROMOKG-UHFFFAOYSA-N

>  <compound_id>  (707) 
236309

>  <target>  (707) 
Flavi_NS5_RdRp

>  <tags>  (707) 
[]

>  <inspirations>  (707) 
{P Ã— 2}

>  <subsites>  (707) 
None

>  <reference>  (707) 
z0211a

>  <SLURM_JOB_ID>  (707) 
nan

>  <SLURM_JOB_NAME>  (707) 
nan

>  <csv_name>  (707) 
nan

>  <scratch_subdir>  (707) 
nan

>  <fragmenstein_runtime>  (707) 
nan

>  <fragmenstein_outcome>  (707) 
nan

>  <fragmenstein_mode>  (707) 
nan

>  <fragmenstein_error>  (707) 
nan

>  <exports>  (707) 
nan

>  <Multi-SuCOS>  (707) 
nan

>  <merge_set>  (707) 
nan

$$$$
HOVHBUNSBGUTLY-SSDOTTSWSA-N
     RDKit          3D

 21 21  0  0  0  0  0  0  0  0999 V2000
  -26.3155  -31.1290  -14.7815 C   0  0  0  0  0  0  0  0  0  0  0  0
  -27.5345  -30.3178  -15.1790 C   0  0  0  0  0  0  0  0  0  0  0  0
  -27.2330  -29.7333  -16.4433 O   0  0  0  0  0  0  0  0  0  0  0  0
  -28.2719  -29.6848  -17.3184 C   0  0  0  0  0  0  0  0  0  0  0  0
  -29.4431  -29.5592  -16.9934 O   0  0  0  0  0  0  0  0  0  0  0  0
  -27.7470  -29.9044  -18.6364 C   0  0  0  0  0  0  0  0  0  0  0  0
  -26.4352  -30.1880  -18.9843 C   0  0  0  0  0  0  0  0  0  0  0  0
  -26.4561  -30.5128  -20.3459 C   0  0  0  0  0  0  0  0  0  0  0  0
  -25.3998  -31.0577  -21.0020 N   0  0  0  0  0  0  0  0  0  0  0  0
  -25.1899  -31.3120  -22.4349 C   0  0  0  0  0  0  0  0  0  0  0  0
  -25.8377  -31.0390  -23.3407 O   0  0  0  0  0  0  0  0  0  0  0  0
  -23.8145  -32.1893  -22.3086 N   0  0  0  0  0  0  0  0  0  0  0  0
  -22.9717  -33.0412  -23.3613 C   0  0  0  0  0  0  0  0  0  0  0  0
  -23.2210  -33.4174  -24.8558 S   0  0  0  0  0  0  0  0  0  0  0  0
  -21.7606  -33.5366  -22.5372 C   0  0  1  0  0  0  0  0  0  0  0  0
  -20.5711  -32.6334  -22.8102 C   0  0  0  0  0  0  0  0  0  0  0  0
  -22.0745  -33.4693  -21.1355 O   0  0  0  0  0  0  0  0  0  0  0  0
  -21.3603  -34.4213  -20.3547 C   0  0  0  0  0  0  0  0  0  0  0  0
  -27.6676  -30.3366  -20.8621 N   0  0  0  0  0  0  0  0  0  0  0  0
  -28.4477  -30.0277  -19.8081 N   0  0  0  0  0  0  0  0  0  0  0  0
  -29.8724  -30.0003  -20.0331 C   0  0  0  0  0  0  0  0  0  0  0  0
  1  2  1  0
  2  3  1  0
  3  4  1  0
  4  5  2  0
  4  6  1  0
  6  7  2  0
  7  8  1  0
  8  9  1  0
  9 10  1  0
 10 11  2  0
 10 12  1  0
 12 13  1  0
 13 14  2  0
 13 15  1  0
 15 16  1  1
 15 17  1  0
 17 18  1  0
  8 19  2  0
 19 20  1  0
 20 21  1  0
 20  6  1  0
M  END
>  <id>  (708) 
437544

>  <inchikey>  (708) 
HOVHBUNSBGUTLY-SSDOTTSWSA-N

>  <alias>  (708) 
None

>  <smiles>  (708) 
CCOC(=O)c1cc(NC(=O)NC(=S)[C@@H](C)OC)nn1C

>  <path>  (708) 
/opt/xchem-fragalysis-2/maxwin/RdRp_FFF/syndirella/mar_elabs/elabs_061/WVGFLLFSIMGYJN-UHFFFAOYSA-N/output/WVGFLLFSIMGYJN-UHFFFAOYSA-N-2SFedS-2539-B/WVGFLLFSIMGYJN-UHFFFAOYSA-N-2SFedS-2539-B.minimised.mol

>  <distance_score>  (708) 
1.421469

>  <energy_score>  (708) 
-20.323555

>  <compound>  (708) 
HOVHBUNSBGUTLY-UHFFFAOYSA-N

>  <compound_id>  (708) 
236260

>  <target>  (708) 
Flavi_NS5_RdRp

>  <tags>  (708) 
[]

>  <inspirations>  (708) 
{P Ã— 2}

>  <subsites>  (708) 
None

>  <reference>  (708) 
z0211a

>  <SLURM_JOB_ID>  (708) 
nan

>  <SLURM_JOB_NAME>  (708) 
nan

>  <csv_name>  (708) 
nan

>  <scratch_subdir>  (708) 
nan

>  <fragmenstein_runtime>  (708) 
nan

>  <fragmenstein_outcome>  (708) 
nan

>  <fragmenstein_mode>  (708) 
nan

>  <fragmenstein_error>  (708) 
nan

>  <exports>  (708) 
nan

>  <Multi-SuCOS>  (708) 
nan

>  <merge_set>  (708) 
nan

$$$$
QDMNFMWDLITLBA-WPRPVWTQSA-N
     RDKit          3D

 21 21  0  0  0  0  0  0  0  0999 V2000
  -26.8088  -30.9498  -14.7851 C   0  0  0  0  0  0  0  0  0  0  0  0
  -28.0945  -30.2153  -15.0946 C   0  0  0  0  0  0  0  0  0  0  0  0
  -27.8617  -29.4853  -16.2946 O   0  0  0  0  0  0  0  0  0  0  0  0
  -28.8961  -29.5850  -17.1667 C   0  0  0  0  0  0  0  0  0  0  0  0
  -30.0720  -29.5942  -16.8337 O   0  0  0  0  0  0  0  0  0  0  0  0
  -28.3603  -29.7716  -18.4804 C   0  0  0  0  0  0  0  0  0  0  0  0
  -27.0379  -29.7686  -18.8993 C   0  0  0  0  0  0  0  0  0  0  0  0
  -27.0490  -30.4947  -20.0988 C   0  0  0  0  0  0  0  0  0  0  0  0
  -25.9604  -30.9933  -20.7319 N   0  0  0  0  0  0  0  0  0  0  0  0
  -25.7881  -32.2917  -21.5580 C   0  0  0  0  0  0  0  0  0  0  0  0
  -26.5566  -33.0691  -21.8746 O   0  0  0  0  0  0  0  0  0  0  0  0
  -24.2813  -32.1756  -21.9022 N   0  0  0  0  0  0  0  0  0  0  0  0
  -23.4629  -32.9634  -22.7916 C   0  0  1  0  0  0  0  0  0  0  0  0
  -24.1734  -33.2094  -24.1200 C   0  0  0  0  0  0  0  0  0  0  0  0
  -22.0786  -32.2937  -22.9593 C   0  0  1  0  0  0  0  0  0  0  0  0
  -21.5383  -31.9834  -21.6634 O   0  0  0  0  0  0  0  0  0  0  0  0
  -21.0857  -33.2116  -23.6647 C   0  0  0  0  0  0  0  0  0  0  0  0
  -20.9542  -32.9286  -25.1499 C   0  0  0  0  0  0  0  0  0  0  0  0
  -28.2863  -30.7159  -20.5257 N   0  0  0  0  0  0  0  0  0  0  0  0
  -29.0692  -30.1945  -19.5713 N   0  0  0  0  0  0  0  0  0  0  0  0
  -30.4917  -30.3269  -19.7244 C   0  0  0  0  0  0  0  0  0  0  0  0
  1  2  1  0
  2  3  1  0
  3  4  1  0
  4  5  2  0
  4  6  1  0
  6  7  2  0
  7  8  1  0
  8  9  1  0
  9 10  1  0
 10 11  2  0
 10 12  1  0
 12 13  1  0
 13 14  1  6
 13 15  1  0
 15 16  1  1
 15 17  1  0
 17 18  1  0
  8 19  2  0
 19 20  1  0
 20 21  1  0
 20  6  1  0
M  END
>  <id>  (709) 
437548

>  <inchikey>  (709) 
QDMNFMWDLITLBA-WPRPVWTQSA-N

>  <alias>  (709) 
None

>  <smiles>  (709) 
CCOC(=O)c1cc(NC(=O)N[C@@H](C)[C@@H](O)CC)nn1C

>  <path>  (709) 
/opt/xchem-fragalysis-2/maxwin/RdRp_FFF/syndirella/mar_elabs/elabs_061/WVGFLLFSIMGYJN-UHFFFAOYSA-N/output/WVGFLLFSIMGYJN-UHFFFAOYSA-N-2SFedS-2540-D/WVGFLLFSIMGYJN-UHFFFAOYSA-N-2SFedS-2540-D.minimised.mol

>  <distance_score>  (709) 
1.02149

>  <energy_score>  (709) 
-15.326282

>  <compound>  (709) 
QDMNFMWDLITLBA-UHFFFAOYSA-N

>  <compound_id>  (709) 
237204

>  <target>  (709) 
Flavi_NS5_RdRp

>  <tags>  (709) 
[]

>  <inspirations>  (709) 
{P Ã— 2}

>  <subsites>  (709) 
None

>  <reference>  (709) 
z0211a

>  <SLURM_JOB_ID>  (709) 
nan

>  <SLURM_JOB_NAME>  (709) 
nan

>  <csv_name>  (709) 
nan

>  <scratch_subdir>  (709) 
nan

>  <fragmenstein_runtime>  (709) 
nan

>  <fragmenstein_outcome>  (709) 
nan

>  <fragmenstein_mode>  (709) 
nan

>  <fragmenstein_error>  (709) 
nan

>  <exports>  (709) 
nan

>  <Multi-SuCOS>  (709) 
nan

>  <merge_set>  (709) 
nan

$$$$
ZKFAOQYOZOLVEP-SVRRBLITSA-N
     RDKit          3D

 20 20  0  0  0  0  0  0  0  0999 V2000
  -27.8470  -30.0570  -14.9715 C   0  0  0  0  0  0  0  0  0  0  0  0
  -27.5113  -29.8492  -16.3296 O   0  0  0  0  0  0  0  0  0  0  0  0
  -28.5628  -29.8057  -17.1861 C   0  0  0  0  0  0  0  0  0  0  0  0
  -29.7343  -29.7092  -16.8516 O   0  0  0  0  0  0  0  0  0  0  0  0
  -28.0454  -29.9916  -18.5105 C   0  0  0  0  0  0  0  0  0  0  0  0
  -26.7313  -30.2236  -18.8784 C   0  0  0  0  0  0  0  0  0  0  0  0
  -26.7545  -30.4905  -20.2506 C   0  0  0  0  0  0  0  0  0  0  0  0
  -25.6579  -30.8738  -20.9522 N   0  0  0  0  0  0  0  0  0  0  0  0
  -25.4286  -30.9701  -22.4810 C   0  0  0  0  0  0  0  0  0  0  0  0
  -26.1036  -30.6692  -23.3460 O   0  0  0  0  0  0  0  0  0  0  0  0
  -24.0512  -31.6836  -22.4861 N   0  0  0  0  0  0  0  0  0  0  0  0
  -23.2061  -32.0748  -23.5881 C   0  0  2  0  0  0  0  0  0  0  0  0
  -23.8002  -33.2399  -24.3683 C   0  0  0  0  0  0  0  0  0  0  0  0
  -21.7578  -32.2921  -23.1258 C   0  0  1  0  0  0  0  0  0  0  0  0
  -21.3738  -31.2708  -22.1859 O   0  0  0  0  0  0  0  0  0  0  0  0
  -21.5304  -33.6207  -22.4210 C   0  0  0  0  0  0  0  0  0  0  0  0
  -20.2234  -33.6203  -21.8437 O   0  0  0  0  0  0  0  0  0  0  0  0
  -27.9813  -30.3650  -20.7473 N   0  0  0  0  0  0  0  0  0  0  0  0
  -28.7562  -30.1062  -19.6746 N   0  0  0  0  0  0  0  0  0  0  0  0
  -30.1840  -30.1237  -19.8553 C   0  0  0  0  0  0  0  0  0  0  0  0
  1  2  1  0
  2  3  1  0
  3  4  2  0
  3  5  1  0
  5  6  2  0
  6  7  1  0
  7  8  1  0
  8  9  1  0
  9 10  2  0
  9 11  1  0
 11 12  1  0
 12 13  1  1
 12 14  1  0
 14 15  1  1
 14 16  1  0
 16 17  1  0
  7 18  2  0
 18 19  1  0
 19 20  1  0
 19  5  1  0
M  END
>  <id>  (710) 
437937

>  <inchikey>  (710) 
ZKFAOQYOZOLVEP-SVRRBLITSA-N

>  <alias>  (710) 
None

>  <smiles>  (710) 
COC(=O)c1cc(NC(=O)N[C@H](C)[C@@H](O)CO)nn1C

>  <path>  (710) 
/opt/xchem-fragalysis-2/maxwin/RdRp_FFF/syndirella/mar_elabs/elabs_061/WVGFLLFSIMGYJN-UHFFFAOYSA-N/output/WVGFLLFSIMGYJN-UHFFFAOYSA-N-LyiXGx-148-C/WVGFLLFSIMGYJN-UHFFFAOYSA-N-LyiXGx-148-C.minimised.mol

>  <distance_score>  (710) 
0.972944

>  <energy_score>  (710) 
-23.647587

>  <compound>  (710) 
ZKFAOQYOZOLVEP-UHFFFAOYSA-N

>  <compound_id>  (710) 
235140

>  <target>  (710) 
Flavi_NS5_RdRp

>  <tags>  (710) 
[]

>  <inspirations>  (710) 
{P Ã— 2}

>  <subsites>  (710) 
None

>  <reference>  (710) 
z0211a

>  <SLURM_JOB_ID>  (710) 
nan

>  <SLURM_JOB_NAME>  (710) 
nan

>  <csv_name>  (710) 
nan

>  <scratch_subdir>  (710) 
nan

>  <fragmenstein_runtime>  (710) 
nan

>  <fragmenstein_outcome>  (710) 
nan

>  <fragmenstein_mode>  (710) 
nan

>  <fragmenstein_error>  (710) 
nan

>  <exports>  (710) 
nan

>  <Multi-SuCOS>  (710) 
nan

>  <merge_set>  (710) 
nan

$$$$
BGDOMOBLXIJNSY-RNFRBKRXSA-N
     RDKit          3D

 20 20  0  0  0  0  0  0  0  0999 V2000
  -28.2244  -30.2343  -14.9376 C   0  0  0  0  0  0  0  0  0  0  0  0
  -27.8055  -29.8176  -16.2223 O   0  0  0  0  0  0  0  0  0  0  0  0
  -28.8129  -29.7708  -17.1310 C   0  0  0  0  0  0  0  0  0  0  0  0
  -30.0003  -29.7045  -16.8466 O   0  0  0  0  0  0  0  0  0  0  0  0
  -28.2378  -29.9119  -18.4343 C   0  0  0  0  0  0  0  0  0  0  0  0
  -26.9069  -30.1053  -18.7657 C   0  0  0  0  0  0  0  0  0  0  0  0
  -26.8904  -30.3481  -20.1418 C   0  0  0  0  0  0  0  0  0  0  0  0
  -25.7932  -30.7273  -20.8413 N   0  0  0  0  0  0  0  0  0  0  0  0
  -25.5797  -30.8763  -22.3662 C   0  0  0  0  0  0  0  0  0  0  0  0
  -26.2723  -30.6282  -23.2321 O   0  0  0  0  0  0  0  0  0  0  0  0
  -24.1900  -31.5557  -22.3613 N   0  0  0  0  0  0  0  0  0  0  0  0
  -23.3470  -31.9755  -23.4625 C   0  0  2  0  0  0  0  0  0  0  0  0
  -24.0892  -32.9590  -24.3779 C   0  0  0  0  0  0  0  0  0  0  0  0
  -24.4186  -34.1604  -23.6817 O   0  0  0  0  0  0  0  0  0  0  0  0
  -22.0215  -32.5106  -22.8992 C   0  0  1  0  0  0  0  0  0  0  0  0
  -21.0070  -32.8524  -23.9727 C   0  0  0  0  0  0  0  0  0  0  0  0
  -21.4351  -31.5244  -22.0354 O   0  0  0  0  0  0  0  0  0  0  0  0
  -28.1024  -30.2247  -20.6724 N   0  0  0  0  0  0  0  0  0  0  0  0
  -28.9131  -30.0313  -19.6186 N   0  0  0  0  0  0  0  0  0  0  0  0
  -30.3306  -30.1468  -19.8340 C   0  0  0  0  0  0  0  0  0  0  0  0
  1  2  1  0
  2  3  1  0
  3  4  2  0
  3  5  1  0
  5  6  2  0
  6  7  1  0
  7  8  1  0
  8  9  1  0
  9 10  2  0
  9 11  1  0
 11 12  1  0
 12 13  1  1
 13 14  1  0
 12 15  1  0
 15 16  1  6
 15 17  1  0
  7 18  2  0
 18 19  1  0
 19 20  1  0
 19  5  1  0
M  END
>  <id>  (711) 
437945

>  <inchikey>  (711) 
BGDOMOBLXIJNSY-RNFRBKRXSA-N

>  <alias>  (711) 
None

>  <smiles>  (711) 
COC(=O)c1cc(NC(=O)N[C@H](CO)[C@@H](C)O)nn1C

>  <path>  (711) 
/opt/xchem-fragalysis-2/maxwin/RdRp_FFF/syndirella/mar_elabs/elabs_061/WVGFLLFSIMGYJN-UHFFFAOYSA-N/output/WVGFLLFSIMGYJN-UHFFFAOYSA-N-LyiXGx-161-C/WVGFLLFSIMGYJN-UHFFFAOYSA-N-LyiXGx-161-C.minimised.mol

>  <distance_score>  (711) 
0.828278

>  <energy_score>  (711) 
-7.702212

>  <compound>  (711) 
BGDOMOBLXIJNSY-UHFFFAOYSA-N

>  <compound_id>  (711) 
235056

>  <target>  (711) 
Flavi_NS5_RdRp

>  <tags>  (711) 
[]

>  <inspirations>  (711) 
{P Ã— 2}

>  <subsites>  (711) 
None

>  <reference>  (711) 
z0211a

>  <SLURM_JOB_ID>  (711) 
nan

>  <SLURM_JOB_NAME>  (711) 
nan

>  <csv_name>  (711) 
nan

>  <scratch_subdir>  (711) 
nan

>  <fragmenstein_runtime>  (711) 
nan

>  <fragmenstein_outcome>  (711) 
nan

>  <fragmenstein_mode>  (711) 
nan

>  <fragmenstein_error>  (711) 
nan

>  <exports>  (711) 
nan

>  <Multi-SuCOS>  (711) 
nan

>  <merge_set>  (711) 
nan

$$$$
JNSRIQOBBRNHSC-QMMMGPOBSA-N
     RDKit          3D

 20 20  0  0  0  0  0  0  0  0999 V2000
  -28.2183  -30.7124  -14.7504 C   0  0  0  0  0  0  0  0  0  0  0  0
  -26.9604  -30.2536  -15.4482 C   0  0  0  0  0  0  0  0  0  0  0  0
  -27.1897  -29.1743  -16.3571 O   0  0  0  0  0  0  0  0  0  0  0  0
  -28.2673  -29.3206  -17.1778 C   0  0  0  0  0  0  0  0  0  0  0  0
  -29.4045  -29.0300  -16.8387 O   0  0  0  0  0  0  0  0  0  0  0  0
  -27.8415  -29.7950  -18.4560 C   0  0  0  0  0  0  0  0  0  0  0  0
  -26.5635  -30.1382  -18.8495 C   0  0  0  0  0  0  0  0  0  0  0  0
  -26.6652  -30.4999  -20.1935 C   0  0  0  0  0  0  0  0  0  0  0  0
  -25.6120  -30.9373  -20.9171 N   0  0  0  0  0  0  0  0  0  0  0  0
  -25.4258  -31.0472  -22.4448 C   0  0  0  0  0  0  0  0  0  0  0  0
  -26.1040  -30.7145  -23.2928 O   0  0  0  0  0  0  0  0  0  0  0  0
  -24.0983  -31.8311  -22.4792 N   0  0  0  0  0  0  0  0  0  0  0  0
  -23.3128  -32.2700  -23.5862 C   0  0  0  0  0  0  0  0  0  0  0  0
  -21.8234  -32.1277  -23.2650 C   0  0  2  0  0  0  0  0  0  0  0  0
  -21.0313  -32.9983  -24.2206 C   0  0  0  0  0  0  0  0  0  0  0  0
  -21.6011  -32.5943  -21.9195 O   0  0  0  0  0  0  0  0  0  0  0  0
  -20.6125  -31.8425  -21.2273 C   0  0  0  0  0  0  0  0  0  0  0  0
  -27.9134  -30.4017  -20.6370 N   0  0  0  0  0  0  0  0  0  0  0  0
  -28.6259  -30.0555  -19.5494 N   0  0  0  0  0  0  0  0  0  0  0  0
  -30.0612  -30.0996  -19.6524 C   0  0  0  0  0  0  0  0  0  0  0  0
  1  2  1  0
  2  3  1  0
  3  4  1  0
  4  5  2  0
  4  6  1  0
  6  7  2  0
  7  8  1  0
  8  9  1  0
  9 10  1  0
 10 11  2  0
 10 12  1  0
 12 13  1  0
 13 14  1  0
 14 15  1  6
 14 16  1  0
 16 17  1  0
  8 18  2  0
 18 19  1  0
 19 20  1  0
 19  6  1  0
M  END
>  <id>  (712) 
437948

>  <inchikey>  (712) 
JNSRIQOBBRNHSC-QMMMGPOBSA-N

>  <alias>  (712) 
None

>  <smiles>  (712) 
CCOC(=O)c1cc(NC(=O)NC[C@H](C)OC)nn1C

>  <path>  (712) 
/opt/xchem-fragalysis-2/maxwin/RdRp_FFF/syndirella/mar_elabs/elabs_061/WVGFLLFSIMGYJN-UHFFFAOYSA-N/output/WVGFLLFSIMGYJN-UHFFFAOYSA-N-LyiXGx-170-A/WVGFLLFSIMGYJN-UHFFFAOYSA-N-LyiXGx-170-A.minimised.mol

>  <distance_score>  (712) 
1.034216

>  <energy_score>  (712) 
-3.495431

>  <compound>  (712) 
JNSRIQOBBRNHSC-UHFFFAOYSA-N

>  <compound_id>  (712) 
234904

>  <target>  (712) 
Flavi_NS5_RdRp

>  <tags>  (712) 
[]

>  <inspirations>  (712) 
{P Ã— 2}

>  <subsites>  (712) 
None

>  <reference>  (712) 
z0211a

>  <SLURM_JOB_ID>  (712) 
nan

>  <SLURM_JOB_NAME>  (712) 
nan

>  <csv_name>  (712) 
nan

>  <scratch_subdir>  (712) 
nan

>  <fragmenstein_runtime>  (712) 
nan

>  <fragmenstein_outcome>  (712) 
nan

>  <fragmenstein_mode>  (712) 
nan

>  <fragmenstein_error>  (712) 
nan

>  <exports>  (712) 
nan

>  <Multi-SuCOS>  (712) 
nan

>  <merge_set>  (712) 
nan

$$$$
IGERHVJINVINLT-LBPRGKRZSA-N
     RDKit          3D

 20 20  0  0  0  0  0  0  0  0999 V2000
  -21.5397  -33.1285  -20.9803 C   0  0  0  0  0  0  0  0  0  0  0  0
  -21.1800  -33.5220  -22.4102 C   0  0  0  0  0  0  0  0  0  0  0  0
  -21.6885  -32.5987  -23.5262 C   0  0  2  0  0  0  0  0  0  0  0  0
  -21.1073  -33.0890  -24.8549 C   0  0  0  0  0  0  0  0  0  0  0  0
  -21.1557  -31.2926  -23.2673 O   0  0  0  0  0  0  0  0  0  0  0  0
  -23.2158  -32.5984  -23.6756 C   0  0  0  0  0  0  0  0  0  0  0  0
  -23.8611  -32.0152  -22.5476 N   0  0  0  0  0  0  0  0  0  0  0  0
  -25.2690  -32.2549  -21.9688 C   0  0  0  0  0  0  0  0  0  0  0  0
  -26.0689  -33.0016  -22.2705 O   0  0  0  0  0  0  0  0  0  0  0  0
  -25.3088  -31.1213  -20.9336 N   0  0  0  0  0  0  0  0  0  0  0  0
  -26.3224  -30.6643  -20.1837 C   0  0  0  0  0  0  0  0  0  0  0  0
  -27.6960  -30.8818  -20.3479 C   0  0  0  0  0  0  0  0  0  0  0  0
  -28.2832  -30.3126  -19.2354 C   0  0  0  0  0  0  0  0  0  0  0  0
  -29.6522  -30.3746  -18.8175 C   0  0  0  0  0  0  0  0  0  0  0  0
  -30.5493  -30.9786  -19.3837 O   0  0  0  0  0  0  0  0  0  0  0  0
  -29.7627  -29.7280  -17.6366 O   0  0  0  0  0  0  0  0  0  0  0  0
  -30.6761  -30.2568  -16.6989 C   0  0  0  0  0  0  0  0  0  0  0  0
  -27.2308  -29.8089  -18.5165 N   0  0  0  0  0  0  0  0  0  0  0  0
  -27.1938  -29.4134  -17.1424 C   0  0  0  0  0  0  0  0  0  0  0  0
  -26.0565  -29.8905  -19.1421 N   0  0  0  0  0  0  0  0  0  0  0  0
  1  2  1  0
  2  3  1  0
  3  4  1  6
  3  5  1  0
  3  6  1  0
  6  7  1  0
  7  8  1  0
  8  9  2  0
  8 10  1  0
 10 11  1  0
 11 12  1  0
 12 13  2  0
 13 14  1  0
 14 15  2  0
 14 16  1  0
 16 17  1  0
 13 18  1  0
 18 19  1  0
 18 20  1  0
 20 11  2  0
M  END
>  <id>  (713) 
437987

>  <inchikey>  (713) 
IGERHVJINVINLT-LBPRGKRZSA-N

>  <alias>  (713) 
None

>  <smiles>  (713) 
CC[C@](C)(O)CNC(=O)Nc1cc(C(=O)OC)n(C)n1

>  <path>  (713) 
/opt/xchem-fragalysis-2/maxwin/RdRp_FFF/syndirella/mar_elabs/elabs_061/WVGFLLFSIMGYJN-UHFFFAOYSA-N/output/WVGFLLFSIMGYJN-UHFFFAOYSA-N-LyiXGx-349-A/WVGFLLFSIMGYJN-UHFFFAOYSA-N-LyiXGx-349-A.minimised.mol

>  <distance_score>  (713) 
1.496326

>  <energy_score>  (713) 
-12.284784

>  <compound>  (713) 
IGERHVJINVINLT-UHFFFAOYSA-N

>  <compound_id>  (713) 
235133

>  <target>  (713) 
Flavi_NS5_RdRp

>  <tags>  (713) 
[]

>  <inspirations>  (713) 
{P Ã— 2}

>  <subsites>  (713) 
None

>  <reference>  (713) 
z0211a

>  <SLURM_JOB_ID>  (713) 
nan

>  <SLURM_JOB_NAME>  (713) 
nan

>  <csv_name>  (713) 
nan

>  <scratch_subdir>  (713) 
nan

>  <fragmenstein_runtime>  (713) 
nan

>  <fragmenstein_outcome>  (713) 
nan

>  <fragmenstein_mode>  (713) 
nan

>  <fragmenstein_error>  (713) 
nan

>  <exports>  (713) 
nan

>  <Multi-SuCOS>  (713) 
nan

>  <merge_set>  (713) 
nan

$$$$
BDYJIKMMXCZIRN-SSDOTTSWSA-N
     RDKit          3D

 20 20  0  0  0  0  0  0  0  0999 V2000
  -28.1129  -30.1063  -14.9373 C   0  0  0  0  0  0  0  0  0  0  0  0
  -27.7981  -29.5912  -16.2167 O   0  0  0  0  0  0  0  0  0  0  0  0
  -28.8316  -29.6827  -17.0904 C   0  0  0  0  0  0  0  0  0  0  0  0
  -30.0120  -29.6902  -16.7716 O   0  0  0  0  0  0  0  0  0  0  0  0
  -28.2823  -29.8638  -18.3980 C   0  0  0  0  0  0  0  0  0  0  0  0
  -26.9559  -29.8445  -18.7918 C   0  0  0  0  0  0  0  0  0  0  0  0
  -26.9330  -30.5346  -20.0109 C   0  0  0  0  0  0  0  0  0  0  0  0
  -25.8000  -30.8919  -20.6607 N   0  0  0  0  0  0  0  0  0  0  0  0
  -25.5580  -31.9909  -21.7207 C   0  0  0  0  0  0  0  0  0  0  0  0
  -26.2615  -32.7862  -22.1289 O   0  0  0  0  0  0  0  0  0  0  0  0
  -24.1120  -31.6264  -22.1361 N   0  0  0  0  0  0  0  0  0  0  0  0
  -23.3033  -32.1228  -23.2034 C   0  0  0  0  0  0  0  0  0  0  0  0
  -21.8098  -32.1142  -22.8755 C   0  0  1  0  0  0  0  0  0  0  0  0
  -21.5083  -31.4321  -21.6527 O   0  0  0  0  0  0  0  0  0  0  0  0
  -21.2131  -33.5161  -22.8515 C   0  0  0  0  0  0  0  0  0  0  0  0
  -21.5037  -34.4554  -21.2955 S   0  0  0  0  0  0  0  0  0  0  0  0
  -23.1471  -35.1407  -21.6088 C   0  0  0  0  0  0  0  0  0  0  0  0
  -28.1610  -30.7841  -20.4565 N   0  0  0  0  0  0  0  0  0  0  0  0
  -28.9664  -30.2734  -19.5084 N   0  0  0  0  0  0  0  0  0  0  0  0
  -30.3885  -30.3614  -19.6969 C   0  0  0  0  0  0  0  0  0  0  0  0
  1  2  1  0
  2  3  1  0
  3  4  2  0
  3  5  1  0
  5  6  2  0
  6  7  1  0
  7  8  1  0
  8  9  1  0
  9 10  2  0
  9 11  1  0
 11 12  1  0
 12 13  1  0
 13 14  1  1
 13 15  1  0
 15 16  1  0
 16 17  1  0
  7 18  2  0
 18 19  1  0
 19 20  1  0
 19  5  1  0
M  END
>  <id>  (714) 
437992

>  <inchikey>  (714) 
BDYJIKMMXCZIRN-SSDOTTSWSA-N

>  <alias>  (714) 
None

>  <smiles>  (714) 
COC(=O)c1cc(NC(=O)NC[C@@H](O)CSC)nn1C

>  <path>  (714) 
/opt/xchem-fragalysis-2/maxwin/RdRp_FFF/syndirella/mar_elabs/elabs_061/WVGFLLFSIMGYJN-UHFFFAOYSA-N/output/WVGFLLFSIMGYJN-UHFFFAOYSA-N-LyiXGx-352-B/WVGFLLFSIMGYJN-UHFFFAOYSA-N-LyiXGx-352-B.minimised.mol

>  <distance_score>  (714) 
0.978942

>  <energy_score>  (714) 
-21.005343

>  <compound>  (714) 
BDYJIKMMXCZIRN-UHFFFAOYSA-N

>  <compound_id>  (714) 
235083

>  <target>  (714) 
Flavi_NS5_RdRp

>  <tags>  (714) 
[]

>  <inspirations>  (714) 
{P Ã— 2}

>  <subsites>  (714) 
None

>  <reference>  (714) 
z0211a

>  <SLURM_JOB_ID>  (714) 
nan

>  <SLURM_JOB_NAME>  (714) 
nan

>  <csv_name>  (714) 
nan

>  <scratch_subdir>  (714) 
nan

>  <fragmenstein_runtime>  (714) 
nan

>  <fragmenstein_outcome>  (714) 
nan

>  <fragmenstein_mode>  (714) 
nan

>  <fragmenstein_error>  (714) 
nan

>  <exports>  (714) 
nan

>  <Multi-SuCOS>  (714) 
nan

>  <merge_set>  (714) 
nan

$$$$
QBFUUOSPMXKFRE-ZDUSSCGKSA-N
     RDKit          3D

 21 21  0  0  0  0  0  0  0  0999 V2000
  -26.8606  -30.9040  -14.7996 C   0  0  0  0  0  0  0  0  0  0  0  0
  -28.1708  -30.1953  -15.0661 C   0  0  0  0  0  0  0  0  0  0  0  0
  -27.9796  -29.4239  -16.2460 O   0  0  0  0  0  0  0  0  0  0  0  0
  -28.9706  -29.6165  -17.1494 C   0  0  0  0  0  0  0  0  0  0  0  0
  -30.1571  -29.6799  -16.8612 O   0  0  0  0  0  0  0  0  0  0  0  0
  -28.3740  -29.8236  -18.4326 C   0  0  0  0  0  0  0  0  0  0  0  0
  -27.0342  -29.8275  -18.7879 C   0  0  0  0  0  0  0  0  0  0  0  0
  -26.9867  -30.5419  -19.9934 C   0  0  0  0  0  0  0  0  0  0  0  0
  -25.8575  -30.9583  -20.6160 N   0  0  0  0  0  0  0  0  0  0  0  0
  -25.6427  -32.0888  -21.6523 C   0  0  0  0  0  0  0  0  0  0  0  0
  -26.3718  -32.8623  -22.0580 O   0  0  0  0  0  0  0  0  0  0  0  0
  -24.1750  -31.7927  -22.0488 N   0  0  0  0  0  0  0  0  0  0  0  0
  -23.3671  -32.3453  -23.0953 C   0  0  0  0  0  0  0  0  0  0  0  0
  -21.9110  -32.5706  -22.6678 C   0  0  1  0  0  0  0  0  0  0  0  0
  -21.1018  -32.9799  -23.8963 C   0  0  0  0  0  0  0  0  0  0  0  0
  -21.3390  -31.3491  -22.1763 O   0  0  0  0  0  0  0  0  0  0  0  0
  -21.7684  -33.5960  -21.5229 C   0  0  0  0  0  0  0  0  0  0  0  0
  -22.4135  -34.9527  -21.7657 C   0  0  0  0  0  0  0  0  0  0  0  0
  -28.2059  -30.7744  -20.4706 N   0  0  0  0  0  0  0  0  0  0  0  0
  -29.0310  -30.2495  -19.5525 N   0  0  0  0  0  0  0  0  0  0  0  0
  -30.4470  -30.3488  -19.7754 C   0  0  0  0  0  0  0  0  0  0  0  0
  1  2  1  0
  2  3  1  0
  3  4  1  0
  4  5  2  0
  4  6  1  0
  6  7  2  0
  7  8  1  0
  8  9  1  0
  9 10  1  0
 10 11  2  0
 10 12  1  0
 12 13  1  0
 13 14  1  0
 14 15  1  6
 14 16  1  0
 14 17  1  0
 17 18  1  0
  8 19  2  0
 19 20  1  0
 20 21  1  0
 20  6  1  0
M  END
>  <id>  (715) 
438020

>  <inchikey>  (715) 
QBFUUOSPMXKFRE-ZDUSSCGKSA-N

>  <alias>  (715) 
None

>  <smiles>  (715) 
CCOC(=O)c1cc(NC(=O)NC[C@@](C)(O)CC)nn1C

>  <path>  (715) 
/opt/xchem-fragalysis-2/maxwin/RdRp_FFF/syndirella/mar_elabs/elabs_061/WVGFLLFSIMGYJN-UHFFFAOYSA-N/output/WVGFLLFSIMGYJN-UHFFFAOYSA-N-LyiXGx-495-B/WVGFLLFSIMGYJN-UHFFFAOYSA-N-LyiXGx-495-B.minimised.mol

>  <distance_score>  (715) 
0.978712

>  <energy_score>  (715) 
-6.058914

>  <compound>  (715) 
QBFUUOSPMXKFRE-UHFFFAOYSA-N

>  <compound_id>  (715) 
236244

>  <target>  (715) 
Flavi_NS5_RdRp

>  <tags>  (715) 
[]

>  <inspirations>  (715) 
{P Ã— 2}

>  <subsites>  (715) 
None

>  <reference>  (715) 
z0211a

>  <SLURM_JOB_ID>  (715) 
nan

>  <SLURM_JOB_NAME>  (715) 
nan

>  <csv_name>  (715) 
nan

>  <scratch_subdir>  (715) 
nan

>  <fragmenstein_runtime>  (715) 
nan

>  <fragmenstein_outcome>  (715) 
nan

>  <fragmenstein_mode>  (715) 
nan

>  <fragmenstein_error>  (715) 
nan

>  <exports>  (715) 
nan

>  <Multi-SuCOS>  (715) 
nan

>  <merge_set>  (715) 
nan

$$$$
CCVXGJNCGJLTRI-HTQZYQBOSA-N
     RDKit          3D

 21 21  0  0  0  0  0  0  0  0999 V2000
  -27.2760  -31.0839  -14.7073 C   0  0  0  0  0  0  0  0  0  0  0  0
  -28.4969  -30.2524  -15.0926 C   0  0  0  0  0  0  0  0  0  0  0  0
  -28.5693  -29.9940  -16.4934 O   0  0  0  0  0  0  0  0  0  0  0  0
  -27.4197  -29.4996  -16.9973 C   0  0  0  0  0  0  0  0  0  0  0  0
  -26.5555  -28.9219  -16.3519 O   0  0  0  0  0  0  0  0  0  0  0  0
  -27.2901  -29.8269  -18.3713 C   0  0  0  0  0  0  0  0  0  0  0  0
  -26.0710  -30.1088  -18.9323 C   0  0  0  0  0  0  0  0  0  0  0  0
  -26.3408  -30.4915  -20.2408 C   0  0  0  0  0  0  0  0  0  0  0  0
  -25.3396  -30.9303  -21.0276 N   0  0  0  0  0  0  0  0  0  0  0  0
  -25.2790  -31.1148  -22.5499 C   0  0  0  0  0  0  0  0  0  0  0  0
  -26.0365  -30.8518  -23.3509 O   0  0  0  0  0  0  0  0  0  0  0  0
  -23.9368  -31.8506  -22.6571 N   0  0  0  0  0  0  0  0  0  0  0  0
  -23.2254  -32.3249  -23.8104 C   0  0  2  0  0  0  0  0  0  0  0  0
  -24.0062  -33.4295  -24.5335 C   0  0  0  0  0  0  0  0  0  0  0  0
  -25.0479  -32.8845  -25.3427 O   0  0  0  0  0  0  0  0  0  0  0  0
  -21.8412  -32.7554  -23.3099 C   0  0  1  0  0  0  0  0  0  0  0  0
  -20.8417  -32.9271  -24.4288 C   0  0  0  0  0  0  0  0  0  0  0  0
  -21.3193  -31.7716  -22.3975 O   0  0  0  0  0  0  0  0  0  0  0  0
  -27.6351  -30.4077  -20.5336 N   0  0  0  0  0  0  0  0  0  0  0  0
  -28.2100  -30.0624  -19.3588 N   0  0  0  0  0  0  0  0  0  0  0  0
  -29.6493  -30.0541  -19.2813 C   0  0  0  0  0  0  0  0  0  0  0  0
  1  2  1  0
  2  3  1  0
  3  4  1  0
  4  5  2  0
  4  6  1  0
  6  7  2  0
  7  8  1  0
  8  9  1  0
  9 10  1  0
 10 11  2  0
 10 12  1  0
 12 13  1  0
 13 14  1  1
 14 15  1  0
 13 16  1  0
 16 17  1  6
 16 18  1  0
  8 19  2  0
 19 20  1  0
 20 21  1  0
 20  6  1  0
M  END
>  <id>  (716) 
438080

>  <inchikey>  (716) 
CCVXGJNCGJLTRI-HTQZYQBOSA-N

>  <alias>  (716) 
None

>  <smiles>  (716) 
CCOC(=O)c1cc(NC(=O)N[C@H](CO)[C@@H](C)O)nn1C

>  <path>  (716) 
/opt/xchem-fragalysis-2/maxwin/RdRp_FFF/syndirella/mar_elabs/elabs_061/WVGFLLFSIMGYJN-UHFFFAOYSA-N/output/WVGFLLFSIMGYJN-UHFFFAOYSA-N-LyiXGx-983-C/WVGFLLFSIMGYJN-UHFFFAOYSA-N-LyiXGx-983-C.minimised.mol

>  <distance_score>  (716) 
1.137215

>  <energy_score>  (716) 
-7.526031

>  <compound>  (716) 
CCVXGJNCGJLTRI-UHFFFAOYSA-N

>  <compound_id>  (716) 
236367

>  <target>  (716) 
Flavi_NS5_RdRp

>  <tags>  (716) 
[]

>  <inspirations>  (716) 
{P Ã— 2}

>  <subsites>  (716) 
None

>  <reference>  (716) 
z0211a

>  <SLURM_JOB_ID>  (716) 
nan

>  <SLURM_JOB_NAME>  (716) 
nan

>  <csv_name>  (716) 
nan

>  <scratch_subdir>  (716) 
nan

>  <fragmenstein_runtime>  (716) 
nan

>  <fragmenstein_outcome>  (716) 
nan

>  <fragmenstein_mode>  (716) 
nan

>  <fragmenstein_error>  (716) 
nan

>  <exports>  (716) 
nan

>  <Multi-SuCOS>  (716) 
nan

>  <merge_set>  (716) 
nan

$$$$
VGPVZWVDYXPFKG-QMMMGPOBSA-N
     RDKit          3D

 21 21  0  0  0  0  0  0  0  0999 V2000
  -26.9330  -30.8750  -14.7958 C   0  0  0  0  0  0  0  0  0  0  0  0
  -28.2938  -30.2440  -15.0012 C   0  0  0  0  0  0  0  0  0  0  0  0
  -28.1986  -29.4584  -16.1789 O   0  0  0  0  0  0  0  0  0  0  0  0
  -29.1787  -29.7246  -17.0750 C   0  0  0  0  0  0  0  0  0  0  0  0
  -30.3499  -29.9215  -16.7846 O   0  0  0  0  0  0  0  0  0  0  0  0
  -28.5724  -29.8248  -18.3641 C   0  0  0  0  0  0  0  0  0  0  0  0
  -27.2254  -29.9304  -18.6719 C   0  0  0  0  0  0  0  0  0  0  0  0
  -27.1820  -30.1869  -20.0417 C   0  0  0  0  0  0  0  0  0  0  0  0
  -26.0868  -30.5479  -20.7440 N   0  0  0  0  0  0  0  0  0  0  0  0
  -25.8843  -30.7109  -22.2643 C   0  0  0  0  0  0  0  0  0  0  0  0
  -26.5895  -30.4905  -23.1257 O   0  0  0  0  0  0  0  0  0  0  0  0
  -24.4822  -31.3562  -22.2637 N   0  0  0  0  0  0  0  0  0  0  0  0
  -23.6533  -31.7640  -23.3497 C   0  0  0  0  0  0  0  0  0  0  0  0
  -22.3927  -32.4930  -22.9134 C   0  0  2  0  0  0  0  0  0  0  0  0
  -21.4621  -31.5788  -22.3162 O   0  0  0  0  0  0  0  0  0  0  0  0
  -21.7237  -33.1959  -24.0967 C   0  0  0  0  0  0  0  0  0  0  0  0
  -22.7063  -34.6181  -24.7327 S   0  0  0  0  0  0  0  0  0  0  0  0
  -23.4218  -33.8962  -26.2232 C   0  0  0  0  0  0  0  0  0  0  0  0
  -28.3877  -30.1211  -20.5928 N   0  0  0  0  0  0  0  0  0  0  0  0
  -29.2196  -29.9956  -19.5543 N   0  0  0  0  0  0  0  0  0  0  0  0
  -30.6199  -30.2089  -19.7865 C   0  0  0  0  0  0  0  0  0  0  0  0
  1  2  1  0
  2  3  1  0
  3  4  1  0
  4  5  2  0
  4  6  1  0
  6  7  2  0
  7  8  1  0
  8  9  1  0
  9 10  1  0
 10 11  2  0
 10 12  1  0
 12 13  1  0
 13 14  1  0
 14 15  1  6
 14 16  1  0
 16 17  1  0
 17 18  1  0
  8 19  2  0
 19 20  1  0
 20 21  1  0
 20  6  1  0
M  END
>  <id>  (717) 
438081

>  <inchikey>  (717) 
VGPVZWVDYXPFKG-QMMMGPOBSA-N

>  <alias>  (717) 
None

>  <smiles>  (717) 
CCOC(=O)c1cc(NC(=O)NC[C@H](O)CSC)nn1C

>  <path>  (717) 
/opt/xchem-fragalysis-2/maxwin/RdRp_FFF/syndirella/mar_elabs/elabs_061/WVGFLLFSIMGYJN-UHFFFAOYSA-N/output/WVGFLLFSIMGYJN-UHFFFAOYSA-N-LyiXGx-993-A/WVGFLLFSIMGYJN-UHFFFAOYSA-N-LyiXGx-993-A.minimised.mol

>  <distance_score>  (717) 
0.876157

>  <energy_score>  (717) 
-3.732371

>  <compound>  (717) 
VGPVZWVDYXPFKG-UHFFFAOYSA-N

>  <compound_id>  (717) 
236232

>  <target>  (717) 
Flavi_NS5_RdRp

>  <tags>  (717) 
[]

>  <inspirations>  (717) 
{P Ã— 2}

>  <subsites>  (717) 
None

>  <reference>  (717) 
z0211a

>  <SLURM_JOB_ID>  (717) 
nan

>  <SLURM_JOB_NAME>  (717) 
nan

>  <csv_name>  (717) 
nan

>  <scratch_subdir>  (717) 
nan

>  <fragmenstein_runtime>  (717) 
nan

>  <fragmenstein_outcome>  (717) 
nan

>  <fragmenstein_mode>  (717) 
nan

>  <fragmenstein_error>  (717) 
nan

>  <exports>  (717) 
nan

>  <Multi-SuCOS>  (717) 
nan

>  <merge_set>  (717) 
nan

$$$$
FTJFTZPJMVILSY-SECBINFHSA-N
     RDKit          3D

 21 21  0  0  0  0  0  0  0  0999 V2000
  -21.2685  -34.4439  -26.5994 C   0  0  0  0  0  0  0  0  0  0  0  0
  -21.3176  -33.1498  -25.8225 C   0  0  0  0  0  0  0  0  0  0  0  0
  -21.0381  -33.3662  -24.3422 C   0  0  0  0  0  0  0  0  0  0  0  0
  -21.6208  -32.3247  -23.4214 C   0  0  1  0  0  0  0  0  0  0  0  0
  -20.9881  -31.0671  -23.5874 O   0  0  0  0  0  0  0  0  0  0  0  0
  -23.1226  -32.2585  -23.6445 C   0  0  0  0  0  0  0  0  0  0  0  0
  -23.7099  -31.7483  -22.4699 N   0  0  0  0  0  0  0  0  0  0  0  0
  -25.1024  -31.1862  -22.2278 C   0  0  0  0  0  0  0  0  0  0  0  0
  -25.9451  -30.9853  -22.9516 O   0  0  0  0  0  0  0  0  0  0  0  0
  -25.0503  -31.0455  -20.7135 N   0  0  0  0  0  0  0  0  0  0  0  0
  -25.9534  -30.5669  -19.8592 C   0  0  0  0  0  0  0  0  0  0  0  0
  -25.6092  -30.2749  -18.5524 C   0  0  0  0  0  0  0  0  0  0  0  0
  -26.7708  -29.8446  -17.9735 C   0  0  0  0  0  0  0  0  0  0  0  0
  -26.8509  -29.5238  -16.5939 C   0  0  0  0  0  0  0  0  0  0  0  0
  -25.9510  -29.6261  -15.7717 O   0  0  0  0  0  0  0  0  0  0  0  0
  -28.0964  -29.1507  -16.3065 O   0  0  0  0  0  0  0  0  0  0  0  0
  -28.6046  -29.8705  -15.2115 C   0  0  0  0  0  0  0  0  0  0  0  0
  -29.9810  -30.2164  -15.6661 C   0  0  0  0  0  0  0  0  0  0  0  0
  -27.7306  -29.9271  -18.9626 N   0  0  0  0  0  0  0  0  0  0  0  0
  -29.1614  -29.7718  -18.9155 C   0  0  0  0  0  0  0  0  0  0  0  0
  -27.2250  -30.3323  -20.1341 N   0  0  0  0  0  0  0  0  0  0  0  0
  1  2  1  0
  2  3  1  0
  3  4  1  0
  4  5  1  6
  4  6  1  0
  6  7  1  0
  7  8  1  0
  8  9  2  0
  8 10  1  0
 10 11  1  0
 11 12  1  0
 12 13  2  0
 13 14  1  0
 14 15  2  0
 14 16  1  0
 16 17  1  0
 17 18  1  0
 13 19  1  0
 19 20  1  0
 19 21  1  0
 21 11  2  0
M  END
>  <id>  (718) 
438107

>  <inchikey>  (718) 
FTJFTZPJMVILSY-SECBINFHSA-N

>  <alias>  (718) 
None

>  <smiles>  (718) 
CCC[C@@H](O)CNC(=O)Nc1cc(C(=O)OCC)n(C)n1

>  <path>  (718) 
/opt/xchem-fragalysis-2/maxwin/RdRp_FFF/syndirella/mar_elabs/elabs_061/WVGFLLFSIMGYJN-UHFFFAOYSA-N/output/WVGFLLFSIMGYJN-UHFFFAOYSA-N-LyiXGx-1177-B/WVGFLLFSIMGYJN-UHFFFAOYSA-N-LyiXGx-1177-B.minimised.mol

>  <distance_score>  (718) 
1.399859

>  <energy_score>  (718) 
-13.443456

>  <compound>  (718) 
FTJFTZPJMVILSY-UHFFFAOYSA-N

>  <compound_id>  (718) 
236249

>  <target>  (718) 
Flavi_NS5_RdRp

>  <tags>  (718) 
[]

>  <inspirations>  (718) 
{P Ã— 2}

>  <subsites>  (718) 
None

>  <reference>  (718) 
z0211a

>  <SLURM_JOB_ID>  (718) 
nan

>  <SLURM_JOB_NAME>  (718) 
nan

>  <csv_name>  (718) 
nan

>  <scratch_subdir>  (718) 
nan

>  <fragmenstein_runtime>  (718) 
nan

>  <fragmenstein_outcome>  (718) 
nan

>  <fragmenstein_mode>  (718) 
nan

>  <fragmenstein_error>  (718) 
nan

>  <exports>  (718) 
nan

>  <Multi-SuCOS>  (718) 
nan

>  <merge_set>  (718) 
nan

$$$$
ATRHZQULTOLOTE-UHFFFAOYSA-N
     RDKit          3D

 19 21  0  0  0  0  0  0  0  0999 V2000
  -14.8787  -39.3501  -20.4236 C   0  0  0  0  0  0  0  0  0  0  0  0
  -14.9323  -39.5645  -21.8903 C   0  0  0  0  0  0  0  0  0  0  0  0
  -14.3892  -38.6757  -22.7652 N   0  0  0  0  0  0  0  0  0  0  0  0
  -14.5183  -39.0433  -24.0404 N   0  0  0  0  0  0  0  0  0  0  0  0
  -15.2354  -40.1665  -23.9905 C   0  0  0  0  0  0  0  0  0  0  0  0
  -15.7385  -41.1315  -25.5148 Br  0  0  0  0  0  0  0  0  0  0  0  0
  -15.4939  -40.5682  -22.6778 C   0  0  0  0  0  0  0  0  0  0  0  0
  -16.0746  -41.7808  -22.1436 C   0  0  0  0  0  0  0  0  0  0  0  0
  -17.1922  -42.0886  -22.2437 O   0  0  0  0  0  0  0  0  0  0  0  0
  -14.9255  -42.4440  -21.3758 N   0  0  0  0  0  0  0  0  0  0  0  0
  -14.9243  -43.5325  -20.5222 C   0  0  0  0  0  0  0  0  0  0  0  0
  -13.8226  -43.4489  -19.6667 C   0  0  0  0  0  0  0  0  0  0  0  0
  -13.7657  -44.2303  -18.5450 C   0  0  0  0  0  0  0  0  0  0  0  0
  -14.7335  -45.1947  -18.3919 C   0  0  0  0  0  0  0  0  0  0  0  0
  -15.7479  -45.3820  -19.2510 N   0  0  0  0  0  0  0  0  0  0  0  0
  -15.8826  -44.5318  -20.3120 C   0  0  0  0  0  0  0  0  0  0  0  0
  -17.1100  -44.7761  -21.1481 C   0  0  0  0  0  0  0  0  0  0  0  0
  -17.4515  -46.2084  -21.5215 C   0  0  0  0  0  0  0  0  0  0  0  0
  -17.0173  -45.2345  -22.5748 C   0  0  0  0  0  0  0  0  0  0  0  0
  1  2  1  0
  2  3  1  0
  3  4  1  0
  4  5  2  0
  5  6  1  0
  5  7  1  0
  7  8  1  0
  8  9  2  0
  8 10  1  0
 10 11  1  0
 11 12  2  0
 12 13  1  0
 13 14  2  0
 14 15  1  0
 15 16  2  0
 16 17  1  0
 17 18  1  0
 18 19  1  0
  7  2  2  0
 16 11  1  0
 19 17  1  0
M  END
>  <id>  (719) 
441159

>  <inchikey>  (719) 
ATRHZQULTOLOTE-UHFFFAOYSA-N

>  <alias>  (719) 
None

>  <smiles>  (719) 
Cc1[nH]nc(Br)c1C(=O)Nc1cccnc1C1CC1

>  <path>  (719) 
/opt/xchem-fragalysis-2/maxwin/RdRp_FFF/syndirella/mar_elabs/elabs_035/OUADHXQUGPVFPL-UHFFFAOYSA-N/output/OUADHXQUGPVFPL-UHFFFAOYSA-N-PBqB9Z-409-A/OUADHXQUGPVFPL-UHFFFAOYSA-N-PBqB9Z-409-A.minimised.mol

>  <distance_score>  (719) 
1.408195

>  <energy_score>  (719) 
-21.085126

>  <compound>  (719) 
ATRHZQULTOLOTE-UHFFFAOYSA-N

>  <compound_id>  (719) 
110037

>  <target>  (719) 
Flavi_NS5_RdRp

>  <tags>  (719) 
[]

>  <inspirations>  (719) 
{P Ã— 2}

>  <subsites>  (719) 
None

>  <reference>  (719) 
d0160a

>  <SLURM_JOB_ID>  (719) 
nan

>  <SLURM_JOB_NAME>  (719) 
nan

>  <csv_name>  (719) 
nan

>  <scratch_subdir>  (719) 
nan

>  <fragmenstein_runtime>  (719) 
nan

>  <fragmenstein_outcome>  (719) 
nan

>  <fragmenstein_mode>  (719) 
nan

>  <fragmenstein_error>  (719) 
nan

>  <exports>  (719) 
nan

>  <Multi-SuCOS>  (719) 
nan

>  <merge_set>  (719) 
nan

$$$$
CBUMYQVDCDAJDK-UHFFFAOYSA-N
     RDKit          3D

 20 22  0  0  0  0  0  0  0  0999 V2000
  -15.9442  -41.9520  -22.9258 O   0  0  0  0  0  0  0  0  0  0  0  0
  -15.0918  -41.5390  -22.2489 C   0  0  0  0  0  0  0  0  0  0  0  0
  -14.5277  -42.0697  -20.9240 N   0  0  0  0  0  0  0  0  0  0  0  0
  -14.8156  -43.2306  -20.2214 C   0  0  0  0  0  0  0  0  0  0  0  0
  -13.9812  -43.2711  -19.1026 C   0  0  0  0  0  0  0  0  0  0  0  0
  -14.0814  -44.2775  -18.1844 C   0  0  0  0  0  0  0  0  0  0  0  0
  -14.9629  -45.2945  -18.4369 C   0  0  0  0  0  0  0  0  0  0  0  0
  -15.7641  -45.3176  -19.5118 N   0  0  0  0  0  0  0  0  0  0  0  0
  -15.7320  -44.2742  -20.4051 C   0  0  0  0  0  0  0  0  0  0  0  0
  -16.7994  -44.3394  -21.4633 C   0  0  0  0  0  0  0  0  0  0  0  0
  -17.3626  -45.6951  -21.8669 C   0  0  0  0  0  0  0  0  0  0  0  0
  -16.5145  -44.9106  -22.8189 C   0  0  0  0  0  0  0  0  0  0  0  0
  -14.3438  -40.3095  -22.5440 C   0  0  0  0  0  0  0  0  0  0  0  0
  -14.6925  -39.2325  -23.3799 C   0  0  0  0  0  0  0  0  0  0  0  0
  -13.8194  -38.2172  -23.3003 N   0  0  0  0  0  0  0  0  0  0  0  0
  -12.8652  -38.6664  -22.4738 N   0  0  0  0  0  0  0  0  0  0  0  0
  -11.6879  -37.8591  -22.1936 C   0  0  0  0  0  0  0  0  0  0  0  0
  -11.9377  -36.8349  -21.0992 C   0  0  0  0  0  0  0  0  0  0  0  0
  -11.9876  -37.4778  -19.8236 O   0  0  0  0  0  0  0  0  0  0  0  0
  -13.1048  -39.9311  -22.0378 C   0  0  0  0  0  0  0  0  0  0  0  0
  1  2  2  0
  2  3  1  0
  3  4  1  0
  4  5  2  0
  5  6  1  0
  6  7  2  0
  7  8  1  0
  8  9  2  0
  9 10  1  0
 10 11  1  0
 11 12  1  0
  2 13  1  0
 13 14  1  0
 14 15  2  0
 15 16  1  0
 16 17  1  0
 17 18  1  0
 18 19  1  0
 16 20  1  0
  9  4  1  0
 12 10  1  0
 20 13  2  0
M  END
>  <id>  (720) 
441306

>  <inchikey>  (720) 
CBUMYQVDCDAJDK-UHFFFAOYSA-N

>  <alias>  (720) 
None

>  <smiles>  (720) 
O=C(Nc1cccnc1C1CC1)c1cnn(CCO)c1

>  <path>  (720) 
/opt/xchem-fragalysis-2/maxwin/RdRp_FFF/syndirella/mar_elabs/elabs_035/OUADHXQUGPVFPL-UHFFFAOYSA-N/output/OUADHXQUGPVFPL-UHFFFAOYSA-N-PBqB9Z-683-A/OUADHXQUGPVFPL-UHFFFAOYSA-N-PBqB9Z-683-A.minimised.mol

>  <distance_score>  (720) 
1.73479

>  <energy_score>  (720) 
-18.143619

>  <compound>  (720) 
CBUMYQVDCDAJDK-UHFFFAOYSA-N

>  <compound_id>  (720) 
110260

>  <target>  (720) 
Flavi_NS5_RdRp

>  <tags>  (720) 
[]

>  <inspirations>  (720) 
{P Ã— 2}

>  <subsites>  (720) 
None

>  <reference>  (720) 
d0160a

>  <SLURM_JOB_ID>  (720) 
nan

>  <SLURM_JOB_NAME>  (720) 
nan

>  <csv_name>  (720) 
nan

>  <scratch_subdir>  (720) 
nan

>  <fragmenstein_runtime>  (720) 
nan

>  <fragmenstein_outcome>  (720) 
nan

>  <fragmenstein_mode>  (720) 
nan

>  <fragmenstein_error>  (720) 
nan

>  <exports>  (720) 
nan

>  <Multi-SuCOS>  (720) 
nan

>  <merge_set>  (720) 
nan

$$$$
