DKXOGIRLTSGRJI-UHFFFAOYSA-N-P446140-P446140-541666
     RDKit          3D

 21 23  0  0  0  0  0  0  0  0999 V2000
   -1.8823  -60.0872   -9.0935 C   0  0  0  0  0  0  0  0  0  0  0  0
   -3.0282  -59.8592  -10.0371 C   0  0  0  0  0  0  0  0  0  0  0  0
   -3.6995  -58.6426   -9.9821 C   0  0  0  0  0  0  0  0  0  0  0  0
   -4.7432  -58.3032  -10.7703 N   0  0  0  0  0  0  0  0  0  0  0  0
   -5.1485  -59.2305  -11.6649 C   0  0  0  0  0  0  0  0  0  0  0  0
   -4.5620  -60.4778  -11.8007 C   0  0  0  0  0  0  0  0  0  0  0  0
   -3.4878  -60.8119  -10.9677 C   0  0  0  0  0  0  0  0  0  0  0  0
   -2.8841  -62.1953  -11.0018 C   0  0  0  0  0  0  0  0  0  0  0  0
   -2.4406  -62.6079  -10.0027 O   0  0  0  0  0  0  0  0  0  0  0  0
   -2.9326  -62.8285  -12.4169 N   0  0  0  0  0  0  0  0  0  0  0  0
   -2.5425  -64.0994  -12.8588 C   0  0  0  0  0  0  0  0  0  0  0  0
   -3.3429  -64.6415  -13.8650 C   0  0  0  0  0  0  0  0  0  0  0  0
   -3.1617  -65.9575  -14.2614 C   0  0  0  0  0  0  0  0  0  0  0  0
   -2.1480  -66.7234  -13.6870 C   0  0  0  0  0  0  0  0  0  0  0  0
   -2.0245  -68.3768  -14.1994 Cl  0  0  0  0  0  0  0  0  0  0  0  0
   -1.2609  -66.1941  -12.7423 C   0  0  0  0  0  0  0  0  0  0  0  0
   -0.2499  -66.9550  -12.2557 N   0  0  0  0  0  0  0  0  0  0  0  0
    0.6177  -66.4179  -11.3778 C   0  0  0  0  0  0  0  0  0  0  0  0
    0.5501  -65.1142  -10.9526 C   0  0  0  0  0  0  0  0  0  0  0  0
   -0.4865  -64.3297  -11.4417 C   0  0  0  0  0  0  0  0  0  0  0  0
   -1.4550  -64.8508  -12.3275 C   0  0  0  0  0  0  0  0  0  0  0  0
  1  2  1  0
  2  3  2  0
  3  4  1  0
  4  5  2  0
  5  6  1  0
  6  7  2  0
  7  8  1  0
  8  9  2  0
  8 10  1  0
 10 11  1  0
 11 12  2  0
 12 13  1  0
 13 14  2  0
 14 15  1  0
 14 16  1  0
 16 17  2  0
 17 18  1  0
 18 19  2  0
 19 20  1  0
 20 21  2  0
  7  2  1  0
 21 11  1  0
 21 16  1  0
M  END
>  <smiles>  (1) 
Cc1cnccc1C(=O)Nc1ccc(Cl)c2ncccc12

>  <inchikey>  (1) 
DKXOGIRLTSGRJI-UHFFFAOYSA-N

$$$$
ZEHYTGIWLNUMJA-UHFFFAOYSA-N-P446140-P446140-541666
     RDKit          3D

 21 23  0  0  0  0  0  0  0  0999 V2000
   -2.1627  -62.4363  -10.1803 O   0  0  0  0  0  0  0  0  0  0  0  0
   -2.8167  -62.1520  -11.1076 C   0  0  0  0  0  0  0  0  0  0  0  0
   -3.0487  -62.9062  -12.4430 N   0  0  0  0  0  0  0  0  0  0  0  0
   -2.6124  -64.1738  -12.8628 C   0  0  0  0  0  0  0  0  0  0  0  0
   -3.4642  -64.7960  -13.7791 C   0  0  0  0  0  0  0  0  0  0  0  0
   -3.2425  -66.1098  -14.1582 C   0  0  0  0  0  0  0  0  0  0  0  0
   -2.1528  -66.8063  -13.6421 C   0  0  0  0  0  0  0  0  0  0  0  0
   -1.9862  -68.4654  -14.1221 Cl  0  0  0  0  0  0  0  0  0  0  0  0
   -1.2268  -66.2051  -12.7826 C   0  0  0  0  0  0  0  0  0  0  0  0
   -0.1578  -66.9122  -12.3415 N   0  0  0  0  0  0  0  0  0  0  0  0
    0.7562  -66.3096  -11.5595 C   0  0  0  0  0  0  0  0  0  0  0  0
    0.6825  -64.9876  -11.1994 C   0  0  0  0  0  0  0  0  0  0  0  0
   -0.4140  -64.2589  -11.6434 C   0  0  0  0  0  0  0  0  0  0  0  0
   -1.4417  -64.8515  -12.4095 C   0  0  0  0  0  0  0  0  0  0  0  0
   -3.5368  -60.8376  -11.0259 C   0  0  0  0  0  0  0  0  0  0  0  0
   -3.2743  -60.0281   -9.9106 C   0  0  0  0  0  0  0  0  0  0  0  0
   -3.9120  -58.8063   -9.7985 C   0  0  0  0  0  0  0  0  0  0  0  0
   -4.8013  -58.3413  -10.7028 N   0  0  0  0  0  0  0  0  0  0  0  0
   -5.0529  -59.1473  -11.7681 C   0  0  0  0  0  0  0  0  0  0  0  0
   -4.4428  -60.3744  -11.9710 C   0  0  0  0  0  0  0  0  0  0  0  0
   -4.7456  -61.0821  -13.0664 F   0  0  0  0  0  0  0  0  0  0  0  0
  1  2  2  0
  2  3  1  0
  3  4  1  0
  4  5  2  0
  5  6  1  0
  6  7  2  0
  7  8  1  0
  7  9  1  0
  9 10  2  0
 10 11  1  0
 11 12  2  0
 12 13  1  0
 13 14  2  0
  2 15  1  0
 15 16  2  0
 16 17  1  0
 17 18  2  0
 18 19  1  0
 19 20  2  0
 20 21  1  0
 14  4  1  0
 20 15  1  0
 14  9  1  0
M  END
>  <smiles>  (2) 
O=C(Nc1ccc(Cl)c2ncccc12)c1ccncc1F

>  <inchikey>  (2) 
ZEHYTGIWLNUMJA-UHFFFAOYSA-N

$$$$
UDKOUZLHYKSJFE-UHFFFAOYSA-N-P446140-P446140-541666
     RDKit          3D

 21 23  0  0  0  0  0  0  0  0999 V2000
   -2.8251  -62.6437   -9.9618 O   0  0  0  0  0  0  0  0  0  0  0  0
   -3.1068  -62.1955  -11.0051 C   0  0  0  0  0  0  0  0  0  0  0  0
   -3.0094  -62.8156  -12.4267 N   0  0  0  0  0  0  0  0  0  0  0  0
   -2.6471  -64.1041  -12.8327 C   0  0  0  0  0  0  0  0  0  0  0  0
   -3.4014  -64.6445  -13.8714 C   0  0  0  0  0  0  0  0  0  0  0  0
   -3.1861  -65.9542  -14.2720 C   0  0  0  0  0  0  0  0  0  0  0  0
   -2.1763  -66.7091  -13.6756 C   0  0  0  0  0  0  0  0  0  0  0  0
   -2.0063  -68.3536  -14.2030 Cl  0  0  0  0  0  0  0  0  0  0  0  0
   -1.3296  -66.1756  -12.6967 C   0  0  0  0  0  0  0  0  0  0  0  0
   -0.3151  -66.9193  -12.1912 N   0  0  0  0  0  0  0  0  0  0  0  0
    0.5094  -66.3769  -11.2757 C   0  0  0  0  0  0  0  0  0  0  0  0
    0.3890  -65.0860  -10.8224 C   0  0  0  0  0  0  0  0  0  0  0  0
   -0.6533  -64.3191  -11.3277 C   0  0  0  0  0  0  0  0  0  0  0  0
   -1.5697  -64.8450  -12.2655 C   0  0  0  0  0  0  0  0  0  0  0  0
   -3.5573  -60.7432  -11.0854 C   0  0  0  0  0  0  0  0  0  0  0  0
   -3.1038  -59.8760   -9.9992 C   0  0  0  0  0  0  0  0  0  0  0  0
   -3.2699  -58.5521  -10.0609 C   0  0  0  0  0  0  0  0  0  0  0  0
   -3.9003  -57.9989  -11.1381 N   0  0  0  0  0  0  0  0  0  0  0  0
   -4.4361  -58.7350  -12.1645 C   0  0  0  0  0  0  0  0  0  0  0  0
   -4.9417  -58.1867  -13.1338 O   0  0  0  0  0  0  0  0  0  0  0  0
   -4.2971  -60.2141  -12.0778 C   0  0  0  0  0  0  0  0  0  0  0  0
  1  2  2  0
  2  3  1  0
  3  4  1  0
  4  5  2  0
  5  6  1  0
  6  7  2  0
  7  8  1  0
  7  9  1  0
  9 10  2  0
 10 11  1  0
 11 12  2  0
 12 13  1  0
 13 14  2  0
  2 15  1  0
 15 16  1  0
 16 17  2  0
 17 18  1  0
 18 19  1  0
 19 20  2  0
 19 21  1  0
 14  4  1  0
 21 15  2  0
 14  9  1  0
M  END
>  <smiles>  (3) 
O=C(Nc1ccc(Cl)c2ncccc12)c1cc[nH]c(=O)c1

>  <inchikey>  (3) 
UDKOUZLHYKSJFE-UHFFFAOYSA-N

$$$$
LQTUHDDQBMLITN-UHFFFAOYSA-N-P446140-P446140-541666
     RDKit          3D

 21 23  0  0  0  0  0  0  0  0999 V2000
   -2.1895  -62.4544  -10.2391 O   0  0  0  0  0  0  0  0  0  0  0  0
   -2.8872  -62.2032  -11.1433 C   0  0  0  0  0  0  0  0  0  0  0  0
   -3.2216  -63.0272  -12.4134 N   0  0  0  0  0  0  0  0  0  0  0  0
   -2.7080  -64.2549  -12.8671 C   0  0  0  0  0  0  0  0  0  0  0  0
   -3.5446  -64.9122  -13.7724 C   0  0  0  0  0  0  0  0  0  0  0  0
   -3.2703  -66.2136  -14.1575 C   0  0  0  0  0  0  0  0  0  0  0  0
   -2.1472  -66.8652  -13.6571 C   0  0  0  0  0  0  0  0  0  0  0  0
   -1.9284  -68.5189  -14.1333 Cl  0  0  0  0  0  0  0  0  0  0  0  0
   -1.2321  -66.2249  -12.8167 C   0  0  0  0  0  0  0  0  0  0  0  0
   -0.1307  -66.8916  -12.3931 N   0  0  0  0  0  0  0  0  0  0  0  0
    0.7772  -66.2537  -11.6334 C   0  0  0  0  0  0  0  0  0  0  0  0
    0.6661  -64.9321  -11.2844 C   0  0  0  0  0  0  0  0  0  0  0  0
   -0.4649  -64.2458  -11.7109 C   0  0  0  0  0  0  0  0  0  0  0  0
   -1.4929  -64.8787  -12.4451 C   0  0  0  0  0  0  0  0  0  0  0  0
   -3.5777  -60.8668  -11.0821 C   0  0  0  0  0  0  0  0  0  0  0  0
   -3.4949  -60.1838   -9.8594 C   0  0  0  0  0  0  0  0  0  0  0  0
   -4.0353  -58.9188   -9.7545 C   0  0  0  0  0  0  0  0  0  0  0  0
   -4.6674  -58.2957  -10.7655 N   0  0  0  0  0  0  0  0  0  0  0  0
   -4.7343  -58.9733  -11.9358 C   0  0  0  0  0  0  0  0  0  0  0  0
   -5.2918  -58.3327  -12.9715 F   0  0  0  0  0  0  0  0  0  0  0  0
   -4.2128  -60.2384  -12.1506 C   0  0  0  0  0  0  0  0  0  0  0  0
  1  2  2  0
  2  3  1  0
  3  4  1  0
  4  5  2  0
  5  6  1  0
  6  7  2  0
  7  8  1  0
  7  9  1  0
  9 10  2  0
 10 11  1  0
 11 12  2  0
 12 13  1  0
 13 14  2  0
  2 15  1  0
 15 16  2  0
 16 17  1  0
 17 18  2  0
 18 19  1  0
 19 20  1  0
 19 21  2  0
 14  4  1  0
 21 15  1  0
 14  9  1  0
M  END
>  <smiles>  (4) 
O=C(Nc1ccc(Cl)c2ncccc12)c1ccnc(F)c1

>  <inchikey>  (4) 
LQTUHDDQBMLITN-UHFFFAOYSA-N

$$$$
FEGQPMPNQIBIFW-UHFFFAOYSA-N-P446140-P446140-541666
     RDKit          3D

 21 23  0  0  0  0  0  0  0  0999 V2000
   -1.9186  -62.3680  -10.2747 O   0  0  0  0  0  0  0  0  0  0  0  0
   -2.6482  -62.1450  -11.1609 C   0  0  0  0  0  0  0  0  0  0  0  0
   -2.9758  -62.9779  -12.4257 N   0  0  0  0  0  0  0  0  0  0  0  0
   -2.5577  -64.2640  -12.8049 C   0  0  0  0  0  0  0  0  0  0  0  0
   -3.4412  -64.8965  -13.6882 C   0  0  0  0  0  0  0  0  0  0  0  0
   -3.2327  -66.2111  -14.0692 C   0  0  0  0  0  0  0  0  0  0  0  0
   -2.1287  -66.9032  -13.5805 C   0  0  0  0  0  0  0  0  0  0  0  0
   -1.9718  -68.5619  -14.0639 Cl  0  0  0  0  0  0  0  0  0  0  0  0
   -1.1798  -66.2979  -12.7483 C   0  0  0  0  0  0  0  0  0  0  0  0
   -0.1050  -67.0078  -12.3277 N   0  0  0  0  0  0  0  0  0  0  0  0
    0.8372  -66.4024  -11.5827 C   0  0  0  0  0  0  0  0  0  0  0  0
    0.7886  -65.0738  -11.2455 C   0  0  0  0  0  0  0  0  0  0  0  0
   -0.3139  -64.3423  -11.6684 C   0  0  0  0  0  0  0  0  0  0  0  0
   -1.3745  -64.9382  -12.3850 C   0  0  0  0  0  0  0  0  0  0  0  0
   -3.4008  -60.8372  -11.0922 C   0  0  0  0  0  0  0  0  0  0  0  0
   -3.4241  -60.2178   -9.8310 C   0  0  0  0  0  0  0  0  0  0  0  0
   -4.0521  -58.9944   -9.6805 C   0  0  0  0  0  0  0  0  0  0  0  0
   -4.7041  -58.3599  -10.6754 N   0  0  0  0  0  0  0  0  0  0  0  0
   -4.6760  -58.9732  -11.8871 C   0  0  0  0  0  0  0  0  0  0  0  0
   -4.0169  -60.1718  -12.1542 C   0  0  0  0  0  0  0  0  0  0  0  0
   -3.9220  -60.6683  -13.7966 Cl  0  0  0  0  0  0  0  0  0  0  0  0
  1  2  2  0
  2  3  1  0
  3  4  1  0
  4  5  2  0
  5  6  1  0
  6  7  2  0
  7  8  1  0
  7  9  1  0
  9 10  2  0
 10 11  1  0
 11 12  2  0
 12 13  1  0
 13 14  2  0
  2 15  1  0
 15 16  2  0
 16 17  1  0
 17 18  2  0
 18 19  1  0
 19 20  2  0
 20 21  1  0
 14  4  1  0
 20 15  1  0
 14  9  1  0
M  END
>  <smiles>  (5) 
O=C(Nc1ccc(Cl)c2ncccc12)c1ccncc1Cl

>  <inchikey>  (5) 
FEGQPMPNQIBIFW-UHFFFAOYSA-N

$$$$
WDSXJQJCRKVNRF-UHFFFAOYSA-N-P446140-P446140-541666
     RDKit          3D

 21 23  0  0  0  0  0  0  0  0999 V2000
   -2.0956  -62.4091  -10.1203 O   0  0  0  0  0  0  0  0  0  0  0  0
   -2.7279  -62.0831  -11.0490 C   0  0  0  0  0  0  0  0  0  0  0  0
   -2.9970  -62.8166  -12.3904 N   0  0  0  0  0  0  0  0  0  0  0  0
   -2.6320  -64.1062  -12.8150 C   0  0  0  0  0  0  0  0  0  0  0  0
   -3.5098  -64.6989  -13.7230 C   0  0  0  0  0  0  0  0  0  0  0  0
   -3.3162  -66.0114  -14.1255 C   0  0  0  0  0  0  0  0  0  0  0  0
   -2.2299  -66.7363  -13.6400 C   0  0  0  0  0  0  0  0  0  0  0  0
   -2.0933  -68.3886  -14.1523 Cl  0  0  0  0  0  0  0  0  0  0  0  0
   -1.2815  -66.1668  -12.7847 C   0  0  0  0  0  0  0  0  0  0  0  0
   -0.2193  -66.9009  -12.3715 N   0  0  0  0  0  0  0  0  0  0  0  0
    0.7194  -66.3288  -11.5965 C   0  0  0  0  0  0  0  0  0  0  0  0
    0.6781  -65.0111  -11.2180 C   0  0  0  0  0  0  0  0  0  0  0  0
   -0.4113  -64.2551  -11.6338 C   0  0  0  0  0  0  0  0  0  0  0  0
   -1.4661  -64.8156  -12.3889 C   0  0  0  0  0  0  0  0  0  0  0  0
   -3.3331  -60.6944  -11.0612 C   0  0  0  0  0  0  0  0  0  0  0  0
   -3.6498  -60.0945   -9.7741 C   0  0  0  0  0  0  0  0  0  0  0  0
   -3.8104  -58.7728   -9.6596 C   0  0  0  0  0  0  0  0  0  0  0  0
   -3.7395  -57.9738  -10.7686 N   0  0  0  0  0  0  0  0  0  0  0  0
   -3.4894  -58.4527  -12.0342 C   0  0  0  0  0  0  0  0  0  0  0  0
   -3.2914  -57.3506  -13.2759 S   0  0  0  0  0  0  0  0  0  0  0  0
   -3.2977  -59.9273  -12.1672 C   0  0  0  0  0  0  0  0  0  0  0  0
  1  2  2  0
  2  3  1  0
  3  4  1  0
  4  5  2  0
  5  6  1  0
  6  7  2  0
  7  8  1  0
  7  9  1  0
  9 10  2  0
 10 11  1  0
 11 12  2  0
 12 13  1  0
 13 14  2  0
  2 15  1  0
 15 16  1  0
 16 17  2  0
 17 18  1  0
 18 19  1  0
 19 20  2  0
 19 21  1  0
 14  4  1  0
 21 15  2  0
 14  9  1  0
M  END
>  <smiles>  (6) 
O=C(Nc1ccc(Cl)c2ncccc12)c1cc[nH]c(=S)c1

>  <inchikey>  (6) 
WDSXJQJCRKVNRF-UHFFFAOYSA-N

$$$$
KWGRQWMWUASART-UHFFFAOYSA-O-P446140-P446140-541666
     RDKit          3D

 21 23  0  0  0  0  0  0  0  0999 V2000
   -3.8432  -56.8568  -11.8260 N   0  0  0  0  0  0  0  0  0  0  0  0
   -3.8654  -58.3134  -11.5505 N   0  0  0  0  0  0  0  0  0  0  0  0
   -4.6112  -59.1564  -12.2988 C   0  0  0  0  0  0  0  0  0  0  0  0
   -4.4267  -60.5320  -12.1992 C   0  0  0  0  0  0  0  0  0  0  0  0
   -3.5065  -61.0177  -11.2742 C   0  0  0  0  0  0  0  0  0  0  0  0
   -3.0256  -62.4269  -11.2069 C   0  0  0  0  0  0  0  0  0  0  0  0
   -2.6611  -62.8058  -10.1651 O   0  0  0  0  0  0  0  0  0  0  0  0
   -3.0035  -63.1195  -12.5889 N   0  0  0  0  0  0  0  0  0  0  0  0
   -2.6280  -64.4145  -12.9476 C   0  0  0  0  0  0  0  0  0  0  0  0
   -3.4151  -65.0228  -13.9216 C   0  0  0  0  0  0  0  0  0  0  0  0
   -3.1692  -66.3409  -14.2641 C   0  0  0  0  0  0  0  0  0  0  0  0
   -2.1135  -67.0355  -13.6738 C   0  0  0  0  0  0  0  0  0  0  0  0
   -1.9114  -68.6912  -14.1417 Cl  0  0  0  0  0  0  0  0  0  0  0  0
   -1.2473  -66.4343  -12.7547 C   0  0  0  0  0  0  0  0  0  0  0  0
   -0.1992  -67.1261  -12.2478 N   0  0  0  0  0  0  0  0  0  0  0  0
    0.6474  -66.5207  -11.3946 C   0  0  0  0  0  0  0  0  0  0  0  0
    0.5192  -65.2084  -11.0128 C   0  0  0  0  0  0  0  0  0  0  0  0
   -0.5560  -64.4924  -11.5234 C   0  0  0  0  0  0  0  0  0  0  0  0
   -1.5016  -65.0902  -12.3895 C   0  0  0  0  0  0  0  0  0  0  0  0
   -2.8839  -60.1286  -10.3940 C   0  0  0  0  0  0  0  0  0  0  0  0
   -3.0757  -58.7722  -10.5584 C   0  0  0  0  0  0  0  0  0  0  0  0
  1  2  1  0
  2  3  2  0
  3  4  1  0
  4  5  2  0
  5  6  1  0
  6  7  2  0
  6  8  1  0
  8  9  1  0
  9 10  2  0
 10 11  1  0
 11 12  2  0
 12 13  1  0
 12 14  1  0
 14 15  2  0
 15 16  1  0
 16 17  2  0
 17 18  1  0
 18 19  2  0
  5 20  1  0
 20 21  2  0
 21  2  1  0
 19  9  1  0
 19 14  1  0
M  CHG  1   2   1
M  END
>  <smiles>  (7) 
N[n+]1ccc(C(=O)Nc2ccc(Cl)c3ncccc23)cc1

>  <inchikey>  (7) 
KWGRQWMWUASART-UHFFFAOYSA-O

$$$$
YMACCDUQZKZGKU-UHFFFAOYSA-N-P446140-P446140-541666
     RDKit          3D

 21 23  0  0  0  0  0  0  0  0999 V2000
   -2.0890  -62.4578  -10.1028 O   0  0  0  0  0  0  0  0  0  0  0  0
   -2.7582  -62.1364  -11.0057 C   0  0  0  0  0  0  0  0  0  0  0  0
   -3.1147  -62.8919  -12.3096 N   0  0  0  0  0  0  0  0  0  0  0  0
   -2.6583  -64.1277  -12.8038 C   0  0  0  0  0  0  0  0  0  0  0  0
   -3.5236  -64.7303  -13.7192 C   0  0  0  0  0  0  0  0  0  0  0  0
   -3.3005  -66.0314  -14.1416 C   0  0  0  0  0  0  0  0  0  0  0  0
   -2.1984  -66.7373  -13.6664 C   0  0  0  0  0  0  0  0  0  0  0  0
   -2.0384  -68.3861  -14.1837 Cl  0  0  0  0  0  0  0  0  0  0  0  0
   -1.2559  -66.1530  -12.8148 C   0  0  0  0  0  0  0  0  0  0  0  0
   -0.1761  -66.8689  -12.4159 N   0  0  0  0  0  0  0  0  0  0  0  0
    0.7567  -66.2843  -11.6433 C   0  0  0  0  0  0  0  0  0  0  0  0
    0.6929  -64.9701  -11.2563 C   0  0  0  0  0  0  0  0  0  0  0  0
   -0.4151  -64.2333  -11.6576 C   0  0  0  0  0  0  0  0  0  0  0  0
   -1.4668  -64.8091  -12.4048 C   0  0  0  0  0  0  0  0  0  0  0  0
   -3.3829  -60.7816  -10.9154 C   0  0  0  0  0  0  0  0  0  0  0  0
   -3.5954  -60.2799   -9.6290 C   0  0  0  0  0  0  0  0  0  0  0  0
   -4.0255  -58.9782   -9.4885 C   0  0  0  0  0  0  0  0  0  0  0  0
   -4.2800  -58.1597  -10.5244 N   0  0  0  0  0  0  0  0  0  0  0  0
   -4.0161  -58.6532  -11.7573 C   0  0  0  0  0  0  0  0  0  0  0  0
   -3.9973  -57.3708  -13.1497 Br  0  0  0  0  0  0  0  0  0  0  0  0
   -3.5959  -59.9518  -12.0146 C   0  0  0  0  0  0  0  0  0  0  0  0
  1  2  2  0
  2  3  1  0
  3  4  1  0
  4  5  2  0
  5  6  1  0
  6  7  2  0
  7  8  1  0
  7  9  1  0
  9 10  2  0
 10 11  1  0
 11 12  2  0
 12 13  1  0
 13 14  2  0
  2 15  1  0
 15 16  2  0
 16 17  1  0
 17 18  2  0
 18 19  1  0
 19 20  1  0
 19 21  2  0
 14  4  1  0
 21 15  1  0
 14  9  1  0
M  END
>  <smiles>  (8) 
O=C(Nc1ccc(Cl)c2ncccc12)c1ccnc(Br)c1

>  <inchikey>  (8) 
YMACCDUQZKZGKU-UHFFFAOYSA-N

$$$$
FHJMQFKSNSGLBX-UHFFFAOYSA-N-P446140-P446140-541666
     RDKit          3D

 21 23  0  0  0  0  0  0  0  0999 V2000
   -1.8196  -62.3594  -10.2386 O   0  0  0  0  0  0  0  0  0  0  0  0
   -2.5635  -62.1161  -11.1068 C   0  0  0  0  0  0  0  0  0  0  0  0
   -3.0150  -62.9773  -12.3133 N   0  0  0  0  0  0  0  0  0  0  0  0
   -2.5847  -64.2456  -12.7425 C   0  0  0  0  0  0  0  0  0  0  0  0
   -3.4826  -64.8622  -13.6223 C   0  0  0  0  0  0  0  0  0  0  0  0
   -3.2753  -66.1655  -14.0423 C   0  0  0  0  0  0  0  0  0  0  0  0
   -2.1606  -66.8656  -13.5917 C   0  0  0  0  0  0  0  0  0  0  0  0
   -2.0101  -68.5141  -14.1113 Cl  0  0  0  0  0  0  0  0  0  0  0  0
   -1.1964  -66.2758  -12.7671 C   0  0  0  0  0  0  0  0  0  0  0  0
   -0.1135  -66.9951  -12.3849 N   0  0  0  0  0  0  0  0  0  0  0  0
    0.8473  -66.4062  -11.6514 C   0  0  0  0  0  0  0  0  0  0  0  0
    0.8106  -65.0835  -11.2929 C   0  0  0  0  0  0  0  0  0  0  0  0
   -0.3008  -64.3435  -11.6768 C   0  0  0  0  0  0  0  0  0  0  0  0
   -1.3846  -64.9236  -12.3720 C   0  0  0  0  0  0  0  0  0  0  0  0
   -3.2408  -60.7836  -11.0758 C   0  0  0  0  0  0  0  0  0  0  0  0
   -3.5442  -60.2914   -9.8024 C   0  0  0  0  0  0  0  0  0  0  0  0
   -4.1219  -59.0422   -9.6903 C   0  0  0  0  0  0  0  0  0  0  0  0
   -4.4977  -58.2865  -10.7425 N   0  0  0  0  0  0  0  0  0  0  0  0
   -4.1698  -58.7720  -11.9672 C   0  0  0  0  0  0  0  0  0  0  0  0
   -3.4986  -59.9743  -12.1838 C   0  0  0  0  0  0  0  0  0  0  0  0
   -2.6910  -60.3001  -14.0833 I   0  0  0  0  0  0  0  0  0  0  0  0
  1  2  2  0
  2  3  1  0
  3  4  1  0
  4  5  2  0
  5  6  1  0
  6  7  2  0
  7  8  1  0
  7  9  1  0
  9 10  2  0
 10 11  1  0
 11 12  2  0
 12 13  1  0
 13 14  2  0
  2 15  1  0
 15 16  2  0
 16 17  1  0
 17 18  2  0
 18 19  1  0
 19 20  2  0
 20 21  1  0
 14  4  1  0
 20 15  1  0
 14  9  1  0
M  END
>  <smiles>  (9) 
O=C(Nc1ccc(Cl)c2ncccc12)c1ccncc1I

>  <inchikey>  (9) 
FHJMQFKSNSGLBX-UHFFFAOYSA-N

$$$$
YPTQRGWRACQHFW-UHFFFAOYSA-N-P446140-P446140-541666
     RDKit          3D

 21 23  0  0  0  0  0  0  0  0999 V2000
   -2.2886  -63.3269  -10.0307 O   0  0  0  0  0  0  0  0  0  0  0  0
   -2.7788  -62.8587  -10.9808 C   0  0  0  0  0  0  0  0  0  0  0  0
   -2.8577  -63.3864  -12.4292 N   0  0  0  0  0  0  0  0  0  0  0  0
   -2.4491  -64.5967  -12.9710 C   0  0  0  0  0  0  0  0  0  0  0  0
   -3.2855  -65.1366  -13.9413 C   0  0  0  0  0  0  0  0  0  0  0  0
   -3.0848  -66.4482  -14.3301 C   0  0  0  0  0  0  0  0  0  0  0  0
   -2.0335  -67.1912  -13.7871 C   0  0  0  0  0  0  0  0  0  0  0  0
   -1.9045  -68.8438  -14.2875 Cl  0  0  0  0  0  0  0  0  0  0  0  0
   -1.1129  -66.6423  -12.8871 C   0  0  0  0  0  0  0  0  0  0  0  0
   -0.0676  -67.3710  -12.4235 N   0  0  0  0  0  0  0  0  0  0  0  0
    0.8239  -66.7967  -11.5918 C   0  0  0  0  0  0  0  0  0  0  0  0
    0.7533  -65.4844  -11.1962 C   0  0  0  0  0  0  0  0  0  0  0  0
   -0.3161  -64.7360  -11.6632 C   0  0  0  0  0  0  0  0  0  0  0  0
   -1.3125  -65.3046  -12.4905 C   0  0  0  0  0  0  0  0  0  0  0  0
   -3.3430  -61.4890  -10.8289 C   0  0  0  0  0  0  0  0  0  0  0  0
   -4.2888  -60.9192  -11.6833 C   0  0  0  0  0  0  0  0  0  0  0  0
   -4.7323  -59.6265  -11.4253 C   0  0  0  0  0  0  0  0  0  0  0  0
   -4.2549  -58.9118  -10.3436 N   0  0  0  0  0  0  0  0  0  0  0  0
   -4.6490  -57.7447  -10.1106 O   0  0  0  0  0  0  0  0  0  0  0  0
   -3.3356  -59.4827   -9.5022 C   0  0  0  0  0  0  0  0  0  0  0  0
   -2.8742  -60.7626   -9.7283 C   0  0  0  0  0  0  0  0  0  0  0  0
  1  2  2  0
  2  3  1  0
  3  4  1  0
  4  5  2  0
  5  6  1  0
  6  7  2  0
  7  8  1  0
  7  9  1  0
  9 10  2  0
 10 11  1  0
 11 12  2  0
 12 13  1  0
 13 14  2  0
  2 15  1  0
 15 16  2  0
 16 17  1  0
 17 18  2  0
 18 19  1  0
 18 20  1  0
 20 21  2  0
 14  4  1  0
 21 15  1  0
 14  9  1  0
M  CHG  2  18   1  19  -1
M  END
>  <smiles>  (10) 
O=C(Nc1ccc(Cl)c2ncccc12)c1cc[n+]([O-])cc1

>  <inchikey>  (10) 
YPTQRGWRACQHFW-UHFFFAOYSA-N

$$$$
SEDCSWGYZVKWFB-UHFFFAOYSA-N-P446140-P446140-541666
     RDKit          3D

 21 23  0  0  0  0  0  0  0  0999 V2000
   -1.8458  -62.3716  -10.2766 O   0  0  0  0  0  0  0  0  0  0  0  0
   -2.5978  -62.1543  -11.1449 C   0  0  0  0  0  0  0  0  0  0  0  0
   -2.9612  -62.9972  -12.3930 N   0  0  0  0  0  0  0  0  0  0  0  0
   -2.5570  -64.2881  -12.7718 C   0  0  0  0  0  0  0  0  0  0  0  0
   -3.4533  -64.9168  -13.6450 C   0  0  0  0  0  0  0  0  0  0  0  0
   -3.2488  -66.2287  -14.0377 C   0  0  0  0  0  0  0  0  0  0  0  0
   -2.1381  -66.9231  -13.5678 C   0  0  0  0  0  0  0  0  0  0  0  0
   -1.9855  -68.5782  -14.0643 Cl  0  0  0  0  0  0  0  0  0  0  0  0
   -1.1786  -66.3225  -12.7445 C   0  0  0  0  0  0  0  0  0  0  0  0
   -0.0996  -67.0357  -12.3408 N   0  0  0  0  0  0  0  0  0  0  0  0
    0.8549  -66.4343  -11.6085 C   0  0  0  0  0  0  0  0  0  0  0  0
    0.8154  -65.1059  -11.2702 C   0  0  0  0  0  0  0  0  0  0  0  0
   -0.2916  -64.3716  -11.6760 C   0  0  0  0  0  0  0  0  0  0  0  0
   -1.3664  -64.9639  -12.3741 C   0  0  0  0  0  0  0  0  0  0  0  0
   -3.3314  -60.8424  -11.0934 C   0  0  0  0  0  0  0  0  0  0  0  0
   -3.4873  -60.2853   -9.8166 C   0  0  0  0  0  0  0  0  0  0  0  0
   -4.0971  -59.0511   -9.6865 C   0  0  0  0  0  0  0  0  0  0  0  0
   -4.6231  -58.3585  -10.7176 N   0  0  0  0  0  0  0  0  0  0  0  0
   -4.4555  -58.9101  -11.9469 C   0  0  0  0  0  0  0  0  0  0  0  0
   -3.7854  -60.1077  -12.1910 C   0  0  0  0  0  0  0  0  0  0  0  0
   -3.3830  -60.5295  -13.9921 Br  0  0  0  0  0  0  0  0  0  0  0  0
  1  2  2  0
  2  3  1  0
  3  4  1  0
  4  5  2  0
  5  6  1  0
  6  7  2  0
  7  8  1  0
  7  9  1  0
  9 10  2  0
 10 11  1  0
 11 12  2  0
 12 13  1  0
 13 14  2  0
  2 15  1  0
 15 16  2  0
 16 17  1  0
 17 18  2  0
 18 19  1  0
 19 20  2  0
 20 21  1  0
 14  4  1  0
 20 15  1  0
 14  9  1  0
M  END
>  <smiles>  (11) 
O=C(Nc1ccc(Cl)c2ncccc12)c1ccncc1Br

>  <inchikey>  (11) 
SEDCSWGYZVKWFB-UHFFFAOYSA-N

$$$$
ZFJNZKZJZWYCLD-UHFFFAOYSA-O-P446140-P446140-541666
     RDKit          3D

 21 23  0  0  0  0  0  0  0  0999 V2000
   -3.0896  -56.5177  -11.3356 C   0  0  0  0  0  0  0  0  0  0  0  0
   -3.3643  -57.9705  -11.2812 N   0  0  0  0  0  0  0  0  0  0  0  0
   -2.7670  -58.7060  -10.3108 C   0  0  0  0  0  0  0  0  0  0  0  0
   -2.8320  -60.0898  -10.3244 C   0  0  0  0  0  0  0  0  0  0  0  0
   -3.5289  -60.6928  -11.3572 C   0  0  0  0  0  0  0  0  0  0  0  0
   -3.6713  -62.1472  -11.4228 C   0  0  0  0  0  0  0  0  0  0  0  0
   -4.6455  -62.5960  -10.9824 O   0  0  0  0  0  0  0  0  0  0  0  0
   -2.5177  -62.8205  -12.1708 N   0  0  0  0  0  0  0  0  0  0  0  0
   -2.3666  -64.1342  -12.6059 C   0  0  0  0  0  0  0  0  0  0  0  0
   -3.4504  -64.7305  -13.2519 C   0  0  0  0  0  0  0  0  0  0  0  0
   -3.3263  -66.0161  -13.7612 C   0  0  0  0  0  0  0  0  0  0  0  0
   -2.1389  -66.7244  -13.5648 C   0  0  0  0  0  0  0  0  0  0  0  0
   -2.0802  -68.3509  -14.1616 Cl  0  0  0  0  0  0  0  0  0  0  0  0
   -1.0455  -66.1708  -12.8801 C   0  0  0  0  0  0  0  0  0  0  0  0
    0.0746  -66.8934  -12.6472 N   0  0  0  0  0  0  0  0  0  0  0  0
    1.0865  -66.3462  -11.9455 C   0  0  0  0  0  0  0  0  0  0  0  0
    1.0627  -65.0616  -11.4531 C   0  0  0  0  0  0  0  0  0  0  0  0
   -0.0703  -64.2993  -11.6962 C   0  0  0  0  0  0  0  0  0  0  0  0
   -1.1585  -64.8380  -12.4150 C   0  0  0  0  0  0  0  0  0  0  0  0
   -4.2190  -59.9380  -12.3005 C   0  0  0  0  0  0  0  0  0  0  0  0
   -4.1198  -58.5595  -12.2395 C   0  0  0  0  0  0  0  0  0  0  0  0
  1  2  1  0
  2  3  2  0
  3  4  1  0
  4  5  2  0
  5  6  1  0
  6  7  2  0
  6  8  1  0
  8  9  1  0
  9 10  2  0
 10 11  1  0
 11 12  2  0
 12 13  1  0
 12 14  1  0
 14 15  2  0
 15 16  1  0
 16 17  2  0
 17 18  1  0
 18 19  2  0
  5 20  1  0
 20 21  2  0
 21  2  1  0
 19  9  1  0
 19 14  1  0
M  CHG  1   2   1
M  END
>  <smiles>  (12) 
C[n+]1ccc(C(=O)Nc2ccc(Cl)c3ncccc23)cc1

>  <inchikey>  (12) 
ZFJNZKZJZWYCLD-UHFFFAOYSA-O

$$$$
SFMIFWFCGANEIQ-UHFFFAOYSA-N-P446140-P446140-541666
     RDKit          3D

 21 23  0  0  0  0  0  0  0  0999 V2000
   -5.5834  -58.5251  -12.6051 C   0  0  0  0  0  0  0  0  0  0  0  0
   -4.7762  -59.1264  -11.5094 C   0  0  0  0  0  0  0  0  0  0  0  0
   -4.3527  -60.4448  -11.6549 C   0  0  0  0  0  0  0  0  0  0  0  0
   -3.4972  -60.9828  -10.7026 C   0  0  0  0  0  0  0  0  0  0  0  0
   -2.8744  -62.3537  -10.7976 C   0  0  0  0  0  0  0  0  0  0  0  0
   -2.3572  -62.7589   -9.8288 O   0  0  0  0  0  0  0  0  0  0  0  0
   -2.9811  -62.9773  -12.2192 N   0  0  0  0  0  0  0  0  0  0  0  0
   -2.5692  -64.2276  -12.6972 C   0  0  0  0  0  0  0  0  0  0  0  0
   -3.3956  -64.7719  -13.6848 C   0  0  0  0  0  0  0  0  0  0  0  0
   -3.1800  -66.0638  -14.1368 C   0  0  0  0  0  0  0  0  0  0  0  0
   -2.1134  -66.8046  -13.6305 C   0  0  0  0  0  0  0  0  0  0  0  0
   -1.9544  -68.4369  -14.1967 Cl  0  0  0  0  0  0  0  0  0  0  0  0
   -1.2046  -66.2681  -12.7090 C   0  0  0  0  0  0  0  0  0  0  0  0
   -0.1462  -67.0027  -12.2885 N   0  0  0  0  0  0  0  0  0  0  0  0
    0.7424  -66.4542  -11.4387 C   0  0  0  0  0  0  0  0  0  0  0  0
    0.6507  -65.1636  -10.9792 C   0  0  0  0  0  0  0  0  0  0  0  0
   -0.4353  -64.4067  -11.3981 C   0  0  0  0  0  0  0  0  0  0  0  0
   -1.4264  -64.9444  -12.2472 C   0  0  0  0  0  0  0  0  0  0  0  0
   -3.1734  -60.1908   -9.5955 C   0  0  0  0  0  0  0  0  0  0  0  0
   -3.6848  -58.9048   -9.5099 C   0  0  0  0  0  0  0  0  0  0  0  0
   -4.4770  -58.3446  -10.4479 N   0  0  0  0  0  0  0  0  0  0  0  0
  1  2  1  0
  2  3  2  0
  3  4  1  0
  4  5  1  0
  5  6  2  0
  5  7  1  0
  7  8  1  0
  8  9  2  0
  9 10  1  0
 10 11  2  0
 11 12  1  0
 11 13  1  0
 13 14  2  0
 14 15  1  0
 15 16  2  0
 16 17  1  0
 17 18  2  0
  4 19  2  0
 19 20  1  0
 20 21  2  0
 21  2  1  0
 18  8  1  0
 18 13  1  0
M  END
>  <smiles>  (13) 
Cc1cc(C(=O)Nc2ccc(Cl)c3ncccc23)ccn1

>  <inchikey>  (13) 
SFMIFWFCGANEIQ-UHFFFAOYSA-N

$$$$
BNGXNMOAWVHVED-UHFFFAOYSA-N-P446140-P446140-541666
     RDKit          3D

 21 23  0  0  0  0  0  0  0  0999 V2000
   -2.0819  -62.5211  -10.0873 O   0  0  0  0  0  0  0  0  0  0  0  0
   -2.7355  -62.1867  -10.9966 C   0  0  0  0  0  0  0  0  0  0  0  0
   -3.0024  -62.8865  -12.3520 N   0  0  0  0  0  0  0  0  0  0  0  0
   -2.6080  -64.1516  -12.8192 C   0  0  0  0  0  0  0  0  0  0  0  0
   -3.4836  -64.7377  -13.7341 C   0  0  0  0  0  0  0  0  0  0  0  0
   -3.2854  -66.0463  -14.1460 C   0  0  0  0  0  0  0  0  0  0  0  0
   -2.1980  -66.7717  -13.6631 C   0  0  0  0  0  0  0  0  0  0  0  0
   -2.0614  -68.4226  -14.1793 Cl  0  0  0  0  0  0  0  0  0  0  0  0
   -1.2492  -66.2043  -12.8064 C   0  0  0  0  0  0  0  0  0  0  0  0
   -0.1840  -66.9362  -12.3969 N   0  0  0  0  0  0  0  0  0  0  0  0
    0.7519  -66.3637  -11.6183 C   0  0  0  0  0  0  0  0  0  0  0  0
    0.7059  -65.0479  -11.2331 C   0  0  0  0  0  0  0  0  0  0  0  0
   -0.3861  -64.2946  -11.6456 C   0  0  0  0  0  0  0  0  0  0  0  0
   -1.4377  -64.8567  -12.4031 C   0  0  0  0  0  0  0  0  0  0  0  0
   -3.3559  -60.8334  -10.9062 C   0  0  0  0  0  0  0  0  0  0  0  0
   -3.6567  -60.3595   -9.6294 C   0  0  0  0  0  0  0  0  0  0  0  0
   -4.0445  -59.0431   -9.4907 C   0  0  0  0  0  0  0  0  0  0  0  0
   -4.1765  -58.1860  -10.5189 N   0  0  0  0  0  0  0  0  0  0  0  0
   -3.8136  -58.6571  -11.7348 C   0  0  0  0  0  0  0  0  0  0  0  0
   -3.4697  -57.2022  -13.1815 I   0  0  0  0  0  0  0  0  0  0  0  0
   -3.4352  -59.9673  -11.9941 C   0  0  0  0  0  0  0  0  0  0  0  0
  1  2  2  0
  2  3  1  0
  3  4  1  0
  4  5  2  0
  5  6  1  0
  6  7  2  0
  7  8  1  0
  7  9  1  0
  9 10  2  0
 10 11  1  0
 11 12  2  0
 12 13  1  0
 13 14  2  0
  2 15  1  0
 15 16  2  0
 16 17  1  0
 17 18  2  0
 18 19  1  0
 19 20  1  0
 19 21  2  0
 14  4  1  0
 21 15  1  0
 14  9  1  0
M  END
>  <smiles>  (14) 
O=C(Nc1ccc(Cl)c2ncccc12)c1ccnc(I)c1

>  <inchikey>  (14) 
BNGXNMOAWVHVED-UHFFFAOYSA-N

$$$$
XRTWCUBAXOHFQM-UHFFFAOYSA-N-P446140-P446140-541666
     RDKit          3D

 21 23  0  0  0  0  0  0  0  0999 V2000
   -3.4535  -57.8836   -8.8418 N   0  0  0  0  0  0  0  0  0  0  0  0
   -3.8290  -58.7479   -9.8654 C   0  0  0  0  0  0  0  0  0  0  0  0
   -3.2098  -59.9753  -10.0091 C   0  0  0  0  0  0  0  0  0  0  0  0
   -3.5831  -60.8265  -11.0596 C   0  0  0  0  0  0  0  0  0  0  0  0
   -2.8967  -62.1672  -11.1113 C   0  0  0  0  0  0  0  0  0  0  0  0
   -2.3397  -62.4959  -10.1367 O   0  0  0  0  0  0  0  0  0  0  0  0
   -3.0333  -62.8829  -12.4814 N   0  0  0  0  0  0  0  0  0  0  0  0
   -2.6058  -64.1553  -12.8918 C   0  0  0  0  0  0  0  0  0  0  0  0
   -3.4306  -64.7673  -13.8378 C   0  0  0  0  0  0  0  0  0  0  0  0
   -3.2084  -66.0841  -14.2066 C   0  0  0  0  0  0  0  0  0  0  0  0
   -2.1400  -66.7892  -13.6571 C   0  0  0  0  0  0  0  0  0  0  0  0
   -1.9716  -68.4497  -14.1320 Cl  0  0  0  0  0  0  0  0  0  0  0  0
   -1.2369  -66.1956  -12.7683 C   0  0  0  0  0  0  0  0  0  0  0  0
   -0.1824  -66.9065  -12.2989 N   0  0  0  0  0  0  0  0  0  0  0  0
    0.7044  -66.3105  -11.4809 C   0  0  0  0  0  0  0  0  0  0  0  0
    0.6155  -64.9929  -11.1065 C   0  0  0  0  0  0  0  0  0  0  0  0
   -0.4656  -64.2596  -11.5796 C   0  0  0  0  0  0  0  0  0  0  0  0
   -1.4604  -64.8441  -12.3940 C   0  0  0  0  0  0  0  0  0  0  0  0
   -4.5751  -60.3974  -11.9368 C   0  0  0  0  0  0  0  0  0  0  0  0
   -5.1362  -59.1496  -11.7175 C   0  0  0  0  0  0  0  0  0  0  0  0
   -4.7774  -58.3161  -10.7097 N   0  0  0  0  0  0  0  0  0  0  0  0
  1  2  1  0
  2  3  2  0
  3  4  1  0
  4  5  1  0
  5  6  2  0
  5  7  1  0
  7  8  1  0
  8  9  2  0
  9 10  1  0
 10 11  2  0
 11 12  1  0
 11 13  1  0
 13 14  2  0
 14 15  1  0
 15 16  2  0
 16 17  1  0
 17 18  2  0
  4 19  2  0
 19 20  1  0
 20 21  2  0
 21  2  1  0
 18  8  1  0
 18 13  1  0
M  END
>  <smiles>  (15) 
Nc1cc(C(=O)Nc2ccc(Cl)c3ncccc23)ccn1

>  <inchikey>  (15) 
XRTWCUBAXOHFQM-UHFFFAOYSA-N

$$$$
XJDXJFMRGYLKLI-UHFFFAOYSA-N-P446140-P446140-541666
     RDKit          3D

 21 23  0  0  0  0  0  0  0  0999 V2000
   -2.2841  -62.5055  -10.1425 O   0  0  0  0  0  0  0  0  0  0  0  0
   -2.8746  -62.1874  -11.1025 C   0  0  0  0  0  0  0  0  0  0  0  0
   -3.0358  -62.9068  -12.4688 N   0  0  0  0  0  0  0  0  0  0  0  0
   -2.5967  -64.1704  -12.8906 C   0  0  0  0  0  0  0  0  0  0  0  0
   -3.4161  -64.7712  -13.8482 C   0  0  0  0  0  0  0  0  0  0  0  0
   -3.1993  -66.0878  -14.2208 C   0  0  0  0  0  0  0  0  0  0  0  0
   -2.1412  -66.8029  -13.6644 C   0  0  0  0  0  0  0  0  0  0  0  0
   -1.9805  -68.4628  -14.1426 Cl  0  0  0  0  0  0  0  0  0  0  0  0
   -1.2402  -66.2183  -12.7677 C   0  0  0  0  0  0  0  0  0  0  0  0
   -0.1933  -66.9371  -12.2943 N   0  0  0  0  0  0  0  0  0  0  0  0
    0.6974  -66.3481  -11.4757 C   0  0  0  0  0  0  0  0  0  0  0  0
    0.6199  -65.0289  -11.1050 C   0  0  0  0  0  0  0  0  0  0  0  0
   -0.4553  -64.2881  -11.5801 C   0  0  0  0  0  0  0  0  0  0  0  0
   -1.4565  -64.8664  -12.3914 C   0  0  0  0  0  0  0  0  0  0  0  0
   -3.5570  -60.8460  -11.0293 C   0  0  0  0  0  0  0  0  0  0  0  0
   -4.5599  -60.4350  -11.9131 C   0  0  0  0  0  0  0  0  0  0  0  0
   -5.1379  -59.1850  -11.7298 C   0  0  0  0  0  0  0  0  0  0  0  0
   -4.7851  -58.3208  -10.7500 N   0  0  0  0  0  0  0  0  0  0  0  0
   -3.8201  -58.7400   -9.9015 C   0  0  0  0  0  0  0  0  0  0  0  0
   -3.1971  -59.9722   -9.9899 C   0  0  0  0  0  0  0  0  0  0  0  0
   -2.2570  -60.2544   -9.0356 O   0  0  0  0  0  0  0  0  0  0  0  0
  1  2  2  0
  2  3  1  0
  3  4  1  0
  4  5  2  0
  5  6  1  0
  6  7  2  0
  7  8  1  0
  7  9  1  0
  9 10  2  0
 10 11  1  0
 11 12  2  0
 12 13  1  0
 13 14  2  0
  2 15  1  0
 15 16  2  0
 16 17  1  0
 17 18  2  0
 18 19  1  0
 19 20  2  0
 20 21  1  0
 14  4  1  0
 20 15  1  0
 14  9  1  0
M  END
>  <smiles>  (16) 
O=C(Nc1ccc(Cl)c2ncccc12)c1ccncc1O

>  <inchikey>  (16) 
XJDXJFMRGYLKLI-UHFFFAOYSA-N

$$$$
FNMWNAKKFAQWDR-UHFFFAOYSA-N-P446140-P446140-541666
     RDKit          3D

 21 23  0  0  0  0  0  0  0  0999 V2000
   -2.4807  -62.6321   -9.9923 O   0  0  0  0  0  0  0  0  0  0  0  0
   -2.8990  -62.2058  -10.9968 C   0  0  0  0  0  0  0  0  0  0  0  0
   -2.9243  -62.8259  -12.4187 N   0  0  0  0  0  0  0  0  0  0  0  0
   -2.5381  -64.0963  -12.8638 C   0  0  0  0  0  0  0  0  0  0  0  0
   -3.3340  -64.6340  -13.8754 C   0  0  0  0  0  0  0  0  0  0  0  0
   -3.1545  -65.9508  -14.2704 C   0  0  0  0  0  0  0  0  0  0  0  0
   -2.1464  -66.7203  -13.6903 C   0  0  0  0  0  0  0  0  0  0  0  0
   -2.0253  -68.3740  -14.2018 Cl  0  0  0  0  0  0  0  0  0  0  0  0
   -1.2630  -66.1940  -12.7403 C   0  0  0  0  0  0  0  0  0  0  0  0
   -0.2564  -66.9568  -12.2478 N   0  0  0  0  0  0  0  0  0  0  0  0
    0.6074  -66.4213  -11.3649 C   0  0  0  0  0  0  0  0  0  0  0  0
    0.5393  -65.1178  -10.9387 C   0  0  0  0  0  0  0  0  0  0  0  0
   -0.4934  -64.3314  -11.4329 C   0  0  0  0  0  0  0  0  0  0  0  0
   -1.4565  -64.8508  -12.3258 C   0  0  0  0  0  0  0  0  0  0  0  0
   -3.4888  -60.8211  -10.9568 C   0  0  0  0  0  0  0  0  0  0  0  0
   -4.5649  -60.4886  -11.7927 C   0  0  0  0  0  0  0  0  0  0  0  0
   -5.1515  -59.2396  -11.6674 C   0  0  0  0  0  0  0  0  0  0  0  0
   -4.7410  -58.3066  -10.7824 N   0  0  0  0  0  0  0  0  0  0  0  0
   -3.6921  -58.6452   -9.9939 C   0  0  0  0  0  0  0  0  0  0  0  0
   -3.0306  -59.8698  -10.0260 C   0  0  0  0  0  0  0  0  0  0  0  0
   -1.6375  -60.0471   -8.9202 S   0  0  0  0  0  0  0  0  0  0  0  0
  1  2  2  0
  2  3  1  0
  3  4  1  0
  4  5  2  0
  5  6  1  0
  6  7  2  0
  7  8  1  0
  7  9  1  0
  9 10  2  0
 10 11  1  0
 11 12  2  0
 12 13  1  0
 13 14  2  0
  2 15  1  0
 15 16  2  0
 16 17  1  0
 17 18  2  0
 18 19  1  0
 19 20  2  0
 20 21  1  0
 14  4  1  0
 20 15  1  0
 14  9  1  0
M  END
>  <smiles>  (17) 
O=C(Nc1ccc(Cl)c2ncccc12)c1ccncc1S

>  <inchikey>  (17) 
FNMWNAKKFAQWDR-UHFFFAOYSA-N

$$$$
ZFJULGNILCROJB-UHFFFAOYSA-N-P446140-P446140-541666
     RDKit          3D

 21 23  0  0  0  0  0  0  0  0999 V2000
   -2.0175  -60.1903   -9.1463 N   0  0  0  0  0  0  0  0  0  0  0  0
   -3.1382  -59.9521   -9.9705 C   0  0  0  0  0  0  0  0  0  0  0  0
   -3.7399  -58.6953   -9.9588 C   0  0  0  0  0  0  0  0  0  0  0  0
   -4.7460  -58.3049  -10.7758 N   0  0  0  0  0  0  0  0  0  0  0  0
   -5.1460  -59.2047  -11.7005 C   0  0  0  0  0  0  0  0  0  0  0  0
   -4.5818  -60.4618  -11.8510 C   0  0  0  0  0  0  0  0  0  0  0  0
   -3.5499  -60.8441  -10.9850 C   0  0  0  0  0  0  0  0  0  0  0  0
   -2.9371  -62.2239  -11.0305 C   0  0  0  0  0  0  0  0  0  0  0  0
   -2.5130  -62.6393  -10.0214 O   0  0  0  0  0  0  0  0  0  0  0  0
   -2.9604  -62.8570  -12.4486 N   0  0  0  0  0  0  0  0  0  0  0  0
   -2.5655  -64.1287  -12.8839 C   0  0  0  0  0  0  0  0  0  0  0  0
   -3.3682  -64.6944  -13.8744 C   0  0  0  0  0  0  0  0  0  0  0  0
   -3.1685  -66.0116  -14.2568 C   0  0  0  0  0  0  0  0  0  0  0  0
   -2.1380  -66.7552  -13.6826 C   0  0  0  0  0  0  0  0  0  0  0  0
   -1.9950  -68.4119  -14.1780 Cl  0  0  0  0  0  0  0  0  0  0  0  0
   -1.2515  -66.2019  -12.7511 C   0  0  0  0  0  0  0  0  0  0  0  0
   -0.2268  -66.9416  -12.2604 N   0  0  0  0  0  0  0  0  0  0  0  0
    0.6385  -66.3795  -11.3956 C   0  0  0  0  0  0  0  0  0  0  0  0
    0.5540  -65.0713  -10.9864 C   0  0  0  0  0  0  0  0  0  0  0  0
   -0.4974  -64.3088  -11.4787 C   0  0  0  0  0  0  0  0  0  0  0  0
   -1.4620  -64.8566  -12.3528 C   0  0  0  0  0  0  0  0  0  0  0  0
  1  2  1  0
  2  3  2  0
  3  4  1  0
  4  5  2  0
  5  6  1  0
  6  7  2  0
  7  8  1  0
  8  9  2  0
  8 10  1  0
 10 11  1  0
 11 12  2  0
 12 13  1  0
 13 14  2  0
 14 15  1  0
 14 16  1  0
 16 17  2  0
 17 18  1  0
 18 19  2  0
 19 20  1  0
 20 21  2  0
  7  2  1  0
 21 11  1  0
 21 16  1  0
M  END
>  <smiles>  (18) 
Nc1cnccc1C(=O)Nc1ccc(Cl)c2ncccc12

>  <inchikey>  (18) 
ZFJULGNILCROJB-UHFFFAOYSA-N

$$$$
YLFTYQADIKUYLP-UHFFFAOYSA-N-P446140-P446140-541666
     RDKit          3D

 21 23  0  0  0  0  0  0  0  0999 V2000
   -2.0963  -62.4531  -10.1400 O   0  0  0  0  0  0  0  0  0  0  0  0
   -2.7810  -62.1525  -11.0385 C   0  0  0  0  0  0  0  0  0  0  0  0
   -3.1399  -62.9281  -12.3306 N   0  0  0  0  0  0  0  0  0  0  0  0
   -2.6688  -64.1614  -12.8169 C   0  0  0  0  0  0  0  0  0  0  0  0
   -3.5290  -64.7777  -13.7283 C   0  0  0  0  0  0  0  0  0  0  0  0
   -3.2933  -66.0787  -14.1432 C   0  0  0  0  0  0  0  0  0  0  0  0
   -2.1847  -66.7712  -13.6642 C   0  0  0  0  0  0  0  0  0  0  0  0
   -2.0107  -68.4210  -14.1728 Cl  0  0  0  0  0  0  0  0  0  0  0  0
   -1.2473  -66.1730  -12.8168 C   0  0  0  0  0  0  0  0  0  0  0  0
   -0.1615  -66.8771  -12.4137 N   0  0  0  0  0  0  0  0  0  0  0  0
    0.7674  -66.2793  -11.6467 C   0  0  0  0  0  0  0  0  0  0  0  0
    0.6934  -64.9627  -11.2699 C   0  0  0  0  0  0  0  0  0  0  0  0
   -0.4211  -64.2381  -11.6753 C   0  0  0  0  0  0  0  0  0  0  0  0
   -1.4696  -64.8282  -12.4159 C   0  0  0  0  0  0  0  0  0  0  0  0
   -3.4277  -60.8048  -10.9506 C   0  0  0  0  0  0  0  0  0  0  0  0
   -3.5576  -60.2613   -9.6669 C   0  0  0  0  0  0  0  0  0  0  0  0
   -4.0224  -58.9696   -9.5321 C   0  0  0  0  0  0  0  0  0  0  0  0
   -4.3885  -58.1988  -10.5707 N   0  0  0  0  0  0  0  0  0  0  0  0
   -4.2185  -58.7411  -11.7977 C   0  0  0  0  0  0  0  0  0  0  0  0
   -4.4363  -57.6017  -13.0555 Cl  0  0  0  0  0  0  0  0  0  0  0  0
   -3.7636  -60.0242  -12.0543 C   0  0  0  0  0  0  0  0  0  0  0  0
  1  2  2  0
  2  3  1  0
  3  4  1  0
  4  5  2  0
  5  6  1  0
  6  7  2  0
  7  8  1  0
  7  9  1  0
  9 10  2  0
 10 11  1  0
 11 12  2  0
 12 13  1  0
 13 14  2  0
  2 15  1  0
 15 16  2  0
 16 17  1  0
 17 18  2  0
 18 19  1  0
 19 20  1  0
 19 21  2  0
 14  4  1  0
 21 15  1  0
 14  9  1  0
M  END
>  <smiles>  (19) 
O=C(Nc1ccc(Cl)c2ncccc12)c1ccnc(Cl)c1

>  <inchikey>  (19) 
YLFTYQADIKUYLP-UHFFFAOYSA-N

$$$$
CDWBOQXFQGAAND-UHFFFAOYSA-N-P446140-P446140-541666
     RDKit          3D

 21 23  0  0  0  0  0  0  0  0999 V2000
   -2.1162  -62.2706   -9.7069 O   0  0  0  0  0  0  0  0  0  0  0  0
   -2.6368  -61.9981  -10.7166 C   0  0  0  0  0  0  0  0  0  0  0  0
   -2.6611  -62.7519  -12.0682 N   0  0  0  0  0  0  0  0  0  0  0  0
   -2.1457  -64.0045  -12.4197 C   0  0  0  0  0  0  0  0  0  0  0  0
   -2.8625  -64.6436  -13.4203 C   0  0  0  0  0  0  0  0  0  0  0  0
   -2.5646  -65.9603  -13.7323 C   0  0  0  0  0  0  0  0  0  0  0  0
   -3.5130  -66.6997  -14.9167 Cl  0  0  0  0  0  0  0  0  0  0  0  0
   -1.5468  -66.6589  -13.0940 C   0  0  0  0  0  0  0  0  0  0  0  0
   -1.2804  -68.3435  -13.4724 Cl  0  0  0  0  0  0  0  0  0  0  0  0
   -0.7469  -66.0159  -12.1585 C   0  0  0  0  0  0  0  0  0  0  0  0
    0.2864  -66.6895  -11.6096 N   0  0  0  0  0  0  0  0  0  0  0  0
    1.1036  -66.0530  -10.7552 C   0  0  0  0  0  0  0  0  0  0  0  0
    0.9538  -64.7309  -10.4168 C   0  0  0  0  0  0  0  0  0  0  0  0
   -0.1155  -64.0350  -10.9660 C   0  0  0  0  0  0  0  0  0  0  0  0
   -1.0337  -64.6615  -11.8284 C   0  0  0  0  0  0  0  0  0  0  0  0
   -3.4014  -60.7081  -10.7665 C   0  0  0  0  0  0  0  0  0  0  0  0
   -4.4440  -60.4461  -11.6581 C   0  0  0  0  0  0  0  0  0  0  0  0
   -5.0872  -59.2231  -11.5649 C   0  0  0  0  0  0  0  0  0  0  0  0
   -4.7616  -58.2676  -10.6616 N   0  0  0  0  0  0  0  0  0  0  0  0
   -3.7593  -58.5539   -9.8034 C   0  0  0  0  0  0  0  0  0  0  0  0
   -3.0640  -59.7436   -9.8140 C   0  0  0  0  0  0  0  0  0  0  0  0
  1  2  2  0
  2  3  1  0
  3  4  1  0
  4  5  2  0
  5  6  1  0
  6  7  1  0
  6  8  2  0
  8  9  1  0
  8 10  1  0
 10 11  2  0
 11 12  1  0
 12 13  2  0
 13 14  1  0
 14 15  2  0
  2 16  1  0
 16 17  2  0
 17 18  1  0
 18 19  2  0
 19 20  1  0
 20 21  2  0
 15  4  1  0
 21 16  1  0
 15 10  1  0
M  END
>  <smiles>  (20) 
O=C(Nc1cc(Cl)c(Cl)c2ncccc12)c1ccncc1

>  <inchikey>  (20) 
CDWBOQXFQGAAND-UHFFFAOYSA-N

$$$$
CCMOBNDVSHOQDZ-UHFFFAOYSA-N-P446140-P446140-541666
     RDKit          3D

 21 23  0  0  0  0  0  0  0  0999 V2000
   -2.3463  -62.5571   -9.8813 O   0  0  0  0  0  0  0  0  0  0  0  0
   -2.6898  -62.1273  -10.9117 C   0  0  0  0  0  0  0  0  0  0  0  0
   -2.5756  -62.7234  -12.3357 N   0  0  0  0  0  0  0  0  0  0  0  0
   -2.1121  -63.9836  -12.7670 C   0  0  0  0  0  0  0  0  0  0  0  0
   -2.6217  -64.4019  -14.0029 C   0  0  0  0  0  0  0  0  0  0  0  0
   -3.2475  -63.2345  -15.0974 Cl  0  0  0  0  0  0  0  0  0  0  0  0
   -2.5742  -65.7289  -14.3939 C   0  0  0  0  0  0  0  0  0  0  0  0
   -1.8764  -66.6339  -13.6042 C   0  0  0  0  0  0  0  0  0  0  0  0
   -1.8878  -68.2942  -14.1080 Cl  0  0  0  0  0  0  0  0  0  0  0  0
   -1.1435  -66.2188  -12.4853 C   0  0  0  0  0  0  0  0  0  0  0  0
   -0.3318  -67.0925  -11.8499 N   0  0  0  0  0  0  0  0  0  0  0  0
    0.4243  -66.6610  -10.8232 C   0  0  0  0  0  0  0  0  0  0  0  0
    0.4211  -65.3627  -10.3743 C   0  0  0  0  0  0  0  0  0  0  0  0
   -0.4289  -64.4636  -11.0023 C   0  0  0  0  0  0  0  0  0  0  0  0
   -1.2634  -64.8655  -12.0622 C   0  0  0  0  0  0  0  0  0  0  0  0
   -3.3959  -60.8027  -10.9111 C   0  0  0  0  0  0  0  0  0  0  0  0
   -4.4002  -60.4666  -11.8223 C   0  0  0  0  0  0  0  0  0  0  0  0
   -5.0282  -59.2383  -11.6757 C   0  0  0  0  0  0  0  0  0  0  0  0
   -4.7222  -58.3414  -10.7058 N   0  0  0  0  0  0  0  0  0  0  0  0
   -3.7571  -58.7039   -9.8314 C   0  0  0  0  0  0  0  0  0  0  0  0
   -3.0808  -59.9075   -9.8874 C   0  0  0  0  0  0  0  0  0  0  0  0
  1  2  2  0
  2  3  1  0
  3  4  1  0
  4  5  2  0
  5  6  1  0
  5  7  1  0
  7  8  2  0
  8  9  1  0
  8 10  1  0
 10 11  2  0
 11 12  1  0
 12 13  2  0
 13 14  1  0
 14 15  2  0
  2 16  1  0
 16 17  2  0
 17 18  1  0
 18 19  2  0
 19 20  1  0
 20 21  2  0
 15  4  1  0
 21 16  1  0
 15 10  1  0
M  END
>  <smiles>  (21) 
O=C(Nc1c(Cl)cc(Cl)c2ncccc12)c1ccncc1

>  <inchikey>  (21) 
CCMOBNDVSHOQDZ-UHFFFAOYSA-N

$$$$
MJGSXYCHJYMWDI-UHFFFAOYSA-N-P446140-P446140-541666
     RDKit          3D

 21 23  0  0  0  0  0  0  0  0999 V2000
   -2.3903  -62.5802   -9.7285 O   0  0  0  0  0  0  0  0  0  0  0  0
   -2.6814  -62.1065  -10.7548 C   0  0  0  0  0  0  0  0  0  0  0  0
   -2.5176  -62.6513  -12.1922 N   0  0  0  0  0  0  0  0  0  0  0  0
   -2.0601  -63.9016  -12.6501 C   0  0  0  0  0  0  0  0  0  0  0  0
   -2.5293  -64.2483  -13.9237 C   0  0  0  0  0  0  0  0  0  0  0  0
   -3.0941  -62.8712  -15.0916 Br  0  0  0  0  0  0  0  0  0  0  0  0
   -2.5066  -65.5583  -14.3737 C   0  0  0  0  0  0  0  0  0  0  0  0
   -1.8630  -66.5166  -13.5988 C   0  0  0  0  0  0  0  0  0  0  0  0
   -1.9053  -68.1570  -14.1654 Cl  0  0  0  0  0  0  0  0  0  0  0  0
   -1.1533  -66.1676  -12.4422 C   0  0  0  0  0  0  0  0  0  0  0  0
   -0.3750  -67.0843  -11.8256 N   0  0  0  0  0  0  0  0  0  0  0  0
    0.3602  -66.7122  -10.7611 C   0  0  0  0  0  0  0  0  0  0  0  0
    0.3639  -65.4362  -10.2509 C   0  0  0  0  0  0  0  0  0  0  0  0
   -0.4545  -64.4942  -10.8570 C   0  0  0  0  0  0  0  0  0  0  0  0
   -1.2591  -64.8326  -11.9597 C   0  0  0  0  0  0  0  0  0  0  0  0
   -3.3869  -60.7829  -10.7599 C   0  0  0  0  0  0  0  0  0  0  0  0
   -4.3879  -60.4648  -11.6839 C   0  0  0  0  0  0  0  0  0  0  0  0
   -5.0120  -59.2332  -11.5722 C   0  0  0  0  0  0  0  0  0  0  0  0
   -4.7052  -58.3174  -10.6217 N   0  0  0  0  0  0  0  0  0  0  0  0
   -3.7468  -58.6656   -9.7314 C   0  0  0  0  0  0  0  0  0  0  0  0
   -3.0741  -59.8727   -9.7530 C   0  0  0  0  0  0  0  0  0  0  0  0
  1  2  2  0
  2  3  1  0
  3  4  1  0
  4  5  2  0
  5  6  1  0
  5  7  1  0
  7  8  2  0
  8  9  1  0
  8 10  1  0
 10 11  2  0
 11 12  1  0
 12 13  2  0
 13 14  1  0
 14 15  2  0
  2 16  1  0
 16 17  2  0
 17 18  1  0
 18 19  2  0
 19 20  1  0
 20 21  2  0
 15  4  1  0
 21 16  1  0
 15 10  1  0
M  END
>  <smiles>  (22) 
O=C(Nc1c(Br)cc(Cl)c2ncccc12)c1ccncc1

>  <inchikey>  (22) 
MJGSXYCHJYMWDI-UHFFFAOYSA-N

$$$$
AUVRBYBBKIQASN-UHFFFAOYSA-N-P446140-P446140-541666
     RDKit          3D

 21 23  0  0  0  0  0  0  0  0999 V2000
   -2.0096  -62.2927  -13.6085 C   0  0  0  0  0  0  0  0  0  0  0  0
   -2.9568  -62.7520  -12.4349 N   0  0  0  0  0  0  0  0  0  0  0  0
   -2.6477  -62.0049  -11.1542 C   0  0  0  0  0  0  0  0  0  0  0  0
   -1.9023  -62.2664  -10.2799 O   0  0  0  0  0  0  0  0  0  0  0  0
   -3.4532  -60.7469  -11.0287 C   0  0  0  0  0  0  0  0  0  0  0  0
   -3.1577  -59.8979   -9.9583 C   0  0  0  0  0  0  0  0  0  0  0  0
   -3.8677  -58.7228   -9.8322 C   0  0  0  0  0  0  0  0  0  0  0  0
   -4.8460  -58.3453  -10.6830 N   0  0  0  0  0  0  0  0  0  0  0  0
   -5.1329  -59.1980  -11.6990 C   0  0  0  0  0  0  0  0  0  0  0  0
   -4.4683  -60.3932  -11.9172 C   0  0  0  0  0  0  0  0  0  0  0  0
   -2.4872  -64.0860  -12.9227 C   0  0  0  0  0  0  0  0  0  0  0  0
   -3.4528  -64.7342  -13.7192 C   0  0  0  0  0  0  0  0  0  0  0  0
   -3.2937  -66.0568  -14.0943 C   0  0  0  0  0  0  0  0  0  0  0  0
   -2.1886  -66.7732  -13.6437 C   0  0  0  0  0  0  0  0  0  0  0  0
   -2.0842  -68.4363  -14.1319 Cl  0  0  0  0  0  0  0  0  0  0  0  0
   -1.2140  -66.2040  -12.8154 C   0  0  0  0  0  0  0  0  0  0  0  0
   -0.1778  -66.9671  -12.3914 N   0  0  0  0  0  0  0  0  0  0  0  0
    0.7565  -66.4342  -11.5851 C   0  0  0  0  0  0  0  0  0  0  0  0
    0.7356  -65.1256  -11.1800 C   0  0  0  0  0  0  0  0  0  0  0  0
   -0.3166  -64.3330  -11.6215 C   0  0  0  0  0  0  0  0  0  0  0  0
   -1.3560  -64.8405  -12.4379 C   0  0  0  0  0  0  0  0  0  0  0  0
  1  2  1  0
  2  3  1  0
  3  4  2  0
  3  5  1  0
  5  6  2  0
  6  7  1  0
  7  8  2  0
  8  9  1  0
  9 10  2  0
  2 11  1  0
 11 12  2  0
 12 13  1  0
 13 14  2  0
 14 15  1  0
 14 16  1  0
 16 17  2  0
 17 18  1  0
 18 19  2  0
 19 20  1  0
 20 21  2  0
 10  5  1  0
 21 11  1  0
 21 16  1  0
M  END
>  <smiles>  (23) 
CN(C(=O)c1ccncc1)c1ccc(Cl)c2ncccc12

>  <inchikey>  (23) 
AUVRBYBBKIQASN-UHFFFAOYSA-N

$$$$
UGYLWSVMJQMVSZ-UHFFFAOYSA-N-P446140-P446140-541666
     RDKit          3D

 21 23  0  0  0  0  0  0  0  0999 V2000
   -2.2325  -62.4536  -10.1757 O   0  0  0  0  0  0  0  0  0  0  0  0
   -2.8435  -62.1529  -11.1263 C   0  0  0  0  0  0  0  0  0  0  0  0
   -3.0287  -62.8920  -12.4774 N   0  0  0  0  0  0  0  0  0  0  0  0
   -2.5919  -64.1578  -12.8895 C   0  0  0  0  0  0  0  0  0  0  0  0
   -3.4125  -64.7711  -13.8475 C   0  0  0  0  0  0  0  0  0  0  0  0
   -3.2052  -66.0950  -14.2295 C   0  0  0  0  0  0  0  0  0  0  0  0
   -2.1559  -66.8191  -13.6811 C   0  0  0  0  0  0  0  0  0  0  0  0
   -1.9700  -68.4747  -14.1333 Cl  0  0  0  0  0  0  0  0  0  0  0  0
   -1.2770  -66.2003  -12.7849 C   0  0  0  0  0  0  0  0  0  0  0  0
   -0.1989  -66.9324  -12.2493 N   0  0  0  0  0  0  0  0  0  0  0  0
    0.7255  -66.4176  -11.3889 C   0  0  0  0  0  0  0  0  0  0  0  0
    1.6362  -67.0873  -10.9159 O   0  0  0  0  0  0  0  0  0  0  0  0
    0.6008  -64.9795  -11.0824 C   0  0  0  0  0  0  0  0  0  0  0  0
   -0.4127  -64.2532  -11.5698 C   0  0  0  0  0  0  0  0  0  0  0  0
   -1.4702  -64.8542  -12.3948 C   0  0  0  0  0  0  0  0  0  0  0  0
   -3.5478  -60.8220  -11.0696 C   0  0  0  0  0  0  0  0  0  0  0  0
   -4.5666  -60.4179  -11.9322 C   0  0  0  0  0  0  0  0  0  0  0  0
   -5.1486  -59.1759  -11.7220 C   0  0  0  0  0  0  0  0  0  0  0  0
   -4.7841  -58.3211  -10.7358 N   0  0  0  0  0  0  0  0  0  0  0  0
   -3.8009  -58.7367   -9.9114 C   0  0  0  0  0  0  0  0  0  0  0  0
   -3.1682  -59.9573  -10.0343 C   0  0  0  0  0  0  0  0  0  0  0  0
  1  2  2  0
  2  3  1  0
  3  4  1  0
  4  5  2  0
  5  6  1  0
  6  7  2  0
  7  8  1  0
  7  9  1  0
  9 10  1  0
 10 11  1  0
 11 12  2  0
 11 13  1  0
 13 14  2  0
 14 15  1  0
  2 16  1  0
 16 17  2  0
 17 18  1  0
 18 19  2  0
 19 20  1  0
 20 21  2  0
 15  4  1  0
 21 16  1  0
 15  9  2  0
M  END
>  <smiles>  (24) 
O=C(Nc1ccc(Cl)c2[nH]c(=O)ccc12)c1ccncc1

>  <inchikey>  (24) 
UGYLWSVMJQMVSZ-UHFFFAOYSA-N

$$$$
JOOISOJEONDPAE-UHFFFAOYSA-N-P446140-P446140-541666
     RDKit          3D

 21 23  0  0  0  0  0  0  0  0999 V2000
    1.8486  -67.1762  -10.9825 C   0  0  0  0  0  0  0  0  0  0  0  0
    0.7104  -66.3356  -11.4743 C   0  0  0  0  0  0  0  0  0  0  0  0
    0.6081  -65.0104  -11.1084 C   0  0  0  0  0  0  0  0  0  0  0  0
   -0.4736  -64.2778  -11.5846 C   0  0  0  0  0  0  0  0  0  0  0  0
   -1.4651  -64.8634  -12.3993 C   0  0  0  0  0  0  0  0  0  0  0  0
   -2.6114  -64.1779  -12.8999 C   0  0  0  0  0  0  0  0  0  0  0  0
   -3.0420  -62.9068  -12.4900 N   0  0  0  0  0  0  0  0  0  0  0  0
   -2.9096  -62.1916  -11.1196 C   0  0  0  0  0  0  0  0  0  0  0  0
   -2.3540  -62.5197  -10.1441 O   0  0  0  0  0  0  0  0  0  0  0  0
   -3.5906  -60.8476  -11.0715 C   0  0  0  0  0  0  0  0  0  0  0  0
   -4.5745  -60.4108  -11.9580 C   0  0  0  0  0  0  0  0  0  0  0  0
   -5.1357  -59.1587  -11.7487 C   0  0  0  0  0  0  0  0  0  0  0  0
   -4.7797  -58.3215  -10.7443 N   0  0  0  0  0  0  0  0  0  0  0  0
   -3.8270  -58.7663   -9.9000 C   0  0  0  0  0  0  0  0  0  0  0  0
   -3.2194  -60.0001  -10.0183 C   0  0  0  0  0  0  0  0  0  0  0  0
   -3.4326  -64.7916  -13.8475 C   0  0  0  0  0  0  0  0  0  0  0  0
   -3.2056  -66.1080  -14.2141 C   0  0  0  0  0  0  0  0  0  0  0  0
   -2.1366  -66.8096  -13.6612 C   0  0  0  0  0  0  0  0  0  0  0  0
   -1.9629  -68.4701  -14.1336 Cl  0  0  0  0  0  0  0  0  0  0  0  0
   -1.2373  -66.2128  -12.7710 C   0  0  0  0  0  0  0  0  0  0  0  0
   -0.1828  -66.9211  -12.2983 N   0  0  0  0  0  0  0  0  0  0  0  0
  1  2  1  0
  2  3  2  0
  3  4  1  0
  4  5  2  0
  5  6  1  0
  6  7  1  0
  7  8  1  0
  8  9  2  0
  8 10  1  0
 10 11  2  0
 11 12  1  0
 12 13  2  0
 13 14  1  0
 14 15  2  0
  6 16  2  0
 16 17  1  0
 17 18  2  0
 18 19  1  0
 18 20  1  0
 20 21  2  0
 21  2  1  0
 20  5  1  0
 15 10  1  0
M  END
>  <smiles>  (25) 
Cc1ccc2c(NC(=O)c3ccncc3)ccc(Cl)c2n1

>  <inchikey>  (25) 
JOOISOJEONDPAE-UHFFFAOYSA-N

$$$$
PJXQTSBCVHJRKP-UHFFFAOYSA-N-P446140-P446140-541666
     RDKit          3D

 21 23  0  0  0  0  0  0  0  0999 V2000
   -0.1389  -62.6755  -11.6242 C   0  0  0  0  0  0  0  0  0  0  0  0
   -0.3576  -64.1635  -11.7245 C   0  0  0  0  0  0  0  0  0  0  0  0
    0.6444  -64.9534  -11.1475 C   0  0  0  0  0  0  0  0  0  0  0  0
    0.6393  -66.3033  -11.3903 C   0  0  0  0  0  0  0  0  0  0  0  0
   -0.2555  -66.8973  -12.1930 N   0  0  0  0  0  0  0  0  0  0  0  0
   -1.2538  -66.1637  -12.7363 C   0  0  0  0  0  0  0  0  0  0  0  0
   -2.1383  -66.7875  -13.6255 C   0  0  0  0  0  0  0  0  0  0  0  0
   -1.9783  -68.4708  -14.0241 Cl  0  0  0  0  0  0  0  0  0  0  0  0
   -3.1769  -66.1003  -14.2457 C   0  0  0  0  0  0  0  0  0  0  0  0
   -3.4079  -64.7764  -13.9254 C   0  0  0  0  0  0  0  0  0  0  0  0
   -2.6031  -64.1408  -12.9775 C   0  0  0  0  0  0  0  0  0  0  0  0
   -3.1362  -62.9327  -12.5163 N   0  0  0  0  0  0  0  0  0  0  0  0
   -3.1293  -62.3057  -11.0999 C   0  0  0  0  0  0  0  0  0  0  0  0
   -2.7451  -62.7356  -10.0833 O   0  0  0  0  0  0  0  0  0  0  0  0
   -3.7059  -60.9174  -11.0635 C   0  0  0  0  0  0  0  0  0  0  0  0
   -3.3081  -60.0991   -9.9993 C   0  0  0  0  0  0  0  0  0  0  0  0
   -3.8400  -58.8285   -9.8976 C   0  0  0  0  0  0  0  0  0  0  0  0
   -4.7415  -58.3243  -10.7665 N   0  0  0  0  0  0  0  0  0  0  0  0
   -5.1216  -59.1377  -11.7821 C   0  0  0  0  0  0  0  0  0  0  0  0
   -4.6327  -60.4209  -11.9786 C   0  0  0  0  0  0  0  0  0  0  0  0
   -1.4301  -64.7798  -12.4514 C   0  0  0  0  0  0  0  0  0  0  0  0
  1  2  1  0
  2  3  2  0
  3  4  1  0
  4  5  2  0
  5  6  1  0
  6  7  2  0
  7  8  1  0
  7  9  1  0
  9 10  2  0
 10 11  1  0
 11 12  1  0
 12 13  1  0
 13 14  2  0
 13 15  1  0
 15 16  2  0
 16 17  1  0
 17 18  2  0
 18 19  1  0
 19 20  2  0
 11 21  2  0
 21  2  1  0
 21  6  1  0
 20 15  1  0
M  END
>  <smiles>  (26) 
Cc1ccnc2c(Cl)ccc(NC(=O)c3ccncc3)c12

>  <inchikey>  (26) 
PJXQTSBCVHJRKP-UHFFFAOYSA-N

$$$$
LLLFWPJPPOVANX-UHFFFAOYSA-N-P446140-P446140-541666
     RDKit          3D

 21 23  0  0  0  0  0  0  0  0999 V2000
   -3.7629  -66.5596  -14.6744 C   0  0  0  0  0  0  0  0  0  0  0  0
   -2.7747  -65.9161  -13.7789 C   0  0  0  0  0  0  0  0  0  0  0  0
   -2.9883  -64.5832  -13.4450 C   0  0  0  0  0  0  0  0  0  0  0  0
   -2.1902  -63.9615  -12.4937 C   0  0  0  0  0  0  0  0  0  0  0  0
   -2.6516  -62.6946  -12.1266 N   0  0  0  0  0  0  0  0  0  0  0  0
   -2.6108  -61.9668  -10.7629 C   0  0  0  0  0  0  0  0  0  0  0  0
   -2.1168  -62.2803   -9.7521 O   0  0  0  0  0  0  0  0  0  0  0  0
   -3.3759  -60.6761  -10.7853 C   0  0  0  0  0  0  0  0  0  0  0  0
   -3.0244  -59.7223   -9.8283 C   0  0  0  0  0  0  0  0  0  0  0  0
   -3.7268  -58.5370   -9.7905 C   0  0  0  0  0  0  0  0  0  0  0  0
   -4.7474  -58.2459  -10.6261 N   0  0  0  0  0  0  0  0  0  0  0  0
   -5.0868  -59.1919  -11.5331 C   0  0  0  0  0  0  0  0  0  0  0  0
   -4.4402  -60.4095  -11.6510 C   0  0  0  0  0  0  0  0  0  0  0  0
   -1.0772  -64.6491  -11.9496 C   0  0  0  0  0  0  0  0  0  0  0  0
   -0.1196  -64.0504  -11.1098 C   0  0  0  0  0  0  0  0  0  0  0  0
    0.9487  -64.7773  -10.6017 C   0  0  0  0  0  0  0  0  0  0  0  0
    1.0534  -66.0999  -10.9576 C   0  0  0  0  0  0  0  0  0  0  0  0
    0.1896  -66.7122  -11.7854 N   0  0  0  0  0  0  0  0  0  0  0  0
   -0.8476  -66.0090  -12.2942 C   0  0  0  0  0  0  0  0  0  0  0  0
   -1.7274  -66.6271  -13.1851 C   0  0  0  0  0  0  0  0  0  0  0  0
   -1.5477  -68.3267  -13.5431 Cl  0  0  0  0  0  0  0  0  0  0  0  0
  1  2  1  0
  2  3  2  0
  3  4  1  0
  4  5  1  0
  5  6  1  0
  6  7  2  0
  6  8  1  0
  8  9  2  0
  9 10  1  0
 10 11  2  0
 11 12  1  0
 12 13  2  0
  4 14  2  0
 14 15  1  0
 15 16  2  0
 16 17  1  0
 17 18  2  0
 18 19  1  0
 19 20  2  0
 20 21  1  0
 20  2  1  0
 13  8  1  0
 19 14  1  0
M  END
>  <smiles>  (27) 
Cc1cc(NC(=O)c2ccncc2)c2cccnc2c1Cl

>  <inchikey>  (27) 
LLLFWPJPPOVANX-UHFFFAOYSA-N

$$$$
DDDOBXYHZMTNAM-UHFFFAOYSA-N-P446140-P446140-541666
     RDKit          3D

 21 23  0  0  0  0  0  0  0  0999 V2000
   -2.3402  -62.4843  -10.0277 O   0  0  0  0  0  0  0  0  0  0  0  0
   -2.8631  -62.1485  -11.0180 C   0  0  0  0  0  0  0  0  0  0  0  0
   -2.9356  -62.8442  -12.4019 N   0  0  0  0  0  0  0  0  0  0  0  0
   -2.4747  -64.1028  -12.8138 C   0  0  0  0  0  0  0  0  0  0  0  0
   -3.2128  -64.6737  -13.8458 C   0  0  0  0  0  0  0  0  0  0  0  0
   -2.9593  -65.9801  -14.2174 C   0  0  0  0  0  0  0  0  0  0  0  0
   -3.6903  -66.5077  -15.2006 F   0  0  0  0  0  0  0  0  0  0  0  0
   -1.9755  -66.7369  -13.5963 C   0  0  0  0  0  0  0  0  0  0  0  0
   -1.8032  -68.3959  -14.0755 Cl  0  0  0  0  0  0  0  0  0  0  0  0
   -1.1472  -66.1708  -12.6287 C   0  0  0  0  0  0  0  0  0  0  0  0
   -0.1418  -66.9046  -12.0964 N   0  0  0  0  0  0  0  0  0  0  0  0
    0.6969  -66.3340  -11.2130 C   0  0  0  0  0  0  0  0  0  0  0  0
    0.6029  -65.0198  -10.8288 C   0  0  0  0  0  0  0  0  0  0  0  0
   -0.4344  -64.2637  -11.3606 C   0  0  0  0  0  0  0  0  0  0  0  0
   -1.3803  -64.8205  -12.2472 C   0  0  0  0  0  0  0  0  0  0  0  0
   -3.5502  -60.8125  -10.9941 C   0  0  0  0  0  0  0  0  0  0  0  0
   -3.1752  -59.9321   -9.9726 C   0  0  0  0  0  0  0  0  0  0  0  0
   -3.8018  -58.7063   -9.8853 C   0  0  0  0  0  0  0  0  0  0  0  0
   -4.7736  -58.3043  -10.7307 N   0  0  0  0  0  0  0  0  0  0  0  0
   -5.1340  -59.1773  -11.7027 C   0  0  0  0  0  0  0  0  0  0  0  0
   -4.5568  -60.4255  -11.8786 C   0  0  0  0  0  0  0  0  0  0  0  0
  1  2  2  0
  2  3  1  0
  3  4  1  0
  4  5  2  0
  5  6  1  0
  6  7  1  0
  6  8  2  0
  8  9  1  0
  8 10  1  0
 10 11  2  0
 11 12  1  0
 12 13  2  0
 13 14  1  0
 14 15  2  0
  2 16  1  0
 16 17  2  0
 17 18  1  0
 18 19  2  0
 19 20  1  0
 20 21  2  0
 15  4  1  0
 21 16  1  0
 15 10  1  0
M  END
>  <smiles>  (28) 
O=C(Nc1cc(F)c(Cl)c2ncccc12)c1ccncc1

>  <inchikey>  (28) 
DDDOBXYHZMTNAM-UHFFFAOYSA-N

$$$$
AVUUTDAGFHPXPJ-UHFFFAOYSA-N-P446140-P446140-541666
     RDKit          3D

 22 24  0  0  0  0  0  0  0  0999 V2000
   -2.1653  -63.1663  -10.1678 O   0  0  0  0  0  0  0  0  0  0  0  0
   -2.8120  -62.8075  -11.0711 C   0  0  0  0  0  0  0  0  0  0  0  0
   -3.1045  -63.4880  -12.4242 N   0  0  0  0  0  0  0  0  0  0  0  0
   -2.6051  -64.6674  -12.9703 C   0  0  0  0  0  0  0  0  0  0  0  0
   -3.4477  -65.2911  -13.8845 C   0  0  0  0  0  0  0  0  0  0  0  0
   -3.1698  -66.5893  -14.2673 C   0  0  0  0  0  0  0  0  0  0  0  0
   -2.0470  -67.2466  -13.7643 C   0  0  0  0  0  0  0  0  0  0  0  0
   -1.8374  -68.8986  -14.2384 Cl  0  0  0  0  0  0  0  0  0  0  0  0
   -1.1221  -66.6152  -12.9274 C   0  0  0  0  0  0  0  0  0  0  0  0
   -0.0153  -67.2722  -12.5006 N   0  0  0  0  0  0  0  0  0  0  0  0
    0.8894  -66.6240  -11.7423 C   0  0  0  0  0  0  0  0  0  0  0  0
    0.7743  -65.3011  -11.3990 C   0  0  0  0  0  0  0  0  0  0  0  0
   -0.3594  -64.6275  -11.8300 C   0  0  0  0  0  0  0  0  0  0  0  0
   -1.3826  -65.2781  -12.5593 C   0  0  0  0  0  0  0  0  0  0  0  0
   -3.4030  -61.4462  -10.9507 C   0  0  0  0  0  0  0  0  0  0  0  0
   -3.4405  -60.9173   -9.6525 C   0  0  0  0  0  0  0  0  0  0  0  0
   -3.7902  -59.5971   -9.4540 C   0  0  0  0  0  0  0  0  0  0  0  0
   -4.1262  -58.8060  -10.5165 N   0  0  0  0  0  0  0  0  0  0  0  0
   -4.4065  -57.5888  -10.3393 O   0  0  0  0  0  0  0  0  0  0  0  0
   -4.1302  -59.3334  -11.8043 C   0  0  0  0  0  0  0  0  0  0  0  0
   -4.4269  -58.5201  -12.8743 O   0  0  0  0  0  0  0  0  0  0  0  0
   -3.7633  -60.6500  -12.0404 C   0  0  0  0  0  0  0  0  0  0  0  0
  1  2  2  0
  2  3  1  0
  3  4  1  0
  4  5  2  0
  5  6  1  0
  6  7  2  0
  7  8  1  0
  7  9  1  0
  9 10  2  0
 10 11  1  0
 11 12  2  0
 12 13  1  0
 13 14  2  0
  2 15  1  0
 15 16  2  0
 16 17  1  0
 17 18  2  0
 18 19  1  0
 18 20  1  0
 20 21  1  0
 20 22  2  0
 14  4  1  0
 22 15  1  0
 14  9  1  0
M  CHG  2  18   1  19  -1
M  END
>  <smiles>  (29) 
O=C(Nc1ccc(Cl)c2ncccc12)c1cc[n+]([O-])c(O)c1

>  <inchikey>  (29) 
AVUUTDAGFHPXPJ-UHFFFAOYSA-N

$$$$
CVJLDESCBYRUSZ-UHFFFAOYSA-N-P446140-P446140-541666
     RDKit          3D

 22 24  0  0  0  0  0  0  0  0999 V2000
   -2.0197  -62.4386  -10.1739 O   0  0  0  0  0  0  0  0  0  0  0  0
   -2.7152  -62.1389  -11.0665 C   0  0  0  0  0  0  0  0  0  0  0  0
   -3.0171  -62.8764  -12.3965 N   0  0  0  0  0  0  0  0  0  0  0  0
   -2.6120  -64.1443  -12.8503 C   0  0  0  0  0  0  0  0  0  0  0  0
   -3.4948  -64.7524  -13.7443 C   0  0  0  0  0  0  0  0  0  0  0  0
   -3.2932  -66.0661  -14.1377 C   0  0  0  0  0  0  0  0  0  0  0  0
   -2.1979  -66.7780  -13.6540 C   0  0  0  0  0  0  0  0  0  0  0  0
   -2.0575  -68.4353  -14.1473 Cl  0  0  0  0  0  0  0  0  0  0  0  0
   -1.2448  -66.1919  -12.8154 C   0  0  0  0  0  0  0  0  0  0  0  0
   -0.1757  -66.9143  -12.4001 N   0  0  0  0  0  0  0  0  0  0  0  0
    0.7679  -66.3255  -11.6437 C   0  0  0  0  0  0  0  0  0  0  0  0
    0.7259  -65.0012  -11.2891 C   0  0  0  0  0  0  0  0  0  0  0  0
   -0.3708  -64.2573  -11.7070 C   0  0  0  0  0  0  0  0  0  0  0  0
   -1.4326  -64.8366  -12.4369 C   0  0  0  0  0  0  0  0  0  0  0  0
   -3.3816  -60.8034  -10.9369 C   0  0  0  0  0  0  0  0  0  0  0  0
   -3.7601  -60.0284  -12.0356 C   0  0  0  0  0  0  0  0  0  0  0  0
   -4.2459  -58.7545  -11.7812 C   0  0  0  0  0  0  0  0  0  0  0  0
   -4.5039  -57.6297  -13.0433 Cl  0  0  0  0  0  0  0  0  0  0  0  0
   -4.4156  -58.2096  -10.5577 N   0  0  0  0  0  0  0  0  0  0  0  0
   -4.0106  -58.9690   -9.5213 C   0  0  0  0  0  0  0  0  0  0  0  0
   -3.4974  -60.2465   -9.6537 C   0  0  0  0  0  0  0  0  0  0  0  0
   -3.1027  -60.8746   -8.5043 O   0  0  0  0  0  0  0  0  0  0  0  0
  1  2  2  0
  2  3  1  0
  3  4  1  0
  4  5  2  0
  5  6  1  0
  6  7  2  0
  7  8  1  0
  7  9  1  0
  9 10  2  0
 10 11  1  0
 11 12  2  0
 12 13  1  0
 13 14  2  0
  2 15  1  0
 15 16  2  0
 16 17  1  0
 17 18  1  0
 17 19  2  0
 19 20  1  0
 20 21  2  0
 21 22  1  0
 14  4  1  0
 21 15  1  0
 14  9  1  0
M  END
>  <smiles>  (30) 
O=C(Nc1ccc(Cl)c2ncccc12)c1cc(Cl)ncc1O

>  <inchikey>  (30) 
CVJLDESCBYRUSZ-UHFFFAOYSA-N

$$$$
FNTDJRNFRGYKNE-UHFFFAOYSA-N-P446140-P446140-541666
     RDKit          3D

 22 24  0  0  0  0  0  0  0  0999 V2000
   -4.5716  -56.8060  -13.1773 N   0  0  0  0  0  0  0  0  0  0  0  0
   -4.9444  -58.1658  -13.0455 N   0  0  0  0  0  0  0  0  0  0  0  0
   -4.5346  -58.8606  -11.8826 C   0  0  0  0  0  0  0  0  0  0  0  0
   -4.1955  -60.2062  -12.0293 C   0  0  0  0  0  0  0  0  0  0  0  0
   -3.6291  -60.8775  -10.9472 C   0  0  0  0  0  0  0  0  0  0  0  0
   -2.9736  -62.2378  -11.0124 C   0  0  0  0  0  0  0  0  0  0  0  0
   -2.3490  -62.5414  -10.0708 O   0  0  0  0  0  0  0  0  0  0  0  0
   -3.1603  -62.9632  -12.3721 N   0  0  0  0  0  0  0  0  0  0  0  0
   -2.7070  -64.2201  -12.8054 C   0  0  0  0  0  0  0  0  0  0  0  0
   -3.5316  -64.8423  -13.7442 C   0  0  0  0  0  0  0  0  0  0  0  0
   -3.2690  -66.1410  -14.1489 C   0  0  0  0  0  0  0  0  0  0  0  0
   -2.1639  -66.8189  -13.6402 C   0  0  0  0  0  0  0  0  0  0  0  0
   -1.9530  -68.4637  -14.1504 Cl  0  0  0  0  0  0  0  0  0  0  0  0
   -1.2590  -66.2105  -12.7644 C   0  0  0  0  0  0  0  0  0  0  0  0
   -0.1692  -66.8943  -12.3375 N   0  0  0  0  0  0  0  0  0  0  0  0
    0.7244  -66.2823  -11.5396 C   0  0  0  0  0  0  0  0  0  0  0  0
    0.6076  -64.9727  -11.1467 C   0  0  0  0  0  0  0  0  0  0  0  0
   -0.5116  -64.2686  -11.5744 C   0  0  0  0  0  0  0  0  0  0  0  0
   -1.5177  -64.8737  -12.3602 C   0  0  0  0  0  0  0  0  0  0  0  0
   -3.5173  -60.1884   -9.7332 C   0  0  0  0  0  0  0  0  0  0  0  0
   -3.9178  -58.8687   -9.6674 C   0  0  0  0  0  0  0  0  0  0  0  0
   -4.4166  -58.1839  -10.7159 N   0  0  0  0  0  0  0  0  0  0  0  0
  1  2  1  0
  2  3  1  0
  3  4  2  0
  4  5  1  0
  5  6  1  0
  6  7  2  0
  6  8  1  0
  8  9  1  0
  9 10  2  0
 10 11  1  0
 11 12  2  0
 12 13  1  0
 12 14  1  0
 14 15  2  0
 15 16  1  0
 16 17  2  0
 17 18  1  0
 18 19  2  0
  5 20  2  0
 20 21  1  0
 21 22  2  0
 22  3  1  0
 19  9  1  0
 19 14  1  0
M  END
>  <smiles>  (31) 
NNc1cc(C(=O)Nc2ccc(Cl)c3ncccc23)ccn1

>  <inchikey>  (31) 
FNTDJRNFRGYKNE-UHFFFAOYSA-N

$$$$
ZEYRBNDBLVWNBP-UHFFFAOYSA-N-P446140-P446140-541666
     RDKit          3D

 22 24  0  0  0  0  0  0  0  0999 V2000
   -3.4924  -57.7876   -8.8131 N   0  0  0  0  0  0  0  0  0  0  0  0
   -3.8203  -58.6894   -9.8404 C   0  0  0  0  0  0  0  0  0  0  0  0
   -4.7592  -58.2935  -10.7135 N   0  0  0  0  0  0  0  0  0  0  0  0
   -5.1035  -59.1817  -11.6717 C   0  0  0  0  0  0  0  0  0  0  0  0
   -4.5307  -60.4372  -11.8176 C   0  0  0  0  0  0  0  0  0  0  0  0
   -3.5264  -60.8343  -10.9255 C   0  0  0  0  0  0  0  0  0  0  0  0
   -2.8244  -62.1830  -11.0202 C   0  0  0  0  0  0  0  0  0  0  0  0
   -2.2014  -62.5086  -10.0843 O   0  0  0  0  0  0  0  0  0  0  0  0
   -3.0248  -62.8882  -12.3919 N   0  0  0  0  0  0  0  0  0  0  0  0
   -2.5904  -64.1444  -12.8432 C   0  0  0  0  0  0  0  0  0  0  0  0
   -3.4246  -64.7285  -13.7990 C   0  0  0  0  0  0  0  0  0  0  0  0
   -3.2174  -66.0396  -14.1972 C   0  0  0  0  0  0  0  0  0  0  0  0
   -2.1547  -66.7670  -13.6661 C   0  0  0  0  0  0  0  0  0  0  0  0
   -2.0064  -68.4209  -14.1698 Cl  0  0  0  0  0  0  0  0  0  0  0  0
   -1.2394  -66.1992  -12.7731 C   0  0  0  0  0  0  0  0  0  0  0  0
   -0.1891  -66.9298  -12.3253 N   0  0  0  0  0  0  0  0  0  0  0  0
    0.7145  -66.3572  -11.5094 C   0  0  0  0  0  0  0  0  0  0  0  0
    0.6487  -65.0432  -11.1192 C   0  0  0  0  0  0  0  0  0  0  0  0
   -0.4287  -64.2905  -11.5696 C   0  0  0  0  0  0  0  0  0  0  0  0
   -1.4448  -64.8520  -12.3736 C   0  0  0  0  0  0  0  0  0  0  0  0
   -3.1508  -59.9290   -9.9051 C   0  0  0  0  0  0  0  0  0  0  0  0
   -2.2811  -60.2626   -8.8327 N   0  0  0  0  0  0  0  0  0  0  0  0
  1  2  1  0
  2  3  2  0
  3  4  1  0
  4  5  2  0
  5  6  1  0
  6  7  1  0
  7  8  2  0
  7  9  1  0
  9 10  1  0
 10 11  2  0
 11 12  1  0
 12 13  2  0
 13 14  1  0
 13 15  1  0
 15 16  2  0
 16 17  1  0
 17 18  2  0
 18 19  1  0
 19 20  2  0
  6 21  2  0
 21 22  1  0
 21  2  1  0
 20 10  1  0
 20 15  1  0
M  END
>  <smiles>  (32) 
Nc1nccc(C(=O)Nc2ccc(Cl)c3ncccc23)c1N

>  <inchikey>  (32) 
ZEYRBNDBLVWNBP-UHFFFAOYSA-N

$$$$
SCHDDTPOXGQVEZ-UHFFFAOYSA-N-P446140-P446140-541666
     RDKit          3D

 22 24  0  0  0  0  0  0  0  0999 V2000
   -3.2066  -60.9879   -8.4642 N   0  0  0  0  0  0  0  0  0  0  0  0
   -3.4269  -60.2286   -9.6292 C   0  0  0  0  0  0  0  0  0  0  0  0
   -4.0094  -58.9684   -9.5302 C   0  0  0  0  0  0  0  0  0  0  0  0
   -4.3837  -58.1986  -10.5729 N   0  0  0  0  0  0  0  0  0  0  0  0
   -4.1524  -58.7225  -11.7933 C   0  0  0  0  0  0  0  0  0  0  0  0
   -4.3871  -57.5925  -13.0560 Cl  0  0  0  0  0  0  0  0  0  0  0  0
   -3.6324  -59.9813  -12.0377 C   0  0  0  0  0  0  0  0  0  0  0  0
   -3.2826  -60.7586  -10.9288 C   0  0  0  0  0  0  0  0  0  0  0  0
   -2.5655  -62.0681  -11.0875 C   0  0  0  0  0  0  0  0  0  0  0  0
   -1.7711  -62.3255  -10.2674 O   0  0  0  0  0  0  0  0  0  0  0  0
   -2.9826  -62.8472  -12.3632 N   0  0  0  0  0  0  0  0  0  0  0  0
   -2.5873  -64.1159  -12.8307 C   0  0  0  0  0  0  0  0  0  0  0  0
   -3.5094  -64.7262  -13.6845 C   0  0  0  0  0  0  0  0  0  0  0  0
   -3.3303  -66.0410  -14.0858 C   0  0  0  0  0  0  0  0  0  0  0  0
   -2.2228  -66.7583  -13.6408 C   0  0  0  0  0  0  0  0  0  0  0  0
   -2.1081  -68.4174  -14.1357 Cl  0  0  0  0  0  0  0  0  0  0  0  0
   -1.2370  -66.1764  -12.8383 C   0  0  0  0  0  0  0  0  0  0  0  0
   -0.1650  -66.9109  -12.4523 N   0  0  0  0  0  0  0  0  0  0  0  0
    0.8128  -66.3293  -11.7355 C   0  0  0  0  0  0  0  0  0  0  0  0
    0.8056  -64.9996  -11.4012 C   0  0  0  0  0  0  0  0  0  0  0  0
   -0.2932  -64.2441  -11.7919 C   0  0  0  0  0  0  0  0  0  0  0  0
   -1.3948  -64.8150  -12.4664 C   0  0  0  0  0  0  0  0  0  0  0  0
  1  2  1  0
  2  3  2  0
  3  4  1  0
  4  5  2  0
  5  6  1  0
  5  7  1  0
  7  8  2  0
  8  9  1  0
  9 10  2  0
  9 11  1  0
 11 12  1  0
 12 13  2  0
 13 14  1  0
 14 15  2  0
 15 16  1  0
 15 17  1  0
 17 18  2  0
 18 19  1  0
 19 20  2  0
 20 21  1  0
 21 22  2  0
  8  2  1  0
 22 12  1  0
 22 17  1  0
M  END
>  <smiles>  (33) 
Nc1cnc(Cl)cc1C(=O)Nc1ccc(Cl)c2ncccc12

>  <inchikey>  (33) 
SCHDDTPOXGQVEZ-UHFFFAOYSA-N

$$$$
XFZJRAQUFMYNIR-UHFFFAOYSA-N-P446140-P446140-541666
     RDKit          3D

 22 24  0  0  0  0  0  0  0  0999 V2000
   -2.5439  -62.6735  -10.0540 O   0  0  0  0  0  0  0  0  0  0  0  0
   -3.0235  -62.2982  -11.0522 C   0  0  0  0  0  0  0  0  0  0  0  0
   -3.0719  -62.9591  -12.4545 N   0  0  0  0  0  0  0  0  0  0  0  0
   -2.6368  -64.2206  -12.8813 C   0  0  0  0  0  0  0  0  0  0  0  0
   -3.4302  -64.8163  -13.8617 C   0  0  0  0  0  0  0  0  0  0  0  0
   -3.1878  -66.1256  -14.2434 C   0  0  0  0  0  0  0  0  0  0  0  0
   -2.1277  -66.8323  -13.6782 C   0  0  0  0  0  0  0  0  0  0  0  0
   -1.9383  -68.4848  -14.1710 Cl  0  0  0  0  0  0  0  0  0  0  0  0
   -1.2498  -66.2470  -12.7591 C   0  0  0  0  0  0  0  0  0  0  0  0
   -0.1969  -66.9529  -12.2786 N   0  0  0  0  0  0  0  0  0  0  0  0
    0.6612  -66.3612  -11.4268 C   0  0  0  0  0  0  0  0  0  0  0  0
    0.5422  -65.0542  -11.0237 C   0  0  0  0  0  0  0  0  0  0  0  0
   -0.5381  -64.3266  -11.5067 C   0  0  0  0  0  0  0  0  0  0  0  0
   -1.4992  -64.9073  -12.3638 C   0  0  0  0  0  0  0  0  0  0  0  0
   -3.6402  -60.9243  -11.0116 C   0  0  0  0  0  0  0  0  0  0  0  0
   -3.2841  -60.1215   -9.9203 C   0  0  0  0  0  0  0  0  0  0  0  0
   -3.7906  -58.8465   -9.8553 C   0  0  0  0  0  0  0  0  0  0  0  0
   -3.4475  -58.0358   -8.8205 O   0  0  0  0  0  0  0  0  0  0  0  0
   -4.6127  -58.2978  -10.7565 N   0  0  0  0  0  0  0  0  0  0  0  0
   -4.9527  -59.0992  -11.7883 C   0  0  0  0  0  0  0  0  0  0  0  0
   -5.7436  -58.5050  -12.7228 O   0  0  0  0  0  0  0  0  0  0  0  0
   -4.5145  -60.4018  -11.9662 C   0  0  0  0  0  0  0  0  0  0  0  0
  1  2  2  0
  2  3  1  0
  3  4  1  0
  4  5  2  0
  5  6  1  0
  6  7  2  0
  7  8  1  0
  7  9  1  0
  9 10  2  0
 10 11  1  0
 11 12  2  0
 12 13  1  0
 13 14  2  0
  2 15  1  0
 15 16  2  0
 16 17  1  0
 17 18  1  0
 17 19  2  0
 19 20  1  0
 20 21  1  0
 20 22  2  0
 14  4  1  0
 22 15  1  0
 14  9  1  0
M  END
>  <smiles>  (34) 
O=C(Nc1ccc(Cl)c2ncccc12)c1cc(O)nc(O)c1

>  <inchikey>  (34) 
XFZJRAQUFMYNIR-UHFFFAOYSA-N

$$$$
LOLNESLSWHRDKX-UHFFFAOYSA-N-P446140-P446140-541666
     RDKit          3D

 22 24  0  0  0  0  0  0  0  0999 V2000
   -1.9017  -62.9482  -10.1921 O   0  0  0  0  0  0  0  0  0  0  0  0
   -2.5906  -62.5921  -11.0648 C   0  0  0  0  0  0  0  0  0  0  0  0
   -2.8956  -63.2458  -12.4290 N   0  0  0  0  0  0  0  0  0  0  0  0
   -2.5048  -64.4806  -12.9507 C   0  0  0  0  0  0  0  0  0  0  0  0
   -3.4050  -65.0693  -13.8346 C   0  0  0  0  0  0  0  0  0  0  0  0
   -3.2110  -66.3861  -14.2141 C   0  0  0  0  0  0  0  0  0  0  0  0
   -2.1154  -67.1031  -13.7316 C   0  0  0  0  0  0  0  0  0  0  0  0
   -1.9926  -68.7638  -14.2095 Cl  0  0  0  0  0  0  0  0  0  0  0  0
   -1.1447  -66.5209  -12.9109 C   0  0  0  0  0  0  0  0  0  0  0  0
   -0.0742  -67.2404  -12.4924 N   0  0  0  0  0  0  0  0  0  0  0  0
    0.8779  -66.6424  -11.7516 C   0  0  0  0  0  0  0  0  0  0  0  0
    0.8485  -65.3118  -11.4208 C   0  0  0  0  0  0  0  0  0  0  0  0
   -0.2467  -64.5735  -11.8454 C   0  0  0  0  0  0  0  0  0  0  0  0
   -1.3187  -65.1663  -12.5516 C   0  0  0  0  0  0  0  0  0  0  0  0
   -3.2204  -61.2595  -10.8949 C   0  0  0  0  0  0  0  0  0  0  0  0
   -3.4301  -60.8529   -9.5767 C   0  0  0  0  0  0  0  0  0  0  0  0
   -3.8067  -59.5518   -9.3179 C   0  0  0  0  0  0  0  0  0  0  0  0
   -4.0013  -58.6506  -10.3360 N   0  0  0  0  0  0  0  0  0  0  0  0
   -4.3372  -57.4672  -10.0322 O   0  0  0  0  0  0  0  0  0  0  0  0
   -3.7977  -59.0470  -11.6611 C   0  0  0  0  0  0  0  0  0  0  0  0
   -3.8750  -57.8220  -12.9550 S   0  0  0  0  0  0  0  0  0  0  0  0
   -3.4173  -60.3634  -11.9483 C   0  0  0  0  0  0  0  0  0  0  0  0
  1  2  2  0
  2  3  1  0
  3  4  1  0
  4  5  2  0
  5  6  1  0
  6  7  2  0
  7  8  1  0
  7  9  1  0
  9 10  2  0
 10 11  1  0
 11 12  2  0
 12 13  1  0
 13 14  2  0
  2 15  1  0
 15 16  2  0
 16 17  1  0
 17 18  2  0
 18 19  1  0
 18 20  1  0
 20 21  1  0
 20 22  2  0
 14  4  1  0
 22 15  1  0
 14  9  1  0
M  CHG  2  18   1  19  -1
M  END
>  <smiles>  (35) 
O=C(Nc1ccc(Cl)c2ncccc12)c1cc[n+]([O-])c(S)c1

>  <inchikey>  (35) 
LOLNESLSWHRDKX-UHFFFAOYSA-N

$$$$
UUZOCBLDCXYIKZ-UHFFFAOYSA-N-P446140-P446140-541666
     RDKit          3D

 22 24  0  0  0  0  0  0  0  0999 V2000
   -1.8396  -62.3904  -10.2836 O   0  0  0  0  0  0  0  0  0  0  0  0
   -2.5953  -62.1797  -11.1499 C   0  0  0  0  0  0  0  0  0  0  0  0
   -2.9591  -63.0287  -12.3931 N   0  0  0  0  0  0  0  0  0  0  0  0
   -2.5503  -64.3188  -12.7683 C   0  0  0  0  0  0  0  0  0  0  0  0
   -3.4456  -64.9503  -13.6412 C   0  0  0  0  0  0  0  0  0  0  0  0
   -3.2381  -66.2618  -14.0328 C   0  0  0  0  0  0  0  0  0  0  0  0
   -2.1257  -66.9527  -13.5621 C   0  0  0  0  0  0  0  0  0  0  0  0
   -1.9696  -68.6077  -14.0571 Cl  0  0  0  0  0  0  0  0  0  0  0  0
   -1.1674  -66.3488  -12.7396 C   0  0  0  0  0  0  0  0  0  0  0  0
   -0.0867  -67.0588  -12.3354 N   0  0  0  0  0  0  0  0  0  0  0  0
    0.8668  -66.4543  -11.6043 C   0  0  0  0  0  0  0  0  0  0  0  0
    0.8246  -65.1256  -11.2677 C   0  0  0  0  0  0  0  0  0  0  0  0
   -0.2840  -64.3943  -11.6740 C   0  0  0  0  0  0  0  0  0  0  0  0
   -1.3579  -64.9903  -12.3707 C   0  0  0  0  0  0  0  0  0  0  0  0
   -3.3299  -60.8678  -11.1005 C   0  0  0  0  0  0  0  0  0  0  0  0
   -3.4350  -60.2826   -9.8320 C   0  0  0  0  0  0  0  0  0  0  0  0
   -4.0420  -59.0507   -9.7106 C   0  0  0  0  0  0  0  0  0  0  0  0
   -4.0514  -58.4619   -8.5082 F   0  0  0  0  0  0  0  0  0  0  0  0
   -4.6205  -58.3838  -10.7306 N   0  0  0  0  0  0  0  0  0  0  0  0
   -4.4993  -58.9595  -11.9515 C   0  0  0  0  0  0  0  0  0  0  0  0
   -3.8294  -60.1574  -12.1956 C   0  0  0  0  0  0  0  0  0  0  0  0
   -3.4886  -60.6076  -14.0018 Br  0  0  0  0  0  0  0  0  0  0  0  0
  1  2  2  0
  2  3  1  0
  3  4  1  0
  4  5  2  0
  5  6  1  0
  6  7  2  0
  7  8  1  0
  7  9  1  0
  9 10  2  0
 10 11  1  0
 11 12  2  0
 12 13  1  0
 13 14  2  0
  2 15  1  0
 15 16  2  0
 16 17  1  0
 17 18  1  0
 17 19  2  0
 19 20  1  0
 20 21  2  0
 21 22  1  0
 14  4  1  0
 21 15  1  0
 14  9  1  0
M  END
>  <smiles>  (36) 
O=C(Nc1ccc(Cl)c2ncccc12)c1cc(F)ncc1Br

>  <inchikey>  (36) 
UUZOCBLDCXYIKZ-UHFFFAOYSA-N

$$$$
MGBIILOHVWPYJI-UHFFFAOYSA-N-P446140-P446140-541666
     RDKit          3D

 22 24  0  0  0  0  0  0  0  0999 V2000
   -2.1405  -62.4144  -10.2129 O   0  0  0  0  0  0  0  0  0  0  0  0
   -2.8459  -62.1626  -11.1123 C   0  0  0  0  0  0  0  0  0  0  0  0
   -3.1833  -62.9806  -12.3819 N   0  0  0  0  0  0  0  0  0  0  0  0
   -2.6661  -64.2038  -12.8453 C   0  0  0  0  0  0  0  0  0  0  0  0
   -3.4992  -64.8364  -13.7725 C   0  0  0  0  0  0  0  0  0  0  0  0
   -3.2465  -66.1392  -14.1679 C   0  0  0  0  0  0  0  0  0  0  0  0
   -2.1447  -66.8171  -13.6554 C   0  0  0  0  0  0  0  0  0  0  0  0
   -1.9498  -68.4713  -14.1414 Cl  0  0  0  0  0  0  0  0  0  0  0  0
   -1.2301  -66.2015  -12.7949 C   0  0  0  0  0  0  0  0  0  0  0  0
   -0.1461  -66.8915  -12.3635 N   0  0  0  0  0  0  0  0  0  0  0  0
    0.7643  -66.2762  -11.5883 C   0  0  0  0  0  0  0  0  0  0  0  0
    0.6727  -64.9557  -11.2289 C   0  0  0  0  0  0  0  0  0  0  0  0
   -0.4414  -64.2460  -11.6610 C   0  0  0  0  0  0  0  0  0  0  0  0
   -1.4714  -64.8545  -12.4118 C   0  0  0  0  0  0  0  0  0  0  0  0
   -3.5585  -60.8317  -11.0381 C   0  0  0  0  0  0  0  0  0  0  0  0
   -4.4925  -60.3677  -11.9750 C   0  0  0  0  0  0  0  0  0  0  0  0
   -4.8242  -61.0955  -13.0842 O   0  0  0  0  0  0  0  0  0  0  0  0
   -5.0952  -59.1302  -11.7659 C   0  0  0  0  0  0  0  0  0  0  0  0
   -4.8245  -58.3175  -10.7168 N   0  0  0  0  0  0  0  0  0  0  0  0
   -3.9169  -58.7769   -9.8280 C   0  0  0  0  0  0  0  0  0  0  0  0
   -3.2795  -60.0012   -9.9359 C   0  0  0  0  0  0  0  0  0  0  0  0
   -2.4022  -60.3107   -8.9297 O   0  0  0  0  0  0  0  0  0  0  0  0
  1  2  2  0
  2  3  1  0
  3  4  1  0
  4  5  2  0
  5  6  1  0
  6  7  2  0
  7  8  1  0
  7  9  1  0
  9 10  2  0
 10 11  1  0
 11 12  2  0
 12 13  1  0
 13 14  2  0
  2 15  1  0
 15 16  2  0
 16 17  1  0
 16 18  1  0
 18 19  2  0
 19 20  1  0
 20 21  2  0
 21 22  1  0
 14  4  1  0
 21 15  1  0
 14  9  1  0
M  END
>  <smiles>  (37) 
O=C(Nc1ccc(Cl)c2ncccc12)c1c(O)cncc1O

>  <inchikey>  (37) 
MGBIILOHVWPYJI-UHFFFAOYSA-N

$$$$
QKXZGRGCFZACRD-UHFFFAOYSA-N-P446140-P446140-541666
     RDKit          3D

 22 24  0  0  0  0  0  0  0  0999 V2000
   -3.4659  -57.8590   -8.6551 C   0  0  0  0  0  0  0  0  0  0  0  0
   -3.8259  -58.7591   -9.8020 C   0  0  0  0  0  0  0  0  0  0  0  0
   -3.2296  -60.0096   -9.9125 C   0  0  0  0  0  0  0  0  0  0  0  0
   -3.5439  -60.8395  -11.0004 C   0  0  0  0  0  0  0  0  0  0  0  0
   -2.8698  -62.1796  -11.0630 C   0  0  0  0  0  0  0  0  0  0  0  0
   -2.2319  -62.4761  -10.1283 O   0  0  0  0  0  0  0  0  0  0  0  0
   -3.1612  -62.9620  -12.3700 N   0  0  0  0  0  0  0  0  0  0  0  0
   -2.6653  -64.1953  -12.8253 C   0  0  0  0  0  0  0  0  0  0  0  0
   -3.4968  -64.8207  -13.7586 C   0  0  0  0  0  0  0  0  0  0  0  0
   -3.2440  -66.1215  -14.1609 C   0  0  0  0  0  0  0  0  0  0  0  0
   -2.1421  -66.8024  -13.6516 C   0  0  0  0  0  0  0  0  0  0  0  0
   -1.9453  -68.4530  -14.1494 Cl  0  0  0  0  0  0  0  0  0  0  0  0
   -1.2299  -66.1932  -12.7834 C   0  0  0  0  0  0  0  0  0  0  0  0
   -0.1452  -66.8843  -12.3555 N   0  0  0  0  0  0  0  0  0  0  0  0
    0.7566  -66.2757  -11.5647 C   0  0  0  0  0  0  0  0  0  0  0  0
    0.6550  -64.9618  -11.1832 C   0  0  0  0  0  0  0  0  0  0  0  0
   -0.4585  -64.2498  -11.6129 C   0  0  0  0  0  0  0  0  0  0  0  0
   -1.4757  -64.8508  -12.3869 C   0  0  0  0  0  0  0  0  0  0  0  0
   -4.4577  -60.3735  -11.9340 C   0  0  0  0  0  0  0  0  0  0  0  0
   -4.8029  -61.0954  -13.0074 F   0  0  0  0  0  0  0  0  0  0  0  0
   -5.0313  -59.1291  -11.7421 C   0  0  0  0  0  0  0  0  0  0  0  0
   -4.7329  -58.3071  -10.7007 N   0  0  0  0  0  0  0  0  0  0  0  0
  1  2  1  0
  2  3  2  0
  3  4  1  0
  4  5  1  0
  5  6  2  0
  5  7  1  0
  7  8  1  0
  8  9  2  0
  9 10  1  0
 10 11  2  0
 11 12  1  0
 11 13  1  0
 13 14  2  0
 14 15  1  0
 15 16  2  0
 16 17  1  0
 17 18  2  0
  4 19  2  0
 19 20  1  0
 19 21  1  0
 21 22  2  0
 22  2  1  0
 18  8  1  0
 18 13  1  0
M  END
>  <smiles>  (38) 
Cc1cc(C(=O)Nc2ccc(Cl)c3ncccc23)c(F)cn1

>  <inchikey>  (38) 
QKXZGRGCFZACRD-UHFFFAOYSA-N

$$$$
BYJNDXFLXZDNSG-UHFFFAOYSA-N-P446140-P446140-541666
     RDKit          3D

 22 24  0  0  0  0  0  0  0  0999 V2000
   -2.0087  -62.3471  -10.3829 O   0  0  0  0  0  0  0  0  0  0  0  0
   -2.7818  -62.1550  -11.2389 C   0  0  0  0  0  0  0  0  0  0  0  0
   -3.1126  -62.9934  -12.5010 N   0  0  0  0  0  0  0  0  0  0  0  0
   -2.6414  -64.2533  -12.9098 C   0  0  0  0  0  0  0  0  0  0  0  0
   -3.4985  -64.9080  -13.7983 C   0  0  0  0  0  0  0  0  0  0  0  0
   -3.2612  -66.2248  -14.1549 C   0  0  0  0  0  0  0  0  0  0  0  0
   -2.1558  -66.8960  -13.6410 C   0  0  0  0  0  0  0  0  0  0  0  0
   -1.9738  -68.5608  -14.0931 Cl  0  0  0  0  0  0  0  0  0  0  0  0
   -1.2259  -66.2652  -12.8097 C   0  0  0  0  0  0  0  0  0  0  0  0
   -0.1461  -66.9547  -12.3679 N   0  0  0  0  0  0  0  0  0  0  0  0
    0.7808  -66.3269  -11.6230 C   0  0  0  0  0  0  0  0  0  0  0  0
    0.7117  -64.9937  -11.3102 C   0  0  0  0  0  0  0  0  0  0  0  0
   -0.3969  -64.2842  -11.7567 C   0  0  0  0  0  0  0  0  0  0  0  0
   -1.4469  -64.9037  -12.4703 C   0  0  0  0  0  0  0  0  0  0  0  0
   -3.5341  -60.8568  -11.1451 C   0  0  0  0  0  0  0  0  0  0  0  0
   -3.4357  -60.1783   -9.9238 C   0  0  0  0  0  0  0  0  0  0  0  0
   -4.0196  -58.9388   -9.8023 C   0  0  0  0  0  0  0  0  0  0  0  0
   -3.8944  -58.2826   -8.6416 F   0  0  0  0  0  0  0  0  0  0  0  0
   -4.7085  -58.3291  -10.7807 N   0  0  0  0  0  0  0  0  0  0  0  0
   -4.7921  -59.0045  -11.9450 C   0  0  0  0  0  0  0  0  0  0  0  0
   -5.4035  -58.3802  -12.9594 F   0  0  0  0  0  0  0  0  0  0  0  0
   -4.2357  -60.2507  -12.1841 C   0  0  0  0  0  0  0  0  0  0  0  0
  1  2  2  0
  2  3  1  0
  3  4  1  0
  4  5  2  0
  5  6  1  0
  6  7  2  0
  7  8  1  0
  7  9  1  0
  9 10  2  0
 10 11  1  0
 11 12  2  0
 12 13  1  0
 13 14  2  0
  2 15  1  0
 15 16  2  0
 16 17  1  0
 17 18  1  0
 17 19  2  0
 19 20  1  0
 20 21  1  0
 20 22  2  0
 14  4  1  0
 22 15  1  0
 14  9  1  0
M  END
>  <smiles>  (39) 
O=C(Nc1ccc(Cl)c2ncccc12)c1cc(F)nc(F)c1

>  <inchikey>  (39) 
BYJNDXFLXZDNSG-UHFFFAOYSA-N

$$$$
JEGLDYZXLQQMOJ-UHFFFAOYSA-N-P446140-P446140-541666
     RDKit          3D

 22 24  0  0  0  0  0  0  0  0999 V2000
   -3.7105  -57.9972   -8.7471 N   0  0  0  0  0  0  0  0  0  0  0  0
   -3.9647  -58.8050   -9.8567 C   0  0  0  0  0  0  0  0  0  0  0  0
   -3.3384  -60.0317   -9.9939 C   0  0  0  0  0  0  0  0  0  0  0  0
   -3.5486  -60.8019  -11.1515 C   0  0  0  0  0  0  0  0  0  0  0  0
   -2.8318  -62.1281  -11.2082 C   0  0  0  0  0  0  0  0  0  0  0  0
   -2.1311  -62.3625  -10.3011 O   0  0  0  0  0  0  0  0  0  0  0  0
   -3.1771  -62.9802  -12.4582 N   0  0  0  0  0  0  0  0  0  0  0  0
   -2.6727  -64.2214  -12.8856 C   0  0  0  0  0  0  0  0  0  0  0  0
   -3.5172  -64.8841  -13.7814 C   0  0  0  0  0  0  0  0  0  0  0  0
   -3.2583  -66.1931  -14.1512 C   0  0  0  0  0  0  0  0  0  0  0  0
   -2.1419  -66.8494  -13.6431 C   0  0  0  0  0  0  0  0  0  0  0  0
   -1.9370  -68.5096  -14.1036 Cl  0  0  0  0  0  0  0  0  0  0  0  0
   -1.2220  -66.2088  -12.8074 C   0  0  0  0  0  0  0  0  0  0  0  0
   -0.1297  -66.8836  -12.3733 N   0  0  0  0  0  0  0  0  0  0  0  0
    0.7829  -66.2482  -11.6173 C   0  0  0  0  0  0  0  0  0  0  0  0
    0.6861  -64.9216  -11.2829 C   0  0  0  0  0  0  0  0  0  0  0  0
   -0.4350  -64.2263  -11.7210 C   0  0  0  0  0  0  0  0  0  0  0  0
   -1.4677  -64.8548  -12.4517 C   0  0  0  0  0  0  0  0  0  0  0  0
   -4.3713  -60.2811  -12.1428 C   0  0  0  0  0  0  0  0  0  0  0  0
   -4.9659  -59.0631  -11.8870 C   0  0  0  0  0  0  0  0  0  0  0  0
   -5.7806  -58.5149  -12.8209 O   0  0  0  0  0  0  0  0  0  0  0  0
   -4.8056  -58.3225  -10.7802 N   0  0  0  0  0  0  0  0  0  0  0  0
  1  2  1  0
  2  3  2  0
  3  4  1  0
  4  5  1  0
  5  6  2  0
  5  7  1  0
  7  8  1  0
  8  9  2  0
  9 10  1  0
 10 11  2  0
 11 12  1  0
 11 13  1  0
 13 14  2  0
 14 15  1  0
 15 16  2  0
 16 17  1  0
 17 18  2  0
  4 19  2  0
 19 20  1  0
 20 21  1  0
 20 22  2  0
 22  2  1  0
 18  8  1  0
 18 13  1  0
M  END
>  <smiles>  (40) 
Nc1cc(C(=O)Nc2ccc(Cl)c3ncccc23)cc(O)n1

>  <inchikey>  (40) 
JEGLDYZXLQQMOJ-UHFFFAOYSA-N

$$$$
OBWMRSVFLDIWLD-UHFFFAOYSA-N-P446140-P446140-541666
     RDKit          3D

 22 24  0  0  0  0  0  0  0  0999 V2000
   -2.5130  -60.3972   -8.7597 N   0  0  0  0  0  0  0  0  0  0  0  0
   -3.2590  -59.9867   -9.8847 C   0  0  0  0  0  0  0  0  0  0  0  0
   -3.9648  -58.7870   -9.7953 C   0  0  0  0  0  0  0  0  0  0  0  0
   -4.8464  -58.3286  -10.7103 N   0  0  0  0  0  0  0  0  0  0  0  0
   -5.0755  -59.1403  -11.7653 C   0  0  0  0  0  0  0  0  0  0  0  0
   -4.4445  -60.3645  -11.9632 C   0  0  0  0  0  0  0  0  0  0  0  0
   -4.7575  -61.0947  -13.0782 O   0  0  0  0  0  0  0  0  0  0  0  0
   -3.5101  -60.8140  -11.0122 C   0  0  0  0  0  0  0  0  0  0  0  0
   -2.7130  -62.1115  -11.1414 C   0  0  0  0  0  0  0  0  0  0  0  0
   -1.9170  -62.3186  -10.3088 O   0  0  0  0  0  0  0  0  0  0  0  0
   -3.0755  -62.9264  -12.4089 N   0  0  0  0  0  0  0  0  0  0  0  0
   -2.6137  -64.1785  -12.8535 C   0  0  0  0  0  0  0  0  0  0  0  0
   -3.4877  -64.8072  -13.7455 C   0  0  0  0  0  0  0  0  0  0  0  0
   -3.2732  -66.1199  -14.1321 C   0  0  0  0  0  0  0  0  0  0  0  0
   -2.1724  -66.8151  -13.6409 C   0  0  0  0  0  0  0  0  0  0  0  0
   -2.0169  -68.4754  -14.1209 Cl  0  0  0  0  0  0  0  0  0  0  0  0
   -1.2257  -66.2112  -12.8077 C   0  0  0  0  0  0  0  0  0  0  0  0
   -0.1509  -66.9231  -12.3880 N   0  0  0  0  0  0  0  0  0  0  0  0
    0.7918  -66.3197  -11.6428 C   0  0  0  0  0  0  0  0  0  0  0  0
    0.7452  -64.9905  -11.3088 C   0  0  0  0  0  0  0  0  0  0  0  0
   -0.3579  -64.2589  -11.7319 C   0  0  0  0  0  0  0  0  0  0  0  0
   -1.4239  -64.8526  -12.4422 C   0  0  0  0  0  0  0  0  0  0  0  0
  1  2  1  0
  2  3  2  0
  3  4  1  0
  4  5  2  0
  5  6  1  0
  6  7  1  0
  6  8  2  0
  8  9  1  0
  9 10  2  0
  9 11  1  0
 11 12  1  0
 12 13  2  0
 13 14  1  0
 14 15  2  0
 15 16  1  0
 15 17  1  0
 17 18  2  0
 18 19  1  0
 19 20  2  0
 20 21  1  0
 21 22  2  0
  8  2  1  0
 22 12  1  0
 22 17  1  0
M  END
>  <smiles>  (41) 
Nc1cncc(O)c1C(=O)Nc1ccc(Cl)c2ncccc12

>  <inchikey>  (41) 
OBWMRSVFLDIWLD-UHFFFAOYSA-N

$$$$
WWSAPFFAYRWFBK-UHFFFAOYSA-N-P446140-P446140-541666
     RDKit          3D

 22 24  0  0  0  0  0  0  0  0999 V2000
   -1.2807  -62.0323  -10.7070 O   0  0  0  0  0  0  0  0  0  0  0  0
   -2.2684  -61.9481  -11.3240 C   0  0  0  0  0  0  0  0  0  0  0  0
   -2.8927  -62.9199  -12.3598 N   0  0  0  0  0  0  0  0  0  0  0  0
   -2.4866  -64.2096  -12.7689 C   0  0  0  0  0  0  0  0  0  0  0  0
   -3.4631  -64.8444  -13.5534 C   0  0  0  0  0  0  0  0  0  0  0  0
   -3.3114  -66.1597  -13.9599 C   0  0  0  0  0  0  0  0  0  0  0  0
   -2.1851  -66.8716  -13.5661 C   0  0  0  0  0  0  0  0  0  0  0  0
   -2.0963  -68.5325  -14.0604 Cl  0  0  0  0  0  0  0  0  0  0  0  0
   -1.1624  -66.2847  -12.8152 C   0  0  0  0  0  0  0  0  0  0  0  0
   -0.0939  -67.0378  -12.4597 N   0  0  0  0  0  0  0  0  0  0  0  0
    0.9286  -66.4694  -11.7997 C   0  0  0  0  0  0  0  0  0  0  0  0
    0.9721  -65.1332  -11.5053 C   0  0  0  0  0  0  0  0  0  0  0  0
   -0.1232  -64.3589  -11.8686 C   0  0  0  0  0  0  0  0  0  0  0  0
   -1.2776  -64.9101  -12.4655 C   0  0  0  0  0  0  0  0  0  0  0  0
   -3.1107  -60.7326  -11.1192 C   0  0  0  0  0  0  0  0  0  0  0  0
   -3.5846  -59.9878  -12.2092 C   0  0  0  0  0  0  0  0  0  0  0  0
   -3.1005  -60.3446  -14.0081 Br  0  0  0  0  0  0  0  0  0  0  0  0
   -4.3453  -58.8488  -11.9597 C   0  0  0  0  0  0  0  0  0  0  0  0
   -4.5933  -58.3573  -10.7223 N   0  0  0  0  0  0  0  0  0  0  0  0
   -4.0630  -59.0607   -9.6929 C   0  0  0  0  0  0  0  0  0  0  0  0
   -3.3580  -60.2527   -9.8246 C   0  0  0  0  0  0  0  0  0  0  0  0
   -2.7735  -61.1898   -8.0355 I   0  0  0  0  0  0  0  0  0  0  0  0
  1  2  2  0
  2  3  1  0
  3  4  1  0
  4  5  2  0
  5  6  1  0
  6  7  2  0
  7  8  1  0
  7  9  1  0
  9 10  2  0
 10 11  1  0
 11 12  2  0
 12 13  1  0
 13 14  2  0
  2 15  1  0
 15 16  2  0
 16 17  1  0
 16 18  1  0
 18 19  2  0
 19 20  1  0
 20 21  2  0
 21 22  1  0
 14  4  1  0
 21 15  1  0
 14  9  1  0
M  END
>  <smiles>  (42) 
O=C(Nc1ccc(Cl)c2ncccc12)c1c(Br)cncc1I

>  <inchikey>  (42) 
WWSAPFFAYRWFBK-UHFFFAOYSA-N

$$$$
OOTGRIVUZCDFPN-UHFFFAOYSA-N-P446140-P446140-541666
     RDKit          3D

 22 24  0  0  0  0  0  0  0  0999 V2000
   -2.2672  -60.4304   -8.9076 N   0  0  0  0  0  0  0  0  0  0  0  0
   -3.2624  -60.0777   -9.8416 C   0  0  0  0  0  0  0  0  0  0  0  0
   -3.7526  -58.7723   -9.8478 C   0  0  0  0  0  0  0  0  0  0  0  0
   -4.6024  -58.2673  -10.7666 N   0  0  0  0  0  0  0  0  0  0  0  0
   -4.9465  -59.1017  -11.7692 C   0  0  0  0  0  0  0  0  0  0  0  0
   -5.7356  -58.5986  -12.7247 F   0  0  0  0  0  0  0  0  0  0  0  0
   -4.5108  -60.4077  -11.8932 C   0  0  0  0  0  0  0  0  0  0  0  0
   -3.6288  -60.9057  -10.9290 C   0  0  0  0  0  0  0  0  0  0  0  0
   -3.1134  -62.3274  -10.9678 C   0  0  0  0  0  0  0  0  0  0  0  0
   -2.7592  -62.7793   -9.9480 O   0  0  0  0  0  0  0  0  0  0  0  0
   -3.1378  -62.9503  -12.3892 N   0  0  0  0  0  0  0  0  0  0  0  0
   -2.6591  -64.1825  -12.8504 C   0  0  0  0  0  0  0  0  0  0  0  0
   -3.4098  -64.7481  -13.8802 C   0  0  0  0  0  0  0  0  0  0  0  0
   -3.1554  -66.0483  -14.2849 C   0  0  0  0  0  0  0  0  0  0  0  0
   -2.1173  -66.7704  -13.6980 C   0  0  0  0  0  0  0  0  0  0  0  0
   -1.9174  -68.4148  -14.2138 Cl  0  0  0  0  0  0  0  0  0  0  0  0
   -1.2708  -66.2068  -12.7362 C   0  0  0  0  0  0  0  0  0  0  0  0
   -0.2289  -66.9196  -12.2421 N   0  0  0  0  0  0  0  0  0  0  0  0
    0.5963  -66.3482  -11.3451 C   0  0  0  0  0  0  0  0  0  0  0  0
    0.4519  -65.0558  -10.9036 C   0  0  0  0  0  0  0  0  0  0  0  0
   -0.6187  -64.3210  -11.3974 C   0  0  0  0  0  0  0  0  0  0  0  0
   -1.5415  -64.8808  -12.3089 C   0  0  0  0  0  0  0  0  0  0  0  0
  1  2  1  0
  2  3  2  0
  3  4  1  0
  4  5  2  0
  5  6  1  0
  5  7  1  0
  7  8  2  0
  8  9  1  0
  9 10  2  0
  9 11  1  0
 11 12  1  0
 12 13  2  0
 13 14  1  0
 14 15  2  0
 15 16  1  0
 15 17  1  0
 17 18  2  0
 18 19  1  0
 19 20  2  0
 20 21  1  0
 21 22  2  0
  8  2  1  0
 22 12  1  0
 22 17  1  0
M  END
>  <smiles>  (43) 
Nc1cnc(F)cc1C(=O)Nc1ccc(Cl)c2ncccc12

>  <inchikey>  (43) 
OOTGRIVUZCDFPN-UHFFFAOYSA-N

$$$$
AKDLQSUYGKFRMK-UHFFFAOYSA-N-P446140-P446140-541666
     RDKit          3D

 22 24  0  0  0  0  0  0  0  0999 V2000
   -6.4543  -59.1339  -12.1039 N   0  0  0  0  0  0  0  0  0  0  0  0
   -5.2039  -59.2999  -11.5494 C   0  0  0  0  0  0  0  0  0  0  0  0
   -4.5202  -60.4809  -11.7893 C   0  0  0  0  0  0  0  0  0  0  0  0
   -3.3562  -60.7367  -11.0766 C   0  0  0  0  0  0  0  0  0  0  0  0
   -2.6124  -62.0384  -11.1516 C   0  0  0  0  0  0  0  0  0  0  0  0
   -1.9429  -62.3145  -10.2328 O   0  0  0  0  0  0  0  0  0  0  0  0
   -2.8884  -62.8185  -12.4670 N   0  0  0  0  0  0  0  0  0  0  0  0
   -2.4847  -64.1033  -12.8679 C   0  0  0  0  0  0  0  0  0  0  0  0
   -3.3516  -64.6946  -13.7943 C   0  0  0  0  0  0  0  0  0  0  0  0
   -3.1883  -66.0197  -14.1650 C   0  0  0  0  0  0  0  0  0  0  0  0
   -2.1382  -66.7610  -13.6301 C   0  0  0  0  0  0  0  0  0  0  0  0
   -2.0331  -68.4268  -14.1058 Cl  0  0  0  0  0  0  0  0  0  0  0  0
   -1.2005  -66.1978  -12.7569 C   0  0  0  0  0  0  0  0  0  0  0  0
   -0.1718  -66.9513  -12.2979 N   0  0  0  0  0  0  0  0  0  0  0  0
    0.7566  -66.3890  -11.5034 C   0  0  0  0  0  0  0  0  0  0  0  0
    0.7392  -65.0637  -11.1493 C   0  0  0  0  0  0  0  0  0  0  0  0
   -0.3148  -64.2865  -11.6133 C   0  0  0  0  0  0  0  0  0  0  0  0
   -1.3581  -64.8335  -12.3908 C   0  0  0  0  0  0  0  0  0  0  0  0
   -2.9187  -59.7839  -10.1553 C   0  0  0  0  0  0  0  0  0  0  0  0
   -3.6406  -58.6142  -10.0009 C   0  0  0  0  0  0  0  0  0  0  0  0
   -3.2391  -57.6627   -9.0682 N   0  0  0  0  0  0  0  0  0  0  0  0
   -4.7738  -58.3635  -10.6789 N   0  0  0  0  0  0  0  0  0  0  0  0
  1  2  1  0
  2  3  2  0
  3  4  1  0
  4  5  1  0
  5  6  2  0
  5  7  1  0
  7  8  1  0
  8  9  2  0
  9 10  1  0
 10 11  2  0
 11 12  1  0
 11 13  1  0
 13 14  2  0
 14 15  1  0
 15 16  2  0
 16 17  1  0
 17 18  2  0
  4 19  2  0
 19 20  1  0
 20 21  1  0
 20 22  2  0
 22  2  1  0
 18  8  1  0
 18 13  1  0
M  END
>  <smiles>  (44) 
Nc1cc(C(=O)Nc2ccc(Cl)c3ncccc23)cc(N)n1

>  <inchikey>  (44) 
AKDLQSUYGKFRMK-UHFFFAOYSA-N

$$$$
MQYCNUOGMHRDIQ-UHFFFAOYSA-N-P446140-P446140-541666
     RDKit          3D

 22 24  0  0  0  0  0  0  0  0999 V2000
   -2.3335  -62.5445  -10.1341 O   0  0  0  0  0  0  0  0  0  0  0  0
   -2.9276  -62.2276  -11.0902 C   0  0  0  0  0  0  0  0  0  0  0  0
   -3.1759  -62.9894  -12.4163 N   0  0  0  0  0  0  0  0  0  0  0  0
   -2.6803  -64.2236  -12.8656 C   0  0  0  0  0  0  0  0  0  0  0  0
   -3.4962  -64.8510  -13.8091 C   0  0  0  0  0  0  0  0  0  0  0  0
   -3.2350  -66.1540  -14.1985 C   0  0  0  0  0  0  0  0  0  0  0  0
   -2.1394  -66.8313  -13.6700 C   0  0  0  0  0  0  0  0  0  0  0  0
   -1.9337  -68.4839  -14.1567 Cl  0  0  0  0  0  0  0  0  0  0  0  0
   -1.2401  -66.2171  -12.7926 C   0  0  0  0  0  0  0  0  0  0  0  0
   -0.1584  -66.9022  -12.3474 N   0  0  0  0  0  0  0  0  0  0  0  0
    0.7304  -66.2872  -11.5467 C   0  0  0  0  0  0  0  0  0  0  0  0
    0.6170  -64.9731  -11.1689 C   0  0  0  0  0  0  0  0  0  0  0  0
   -0.4942  -64.2676  -11.6152 C   0  0  0  0  0  0  0  0  0  0  0  0
   -1.4963  -64.8751  -12.4046 C   0  0  0  0  0  0  0  0  0  0  0  0
   -3.5730  -60.8751  -11.0354 C   0  0  0  0  0  0  0  0  0  0  0  0
   -3.4534  -60.1602   -9.8326 C   0  0  0  0  0  0  0  0  0  0  0  0
   -3.9895  -58.8896   -9.7438 C   0  0  0  0  0  0  0  0  0  0  0  0
   -4.6457  -58.2871  -10.7545 N   0  0  0  0  0  0  0  0  0  0  0  0
   -4.7461  -58.9963  -11.9098 C   0  0  0  0  0  0  0  0  0  0  0  0
   -5.3307  -58.3753  -12.9433 F   0  0  0  0  0  0  0  0  0  0  0  0
   -4.2351  -60.2711  -12.0951 C   0  0  0  0  0  0  0  0  0  0  0  0
   -4.3575  -60.8727  -13.2863 F   0  0  0  0  0  0  0  0  0  0  0  0
  1  2  2  0
  2  3  1  0
  3  4  1  0
  4  5  2  0
  5  6  1  0
  6  7  2  0
  7  8  1  0
  7  9  1  0
  9 10  2  0
 10 11  1  0
 11 12  2  0
 12 13  1  0
 13 14  2  0
  2 15  1  0
 15 16  2  0
 16 17  1  0
 17 18  2  0
 18 19  1  0
 19 20  1  0
 19 21  2  0
 21 22  1  0
 14  4  1  0
 21 15  1  0
 14  9  1  0
M  END
>  <smiles>  (45) 
O=C(Nc1ccc(Cl)c2ncccc12)c1ccnc(F)c1F

>  <inchikey>  (45) 
MQYCNUOGMHRDIQ-UHFFFAOYSA-N

$$$$
YOEYSWPHRRIEHT-UHFFFAOYSA-N-P446140-P446140-541666
     RDKit          3D

 22 24  0  0  0  0  0  0  0  0999 V2000
   -2.2034  -62.4488  -10.1151 O   0  0  0  0  0  0  0  0  0  0  0  0
   -2.7758  -62.0938  -11.0709 C   0  0  0  0  0  0  0  0  0  0  0  0
   -2.9682  -62.7884  -12.4411 N   0  0  0  0  0  0  0  0  0  0  0  0
   -2.5880  -64.0691  -12.8766 C   0  0  0  0  0  0  0  0  0  0  0  0
   -3.4432  -64.6524  -13.8115 C   0  0  0  0  0  0  0  0  0  0  0  0
   -3.2594  -65.9716  -14.1966 C   0  0  0  0  0  0  0  0  0  0  0  0
   -2.2004  -66.7093  -13.6711 C   0  0  0  0  0  0  0  0  0  0  0  0
   -2.0762  -68.3693  -14.1622 Cl  0  0  0  0  0  0  0  0  0  0  0  0
   -1.2691  -66.1468  -12.7919 C   0  0  0  0  0  0  0  0  0  0  0  0
   -0.2273  -66.8897  -12.3428 N   0  0  0  0  0  0  0  0  0  0  0  0
    0.6904  -66.3233  -11.5385 C   0  0  0  0  0  0  0  0  0  0  0  0
    0.6464  -65.0052  -11.1593 C   0  0  0  0  0  0  0  0  0  0  0  0
   -0.4221  -64.2402  -11.6107 C   0  0  0  0  0  0  0  0  0  0  0  0
   -1.4504  -64.7925  -12.4063 C   0  0  0  0  0  0  0  0  0  0  0  0
   -3.3998  -60.7377  -10.9835 C   0  0  0  0  0  0  0  0  0  0  0  0
   -3.5848  -60.2146   -9.6977 C   0  0  0  0  0  0  0  0  0  0  0  0
   -4.0199  -58.9125   -9.5603 C   0  0  0  0  0  0  0  0  0  0  0  0
   -4.2982  -58.1024  -10.6000 N   0  0  0  0  0  0  0  0  0  0  0  0
   -4.0731  -58.6104  -11.8411 C   0  0  0  0  0  0  0  0  0  0  0  0
   -4.1447  -57.3988  -13.1354 S   0  0  0  0  0  0  0  0  0  0  0  0
   -3.6624  -59.9224  -12.0780 C   0  0  0  0  0  0  0  0  0  0  0  0
   -3.4355  -60.3532  -13.3282 F   0  0  0  0  0  0  0  0  0  0  0  0
  1  2  2  0
  2  3  1  0
  3  4  1  0
  4  5  2  0
  5  6  1  0
  6  7  2  0
  7  8  1  0
  7  9  1  0
  9 10  2  0
 10 11  1  0
 11 12  2  0
 12 13  1  0
 13 14  2  0
  2 15  1  0
 15 16  2  0
 16 17  1  0
 17 18  2  0
 18 19  1  0
 19 20  1  0
 19 21  2  0
 21 22  1  0
 14  4  1  0
 21 15  1  0
 14  9  1  0
M  END
>  <smiles>  (46) 
O=C(Nc1ccc(Cl)c2ncccc12)c1ccnc(S)c1F

>  <inchikey>  (46) 
YOEYSWPHRRIEHT-UHFFFAOYSA-N

$$$$
LQHVJSJXINRHRP-UHFFFAOYSA-N-P446140-P446140-541666
     RDKit          3D

 22 24  0  0  0  0  0  0  0  0999 V2000
   -4.8133  -61.0914  -13.1071 N   0  0  0  0  0  0  0  0  0  0  0  0
   -4.4621  -60.3753  -11.9404 C   0  0  0  0  0  0  0  0  0  0  0  0
   -4.9081  -59.0557  -11.8067 C   0  0  0  0  0  0  0  0  0  0  0  0
   -4.6277  -58.2342  -10.7697 N   0  0  0  0  0  0  0  0  0  0  0  0
   -3.8211  -58.7492   -9.8181 C   0  0  0  0  0  0  0  0  0  0  0  0
   -3.2481  -60.0201   -9.8496 C   0  0  0  0  0  0  0  0  0  0  0  0
   -2.5366  -60.4562   -8.7187 N   0  0  0  0  0  0  0  0  0  0  0  0
   -3.5675  -60.8521  -10.9549 C   0  0  0  0  0  0  0  0  0  0  0  0
   -2.9297  -62.2312  -11.0128 C   0  0  0  0  0  0  0  0  0  0  0  0
   -2.6161  -62.7148   -9.9953 O   0  0  0  0  0  0  0  0  0  0  0  0
   -2.8431  -62.7862  -12.4570 N   0  0  0  0  0  0  0  0  0  0  0  0
   -2.4538  -64.0474  -12.9248 C   0  0  0  0  0  0  0  0  0  0  0  0
   -3.2275  -64.5655  -13.9639 C   0  0  0  0  0  0  0  0  0  0  0  0
   -3.0740  -65.8907  -14.3432 C   0  0  0  0  0  0  0  0  0  0  0  0
   -2.1067  -66.6842  -13.7255 C   0  0  0  0  0  0  0  0  0  0  0  0
   -2.0170  -68.3457  -14.2182 Cl  0  0  0  0  0  0  0  0  0  0  0  0
   -1.2391  -66.1755  -12.7510 C   0  0  0  0  0  0  0  0  0  0  0  0
   -0.2666  -66.9575  -12.2211 N   0  0  0  0  0  0  0  0  0  0  0  0
    0.5734  -66.4373  -11.3062 C   0  0  0  0  0  0  0  0  0  0  0  0
    0.5115  -65.1335  -10.8775 C   0  0  0  0  0  0  0  0  0  0  0  0
   -0.4863  -64.3274  -11.4087 C   0  0  0  0  0  0  0  0  0  0  0  0
   -1.4159  -64.8281  -12.3456 C   0  0  0  0  0  0  0  0  0  0  0  0
  1  2  1  0
  2  3  2  0
  3  4  1  0
  4  5  2  0
  5  6  1  0
  6  7  1  0
  6  8  2  0
  8  9  1  0
  9 10  2  0
  9 11  1  0
 11 12  1  0
 12 13  2  0
 13 14  1  0
 14 15  2  0
 15 16  1  0
 15 17  1  0
 17 18  2  0
 18 19  1  0
 19 20  2  0
 20 21  1  0
 21 22  2  0
  8  2  1  0
 22 12  1  0
 22 17  1  0
M  END
>  <smiles>  (47) 
Nc1cncc(N)c1C(=O)Nc1ccc(Cl)c2ncccc12

>  <inchikey>  (47) 
LQHVJSJXINRHRP-UHFFFAOYSA-N

$$$$
OCOADEBPRSAWMM-UHFFFAOYSA-N-P446140-P446140-541666
     RDKit          3D

 22 24  0  0  0  0  0  0  0  0999 V2000
   -2.1501  -62.4397  -10.1840 O   0  0  0  0  0  0  0  0  0  0  0  0
   -2.8014  -62.1541  -11.1125 C   0  0  0  0  0  0  0  0  0  0  0  0
   -3.0352  -62.9096  -12.4466 N   0  0  0  0  0  0  0  0  0  0  0  0
   -2.6045  -64.1800  -12.8632 C   0  0  0  0  0  0  0  0  0  0  0  0
   -3.4588  -64.8007  -13.7783 C   0  0  0  0  0  0  0  0  0  0  0  0
   -3.2405  -66.1153  -14.1564 C   0  0  0  0  0  0  0  0  0  0  0  0
   -2.1521  -66.8140  -13.6405 C   0  0  0  0  0  0  0  0  0  0  0  0
   -1.9889  -68.4734  -14.1202 Cl  0  0  0  0  0  0  0  0  0  0  0  0
   -1.2245  -66.2146  -12.7814 C   0  0  0  0  0  0  0  0  0  0  0  0
   -0.1573  -66.9240  -12.3397 N   0  0  0  0  0  0  0  0  0  0  0  0
    0.7586  -66.3232  -11.5587 C   0  0  0  0  0  0  0  0  0  0  0  0
    0.6887  -65.0007  -11.1998 C   0  0  0  0  0  0  0  0  0  0  0  0
   -0.4061  -64.2696  -11.6441 C   0  0  0  0  0  0  0  0  0  0  0  0
   -1.4356  -64.8603  -12.4093 C   0  0  0  0  0  0  0  0  0  0  0  0
   -3.5044  -60.8324  -11.0385 C   0  0  0  0  0  0  0  0  0  0  0  0
   -3.1584  -59.9784   -9.9804 C   0  0  0  0  0  0  0  0  0  0  0  0
   -3.7808  -58.7479   -9.8814 C   0  0  0  0  0  0  0  0  0  0  0  0
   -3.2548  -57.5620   -8.4979 Br  0  0  0  0  0  0  0  0  0  0  0  0
   -4.7387  -58.3259  -10.7384 N   0  0  0  0  0  0  0  0  0  0  0  0
   -5.0660  -59.1731  -11.7476 C   0  0  0  0  0  0  0  0  0  0  0  0
   -4.4710  -60.4077  -11.9399 C   0  0  0  0  0  0  0  0  0  0  0  0
   -4.8433  -61.1608  -12.9816 F   0  0  0  0  0  0  0  0  0  0  0  0
  1  2  2  0
  2  3  1  0
  3  4  1  0
  4  5  2  0
  5  6  1  0
  6  7  2  0
  7  8  1  0
  7  9  1  0
  9 10  2  0
 10 11  1  0
 11 12  2  0
 12 13  1  0
 13 14  2  0
  2 15  1  0
 15 16  2  0
 16 17  1  0
 17 18  1  0
 17 19  2  0
 19 20  1  0
 20 21  2  0
 21 22  1  0
 14  4  1  0
 21 15  1  0
 14  9  1  0
M  END
>  <smiles>  (48) 
O=C(Nc1ccc(Cl)c2ncccc12)c1cc(Br)ncc1F

>  <inchikey>  (48) 
OCOADEBPRSAWMM-UHFFFAOYSA-N

$$$$
ZVPPYLSRECLDQW-UHFFFAOYSA-N-P446140-P446140-541666
     RDKit          3D

 22 24  0  0  0  0  0  0  0  0999 V2000
   -2.4195  -62.6340  -10.1259 O   0  0  0  0  0  0  0  0  0  0  0  0
   -2.9528  -62.2800  -11.1041 C   0  0  0  0  0  0  0  0  0  0  0  0
   -3.0586  -62.9601  -12.4921 N   0  0  0  0  0  0  0  0  0  0  0  0
   -2.6246  -64.2213  -12.9235 C   0  0  0  0  0  0  0  0  0  0  0  0
   -3.4385  -64.8294  -13.8785 C   0  0  0  0  0  0  0  0  0  0  0  0
   -3.2047  -66.1442  -14.2463 C   0  0  0  0  0  0  0  0  0  0  0  0
   -2.1372  -66.8466  -13.6898 C   0  0  0  0  0  0  0  0  0  0  0  0
   -1.9598  -68.5056  -14.1640 Cl  0  0  0  0  0  0  0  0  0  0  0  0
   -1.2419  -66.2513  -12.7952 C   0  0  0  0  0  0  0  0  0  0  0  0
   -0.1859  -66.9559  -12.3199 N   0  0  0  0  0  0  0  0  0  0  0  0
    0.6924  -66.3554  -11.4957 C   0  0  0  0  0  0  0  0  0  0  0  0
    0.5921  -65.0393  -11.1190 C   0  0  0  0  0  0  0  0  0  0  0  0
   -0.4915  -64.3132  -11.5972 C   0  0  0  0  0  0  0  0  0  0  0  0
   -1.4766  -64.9035  -12.4203 C   0  0  0  0  0  0  0  0  0  0  0  0
   -3.6052  -60.9245  -11.0373 C   0  0  0  0  0  0  0  0  0  0  0  0
   -4.5460  -60.4266  -11.9363 C   0  0  0  0  0  0  0  0  0  0  0  0
   -5.0721  -59.1639  -11.6983 C   0  0  0  0  0  0  0  0  0  0  0  0
   -4.7209  -58.3722  -10.6544 N   0  0  0  0  0  0  0  0  0  0  0  0
   -3.8034  -58.8750   -9.7936 C   0  0  0  0  0  0  0  0  0  0  0  0
   -3.3397  -57.8909   -8.3783 S   0  0  0  0  0  0  0  0  0  0  0  0
   -2.5596  -56.2205   -9.2626 S   0  0  0  0  0  0  0  0  0  0  0  0
   -3.2392  -60.1273   -9.9445 C   0  0  0  0  0  0  0  0  0  0  0  0
  1  2  2  0
  2  3  1  0
  3  4  1  0
  4  5  2  0
  5  6  1  0
  6  7  2  0
  7  8  1  0
  7  9  1  0
  9 10  2  0
 10 11  1  0
 11 12  2  0
 12 13  1  0
 13 14  2  0
  2 15  1  0
 15 16  2  0
 16 17  1  0
 17 18  2  0
 18 19  1  0
 19 20  1  0
 20 21  1  0
 19 22  2  0
 14  4  1  0
 22 15  1  0
 14  9  1  0
M  END
>  <smiles>  (49) 
O=C(Nc1ccc(Cl)c2ncccc12)c1ccnc(SS)c1

>  <inchikey>  (49) 
ZVPPYLSRECLDQW-UHFFFAOYSA-N

$$$$
HFKKAKRZBMRCSW-UHFFFAOYSA-N-P446140-P446140-541666
     RDKit          3D

 22 24  0  0  0  0  0  0  0  0999 V2000
   -1.8669  -62.3726  -10.3258 O   0  0  0  0  0  0  0  0  0  0  0  0
   -2.6033  -62.1476  -11.2051 C   0  0  0  0  0  0  0  0  0  0  0  0
   -2.9569  -62.9866  -12.4574 N   0  0  0  0  0  0  0  0  0  0  0  0
   -2.5611  -64.2819  -12.8296 C   0  0  0  0  0  0  0  0  0  0  0  0
   -3.4565  -64.9154  -13.6981 C   0  0  0  0  0  0  0  0  0  0  0  0
   -3.2556  -66.2339  -14.0705 C   0  0  0  0  0  0  0  0  0  0  0  0
   -2.1505  -66.9284  -13.5868 C   0  0  0  0  0  0  0  0  0  0  0  0
   -2.0025  -68.5898  -14.0626 Cl  0  0  0  0  0  0  0  0  0  0  0  0
   -1.1923  -66.3228  -12.7665 C   0  0  0  0  0  0  0  0  0  0  0  0
   -0.1191  -67.0360  -12.3470 N   0  0  0  0  0  0  0  0  0  0  0  0
    0.8342  -66.4301  -11.6169 C   0  0  0  0  0  0  0  0  0  0  0  0
    0.7991  -65.0973  -11.2960 C   0  0  0  0  0  0  0  0  0  0  0  0
   -0.3018  -64.3631  -11.7184 C   0  0  0  0  0  0  0  0  0  0  0  0
   -1.3758  -64.9592  -12.4155 C   0  0  0  0  0  0  0  0  0  0  0  0
   -3.3205  -60.8328  -11.1567 C   0  0  0  0  0  0  0  0  0  0  0  0
   -3.5498  -60.3234   -9.8710 C   0  0  0  0  0  0  0  0  0  0  0  0
   -4.1236  -59.0752   -9.7332 C   0  0  0  0  0  0  0  0  0  0  0  0
   -4.5467  -58.3265  -10.7684 N   0  0  0  0  0  0  0  0  0  0  0  0
   -4.3020  -58.8316  -12.0046 C   0  0  0  0  0  0  0  0  0  0  0  0
   -4.6354  -58.0359  -13.0338 F   0  0  0  0  0  0  0  0  0  0  0  0
   -3.6658  -60.0463  -12.2565 C   0  0  0  0  0  0  0  0  0  0  0  0
   -3.1377  -60.4358  -14.0353 Br  0  0  0  0  0  0  0  0  0  0  0  0
  1  2  2  0
  2  3  1  0
  3  4  1  0
  4  5  2  0
  5  6  1  0
  6  7  2  0
  7  8  1  0
  7  9  1  0
  9 10  2  0
 10 11  1  0
 11 12  2  0
 12 13  1  0
 13 14  2  0
  2 15  1  0
 15 16  2  0
 16 17  1  0
 17 18  2  0
 18 19  1  0
 19 20  1  0
 19 21  2  0
 21 22  1  0
 14  4  1  0
 21 15  1  0
 14  9  1  0
M  END
>  <smiles>  (50) 
O=C(Nc1ccc(Cl)c2ncccc12)c1ccnc(F)c1Br

>  <inchikey>  (50) 
HFKKAKRZBMRCSW-UHFFFAOYSA-N

$$$$
PNZPTWWVGQRGHR-UHFFFAOYSA-N-P446140-P446140-541666
     RDKit          3D

 22 24  0  0  0  0  0  0  0  0999 V2000
   -2.0806  -62.3729  -10.2502 O   0  0  0  0  0  0  0  0  0  0  0  0
   -2.7477  -62.0978  -11.1709 C   0  0  0  0  0  0  0  0  0  0  0  0
   -3.0059  -62.8695  -12.4908 N   0  0  0  0  0  0  0  0  0  0  0  0
   -2.5844  -64.1465  -12.8991 C   0  0  0  0  0  0  0  0  0  0  0  0
   -3.4488  -64.7712  -13.8017 C   0  0  0  0  0  0  0  0  0  0  0  0
   -3.2447  -66.0924  -14.1651 C   0  0  0  0  0  0  0  0  0  0  0  0
   -2.1611  -66.7955  -13.6454 C   0  0  0  0  0  0  0  0  0  0  0  0
   -2.0133  -68.4613  -14.1084 Cl  0  0  0  0  0  0  0  0  0  0  0  0
   -1.2254  -66.1953  -12.7960 C   0  0  0  0  0  0  0  0  0  0  0  0
   -0.1654  -66.9114  -12.3473 N   0  0  0  0  0  0  0  0  0  0  0  0
    0.7593  -66.3110  -11.5765 C   0  0  0  0  0  0  0  0  0  0  0  0
    0.7063  -64.9828  -11.2367 C   0  0  0  0  0  0  0  0  0  0  0  0
   -0.3807  -64.2450  -11.6892 C   0  0  0  0  0  0  0  0  0  0  0  0
   -1.4205  -64.8337  -12.4417 C   0  0  0  0  0  0  0  0  0  0  0  0
   -3.4884  -60.7976  -11.0751 C   0  0  0  0  0  0  0  0  0  0  0  0
   -3.3829  -60.0884   -9.8681 C   0  0  0  0  0  0  0  0  0  0  0  0
   -4.0566  -58.8886   -9.7282 C   0  0  0  0  0  0  0  0  0  0  0  0
   -4.8459  -58.3547  -10.6852 N   0  0  0  0  0  0  0  0  0  0  0  0
   -4.9113  -59.0524  -11.8396 C   0  0  0  0  0  0  0  0  0  0  0  0
   -5.6772  -58.4743  -12.8009 O   0  0  0  0  0  0  0  0  0  0  0  0
   -4.2587  -60.2500  -12.0906 C   0  0  0  0  0  0  0  0  0  0  0  0
   -4.3853  -60.8519  -13.2816 F   0  0  0  0  0  0  0  0  0  0  0  0
  1  2  2  0
  2  3  1  0
  3  4  1  0
  4  5  2  0
  5  6  1  0
  6  7  2  0
  7  8  1  0
  7  9  1  0
  9 10  2  0
 10 11  1  0
 11 12  2  0
 12 13  1  0
 13 14  2  0
  2 15  1  0
 15 16  2  0
 16 17  1  0
 17 18  2  0
 18 19  1  0
 19 20  1  0
 19 21  2  0
 21 22  1  0
 14  4  1  0
 21 15  1  0
 14  9  1  0
M  END
>  <smiles>  (51) 
O=C(Nc1ccc(Cl)c2ncccc12)c1ccnc(O)c1F

>  <inchikey>  (51) 
PNZPTWWVGQRGHR-UHFFFAOYSA-N

$$$$
FTWJTVFTLAEIQX-UHFFFAOYSA-N-P446140-P446140-541666
     RDKit          3D

 22 24  0  0  0  0  0  0  0  0999 V2000
   -3.5397  -57.9040   -8.7494 N   0  0  0  0  0  0  0  0  0  0  0  0
   -3.8258  -58.7357   -9.8233 C   0  0  0  0  0  0  0  0  0  0  0  0
   -3.2113  -59.9718   -9.9345 C   0  0  0  0  0  0  0  0  0  0  0  0
   -3.5143  -60.8074  -11.0205 C   0  0  0  0  0  0  0  0  0  0  0  0
   -2.8010  -62.1253  -11.0987 C   0  0  0  0  0  0  0  0  0  0  0  0
   -2.1367  -62.4052  -10.1773 O   0  0  0  0  0  0  0  0  0  0  0  0
   -3.0467  -62.8855  -12.4289 N   0  0  0  0  0  0  0  0  0  0  0  0
   -2.6137  -64.1551  -12.8482 C   0  0  0  0  0  0  0  0  0  0  0  0
   -3.4704  -64.7762  -13.7610 C   0  0  0  0  0  0  0  0  0  0  0  0
   -3.2519  -66.0894  -14.1446 C   0  0  0  0  0  0  0  0  0  0  0  0
   -2.1602  -66.7876  -13.6355 C   0  0  0  0  0  0  0  0  0  0  0  0
   -1.9964  -68.4458  -14.1200 Cl  0  0  0  0  0  0  0  0  0  0  0  0
   -1.2301  -66.1887  -12.7787 C   0  0  0  0  0  0  0  0  0  0  0  0
   -0.1602  -66.8984  -12.3438 N   0  0  0  0  0  0  0  0  0  0  0  0
    0.7583  -66.2989  -11.5649 C   0  0  0  0  0  0  0  0  0  0  0  0
    0.6886  -64.9773  -11.2026 C   0  0  0  0  0  0  0  0  0  0  0  0
   -0.4087  -64.2459  -11.6404 C   0  0  0  0  0  0  0  0  0  0  0  0
   -1.4415  -64.8352  -12.4021 C   0  0  0  0  0  0  0  0  0  0  0  0
   -4.4506  -60.3643  -11.9412 C   0  0  0  0  0  0  0  0  0  0  0  0
   -4.7941  -61.0935  -13.0098 F   0  0  0  0  0  0  0  0  0  0  0  0
   -5.0474  -59.1337  -11.7381 C   0  0  0  0  0  0  0  0  0  0  0  0
   -4.7487  -58.3067  -10.7004 N   0  0  0  0  0  0  0  0  0  0  0  0
  1  2  1  0
  2  3  2  0
  3  4  1  0
  4  5  1  0
  5  6  2  0
  5  7  1  0
  7  8  1  0
  8  9  2  0
  9 10  1  0
 10 11  2  0
 11 12  1  0
 11 13  1  0
 13 14  2  0
 14 15  1  0
 15 16  2  0
 16 17  1  0
 17 18  2  0
  4 19  2  0
 19 20  1  0
 19 21  1  0
 21 22  2  0
 22  2  1  0
 18  8  1  0
 18 13  1  0
M  END
>  <smiles>  (52) 
Nc1cc(C(=O)Nc2ccc(Cl)c3ncccc23)c(F)cn1

>  <inchikey>  (52) 
FTWJTVFTLAEIQX-UHFFFAOYSA-N

$$$$
CIXSUHMNFGZJLO-UHFFFAOYSA-N-P446140-P446140-541666
     RDKit          3D

 22 24  0  0  0  0  0  0  0  0999 V2000
   -4.6259  -57.2506  -13.1345 C   0  0  0  0  0  0  0  0  0  0  0  0
   -5.4125  -58.3927  -12.7006 N   0  0  0  0  0  0  0  0  0  0  0  0
   -4.7341  -59.0504  -11.6716 C   0  0  0  0  0  0  0  0  0  0  0  0
   -4.0569  -60.2270  -11.9589 C   0  0  0  0  0  0  0  0  0  0  0  0
   -3.3709  -60.8627  -10.9298 C   0  0  0  0  0  0  0  0  0  0  0  0
   -2.6061  -62.1439  -11.0851 C   0  0  0  0  0  0  0  0  0  0  0  0
   -1.8122  -62.3760  -10.2576 O   0  0  0  0  0  0  0  0  0  0  0  0
   -2.9974  -62.9443  -12.3570 N   0  0  0  0  0  0  0  0  0  0  0  0
   -2.5714  -64.2065  -12.8093 C   0  0  0  0  0  0  0  0  0  0  0  0
   -3.4770  -64.8274  -13.6763 C   0  0  0  0  0  0  0  0  0  0  0  0
   -3.2779  -66.1380  -14.0784 C   0  0  0  0  0  0  0  0  0  0  0  0
   -2.1653  -66.8396  -13.6230 C   0  0  0  0  0  0  0  0  0  0  0  0
   -2.0268  -68.4962  -14.1197 Cl  0  0  0  0  0  0  0  0  0  0  0  0
   -1.1943  -66.2450  -12.8104 C   0  0  0  0  0  0  0  0  0  0  0  0
   -0.1144  -66.9642  -12.4184 N   0  0  0  0  0  0  0  0  0  0  0  0
    0.8477  -66.3693  -11.6909 C   0  0  0  0  0  0  0  0  0  0  0  0
    0.8169  -65.0413  -11.3502 C   0  0  0  0  0  0  0  0  0  0  0  0
   -0.2898  -64.3012  -11.7467 C   0  0  0  0  0  0  0  0  0  0  0  0
   -1.3743  -64.8871  -12.4349 C   0  0  0  0  0  0  0  0  0  0  0  0
   -3.3365  -60.2497   -9.6742 C   0  0  0  0  0  0  0  0  0  0  0  0
   -4.0039  -59.0549   -9.4997 C   0  0  0  0  0  0  0  0  0  0  0  0
   -4.7278  -58.4515  -10.4639 N   0  0  0  0  0  0  0  0  0  0  0  0
  1  2  1  0
  2  3  1  0
  3  4  2  0
  4  5  1  0
  5  6  1  0
  6  7  2  0
  6  8  1  0
  8  9  1  0
  9 10  2  0
 10 11  1  0
 11 12  2  0
 12 13  1  0
 12 14  1  0
 14 15  2  0
 15 16  1  0
 16 17  2  0
 17 18  1  0
 18 19  2  0
  5 20  2  0
 20 21  1  0
 21 22  2  0
 22  3  1  0
 19  9  1  0
 19 14  1  0
M  END
>  <smiles>  (53) 
CNc1cc(C(=O)Nc2ccc(Cl)c3ncccc23)ccn1

>  <inchikey>  (53) 
CIXSUHMNFGZJLO-UHFFFAOYSA-N

$$$$
ZENHZUPMAKXYQZ-UHFFFAOYSA-N-P446140-P446140-541666
     RDKit          3D

 22 24  0  0  0  0  0  0  0  0999 V2000
   -1.8499  -60.1366   -9.2201 N   0  0  0  0  0  0  0  0  0  0  0  0
   -3.0288  -59.8921   -9.9719 C   0  0  0  0  0  0  0  0  0  0  0  0
   -3.4844  -60.8068  -10.9491 C   0  0  0  0  0  0  0  0  0  0  0  0
   -2.8784  -62.1879  -10.9977 C   0  0  0  0  0  0  0  0  0  0  0  0
   -2.4187  -62.5960  -10.0016 O   0  0  0  0  0  0  0  0  0  0  0  0
   -2.9421  -62.8262  -12.4122 N   0  0  0  0  0  0  0  0  0  0  0  0
   -2.5509  -64.0963  -12.8557 C   0  0  0  0  0  0  0  0  0  0  0  0
   -3.3565  -64.6437  -13.8547 C   0  0  0  0  0  0  0  0  0  0  0  0
   -3.1724  -65.9598  -14.2500 C   0  0  0  0  0  0  0  0  0  0  0  0
   -2.1525  -66.7210  -13.6803 C   0  0  0  0  0  0  0  0  0  0  0  0
   -2.0266  -68.3751  -14.1897 Cl  0  0  0  0  0  0  0  0  0  0  0  0
   -1.2609  -66.1862  -12.7428 C   0  0  0  0  0  0  0  0  0  0  0  0
   -0.2449  -66.9426  -12.2597 N   0  0  0  0  0  0  0  0  0  0  0  0
    0.6301  -66.3982  -11.3937 C   0  0  0  0  0  0  0  0  0  0  0  0
    0.5645  -65.0916  -10.9768 C   0  0  0  0  0  0  0  0  0  0  0  0
   -0.4787  -64.3124  -11.4605 C   0  0  0  0  0  0  0  0  0  0  0  0
   -1.4555  -64.8417  -12.3323 C   0  0  0  0  0  0  0  0  0  0  0  0
   -4.5523  -60.4528  -11.7803 C   0  0  0  0  0  0  0  0  0  0  0  0
   -5.1192  -59.1992  -11.6323 C   0  0  0  0  0  0  0  0  0  0  0  0
   -4.6947  -58.2801  -10.7368 N   0  0  0  0  0  0  0  0  0  0  0  0
   -3.6518  -58.6321   -9.9456 C   0  0  0  0  0  0  0  0  0  0  0  0
   -3.1168  -57.3638   -8.8035 S   0  0  0  0  0  0  0  0  0  0  0  0
  1  2  1  0
  2  3  2  0
  3  4  1  0
  4  5  2  0
  4  6  1  0
  6  7  1  0
  7  8  2  0
  8  9  1  0
  9 10  2  0
 10 11  1  0
 10 12  1  0
 12 13  2  0
 13 14  1  0
 14 15  2  0
 15 16  1  0
 16 17  2  0
  3 18  1  0
 18 19  2  0
 19 20  1  0
 20 21  2  0
 21 22  1  0
 21  2  1  0
 17  7  1  0
 17 12  1  0
M  END
>  <smiles>  (54) 
Nc1c(C(=O)Nc2ccc(Cl)c3ncccc23)ccnc1S

>  <inchikey>  (54) 
ZENHZUPMAKXYQZ-UHFFFAOYSA-N

$$$$
PKCFMXQDQRGZQE-UHFFFAOYSA-N-P446140-P446140-541666
     RDKit          3D

 22 24  0  0  0  0  0  0  0  0999 V2000
   -2.8995  -60.2973  -14.0976 C   0  0  0  0  0  0  0  0  0  0  0  0
   -4.0667  -60.7248  -13.3806 O   0  0  0  0  0  0  0  0  0  0  0  0
   -4.0647  -60.1947  -12.1213 C   0  0  0  0  0  0  0  0  0  0  0  0
   -4.7159  -58.9856  -11.9043 C   0  0  0  0  0  0  0  0  0  0  0  0
   -4.7053  -58.3162  -10.7231 N   0  0  0  0  0  0  0  0  0  0  0  0
   -4.0362  -58.9079   -9.7107 C   0  0  0  0  0  0  0  0  0  0  0  0
   -3.4269  -60.1445   -9.8093 C   0  0  0  0  0  0  0  0  0  0  0  0
   -3.4494  -60.8206  -11.0361 C   0  0  0  0  0  0  0  0  0  0  0  0
   -2.7607  -62.1576  -11.0802 C   0  0  0  0  0  0  0  0  0  0  0  0
   -2.0585  -62.4179  -10.1820 O   0  0  0  0  0  0  0  0  0  0  0  0
   -3.1307  -62.9839  -12.3376 N   0  0  0  0  0  0  0  0  0  0  0  0
   -2.6537  -64.2273  -12.7859 C   0  0  0  0  0  0  0  0  0  0  0  0
   -3.5150  -64.8555  -13.6912 C   0  0  0  0  0  0  0  0  0  0  0  0
   -3.2736  -66.1549  -14.1041 C   0  0  0  0  0  0  0  0  0  0  0  0
   -2.1562  -66.8347  -13.6292 C   0  0  0  0  0  0  0  0  0  0  0  0
   -1.9686  -68.4820  -14.1411 Cl  0  0  0  0  0  0  0  0  0  0  0  0
   -1.2201  -66.2265  -12.7863 C   0  0  0  0  0  0  0  0  0  0  0  0
   -0.1266  -66.9213  -12.3883 N   0  0  0  0  0  0  0  0  0  0  0  0
    0.8013  -66.3149  -11.6268 C   0  0  0  0  0  0  0  0  0  0  0  0
    0.7201  -64.9980  -11.2527 C   0  0  0  0  0  0  0  0  0  0  0  0
   -0.4013  -64.2822  -11.6542 C   0  0  0  0  0  0  0  0  0  0  0  0
   -1.4493  -64.8820  -12.3871 C   0  0  0  0  0  0  0  0  0  0  0  0
  1  2  1  0
  2  3  1  0
  3  4  2  0
  4  5  1  0
  5  6  2  0
  6  7  1  0
  7  8  2  0
  8  9  1  0
  9 10  2  0
  9 11  1  0
 11 12  1  0
 12 13  2  0
 13 14  1  0
 14 15  2  0
 15 16  1  0
 15 17  1  0
 17 18  2  0
 18 19  1  0
 19 20  2  0
 20 21  1  0
 21 22  2  0
  8  3  1  0
 22 12  1  0
 22 17  1  0
M  END
>  <smiles>  (55) 
COc1cnccc1C(=O)Nc1ccc(Cl)c2ncccc12

>  <inchikey>  (55) 
PKCFMXQDQRGZQE-UHFFFAOYSA-N

$$$$
RZCYRPLDFCEVMH-UHFFFAOYSA-N-P446140-P446140-541666
     RDKit          3D

 22 24  0  0  0  0  0  0  0  0999 V2000
   -2.5890  -62.6824   -9.9793 O   0  0  0  0  0  0  0  0  0  0  0  0
   -2.9105  -62.2163  -10.9998 C   0  0  0  0  0  0  0  0  0  0  0  0
   -2.8593  -62.8042  -12.4324 N   0  0  0  0  0  0  0  0  0  0  0  0
   -2.5019  -64.0811  -12.8780 C   0  0  0  0  0  0  0  0  0  0  0  0
   -3.2855  -64.5957  -13.9099 C   0  0  0  0  0  0  0  0  0  0  0  0
   -3.1247  -65.9155  -14.3041 C   0  0  0  0  0  0  0  0  0  0  0  0
   -2.1425  -66.7066  -13.7070 C   0  0  0  0  0  0  0  0  0  0  0  0
   -2.0395  -68.3600  -14.2234 Cl  0  0  0  0  0  0  0  0  0  0  0  0
   -1.2697  -66.2018  -12.7354 C   0  0  0  0  0  0  0  0  0  0  0  0
   -0.2850  -66.9824  -12.2267 N   0  0  0  0  0  0  0  0  0  0  0  0
    0.5629  -66.4669  -11.3165 C   0  0  0  0  0  0  0  0  0  0  0  0
    0.4981  -65.1683  -10.8742 C   0  0  0  0  0  0  0  0  0  0  0  0
   -0.5116  -64.3636  -11.3850 C   0  0  0  0  0  0  0  0  0  0  0  0
   -1.4522  -64.8601  -12.3140 C   0  0  0  0  0  0  0  0  0  0  0  0
   -3.4451  -60.8155  -10.9799 C   0  0  0  0  0  0  0  0  0  0  0  0
   -4.5612  -60.5218  -11.7772 C   0  0  0  0  0  0  0  0  0  0  0  0
   -5.1652  -59.2849  -11.6545 C   0  0  0  0  0  0  0  0  0  0  0  0
   -4.7355  -58.3358  -10.8012 N   0  0  0  0  0  0  0  0  0  0  0  0
   -3.6389  -58.6276  -10.0569 C   0  0  0  0  0  0  0  0  0  0  0  0
   -3.2241  -57.2924   -9.0453 Cl  0  0  0  0  0  0  0  0  0  0  0  0
   -2.9415  -59.8320  -10.1095 C   0  0  0  0  0  0  0  0  0  0  0  0
   -1.1387  -60.0602   -9.0184 I   0  0  0  0  0  0  0  0  0  0  0  0
  1  2  2  0
  2  3  1  0
  3  4  1  0
  4  5  2  0
  5  6  1  0
  6  7  2  0
  7  8  1  0
  7  9  1  0
  9 10  2  0
 10 11  1  0
 11 12  2  0
 12 13  1  0
 13 14  2  0
  2 15  1  0
 15 16  2  0
 16 17  1  0
 17 18  2  0
 18 19  1  0
 19 20  1  0
 19 21  2  0
 21 22  1  0
 14  4  1  0
 21 15  1  0
 14  9  1  0
M  END
>  <smiles>  (56) 
O=C(Nc1ccc(Cl)c2ncccc12)c1ccnc(Cl)c1I

>  <inchikey>  (56) 
RZCYRPLDFCEVMH-UHFFFAOYSA-N

$$$$
PQHKIMBVMZFHKQ-UHFFFAOYSA-N-P446140-P446140-541666
     RDKit          3D

 22 24  0  0  0  0  0  0  0  0999 V2000
   -4.7631  -61.1520  -13.0454 C   0  0  0  0  0  0  0  0  0  0  0  0
   -4.2442  -60.3721  -11.8831 C   0  0  0  0  0  0  0  0  0  0  0  0
   -4.7968  -59.0992  -11.6981 C   0  0  0  0  0  0  0  0  0  0  0  0
   -4.4805  -58.2563  -10.6937 N   0  0  0  0  0  0  0  0  0  0  0  0
   -3.5676  -58.7209   -9.8119 C   0  0  0  0  0  0  0  0  0  0  0  0
   -2.9738  -59.9855   -9.8544 C   0  0  0  0  0  0  0  0  0  0  0  0
   -1.9662  -60.2835   -8.9029 N   0  0  0  0  0  0  0  0  0  0  0  0
   -3.2735  -60.8168  -10.9597 C   0  0  0  0  0  0  0  0  0  0  0  0
   -2.6591  -62.2112  -10.9855 C   0  0  0  0  0  0  0  0  0  0  0  0
   -2.4404  -62.7025   -9.9466 O   0  0  0  0  0  0  0  0  0  0  0  0
   -2.5207  -62.7875  -12.4186 N   0  0  0  0  0  0  0  0  0  0  0  0
   -2.1876  -64.0733  -12.8512 C   0  0  0  0  0  0  0  0  0  0  0  0
   -2.9702  -64.5482  -13.9109 C   0  0  0  0  0  0  0  0  0  0  0  0
   -2.8927  -65.8802  -14.2885 C   0  0  0  0  0  0  0  0  0  0  0  0
   -1.9862  -66.7251  -13.6485 C   0  0  0  0  0  0  0  0  0  0  0  0
   -1.9729  -68.3869  -14.1475 Cl  0  0  0  0  0  0  0  0  0  0  0  0
   -1.1184  -66.2660  -12.6467 C   0  0  0  0  0  0  0  0  0  0  0  0
   -0.2029  -67.0970  -12.0938 N   0  0  0  0  0  0  0  0  0  0  0  0
    0.6342  -66.6229  -11.1509 C   0  0  0  0  0  0  0  0  0  0  0  0
    0.6237  -65.3208  -10.7109 C   0  0  0  0  0  0  0  0  0  0  0  0
   -0.3140  -64.4618  -11.2645 C   0  0  0  0  0  0  0  0  0  0  0  0
   -1.2295  -64.9124  -12.2369 C   0  0  0  0  0  0  0  0  0  0  0  0
  1  2  1  0
  2  3  2  0
  3  4  1  0
  4  5  2  0
  5  6  1  0
  6  7  1  0
  6  8  2  0
  8  9  1  0
  9 10  2  0
  9 11  1  0
 11 12  1  0
 12 13  2  0
 13 14  1  0
 14 15  2  0
 15 16  1  0
 15 17  1  0
 17 18  2  0
 18 19  1  0
 19 20  2  0
 20 21  1  0
 21 22  2  0
  8  2  1  0
 22 12  1  0
 22 17  1  0
M  END
>  <smiles>  (57) 
Cc1cncc(N)c1C(=O)Nc1ccc(Cl)c2ncccc12

>  <inchikey>  (57) 
PQHKIMBVMZFHKQ-UHFFFAOYSA-N

$$$$
RRXUTBQGHFYNDX-UHFFFAOYSA-N-P446140-P446140-541666
     RDKit          3D

 22 24  0  0  0  0  0  0  0  0999 V2000
   -2.1611  -59.7147   -7.6748 C   0  0  0  0  0  0  0  0  0  0  0  0
   -2.0802  -60.2379   -9.0314 N   0  0  0  0  0  0  0  0  0  0  0  0
   -3.1482  -59.9482   -9.9101 C   0  0  0  0  0  0  0  0  0  0  0  0
   -3.7744  -58.7000   -9.9159 C   0  0  0  0  0  0  0  0  0  0  0  0
   -4.7678  -58.3171  -10.7559 N   0  0  0  0  0  0  0  0  0  0  0  0
   -5.1443  -59.2203  -11.6845 C   0  0  0  0  0  0  0  0  0  0  0  0
   -4.5677  -60.4719  -11.8189 C   0  0  0  0  0  0  0  0  0  0  0  0
   -3.5458  -60.8442  -10.9338 C   0  0  0  0  0  0  0  0  0  0  0  0
   -2.9323  -62.2264  -10.9880 C   0  0  0  0  0  0  0  0  0  0  0  0
   -2.4911  -62.6438   -9.9875 O   0  0  0  0  0  0  0  0  0  0  0  0
   -2.9659  -62.8495  -12.4103 N   0  0  0  0  0  0  0  0  0  0  0  0
   -2.5619  -64.1129  -12.8594 C   0  0  0  0  0  0  0  0  0  0  0  0
   -3.3552  -64.6597  -13.8681 C   0  0  0  0  0  0  0  0  0  0  0  0
   -3.1612  -65.9736  -14.2650 C   0  0  0  0  0  0  0  0  0  0  0  0
   -2.1424  -66.7316  -13.6887 C   0  0  0  0  0  0  0  0  0  0  0  0
   -2.0064  -68.3842  -14.2001 Cl  0  0  0  0  0  0  0  0  0  0  0  0
   -1.2608  -66.1951  -12.7428 C   0  0  0  0  0  0  0  0  0  0  0  0
   -0.2436  -66.9467  -12.2545 N   0  0  0  0  0  0  0  0  0  0  0  0
    0.6187  -66.4003  -11.3769 C   0  0  0  0  0  0  0  0  0  0  0  0
    0.5392  -65.0967  -10.9528 C   0  0  0  0  0  0  0  0  0  0  0  0
   -0.5047  -64.3223  -11.4425 C   0  0  0  0  0  0  0  0  0  0  0  0
   -1.4676  -64.8539  -12.3282 C   0  0  0  0  0  0  0  0  0  0  0  0
  1  2  1  0
  2  3  1  0
  3  4  2  0
  4  5  1  0
  5  6  2  0
  6  7  1  0
  7  8  2  0
  8  9  1  0
  9 10  2  0
  9 11  1  0
 11 12  1  0
 12 13  2  0
 13 14  1  0
 14 15  2  0
 15 16  1  0
 15 17  1  0
 17 18  2  0
 18 19  1  0
 19 20  2  0
 20 21  1  0
 21 22  2  0
  8  3  1  0
 22 12  1  0
 22 17  1  0
M  END
>  <smiles>  (58) 
CNc1cnccc1C(=O)Nc1ccc(Cl)c2ncccc12

>  <inchikey>  (58) 
RRXUTBQGHFYNDX-UHFFFAOYSA-N

$$$$
QCSKVHXPAHOEBT-UHFFFAOYSA-N-P446140-P446140-541666
     RDKit          3D

 22 24  0  0  0  0  0  0  0  0999 V2000
   -2.3074  -63.3412  -10.0070 O   0  0  0  0  0  0  0  0  0  0  0  0
   -2.8492  -62.8940  -10.9395 C   0  0  0  0  0  0  0  0  0  0  0  0
   -3.0474  -63.4751  -12.3551 N   0  0  0  0  0  0  0  0  0  0  0  0
   -2.5581  -64.6428  -12.9285 C   0  0  0  0  0  0  0  0  0  0  0  0
   -3.3850  -65.2187  -13.8873 C   0  0  0  0  0  0  0  0  0  0  0  0
   -3.1237  -66.5120  -14.2985 C   0  0  0  0  0  0  0  0  0  0  0  0
   -2.0260  -67.2046  -13.7851 C   0  0  0  0  0  0  0  0  0  0  0  0
   -1.8357  -68.8485  -14.2945 Cl  0  0  0  0  0  0  0  0  0  0  0  0
   -1.1112  -66.6143  -12.9062 C   0  0  0  0  0  0  0  0  0  0  0  0
   -0.0217  -67.2966  -12.4748 N   0  0  0  0  0  0  0  0  0  0  0  0
    0.8669  -66.6849  -11.6678 C   0  0  0  0  0  0  0  0  0  0  0  0
    0.7501  -65.3768  -11.2699 C   0  0  0  0  0  0  0  0  0  0  0  0
   -0.3662  -64.6767  -11.7027 C   0  0  0  0  0  0  0  0  0  0  0  0
   -1.3647  -65.2886  -12.4963 C   0  0  0  0  0  0  0  0  0  0  0  0
   -3.4031  -61.5228  -10.7777 C   0  0  0  0  0  0  0  0  0  0  0  0
   -3.0738  -60.8565   -9.5931 C   0  0  0  0  0  0  0  0  0  0  0  0
   -3.5029  -59.5595   -9.3979 C   0  0  0  0  0  0  0  0  0  0  0  0
   -4.2633  -58.9183  -10.3459 N   0  0  0  0  0  0  0  0  0  0  0  0
   -4.6176  -57.7339  -10.1364 O   0  0  0  0  0  0  0  0  0  0  0  0
   -4.6164  -59.5728  -11.5017 C   0  0  0  0  0  0  0  0  0  0  0  0
   -4.1817  -60.8655  -11.7258 C   0  0  0  0  0  0  0  0  0  0  0  0
   -4.5253  -61.4567  -12.8768 F   0  0  0  0  0  0  0  0  0  0  0  0
  1  2  2  0
  2  3  1  0
  3  4  1  0
  4  5  2  0
  5  6  1  0
  6  7  2  0
  7  8  1  0
  7  9  1  0
  9 10  2  0
 10 11  1  0
 11 12  2  0
 12 13  1  0
 13 14  2  0
  2 15  1  0
 15 16  2  0
 16 17  1  0
 17 18  2  0
 18 19  1  0
 18 20  1  0
 20 21  2  0
 21 22  1  0
 14  4  1  0
 21 15  1  0
 14  9  1  0
M  CHG  2  18   1  19  -1
M  END
>  <smiles>  (59) 
O=C(Nc1ccc(Cl)c2ncccc12)c1cc[n+]([O-])cc1F

>  <inchikey>  (59) 
QCSKVHXPAHOEBT-UHFFFAOYSA-N

$$$$
KOLRUNJXVRCYKB-UHFFFAOYSA-N-P446140-P446140-541666
     RDKit          3D

 22 24  0  0  0  0  0  0  0  0999 V2000
   -3.0559  -57.2027   -7.9094 N   0  0  0  0  0  0  0  0  0  0  0  0
   -3.3762  -57.8946   -8.7864 C   0  0  0  0  0  0  0  0  0  0  0  0
   -3.7554  -58.7797   -9.8556 C   0  0  0  0  0  0  0  0  0  0  0  0
   -3.1428  -60.0105   -9.9950 C   0  0  0  0  0  0  0  0  0  0  0  0
   -3.5372  -60.8549  -11.0428 C   0  0  0  0  0  0  0  0  0  0  0  0
   -2.8537  -62.1940  -11.1102 C   0  0  0  0  0  0  0  0  0  0  0  0
   -2.2544  -62.5083  -10.1568 O   0  0  0  0  0  0  0  0  0  0  0  0
   -3.0280  -62.9166  -12.4708 N   0  0  0  0  0  0  0  0  0  0  0  0
   -2.5924  -64.1815  -12.8931 C   0  0  0  0  0  0  0  0  0  0  0  0
   -3.4159  -64.7805  -13.8484 C   0  0  0  0  0  0  0  0  0  0  0  0
   -3.2020  -66.0971  -14.2226 C   0  0  0  0  0  0  0  0  0  0  0  0
   -2.1431  -66.8142  -13.6702 C   0  0  0  0  0  0  0  0  0  0  0  0
   -1.9858  -68.4736  -14.1511 Cl  0  0  0  0  0  0  0  0  0  0  0  0
   -1.2389  -66.2321  -12.7755 C   0  0  0  0  0  0  0  0  0  0  0  0
   -0.1923  -66.9541  -12.3062 N   0  0  0  0  0  0  0  0  0  0  0  0
    0.7009  -66.3689  -11.4877 C   0  0  0  0  0  0  0  0  0  0  0  0
    0.6269  -65.0505  -11.1145 C   0  0  0  0  0  0  0  0  0  0  0  0
   -0.4471  -64.3063  -11.5871 C   0  0  0  0  0  0  0  0  0  0  0  0
   -1.4517  -64.8802  -12.3974 C   0  0  0  0  0  0  0  0  0  0  0  0
   -4.5474  -60.4259  -11.9034 C   0  0  0  0  0  0  0  0  0  0  0  0
   -5.1110  -59.1776  -11.6818 C   0  0  0  0  0  0  0  0  0  0  0  0
   -4.7346  -58.3391  -10.6851 N   0  0  0  0  0  0  0  0  0  0  0  0
  1  2  3  0
  2  3  1  0
  3  4  2  0
  4  5  1  0
  5  6  1  0
  6  7  2  0
  6  8  1  0
  8  9  1  0
  9 10  2  0
 10 11  1  0
 11 12  2  0
 12 13  1  0
 12 14  1  0
 14 15  2  0
 15 16  1  0
 16 17  2  0
 17 18  1  0
 18 19  2  0
  5 20  2  0
 20 21  1  0
 21 22  2  0
 22  3  1  0
 19  9  1  0
 19 14  1  0
M  END
>  <smiles>  (60) 
N#Cc1cc(C(=O)Nc2ccc(Cl)c3ncccc23)ccn1

>  <inchikey>  (60) 
KOLRUNJXVRCYKB-UHFFFAOYSA-N

$$$$
KGPFAAIGJFVIFJ-UHFFFAOYSA-N-P446140-P446140-541666
     RDKit          3D

 22 24  0  0  0  0  0  0  0  0999 V2000
   -2.2184  -62.5044  -10.1119 O   0  0  0  0  0  0  0  0  0  0  0  0
   -2.8269  -62.1840  -11.0567 C   0  0  0  0  0  0  0  0  0  0  0  0
   -3.0213  -62.9024  -12.4187 N   0  0  0  0  0  0  0  0  0  0  0  0
   -2.5971  -64.1692  -12.8500 C   0  0  0  0  0  0  0  0  0  0  0  0
   -3.4414  -64.7709  -13.7861 C   0  0  0  0  0  0  0  0  0  0  0  0
   -3.2270  -66.0829  -14.1757 C   0  0  0  0  0  0  0  0  0  0  0  0
   -2.1498  -66.7951  -13.6534 C   0  0  0  0  0  0  0  0  0  0  0  0
   -1.9920  -68.4508  -14.1479 Cl  0  0  0  0  0  0  0  0  0  0  0  0
   -1.2293  -66.2120  -12.7754 C   0  0  0  0  0  0  0  0  0  0  0  0
   -0.1697  -66.9311  -12.3310 N   0  0  0  0  0  0  0  0  0  0  0  0
    0.7357  -66.3452  -11.5263 C   0  0  0  0  0  0  0  0  0  0  0  0
    0.6622  -65.0293  -11.1440 C   0  0  0  0  0  0  0  0  0  0  0  0
   -0.4240  -64.2879  -11.5918 C   0  0  0  0  0  0  0  0  0  0  0  0
   -1.4405  -64.8628  -12.3860 C   0  0  0  0  0  0  0  0  0  0  0  0
   -3.5192  -60.8555  -10.9819 C   0  0  0  0  0  0  0  0  0  0  0  0
   -4.4644  -60.4202  -11.9065 C   0  0  0  0  0  0  0  0  0  0  0  0
   -4.8066  -61.1652  -12.9654 F   0  0  0  0  0  0  0  0  0  0  0  0
   -5.0784  -59.1870  -11.7327 C   0  0  0  0  0  0  0  0  0  0  0  0
   -4.7990  -58.3415  -10.7083 N   0  0  0  0  0  0  0  0  0  0  0  0
   -3.8692  -58.7761   -9.8255 C   0  0  0  0  0  0  0  0  0  0  0  0
   -3.2233  -59.9981   -9.9181 C   0  0  0  0  0  0  0  0  0  0  0  0
   -2.3134  -60.2938   -8.9800 F   0  0  0  0  0  0  0  0  0  0  0  0
  1  2  2  0
  2  3  1  0
  3  4  1  0
  4  5  2  0
  5  6  1  0
  6  7  2  0
  7  8  1  0
  7  9  1  0
  9 10  2  0
 10 11  1  0
 11 12  2  0
 12 13  1  0
 13 14  2  0
  2 15  1  0
 15 16  2  0
 16 17  1  0
 16 18  1  0
 18 19  2  0
 19 20  1  0
 20 21  2  0
 21 22  1  0
 14  4  1  0
 21 15  1  0
 14  9  1  0
M  END
>  <smiles>  (61) 
O=C(Nc1ccc(Cl)c2ncccc12)c1c(F)cncc1F

>  <inchikey>  (61) 
KGPFAAIGJFVIFJ-UHFFFAOYSA-N

$$$$
NWEBENRSJCXRSW-UHFFFAOYSA-N-P446140-P446140-541666
     RDKit          3D

 22 24  0  0  0  0  0  0  0  0999 V2000
   -1.9376  -62.3147  -10.3231 O   0  0  0  0  0  0  0  0  0  0  0  0
   -2.6240  -62.0496  -11.2315 C   0  0  0  0  0  0  0  0  0  0  0  0
   -2.9441  -62.8528  -12.5147 N   0  0  0  0  0  0  0  0  0  0  0  0
   -2.5719  -64.1543  -12.8941 C   0  0  0  0  0  0  0  0  0  0  0  0
   -3.4646  -64.7762  -13.7700 C   0  0  0  0  0  0  0  0  0  0  0  0
   -3.2823  -66.1021  -14.1286 C   0  0  0  0  0  0  0  0  0  0  0  0
   -2.1960  -66.8146  -13.6270 C   0  0  0  0  0  0  0  0  0  0  0  0
   -2.0691  -68.4818  -14.0908 Cl  0  0  0  0  0  0  0  0  0  0  0  0
   -1.2390  -66.2219  -12.7971 C   0  0  0  0  0  0  0  0  0  0  0  0
   -0.1830  -66.9510  -12.3596 N   0  0  0  0  0  0  0  0  0  0  0  0
    0.7670  -66.3581  -11.6147 C   0  0  0  0  0  0  0  0  0  0  0  0
    0.7449  -65.0248  -11.2941 C   0  0  0  0  0  0  0  0  0  0  0  0
   -0.3379  -64.2745  -11.7357 C   0  0  0  0  0  0  0  0  0  0  0  0
   -1.4071  -64.8543  -12.4541 C   0  0  0  0  0  0  0  0  0  0  0  0
   -3.3005  -60.7160  -11.1689 C   0  0  0  0  0  0  0  0  0  0  0  0
   -3.6228  -60.2871   -9.8744 C   0  0  0  0  0  0  0  0  0  0  0  0
   -4.0958  -59.0070   -9.6918 C   0  0  0  0  0  0  0  0  0  0  0  0
   -4.3162  -58.1401  -10.6965 N   0  0  0  0  0  0  0  0  0  0  0  0
   -3.9663  -58.5503  -11.9476 C   0  0  0  0  0  0  0  0  0  0  0  0
   -4.0328  -57.2238  -13.1385 S   0  0  0  0  0  0  0  0  0  0  0  0
   -3.4642  -59.8301  -12.2397 C   0  0  0  0  0  0  0  0  0  0  0  0
   -2.9231  -60.2215  -13.8376 Cl  0  0  0  0  0  0  0  0  0  0  0  0
  1  2  2  0
  2  3  1  0
  3  4  1  0
  4  5  2  0
  5  6  1  0
  6  7  2  0
  7  8  1  0
  7  9  1  0
  9 10  2  0
 10 11  1  0
 11 12  2  0
 12 13  1  0
 13 14  2  0
  2 15  1  0
 15 16  2  0
 16 17  1  0
 17 18  2  0
 18 19  1  0
 19 20  1  0
 19 21  2  0
 21 22  1  0
 14  4  1  0
 21 15  1  0
 14  9  1  0
M  END
>  <smiles>  (62) 
O=C(Nc1ccc(Cl)c2ncccc12)c1ccnc(S)c1Cl

>  <inchikey>  (62) 
NWEBENRSJCXRSW-UHFFFAOYSA-N

$$$$
YNCAVXKHMCCZDT-UHFFFAOYSA-N-P446140-P446140-541666
     RDKit          3D

 22 24  0  0  0  0  0  0  0  0999 V2000
   -2.2672  -62.6155  -10.0233 O   0  0  0  0  0  0  0  0  0  0  0  0
   -2.8044  -62.2242  -10.9850 C   0  0  0  0  0  0  0  0  0  0  0  0
   -2.9613  -62.8741  -12.3811 N   0  0  0  0  0  0  0  0  0  0  0  0
   -2.5834  -64.1436  -12.8428 C   0  0  0  0  0  0  0  0  0  0  0  0
   -3.4299  -64.7053  -13.7979 C   0  0  0  0  0  0  0  0  0  0  0  0
   -3.2400  -66.0167  -14.2050 C   0  0  0  0  0  0  0  0  0  0  0  0
   -2.1836  -66.7627  -13.6841 C   0  0  0  0  0  0  0  0  0  0  0  0
   -2.0544  -68.4138  -14.2018 Cl  0  0  0  0  0  0  0  0  0  0  0  0
   -1.2585  -66.2157  -12.7884 C   0  0  0  0  0  0  0  0  0  0  0  0
   -0.2158  -66.9617  -12.3466 N   0  0  0  0  0  0  0  0  0  0  0  0
    0.6934  -66.4059  -11.5246 C   0  0  0  0  0  0  0  0  0  0  0  0
    0.6395  -65.0961  -11.1184 C   0  0  0  0  0  0  0  0  0  0  0  0
   -0.4299  -64.3285  -11.5617 C   0  0  0  0  0  0  0  0  0  0  0  0
   -1.4475  -64.8713  -12.3776 C   0  0  0  0  0  0  0  0  0  0  0  0
   -3.3901  -60.8549  -10.8909 C   0  0  0  0  0  0  0  0  0  0  0  0
   -3.6447  -60.3603   -9.6066 C   0  0  0  0  0  0  0  0  0  0  0  0
   -4.0201  -59.0391   -9.4594 C   0  0  0  0  0  0  0  0  0  0  0  0
   -4.1745  -58.1861  -10.4877 N   0  0  0  0  0  0  0  0  0  0  0  0
   -3.8608  -58.6740  -11.7161 C   0  0  0  0  0  0  0  0  0  0  0  0
   -3.5474  -57.2152  -13.1678 I   0  0  0  0  0  0  0  0  0  0  0  0
   -3.5128  -59.9956  -11.9739 C   0  0  0  0  0  0  0  0  0  0  0  0
   -3.1881  -60.3956  -13.2124 F   0  0  0  0  0  0  0  0  0  0  0  0
  1  2  2  0
  2  3  1  0
  3  4  1  0
  4  5  2  0
  5  6  1  0
  6  7  2  0
  7  8  1  0
  7  9  1  0
  9 10  2  0
 10 11  1  0
 11 12  2  0
 12 13  1  0
 13 14  2  0
  2 15  1  0
 15 16  2  0
 16 17  1  0
 17 18  2  0
 18 19  1  0
 19 20  1  0
 19 21  2  0
 21 22  1  0
 14  4  1  0
 21 15  1  0
 14  9  1  0
M  END
>  <smiles>  (63) 
O=C(Nc1ccc(Cl)c2ncccc12)c1ccnc(I)c1F

>  <inchikey>  (63) 
YNCAVXKHMCCZDT-UHFFFAOYSA-N

$$$$
KXDYRLKTJSPDDX-UHFFFAOYSA-N-P446140-P446140-541666
     RDKit          3D

 22 24  0  0  0  0  0  0  0  0999 V2000
   -3.0801  -62.7273   -9.9655 O   0  0  0  0  0  0  0  0  0  0  0  0
   -3.3092  -62.2611  -11.0155 C   0  0  0  0  0  0  0  0  0  0  0  0
   -3.2210  -62.8859  -12.4354 N   0  0  0  0  0  0  0  0  0  0  0  0
   -2.7575  -64.1398  -12.8493 C   0  0  0  0  0  0  0  0  0  0  0  0
   -3.4704  -64.7246  -13.8932 C   0  0  0  0  0  0  0  0  0  0  0  0
   -3.1839  -66.0230  -14.2835 C   0  0  0  0  0  0  0  0  0  0  0  0
   -2.1455  -66.7228  -13.6713 C   0  0  0  0  0  0  0  0  0  0  0  0
   -1.9019  -68.3646  -14.1770 Cl  0  0  0  0  0  0  0  0  0  0  0  0
   -1.3338  -66.1388  -12.6919 C   0  0  0  0  0  0  0  0  0  0  0  0
   -0.2884  -66.8275  -12.1726 N   0  0  0  0  0  0  0  0  0  0  0  0
    0.5014  -66.2386  -11.2557 C   0  0  0  0  0  0  0  0  0  0  0  0
    0.3134  -64.9517  -10.8134 C   0  0  0  0  0  0  0  0  0  0  0  0
   -0.7626  -64.2407  -11.3311 C   0  0  0  0  0  0  0  0  0  0  0  0
   -1.6445  -64.8183  -12.2721 C   0  0  0  0  0  0  0  0  0  0  0  0
   -3.6598  -60.7799  -11.0733 C   0  0  0  0  0  0  0  0  0  0  0  0
   -4.3440  -60.2067  -12.0836 C   0  0  0  0  0  0  0  0  0  0  0  0
   -4.4270  -58.7231  -12.1704 C   0  0  0  0  0  0  0  0  0  0  0  0
   -4.8927  -58.1570  -13.1489 O   0  0  0  0  0  0  0  0  0  0  0  0
   -3.8932  -58.0116  -11.1290 N   0  0  0  0  0  0  0  0  0  0  0  0
   -3.3132  -58.5960  -10.0397 C   0  0  0  0  0  0  0  0  0  0  0  0
   -3.1983  -59.9256   -9.9661 C   0  0  0  0  0  0  0  0  0  0  0  0
   -2.6199  -60.4923   -8.8482 O   0  0  0  0  0  0  0  0  0  0  0  0
  1  2  2  0
  2  3  1  0
  3  4  1  0
  4  5  2  0
  5  6  1  0
  6  7  2  0
  7  8  1  0
  7  9  1  0
  9 10  2  0
 10 11  1  0
 11 12  2  0
 12 13  1  0
 13 14  2  0
  2 15  1  0
 15 16  2  0
 16 17  1  0
 17 18  2  0
 17 19  1  0
 19 20  1  0
 20 21  2  0
 21 22  1  0
 14  4  1  0
 21 15  1  0
 14  9  1  0
M  END
>  <smiles>  (64) 
O=C(Nc1ccc(Cl)c2ncccc12)c1cc(=O)[nH]cc1O

>  <inchikey>  (64) 
KXDYRLKTJSPDDX-UHFFFAOYSA-N

$$$$
BOHWXLRPSZWTJX-UHFFFAOYSA-N-P446140-P446140-541666
     RDKit          3D

 22 24  0  0  0  0  0  0  0  0999 V2000
   -2.7254  -62.7664   -9.9453 O   0  0  0  0  0  0  0  0  0  0  0  0
   -3.0167  -62.2854  -10.9693 C   0  0  0  0  0  0  0  0  0  0  0  0
   -2.9235  -62.8546  -12.4099 N   0  0  0  0  0  0  0  0  0  0  0  0
   -2.5539  -64.1255  -12.8620 C   0  0  0  0  0  0  0  0  0  0  0  0
   -3.3299  -64.6521  -13.8930 C   0  0  0  0  0  0  0  0  0  0  0  0
   -3.1387  -65.9651  -14.2946 C   0  0  0  0  0  0  0  0  0  0  0  0
   -2.1355  -66.7361  -13.7058 C   0  0  0  0  0  0  0  0  0  0  0  0
   -2.0000  -68.3848  -14.2298 Cl  0  0  0  0  0  0  0  0  0  0  0  0
   -1.2704  -66.2166  -12.7352 C   0  0  0  0  0  0  0  0  0  0  0  0
   -0.2650  -66.9758  -12.2340 N   0  0  0  0  0  0  0  0  0  0  0  0
    0.5703  -66.4449  -11.3207 C   0  0  0  0  0  0  0  0  0  0  0  0
    0.4716  -65.1522  -10.8666 C   0  0  0  0  0  0  0  0  0  0  0  0
   -0.5590  -64.3695  -11.3697 C   0  0  0  0  0  0  0  0  0  0  0  0
   -1.4844  -64.8825  -12.3051 C   0  0  0  0  0  0  0  0  0  0  0  0
   -3.5409  -60.8761  -10.9434 C   0  0  0  0  0  0  0  0  0  0  0  0
   -4.5202  -60.4403  -11.8379 C   0  0  0  0  0  0  0  0  0  0  0  0
   -5.0018  -59.1514  -11.6997 C   0  0  0  0  0  0  0  0  0  0  0  0
   -5.8979  -58.7073  -12.5860 F   0  0  0  0  0  0  0  0  0  0  0  0
   -4.6163  -58.2815  -10.7383 N   0  0  0  0  0  0  0  0  0  0  0  0
   -3.6634  -58.7222   -9.8921 C   0  0  0  0  0  0  0  0  0  0  0  0
   -3.0939  -59.9853   -9.9570 C   0  0  0  0  0  0  0  0  0  0  0  0
   -2.0792  -60.3111   -9.1050 O   0  0  0  0  0  0  0  0  0  0  0  0
  1  2  2  0
  2  3  1  0
  3  4  1  0
  4  5  2  0
  5  6  1  0
  6  7  2  0
  7  8  1  0
  7  9  1  0
  9 10  2  0
 10 11  1  0
 11 12  2  0
 12 13  1  0
 13 14  2  0
  2 15  1  0
 15 16  2  0
 16 17  1  0
 17 18  1  0
 17 19  2  0
 19 20  1  0
 20 21  2  0
 21 22  1  0
 14  4  1  0
 21 15  1  0
 14  9  1  0
M  END
>  <smiles>  (65) 
O=C(Nc1ccc(Cl)c2ncccc12)c1cc(F)ncc1O

>  <inchikey>  (65) 
BOHWXLRPSZWTJX-UHFFFAOYSA-N

$$$$
OJFDNWOEFHRCRZ-UHFFFAOYSA-N-P446140-P446140-541666
     RDKit          3D

 22 24  0  0  0  0  0  0  0  0999 V2000
   -1.9270  -60.0676   -9.1445 N   0  0  0  0  0  0  0  0  0  0  0  0
   -3.0926  -59.8981   -9.9217 C   0  0  0  0  0  0  0  0  0  0  0  0
   -3.7879  -58.6871   -9.8580 C   0  0  0  0  0  0  0  0  0  0  0  0
   -4.8592  -58.3568  -10.6184 N   0  0  0  0  0  0  0  0  0  0  0  0
   -5.2034  -59.2774  -11.5297 C   0  0  0  0  0  0  0  0  0  0  0  0
   -6.3050  -58.9987  -12.2668 O   0  0  0  0  0  0  0  0  0  0  0  0
   -4.5612  -60.4792  -11.7498 C   0  0  0  0  0  0  0  0  0  0  0  0
   -3.4760  -60.8042  -10.9359 C   0  0  0  0  0  0  0  0  0  0  0  0
   -2.7973  -62.1519  -11.0180 C   0  0  0  0  0  0  0  0  0  0  0  0
   -2.2926  -62.5382  -10.0343 O   0  0  0  0  0  0  0  0  0  0  0  0
   -2.9118  -62.8159  -12.4193 N   0  0  0  0  0  0  0  0  0  0  0  0
   -2.5246  -64.0911  -12.8575 C   0  0  0  0  0  0  0  0  0  0  0  0
   -3.3609  -64.6575  -13.8222 C   0  0  0  0  0  0  0  0  0  0  0  0
   -3.1825  -65.9763  -14.2101 C   0  0  0  0  0  0  0  0  0  0  0  0
   -2.1433  -66.7262  -13.6618 C   0  0  0  0  0  0  0  0  0  0  0  0
   -2.0239  -68.3847  -14.1590 Cl  0  0  0  0  0  0  0  0  0  0  0  0
   -1.2287  -66.1776  -12.7546 C   0  0  0  0  0  0  0  0  0  0  0  0
   -0.2012  -66.9277  -12.2864 N   0  0  0  0  0  0  0  0  0  0  0  0
    0.6942  -66.3723  -11.4490 C   0  0  0  0  0  0  0  0  0  0  0  0
    0.6406  -65.0595  -11.0504 C   0  0  0  0  0  0  0  0  0  0  0  0
   -0.4126  -64.2858  -11.5208 C   0  0  0  0  0  0  0  0  0  0  0  0
   -1.4121  -64.8268  -12.3584 C   0  0  0  0  0  0  0  0  0  0  0  0
  1  2  1  0
  2  3  2  0
  3  4  1  0
  4  5  2  0
  5  6  1  0
  5  7  1  0
  7  8  2  0
  8  9  1  0
  9 10  2  0
  9 11  1  0
 11 12  1  0
 12 13  2  0
 13 14  1  0
 14 15  2  0
 15 16  1  0
 15 17  1  0
 17 18  2  0
 18 19  1  0
 19 20  2  0
 20 21  1  0
 21 22  2  0
  8  2  1  0
 22 12  1  0
 22 17  1  0
M  END
>  <smiles>  (66) 
Nc1cnc(O)cc1C(=O)Nc1ccc(Cl)c2ncccc12

>  <inchikey>  (66) 
OJFDNWOEFHRCRZ-UHFFFAOYSA-N

$$$$
KNLRPMGHUXZZKR-UHFFFAOYSA-N-P446140-P446140-541666
     RDKit          3D

 22 24  0  0  0  0  0  0  0  0999 V2000
   -5.7273  -58.5392  -12.8232 N   0  0  0  0  0  0  0  0  0  0  0  0
   -4.9502  -59.0967  -11.8196 C   0  0  0  0  0  0  0  0  0  0  0  0
   -4.2736  -60.2892  -12.0562 C   0  0  0  0  0  0  0  0  0  0  0  0
   -3.4800  -60.8384  -11.0451 C   0  0  0  0  0  0  0  0  0  0  0  0
   -2.7232  -62.1373  -11.1752 C   0  0  0  0  0  0  0  0  0  0  0  0
   -1.9757  -62.3667  -10.3028 O   0  0  0  0  0  0  0  0  0  0  0  0
   -3.0496  -62.9473  -12.4604 N   0  0  0  0  0  0  0  0  0  0  0  0
   -2.6070  -64.2149  -12.8781 C   0  0  0  0  0  0  0  0  0  0  0  0
   -3.4856  -64.8611  -13.7527 C   0  0  0  0  0  0  0  0  0  0  0  0
   -3.2640  -66.1780  -14.1200 C   0  0  0  0  0  0  0  0  0  0  0  0
   -2.1543  -66.8584  -13.6269 C   0  0  0  0  0  0  0  0  0  0  0  0
   -1.9889  -68.5224  -14.0888 Cl  0  0  0  0  0  0  0  0  0  0  0  0
   -1.2075  -66.2372  -12.8059 C   0  0  0  0  0  0  0  0  0  0  0  0
   -0.1269  -66.9345  -12.3785 N   0  0  0  0  0  0  0  0  0  0  0  0
    0.8119  -66.3139  -11.6419 C   0  0  0  0  0  0  0  0  0  0  0  0
    0.7545  -64.9812  -11.3222 C   0  0  0  0  0  0  0  0  0  0  0  0
   -0.3541  -64.2630  -11.7533 C   0  0  0  0  0  0  0  0  0  0  0  0
   -1.4131  -64.8753  -12.4589 C   0  0  0  0  0  0  0  0  0  0  0  0
   -3.3589  -60.1127   -9.8504 C   0  0  0  0  0  0  0  0  0  0  0  0
   -2.6058  -60.5030   -8.7763 O   0  0  0  0  0  0  0  0  0  0  0  0
   -4.0287  -58.9098   -9.7280 C   0  0  0  0  0  0  0  0  0  0  0  0
   -4.8291  -58.3876  -10.6832 N   0  0  0  0  0  0  0  0  0  0  0  0
  1  2  1  0
  2  3  2  0
  3  4  1  0
  4  5  1  0
  5  6  2  0
  5  7  1  0
  7  8  1  0
  8  9  2  0
  9 10  1  0
 10 11  2  0
 11 12  1  0
 11 13  1  0
 13 14  2  0
 14 15  1  0
 15 16  2  0
 16 17  1  0
 17 18  2  0
  4 19  2  0
 19 20  1  0
 19 21  1  0
 21 22  2  0
 22  2  1  0
 18  8  1  0
 18 13  1  0
M  END
>  <smiles>  (67) 
Nc1cc(C(=O)Nc2ccc(Cl)c3ncccc23)c(O)cn1

>  <inchikey>  (67) 
KNLRPMGHUXZZKR-UHFFFAOYSA-N

$$$$
ZILUFIILJKREFE-UHFFFAOYSA-N-P446140-P446140-541666
     RDKit          3D

 22 24  0  0  0  0  0  0  0  0999 V2000
   -1.9141  -62.3793  -10.2905 O   0  0  0  0  0  0  0  0  0  0  0  0
   -2.6428  -62.1593  -11.1778 C   0  0  0  0  0  0  0  0  0  0  0  0
   -2.9689  -62.9959  -12.4399 N   0  0  0  0  0  0  0  0  0  0  0  0
   -2.5502  -64.2827  -12.8147 C   0  0  0  0  0  0  0  0  0  0  0  0
   -3.4333  -64.9177  -13.6967 C   0  0  0  0  0  0  0  0  0  0  0  0
   -3.2248  -66.2336  -14.0724 C   0  0  0  0  0  0  0  0  0  0  0  0
   -2.1215  -66.9242  -13.5799 C   0  0  0  0  0  0  0  0  0  0  0  0
   -1.9645  -68.5843  -14.0579 Cl  0  0  0  0  0  0  0  0  0  0  0  0
   -1.1733  -66.3163  -12.7487 C   0  0  0  0  0  0  0  0  0  0  0  0
   -0.0995  -67.0250  -12.3241 N   0  0  0  0  0  0  0  0  0  0  0  0
    0.8419  -66.4175  -11.5797 C   0  0  0  0  0  0  0  0  0  0  0  0
    0.7935  -65.0877  -11.2473 C   0  0  0  0  0  0  0  0  0  0  0  0
   -0.3079  -64.3572  -11.6747 C   0  0  0  0  0  0  0  0  0  0  0  0
   -1.3677  -64.9554  -12.3906 C   0  0  0  0  0  0  0  0  0  0  0  0
   -3.3944  -60.8523  -11.1107 C   0  0  0  0  0  0  0  0  0  0  0  0
   -3.3961  -60.2218   -9.8562 C   0  0  0  0  0  0  0  0  0  0  0  0
   -4.0236  -59.0023   -9.7131 C   0  0  0  0  0  0  0  0  0  0  0  0
   -3.9644  -58.3883   -8.5247 F   0  0  0  0  0  0  0  0  0  0  0  0
   -4.7011  -58.3790  -10.6981 N   0  0  0  0  0  0  0  0  0  0  0  0
   -4.6902  -59.0006  -11.9029 C   0  0  0  0  0  0  0  0  0  0  0  0
   -4.0284  -60.1978  -12.1699 C   0  0  0  0  0  0  0  0  0  0  0  0
   -3.9504  -60.7030  -13.8094 Cl  0  0  0  0  0  0  0  0  0  0  0  0
  1  2  2  0
  2  3  1  0
  3  4  1  0
  4  5  2  0
  5  6  1  0
  6  7  2  0
  7  8  1  0
  7  9  1  0
  9 10  2  0
 10 11  1  0
 11 12  2  0
 12 13  1  0
 13 14  2  0
  2 15  1  0
 15 16  2  0
 16 17  1  0
 17 18  1  0
 17 19  2  0
 19 20  1  0
 20 21  2  0
 21 22  1  0
 14  4  1  0
 21 15  1  0
 14  9  1  0
M  END
>  <smiles>  (68) 
O=C(Nc1ccc(Cl)c2ncccc12)c1cc(F)ncc1Cl

>  <inchikey>  (68) 
ZILUFIILJKREFE-UHFFFAOYSA-N

$$$$
HLQBGTAEOOMKPR-UHFFFAOYSA-N-P446140-P446140-541666
     RDKit          3D

 22 24  0  0  0  0  0  0  0  0999 V2000
   -3.8888  -56.7744  -12.3665 N   0  0  0  0  0  0  0  0  0  0  0  0
   -3.9961  -58.0466  -11.7550 N   0  0  0  0  0  0  0  0  0  0  0  0
   -4.7280  -58.9896  -12.4307 C   0  0  0  0  0  0  0  0  0  0  0  0
   -4.5537  -60.2948  -12.1890 C   0  0  0  0  0  0  0  0  0  0  0  0
   -3.5535  -60.7206  -11.2331 C   0  0  0  0  0  0  0  0  0  0  0  0
   -3.0744  -62.1408  -11.0641 C   0  0  0  0  0  0  0  0  0  0  0  0
   -2.7541  -62.5440  -10.0140 O   0  0  0  0  0  0  0  0  0  0  0  0
   -3.0094  -62.8144  -12.4654 N   0  0  0  0  0  0  0  0  0  0  0  0
   -2.6376  -64.1136  -12.8333 C   0  0  0  0  0  0  0  0  0  0  0  0
   -3.4046  -64.6890  -13.8466 C   0  0  0  0  0  0  0  0  0  0  0  0
   -3.1797  -66.0027  -14.2264 C   0  0  0  0  0  0  0  0  0  0  0  0
   -2.1520  -66.7323  -13.6308 C   0  0  0  0  0  0  0  0  0  0  0  0
   -1.9696  -68.3831  -14.1339 Cl  0  0  0  0  0  0  0  0  0  0  0  0
   -1.2998  -66.1700  -12.6722 C   0  0  0  0  0  0  0  0  0  0  0  0
   -0.2746  -66.8955  -12.1628 N   0  0  0  0  0  0  0  0  0  0  0  0
    0.5563  -66.3275  -11.2689 C   0  0  0  0  0  0  0  0  0  0  0  0
    0.4324  -65.0276  -10.8433 C   0  0  0  0  0  0  0  0  0  0  0  0
   -0.6206  -64.2784  -11.3531 C   0  0  0  0  0  0  0  0  0  0  0  0
   -1.5453  -64.8313  -12.2663 C   0  0  0  0  0  0  0  0  0  0  0  0
   -2.9301  -59.8181  -10.4556 C   0  0  0  0  0  0  0  0  0  0  0  0
   -3.1193  -58.3683  -10.7105 C   0  0  0  0  0  0  0  0  0  0  0  0
   -2.4831  -57.5317  -10.0738 O   0  0  0  0  0  0  0  0  0  0  0  0
  1  2  1  0
  2  3  1  0
  3  4  2  0
  4  5  1  0
  5  6  1  0
  6  7  2  0
  6  8  1  0
  8  9  1  0
  9 10  2  0
 10 11  1  0
 11 12  2  0
 12 13  1  0
 12 14  1  0
 14 15  2  0
 15 16  1  0
 16 17  2  0
 17 18  1  0
 18 19  2  0
  5 20  2  0
 20 21  1  0
 21 22  2  0
 21  2  1  0
 19  9  1  0
 19 14  1  0
M  END
>  <smiles>  (69) 
Nn1ccc(C(=O)Nc2ccc(Cl)c3ncccc23)cc1=O

>  <inchikey>  (69) 
HLQBGTAEOOMKPR-UHFFFAOYSA-N

$$$$
WFTSNMOMCAYDKM-UHFFFAOYSA-N-P446140-P446140-541666
     RDKit          3D

 22 24  0  0  0  0  0  0  0  0999 V2000
   -2.6897  -60.5037   -8.6215 N   0  0  0  0  0  0  0  0  0  0  0  0
   -3.3262  -60.0514   -9.7938 C   0  0  0  0  0  0  0  0  0  0  0  0
   -3.9796  -58.8168   -9.7572 C   0  0  0  0  0  0  0  0  0  0  0  0
   -4.7693  -58.3193  -10.7367 N   0  0  0  0  0  0  0  0  0  0  0  0
   -4.9414  -59.1202  -11.8134 C   0  0  0  0  0  0  0  0  0  0  0  0
   -4.3429  -60.3620  -11.9574 C   0  0  0  0  0  0  0  0  0  0  0  0
   -4.5716  -61.0479  -13.0852 F   0  0  0  0  0  0  0  0  0  0  0  0
   -3.5297  -60.8625  -10.9380 C   0  0  0  0  0  0  0  0  0  0  0  0
   -2.8171  -62.1988  -11.0421 C   0  0  0  0  0  0  0  0  0  0  0  0
   -2.1078  -62.4721  -10.1515 O   0  0  0  0  0  0  0  0  0  0  0  0
   -3.1727  -62.9965  -12.3265 N   0  0  0  0  0  0  0  0  0  0  0  0
   -2.6711  -64.2169  -12.8118 C   0  0  0  0  0  0  0  0  0  0  0  0
   -3.5216  -64.8457  -13.7253 C   0  0  0  0  0  0  0  0  0  0  0  0
   -3.2691  -66.1432  -14.1384 C   0  0  0  0  0  0  0  0  0  0  0  0
   -2.1527  -66.8195  -13.6556 C   0  0  0  0  0  0  0  0  0  0  0  0
   -1.9591  -68.4685  -14.1595 Cl  0  0  0  0  0  0  0  0  0  0  0  0
   -1.2233  -66.2067  -12.8092 C   0  0  0  0  0  0  0  0  0  0  0  0
   -0.1284  -66.8950  -12.4035 N   0  0  0  0  0  0  0  0  0  0  0  0
    0.7929  -66.2818  -11.6395 C   0  0  0  0  0  0  0  0  0  0  0  0
    0.7026  -64.9645  -11.2682 C   0  0  0  0  0  0  0  0  0  0  0  0
   -0.4217  -64.2562  -11.6751 C   0  0  0  0  0  0  0  0  0  0  0  0
   -1.4626  -64.8639  -12.4116 C   0  0  0  0  0  0  0  0  0  0  0  0
  1  2  1  0
  2  3  2  0
  3  4  1  0
  4  5  2  0
  5  6  1  0
  6  7  1  0
  6  8  2  0
  8  9  1  0
  9 10  2  0
  9 11  1  0
 11 12  1  0
 12 13  2  0
 13 14  1  0
 14 15  2  0
 15 16  1  0
 15 17  1  0
 17 18  2  0
 18 19  1  0
 19 20  2  0
 20 21  1  0
 21 22  2  0
  8  2  1  0
 22 12  1  0
 22 17  1  0
M  END
>  <smiles>  (70) 
Nc1cncc(F)c1C(=O)Nc1ccc(Cl)c2ncccc12

>  <inchikey>  (70) 
WFTSNMOMCAYDKM-UHFFFAOYSA-N

$$$$
LFOFXODKJREZPY-UHFFFAOYSA-N-P446140-P446140-541666
     RDKit          3D

 22 24  0  0  0  0  0  0  0  0999 V2000
   -2.0389  -62.5077  -10.0854 O   0  0  0  0  0  0  0  0  0  0  0  0
   -2.7443  -62.2032  -10.9673 C   0  0  0  0  0  0  0  0  0  0  0  0
   -3.0493  -62.9257  -12.3059 N   0  0  0  0  0  0  0  0  0  0  0  0
   -2.6344  -64.1823  -12.7805 C   0  0  0  0  0  0  0  0  0  0  0  0
   -3.5130  -64.7792  -13.6868 C   0  0  0  0  0  0  0  0  0  0  0  0
   -3.2991  -66.0813  -14.1107 C   0  0  0  0  0  0  0  0  0  0  0  0
   -2.1948  -66.7918  -13.6458 C   0  0  0  0  0  0  0  0  0  0  0  0
   -2.0418  -68.4382  -14.1712 Cl  0  0  0  0  0  0  0  0  0  0  0  0
   -1.2430  -66.2132  -12.8001 C   0  0  0  0  0  0  0  0  0  0  0  0
   -0.1627  -66.9321  -12.4080 N   0  0  0  0  0  0  0  0  0  0  0  0
    0.7786  -66.3483  -11.6446 C   0  0  0  0  0  0  0  0  0  0  0  0
    0.7234  -65.0327  -11.2604 C   0  0  0  0  0  0  0  0  0  0  0  0
   -0.3849  -64.2933  -11.6543 C   0  0  0  0  0  0  0  0  0  0  0  0
   -1.4443  -64.8689  -12.3902 C   0  0  0  0  0  0  0  0  0  0  0  0
   -3.3907  -60.8484  -10.8416 C   0  0  0  0  0  0  0  0  0  0  0  0
   -3.9468  -60.1302  -11.8973 C   0  0  0  0  0  0  0  0  0  0  0  0
   -4.3594  -58.8285  -11.6468 C   0  0  0  0  0  0  0  0  0  0  0  0
   -4.8683  -57.7763  -12.9660 S   0  0  0  0  0  0  0  0  0  0  0  0
   -4.2853  -58.2188  -10.4430 N   0  0  0  0  0  0  0  0  0  0  0  0
   -3.6999  -58.9123   -9.4504 C   0  0  0  0  0  0  0  0  0  0  0  0
   -3.3787  -58.0285   -7.9448 S   0  0  0  0  0  0  0  0  0  0  0  0
   -3.2727  -60.2182   -9.5944 C   0  0  0  0  0  0  0  0  0  0  0  0
  1  2  2  0
  2  3  1  0
  3  4  1  0
  4  5  2  0
  5  6  1  0
  6  7  2  0
  7  8  1  0
  7  9  1  0
  9 10  2  0
 10 11  1  0
 11 12  2  0
 12 13  1  0
 13 14  2  0
  2 15  1  0
 15 16  2  0
 16 17  1  0
 17 18  1  0
 17 19  2  0
 19 20  1  0
 20 21  1  0
 20 22  2  0
 14  4  1  0
 22 15  1  0
 14  9  1  0
M  END
>  <smiles>  (71) 
O=C(Nc1ccc(Cl)c2ncccc12)c1cc(S)nc(S)c1

>  <inchikey>  (71) 
LFOFXODKJREZPY-UHFFFAOYSA-N

$$$$
HJQSZQCXVGWBTD-UHFFFAOYSA-N-P446140-P446140-541666
     RDKit          3D

 22 24  0  0  0  0  0  0  0  0999 V2000
   -3.7279  -58.2136   -8.4520 N   0  0  0  0  0  0  0  0  0  0  0  0
   -3.8807  -58.9233   -9.6378 C   0  0  0  0  0  0  0  0  0  0  0  0
   -3.2934  -60.1716   -9.7793 C   0  0  0  0  0  0  0  0  0  0  0  0
   -3.2907  -60.8156  -11.0275 C   0  0  0  0  0  0  0  0  0  0  0  0
   -2.5642  -62.1404  -11.0806 C   0  0  0  0  0  0  0  0  0  0  0  0
   -1.7975  -62.3544  -10.2242 O   0  0  0  0  0  0  0  0  0  0  0  0
   -2.9450  -62.9864  -12.3222 N   0  0  0  0  0  0  0  0  0  0  0  0
   -2.5425  -64.2771  -12.7061 C   0  0  0  0  0  0  0  0  0  0  0  0
   -3.4450  -64.8958  -13.5826 C   0  0  0  0  0  0  0  0  0  0  0  0
   -3.2444  -66.2015  -13.9979 C   0  0  0  0  0  0  0  0  0  0  0  0
   -2.1309  -66.9020  -13.5452 C   0  0  0  0  0  0  0  0  0  0  0  0
   -1.9819  -68.5503  -14.0658 Cl  0  0  0  0  0  0  0  0  0  0  0  0
   -1.1663  -66.3126  -12.7191 C   0  0  0  0  0  0  0  0  0  0  0  0
   -0.0849  -67.0321  -12.3337 N   0  0  0  0  0  0  0  0  0  0  0  0
    0.8753  -66.4416  -11.6001 C   0  0  0  0  0  0  0  0  0  0  0  0
    0.8394  -65.1182  -11.2427 C   0  0  0  0  0  0  0  0  0  0  0  0
   -0.2699  -64.3772  -11.6292 C   0  0  0  0  0  0  0  0  0  0  0  0
   -1.3503  -64.9587  -12.3272 C   0  0  0  0  0  0  0  0  0  0  0  0
   -3.8698  -60.1402  -12.1019 C   0  0  0  0  0  0  0  0  0  0  0  0
   -3.6664  -60.6364  -13.9152 Br  0  0  0  0  0  0  0  0  0  0  0  0
   -4.5145  -58.9333  -11.8448 C   0  0  0  0  0  0  0  0  0  0  0  0
   -4.5329  -58.3100  -10.6380 N   0  0  0  0  0  0  0  0  0  0  0  0
  1  2  1  0
  2  3  2  0
  3  4  1  0
  4  5  1  0
  5  6  2  0
  5  7  1  0
  7  8  1  0
  8  9  2  0
  9 10  1  0
 10 11  2  0
 11 12  1  0
 11 13  1  0
 13 14  2  0
 14 15  1  0
 15 16  2  0
 16 17  1  0
 17 18  2  0
  4 19  2  0
 19 20  1  0
 19 21  1  0
 21 22  2  0
 22  2  1  0
 18  8  1  0
 18 13  1  0
M  END
>  <smiles>  (72) 
Nc1cc(C(=O)Nc2ccc(Cl)c3ncccc23)c(Br)cn1

>  <inchikey>  (72) 
HJQSZQCXVGWBTD-UHFFFAOYSA-N

$$$$
NZLSHPHYPIMMAK-UHFFFAOYSA-N-P446140-P446140-541666
     RDKit          3D

 22 24  0  0  0  0  0  0  0  0999 V2000
   -5.7160  -58.5309  -12.8233 N   0  0  0  0  0  0  0  0  0  0  0  0
   -4.9134  -59.0739  -11.8320 C   0  0  0  0  0  0  0  0  0  0  0  0
   -4.1525  -60.2027  -12.0988 C   0  0  0  0  0  0  0  0  0  0  0  0
   -3.3570  -60.7433  -11.0821 C   0  0  0  0  0  0  0  0  0  0  0  0
   -2.4991  -61.9646  -11.2984 C   0  0  0  0  0  0  0  0  0  0  0  0
   -1.5387  -62.0452  -10.6329 O   0  0  0  0  0  0  0  0  0  0  0  0
   -3.0421  -62.9152  -12.4039 N   0  0  0  0  0  0  0  0  0  0  0  0
   -2.5773  -64.1753  -12.8394 C   0  0  0  0  0  0  0  0  0  0  0  0
   -3.5038  -64.8275  -13.6646 C   0  0  0  0  0  0  0  0  0  0  0  0
   -3.3115  -66.1436  -14.0510 C   0  0  0  0  0  0  0  0  0  0  0  0
   -2.1888  -66.8333  -13.6094 C   0  0  0  0  0  0  0  0  0  0  0  0
   -2.0572  -68.4980  -14.0814 Cl  0  0  0  0  0  0  0  0  0  0  0  0
   -1.2033  -66.2211  -12.8303 C   0  0  0  0  0  0  0  0  0  0  0  0
   -0.1260  -66.9456  -12.4414 N   0  0  0  0  0  0  0  0  0  0  0  0
    0.8609  -66.3483  -11.7530 C   0  0  0  0  0  0  0  0  0  0  0  0
    0.8590  -65.0107  -11.4587 C   0  0  0  0  0  0  0  0  0  0  0  0
   -0.2464  -64.2663  -11.8545 C   0  0  0  0  0  0  0  0  0  0  0  0
   -1.3653  -64.8496  -12.4877 C   0  0  0  0  0  0  0  0  0  0  0  0
   -3.2760  -60.0713   -9.8459 C   0  0  0  0  0  0  0  0  0  0  0  0
   -2.6297  -60.6072   -8.7143 N   0  0  0  0  0  0  0  0  0  0  0  0
   -4.0625  -58.9337   -9.7066 C   0  0  0  0  0  0  0  0  0  0  0  0
   -4.8635  -58.4119  -10.6644 N   0  0  0  0  0  0  0  0  0  0  0  0
  1  2  1  0
  2  3  2  0
  3  4  1  0
  4  5  1  0
  5  6  2  0
  5  7  1  0
  7  8  1  0
  8  9  2  0
  9 10  1  0
 10 11  2  0
 11 12  1  0
 11 13  1  0
 13 14  2  0
 14 15  1  0
 15 16  2  0
 16 17  1  0
 17 18  2  0
  4 19  2  0
 19 20  1  0
 19 21  1  0
 21 22  2  0
 22  2  1  0
 18  8  1  0
 18 13  1  0
M  END
>  <smiles>  (73) 
Nc1cc(C(=O)Nc2ccc(Cl)c3ncccc23)c(N)cn1

>  <inchikey>  (73) 
NZLSHPHYPIMMAK-UHFFFAOYSA-N

$$$$
GKAKHVRQLIFQNL-UHFFFAOYSA-N-P446140-P446140-541666
     RDKit          3D

 22 24  0  0  0  0  0  0  0  0999 V2000
   -6.4398  -59.0832  -12.1960 N   0  0  0  0  0  0  0  0  0  0  0  0
   -5.2101  -59.2776  -11.5924 C   0  0  0  0  0  0  0  0  0  0  0  0
   -4.8911  -58.4338  -10.5904 N   0  0  0  0  0  0  0  0  0  0  0  0
   -3.7970  -58.7447   -9.8616 C   0  0  0  0  0  0  0  0  0  0  0  0
   -3.0156  -59.8627  -10.0830 C   0  0  0  0  0  0  0  0  0  0  0  0
   -3.3370  -60.7218  -11.1410 C   0  0  0  0  0  0  0  0  0  0  0  0
   -2.5261  -61.9887  -11.2544 C   0  0  0  0  0  0  0  0  0  0  0  0
   -1.7702  -62.2068  -10.3887 O   0  0  0  0  0  0  0  0  0  0  0  0
   -2.8914  -62.8288  -12.5039 N   0  0  0  0  0  0  0  0  0  0  0  0
   -2.4844  -64.1197  -12.8885 C   0  0  0  0  0  0  0  0  0  0  0  0
   -3.3912  -64.7487  -13.7515 C   0  0  0  0  0  0  0  0  0  0  0  0
   -3.2255  -66.0773  -14.1064 C   0  0  0  0  0  0  0  0  0  0  0  0
   -2.1412  -66.7920  -13.6072 C   0  0  0  0  0  0  0  0  0  0  0  0
   -2.0328  -68.4648  -14.0570 Cl  0  0  0  0  0  0  0  0  0  0  0  0
   -1.1737  -66.1984  -12.7884 C   0  0  0  0  0  0  0  0  0  0  0  0
   -0.1240  -66.9351  -12.3496 N   0  0  0  0  0  0  0  0  0  0  0  0
    0.8337  -66.3468  -11.6111 C   0  0  0  0  0  0  0  0  0  0  0  0
    0.8277  -65.0108  -11.3011 C   0  0  0  0  0  0  0  0  0  0  0  0
   -0.2469  -64.2511  -11.7462 C   0  0  0  0  0  0  0  0  0  0  0  0
   -1.3240  -64.8245  -12.4551 C   0  0  0  0  0  0  0  0  0  0  0  0
   -4.4379  -60.3955  -11.9308 C   0  0  0  0  0  0  0  0  0  0  0  0
   -4.8147  -61.1789  -12.9912 O   0  0  0  0  0  0  0  0  0  0  0  0
  1  2  1  0
  2  3  2  0
  3  4  1  0
  4  5  2  0
  5  6  1  0
  6  7  1  0
  7  8  2  0
  7  9  1  0
  9 10  1  0
 10 11  2  0
 11 12  1  0
 12 13  2  0
 13 14  1  0
 13 15  1  0
 15 16  2  0
 16 17  1  0
 17 18  2  0
 18 19  1  0
 19 20  2  0
  6 21  2  0
 21 22  1  0
 21  2  1  0
 20 10  1  0
 20 15  1  0
M  END
>  <smiles>  (74) 
Nc1nccc(C(=O)Nc2ccc(Cl)c3ncccc23)c1O

>  <inchikey>  (74) 
GKAKHVRQLIFQNL-UHFFFAOYSA-N

$$$$
XFKYKFOJPTVYNH-UHFFFAOYSA-N-P446140-P446140-541666
     RDKit          3D

 22 24  0  0  0  0  0  0  0  0999 V2000
   -2.6389  -62.6718  -10.0177 O   0  0  0  0  0  0  0  0  0  0  0  0
   -2.9904  -62.2383  -11.0433 C   0  0  0  0  0  0  0  0  0  0  0  0
   -3.0358  -62.8930  -12.4476 N   0  0  0  0  0  0  0  0  0  0  0  0
   -2.5832  -64.1451  -12.8826 C   0  0  0  0  0  0  0  0  0  0  0  0
   -3.3464  -64.7077  -13.9065 C   0  0  0  0  0  0  0  0  0  0  0  0
   -3.1262  -66.0199  -14.2925 C   0  0  0  0  0  0  0  0  0  0  0  0
   -2.1081  -66.7594  -13.6929 C   0  0  0  0  0  0  0  0  0  0  0  0
   -1.9430  -68.4131  -14.1916 Cl  0  0  0  0  0  0  0  0  0  0  0  0
   -1.2530  -66.2054  -12.7328 C   0  0  0  0  0  0  0  0  0  0  0  0
   -0.2335  -66.9399  -12.2246 N   0  0  0  0  0  0  0  0  0  0  0  0
    0.5995  -66.3816  -11.3267 C   0  0  0  0  0  0  0  0  0  0  0  0
    0.4861  -65.0816  -10.8992 C   0  0  0  0  0  0  0  0  0  0  0  0
   -0.5597  -64.3233  -11.4099 C   0  0  0  0  0  0  0  0  0  0  0  0
   -1.4904  -64.8671  -12.3230 C   0  0  0  0  0  0  0  0  0  0  0  0
   -3.5425  -60.8433  -11.0431 C   0  0  0  0  0  0  0  0  0  0  0  0
   -4.6103  -60.5095  -11.8887 C   0  0  0  0  0  0  0  0  0  0  0  0
   -5.1980  -59.2617  -11.7648 C   0  0  0  0  0  0  0  0  0  0  0  0
   -4.7949  -58.3362  -10.8725 N   0  0  0  0  0  0  0  0  0  0  0  0
   -3.7546  -58.6685  -10.0853 C   0  0  0  0  0  0  0  0  0  0  0  0
   -3.4015  -57.6729   -9.2201 O   0  0  0  0  0  0  0  0  0  0  0  0
   -3.0860  -59.8877  -10.1256 C   0  0  0  0  0  0  0  0  0  0  0  0
   -1.7124  -60.0923   -9.0931 Cl  0  0  0  0  0  0  0  0  0  0  0  0
  1  2  2  0
  2  3  1  0
  3  4  1  0
  4  5  2  0
  5  6  1  0
  6  7  2  0
  7  8  1  0
  7  9  1  0
  9 10  2  0
 10 11  1  0
 11 12  2  0
 12 13  1  0
 13 14  2  0
  2 15  1  0
 15 16  2  0
 16 17  1  0
 17 18  2  0
 18 19  1  0
 19 20  1  0
 19 21  2  0
 21 22  1  0
 14  4  1  0
 21 15  1  0
 14  9  1  0
M  END
>  <smiles>  (75) 
O=C(Nc1ccc(Cl)c2ncccc12)c1ccnc(O)c1Cl

>  <inchikey>  (75) 
XFKYKFOJPTVYNH-UHFFFAOYSA-N

$$$$
IGNZZQMQVNOQJW-UHFFFAOYSA-N-P446140-P446140-541666
     RDKit          3D

 22 24  0  0  0  0  0  0  0  0999 V2000
   -5.7727  -58.5650  -12.8031 N   0  0  0  0  0  0  0  0  0  0  0  0
   -4.9683  -59.1150  -11.8191 C   0  0  0  0  0  0  0  0  0  0  0  0
   -4.4130  -60.3717  -12.0166 C   0  0  0  0  0  0  0  0  0  0  0  0
   -3.5268  -60.8704  -11.0665 C   0  0  0  0  0  0  0  0  0  0  0  0
   -2.8557  -62.2194  -11.1207 C   0  0  0  0  0  0  0  0  0  0  0  0
   -2.2881  -62.5427  -10.1503 O   0  0  0  0  0  0  0  0  0  0  0  0
   -3.0075  -62.9430  -12.4850 N   0  0  0  0  0  0  0  0  0  0  0  0
   -2.5854  -64.2166  -12.8923 C   0  0  0  0  0  0  0  0  0  0  0  0
   -3.4169  -64.8279  -13.8331 C   0  0  0  0  0  0  0  0  0  0  0  0
   -3.1973  -66.1450  -14.2007 C   0  0  0  0  0  0  0  0  0  0  0  0
   -2.1270  -66.8501  -13.6545 C   0  0  0  0  0  0  0  0  0  0  0  0
   -1.9613  -68.5104  -14.1292 Cl  0  0  0  0  0  0  0  0  0  0  0  0
   -1.2191  -66.2565  -12.7704 C   0  0  0  0  0  0  0  0  0  0  0  0
   -0.1643  -66.9678  -12.3026 N   0  0  0  0  0  0  0  0  0  0  0  0
    0.7281  -66.3701  -11.4917 C   0  0  0  0  0  0  0  0  0  0  0  0
    0.6453  -65.0505  -11.1237 C   0  0  0  0  0  0  0  0  0  0  0  0
   -0.4363  -64.3171  -11.5949 C   0  0  0  0  0  0  0  0  0  0  0  0
   -1.4376  -64.9040  -12.3997 C   0  0  0  0  0  0  0  0  0  0  0  0
   -3.2163  -60.0630   -9.9651 C   0  0  0  0  0  0  0  0  0  0  0  0
   -3.7953  -58.8129   -9.8610 C   0  0  0  0  0  0  0  0  0  0  0  0
   -3.3475  -57.7165   -8.5357 S   0  0  0  0  0  0  0  0  0  0  0  0
   -4.6752  -58.3327  -10.7647 N   0  0  0  0  0  0  0  0  0  0  0  0
  1  2  1  0
  2  3  2  0
  3  4  1  0
  4  5  1  0
  5  6  2  0
  5  7  1  0
  7  8  1  0
  8  9  2  0
  9 10  1  0
 10 11  2  0
 11 12  1  0
 11 13  1  0
 13 14  2  0
 14 15  1  0
 15 16  2  0
 16 17  1  0
 17 18  2  0
  4 19  2  0
 19 20  1  0
 20 21  1  0
 20 22  2  0
 22  2  1  0
 18  8  1  0
 18 13  1  0
M  END
>  <smiles>  (76) 
Nc1cc(C(=O)Nc2ccc(Cl)c3ncccc23)cc(S)n1

>  <inchikey>  (76) 
IGNZZQMQVNOQJW-UHFFFAOYSA-N

$$$$
JVNYZISUFTUEOU-UHFFFAOYSA-N-P446140-P446140-541666
     RDKit          3D

 22 24  0  0  0  0  0  0  0  0999 V2000
   -5.7554  -58.5432  -12.8240 N   0  0  0  0  0  0  0  0  0  0  0  0
   -4.9684  -59.1111  -11.8340 C   0  0  0  0  0  0  0  0  0  0  0  0
   -4.2991  -60.3023  -12.0902 C   0  0  0  0  0  0  0  0  0  0  0  0
   -3.4961  -60.8511  -11.0917 C   0  0  0  0  0  0  0  0  0  0  0  0
   -2.7280  -62.1418  -11.1999 C   0  0  0  0  0  0  0  0  0  0  0  0
   -1.9828  -62.3629  -10.3259 O   0  0  0  0  0  0  0  0  0  0  0  0
   -3.0493  -62.9604  -12.4791 N   0  0  0  0  0  0  0  0  0  0  0  0
   -2.6027  -64.2295  -12.8873 C   0  0  0  0  0  0  0  0  0  0  0  0
   -3.4777  -64.8794  -13.7631 C   0  0  0  0  0  0  0  0  0  0  0  0
   -3.2538  -66.1971  -14.1258 C   0  0  0  0  0  0  0  0  0  0  0  0
   -2.1446  -66.8744  -13.6275 C   0  0  0  0  0  0  0  0  0  0  0  0
   -1.9762  -68.5392  -14.0856 Cl  0  0  0  0  0  0  0  0  0  0  0  0
   -1.2014  -66.2501  -12.8049 C   0  0  0  0  0  0  0  0  0  0  0  0
   -0.1214  -66.9458  -12.3733 N   0  0  0  0  0  0  0  0  0  0  0  0
    0.8130  -66.3235  -11.6324 C   0  0  0  0  0  0  0  0  0  0  0  0
    0.7517  -64.9912  -11.3128 C   0  0  0  0  0  0  0  0  0  0  0  0
   -0.3556  -64.2745  -11.7494 C   0  0  0  0  0  0  0  0  0  0  0  0
   -1.4101  -64.8878  -12.4608 C   0  0  0  0  0  0  0  0  0  0  0  0
   -3.3549  -60.1414   -9.8967 C   0  0  0  0  0  0  0  0  0  0  0  0
   -4.0146  -58.9428   -9.7619 C   0  0  0  0  0  0  0  0  0  0  0  0
   -3.8547  -58.2484   -8.6270 F   0  0  0  0  0  0  0  0  0  0  0  0
   -4.8285  -58.4125  -10.6957 N   0  0  0  0  0  0  0  0  0  0  0  0
  1  2  1  0
  2  3  2  0
  3  4  1  0
  4  5  1  0
  5  6  2  0
  5  7  1  0
  7  8  1  0
  8  9  2  0
  9 10  1  0
 10 11  2  0
 11 12  1  0
 11 13  1  0
 13 14  2  0
 14 15  1  0
 15 16  2  0
 16 17  1  0
 17 18  2  0
  4 19  2  0
 19 20  1  0
 20 21  1  0
 20 22  2  0
 22  2  1  0
 18  8  1  0
 18 13  1  0
M  END
>  <smiles>  (77) 
Nc1cc(C(=O)Nc2ccc(Cl)c3ncccc23)cc(F)n1

>  <inchikey>  (77) 
JVNYZISUFTUEOU-UHFFFAOYSA-N

$$$$
GVZALRPEDLHCSI-UHFFFAOYSA-N-P446140-P446140-541666
     RDKit          3D

 22 24  0  0  0  0  0  0  0  0999 V2000
   -3.0466  -62.9788   -9.9912 O   0  0  0  0  0  0  0  0  0  0  0  0
   -3.2894  -62.4939  -11.0270 C   0  0  0  0  0  0  0  0  0  0  0  0
   -3.2058  -63.0858  -12.4576 N   0  0  0  0  0  0  0  0  0  0  0  0
   -2.7327  -64.3212  -12.9008 C   0  0  0  0  0  0  0  0  0  0  0  0
   -3.4553  -64.9030  -13.9375 C   0  0  0  0  0  0  0  0  0  0  0  0
   -3.1606  -66.1986  -14.3262 C   0  0  0  0  0  0  0  0  0  0  0  0
   -2.1113  -66.8921  -13.7235 C   0  0  0  0  0  0  0  0  0  0  0  0
   -1.8647  -68.5319  -14.2303 Cl  0  0  0  0  0  0  0  0  0  0  0  0
   -1.2910  -66.3048  -12.7545 C   0  0  0  0  0  0  0  0  0  0  0  0
   -0.2352  -66.9854  -12.2444 N   0  0  0  0  0  0  0  0  0  0  0  0
    0.5581  -66.3892  -11.3346 C   0  0  0  0  0  0  0  0  0  0  0  0
    0.3656  -65.1032  -10.8925 C   0  0  0  0  0  0  0  0  0  0  0  0
   -0.7193  -64.4016  -11.4032 C   0  0  0  0  0  0  0  0  0  0  0  0
   -1.6054  -64.9879  -12.3358 C   0  0  0  0  0  0  0  0  0  0  0  0
   -3.6593  -61.0153  -11.0635 C   0  0  0  0  0  0  0  0  0  0  0  0
   -3.2621  -60.2536   -9.8751 C   0  0  0  0  0  0  0  0  0  0  0  0
   -3.3790  -58.9247   -9.8389 C   0  0  0  0  0  0  0  0  0  0  0  0
   -3.9014  -58.2802  -10.9144 N   0  0  0  0  0  0  0  0  0  0  0  0
   -3.6802  -56.8941  -10.9203 O   0  0  0  0  0  0  0  0  0  0  0  0
   -4.3235  -58.8823  -12.0749 C   0  0  0  0  0  0  0  0  0  0  0  0
   -4.6473  -58.2440  -13.0718 O   0  0  0  0  0  0  0  0  0  0  0  0
   -4.2642  -60.3730  -12.0834 C   0  0  0  0  0  0  0  0  0  0  0  0
  1  2  2  0
  2  3  1  0
  3  4  1  0
  4  5  2  0
  5  6  1  0
  6  7  2  0
  7  8  1  0
  7  9  1  0
  9 10  2  0
 10 11  1  0
 11 12  2  0
 12 13  1  0
 13 14  2  0
  2 15  1  0
 15 16  1  0
 16 17  2  0
 17 18  1  0
 18 19  1  0
 18 20  1  0
 20 21  2  0
 20 22  1  0
 14  4  1  0
 22 15  2  0
 14  9  1  0
M  END
>  <smiles>  (78) 
O=C(Nc1ccc(Cl)c2ncccc12)c1ccn(O)c(=O)c1

>  <inchikey>  (78) 
GVZALRPEDLHCSI-UHFFFAOYSA-N

$$$$
RQUDDCYHJJWKDP-UHFFFAOYSA-N-P446140-P446140-541666
     RDKit          3D

 22 24  0  0  0  0  0  0  0  0999 V2000
   -5.6744  -58.4940  -12.7979 N   0  0  0  0  0  0  0  0  0  0  0  0
   -4.8613  -59.0967  -11.8399 C   0  0  0  0  0  0  0  0  0  0  0  0
   -4.8432  -58.4843  -10.6349 N   0  0  0  0  0  0  0  0  0  0  0  0
   -4.0676  -59.0413   -9.6825 C   0  0  0  0  0  0  0  0  0  0  0  0
   -3.3495  -60.2071   -9.8592 C   0  0  0  0  0  0  0  0  0  0  0  0
   -3.3502  -60.8304  -11.1150 C   0  0  0  0  0  0  0  0  0  0  0  0
   -2.5498  -62.1085  -11.2079 C   0  0  0  0  0  0  0  0  0  0  0  0
   -1.7773  -62.3014  -10.3511 O   0  0  0  0  0  0  0  0  0  0  0  0
   -2.9254  -62.9769  -12.4362 N   0  0  0  0  0  0  0  0  0  0  0  0
   -2.5095  -64.2679  -12.8029 C   0  0  0  0  0  0  0  0  0  0  0  0
   -3.4103  -64.9048  -13.6682 C   0  0  0  0  0  0  0  0  0  0  0  0
   -3.2171  -66.2233  -14.0430 C   0  0  0  0  0  0  0  0  0  0  0  0
   -2.1129  -66.9186  -13.5611 C   0  0  0  0  0  0  0  0  0  0  0  0
   -1.9720  -68.5816  -14.0349 Cl  0  0  0  0  0  0  0  0  0  0  0  0
   -1.1511  -66.3134  -12.7432 C   0  0  0  0  0  0  0  0  0  0  0  0
   -0.0806  -67.0308  -12.3246 N   0  0  0  0  0  0  0  0  0  0  0  0
    0.8757  -66.4277  -11.5960 C   0  0  0  0  0  0  0  0  0  0  0  0
    0.8468  -65.0945  -11.2760 C   0  0  0  0  0  0  0  0  0  0  0  0
   -0.2509  -64.3553  -11.6976 C   0  0  0  0  0  0  0  0  0  0  0  0
   -1.3272  -64.9474  -12.3925 C   0  0  0  0  0  0  0  0  0  0  0  0
   -4.0686  -60.2179  -12.1458 C   0  0  0  0  0  0  0  0  0  0  0  0
   -3.9662  -60.7322  -13.7935 Cl  0  0  0  0  0  0  0  0  0  0  0  0
  1  2  1  0
  2  3  2  0
  3  4  1  0
  4  5  2  0
  5  6  1  0
  6  7  1  0
  7  8  2  0
  7  9  1  0
  9 10  1  0
 10 11  2  0
 11 12  1  0
 12 13  2  0
 13 14  1  0
 13 15  1  0
 15 16  2  0
 16 17  1  0
 17 18  2  0
 18 19  1  0
 19 20  2  0
  6 21  2  0
 21 22  1  0
 21  2  1  0
 20 10  1  0
 20 15  1  0
M  END
>  <smiles>  (79) 
Nc1nccc(C(=O)Nc2ccc(Cl)c3ncccc23)c1Cl

>  <inchikey>  (79) 
RQUDDCYHJJWKDP-UHFFFAOYSA-N

$$$$
PGTTYWWYDAXFTR-UHFFFAOYSA-N-P446140-P446140-541666
     RDKit          3D

 22 24  0  0  0  0  0  0  0  0999 V2000
   -2.2284  -62.4936  -10.0950 O   0  0  0  0  0  0  0  0  0  0  0  0
   -2.8627  -62.1847  -11.0279 C   0  0  0  0  0  0  0  0  0  0  0  0
   -3.1541  -62.9522  -12.3437 N   0  0  0  0  0  0  0  0  0  0  0  0
   -2.6625  -64.1829  -12.8106 C   0  0  0  0  0  0  0  0  0  0  0  0
   -3.4958  -64.7993  -13.7480 C   0  0  0  0  0  0  0  0  0  0  0  0
   -3.2471  -66.0985  -14.1588 C   0  0  0  0  0  0  0  0  0  0  0  0
   -2.1471  -66.7861  -13.6540 C   0  0  0  0  0  0  0  0  0  0  0  0
   -1.9559  -68.4349  -14.1606 Cl  0  0  0  0  0  0  0  0  0  0  0  0
   -1.2324  -66.1851  -12.7827 C   0  0  0  0  0  0  0  0  0  0  0  0
   -0.1493  -66.8816  -12.3598 N   0  0  0  0  0  0  0  0  0  0  0  0
    0.7549  -66.2801  -11.5661 C   0  0  0  0  0  0  0  0  0  0  0  0
    0.6567  -64.9685  -11.1759 C   0  0  0  0  0  0  0  0  0  0  0  0
   -0.4554  -64.2511  -11.5999 C   0  0  0  0  0  0  0  0  0  0  0  0
   -1.4744  -64.8447  -12.3774 C   0  0  0  0  0  0  0  0  0  0  0  0
   -3.5329  -60.8441  -10.9503 C   0  0  0  0  0  0  0  0  0  0  0  0
   -3.2310  -60.0380   -9.8449 C   0  0  0  0  0  0  0  0  0  0  0  0
   -3.8410  -58.8079   -9.7424 C   0  0  0  0  0  0  0  0  0  0  0  0
   -3.5581  -58.0063   -8.6830 O   0  0  0  0  0  0  0  0  0  0  0  0
   -4.7295  -58.3079  -10.6169 N   0  0  0  0  0  0  0  0  0  0  0  0
   -5.0127  -59.1115  -11.6784 C   0  0  0  0  0  0  0  0  0  0  0  0
   -4.4371  -60.3567  -11.8866 C   0  0  0  0  0  0  0  0  0  0  0  0
   -4.7714  -61.0571  -12.9773 F   0  0  0  0  0  0  0  0  0  0  0  0
  1  2  2  0
  2  3  1  0
  3  4  1  0
  4  5  2  0
  5  6  1  0
  6  7  2  0
  7  8  1  0
  7  9  1  0
  9 10  2  0
 10 11  1  0
 11 12  2  0
 12 13  1  0
 13 14  2  0
  2 15  1  0
 15 16  2  0
 16 17  1  0
 17 18  1  0
 17 19  2  0
 19 20  1  0
 20 21  2  0
 21 22  1  0
 14  4  1  0
 21 15  1  0
 14  9  1  0
M  END
>  <smiles>  (80) 
O=C(Nc1ccc(Cl)c2ncccc12)c1cc(O)ncc1F

>  <inchikey>  (80) 
PGTTYWWYDAXFTR-UHFFFAOYSA-N

$$$$
DYUUCWYGEHXYDQ-UHFFFAOYSA-N-P446140-P446140-541666
     RDKit          3D

 22 24  0  0  0  0  0  0  0  0999 V2000
   -2.4501  -62.6115  -10.0322 O   0  0  0  0  0  0  0  0  0  0  0  0
   -2.9285  -62.2216  -11.0270 C   0  0  0  0  0  0  0  0  0  0  0  0
   -2.9908  -62.8716  -12.4356 N   0  0  0  0  0  0  0  0  0  0  0  0
   -2.5748  -64.1355  -12.8736 C   0  0  0  0  0  0  0  0  0  0  0  0
   -3.3724  -64.7000  -13.8693 C   0  0  0  0  0  0  0  0  0  0  0  0
   -3.1691  -66.0151  -14.2564 C   0  0  0  0  0  0  0  0  0  0  0  0
   -2.1394  -66.7587  -13.6817 C   0  0  0  0  0  0  0  0  0  0  0  0
   -1.9930  -68.4139  -14.1809 Cl  0  0  0  0  0  0  0  0  0  0  0  0
   -1.2551  -66.2057  -12.7482 C   0  0  0  0  0  0  0  0  0  0  0  0
   -0.2294  -66.9454  -12.2601 N   0  0  0  0  0  0  0  0  0  0  0  0
    0.6390  -66.3840  -11.3984 C   0  0  0  0  0  0  0  0  0  0  0  0
    0.5572  -65.0752  -10.9915 C   0  0  0  0  0  0  0  0  0  0  0  0
   -0.4961  -64.3129  -11.4804 C   0  0  0  0  0  0  0  0  0  0  0  0
   -1.4674  -64.8611  -12.3469 C   0  0  0  0  0  0  0  0  0  0  0  0
   -3.5606  -60.8509  -10.9724 C   0  0  0  0  0  0  0  0  0  0  0  0
   -4.5692  -60.4600  -11.8632 C   0  0  0  0  0  0  0  0  0  0  0  0
   -5.1449  -59.2080  -11.7108 C   0  0  0  0  0  0  0  0  0  0  0  0
   -4.7814  -58.3229  -10.7580 N   0  0  0  0  0  0  0  0  0  0  0  0
   -3.8054  -58.7246   -9.9081 C   0  0  0  0  0  0  0  0  0  0  0  0
   -3.1830  -59.9707   -9.9339 C   0  0  0  0  0  0  0  0  0  0  0  0
   -2.1437  -60.2642   -9.0179 N   0  0  0  0  0  0  0  0  0  0  0  0
   -2.1330  -59.6335   -7.7713 O   0  0  0  0  0  0  0  0  0  0  0  0
  1  2  2  0
  2  3  1  0
  3  4  1  0
  4  5  2  0
  5  6  1  0
  6  7  2  0
  7  8  1  0
  7  9  1  0
  9 10  2  0
 10 11  1  0
 11 12  2  0
 12 13  1  0
 13 14  2  0
  2 15  1  0
 15 16  2  0
 16 17  1  0
 17 18  2  0
 18 19  1  0
 19 20  2  0
 20 21  1  0
 21 22  1  0
 14  4  1  0
 20 15  1  0
 14  9  1  0
M  END
>  <smiles>  (81) 
O=C(Nc1ccc(Cl)c2ncccc12)c1ccncc1NO

>  <inchikey>  (81) 
DYUUCWYGEHXYDQ-UHFFFAOYSA-N

$$$$
QTJOFTCXQRALNH-UHFFFAOYSA-N-P446140-P446140-541666
     RDKit          3D

 22 24  0  0  0  0  0  0  0  0999 V2000
   -2.0076  -60.2221   -9.1909 N   0  0  0  0  0  0  0  0  0  0  0  0
   -3.1423  -59.9773  -10.0023 C   0  0  0  0  0  0  0  0  0  0  0  0
   -3.5659  -60.8718  -11.0065 C   0  0  0  0  0  0  0  0  0  0  0  0
   -2.9867  -62.2644  -11.0328 C   0  0  0  0  0  0  0  0  0  0  0  0
   -2.5658  -62.6755  -10.0213 O   0  0  0  0  0  0  0  0  0  0  0  0
   -3.0842  -62.9361  -12.4283 N   0  0  0  0  0  0  0  0  0  0  0  0
   -2.6127  -64.1773  -12.8758 C   0  0  0  0  0  0  0  0  0  0  0  0
   -3.3874  -64.7547  -13.8826 C   0  0  0  0  0  0  0  0  0  0  0  0
   -3.1523  -66.0631  -14.2718 C   0  0  0  0  0  0  0  0  0  0  0  0
   -2.1129  -66.7860  -13.6893 C   0  0  0  0  0  0  0  0  0  0  0  0
   -1.9341  -68.4386  -14.1865 Cl  0  0  0  0  0  0  0  0  0  0  0  0
   -1.2472  -66.2164  -12.7484 C   0  0  0  0  0  0  0  0  0  0  0  0
   -0.2092  -66.9357  -12.2561 N   0  0  0  0  0  0  0  0  0  0  0  0
    0.6391  -66.3599  -11.3840 C   0  0  0  0  0  0  0  0  0  0  0  0
    0.5239  -65.0559  -10.9698 C   0  0  0  0  0  0  0  0  0  0  0  0
   -0.5424  -64.3144  -11.4629 C   0  0  0  0  0  0  0  0  0  0  0  0
   -1.4928  -64.8785  -12.3427 C   0  0  0  0  0  0  0  0  0  0  0  0
   -4.5940  -60.4879  -11.8780 C   0  0  0  0  0  0  0  0  0  0  0  0
   -5.1551  -59.2287  -11.7367 C   0  0  0  0  0  0  0  0  0  0  0  0
   -4.7596  -58.3303  -10.8133 N   0  0  0  0  0  0  0  0  0  0  0  0
   -3.7540  -58.7201   -9.9967 C   0  0  0  0  0  0  0  0  0  0  0  0
   -3.3450  -57.8152   -9.0920 F   0  0  0  0  0  0  0  0  0  0  0  0
  1  2  1  0
  2  3  2  0
  3  4  1  0
  4  5  2  0
  4  6  1  0
  6  7  1  0
  7  8  2  0
  8  9  1  0
  9 10  2  0
 10 11  1  0
 10 12  1  0
 12 13  2  0
 13 14  1  0
 14 15  2  0
 15 16  1  0
 16 17  2  0
  3 18  1  0
 18 19  2  0
 19 20  1  0
 20 21  2  0
 21 22  1  0
 21  2  1  0
 17  7  1  0
 17 12  1  0
M  END
>  <smiles>  (82) 
Nc1c(C(=O)Nc2ccc(Cl)c3ncccc23)ccnc1F

>  <inchikey>  (82) 
QTJOFTCXQRALNH-UHFFFAOYSA-N

$$$$
JVTYFGDWFOLSLQ-UHFFFAOYSA-N-P446140-P446140-541666
     RDKit          3D

 22 24  0  0  0  0  0  0  0  0999 V2000
   -1.6571  -62.2555  -10.4233 O   0  0  0  0  0  0  0  0  0  0  0  0
   -2.4672  -62.0483  -11.2397 C   0  0  0  0  0  0  0  0  0  0  0  0
   -2.9150  -62.9047  -12.4493 N   0  0  0  0  0  0  0  0  0  0  0  0
   -2.5362  -64.2016  -12.8411 C   0  0  0  0  0  0  0  0  0  0  0  0
   -3.4553  -64.8143  -13.6992 C   0  0  0  0  0  0  0  0  0  0  0  0
   -3.2900  -66.1368  -14.0772 C   0  0  0  0  0  0  0  0  0  0  0  0
   -2.1985  -66.8602  -13.6054 C   0  0  0  0  0  0  0  0  0  0  0  0
   -2.0915  -68.5235  -14.0866 Cl  0  0  0  0  0  0  0  0  0  0  0  0
   -1.2190  -66.2804  -12.7932 C   0  0  0  0  0  0  0  0  0  0  0  0
   -0.1638  -67.0254  -12.3821 N   0  0  0  0  0  0  0  0  0  0  0  0
    0.8162  -66.4475  -11.6659 C   0  0  0  0  0  0  0  0  0  0  0  0
    0.8283  -65.1123  -11.3573 C   0  0  0  0  0  0  0  0  0  0  0  0
   -0.2542  -64.3470  -11.7728 C   0  0  0  0  0  0  0  0  0  0  0  0
   -1.3613  -64.9110  -12.4443 C   0  0  0  0  0  0  0  0  0  0  0  0
   -3.1678  -60.7382  -11.1645 C   0  0  0  0  0  0  0  0  0  0  0  0
   -3.5904  -60.3888   -9.8785 C   0  0  0  0  0  0  0  0  0  0  0  0
   -4.1092  -59.1315   -9.6740 C   0  0  0  0  0  0  0  0  0  0  0  0
   -4.3052  -58.2344  -10.6544 N   0  0  0  0  0  0  0  0  0  0  0  0
   -3.8502  -58.5715  -11.8925 C   0  0  0  0  0  0  0  0  0  0  0  0
   -3.9178  -57.1084  -13.1120 Br  0  0  0  0  0  0  0  0  0  0  0  0
   -3.2563  -59.8018  -12.2036 C   0  0  0  0  0  0  0  0  0  0  0  0
   -2.2888  -60.1282  -14.0600 I   0  0  0  0  0  0  0  0  0  0  0  0
  1  2  2  0
  2  3  1  0
  3  4  1  0
  4  5  2  0
  5  6  1  0
  6  7  2  0
  7  8  1  0
  7  9  1  0
  9 10  2  0
 10 11  1  0
 11 12  2  0
 12 13  1  0
 13 14  2  0
  2 15  1  0
 15 16  2  0
 16 17  1  0
 17 18  2  0
 18 19  1  0
 19 20  1  0
 19 21  2  0
 21 22  1  0
 14  4  1  0
 21 15  1  0
 14  9  1  0
M  END
>  <smiles>  (83) 
O=C(Nc1ccc(Cl)c2ncccc12)c1ccnc(Br)c1I

>  <inchikey>  (83) 
JVTYFGDWFOLSLQ-UHFFFAOYSA-N

$$$$
FWEJSTWNXJCMFM-UHFFFAOYSA-N-P446140-P446140-541666
     RDKit          3D

 22 24  0  0  0  0  0  0  0  0999 V2000
   -2.4424  -62.6533   -9.9847 O   0  0  0  0  0  0  0  0  0  0  0  0
   -2.9417  -62.2631  -10.9668 C   0  0  0  0  0  0  0  0  0  0  0  0
   -3.1143  -62.9491  -12.3473 N   0  0  0  0  0  0  0  0  0  0  0  0
   -2.6391  -64.1815  -12.8176 C   0  0  0  0  0  0  0  0  0  0  0  0
   -3.4420  -64.7657  -13.7992 C   0  0  0  0  0  0  0  0  0  0  0  0
   -3.1993  -66.0651  -14.2133 C   0  0  0  0  0  0  0  0  0  0  0  0
   -2.1296  -66.7768  -13.6748 C   0  0  0  0  0  0  0  0  0  0  0  0
   -1.9444  -68.4226  -14.1926 Cl  0  0  0  0  0  0  0  0  0  0  0  0
   -1.2398  -66.2019  -12.7601 C   0  0  0  0  0  0  0  0  0  0  0  0
   -0.1780  -66.9134  -12.3088 N   0  0  0  0  0  0  0  0  0  0  0  0
    0.6956  -66.3342  -11.4649 C   0  0  0  0  0  0  0  0  0  0  0  0
    0.5849  -65.0326  -11.0434 C   0  0  0  0  0  0  0  0  0  0  0  0
   -0.5052  -64.2991  -11.4952 C   0  0  0  0  0  0  0  0  0  0  0  0
   -1.4856  -64.8686  -12.3379 C   0  0  0  0  0  0  0  0  0  0  0  0
   -3.5337  -60.8727  -10.9035 C   0  0  0  0  0  0  0  0  0  0  0  0
   -4.4912  -60.4528  -11.8316 C   0  0  0  0  0  0  0  0  0  0  0  0
   -4.8716  -61.2324  -12.8521 F   0  0  0  0  0  0  0  0  0  0  0  0
   -5.0788  -59.2040  -11.7093 C   0  0  0  0  0  0  0  0  0  0  0  0
   -4.7657  -58.3219  -10.7344 N   0  0  0  0  0  0  0  0  0  0  0  0
   -3.8185  -58.7272   -9.8548 C   0  0  0  0  0  0  0  0  0  0  0  0
   -3.1772  -59.9684   -9.8781 C   0  0  0  0  0  0  0  0  0  0  0  0
   -1.9328  -60.1980   -8.6099 S   0  0  0  0  0  0  0  0  0  0  0  0
  1  2  2  0
  2  3  1  0
  3  4  1  0
  4  5  2  0
  5  6  1  0
  6  7  2  0
  7  8  1  0
  7  9  1  0
  9 10  2  0
 10 11  1  0
 11 12  2  0
 12 13  1  0
 13 14  2  0
  2 15  1  0
 15 16  2  0
 16 17  1  0
 16 18  1  0
 18 19  2  0
 19 20  1  0
 20 21  2  0
 21 22  1  0
 14  4  1  0
 21 15  1  0
 14  9  1  0
M  END
>  <smiles>  (84) 
O=C(Nc1ccc(Cl)c2ncccc12)c1c(F)cncc1S

>  <inchikey>  (84) 
FWEJSTWNXJCMFM-UHFFFAOYSA-N

$$$$
HVIQGCTXQLGIFI-UHFFFAOYSA-N-P446140-P446140-541666
     RDKit          3D

 22 24  0  0  0  0  0  0  0  0999 V2000
   -2.6755  -62.7046   -9.9604 O   0  0  0  0  0  0  0  0  0  0  0  0
   -2.9922  -62.2424  -10.9857 C   0  0  0  0  0  0  0  0  0  0  0  0
   -3.0216  -62.8695  -12.4047 N   0  0  0  0  0  0  0  0  0  0  0  0
   -2.5911  -64.1239  -12.8534 C   0  0  0  0  0  0  0  0  0  0  0  0
   -3.3603  -64.6753  -13.8784 C   0  0  0  0  0  0  0  0  0  0  0  0
   -3.1433  -65.9842  -14.2787 C   0  0  0  0  0  0  0  0  0  0  0  0
   -2.1223  -66.7308  -13.6921 C   0  0  0  0  0  0  0  0  0  0  0  0
   -1.9613  -68.3803  -14.2071 Cl  0  0  0  0  0  0  0  0  0  0  0  0
   -1.2614  -66.1874  -12.7309 C   0  0  0  0  0  0  0  0  0  0  0  0
   -0.2392  -66.9274  -12.2353 N   0  0  0  0  0  0  0  0  0  0  0  0
    0.5958  -66.3780  -11.3333 C   0  0  0  0  0  0  0  0  0  0  0  0
    0.4820  -65.0835  -10.8893 C   0  0  0  0  0  0  0  0  0  0  0  0
   -0.5659  -64.3201  -11.3878 C   0  0  0  0  0  0  0  0  0  0  0  0
   -1.4970  -64.8537  -12.3060 C   0  0  0  0  0  0  0  0  0  0  0  0
   -3.5105  -60.8341  -10.9765 C   0  0  0  0  0  0  0  0  0  0  0  0
   -4.5863  -60.4428  -11.7830 C   0  0  0  0  0  0  0  0  0  0  0  0
   -5.1108  -59.1645  -11.6277 C   0  0  0  0  0  0  0  0  0  0  0  0
   -4.6416  -58.2519  -10.7411 N   0  0  0  0  0  0  0  0  0  0  0  0
   -3.5952  -58.6614  -10.0075 C   0  0  0  0  0  0  0  0  0  0  0  0
   -3.1034  -57.7331   -9.1356 O   0  0  0  0  0  0  0  0  0  0  0  0
   -2.9887  -59.9055  -10.0779 C   0  0  0  0  0  0  0  0  0  0  0  0
   -1.8928  -60.1558   -9.3011 O   0  0  0  0  0  0  0  0  0  0  0  0
  1  2  2  0
  2  3  1  0
  3  4  1  0
  4  5  2  0
  5  6  1  0
  6  7  2  0
  7  8  1  0
  7  9  1  0
  9 10  2  0
 10 11  1  0
 11 12  2  0
 12 13  1  0
 13 14  2  0
  2 15  1  0
 15 16  2  0
 16 17  1  0
 17 18  2  0
 18 19  1  0
 19 20  1  0
 19 21  2  0
 21 22  1  0
 14  4  1  0
 21 15  1  0
 14  9  1  0
M  END
>  <smiles>  (85) 
O=C(Nc1ccc(Cl)c2ncccc12)c1ccnc(O)c1O

>  <inchikey>  (85) 
HVIQGCTXQLGIFI-UHFFFAOYSA-N

$$$$
FAVLVDCRSWVQBT-UHFFFAOYSA-N-P446140-P446140-541666
     RDKit          3D

 22 24  0  0  0  0  0  0  0  0999 V2000
   -3.2962  -60.9829  -14.3810 N   0  0  0  0  0  0  0  0  0  0  0  0
   -4.3923  -60.6984  -13.5604 N   0  0  0  0  0  0  0  0  0  0  0  0
   -4.1753  -60.2029  -12.2574 C   0  0  0  0  0  0  0  0  0  0  0  0
   -4.8570  -59.0200  -11.9224 C   0  0  0  0  0  0  0  0  0  0  0  0
   -4.7697  -58.3487  -10.7428 N   0  0  0  0  0  0  0  0  0  0  0  0
   -3.9826  -58.9100   -9.8113 C   0  0  0  0  0  0  0  0  0  0  0  0
   -3.3277  -60.1111   -9.9952 C   0  0  0  0  0  0  0  0  0  0  0  0
   -3.4303  -60.7996  -11.2241 C   0  0  0  0  0  0  0  0  0  0  0  0
   -2.7492  -62.1583  -11.2220 C   0  0  0  0  0  0  0  0  0  0  0  0
   -2.2829  -62.5035  -10.2084 O   0  0  0  0  0  0  0  0  0  0  0  0
   -2.8476  -62.8874  -12.5754 N   0  0  0  0  0  0  0  0  0  0  0  0
   -2.4898  -64.1924  -12.9339 C   0  0  0  0  0  0  0  0  0  0  0  0
   -3.3261  -64.7845  -13.8828 C   0  0  0  0  0  0  0  0  0  0  0  0
   -3.1538  -66.1152  -14.2246 C   0  0  0  0  0  0  0  0  0  0  0  0
   -2.1197  -66.8504  -13.6478 C   0  0  0  0  0  0  0  0  0  0  0  0
   -1.9960  -68.5188  -14.1081 Cl  0  0  0  0  0  0  0  0  0  0  0  0
   -1.2112  -66.2805  -12.7475 C   0  0  0  0  0  0  0  0  0  0  0  0
   -0.1921  -67.0220  -12.2478 N   0  0  0  0  0  0  0  0  0  0  0  0
    0.6971  -66.4461  -11.4170 C   0  0  0  0  0  0  0  0  0  0  0  0
    0.6465  -65.1222  -11.0572 C   0  0  0  0  0  0  0  0  0  0  0  0
   -0.3966  -64.3576  -11.5626 C   0  0  0  0  0  0  0  0  0  0  0  0
   -1.3900  -64.9181  -12.3950 C   0  0  0  0  0  0  0  0  0  0  0  0
  1  2  1  0
  2  3  1  0
  3  4  2  0
  4  5  1  0
  5  6  2  0
  6  7  1  0
  7  8  2  0
  8  9  1  0
  9 10  2  0
  9 11  1  0
 11 12  1  0
 12 13  2  0
 13 14  1  0
 14 15  2  0
 15 16  1  0
 15 17  1  0
 17 18  2  0
 18 19  1  0
 19 20  2  0
 20 21  1  0
 21 22  2  0
  8  3  1  0
 22 12  1  0
 22 17  1  0
M  END
>  <smiles>  (86) 
NNc1cnccc1C(=O)Nc1ccc(Cl)c2ncccc12

>  <inchikey>  (86) 
FAVLVDCRSWVQBT-UHFFFAOYSA-N

$$$$
YOKVEJILSHDNKC-UHFFFAOYSA-N-P446140-P446140-541666
     RDKit          3D

 22 24  0  0  0  0  0  0  0  0999 V2000
   -5.6111  -58.5618  -12.5877 C   0  0  0  0  0  0  0  0  0  0  0  0
   -4.7809  -59.1372  -11.4956 C   0  0  0  0  0  0  0  0  0  0  0  0
   -4.3564  -60.4546  -11.6202 C   0  0  0  0  0  0  0  0  0  0  0  0
   -3.4655  -60.9575  -10.6836 C   0  0  0  0  0  0  0  0  0  0  0  0
   -2.8399  -62.3255  -10.7762 C   0  0  0  0  0  0  0  0  0  0  0  0
   -2.3161  -62.7315   -9.8115 O   0  0  0  0  0  0  0  0  0  0  0  0
   -2.9556  -62.9473  -12.1983 N   0  0  0  0  0  0  0  0  0  0  0  0
   -2.5461  -64.1962  -12.6805 C   0  0  0  0  0  0  0  0  0  0  0  0
   -3.3672  -64.7196  -13.6842 C   0  0  0  0  0  0  0  0  0  0  0  0
   -3.1676  -66.0117  -14.1439 C   0  0  0  0  0  0  0  0  0  0  0  0
   -2.1186  -66.7727  -13.6309 C   0  0  0  0  0  0  0  0  0  0  0  0
   -1.9769  -68.4034  -14.2070 Cl  0  0  0  0  0  0  0  0  0  0  0  0
   -1.2121  -66.2567  -12.6954 C   0  0  0  0  0  0  0  0  0  0  0  0
   -0.1676  -67.0094  -12.2720 N   0  0  0  0  0  0  0  0  0  0  0  0
    0.7211  -66.4804  -11.4102 C   0  0  0  0  0  0  0  0  0  0  0  0
    0.6434  -65.1924  -10.9412 C   0  0  0  0  0  0  0  0  0  0  0  0
   -0.4285  -64.4172  -11.3627 C   0  0  0  0  0  0  0  0  0  0  0  0
   -1.4203  -64.9340  -12.2235 C   0  0  0  0  0  0  0  0  0  0  0  0
   -3.1207  -60.1414   -9.6003 C   0  0  0  0  0  0  0  0  0  0  0  0
   -3.6409  -58.8518   -9.5159 C   0  0  0  0  0  0  0  0  0  0  0  0
   -3.2857  -57.9753   -8.3510 C   0  0  0  0  0  0  0  0  0  0  0  0
   -4.4591  -58.3308  -10.4592 N   0  0  0  0  0  0  0  0  0  0  0  0
  1  2  1  0
  2  3  2  0
  3  4  1  0
  4  5  1  0
  5  6  2  0
  5  7  1  0
  7  8  1  0
  8  9  2  0
  9 10  1  0
 10 11  2  0
 11 12  1  0
 11 13  1  0
 13 14  2  0
 14 15  1  0
 15 16  2  0
 16 17  1  0
 17 18  2  0
  4 19  2  0
 19 20  1  0
 20 21  1  0
 20 22  2  0
 22  2  1  0
 18  8  1  0
 18 13  1  0
M  END
>  <smiles>  (87) 
Cc1cc(C(=O)Nc2ccc(Cl)c3ncccc23)cc(C)n1

>  <inchikey>  (87) 
YOKVEJILSHDNKC-UHFFFAOYSA-N

$$$$
XODRXRIEKJTFLQ-UHFFFAOYSA-N-P446140-P446140-541666
     RDKit          3D

 22 24  0  0  0  0  0  0  0  0999 V2000
   -4.4433  -56.8264  -13.1867 N   0  0  0  0  0  0  0  0  0  0  0  0
   -5.0830  -58.1474  -13.0569 O   0  0  0  0  0  0  0  0  0  0  0  0
   -4.5864  -58.8403  -11.9602 C   0  0  0  0  0  0  0  0  0  0  0  0
   -4.1531  -60.1429  -12.1644 C   0  0  0  0  0  0  0  0  0  0  0  0
   -3.5708  -60.8020  -11.0831 C   0  0  0  0  0  0  0  0  0  0  0  0
   -2.8872  -62.1448  -11.1452 C   0  0  0  0  0  0  0  0  0  0  0  0
   -2.1971  -62.3998  -10.2359 O   0  0  0  0  0  0  0  0  0  0  0  0
   -3.1444  -62.9242  -12.4612 N   0  0  0  0  0  0  0  0  0  0  0  0
   -2.6917  -64.1892  -12.8770 C   0  0  0  0  0  0  0  0  0  0  0  0
   -3.5402  -64.8385  -13.7755 C   0  0  0  0  0  0  0  0  0  0  0  0
   -3.2900  -66.1491  -14.1484 C   0  0  0  0  0  0  0  0  0  0  0  0
   -2.1781  -66.8173  -13.6433 C   0  0  0  0  0  0  0  0  0  0  0  0
   -1.9808  -68.4752  -14.1155 Cl  0  0  0  0  0  0  0  0  0  0  0  0
   -1.2553  -66.1891  -12.8018 C   0  0  0  0  0  0  0  0  0  0  0  0
   -0.1662  -66.8709  -12.3700 N   0  0  0  0  0  0  0  0  0  0  0  0
    0.7476  -66.2432  -11.6084 C   0  0  0  0  0  0  0  0  0  0  0  0
    0.6540  -64.9188  -11.2635 C   0  0  0  0  0  0  0  0  0  0  0  0
   -0.4637  -64.2166  -11.6989 C   0  0  0  0  0  0  0  0  0  0  0  0
   -1.4950  -64.8367  -12.4389 C   0  0  0  0  0  0  0  0  0  0  0  0
   -3.4978  -60.1307   -9.8516 C   0  0  0  0  0  0  0  0  0  0  0  0
   -3.9656  -58.8351   -9.7540 C   0  0  0  0  0  0  0  0  0  0  0  0
   -4.5097  -58.1608  -10.7847 N   0  0  0  0  0  0  0  0  0  0  0  0
  1  2  1  0
  2  3  1  0
  3  4  2  0
  4  5  1  0
  5  6  1  0
  6  7  2  0
  6  8  1  0
  8  9  1  0
  9 10  2  0
 10 11  1  0
 11 12  2  0
 12 13  1  0
 12 14  1  0
 14 15  2  0
 15 16  1  0
 16 17  2  0
 17 18  1  0
 18 19  2  0
  5 20  2  0
 20 21  1  0
 21 22  2  0
 22  3  1  0
 19  9  1  0
 19 14  1  0
M  END
>  <smiles>  (88) 
NOc1cc(C(=O)Nc2ccc(Cl)c3ncccc23)ccn1

>  <inchikey>  (88) 
XODRXRIEKJTFLQ-UHFFFAOYSA-N

$$$$
DUVRUVXVGXUWRH-UHFFFAOYSA-N-P446140-P446140-541666
     RDKit          3D

 22 24  0  0  0  0  0  0  0  0999 V2000
   -2.3358  -62.6530   -9.9112 O   0  0  0  0  0  0  0  0  0  0  0  0
   -2.8265  -62.2561  -10.8965 C   0  0  0  0  0  0  0  0  0  0  0  0
   -3.0208  -62.9487  -12.2745 N   0  0  0  0  0  0  0  0  0  0  0  0
   -2.5806  -64.1969  -12.7362 C   0  0  0  0  0  0  0  0  0  0  0  0
   -3.4010  -64.7590  -13.7195 C   0  0  0  0  0  0  0  0  0  0  0  0
   -3.1808  -66.0556  -14.1550 C   0  0  0  0  0  0  0  0  0  0  0  0
   -2.1154  -66.7873  -13.6352 C   0  0  0  0  0  0  0  0  0  0  0  0
   -1.9513  -68.4262  -14.1809 Cl  0  0  0  0  0  0  0  0  0  0  0  0
   -1.2122  -66.2368  -12.7173 C   0  0  0  0  0  0  0  0  0  0  0  0
   -0.1560  -66.9675  -12.2848 N   0  0  0  0  0  0  0  0  0  0  0  0
    0.7307  -66.4114  -11.4391 C   0  0  0  0  0  0  0  0  0  0  0  0
    0.6397  -65.1149  -10.9974 C   0  0  0  0  0  0  0  0  0  0  0  0
   -0.4439  -64.3612  -11.4297 C   0  0  0  0  0  0  0  0  0  0  0  0
   -1.4365  -64.9064  -12.2732 C   0  0  0  0  0  0  0  0  0  0  0  0
   -3.3729  -60.8570  -10.8594 C   0  0  0  0  0  0  0  0  0  0  0  0
   -2.8996  -59.9934   -9.8684 C   0  0  0  0  0  0  0  0  0  0  0  0
   -3.3750  -58.6935   -9.8315 C   0  0  0  0  0  0  0  0  0  0  0  0
   -4.2736  -58.1952  -10.7066 N   0  0  0  0  0  0  0  0  0  0  0  0
   -4.7361  -59.0530  -11.6371 C   0  0  0  0  0  0  0  0  0  0  0  0
   -5.7233  -58.5876  -12.5142 N   0  0  0  0  0  0  0  0  0  0  0  0
   -6.9624  -59.2171  -12.3481 O   0  0  0  0  0  0  0  0  0  0  0  0
   -4.3373  -60.3806  -11.7362 C   0  0  0  0  0  0  0  0  0  0  0  0
  1  2  2  0
  2  3  1  0
  3  4  1  0
  4  5  2  0
  5  6  1  0
  6  7  2  0
  7  8  1  0
  7  9  1  0
  9 10  2  0
 10 11  1  0
 11 12  2  0
 12 13  1  0
 13 14  2  0
  2 15  1  0
 15 16  2  0
 16 17  1  0
 17 18  2  0
 18 19  1  0
 19 20  1  0
 20 21  1  0
 19 22  2  0
 14  4  1  0
 22 15  1  0
 14  9  1  0
M  END
>  <smiles>  (89) 
O=C(Nc1ccc(Cl)c2ncccc12)c1ccnc(NO)c1

>  <inchikey>  (89) 
DUVRUVXVGXUWRH-UHFFFAOYSA-N

$$$$
JAGPFGLMOWIMFX-UHFFFAOYSA-N-P446140-P446140-541666
     RDKit          3D

 22 24  0  0  0  0  0  0  0  0999 V2000
   -5.7579  -58.5645  -12.7839 N   0  0  0  0  0  0  0  0  0  0  0  0
   -4.9679  -59.1210  -11.7845 C   0  0  0  0  0  0  0  0  0  0  0  0
   -4.7963  -58.3791  -10.6671 N   0  0  0  0  0  0  0  0  0  0  0  0
   -3.9727  -58.8827   -9.7214 C   0  0  0  0  0  0  0  0  0  0  0  0
   -3.3260  -60.0988   -9.8320 C   0  0  0  0  0  0  0  0  0  0  0  0
   -3.5016  -60.8561  -10.9961 C   0  0  0  0  0  0  0  0  0  0  0  0
   -2.8042  -62.1821  -11.0738 C   0  0  0  0  0  0  0  0  0  0  0  0
   -2.1597  -62.4772  -10.1430 O   0  0  0  0  0  0  0  0  0  0  0  0
   -3.1105  -62.9697  -12.3748 N   0  0  0  0  0  0  0  0  0  0  0  0
   -2.6249  -64.2069  -12.8279 C   0  0  0  0  0  0  0  0  0  0  0  0
   -3.4657  -64.8267  -13.7576 C   0  0  0  0  0  0  0  0  0  0  0  0
   -3.2271  -66.1307  -14.1575 C   0  0  0  0  0  0  0  0  0  0  0  0
   -2.1307  -66.8206  -13.6483 C   0  0  0  0  0  0  0  0  0  0  0  0
   -1.9491  -68.4737  -14.1438 Cl  0  0  0  0  0  0  0  0  0  0  0  0
   -1.2110  -66.2184  -12.7827 C   0  0  0  0  0  0  0  0  0  0  0  0
   -0.1331  -66.9191  -12.3530 N   0  0  0  0  0  0  0  0  0  0  0  0
    0.7765  -66.3162  -11.5665 C   0  0  0  0  0  0  0  0  0  0  0  0
    0.6899  -64.9995  -11.1910 C   0  0  0  0  0  0  0  0  0  0  0  0
   -0.4165  -64.2780  -11.6221 C   0  0  0  0  0  0  0  0  0  0  0  0
   -1.4415  -64.8723  -12.3906 C   0  0  0  0  0  0  0  0  0  0  0  0
   -4.3159  -60.3375  -11.9933 C   0  0  0  0  0  0  0  0  0  0  0  0
   -4.5145  -60.9978  -13.1449 F   0  0  0  0  0  0  0  0  0  0  0  0
  1  2  1  0
  2  3  2  0
  3  4  1  0
  4  5  2  0
  5  6  1  0
  6  7  1  0
  7  8  2  0
  7  9  1  0
  9 10  1  0
 10 11  2  0
 11 12  1  0
 12 13  2  0
 13 14  1  0
 13 15  1  0
 15 16  2  0
 16 17  1  0
 17 18  2  0
 18 19  1  0
 19 20  2  0
  6 21  2  0
 21 22  1  0
 21  2  1  0
 20 10  1  0
 20 15  1  0
M  END
>  <smiles>  (90) 
Nc1nccc(C(=O)Nc2ccc(Cl)c3ncccc23)c1F

>  <inchikey>  (90) 
JAGPFGLMOWIMFX-UHFFFAOYSA-N

$$$$
VVLJIFXPPGUQGC-UHFFFAOYSA-N-P446140-P446140-541666
     RDKit          3D

 22 24  0  0  0  0  0  0  0  0999 V2000
   -5.8072  -58.6010  -12.7714 N   0  0  0  0  0  0  0  0  0  0  0  0
   -4.9914  -59.1368  -11.7905 C   0  0  0  0  0  0  0  0  0  0  0  0
   -4.4168  -60.3871  -11.9878 C   0  0  0  0  0  0  0  0  0  0  0  0
   -3.5073  -60.8697  -11.0475 C   0  0  0  0  0  0  0  0  0  0  0  0
   -2.8263  -62.2116  -11.1082 C   0  0  0  0  0  0  0  0  0  0  0  0
   -2.2412  -62.5296  -10.1467 O   0  0  0  0  0  0  0  0  0  0  0  0
   -2.9918  -62.9364  -12.4703 N   0  0  0  0  0  0  0  0  0  0  0  0
   -2.5642  -64.2054  -12.8840 C   0  0  0  0  0  0  0  0  0  0  0  0
   -3.3882  -64.7991  -13.8430 C   0  0  0  0  0  0  0  0  0  0  0  0
   -3.1808  -66.1165  -14.2168 C   0  0  0  0  0  0  0  0  0  0  0  0
   -2.1272  -66.8386  -13.6605 C   0  0  0  0  0  0  0  0  0  0  0  0
   -1.9751  -68.4981  -14.1429 Cl  0  0  0  0  0  0  0  0  0  0  0  0
   -1.2233  -66.2616  -12.7613 C   0  0  0  0  0  0  0  0  0  0  0  0
   -0.1816  -66.9881  -12.2877 N   0  0  0  0  0  0  0  0  0  0  0  0
    0.7106  -66.4060  -11.4655 C   0  0  0  0  0  0  0  0  0  0  0  0
    0.6404  -65.0876  -11.0913 C   0  0  0  0  0  0  0  0  0  0  0  0
   -0.4286  -64.3391  -11.5674 C   0  0  0  0  0  0  0  0  0  0  0  0
   -1.4308  -64.9093  -12.3828 C   0  0  0  0  0  0  0  0  0  0  0  0
   -3.1991  -60.0611   -9.9501 C   0  0  0  0  0  0  0  0  0  0  0  0
   -3.8061  -58.8300   -9.8583 C   0  0  0  0  0  0  0  0  0  0  0  0
   -3.4255  -57.7555   -8.5766 Cl  0  0  0  0  0  0  0  0  0  0  0  0
   -4.7016  -58.3475  -10.7424 N   0  0  0  0  0  0  0  0  0  0  0  0
  1  2  1  0
  2  3  2  0
  3  4  1  0
  4  5  1  0
  5  6  2  0
  5  7  1  0
  7  8  1  0
  8  9  2  0
  9 10  1  0
 10 11  2  0
 11 12  1  0
 11 13  1  0
 13 14  2  0
 14 15  1  0
 15 16  2  0
 16 17  1  0
 17 18  2  0
  4 19  2  0
 19 20  1  0
 20 21  1  0
 20 22  2  0
 22  2  1  0
 18  8  1  0
 18 13  1  0
M  END
>  <smiles>  (91) 
Nc1cc(C(=O)Nc2ccc(Cl)c3ncccc23)cc(Cl)n1

>  <inchikey>  (91) 
VVLJIFXPPGUQGC-UHFFFAOYSA-N

$$$$
CDIUHNWUYKXYAR-UHFFFAOYSA-N-P446140-P446140-541666
     RDKit          3D

 22 24  0  0  0  0  0  0  0  0999 V2000
   -2.1788  -62.4676  -10.1647 O   0  0  0  0  0  0  0  0  0  0  0  0
   -2.8269  -62.1744  -11.0952 C   0  0  0  0  0  0  0  0  0  0  0  0
   -3.0513  -62.9175  -12.4387 N   0  0  0  0  0  0  0  0  0  0  0  0
   -2.6146  -64.1821  -12.8658 C   0  0  0  0  0  0  0  0  0  0  0  0
   -3.4651  -64.8029  -13.7835 C   0  0  0  0  0  0  0  0  0  0  0  0
   -3.2418  -66.1165  -14.1624 C   0  0  0  0  0  0  0  0  0  0  0  0
   -2.1524  -66.8130  -13.6451 C   0  0  0  0  0  0  0  0  0  0  0  0
   -1.9849  -68.4720  -14.1242 Cl  0  0  0  0  0  0  0  0  0  0  0  0
   -1.2272  -66.2114  -12.7851 C   0  0  0  0  0  0  0  0  0  0  0  0
   -0.1579  -66.9166  -12.3421 N   0  0  0  0  0  0  0  0  0  0  0  0
    0.7563  -66.3121  -11.5619 C   0  0  0  0  0  0  0  0  0  0  0  0
    0.6821  -64.9893  -11.2043 C   0  0  0  0  0  0  0  0  0  0  0  0
   -0.4155  -64.2624  -11.6486 C   0  0  0  0  0  0  0  0  0  0  0  0
   -1.4431  -64.8582  -12.4129 C   0  0  0  0  0  0  0  0  0  0  0  0
   -3.5336  -60.8531  -10.9956 C   0  0  0  0  0  0  0  0  0  0  0  0
   -3.2850  -60.0290   -9.8856 C   0  0  0  0  0  0  0  0  0  0  0  0
   -2.4353  -60.3500   -8.8608 O   0  0  0  0  0  0  0  0  0  0  0  0
   -3.9230  -58.8010   -9.7966 C   0  0  0  0  0  0  0  0  0  0  0  0
   -4.8051  -58.3394  -10.7130 N   0  0  0  0  0  0  0  0  0  0  0  0
   -5.0469  -59.1572  -11.7682 C   0  0  0  0  0  0  0  0  0  0  0  0
   -4.4345  -60.3886  -11.9499 C   0  0  0  0  0  0  0  0  0  0  0  0
   -4.7341  -61.1026  -13.0426 F   0  0  0  0  0  0  0  0  0  0  0  0
  1  2  2  0
  2  3  1  0
  3  4  1  0
  4  5  2  0
  5  6  1  0
  6  7  2  0
  7  8  1  0
  7  9  1  0
  9 10  2  0
 10 11  1  0
 11 12  2  0
 12 13  1  0
 13 14  2  0
  2 15  1  0
 15 16  2  0
 16 17  1  0
 16 18  1  0
 18 19  2  0
 19 20  1  0
 20 21  2  0
 21 22  1  0
 14  4  1  0
 21 15  1  0
 14  9  1  0
M  END
>  <smiles>  (92) 
O=C(Nc1ccc(Cl)c2ncccc12)c1c(O)cncc1F

>  <inchikey>  (92) 
CDIUHNWUYKXYAR-UHFFFAOYSA-N

$$$$
PMDIBTYKVDBINH-UHFFFAOYSA-N-P446140-P446140-541666
     RDKit          3D

 22 24  0  0  0  0  0  0  0  0999 V2000
   -5.7652  -58.5668  -12.7988 N   0  0  0  0  0  0  0  0  0  0  0  0
   -4.9680  -59.1129  -11.8071 C   0  0  0  0  0  0  0  0  0  0  0  0
   -4.4370  -60.3837  -11.9823 C   0  0  0  0  0  0  0  0  0  0  0  0
   -3.5472  -60.8795  -11.0322 C   0  0  0  0  0  0  0  0  0  0  0  0
   -2.9178  -62.2479  -11.0673 C   0  0  0  0  0  0  0  0  0  0  0  0
   -2.3673  -62.5821  -10.0909 O   0  0  0  0  0  0  0  0  0  0  0  0
   -3.1253  -62.9960  -12.4105 N   0  0  0  0  0  0  0  0  0  0  0  0
   -2.6321  -64.2336  -12.8499 C   0  0  0  0  0  0  0  0  0  0  0  0
   -3.4309  -64.8378  -13.8242 C   0  0  0  0  0  0  0  0  0  0  0  0
   -3.1823  -66.1420  -14.2171 C   0  0  0  0  0  0  0  0  0  0  0  0
   -2.1115  -66.8403  -13.6651 C   0  0  0  0  0  0  0  0  0  0  0  0
   -1.9174  -68.4913  -14.1615 Cl  0  0  0  0  0  0  0  0  0  0  0  0
   -1.2265  -66.2479  -12.7573 C   0  0  0  0  0  0  0  0  0  0  0  0
   -0.1640  -66.9503  -12.2938 N   0  0  0  0  0  0  0  0  0  0  0  0
    0.7092  -66.3554  -11.4609 C   0  0  0  0  0  0  0  0  0  0  0  0
    0.5982  -65.0461  -11.0651 C   0  0  0  0  0  0  0  0  0  0  0  0
   -0.4929  -64.3223  -11.5301 C   0  0  0  0  0  0  0  0  0  0  0  0
   -1.4762  -64.9080  -12.3580 C   0  0  0  0  0  0  0  0  0  0  0  0
   -3.2131  -60.0613   -9.9478 C   0  0  0  0  0  0  0  0  0  0  0  0
   -3.7747  -58.8036   -9.8683 C   0  0  0  0  0  0  0  0  0  0  0  0
   -3.2587  -57.6603   -8.4433 Br  0  0  0  0  0  0  0  0  0  0  0  0
   -4.6541  -58.3169  -10.7698 N   0  0  0  0  0  0  0  0  0  0  0  0
  1  2  1  0
  2  3  2  0
  3  4  1  0
  4  5  1  0
  5  6  2  0
  5  7  1  0
  7  8  1  0
  8  9  2  0
  9 10  1  0
 10 11  2  0
 11 12  1  0
 11 13  1  0
 13 14  2  0
 14 15  1  0
 15 16  2  0
 16 17  1  0
 17 18  2  0
  4 19  2  0
 19 20  1  0
 20 21  1  0
 20 22  2  0
 22  2  1  0
 18  8  1  0
 18 13  1  0
M  END
>  <smiles>  (93) 
Nc1cc(C(=O)Nc2ccc(Cl)c3ncccc23)cc(Br)n1

>  <inchikey>  (93) 
PMDIBTYKVDBINH-UHFFFAOYSA-N

$$$$
WPHIKZOGIIIICH-UHFFFAOYSA-N-P446140-P446140-541666
     RDKit          3D

 22 24  0  0  0  0  0  0  0  0999 V2000
   -1.8932  -60.1551   -9.2347 N   0  0  0  0  0  0  0  0  0  0  0  0
   -3.0627  -59.9172   -9.9998 C   0  0  0  0  0  0  0  0  0  0  0  0
   -3.4997  -60.8319  -10.9861 C   0  0  0  0  0  0  0  0  0  0  0  0
   -2.8829  -62.2084  -11.0307 C   0  0  0  0  0  0  0  0  0  0  0  0
   -2.4224  -62.6099  -10.0324 O   0  0  0  0  0  0  0  0  0  0  0  0
   -2.9428  -62.8534  -12.4419 N   0  0  0  0  0  0  0  0  0  0  0  0
   -2.5462  -64.1233  -12.8790 C   0  0  0  0  0  0  0  0  0  0  0  0
   -3.3496  -64.6778  -13.8757 C   0  0  0  0  0  0  0  0  0  0  0  0
   -3.1622  -65.9959  -14.2616 C   0  0  0  0  0  0  0  0  0  0  0  0
   -2.1420  -66.7516  -13.6851 C   0  0  0  0  0  0  0  0  0  0  0  0
   -2.0125  -68.4081  -14.1848 Cl  0  0  0  0  0  0  0  0  0  0  0  0
   -1.2530  -66.2095  -12.7496 C   0  0  0  0  0  0  0  0  0  0  0  0
   -0.2368  -66.9609  -12.2593 N   0  0  0  0  0  0  0  0  0  0  0  0
    0.6359  -66.4093  -11.3954 C   0  0  0  0  0  0  0  0  0  0  0  0
    0.5677  -65.0999  -10.9878 C   0  0  0  0  0  0  0  0  0  0  0  0
   -0.4758  -64.3258  -11.4789 C   0  0  0  0  0  0  0  0  0  0  0  0
   -1.4502  -64.8628  -12.3488 C   0  0  0  0  0  0  0  0  0  0  0  0
   -4.5631  -60.4867  -11.8292 C   0  0  0  0  0  0  0  0  0  0  0  0
   -5.1466  -59.2403  -11.6864 C   0  0  0  0  0  0  0  0  0  0  0  0
   -4.7407  -58.3223  -10.7861 N   0  0  0  0  0  0  0  0  0  0  0  0
   -3.7015  -58.6690   -9.9868 C   0  0  0  0  0  0  0  0  0  0  0  0
   -3.1411  -57.3220   -8.7533 Br  0  0  0  0  0  0  0  0  0  0  0  0
  1  2  1  0
  2  3  2  0
  3  4  1  0
  4  5  2  0
  4  6  1  0
  6  7  1  0
  7  8  2  0
  8  9  1  0
  9 10  2  0
 10 11  1  0
 10 12  1  0
 12 13  2  0
 13 14  1  0
 14 15  2  0
 15 16  1  0
 16 17  2  0
  3 18  1  0
 18 19  2  0
 19 20  1  0
 20 21  2  0
 21 22  1  0
 21  2  1  0
 17  7  1  0
 17 12  1  0
M  END
>  <smiles>  (94) 
Nc1c(C(=O)Nc2ccc(Cl)c3ncccc23)ccnc1Br

>  <inchikey>  (94) 
WPHIKZOGIIIICH-UHFFFAOYSA-N

$$$$
GNBPZPUCQKBHRO-UHFFFAOYSA-N-P446140-P446140-541666
     RDKit          3D

 22 24  0  0  0  0  0  0  0  0999 V2000
   -2.2858  -62.5170  -10.1237 O   0  0  0  0  0  0  0  0  0  0  0  0
   -2.8922  -62.2040  -11.0728 C   0  0  0  0  0  0  0  0  0  0  0  0
   -3.0713  -62.9235  -12.4307 N   0  0  0  0  0  0  0  0  0  0  0  0
   -2.6325  -64.1864  -12.8583 C   0  0  0  0  0  0  0  0  0  0  0  0
   -3.4665  -64.8000  -13.7949 C   0  0  0  0  0  0  0  0  0  0  0  0
   -3.2351  -66.1101  -14.1805 C   0  0  0  0  0  0  0  0  0  0  0  0
   -2.1509  -66.8081  -13.6539 C   0  0  0  0  0  0  0  0  0  0  0  0
   -1.9740  -68.4637  -14.1425 Cl  0  0  0  0  0  0  0  0  0  0  0  0
   -1.2385  -66.2115  -12.7768 C   0  0  0  0  0  0  0  0  0  0  0  0
   -0.1702  -66.9161  -12.3292 N   0  0  0  0  0  0  0  0  0  0  0  0
    0.7285  -66.3157  -11.5278 C   0  0  0  0  0  0  0  0  0  0  0  0
    0.6387  -64.9992  -11.1506 C   0  0  0  0  0  0  0  0  0  0  0  0
   -0.4576  -64.2735  -11.6000 C   0  0  0  0  0  0  0  0  0  0  0  0
   -1.4671  -64.8641  -12.3917 C   0  0  0  0  0  0  0  0  0  0  0  0
   -3.5812  -60.8650  -11.0169 C   0  0  0  0  0  0  0  0  0  0  0  0
   -3.3068  -60.0767   -9.8861 C   0  0  0  0  0  0  0  0  0  0  0  0
   -3.8760  -58.8221   -9.7731 C   0  0  0  0  0  0  0  0  0  0  0  0
   -4.6979  -58.2923  -10.6986 N   0  0  0  0  0  0  0  0  0  0  0  0
   -4.9525  -59.0706  -11.7771 C   0  0  0  0  0  0  0  0  0  0  0  0
   -5.7274  -58.5403  -12.7333 F   0  0  0  0  0  0  0  0  0  0  0  0
   -4.4432  -60.3483  -11.9809 C   0  0  0  0  0  0  0  0  0  0  0  0
   -4.7974  -61.0537  -13.0985 O   0  0  0  0  0  0  0  0  0  0  0  0
  1  2  2  0
  2  3  1  0
  3  4  1  0
  4  5  2  0
  5  6  1  0
  6  7  2  0
  7  8  1  0
  7  9  1  0
  9 10  2  0
 10 11  1  0
 11 12  2  0
 12 13  1  0
 13 14  2  0
  2 15  1  0
 15 16  2  0
 16 17  1  0
 17 18  2  0
 18 19  1  0
 19 20  1  0
 19 21  2  0
 21 22  1  0
 14  4  1  0
 21 15  1  0
 14  9  1  0
M  END
>  <smiles>  (95) 
O=C(Nc1ccc(Cl)c2ncccc12)c1ccnc(F)c1O

>  <inchikey>  (95) 
GNBPZPUCQKBHRO-UHFFFAOYSA-N

$$$$
WUQIYSAHFQYOLX-UHFFFAOYSA-N-P446140-P446140-541666
     RDKit          3D

 22 24  0  0  0  0  0  0  0  0999 V2000
   -2.8924  -62.6946   -9.9833 O   0  0  0  0  0  0  0  0  0  0  0  0
   -3.1433  -62.2377  -11.0303 C   0  0  0  0  0  0  0  0  0  0  0  0
   -3.0146  -62.8491  -12.4520 N   0  0  0  0  0  0  0  0  0  0  0  0
   -2.6525  -64.1382  -12.8569 C   0  0  0  0  0  0  0  0  0  0  0  0
   -3.4069  -64.6895  -13.8893 C   0  0  0  0  0  0  0  0  0  0  0  0
   -3.1825  -66.0002  -14.2807 C   0  0  0  0  0  0  0  0  0  0  0  0
   -2.1662  -66.7448  -13.6817 C   0  0  0  0  0  0  0  0  0  0  0  0
   -1.9872  -68.3909  -14.1998 Cl  0  0  0  0  0  0  0  0  0  0  0  0
   -1.3217  -66.2002  -12.7073 C   0  0  0  0  0  0  0  0  0  0  0  0
   -0.3026  -66.9338  -12.1963 N   0  0  0  0  0  0  0  0  0  0  0  0
    0.5166  -66.3804  -11.2825 C   0  0  0  0  0  0  0  0  0  0  0  0
    0.3858  -65.0882  -10.8355 C   0  0  0  0  0  0  0  0  0  0  0  0
   -0.6609  -64.3314  -11.3467 C   0  0  0  0  0  0  0  0  0  0  0  0
   -1.5703  -64.8688  -12.2850 C   0  0  0  0  0  0  0  0  0  0  0  0
   -3.5788  -60.7815  -11.1063 C   0  0  0  0  0  0  0  0  0  0  0  0
   -3.1348  -59.9344  -10.0011 C   0  0  0  0  0  0  0  0  0  0  0  0
   -3.2909  -58.6109  -10.0489 C   0  0  0  0  0  0  0  0  0  0  0  0
   -2.8188  -57.8355   -9.0548 F   0  0  0  0  0  0  0  0  0  0  0  0
   -3.8961  -58.0333  -11.1199 N   0  0  0  0  0  0  0  0  0  0  0  0
   -4.4175  -58.7437  -12.1649 C   0  0  0  0  0  0  0  0  0  0  0  0
   -4.9045  -58.1776  -13.1333 O   0  0  0  0  0  0  0  0  0  0  0  0
   -4.2938  -60.2264  -12.1028 C   0  0  0  0  0  0  0  0  0  0  0  0
  1  2  2  0
  2  3  1  0
  3  4  1  0
  4  5  2  0
  5  6  1  0
  6  7  2  0
  7  8  1  0
  7  9  1  0
  9 10  2  0
 10 11  1  0
 11 12  2  0
 12 13  1  0
 13 14  2  0
  2 15  1  0
 15 16  1  0
 16 17  2  0
 17 18  1  0
 17 19  1  0
 19 20  1  0
 20 21  2  0
 20 22  1  0
 14  4  1  0
 22 15  2  0
 14  9  1  0
M  END
>  <smiles>  (96) 
O=C(Nc1ccc(Cl)c2ncccc12)c1cc(F)[nH]c(=O)c1

>  <inchikey>  (96) 
WUQIYSAHFQYOLX-UHFFFAOYSA-N

$$$$
NIVYILVUEHSGMS-UHFFFAOYSA-N-P446140-P446140-541666
     RDKit          3D

 22 24  0  0  0  0  0  0  0  0999 V2000
   -3.9043  -61.1952  -14.0782 N   0  0  0  0  0  0  0  0  0  0  0  0
   -4.9193  -61.0842  -13.0398 O   0  0  0  0  0  0  0  0  0  0  0  0
   -4.4235  -60.3990  -11.9657 C   0  0  0  0  0  0  0  0  0  0  0  0
   -4.9792  -59.1395  -11.7465 C   0  0  0  0  0  0  0  0  0  0  0  0
   -4.6741  -58.3308  -10.6999 N   0  0  0  0  0  0  0  0  0  0  0  0
   -3.7782  -58.8241   -9.8204 C   0  0  0  0  0  0  0  0  0  0  0  0
   -3.1978  -60.0774   -9.9328 C   0  0  0  0  0  0  0  0  0  0  0  0
   -3.5242  -60.9036  -11.0223 C   0  0  0  0  0  0  0  0  0  0  0  0
   -2.9150  -62.2903  -11.0005 C   0  0  0  0  0  0  0  0  0  0  0  0
   -2.4636  -62.6502   -9.9847 O   0  0  0  0  0  0  0  0  0  0  0  0
   -3.0518  -63.0252  -12.3505 N   0  0  0  0  0  0  0  0  0  0  0  0
   -2.5916  -64.2843  -12.7512 C   0  0  0  0  0  0  0  0  0  0  0  0
   -3.3933  -64.8851  -13.7286 C   0  0  0  0  0  0  0  0  0  0  0  0
   -3.1444  -66.1837  -14.1361 C   0  0  0  0  0  0  0  0  0  0  0  0
   -2.0661  -66.8787  -13.5948 C   0  0  0  0  0  0  0  0  0  0  0  0
   -1.8611  -68.5211  -14.1156 Cl  0  0  0  0  0  0  0  0  0  0  0  0
   -1.1840  -66.2918  -12.6776 C   0  0  0  0  0  0  0  0  0  0  0  0
   -0.1156  -66.9903  -12.2229 N   0  0  0  0  0  0  0  0  0  0  0  0
    0.7478  -66.3980  -11.3768 C   0  0  0  0  0  0  0  0  0  0  0  0
    0.6200  -65.0976  -10.9545 C   0  0  0  0  0  0  0  0  0  0  0  0
   -0.4762  -64.3767  -11.4097 C   0  0  0  0  0  0  0  0  0  0  0  0
   -1.4422  -64.9594  -12.2581 C   0  0  0  0  0  0  0  0  0  0  0  0
  1  2  1  0
  2  3  1  0
  3  4  2  0
  4  5  1  0
  5  6  2  0
  6  7  1  0
  7  8  2  0
  8  9  1  0
  9 10  2  0
  9 11  1  0
 11 12  1  0
 12 13  2  0
 13 14  1  0
 14 15  2  0
 15 16  1  0
 15 17  1  0
 17 18  2  0
 18 19  1  0
 19 20  2  0
 20 21  1  0
 21 22  2  0
  8  3  1  0
 22 12  1  0
 22 17  1  0
M  END
>  <smiles>  (97) 
NOc1cnccc1C(=O)Nc1ccc(Cl)c2ncccc12

>  <inchikey>  (97) 
NIVYILVUEHSGMS-UHFFFAOYSA-N

$$$$
MBMSZSMSHWMEML-UHFFFAOYSA-N-P446140-P446140-541666
     RDKit          3D

 22 24  0  0  0  0  0  0  0  0999 V2000
   -1.9163  -62.3851  -10.2736 O   0  0  0  0  0  0  0  0  0  0  0  0
   -2.6424  -62.1548  -11.1625 C   0  0  0  0  0  0  0  0  0  0  0  0
   -2.9693  -62.9811  -12.4322 N   0  0  0  0  0  0  0  0  0  0  0  0
   -2.5558  -64.2672  -12.8154 C   0  0  0  0  0  0  0  0  0  0  0  0
   -3.4412  -64.8988  -13.6965 C   0  0  0  0  0  0  0  0  0  0  0  0
   -3.2350  -66.2148  -14.0741 C   0  0  0  0  0  0  0  0  0  0  0  0
   -2.1322  -66.9084  -13.5841 C   0  0  0  0  0  0  0  0  0  0  0  0
   -1.9782  -68.5682  -14.0636 Cl  0  0  0  0  0  0  0  0  0  0  0  0
   -1.1816  -66.3031  -12.7539 C   0  0  0  0  0  0  0  0  0  0  0  0
   -0.1081  -67.0132  -12.3307 N   0  0  0  0  0  0  0  0  0  0  0  0
    0.8366  -66.4068  -11.5896 C   0  0  0  0  0  0  0  0  0  0  0  0
    0.7918  -65.0764  -11.2588 C   0  0  0  0  0  0  0  0  0  0  0  0
   -0.3097  -64.3445  -11.6836 C   0  0  0  0  0  0  0  0  0  0  0  0
   -1.3730  -64.9421  -12.3952 C   0  0  0  0  0  0  0  0  0  0  0  0
   -3.3855  -60.8409  -11.0720 C   0  0  0  0  0  0  0  0  0  0  0  0
   -3.4062  -60.1957   -9.8200 C   0  0  0  0  0  0  0  0  0  0  0  0
   -2.8052  -60.6812   -8.6876 O   0  0  0  0  0  0  0  0  0  0  0  0
   -4.0544  -58.9763   -9.6851 C   0  0  0  0  0  0  0  0  0  0  0  0
   -4.7194  -58.3566  -10.6833 N   0  0  0  0  0  0  0  0  0  0  0  0
   -4.6872  -58.9852  -11.8840 C   0  0  0  0  0  0  0  0  0  0  0  0
   -4.0157  -60.1828  -12.1361 C   0  0  0  0  0  0  0  0  0  0  0  0
   -3.9259  -60.6809  -13.7807 Cl  0  0  0  0  0  0  0  0  0  0  0  0
  1  2  2  0
  2  3  1  0
  3  4  1  0
  4  5  2  0
  5  6  1  0
  6  7  2  0
  7  8  1  0
  7  9  1  0
  9 10  2  0
 10 11  1  0
 11 12  2  0
 12 13  1  0
 13 14  2  0
  2 15  1  0
 15 16  2  0
 16 17  1  0
 16 18  1  0
 18 19  2  0
 19 20  1  0
 20 21  2  0
 21 22  1  0
 14  4  1  0
 21 15  1  0
 14  9  1  0
M  END
>  <smiles>  (98) 
O=C(Nc1ccc(Cl)c2ncccc12)c1c(O)cncc1Cl

>  <inchikey>  (98) 
MBMSZSMSHWMEML-UHFFFAOYSA-N

$$$$
NQCHAQREQFCPDU-UHFFFAOYSA-N-P446140-P446140-541666
     RDKit          3D

 22 24  0  0  0  0  0  0  0  0999 V2000
   -1.9177  -62.3545  -10.3199 O   0  0  0  0  0  0  0  0  0  0  0  0
   -2.6882  -62.1562  -11.1765 C   0  0  0  0  0  0  0  0  0  0  0  0
   -3.1122  -63.0462  -12.3711 N   0  0  0  0  0  0  0  0  0  0  0  0
   -2.6210  -64.2918  -12.8026 C   0  0  0  0  0  0  0  0  0  0  0  0
   -3.4838  -64.9282  -13.7030 C   0  0  0  0  0  0  0  0  0  0  0  0
   -3.2475  -66.2324  -14.1017 C   0  0  0  0  0  0  0  0  0  0  0  0
   -2.1363  -66.9121  -13.6143 C   0  0  0  0  0  0  0  0  0  0  0  0
   -1.9553  -68.5652  -14.1079 Cl  0  0  0  0  0  0  0  0  0  0  0  0
   -1.2000  -66.2989  -12.7755 C   0  0  0  0  0  0  0  0  0  0  0  0
   -0.1149  -66.9982  -12.3633 N   0  0  0  0  0  0  0  0  0  0  0  0
    0.8216  -66.3882  -11.6161 C   0  0  0  0  0  0  0  0  0  0  0  0
    0.7570  -65.0630  -11.2714 C   0  0  0  0  0  0  0  0  0  0  0  0
   -0.3580  -64.3440  -11.6849 C   0  0  0  0  0  0  0  0  0  0  0  0
   -1.4184  -64.9463  -12.3975 C   0  0  0  0  0  0  0  0  0  0  0  0
   -3.4087  -60.8409  -11.1229 C   0  0  0  0  0  0  0  0  0  0  0  0
   -3.5085  -60.2629   -9.8468 C   0  0  0  0  0  0  0  0  0  0  0  0
   -4.0834  -59.0149   -9.7107 C   0  0  0  0  0  0  0  0  0  0  0  0
   -4.6077  -58.3205  -10.7369 N   0  0  0  0  0  0  0  0  0  0  0  0
   -4.4937  -58.8931  -11.9642 C   0  0  0  0  0  0  0  0  0  0  0  0
   -4.9386  -58.1544  -12.9933 F   0  0  0  0  0  0  0  0  0  0  0  0
   -3.8899  -60.1233  -12.2175 C   0  0  0  0  0  0  0  0  0  0  0  0
   -3.6547  -60.6107  -13.8528 Cl  0  0  0  0  0  0  0  0  0  0  0  0
  1  2  2  0
  2  3  1  0
  3  4  1  0
  4  5  2  0
  5  6  1  0
  6  7  2  0
  7  8  1  0
  7  9  1  0
  9 10  2  0
 10 11  1  0
 11 12  2  0
 12 13  1  0
 13 14  2  0
  2 15  1  0
 15 16  2  0
 16 17  1  0
 17 18  2  0
 18 19  1  0
 19 20  1  0
 19 21  2  0
 21 22  1  0
 14  4  1  0
 21 15  1  0
 14  9  1  0
M  END
>  <smiles>  (99) 
O=C(Nc1ccc(Cl)c2ncccc12)c1ccnc(F)c1Cl

>  <inchikey>  (99) 
NQCHAQREQFCPDU-UHFFFAOYSA-N

$$$$
FLNXUFBJESOTRG-UHFFFAOYSA-N-P446140-P446140-541666
     RDKit          3D

 22 24  0  0  0  0  0  0  0  0999 V2000
   -2.4389  -62.6481   -9.9707 O   0  0  0  0  0  0  0  0  0  0  0  0
   -2.8816  -62.2271  -10.9656 C   0  0  0  0  0  0  0  0  0  0  0  0
   -2.9349  -62.8508  -12.3843 N   0  0  0  0  0  0  0  0  0  0  0  0
   -2.5513  -64.1209  -12.8349 C   0  0  0  0  0  0  0  0  0  0  0  0
   -3.3682  -64.6685  -13.8248 C   0  0  0  0  0  0  0  0  0  0  0  0
   -3.1799  -65.9804  -14.2306 C   0  0  0  0  0  0  0  0  0  0  0  0
   -2.1472  -66.7374  -13.6784 C   0  0  0  0  0  0  0  0  0  0  0  0
   -2.0168  -68.3877  -14.1989 Cl  0  0  0  0  0  0  0  0  0  0  0  0
   -1.2483  -66.2028  -12.7474 C   0  0  0  0  0  0  0  0  0  0  0  0
   -0.2232  -66.9558  -12.2785 N   0  0  0  0  0  0  0  0  0  0  0  0
    0.6526  -66.4134  -11.4118 C   0  0  0  0  0  0  0  0  0  0  0  0
    0.5800  -65.1117  -10.9812 C   0  0  0  0  0  0  0  0  0  0  0  0
   -0.4702  -64.3348  -11.4528 C   0  0  0  0  0  0  0  0  0  0  0  0
   -1.4466  -64.8624  -12.3262 C   0  0  0  0  0  0  0  0  0  0  0  0
   -3.4703  -60.8416  -10.9076 C   0  0  0  0  0  0  0  0  0  0  0  0
   -4.4920  -60.4776  -11.7885 C   0  0  0  0  0  0  0  0  0  0  0  0
   -4.8954  -61.2973  -12.7680 F   0  0  0  0  0  0  0  0  0  0  0  0
   -5.1106  -59.2434  -11.6655 C   0  0  0  0  0  0  0  0  0  0  0  0
   -4.7729  -58.3272  -10.7292 N   0  0  0  0  0  0  0  0  0  0  0  0
   -3.7604  -58.6754   -9.9002 C   0  0  0  0  0  0  0  0  0  0  0  0
   -3.0808  -59.8928   -9.9453 C   0  0  0  0  0  0  0  0  0  0  0  0
   -1.4733  -60.0506   -8.5977 I   0  0  0  0  0  0  0  0  0  0  0  0
  1  2  2  0
  2  3  1  0
  3  4  1  0
  4  5  2  0
  5  6  1  0
  6  7  2  0
  7  8  1  0
  7  9  1  0
  9 10  2  0
 10 11  1  0
 11 12  2  0
 12 13  1  0
 13 14  2  0
  2 15  1  0
 15 16  2  0
 16 17  1  0
 16 18  1  0
 18 19  2  0
 19 20  1  0
 20 21  2  0
 21 22  1  0
 14  4  1  0
 21 15  1  0
 14  9  1  0
M  END
>  <smiles>  (100) 
O=C(Nc1ccc(Cl)c2ncccc12)c1c(F)cncc1I

>  <inchikey>  (100) 
FLNXUFBJESOTRG-UHFFFAOYSA-N

$$$$
QMBRIZARJWEQOY-UHFFFAOYSA-N-P446140-P446140-541666
     RDKit          3D

 22 24  0  0  0  0  0  0  0  0999 V2000
   -2.3713  -62.6143  -10.0008 O   0  0  0  0  0  0  0  0  0  0  0  0
   -2.8623  -62.2191  -10.9838 C   0  0  0  0  0  0  0  0  0  0  0  0
   -2.9575  -62.8668  -12.3903 N   0  0  0  0  0  0  0  0  0  0  0  0
   -2.5632  -64.1359  -12.8367 C   0  0  0  0  0  0  0  0  0  0  0  0
   -3.3884  -64.6971  -13.8126 C   0  0  0  0  0  0  0  0  0  0  0  0
   -3.1932  -66.0087  -14.2155 C   0  0  0  0  0  0  0  0  0  0  0  0
   -2.1479  -66.7542  -13.6723 C   0  0  0  0  0  0  0  0  0  0  0  0
   -2.0106  -68.4056  -14.1874 Cl  0  0  0  0  0  0  0  0  0  0  0  0
   -1.2423  -66.2074  -12.7554 C   0  0  0  0  0  0  0  0  0  0  0  0
   -0.2075  -66.9519  -12.2944 N   0  0  0  0  0  0  0  0  0  0  0  0
    0.6773  -66.3988  -11.4440 C   0  0  0  0  0  0  0  0  0  0  0  0
    0.6050  -65.0935  -11.0248 C   0  0  0  0  0  0  0  0  0  0  0  0
   -0.4552  -64.3255  -11.4886 C   0  0  0  0  0  0  0  0  0  0  0  0
   -1.4437  -64.8650  -12.3411 C   0  0  0  0  0  0  0  0  0  0  0  0
   -3.4817  -60.8478  -10.9209 C   0  0  0  0  0  0  0  0  0  0  0  0
   -4.4873  -60.4682  -11.8123 C   0  0  0  0  0  0  0  0  0  0  0  0
   -4.8793  -61.2728  -12.8087 F   0  0  0  0  0  0  0  0  0  0  0  0
   -5.1052  -59.2337  -11.6793 C   0  0  0  0  0  0  0  0  0  0  0  0
   -4.7798  -58.3322  -10.7236 N   0  0  0  0  0  0  0  0  0  0  0  0
   -3.7850  -58.7012   -9.8812 C   0  0  0  0  0  0  0  0  0  0  0  0
   -3.1120  -59.9196   -9.9334 C   0  0  0  0  0  0  0  0  0  0  0  0
   -1.8246  -60.1157   -8.7973 Cl  0  0  0  0  0  0  0  0  0  0  0  0
  1  2  2  0
  2  3  1  0
  3  4  1  0
  4  5  2  0
  5  6  1  0
  6  7  2  0
  7  8  1  0
  7  9  1  0
  9 10  2  0
 10 11  1  0
 11 12  2  0
 12 13  1  0
 13 14  2  0
  2 15  1  0
 15 16  2  0
 16 17  1  0
 16 18  1  0
 18 19  2  0
 19 20  1  0
 20 21  2  0
 21 22  1  0
 14  4  1  0
 21 15  1  0
 14  9  1  0
M  END
>  <smiles>  (101) 
O=C(Nc1ccc(Cl)c2ncccc12)c1c(F)cncc1Cl

>  <inchikey>  (101) 
QMBRIZARJWEQOY-UHFFFAOYSA-N

$$$$
CWMJVCDCBNGSLM-UHFFFAOYSA-N-P446140-P446140-541666
     RDKit          3D

 22 24  0  0  0  0  0  0  0  0999 V2000
   -1.9053  -60.1573   -9.2420 N   0  0  0  0  0  0  0  0  0  0  0  0
   -3.0726  -59.9327  -10.0124 C   0  0  0  0  0  0  0  0  0  0  0  0
   -3.5036  -60.8441  -11.0010 C   0  0  0  0  0  0  0  0  0  0  0  0
   -2.8838  -62.2182  -11.0444 C   0  0  0  0  0  0  0  0  0  0  0  0
   -2.4246  -62.6182  -10.0450 O   0  0  0  0  0  0  0  0  0  0  0  0
   -2.9413  -62.8647  -12.4545 N   0  0  0  0  0  0  0  0  0  0  0  0
   -2.5435  -64.1348  -12.8895 C   0  0  0  0  0  0  0  0  0  0  0  0
   -3.3460  -64.6915  -13.8855 C   0  0  0  0  0  0  0  0  0  0  0  0
   -3.1579  -66.0104  -14.2674 C   0  0  0  0  0  0  0  0  0  0  0  0
   -2.1382  -66.7646  -13.6879 C   0  0  0  0  0  0  0  0  0  0  0  0
   -2.0080  -68.4222  -14.1835 Cl  0  0  0  0  0  0  0  0  0  0  0  0
   -1.2501  -66.2201  -12.7528 C   0  0  0  0  0  0  0  0  0  0  0  0
   -0.2346  -66.9701  -12.2592 N   0  0  0  0  0  0  0  0  0  0  0  0
    0.6372  -66.4160  -11.3959 C   0  0  0  0  0  0  0  0  0  0  0  0
    0.5685  -65.1055  -10.9920 C   0  0  0  0  0  0  0  0  0  0  0  0
   -0.4745  -64.3329  -11.4865 C   0  0  0  0  0  0  0  0  0  0  0  0
   -1.4479  -64.8725  -12.3560 C   0  0  0  0  0  0  0  0  0  0  0  0
   -4.5660  -60.4974  -11.8472 C   0  0  0  0  0  0  0  0  0  0  0  0
   -5.1562  -59.2523  -11.7027 C   0  0  0  0  0  0  0  0  0  0  0  0
   -4.7592  -58.3367  -10.7969 N   0  0  0  0  0  0  0  0  0  0  0  0
   -3.7222  -58.6940  -10.0041 C   0  0  0  0  0  0  0  0  0  0  0  0
   -3.2722  -57.4474   -8.9008 Cl  0  0  0  0  0  0  0  0  0  0  0  0
  1  2  1  0
  2  3  2  0
  3  4  1  0
  4  5  2  0
  4  6  1  0
  6  7  1  0
  7  8  2  0
  8  9  1  0
  9 10  2  0
 10 11  1  0
 10 12  1  0
 12 13  2  0
 13 14  1  0
 14 15  2  0
 15 16  1  0
 16 17  2  0
  3 18  1  0
 18 19  2  0
 19 20  1  0
 20 21  2  0
 21 22  1  0
 21  2  1  0
 17  7  1  0
 17 12  1  0
M  END
>  <smiles>  (102) 
Nc1c(C(=O)Nc2ccc(Cl)c3ncccc23)ccnc1Cl

>  <inchikey>  (102) 
CWMJVCDCBNGSLM-UHFFFAOYSA-N

$$$$
ZQQXUFUEAUFITQ-UHFFFAOYSA-N-P446140-P446140-541666
     RDKit          3D

 22 24  0  0  0  0  0  0  0  0999 V2000
   -2.4211  -62.5232  -10.0197 O   0  0  0  0  0  0  0  0  0  0  0  0
   -2.9003  -62.1673  -11.0248 C   0  0  0  0  0  0  0  0  0  0  0  0
   -2.9349  -62.8476  -12.4172 N   0  0  0  0  0  0  0  0  0  0  0  0
   -2.4841  -64.1091  -12.8244 C   0  0  0  0  0  0  0  0  0  0  0  0
   -3.2224  -64.7004  -13.8527 C   0  0  0  0  0  0  0  0  0  0  0  0
   -2.9649  -66.0127  -14.2275 C   0  0  0  0  0  0  0  0  0  0  0  0
   -3.6936  -66.5454  -15.2082 F   0  0  0  0  0  0  0  0  0  0  0  0
   -1.9780  -66.7651  -13.6113 C   0  0  0  0  0  0  0  0  0  0  0  0
   -1.7668  -68.4198  -14.0583 Cl  0  0  0  0  0  0  0  0  0  0  0  0
   -1.1727  -66.1564  -12.6474 C   0  0  0  0  0  0  0  0  0  0  0  0
   -0.1274  -66.8870  -12.0497 N   0  0  0  0  0  0  0  0  0  0  0  0
    0.7406  -66.3724  -11.1325 C   0  0  0  0  0  0  0  0  0  0  0  0
    1.6314  -67.0376  -10.6178 O   0  0  0  0  0  0  0  0  0  0  0  0
    0.5771  -64.9414  -10.8107 C   0  0  0  0  0  0  0  0  0  0  0  0
   -0.4123  -64.2173  -11.3482 C   0  0  0  0  0  0  0  0  0  0  0  0
   -1.4000  -64.8140  -12.2581 C   0  0  0  0  0  0  0  0  0  0  0  0
   -3.5741  -60.8240  -11.0036 C   0  0  0  0  0  0  0  0  0  0  0  0
   -4.5630  -60.4157  -11.8983 C   0  0  0  0  0  0  0  0  0  0  0  0
   -5.1273  -59.1620  -11.7181 C   0  0  0  0  0  0  0  0  0  0  0  0
   -4.7692  -58.3017  -10.7342 N   0  0  0  0  0  0  0  0  0  0  0  0
   -3.8127  -58.7223   -9.8808 C   0  0  0  0  0  0  0  0  0  0  0  0
   -3.2010  -59.9556   -9.9706 C   0  0  0  0  0  0  0  0  0  0  0  0
  1  2  2  0
  2  3  1  0
  3  4  1  0
  4  5  2  0
  5  6  1  0
  6  7  1  0
  6  8  2  0
  8  9  1  0
  8 10  1  0
 10 11  1  0
 11 12  1  0
 12 13  2  0
 12 14  1  0
 14 15  2  0
 15 16  1  0
  2 17  1  0
 17 18  2  0
 18 19  1  0
 19 20  2  0
 20 21  1  0
 21 22  2  0
 16  4  1  0
 22 17  1  0
 16 10  2  0
M  END
>  <smiles>  (103) 
O=C(Nc1cc(F)c(Cl)c2[nH]c(=O)ccc12)c1ccncc1

>  <inchikey>  (103) 
ZQQXUFUEAUFITQ-UHFFFAOYSA-N

$$$$
IHISEKLRIPDDHE-UHFFFAOYSA-N-P446140-P446140-541666
     RDKit          3D

 22 24  0  0  0  0  0  0  0  0999 V2000
   -6.0273  -59.2833  -12.0166 N   0  0  0  0  0  0  0  0  0  0  0  0
   -4.8416  -59.6836  -11.3961 C   0  0  0  0  0  0  0  0  0  0  0  0
   -4.3088  -60.9443  -11.6688 C   0  0  0  0  0  0  0  0  0  0  0  0
   -3.2253  -61.4162  -10.9247 C   0  0  0  0  0  0  0  0  0  0  0  0
   -2.6822  -62.7925  -11.0457 C   0  0  0  0  0  0  0  0  0  0  0  0
   -2.1642  -63.2352  -10.0982 O   0  0  0  0  0  0  0  0  0  0  0  0
   -2.8960  -63.4036  -12.4460 N   0  0  0  0  0  0  0  0  0  0  0  0
   -2.4511  -64.6056  -12.9843 C   0  0  0  0  0  0  0  0  0  0  0  0
   -3.2970  -65.1686  -13.9352 C   0  0  0  0  0  0  0  0  0  0  0  0
   -3.0897  -66.4814  -14.3146 C   0  0  0  0  0  0  0  0  0  0  0  0
   -2.0255  -67.2079  -13.7775 C   0  0  0  0  0  0  0  0  0  0  0  0
   -1.8907  -68.8654  -14.2600 Cl  0  0  0  0  0  0  0  0  0  0  0  0
   -1.0972  -66.6394  -12.8980 C   0  0  0  0  0  0  0  0  0  0  0  0
   -0.0431  -67.3583  -12.4394 N   0  0  0  0  0  0  0  0  0  0  0  0
    0.8601  -66.7697  -11.6314 C   0  0  0  0  0  0  0  0  0  0  0  0
    0.7951  -65.4503  -11.2609 C   0  0  0  0  0  0  0  0  0  0  0  0
   -0.2828  -64.7116  -11.7245 C   0  0  0  0  0  0  0  0  0  0  0  0
   -1.2971  -65.2959  -12.5184 C   0  0  0  0  0  0  0  0  0  0  0  0
   -2.6528  -60.6203   -9.9317 C   0  0  0  0  0  0  0  0  0  0  0  0
   -3.1746  -59.3715   -9.6781 C   0  0  0  0  0  0  0  0  0  0  0  0
   -4.2611  -58.9056  -10.3780 N   0  0  0  0  0  0  0  0  0  0  0  0
   -4.7193  -57.7693  -10.0725 O   0  0  0  0  0  0  0  0  0  0  0  0
  1  2  1  0
  2  3  2  0
  3  4  1  0
  4  5  1  0
  5  6  2  0
  5  7  1  0
  7  8  1  0
  8  9  2  0
  9 10  1  0
 10 11  2  0
 11 12  1  0
 11 13  1  0
 13 14  2  0
 14 15  1  0
 15 16  2  0
 16 17  1  0
 17 18  2  0
  4 19  2  0
 19 20  1  0
 20 21  2  0
 21 22  1  0
 21  2  1  0
 18  8  1  0
 18 13  1  0
M  CHG  2  21   1  22  -1
M  END
>  <smiles>  (104) 
Nc1cc(C(=O)Nc2ccc(Cl)c3ncccc23)cc[n+]1[O-]

>  <inchikey>  (104) 
IHISEKLRIPDDHE-UHFFFAOYSA-N

$$$$
DAHJRFNGYBMDNI-UHFFFAOYSA-N-P446140-P446140-541666
     RDKit          3D

 22 24  0  0  0  0  0  0  0  0999 V2000
   -2.2540  -62.4955  -10.1632 O   0  0  0  0  0  0  0  0  0  0  0  0
   -2.8871  -62.2064  -11.1029 C   0  0  0  0  0  0  0  0  0  0  0  0
   -3.1674  -62.9962  -12.4071 N   0  0  0  0  0  0  0  0  0  0  0  0
   -2.6643  -64.2291  -12.8529 C   0  0  0  0  0  0  0  0  0  0  0  0
   -3.4899  -64.8638  -13.7850 C   0  0  0  0  0  0  0  0  0  0  0  0
   -3.2306  -66.1668  -14.1747 C   0  0  0  0  0  0  0  0  0  0  0  0
   -2.1286  -66.8397  -13.6552 C   0  0  0  0  0  0  0  0  0  0  0  0
   -1.9245  -68.4930  -14.1398 Cl  0  0  0  0  0  0  0  0  0  0  0  0
   -1.2221  -66.2207  -12.7881 C   0  0  0  0  0  0  0  0  0  0  0  0
   -0.1370  -66.9043  -12.3498 N   0  0  0  0  0  0  0  0  0  0  0  0
    0.7595  -66.2863  -11.5601 C   0  0  0  0  0  0  0  0  0  0  0  0
    0.6515  -64.9698  -11.1893 C   0  0  0  0  0  0  0  0  0  0  0  0
   -0.4627  -64.2653  -11.6295 C   0  0  0  0  0  0  0  0  0  0  0  0
   -1.4741  -64.8763  -12.4036 C   0  0  0  0  0  0  0  0  0  0  0  0
   -3.5728  -60.8744  -11.0438 C   0  0  0  0  0  0  0  0  0  0  0  0
   -3.3153  -60.0698   -9.9256 C   0  0  0  0  0  0  0  0  0  0  0  0
   -3.9365  -58.8428   -9.8323 C   0  0  0  0  0  0  0  0  0  0  0  0
   -3.6865  -58.0731   -8.7657 F   0  0  0  0  0  0  0  0  0  0  0  0
   -4.8034  -58.3608  -10.7491 N   0  0  0  0  0  0  0  0  0  0  0  0
   -5.0445  -59.1587  -11.8189 C   0  0  0  0  0  0  0  0  0  0  0  0
   -4.4492  -60.3948  -12.0096 C   0  0  0  0  0  0  0  0  0  0  0  0
   -4.7397  -61.0961  -13.1116 F   0  0  0  0  0  0  0  0  0  0  0  0
  1  2  2  0
  2  3  1  0
  3  4  1  0
  4  5  2  0
  5  6  1  0
  6  7  2  0
  7  8  1  0
  7  9  1  0
  9 10  2  0
 10 11  1  0
 11 12  2  0
 12 13  1  0
 13 14  2  0
  2 15  1  0
 15 16  2  0
 16 17  1  0
 17 18  1  0
 17 19  2  0
 19 20  1  0
 20 21  2  0
 21 22  1  0
 14  4  1  0
 21 15  1  0
 14  9  1  0
M  END
>  <smiles>  (105) 
O=C(Nc1ccc(Cl)c2ncccc12)c1cc(F)ncc1F

>  <inchikey>  (105) 
DAHJRFNGYBMDNI-UHFFFAOYSA-N

$$$$
VSHMFQNFMAFKRX-UHFFFAOYSA-N-P446140-P446140-541666
     RDKit          3D

 22 24  0  0  0  0  0  0  0  0999 V2000
   -3.2922  -61.0507   -8.4348 N   0  0  0  0  0  0  0  0  0  0  0  0
   -3.4371  -60.2512   -9.5842 C   0  0  0  0  0  0  0  0  0  0  0  0
   -3.9950  -58.9816   -9.4805 C   0  0  0  0  0  0  0  0  0  0  0  0
   -4.2826  -58.1671  -10.5175 N   0  0  0  0  0  0  0  0  0  0  0  0
   -3.9764  -58.6430  -11.7431 C   0  0  0  0  0  0  0  0  0  0  0  0
   -4.0060  -57.3680  -13.1408 Br  0  0  0  0  0  0  0  0  0  0  0  0
   -3.4891  -59.9181  -11.9901 C   0  0  0  0  0  0  0  0  0  0  0  0
   -3.2348  -60.7421  -10.8881 C   0  0  0  0  0  0  0  0  0  0  0  0
   -2.5385  -62.0595  -11.0506 C   0  0  0  0  0  0  0  0  0  0  0  0
   -1.7596  -62.3404  -10.2235 O   0  0  0  0  0  0  0  0  0  0  0  0
   -2.9525  -62.8160  -12.3401 N   0  0  0  0  0  0  0  0  0  0  0  0
   -2.5736  -64.0860  -12.8174 C   0  0  0  0  0  0  0  0  0  0  0  0
   -3.5013  -64.6810  -13.6755 C   0  0  0  0  0  0  0  0  0  0  0  0
   -3.3355  -65.9955  -14.0850 C   0  0  0  0  0  0  0  0  0  0  0  0
   -2.2350  -66.7267  -13.6442 C   0  0  0  0  0  0  0  0  0  0  0  0
   -2.1350  -68.3841  -14.1485 Cl  0  0  0  0  0  0  0  0  0  0  0  0
   -1.2437  -66.1597  -12.8375 C   0  0  0  0  0  0  0  0  0  0  0  0
   -0.1781  -66.9063  -12.4564 N   0  0  0  0  0  0  0  0  0  0  0  0
    0.8037  -66.3385  -11.7339 C   0  0  0  0  0  0  0  0  0  0  0  0
    0.8074  -65.0116  -11.3887 C   0  0  0  0  0  0  0  0  0  0  0  0
   -0.2843  -64.2437  -11.7747 C   0  0  0  0  0  0  0  0  0  0  0  0
   -1.3893  -64.7998  -12.4559 C   0  0  0  0  0  0  0  0  0  0  0  0
  1  2  1  0
  2  3  2  0
  3  4  1  0
  4  5  2  0
  5  6  1  0
  5  7  1  0
  7  8  2  0
  8  9  1  0
  9 10  2  0
  9 11  1  0
 11 12  1  0
 12 13  2  0
 13 14  1  0
 14 15  2  0
 15 16  1  0
 15 17  1  0
 17 18  2  0
 18 19  1  0
 19 20  2  0
 20 21  1  0
 21 22  2  0
  8  2  1  0
 22 12  1  0
 22 17  1  0
M  END
>  <smiles>  (106) 
Nc1cnc(Br)cc1C(=O)Nc1ccc(Cl)c2ncccc12

>  <inchikey>  (106) 
VSHMFQNFMAFKRX-UHFFFAOYSA-N

$$$$
DERKLRNPOPOCKP-UHFFFAOYSA-N-P446140-P446140-541666
     RDKit          3D

 22 24  0  0  0  0  0  0  0  0999 V2000
   -4.7282  -60.8678  -13.2053 N   0  0  0  0  0  0  0  0  0  0  0  0
   -4.1915  -60.2191  -12.0973 C   0  0  0  0  0  0  0  0  0  0  0  0
   -3.5136  -60.7694  -11.0650 C   0  0  0  0  0  0  0  0  0  0  0  0
   -3.1199  -62.2418  -10.9781 C   0  0  0  0  0  0  0  0  0  0  0  0
   -2.8381  -62.6995   -9.9388 O   0  0  0  0  0  0  0  0  0  0  0  0
   -3.0928  -62.8737  -12.3965 N   0  0  0  0  0  0  0  0  0  0  0  0
   -2.6383  -64.1264  -12.8252 C   0  0  0  0  0  0  0  0  0  0  0  0
   -3.3709  -64.6788  -13.8763 C   0  0  0  0  0  0  0  0  0  0  0  0
   -3.1315  -65.9830  -14.2783 C   0  0  0  0  0  0  0  0  0  0  0  0
   -2.1179  -66.7216  -13.6702 C   0  0  0  0  0  0  0  0  0  0  0  0
   -1.9278  -68.3672  -14.1873 Cl  0  0  0  0  0  0  0  0  0  0  0  0
   -1.2860  -66.1725  -12.6863 C   0  0  0  0  0  0  0  0  0  0  0  0
   -0.2641  -66.9004  -12.1730 N   0  0  0  0  0  0  0  0  0  0  0  0
    0.5466  -66.3441  -11.2539 C   0  0  0  0  0  0  0  0  0  0  0  0
    0.4046  -65.0542  -10.8037 C   0  0  0  0  0  0  0  0  0  0  0  0
   -0.6467  -64.3036  -11.3150 C   0  0  0  0  0  0  0  0  0  0  0  0
   -1.5498  -64.8451  -12.2559 C   0  0  0  0  0  0  0  0  0  0  0  0
   -3.0924  -59.9364   -9.9396 C   0  0  0  0  0  0  0  0  0  0  0  0
   -3.2351  -58.6093   -9.9639 C   0  0  0  0  0  0  0  0  0  0  0  0
   -3.8163  -58.0091  -11.0410 N   0  0  0  0  0  0  0  0  0  0  0  0
   -4.3210  -58.7001  -12.1117 C   0  0  0  0  0  0  0  0  0  0  0  0
   -4.8342  -58.1064  -13.0564 O   0  0  0  0  0  0  0  0  0  0  0  0
  1  2  1  0
  2  3  2  0
  3  4  1  0
  4  5  2  0
  4  6  1  0
  6  7  1  0
  7  8  2  0
  8  9  1  0
  9 10  2  0
 10 11  1  0
 10 12  1  0
 12 13  2  0
 13 14  1  0
 14 15  2  0
 15 16  1  0
 16 17  2  0
  3 18  1  0
 18 19  2  0
 19 20  1  0
 20 21  1  0
 21 22  2  0
 21  2  1  0
 17  7  1  0
 17 12  1  0
M  END
>  <smiles>  (107) 
Nc1c(C(=O)Nc2ccc(Cl)c3ncccc23)cc[nH]c1=O

>  <inchikey>  (107) 
DERKLRNPOPOCKP-UHFFFAOYSA-N

$$$$
LPUFCMLDBVEBNZ-UHFFFAOYSA-N-P446140-P446140-541666
     RDKit          3D

 22 24  0  0  0  0  0  0  0  0999 V2000
   -2.4797  -62.6220   -9.8764 O   0  0  0  0  0  0  0  0  0  0  0  0
   -2.7403  -62.1557  -10.9153 C   0  0  0  0  0  0  0  0  0  0  0  0
   -2.5556  -62.7221  -12.3439 N   0  0  0  0  0  0  0  0  0  0  0  0
   -2.1108  -63.9875  -12.7766 C   0  0  0  0  0  0  0  0  0  0  0  0
   -2.6225  -64.4102  -14.0089 C   0  0  0  0  0  0  0  0  0  0  0  0
   -3.2539  -63.2473  -15.1027 Cl  0  0  0  0  0  0  0  0  0  0  0  0
   -2.5704  -65.7385  -14.3949 C   0  0  0  0  0  0  0  0  0  0  0  0
   -1.8685  -66.6390  -13.6029 C   0  0  0  0  0  0  0  0  0  0  0  0
   -1.8742  -68.3002  -14.1017 Cl  0  0  0  0  0  0  0  0  0  0  0  0
   -1.1395  -66.2199  -12.4827 C   0  0  0  0  0  0  0  0  0  0  0  0
   -0.3305  -67.0894  -11.8427 N   0  0  0  0  0  0  0  0  0  0  0  0
    0.4083  -66.6455  -10.8122 C   0  0  0  0  0  0  0  0  0  0  0  0
    1.4129  -67.8301  -10.0879 Cl  0  0  0  0  0  0  0  0  0  0  0  0
    0.3992  -65.3504  -10.3555 C   0  0  0  0  0  0  0  0  0  0  0  0
   -0.4489  -64.4554  -10.9917 C   0  0  0  0  0  0  0  0  0  0  0  0
   -1.2658  -64.8652  -12.0632 C   0  0  0  0  0  0  0  0  0  0  0  0
   -3.4219  -60.8196  -10.9193 C   0  0  0  0  0  0  0  0  0  0  0  0
   -4.4120  -60.4643  -11.8384 C   0  0  0  0  0  0  0  0  0  0  0  0
   -5.0239  -59.2281  -11.6902 C   0  0  0  0  0  0  0  0  0  0  0  0
   -4.7143  -58.3410  -10.7125 N   0  0  0  0  0  0  0  0  0  0  0  0
   -3.7623  -58.7217   -9.8314 C   0  0  0  0  0  0  0  0  0  0  0  0
   -3.1032  -59.9349   -9.8875 C   0  0  0  0  0  0  0  0  0  0  0  0
  1  2  2  0
  2  3  1  0
  3  4  1  0
  4  5  2  0
  5  6  1  0
  5  7  1  0
  7  8  2  0
  8  9  1  0
  8 10  1  0
 10 11  2  0
 11 12  1  0
 12 13  1  0
 12 14  2  0
 14 15  1  0
 15 16  2  0
  2 17  1  0
 17 18  2  0
 18 19  1  0
 19 20  2  0
 20 21  1  0
 21 22  2  0
 16  4  1  0
 22 17  1  0
 16 10  1  0
M  END
>  <smiles>  (108) 
O=C(Nc1c(Cl)cc(Cl)c2nc(Cl)ccc12)c1ccncc1

>  <inchikey>  (108) 
LPUFCMLDBVEBNZ-UHFFFAOYSA-N

$$$$
UDIADZJKGJIIFF-UHFFFAOYSA-N-P446140-P446140-541666
     RDKit          3D

 22 24  0  0  0  0  0  0  0  0999 V2000
   -2.3568  -62.5626   -9.8803 O   0  0  0  0  0  0  0  0  0  0  0  0
   -2.6946  -62.1292  -10.9110 C   0  0  0  0  0  0  0  0  0  0  0  0
   -2.5752  -62.7215  -12.3359 N   0  0  0  0  0  0  0  0  0  0  0  0
   -2.1129  -63.9812  -12.7685 C   0  0  0  0  0  0  0  0  0  0  0  0
   -2.6216  -64.3978  -14.0053 C   0  0  0  0  0  0  0  0  0  0  0  0
   -3.2452  -63.2288  -15.0992 Cl  0  0  0  0  0  0  0  0  0  0  0  0
   -2.5756  -65.7250  -14.3969 C   0  0  0  0  0  0  0  0  0  0  0  0
   -1.8812  -66.6320  -13.6067 C   0  0  0  0  0  0  0  0  0  0  0  0
   -1.8931  -68.2924  -14.1104 Cl  0  0  0  0  0  0  0  0  0  0  0  0
   -1.1498  -66.2201  -12.4862 C   0  0  0  0  0  0  0  0  0  0  0  0
   -0.3438  -67.0999  -11.8525 N   0  0  0  0  0  0  0  0  0  0  0  0
    0.3996  -66.6529  -10.8356 C   0  0  0  0  0  0  0  0  0  0  0  0
    1.1865  -67.6003  -10.2718 O   0  0  0  0  0  0  0  0  0  0  0  0
    0.4140  -65.3659  -10.3736 C   0  0  0  0  0  0  0  0  0  0  0  0
   -0.4327  -64.4637  -10.9997 C   0  0  0  0  0  0  0  0  0  0  0  0
   -1.2670  -64.8645  -12.0622 C   0  0  0  0  0  0  0  0  0  0  0  0
   -3.3981  -60.8035  -10.9102 C   0  0  0  0  0  0  0  0  0  0  0  0
   -4.4007  -60.4655  -11.8226 C   0  0  0  0  0  0  0  0  0  0  0  0
   -5.0273  -59.2366  -11.6760 C   0  0  0  0  0  0  0  0  0  0  0  0
   -4.7214  -58.3408  -10.7051 N   0  0  0  0  0  0  0  0  0  0  0  0
   -3.7578  -58.7051   -9.8296 C   0  0  0  0  0  0  0  0  0  0  0  0
   -3.0830  -59.9095   -9.8854 C   0  0  0  0  0  0  0  0  0  0  0  0
  1  2  2  0
  2  3  1  0
  3  4  1  0
  4  5  2  0
  5  6  1  0
  5  7  1  0
  7  8  2  0
  8  9  1  0
  8 10  1  0
 10 11  2  0
 11 12  1  0
 12 13  1  0
 12 14  2  0
 14 15  1  0
 15 16  2  0
  2 17  1  0
 17 18  2  0
 18 19  1  0
 19 20  2  0
 20 21  1  0
 21 22  2  0
 16  4  1  0
 22 17  1  0
 16 10  1  0
M  END
>  <smiles>  (109) 
O=C(Nc1c(Cl)cc(Cl)c2nc(O)ccc12)c1ccncc1

>  <inchikey>  (109) 
UDIADZJKGJIIFF-UHFFFAOYSA-N

$$$$
UIKQWLQQVKVMGT-UHFFFAOYSA-N-P446140-P446140-541666
     RDKit          3D

 22 24  0  0  0  0  0  0  0  0999 V2000
   -1.8434  -60.2063   -9.2082 C   0  0  0  0  0  0  0  0  0  0  0  0
   -3.0117  -59.9037  -10.1053 C   0  0  0  0  0  0  0  0  0  0  0  0
   -3.5250  -60.8403  -11.0291 C   0  0  0  0  0  0  0  0  0  0  0  0
   -3.0065  -62.2550  -11.0386 C   0  0  0  0  0  0  0  0  0  0  0  0
   -2.6813  -62.7027  -10.0098 O   0  0  0  0  0  0  0  0  0  0  0  0
   -3.0350  -62.8967  -12.4489 N   0  0  0  0  0  0  0  0  0  0  0  0
   -2.5937  -64.1512  -12.8860 C   0  0  0  0  0  0  0  0  0  0  0  0
   -3.3604  -64.7161  -13.9055 C   0  0  0  0  0  0  0  0  0  0  0  0
   -3.1373  -66.0278  -14.2918 C   0  0  0  0  0  0  0  0  0  0  0  0
   -2.1141  -66.7645  -13.6970 C   0  0  0  0  0  0  0  0  0  0  0  0
   -1.9456  -68.4174  -14.1969 Cl  0  0  0  0  0  0  0  0  0  0  0  0
   -1.2567  -66.2081  -12.7406 C   0  0  0  0  0  0  0  0  0  0  0  0
   -0.2330  -66.9393  -12.2356 N   0  0  0  0  0  0  0  0  0  0  0  0
    0.6003  -66.3785  -11.3395 C   0  0  0  0  0  0  0  0  0  0  0  0
    0.4834  -65.0792  -10.9107 C   0  0  0  0  0  0  0  0  0  0  0  0
   -0.5662  -64.3243  -11.4187 C   0  0  0  0  0  0  0  0  0  0  0  0
   -1.4966  -64.8707  -12.3306 C   0  0  0  0  0  0  0  0  0  0  0  0
   -4.5950  -60.4792  -11.8566 C   0  0  0  0  0  0  0  0  0  0  0  0
   -5.1519  -59.2229  -11.7120 C   0  0  0  0  0  0  0  0  0  0  0  0
   -4.7216  -58.3191  -10.8111 N   0  0  0  0  0  0  0  0  0  0  0  0
   -3.6755  -58.6835  -10.0341 C   0  0  0  0  0  0  0  0  0  0  0  0
   -3.2599  -57.4412   -8.9146 Cl  0  0  0  0  0  0  0  0  0  0  0  0
  1  2  1  0
  2  3  2  0
  3  4  1  0
  4  5  2  0
  4  6  1  0
  6  7  1  0
  7  8  2  0
  8  9  1  0
  9 10  2  0
 10 11  1  0
 10 12  1  0
 12 13  2  0
 13 14  1  0
 14 15  2  0
 15 16  1  0
 16 17  2  0
  3 18  1  0
 18 19  2  0
 19 20  1  0
 20 21  2  0
 21 22  1  0
 21  2  1  0
 17  7  1  0
 17 12  1  0
M  END
>  <smiles>  (110) 
Cc1c(C(=O)Nc2ccc(Cl)c3ncccc23)ccnc1Cl

>  <inchikey>  (110) 
UIKQWLQQVKVMGT-UHFFFAOYSA-N

$$$$
HYUHOVDWSCZSOS-UHFFFAOYSA-N-P446140-P446140-541666
     RDKit          3D

 22 24  0  0  0  0  0  0  0  0999 V2000
   -4.6809  -65.1881  -14.3921 C   0  0  0  0  0  0  0  0  0  0  0  0
   -3.4410  -64.4004  -14.7512 C   0  0  0  0  0  0  0  0  0  0  0  0
   -2.3576  -64.9158  -13.8596 C   0  0  0  0  0  0  0  0  0  0  0  0
   -1.9700  -66.2330  -14.1455 C   0  0  0  0  0  0  0  0  0  0  0  0
   -1.1775  -66.9409  -13.2690 C   0  0  0  0  0  0  0  0  0  0  0  0
   -0.9814  -68.6273  -13.6047 Cl  0  0  0  0  0  0  0  0  0  0  0  0
   -0.5866  -66.3120  -12.1832 C   0  0  0  0  0  0  0  0  0  0  0  0
    0.3033  -67.0004  -11.4396 N   0  0  0  0  0  0  0  0  0  0  0  0
    0.9614  -66.3608  -10.4588 C   0  0  0  0  0  0  0  0  0  0  0  0
    0.7826  -65.0295  -10.1710 C   0  0  0  0  0  0  0  0  0  0  0  0
   -0.1573  -64.3254  -10.9109 C   0  0  0  0  0  0  0  0  0  0  0  0
   -0.9135  -64.9495  -11.9199 C   0  0  0  0  0  0  0  0  0  0  0  0
   -1.8964  -64.2795  -12.6989 C   0  0  0  0  0  0  0  0  0  0  0  0
   -2.4792  -63.0365  -12.3485 N   0  0  0  0  0  0  0  0  0  0  0  0
   -2.7033  -62.3830  -10.9547 C   0  0  0  0  0  0  0  0  0  0  0  0
   -2.3714  -62.7365   -9.8892 O   0  0  0  0  0  0  0  0  0  0  0  0
   -3.4040  -61.0495  -11.0185 C   0  0  0  0  0  0  0  0  0  0  0  0
   -4.3479  -60.6929  -11.9805 C   0  0  0  0  0  0  0  0  0  0  0  0
   -4.9633  -59.4473  -11.8623 C   0  0  0  0  0  0  0  0  0  0  0  0
   -4.6984  -58.5457  -10.8829 N   0  0  0  0  0  0  0  0  0  0  0  0
   -3.7854  -58.9231   -9.9638 C   0  0  0  0  0  0  0  0  0  0  0  0
   -3.1301  -60.1422   -9.9860 C   0  0  0  0  0  0  0  0  0  0  0  0
  1  2  1  0
  2  3  1  0
  3  4  2  0
  4  5  1  0
  5  6  1  0
  5  7  2  0
  7  8  1  0
  8  9  2  0
  9 10  1  0
 10 11  2  0
 11 12  1  0
 12 13  2  0
 13 14  1  0
 14 15  1  0
 15 16  2  0
 15 17  1  0
 17 18  2  0
 18 19  1  0
 19 20  2  0
 20 21  1  0
 21 22  2  0
 13  3  1  0
 22 17  1  0
 12  7  1  0
M  END
>  <smiles>  (111) 
CCc1cc(Cl)c2ncccc2c1NC(=O)c1ccncc1

>  <inchikey>  (111) 
HYUHOVDWSCZSOS-UHFFFAOYSA-N

$$$$
IRBKNRKVDRJDJB-UHFFFAOYSA-N-P446140-P446140-541666
     RDKit          3D

 22 24  0  0  0  0  0  0  0  0999 V2000
   -2.8295  -62.2669  -15.0243 N   0  0  0  0  0  0  0  0  0  0  0  0
   -2.7126  -62.5751  -13.9099 C   0  0  0  0  0  0  0  0  0  0  0  0
   -2.5221  -62.7593  -12.5523 N   0  0  0  0  0  0  0  0  0  0  0  0
   -3.6716  -62.2069  -11.7601 C   0  0  0  0  0  0  0  0  0  0  0  0
   -4.6639  -62.7186  -11.4076 O   0  0  0  0  0  0  0  0  0  0  0  0
   -3.5913  -60.7718  -11.4598 C   0  0  0  0  0  0  0  0  0  0  0  0
   -4.2702  -59.9456  -12.3613 C   0  0  0  0  0  0  0  0  0  0  0  0
   -4.5962  -58.6711  -11.9547 C   0  0  0  0  0  0  0  0  0  0  0  0
   -4.3031  -58.1804  -10.7278 N   0  0  0  0  0  0  0  0  0  0  0  0
   -3.6447  -59.0113   -9.8791 C   0  0  0  0  0  0  0  0  0  0  0  0
   -3.2816  -60.3136  -10.1858 C   0  0  0  0  0  0  0  0  0  0  0  0
   -2.2499  -64.1659  -13.0469 C   0  0  0  0  0  0  0  0  0  0  0  0
   -3.3068  -64.9749  -13.5748 C   0  0  0  0  0  0  0  0  0  0  0  0
   -3.1133  -66.3136  -13.8654 C   0  0  0  0  0  0  0  0  0  0  0  0
   -1.9083  -66.9115  -13.5152 C   0  0  0  0  0  0  0  0  0  0  0  0
   -1.7585  -68.6041  -13.8587 Cl  0  0  0  0  0  0  0  0  0  0  0  0
   -0.8872  -66.2063  -12.8572 C   0  0  0  0  0  0  0  0  0  0  0  0
    0.2206  -66.8487  -12.4239 N   0  0  0  0  0  0  0  0  0  0  0  0
    1.1559  -66.1652  -11.7350 C   0  0  0  0  0  0  0  0  0  0  0  0
    1.0637  -64.8217  -11.4511 C   0  0  0  0  0  0  0  0  0  0  0  0
   -0.0552  -64.1404  -11.9073 C   0  0  0  0  0  0  0  0  0  0  0  0
   -1.0650  -64.8158  -12.6203 C   0  0  0  0  0  0  0  0  0  0  0  0
  1  2  3  0
  2  3  1  0
  3  4  1  0
  4  5  2  0
  4  6  1  0
  6  7  2  0
  7  8  1  0
  8  9  2  0
  9 10  1  0
 10 11  2  0
  3 12  1  0
 12 13  2  0
 13 14  1  0
 14 15  2  0
 15 16  1  0
 15 17  1  0
 17 18  2  0
 18 19  1  0
 19 20  2  0
 20 21  1  0
 21 22  2  0
 11  6  1  0
 22 12  1  0
 22 17  1  0
M  END
>  <smiles>  (112) 
N#CN(C(=O)c1ccncc1)c1ccc(Cl)c2ncccc12

>  <inchikey>  (112) 
IRBKNRKVDRJDJB-UHFFFAOYSA-N

$$$$
DJESMIGURIJDKN-UHFFFAOYSA-N-P446140-P446140-541666
     RDKit          3D

 22 24  0  0  0  0  0  0  0  0999 V2000
    0.4572  -62.8968  -11.6535 C   0  0  0  0  0  0  0  0  0  0  0  0
   -0.0584  -64.3101  -11.7881 C   0  0  0  0  0  0  0  0  0  0  0  0
    0.8517  -65.2402  -11.2557 C   0  0  0  0  0  0  0  0  0  0  0  0
    0.6792  -66.5676  -11.5232 C   0  0  0  0  0  0  0  0  0  0  0  0
   -0.3038  -67.0163  -12.3065 N   0  0  0  0  0  0  0  0  0  0  0  0
   -1.2290  -66.1615  -12.7926 C   0  0  0  0  0  0  0  0  0  0  0  0
   -2.2162  -66.7251  -13.6116 C   0  0  0  0  0  0  0  0  0  0  0  0
   -2.1828  -68.4147  -14.0305 Cl  0  0  0  0  0  0  0  0  0  0  0  0
   -3.2778  -65.9929  -14.1202 C   0  0  0  0  0  0  0  0  0  0  0  0
   -3.3913  -64.6617  -13.7871 C   0  0  0  0  0  0  0  0  0  0  0  0
   -2.4037  -64.0123  -13.0094 C   0  0  0  0  0  0  0  0  0  0  0  0
   -2.9360  -62.7241  -12.4815 N   0  0  0  0  0  0  0  0  0  0  0  0
   -2.0828  -62.1849  -13.7078 C   0  0  0  0  0  0  0  0  0  0  0  0
   -2.6106  -61.9695  -11.2105 C   0  0  0  0  0  0  0  0  0  0  0  0
   -1.8025  -62.1858  -10.3814 O   0  0  0  0  0  0  0  0  0  0  0  0
   -3.4548  -60.7411  -11.0495 C   0  0  0  0  0  0  0  0  0  0  0  0
   -4.4840  -60.3948  -11.9241 C   0  0  0  0  0  0  0  0  0  0  0  0
   -5.1627  -59.2108  -11.6887 C   0  0  0  0  0  0  0  0  0  0  0  0
   -4.8776  -58.3626  -10.6683 N   0  0  0  0  0  0  0  0  0  0  0  0
   -3.8887  -58.7355   -9.8282 C   0  0  0  0  0  0  0  0  0  0  0  0
   -3.1637  -59.8990   -9.9721 C   0  0  0  0  0  0  0  0  0  0  0  0
   -1.2401  -64.7574  -12.5058 C   0  0  0  0  0  0  0  0  0  0  0  0
  1  2  1  0
  2  3  2  0
  3  4  1  0
  4  5  2  0
  5  6  1  0
  6  7  2  0
  7  8  1  0
  7  9  1  0
  9 10  2  0
 10 11  1  0
 11 12  1  0
 12 13  1  0
 12 14  1  0
 14 15  2  0
 14 16  1  0
 16 17  2  0
 17 18  1  0
 18 19  2  0
 19 20  1  0
 20 21  2  0
 11 22  2  0
 22  2  1  0
 22  6  1  0
 21 16  1  0
M  END
>  <smiles>  (113) 
Cc1ccnc2c(Cl)ccc(N(C)C(=O)c3ccncc3)c12

>  <inchikey>  (113) 
DJESMIGURIJDKN-UHFFFAOYSA-N

$$$$
CWFILHVZHLKHPZ-UHFFFAOYSA-N-P446140-P446140-541666
     RDKit          3D

 22 24  0  0  0  0  0  0  0  0999 V2000
    1.6721  -67.2923  -10.7962 C   0  0  0  0  0  0  0  0  0  0  0  0
    0.6384  -66.3830  -11.3858 C   0  0  0  0  0  0  0  0  0  0  0  0
    0.6760  -65.0268  -11.1473 C   0  0  0  0  0  0  0  0  0  0  0  0
   -0.3008  -64.2029  -11.7227 C   0  0  0  0  0  0  0  0  0  0  0  0
   -0.0392  -62.7228  -11.6083 C   0  0  0  0  0  0  0  0  0  0  0  0
   -1.3890  -64.7826  -12.4526 C   0  0  0  0  0  0  0  0  0  0  0  0
   -2.5399  -64.1049  -12.9792 C   0  0  0  0  0  0  0  0  0  0  0  0
   -3.0035  -62.8651  -12.5278 N   0  0  0  0  0  0  0  0  0  0  0  0
   -3.0558  -62.2702  -11.0982 C   0  0  0  0  0  0  0  0  0  0  0  0
   -2.6493  -62.6923  -10.0871 O   0  0  0  0  0  0  0  0  0  0  0  0
   -3.6728  -60.9008  -11.0529 C   0  0  0  0  0  0  0  0  0  0  0  0
   -4.6159  -60.4280  -11.9638 C   0  0  0  0  0  0  0  0  0  0  0  0
   -5.1311  -59.1552  -11.7671 C   0  0  0  0  0  0  0  0  0  0  0  0
   -4.7626  -58.3317  -10.7551 N   0  0  0  0  0  0  0  0  0  0  0  0
   -3.8479  -58.8152   -9.8883 C   0  0  0  0  0  0  0  0  0  0  0  0
   -3.2895  -60.0739   -9.9903 C   0  0  0  0  0  0  0  0  0  0  0  0
   -3.3717  -64.7155  -13.9198 C   0  0  0  0  0  0  0  0  0  0  0  0
   -3.1824  -66.0459  -14.2416 C   0  0  0  0  0  0  0  0  0  0  0  0
   -2.1594  -66.7637  -13.6288 C   0  0  0  0  0  0  0  0  0  0  0  0
   -2.0427  -68.4486  -14.0363 Cl  0  0  0  0  0  0  0  0  0  0  0  0
   -1.2552  -66.1685  -12.7398 C   0  0  0  0  0  0  0  0  0  0  0  0
   -0.2795  -66.9333  -12.1989 N   0  0  0  0  0  0  0  0  0  0  0  0
  1  2  1  0
  2  3  2  0
  3  4  1  0
  4  5  1  0
  4  6  2  0
  6  7  1  0
  7  8  1  0
  8  9  1  0
  9 10  2  0
  9 11  1  0
 11 12  2  0
 12 13  1  0
 13 14  2  0
 14 15  1  0
 15 16  2  0
  7 17  2  0
 17 18  1  0
 18 19  2  0
 19 20  1  0
 19 21  1  0
 21 22  2  0
 22  2  1  0
 21  6  1  0
 16 11  1  0
M  END
>  <smiles>  (114) 
Cc1cc(C)c2c(NC(=O)c3ccncc3)ccc(Cl)c2n1

>  <inchikey>  (114) 
CWFILHVZHLKHPZ-UHFFFAOYSA-N

$$$$
MVWIMMIHWVGVMY-UHFFFAOYSA-N-P446140-P446140-541666
     RDKit          3D

 22 24  0  0  0  0  0  0  0  0999 V2000
   -0.0078  -68.3746  -12.1143 C   0  0  0  0  0  0  0  0  0  0  0  0
   -0.1643  -66.9329  -12.0519 N   0  0  0  0  0  0  0  0  0  0  0  0
    0.7447  -66.2670  -11.2347 C   0  0  0  0  0  0  0  0  0  0  0  0
    1.6713  -66.8014  -10.6269 O   0  0  0  0  0  0  0  0  0  0  0  0
    0.6086  -64.8097  -11.1204 C   0  0  0  0  0  0  0  0  0  0  0  0
   -0.4173  -64.1647  -11.6703 C   0  0  0  0  0  0  0  0  0  0  0  0
   -1.4673  -64.8698  -12.4075 C   0  0  0  0  0  0  0  0  0  0  0  0
   -2.5963  -64.1717  -12.9035 C   0  0  0  0  0  0  0  0  0  0  0  0
   -3.0347  -62.9046  -12.4909 N   0  0  0  0  0  0  0  0  0  0  0  0
   -2.8405  -62.1605  -11.1429 C   0  0  0  0  0  0  0  0  0  0  0  0
   -2.2201  -62.4563  -10.1965 O   0  0  0  0  0  0  0  0  0  0  0  0
   -3.5476  -60.8303  -11.0825 C   0  0  0  0  0  0  0  0  0  0  0  0
   -4.5655  -60.4226  -11.9446 C   0  0  0  0  0  0  0  0  0  0  0  0
   -5.1481  -59.1811  -11.7302 C   0  0  0  0  0  0  0  0  0  0  0  0
   -4.7854  -58.3293  -10.7407 N   0  0  0  0  0  0  0  0  0  0  0  0
   -3.8031  -58.7481   -9.9169 C   0  0  0  0  0  0  0  0  0  0  0  0
   -3.1700  -59.9684  -10.0437 C   0  0  0  0  0  0  0  0  0  0  0  0
   -3.4132  -64.7818  -13.8495 C   0  0  0  0  0  0  0  0  0  0  0  0
   -3.1868  -66.0991  -14.2170 C   0  0  0  0  0  0  0  0  0  0  0  0
   -2.1411  -66.8415  -13.6548 C   0  0  0  0  0  0  0  0  0  0  0  0
   -2.0576  -68.4609  -14.2616 Cl  0  0  0  0  0  0  0  0  0  0  0  0
   -1.2528  -66.2471  -12.7264 C   0  0  0  0  0  0  0  0  0  0  0  0
  1  2  1  0
  2  3  1  0
  3  4  2  0
  3  5  1  0
  5  6  2  0
  6  7  1  0
  7  8  2  0
  8  9  1  0
  9 10  1  0
 10 11  2  0
 10 12  1  0
 12 13  2  0
 13 14  1  0
 14 15  2  0
 15 16  1  0
 16 17  2  0
  8 18  1  0
 18 19  2  0
 19 20  1  0
 20 21  1  0
 20 22  2  0
 22  2  1  0
 22  7  1  0
 17 12  1  0
M  END
>  <smiles>  (115) 
Cn1c(=O)ccc2c(NC(=O)c3ccncc3)ccc(Cl)c21

>  <inchikey>  (115) 
MVWIMMIHWVGVMY-UHFFFAOYSA-N

$$$$
CKCLSNGVOUJKIM-UHFFFAOYSA-N-P446140-P446140-541666
     RDKit          3D

 22 24  0  0  0  0  0  0  0  0999 V2000
   -2.2283  -62.5428  -10.0807 O   0  0  0  0  0  0  0  0  0  0  0  0
   -2.8097  -62.1864  -11.0305 C   0  0  0  0  0  0  0  0  0  0  0  0
   -2.9963  -62.8694  -12.4080 N   0  0  0  0  0  0  0  0  0  0  0  0
   -2.5980  -64.1382  -12.8582 C   0  0  0  0  0  0  0  0  0  0  0  0
   -3.4467  -64.7213  -13.7993 C   0  0  0  0  0  0  0  0  0  0  0  0
   -3.2470  -66.0345  -14.1949 C   0  0  0  0  0  0  0  0  0  0  0  0
   -2.1800  -66.7644  -13.6744 C   0  0  0  0  0  0  0  0  0  0  0  0
   -2.0401  -68.4195  -14.1761 Cl  0  0  0  0  0  0  0  0  0  0  0  0
   -1.2537  -66.1983  -12.7921 C   0  0  0  0  0  0  0  0  0  0  0  0
   -0.2028  -66.9317  -12.3493 N   0  0  0  0  0  0  0  0  0  0  0  0
    0.7097  -66.3596  -11.5427 C   0  0  0  0  0  0  0  0  0  0  0  0
    0.6512  -65.0446  -11.1549 C   0  0  0  0  0  0  0  0  0  0  0  0
   -0.4270  -64.2896  -11.5993 C   0  0  0  0  0  0  0  0  0  0  0  0
   -1.4500  -64.8496  -12.3965 C   0  0  0  0  0  0  0  0  0  0  0  0
   -3.4480  -60.8358  -10.9292 C   0  0  0  0  0  0  0  0  0  0  0  0
   -3.5064  -60.2591   -9.6501 C   0  0  0  0  0  0  0  0  0  0  0  0
   -3.9808  -58.9687   -9.5089 C   0  0  0  0  0  0  0  0  0  0  0  0
   -4.4136  -58.2203  -10.5389 N   0  0  0  0  0  0  0  0  0  0  0  0
   -4.3214  -58.7939  -11.7652 C   0  0  0  0  0  0  0  0  0  0  0  0
   -4.6427  -57.6806  -13.0227 Cl  0  0  0  0  0  0  0  0  0  0  0  0
   -3.8756  -60.0831  -12.0143 C   0  0  0  0  0  0  0  0  0  0  0  0
   -3.7923  -60.5504  -13.2685 F   0  0  0  0  0  0  0  0  0  0  0  0
  1  2  2  0
  2  3  1  0
  3  4  1  0
  4  5  2  0
  5  6  1  0
  6  7  2  0
  7  8  1  0
  7  9  1  0
  9 10  2  0
 10 11  1  0
 11 12  2  0
 12 13  1  0
 13 14  2  0
  2 15  1  0
 15 16  2  0
 16 17  1  0
 17 18  2  0
 18 19  1  0
 19 20  1  0
 19 21  2  0
 21 22  1  0
 14  4  1  0
 21 15  1  0
 14  9  1  0
M  END
>  <smiles>  (116) 
O=C(Nc1ccc(Cl)c2ncccc12)c1ccnc(Cl)c1F

>  <inchikey>  (116) 
CKCLSNGVOUJKIM-UHFFFAOYSA-N

$$$$
GDQSHJPZPPMMGM-UHFFFAOYSA-N-P446140-P446140-541666
     RDKit          3D

 22 24  0  0  0  0  0  0  0  0999 V2000
   -0.6712  -61.9207  -13.7813 C   0  0  0  0  0  0  0  0  0  0  0  0
   -2.1634  -62.2676  -13.8417 C   0  0  0  0  0  0  0  0  0  0  0  0
   -2.9361  -62.7210  -12.4928 N   0  0  0  0  0  0  0  0  0  0  0  0
   -2.5088  -61.8807  -11.3044 C   0  0  0  0  0  0  0  0  0  0  0  0
   -1.6390  -62.0464  -10.5266 O   0  0  0  0  0  0  0  0  0  0  0  0
   -3.3820  -60.6770  -11.1168 C   0  0  0  0  0  0  0  0  0  0  0  0
   -4.4684  -60.3755  -11.9368 C   0  0  0  0  0  0  0  0  0  0  0  0
   -5.1793  -59.2172  -11.6711 C   0  0  0  0  0  0  0  0  0  0  0  0
   -4.8788  -58.3562  -10.6664 N   0  0  0  0  0  0  0  0  0  0  0  0
   -3.8378  -58.6884   -9.8738 C   0  0  0  0  0  0  0  0  0  0  0  0
   -3.0730  -59.8207  -10.0553 C   0  0  0  0  0  0  0  0  0  0  0  0
   -2.4481  -64.0587  -12.9718 C   0  0  0  0  0  0  0  0  0  0  0  0
   -3.4404  -64.7305  -13.7260 C   0  0  0  0  0  0  0  0  0  0  0  0
   -3.3017  -66.0583  -14.0879 C   0  0  0  0  0  0  0  0  0  0  0  0
   -2.1968  -66.7750  -13.6471 C   0  0  0  0  0  0  0  0  0  0  0  0
   -2.1103  -68.4440  -14.1192 Cl  0  0  0  0  0  0  0  0  0  0  0  0
   -1.2150  -66.2041  -12.8317 C   0  0  0  0  0  0  0  0  0  0  0  0
   -0.1976  -66.9877  -12.4005 N   0  0  0  0  0  0  0  0  0  0  0  0
    0.7449  -66.4759  -11.5929 C   0  0  0  0  0  0  0  0  0  0  0  0
    0.7482  -65.1676  -11.1932 C   0  0  0  0  0  0  0  0  0  0  0  0
   -0.2846  -64.3545  -11.6462 C   0  0  0  0  0  0  0  0  0  0  0  0
   -1.3333  -64.8303  -12.4705 C   0  0  0  0  0  0  0  0  0  0  0  0
  1  2  1  0
  2  3  1  0
  3  4  1  0
  4  5  2  0
  4  6  1  0
  6  7  2  0
  7  8  1  0
  8  9  2  0
  9 10  1  0
 10 11  2  0
  3 12  1  0
 12 13  2  0
 13 14  1  0
 14 15  2  0
 15 16  1  0
 15 17  1  0
 17 18  2  0
 18 19  1  0
 19 20  2  0
 20 21  1  0
 21 22  2  0
 11  6  1  0
 22 12  1  0
 22 17  1  0
M  END
>  <smiles>  (117) 
CCN(C(=O)c1ccncc1)c1ccc(Cl)c2ncccc12

>  <inchikey>  (117) 
GDQSHJPZPPMMGM-UHFFFAOYSA-N

$$$$
VBLZIFNMNLCKAM-UHFFFAOYSA-N-P446140-P446140-541666
     RDKit          3D

 22 24  0  0  0  0  0  0  0  0999 V2000
    1.8270  -67.3575  -11.0551 C   0  0  0  0  0  0  0  0  0  0  0  0
    0.7201  -66.4526  -11.5002 C   0  0  0  0  0  0  0  0  0  0  0  0
    0.6941  -65.1345  -11.1181 C   0  0  0  0  0  0  0  0  0  0  0  0
   -0.3660  -64.3517  -11.5560 C   0  0  0  0  0  0  0  0  0  0  0  0
   -0.2634  -63.0374  -11.1898 O   0  0  0  0  0  0  0  0  0  0  0  0
   -1.4197  -64.8518  -12.3709 C   0  0  0  0  0  0  0  0  0  0  0  0
   -2.5658  -64.1429  -12.8811 C   0  0  0  0  0  0  0  0  0  0  0  0
   -3.0170  -62.8817  -12.4643 N   0  0  0  0  0  0  0  0  0  0  0  0
   -2.9699  -62.2067  -11.0731 C   0  0  0  0  0  0  0  0  0  0  0  0
   -2.4787  -62.5641  -10.0733 O   0  0  0  0  0  0  0  0  0  0  0  0
   -3.6238  -60.8524  -11.0421 C   0  0  0  0  0  0  0  0  0  0  0  0
   -3.2419  -59.9991   -9.9984 C   0  0  0  0  0  0  0  0  0  0  0  0
   -3.8324  -58.7560   -9.8989 C   0  0  0  0  0  0  0  0  0  0  0  0
   -4.7777  -58.3108  -10.7515 N   0  0  0  0  0  0  0  0  0  0  0  0
   -5.1409  -59.1539  -11.7487 C   0  0  0  0  0  0  0  0  0  0  0  0
   -4.5962  -60.4150  -11.9402 C   0  0  0  0  0  0  0  0  0  0  0  0
   -3.3926  -64.7316  -13.8438 C   0  0  0  0  0  0  0  0  0  0  0  0
   -3.1960  -66.0467  -14.2208 C   0  0  0  0  0  0  0  0  0  0  0  0
   -2.1508  -66.7738  -13.6620 C   0  0  0  0  0  0  0  0  0  0  0  0
   -2.0165  -68.4368  -14.1460 Cl  0  0  0  0  0  0  0  0  0  0  0  0
   -1.2421  -66.2058  -12.7621 C   0  0  0  0  0  0  0  0  0  0  0  0
   -0.2213  -66.9725  -12.3093 N   0  0  0  0  0  0  0  0  0  0  0  0
  1  2  1  0
  2  3  2  0
  3  4  1  0
  4  5  1  0
  4  6  2  0
  6  7  1  0
  7  8  1  0
  8  9  1  0
  9 10  2  0
  9 11  1  0
 11 12  2  0
 12 13  1  0
 13 14  2  0
 14 15  1  0
 15 16  2  0
  7 17  2  0
 17 18  1  0
 18 19  2  0
 19 20  1  0
 19 21  1  0
 21 22  2  0
 22  2  1  0
 21  6  1  0
 16 11  1  0
M  END
>  <smiles>  (118) 
Cc1cc(O)c2c(NC(=O)c3ccncc3)ccc(Cl)c2n1

>  <inchikey>  (118) 
VBLZIFNMNLCKAM-UHFFFAOYSA-N

$$$$
BNEOMARKXMGGTG-UHFFFAOYSA-N-P446140-P446140-541666
     RDKit          3D

 23 25  0  0  0  0  0  0  0  0999 V2000
   -1.1033  -61.2514  -11.1864 O   0  0  0  0  0  0  0  0  0  0  0  0
   -2.2119  -61.4872  -11.4563 C   0  0  0  0  0  0  0  0  0  0  0  0
   -2.8624  -62.7915  -11.9576 N   0  0  0  0  0  0  0  0  0  0  0  0
   -2.2877  -64.0141  -12.3113 C   0  0  0  0  0  0  0  0  0  0  0  0
   -3.0217  -64.7989  -13.1926 C   0  0  0  0  0  0  0  0  0  0  0  0
   -2.5285  -66.0475  -13.5791 C   0  0  0  0  0  0  0  0  0  0  0  0
   -3.4837  -66.9845  -14.6351 Cl  0  0  0  0  0  0  0  0  0  0  0  0
   -1.3205  -66.5711  -13.1167 C   0  0  0  0  0  0  0  0  0  0  0  0
   -0.8991  -67.7959  -13.4942 N   0  0  0  0  0  0  0  0  0  0  0  0
    0.2627  -68.2607  -12.9969 C   0  0  0  0  0  0  0  0  0  0  0  0
    1.0544  -67.5696  -12.1175 C   0  0  0  0  0  0  0  0  0  0  0  0
    0.6261  -66.3255  -11.7233 C   0  0  0  0  0  0  0  0  0  0  0  0
   -0.5751  -65.7899  -12.2208 C   0  0  0  0  0  0  0  0  0  0  0  0
   -1.0700  -64.5282  -11.8343 C   0  0  0  0  0  0  0  0  0  0  0  0
   -0.3593  -63.8800  -10.7548 N   0  0  0  0  0  0  0  0  0  0  0  0
   -0.9015  -63.9077   -9.6392 O   0  0  0  0  0  0  0  0  0  0  0  0
    0.7651  -63.4207  -11.0049 O   0  0  0  0  0  0  0  0  0  0  0  0
   -3.2186  -60.4287  -11.2058 C   0  0  0  0  0  0  0  0  0  0  0  0
   -3.0474  -59.6793  -10.0414 C   0  0  0  0  0  0  0  0  0  0  0  0
   -3.9368  -58.6631   -9.7930 C   0  0  0  0  0  0  0  0  0  0  0  0
   -4.9660  -58.3615  -10.6146 N   0  0  0  0  0  0  0  0  0  0  0  0
   -5.1177  -59.1195  -11.7307 C   0  0  0  0  0  0  0  0  0  0  0  0
   -4.2702  -60.1539  -12.0770 C   0  0  0  0  0  0  0  0  0  0  0  0
  1  2  2  0
  2  3  1  0
  3  4  1  0
  4  5  2  0
  5  6  1  0
  6  7  1  0
  6  8  2  0
  8  9  1  0
  9 10  2  0
 10 11  1  0
 11 12  2  0
 12 13  1  0
 13 14  2  0
 14 15  1  0
 15 16  2  0
 15 17  1  0
  2 18  1  0
 18 19  2  0
 19 20  1  0
 20 21  2  0
 21 22  1  0
 22 23  2  0
 14  4  1  0
 23 18  1  0
 13  8  1  0
M  CHG  2  15   1  17  -1
M  END
>  <smiles>  (119) 
O=C(Nc1cc(Cl)c2ncccc2c1[N+](=O)[O-])c1ccncc1

>  <inchikey>  (119) 
BNEOMARKXMGGTG-UHFFFAOYSA-N

$$$$
GJLJGXBKRLRYIN-UHFFFAOYSA-N-P446140-P446140-541666
     RDKit          3D

 23 25  0  0  0  0  0  0  0  0999 V2000
   -1.3366  -60.0493  -14.3566 C   0  0  0  0  0  0  0  0  0  0  0  0
   -1.0984  -61.0749  -13.5274 C   0  0  0  0  0  0  0  0  0  0  0  0
   -1.6061  -62.4892  -13.7421 C   0  0  0  0  0  0  0  0  0  0  0  0
   -2.5189  -62.8288  -12.4631 N   0  0  0  0  0  0  0  0  0  0  0  0
   -3.8109  -62.0759  -12.5026 C   0  0  0  0  0  0  0  0  0  0  0  0
   -4.8446  -62.3683  -12.9694 O   0  0  0  0  0  0  0  0  0  0  0  0
   -3.8132  -60.7524  -11.8534 C   0  0  0  0  0  0  0  0  0  0  0  0
   -4.4985  -59.7672  -12.5586 C   0  0  0  0  0  0  0  0  0  0  0  0
   -4.7154  -58.5541  -11.9617 C   0  0  0  0  0  0  0  0  0  0  0  0
   -4.3166  -58.2615  -10.7038 N   0  0  0  0  0  0  0  0  0  0  0  0
   -3.6396  -59.2416  -10.0449 C   0  0  0  0  0  0  0  0  0  0  0  0
   -3.3565  -60.4972  -10.5697 C   0  0  0  0  0  0  0  0  0  0  0  0
   -2.1885  -64.1984  -12.9096 C   0  0  0  0  0  0  0  0  0  0  0  0
   -3.1374  -64.8620  -13.7179 C   0  0  0  0  0  0  0  0  0  0  0  0
   -2.9838  -66.2012  -14.0321 C   0  0  0  0  0  0  0  0  0  0  0  0
   -1.9049  -66.9062  -13.5028 C   0  0  0  0  0  0  0  0  0  0  0  0
   -1.7931  -68.5839  -13.9270 Cl  0  0  0  0  0  0  0  0  0  0  0  0
   -0.9724  -66.3130  -12.6337 C   0  0  0  0  0  0  0  0  0  0  0  0
    0.0419  -67.0330  -12.1012 N   0  0  0  0  0  0  0  0  0  0  0  0
    0.8813  -66.4453  -11.2244 C   0  0  0  0  0  0  0  0  0  0  0  0
    0.7732  -65.1323  -10.8250 C   0  0  0  0  0  0  0  0  0  0  0  0
   -0.2521  -64.3762  -11.3710 C   0  0  0  0  0  0  0  0  0  0  0  0
   -1.1409  -64.9436  -12.3059 C   0  0  0  0  0  0  0  0  0  0  0  0
  1  2  2  0
  2  3  1  0
  3  4  1  0
  4  5  1  0
  5  6  2  0
  5  7  1  0
  7  8  2  0
  8  9  1  0
  9 10  2  0
 10 11  1  0
 11 12  2  0
  4 13  1  0
 13 14  2  0
 14 15  1  0
 15 16  2  0
 16 17  1  0
 16 18  1  0
 18 19  2  0
 19 20  1  0
 20 21  2  0
 21 22  1  0
 22 23  2  0
 12  7  1  0
 23 13  1  0
 23 18  1  0
M  END
>  <smiles>  (120) 
C=CCN(C(=O)c1ccncc1)c1ccc(Cl)c2ncccc12

>  <inchikey>  (120) 
GJLJGXBKRLRYIN-UHFFFAOYSA-N

$$$$
NBRANNZBVSOWIM-UHFFFAOYSA-N-P446140-P446140-541666
     RDKit          3D

 23 25  0  0  0  0  0  0  0  0999 V2000
   -0.3453  -62.0956  -13.3942 C   0  0  0  0  0  0  0  0  0  0  0  0
   -1.8726  -62.1793  -13.5945 C   0  0  0  0  0  0  0  0  0  0  0  0
   -2.2733  -62.3730  -15.0743 C   0  0  0  0  0  0  0  0  0  0  0  0
   -2.8778  -62.6941  -12.3880 N   0  0  0  0  0  0  0  0  0  0  0  0
   -2.5986  -61.9617  -11.0904 C   0  0  0  0  0  0  0  0  0  0  0  0
   -1.8637  -62.2262  -10.2090 O   0  0  0  0  0  0  0  0  0  0  0  0
   -3.4238  -60.7169  -10.9698 C   0  0  0  0  0  0  0  0  0  0  0  0
   -4.4417  -60.3832  -11.8641 C   0  0  0  0  0  0  0  0  0  0  0  0
   -5.1209  -59.1951  -11.6583 C   0  0  0  0  0  0  0  0  0  0  0  0
   -4.8475  -58.3337  -10.6463 N   0  0  0  0  0  0  0  0  0  0  0  0
   -3.8664  -58.6921   -9.7901 C   0  0  0  0  0  0  0  0  0  0  0  0
   -3.1411  -59.8586   -9.9048 C   0  0  0  0  0  0  0  0  0  0  0  0
   -2.3818  -64.0163  -12.8887 C   0  0  0  0  0  0  0  0  0  0  0  0
   -3.3726  -64.6513  -13.6771 C   0  0  0  0  0  0  0  0  0  0  0  0
   -3.2545  -65.9682  -14.0873 C   0  0  0  0  0  0  0  0  0  0  0  0
   -2.1697  -66.7186  -13.6565 C   0  0  0  0  0  0  0  0  0  0  0  0
   -2.0964  -68.3678  -14.1964 Cl  0  0  0  0  0  0  0  0  0  0  0  0
   -1.2098  -66.2014  -12.7818 C   0  0  0  0  0  0  0  0  0  0  0  0
   -0.2187  -67.0209  -12.3568 N   0  0  0  0  0  0  0  0  0  0  0  0
    0.6724  -66.5801  -11.4545 C   0  0  0  0  0  0  0  0  0  0  0  0
    0.6395  -65.3147  -10.9364 C   0  0  0  0  0  0  0  0  0  0  0  0
   -0.3615  -64.4617  -11.3865 C   0  0  0  0  0  0  0  0  0  0  0  0
   -1.3328  -64.8499  -12.3426 C   0  0  0  0  0  0  0  0  0  0  0  0
  1  2  1  0
  2  3  1  0
  2  4  1  0
  4  5  1  0
  5  6  2  0
  5  7  1  0
  7  8  2  0
  8  9  1  0
  9 10  2  0
 10 11  1  0
 11 12  2  0
  4 13  1  0
 13 14  2  0
 14 15  1  0
 15 16  2  0
 16 17  1  0
 16 18  1  0
 18 19  2  0
 19 20  1  0
 20 21  2  0
 21 22  1  0
 22 23  2  0
 12  7  1  0
 23 13  1  0
 23 18  1  0
M  END
>  <smiles>  (121) 
CC(C)N(C(=O)c1ccncc1)c1ccc(Cl)c2ncccc12

>  <inchikey>  (121) 
NBRANNZBVSOWIM-UHFFFAOYSA-N

$$$$
LSANSQJDMMMGPT-UHFFFAOYSA-N-P446140-P446140-541666
     RDKit          3D

 23 25  0  0  0  0  0  0  0  0999 V2000
   -0.4628  -69.2052  -11.3775 C   0  0  0  0  0  0  0  0  0  0  0  0
    0.2893  -68.2857  -12.3298 C   0  0  0  0  0  0  0  0  0  0  0  0
   -0.0524  -66.8800  -12.1443 N   0  0  0  0  0  0  0  0  0  0  0  0
    0.7680  -66.2104  -11.2341 C   0  0  0  0  0  0  0  0  0  0  0  0
    1.6779  -66.7314  -10.5896 O   0  0  0  0  0  0  0  0  0  0  0  0
    0.5729  -64.7660  -11.0791 C   0  0  0  0  0  0  0  0  0  0  0  0
   -0.4516  -64.1431  -11.6531 C   0  0  0  0  0  0  0  0  0  0  0  0
   -1.4629  -64.8694  -12.4227 C   0  0  0  0  0  0  0  0  0  0  0  0
   -2.6089  -64.1871  -12.9088 C   0  0  0  0  0  0  0  0  0  0  0  0
   -3.0485  -62.9200  -12.4946 N   0  0  0  0  0  0  0  0  0  0  0  0
   -2.9186  -62.2070  -11.1224 C   0  0  0  0  0  0  0  0  0  0  0  0
   -2.3583  -62.5333  -10.1489 O   0  0  0  0  0  0  0  0  0  0  0  0
   -3.5997  -60.8623  -11.0724 C   0  0  0  0  0  0  0  0  0  0  0  0
   -4.5767  -60.4187  -11.9632 C   0  0  0  0  0  0  0  0  0  0  0  0
   -5.1347  -59.1648  -11.7534 C   0  0  0  0  0  0  0  0  0  0  0  0
   -4.7815  -58.3311  -10.7452 N   0  0  0  0  0  0  0  0  0  0  0  0
   -3.8350  -58.7819   -9.8971 C   0  0  0  0  0  0  0  0  0  0  0  0
   -3.2316  -60.0181  -10.0152 C   0  0  0  0  0  0  0  0  0  0  0  0
   -3.4234  -64.8046  -13.8484 C   0  0  0  0  0  0  0  0  0  0  0  0
   -3.1819  -66.1191  -14.2108 C   0  0  0  0  0  0  0  0  0  0  0  0
   -2.1133  -66.8472  -13.6666 C   0  0  0  0  0  0  0  0  0  0  0  0
   -2.0901  -68.4838  -14.2280 Cl  0  0  0  0  0  0  0  0  0  0  0  0
   -1.2049  -66.2374  -12.7658 C   0  0  0  0  0  0  0  0  0  0  0  0
  1  2  1  0
  2  3  1  0
  3  4  1  0
  4  5  2  0
  4  6  1  0
  6  7  2  0
  7  8  1  0
  8  9  2  0
  9 10  1  0
 10 11  1  0
 11 12  2  0
 11 13  1  0
 13 14  2  0
 14 15  1  0
 15 16  2  0
 16 17  1  0
 17 18  2  0
  9 19  1  0
 19 20  2  0
 20 21  1  0
 21 22  1  0
 21 23  2  0
 23  3  1  0
 23  8  1  0
 18 13  1  0
M  END
>  <smiles>  (122) 
CCn1c(=O)ccc2c(NC(=O)c3ccncc3)ccc(Cl)c21

>  <inchikey>  (122) 
LSANSQJDMMMGPT-UHFFFAOYSA-N

$$$$
PTSWVUFUDDKMCM-UHFFFAOYSA-N-P446140-P446140-541666
     RDKit          3D

 23 25  0  0  0  0  0  0  0  0999 V2000
   -2.3534  -62.6391   -9.7999 O   0  0  0  0  0  0  0  0  0  0  0  0
   -2.6038  -62.2068  -10.8565 C   0  0  0  0  0  0  0  0  0  0  0  0
   -2.4038  -62.8199  -12.2654 N   0  0  0  0  0  0  0  0  0  0  0  0
   -1.9515  -64.1044  -12.6539 C   0  0  0  0  0  0  0  0  0  0  0  0
   -2.5294  -64.6477  -13.8122 C   0  0  0  0  0  0  0  0  0  0  0  0
   -3.3755  -63.7997  -14.6507 C   0  0  0  0  0  0  0  0  0  0  0  0
   -3.2867  -62.5899  -14.7552 O   0  0  0  0  0  0  0  0  0  0  0  0
   -4.3328  -64.5320  -15.2219 O   0  0  0  0  0  0  0  0  0  0  0  0
   -2.3914  -65.9944  -14.1395 C   0  0  0  0  0  0  0  0  0  0  0  0
   -1.5927  -66.8011  -13.3493 C   0  0  0  0  0  0  0  0  0  0  0  0
   -1.5328  -68.4822  -13.7692 Cl  0  0  0  0  0  0  0  0  0  0  0  0
   -0.8566  -66.2764  -12.2834 C   0  0  0  0  0  0  0  0  0  0  0  0
    0.0145  -67.0682  -11.6252 N   0  0  0  0  0  0  0  0  0  0  0  0
    0.7640  -66.5396  -10.6407 C   0  0  0  0  0  0  0  0  0  0  0  0
    0.6964  -65.2207  -10.2591 C   0  0  0  0  0  0  0  0  0  0  0  0
   -0.2109  -64.4013  -10.9143 C   0  0  0  0  0  0  0  0  0  0  0  0
   -1.0369  -64.9049  -11.9346 C   0  0  0  0  0  0  0  0  0  0  0  0
   -3.3109  -60.8771  -10.9005 C   0  0  0  0  0  0  0  0  0  0  0  0
   -4.2827  -60.5416  -11.8472 C   0  0  0  0  0  0  0  0  0  0  0  0
   -4.9265  -59.3153  -11.7216 C   0  0  0  0  0  0  0  0  0  0  0  0
   -4.6702  -58.4159  -10.7393 N   0  0  0  0  0  0  0  0  0  0  0  0
   -3.7350  -58.7763   -9.8321 C   0  0  0  0  0  0  0  0  0  0  0  0
   -3.0464  -59.9768   -9.8653 C   0  0  0  0  0  0  0  0  0  0  0  0
  1  2  2  0
  2  3  1  0
  3  4  1  0
  4  5  2  0
  5  6  1  0
  6  7  2  0
  6  8  1  0
  5  9  1  0
  9 10  2  0
 10 11  1  0
 10 12  1  0
 12 13  2  0
 13 14  1  0
 14 15  2  0
 15 16  1  0
 16 17  2  0
  2 18  1  0
 18 19  2  0
 19 20  1  0
 20 21  2  0
 21 22  1  0
 22 23  2  0
 17  4  1  0
 23 18  1  0
 17 12  1  0
M  END
>  <smiles>  (123) 
O=C(Nc1c(C(=O)O)cc(Cl)c2ncccc12)c1ccncc1

>  <inchikey>  (123) 
PTSWVUFUDDKMCM-UHFFFAOYSA-N

$$$$
MUUSBKMIBUASGF-UHFFFAOYSA-N-P446140-P446140-541666
     RDKit          3D

 23 25  0  0  0  0  0  0  0  0999 V2000
   -4.8695  -62.3535  -12.9864 O   0  0  0  0  0  0  0  0  0  0  0  0
   -3.8066  -62.0296  -12.6163 C   0  0  0  0  0  0  0  0  0  0  0  0
   -3.7939  -60.7202  -11.9384 C   0  0  0  0  0  0  0  0  0  0  0  0
   -3.2964  -60.4877  -10.6651 C   0  0  0  0  0  0  0  0  0  0  0  0
   -3.5827  -59.2501  -10.0983 C   0  0  0  0  0  0  0  0  0  0  0  0
   -4.2956  -58.2643  -10.7087 N   0  0  0  0  0  0  0  0  0  0  0  0
   -4.7319  -58.5351  -11.9587 C   0  0  0  0  0  0  0  0  0  0  0  0
   -4.5278  -59.7337  -12.5847 C   0  0  0  0  0  0  0  0  0  0  0  0
   -2.5078  -62.7701  -12.6367 N   0  0  0  0  0  0  0  0  0  0  0  0
   -1.6832  -62.4875  -14.0239 C   0  0  0  0  0  0  0  0  0  0  0  0
   -1.3741  -60.9796  -14.1961 C   0  0  0  0  0  0  0  0  0  0  0  0
   -2.4704  -60.2565  -14.7441 O   0  0  0  0  0  0  0  0  0  0  0  0
   -2.1971  -64.1596  -13.0352 C   0  0  0  0  0  0  0  0  0  0  0  0
   -3.1819  -64.8661  -13.7598 C   0  0  0  0  0  0  0  0  0  0  0  0
   -3.0325  -66.2164  -14.0238 C   0  0  0  0  0  0  0  0  0  0  0  0
   -1.9277  -66.8928  -13.5117 C   0  0  0  0  0  0  0  0  0  0  0  0
   -1.8165  -68.5840  -13.8782 Cl  0  0  0  0  0  0  0  0  0  0  0  0
   -0.9697  -66.2600  -12.7010 C   0  0  0  0  0  0  0  0  0  0  0  0
    0.0593  -66.9567  -12.1652 N   0  0  0  0  0  0  0  0  0  0  0  0
    0.9189  -66.3327  -11.3343 C   0  0  0  0  0  0  0  0  0  0  0  0
    0.8217  -65.0025  -10.9928 C   0  0  0  0  0  0  0  0  0  0  0  0
   -0.2139  -64.2686  -11.5505 C   0  0  0  0  0  0  0  0  0  0  0  0
   -1.1287  -64.8761  -12.4340 C   0  0  0  0  0  0  0  0  0  0  0  0
  1  2  2  0
  2  3  1  0
  3  4  2  0
  4  5  1  0
  5  6  2  0
  6  7  1  0
  7  8  2  0
  2  9  1  0
  9 10  1  0
 10 11  1  0
 11 12  1  0
  9 13  1  0
 13 14  2  0
 14 15  1  0
 15 16  2  0
 16 17  1  0
 16 18  1  0
 18 19  2  0
 19 20  1  0
 20 21  2  0
 21 22  1  0
 22 23  2  0
  8  3  1  0
 23 13  1  0
 23 18  1  0
M  END
>  <smiles>  (124) 
O=C(c1ccncc1)N(CCO)c1ccc(Cl)c2ncccc12

>  <inchikey>  (124) 
MUUSBKMIBUASGF-UHFFFAOYSA-N

$$$$
GQSYXSJUJNYAHD-UHFFFAOYSA-N-P446140-P446140-541666
     RDKit          3D

 23 25  0  0  0  0  0  0  0  0999 V2000
   -2.0781  -59.7125  -14.3178 C   0  0  0  0  0  0  0  0  0  0  0  0
   -1.9593  -60.8587  -13.9784 C   0  0  0  0  0  0  0  0  0  0  0  0
   -1.7619  -62.2848  -13.6035 C   0  0  0  0  0  0  0  0  0  0  0  0
   -2.8432  -62.6927  -12.4794 N   0  0  0  0  0  0  0  0  0  0  0  0
   -2.5863  -61.9611  -11.1772 C   0  0  0  0  0  0  0  0  0  0  0  0
   -1.9244  -62.2639  -10.2499 O   0  0  0  0  0  0  0  0  0  0  0  0
   -3.3974  -60.7075  -11.0522 C   0  0  0  0  0  0  0  0  0  0  0  0
   -4.4676  -60.4011  -11.8918 C   0  0  0  0  0  0  0  0  0  0  0  0
   -5.1507  -59.2182  -11.6662 C   0  0  0  0  0  0  0  0  0  0  0  0
   -4.8429  -58.3410  -10.6774 N   0  0  0  0  0  0  0  0  0  0  0  0
   -3.8155  -58.6773   -9.8681 C   0  0  0  0  0  0  0  0  0  0  0  0
   -3.0767  -59.8329  -10.0106 C   0  0  0  0  0  0  0  0  0  0  0  0
   -2.4196  -64.0503  -12.9316 C   0  0  0  0  0  0  0  0  0  0  0  0
   -3.3858  -64.6621  -13.7550 C   0  0  0  0  0  0  0  0  0  0  0  0
   -3.2624  -65.9897  -14.1270 C   0  0  0  0  0  0  0  0  0  0  0  0
   -2.1911  -66.7424  -13.6527 C   0  0  0  0  0  0  0  0  0  0  0  0
   -2.1216  -68.4049  -14.1487 Cl  0  0  0  0  0  0  0  0  0  0  0  0
   -1.2215  -66.2083  -12.7951 C   0  0  0  0  0  0  0  0  0  0  0  0
   -0.2181  -67.0034  -12.3525 N   0  0  0  0  0  0  0  0  0  0  0  0
    0.7045  -66.5078  -11.5096 C   0  0  0  0  0  0  0  0  0  0  0  0
    0.7006  -65.2074  -11.0787 C   0  0  0  0  0  0  0  0  0  0  0  0
   -0.3164  -64.3806  -11.5390 C   0  0  0  0  0  0  0  0  0  0  0  0
   -1.3348  -64.8452  -12.4070 C   0  0  0  0  0  0  0  0  0  0  0  0
  1  2  3  0
  2  3  1  0
  3  4  1  0
  4  5  1  0
  5  6  2  0
  5  7  1  0
  7  8  2  0
  8  9  1  0
  9 10  2  0
 10 11  1  0
 11 12  2  0
  4 13  1  0
 13 14  2  0
 14 15  1  0
 15 16  2  0
 16 17  1  0
 16 18  1  0
 18 19  2  0
 19 20  1  0
 20 21  2  0
 21 22  1  0
 22 23  2  0
 12  7  1  0
 23 13  1  0
 23 18  1  0
M  END
>  <smiles>  (125) 
C#CCN(C(=O)c1ccncc1)c1ccc(Cl)c2ncccc12

>  <inchikey>  (125) 
GQSYXSJUJNYAHD-UHFFFAOYSA-N

$$$$
USBDBQKZKHPQGJ-UHFFFAOYSA-N-P446140-P446140-541666
     RDKit          3D

 23 25  0  0  0  0  0  0  0  0999 V2000
   -0.7917  -61.6252  -15.6454 C   0  0  0  0  0  0  0  0  0  0  0  0
   -1.9329  -62.2330  -14.8371 C   0  0  0  0  0  0  0  0  0  0  0  0
   -1.4872  -62.4406  -13.3711 C   0  0  0  0  0  0  0  0  0  0  0  0
   -2.5914  -62.8523  -12.2649 N   0  0  0  0  0  0  0  0  0  0  0  0
   -3.8499  -62.0586  -12.4320 C   0  0  0  0  0  0  0  0  0  0  0  0
   -4.8087  -62.2825  -13.0668 O   0  0  0  0  0  0  0  0  0  0  0  0
   -3.8525  -60.7393  -11.7751 C   0  0  0  0  0  0  0  0  0  0  0  0
   -3.4651  -60.5071  -10.4647 C   0  0  0  0  0  0  0  0  0  0  0  0
   -3.7205  -59.2405   -9.9551 C   0  0  0  0  0  0  0  0  0  0  0  0
   -4.3057  -58.2302  -10.6539 N   0  0  0  0  0  0  0  0  0  0  0  0
   -4.6292  -58.4983  -11.9389 C   0  0  0  0  0  0  0  0  0  0  0  0
   -4.4349  -59.7201  -12.5248 C   0  0  0  0  0  0  0  0  0  0  0  0
   -2.2228  -64.1991  -12.7696 C   0  0  0  0  0  0  0  0  0  0  0  0
   -3.1597  -64.8446  -13.6054 C   0  0  0  0  0  0  0  0  0  0  0  0
   -2.9888  -66.1653  -13.9859 C   0  0  0  0  0  0  0  0  0  0  0  0
   -1.9052  -66.8821  -13.4872 C   0  0  0  0  0  0  0  0  0  0  0  0
   -1.7726  -68.5366  -13.9897 Cl  0  0  0  0  0  0  0  0  0  0  0  0
   -0.9922  -66.3225  -12.5781 C   0  0  0  0  0  0  0  0  0  0  0  0
    0.0234  -67.0599  -12.0725 N   0  0  0  0  0  0  0  0  0  0  0  0
    0.8358  -66.5182  -11.1429 C   0  0  0  0  0  0  0  0  0  0  0  0
    0.6938  -65.2386  -10.6572 C   0  0  0  0  0  0  0  0  0  0  0  0
   -0.3334  -64.4655  -11.1744 C   0  0  0  0  0  0  0  0  0  0  0  0
   -1.1867  -64.9756  -12.1756 C   0  0  0  0  0  0  0  0  0  0  0  0
  1  2  1  0
  2  3  1  0
  3  4  1  0
  4  5  1  0
  5  6  2  0
  5  7  1  0
  7  8  2  0
  8  9  1  0
  9 10  2  0
 10 11  1  0
 11 12  2  0
  4 13  1  0
 13 14  2  0
 14 15  1  0
 15 16  2  0
 16 17  1  0
 16 18  1  0
 18 19  2  0
 19 20  1  0
 20 21  2  0
 21 22  1  0
 22 23  2  0
 12  7  1  0
 23 13  1  0
 23 18  1  0
M  END
>  <smiles>  (126) 
CCCN(C(=O)c1ccncc1)c1ccc(Cl)c2ncccc12

>  <inchikey>  (126) 
USBDBQKZKHPQGJ-UHFFFAOYSA-N

$$$$
UCFULLFKXBBHMY-UHFFFAOYSA-N-P446140-P446140-541666
     RDKit          3D

 23 25  0  0  0  0  0  0  0  0999 V2000
    1.1361  -67.7833  -10.1091 C   0  0  0  0  0  0  0  0  0  0  0  0
    0.3630  -66.7073  -10.8085 C   0  0  0  0  0  0  0  0  0  0  0  0
    0.5094  -65.3864  -10.4410 C   0  0  0  0  0  0  0  0  0  0  0  0
   -0.2239  -64.4020  -11.1124 C   0  0  0  0  0  0  0  0  0  0  0  0
    0.1653  -62.9803  -10.7962 C   0  0  0  0  0  0  0  0  0  0  0  0
   -1.1757  -64.7856  -12.1050 C   0  0  0  0  0  0  0  0  0  0  0  0
   -2.0390  -63.9116  -12.8172 C   0  0  0  0  0  0  0  0  0  0  0  0
   -2.5305  -62.6809  -12.3471 N   0  0  0  0  0  0  0  0  0  0  0  0
   -2.8578  -62.2130  -10.9105 C   0  0  0  0  0  0  0  0  0  0  0  0
   -2.6981  -62.7485   -9.8857 O   0  0  0  0  0  0  0  0  0  0  0  0
   -3.5026  -60.8631  -10.9002 C   0  0  0  0  0  0  0  0  0  0  0  0
   -3.1877  -60.0060   -9.8459 C   0  0  0  0  0  0  0  0  0  0  0  0
   -3.8075  -58.7721   -9.7973 C   0  0  0  0  0  0  0  0  0  0  0  0
   -4.7185  -58.3499  -10.7037 N   0  0  0  0  0  0  0  0  0  0  0  0
   -5.0274  -59.2159  -11.7012 C   0  0  0  0  0  0  0  0  0  0  0  0
   -4.4485  -60.4672  -11.8476 C   0  0  0  0  0  0  0  0  0  0  0  0
   -2.5836  -64.3245  -14.0388 C   0  0  0  0  0  0  0  0  0  0  0  0
   -3.2222  -63.1489  -15.1167 Cl  0  0  0  0  0  0  0  0  0  0  0  0
   -2.5820  -65.6558  -14.4061 C   0  0  0  0  0  0  0  0  0  0  0  0
   -1.9232  -66.5673  -13.5910 C   0  0  0  0  0  0  0  0  0  0  0  0
   -2.0080  -68.2390  -14.0574 Cl  0  0  0  0  0  0  0  0  0  0  0  0
   -1.1674  -66.1590  -12.4824 C   0  0  0  0  0  0  0  0  0  0  0  0
   -0.4348  -67.0804  -11.8248 N   0  0  0  0  0  0  0  0  0  0  0  0
  1  2  1  0
  2  3  2  0
  3  4  1  0
  4  5  1  0
  4  6  2  0
  6  7  1  0
  7  8  1  0
  8  9  1  0
  9 10  2  0
  9 11  1  0
 11 12  2  0
 12 13  1  0
 13 14  2  0
 14 15  1  0
 15 16  2  0
  7 17  2  0
 17 18  1  0
 17 19  1  0
 19 20  2  0
 20 21  1  0
 20 22  1  0
 22 23  2  0
 23  2  1  0
 22  6  1  0
 16 11  1  0
M  END
>  <smiles>  (127) 
Cc1cc(C)c2c(NC(=O)c3ccncc3)c(Cl)cc(Cl)c2n1

>  <inchikey>  (127) 
UCFULLFKXBBHMY-UHFFFAOYSA-N

$$$$
HPAPGRWTGGHYFF-UHFFFAOYSA-N-P446140-P446140-541666
     RDKit          3D

 23 26  0  0  0  0  0  0  0  0999 V2000
   -4.8487  -62.3831  -12.9145 O   0  0  0  0  0  0  0  0  0  0  0  0
   -3.8026  -62.0688  -12.4913 C   0  0  0  0  0  0  0  0  0  0  0  0
   -3.7867  -60.7361  -11.8667 C   0  0  0  0  0  0  0  0  0  0  0  0
   -3.3441  -60.4794  -10.5776 C   0  0  0  0  0  0  0  0  0  0  0  0
   -3.6298  -59.2227  -10.0583 C   0  0  0  0  0  0  0  0  0  0  0  0
   -4.2978  -58.2447  -10.7275 N   0  0  0  0  0  0  0  0  0  0  0  0
   -4.6831  -58.5379  -11.9901 C   0  0  0  0  0  0  0  0  0  0  0  0
   -4.4602  -59.7526  -12.5841 C   0  0  0  0  0  0  0  0  0  0  0  0
   -2.4952  -62.7967  -12.5021 N   0  0  0  0  0  0  0  0  0  0  0  0
   -2.1561  -64.1637  -12.9577 C   0  0  0  0  0  0  0  0  0  0  0  0
   -3.1043  -64.8298  -13.7709 C   0  0  0  0  0  0  0  0  0  0  0  0
   -2.9576  -66.1696  -14.0841 C   0  0  0  0  0  0  0  0  0  0  0  0
   -1.8873  -66.8785  -13.5460 C   0  0  0  0  0  0  0  0  0  0  0  0
   -1.7824  -68.5582  -13.9658 Cl  0  0  0  0  0  0  0  0  0  0  0  0
   -0.9670  -66.2913  -12.6611 C   0  0  0  0  0  0  0  0  0  0  0  0
    0.0263  -67.0255  -12.1079 N   0  0  0  0  0  0  0  0  0  0  0  0
    0.8361  -66.4583  -11.1915 C   0  0  0  0  0  0  0  0  0  0  0  0
    0.7116  -65.1560  -10.7653 C   0  0  0  0  0  0  0  0  0  0  0  0
   -0.2911  -64.3868  -11.3349 C   0  0  0  0  0  0  0  0  0  0  0  0
   -1.1359  -64.9227  -12.3276 C   0  0  0  0  0  0  0  0  0  0  0  0
   -1.6484  -62.4470  -13.8093 C   0  0  0  0  0  0  0  0  0  0  0  0
   -0.1487  -62.2210  -13.8570 C   0  0  0  0  0  0  0  0  0  0  0  0
   -1.0536  -61.0396  -13.8473 C   0  0  0  0  0  0  0  0  0  0  0  0
  1  2  2  0
  2  3  1  0
  3  4  2  0
  4  5  1  0
  5  6  2  0
  6  7  1  0
  7  8  2  0
  2  9  1  0
  9 10  1  0
 10 11  2  0
 11 12  1  0
 12 13  2  0
 13 14  1  0
 13 15  1  0
 15 16  2  0
 16 17  1  0
 17 18  2  0
 18 19  1  0
 19 20  2  0
  9 21  1  0
 21 22  1  0
 22 23  1  0
  8  3  1  0
 20 10  1  0
 23 21  1  0
 20 15  1  0
M  END
>  <smiles>  (128) 
O=C(c1ccncc1)N(c1ccc(Cl)c2ncccc12)C1CC1

>  <inchikey>  (128) 
HPAPGRWTGGHYFF-UHFFFAOYSA-N

$$$$
SLZBWLZMYIJVND-UHFFFAOYSA-N-P446140-P446140-541666
     RDKit          3D

 24 26  0  0  0  0  0  0  0  0999 V2000
   -0.8607  -61.8093  -15.7037 C   0  0  0  0  0  0  0  0  0  0  0  0
   -1.9999  -62.4040  -14.8767 C   0  0  2  0  0  0  0  0  0  0  0  0
   -3.1359  -61.5655  -15.0475 O   0  0  0  0  0  0  0  0  0  0  0  0
   -1.5526  -62.4768  -13.3835 C   0  0  0  0  0  0  0  0  0  0  0  0
   -2.6276  -62.8834  -12.2407 N   0  0  0  0  0  0  0  0  0  0  0  0
   -3.8932  -62.1031  -12.3850 C   0  0  0  0  0  0  0  0  0  0  0  0
   -4.8660  -62.3422  -12.9919 O   0  0  0  0  0  0  0  0  0  0  0  0
   -3.8854  -60.7746  -11.7433 C   0  0  0  0  0  0  0  0  0  0  0  0
   -3.5084  -60.5373  -10.4306 C   0  0  0  0  0  0  0  0  0  0  0  0
   -3.7522  -59.2637   -9.9324 C   0  0  0  0  0  0  0  0  0  0  0  0
   -4.3187  -58.2511  -10.6426 N   0  0  0  0  0  0  0  0  0  0  0  0
   -4.6300  -58.5237  -11.9300 C   0  0  0  0  0  0  0  0  0  0  0  0
   -4.4453  -59.7525  -12.5062 C   0  0  0  0  0  0  0  0  0  0  0  0
   -2.2613  -64.2342  -12.7372 C   0  0  0  0  0  0  0  0  0  0  0  0
   -3.2163  -64.9033  -13.5334 C   0  0  0  0  0  0  0  0  0  0  0  0
   -3.0260  -66.2181  -13.9255 C   0  0  0  0  0  0  0  0  0  0  0  0
   -1.9099  -66.9104  -13.4658 C   0  0  0  0  0  0  0  0  0  0  0  0
   -1.7548  -68.5584  -13.9809 Cl  0  0  0  0  0  0  0  0  0  0  0  0
   -0.9840  -66.3330  -12.5815 C   0  0  0  0  0  0  0  0  0  0  0  0
    0.0589  -67.0503  -12.1049 N   0  0  0  0  0  0  0  0  0  0  0  0
    0.8840  -66.4947  -11.1948 C   0  0  0  0  0  0  0  0  0  0  0  0
    0.7298  -65.2188  -10.7034 C   0  0  0  0  0  0  0  0  0  0  0  0
   -0.3244  -64.4646  -11.1936 C   0  0  0  0  0  0  0  0  0  0  0  0
   -1.1937  -64.9900  -12.1731 C   0  0  0  0  0  0  0  0  0  0  0  0
  2  1  1  6
  2  3  1  0
  2  4  1  0
  4  5  1  0
  5  6  1  0
  6  7  2  0
  6  8  1  0
  8  9  2  0
  9 10  1  0
 10 11  2  0
 11 12  1  0
 12 13  2  0
  5 14  1  0
 14 15  2  0
 15 16  1  0
 16 17  2  0
 17 18  1  0
 17 19  1  0
 19 20  2  0
 20 21  1  0
 21 22  2  0
 22 23  1  0
 23 24  2  0
 13  8  1  0
 24 14  1  0
 24 19  1  0
M  END
>  <smiles>  (129) 
CC(O)CN(C(=O)c1ccncc1)c1ccc(Cl)c2ncccc12

>  <inchikey>  (129) 
SLZBWLZMYIJVND-UHFFFAOYSA-N

$$$$
YHVYRKCPQROBBQ-UHFFFAOYSA-N-P446140-P446140-541666
     RDKit          3D

 24 26  0  0  0  0  0  0  0  0999 V2000
    0.1077  -62.7371  -14.6985 C   0  0  0  0  0  0  0  0  0  0  0  0
   -0.7109  -61.9978  -13.9259 C   0  0  0  0  0  0  0  0  0  0  0  0
   -0.1824  -60.7689  -13.2366 C   0  0  0  0  0  0  0  0  0  0  0  0
   -2.2088  -62.2686  -13.8915 C   0  0  0  0  0  0  0  0  0  0  0  0
   -2.9514  -62.7227  -12.5104 N   0  0  0  0  0  0  0  0  0  0  0  0
   -2.5057  -61.8702  -11.3400 C   0  0  0  0  0  0  0  0  0  0  0  0
   -1.6167  -62.0212  -10.5814 O   0  0  0  0  0  0  0  0  0  0  0  0
   -3.3854  -60.6736  -11.1389 C   0  0  0  0  0  0  0  0  0  0  0  0
   -4.4770  -60.3714  -11.9511 C   0  0  0  0  0  0  0  0  0  0  0  0
   -5.1896  -59.2164  -11.6752 C   0  0  0  0  0  0  0  0  0  0  0  0
   -4.8868  -58.3606  -10.6667 N   0  0  0  0  0  0  0  0  0  0  0  0
   -3.8406  -58.6935   -9.8818 C   0  0  0  0  0  0  0  0  0  0  0  0
   -3.0733  -59.8221  -10.0742 C   0  0  0  0  0  0  0  0  0  0  0  0
   -2.4605  -64.0612  -12.9914 C   0  0  0  0  0  0  0  0  0  0  0  0
   -3.4580  -64.7460  -13.7265 C   0  0  0  0  0  0  0  0  0  0  0  0
   -3.3151  -66.0760  -14.0790 C   0  0  0  0  0  0  0  0  0  0  0  0
   -2.2025  -66.7836  -13.6430 C   0  0  0  0  0  0  0  0  0  0  0  0
   -2.1108  -68.4549  -14.1060 Cl  0  0  0  0  0  0  0  0  0  0  0  0
   -1.2171  -66.2020  -12.8404 C   0  0  0  0  0  0  0  0  0  0  0  0
   -0.1942  -66.9790  -12.4096 N   0  0  0  0  0  0  0  0  0  0  0  0
    0.7546  -66.4546  -11.6176 C   0  0  0  0  0  0  0  0  0  0  0  0
    0.7605  -65.1407  -11.2376 C   0  0  0  0  0  0  0  0  0  0  0  0
   -0.2782  -64.3360  -11.6918 C   0  0  0  0  0  0  0  0  0  0  0  0
   -1.3372  -64.8249  -12.4937 C   0  0  0  0  0  0  0  0  0  0  0  0
  1  2  2  0
  2  3  1  0
  2  4  1  0
  4  5  1  0
  5  6  1  0
  6  7  2  0
  6  8  1  0
  8  9  2  0
  9 10  1  0
 10 11  2  0
 11 12  1  0
 12 13  2  0
  5 14  1  0
 14 15  2  0
 15 16  1  0
 16 17  2  0
 17 18  1  0
 17 19  1  0
 19 20  2  0
 20 21  1  0
 21 22  2  0
 22 23  1  0
 23 24  2  0
 13  8  1  0
 24 14  1  0
 24 19  1  0
M  END
>  <smiles>  (130) 
C=C(C)CN(C(=O)c1ccncc1)c1ccc(Cl)c2ncccc12

>  <inchikey>  (130) 
YHVYRKCPQROBBQ-UHFFFAOYSA-N

$$$$
SENIRJFRUUIOLQ-UHFFFAOYSA-N-P446140-P446140-541666
     RDKit          3D

 24 26  0  0  0  0  0  0  0  0999 V2000
   -0.1653  -61.6558  -16.2055 C   0  0  0  0  0  0  0  0  0  0  0  0
   -0.1758  -60.9604  -14.8532 C   0  0  0  0  0  0  0  0  0  0  0  0
   -0.6378  -61.8695  -13.7062 C   0  0  0  0  0  0  0  0  0  0  0  0
   -2.1325  -62.2477  -13.8106 C   0  0  0  0  0  0  0  0  0  0  0  0
   -2.9312  -62.7126  -12.4725 N   0  0  0  0  0  0  0  0  0  0  0  0
   -2.5197  -61.8849  -11.2702 C   0  0  0  0  0  0  0  0  0  0  0  0
   -1.6629  -62.0609  -10.4805 O   0  0  0  0  0  0  0  0  0  0  0  0
   -3.3880  -60.6766  -11.0917 C   0  0  0  0  0  0  0  0  0  0  0  0
   -4.4634  -60.3690  -11.9241 C   0  0  0  0  0  0  0  0  0  0  0  0
   -5.1717  -59.2080  -11.6655 C   0  0  0  0  0  0  0  0  0  0  0  0
   -4.8797  -58.3514  -10.6545 N   0  0  0  0  0  0  0  0  0  0  0  0
   -3.8470  -58.6871   -9.8529 C   0  0  0  0  0  0  0  0  0  0  0  0
   -3.0853  -59.8224  -10.0269 C   0  0  0  0  0  0  0  0  0  0  0  0
   -2.4409  -64.0463  -12.9556 C   0  0  0  0  0  0  0  0  0  0  0  0
   -3.4303  -64.7087  -13.7224 C   0  0  0  0  0  0  0  0  0  0  0  0
   -3.2945  -66.0343  -14.0936 C   0  0  0  0  0  0  0  0  0  0  0  0
   -2.1931  -66.7568  -13.6538 C   0  0  0  0  0  0  0  0  0  0  0  0
   -2.1077  -68.4218  -14.1405 Cl  0  0  0  0  0  0  0  0  0  0  0  0
   -1.2140  -66.1951  -12.8284 C   0  0  0  0  0  0  0  0  0  0  0  0
   -0.1990  -66.9843  -12.4020 N   0  0  0  0  0  0  0  0  0  0  0  0
    0.7359  -66.4842  -11.5782 C   0  0  0  0  0  0  0  0  0  0  0  0
    0.7345  -65.1824  -11.1580 C   0  0  0  0  0  0  0  0  0  0  0  0
   -0.2940  -64.3626  -11.6086 C   0  0  0  0  0  0  0  0  0  0  0  0
   -1.3332  -64.8255  -12.4519 C   0  0  0  0  0  0  0  0  0  0  0  0
  1  2  1  0
  2  3  1  0
  3  4  1  0
  4  5  1  0
  5  6  1  0
  6  7  2  0
  6  8  1  0
  8  9  2  0
  9 10  1  0
 10 11  2  0
 11 12  1  0
 12 13  2  0
  5 14  1  0
 14 15  2  0
 15 16  1  0
 16 17  2  0
 17 18  1  0
 17 19  1  0
 19 20  2  0
 20 21  1  0
 21 22  2  0
 22 23  1  0
 23 24  2  0
 13  8  1  0
 24 14  1  0
 24 19  1  0
M  END
>  <smiles>  (131) 
CCCCN(C(=O)c1ccncc1)c1ccc(Cl)c2ncccc12

>  <inchikey>  (131) 
SENIRJFRUUIOLQ-UHFFFAOYSA-N

$$$$
RAXHWWVXGJHJAD-UHFFFAOYSA-N-P446140-P446140-541666
     RDKit          3D

 24 26  0  0  0  0  0  0  0  0999 V2000
   -3.1741  -62.1972  -15.6517 O   0  0  0  0  0  0  0  0  0  0  0  0
   -2.3275  -61.9963  -14.8739 C   0  0  0  0  0  0  0  0  0  0  0  0
   -1.6055  -60.6522  -14.7522 C   0  0  0  0  0  0  0  0  0  0  0  0
   -2.0688  -60.0279  -13.5445 N   0  0  0  0  0  0  0  0  0  0  0  0
   -1.5297  -60.1067  -12.1144 C   0  0  0  0  0  0  0  0  0  0  0  0
   -0.5801  -60.6268  -11.6954 O   0  0  0  0  0  0  0  0  0  0  0  0
   -2.4749  -59.4185  -11.2161 C   0  0  0  0  0  0  0  0  0  0  0  0
   -3.7540  -59.9476  -11.0636 C   0  0  0  0  0  0  0  0  0  0  0  0
   -4.6605  -59.1982  -10.3590 C   0  0  0  0  0  0  0  0  0  0  0  0
   -4.3714  -57.9849   -9.8274 N   0  0  0  0  0  0  0  0  0  0  0  0
   -3.0968  -57.5363   -9.9449 C   0  0  0  0  0  0  0  0  0  0  0  0
   -2.1116  -58.2126  -10.6317 C   0  0  0  0  0  0  0  0  0  0  0  0
   -1.6956  -62.9352  -13.8084 N   0  0  0  0  0  0  0  0  0  0  0  0
   -1.9054  -64.2922  -13.5583 C   0  0  0  0  0  0  0  0  0  0  0  0
   -2.8942  -64.9585  -14.2840 C   0  0  0  0  0  0  0  0  0  0  0  0
   -2.9776  -66.3387  -14.2282 C   0  0  0  0  0  0  0  0  0  0  0  0
   -2.0639  -67.0513  -13.4553 C   0  0  0  0  0  0  0  0  0  0  0  0
   -2.1388  -68.7788  -13.5538 Cl  0  0  0  0  0  0  0  0  0  0  0  0
   -1.1165  -66.4157  -12.6398 C   0  0  0  0  0  0  0  0  0  0  0  0
   -0.2821  -67.1391  -11.8553 N   0  0  0  0  0  0  0  0  0  0  0  0
    0.6032  -66.5031  -11.0640 C   0  0  0  0  0  0  0  0  0  0  0  0
    0.7156  -65.1350  -10.9979 C   0  0  0  0  0  0  0  0  0  0  0  0
   -0.1211  -64.3803  -11.8078 C   0  0  0  0  0  0  0  0  0  0  0  0
   -1.0600  -65.0017  -12.6653 C   0  0  0  0  0  0  0  0  0  0  0  0
  1  2  2  0
  2  3  1  0
  3  4  1  0
  4  5  1  0
  5  6  2  0
  5  7  1  0
  7  8  2  0
  8  9  1  0
  9 10  2  0
 10 11  1  0
 11 12  2  0
  2 13  1  0
 13 14  1  0
 14 15  2  0
 15 16  1  0
 16 17  2  0
 17 18  1  0
 17 19  1  0
 19 20  2  0
 20 21  1  0
 21 22  2  0
 22 23  1  0
 23 24  2  0
 12  7  1  0
 24 14  1  0
 24 19  1  0
M  END
>  <smiles>  (132) 
O=C(CNC(=O)c1ccncc1)Nc1ccc(Cl)c2ncccc12

>  <inchikey>  (132) 
RAXHWWVXGJHJAD-UHFFFAOYSA-N

$$$$
XSUMWBDEKKAXDU-UHFFFAOYSA-N-P446140-P446140-541666
     RDKit          3D

 24 26  0  0  0  0  0  0  0  0999 V2000
   -1.0033  -59.4656  -15.3096 C   0  0  0  0  0  0  0  0  0  0  0  0
   -0.2624  -61.1011  -15.5489 S   0  0  0  0  0  0  0  0  0  0  0  0
   -0.7497  -61.9030  -13.9725 C   0  0  0  0  0  0  0  0  0  0  0  0
   -2.2438  -62.2937  -13.9642 C   0  0  0  0  0  0  0  0  0  0  0  0
   -2.9395  -62.7153  -12.5513 N   0  0  0  0  0  0  0  0  0  0  0  0
   -2.4615  -61.8306  -11.4169 C   0  0  0  0  0  0  0  0  0  0  0  0
   -1.5485  -61.9582  -10.6834 O   0  0  0  0  0  0  0  0  0  0  0  0
   -3.3560  -60.6482  -11.1968 C   0  0  0  0  0  0  0  0  0  0  0  0
   -4.4666  -60.3592  -11.9877 C   0  0  0  0  0  0  0  0  0  0  0  0
   -5.1948  -59.2193  -11.6896 C   0  0  0  0  0  0  0  0  0  0  0  0
   -4.8915  -58.3673  -10.6780 N   0  0  0  0  0  0  0  0  0  0  0  0
   -3.8280  -58.6884   -9.9122 C   0  0  0  0  0  0  0  0  0  0  0  0
   -3.0430  -59.8004  -10.1287 C   0  0  0  0  0  0  0  0  0  0  0  0
   -2.4572  -64.0628  -13.0130 C   0  0  0  0  0  0  0  0  0  0  0  0
   -3.4677  -64.7600  -13.7195 C   0  0  0  0  0  0  0  0  0  0  0  0
   -3.3284  -66.0932  -14.0603 C   0  0  0  0  0  0  0  0  0  0  0  0
   -2.2071  -66.7933  -13.6359 C   0  0  0  0  0  0  0  0  0  0  0  0
   -2.1186  -68.4688  -14.0829 Cl  0  0  0  0  0  0  0  0  0  0  0  0
   -1.2119  -66.2006  -12.8539 C   0  0  0  0  0  0  0  0  0  0  0  0
   -0.1859  -66.9734  -12.4248 N   0  0  0  0  0  0  0  0  0  0  0  0
    0.7730  -66.4432  -11.6495 C   0  0  0  0  0  0  0  0  0  0  0  0
    0.7849  -65.1253  -11.2842 C   0  0  0  0  0  0  0  0  0  0  0  0
   -0.2568  -64.3227  -11.7364 C   0  0  0  0  0  0  0  0  0  0  0  0
   -1.3258  -64.8182  -12.5227 C   0  0  0  0  0  0  0  0  0  0  0  0
  1  2  1  0
  2  3  1  0
  3  4  1  0
  4  5  1  0
  5  6  1  0
  6  7  2  0
  6  8  1  0
  8  9  2  0
  9 10  1  0
 10 11  2  0
 11 12  1  0
 12 13  2  0
  5 14  1  0
 14 15  2  0
 15 16  1  0
 16 17  2  0
 17 18  1  0
 17 19  1  0
 19 20  2  0
 20 21  1  0
 21 22  2  0
 22 23  1  0
 23 24  2  0
 13  8  1  0
 24 14  1  0
 24 19  1  0
M  END
>  <smiles>  (133) 
CSCCN(C(=O)c1ccncc1)c1ccc(Cl)c2ncccc12

>  <inchikey>  (133) 
XSUMWBDEKKAXDU-UHFFFAOYSA-N

$$$$
JZGKQSMZAFQPPH-UHFFFAOYSA-N-P446140-P446140-541666
     RDKit          3D

 24 26  0  0  0  0  0  0  0  0999 V2000
   -2.5574  -62.6580  -10.1041 O   0  0  0  0  0  0  0  0  0  0  0  0
   -3.0021  -62.2534  -11.1086 C   0  0  0  0  0  0  0  0  0  0  0  0
   -3.0053  -62.8770  -12.5310 N   0  0  0  0  0  0  0  0  0  0  0  0
   -2.5613  -64.1265  -12.9759 C   0  0  0  0  0  0  0  0  0  0  0  0
   -3.3880  -64.7435  -13.9147 C   0  0  0  0  0  0  0  0  0  0  0  0
   -3.1832  -66.0729  -14.2384 C   0  0  0  0  0  0  0  0  0  0  0  0
   -2.1458  -66.7806  -13.6350 C   0  0  0  0  0  0  0  0  0  0  0  0
   -2.0065  -68.4615  -14.0448 Cl  0  0  0  0  0  0  0  0  0  0  0  0
   -1.2453  -66.1766  -12.7474 C   0  0  0  0  0  0  0  0  0  0  0  0
   -0.2428  -66.9094  -12.2070 N   0  0  0  0  0  0  0  0  0  0  0  0
    0.6560  -66.3137  -11.3948 C   0  0  0  0  0  0  0  0  0  0  0  0
    0.6561  -64.9656  -11.1186 C   0  0  0  0  0  0  0  0  0  0  0  0
    1.7456  -64.4478  -10.2705 C   0  0  0  0  0  0  0  0  0  0  0  0
    2.6841  -65.0905   -9.8392 O   0  0  0  0  0  0  0  0  0  0  0  0
    1.6094  -63.1388   -9.9744 O   0  0  0  0  0  0  0  0  0  0  0  0
   -0.3618  -64.2022  -11.6953 C   0  0  0  0  0  0  0  0  0  0  0  0
   -0.2948  -62.8259  -11.6488 O   0  0  0  0  0  0  0  0  0  0  0  0
   -1.4118  -64.8004  -12.4523 C   0  0  0  0  0  0  0  0  0  0  0  0
   -3.6362  -60.8901  -11.0600 C   0  0  0  0  0  0  0  0  0  0  0  0
   -4.5975  -60.4292  -11.9586 C   0  0  0  0  0  0  0  0  0  0  0  0
   -5.1290  -59.1636  -11.7555 C   0  0  0  0  0  0  0  0  0  0  0  0
   -4.7633  -58.3355  -10.7464 N   0  0  0  0  0  0  0  0  0  0  0  0
   -3.8311  -58.8066   -9.8916 C   0  0  0  0  0  0  0  0  0  0  0  0
   -3.2542  -60.0567  -10.0018 C   0  0  0  0  0  0  0  0  0  0  0  0
  1  2  2  0
  2  3  1  0
  3  4  1  0
  4  5  2  0
  5  6  1  0
  6  7  2  0
  7  8  1  0
  7  9  1  0
  9 10  2  0
 10 11  1  0
 11 12  2  0
 12 13  1  0
 13 14  2  0
 13 15  1  0
 12 16  1  0
 16 17  1  0
 16 18  2  0
  2 19  1  0
 19 20  2  0
 20 21  1  0
 21 22  2  0
 22 23  1  0
 23 24  2  0
 18  4  1  0
 24 19  1  0
 18  9  1  0
M  END
>  <smiles>  (134) 
O=C(Nc1ccc(Cl)c2ncc(C(=O)O)c(O)c12)c1ccncc1

>  <inchikey>  (134) 
JZGKQSMZAFQPPH-UHFFFAOYSA-N

$$$$
PBCAMAXNIHZVOO-UHFFFAOYSA-N-P446140-P446140-541666
     RDKit          3D

 24 26  0  0  0  0  0  0  0  0999 V2000
   -2.1317  -59.1274  -14.9937 C   0  0  0  0  0  0  0  0  0  0  0  0
   -1.6691  -59.8741  -14.1763 C   0  0  0  0  0  0  0  0  0  0  0  0
   -0.9633  -60.7367  -13.2241 C   0  0  0  0  0  0  0  0  0  0  0  0
   -1.3601  -62.2301  -13.3138 C   0  0  0  0  0  0  0  0  0  0  0  0
   -2.6887  -62.6345  -12.4270 N   0  0  0  0  0  0  0  0  0  0  0  0
   -2.6350  -62.0203  -11.0433 C   0  0  0  0  0  0  0  0  0  0  0  0
   -2.1834  -62.4407  -10.0396 O   0  0  0  0  0  0  0  0  0  0  0  0
   -3.3716  -60.7180  -10.9800 C   0  0  0  0  0  0  0  0  0  0  0  0
   -4.3381  -60.3560  -11.9195 C   0  0  0  0  0  0  0  0  0  0  0  0
   -5.0042  -59.1573  -11.7315 C   0  0  0  0  0  0  0  0  0  0  0  0
   -4.7653  -58.3122  -10.6968 N   0  0  0  0  0  0  0  0  0  0  0  0
   -3.8315  -58.6996   -9.8000 C   0  0  0  0  0  0  0  0  0  0  0  0
   -3.1243  -59.8804   -9.8912 C   0  0  0  0  0  0  0  0  0  0  0  0
   -2.2788  -63.9884  -12.9073 C   0  0  0  0  0  0  0  0  0  0  0  0
   -3.1599  -64.4891  -13.8852 C   0  0  0  0  0  0  0  0  0  0  0  0
   -3.0941  -65.8129  -14.2905 C   0  0  0  0  0  0  0  0  0  0  0  0
   -2.1469  -66.6620  -13.7216 C   0  0  0  0  0  0  0  0  0  0  0  0
   -2.1359  -68.3105  -14.2678 Cl  0  0  0  0  0  0  0  0  0  0  0  0
   -1.2546  -66.2331  -12.7313 C   0  0  0  0  0  0  0  0  0  0  0  0
   -0.3520  -67.1068  -12.2234 N   0  0  0  0  0  0  0  0  0  0  0  0
    0.4802  -66.7140  -11.2431 C   0  0  0  0  0  0  0  0  0  0  0  0
    0.4722  -65.4495  -10.7161 C   0  0  0  0  0  0  0  0  0  0  0  0
   -0.4428  -64.5447  -11.2366 C   0  0  0  0  0  0  0  0  0  0  0  0
   -1.3432  -64.8906  -12.2759 C   0  0  0  0  0  0  0  0  0  0  0  0
  1  2  3  0
  2  3  1  0
  3  4  1  0
  4  5  1  0
  5  6  1  0
  6  7  2  0
  6  8  1  0
  8  9  2  0
  9 10  1  0
 10 11  2  0
 11 12  1  0
 12 13  2  0
  5 14  1  0
 14 15  2  0
 15 16  1  0
 16 17  2  0
 17 18  1  0
 17 19  1  0
 19 20  2  0
 20 21  1  0
 21 22  2  0
 22 23  1  0
 23 24  2  0
 13  8  1  0
 24 14  1  0
 24 19  1  0
M  END
>  <smiles>  (135) 
C#CCCN(C(=O)c1ccncc1)c1ccc(Cl)c2ncccc12

>  <inchikey>  (135) 
PBCAMAXNIHZVOO-UHFFFAOYSA-N

$$$$
FKPFIQGLUUDTRT-UHFFFAOYSA-N-P446140-P446140-541666
     RDKit          3D

 24 26  0  0  0  0  0  0  0  0999 V2000
   -2.0217  -62.3417  -10.2010 O   0  0  0  0  0  0  0  0  0  0  0  0
   -2.6828  -62.0215  -11.1222 C   0  0  0  0  0  0  0  0  0  0  0  0
   -3.4645  -60.7512  -11.0012 C   0  0  0  0  0  0  0  0  0  0  0  0
   -4.5040  -60.4094  -11.8624 C   0  0  0  0  0  0  0  0  0  0  0  0
   -5.1502  -59.2033  -11.6550 C   0  0  0  0  0  0  0  0  0  0  0  0
   -4.8316  -58.3343  -10.6627 N   0  0  0  0  0  0  0  0  0  0  0  0
   -3.8349  -58.7043   -9.8301 C   0  0  0  0  0  0  0  0  0  0  0  0
   -3.1350  -59.8864   -9.9541 C   0  0  0  0  0  0  0  0  0  0  0  0
   -2.9103  -62.7108  -12.4526 N   0  0  0  0  0  0  0  0  0  0  0  0
   -1.8090  -62.2254  -13.5718 C   0  0  0  0  0  0  0  0  0  0  0  0
   -2.4425  -61.6120  -14.8345 C   0  0  0  0  0  0  0  0  0  0  0  0
   -3.3783  -60.6876  -14.5125 F   0  0  0  0  0  0  0  0  0  0  0  0
   -3.0471  -62.5532  -15.5933 F   0  0  0  0  0  0  0  0  0  0  0  0
   -2.4505  -64.0359  -12.9487 C   0  0  0  0  0  0  0  0  0  0  0  0
   -3.4001  -64.6656  -13.7707 C   0  0  0  0  0  0  0  0  0  0  0  0
   -3.2560  -65.9939  -14.1363 C   0  0  0  0  0  0  0  0  0  0  0  0
   -2.1809  -66.7329  -13.6499 C   0  0  0  0  0  0  0  0  0  0  0  0
   -2.0921  -68.3983  -14.1317 Cl  0  0  0  0  0  0  0  0  0  0  0  0
   -1.2226  -66.1810  -12.7915 C   0  0  0  0  0  0  0  0  0  0  0  0
   -0.2081  -66.9554  -12.3367 N   0  0  0  0  0  0  0  0  0  0  0  0
    0.7068  -66.4332  -11.5010 C   0  0  0  0  0  0  0  0  0  0  0  0
    0.6881  -65.1243  -11.0943 C   0  0  0  0  0  0  0  0  0  0  0  0
   -0.3398  -64.3186  -11.5674 C   0  0  0  0  0  0  0  0  0  0  0  0
   -1.3565  -64.8163  -12.4176 C   0  0  0  0  0  0  0  0  0  0  0  0
  1  2  2  0
  2  3  1  0
  3  4  2  0
  4  5  1  0
  5  6  2  0
  6  7  1  0
  7  8  2  0
  2  9  1  0
  9 10  1  0
 10 11  1  0
 11 12  1  0
 11 13  1  0
  9 14  1  0
 14 15  2  0
 15 16  1  0
 16 17  2  0
 17 18  1  0
 17 19  1  0
 19 20  2  0
 20 21  1  0
 21 22  2  0
 22 23  1  0
 23 24  2  0
  8  3  1  0
 24 14  1  0
 24 19  1  0
M  END
>  <smiles>  (136) 
O=C(c1ccncc1)N(CC(F)F)c1ccc(Cl)c2ncccc12

>  <inchikey>  (136) 
FKPFIQGLUUDTRT-UHFFFAOYSA-N

$$$$
LNIHHDHAGYRFGO-UHFFFAOYSA-N-P446140-P446140-541666
     RDKit          3D

 24 26  0  0  0  0  0  0  0  0999 V2000
   -2.2050  -62.4565  -10.0508 O   0  0  0  0  0  0  0  0  0  0  0  0
   -2.6914  -62.0416  -11.0397 C   0  0  0  0  0  0  0  0  0  0  0  0
   -3.4419  -60.7522  -10.9607 C   0  0  0  0  0  0  0  0  0  0  0  0
   -4.4514  -60.4077  -11.8590 C   0  0  0  0  0  0  0  0  0  0  0  0
   -5.0969  -59.1973  -11.6723 C   0  0  0  0  0  0  0  0  0  0  0  0
   -4.8022  -58.3294  -10.6717 N   0  0  0  0  0  0  0  0  0  0  0  0
   -3.8291  -58.7009   -9.8114 C   0  0  0  0  0  0  0  0  0  0  0  0
   -3.1346  -59.8886   -9.9082 C   0  0  0  0  0  0  0  0  0  0  0  0
   -2.7632  -62.6480  -12.4258 N   0  0  0  0  0  0  0  0  0  0  0  0
   -1.4695  -62.2038  -13.3395 C   0  0  0  0  0  0  0  0  0  0  0  0
   -1.8894  -61.5161  -14.6540 C   0  0  0  0  0  0  0  0  0  0  0  0
   -2.0545  -59.5854  -14.3956 Br  0  0  0  0  0  0  0  0  0  0  0  0
   -0.5429  -61.8961  -16.0333 Br  0  0  0  0  0  0  0  0  0  0  0  0
   -2.3328  -63.9822  -12.9232 C   0  0  0  0  0  0  0  0  0  0  0  0
   -3.2304  -64.5194  -13.8627 C   0  0  0  0  0  0  0  0  0  0  0  0
   -3.1374  -65.8463  -14.2529 C   0  0  0  0  0  0  0  0  0  0  0  0
   -2.1537  -66.6643  -13.6989 C   0  0  0  0  0  0  0  0  0  0  0  0
   -2.1192  -68.3188  -14.2242 Cl  0  0  0  0  0  0  0  0  0  0  0  0
   -1.2444  -66.1985  -12.7414 C   0  0  0  0  0  0  0  0  0  0  0  0
   -0.3074  -67.0392  -12.2416 N   0  0  0  0  0  0  0  0  0  0  0  0
    0.5505  -66.5995  -11.3034 C   0  0  0  0  0  0  0  0  0  0  0  0
    0.5409  -65.3164  -10.8206 C   0  0  0  0  0  0  0  0  0  0  0  0
   -0.4096  -64.4445  -11.3340 C   0  0  0  0  0  0  0  0  0  0  0  0
   -1.3492  -64.8482  -12.3140 C   0  0  0  0  0  0  0  0  0  0  0  0
  1  2  2  0
  2  3  1  0
  3  4  2  0
  4  5  1  0
  5  6  2  0
  6  7  1  0
  7  8  2  0
  2  9  1  0
  9 10  1  0
 10 11  1  0
 11 12  1  0
 11 13  1  0
  9 14  1  0
 14 15  2  0
 15 16  1  0
 16 17  2  0
 17 18  1  0
 17 19  1  0
 19 20  2  0
 20 21  1  0
 21 22  2  0
 22 23  1  0
 23 24  2  0
  8  3  1  0
 24 14  1  0
 24 19  1  0
M  END
>  <smiles>  (137) 
O=C(c1ccncc1)N(CC(Br)Br)c1ccc(Cl)c2ncccc12

>  <inchikey>  (137) 
LNIHHDHAGYRFGO-UHFFFAOYSA-N

$$$$
XKLCDJGAUVXCHS-UHFFFAOYSA-N-P446140-P446140-541666
     RDKit          3D

 24 27  0  0  0  0  0  0  0  0999 V2000
   -4.8356  -62.3026  -13.0304 O   0  0  0  0  0  0  0  0  0  0  0  0
   -3.8354  -62.0510  -12.4731 C   0  0  0  0  0  0  0  0  0  0  0  0
   -3.8447  -60.7403  -11.8002 C   0  0  0  0  0  0  0  0  0  0  0  0
   -3.4181  -60.5061  -10.5025 C   0  0  0  0  0  0  0  0  0  0  0  0
   -3.6856  -59.2477   -9.9766 C   0  0  0  0  0  0  0  0  0  0  0  0
   -4.3161  -58.2464  -10.6482 N   0  0  0  0  0  0  0  0  0  0  0  0
   -4.6791  -58.5164  -11.9217 C   0  0  0  0  0  0  0  0  0  0  0  0
   -4.4861  -59.7327  -12.5164 C   0  0  0  0  0  0  0  0  0  0  0  0
   -2.5640  -62.8383  -12.3581 N   0  0  0  0  0  0  0  0  0  0  0  0
   -2.2316  -64.1890  -12.8215 C   0  0  0  0  0  0  0  0  0  0  0  0
   -3.1511  -64.8217  -13.6816 C   0  0  0  0  0  0  0  0  0  0  0  0
   -2.9854  -66.1507  -14.0333 C   0  0  0  0  0  0  0  0  0  0  0  0
   -1.9158  -66.8699  -13.5033 C   0  0  0  0  0  0  0  0  0  0  0  0
   -1.7911  -68.5342  -13.9740 Cl  0  0  0  0  0  0  0  0  0  0  0  0
   -1.0009  -66.2999  -12.6007 C   0  0  0  0  0  0  0  0  0  0  0  0
    0.0150  -67.0278  -12.0830 N   0  0  0  0  0  0  0  0  0  0  0  0
    0.8407  -66.4629  -11.1788 C   0  0  0  0  0  0  0  0  0  0  0  0
    0.7152  -65.1657  -10.7352 C   0  0  0  0  0  0  0  0  0  0  0  0
   -0.3139  -64.4016  -11.2628 C   0  0  0  0  0  0  0  0  0  0  0  0
   -1.1872  -64.9449  -12.2263 C   0  0  0  0  0  0  0  0  0  0  0  0
   -1.4547  -62.4476  -13.6531 C   0  0  0  0  0  0  0  0  0  0  0  0
   -2.0927  -61.7747  -14.9058 C   0  0  0  0  0  0  0  0  0  0  0  0
   -1.4938  -60.1328  -14.4299 S   0  0  0  0  0  0  0  0  0  0  0  0
   -0.6246  -61.1887  -13.2550 C   0  0  0  0  0  0  0  0  0  0  0  0
  1  2  2  0
  2  3  1  0
  3  4  2  0
  4  5  1  0
  5  6  2  0
  6  7  1  0
  7  8  2  0
  2  9  1  0
  9 10  1  0
 10 11  2  0
 11 12  1  0
 12 13  2  0
 13 14  1  0
 13 15  1  0
 15 16  2  0
 16 17  1  0
 17 18  2  0
 18 19  1  0
 19 20  2  0
  9 21  1  0
 21 22  1  0
 22 23  1  0
 23 24  1  0
  8  3  1  0
 20 10  1  0
 24 21  1  0
 20 15  1  0
M  END
>  <smiles>  (138) 
O=C(c1ccncc1)N(c1ccc(Cl)c2ncccc12)C1CSC1

>  <inchikey>  (138) 
XKLCDJGAUVXCHS-UHFFFAOYSA-N

$$$$
ISNPMEPVGZBDRH-UHFFFAOYSA-N-P446140-P446140-541666
     RDKit          3D

 24 26  0  0  0  0  0  0  0  0999 V2000
   -4.8116  -62.3593  -13.0389 O   0  0  0  0  0  0  0  0  0  0  0  0
   -3.7778  -62.0663  -12.5713 C   0  0  0  0  0  0  0  0  0  0  0  0
   -3.8204  -60.7687  -11.8697 C   0  0  0  0  0  0  0  0  0  0  0  0
   -3.3047  -60.5060  -10.6110 C   0  0  0  0  0  0  0  0  0  0  0  0
   -3.6083  -59.2663  -10.0562 C   0  0  0  0  0  0  0  0  0  0  0  0
   -4.3622  -58.3074  -10.6618 N   0  0  0  0  0  0  0  0  0  0  0  0
   -4.8246  -58.6078  -11.8939 C   0  0  0  0  0  0  0  0  0  0  0  0
   -4.5988  -59.8069  -12.5093 C   0  0  0  0  0  0  0  0  0  0  0  0
   -2.4957  -62.8349  -12.4974 N   0  0  0  0  0  0  0  0  0  0  0  0
   -1.5386  -62.5375  -13.8162 C   0  0  0  0  0  0  0  0  0  0  0  0
   -0.8771  -61.1288  -13.8331 C   0  0  0  0  0  0  0  0  0  0  0  0
   -1.9246  -59.8410  -14.4526 Cl  0  0  0  0  0  0  0  0  0  0  0  0
   -0.1581  -60.6806  -12.2709 Cl  0  0  0  0  0  0  0  0  0  0  0  0
   -2.1801  -64.2194  -12.8991 C   0  0  0  0  0  0  0  0  0  0  0  0
   -3.1269  -64.8854  -13.7083 C   0  0  0  0  0  0  0  0  0  0  0  0
   -2.9749  -66.2260  -14.0159 C   0  0  0  0  0  0  0  0  0  0  0  0
   -1.8978  -66.9292  -13.4816 C   0  0  0  0  0  0  0  0  0  0  0  0
   -1.7798  -68.6052  -13.9091 Cl  0  0  0  0  0  0  0  0  0  0  0  0
   -0.9719  -66.3346  -12.6065 C   0  0  0  0  0  0  0  0  0  0  0  0
    0.0421  -67.0525  -12.0719 N   0  0  0  0  0  0  0  0  0  0  0  0
    0.8709  -66.4668  -11.1836 C   0  0  0  0  0  0  0  0  0  0  0  0
    0.7513  -65.1578  -10.7754 C   0  0  0  0  0  0  0  0  0  0  0  0
   -0.2718  -64.4028  -11.3266 C   0  0  0  0  0  0  0  0  0  0  0  0
   -1.1452  -64.9659  -12.2774 C   0  0  0  0  0  0  0  0  0  0  0  0
  1  2  2  0
  2  3  1  0
  3  4  2  0
  4  5  1  0
  5  6  2  0
  6  7  1  0
  7  8  2  0
  2  9  1  0
  9 10  1  0
 10 11  1  0
 11 12  1  0
 11 13  1  0
  9 14  1  0
 14 15  2  0
 15 16  1  0
 16 17  2  0
 17 18  1  0
 17 19  1  0
 19 20  2  0
 20 21  1  0
 21 22  2  0
 22 23  1  0
 23 24  2  0
  8  3  1  0
 24 14  1  0
 24 19  1  0
M  END
>  <smiles>  (139) 
O=C(c1ccncc1)N(CC(Cl)Cl)c1ccc(Cl)c2ncccc12

>  <inchikey>  (139) 
ISNPMEPVGZBDRH-UHFFFAOYSA-N

$$$$
PXQJGULWBBZWAF-UHFFFAOYSA-N-P446140-P446140-541666
     RDKit          3D

 24 27  0  0  0  0  0  0  0  0999 V2000
   -2.0301  -62.3480  -10.1167 O   0  0  0  0  0  0  0  0  0  0  0  0
   -2.6303  -61.9970  -11.0689 C   0  0  0  0  0  0  0  0  0  0  0  0
   -3.4329  -60.7387  -10.9572 C   0  0  0  0  0  0  0  0  0  0  0  0
   -3.1269  -59.8672   -9.9102 C   0  0  0  0  0  0  0  0  0  0  0  0
   -3.8443  -58.6945   -9.8016 C   0  0  0  0  0  0  0  0  0  0  0  0
   -4.8382  -58.3427  -10.6468 N   0  0  0  0  0  0  0  0  0  0  0  0
   -5.1359  -59.2200  -11.6379 C   0  0  0  0  0  0  0  0  0  0  0  0
   -4.4688  -60.4165  -11.8351 C   0  0  0  0  0  0  0  0  0  0  0  0
   -2.8192  -62.6723  -12.4144 N   0  0  0  0  0  0  0  0  0  0  0  0
   -2.3900  -64.0144  -12.8945 C   0  0  0  0  0  0  0  0  0  0  0  0
   -3.3317  -64.5986  -13.7618 C   0  0  0  0  0  0  0  0  0  0  0  0
   -3.2167  -65.9229  -14.1514 C   0  0  0  0  0  0  0  0  0  0  0  0
   -2.1745  -66.6997  -13.6518 C   0  0  0  0  0  0  0  0  0  0  0  0
   -2.1153  -68.3573  -14.1658 Cl  0  0  0  0  0  0  0  0  0  0  0  0
   -1.2280  -66.1930  -12.7527 C   0  0  0  0  0  0  0  0  0  0  0  0
   -0.2480  -67.0057  -12.2893 N   0  0  0  0  0  0  0  0  0  0  0  0
    0.6504  -66.5317  -11.4080 C   0  0  0  0  0  0  0  0  0  0  0  0
    0.6432  -65.2389  -10.9530 C   0  0  0  0  0  0  0  0  0  0  0  0
   -0.3512  -64.3957  -11.4311 C   0  0  0  0  0  0  0  0  0  0  0  0
   -1.3409  -64.8365  -12.3434 C   0  0  0  0  0  0  0  0  0  0  0  0
   -1.6035  -62.2153  -13.5110 C   0  0  0  0  0  0  0  0  0  0  0  0
   -2.0726  -62.0408  -14.9937 C   0  0  0  0  0  0  0  0  0  0  0  0
   -1.1436  -60.8127  -15.0604 C   0  0  0  0  0  0  0  0  0  0  0  0
   -1.3846  -60.6619  -13.5480 C   0  0  0  0  0  0  0  0  0  0  0  0
  1  2  2  0
  2  3  1  0
  3  4  2  0
  4  5  1  0
  5  6  2  0
  6  7  1  0
  7  8  2  0
  2  9  1  0
  9 10  1  0
 10 11  2  0
 11 12  1  0
 12 13  2  0
 13 14  1  0
 13 15  1  0
 15 16  2  0
 16 17  1  0
 17 18  2  0
 18 19  1  0
 19 20  2  0
  9 21  1  0
 21 22  1  0
 22 23  1  0
 23 24  1  0
  8  3  1  0
 20 10  1  0
 24 21  1  0
 20 15  1  0
M  END
>  <smiles>  (140) 
O=C(c1ccncc1)N(c1ccc(Cl)c2ncccc12)C1CCC1

>  <inchikey>  (140) 
PXQJGULWBBZWAF-UHFFFAOYSA-N

$$$$
PRUWBFMZIBPPPF-UHFFFAOYSA-N-P446140-P446140-541666
     RDKit          3D

 24 27  0  0  0  0  0  0  0  0999 V2000
   -1.5601  -61.9636  -10.6542 O   0  0  0  0  0  0  0  0  0  0  0  0
   -2.4740  -61.8313  -11.3864 C   0  0  0  0  0  0  0  0  0  0  0  0
   -3.3666  -60.6479  -11.1656 C   0  0  0  0  0  0  0  0  0  0  0  0
   -3.0536  -59.8005  -10.0978 C   0  0  0  0  0  0  0  0  0  0  0  0
   -3.8366  -58.6865   -9.8848 C   0  0  0  0  0  0  0  0  0  0  0  0
   -4.8987  -58.3639  -10.6526 N   0  0  0  0  0  0  0  0  0  0  0  0
   -5.2002  -59.2147  -11.6655 C   0  0  0  0  0  0  0  0  0  0  0  0
   -4.4741  -60.3562  -11.9602 C   0  0  0  0  0  0  0  0  0  0  0  0
   -2.9513  -62.7073  -12.5283 N   0  0  0  0  0  0  0  0  0  0  0  0
   -2.2620  -62.2758  -13.9277 C   0  0  0  0  0  0  0  0  0  0  0  0
   -0.7704  -62.0395  -13.9743 C   0  0  0  0  0  0  0  0  0  0  0  0
   -0.1759  -61.4757  -15.2464 C   0  0  0  0  0  0  0  0  0  0  0  0
    0.1297  -62.8867  -14.8442 C   0  0  0  0  0  0  0  0  0  0  0  0
   -2.4661  -64.0526  -13.0025 C   0  0  0  0  0  0  0  0  0  0  0  0
   -3.4733  -64.7461  -13.7169 C   0  0  0  0  0  0  0  0  0  0  0  0
   -3.3317  -66.0768  -14.0665 C   0  0  0  0  0  0  0  0  0  0  0  0
   -2.2103  -66.7784  -13.6452 C   0  0  0  0  0  0  0  0  0  0  0  0
   -2.1199  -68.4511  -14.1032 Cl  0  0  0  0  0  0  0  0  0  0  0  0
   -1.2161  -66.1903  -12.8588 C   0  0  0  0  0  0  0  0  0  0  0  0
   -0.1881  -66.9655  -12.4373 N   0  0  0  0  0  0  0  0  0  0  0  0
    0.7693  -66.4396  -11.6573 C   0  0  0  0  0  0  0  0  0  0  0  0
    0.7792  -65.1246  -11.2824 C   0  0  0  0  0  0  0  0  0  0  0  0
   -0.2641  -64.3208  -11.7287 C   0  0  0  0  0  0  0  0  0  0  0  0
   -1.3332  -64.8111  -12.5170 C   0  0  0  0  0  0  0  0  0  0  0  0
  1  2  2  0
  2  3  1  0
  3  4  2  0
  4  5  1  0
  5  6  2  0
  6  7  1  0
  7  8  2  0
  2  9  1  0
  9 10  1  0
 10 11  1  0
 11 12  1  0
 12 13  1  0
  9 14  1  0
 14 15  2  0
 15 16  1  0
 16 17  2  0
 17 18  1  0
 17 19  1  0
 19 20  2  0
 20 21  1  0
 21 22  2  0
 22 23  1  0
 23 24  2  0
  8  3  1  0
 13 11  1  0
 24 14  1  0
 24 19  1  0
M  END
>  <smiles>  (141) 
O=C(c1ccncc1)N(CC1CC1)c1ccc(Cl)c2ncccc12

>  <inchikey>  (141) 
PRUWBFMZIBPPPF-UHFFFAOYSA-N

$$$$
CWGHRKGUIJAMPU-UHFFFAOYSA-N-P446140-P446140-541666
     RDKit          3D

 24 27  0  0  0  0  0  0  0  0999 V2000
   -0.9925  -61.1409  -12.3541 O   0  0  0  0  0  0  0  0  0  0  0  0
   -2.1186  -61.3454  -12.0813 C   0  0  0  0  0  0  0  0  0  0  0  0
   -3.0182  -60.2188  -11.6929 C   0  0  0  0  0  0  0  0  0  0  0  0
   -4.3942  -60.2668  -11.8986 C   0  0  0  0  0  0  0  0  0  0  0  0
   -5.1691  -59.2379  -11.3983 C   0  0  0  0  0  0  0  0  0  0  0  0
   -4.6676  -58.1769  -10.7333 N   0  0  0  0  0  0  0  0  0  0  0  0
   -3.3257  -58.1359  -10.6004 C   0  0  0  0  0  0  0  0  0  0  0  0
   -2.4691  -59.1172  -11.0588 C   0  0  0  0  0  0  0  0  0  0  0  0
   -2.8983  -62.6394  -12.0526 N   0  0  0  0  0  0  0  0  0  0  0  0
   -2.5076  -64.0104  -12.4525 C   0  0  0  0  0  0  0  0  0  0  0  0
   -3.5441  -64.6263  -13.1832 C   0  0  0  0  0  0  0  0  0  0  0  0
   -3.3923  -65.8949  -13.7229 C   0  0  0  0  0  0  0  0  0  0  0  0
   -2.2032  -66.5855  -13.5113 C   0  0  0  0  0  0  0  0  0  0  0  0
   -2.1255  -68.2152  -14.1065 Cl  0  0  0  0  0  0  0  0  0  0  0  0
   -1.1166  -66.0075  -12.8408 C   0  0  0  0  0  0  0  0  0  0  0  0
    0.0080  -66.7345  -12.6469 N   0  0  0  0  0  0  0  0  0  0  0  0
    1.0732  -66.1661  -12.0551 C   0  0  0  0  0  0  0  0  0  0  0  0
    1.0959  -64.8552  -11.6522 C   0  0  0  0  0  0  0  0  0  0  0  0
   -0.0575  -64.1041  -11.8346 C   0  0  0  0  0  0  0  0  0  0  0  0
   -1.2325  -64.6652  -12.3801 C   0  0  0  0  0  0  0  0  0  0  0  0
   -2.8127  -63.3938  -10.4869 C   0  0  0  0  0  0  0  0  0  0  0  0
   -1.7976  -62.7693   -9.4868 C   0  0  0  0  0  0  0  0  0  0  0  0
   -2.8201  -61.9259   -8.9060 O   0  0  0  0  0  0  0  0  0  0  0  0
   -3.8426  -62.7397   -9.5194 C   0  0  0  0  0  0  0  0  0  0  0  0
  1  2  2  0
  2  3  1  0
  3  4  2  0
  4  5  1  0
  5  6  2  0
  6  7  1  0
  7  8  2  0
  2  9  1  0
  9 10  1  0
 10 11  2  0
 11 12  1  0
 12 13  2  0
 13 14  1  0
 13 15  1  0
 15 16  2  0
 16 17  1  0
 17 18  2  0
 18 19  1  0
 19 20  2  0
  9 21  1  0
 21 22  1  0
 22 23  1  0
 23 24  1  0
  8  3  1  0
 20 10  1  0
 24 21  1  0
 20 15  1  0
M  END
>  <smiles>  (142) 
O=C(c1ccncc1)N(c1ccc(Cl)c2ncccc12)C1COC1

>  <inchikey>  (142) 
CWGHRKGUIJAMPU-UHFFFAOYSA-N

$$$$
QCLWJBCAJAWAOG-UHFFFAOYSA-N-P446140-P446140-541666
     RDKit          3D

 24 26  0  0  0  0  0  0  0  0999 V2000
   -1.9397  -62.2695  -10.2810 O   0  0  0  0  0  0  0  0  0  0  0  0
   -2.5929  -61.9757  -11.2179 C   0  0  0  0  0  0  0  0  0  0  0  0
   -3.3934  -60.7153  -11.1057 C   0  0  0  0  0  0  0  0  0  0  0  0
   -3.0682  -59.8382  -10.0661 C   0  0  0  0  0  0  0  0  0  0  0  0
   -3.8057  -58.6824   -9.9199 C   0  0  0  0  0  0  0  0  0  0  0  0
   -4.8340  -58.3466  -10.7270 N   0  0  0  0  0  0  0  0  0  0  0  0
   -5.1475  -59.2250  -11.7135 C   0  0  0  0  0  0  0  0  0  0  0  0
   -4.4662  -60.4097  -11.9415 C   0  0  0  0  0  0  0  0  0  0  0  0
   -2.8442  -62.7251  -12.5139 N   0  0  0  0  0  0  0  0  0  0  0  0
   -1.7343  -62.3326  -13.6530 C   0  0  0  0  0  0  0  0  0  0  0  0
   -2.0992  -60.9760  -14.2874 C   0  0  0  0  0  0  0  0  0  0  0  0
   -1.0661  -60.5755  -15.3301 C   0  0  0  0  0  0  0  0  0  0  0  0
   -0.9538  -61.5586  -16.2631 F   0  0  0  0  0  0  0  0  0  0  0  0
   -2.4264  -64.0849  -12.9419 C   0  0  0  0  0  0  0  0  0  0  0  0
   -3.3912  -64.7032  -13.7611 C   0  0  0  0  0  0  0  0  0  0  0  0
   -3.2621  -66.0323  -14.1238 C   0  0  0  0  0  0  0  0  0  0  0  0
   -2.1858  -66.7764  -13.6464 C   0  0  0  0  0  0  0  0  0  0  0  0
   -2.1080  -68.4406  -14.1356 Cl  0  0  0  0  0  0  0  0  0  0  0  0
   -1.2167  -66.2328  -12.7937 C   0  0  0  0  0  0  0  0  0  0  0  0
   -0.2077  -67.0194  -12.3475 N   0  0  0  0  0  0  0  0  0  0  0  0
    0.7147  -66.5107  -11.5120 C   0  0  0  0  0  0  0  0  0  0  0  0
    0.7063  -65.2060  -11.0932 C   0  0  0  0  0  0  0  0  0  0  0  0
   -0.3161  -64.3887  -11.5578 C   0  0  0  0  0  0  0  0  0  0  0  0
   -1.3355  -64.8682  -12.4155 C   0  0  0  0  0  0  0  0  0  0  0  0
  1  2  2  0
  2  3  1  0
  3  4  2  0
  4  5  1  0
  5  6  2  0
  6  7  1  0
  7  8  2  0
  2  9  1  0
  9 10  1  0
 10 11  1  0
 11 12  1  0
 12 13  1  0
  9 14  1  0
 14 15  2  0
 15 16  1  0
 16 17  2  0
 17 18  1  0
 17 19  1  0
 19 20  2  0
 20 21  1  0
 21 22  2  0
 22 23  1  0
 23 24  2  0
  8  3  1  0
 24 14  1  0
 24 19  1  0
M  END
>  <smiles>  (143) 
O=C(c1ccncc1)N(CCCF)c1ccc(Cl)c2ncccc12

>  <inchikey>  (143) 
QCLWJBCAJAWAOG-UHFFFAOYSA-N

$$$$
PPBJJTIGUUGPKE-UHFFFAOYSA-N-P446140-P446140-541666
     RDKit          3D

 24 26  0  0  0  0  0  0  0  0999 V2000
   -2.3463  -62.5304   -9.8814 O   0  0  0  0  0  0  0  0  0  0  0  0
   -2.7508  -62.0984  -10.9004 C   0  0  0  0  0  0  0  0  0  0  0  0
   -3.4714  -60.7895  -10.8574 C   0  0  0  0  0  0  0  0  0  0  0  0
   -4.4521  -60.4392  -11.7854 C   0  0  0  0  0  0  0  0  0  0  0  0
   -5.0724  -59.2103  -11.6406 C   0  0  0  0  0  0  0  0  0  0  0  0
   -4.7805  -58.3281  -10.6522 N   0  0  0  0  0  0  0  0  0  0  0  0
   -3.8343  -58.7049   -9.7630 C   0  0  0  0  0  0  0  0  0  0  0  0
   -3.1668  -59.9116   -9.8170 C   0  0  0  0  0  0  0  0  0  0  0  0
   -2.7547  -62.7047  -12.2905 N   0  0  0  0  0  0  0  0  0  0  0  0
   -1.4004  -62.3157  -13.1094 C   0  0  0  0  0  0  0  0  0  0  0  0
   -1.4900  -60.8782  -13.6433 C   0  0  0  0  0  0  0  0  0  0  0  0
   -2.3897  -60.8002  -14.8591 C   0  0  0  0  0  0  0  0  0  0  0  0
   -2.3430  -59.4756  -15.3697 O   0  0  0  0  0  0  0  0  0  0  0  0
   -2.3444  -64.0531  -12.7590 C   0  0  0  0  0  0  0  0  0  0  0  0
   -3.2248  -64.5539  -13.7391 C   0  0  0  0  0  0  0  0  0  0  0  0
   -3.1170  -65.8602  -14.1875 C   0  0  0  0  0  0  0  0  0  0  0  0
   -2.1255  -66.6872  -13.6628 C   0  0  0  0  0  0  0  0  0  0  0  0
   -2.0676  -68.3177  -14.2584 Cl  0  0  0  0  0  0  0  0  0  0  0  0
   -1.2292  -66.2534  -12.6760 C   0  0  0  0  0  0  0  0  0  0  0  0
   -0.2792  -67.1023  -12.2166 N   0  0  0  0  0  0  0  0  0  0  0  0
    0.5526  -66.7055  -11.2370 C   0  0  0  0  0  0  0  0  0  0  0  0
    0.4937  -65.4635  -10.6602 C   0  0  0  0  0  0  0  0  0  0  0  0
   -0.4712  -64.5829  -11.1290 C   0  0  0  0  0  0  0  0  0  0  0  0
   -1.3640  -64.9319  -12.1716 C   0  0  0  0  0  0  0  0  0  0  0  0
  1  2  2  0
  2  3  1  0
  3  4  2  0
  4  5  1  0
  5  6  2  0
  6  7  1  0
  7  8  2  0
  2  9  1  0
  9 10  1  0
 10 11  1  0
 11 12  1  0
 12 13  1  0
  9 14  1  0
 14 15  2  0
 15 16  1  0
 16 17  2  0
 17 18  1  0
 17 19  1  0
 19 20  2  0
 20 21  1  0
 21 22  2  0
 22 23  1  0
 23 24  2  0
  8  3  1  0
 24 14  1  0
 24 19  1  0
M  END
>  <smiles>  (144) 
O=C(c1ccncc1)N(CCCO)c1ccc(Cl)c2ncccc12

>  <inchikey>  (144) 
PPBJJTIGUUGPKE-UHFFFAOYSA-N

$$$$
ZPALKZBBPPEUSG-UHFFFAOYSA-N-P446140-P446140-541666
     RDKit          3D

 24 26  0  0  0  0  0  0  0  0999 V2000
   -2.2519  -62.3784  -15.0731 C   0  0  0  0  0  0  0  0  0  0  0  0
   -1.8493  -62.1837  -13.5916 C   0  0  2  0  0  0  0  0  0  0  0  0
   -0.3119  -62.1094  -13.3627 C   0  0  0  0  0  0  0  0  0  0  0  0
    0.2649  -61.0966  -14.1927 O   0  0  0  0  0  0  0  0  0  0  0  0
   -2.8682  -62.6906  -12.3859 N   0  0  0  0  0  0  0  0  0  0  0  0
   -2.5923  -61.9575  -11.0898 C   0  0  0  0  0  0  0  0  0  0  0  0
   -1.8644  -62.2242  -10.2036 O   0  0  0  0  0  0  0  0  0  0  0  0
   -3.4170  -60.7120  -10.9728 C   0  0  0  0  0  0  0  0  0  0  0  0
   -4.4312  -60.3774  -11.8710 C   0  0  0  0  0  0  0  0  0  0  0  0
   -5.1138  -59.1915  -11.6639 C   0  0  0  0  0  0  0  0  0  0  0  0
   -4.8476  -58.3335  -10.6469 N   0  0  0  0  0  0  0  0  0  0  0  0
   -3.8685  -58.6917   -9.7888 C   0  0  0  0  0  0  0  0  0  0  0  0
   -3.1402  -59.8561   -9.9042 C   0  0  0  0  0  0  0  0  0  0  0  0
   -2.3778  -64.0170  -12.8804 C   0  0  0  0  0  0  0  0  0  0  0  0
   -3.3671  -64.6463  -13.6748 C   0  0  0  0  0  0  0  0  0  0  0  0
   -3.2500  -65.9610  -14.0922 C   0  0  0  0  0  0  0  0  0  0  0  0
   -2.1659  -66.7144  -13.6656 C   0  0  0  0  0  0  0  0  0  0  0  0
   -2.0915  -68.3599  -14.2157 Cl  0  0  0  0  0  0  0  0  0  0  0  0
   -1.2073  -66.2028  -12.7862 C   0  0  0  0  0  0  0  0  0  0  0  0
   -0.2143  -67.0235  -12.3690 N   0  0  0  0  0  0  0  0  0  0  0  0
    0.6712  -66.5942  -11.4562 C   0  0  0  0  0  0  0  0  0  0  0  0
    0.6306  -65.3372  -10.9192 C   0  0  0  0  0  0  0  0  0  0  0  0
   -0.3704  -64.4806  -11.3630 C   0  0  0  0  0  0  0  0  0  0  0  0
   -1.3332  -64.8558  -12.3336 C   0  0  0  0  0  0  0  0  0  0  0  0
  2  1  1  6
  2  3  1  0
  3  4  1  0
  2  5  1  0
  5  6  1  0
  6  7  2  0
  6  8  1  0
  8  9  2  0
  9 10  1  0
 10 11  2  0
 11 12  1  0
 12 13  2  0
  5 14  1  0
 14 15  2  0
 15 16  1  0
 16 17  2  0
 17 18  1  0
 17 19  1  0
 19 20  2  0
 20 21  1  0
 21 22  2  0
 22 23  1  0
 23 24  2  0
 13  8  1  0
 24 14  1  0
 24 19  1  0
M  END
>  <smiles>  (145) 
CC(CO)N(C(=O)c1ccncc1)c1ccc(Cl)c2ncccc12

>  <inchikey>  (145) 
ZPALKZBBPPEUSG-UHFFFAOYSA-N

$$$$
DNXPQAHLBRHAQI-UHFFFAOYSA-N-P446140-P446140-541666
     RDKit          3D

 24 26  0  0  0  0  0  0  0  0999 V2000
   -1.2170  -61.9633  -15.9065 O   0  0  0  0  0  0  0  0  0  0  0  0
   -1.9467  -61.8035  -14.9387 C   0  0  0  0  0  0  0  0  0  0  0  0
   -3.1273  -61.1697  -15.0678 O   0  0  0  0  0  0  0  0  0  0  0  0
   -1.5875  -62.1805  -13.5024 C   0  0  0  0  0  0  0  0  0  0  0  0
   -2.7718  -62.6246  -12.5093 N   0  0  0  0  0  0  0  0  0  0  0  0
   -2.6202  -61.9790  -11.1513 C   0  0  0  0  0  0  0  0  0  0  0  0
   -2.0525  -62.3519  -10.1894 O   0  0  0  0  0  0  0  0  0  0  0  0
   -3.3996  -60.7064  -11.0493 C   0  0  0  0  0  0  0  0  0  0  0  0
   -3.1419  -59.8800   -9.9527 C   0  0  0  0  0  0  0  0  0  0  0  0
   -3.8597  -58.7098   -9.8287 C   0  0  0  0  0  0  0  0  0  0  0  0
   -4.8111  -58.3200  -10.7042 N   0  0  0  0  0  0  0  0  0  0  0  0
   -5.0586  -59.1515  -11.7484 C   0  0  0  0  0  0  0  0  0  0  0  0
   -4.3830  -60.3395  -11.9672 C   0  0  0  0  0  0  0  0  0  0  0  0
   -2.3370  -63.9629  -13.0030 C   0  0  0  0  0  0  0  0  0  0  0  0
   -3.2593  -64.5263  -13.9030 C   0  0  0  0  0  0  0  0  0  0  0  0
   -3.1723  -65.8607  -14.2666 C   0  0  0  0  0  0  0  0  0  0  0  0
   -2.1743  -66.6643  -13.7192 C   0  0  0  0  0  0  0  0  0  0  0  0
   -2.1490  -68.3306  -14.2069 Cl  0  0  0  0  0  0  0  0  0  0  0  0
   -1.2423  -66.1753  -12.7966 C   0  0  0  0  0  0  0  0  0  0  0  0
   -0.3004  -67.0095  -12.2939 N   0  0  0  0  0  0  0  0  0  0  0  0
    0.5826  -66.5513  -11.3891 C   0  0  0  0  0  0  0  0  0  0  0  0
    0.5964  -65.2542  -10.9474 C   0  0  0  0  0  0  0  0  0  0  0  0
   -0.3585  -64.3893  -11.4660 C   0  0  0  0  0  0  0  0  0  0  0  0
   -1.3305  -64.8122  -12.4061 C   0  0  0  0  0  0  0  0  0  0  0  0
  1  2  2  0
  2  3  1  0
  2  4  1  0
  4  5  1  0
  5  6  1  0
  6  7  2  0
  6  8  1  0
  8  9  2  0
  9 10  1  0
 10 11  2  0
 11 12  1  0
 12 13  2  0
  5 14  1  0
 14 15  2  0
 15 16  1  0
 16 17  2  0
 17 18  1  0
 17 19  1  0
 19 20  2  0
 20 21  1  0
 21 22  2  0
 22 23  1  0
 23 24  2  0
 13  8  1  0
 24 14  1  0
 24 19  1  0
M  END
>  <smiles>  (146) 
O=C(O)CN(C(=O)c1ccncc1)c1ccc(Cl)c2ncccc12

>  <inchikey>  (146) 
DNXPQAHLBRHAQI-UHFFFAOYSA-N

$$$$
PFXINFBGUSSNBK-UHFFFAOYSA-N-P446140-P446140-541666
     RDKit          3D

 24 26  0  0  0  0  0  0  0  0999 V2000
    0.3068  -60.7484  -14.0454 C   0  0  0  0  0  0  0  0  0  0  0  0
   -0.8168  -61.1104  -13.0786 C   0  0  0  0  0  0  0  0  0  0  0  0
   -1.7383  -62.2590  -13.6004 C   0  0  2  0  0  0  0  0  0  0  0  0
   -2.5425  -61.7085  -14.8040 C   0  0  0  0  0  0  0  0  0  0  0  0
   -2.8772  -62.7212  -12.4294 N   0  0  0  0  0  0  0  0  0  0  0  0
   -2.6350  -62.0067  -11.1124 C   0  0  0  0  0  0  0  0  0  0  0  0
   -1.9740  -62.3167  -10.1867 O   0  0  0  0  0  0  0  0  0  0  0  0
   -3.4403  -60.7482  -10.9983 C   0  0  0  0  0  0  0  0  0  0  0  0
   -4.4633  -60.4107  -11.8829 C   0  0  0  0  0  0  0  0  0  0  0  0
   -5.1278  -59.2132  -11.6785 C   0  0  0  0  0  0  0  0  0  0  0  0
   -4.8367  -58.3460  -10.6762 N   0  0  0  0  0  0  0  0  0  0  0  0
   -3.8519  -58.7100   -9.8267 C   0  0  0  0  0  0  0  0  0  0  0  0
   -3.1396  -59.8851   -9.9413 C   0  0  0  0  0  0  0  0  0  0  0  0
   -2.4361  -64.0629  -12.9000 C   0  0  0  0  0  0  0  0  0  0  0  0
   -3.3981  -64.6845  -13.7179 C   0  0  0  0  0  0  0  0  0  0  0  0
   -3.2610  -66.0069  -14.1046 C   0  0  0  0  0  0  0  0  0  0  0  0
   -2.1796  -66.7510  -13.6427 C   0  0  0  0  0  0  0  0  0  0  0  0
   -2.0946  -68.4082  -14.1537 Cl  0  0  0  0  0  0  0  0  0  0  0  0
   -1.2163  -66.2139  -12.7810 C   0  0  0  0  0  0  0  0  0  0  0  0
   -0.2028  -67.0021  -12.3484 N   0  0  0  0  0  0  0  0  0  0  0  0
    0.7142  -66.5038  -11.5015 C   0  0  0  0  0  0  0  0  0  0  0  0
    0.6938  -65.2084  -11.0567 C   0  0  0  0  0  0  0  0  0  0  0  0
   -0.3343  -64.3899  -11.5074 C   0  0  0  0  0  0  0  0  0  0  0  0
   -1.3469  -64.8559  -12.3784 C   0  0  0  0  0  0  0  0  0  0  0  0
  1  2  1  0
  2  3  1  0
  3  4  1  6
  3  5  1  0
  5  6  1  0
  6  7  2  0
  6  8  1  0
  8  9  2  0
  9 10  1  0
 10 11  2  0
 11 12  1  0
 12 13  2  0
  5 14  1  0
 14 15  2  0
 15 16  1  0
 16 17  2  0
 17 18  1  0
 17 19  1  0
 19 20  2  0
 20 21  1  0
 21 22  2  0
 22 23  1  0
 23 24  2  0
 13  8  1  0
 24 14  1  0
 24 19  1  0
M  END
>  <smiles>  (147) 
CCC(C)N(C(=O)c1ccncc1)c1ccc(Cl)c2ncccc12

>  <inchikey>  (147) 
PFXINFBGUSSNBK-UHFFFAOYSA-N

$$$$
QIJWMHUQBDFQHA-UHFFFAOYSA-N-P446140-P446140-541666
     RDKit          3D

 24 26  0  0  0  0  0  0  0  0999 V2000
   -0.7656  -59.8812  -15.3042 C   0  0  0  0  0  0  0  0  0  0  0  0
   -0.4663  -61.2705  -15.2571 O   0  0  0  0  0  0  0  0  0  0  0  0
   -0.7898  -61.8830  -14.0002 C   0  0  0  0  0  0  0  0  0  0  0  0
   -2.2769  -62.3034  -13.9649 C   0  0  0  0  0  0  0  0  0  0  0  0
   -2.9539  -62.7232  -12.5532 N   0  0  0  0  0  0  0  0  0  0  0  0
   -2.4701  -61.8339  -11.4249 C   0  0  0  0  0  0  0  0  0  0  0  0
   -1.5499  -61.9556  -10.6993 O   0  0  0  0  0  0  0  0  0  0  0  0
   -3.3657  -60.6534  -11.1996 C   0  0  0  0  0  0  0  0  0  0  0  0
   -4.4762  -60.3613  -11.9889 C   0  0  0  0  0  0  0  0  0  0  0  0
   -5.2025  -59.2208  -11.6879 C   0  0  0  0  0  0  0  0  0  0  0  0
   -4.8977  -58.3713  -10.6747 N   0  0  0  0  0  0  0  0  0  0  0  0
   -3.8348  -58.6957   -9.9099 C   0  0  0  0  0  0  0  0  0  0  0  0
   -3.0516  -59.8084  -10.1293 C   0  0  0  0  0  0  0  0  0  0  0  0
   -2.4692  -64.0690  -13.0166 C   0  0  0  0  0  0  0  0  0  0  0  0
   -3.4798  -64.7726  -13.7161 C   0  0  0  0  0  0  0  0  0  0  0  0
   -3.3352  -66.1058  -14.0544 C   0  0  0  0  0  0  0  0  0  0  0  0
   -2.2088  -66.7996  -13.6336 C   0  0  0  0  0  0  0  0  0  0  0  0
   -2.1152  -68.4761  -14.0760 Cl  0  0  0  0  0  0  0  0  0  0  0  0
   -1.2119  -66.2000  -12.8588 C   0  0  0  0  0  0  0  0  0  0  0  0
   -0.1807  -66.9670  -12.4312 N   0  0  0  0  0  0  0  0  0  0  0  0
    0.7808  -66.4286  -11.6649 C   0  0  0  0  0  0  0  0  0  0  0  0
    0.7913  -65.1081  -11.3092 C   0  0  0  0  0  0  0  0  0  0  0  0
   -0.2558  -64.3117  -11.7602 C   0  0  0  0  0  0  0  0  0  0  0  0
   -1.3294  -64.8166  -12.5336 C   0  0  0  0  0  0  0  0  0  0  0  0
  1  2  1  0
  2  3  1  0
  3  4  1  0
  4  5  1  0
  5  6  1  0
  6  7  2  0
  6  8  1  0
  8  9  2  0
  9 10  1  0
 10 11  2  0
 11 12  1  0
 12 13  2  0
  5 14  1  0
 14 15  2  0
 15 16  1  0
 16 17  2  0
 17 18  1  0
 17 19  1  0
 19 20  2  0
 20 21  1  0
 21 22  2  0
 22 23  1  0
 23 24  2  0
 13  8  1  0
 24 14  1  0
 24 19  1  0
M  END
>  <smiles>  (148) 
COCCN(C(=O)c1ccncc1)c1ccc(Cl)c2ncccc12

>  <inchikey>  (148) 
QIJWMHUQBDFQHA-UHFFFAOYSA-N

$$$$
LZNJXXGIUAGYLA-UHFFFAOYSA-N-P446140-P446140-541666
     RDKit          3D

 24 26  0  0  0  0  0  0  0  0999 V2000
    0.3959  -61.4031  -14.9188 C   0  0  0  0  0  0  0  0  0  0  0  0
   -0.2267  -61.8512  -13.5913 C   0  0  0  0  0  0  0  0  0  0  0  0
   -0.2479  -60.6758  -12.6153 C   0  0  0  0  0  0  0  0  0  0  0  0
   -1.6397  -62.4324  -13.8583 C   0  0  0  0  0  0  0  0  0  0  0  0
   -2.4880  -62.7920  -12.5105 N   0  0  0  0  0  0  0  0  0  0  0  0
   -3.7979  -62.0731  -12.4864 C   0  0  0  0  0  0  0  0  0  0  0  0
   -4.8459  -62.3945  -12.8963 O   0  0  0  0  0  0  0  0  0  0  0  0
   -3.7834  -60.7383  -11.8667 C   0  0  0  0  0  0  0  0  0  0  0  0
   -4.4451  -59.7533  -12.5922 C   0  0  0  0  0  0  0  0  0  0  0  0
   -4.6781  -58.5402  -11.9972 C   0  0  0  0  0  0  0  0  0  0  0  0
   -4.3106  -58.2492  -10.7286 N   0  0  0  0  0  0  0  0  0  0  0  0
   -3.6569  -59.2307  -10.0506 C   0  0  0  0  0  0  0  0  0  0  0  0
   -3.3673  -60.4871  -10.5677 C   0  0  0  0  0  0  0  0  0  0  0  0
   -2.1470  -64.1532  -12.9649 C   0  0  0  0  0  0  0  0  0  0  0  0
   -3.1106  -64.8227  -13.7588 C   0  0  0  0  0  0  0  0  0  0  0  0
   -2.9695  -66.1633  -14.0716 C   0  0  0  0  0  0  0  0  0  0  0  0
   -1.8924  -66.8718  -13.5471 C   0  0  0  0  0  0  0  0  0  0  0  0
   -1.7905  -68.5510  -13.9694 Cl  0  0  0  0  0  0  0  0  0  0  0  0
   -0.9633  -66.2845  -12.6718 C   0  0  0  0  0  0  0  0  0  0  0  0
    0.0337  -67.0196  -12.1268 N   0  0  0  0  0  0  0  0  0  0  0  0
    0.8451  -66.4568  -11.2092 C   0  0  0  0  0  0  0  0  0  0  0  0
    0.7196  -65.1569  -10.7763 C   0  0  0  0  0  0  0  0  0  0  0  0
   -0.2836  -64.3850  -11.3418 C   0  0  0  0  0  0  0  0  0  0  0  0
   -1.1279  -64.9150  -12.3376 C   0  0  0  0  0  0  0  0  0  0  0  0
  1  2  1  0
  2  3  1  0
  2  4  1  0
  4  5  1  0
  5  6  1  0
  6  7  2  0
  6  8  1  0
  8  9  2  0
  9 10  1  0
 10 11  2  0
 11 12  1  0
 12 13  2  0
  5 14  1  0
 14 15  2  0
 15 16  1  0
 16 17  2  0
 17 18  1  0
 17 19  1  0
 19 20  2  0
 20 21  1  0
 21 22  2  0
 22 23  1  0
 23 24  2  0
 13  8  1  0
 24 14  1  0
 24 19  1  0
M  END
>  <smiles>  (149) 
CC(C)CN(C(=O)c1ccncc1)c1ccc(Cl)c2ncccc12

>  <inchikey>  (149) 
LZNJXXGIUAGYLA-UHFFFAOYSA-N

$$$$
DDBREJGSHORSPZ-UHFFFAOYSA-N-P446140-P446140-541666
     RDKit          3D

 24 26  0  0  0  0  0  0  0  0999 V2000
   -0.0997  -62.2499  -16.5769 C   0  0  0  0  0  0  0  0  0  0  0  0
   -0.9079  -61.6133  -15.7196 C   0  0  0  0  0  0  0  0  0  0  0  0
   -1.9730  -62.2913  -14.8958 C   0  0  0  0  0  0  0  0  0  0  0  0
   -1.5061  -62.4405  -13.4245 C   0  0  0  0  0  0  0  0  0  0  0  0
   -2.5908  -62.8425  -12.2905 N   0  0  0  0  0  0  0  0  0  0  0  0
   -3.8524  -62.0518  -12.4413 C   0  0  0  0  0  0  0  0  0  0  0  0
   -4.8229  -62.2827  -13.0552 O   0  0  0  0  0  0  0  0  0  0  0  0
   -3.8458  -60.7317  -11.7874 C   0  0  0  0  0  0  0  0  0  0  0  0
   -4.4205  -59.7093  -12.5380 C   0  0  0  0  0  0  0  0  0  0  0  0
   -4.6141  -58.4884  -11.9492 C   0  0  0  0  0  0  0  0  0  0  0  0
   -4.2982  -58.2258  -10.6614 N   0  0  0  0  0  0  0  0  0  0  0  0
   -3.7193  -59.2393   -9.9620 C   0  0  0  0  0  0  0  0  0  0  0  0
   -3.4648  -60.5047  -10.4741 C   0  0  0  0  0  0  0  0  0  0  0  0
   -2.2308  -64.1940  -12.7884 C   0  0  0  0  0  0  0  0  0  0  0  0
   -3.1804  -64.8496  -13.6014 C   0  0  0  0  0  0  0  0  0  0  0  0
   -3.0092  -66.1721  -13.9761 C   0  0  0  0  0  0  0  0  0  0  0  0
   -1.9155  -66.8817  -13.4890 C   0  0  0  0  0  0  0  0  0  0  0  0
   -1.7827  -68.5381  -13.9846 Cl  0  0  0  0  0  0  0  0  0  0  0  0
   -0.9929  -66.3134  -12.5955 C   0  0  0  0  0  0  0  0  0  0  0  0
    0.0290  -67.0457  -12.0954 N   0  0  0  0  0  0  0  0  0  0  0  0
    0.8515  -66.4957  -11.1797 C   0  0  0  0  0  0  0  0  0  0  0  0
    0.7142  -65.2119  -10.7039 C   0  0  0  0  0  0  0  0  0  0  0  0
   -0.3193  -64.4437  -11.2165 C   0  0  0  0  0  0  0  0  0  0  0  0
   -1.1845  -64.9633  -12.2024 C   0  0  0  0  0  0  0  0  0  0  0  0
  1  2  2  0
  2  3  1  0
  3  4  1  0
  4  5  1  0
  5  6  1  0
  6  7  2  0
  6  8  1  0
  8  9  2  0
  9 10  1  0
 10 11  2  0
 11 12  1  0
 12 13  2  0
  5 14  1  0
 14 15  2  0
 15 16  1  0
 16 17  2  0
 17 18  1  0
 17 19  1  0
 19 20  2  0
 20 21  1  0
 21 22  2  0
 22 23  1  0
 23 24  2  0
 13  8  1  0
 24 14  1  0
 24 19  1  0
M  END
>  <smiles>  (150) 
C=CCCN(C(=O)c1ccncc1)c1ccc(Cl)c2ncccc12

>  <inchikey>  (150) 
DDBREJGSHORSPZ-UHFFFAOYSA-N

$$$$
AWUQZTQOEJRQQG-UHFFFAOYSA-N-P446140-P446140-541666
     RDKit          3D

 25 27  0  0  0  0  0  0  0  0999 V2000
    0.3271  -59.5921  -11.8846 C   0  0  0  0  0  0  0  0  0  0  0  0
   -0.2160  -60.8669  -12.2005 O   0  0  0  0  0  0  0  0  0  0  0  0
   -1.1210  -60.8026  -13.3005 C   0  0  0  0  0  0  0  0  0  0  0  0
   -1.7195  -62.2174  -13.6129 C   0  0  2  0  0  0  0  0  0  0  0  0
   -2.4257  -62.0365  -14.9820 C   0  0  0  0  0  0  0  0  0  0  0  0
   -2.8658  -62.6872  -12.4472 N   0  0  0  0  0  0  0  0  0  0  0  0
   -2.6215  -61.9895  -11.1203 C   0  0  0  0  0  0  0  0  0  0  0  0
   -1.9642  -62.3146  -10.1972 O   0  0  0  0  0  0  0  0  0  0  0  0
   -3.4461  -60.7454  -10.9844 C   0  0  0  0  0  0  0  0  0  0  0  0
   -3.1539  -59.8934   -9.9170 C   0  0  0  0  0  0  0  0  0  0  0  0
   -3.8686  -58.7207   -9.7972 C   0  0  0  0  0  0  0  0  0  0  0  0
   -4.8478  -58.3497  -10.6509 N   0  0  0  0  0  0  0  0  0  0  0  0
   -5.1338  -59.2090  -11.6616 C   0  0  0  0  0  0  0  0  0  0  0  0
   -4.4661  -60.4030  -11.8725 C   0  0  0  0  0  0  0  0  0  0  0  0
   -2.4313  -64.0287  -12.9337 C   0  0  0  0  0  0  0  0  0  0  0  0
   -3.4259  -64.6720  -13.6925 C   0  0  0  0  0  0  0  0  0  0  0  0
   -3.2984  -66.0011  -14.0607 C   0  0  0  0  0  0  0  0  0  0  0  0
   -2.2008  -66.7356  -13.6209 C   0  0  0  0  0  0  0  0  0  0  0  0
   -2.1234  -68.3985  -14.1146 Cl  0  0  0  0  0  0  0  0  0  0  0  0
   -1.2180  -66.1852  -12.7904 C   0  0  0  0  0  0  0  0  0  0  0  0
   -0.1990  -66.9669  -12.3579 N   0  0  0  0  0  0  0  0  0  0  0  0
    0.7310  -66.4507  -11.5346 C   0  0  0  0  0  0  0  0  0  0  0  0
    0.7219  -65.1450  -11.1187 C   0  0  0  0  0  0  0  0  0  0  0  0
   -0.3094  -64.3336  -11.5731 C   0  0  0  0  0  0  0  0  0  0  0  0
   -1.3375  -64.8189  -12.4162 C   0  0  0  0  0  0  0  0  0  0  0  0
  1  2  1  0
  2  3  1  0
  3  4  1  0
  4  5  1  6
  4  6  1  0
  6  7  1  0
  7  8  2  0
  7  9  1  0
  9 10  2  0
 10 11  1  0
 11 12  2  0
 12 13  1  0
 13 14  2  0
  6 15  1  0
 15 16  2  0
 16 17  1  0
 17 18  2  0
 18 19  1  0
 18 20  1  0
 20 21  2  0
 21 22  1  0
 22 23  2  0
 23 24  1  0
 24 25  2  0
 14  9  1  0
 25 15  1  0
 25 20  1  0
M  END
>  <smiles>  (151) 
COCC(C)N(C(=O)c1ccncc1)c1ccc(Cl)c2ncccc12

>  <inchikey>  (151) 
AWUQZTQOEJRQQG-UHFFFAOYSA-N

$$$$
XXZPRVFGRWGSAR-UHFFFAOYSA-N-P446140-P446140-541666
     RDKit          3D

 25 27  0  0  0  0  0  0  0  0999 V2000
   -2.1833  -62.4444  -10.0894 O   0  0  0  0  0  0  0  0  0  0  0  0
   -2.7522  -62.0738  -11.0516 C   0  0  0  0  0  0  0  0  0  0  0  0
   -3.4973  -60.7793  -10.9645 C   0  0  0  0  0  0  0  0  0  0  0  0
   -4.4798  -60.4026  -11.8780 C   0  0  0  0  0  0  0  0  0  0  0  0
   -5.1036  -59.1811  -11.6921 C   0  0  0  0  0  0  0  0  0  0  0  0
   -4.8111  -58.3286  -10.6776 N   0  0  0  0  0  0  0  0  0  0  0  0
   -3.8638  -58.7285   -9.8023 C   0  0  0  0  0  0  0  0  0  0  0  0
   -3.1933  -59.9300   -9.8979 C   0  0  0  0  0  0  0  0  0  0  0  0
   -2.8825  -62.7107  -12.4187 N   0  0  0  0  0  0  0  0  0  0  0  0
   -1.6725  -62.2222  -13.4233 C   0  0  0  0  0  0  0  0  0  0  0  0
   -2.1645  -61.5759  -14.7365 C   0  0  0  0  0  0  0  0  0  0  0  0
   -3.1188  -60.6480  -14.4885 F   0  0  0  0  0  0  0  0  0  0  0  0
   -2.6945  -62.4987  -15.5716 F   0  0  0  0  0  0  0  0  0  0  0  0
   -0.6365  -60.7225  -15.6127 Br  0  0  0  0  0  0  0  0  0  0  0  0
   -2.4193  -64.0313  -12.9200 C   0  0  0  0  0  0  0  0  0  0  0  0
   -3.3362  -64.6195  -13.8071 C   0  0  0  0  0  0  0  0  0  0  0  0
   -3.2028  -65.9436  -14.1920 C   0  0  0  0  0  0  0  0  0  0  0  0
   -2.1651  -66.7144  -13.6728 C   0  0  0  0  0  0  0  0  0  0  0  0
   -2.0855  -68.3708  -14.1857 Cl  0  0  0  0  0  0  0  0  0  0  0  0
   -1.2371  -66.2012  -12.7585 C   0  0  0  0  0  0  0  0  0  0  0  0
   -0.2520  -67.0008  -12.2840 N   0  0  0  0  0  0  0  0  0  0  0  0
    0.6267  -66.5169  -11.3881 C   0  0  0  0  0  0  0  0  0  0  0  0
    0.5955  -65.2249  -10.9306 C   0  0  0  0  0  0  0  0  0  0  0  0
   -0.4027  -64.3932  -11.4214 C   0  0  0  0  0  0  0  0  0  0  0  0
   -1.3726  -64.8475  -12.3482 C   0  0  0  0  0  0  0  0  0  0  0  0
  1  2  2  0
  2  3  1  0
  3  4  2  0
  4  5  1  0
  5  6  2  0
  6  7  1  0
  7  8  2  0
  2  9  1  0
  9 10  1  0
 10 11  1  0
 11 12  1  0
 11 13  1  0
 11 14  1  0
  9 15  1  0
 15 16  2  0
 16 17  1  0
 17 18  2  0
 18 19  1  0
 18 20  1  0
 20 21  2  0
 21 22  1  0
 22 23  2  0
 23 24  1  0
 24 25  2  0
  8  3  1  0
 25 15  1  0
 25 20  1  0
M  END
>  <smiles>  (152) 
O=C(c1ccncc1)N(CC(F)(F)Br)c1ccc(Cl)c2ncccc12

>  <inchikey>  (152) 
XXZPRVFGRWGSAR-UHFFFAOYSA-N

$$$$
YKLKSQPORIKBHG-UHFFFAOYSA-N-P446140-P446140-541666
     RDKit          3D

 25 28  0  0  0  0  0  0  0  0999 V2000
   -0.2143  -61.9311  -12.7970 C   0  0  0  0  0  0  0  0  0  0  0  0
   -1.6179  -62.1979  -13.3846 C   0  0  1  0  0  0  0  0  0  0  0  0
   -1.6692  -62.5261  -14.8832 C   0  0  0  0  0  0  0  0  0  0  0  0
   -0.6238  -62.0176  -15.8572 C   0  0  0  0  0  0  0  0  0  0  0  0
   -0.6769  -63.4782  -15.5225 C   0  0  0  0  0  0  0  0  0  0  0  0
   -2.8291  -62.7097  -12.3535 N   0  0  0  0  0  0  0  0  0  0  0  0
   -2.7126  -62.0456  -10.9974 C   0  0  0  0  0  0  0  0  0  0  0  0
   -2.1313  -62.3838  -10.0306 O   0  0  0  0  0  0  0  0  0  0  0  0
   -3.4739  -60.7598  -10.9399 C   0  0  0  0  0  0  0  0  0  0  0  0
   -4.4339  -60.3973  -11.8842 C   0  0  0  0  0  0  0  0  0  0  0  0
   -5.0774  -59.1834  -11.7157 C   0  0  0  0  0  0  0  0  0  0  0  0
   -4.8157  -58.3221  -10.6997 N   0  0  0  0  0  0  0  0  0  0  0  0
   -3.8846  -58.7062   -9.8002 C   0  0  0  0  0  0  0  0  0  0  0  0
   -3.2025  -59.9014   -9.8718 C   0  0  0  0  0  0  0  0  0  0  0  0
   -2.3304  -64.0286  -12.8341 C   0  0  0  0  0  0  0  0  0  0  0  0
   -3.2799  -64.6170  -13.7070 C   0  0  0  0  0  0  0  0  0  0  0  0
   -3.1647  -65.9262  -14.1413 C   0  0  0  0  0  0  0  0  0  0  0  0
   -2.1142  -66.7039  -13.6737 C   0  0  0  0  0  0  0  0  0  0  0  0
   -2.0382  -68.3408  -14.2492 Cl  0  0  0  0  0  0  0  0  0  0  0  0
   -1.1924  -66.2246  -12.7365 C   0  0  0  0  0  0  0  0  0  0  0  0
   -0.2228  -67.0605  -12.2953 N   0  0  0  0  0  0  0  0  0  0  0  0
    0.6114  -66.6608  -11.3218 C   0  0  0  0  0  0  0  0  0  0  0  0
    0.5322  -65.4273  -10.7348 C   0  0  0  0  0  0  0  0  0  0  0  0
   -0.4462  -64.5565  -11.1985 C   0  0  0  0  0  0  0  0  0  0  0  0
   -1.3349  -64.8928  -12.2483 C   0  0  0  0  0  0  0  0  0  0  0  0
  2  1  1  1
  2  3  1  0
  3  4  1  0
  4  5  1  0
  2  6  1  0
  6  7  1  0
  7  8  2  0
  7  9  1  0
  9 10  2  0
 10 11  1  0
 11 12  2  0
 12 13  1  0
 13 14  2  0
  6 15  1  0
 15 16  2  0
 16 17  1  0
 17 18  2  0
 18 19  1  0
 18 20  1  0
 20 21  2  0
 21 22  1  0
 22 23  2  0
 23 24  1  0
 24 25  2  0
  5  3  1  0
 14  9  1  0
 25 15  1  0
 25 20  1  0
M  END
>  <smiles>  (153) 
CC(C1CC1)N(C(=O)c1ccncc1)c1ccc(Cl)c2ncccc12

>  <inchikey>  (153) 
YKLKSQPORIKBHG-UHFFFAOYSA-N

$$$$
SDNQDLSLSLUGMH-UHFFFAOYSA-N-P446140-P446140-541666
     RDKit          3D

 25 28  0  0  0  0  0  0  0  0999 V2000
   -4.8000  -62.2619  -13.0508 O   0  0  0  0  0  0  0  0  0  0  0  0
   -3.8220  -62.0343  -12.4436 C   0  0  0  0  0  0  0  0  0  0  0  0
   -3.8493  -60.7290  -11.7659 C   0  0  0  0  0  0  0  0  0  0  0  0
   -4.4138  -59.7019  -12.5196 C   0  0  0  0  0  0  0  0  0  0  0  0
   -4.6169  -58.4855  -11.9271 C   0  0  0  0  0  0  0  0  0  0  0  0
   -4.3219  -58.2310  -10.6327 N   0  0  0  0  0  0  0  0  0  0  0  0
   -3.7572  -59.2503   -9.9292 C   0  0  0  0  0  0  0  0  0  0  0  0
   -3.4947  -60.5130  -10.4437 C   0  0  0  0  0  0  0  0  0  0  0  0
   -2.5600  -62.8373  -12.2958 N   0  0  0  0  0  0  0  0  0  0  0  0
   -2.2157  -64.1885  -12.7859 C   0  0  0  0  0  0  0  0  0  0  0  0
   -3.1338  -64.8109  -13.6572 C   0  0  0  0  0  0  0  0  0  0  0  0
   -2.9740  -66.1359  -14.0271 C   0  0  0  0  0  0  0  0  0  0  0  0
   -1.9147  -66.8694  -13.4979 C   0  0  0  0  0  0  0  0  0  0  0  0
   -1.7947  -68.5274  -13.9926 Cl  0  0  0  0  0  0  0  0  0  0  0  0
   -1.0103  -66.3208  -12.5727 C   0  0  0  0  0  0  0  0  0  0  0  0
   -0.0081  -67.0659  -12.0516 N   0  0  0  0  0  0  0  0  0  0  0  0
    0.8026  -66.5251  -11.1197 C   0  0  0  0  0  0  0  0  0  0  0  0
    0.6721  -65.2392  -10.6469 C   0  0  0  0  0  0  0  0  0  0  0  0
   -0.3433  -64.4593  -11.1771 C   0  0  0  0  0  0  0  0  0  0  0  0
   -1.1956  -64.9717  -12.1762 C   0  0  0  0  0  0  0  0  0  0  0  0
   -1.4560  -62.4428  -13.4638 C   0  0  0  0  0  0  0  0  0  0  0  0
   -0.7365  -61.1430  -13.0200 C   0  0  0  0  0  0  0  0  0  0  0  0
   -0.1626  -60.6011  -14.3152 C   0  0  0  0  0  0  0  0  0  0  0  0
   -1.3069  -60.7897  -15.2937 C   0  0  0  0  0  0  0  0  0  0  0  0
   -2.0170  -62.0760  -14.8637 C   0  0  0  0  0  0  0  0  0  0  0  0
  1  2  2  0
  2  3  1  0
  3  4  2  0
  4  5  1  0
  5  6  2  0
  6  7  1  0
  7  8  2  0
  2  9  1  0
  9 10  1  0
 10 11  2  0
 11 12  1  0
 12 13  2  0
 13 14  1  0
 13 15  1  0
 15 16  2  0
 16 17  1  0
 17 18  2  0
 18 19  1  0
 19 20  2  0
  9 21  1  0
 21 22  1  0
 22 23  1  0
 23 24  1  0
 24 25  1  0
  8  3  1  0
 20 10  1  0
 25 21  1  0
 20 15  1  0
M  END
>  <smiles>  (154) 
O=C(c1ccncc1)N(c1ccc(Cl)c2ncccc12)C1CCCC1

>  <inchikey>  (154) 
SDNQDLSLSLUGMH-UHFFFAOYSA-N

$$$$
KSFNSCVNZRCWPA-UHFFFAOYSA-N-P446140-P446140-541666
     RDKit          3D

 25 28  0  0  0  0  0  0  0  0999 V2000
   -4.8307  -62.3577  -12.9515 O   0  0  0  0  0  0  0  0  0  0  0  0
   -3.8232  -62.0768  -12.4251 C   0  0  0  0  0  0  0  0  0  0  0  0
   -3.8295  -60.7505  -11.7852 C   0  0  0  0  0  0  0  0  0  0  0  0
   -4.4617  -59.7560  -12.5276 C   0  0  0  0  0  0  0  0  0  0  0  0
   -4.6718  -58.5336  -11.9475 C   0  0  0  0  0  0  0  0  0  0  0  0
   -4.3160  -58.2434  -10.6763 N   0  0  0  0  0  0  0  0  0  0  0  0
   -3.6837  -59.2306   -9.9849 C   0  0  0  0  0  0  0  0  0  0  0  0
   -3.4100  -60.4957  -10.4893 C   0  0  0  0  0  0  0  0  0  0  0  0
   -2.5152  -62.8027  -12.3870 N   0  0  0  0  0  0  0  0  0  0  0  0
   -2.1359  -64.1267  -12.9129 C   0  0  0  0  0  0  0  0  0  0  0  0
   -3.0743  -64.7866  -13.7384 C   0  0  0  0  0  0  0  0  0  0  0  0
   -2.9316  -66.1250  -14.0660 C   0  0  0  0  0  0  0  0  0  0  0  0
   -1.8825  -66.8514  -13.5126 C   0  0  0  0  0  0  0  0  0  0  0  0
   -1.7802  -68.5256  -13.9521 Cl  0  0  0  0  0  0  0  0  0  0  0  0
   -0.9873  -66.2838  -12.5922 C   0  0  0  0  0  0  0  0  0  0  0  0
   -0.0137  -67.0303  -12.0231 N   0  0  0  0  0  0  0  0  0  0  0  0
    0.7734  -66.4816  -11.0765 C   0  0  0  0  0  0  0  0  0  0  0  0
    0.6423  -65.1856  -10.6332 C   0  0  0  0  0  0  0  0  0  0  0  0
   -0.3407  -64.4019  -11.2171 C   0  0  0  0  0  0  0  0  0  0  0  0
   -1.1591  -64.9178  -12.2436 C   0  0  0  0  0  0  0  0  0  0  0  0
   -1.5554  -62.3485  -13.6127 C   0  0  2  0  0  0  0  0  0  0  0  0
   -2.1197  -62.1599  -15.0208 C   0  0  0  0  0  0  0  0  0  0  0  0
   -0.9408  -61.5120  -15.7298 C   0  0  0  0  0  0  0  0  0  0  0  0
    0.2669  -61.9453  -15.0808 O   0  0  0  0  0  0  0  0  0  0  0  0
   -0.0741  -62.6725  -13.8802 C   0  0  0  0  0  0  0  0  0  0  0  0
  1  2  2  0
  2  3  1  0
  3  4  2  0
  4  5  1  0
  5  6  2  0
  6  7  1  0
  7  8  2  0
  2  9  1  0
  9 10  1  0
 10 11  2  0
 11 12  1  0
 12 13  2  0
 13 14  1  0
 13 15  1  0
 15 16  2  0
 16 17  1  0
 17 18  2  0
 18 19  1  0
 19 20  2  0
 21  9  1  6
 21 22  1  0
 22 23  1  0
 23 24  1  0
 24 25  1  0
  8  3  1  0
 20 10  1  0
 25 21  1  0
 20 15  1  0
M  END
>  <smiles>  (155) 
O=C(c1ccncc1)N(c1ccc(Cl)c2ncccc12)C1CCOC1

>  <inchikey>  (155) 
KSFNSCVNZRCWPA-UHFFFAOYSA-N

$$$$
FEQHCIBKVMMJNX-UHFFFAOYSA-N-P446140-P446140-541666
     RDKit          3D

 25 28  0  0  0  0  0  0  0  0999 V2000
   -1.9453  -62.2954  -10.1342 O   0  0  0  0  0  0  0  0  0  0  0  0
   -2.6186  -61.9887  -11.0498 C   0  0  0  0  0  0  0  0  0  0  0  0
   -3.4280  -60.7319  -10.9442 C   0  0  0  0  0  0  0  0  0  0  0  0
   -3.1480  -59.8722   -9.8802 C   0  0  0  0  0  0  0  0  0  0  0  0
   -3.8623  -58.6972   -9.7803 C   0  0  0  0  0  0  0  0  0  0  0  0
   -4.8308  -58.3332  -10.6488 N   0  0  0  0  0  0  0  0  0  0  0  0
   -5.1023  -59.1966  -11.6593 C   0  0  0  0  0  0  0  0  0  0  0  0
   -4.4319  -60.3919  -11.8524 C   0  0  0  0  0  0  0  0  0  0  0  0
   -2.8322  -62.6757  -12.3837 N   0  0  0  0  0  0  0  0  0  0  0  0
   -2.3350  -63.9898  -12.8923 C   0  0  0  0  0  0  0  0  0  0  0  0
   -3.2919  -64.5836  -13.7507 C   0  0  0  0  0  0  0  0  0  0  0  0
   -3.1909  -65.9022  -14.1618 C   0  0  0  0  0  0  0  0  0  0  0  0
   -2.1548  -66.6887  -13.6761 C   0  0  0  0  0  0  0  0  0  0  0  0
   -2.1007  -68.3366  -14.2210 Cl  0  0  0  0  0  0  0  0  0  0  0  0
   -1.2263  -66.2049  -12.7494 C   0  0  0  0  0  0  0  0  0  0  0  0
   -0.2735  -67.0486  -12.2875 N   0  0  0  0  0  0  0  0  0  0  0  0
    0.5859  -66.6348  -11.3420 C   0  0  0  0  0  0  0  0  0  0  0  0
    0.5560  -65.3740  -10.8116 C   0  0  0  0  0  0  0  0  0  0  0  0
   -0.4067  -64.4962  -11.2952 C   0  0  0  0  0  0  0  0  0  0  0  0
   -1.3395  -64.8564  -12.3005 C   0  0  0  0  0  0  0  0  0  0  0  0
   -1.7515  -62.1516  -13.5023 C   0  0  2  0  0  0  0  0  0  0  0  0
   -2.0270  -62.2557  -15.0193 C   0  0  0  0  0  0  0  0  0  0  0  0
   -1.1170  -61.2219  -15.6775 C   0  0  0  0  0  0  0  0  0  0  0  0
    0.4382  -61.2348  -14.7408 S   0  0  0  0  0  0  0  0  0  0  0  0
   -0.2201  -62.1480  -13.3015 C   0  0  0  0  0  0  0  0  0  0  0  0
  1  2  2  0
  2  3  1  0
  3  4  2  0
  4  5  1  0
  5  6  2  0
  6  7  1  0
  7  8  2  0
  2  9  1  0
  9 10  1  0
 10 11  2  0
 11 12  1  0
 12 13  2  0
 13 14  1  0
 13 15  1  0
 15 16  2  0
 16 17  1  0
 17 18  2  0
 18 19  1  0
 19 20  2  0
 21  9  1  1
 21 22  1  0
 22 23  1  0
 23 24  1  0
 24 25  1  0
  8  3  1  0
 20 10  1  0
 25 21  1  0
 20 15  1  0
M  END
>  <smiles>  (156) 
O=C(c1ccncc1)N(c1ccc(Cl)c2ncccc12)C1CCSC1

>  <inchikey>  (156) 
FEQHCIBKVMMJNX-UHFFFAOYSA-N

$$$$
XHLORSPJRATICW-UHFFFAOYSA-N-P446140-P446140-541666
     RDKit          3D

 25 28  0  0  0  0  0  0  0  0999 V2000
   -1.2836  -59.1879  -15.2867 C   0  0  0  0  0  0  0  0  0  0  0  0
   -1.9140  -60.1650  -14.3120 C   0  0  1  0  0  0  0  0  0  0  0  0
   -2.2652  -61.5665  -14.8518 C   0  0  0  0  0  0  0  0  0  0  0  0
   -1.6200  -62.2063  -13.5871 C   0  0  2  0  0  0  0  0  0  0  0  0
   -2.8310  -62.6729  -12.4403 N   0  0  0  0  0  0  0  0  0  0  0  0
   -2.6166  -61.9896  -11.1022 C   0  0  0  0  0  0  0  0  0  0  0  0
   -1.9934  -62.3325  -10.1616 O   0  0  0  0  0  0  0  0  0  0  0  0
   -3.4248  -60.7345  -10.9806 C   0  0  0  0  0  0  0  0  0  0  0  0
   -3.1143  -59.8649   -9.9327 C   0  0  0  0  0  0  0  0  0  0  0  0
   -3.8377  -58.6971   -9.8113 C   0  0  0  0  0  0  0  0  0  0  0  0
   -4.8417  -58.3477  -10.6447 N   0  0  0  0  0  0  0  0  0  0  0  0
   -5.1437  -59.2229  -11.6366 C   0  0  0  0  0  0  0  0  0  0  0  0
   -4.4724  -60.4159  -11.8440 C   0  0  0  0  0  0  0  0  0  0  0  0
   -2.4070  -64.0083  -12.9207 C   0  0  0  0  0  0  0  0  0  0  0  0
   -3.3409  -64.5907  -13.7940 C   0  0  0  0  0  0  0  0  0  0  0  0
   -3.2260  -65.9193  -14.1690 C   0  0  0  0  0  0  0  0  0  0  0  0
   -2.1874  -66.6948  -13.6571 C   0  0  0  0  0  0  0  0  0  0  0  0
   -2.1289  -68.3566  -14.1571 Cl  0  0  0  0  0  0  0  0  0  0  0  0
   -1.2372  -66.1804  -12.7660 C   0  0  0  0  0  0  0  0  0  0  0  0
   -0.2519  -66.9851  -12.2994 N   0  0  0  0  0  0  0  0  0  0  0  0
    0.6587  -66.4926  -11.4405 C   0  0  0  0  0  0  0  0  0  0  0  0
    0.6633  -65.1879  -11.0191 C   0  0  0  0  0  0  0  0  0  0  0  0
   -0.3369  -64.3537  -11.5007 C   0  0  0  0  0  0  0  0  0  0  0  0
   -1.3473  -64.8192  -12.3752 C   0  0  0  0  0  0  0  0  0  0  0  0
   -0.9494  -60.8301  -13.3135 C   0  0  0  0  0  0  0  0  0  0  0  0
  2  1  1  6
  2  3  1  0
  3  4  1  0
  4  5  1  1
  5  6  1  0
  6  7  2  0
  6  8  1  0
  8  9  2  0
  9 10  1  0
 10 11  2  0
 11 12  1  0
 12 13  2  0
  5 14  1  0
 14 15  2  0
 15 16  1  0
 16 17  2  0
 17 18  1  0
 17 19  1  0
 19 20  2  0
 20 21  1  0
 21 22  2  0
 22 23  1  0
 23 24  2  0
  4 25  1  0
 25  2  1  0
 13  8  1  0
 24 14  1  0
 24 19  1  0
M  END
>  <smiles>  (157) 
CC1CC(N(C(=O)c2ccncc2)c2ccc(Cl)c3ncccc23)C1

>  <inchikey>  (157) 
XHLORSPJRATICW-UHFFFAOYSA-N

$$$$
MUEZEMMKOWVXGV-UHFFFAOYSA-N-P446140-P446140-541666
     RDKit          3D

 25 27  0  0  0  0  0  0  0  0999 V2000
   -2.2099  -59.9087  -14.5298 C   0  0  0  0  0  0  0  0  0  0  0  0
   -2.1572  -61.4266  -14.6471 C   0  0  0  0  0  0  0  0  0  0  0  0
   -1.5035  -62.2228  -13.4638 C   0  0  1  0  0  0  0  0  0  0  0  0
   -0.3755  -61.3890  -12.7812 C   0  0  0  0  0  0  0  0  0  0  0  0
    0.7462  -61.2287  -13.6515 O   0  0  0  0  0  0  0  0  0  0  0  0
   -2.7565  -62.6506  -12.3914 N   0  0  0  0  0  0  0  0  0  0  0  0
   -2.5887  -61.9691  -11.0489 C   0  0  0  0  0  0  0  0  0  0  0  0
   -2.0188  -62.3228  -10.0806 O   0  0  0  0  0  0  0  0  0  0  0  0
   -3.3696  -60.6981  -10.9666 C   0  0  0  0  0  0  0  0  0  0  0  0
   -3.0407  -59.7981   -9.9521 C   0  0  0  0  0  0  0  0  0  0  0  0
   -3.7765  -58.6368   -9.8430 C   0  0  0  0  0  0  0  0  0  0  0  0
   -4.8062  -58.3225  -10.6594 N   0  0  0  0  0  0  0  0  0  0  0  0
   -5.1247  -59.2276  -11.6185 C   0  0  0  0  0  0  0  0  0  0  0  0
   -4.4450  -60.4181  -11.8097 C   0  0  0  0  0  0  0  0  0  0  0  0
   -2.3406  -64.0036  -12.8505 C   0  0  0  0  0  0  0  0  0  0  0  0
   -3.2601  -64.5359  -13.7792 C   0  0  0  0  0  0  0  0  0  0  0  0
   -3.1708  -65.8502  -14.2068 C   0  0  0  0  0  0  0  0  0  0  0  0
   -2.1641  -66.6678  -13.7030 C   0  0  0  0  0  0  0  0  0  0  0  0
   -2.1264  -68.3085  -14.2724 Cl  0  0  0  0  0  0  0  0  0  0  0  0
   -1.2392  -66.2169  -12.7545 C   0  0  0  0  0  0  0  0  0  0  0  0
   -0.2902  -67.0743  -12.3088 N   0  0  0  0  0  0  0  0  0  0  0  0
    0.5773  -66.6762  -11.3639 C   0  0  0  0  0  0  0  0  0  0  0  0
    0.5525  -65.4244  -10.8111 C   0  0  0  0  0  0  0  0  0  0  0  0
   -0.4140  -64.5376  -11.2695 C   0  0  0  0  0  0  0  0  0  0  0  0
   -1.3468  -64.8804  -12.2756 C   0  0  0  0  0  0  0  0  0  0  0  0
  1  2  1  0
  3  2  1  6
  3  4  1  0
  4  5  1  0
  3  6  1  0
  6  7  1  0
  7  8  2  0
  7  9  1  0
  9 10  2  0
 10 11  1  0
 11 12  2  0
 12 13  1  0
 13 14  2  0
  6 15  1  0
 15 16  2  0
 16 17  1  0
 17 18  2  0
 18 19  1  0
 18 20  1  0
 20 21  2  0
 21 22  1  0
 22 23  2  0
 23 24  1  0
 24 25  2  0
 14  9  1  0
 25 15  1  0
 25 20  1  0
M  END
>  <smiles>  (158) 
CCC(CO)N(C(=O)c1ccncc1)c1ccc(Cl)c2ncccc12

>  <inchikey>  (158) 
MUEZEMMKOWVXGV-UHFFFAOYSA-N

$$$$
KPCVEUKLXLQADX-UHFFFAOYSA-N-P446140-P446140-541666
     RDKit          3D

 25 27  0  0  0  0  0  0  0  0999 V2000
   -4.6835  -62.7546  -11.6026 O   0  0  0  0  0  0  0  0  0  0  0  0
   -3.6557  -62.2646  -11.8652 C   0  0  0  0  0  0  0  0  0  0  0  0
   -3.6331  -60.8332  -11.5421 C   0  0  0  0  0  0  0  0  0  0  0  0
   -3.0684  -60.3152  -10.3893 C   0  0  0  0  0  0  0  0  0  0  0  0
   -3.4271  -59.0162  -10.0508 C   0  0  0  0  0  0  0  0  0  0  0  0
   -4.2879  -58.2377  -10.7630 N   0  0  0  0  0  0  0  0  0  0  0  0
   -4.8126  -58.7875  -11.8810 C   0  0  0  0  0  0  0  0  0  0  0  0
   -4.5260  -60.0647  -12.2985 C   0  0  0  0  0  0  0  0  0  0  0  0
   -2.4597  -62.8377  -12.5440 N   0  0  0  0  0  0  0  0  0  0  0  0
   -2.5340  -62.6252  -14.1401 C   0  0  0  0  0  0  0  0  0  0  0  0
   -1.8964  -61.2715  -14.3927 C   0  0  0  0  0  0  0  0  0  0  0  0
   -0.7193  -61.1033  -15.0169 C   0  0  0  0  0  0  0  0  0  0  0  0
   -0.1400  -59.7716  -15.3480 C   0  0  0  0  0  0  0  0  0  0  0  0
   -0.3106  -59.5811  -16.7407 O   0  0  0  0  0  0  0  0  0  0  0  0
   -2.1778  -64.2159  -12.9967 C   0  0  0  0  0  0  0  0  0  0  0  0
   -3.2629  -65.0188  -13.4478 C   0  0  0  0  0  0  0  0  0  0  0  0
   -3.0811  -66.3530  -13.7609 C   0  0  0  0  0  0  0  0  0  0  0  0
   -1.8550  -66.9459  -13.4800 C   0  0  0  0  0  0  0  0  0  0  0  0
   -1.7133  -68.6333  -13.8504 Cl  0  0  0  0  0  0  0  0  0  0  0  0
   -0.8042  -66.2396  -12.8689 C   0  0  0  0  0  0  0  0  0  0  0  0
    0.3263  -66.8748  -12.4871 N   0  0  0  0  0  0  0  0  0  0  0  0
    1.2806  -66.1832  -11.8314 C   0  0  0  0  0  0  0  0  0  0  0  0
    1.1922  -64.8390  -11.5439 C   0  0  0  0  0  0  0  0  0  0  0  0
    0.0551  -64.1636  -11.9585 C   0  0  0  0  0  0  0  0  0  0  0  0
   -0.9746  -64.8504  -12.6263 C   0  0  0  0  0  0  0  0  0  0  0  0
  1  2  2  0
  2  3  1  0
  3  4  2  0
  4  5  1  0
  5  6  2  0
  6  7  1  0
  7  8  2  0
  2  9  1  0
  9 10  1  0
 10 11  1  0
 11 12  2  3
 12 13  1  0
 13 14  1  0
  9 15  1  0
 15 16  2  0
 16 17  1  0
 17 18  2  0
 18 19  1  0
 18 20  1  0
 20 21  2  0
 21 22  1  0
 22 23  2  0
 23 24  1  0
 24 25  2  0
  8  3  1  0
 25 15  1  0
 25 20  1  0
M  END
>  <smiles>  (159) 
O=C(c1ccncc1)N(CC=CCO)c1ccc(Cl)c2ncccc12

>  <inchikey>  (159) 
KPCVEUKLXLQADX-UHFFFAOYSA-N

$$$$
OODQCHOJFVAFFI-UHFFFAOYSA-N-P446140-P446140-541666
     RDKit          3D

 25 27  0  0  0  0  0  0  0  0999 V2000
   -0.6284  -60.3587  -13.8448 C   0  0  0  0  0  0  0  0  0  0  0  0
   -0.8493  -61.8490  -14.1274 C   0  0  2  0  0  0  0  0  0  0  0  0
   -0.3526  -62.1495  -15.5502 C   0  0  0  0  0  0  0  0  0  0  0  0
   -0.4727  -63.5329  -15.8504 O   0  0  0  0  0  0  0  0  0  0  0  0
   -2.3445  -62.2682  -13.9962 C   0  0  0  0  0  0  0  0  0  0  0  0
   -2.9596  -62.6812  -12.5382 N   0  0  0  0  0  0  0  0  0  0  0  0
   -2.4406  -61.7711  -11.4448 C   0  0  0  0  0  0  0  0  0  0  0  0
   -1.4887  -61.8706  -10.7582 O   0  0  0  0  0  0  0  0  0  0  0  0
   -3.3564  -60.6130  -11.1895 C   0  0  0  0  0  0  0  0  0  0  0  0
   -4.4823  -60.3342  -11.9622 C   0  0  0  0  0  0  0  0  0  0  0  0
   -5.2202  -59.2067  -11.6470 C   0  0  0  0  0  0  0  0  0  0  0  0
   -4.9136  -58.3599  -10.6320 N   0  0  0  0  0  0  0  0  0  0  0  0
   -3.8357  -58.6722   -9.8827 C   0  0  0  0  0  0  0  0  0  0  0  0
   -3.0389  -59.7711  -10.1186 C   0  0  0  0  0  0  0  0  0  0  0  0
   -2.4749  -64.0320  -13.0064 C   0  0  0  0  0  0  0  0  0  0  0  0
   -3.4987  -64.7373  -13.6890 C   0  0  0  0  0  0  0  0  0  0  0  0
   -3.3595  -66.0652  -14.0492 C   0  0  0  0  0  0  0  0  0  0  0  0
   -2.2220  -66.7590  -13.6655 C   0  0  0  0  0  0  0  0  0  0  0  0
   -2.1291  -68.4284  -14.1356 Cl  0  0  0  0  0  0  0  0  0  0  0  0
   -1.2170  -66.1686  -12.8960 C   0  0  0  0  0  0  0  0  0  0  0  0
   -0.1783  -66.9446  -12.5030 N   0  0  0  0  0  0  0  0  0  0  0  0
    0.7793  -66.4362  -11.7133 C   0  0  0  0  0  0  0  0  0  0  0  0
    0.7796  -65.1335  -11.3019 C   0  0  0  0  0  0  0  0  0  0  0  0
   -0.2692  -64.3245  -11.7276 C   0  0  0  0  0  0  0  0  0  0  0  0
   -1.3359  -64.7932  -12.5347 C   0  0  0  0  0  0  0  0  0  0  0  0
  2  1  1  6
  2  3  1  0
  3  4  1  0
  2  5  1  0
  5  6  1  0
  6  7  1  0
  7  8  2  0
  7  9  1  0
  9 10  2  0
 10 11  1  0
 11 12  2  0
 12 13  1  0
 13 14  2  0
  6 15  1  0
 15 16  2  0
 16 17  1  0
 17 18  2  0
 18 19  1  0
 18 20  1  0
 20 21  2  0
 21 22  1  0
 22 23  2  0
 23 24  1  0
 24 25  2  0
 14  9  1  0
 25 15  1  0
 25 20  1  0
M  END
>  <smiles>  (160) 
CC(CO)CN(C(=O)c1ccncc1)c1ccc(Cl)c2ncccc12

>  <inchikey>  (160) 
OODQCHOJFVAFFI-UHFFFAOYSA-N

$$$$
GZJIUETWLWTHTQ-UHFFFAOYSA-N-P446140-P446140-541666
     RDKit          3D

 25 27  0  0  0  0  0  0  0  0999 V2000
   -0.1317  -64.5330  -16.4532 C   0  0  0  0  0  0  0  0  0  0  0  0
    0.0810  -63.6729  -15.5058 C   0  0  0  0  0  0  0  0  0  0  0  0
    0.3219  -62.8400  -14.5356 C   0  0  0  0  0  0  0  0  0  0  0  0
   -0.6502  -61.8844  -13.8978 C   0  0  0  0  0  0  0  0  0  0  0  0
   -2.1496  -62.2813  -13.9128 C   0  0  0  0  0  0  0  0  0  0  0  0
   -2.9037  -62.7022  -12.5297 N   0  0  0  0  0  0  0  0  0  0  0  0
   -2.4528  -61.8343  -11.3704 C   0  0  0  0  0  0  0  0  0  0  0  0
   -1.5692  -61.9833  -10.6048 O   0  0  0  0  0  0  0  0  0  0  0  0
   -3.3448  -60.6465  -11.1675 C   0  0  0  0  0  0  0  0  0  0  0  0
   -3.0505  -59.8029  -10.0910 C   0  0  0  0  0  0  0  0  0  0  0  0
   -3.8381  -58.6905   -9.8856 C   0  0  0  0  0  0  0  0  0  0  0  0
   -4.8880  -58.3657  -10.6684 N   0  0  0  0  0  0  0  0  0  0  0  0
   -5.1710  -59.2115  -11.6914 C   0  0  0  0  0  0  0  0  0  0  0  0
   -4.4385  -60.3514  -11.9798 C   0  0  0  0  0  0  0  0  0  0  0  0
   -2.4283  -64.0508  -12.9840 C   0  0  0  0  0  0  0  0  0  0  0  0
   -3.4300  -64.7230  -13.7274 C   0  0  0  0  0  0  0  0  0  0  0  0
   -3.3026  -66.0528  -14.0839 C   0  0  0  0  0  0  0  0  0  0  0  0
   -2.1992  -66.7724  -13.6464 C   0  0  0  0  0  0  0  0  0  0  0  0
   -2.1167  -68.4395  -14.1263 Cl  0  0  0  0  0  0  0  0  0  0  0  0
   -1.2151  -66.2060  -12.8313 C   0  0  0  0  0  0  0  0  0  0  0  0
   -0.2057  -66.9995  -12.3994 N   0  0  0  0  0  0  0  0  0  0  0  0
    0.7381  -66.4961  -11.5886 C   0  0  0  0  0  0  0  0  0  0  0  0
    0.7492  -65.1892  -11.1857 C   0  0  0  0  0  0  0  0  0  0  0  0
   -0.2753  -64.3667  -11.6413 C   0  0  0  0  0  0  0  0  0  0  0  0
   -1.3240  -64.8304  -12.4718 C   0  0  0  0  0  0  0  0  0  0  0  0
  1  2  2  0
  2  3  2  0
  3  4  1  0
  4  5  1  0
  5  6  1  0
  6  7  1  0
  7  8  2  0
  7  9  1  0
  9 10  2  0
 10 11  1  0
 11 12  2  0
 12 13  1  0
 13 14  2  0
  6 15  1  0
 15 16  2  0
 16 17  1  0
 17 18  2  0
 18 19  1  0
 18 20  1  0
 20 21  2  0
 21 22  1  0
 22 23  2  0
 23 24  1  0
 24 25  2  0
 14  9  1  0
 25 15  1  0
 25 20  1  0
M  END
>  <smiles>  (161) 
C=C=CCCN(C(=O)c1ccncc1)c1ccc(Cl)c2ncccc12

>  <inchikey>  (161) 
GZJIUETWLWTHTQ-UHFFFAOYSA-N

$$$$
GSTYGNBXXDINAS-UHFFFAOYSA-N-P446140-P446140-541666
     RDKit          3D

 25 27  0  0  0  0  0  0  0  0999 V2000
    0.8177  -62.8343  -16.6120 C   0  0  0  0  0  0  0  0  0  0  0  0
   -0.1511  -61.6662  -16.5648 C   0  0  0  0  0  0  0  0  0  0  0  0
   -0.5491  -61.3966  -15.2245 O   0  0  0  0  0  0  0  0  0  0  0  0
   -1.6621  -62.1893  -14.7836 C   0  0  0  0  0  0  0  0  0  0  0  0
   -1.5818  -62.2498  -13.2430 C   0  0  0  0  0  0  0  0  0  0  0  0
   -2.8487  -62.7194  -12.3728 N   0  0  0  0  0  0  0  0  0  0  0  0
   -2.8145  -62.1175  -10.9846 C   0  0  0  0  0  0  0  0  0  0  0  0
   -2.3339  -62.5240   -9.9895 O   0  0  0  0  0  0  0  0  0  0  0  0
   -3.5234  -60.8016  -10.9357 C   0  0  0  0  0  0  0  0  0  0  0  0
   -3.2498  -59.9612   -9.8547 C   0  0  0  0  0  0  0  0  0  0  0  0
   -3.8924  -58.7429   -9.7926 C   0  0  0  0  0  0  0  0  0  0  0  0
   -4.7895  -58.3214  -10.7108 N   0  0  0  0  0  0  0  0  0  0  0  0
   -5.0531  -59.1670  -11.7393 C   0  0  0  0  0  0  0  0  0  0  0  0
   -4.4441  -60.3994  -11.9028 C   0  0  0  0  0  0  0  0  0  0  0  0
   -2.3761  -64.0422  -12.8688 C   0  0  0  0  0  0  0  0  0  0  0  0
   -3.2921  -64.6107  -13.7773 C   0  0  0  0  0  0  0  0  0  0  0  0
   -3.1638  -65.9258  -14.1923 C   0  0  0  0  0  0  0  0  0  0  0  0
   -2.1328  -66.7106  -13.6822 C   0  0  0  0  0  0  0  0  0  0  0  0
   -2.0562  -68.3560  -14.2317 Cl  0  0  0  0  0  0  0  0  0  0  0  0
   -1.2194  -66.2258  -12.7376 C   0  0  0  0  0  0  0  0  0  0  0  0
   -0.2495  -67.0465  -12.2683 N   0  0  0  0  0  0  0  0  0  0  0  0
    0.5950  -66.6064  -11.3187 C   0  0  0  0  0  0  0  0  0  0  0  0
    0.5332  -65.3449  -10.7870 C   0  0  0  0  0  0  0  0  0  0  0  0
   -0.4495  -64.4921  -11.2712 C   0  0  0  0  0  0  0  0  0  0  0  0
   -1.3631  -64.8875  -12.2806 C   0  0  0  0  0  0  0  0  0  0  0  0
  1  2  1  0
  2  3  1  0
  3  4  1  0
  4  5  1  0
  5  6  1  0
  6  7  1  0
  7  8  2  0
  7  9  1  0
  9 10  2  0
 10 11  1  0
 11 12  2  0
 12 13  1  0
 13 14  2  0
  6 15  1  0
 15 16  2  0
 16 17  1  0
 17 18  2  0
 18 19  1  0
 18 20  1  0
 20 21  2  0
 21 22  1  0
 22 23  2  0
 23 24  1  0
 24 25  2  0
 14  9  1  0
 25 15  1  0
 25 20  1  0
M  END
>  <smiles>  (162) 
CCOCCN(C(=O)c1ccncc1)c1ccc(Cl)c2ncccc12

>  <inchikey>  (162) 
GSTYGNBXXDINAS-UHFFFAOYSA-N

$$$$
ABQPEMQCBXUOPI-UHFFFAOYSA-N-P446140-P446140-541666
     RDKit          3D

 25 27  0  0  0  0  0  0  0  0999 V2000
   -1.3894  -59.1716  -15.5083 C   0  0  0  0  0  0  0  0  0  0  0  0
   -2.0846  -59.8020  -14.5541 C   0  0  0  0  0  0  0  0  0  0  0  0
   -2.4225  -61.2738  -14.5711 C   0  0  0  0  0  0  0  0  0  0  0  0
   -1.6769  -62.0494  -13.4383 C   0  0  2  0  0  0  0  0  0  0  0  0
   -0.3473  -62.6451  -13.9980 C   0  0  0  0  0  0  0  0  0  0  0  0
   -2.8193  -62.6361  -12.3668 N   0  0  0  0  0  0  0  0  0  0  0  0
   -2.6526  -62.0163  -10.9915 C   0  0  0  0  0  0  0  0  0  0  0  0
   -2.0128  -62.3706  -10.0682 O   0  0  0  0  0  0  0  0  0  0  0  0
   -3.4474  -60.7520  -10.8724 C   0  0  0  0  0  0  0  0  0  0  0  0
   -4.4844  -60.4250  -11.7466 C   0  0  0  0  0  0  0  0  0  0  0  0
   -5.1304  -59.2149  -11.5689 C   0  0  0  0  0  0  0  0  0  0  0  0
   -4.8118  -58.3278  -10.5943 N   0  0  0  0  0  0  0  0  0  0  0  0
   -3.8183  -58.6842   -9.7493 C   0  0  0  0  0  0  0  0  0  0  0  0
   -3.1201  -59.8709   -9.8420 C   0  0  0  0  0  0  0  0  0  0  0  0
   -2.3108  -63.9127  -12.9171 C   0  0  0  0  0  0  0  0  0  0  0  0
   -3.1931  -64.4448  -13.8833 C   0  0  0  0  0  0  0  0  0  0  0  0
   -3.1128  -65.7696  -14.2840 C   0  0  0  0  0  0  0  0  0  0  0  0
   -2.1587  -66.6044  -13.7099 C   0  0  0  0  0  0  0  0  0  0  0  0
   -2.1395  -68.2589  -14.2402 Cl  0  0  0  0  0  0  0  0  0  0  0  0
   -1.2685  -66.1566  -12.7276 C   0  0  0  0  0  0  0  0  0  0  0  0
   -0.3646  -67.0249  -12.2127 N   0  0  0  0  0  0  0  0  0  0  0  0
    0.4811  -66.6145  -11.2520 C   0  0  0  0  0  0  0  0  0  0  0  0
    0.4923  -65.3352  -10.7631 C   0  0  0  0  0  0  0  0  0  0  0  0
   -0.4260  -64.4378  -11.2929 C   0  0  0  0  0  0  0  0  0  0  0  0
   -1.3589  -64.8045  -12.2924 C   0  0  0  0  0  0  0  0  0  0  0  0
  1  2  2  0
  2  3  1  0
  3  4  1  0
  4  5  1  6
  4  6  1  0
  6  7  1  0
  7  8  2  0
  7  9  1  0
  9 10  2  0
 10 11  1  0
 11 12  2  0
 12 13  1  0
 13 14  2  0
  6 15  1  0
 15 16  2  0
 16 17  1  0
 17 18  2  0
 18 19  1  0
 18 20  1  0
 20 21  2  0
 21 22  1  0
 22 23  2  0
 23 24  1  0
 24 25  2  0
 14  9  1  0
 25 15  1  0
 25 20  1  0
M  END
>  <smiles>  (163) 
C=CCC(C)N(C(=O)c1ccncc1)c1ccc(Cl)c2ncccc12

>  <inchikey>  (163) 
ABQPEMQCBXUOPI-UHFFFAOYSA-N

$$$$
SWDJTLUPPRDQRM-UHFFFAOYSA-N-P446140-P446140-541666
     RDKit          3D

 25 27  0  0  0  0  0  0  0  0999 V2000
   -4.8321  -62.3481  -12.9520 O   0  0  0  0  0  0  0  0  0  0  0  0
   -3.8263  -62.0635  -12.4260 C   0  0  0  0  0  0  0  0  0  0  0  0
   -3.8305  -60.7336  -11.7940 C   0  0  0  0  0  0  0  0  0  0  0  0
   -3.4074  -60.4758  -10.4994 C   0  0  0  0  0  0  0  0  0  0  0  0
   -3.6795  -59.2101   -9.9969 C   0  0  0  0  0  0  0  0  0  0  0  0
   -4.3130  -58.2254  -10.6895 N   0  0  0  0  0  0  0  0  0  0  0  0
   -4.6750  -58.5189  -11.9586 C   0  0  0  0  0  0  0  0  0  0  0  0
   -4.4670  -59.7426  -12.5365 C   0  0  0  0  0  0  0  0  0  0  0  0
   -2.5196  -62.7891  -12.3791 N   0  0  0  0  0  0  0  0  0  0  0  0
   -2.1380  -64.1233  -12.8955 C   0  0  0  0  0  0  0  0  0  0  0  0
   -3.0878  -64.7912  -13.7038 C   0  0  0  0  0  0  0  0  0  0  0  0
   -2.9365  -66.1238  -14.0525 C   0  0  0  0  0  0  0  0  0  0  0  0
   -1.8680  -66.8428  -13.5317 C   0  0  0  0  0  0  0  0  0  0  0  0
   -1.7531  -68.5100  -13.9936 Cl  0  0  0  0  0  0  0  0  0  0  0  0
   -0.9733  -66.2775  -12.6108 C   0  0  0  0  0  0  0  0  0  0  0  0
    0.0075  -67.0256  -12.0555 N   0  0  0  0  0  0  0  0  0  0  0  0
    0.7706  -66.4988  -11.0784 C   0  0  0  0  0  0  0  0  0  0  0  0
    0.6023  -65.2257  -10.5860 C   0  0  0  0  0  0  0  0  0  0  0  0
   -0.3843  -64.4390  -11.1605 C   0  0  0  0  0  0  0  0  0  0  0  0
   -1.1634  -64.9210  -12.2331 C   0  0  0  0  0  0  0  0  0  0  0  0
   -1.5325  -62.3343  -13.6374 C   0  0  0  0  0  0  0  0  0  0  0  0
    0.0013  -62.4435  -13.5323 C   0  0  0  0  0  0  0  0  0  0  0  0
    0.5578  -61.4740  -14.3185 F   0  0  0  0  0  0  0  0  0  0  0  0
   -2.0295  -62.4160  -15.1004 C   0  0  0  0  0  0  0  0  0  0  0  0
   -1.5708  -63.5611  -15.6761 F   0  0  0  0  0  0  0  0  0  0  0  0
  1  2  2  0
  2  3  1  0
  3  4  2  0
  4  5  1  0
  5  6  2  0
  6  7  1  0
  7  8  2  0
  2  9  1  0
  9 10  1  0
 10 11  2  0
 11 12  1  0
 12 13  2  0
 13 14  1  0
 13 15  1  0
 15 16  2  0
 16 17  1  0
 17 18  2  0
 18 19  1  0
 19 20  2  0
  9 21  1  0
 21 22  1  0
 22 23  1  0
 21 24  1  0
 24 25  1  0
  8  3  1  0
 20 10  1  0
 20 15  1  0
M  END
>  <smiles>  (164) 
O=C(c1ccncc1)N(c1ccc(Cl)c2ncccc12)C(CF)CF

>  <inchikey>  (164) 
SWDJTLUPPRDQRM-UHFFFAOYSA-N

$$$$
NVJOXYFQZGLONW-UHFFFAOYSA-N-P446140-P446140-541666
     RDKit          3D

 25 27  0  0  0  0  0  0  0  0999 V2000
   -2.0952  -62.3899  -10.1437 O   0  0  0  0  0  0  0  0  0  0  0  0
   -2.7286  -62.0534  -11.0777 C   0  0  0  0  0  0  0  0  0  0  0  0
   -3.4920  -60.7698  -10.9739 C   0  0  0  0  0  0  0  0  0  0  0  0
   -4.4978  -60.4047  -11.8665 C   0  0  0  0  0  0  0  0  0  0  0  0
   -5.1282  -59.1880  -11.6719 C   0  0  0  0  0  0  0  0  0  0  0  0
   -4.8232  -58.3304  -10.6657 N   0  0  0  0  0  0  0  0  0  0  0  0
   -3.8555  -58.7196   -9.8082 C   0  0  0  0  0  0  0  0  0  0  0  0
   -3.1749  -59.9143   -9.9157 C   0  0  0  0  0  0  0  0  0  0  0  0
   -2.9236  -62.7226  -12.4217 N   0  0  0  0  0  0  0  0  0  0  0  0
   -1.7915  -62.2302  -13.5018 C   0  0  0  0  0  0  0  0  0  0  0  0
   -2.3598  -61.6427  -14.8034 C   0  0  0  0  0  0  0  0  0  0  0  0
   -1.3561  -61.0470  -15.4943 F   0  0  0  0  0  0  0  0  0  0  0  0
   -3.2990  -60.7046  -14.5633 F   0  0  0  0  0  0  0  0  0  0  0  0
   -2.8903  -62.5853  -15.6068 F   0  0  0  0  0  0  0  0  0  0  0  0
   -2.4583  -64.0438  -12.9231 C   0  0  0  0  0  0  0  0  0  0  0  0
   -3.3972  -64.6611  -13.7666 C   0  0  0  0  0  0  0  0  0  0  0  0
   -3.2493  -65.9852  -14.1458 C   0  0  0  0  0  0  0  0  0  0  0  0
   -2.1799  -66.7310  -13.6563 C   0  0  0  0  0  0  0  0  0  0  0  0
   -2.0864  -68.3901  -14.1584 Cl  0  0  0  0  0  0  0  0  0  0  0  0
   -1.2321  -66.1910  -12.7789 C   0  0  0  0  0  0  0  0  0  0  0  0
   -0.2217  -66.9706  -12.3251 N   0  0  0  0  0  0  0  0  0  0  0  0
    0.6808  -66.4613  -11.4681 C   0  0  0  0  0  0  0  0  0  0  0  0
    0.6513  -65.1609  -11.0355 C   0  0  0  0  0  0  0  0  0  0  0  0
   -0.3730  -64.3495  -11.5067 C   0  0  0  0  0  0  0  0  0  0  0  0
   -1.3736  -64.8329  -12.3845 C   0  0  0  0  0  0  0  0  0  0  0  0
  1  2  2  0
  2  3  1  0
  3  4  2  0
  4  5  1  0
  5  6  2  0
  6  7  1  0
  7  8  2  0
  2  9  1  0
  9 10  1  0
 10 11  1  0
 11 12  1  0
 11 13  1  0
 11 14  1  0
  9 15  1  0
 15 16  2  0
 16 17  1  0
 17 18  2  0
 18 19  1  0
 18 20  1  0
 20 21  2  0
 21 22  1  0
 22 23  2  0
 23 24  1  0
 24 25  2  0
  8  3  1  0
 25 15  1  0
 25 20  1  0
M  END
>  <smiles>  (165) 
O=C(c1ccncc1)N(CC(F)(F)F)c1ccc(Cl)c2ncccc12

>  <inchikey>  (165) 
NVJOXYFQZGLONW-UHFFFAOYSA-N

$$$$
QMIPFJOPCOMMJD-UHFFFAOYSA-N-P446140-P446140-541666
     RDKit          3D

 25 27  0  0  0  0  0  0  0  0999 V2000
   -1.4995  -61.8973  -10.8061 O   0  0  0  0  0  0  0  0  0  0  0  0
   -2.4468  -61.7956  -11.4995 C   0  0  0  0  0  0  0  0  0  0  0  0
   -3.3553  -60.6312  -11.2451 C   0  0  0  0  0  0  0  0  0  0  0  0
   -3.0307  -59.7897  -10.1750 C   0  0  0  0  0  0  0  0  0  0  0  0
   -3.8254  -58.6906   -9.9299 C   0  0  0  0  0  0  0  0  0  0  0  0
   -4.9081  -58.3756  -10.6705 N   0  0  0  0  0  0  0  0  0  0  0  0
   -5.2226  -59.2223  -11.6830 C   0  0  0  0  0  0  0  0  0  0  0  0
   -4.4871  -60.3504  -12.0073 C   0  0  0  0  0  0  0  0  0  0  0  0
   -2.9613  -62.7065  -12.5989 N   0  0  0  0  0  0  0  0  0  0  0  0
   -2.3385  -62.2970  -14.0446 C   0  0  0  0  0  0  0  0  0  0  0  0
   -0.8478  -61.9385  -14.1562 C   0  0  0  0  0  0  0  0  0  0  0  0
   -0.5880  -61.2159  -15.4658 C   0  0  0  0  0  0  0  0  0  0  0  0
   -0.8700  -62.0397  -16.5061 F   0  0  0  0  0  0  0  0  0  0  0  0
    0.7314  -60.9154  -15.5590 F   0  0  0  0  0  0  0  0  0  0  0  0
   -2.4770  -64.0555  -13.0626 C   0  0  0  0  0  0  0  0  0  0  0  0
   -3.4974  -64.7765  -13.7292 C   0  0  0  0  0  0  0  0  0  0  0  0
   -3.3533  -66.1148  -14.0484 C   0  0  0  0  0  0  0  0  0  0  0  0
   -2.2186  -66.7983  -13.6337 C   0  0  0  0  0  0  0  0  0  0  0  0
   -2.1252  -68.4808  -14.0524 Cl  0  0  0  0  0  0  0  0  0  0  0  0
   -1.2134  -66.1832  -12.8832 C   0  0  0  0  0  0  0  0  0  0  0  0
   -0.1770  -66.9417  -12.4528 N   0  0  0  0  0  0  0  0  0  0  0  0
    0.7946  -66.3878  -11.7108 C   0  0  0  0  0  0  0  0  0  0  0  0
    0.8127  -65.0588  -11.3885 C   0  0  0  0  0  0  0  0  0  0  0  0
   -0.2392  -64.2716  -11.8449 C   0  0  0  0  0  0  0  0  0  0  0  0
   -1.3275  -64.7933  -12.5856 C   0  0  0  0  0  0  0  0  0  0  0  0
  1  2  2  0
  2  3  1  0
  3  4  2  0
  4  5  1  0
  5  6  2  0
  6  7  1  0
  7  8  2  0
  2  9  1  0
  9 10  1  0
 10 11  1  0
 11 12  1  0
 12 13  1  0
 12 14  1  0
  9 15  1  0
 15 16  2  0
 16 17  1  0
 17 18  2  0
 18 19  1  0
 18 20  1  0
 20 21  2  0
 21 22  1  0
 22 23  2  0
 23 24  1  0
 24 25  2  0
  8  3  1  0
 25 15  1  0
 25 20  1  0
M  END
>  <smiles>  (166) 
O=C(c1ccncc1)N(CCC(F)F)c1ccc(Cl)c2ncccc12

>  <inchikey>  (166) 
QMIPFJOPCOMMJD-UHFFFAOYSA-N

$$$$
FLBLWCCJRRKUMA-UHFFFAOYSA-N-P446140-P446140-541666
     RDKit          3D

 25 27  0  0  0  0  0  0  0  0999 V2000
   -1.1437  -60.0051  -14.0132 C   0  0  0  0  0  0  0  0  0  0  0  0
   -0.9524  -61.5203  -14.1583 C   0  0  0  0  0  0  0  0  0  0  0  0
   -0.3770  -61.7894  -15.5603 C   0  0  0  0  0  0  0  0  0  0  0  0
    0.0615  -61.9364  -13.2538 O   0  0  0  0  0  0  0  0  0  0  0  0
   -2.3013  -62.3248  -14.0238 C   0  0  0  0  0  0  0  0  0  0  0  0
   -2.9191  -62.6899  -12.5331 N   0  0  0  0  0  0  0  0  0  0  0  0
   -2.3956  -61.7465  -11.4763 C   0  0  0  0  0  0  0  0  0  0  0  0
   -1.4417  -61.8242  -10.7904 O   0  0  0  0  0  0  0  0  0  0  0  0
   -3.3217  -60.5935  -11.2312 C   0  0  0  0  0  0  0  0  0  0  0  0
   -4.4534  -60.3319  -12.0006 C   0  0  0  0  0  0  0  0  0  0  0  0
   -5.2083  -59.2164  -11.6799 C   0  0  0  0  0  0  0  0  0  0  0  0
   -4.9127  -58.3661  -10.6648 N   0  0  0  0  0  0  0  0  0  0  0  0
   -3.8297  -58.6632   -9.9176 C   0  0  0  0  0  0  0  0  0  0  0  0
   -3.0164  -59.7486  -10.1582 C   0  0  0  0  0  0  0  0  0  0  0  0
   -2.4402  -64.0548  -12.9558 C   0  0  0  0  0  0  0  0  0  0  0  0
   -3.4702  -64.7492  -13.6503 C   0  0  0  0  0  0  0  0  0  0  0  0
   -3.3391  -66.0712  -14.0328 C   0  0  0  0  0  0  0  0  0  0  0  0
   -2.2035  -66.7737  -13.6611 C   0  0  0  0  0  0  0  0  0  0  0  0
   -2.1175  -68.4349  -14.1617 Cl  0  0  0  0  0  0  0  0  0  0  0  0
   -1.2025  -66.2023  -12.8723 C   0  0  0  0  0  0  0  0  0  0  0  0
   -0.1760  -66.9978  -12.4886 N   0  0  0  0  0  0  0  0  0  0  0  0
    0.7720  -66.5184  -11.6709 C   0  0  0  0  0  0  0  0  0  0  0  0
    0.7551  -65.2381  -11.1959 C   0  0  0  0  0  0  0  0  0  0  0  0
   -0.2898  -64.4132  -11.6019 C   0  0  0  0  0  0  0  0  0  0  0  0
   -1.3225  -64.8353  -12.4725 C   0  0  0  0  0  0  0  0  0  0  0  0
  1  2  1  0
  2  3  1  0
  2  4  1  0
  2  5  1  0
  5  6  1  0
  6  7  1  0
  7  8  2  0
  7  9  1  0
  9 10  2  0
 10 11  1  0
 11 12  2  0
 12 13  1  0
 13 14  2  0
  6 15  1  0
 15 16  2  0
 16 17  1  0
 17 18  2  0
 18 19  1  0
 18 20  1  0
 20 21  2  0
 21 22  1  0
 22 23  2  0
 23 24  1  0
 24 25  2  0
 14  9  1  0
 25 15  1  0
 25 20  1  0
M  END
>  <smiles>  (167) 
CC(C)(O)CN(C(=O)c1ccncc1)c1ccc(Cl)c2ncccc12

>  <inchikey>  (167) 
FLBLWCCJRRKUMA-UHFFFAOYSA-N

$$$$
AUVGYKIGHUMRFN-UHFFFAOYSA-N-P446140-P446140-541666
     RDKit          3D

 25 27  0  0  0  0  0  0  0  0999 V2000
    0.0525  -59.6667  -12.7906 C   0  0  0  0  0  0  0  0  0  0  0  0
    0.3365  -61.1348  -12.5048 C   0  0  0  0  0  0  0  0  0  0  0  0
   -0.2944  -62.1015  -13.5155 C   0  0  0  0  0  0  0  0  0  0  0  0
   -1.8555  -62.1615  -13.5949 C   0  0  1  0  0  0  0  0  0  0  0  0
   -2.3388  -62.3340  -15.0597 C   0  0  0  0  0  0  0  0  0  0  0  0
   -2.8688  -62.6906  -12.3803 N   0  0  0  0  0  0  0  0  0  0  0  0
   -2.5954  -61.9621  -11.0806 C   0  0  0  0  0  0  0  0  0  0  0  0
   -1.8605  -62.2258  -10.1992 O   0  0  0  0  0  0  0  0  0  0  0  0
   -3.4229  -60.7190  -10.9605 C   0  0  0  0  0  0  0  0  0  0  0  0
   -4.4395  -60.3864  -11.8566 C   0  0  0  0  0  0  0  0  0  0  0  0
   -5.1174  -59.1970  -11.6546 C   0  0  0  0  0  0  0  0  0  0  0  0
   -4.8437  -58.3332  -10.6448 N   0  0  0  0  0  0  0  0  0  0  0  0
   -3.8634  -58.6905   -9.7871 C   0  0  0  0  0  0  0  0  0  0  0  0
   -3.1395  -59.8582   -9.8978 C   0  0  0  0  0  0  0  0  0  0  0  0
   -2.3652  -64.0085  -12.8853 C   0  0  0  0  0  0  0  0  0  0  0  0
   -3.3536  -64.6424  -13.6790 C   0  0  0  0  0  0  0  0  0  0  0  0
   -3.2398  -65.9589  -14.0928 C   0  0  0  0  0  0  0  0  0  0  0  0
   -2.1620  -66.7150  -13.6567 C   0  0  0  0  0  0  0  0  0  0  0  0
   -2.0913  -68.3628  -14.2006 Cl  0  0  0  0  0  0  0  0  0  0  0  0
   -1.2099  -66.2045  -12.7706 C   0  0  0  0  0  0  0  0  0  0  0  0
   -0.2275  -67.0302  -12.3377 N   0  0  0  0  0  0  0  0  0  0  0  0
    0.6531  -66.5981  -11.4212 C   0  0  0  0  0  0  0  0  0  0  0  0
    0.6167  -65.3362  -10.8952 C   0  0  0  0  0  0  0  0  0  0  0  0
   -0.3752  -64.4773  -11.3541 C   0  0  0  0  0  0  0  0  0  0  0  0
   -1.3329  -64.8536  -12.3272 C   0  0  0  0  0  0  0  0  0  0  0  0
  1  2  1  0
  2  3  1  0
  3  4  1  0
  4  5  1  6
  4  6  1  0
  6  7  1  0
  7  8  2  0
  7  9  1  0
  9 10  2  0
 10 11  1  0
 11 12  2  0
 12 13  1  0
 13 14  2  0
  6 15  1  0
 15 16  2  0
 16 17  1  0
 17 18  2  0
 18 19  1  0
 18 20  1  0
 20 21  2  0
 21 22  1  0
 22 23  2  0
 23 24  1  0
 24 25  2  0
 14  9  1  0
 25 15  1  0
 25 20  1  0
M  END
>  <smiles>  (168) 
CCCC(C)N(C(=O)c1ccncc1)c1ccc(Cl)c2ncccc12

>  <inchikey>  (168) 
AUVGYKIGHUMRFN-UHFFFAOYSA-N

$$$$
SIZLHIKVSSZFKF-UHFFFAOYSA-N-P446140-P446140-541666
     RDKit          3D

 25 27  0  0  0  0  0  0  0  0999 V2000
   -1.3052  -60.2963  -15.3513 C   0  0  0  0  0  0  0  0  0  0  0  0
   -2.1481  -60.8532  -14.2095 C   0  0  0  0  0  0  0  0  0  0  0  0
   -1.5456  -62.1267  -13.5277 C   0  0  0  0  0  0  0  0  0  0  0  0
   -0.0981  -61.8238  -13.0167 C   0  0  0  0  0  0  0  0  0  0  0  0
    0.1455  -60.5872  -12.1601 C   0  0  0  0  0  0  0  0  0  0  0  0
   -2.7270  -62.6050  -12.3948 N   0  0  0  0  0  0  0  0  0  0  0  0
   -2.5259  -61.9111  -11.0642 C   0  0  0  0  0  0  0  0  0  0  0  0
   -1.8955  -62.2350  -10.1230 O   0  0  0  0  0  0  0  0  0  0  0  0
   -3.3591  -60.6732  -10.9481 C   0  0  0  0  0  0  0  0  0  0  0  0
   -3.0485  -59.7779   -9.9234 C   0  0  0  0  0  0  0  0  0  0  0  0
   -3.8028  -58.6303   -9.8045 C   0  0  0  0  0  0  0  0  0  0  0  0
   -4.8351  -58.3241  -10.6205 N   0  0  0  0  0  0  0  0  0  0  0  0
   -5.1374  -59.2247  -11.5889 C   0  0  0  0  0  0  0  0  0  0  0  0
   -4.4395  -60.4023  -11.7885 C   0  0  0  0  0  0  0  0  0  0  0  0
   -2.2728  -63.9444  -12.8716 C   0  0  0  0  0  0  0  0  0  0  0  0
   -3.1818  -64.4608  -13.8288 C   0  0  0  0  0  0  0  0  0  0  0  0
   -3.1170  -65.7752  -14.2602 C   0  0  0  0  0  0  0  0  0  0  0  0
   -2.1466  -66.6173  -13.7306 C   0  0  0  0  0  0  0  0  0  0  0  0
   -2.1335  -68.2586  -14.3012 Cl  0  0  0  0  0  0  0  0  0  0  0  0
   -1.2448  -66.1924  -12.7492 C   0  0  0  0  0  0  0  0  0  0  0  0
   -0.3399  -67.0820  -12.2754 N   0  0  0  0  0  0  0  0  0  0  0  0
    0.4879  -66.7277  -11.2796 C   0  0  0  0  0  0  0  0  0  0  0  0
    0.4648  -65.4886  -10.7014 C   0  0  0  0  0  0  0  0  0  0  0  0
   -0.4516  -64.5671  -11.1936 C   0  0  0  0  0  0  0  0  0  0  0  0
   -1.3359  -64.8564  -12.2609 C   0  0  0  0  0  0  0  0  0  0  0  0
  1  2  1  0
  2  3  1  0
  3  4  1  0
  4  5  1  0
  3  6  1  0
  6  7  1  0
  7  8  2  0
  7  9  1  0
  9 10  2  0
 10 11  1  0
 11 12  2  0
 12 13  1  0
 13 14  2  0
  6 15  1  0
 15 16  2  0
 16 17  1  0
 17 18  2  0
 18 19  1  0
 18 20  1  0
 20 21  2  0
 21 22  1  0
 22 23  2  0
 23 24  1  0
 24 25  2  0
 14  9  1  0
 25 15  1  0
 25 20  1  0
M  END
>  <smiles>  (169) 
CCC(CC)N(C(=O)c1ccncc1)c1ccc(Cl)c2ncccc12

>  <inchikey>  (169) 
SIZLHIKVSSZFKF-UHFFFAOYSA-N

$$$$
MQPOSJGPAYCGKM-UHFFFAOYSA-N-P446140-P446140-541666
     RDKit          3D

 25 27  0  0  0  0  0  0  0  0999 V2000
    0.3447  -61.0147  -15.4131 C   0  0  0  0  0  0  0  0  0  0  0  0
   -0.2640  -60.2784  -14.2267 C   0  0  0  0  0  0  0  0  0  0  0  0
   -1.6136  -60.8299  -13.7137 C   0  0  1  0  0  0  0  0  0  0  0  0
   -2.6861  -60.7565  -14.7936 C   0  0  0  0  0  0  0  0  0  0  0  0
   -1.4795  -62.2873  -13.1958 C   0  0  0  0  0  0  0  0  0  0  0  0
   -2.7775  -62.6943  -12.2812 N   0  0  0  0  0  0  0  0  0  0  0  0
   -2.6999  -62.0640  -10.9029 C   0  0  0  0  0  0  0  0  0  0  0  0
   -2.2218  -62.4695   -9.9046 O   0  0  0  0  0  0  0  0  0  0  0  0
   -3.4464  -60.7702  -10.8336 C   0  0  0  0  0  0  0  0  0  0  0  0
   -3.0994  -59.8645   -9.8318 C   0  0  0  0  0  0  0  0  0  0  0  0
   -3.7839  -58.6673   -9.7678 C   0  0  0  0  0  0  0  0  0  0  0  0
   -4.7813  -58.3235  -10.6140 N   0  0  0  0  0  0  0  0  0  0  0  0
   -5.1180  -59.2351  -11.5599 C   0  0  0  0  0  0  0  0  0  0  0  0
   -4.4894  -60.4590  -11.7052 C   0  0  0  0  0  0  0  0  0  0  0  0
   -2.3663  -64.0417  -12.7538 C   0  0  0  0  0  0  0  0  0  0  0  0
   -3.2728  -64.5602  -13.7011 C   0  0  0  0  0  0  0  0  0  0  0  0
   -3.1627  -65.8665  -14.1477 C   0  0  0  0  0  0  0  0  0  0  0  0
   -2.1467  -66.6791  -13.6485 C   0  0  0  0  0  0  0  0  0  0  0  0
   -2.0857  -68.3109  -14.2405 Cl  0  0  0  0  0  0  0  0  0  0  0  0
   -1.2265  -66.2296  -12.6909 C   0  0  0  0  0  0  0  0  0  0  0  0
   -0.2585  -67.0688  -12.2510 N   0  0  0  0  0  0  0  0  0  0  0  0
    0.6013  -66.6558  -11.3028 C   0  0  0  0  0  0  0  0  0  0  0  0
    0.5585  -65.4046  -10.7448 C   0  0  0  0  0  0  0  0  0  0  0  0
   -0.4238  -64.5336  -11.1957 C   0  0  0  0  0  0  0  0  0  0  0  0
   -1.3547  -64.9032  -12.1965 C   0  0  0  0  0  0  0  0  0  0  0  0
  1  2  1  0
  2  3  1  0
  3  4  1  6
  3  5  1  0
  5  6  1  0
  6  7  1  0
  7  8  2  0
  7  9  1  0
  9 10  2  0
 10 11  1  0
 11 12  2  0
 12 13  1  0
 13 14  2  0
  6 15  1  0
 15 16  2  0
 16 17  1  0
 17 18  2  0
 18 19  1  0
 18 20  1  0
 20 21  2  0
 21 22  1  0
 22 23  2  0
 23 24  1  0
 24 25  2  0
 14  9  1  0
 25 15  1  0
 25 20  1  0
M  END
>  <smiles>  (170) 
CCC(C)CN(C(=O)c1ccncc1)c1ccc(Cl)c2ncccc12

>  <inchikey>  (170) 
MQPOSJGPAYCGKM-UHFFFAOYSA-N

$$$$
NJHLMNILFCTRDX-UHFFFAOYSA-N-P446140-P446140-541666
     RDKit          3D

 25 27  0  0  0  0  0  0  0  0999 V2000
   -2.6848  -61.9350  -14.9011 C   0  0  0  0  0  0  0  0  0  0  0  0
   -1.9192  -62.2009  -13.5843 C   0  0  2  0  0  0  0  0  0  0  0  0
   -0.4145  -62.4798  -13.8506 C   0  0  0  0  0  0  0  0  0  0  0  0
    0.5234  -62.1080  -13.1624 O   0  0  0  0  0  0  0  0  0  0  0  0
   -0.1914  -63.2411  -14.9433 O   0  0  0  0  0  0  0  0  0  0  0  0
   -2.9130  -62.7115  -12.3763 N   0  0  0  0  0  0  0  0  0  0  0  0
   -2.6209  -61.9845  -11.0803 C   0  0  0  0  0  0  0  0  0  0  0  0
   -1.8807  -62.2544  -10.2057 O   0  0  0  0  0  0  0  0  0  0  0  0
   -3.4339  -60.7311  -10.9547 C   0  0  0  0  0  0  0  0  0  0  0  0
   -3.1174  -59.8577   -9.9123 C   0  0  0  0  0  0  0  0  0  0  0  0
   -3.8318  -58.6837   -9.7981 C   0  0  0  0  0  0  0  0  0  0  0  0
   -4.8322  -58.3307  -10.6346 N   0  0  0  0  0  0  0  0  0  0  0  0
   -5.1370  -59.2059  -11.6246 C   0  0  0  0  0  0  0  0  0  0  0  0
   -4.4727  -60.4031  -11.8261 C   0  0  0  0  0  0  0  0  0  0  0  0
   -2.4280  -64.0315  -12.8831 C   0  0  0  0  0  0  0  0  0  0  0  0
   -3.3936  -64.6600  -13.6988 C   0  0  0  0  0  0  0  0  0  0  0  0
   -3.2585  -65.9772  -14.1038 C   0  0  0  0  0  0  0  0  0  0  0  0
   -2.1795  -66.7253  -13.6498 C   0  0  0  0  0  0  0  0  0  0  0  0
   -2.0935  -68.3761  -14.1812 Cl  0  0  0  0  0  0  0  0  0  0  0  0
   -1.2274  -66.2001  -12.7707 C   0  0  0  0  0  0  0  0  0  0  0  0
   -0.2259  -67.0036  -12.3388 N   0  0  0  0  0  0  0  0  0  0  0  0
    0.6744  -66.5342  -11.4589 C   0  0  0  0  0  0  0  0  0  0  0  0
    0.6483  -65.2522  -10.9812 C   0  0  0  0  0  0  0  0  0  0  0  0
   -0.3654  -64.4171  -11.4351 C   0  0  0  0  0  0  0  0  0  0  0  0
   -1.3599  -64.8461  -12.3466 C   0  0  0  0  0  0  0  0  0  0  0  0
  2  1  1  6
  2  3  1  0
  3  4  2  0
  3  5  1  0
  2  6  1  0
  6  7  1  0
  7  8  2  0
  7  9  1  0
  9 10  2  0
 10 11  1  0
 11 12  2  0
 12 13  1  0
 13 14  2  0
  6 15  1  0
 15 16  2  0
 16 17  1  0
 17 18  2  0
 18 19  1  0
 18 20  1  0
 20 21  2  0
 21 22  1  0
 22 23  2  0
 23 24  1  0
 24 25  2  0
 14  9  1  0
 25 15  1  0
 25 20  1  0
M  END
>  <smiles>  (171) 
CC(C(=O)O)N(C(=O)c1ccncc1)c1ccc(Cl)c2ncccc12

>  <inchikey>  (171) 
NJHLMNILFCTRDX-UHFFFAOYSA-N

$$$$
MQDUAPXCHOKKMV-UHFFFAOYSA-N-P446140-P446140-541666
     RDKit          3D

 25 27  0  0  0  0  0  0  0  0999 V2000
   -0.7491  -60.9691  -15.5598 C   0  0  0  0  0  0  0  0  0  0  0  0
   -0.6868  -61.8598  -14.2805 C   0  0  0  0  0  0  0  0  0  0  0  0
    0.1940  -63.0578  -14.6763 C   0  0  0  0  0  0  0  0  0  0  0  0
    0.0154  -61.0166  -13.2131 C   0  0  0  0  0  0  0  0  0  0  0  0
   -2.1875  -62.2515  -13.9670 C   0  0  0  0  0  0  0  0  0  0  0  0
   -2.8721  -62.6688  -12.5358 N   0  0  0  0  0  0  0  0  0  0  0  0
   -2.3902  -61.7720  -11.4129 C   0  0  0  0  0  0  0  0  0  0  0  0
   -1.4702  -61.8876  -10.6864 O   0  0  0  0  0  0  0  0  0  0  0  0
   -3.3098  -60.6098  -11.1825 C   0  0  0  0  0  0  0  0  0  0  0  0
   -3.0098  -59.7596  -10.1134 C   0  0  0  0  0  0  0  0  0  0  0  0
   -3.8188  -58.6665   -9.8888 C   0  0  0  0  0  0  0  0  0  0  0  0
   -4.8936  -58.3656  -10.6473 N   0  0  0  0  0  0  0  0  0  0  0  0
   -5.1820  -59.2188  -11.6623 C   0  0  0  0  0  0  0  0  0  0  0  0
   -4.4313  -60.3421  -11.9665 C   0  0  0  0  0  0  0  0  0  0  0  0
   -2.3846  -64.0180  -12.9915 C   0  0  0  0  0  0  0  0  0  0  0  0
   -3.3830  -64.6879  -13.7504 C   0  0  0  0  0  0  0  0  0  0  0  0
   -3.2702  -66.0172  -14.1150 C   0  0  0  0  0  0  0  0  0  0  0  0
   -2.1872  -66.7534  -13.6624 C   0  0  0  0  0  0  0  0  0  0  0  0
   -2.1171  -68.4187  -14.1505 Cl  0  0  0  0  0  0  0  0  0  0  0  0
   -1.2241  -66.2068  -12.8119 C   0  0  0  0  0  0  0  0  0  0  0  0
   -0.2432  -67.0243  -12.3606 N   0  0  0  0  0  0  0  0  0  0  0  0
    0.6667  -66.5611  -11.4909 C   0  0  0  0  0  0  0  0  0  0  0  0
    0.6662  -65.2710  -11.0411 C   0  0  0  0  0  0  0  0  0  0  0  0
   -0.3254  -64.4214  -11.5221 C   0  0  0  0  0  0  0  0  0  0  0  0
   -1.3289  -64.8333  -12.4314 C   0  0  0  0  0  0  0  0  0  0  0  0
  1  2  1  0
  2  3  1  0
  2  4  1  0
  2  5  1  0
  5  6  1  0
  6  7  1  0
  7  8  2  0
  7  9  1  0
  9 10  2  0
 10 11  1  0
 11 12  2  0
 12 13  1  0
 13 14  2  0
  6 15  1  0
 15 16  2  0
 16 17  1  0
 17 18  2  0
 18 19  1  0
 18 20  1  0
 20 21  2  0
 21 22  1  0
 22 23  2  0
 23 24  1  0
 24 25  2  0
 14  9  1  0
 25 15  1  0
 25 20  1  0
M  END
>  <smiles>  (172) 
CC(C)(C)CN(C(=O)c1ccncc1)c1ccc(Cl)c2ncccc12

>  <inchikey>  (172) 
MQDUAPXCHOKKMV-UHFFFAOYSA-N

$$$$
XBUGEKVNQMINAB-UHFFFAOYSA-N-P446140-P446140-541666
     RDKit          3D

 25 27  0  0  0  0  0  0  0  0999 V2000
   -1.0398  -63.0243  -15.4321 C   0  0  0  0  0  0  0  0  0  0  0  0
   -1.7112  -61.9509  -14.5735 C   0  0  0  0  0  0  0  0  0  0  0  0
   -3.1351  -61.6212  -15.0060 C   0  0  0  0  0  0  0  0  0  0  0  0
   -1.5621  -62.1181  -13.0236 C   0  0  2  0  0  0  0  0  0  0  0  0
   -0.0910  -62.1102  -12.5413 C   0  0  0  0  0  0  0  0  0  0  0  0
   -2.8035  -62.6776  -12.0839 N   0  0  0  0  0  0  0  0  0  0  0  0
   -2.7424  -62.0914  -10.6878 C   0  0  0  0  0  0  0  0  0  0  0  0
   -2.2027  -62.4858   -9.7192 O   0  0  0  0  0  0  0  0  0  0  0  0
   -3.4903  -60.7921  -10.6379 C   0  0  0  0  0  0  0  0  0  0  0  0
   -4.4747  -60.4595  -11.5713 C   0  0  0  0  0  0  0  0  0  0  0  0
   -5.0754  -59.2182  -11.4781 C   0  0  0  0  0  0  0  0  0  0  0  0
   -4.7571  -58.3018  -10.5328 N   0  0  0  0  0  0  0  0  0  0  0  0
   -3.8123  -58.6610   -9.6320 C   0  0  0  0  0  0  0  0  0  0  0  0
   -3.1644  -59.8809   -9.6368 C   0  0  0  0  0  0  0  0  0  0  0  0
   -2.2850  -63.9749  -12.6200 C   0  0  0  0  0  0  0  0  0  0  0  0
   -3.2266  -64.5271  -13.5267 C   0  0  0  0  0  0  0  0  0  0  0  0
   -3.1214  -65.8184  -14.0224 C   0  0  0  0  0  0  0  0  0  0  0  0
   -2.0761  -66.6207  -13.5915 C   0  0  0  0  0  0  0  0  0  0  0  0
   -2.0059  -68.2303  -14.2407 Cl  0  0  0  0  0  0  0  0  0  0  0  0
   -1.1666  -66.1893  -12.6205 C   0  0  0  0  0  0  0  0  0  0  0  0
   -0.2032  -67.0478  -12.2130 N   0  0  0  0  0  0  0  0  0  0  0  0
    0.6022  -66.7100  -11.1934 C   0  0  0  0  0  0  0  0  0  0  0  0
    0.4911  -65.5242  -10.5189 C   0  0  0  0  0  0  0  0  0  0  0  0
   -0.4813  -64.6288  -10.9465 C   0  0  0  0  0  0  0  0  0  0  0  0
   -1.3230  -64.8873  -12.0546 C   0  0  0  0  0  0  0  0  0  0  0  0
  1  2  1  0
  2  3  1  0
  2  4  1  0
  4  5  1  6
  4  6  1  0
  6  7  1  0
  7  8  2  0
  7  9  1  0
  9 10  2  0
 10 11  1  0
 11 12  2  0
 12 13  1  0
 13 14  2  0
  6 15  1  0
 15 16  2  0
 16 17  1  0
 17 18  2  0
 18 19  1  0
 18 20  1  0
 20 21  2  0
 21 22  1  0
 22 23  2  0
 23 24  1  0
 24 25  2  0
 14  9  1  0
 25 15  1  0
 25 20  1  0
M  END
>  <smiles>  (173) 
CC(C)C(C)N(C(=O)c1ccncc1)c1ccc(Cl)c2ncccc12

>  <inchikey>  (173) 
XBUGEKVNQMINAB-UHFFFAOYSA-N

$$$$
GGWHAPFKUFWIII-UHFFFAOYSA-N-P446140-P446140-541666
     RDKit          3D

 25 27  0  0  0  0  0  0  0  0999 V2000
   -3.1847  -61.2563   -8.2427 C   0  0  0  0  0  0  0  0  0  0  0  0
   -3.7260  -61.8578   -9.5294 C   0  0  1  0  0  0  0  0  0  0  0  0
   -3.8315  -60.7844  -10.4827 N   0  0  0  0  0  0  0  0  0  0  0  0
   -2.7445  -59.9338  -11.1485 C   0  0  0  0  0  0  0  0  0  0  0  0
   -1.5862  -60.0134  -11.0934 O   0  0  0  0  0  0  0  0  0  0  0  0
   -3.3167  -58.7818  -11.8927 C   0  0  0  0  0  0  0  0  0  0  0  0
   -2.5439  -57.6198  -11.9031 C   0  0  0  0  0  0  0  0  0  0  0  0
   -3.0243  -56.5165  -12.5722 C   0  0  0  0  0  0  0  0  0  0  0  0
   -4.2240  -56.4983  -13.1805 N   0  0  0  0  0  0  0  0  0  0  0  0
   -4.9828  -57.6094  -13.0910 C   0  0  0  0  0  0  0  0  0  0  0  0
   -4.5663  -58.7851  -12.5013 C   0  0  0  0  0  0  0  0  0  0  0  0
   -2.8300  -63.0383   -9.9800 C   0  0  0  0  0  0  0  0  0  0  0  0
   -2.2026  -63.6667   -9.2152 O   0  0  0  0  0  0  0  0  0  0  0  0
   -3.0388  -63.2296  -11.5176 N   0  0  0  0  0  0  0  0  0  0  0  0
   -2.6091  -64.2520  -12.3727 C   0  0  0  0  0  0  0  0  0  0  0  0
   -3.4871  -64.6221  -13.3910 C   0  0  0  0  0  0  0  0  0  0  0  0
   -3.2845  -65.8220  -14.0616 C   0  0  0  0  0  0  0  0  0  0  0  0
   -2.1869  -66.6253  -13.7373 C   0  0  0  0  0  0  0  0  0  0  0  0
   -2.0813  -68.1796  -14.5003 Cl  0  0  0  0  0  0  0  0  0  0  0  0
   -1.2081  -66.2149  -12.8236 C   0  0  0  0  0  0  0  0  0  0  0  0
   -0.1108  -66.9761  -12.5895 N   0  0  0  0  0  0  0  0  0  0  0  0
    0.8360  -66.5262  -11.7424 C   0  0  0  0  0  0  0  0  0  0  0  0
    0.7670  -65.3116  -11.1053 C   0  0  0  0  0  0  0  0  0  0  0  0
   -0.3612  -64.5361  -11.3264 C   0  0  0  0  0  0  0  0  0  0  0  0
   -1.4101  -64.9840  -12.1574 C   0  0  0  0  0  0  0  0  0  0  0  0
  2  1  1  1
  2  3  1  0
  3  4  1  0
  4  5  2  0
  4  6  1  0
  6  7  2  0
  7  8  1  0
  8  9  2  0
  9 10  1  0
 10 11  2  0
  2 12  1  0
 12 13  2  0
 12 14  1  0
 14 15  1  0
 15 16  2  0
 16 17  1  0
 17 18  2  0
 18 19  1  0
 18 20  1  0
 20 21  2  0
 21 22  1  0
 22 23  2  0
 23 24  1  0
 24 25  2  0
 11  6  1  0
 25 15  1  0
 25 20  1  0
M  END
>  <smiles>  (174) 
CC(NC(=O)c1ccncc1)C(=O)Nc1ccc(Cl)c2ncccc12

>  <inchikey>  (174) 
GGWHAPFKUFWIII-UHFFFAOYSA-N

$$$$
YABJSFXWDHXVSH-UHFFFAOYSA-N-P446140-P446140-541666
     RDKit          3D

 25 27  0  0  0  0  0  0  0  0999 V2000
    1.0612  -60.0094  -16.4660 C   0  0  0  0  0  0  0  0  0  0  0  0
   -0.1376  -60.4907  -15.6634 C   0  0  0  0  0  0  0  0  0  0  0  0
    0.2273  -60.6606  -14.1894 C   0  0  0  0  0  0  0  0  0  0  0  0
   -0.9683  -61.0352  -13.3110 C   0  0  0  0  0  0  0  0  0  0  0  0
   -1.5321  -62.4471  -13.5981 C   0  0  0  0  0  0  0  0  0  0  0  0
   -2.5469  -62.8333  -12.3810 N   0  0  0  0  0  0  0  0  0  0  0  0
   -3.8297  -62.0665  -12.4785 C   0  0  0  0  0  0  0  0  0  0  0  0
   -4.8313  -62.3311  -13.0257 O   0  0  0  0  0  0  0  0  0  0  0  0
   -3.8552  -60.7553  -11.8068 C   0  0  0  0  0  0  0  0  0  0  0  0
   -3.4176  -60.5102  -10.5150 C   0  0  0  0  0  0  0  0  0  0  0  0
   -3.6880  -59.2504   -9.9947 C   0  0  0  0  0  0  0  0  0  0  0  0
   -4.3323  -58.2577  -10.6673 N   0  0  0  0  0  0  0  0  0  0  0  0
   -4.7122  -58.5405  -11.9328 C   0  0  0  0  0  0  0  0  0  0  0  0
   -4.5085  -59.7567  -12.5252 C   0  0  0  0  0  0  0  0  0  0  0  0
   -2.1962  -64.1863  -12.8574 C   0  0  0  0  0  0  0  0  0  0  0  0
   -3.1164  -64.8246  -13.7161 C   0  0  0  0  0  0  0  0  0  0  0  0
   -2.9590  -66.1577  -14.0550 C   0  0  0  0  0  0  0  0  0  0  0  0
   -1.8990  -66.8796  -13.5106 C   0  0  0  0  0  0  0  0  0  0  0  0
   -1.7839  -68.5492  -13.9654 Cl  0  0  0  0  0  0  0  0  0  0  0  0
   -0.9877  -66.3094  -12.6046 C   0  0  0  0  0  0  0  0  0  0  0  0
    0.0158  -67.0425  -12.0695 N   0  0  0  0  0  0  0  0  0  0  0  0
    0.8338  -66.4783  -11.1578 C   0  0  0  0  0  0  0  0  0  0  0  0
    0.7129  -65.1776  -10.7235 C   0  0  0  0  0  0  0  0  0  0  0  0
   -0.3023  -64.4088  -11.2702 C   0  0  0  0  0  0  0  0  0  0  0  0
   -1.1665  -64.9498  -12.2433 C   0  0  0  0  0  0  0  0  0  0  0  0
  1  2  1  0
  2  3  1  0
  3  4  1  0
  4  5  1  0
  5  6  1  0
  6  7  1  0
  7  8  2  0
  7  9  1  0
  9 10  2  0
 10 11  1  0
 11 12  2  0
 12 13  1  0
 13 14  2  0
  6 15  1  0
 15 16  2  0
 16 17  1  0
 17 18  2  0
 18 19  1  0
 18 20  1  0
 20 21  2  0
 21 22  1  0
 22 23  2  0
 23 24  1  0
 24 25  2  0
 14  9  1  0
 25 15  1  0
 25 20  1  0
M  END
>  <smiles>  (175) 
CCCCCN(C(=O)c1ccncc1)c1ccc(Cl)c2ncccc12

>  <inchikey>  (175) 
YABJSFXWDHXVSH-UHFFFAOYSA-N

$$$$
QJQVPSTXQYLQHV-UHFFFAOYSA-N-P446140-P446140-541666
     RDKit          3D

 25 27  0  0  0  0  0  0  0  0999 V2000
   -1.3031  -63.9875   -8.9905 O   0  0  0  0  0  0  0  0  0  0  0  0
   -1.9003  -63.2331   -9.6608 C   0  0  0  0  0  0  0  0  0  0  0  0
   -2.1986  -61.8366   -9.1439 C   0  0  0  0  0  0  0  0  0  0  0  0
   -3.6526  -61.4190   -9.1591 C   0  0  0  0  0  0  0  0  0  0  0  0
   -3.8562  -60.4378  -10.1950 N   0  0  0  0  0  0  0  0  0  0  0  0
   -4.1666  -60.6122  -11.6792 C   0  0  0  0  0  0  0  0  0  0  0  0
   -4.3844  -61.5701  -12.2936 O   0  0  0  0  0  0  0  0  0  0  0  0
   -4.0575  -59.3223  -12.3620 C   0  0  0  0  0  0  0  0  0  0  0  0
   -2.7945  -58.9316  -12.7871 C   0  0  0  0  0  0  0  0  0  0  0  0
   -2.6859  -57.7071  -13.4125 C   0  0  0  0  0  0  0  0  0  0  0  0
   -3.7381  -56.8889  -13.6254 N   0  0  0  0  0  0  0  0  0  0  0  0
   -4.9527  -57.3219  -13.2060 C   0  0  0  0  0  0  0  0  0  0  0  0
   -5.1689  -58.5286  -12.5707 C   0  0  0  0  0  0  0  0  0  0  0  0
   -2.4046  -63.3677  -11.1351 N   0  0  0  0  0  0  0  0  0  0  0  0
   -2.1991  -64.3838  -12.0769 C   0  0  0  0  0  0  0  0  0  0  0  0
   -3.2128  -64.6023  -13.0159 C   0  0  0  0  0  0  0  0  0  0  0  0
   -3.1918  -65.7555  -13.7948 C   0  0  0  0  0  0  0  0  0  0  0  0
   -2.1446  -66.6692  -13.6441 C   0  0  0  0  0  0  0  0  0  0  0  0
   -2.2373  -68.1589  -14.5252 Cl  0  0  0  0  0  0  0  0  0  0  0  0
   -1.0482  -66.4157  -12.8098 C   0  0  0  0  0  0  0  0  0  0  0  0
   -0.0080  -67.2821  -12.7418 N   0  0  0  0  0  0  0  0  0  0  0  0
    1.0623  -66.9732  -11.9842 C   0  0  0  0  0  0  0  0  0  0  0  0
    1.1841  -65.7972  -11.2885 C   0  0  0  0  0  0  0  0  0  0  0  0
    0.1188  -64.9153  -11.3416 C   0  0  0  0  0  0  0  0  0  0  0  0
   -1.0592  -65.2241  -12.0534 C   0  0  0  0  0  0  0  0  0  0  0  0
  1  2  2  0
  2  3  1  0
  3  4  1  0
  4  5  1  0
  5  6  1  0
  6  7  2  0
  6  8  1  0
  8  9  2  0
  9 10  1  0
 10 11  2  0
 11 12  1  0
 12 13  2  0
  2 14  1  0
 14 15  1  0
 15 16  2  0
 16 17  1  0
 17 18  2  0
 18 19  1  0
 18 20  1  0
 20 21  2  0
 21 22  1  0
 22 23  2  0
 23 24  1  0
 24 25  2  0
 13  8  1  0
 25 15  1  0
 25 20  1  0
M  END
>  <smiles>  (176) 
O=C(CCNC(=O)c1ccncc1)Nc1ccc(Cl)c2ncccc12

>  <inchikey>  (176) 
QJQVPSTXQYLQHV-UHFFFAOYSA-N

$$$$
WVQJUZHBPHWYSL-UHFFFAOYSA-N-P446140-P446140-541666
     RDKit          3D

 25 27  0  0  0  0  0  0  0  0999 V2000
   -1.3089  -59.5291  -14.7852 C   0  0  0  0  0  0  0  0  0  0  0  0
   -0.4493  -60.7273  -14.3747 C   0  0  0  0  0  0  0  0  0  0  0  0
    1.0067  -60.4622  -14.7683 C   0  0  0  0  0  0  0  0  0  0  0  0
   -0.9328  -62.0389  -15.0224 C   0  0  0  0  0  0  0  0  0  0  0  0
   -2.2674  -62.5850  -14.4652 C   0  0  0  0  0  0  0  0  0  0  0  0
   -2.2816  -62.8778  -12.8655 N   0  0  0  0  0  0  0  0  0  0  0  0
   -3.5009  -62.4426  -12.2971 C   0  0  0  0  0  0  0  0  0  0  0  0
   -4.5331  -63.0270  -12.1263 O   0  0  0  0  0  0  0  0  0  0  0  0
   -3.5579  -61.0067  -11.9403 C   0  0  0  0  0  0  0  0  0  0  0  0
   -4.6446  -60.2837  -12.4329 C   0  0  0  0  0  0  0  0  0  0  0  0
   -4.8264  -58.9870  -12.0040 C   0  0  0  0  0  0  0  0  0  0  0  0
   -4.0077  -58.3751  -11.1204 N   0  0  0  0  0  0  0  0  0  0  0  0
   -2.9483  -59.1015  -10.6755 C   0  0  0  0  0  0  0  0  0  0  0  0
   -2.6757  -60.4106  -11.0513 C   0  0  0  0  0  0  0  0  0  0  0  0
   -1.8569  -64.2183  -13.3295 C   0  0  0  0  0  0  0  0  0  0  0  0
   -2.8632  -65.1525  -13.6811 C   0  0  0  0  0  0  0  0  0  0  0  0
   -2.5544  -66.4778  -13.9324 C   0  0  0  0  0  0  0  0  0  0  0  0
   -1.2494  -66.9177  -13.7319 C   0  0  0  0  0  0  0  0  0  0  0  0
   -0.9406  -68.5942  -14.0516 Cl  0  0  0  0  0  0  0  0  0  0  0  0
   -0.2402  -66.0714  -13.2447 C   0  0  0  0  0  0  0  0  0  0  0  0
    0.9925  -66.5574  -12.9669 N   0  0  0  0  0  0  0  0  0  0  0  0
    1.9137  -65.7457  -12.4106 C   0  0  0  0  0  0  0  0  0  0  0  0
    1.6809  -64.4234  -12.1099 C   0  0  0  0  0  0  0  0  0  0  0  0
    0.4315  -63.9034  -12.4161 C   0  0  0  0  0  0  0  0  0  0  0  0
   -0.5613  -64.7077  -13.0126 C   0  0  0  0  0  0  0  0  0  0  0  0
  1  2  1  0
  2  3  1  0
  2  4  1  0
  4  5  1  0
  5  6  1  0
  6  7  1  0
  7  8  2  0
  7  9  1  0
  9 10  2  0
 10 11  1  0
 11 12  2  0
 12 13  1  0
 13 14  2  0
  6 15  1  0
 15 16  2  0
 16 17  1  0
 17 18  2  0
 18 19  1  0
 18 20  1  0
 20 21  2  0
 21 22  1  0
 22 23  2  0
 23 24  1  0
 24 25  2  0
 14  9  1  0
 25 15  1  0
 25 20  1  0
M  END
>  <smiles>  (177) 
CC(C)CCN(C(=O)c1ccncc1)c1ccc(Cl)c2ncccc12

>  <inchikey>  (177) 
WVQJUZHBPHWYSL-UHFFFAOYSA-N

$$$$
RUZLTHCMKXXLTN-UHFFFAOYSA-N-P446140-P446140-541666
     RDKit          3D

 25 27  0  0  0  0  0  0  0  0999 V2000
   -0.0354  -58.7069  -15.2814 C   0  0  0  0  0  0  0  0  0  0  0  0
   -0.7582  -59.8312  -15.3584 C   0  0  0  0  0  0  0  0  0  0  0  0
   -0.1966  -61.2081  -15.1504 C   0  0  0  0  0  0  0  0  0  0  0  0
   -0.6712  -61.8879  -13.8573 C   0  0  0  0  0  0  0  0  0  0  0  0
   -2.1692  -62.2629  -13.8964 C   0  0  0  0  0  0  0  0  0  0  0  0
   -2.9172  -62.7006  -12.5194 N   0  0  0  0  0  0  0  0  0  0  0  0
   -2.4678  -61.8427  -11.3519 C   0  0  0  0  0  0  0  0  0  0  0  0
   -1.5822  -61.9957  -10.5896 O   0  0  0  0  0  0  0  0  0  0  0  0
   -3.3531  -60.6500  -11.1505 C   0  0  0  0  0  0  0  0  0  0  0  0
   -4.4519  -60.3582  -11.9572 C   0  0  0  0  0  0  0  0  0  0  0  0
   -5.1779  -59.2134  -11.6742 C   0  0  0  0  0  0  0  0  0  0  0  0
   -4.8837  -58.3586  -10.6624 N   0  0  0  0  0  0  0  0  0  0  0  0
   -3.8283  -58.6800   -9.8849 C   0  0  0  0  0  0  0  0  0  0  0  0
   -3.0466  -59.7975  -10.0851 C   0  0  0  0  0  0  0  0  0  0  0  0
   -2.4359  -64.0449  -12.9892 C   0  0  0  0  0  0  0  0  0  0  0  0
   -3.4368  -64.7205  -13.7300 C   0  0  0  0  0  0  0  0  0  0  0  0
   -3.3061  -66.0513  -14.0841 C   0  0  0  0  0  0  0  0  0  0  0  0
   -2.2017  -66.7691  -13.6449 C   0  0  0  0  0  0  0  0  0  0  0  0
   -2.1217  -68.4402  -14.1105 Cl  0  0  0  0  0  0  0  0  0  0  0  0
   -1.2159  -66.1976  -12.8352 C   0  0  0  0  0  0  0  0  0  0  0  0
   -0.2031  -66.9853  -12.4005 N   0  0  0  0  0  0  0  0  0  0  0  0
    0.7412  -66.4761  -11.5935 C   0  0  0  0  0  0  0  0  0  0  0  0
    0.7526  -65.1660  -11.2010 C   0  0  0  0  0  0  0  0  0  0  0  0
   -0.2736  -64.3483  -11.6608 C   0  0  0  0  0  0  0  0  0  0  0  0
   -1.3256  -64.8204  -12.4831 C   0  0  0  0  0  0  0  0  0  0  0  0
  1  2  2  0
  2  3  1  0
  3  4  1  0
  4  5  1  0
  5  6  1  0
  6  7  1  0
  7  8  2  0
  7  9  1  0
  9 10  2  0
 10 11  1  0
 11 12  2  0
 12 13  1  0
 13 14  2  0
  6 15  1  0
 15 16  2  0
 16 17  1  0
 17 18  2  0
 18 19  1  0
 18 20  1  0
 20 21  2  0
 21 22  1  0
 22 23  2  0
 23 24  1  0
 24 25  2  0
 14  9  1  0
 25 15  1  0
 25 20  1  0
M  END
>  <smiles>  (178) 
C=CCCCN(C(=O)c1ccncc1)c1ccc(Cl)c2ncccc12

>  <inchikey>  (178) 
RUZLTHCMKXXLTN-UHFFFAOYSA-N

$$$$
IPQOCXQEVDPPSZ-UHFFFAOYSA-N-P446140-P446140-541666
     RDKit          3D

 25 27  0  0  0  0  0  0  0  0999 V2000
   -4.4997  -60.7936  -13.0559 C   0  0  0  0  0  0  0  0  0  0  0  0
   -3.7348  -59.9219  -12.1321 N   0  0  0  0  0  0  0  0  0  0  0  0
   -2.5542  -60.6264  -12.7990 C   0  0  0  0  0  0  0  0  0  0  0  0
   -2.1481  -62.0396  -12.2864 C   0  0  0  0  0  0  0  0  0  0  0  0
   -1.8235  -62.1851  -11.1405 O   0  0  0  0  0  0  0  0  0  0  0  0
   -2.2275  -62.9918  -13.3767 N   0  0  0  0  0  0  0  0  0  0  0  0
   -2.0394  -64.3800  -13.4001 C   0  0  0  0  0  0  0  0  0  0  0  0
   -2.8886  -65.0543  -14.2837 C   0  0  0  0  0  0  0  0  0  0  0  0
   -2.8538  -66.4363  -14.3604 C   0  0  0  0  0  0  0  0  0  0  0  0
   -1.9442  -67.1509  -13.5836 C   0  0  0  0  0  0  0  0  0  0  0  0
   -1.9566  -68.8763  -13.7606 Cl  0  0  0  0  0  0  0  0  0  0  0  0
   -1.0469  -66.5197  -12.7135 C   0  0  0  0  0  0  0  0  0  0  0  0
   -0.1663  -67.2599  -11.9976 N   0  0  0  0  0  0  0  0  0  0  0  0
    0.7215  -66.6433  -11.1964 C   0  0  0  0  0  0  0  0  0  0  0  0
    0.8042  -65.2787  -11.0764 C   0  0  0  0  0  0  0  0  0  0  0  0
   -0.0952  -64.5115  -11.8068 C   0  0  0  0  0  0  0  0  0  0  0  0
   -1.0841  -65.1033  -12.6258 C   0  0  0  0  0  0  0  0  0  0  0  0
   -3.5328  -58.5217  -12.1366 C   0  0  0  0  0  0  0  0  0  0  0  0
   -3.8544  -57.6885  -12.9403 O   0  0  0  0  0  0  0  0  0  0  0  0
   -2.8941  -58.0487  -10.8591 C   0  0  0  0  0  0  0  0  0  0  0  0
   -2.7445  -58.8932   -9.7547 C   0  0  0  0  0  0  0  0  0  0  0  0
   -2.2013  -58.3675   -8.5983 C   0  0  0  0  0  0  0  0  0  0  0  0
   -1.8143  -57.0806   -8.4717 N   0  0  0  0  0  0  0  0  0  0  0  0
   -1.9722  -56.2833   -9.5497 C   0  0  0  0  0  0  0  0  0  0  0  0
   -2.5041  -56.7128  -10.7518 C   0  0  0  0  0  0  0  0  0  0  0  0
  1  2  1  0
  2  3  1  0
  3  4  1  0
  4  5  2  0
  4  6  1  0
  6  7  1  0
  7  8  2  0
  8  9  1  0
  9 10  2  0
 10 11  1  0
 10 12  1  0
 12 13  2  0
 13 14  1  0
 14 15  2  0
 15 16  1  0
 16 17  2  0
  2 18  1  0
 18 19  2  0
 18 20  1  0
 20 21  2  0
 21 22  1  0
 22 23  2  0
 23 24  1  0
 24 25  2  0
 17  7  1  0
 25 20  1  0
 17 12  1  0
M  END
>  <smiles>  (179) 
CN(CC(=O)Nc1ccc(Cl)c2ncccc12)C(=O)c1ccncc1

>  <inchikey>  (179) 
IPQOCXQEVDPPSZ-UHFFFAOYSA-N

$$$$
AXJONMNTJSPZHC-UHFFFAOYSA-N-P446140-P446140-541666
     RDKit          3D

 25 27  0  0  0  0  0  0  0  0999 V2000
   -0.8870  -57.6616  -13.0694 C   0  0  0  0  0  0  0  0  0  0  0  0
   -1.4483  -59.0295  -14.1116 S   0  0  0  0  0  0  0  0  0  0  0  0
   -0.4762  -60.3716  -13.3505 C   0  0  0  0  0  0  0  0  0  0  0  0
   -0.7877  -61.7561  -13.9285 C   0  0  0  0  0  0  0  0  0  0  0  0
   -2.2521  -62.2586  -13.8945 C   0  0  0  0  0  0  0  0  0  0  0  0
   -2.9633  -62.7148  -12.4922 N   0  0  0  0  0  0  0  0  0  0  0  0
   -2.5064  -61.8498  -11.3373 C   0  0  0  0  0  0  0  0  0  0  0  0
   -1.6009  -61.9843  -10.5956 O   0  0  0  0  0  0  0  0  0  0  0  0
   -3.4019  -60.6678  -11.1194 C   0  0  0  0  0  0  0  0  0  0  0  0
   -3.1060  -59.8342  -10.0358 C   0  0  0  0  0  0  0  0  0  0  0  0
   -3.8727  -58.7063   -9.8401 C   0  0  0  0  0  0  0  0  0  0  0  0
   -4.9028  -58.3581  -10.6386 N   0  0  0  0  0  0  0  0  0  0  0  0
   -5.1907  -59.1979  -11.6652 C   0  0  0  0  0  0  0  0  0  0  0  0
   -4.4799  -60.3524  -11.9435 C   0  0  0  0  0  0  0  0  0  0  0  0
   -2.4653  -64.0476  -12.9739 C   0  0  0  0  0  0  0  0  0  0  0  0
   -3.4701  -64.7376  -13.6977 C   0  0  0  0  0  0  0  0  0  0  0  0
   -3.3253  -66.0638  -14.0624 C   0  0  0  0  0  0  0  0  0  0  0  0
   -2.2016  -66.7654  -13.6482 C   0  0  0  0  0  0  0  0  0  0  0  0
   -2.1070  -68.4344  -14.1195 Cl  0  0  0  0  0  0  0  0  0  0  0  0
   -1.2101  -66.1815  -12.8544 C   0  0  0  0  0  0  0  0  0  0  0  0
   -0.1801  -66.9576  -12.4402 N   0  0  0  0  0  0  0  0  0  0  0  0
    0.7684  -66.4420  -11.6429 C   0  0  0  0  0  0  0  0  0  0  0  0
    0.7654  -65.1356  -11.2387 C   0  0  0  0  0  0  0  0  0  0  0  0
   -0.2788  -64.3287  -11.6776 C   0  0  0  0  0  0  0  0  0  0  0  0
   -1.3337  -64.8073  -12.4924 C   0  0  0  0  0  0  0  0  0  0  0  0
  1  2  1  0
  2  3  1  0
  3  4  1  0
  4  5  1  0
  5  6  1  0
  6  7  1  0
  7  8  2  0
  7  9  1  0
  9 10  2  0
 10 11  1  0
 11 12  2  0
 12 13  1  0
 13 14  2  0
  6 15  1  0
 15 16  2  0
 16 17  1  0
 17 18  2  0
 18 19  1  0
 18 20  1  0
 20 21  2  0
 21 22  1  0
 22 23  2  0
 23 24  1  0
 24 25  2  0
 14  9  1  0
 25 15  1  0
 25 20  1  0
M  END
>  <smiles>  (180) 
CSCCCN(C(=O)c1ccncc1)c1ccc(Cl)c2ncccc12

>  <inchikey>  (180) 
AXJONMNTJSPZHC-UHFFFAOYSA-N

$$$$
NQYPRWREFOIISC-UHFFFAOYSA-N-P446140-P446140-541666
     RDKit          3D

 25 27  0  0  0  0  0  0  0  0999 V2000
   -0.2623  -62.0063  -13.2018 C   0  0  0  0  0  0  0  0  0  0  0  0
   -1.7357  -62.2218  -13.6126 C   0  0  1  0  0  0  0  0  0  0  0  0
   -1.8526  -62.6110  -15.1140 C   0  0  0  0  0  0  0  0  0  0  0  0
   -1.1253  -61.7389  -15.8662 F   0  0  0  0  0  0  0  0  0  0  0  0
   -3.1318  -62.4921  -15.5432 F   0  0  0  0  0  0  0  0  0  0  0  0
   -2.8300  -62.7076  -12.4347 N   0  0  0  0  0  0  0  0  0  0  0  0
   -2.5938  -61.9752  -11.1304 C   0  0  0  0  0  0  0  0  0  0  0  0
   -1.9103  -62.2541  -10.2129 O   0  0  0  0  0  0  0  0  0  0  0  0
   -3.4073  -60.7216  -11.0328 C   0  0  0  0  0  0  0  0  0  0  0  0
   -4.4072  -60.3791  -11.9427 C   0  0  0  0  0  0  0  0  0  0  0  0
   -5.0921  -59.1934  -11.7331 C   0  0  0  0  0  0  0  0  0  0  0  0
   -4.8396  -58.3426  -10.7055 N   0  0  0  0  0  0  0  0  0  0  0  0
   -3.8729  -58.7080   -9.8376 C   0  0  0  0  0  0  0  0  0  0  0  0
   -3.1446  -59.8722   -9.9538 C   0  0  0  0  0  0  0  0  0  0  0  0
   -2.3510  -64.0378  -12.9004 C   0  0  0  0  0  0  0  0  0  0  0  0
   -3.3363  -64.6584  -13.7057 C   0  0  0  0  0  0  0  0  0  0  0  0
   -3.2278  -65.9783  -14.1084 C   0  0  0  0  0  0  0  0  0  0  0  0
   -2.1564  -66.7395  -13.6613 C   0  0  0  0  0  0  0  0  0  0  0  0
   -2.0884  -68.3879  -14.2012 Cl  0  0  0  0  0  0  0  0  0  0  0  0
   -1.2020  -66.2297  -12.7753 C   0  0  0  0  0  0  0  0  0  0  0  0
   -0.2185  -67.0525  -12.3426 N   0  0  0  0  0  0  0  0  0  0  0  0
    0.6600  -66.6207  -11.4234 C   0  0  0  0  0  0  0  0  0  0  0  0
    0.6206  -65.3596  -10.8949 C   0  0  0  0  0  0  0  0  0  0  0  0
   -0.3699  -64.5003  -11.3555 C   0  0  0  0  0  0  0  0  0  0  0  0
   -1.3209  -64.8785  -12.3354 C   0  0  0  0  0  0  0  0  0  0  0  0
  2  1  1  1
  2  3  1  0
  3  4  1  0
  3  5  1  0
  2  6  1  0
  6  7  1  0
  7  8  2  0
  7  9  1  0
  9 10  2  0
 10 11  1  0
 11 12  2  0
 12 13  1  0
 13 14  2  0
  6 15  1  0
 15 16  2  0
 16 17  1  0
 17 18  2  0
 18 19  1  0
 18 20  1  0
 20 21  2  0
 21 22  1  0
 22 23  2  0
 23 24  1  0
 24 25  2  0
 14  9  1  0
 25 15  1  0
 25 20  1  0
M  END
>  <smiles>  (181) 
CC(C(F)F)N(C(=O)c1ccncc1)c1ccc(Cl)c2ncccc12

>  <inchikey>  (181) 
NQYPRWREFOIISC-UHFFFAOYSA-N

$$$$
CBMRSUJVLKEMPC-UHFFFAOYSA-N-P446140-P446140-541666
     RDKit          3D

 25 27  0  0  0  0  0  0  0  0999 V2000
    3.1437  -67.3249   -8.7688 C   0  0  0  0  0  0  0  0  0  0  0  0
    2.2475  -66.4939   -9.5069 O   0  0  0  0  0  0  0  0  0  0  0  0
    1.5013  -67.1635  -10.4196 C   0  0  0  0  0  0  0  0  0  0  0  0
    1.5454  -68.3686  -10.6361 O   0  0  0  0  0  0  0  0  0  0  0  0
    0.5715  -66.2583  -11.1716 C   0  0  0  0  0  0  0  0  0  0  0  0
    0.5090  -64.9476  -10.8977 C   0  0  0  0  0  0  0  0  0  0  0  0
   -0.4133  -64.1138  -11.7026 C   0  0  0  0  0  0  0  0  0  0  0  0
   -0.2033  -62.9087  -11.7925 O   0  0  0  0  0  0  0  0  0  0  0  0
   -1.4963  -64.8070  -12.4594 C   0  0  0  0  0  0  0  0  0  0  0  0
   -2.6065  -64.1294  -12.9907 C   0  0  0  0  0  0  0  0  0  0  0  0
   -3.0277  -62.8771  -12.5495 N   0  0  0  0  0  0  0  0  0  0  0  0
   -2.9995  -62.2467  -11.1331 C   0  0  0  0  0  0  0  0  0  0  0  0
   -2.5482  -62.6508  -10.1327 O   0  0  0  0  0  0  0  0  0  0  0  0
   -3.6263  -60.8805  -11.0814 C   0  0  0  0  0  0  0  0  0  0  0  0
   -4.6047  -60.4235  -11.9633 C   0  0  0  0  0  0  0  0  0  0  0  0
   -5.1365  -59.1594  -11.7519 C   0  0  0  0  0  0  0  0  0  0  0  0
   -4.7570  -58.3298  -10.7494 N   0  0  0  0  0  0  0  0  0  0  0  0
   -3.8036  -58.7953   -9.9143 C   0  0  0  0  0  0  0  0  0  0  0  0
   -3.2239  -60.0432  -10.0343 C   0  0  0  0  0  0  0  0  0  0  0  0
   -3.4087  -64.7680  -13.9370 C   0  0  0  0  0  0  0  0  0  0  0  0
   -3.1791  -66.1043  -14.2614 C   0  0  0  0  0  0  0  0  0  0  0  0
   -2.1401  -66.8078  -13.6553 C   0  0  0  0  0  0  0  0  0  0  0  0
   -1.9431  -68.4786  -14.0450 Cl  0  0  0  0  0  0  0  0  0  0  0  0
   -1.2847  -66.1726  -12.7449 C   0  0  0  0  0  0  0  0  0  0  0  0
   -0.1988  -66.8451  -12.1585 N   0  0  0  0  0  0  0  0  0  0  0  0
  1  2  1  0
  2  3  1  0
  3  4  2  0
  3  5  1  0
  5  6  2  0
  6  7  1  0
  7  8  2  0
  7  9  1  0
  9 10  2  0
 10 11  1  0
 11 12  1  0
 12 13  2  0
 12 14  1  0
 14 15  2  0
 15 16  1  0
 16 17  2  0
 17 18  1  0
 18 19  2  0
 10 20  1  0
 20 21  2  0
 21 22  1  0
 22 23  1  0
 22 24  2  0
 24 25  1  0
 25  5  1  0
 24  9  1  0
 19 14  1  0
M  END
>  <smiles>  (182) 
COC(=O)c1cc(=O)c2c(NC(=O)c3ccncc3)ccc(Cl)c2[nH]1

>  <inchikey>  (182) 
CBMRSUJVLKEMPC-UHFFFAOYSA-N

$$$$
LVUXOCBOSAZNTJ-UHFFFAOYSA-N-P446140-P446140-541666
     RDKit          3D

 25 28  0  0  0  0  0  0  0  0999 V2000
   -4.6656  -62.3538  -13.1261 O   0  0  0  0  0  0  0  0  0  0  0  0
   -3.8056  -62.1658  -12.3503 C   0  0  0  0  0  0  0  0  0  0  0  0
   -3.8948  -60.8516  -11.6707 C   0  0  0  0  0  0  0  0  0  0  0  0
   -4.5661  -59.8657  -12.3989 C   0  0  0  0  0  0  0  0  0  0  0  0
   -4.7786  -58.6390  -11.8319 C   0  0  0  0  0  0  0  0  0  0  0  0
   -4.3913  -58.3255  -10.5778 N   0  0  0  0  0  0  0  0  0  0  0  0
   -3.7302  -59.2996   -9.8933 C   0  0  0  0  0  0  0  0  0  0  0  0
   -3.4502  -60.5692  -10.3892 C   0  0  0  0  0  0  0  0  0  0  0  0
   -2.5959  -62.9938  -12.0202 N   0  0  0  0  0  0  0  0  0  0  0  0
   -1.3152  -62.5744  -12.9539 C   0  0  0  0  0  0  0  0  0  0  0  0
   -1.4760  -62.6154  -14.4760 C   0  0  0  0  0  0  0  0  0  0  0  0
   -2.2926  -61.4992  -15.1455 C   0  0  0  0  0  0  0  0  0  0  0  0
   -0.9841  -60.7489  -15.4420 C   0  0  0  0  0  0  0  0  0  0  0  0
   -0.2387  -62.0725  -15.2466 C   0  0  0  0  0  0  0  0  0  0  0  0
   -2.1809  -64.3406  -12.5027 C   0  0  0  0  0  0  0  0  0  0  0  0
   -3.0904  -64.9682  -13.3910 C   0  0  0  0  0  0  0  0  0  0  0  0
   -2.8904  -66.2619  -13.8405 C   0  0  0  0  0  0  0  0  0  0  0  0
   -1.8000  -66.9775  -13.3622 C   0  0  0  0  0  0  0  0  0  0  0  0
   -1.6236  -68.5975  -13.9529 Cl  0  0  0  0  0  0  0  0  0  0  0  0
   -0.9209  -66.4480  -12.4017 C   0  0  0  0  0  0  0  0  0  0  0  0
    0.1042  -67.1881  -11.9246 N   0  0  0  0  0  0  0  0  0  0  0  0
    0.8776  -66.6900  -10.9393 C   0  0  0  0  0  0  0  0  0  0  0  0
    0.6786  -65.4577  -10.3602 C   0  0  0  0  0  0  0  0  0  0  0  0
   -0.3611  -64.6813  -10.8439 C   0  0  0  0  0  0  0  0  0  0  0  0
   -1.1591  -65.1343  -11.9151 C   0  0  0  0  0  0  0  0  0  0  0  0
  1  2  2  0
  2  3  1  0
  3  4  2  0
  4  5  1  0
  5  6  2  0
  6  7  1  0
  7  8  2  0
  2  9  1  0
  9 10  1  0
 10 11  1  0
 11 12  1  0
 12 13  1  0
 13 14  1  0
  9 15  1  0
 15 16  2  0
 16 17  1  0
 17 18  2  0
 18 19  1  0
 18 20  1  0
 20 21  2  0
 21 22  1  0
 22 23  2  0
 23 24  1  0
 24 25  2  0
  8  3  1  0
 14 11  1  0
 25 15  1  0
 25 20  1  0
M  END
>  <smiles>  (183) 
O=C(c1ccncc1)N(CC1CCC1)c1ccc(Cl)c2ncccc12

>  <inchikey>  (183) 
LVUXOCBOSAZNTJ-UHFFFAOYSA-N

$$$$
JUDUFRATOZLLGX-UHFFFAOYSA-N-P446140-P446140-541666
     RDKit          3D

 25 27  0  0  0  0  0  0  0  0999 V2000
    0.1547  -62.7556  -14.8261 C   0  0  0  0  0  0  0  0  0  0  0  0
   -0.7099  -61.8317  -13.9901 C   0  0  0  0  0  0  0  0  0  0  0  0
   -0.1356  -61.6127  -12.7919 F   0  0  0  0  0  0  0  0  0  0  0  0
   -0.6849  -60.6134  -14.6206 F   0  0  0  0  0  0  0  0  0  0  0  0
   -2.1957  -62.2634  -13.8871 C   0  0  0  0  0  0  0  0  0  0  0  0
   -2.9339  -62.7086  -12.5024 N   0  0  0  0  0  0  0  0  0  0  0  0
   -2.4824  -61.8490  -11.3359 C   0  0  0  0  0  0  0  0  0  0  0  0
   -1.5914  -61.9975  -10.5798 O   0  0  0  0  0  0  0  0  0  0  0  0
   -3.3650  -60.6547  -11.1343 C   0  0  0  0  0  0  0  0  0  0  0  0
   -3.0450  -59.7929  -10.0806 C   0  0  0  0  0  0  0  0  0  0  0  0
   -3.8225  -58.6723   -9.8819 C   0  0  0  0  0  0  0  0  0  0  0  0
   -4.8862  -58.3565  -10.6506 N   0  0  0  0  0  0  0  0  0  0  0  0
   -5.1919  -59.2185  -11.6524 C   0  0  0  0  0  0  0  0  0  0  0  0
   -4.4716  -60.3677  -11.9320 C   0  0  0  0  0  0  0  0  0  0  0  0
   -2.4482  -64.0457  -12.9760 C   0  0  0  0  0  0  0  0  0  0  0  0
   -3.4453  -64.7211  -13.7220 C   0  0  0  0  0  0  0  0  0  0  0  0
   -3.3105  -66.0492  -14.0845 C   0  0  0  0  0  0  0  0  0  0  0  0
   -2.2037  -66.7661  -13.6517 C   0  0  0  0  0  0  0  0  0  0  0  0
   -2.1176  -68.4328  -14.1302 Cl  0  0  0  0  0  0  0  0  0  0  0  0
   -1.2196  -66.1952  -12.8404 C   0  0  0  0  0  0  0  0  0  0  0  0
   -0.2000  -66.9810  -12.4214 N   0  0  0  0  0  0  0  0  0  0  0  0
    0.7448  -66.4773  -11.6121 C   0  0  0  0  0  0  0  0  0  0  0  0
    0.7476  -65.1730  -11.2025 C   0  0  0  0  0  0  0  0  0  0  0  0
   -0.2863  -64.3556  -11.6468 C   0  0  0  0  0  0  0  0  0  0  0  0
   -1.3363  -64.8211  -12.4742 C   0  0  0  0  0  0  0  0  0  0  0  0
  1  2  1  0
  2  3  1  0
  2  4  1  0
  2  5  1  0
  5  6  1  0
  6  7  1  0
  7  8  2  0
  7  9  1  0
  9 10  2  0
 10 11  1  0
 11 12  2  0
 12 13  1  0
 13 14  2  0
  6 15  1  0
 15 16  2  0
 16 17  1  0
 17 18  2  0
 18 19  1  0
 18 20  1  0
 20 21  2  0
 21 22  1  0
 22 23  2  0
 23 24  1  0
 24 25  2  0
 14  9  1  0
 25 15  1  0
 25 20  1  0
M  END
>  <smiles>  (184) 
CC(F)(F)CN(C(=O)c1ccncc1)c1ccc(Cl)c2ncccc12

>  <inchikey>  (184) 
JUDUFRATOZLLGX-UHFFFAOYSA-N

$$$$
LLYXOJKOEDRBFT-UHFFFAOYSA-N-P446140-P446140-541666
     RDKit          3D

 25 27  0  0  0  0  0  0  0  0999 V2000
   -0.0232  -58.7972  -14.0605 C   0  0  0  0  0  0  0  0  0  0  0  0
   -0.3771  -60.1822  -14.3929 N   0  0  0  0  0  0  0  0  0  0  0  0
   -0.7146  -60.2579  -15.8163 C   0  0  0  0  0  0  0  0  0  0  0  0
   -1.5004  -60.6371  -13.5458 C   0  0  0  0  0  0  0  0  0  0  0  0
   -1.6048  -62.1922  -13.4552 C   0  0  0  0  0  0  0  0  0  0  0  0
   -2.7994  -62.6478  -12.4227 N   0  0  0  0  0  0  0  0  0  0  0  0
   -2.6337  -61.9932  -11.0654 C   0  0  0  0  0  0  0  0  0  0  0  0
   -2.0514  -62.3589  -10.1087 O   0  0  0  0  0  0  0  0  0  0  0  0
   -3.4375  -60.7343  -10.9501 C   0  0  0  0  0  0  0  0  0  0  0  0
   -3.1413  -59.8725   -9.8925 C   0  0  0  0  0  0  0  0  0  0  0  0
   -3.8526  -58.6963   -9.7876 C   0  0  0  0  0  0  0  0  0  0  0  0
   -4.8316  -58.3336  -10.6455 N   0  0  0  0  0  0  0  0  0  0  0  0
   -5.1222  -59.2032  -11.6456 C   0  0  0  0  0  0  0  0  0  0  0  0
   -4.4585  -60.4014  -11.8410 C   0  0  0  0  0  0  0  0  0  0  0  0
   -2.3623  -63.9877  -12.9163 C   0  0  0  0  0  0  0  0  0  0  0  0
   -3.2922  -64.5483  -13.8137 C   0  0  0  0  0  0  0  0  0  0  0  0
   -3.1930  -65.8728  -14.2068 C   0  0  0  0  0  0  0  0  0  0  0  0
   -2.1736  -66.6699  -13.6913 C   0  0  0  0  0  0  0  0  0  0  0  0
   -2.1323  -68.3260  -14.2130 Cl  0  0  0  0  0  0  0  0  0  0  0  0
   -1.2349  -66.1848  -12.7724 C   0  0  0  0  0  0  0  0  0  0  0  0
   -0.2746  -67.0173  -12.3027 N   0  0  0  0  0  0  0  0  0  0  0  0
    0.6114  -66.5687  -11.3961 C   0  0  0  0  0  0  0  0  0  0  0  0
    0.6083  -65.2846  -10.9183 C   0  0  0  0  0  0  0  0  0  0  0  0
   -0.3657  -64.4216  -11.4031 C   0  0  0  0  0  0  0  0  0  0  0  0
   -1.3373  -64.8317  -12.3492 C   0  0  0  0  0  0  0  0  0  0  0  0
  1  2  1  0
  2  3  1  0
  2  4  1  0
  4  5  1  0
  5  6  1  0
  6  7  1  0
  7  8  2  0
  7  9  1  0
  9 10  2  0
 10 11  1  0
 11 12  2  0
 12 13  1  0
 13 14  2  0
  6 15  1  0
 15 16  2  0
 16 17  1  0
 17 18  2  0
 18 19  1  0
 18 20  1  0
 20 21  2  0
 21 22  1  0
 22 23  2  0
 23 24  1  0
 24 25  2  0
 14  9  1  0
 25 15  1  0
 25 20  1  0
M  END
>  <smiles>  (185) 
CN(C)CCN(C(=O)c1ccncc1)c1ccc(Cl)c2ncccc12

>  <inchikey>  (185) 
LLYXOJKOEDRBFT-UHFFFAOYSA-N

$$$$
JSWWYKRPHYNAKX-UHFFFAOYSA-N-P446140-P446140-541666
     RDKit          3D

 25 27  0  0  0  0  0  0  0  0999 V2000
   -4.8644  -62.4150  -12.8538 O   0  0  0  0  0  0  0  0  0  0  0  0
   -3.8396  -62.1075  -12.3806 C   0  0  0  0  0  0  0  0  0  0  0  0
   -3.8303  -60.7644  -11.7755 C   0  0  0  0  0  0  0  0  0  0  0  0
   -4.4652  -59.7801  -12.5283 C   0  0  0  0  0  0  0  0  0  0  0  0
   -4.6736  -58.5503  -11.9611 C   0  0  0  0  0  0  0  0  0  0  0  0
   -4.3103  -58.2433  -10.6949 N   0  0  0  0  0  0  0  0  0  0  0  0
   -3.6745  -59.2216   -9.9947 C   0  0  0  0  0  0  0  0  0  0  0  0
   -3.4042  -60.4927  -10.4847 C   0  0  0  0  0  0  0  0  0  0  0  0
   -2.5260  -62.8134  -12.3807 N   0  0  0  0  0  0  0  0  0  0  0  0
   -2.1497  -64.1542  -12.8896 C   0  0  0  0  0  0  0  0  0  0  0  0
   -3.1251  -64.8508  -13.6420 C   0  0  0  0  0  0  0  0  0  0  0  0
   -2.9694  -66.1837  -13.9874 C   0  0  0  0  0  0  0  0  0  0  0  0
   -1.8764  -66.8849  -13.4962 C   0  0  0  0  0  0  0  0  0  0  0  0
   -1.7525  -68.5509  -13.9579 Cl  0  0  0  0  0  0  0  0  0  0  0  0
   -0.9656  -66.3022  -12.6042 C   0  0  0  0  0  0  0  0  0  0  0  0
    0.0315  -67.0400  -12.0663 N   0  0  0  0  0  0  0  0  0  0  0  0
    0.8176  -66.4933  -11.1180 C   0  0  0  0  0  0  0  0  0  0  0  0
    0.6582  -65.2130  -10.6430 C   0  0  0  0  0  0  0  0  0  0  0  0
   -0.3464  -64.4392  -11.2034 C   0  0  0  0  0  0  0  0  0  0  0  0
   -1.1549  -64.9401  -12.2427 C   0  0  0  0  0  0  0  0  0  0  0  0
   -1.6047  -62.3707  -13.6916 C   0  0  0  0  0  0  0  0  0  0  0  0
   -2.2157  -62.4649  -15.1248 C   0  0  0  0  0  0  0  0  0  0  0  0
   -3.4559  -61.7790  -15.2292 O   0  0  0  0  0  0  0  0  0  0  0  0
   -0.0510  -62.4739  -13.6822 C   0  0  0  0  0  0  0  0  0  0  0  0
    0.5147  -61.8651  -12.5213 O   0  0  0  0  0  0  0  0  0  0  0  0
  1  2  2  0
  2  3  1  0
  3  4  2  0
  4  5  1  0
  5  6  2  0
  6  7  1  0
  7  8  2  0
  2  9  1  0
  9 10  1  0
 10 11  2  0
 11 12  1  0
 12 13  2  0
 13 14  1  0
 13 15  1  0
 15 16  2  0
 16 17  1  0
 17 18  2  0
 18 19  1  0
 19 20  2  0
  9 21  1  0
 21 22  1  0
 22 23  1  0
 21 24  1  0
 24 25  1  0
  8  3  1  0
 20 10  1  0
 20 15  1  0
M  END
>  <smiles>  (186) 
O=C(c1ccncc1)N(c1ccc(Cl)c2ncccc12)C(CO)CO

>  <inchikey>  (186) 
JSWWYKRPHYNAKX-UHFFFAOYSA-N

$$$$
