DKXOGIRLTSGRJI-UHFFFAOYSA-N
     RDKit          3D

 21 23  0  0  0  0  0  0  0  0999 V2000
  -25.3128  -27.1874  -20.6191 C   0  0  0  0  0  0  0  0  0  0  0  0
  -25.7409  -28.0041  -21.7940 C   0  0  0  0  0  0  0  0  0  0  0  0
  -25.4609  -27.5744  -23.0827 C   0  0  0  0  0  0  0  0  0  0  0  0
  -25.7672  -28.2712  -24.2005 N   0  0  0  0  0  0  0  0  0  0  0  0
  -26.3485  -29.4751  -24.0533 C   0  0  0  0  0  0  0  0  0  0  0  0
  -26.6478  -30.0143  -22.8194 C   0  0  0  0  0  0  0  0  0  0  0  0
  -26.3245  -29.2713  -21.6863 C   0  0  0  0  0  0  0  0  0  0  0  0
  -26.3685  -29.9897  -20.3944 C   0  0  0  0  0  0  0  0  0  0  0  0
  -25.5641  -30.8056  -20.1901 O   0  0  0  0  0  0  0  0  0  0  0  0
  -27.4753  -29.4356  -19.4889 N   0  0  0  0  0  0  0  0  0  0  0  0
  -27.8775  -29.8205  -18.2106 C   0  0  0  0  0  0  0  0  0  0  0  0
  -29.2496  -29.7903  -17.9849 C   0  0  0  0  0  0  0  0  0  0  0  0
  -29.7477  -30.2467  -16.7795 C   0  0  0  0  0  0  0  0  0  0  0  0
  -28.8822  -30.7412  -15.8069 C   0  0  0  0  0  0  0  0  0  0  0  0
  -29.6225  -31.3538  -14.3604 Cl  0  0  0  0  0  0  0  0  0  0  0  0
  -27.4938  -30.7472  -15.9706 C   0  0  0  0  0  0  0  0  0  0  0  0
  -26.6938  -31.1886  -14.9679 N   0  0  0  0  0  0  0  0  0  0  0  0
  -25.3577  -31.1460  -15.1230 C   0  0  0  0  0  0  0  0  0  0  0  0
  -24.7461  -30.6464  -16.2460 C   0  0  0  0  0  0  0  0  0  0  0  0
  -25.5605  -30.1923  -17.2762 C   0  0  0  0  0  0  0  0  0  0  0  0
  -26.9726  -30.2599  -17.1928 C   0  0  0  0  0  0  0  0  0  0  0  0
  1  2  1  0
  2  3  2  0
  3  4  1  0
  4  5  2  0
  5  6  1  0
  6  7  2  0
  7  8  1  0
  8  9  2  0
  8 10  1  0
 10 11  1  0
 11 12  2  0
 12 13  1  0
 13 14  2  0
 14 15  1  0
 14 16  1  0
 16 17  2  0
 17 18  1  0
 18 19  2  0
 19 20  1  0
 20 21  2  0
  7  2  1  0
 21 11  1  0
 21 16  1  0
M  END
>  <id>  (1) 
237414

>  <inchikey>  (1) 
DKXOGIRLTSGRJI-UHFFFAOYSA-N

>  <alias>  (1) 
None

>  <smiles>  (1) 
Cc1cnccc1C(=O)Nc1ccc(Cl)c2ncccc12

>  <path>  (1) 
/opt/xchem-fragalysis-2/maxwin/RdRp_FFF/syndirella/mar_elabs/elabs_005/YAOSTISNIUSXMX-UHFFFAOYSA-N/output/YAOSTISNIUSXMX-UHFFFAOYSA-N-kzFKyu-1-A/YAOSTISNIUSXMX-UHFFFAOYSA-N-kzFKyu-1-A.minimised.mol

>  <distance_score>  (1) 
0.798299

>  <energy_score>  (1) 
-10.899578

>  <compound>  (1) 
DKXOGIRLTSGRJI-UHFFFAOYSA-N

>  <compound_id>  (1) 
77413

>  <target>  (1) 
Flavi_NS5_RdRp

>  <tags>  (1) 
[]

>  <inspirations>  (1) 
{P × 2}

>  <subsites>  (1) 
None

>  <reference>  (1) 
z0221a

$$$$
UDKOUZLHYKSJFE-UHFFFAOYSA-N
     RDKit          3D

 21 23  0  0  0  0  0  0  0  0999 V2000
  -25.6003  -31.0035  -20.1304 O   0  0  0  0  0  0  0  0  0  0  0  0
  -26.3787  -30.1676  -20.3590 C   0  0  0  0  0  0  0  0  0  0  0  0
  -27.5327  -29.6173  -19.5023 N   0  0  0  0  0  0  0  0  0  0  0  0
  -27.9020  -29.9039  -18.1899 C   0  0  0  0  0  0  0  0  0  0  0  0
  -29.2705  -29.8266  -17.9466 C   0  0  0  0  0  0  0  0  0  0  0  0
  -29.7656  -30.2345  -16.7237 C   0  0  0  0  0  0  0  0  0  0  0  0
  -28.9002  -30.7259  -15.7502 C   0  0  0  0  0  0  0  0  0  0  0  0
  -29.6416  -31.3075  -14.2919 Cl  0  0  0  0  0  0  0  0  0  0  0  0
  -27.5130  -30.7580  -15.9247 C   0  0  0  0  0  0  0  0  0  0  0  0
  -26.7120  -31.1831  -14.9159 N   0  0  0  0  0  0  0  0  0  0  0  0
  -25.3766  -31.1626  -15.0807 C   0  0  0  0  0  0  0  0  0  0  0  0
  -24.7658  -30.7017  -16.2205 C   0  0  0  0  0  0  0  0  0  0  0  0
  -25.5813  -30.2678  -17.2586 C   0  0  0  0  0  0  0  0  0  0  0  0
  -26.9937  -30.3167  -17.1653 C   0  0  0  0  0  0  0  0  0  0  0  0
  -26.3666  -29.4331  -21.6511 C   0  0  0  0  0  0  0  0  0  0  0  0
  -26.5869  -30.1579  -22.8775 C   0  0  0  0  0  0  0  0  0  0  0  0
  -26.1959  -29.6303  -24.0435 C   0  0  0  0  0  0  0  0  0  0  0  0
  -25.6363  -28.3805  -24.0623 N   0  0  0  0  0  0  0  0  0  0  0  0
  -25.5166  -27.5782  -22.9536 C   0  0  0  0  0  0  0  0  0  0  0  0
  -25.1783  -26.4053  -22.9950 O   0  0  0  0  0  0  0  0  0  0  0  0
  -25.8740  -28.1874  -21.6519 C   0  0  0  0  0  0  0  0  0  0  0  0
  1  2  2  0
  2  3  1  0
  3  4  1  0
  4  5  2  0
  5  6  1  0
  6  7  2  0
  7  8  1  0
  7  9  1  0
  9 10  2  0
 10 11  1  0
 11 12  2  0
 12 13  1  0
 13 14  2  0
  2 15  1  0
 15 16  1  0
 16 17  2  0
 17 18  1  0
 18 19  1  0
 19 20  2  0
 19 21  1  0
 14  4  1  0
 21 15  2  0
 14  9  1  0
M  END
>  <id>  (2) 
237415

>  <inchikey>  (2) 
UDKOUZLHYKSJFE-UHFFFAOYSA-N

>  <alias>  (2) 
None

>  <smiles>  (2) 
O=C(Nc1ccc(Cl)c2ncccc12)c1cc[nH]c(=O)c1

>  <path>  (2) 
/opt/xchem-fragalysis-2/maxwin/RdRp_FFF/syndirella/mar_elabs/elabs_005/YAOSTISNIUSXMX-UHFFFAOYSA-N/output/YAOSTISNIUSXMX-UHFFFAOYSA-N-kzFKyu-3-A/YAOSTISNIUSXMX-UHFFFAOYSA-N-kzFKyu-3-A.minimised.mol

>  <distance_score>  (2) 
0.813493

>  <energy_score>  (2) 
-12.723379

>  <compound>  (2) 
UDKOUZLHYKSJFE-UHFFFAOYSA-N

>  <compound_id>  (2) 
77415

>  <target>  (2) 
Flavi_NS5_RdRp

>  <tags>  (2) 
[]

>  <inspirations>  (2) 
{P × 2}

>  <subsites>  (2) 
None

>  <reference>  (2) 
z0221a

$$$$
FEGQPMPNQIBIFW-UHFFFAOYSA-N
     RDKit          3D

 21 23  0  0  0  0  0  0  0  0999 V2000
  -28.8738  -28.9425  -20.9416 O   0  0  0  0  0  0  0  0  0  0  0  0
  -27.7444  -29.1253  -20.7219 C   0  0  0  0  0  0  0  0  0  0  0  0
  -27.0395  -29.5722  -19.4302 N   0  0  0  0  0  0  0  0  0  0  0  0
  -27.5668  -29.9682  -18.1996 C   0  0  0  0  0  0  0  0  0  0  0  0
  -28.9576  -30.0138  -18.0708 C   0  0  0  0  0  0  0  0  0  0  0  0
  -29.5314  -30.4337  -16.8857 C   0  0  0  0  0  0  0  0  0  0  0  0
  -28.7164  -30.8173  -15.8268 C   0  0  0  0  0  0  0  0  0  0  0  0
  -29.5250  -31.3782  -14.3969 Cl  0  0  0  0  0  0  0  0  0  0  0  0
  -27.3177  -30.7766  -15.9027 C   0  0  0  0  0  0  0  0  0  0  0  0
  -26.5652  -31.1516  -14.8395 N   0  0  0  0  0  0  0  0  0  0  0  0
  -25.2239  -31.1191  -14.9339 C   0  0  0  0  0  0  0  0  0  0  0  0
  -24.5560  -30.7123  -16.0644 C   0  0  0  0  0  0  0  0  0  0  0  0
  -25.3114  -30.3192  -17.1618 C   0  0  0  0  0  0  0  0  0  0  0  0
  -26.7260  -30.3430  -17.1160 C   0  0  0  0  0  0  0  0  0  0  0  0
  -26.8011  -28.9829  -21.8427 C   0  0  0  0  0  0  0  0  0  0  0  0
  -27.0625  -29.7828  -22.9561 C   0  0  0  0  0  0  0  0  0  0  0  0
  -26.3911  -29.5233  -24.1328 C   0  0  0  0  0  0  0  0  0  0  0  0
  -25.5134  -28.5170  -24.2478 N   0  0  0  0  0  0  0  0  0  0  0  0
  -25.2729  -27.7649  -23.1486 C   0  0  0  0  0  0  0  0  0  0  0  0
  -25.8583  -27.9712  -21.9133 C   0  0  0  0  0  0  0  0  0  0  0  0
  -25.4496  -26.9633  -20.5924 Cl  0  0  0  0  0  0  0  0  0  0  0  0
  1  2  2  0
  2  3  1  0
  3  4  1  0
  4  5  2  0
  5  6  1  0
  6  7  2  0
  7  8  1  0
  7  9  1  0
  9 10  2  0
 10 11  1  0
 11 12  2  0
 12 13  1  0
 13 14  2  0
  2 15  1  0
 15 16  2  0
 16 17  1  0
 17 18  2  0
 18 19  1  0
 19 20  2  0
 20 21  1  0
 14  4  1  0
 20 15  1  0
 14  9  1  0
M  END
>  <id>  (3) 
237416

>  <inchikey>  (3) 
FEGQPMPNQIBIFW-UHFFFAOYSA-N

>  <alias>  (3) 
None

>  <smiles>  (3) 
O=C(Nc1ccc(Cl)c2ncccc12)c1ccncc1Cl

>  <path>  (3) 
/opt/xchem-fragalysis-2/maxwin/RdRp_FFF/syndirella/mar_elabs/elabs_005/YAOSTISNIUSXMX-UHFFFAOYSA-N/output/YAOSTISNIUSXMX-UHFFFAOYSA-N-kzFKyu-5-A/YAOSTISNIUSXMX-UHFFFAOYSA-N-kzFKyu-5-A.minimised.mol

>  <distance_score>  (3) 
1.056419

>  <energy_score>  (3) 
-18.014897

>  <compound>  (3) 
FEGQPMPNQIBIFW-UHFFFAOYSA-N

>  <compound_id>  (3) 
77417

>  <target>  (3) 
Flavi_NS5_RdRp

>  <tags>  (3) 
[]

>  <inspirations>  (3) 
{P × 2}

>  <subsites>  (3) 
None

>  <reference>  (3) 
z0221a

$$$$
WDSXJQJCRKVNRF-UHFFFAOYSA-N
     RDKit          3D

 21 23  0  0  0  0  0  0  0  0999 V2000
  -28.9939  -30.6590  -21.1183 O   0  0  0  0  0  0  0  0  0  0  0  0
  -27.9564  -30.2706  -20.7589 C   0  0  0  0  0  0  0  0  0  0  0  0
  -27.2767  -30.3598  -19.3666 N   0  0  0  0  0  0  0  0  0  0  0  0
  -27.7592  -30.8428  -18.1574 C   0  0  0  0  0  0  0  0  0  0  0  0
  -29.1106  -31.1670  -18.0615 C   0  0  0  0  0  0  0  0  0  0  0  0
  -29.6546  -31.4376  -16.8201 C   0  0  0  0  0  0  0  0  0  0  0  0
  -28.8428  -31.3957  -15.6867 C   0  0  0  0  0  0  0  0  0  0  0  0
  -29.6155  -31.7471  -14.1716 Cl  0  0  0  0  0  0  0  0  0  0  0  0
  -27.4706  -31.1062  -15.7462 C   0  0  0  0  0  0  0  0  0  0  0  0
  -26.7098  -31.0980  -14.6230 N   0  0  0  0  0  0  0  0  0  0  0  0
  -25.3934  -30.8244  -14.7133 C   0  0  0  0  0  0  0  0  0  0  0  0
  -24.7564  -30.5429  -15.8983 C   0  0  0  0  0  0  0  0  0  0  0  0
  -25.5222  -30.5462  -17.0559 C   0  0  0  0  0  0  0  0  0  0  0  0
  -26.9126  -30.8264  -17.0126 C   0  0  0  0  0  0  0  0  0  0  0  0
  -27.0498  -29.4601  -21.6117 C   0  0  0  0  0  0  0  0  0  0  0  0
  -26.5825  -29.7893  -22.9281 C   0  0  0  0  0  0  0  0  0  0  0  0
  -25.8158  -28.9190  -23.6030 C   0  0  0  0  0  0  0  0  0  0  0  0
  -25.4021  -27.7521  -22.9922 N   0  0  0  0  0  0  0  0  0  0  0  0
  -25.7506  -27.4292  -21.6993 C   0  0  0  0  0  0  0  0  0  0  0  0
  -25.0931  -26.2167  -20.7826 S   0  0  0  0  0  0  0  0  0  0  0  0
  -26.7666  -28.2728  -21.0703 C   0  0  0  0  0  0  0  0  0  0  0  0
  1  2  2  0
  2  3  1  0
  3  4  1  0
  4  5  2  0
  5  6  1  0
  6  7  2  0
  7  8  1  0
  7  9  1  0
  9 10  2  0
 10 11  1  0
 11 12  2  0
 12 13  1  0
 13 14  2  0
  2 15  1  0
 15 16  1  0
 16 17  2  0
 17 18  1  0
 18 19  1  0
 19 20  2  0
 19 21  1  0
 14  4  1  0
 21 15  2  0
 14  9  1  0
M  END
>  <id>  (4) 
237417

>  <inchikey>  (4) 
WDSXJQJCRKVNRF-UHFFFAOYSA-N

>  <alias>  (4) 
None

>  <smiles>  (4) 
O=C(Nc1ccc(Cl)c2ncccc12)c1cc[nH]c(=S)c1

>  <path>  (4) 
/opt/xchem-fragalysis-2/maxwin/RdRp_FFF/syndirella/mar_elabs/elabs_005/YAOSTISNIUSXMX-UHFFFAOYSA-N/output/YAOSTISNIUSXMX-UHFFFAOYSA-N-kzFKyu-6-A/YAOSTISNIUSXMX-UHFFFAOYSA-N-kzFKyu-6-A.minimised.mol

>  <distance_score>  (4) 
1.374357

>  <energy_score>  (4) 
-14.777948

>  <compound>  (4) 
WDSXJQJCRKVNRF-UHFFFAOYSA-N

>  <compound_id>  (4) 
77418

>  <target>  (4) 
Flavi_NS5_RdRp

>  <tags>  (4) 
[]

>  <inspirations>  (4) 
{P × 2}

>  <subsites>  (4) 
None

>  <reference>  (4) 
z0221a

$$$$
FHJMQFKSNSGLBX-UHFFFAOYSA-N
     RDKit          3D

 21 23  0  0  0  0  0  0  0  0999 V2000
  -28.9311  -29.0501  -20.9283 O   0  0  0  0  0  0  0  0  0  0  0  0
  -27.7989  -29.2147  -20.7085 C   0  0  0  0  0  0  0  0  0  0  0  0
  -27.0871  -29.6514  -19.4170 N   0  0  0  0  0  0  0  0  0  0  0  0
  -27.6079  -30.0570  -18.1874 C   0  0  0  0  0  0  0  0  0  0  0  0
  -28.9960  -30.0636  -18.0334 C   0  0  0  0  0  0  0  0  0  0  0  0
  -29.5565  -30.4767  -16.8398 C   0  0  0  0  0  0  0  0  0  0  0  0
  -28.7309  -30.8841  -15.7975 C   0  0  0  0  0  0  0  0  0  0  0  0
  -29.5257  -31.4323  -14.3550 Cl  0  0  0  0  0  0  0  0  0  0  0  0
  -27.3329  -30.8721  -15.8965 C   0  0  0  0  0  0  0  0  0  0  0  0
  -26.5685  -31.2577  -14.8452 N   0  0  0  0  0  0  0  0  0  0  0  0
  -25.2280  -31.2447  -14.9608 C   0  0  0  0  0  0  0  0  0  0  0  0
  -24.5717  -30.8444  -16.1003 C   0  0  0  0  0  0  0  0  0  0  0  0
  -25.3398  -30.4417  -17.1853 C   0  0  0  0  0  0  0  0  0  0  0  0
  -26.7546  -30.4497  -17.1189 C   0  0  0  0  0  0  0  0  0  0  0  0
  -26.8468  -29.0289  -21.8218 C   0  0  0  0  0  0  0  0  0  0  0  0
  -27.1175  -29.7855  -22.9624 C   0  0  0  0  0  0  0  0  0  0  0  0
  -26.4321  -29.5123  -24.1277 C   0  0  0  0  0  0  0  0  0  0  0  0
  -25.5313  -28.5255  -24.2100 N   0  0  0  0  0  0  0  0  0  0  0  0
  -25.2806  -27.8111  -23.0893 C   0  0  0  0  0  0  0  0  0  0  0  0
  -25.8761  -28.0383  -21.8596 C   0  0  0  0  0  0  0  0  0  0  0  0
  -25.3142  -26.8820  -20.2471 I   0  0  0  0  0  0  0  0  0  0  0  0
  1  2  2  0
  2  3  1  0
  3  4  1  0
  4  5  2  0
  5  6  1  0
  6  7  2  0
  7  8  1  0
  7  9  1  0
  9 10  2  0
 10 11  1  0
 11 12  2  0
 12 13  1  0
 13 14  2  0
  2 15  1  0
 15 16  2  0
 16 17  1  0
 17 18  2  0
 18 19  1  0
 19 20  2  0
 20 21  1  0
 14  4  1  0
 20 15  1  0
 14  9  1  0
M  END
>  <id>  (5) 
237418

>  <inchikey>  (5) 
FHJMQFKSNSGLBX-UHFFFAOYSA-N

>  <alias>  (5) 
None

>  <smiles>  (5) 
O=C(Nc1ccc(Cl)c2ncccc12)c1ccncc1I

>  <path>  (5) 
/opt/xchem-fragalysis-2/maxwin/RdRp_FFF/syndirella/mar_elabs/elabs_005/YAOSTISNIUSXMX-UHFFFAOYSA-N/output/YAOSTISNIUSXMX-UHFFFAOYSA-N-kzFKyu-9-A/YAOSTISNIUSXMX-UHFFFAOYSA-N-kzFKyu-9-A.minimised.mol

>  <distance_score>  (5) 
1.079958

>  <energy_score>  (5) 
-22.236422

>  <compound>  (5) 
FHJMQFKSNSGLBX-UHFFFAOYSA-N

>  <compound_id>  (5) 
77421

>  <target>  (5) 
Flavi_NS5_RdRp

>  <tags>  (5) 
[]

>  <inspirations>  (5) 
{P × 2}

>  <subsites>  (5) 
None

>  <reference>  (5) 
z0221a

$$$$
SEDCSWGYZVKWFB-UHFFFAOYSA-N
     RDKit          3D

 21 23  0  0  0  0  0  0  0  0999 V2000
  -28.9020  -29.0263  -20.9516 O   0  0  0  0  0  0  0  0  0  0  0  0
  -27.7682  -29.1626  -20.7207 C   0  0  0  0  0  0  0  0  0  0  0  0
  -27.0576  -29.5695  -19.4189 N   0  0  0  0  0  0  0  0  0  0  0  0
  -27.5798  -29.9744  -18.1887 C   0  0  0  0  0  0  0  0  0  0  0  0
  -28.9692  -29.9936  -18.0438 C   0  0  0  0  0  0  0  0  0  0  0  0
  -29.5369  -30.4206  -16.8584 C   0  0  0  0  0  0  0  0  0  0  0  0
  -28.7166  -30.8331  -15.8144 C   0  0  0  0  0  0  0  0  0  0  0  0
  -29.5182  -31.4004  -14.3831 Cl  0  0  0  0  0  0  0  0  0  0  0  0
  -27.3181  -30.8121  -15.9042 C   0  0  0  0  0  0  0  0  0  0  0  0
  -26.5595  -31.2073  -14.8526 N   0  0  0  0  0  0  0  0  0  0  0  0
  -25.2186  -31.1900  -14.9600 C   0  0  0  0  0  0  0  0  0  0  0  0
  -24.5568  -30.7751  -16.0912 C   0  0  0  0  0  0  0  0  0  0  0  0
  -25.3185  -30.3600  -17.1760 C   0  0  0  0  0  0  0  0  0  0  0  0
  -26.7330  -30.3727  -17.1181 C   0  0  0  0  0  0  0  0  0  0  0  0
  -26.8195  -29.0007  -21.8377 C   0  0  0  0  0  0  0  0  0  0  0  0
  -27.0794  -29.7861  -22.9613 C   0  0  0  0  0  0  0  0  0  0  0  0
  -26.4014  -29.5212  -24.1328 C   0  0  0  0  0  0  0  0  0  0  0  0
  -25.5166  -28.5206  -24.2352 N   0  0  0  0  0  0  0  0  0  0  0  0
  -25.2760  -27.7805  -23.1291 C   0  0  0  0  0  0  0  0  0  0  0  0
  -25.8680  -27.9951  -21.8975 C   0  0  0  0  0  0  0  0  0  0  0  0
  -25.4050  -26.8961  -20.4447 Br  0  0  0  0  0  0  0  0  0  0  0  0
  1  2  2  0
  2  3  1  0
  3  4  1  0
  4  5  2  0
  5  6  1  0
  6  7  2  0
  7  8  1  0
  7  9  1  0
  9 10  2  0
 10 11  1  0
 11 12  2  0
 12 13  1  0
 13 14  2  0
  2 15  1  0
 15 16  2  0
 16 17  1  0
 17 18  2  0
 18 19  1  0
 19 20  2  0
 20 21  1  0
 14  4  1  0
 20 15  1  0
 14  9  1  0
M  END
>  <id>  (6) 
237419

>  <inchikey>  (6) 
SEDCSWGYZVKWFB-UHFFFAOYSA-N

>  <alias>  (6) 
None

>  <smiles>  (6) 
O=C(Nc1ccc(Cl)c2ncccc12)c1ccncc1Br

>  <path>  (6) 
/opt/xchem-fragalysis-2/maxwin/RdRp_FFF/syndirella/mar_elabs/elabs_005/YAOSTISNIUSXMX-UHFFFAOYSA-N/output/YAOSTISNIUSXMX-UHFFFAOYSA-N-kzFKyu-11-A/YAOSTISNIUSXMX-UHFFFAOYSA-N-kzFKyu-11-A.minimised.mol

>  <distance_score>  (6) 
1.064682

>  <energy_score>  (6) 
-19.204634

>  <compound>  (6) 
SEDCSWGYZVKWFB-UHFFFAOYSA-N

>  <compound_id>  (6) 
77423

>  <target>  (6) 
Flavi_NS5_RdRp

>  <tags>  (6) 
[]

>  <inspirations>  (6) 
{P × 2}

>  <subsites>  (6) 
None

>  <reference>  (6) 
z0221a

$$$$
ZFJNZKZJZWYCLD-UHFFFAOYSA-O
     RDKit          3D

 21 23  0  0  0  0  0  0  0  0999 V2000
  -25.2940  -28.4923  -24.8724 C   0  0  0  0  0  0  0  0  0  0  0  0
  -25.8132  -28.4621  -23.5237 N   0  0  0  0  0  0  0  0  0  0  0  0
  -26.6051  -29.4869  -23.1527 C   0  0  0  0  0  0  0  0  0  0  0  0
  -26.8950  -29.6932  -21.8276 C   0  0  0  0  0  0  0  0  0  0  0  0
  -26.3373  -28.8034  -20.9143 C   0  0  0  0  0  0  0  0  0  0  0  0
  -26.2174  -29.2569  -19.5348 C   0  0  0  0  0  0  0  0  0  0  0  0
  -25.1675  -29.6024  -19.1709 O   0  0  0  0  0  0  0  0  0  0  0  0
  -27.5756  -29.2848  -18.8238 N   0  0  0  0  0  0  0  0  0  0  0  0
  -27.9405  -29.8151  -17.5842 C   0  0  0  0  0  0  0  0  0  0  0  0
  -29.3102  -30.0836  -17.4845 C   0  0  0  0  0  0  0  0  0  0  0  0
  -29.7895  -30.7973  -16.4048 C   0  0  0  0  0  0  0  0  0  0  0  0
  -28.9019  -31.2509  -15.4329 C   0  0  0  0  0  0  0  0  0  0  0  0
  -29.5891  -32.1765  -14.1330 Cl  0  0  0  0  0  0  0  0  0  0  0  0
  -27.5309  -30.9711  -15.4696 C   0  0  0  0  0  0  0  0  0  0  0  0
  -26.7236  -31.4329  -14.4834 N   0  0  0  0  0  0  0  0  0  0  0  0
  -25.4172  -31.1130  -14.4842 C   0  0  0  0  0  0  0  0  0  0  0  0
  -24.8527  -30.2875  -15.4216 C   0  0  0  0  0  0  0  0  0  0  0  0
  -25.6794  -29.8068  -16.4295 C   0  0  0  0  0  0  0  0  0  0  0  0
  -27.0398  -30.1888  -16.5385 C   0  0  0  0  0  0  0  0  0  0  0  0
  -25.6174  -27.6840  -21.3085 C   0  0  0  0  0  0  0  0  0  0  0  0
  -25.3787  -27.5304  -22.6549 C   0  0  0  0  0  0  0  0  0  0  0  0
  1  2  1  0
  2  3  2  0
  3  4  1  0
  4  5  2  0
  5  6  1  0
  6  7  2  0
  6  8  1  0
  8  9  1  0
  9 10  2  0
 10 11  1  0
 11 12  2  0
 12 13  1  0
 12 14  1  0
 14 15  2  0
 15 16  1  0
 16 17  2  0
 17 18  1  0
 18 19  2  0
  5 20  1  0
 20 21  2  0
 21  2  1  0
 19  9  1  0
 19 14  1  0
M  CHG  1   2   1
M  END
>  <id>  (7) 
237420

>  <inchikey>  (7) 
ZFJNZKZJZWYCLD-UHFFFAOYSA-O

>  <alias>  (7) 
None

>  <smiles>  (7) 
C[n+]1ccc(C(=O)Nc2ccc(Cl)c3ncccc23)cc1

>  <path>  (7) 
/opt/xchem-fragalysis-2/maxwin/RdRp_FFF/syndirella/mar_elabs/elabs_005/YAOSTISNIUSXMX-UHFFFAOYSA-N/output/YAOSTISNIUSXMX-UHFFFAOYSA-N-kzFKyu-12-A/YAOSTISNIUSXMX-UHFFFAOYSA-N-kzFKyu-12-A.minimised.mol

>  <distance_score>  (7) 
1.390762

>  <energy_score>  (7) 
-6.019362

>  <compound>  (7) 
ZFJNZKZJZWYCLD-UHFFFAOYSA-O

>  <compound_id>  (7) 
77424

>  <target>  (7) 
Flavi_NS5_RdRp

>  <tags>  (7) 
[]

>  <inspirations>  (7) 
{P × 2}

>  <subsites>  (7) 
None

>  <reference>  (7) 
z0221a

$$$$
SFMIFWFCGANEIQ-UHFFFAOYSA-N
     RDKit          3D

 21 23  0  0  0  0  0  0  0  0999 V2000
  -26.4334  -29.5783  -25.0689 C   0  0  0  0  0  0  0  0  0  0  0  0
  -26.1560  -29.0375  -23.7160 C   0  0  0  0  0  0  0  0  0  0  0  0
  -26.4995  -29.7668  -22.5944 C   0  0  0  0  0  0  0  0  0  0  0  0
  -26.2566  -29.1807  -21.3619 C   0  0  0  0  0  0  0  0  0  0  0  0
  -26.3681  -30.0134  -20.1592 C   0  0  0  0  0  0  0  0  0  0  0  0
  -25.6046  -30.8760  -19.9950 O   0  0  0  0  0  0  0  0  0  0  0  0
  -27.5179  -29.5207  -19.2721 N   0  0  0  0  0  0  0  0  0  0  0  0
  -27.9031  -29.9088  -17.9932 C   0  0  0  0  0  0  0  0  0  0  0  0
  -29.2754  -29.8595  -17.7613 C   0  0  0  0  0  0  0  0  0  0  0  0
  -29.7772  -30.3429  -16.5695 C   0  0  0  0  0  0  0  0  0  0  0  0
  -28.9116  -30.8717  -15.6149 C   0  0  0  0  0  0  0  0  0  0  0  0
  -29.6543  -31.5231  -14.1860 Cl  0  0  0  0  0  0  0  0  0  0  0  0
  -27.5218  -30.8837  -15.7804 C   0  0  0  0  0  0  0  0  0  0  0  0
  -26.7226  -31.3528  -14.7897 N   0  0  0  0  0  0  0  0  0  0  0  0
  -25.3860  -31.3182  -14.9467 C   0  0  0  0  0  0  0  0  0  0  0  0
  -24.7712  -30.7979  -16.0586 C   0  0  0  0  0  0  0  0  0  0  0  0
  -25.5843  -30.3152  -17.0763 C   0  0  0  0  0  0  0  0  0  0  0  0
  -26.9975  -30.3750  -16.9911 C   0  0  0  0  0  0  0  0  0  0  0  0
  -25.7356  -27.8965  -21.2553 C   0  0  0  0  0  0  0  0  0  0  0  0
  -25.4347  -27.2512  -22.4320 C   0  0  0  0  0  0  0  0  0  0  0  0
  -25.6295  -27.7938  -23.6486 N   0  0  0  0  0  0  0  0  0  0  0  0
  1  2  1  0
  2  3  2  0
  3  4  1  0
  4  5  1  0
  5  6  2  0
  5  7  1  0
  7  8  1  0
  8  9  2  0
  9 10  1  0
 10 11  2  0
 11 12  1  0
 11 13  1  0
 13 14  2  0
 14 15  1  0
 15 16  2  0
 16 17  1  0
 17 18  2  0
  4 19  2  0
 19 20  1  0
 20 21  2  0
 21  2  1  0
 18  8  1  0
 18 13  1  0
M  END
>  <id>  (8) 
237421

>  <inchikey>  (8) 
SFMIFWFCGANEIQ-UHFFFAOYSA-N

>  <alias>  (8) 
None

>  <smiles>  (8) 
Cc1cc(C(=O)Nc2ccc(Cl)c3ncccc23)ccn1

>  <path>  (8) 
/opt/xchem-fragalysis-2/maxwin/RdRp_FFF/syndirella/mar_elabs/elabs_005/YAOSTISNIUSXMX-UHFFFAOYSA-N/output/YAOSTISNIUSXMX-UHFFFAOYSA-N-kzFKyu-13-A/YAOSTISNIUSXMX-UHFFFAOYSA-N-kzFKyu-13-A.minimised.mol

>  <distance_score>  (8) 
1.018409

>  <energy_score>  (8) 
-8.597343

>  <compound>  (8) 
SFMIFWFCGANEIQ-UHFFFAOYSA-N

>  <compound_id>  (8) 
77425

>  <target>  (8) 
Flavi_NS5_RdRp

>  <tags>  (8) 
[]

>  <inspirations>  (8) 
{P × 2}

>  <subsites>  (8) 
None

>  <reference>  (8) 
z0221a

$$$$
BNGXNMOAWVHVED-UHFFFAOYSA-N
     RDKit          3D

 21 23  0  0  0  0  0  0  0  0999 V2000
  -29.1050  -30.2876  -21.0911 O   0  0  0  0  0  0  0  0  0  0  0  0
  -28.0425  -29.9908  -20.7221 C   0  0  0  0  0  0  0  0  0  0  0  0
  -27.3551  -30.2216  -19.3553 N   0  0  0  0  0  0  0  0  0  0  0  0
  -27.8515  -30.7607  -18.1765 C   0  0  0  0  0  0  0  0  0  0  0  0
  -29.2125  -31.0263  -18.0737 C   0  0  0  0  0  0  0  0  0  0  0  0
  -29.7405  -31.3559  -16.8390 C   0  0  0  0  0  0  0  0  0  0  0  0
  -28.9098  -31.4123  -15.7194 C   0  0  0  0  0  0  0  0  0  0  0  0
  -29.6716  -31.8102  -14.2096 Cl  0  0  0  0  0  0  0  0  0  0  0  0
  -27.5297  -31.1747  -15.7866 C   0  0  0  0  0  0  0  0  0  0  0  0
  -26.7571  -31.2513  -14.6737 N   0  0  0  0  0  0  0  0  0  0  0  0
  -25.4328  -31.0227  -14.7646 C   0  0  0  0  0  0  0  0  0  0  0  0
  -24.7990  -30.7061  -15.9418 C   0  0  0  0  0  0  0  0  0  0  0  0
  -25.5782  -30.6226  -17.0884 C   0  0  0  0  0  0  0  0  0  0  0  0
  -26.9806  -30.8517  -17.0460 C   0  0  0  0  0  0  0  0  0  0  0  0
  -27.1246  -29.1789  -21.5503 C   0  0  0  0  0  0  0  0  0  0  0  0
  -26.7398  -29.4608  -22.8489 C   0  0  0  0  0  0  0  0  0  0  0  0
  -25.7388  -28.6643  -23.3870 C   0  0  0  0  0  0  0  0  0  0  0  0
  -25.0726  -27.7175  -22.6709 N   0  0  0  0  0  0  0  0  0  0  0  0
  -25.4890  -27.4855  -21.4126 C   0  0  0  0  0  0  0  0  0  0  0  0
  -24.3006  -26.6227  -19.9092 I   0  0  0  0  0  0  0  0  0  0  0  0
  -26.5841  -28.0955  -20.8752 C   0  0  0  0  0  0  0  0  0  0  0  0
  1  2  2  0
  2  3  1  0
  3  4  1  0
  4  5  2  0
  5  6  1  0
  6  7  2  0
  7  8  1  0
  7  9  1  0
  9 10  2  0
 10 11  1  0
 11 12  2  0
 12 13  1  0
 13 14  2  0
  2 15  1  0
 15 16  2  0
 16 17  1  0
 17 18  2  0
 18 19  1  0
 19 20  1  0
 19 21  2  0
 14  4  1  0
 21 15  1  0
 14  9  1  0
M  END
>  <id>  (9) 
237422

>  <inchikey>  (9) 
BNGXNMOAWVHVED-UHFFFAOYSA-N

>  <alias>  (9) 
None

>  <smiles>  (9) 
O=C(Nc1ccc(Cl)c2ncccc12)c1ccnc(I)c1

>  <path>  (9) 
/opt/xchem-fragalysis-2/maxwin/RdRp_FFF/syndirella/mar_elabs/elabs_005/YAOSTISNIUSXMX-UHFFFAOYSA-N/output/YAOSTISNIUSXMX-UHFFFAOYSA-N-kzFKyu-14-A/YAOSTISNIUSXMX-UHFFFAOYSA-N-kzFKyu-14-A.minimised.mol

>  <distance_score>  (9) 
1.431116

>  <energy_score>  (9) 
-0.608901

>  <compound>  (9) 
BNGXNMOAWVHVED-UHFFFAOYSA-N

>  <compound_id>  (9) 
77426

>  <target>  (9) 
Flavi_NS5_RdRp

>  <tags>  (9) 
[]

>  <inspirations>  (9) 
{P × 2}

>  <subsites>  (9) 
None

>  <reference>  (9) 
z0221a

$$$$
XJDXJFMRGYLKLI-UHFFFAOYSA-N
     RDKit          3D

 21 23  0  0  0  0  0  0  0  0999 V2000
  -25.6323  -30.9187  -20.2672 O   0  0  0  0  0  0  0  0  0  0  0  0
  -26.3900  -30.0561  -20.4547 C   0  0  0  0  0  0  0  0  0  0  0  0
  -27.5142  -29.5101  -19.5672 N   0  0  0  0  0  0  0  0  0  0  0  0
  -27.8761  -29.8353  -18.2601 C   0  0  0  0  0  0  0  0  0  0  0  0
  -29.2435  -29.7611  -18.0093 C   0  0  0  0  0  0  0  0  0  0  0  0
  -29.7373  -30.1800  -16.7894 C   0  0  0  0  0  0  0  0  0  0  0  0
  -28.8705  -30.6831  -15.8237 C   0  0  0  0  0  0  0  0  0  0  0  0
  -29.6071  -31.2661  -14.3638 Cl  0  0  0  0  0  0  0  0  0  0  0  0
  -27.4850  -30.7269  -16.0082 C   0  0  0  0  0  0  0  0  0  0  0  0
  -26.6845  -31.1694  -15.0073 N   0  0  0  0  0  0  0  0  0  0  0  0
  -25.3502  -31.1696  -15.1794 C   0  0  0  0  0  0  0  0  0  0  0  0
  -24.7400  -30.7168  -16.3226 C   0  0  0  0  0  0  0  0  0  0  0  0
  -25.5543  -30.2634  -17.3539 C   0  0  0  0  0  0  0  0  0  0  0  0
  -26.9669  -30.2804  -17.2490 C   0  0  0  0  0  0  0  0  0  0  0  0
  -26.3074  -29.3097  -21.7211 C   0  0  0  0  0  0  0  0  0  0  0  0
  -26.5984  -30.0215  -22.8825 C   0  0  0  0  0  0  0  0  0  0  0  0
  -26.2973  -29.4379  -24.0965 C   0  0  0  0  0  0  0  0  0  0  0  0
  -25.7434  -28.2152  -24.1970 N   0  0  0  0  0  0  0  0  0  0  0  0
  -25.4641  -27.5502  -23.0498 C   0  0  0  0  0  0  0  0  0  0  0  0
  -25.7427  -28.0417  -21.7885 C   0  0  0  0  0  0  0  0  0  0  0  0
  -25.4114  -27.2795  -20.7124 O   0  0  0  0  0  0  0  0  0  0  0  0
  1  2  2  0
  2  3  1  0
  3  4  1  0
  4  5  2  0
  5  6  1  0
  6  7  2  0
  7  8  1  0
  7  9  1  0
  9 10  2  0
 10 11  1  0
 11 12  2  0
 12 13  1  0
 13 14  2  0
  2 15  1  0
 15 16  2  0
 16 17  1  0
 17 18  2  0
 18 19  1  0
 19 20  2  0
 20 21  1  0
 14  4  1  0
 20 15  1  0
 14  9  1  0
M  END
>  <id>  (10) 
237423

>  <inchikey>  (10) 
XJDXJFMRGYLKLI-UHFFFAOYSA-N

>  <alias>  (10) 
None

>  <smiles>  (10) 
O=C(Nc1ccc(Cl)c2ncccc12)c1ccncc1O

>  <path>  (10) 
/opt/xchem-fragalysis-2/maxwin/RdRp_FFF/syndirella/mar_elabs/elabs_005/YAOSTISNIUSXMX-UHFFFAOYSA-N/output/YAOSTISNIUSXMX-UHFFFAOYSA-N-kzFKyu-16-A/YAOSTISNIUSXMX-UHFFFAOYSA-N-kzFKyu-16-A.minimised.mol

>  <distance_score>  (10) 
0.769521

>  <energy_score>  (10) 
-3.145553

>  <compound>  (10) 
XJDXJFMRGYLKLI-UHFFFAOYSA-N

>  <compound_id>  (10) 
77428

>  <target>  (10) 
Flavi_NS5_RdRp

>  <tags>  (10) 
[]

>  <inspirations>  (10) 
{P × 2}

>  <subsites>  (10) 
None

>  <reference>  (10) 
z0221a

$$$$
FNMWNAKKFAQWDR-UHFFFAOYSA-N
     RDKit          3D

 21 23  0  0  0  0  0  0  0  0999 V2000
  -25.6310  -30.9082  -20.2625 O   0  0  0  0  0  0  0  0  0  0  0  0
  -26.3921  -30.0436  -20.4350 C   0  0  0  0  0  0  0  0  0  0  0  0
  -27.4562  -29.4526  -19.4996 N   0  0  0  0  0  0  0  0  0  0  0  0
  -27.8630  -29.8478  -18.2269 C   0  0  0  0  0  0  0  0  0  0  0  0
  -29.2323  -29.7834  -17.9916 C   0  0  0  0  0  0  0  0  0  0  0  0
  -29.7345  -30.2321  -16.7851 C   0  0  0  0  0  0  0  0  0  0  0  0
  -28.8743  -30.7528  -15.8211 C   0  0  0  0  0  0  0  0  0  0  0  0
  -29.6184  -31.3516  -14.3708 Cl  0  0  0  0  0  0  0  0  0  0  0  0
  -27.4872  -30.7953  -15.9958 C   0  0  0  0  0  0  0  0  0  0  0  0
  -26.6897  -31.2613  -15.0022 N   0  0  0  0  0  0  0  0  0  0  0  0
  -25.3544  -31.2520  -15.1703 C   0  0  0  0  0  0  0  0  0  0  0  0
  -24.7399  -30.7654  -16.2978 C   0  0  0  0  0  0  0  0  0  0  0  0
  -25.5513  -30.2882  -17.3196 C   0  0  0  0  0  0  0  0  0  0  0  0
  -26.9632  -30.3178  -17.2205 C   0  0  0  0  0  0  0  0  0  0  0  0
  -26.3273  -29.3086  -21.7157 C   0  0  0  0  0  0  0  0  0  0  0  0
  -26.6348  -30.0422  -22.8606 C   0  0  0  0  0  0  0  0  0  0  0  0
  -26.3328  -29.4913  -24.0893 C   0  0  0  0  0  0  0  0  0  0  0  0
  -25.7603  -28.2815  -24.2215 N   0  0  0  0  0  0  0  0  0  0  0  0
  -25.4635  -27.5960  -23.0910 C   0  0  0  0  0  0  0  0  0  0  0  0
  -25.7402  -28.0451  -21.8078 C   0  0  0  0  0  0  0  0  0  0  0  0
  -25.2960  -27.0522  -20.4116 S   0  0  0  0  0  0  0  0  0  0  0  0
  1  2  2  0
  2  3  1  0
  3  4  1  0
  4  5  2  0
  5  6  1  0
  6  7  2  0
  7  8  1  0
  7  9  1  0
  9 10  2  0
 10 11  1  0
 11 12  2  0
 12 13  1  0
 13 14  2  0
  2 15  1  0
 15 16  2  0
 16 17  1  0
 17 18  2  0
 18 19  1  0
 19 20  2  0
 20 21  1  0
 14  4  1  0
 20 15  1  0
 14  9  1  0
M  END
>  <id>  (11) 
237424

>  <inchikey>  (11) 
FNMWNAKKFAQWDR-UHFFFAOYSA-N

>  <alias>  (11) 
None

>  <smiles>  (11) 
O=C(Nc1ccc(Cl)c2ncccc12)c1ccncc1S

>  <path>  (11) 
/opt/xchem-fragalysis-2/maxwin/RdRp_FFF/syndirella/mar_elabs/elabs_005/YAOSTISNIUSXMX-UHFFFAOYSA-N/output/YAOSTISNIUSXMX-UHFFFAOYSA-N-kzFKyu-17-A/YAOSTISNIUSXMX-UHFFFAOYSA-N-kzFKyu-17-A.minimised.mol

>  <distance_score>  (11) 
0.802179

>  <energy_score>  (11) 
-10.405891

>  <compound>  (11) 
FNMWNAKKFAQWDR-UHFFFAOYSA-N

>  <compound_id>  (11) 
77429

>  <target>  (11) 
Flavi_NS5_RdRp

>  <tags>  (11) 
[]

>  <inspirations>  (11) 
{P × 2}

>  <subsites>  (11) 
None

>  <reference>  (11) 
z0221a

$$$$
ZFJULGNILCROJB-UHFFFAOYSA-N
     RDKit          3D

 21 23  0  0  0  0  0  0  0  0999 V2000
  -25.5588  -27.2147  -20.6531 N   0  0  0  0  0  0  0  0  0  0  0  0
  -25.7083  -28.0265  -21.7813 C   0  0  0  0  0  0  0  0  0  0  0  0
  -25.4715  -27.5298  -23.0585 C   0  0  0  0  0  0  0  0  0  0  0  0
  -25.7276  -28.1949  -24.2126 N   0  0  0  0  0  0  0  0  0  0  0  0
  -26.2624  -29.4241  -24.1219 C   0  0  0  0  0  0  0  0  0  0  0  0
  -26.5653  -30.0106  -22.9132 C   0  0  0  0  0  0  0  0  0  0  0  0
  -26.2899  -29.2978  -21.7457 C   0  0  0  0  0  0  0  0  0  0  0  0
  -26.3935  -30.0653  -20.4873 C   0  0  0  0  0  0  0  0  0  0  0  0
  -25.6987  -30.9882  -20.3411 O   0  0  0  0  0  0  0  0  0  0  0  0
  -27.4701  -29.4756  -19.5683 N   0  0  0  0  0  0  0  0  0  0  0  0
  -27.8462  -29.8259  -18.2736 C   0  0  0  0  0  0  0  0  0  0  0  0
  -29.2117  -29.7297  -18.0225 C   0  0  0  0  0  0  0  0  0  0  0  0
  -29.7144  -30.1533  -16.8078 C   0  0  0  0  0  0  0  0  0  0  0  0
  -28.8559  -30.6815  -15.8475 C   0  0  0  0  0  0  0  0  0  0  0  0
  -29.6000  -31.2597  -14.3894 Cl  0  0  0  0  0  0  0  0  0  0  0  0
  -27.4712  -30.7540  -16.0354 C   0  0  0  0  0  0  0  0  0  0  0  0
  -26.6753  -31.2227  -15.0422 N   0  0  0  0  0  0  0  0  0  0  0  0
  -25.3421  -31.2534  -15.2236 C   0  0  0  0  0  0  0  0  0  0  0  0
  -24.7272  -30.8089  -16.3681 C   0  0  0  0  0  0  0  0  0  0  0  0
  -25.5359  -30.3284  -17.3910 C   0  0  0  0  0  0  0  0  0  0  0  0
  -26.9470  -30.3086  -17.2735 C   0  0  0  0  0  0  0  0  0  0  0  0
  1  2  1  0
  2  3  2  0
  3  4  1  0
  4  5  2  0
  5  6  1  0
  6  7  2  0
  7  8  1  0
  8  9  2  0
  8 10  1  0
 10 11  1  0
 11 12  2  0
 12 13  1  0
 13 14  2  0
 14 15  1  0
 14 16  1  0
 16 17  2  0
 17 18  1  0
 18 19  2  0
 19 20  1  0
 20 21  2  0
  7  2  1  0
 21 11  1  0
 21 16  1  0
M  END
>  <id>  (12) 
237425

>  <inchikey>  (12) 
ZFJULGNILCROJB-UHFFFAOYSA-N

>  <alias>  (12) 
None

>  <smiles>  (12) 
Nc1cnccc1C(=O)Nc1ccc(Cl)c2ncccc12

>  <path>  (12) 
/opt/xchem-fragalysis-2/maxwin/RdRp_FFF/syndirella/mar_elabs/elabs_005/YAOSTISNIUSXMX-UHFFFAOYSA-N/output/YAOSTISNIUSXMX-UHFFFAOYSA-N-kzFKyu-18-A/YAOSTISNIUSXMX-UHFFFAOYSA-N-kzFKyu-18-A.minimised.mol

>  <distance_score>  (12) 
0.771481

>  <energy_score>  (12) 
-15.038772

>  <compound>  (12) 
ZFJULGNILCROJB-UHFFFAOYSA-N

>  <compound_id>  (12) 
77430

>  <target>  (12) 
Flavi_NS5_RdRp

>  <tags>  (12) 
[]

>  <inspirations>  (12) 
{P × 2}

>  <subsites>  (12) 
None

>  <reference>  (12) 
z0221a

$$$$
CCMOBNDVSHOQDZ-UHFFFAOYSA-N
     RDKit          3D

 21 23  0  0  0  0  0  0  0  0999 V2000
  -25.3551  -30.7107  -20.0995 O   0  0  0  0  0  0  0  0  0  0  0  0
  -26.2123  -29.9759  -20.3620 C   0  0  0  0  0  0  0  0  0  0  0  0
  -27.4048  -29.5174  -19.5385 N   0  0  0  0  0  0  0  0  0  0  0  0
  -27.8451  -29.9211  -18.2831 C   0  0  0  0  0  0  0  0  0  0  0  0
  -29.2063  -30.2120  -18.1908 C   0  0  0  0  0  0  0  0  0  0  0  0
  -30.1896  -30.1658  -19.6133 Cl  0  0  0  0  0  0  0  0  0  0  0  0
  -29.7245  -30.6876  -17.0046 C   0  0  0  0  0  0  0  0  0  0  0  0
  -28.8778  -30.8789  -15.9133 C   0  0  0  0  0  0  0  0  0  0  0  0
  -29.6173  -31.4858  -14.4627 Cl  0  0  0  0  0  0  0  0  0  0  0  0
  -27.5008  -30.6240  -15.9656 C   0  0  0  0  0  0  0  0  0  0  0  0
  -26.7218  -30.8427  -14.8785 N   0  0  0  0  0  0  0  0  0  0  0  0
  -25.4011  -30.5887  -14.9490 C   0  0  0  0  0  0  0  0  0  0  0  0
  -24.7882  -30.0860  -16.0703 C   0  0  0  0  0  0  0  0  0  0  0  0
  -25.5817  -29.8460  -17.1843 C   0  0  0  0  0  0  0  0  0  0  0  0
  -26.9679  -30.1333  -17.1793 C   0  0  0  0  0  0  0  0  0  0  0  0
  -26.2189  -29.2912  -21.6705 C   0  0  0  0  0  0  0  0  0  0  0  0
  -26.6034  -30.0156  -22.7936 C   0  0  0  0  0  0  0  0  0  0  0  0
  -26.3540  -29.4508  -24.0279 C   0  0  0  0  0  0  0  0  0  0  0  0
  -25.7832  -28.2383  -24.1769 N   0  0  0  0  0  0  0  0  0  0  0  0
  -25.4320  -27.5587  -23.0624 C   0  0  0  0  0  0  0  0  0  0  0  0
  -25.6459  -28.0281  -21.7836 C   0  0  0  0  0  0  0  0  0  0  0  0
  1  2  2  0
  2  3  1  0
  3  4  1  0
  4  5  2  0
  5  6  1  0
  5  7  1  0
  7  8  2  0
  8  9  1  0
  8 10  1  0
 10 11  2  0
 11 12  1  0
 12 13  2  0
 13 14  1  0
 14 15  2  0
  2 16  1  0
 16 17  2  0
 17 18  1  0
 18 19  2  0
 19 20  1  0
 20 21  2  0
 15  4  1  0
 21 16  1  0
 15 10  1  0
M  END
>  <id>  (13) 
237426

>  <inchikey>  (13) 
CCMOBNDVSHOQDZ-UHFFFAOYSA-N

>  <alias>  (13) 
None

>  <smiles>  (13) 
O=C(Nc1c(Cl)cc(Cl)c2ncccc12)c1ccncc1

>  <path>  (13) 
/opt/xchem-fragalysis-2/maxwin/RdRp_FFF/syndirella/mar_elabs/elabs_005/YAOSTISNIUSXMX-UHFFFAOYSA-N/output/YAOSTISNIUSXMX-UHFFFAOYSA-N-kzFKyu-22-A/YAOSTISNIUSXMX-UHFFFAOYSA-N-kzFKyu-22-A.minimised.mol

>  <distance_score>  (13) 
0.728044

>  <energy_score>  (13) 
-5.899421

>  <compound>  (13) 
CCMOBNDVSHOQDZ-UHFFFAOYSA-N

>  <compound_id>  (13) 
77433

>  <target>  (13) 
Flavi_NS5_RdRp

>  <tags>  (13) 
[]

>  <inspirations>  (13) 
{P × 2}

>  <subsites>  (13) 
None

>  <reference>  (13) 
z0221a

$$$$
MJGSXYCHJYMWDI-UHFFFAOYSA-N
     RDKit          3D

 21 23  0  0  0  0  0  0  0  0999 V2000
  -25.3762  -30.7887  -20.1468 O   0  0  0  0  0  0  0  0  0  0  0  0
  -26.1859  -29.9914  -20.3756 C   0  0  0  0  0  0  0  0  0  0  0  0
  -27.3350  -29.4804  -19.5228 N   0  0  0  0  0  0  0  0  0  0  0  0
  -27.7852  -29.8910  -18.2760 C   0  0  0  0  0  0  0  0  0  0  0  0
  -29.1464  -30.1852  -18.2009 C   0  0  0  0  0  0  0  0  0  0  0  0
  -30.1888  -30.1933  -19.7903 Br  0  0  0  0  0  0  0  0  0  0  0  0
  -29.6834  -30.6488  -17.0183 C   0  0  0  0  0  0  0  0  0  0  0  0
  -28.8492  -30.8338  -15.9158 C   0  0  0  0  0  0  0  0  0  0  0  0
  -29.6066  -31.4267  -14.4689 Cl  0  0  0  0  0  0  0  0  0  0  0  0
  -27.4682  -30.5922  -15.9575 C   0  0  0  0  0  0  0  0  0  0  0  0
  -26.6972  -30.8127  -14.8649 N   0  0  0  0  0  0  0  0  0  0  0  0
  -25.3715  -30.5829  -14.9342 C   0  0  0  0  0  0  0  0  0  0  0  0
  -24.7450  -30.1032  -16.0587 C   0  0  0  0  0  0  0  0  0  0  0  0
  -25.5288  -29.8574  -17.1778 C   0  0  0  0  0  0  0  0  0  0  0  0
  -26.9198  -30.1151  -17.1699 C   0  0  0  0  0  0  0  0  0  0  0  0
  -26.1952  -29.2943  -21.6787 C   0  0  0  0  0  0  0  0  0  0  0  0
  -26.5789  -30.0133  -22.8062 C   0  0  0  0  0  0  0  0  0  0  0  0
  -26.3392  -29.4384  -24.0371 C   0  0  0  0  0  0  0  0  0  0  0  0
  -25.7782  -28.2207  -24.1785 N   0  0  0  0  0  0  0  0  0  0  0  0
  -25.4303  -27.5452  -23.0602 C   0  0  0  0  0  0  0  0  0  0  0  0
  -25.6362  -28.0245  -21.7838 C   0  0  0  0  0  0  0  0  0  0  0  0
  1  2  2  0
  2  3  1  0
  3  4  1  0
  4  5  2  0
  5  6  1  0
  5  7  1  0
  7  8  2  0
  8  9  1  0
  8 10  1  0
 10 11  2  0
 11 12  1  0
 12 13  2  0
 13 14  1  0
 14 15  2  0
  2 16  1  0
 16 17  2  0
 17 18  1  0
 18 19  2  0
 19 20  1  0
 20 21  2  0
 15  4  1  0
 21 16  1  0
 15 10  1  0
M  END
>  <id>  (14) 
237427

>  <inchikey>  (14) 
MJGSXYCHJYMWDI-UHFFFAOYSA-N

>  <alias>  (14) 
None

>  <smiles>  (14) 
O=C(Nc1c(Br)cc(Cl)c2ncccc12)c1ccncc1

>  <path>  (14) 
/opt/xchem-fragalysis-2/maxwin/RdRp_FFF/syndirella/mar_elabs/elabs_005/YAOSTISNIUSXMX-UHFFFAOYSA-N/output/YAOSTISNIUSXMX-UHFFFAOYSA-N-kzFKyu-23-A/YAOSTISNIUSXMX-UHFFFAOYSA-N-kzFKyu-23-A.minimised.mol

>  <distance_score>  (14) 
0.721313

>  <energy_score>  (14) 
-3.266459

>  <compound>  (14) 
MJGSXYCHJYMWDI-UHFFFAOYSA-N

>  <compound_id>  (14) 
77434

>  <target>  (14) 
Flavi_NS5_RdRp

>  <tags>  (14) 
[]

>  <inspirations>  (14) 
{P × 2}

>  <subsites>  (14) 
None

>  <reference>  (14) 
z0221a

$$$$
UGYLWSVMJQMVSZ-UHFFFAOYSA-N
     RDKit          3D

 21 23  0  0  0  0  0  0  0  0999 V2000
  -25.5824  -30.8446  -20.1938 O   0  0  0  0  0  0  0  0  0  0  0  0
  -26.3645  -30.0069  -20.3939 C   0  0  0  0  0  0  0  0  0  0  0  0
  -27.4508  -29.4233  -19.4837 N   0  0  0  0  0  0  0  0  0  0  0  0
  -27.8571  -29.7972  -18.2072 C   0  0  0  0  0  0  0  0  0  0  0  0
  -29.2350  -29.7868  -17.9804 C   0  0  0  0  0  0  0  0  0  0  0  0
  -29.7471  -30.2577  -16.7773 C   0  0  0  0  0  0  0  0  0  0  0  0
  -28.8931  -30.7452  -15.7978 C   0  0  0  0  0  0  0  0  0  0  0  0
  -29.5956  -31.3739  -14.3502 Cl  0  0  0  0  0  0  0  0  0  0  0  0
  -27.5086  -30.7116  -15.9905 C   0  0  0  0  0  0  0  0  0  0  0  0
  -26.6485  -31.1454  -14.9633 N   0  0  0  0  0  0  0  0  0  0  0  0
  -25.2882  -31.0749  -15.0232 C   0  0  0  0  0  0  0  0  0  0  0  0
  -24.5668  -31.4179  -14.0939 O   0  0  0  0  0  0  0  0  0  0  0  0
  -24.7167  -30.5219  -16.2666 C   0  0  0  0  0  0  0  0  0  0  0  0
  -25.5013  -30.1197  -17.2744 C   0  0  0  0  0  0  0  0  0  0  0  0
  -26.9681  -30.2277  -17.1974 C   0  0  0  0  0  0  0  0  0  0  0  0
  -26.3151  -29.2919  -21.6818 C   0  0  0  0  0  0  0  0  0  0  0  0
  -26.6210  -30.0058  -22.8347 C   0  0  0  0  0  0  0  0  0  0  0  0
  -26.3161  -29.4231  -24.0473 C   0  0  0  0  0  0  0  0  0  0  0  0
  -25.7499  -28.2040  -24.1484 N   0  0  0  0  0  0  0  0  0  0  0  0
  -25.4573  -27.5403  -23.0072 C   0  0  0  0  0  0  0  0  0  0  0  0
  -25.7378  -28.0275  -21.7473 C   0  0  0  0  0  0  0  0  0  0  0  0
  1  2  2  0
  2  3  1  0
  3  4  1  0
  4  5  2  0
  5  6  1  0
  6  7  2  0
  7  8  1  0
  7  9  1  0
  9 10  1  0
 10 11  1  0
 11 12  2  0
 11 13  1  0
 13 14  2  0
 14 15  1  0
  2 16  1  0
 16 17  2  0
 17 18  1  0
 18 19  2  0
 19 20  1  0
 20 21  2  0
 15  4  1  0
 21 16  1  0
 15  9  2  0
M  END
>  <id>  (15) 
237428

>  <inchikey>  (15) 
UGYLWSVMJQMVSZ-UHFFFAOYSA-N

>  <alias>  (15) 
None

>  <smiles>  (15) 
O=C(Nc1ccc(Cl)c2[nH]c(=O)ccc12)c1ccncc1

>  <path>  (15) 
/opt/xchem-fragalysis-2/maxwin/RdRp_FFF/syndirella/mar_elabs/elabs_005/YAOSTISNIUSXMX-UHFFFAOYSA-N/output/YAOSTISNIUSXMX-UHFFFAOYSA-N-kzFKyu-29-A/YAOSTISNIUSXMX-UHFFFAOYSA-N-kzFKyu-29-A.minimised.mol

>  <distance_score>  (15) 
0.786765

>  <energy_score>  (15) 
-18.199963

>  <compound>  (15) 
UGYLWSVMJQMVSZ-UHFFFAOYSA-N

>  <compound_id>  (15) 
77436

>  <target>  (15) 
Flavi_NS5_RdRp

>  <tags>  (15) 
[]

>  <inspirations>  (15) 
{P × 2}

>  <subsites>  (15) 
None

>  <reference>  (15) 
z0221a

$$$$
JOOISOJEONDPAE-UHFFFAOYSA-N
     RDKit          3D

 21 23  0  0  0  0  0  0  0  0999 V2000
  -24.4413  -31.5221  -13.6859 C   0  0  0  0  0  0  0  0  0  0  0  0
  -25.2234  -31.0954  -14.8906 C   0  0  0  0  0  0  0  0  0  0  0  0
  -24.5760  -30.6754  -16.0354 C   0  0  0  0  0  0  0  0  0  0  0  0
  -25.3425  -30.2932  -17.1303 C   0  0  0  0  0  0  0  0  0  0  0  0
  -26.7548  -30.3348  -17.0772 C   0  0  0  0  0  0  0  0  0  0  0  0
  -27.6078  -29.9680  -18.1544 C   0  0  0  0  0  0  0  0  0  0  0  0
  -27.0916  -29.5617  -19.3857 N   0  0  0  0  0  0  0  0  0  0  0  0
  -27.8076  -29.1323  -20.6756 C   0  0  0  0  0  0  0  0  0  0  0  0
  -28.9403  -28.9750  -20.8937 O   0  0  0  0  0  0  0  0  0  0  0  0
  -26.8458  -28.9403  -21.7697 C   0  0  0  0  0  0  0  0  0  0  0  0
  -26.9828  -29.7623  -22.8841 C   0  0  0  0  0  0  0  0  0  0  0  0
  -26.2597  -29.4467  -24.0130 C   0  0  0  0  0  0  0  0  0  0  0  0
  -25.4451  -28.3787  -24.0686 N   0  0  0  0  0  0  0  0  0  0  0  0
  -25.3293  -27.6083  -22.9643 C   0  0  0  0  0  0  0  0  0  0  0  0
  -25.9826  -27.8552  -21.7753 C   0  0  0  0  0  0  0  0  0  0  0  0
  -28.9967  -30.0372  -18.0201 C   0  0  0  0  0  0  0  0  0  0  0  0
  -29.5564  -30.4731  -16.8345 C   0  0  0  0  0  0  0  0  0  0  0  0
  -28.7290  -30.8463  -15.7814 C   0  0  0  0  0  0  0  0  0  0  0  0
  -29.5210  -31.4282  -14.3504 Cl  0  0  0  0  0  0  0  0  0  0  0  0
  -27.3317  -30.7807  -15.8637 C   0  0  0  0  0  0  0  0  0  0  0  0
  -26.5682  -31.1449  -14.8051 N   0  0  0  0  0  0  0  0  0  0  0  0
  1  2  1  0
  2  3  2  0
  3  4  1  0
  4  5  2  0
  5  6  1  0
  6  7  1  0
  7  8  1  0
  8  9  2  0
  8 10  1  0
 10 11  2  0
 11 12  1  0
 12 13  2  0
 13 14  1  0
 14 15  2  0
  6 16  2  0
 16 17  1  0
 17 18  2  0
 18 19  1  0
 18 20  1  0
 20 21  2  0
 21  2  1  0
 20  5  1  0
 15 10  1  0
M  END
>  <id>  (16) 
237429

>  <inchikey>  (16) 
JOOISOJEONDPAE-UHFFFAOYSA-N

>  <alias>  (16) 
None

>  <smiles>  (16) 
Cc1ccc2c(NC(=O)c3ccncc3)ccc(Cl)c2n1

>  <path>  (16) 
/opt/xchem-fragalysis-2/maxwin/RdRp_FFF/syndirella/mar_elabs/elabs_005/YAOSTISNIUSXMX-UHFFFAOYSA-N/output/YAOSTISNIUSXMX-UHFFFAOYSA-N-kzFKyu-30-A/YAOSTISNIUSXMX-UHFFFAOYSA-N-kzFKyu-30-A.minimised.mol

>  <distance_score>  (16) 
1.077153

>  <energy_score>  (16) 
-14.009847

>  <compound>  (16) 
JOOISOJEONDPAE-UHFFFAOYSA-N

>  <compound_id>  (16) 
77437

>  <target>  (16) 
Flavi_NS5_RdRp

>  <tags>  (16) 
[]

>  <inspirations>  (16) 
{P × 2}

>  <subsites>  (16) 
None

>  <reference>  (16) 
z0221a

$$$$
PJXQTSBCVHJRKP-UHFFFAOYSA-N
     RDKit          3D

 21 23  0  0  0  0  0  0  0  0999 V2000
  -24.4910  -29.7708  -17.7447 C   0  0  0  0  0  0  0  0  0  0  0  0
  -25.4458  -30.5542  -16.8948 C   0  0  0  0  0  0  0  0  0  0  0  0
  -24.8395  -31.3401  -15.9046 C   0  0  0  0  0  0  0  0  0  0  0  0
  -25.6319  -31.9369  -14.9602 C   0  0  0  0  0  0  0  0  0  0  0  0
  -26.9604  -31.7728  -14.9198 N   0  0  0  0  0  0  0  0  0  0  0  0
  -27.5747  -31.0545  -15.8881 C   0  0  0  0  0  0  0  0  0  0  0  0
  -28.9572  -30.8624  -15.7800 C   0  0  0  0  0  0  0  0  0  0  0  0
  -29.8566  -31.5074  -14.4366 Cl  0  0  0  0  0  0  0  0  0  0  0  0
  -29.6907  -30.1450  -16.7150 C   0  0  0  0  0  0  0  0  0  0  0  0
  -29.0549  -29.6487  -17.8305 C   0  0  0  0  0  0  0  0  0  0  0  0
  -27.6783  -29.8218  -17.9890 C   0  0  0  0  0  0  0  0  0  0  0  0
  -27.2382  -29.4270  -19.2508 N   0  0  0  0  0  0  0  0  0  0  0  0
  -26.3592  -30.1593  -20.2752 C   0  0  0  0  0  0  0  0  0  0  0  0
  -25.7987  -31.1767  -20.1985 O   0  0  0  0  0  0  0  0  0  0  0  0
  -26.2866  -29.3871  -21.5417 C   0  0  0  0  0  0  0  0  0  0  0  0
  -26.5969  -30.0501  -22.7274 C   0  0  0  0  0  0  0  0  0  0  0  0
  -26.3066  -29.4160  -23.9194 C   0  0  0  0  0  0  0  0  0  0  0  0
  -25.7550  -28.1868  -23.9783 N   0  0  0  0  0  0  0  0  0  0  0  0
  -25.4697  -27.5666  -22.8108 C   0  0  0  0  0  0  0  0  0  0  0  0
  -25.7344  -28.1088  -21.5676 C   0  0  0  0  0  0  0  0  0  0  0  0
  -26.8779  -30.4721  -16.9837 C   0  0  0  0  0  0  0  0  0  0  0  0
  1  2  1  0
  2  3  2  0
  3  4  1  0
  4  5  2  0
  5  6  1  0
  6  7  2  0
  7  8  1  0
  7  9  1  0
  9 10  2  0
 10 11  1  0
 11 12  1  0
 12 13  1  0
 13 14  2  0
 13 15  1  0
 15 16  2  0
 16 17  1  0
 17 18  2  0
 18 19  1  0
 19 20  2  0
 11 21  2  0
 21  2  1  0
 21  6  1  0
 20 15  1  0
M  END
>  <id>  (17) 
237430

>  <inchikey>  (17) 
PJXQTSBCVHJRKP-UHFFFAOYSA-N

>  <alias>  (17) 
None

>  <smiles>  (17) 
Cc1ccnc2c(Cl)ccc(NC(=O)c3ccncc3)c12

>  <path>  (17) 
/opt/xchem-fragalysis-2/maxwin/RdRp_FFF/syndirella/mar_elabs/elabs_005/YAOSTISNIUSXMX-UHFFFAOYSA-N/output/YAOSTISNIUSXMX-UHFFFAOYSA-N-kzFKyu-33-A/YAOSTISNIUSXMX-UHFFFAOYSA-N-kzFKyu-33-A.minimised.mol

>  <distance_score>  (17) 
1.022544

>  <energy_score>  (17) 
-12.139219

>  <compound>  (17) 
PJXQTSBCVHJRKP-UHFFFAOYSA-N

>  <compound_id>  (17) 
77438

>  <target>  (17) 
Flavi_NS5_RdRp

>  <tags>  (17) 
[]

>  <inspirations>  (17) 
{P × 2}

>  <subsites>  (17) 
None

>  <reference>  (17) 
z0221a

$$$$
LLLFWPJPPOVANX-UHFFFAOYSA-N
     RDKit          3D

 21 23  0  0  0  0  0  0  0  0999 V2000
  -30.5652  -30.4108  -15.9208 C   0  0  0  0  0  0  0  0  0  0  0  0
  -29.1441  -30.4870  -16.3605 C   0  0  0  0  0  0  0  0  0  0  0  0
  -28.7538  -29.8730  -17.5504 C   0  0  0  0  0  0  0  0  0  0  0  0
  -27.4459  -30.0178  -17.9995 C   0  0  0  0  0  0  0  0  0  0  0  0
  -27.1792  -29.5600  -19.2900 N   0  0  0  0  0  0  0  0  0  0  0  0
  -26.3476  -30.1876  -20.4202 C   0  0  0  0  0  0  0  0  0  0  0  0
  -25.6893  -31.1491  -20.4295 O   0  0  0  0  0  0  0  0  0  0  0  0
  -26.3398  -29.3501  -21.6385 C   0  0  0  0  0  0  0  0  0  0  0  0
  -26.5925  -29.9893  -22.8496 C   0  0  0  0  0  0  0  0  0  0  0  0
  -26.2656  -29.3282  -24.0145 C   0  0  0  0  0  0  0  0  0  0  0  0
  -25.7252  -28.0935  -24.0199 N   0  0  0  0  0  0  0  0  0  0  0  0
  -25.4898  -27.4971  -22.8288 C   0  0  0  0  0  0  0  0  0  0  0  0
  -25.7965  -28.0691  -21.6095 C   0  0  0  0  0  0  0  0  0  0  0  0
  -26.4742  -30.6928  -17.2060 C   0  0  0  0  0  0  0  0  0  0  0  0
  -25.0974  -30.7571  -17.5086 C   0  0  0  0  0  0  0  0  0  0  0  0
  -24.2149  -31.4581  -16.6975 C   0  0  0  0  0  0  0  0  0  0  0  0
  -24.7070  -32.0625  -15.5701 C   0  0  0  0  0  0  0  0  0  0  0  0
  -25.9968  -31.9888  -15.2128 N   0  0  0  0  0  0  0  0  0  0  0  0
  -26.8700  -31.3202  -16.0051 C   0  0  0  0  0  0  0  0  0  0  0  0
  -28.2108  -31.2402  -15.6334 C   0  0  0  0  0  0  0  0  0  0  0  0
  -28.7430  -32.1327  -14.2267 Cl  0  0  0  0  0  0  0  0  0  0  0  0
  1  2  1  0
  2  3  2  0
  3  4  1  0
  4  5  1  0
  5  6  1  0
  6  7  2  0
  6  8  1  0
  8  9  2  0
  9 10  1  0
 10 11  2  0
 11 12  1  0
 12 13  2  0
  4 14  2  0
 14 15  1  0
 15 16  2  0
 16 17  1  0
 17 18  2  0
 18 19  1  0
 19 20  2  0
 20 21  1  0
 20  2  1  0
 13  8  1  0
 19 14  1  0
M  END
>  <id>  (18) 
237431

>  <inchikey>  (18) 
LLLFWPJPPOVANX-UHFFFAOYSA-N

>  <alias>  (18) 
None

>  <smiles>  (18) 
Cc1cc(NC(=O)c2ccncc2)c2cccnc2c1Cl

>  <path>  (18) 
/opt/xchem-fragalysis-2/maxwin/RdRp_FFF/syndirella/mar_elabs/elabs_005/YAOSTISNIUSXMX-UHFFFAOYSA-N/output/YAOSTISNIUSXMX-UHFFFAOYSA-N-kzFKyu-34-A/YAOSTISNIUSXMX-UHFFFAOYSA-N-kzFKyu-34-A.minimised.mol

>  <distance_score>  (18) 
1.120834

>  <energy_score>  (18) 
-4.325813

>  <compound>  (18) 
LLLFWPJPPOVANX-UHFFFAOYSA-N

>  <compound_id>  (18) 
77439

>  <target>  (18) 
Flavi_NS5_RdRp

>  <tags>  (18) 
[]

>  <inspirations>  (18) 
{P × 2}

>  <subsites>  (18) 
None

>  <reference>  (18) 
z0221a

$$$$
DDDOBXYHZMTNAM-UHFFFAOYSA-N
     RDKit          3D

 21 23  0  0  0  0  0  0  0  0999 V2000
  -28.9763  -29.3108  -20.9051 O   0  0  0  0  0  0  0  0  0  0  0  0
  -27.8388  -29.2823  -20.6587 C   0  0  0  0  0  0  0  0  0  0  0  0
  -27.0966  -29.5670  -19.3429 N   0  0  0  0  0  0  0  0  0  0  0  0
  -27.5734  -30.0250  -18.1137 C   0  0  0  0  0  0  0  0  0  0  0  0
  -28.9316  -30.3211  -18.0016 C   0  0  0  0  0  0  0  0  0  0  0  0
  -29.4135  -30.8470  -16.8206 C   0  0  0  0  0  0  0  0  0  0  0  0
  -30.7054  -31.1834  -16.7404 F   0  0  0  0  0  0  0  0  0  0  0  0
  -28.5722  -31.0623  -15.7386 C   0  0  0  0  0  0  0  0  0  0  0  0
  -29.2670  -31.7547  -14.3057 Cl  0  0  0  0  0  0  0  0  0  0  0  0
  -27.2109  -30.7565  -15.8034 C   0  0  0  0  0  0  0  0  0  0  0  0
  -26.4172  -30.9714  -14.7273 N   0  0  0  0  0  0  0  0  0  0  0  0
  -25.1062  -30.6850  -14.8013 C   0  0  0  0  0  0  0  0  0  0  0  0
  -24.5118  -30.1734  -15.9288 C   0  0  0  0  0  0  0  0  0  0  0  0
  -25.3078  -29.9506  -17.0446 C   0  0  0  0  0  0  0  0  0  0  0  0
  -26.6937  -30.2331  -17.0155 C   0  0  0  0  0  0  0  0  0  0  0  0
  -26.8855  -28.9806  -21.7415 C   0  0  0  0  0  0  0  0  0  0  0  0
  -26.9804  -29.7526  -22.8955 C   0  0  0  0  0  0  0  0  0  0  0  0
  -26.2356  -29.3818  -23.9929 C   0  0  0  0  0  0  0  0  0  0  0  0
  -25.4350  -28.3016  -23.9829 N   0  0  0  0  0  0  0  0  0  0  0  0
  -25.3580  -27.5773  -22.8447 C   0  0  0  0  0  0  0  0  0  0  0  0
  -26.0397  -27.8824  -21.6845 C   0  0  0  0  0  0  0  0  0  0  0  0
  1  2  2  0
  2  3  1  0
  3  4  1  0
  4  5  2  0
  5  6  1  0
  6  7  1  0
  6  8  2  0
  8  9  1  0
  8 10  1  0
 10 11  2  0
 11 12  1  0
 12 13  2  0
 13 14  1  0
 14 15  2  0
  2 16  1  0
 16 17  2  0
 17 18  1  0
 18 19  2  0
 19 20  1  0
 20 21  2  0
 15  4  1  0
 21 16  1  0
 15 10  1  0
M  END
>  <id>  (19) 
237432

>  <inchikey>  (19) 
DDDOBXYHZMTNAM-UHFFFAOYSA-N

>  <alias>  (19) 
None

>  <smiles>  (19) 
O=C(Nc1cc(F)c(Cl)c2ncccc12)c1ccncc1

>  <path>  (19) 
/opt/xchem-fragalysis-2/maxwin/RdRp_FFF/syndirella/mar_elabs/elabs_005/YAOSTISNIUSXMX-UHFFFAOYSA-N/output/YAOSTISNIUSXMX-UHFFFAOYSA-N-kzFKyu-35-A/YAOSTISNIUSXMX-UHFFFAOYSA-N-kzFKyu-35-A.minimised.mol

>  <distance_score>  (19) 
1.070683

>  <energy_score>  (19) 
-12.761791

>  <compound>  (19) 
DDDOBXYHZMTNAM-UHFFFAOYSA-N

>  <compound_id>  (19) 
77440

>  <target>  (19) 
Flavi_NS5_RdRp

>  <tags>  (19) 
[]

>  <inspirations>  (19) 
{P × 2}

>  <subsites>  (19) 
None

>  <reference>  (19) 
z0221a

$$$$
AVUUTDAGFHPXPJ-UHFFFAOYSA-N
     RDKit          3D

 22 24  0  0  0  0  0  0  0  0999 V2000
  -25.6674  -31.1552  -19.8730 O   0  0  0  0  0  0  0  0  0  0  0  0
  -26.4511  -30.3291  -20.1131 C   0  0  0  0  0  0  0  0  0  0  0  0
  -27.5319  -29.6957  -19.2279 N   0  0  0  0  0  0  0  0  0  0  0  0
  -27.9287  -29.9986  -17.9317 C   0  0  0  0  0  0  0  0  0  0  0  0
  -29.2990  -29.9118  -17.7016 C   0  0  0  0  0  0  0  0  0  0  0  0
  -29.8052  -30.3541  -16.4963 C   0  0  0  0  0  0  0  0  0  0  0  0
  -28.9455  -30.8727  -15.5297 C   0  0  0  0  0  0  0  0  0  0  0  0
  -29.6991  -31.4971  -14.0947 Cl  0  0  0  0  0  0  0  0  0  0  0  0
  -27.5546  -30.9007  -15.6911 C   0  0  0  0  0  0  0  0  0  0  0  0
  -26.7550  -31.3472  -14.6899 N   0  0  0  0  0  0  0  0  0  0  0  0
  -25.4178  -31.3223  -14.8519 C   0  0  0  0  0  0  0  0  0  0  0  0
  -24.8018  -30.8384  -15.9805 C   0  0  0  0  0  0  0  0  0  0  0  0
  -25.6150  -30.3844  -17.0104 C   0  0  0  0  0  0  0  0  0  0  0  0
  -27.0276  -30.4342  -16.9155 C   0  0  0  0  0  0  0  0  0  0  0  0
  -26.4189  -29.6810  -21.4263 C   0  0  0  0  0  0  0  0  0  0  0  0
  -26.6280  -30.4630  -22.5588 C   0  0  0  0  0  0  0  0  0  0  0  0
  -26.3396  -29.9220  -23.8053 C   0  0  0  0  0  0  0  0  0  0  0  0
  -25.8386  -28.6511  -23.9157 N   0  0  0  0  0  0  0  0  0  0  0  0
  -25.6130  -28.1516  -25.0412 O   0  0  0  0  0  0  0  0  0  0  0  0
  -25.6487  -27.8860  -22.7638 C   0  0  0  0  0  0  0  0  0  0  0  0
  -25.1796  -26.6048  -22.8692 O   0  0  0  0  0  0  0  0  0  0  0  0
  -25.9574  -28.3730  -21.5087 C   0  0  0  0  0  0  0  0  0  0  0  0
  1  2  2  0
  2  3  1  0
  3  4  1  0
  4  5  2  0
  5  6  1  0
  6  7  2  0
  7  8  1  0
  7  9  1  0
  9 10  2  0
 10 11  1  0
 11 12  2  0
 12 13  1  0
 13 14  2  0
  2 15  1  0
 15 16  2  0
 16 17  1  0
 17 18  2  0
 18 19  1  0
 18 20  1  0
 20 21  1  0
 20 22  2  0
 14  4  1  0
 22 15  1  0
 14  9  1  0
M  CHG  2  18   1  19  -1
M  END
>  <id>  (20) 
237433

>  <inchikey>  (20) 
AVUUTDAGFHPXPJ-UHFFFAOYSA-N

>  <alias>  (20) 
None

>  <smiles>  (20) 
O=C(Nc1ccc(Cl)c2ncccc12)c1cc[n+]([O-])c(O)c1

>  <path>  (20) 
/opt/xchem-fragalysis-2/maxwin/RdRp_FFF/syndirella/mar_elabs/elabs_005/YAOSTISNIUSXMX-UHFFFAOYSA-N/output/YAOSTISNIUSXMX-UHFFFAOYSA-N-kzFKyu-38-A/YAOSTISNIUSXMX-UHFFFAOYSA-N-kzFKyu-38-A.minimised.mol

>  <distance_score>  (20) 
1.013425

>  <energy_score>  (20) 
-29.844966

>  <compound>  (20) 
AVUUTDAGFHPXPJ-UHFFFAOYSA-N

>  <compound_id>  (20) 
77441

>  <target>  (20) 
Flavi_NS5_RdRp

>  <tags>  (20) 
[]

>  <inspirations>  (20) 
{P × 2}

>  <subsites>  (20) 
None

>  <reference>  (20) 
z0221a

$$$$
CVJLDESCBYRUSZ-UHFFFAOYSA-N
     RDKit          3D

 22 24  0  0  0  0  0  0  0  0999 V2000
  -28.9206  -28.9972  -20.8794 O   0  0  0  0  0  0  0  0  0  0  0  0
  -27.7856  -29.0802  -20.6312 C   0  0  0  0  0  0  0  0  0  0  0  0
  -27.0769  -29.4386  -19.3159 N   0  0  0  0  0  0  0  0  0  0  0  0
  -27.5979  -29.8510  -18.0883 C   0  0  0  0  0  0  0  0  0  0  0  0
  -28.9873  -29.9074  -17.9549 C   0  0  0  0  0  0  0  0  0  0  0  0
  -29.5530  -30.3807  -16.7866 C   0  0  0  0  0  0  0  0  0  0  0  0
  -28.7301  -30.8065  -15.7501 C   0  0  0  0  0  0  0  0  0  0  0  0
  -29.5282  -31.4395  -14.3443 Cl  0  0  0  0  0  0  0  0  0  0  0  0
  -27.3317  -30.7521  -15.8293 C   0  0  0  0  0  0  0  0  0  0  0  0
  -26.5710  -31.1681  -14.7873 N   0  0  0  0  0  0  0  0  0  0  0  0
  -25.2302  -31.1229  -14.8869 C   0  0  0  0  0  0  0  0  0  0  0  0
  -24.5704  -30.6610  -16.0008 C   0  0  0  0  0  0  0  0  0  0  0  0
  -25.3344  -30.2247  -17.0756 C   0  0  0  0  0  0  0  0  0  0  0  0
  -26.7488  -30.2620  -17.0244 C   0  0  0  0  0  0  0  0  0  0  0  0
  -26.8255  -28.9218  -21.7293 C   0  0  0  0  0  0  0  0  0  0  0  0
  -26.9014  -29.8855  -22.7268 C   0  0  0  0  0  0  0  0  0  0  0  0
  -26.1286  -29.6944  -23.8447 C   0  0  0  0  0  0  0  0  0  0  0  0
  -25.8475  -30.9933  -24.9156 Cl  0  0  0  0  0  0  0  0  0  0  0  0
  -25.3821  -28.5999  -24.0601 N   0  0  0  0  0  0  0  0  0  0  0  0
  -25.3184  -27.6946  -23.0614 C   0  0  0  0  0  0  0  0  0  0  0  0
  -25.9679  -27.8387  -21.8492 C   0  0  0  0  0  0  0  0  0  0  0  0
  -25.8080  -26.9581  -20.8300 O   0  0  0  0  0  0  0  0  0  0  0  0
  1  2  2  0
  2  3  1  0
  3  4  1  0
  4  5  2  0
  5  6  1  0
  6  7  2  0
  7  8  1  0
  7  9  1  0
  9 10  2  0
 10 11  1  0
 11 12  2  0
 12 13  1  0
 13 14  2  0
  2 15  1  0
 15 16  2  0
 16 17  1  0
 17 18  1  0
 17 19  2  0
 19 20  1  0
 20 21  2  0
 21 22  1  0
 14  4  1  0
 21 15  1  0
 14  9  1  0
M  END
>  <id>  (21) 
237434

>  <inchikey>  (21) 
CVJLDESCBYRUSZ-UHFFFAOYSA-N

>  <alias>  (21) 
None

>  <smiles>  (21) 
O=C(Nc1ccc(Cl)c2ncccc12)c1cc(Cl)ncc1O

>  <path>  (21) 
/opt/xchem-fragalysis-2/maxwin/RdRp_FFF/syndirella/mar_elabs/elabs_005/YAOSTISNIUSXMX-UHFFFAOYSA-N/output/YAOSTISNIUSXMX-UHFFFAOYSA-N-kzFKyu-39-A/YAOSTISNIUSXMX-UHFFFAOYSA-N-kzFKyu-39-A.minimised.mol

>  <distance_score>  (21) 
1.106082

>  <energy_score>  (21) 
-17.137135

>  <compound>  (21) 
CVJLDESCBYRUSZ-UHFFFAOYSA-N

>  <compound_id>  (21) 
77442

>  <target>  (21) 
Flavi_NS5_RdRp

>  <tags>  (21) 
[]

>  <inspirations>  (21) 
{P × 2}

>  <subsites>  (21) 
None

>  <reference>  (21) 
z0221a

$$$$
ZEYRBNDBLVWNBP-UHFFFAOYSA-N
     RDKit          3D

 22 24  0  0  0  0  0  0  0  0999 V2000
  -25.3029  -26.4610  -22.8601 N   0  0  0  0  0  0  0  0  0  0  0  0
  -25.6924  -27.7979  -22.8334 C   0  0  0  0  0  0  0  0  0  0  0  0
  -25.8050  -28.4257  -24.0152 N   0  0  0  0  0  0  0  0  0  0  0  0
  -26.2315  -29.6996  -23.9974 C   0  0  0  0  0  0  0  0  0  0  0  0
  -26.5298  -30.3725  -22.8280 C   0  0  0  0  0  0  0  0  0  0  0  0
  -26.4206  -29.6795  -21.6273 C   0  0  0  0  0  0  0  0  0  0  0  0
  -26.5253  -30.4455  -20.3785 C   0  0  0  0  0  0  0  0  0  0  0  0
  -25.7727  -31.3104  -20.1698 O   0  0  0  0  0  0  0  0  0  0  0  0
  -27.6301  -29.8472  -19.4889 N   0  0  0  0  0  0  0  0  0  0  0  0
  -27.9683  -30.1134  -18.1666 C   0  0  0  0  0  0  0  0  0  0  0  0
  -29.3253  -29.9820  -17.8831 C   0  0  0  0  0  0  0  0  0  0  0  0
  -29.7919  -30.3496  -16.6374 C   0  0  0  0  0  0  0  0  0  0  0  0
  -28.9065  -30.8371  -15.6795 C   0  0  0  0  0  0  0  0  0  0  0  0
  -29.6181  -31.3790  -14.1918 Cl  0  0  0  0  0  0  0  0  0  0  0  0
  -27.5242  -30.8965  -15.8907 C   0  0  0  0  0  0  0  0  0  0  0  0
  -26.6982  -31.2930  -14.8903 N   0  0  0  0  0  0  0  0  0  0  0  0
  -25.3674  -31.2973  -15.0955 C   0  0  0  0  0  0  0  0  0  0  0  0
  -24.7842  -30.8889  -16.2698 C   0  0  0  0  0  0  0  0  0  0  0  0
  -25.6250  -30.4858  -17.3001 C   0  0  0  0  0  0  0  0  0  0  0  0
  -27.0350  -30.5089  -17.1600 C   0  0  0  0  0  0  0  0  0  0  0  0
  -26.0609  -28.3378  -21.5963 C   0  0  0  0  0  0  0  0  0  0  0  0
  -25.7943  -27.6099  -20.4132 N   0  0  0  0  0  0  0  0  0  0  0  0
  1  2  1  0
  2  3  2  0
  3  4  1  0
  4  5  2  0
  5  6  1  0
  6  7  1  0
  7  8  2  0
  7  9  1  0
  9 10  1  0
 10 11  2  0
 11 12  1  0
 12 13  2  0
 13 14  1  0
 13 15  1  0
 15 16  2  0
 16 17  1  0
 17 18  2  0
 18 19  1  0
 19 20  2  0
  6 21  2  0
 21 22  1  0
 21  2  1  0
 20 10  1  0
 20 15  1  0
M  END
>  <id>  (22) 
237435

>  <inchikey>  (22) 
ZEYRBNDBLVWNBP-UHFFFAOYSA-N

>  <alias>  (22) 
None

>  <smiles>  (22) 
Nc1nccc(C(=O)Nc2ccc(Cl)c3ncccc23)c1N

>  <path>  (22) 
/opt/xchem-fragalysis-2/maxwin/RdRp_FFF/syndirella/mar_elabs/elabs_005/YAOSTISNIUSXMX-UHFFFAOYSA-N/output/YAOSTISNIUSXMX-UHFFFAOYSA-N-kzFKyu-41-A/YAOSTISNIUSXMX-UHFFFAOYSA-N-kzFKyu-41-A.minimised.mol

>  <distance_score>  (22) 
0.881158

>  <energy_score>  (22) 
-51.936855

>  <compound>  (22) 
ZEYRBNDBLVWNBP-UHFFFAOYSA-N

>  <compound_id>  (22) 
77444

>  <target>  (22) 
Flavi_NS5_RdRp

>  <tags>  (22) 
[]

>  <inspirations>  (22) 
{P × 2}

>  <subsites>  (22) 
None

>  <reference>  (22) 
z0221a

$$$$
SCHDDTPOXGQVEZ-UHFFFAOYSA-N
     RDKit          3D

 22 24  0  0  0  0  0  0  0  0999 V2000
  -25.6145  -26.9944  -20.6189 N   0  0  0  0  0  0  0  0  0  0  0  0
  -25.7479  -27.9270  -21.6484 C   0  0  0  0  0  0  0  0  0  0  0  0
  -25.4911  -27.5782  -22.9723 C   0  0  0  0  0  0  0  0  0  0  0  0
  -25.6681  -28.3989  -24.0328 N   0  0  0  0  0  0  0  0  0  0  0  0
  -26.1654  -29.6183  -23.7727 C   0  0  0  0  0  0  0  0  0  0  0  0
  -25.9627  -30.7783  -25.0012 Cl  0  0  0  0  0  0  0  0  0  0  0  0
  -26.5732  -30.0457  -22.5337 C   0  0  0  0  0  0  0  0  0  0  0  0
  -26.3272  -29.1889  -21.4675 C   0  0  0  0  0  0  0  0  0  0  0  0
  -26.3361  -29.8394  -20.1480 C   0  0  0  0  0  0  0  0  0  0  0  0
  -25.4937  -30.6086  -19.9182 O   0  0  0  0  0  0  0  0  0  0  0  0
  -27.5487  -29.4165  -19.3149 N   0  0  0  0  0  0  0  0  0  0  0  0
  -27.9246  -29.7673  -18.0194 C   0  0  0  0  0  0  0  0  0  0  0  0
  -29.3001  -29.7953  -17.8061 C   0  0  0  0  0  0  0  0  0  0  0  0
  -29.7908  -30.2982  -16.6172 C   0  0  0  0  0  0  0  0  0  0  0  0
  -28.9145  -30.7791  -15.6483 C   0  0  0  0  0  0  0  0  0  0  0  0
  -29.6446  -31.4669  -14.2301 Cl  0  0  0  0  0  0  0  0  0  0  0  0
  -27.5254  -30.7192  -15.7945 C   0  0  0  0  0  0  0  0  0  0  0  0
  -26.7202  -31.1538  -14.7930 N   0  0  0  0  0  0  0  0  0  0  0  0
  -25.3851  -31.0543  -14.9273 C   0  0  0  0  0  0  0  0  0  0  0  0
  -24.7803  -30.4983  -16.0264 C   0  0  0  0  0  0  0  0  0  0  0  0
  -25.6007  -30.0490  -17.0541 C   0  0  0  0  0  0  0  0  0  0  0  0
  -27.0108  -30.1805  -16.9972 C   0  0  0  0  0  0  0  0  0  0  0  0
  1  2  1  0
  2  3  2  0
  3  4  1  0
  4  5  2  0
  5  6  1  0
  5  7  1  0
  7  8  2  0
  8  9  1  0
  9 10  2  0
  9 11  1  0
 11 12  1  0
 12 13  2  0
 13 14  1  0
 14 15  2  0
 15 16  1  0
 15 17  1  0
 17 18  2  0
 18 19  1  0
 19 20  2  0
 20 21  1  0
 21 22  2  0
  8  2  1  0
 22 12  1  0
 22 17  1  0
M  END
>  <id>  (23) 
237436

>  <inchikey>  (23) 
SCHDDTPOXGQVEZ-UHFFFAOYSA-N

>  <alias>  (23) 
None

>  <smiles>  (23) 
Nc1cnc(Cl)cc1C(=O)Nc1ccc(Cl)c2ncccc12

>  <path>  (23) 
/opt/xchem-fragalysis-2/maxwin/RdRp_FFF/syndirella/mar_elabs/elabs_005/YAOSTISNIUSXMX-UHFFFAOYSA-N/output/YAOSTISNIUSXMX-UHFFFAOYSA-N-kzFKyu-42-A/YAOSTISNIUSXMX-UHFFFAOYSA-N-kzFKyu-42-A.minimised.mol

>  <distance_score>  (23) 
0.930037

>  <energy_score>  (23) 
-26.158938

>  <compound>  (23) 
SCHDDTPOXGQVEZ-UHFFFAOYSA-N

>  <compound_id>  (23) 
77445

>  <target>  (23) 
Flavi_NS5_RdRp

>  <tags>  (23) 
[]

>  <inspirations>  (23) 
{P × 2}

>  <subsites>  (23) 
None

>  <reference>  (23) 
z0221a

$$$$
XFZJRAQUFMYNIR-UHFFFAOYSA-N
     RDKit          3D

 22 24  0  0  0  0  0  0  0  0999 V2000
  -25.6260  -31.0008  -19.9802 O   0  0  0  0  0  0  0  0  0  0  0  0
  -26.4148  -30.1725  -20.1954 C   0  0  0  0  0  0  0  0  0  0  0  0
  -27.5034  -29.5765  -19.2934 N   0  0  0  0  0  0  0  0  0  0  0  0
  -27.9030  -29.9260  -18.0080 C   0  0  0  0  0  0  0  0  0  0  0  0
  -29.2748  -29.8622  -17.7800 C   0  0  0  0  0  0  0  0  0  0  0  0
  -29.7799  -30.3215  -16.5799 C   0  0  0  0  0  0  0  0  0  0  0  0
  -28.9186  -30.8403  -15.6153 C   0  0  0  0  0  0  0  0  0  0  0  0
  -29.6683  -31.4715  -14.1812 Cl  0  0  0  0  0  0  0  0  0  0  0  0
  -27.5284  -30.8605  -15.7772 C   0  0  0  0  0  0  0  0  0  0  0  0
  -26.7297  -31.3154  -14.7792 N   0  0  0  0  0  0  0  0  0  0  0  0
  -25.3929  -31.2866  -14.9389 C   0  0  0  0  0  0  0  0  0  0  0  0
  -24.7770  -30.7886  -16.0611 C   0  0  0  0  0  0  0  0  0  0  0  0
  -25.5894  -30.3223  -17.0865 C   0  0  0  0  0  0  0  0  0  0  0  0
  -27.0019  -30.3756  -16.9960 C   0  0  0  0  0  0  0  0  0  0  0  0
  -26.3768  -29.4776  -21.4850 C   0  0  0  0  0  0  0  0  0  0  0  0
  -26.5827  -30.2150  -22.6397 C   0  0  0  0  0  0  0  0  0  0  0  0
  -26.2597  -29.5982  -23.8238 C   0  0  0  0  0  0  0  0  0  0  0  0
  -26.3753  -30.2814  -24.9834 O   0  0  0  0  0  0  0  0  0  0  0  0
  -25.7783  -28.3543  -23.9444 N   0  0  0  0  0  0  0  0  0  0  0  0
  -25.6102  -27.6966  -22.7864 C   0  0  0  0  0  0  0  0  0  0  0  0
  -25.1542  -26.4337  -22.9159 O   0  0  0  0  0  0  0  0  0  0  0  0
  -25.9059  -28.1745  -21.5353 C   0  0  0  0  0  0  0  0  0  0  0  0
  1  2  2  0
  2  3  1  0
  3  4  1  0
  4  5  2  0
  5  6  1  0
  6  7  2  0
  7  8  1  0
  7  9  1  0
  9 10  2  0
 10 11  1  0
 11 12  2  0
 12 13  1  0
 13 14  2  0
  2 15  1  0
 15 16  2  0
 16 17  1  0
 17 18  1  0
 17 19  2  0
 19 20  1  0
 20 21  1  0
 20 22  2  0
 14  4  1  0
 22 15  1  0
 14  9  1  0
M  END
>  <id>  (24) 
237437

>  <inchikey>  (24) 
XFZJRAQUFMYNIR-UHFFFAOYSA-N

>  <alias>  (24) 
None

>  <smiles>  (24) 
O=C(Nc1ccc(Cl)c2ncccc12)c1cc(O)nc(O)c1

>  <path>  (24) 
/opt/xchem-fragalysis-2/maxwin/RdRp_FFF/syndirella/mar_elabs/elabs_005/YAOSTISNIUSXMX-UHFFFAOYSA-N/output/YAOSTISNIUSXMX-UHFFFAOYSA-N-kzFKyu-45-A/YAOSTISNIUSXMX-UHFFFAOYSA-N-kzFKyu-45-A.minimised.mol

>  <distance_score>  (24) 
0.938081

>  <energy_score>  (24) 
-24.390523

>  <compound>  (24) 
XFZJRAQUFMYNIR-UHFFFAOYSA-N

>  <compound_id>  (24) 
77447

>  <target>  (24) 
Flavi_NS5_RdRp

>  <tags>  (24) 
[]

>  <inspirations>  (24) 
{P × 2}

>  <subsites>  (24) 
None

>  <reference>  (24) 
z0221a

$$$$
LOLNESLSWHRDKX-UHFFFAOYSA-N
     RDKit          3D

 22 24  0  0  0  0  0  0  0  0999 V2000
  -26.0045  -31.8834  -19.8854 O   0  0  0  0  0  0  0  0  0  0  0  0
  -26.6871  -30.9688  -20.1152 C   0  0  0  0  0  0  0  0  0  0  0  0
  -27.7332  -30.2586  -19.2375 N   0  0  0  0  0  0  0  0  0  0  0  0
  -28.0786  -30.4569  -17.9120 C   0  0  0  0  0  0  0  0  0  0  0  0
  -29.4247  -30.2490  -17.6266 C   0  0  0  0  0  0  0  0  0  0  0  0
  -29.8921  -30.5623  -16.3681 C   0  0  0  0  0  0  0  0  0  0  0  0
  -29.0114  -31.0479  -15.4030 C   0  0  0  0  0  0  0  0  0  0  0  0
  -29.7307  -31.5460  -13.9030 Cl  0  0  0  0  0  0  0  0  0  0  0  0
  -27.6296  -31.1458  -15.6167 C   0  0  0  0  0  0  0  0  0  0  0  0
  -26.7991  -31.5165  -14.6099 N   0  0  0  0  0  0  0  0  0  0  0  0
  -25.4690  -31.5439  -14.8263 C   0  0  0  0  0  0  0  0  0  0  0  0
  -24.8886  -31.1941  -16.0220 C   0  0  0  0  0  0  0  0  0  0  0  0
  -25.7343  -30.8317  -17.0620 C   0  0  0  0  0  0  0  0  0  0  0  0
  -27.1434  -30.8257  -16.9020 C   0  0  0  0  0  0  0  0  0  0  0  0
  -26.5463  -30.2408  -21.3789 C   0  0  0  0  0  0  0  0  0  0  0  0
  -26.5556  -30.8787  -22.6054 C   0  0  0  0  0  0  0  0  0  0  0  0
  -26.2752  -30.1323  -23.7538 C   0  0  0  0  0  0  0  0  0  0  0  0
  -25.9241  -28.8010  -23.6755 N   0  0  0  0  0  0  0  0  0  0  0  0
  -25.7228  -28.1493  -24.7306 O   0  0  0  0  0  0  0  0  0  0  0  0
  -25.8542  -28.2068  -22.4143 C   0  0  0  0  0  0  0  0  0  0  0  0
  -25.3337  -26.5506  -22.1839 S   0  0  0  0  0  0  0  0  0  0  0  0
  -26.1999  -28.9047  -21.2720 C   0  0  0  0  0  0  0  0  0  0  0  0
  1  2  2  0
  2  3  1  0
  3  4  1  0
  4  5  2  0
  5  6  1  0
  6  7  2  0
  7  8  1  0
  7  9  1  0
  9 10  2  0
 10 11  1  0
 11 12  2  0
 12 13  1  0
 13 14  2  0
  2 15  1  0
 15 16  2  0
 16 17  1  0
 17 18  2  0
 18 19  1  0
 18 20  1  0
 20 21  1  0
 20 22  2  0
 14  4  1  0
 22 15  1  0
 14  9  1  0
M  CHG  2  18   1  19  -1
M  END
>  <id>  (25) 
237438

>  <inchikey>  (25) 
LOLNESLSWHRDKX-UHFFFAOYSA-N

>  <alias>  (25) 
None

>  <smiles>  (25) 
O=C(Nc1ccc(Cl)c2ncccc12)c1cc[n+]([O-])c(S)c1

>  <path>  (25) 
/opt/xchem-fragalysis-2/maxwin/RdRp_FFF/syndirella/mar_elabs/elabs_005/YAOSTISNIUSXMX-UHFFFAOYSA-N/output/YAOSTISNIUSXMX-UHFFFAOYSA-N-kzFKyu-47-A/YAOSTISNIUSXMX-UHFFFAOYSA-N-kzFKyu-47-A.minimised.mol

>  <distance_score>  (25) 
1.246914

>  <energy_score>  (25) 
-18.113681

>  <compound>  (25) 
LOLNESLSWHRDKX-UHFFFAOYSA-N

>  <compound_id>  (25) 
77448

>  <target>  (25) 
Flavi_NS5_RdRp

>  <tags>  (25) 
[]

>  <inspirations>  (25) 
{P × 2}

>  <subsites>  (25) 
None

>  <reference>  (25) 
z0221a

$$$$
UUZOCBLDCXYIKZ-UHFFFAOYSA-N
     RDKit          3D

 22 24  0  0  0  0  0  0  0  0999 V2000
  -25.5967  -30.8502  -20.1950 O   0  0  0  0  0  0  0  0  0  0  0  0
  -26.3863  -30.0166  -20.3870 C   0  0  0  0  0  0  0  0  0  0  0  0
  -27.4767  -29.4484  -19.4691 N   0  0  0  0  0  0  0  0  0  0  0  0
  -27.8782  -29.8365  -18.1922 C   0  0  0  0  0  0  0  0  0  0  0  0
  -29.2495  -29.7976  -17.9618 C   0  0  0  0  0  0  0  0  0  0  0  0
  -29.7465  -30.2568  -16.7572 C   0  0  0  0  0  0  0  0  0  0  0  0
  -28.8800  -30.7611  -15.7901 C   0  0  0  0  0  0  0  0  0  0  0  0
  -29.6191  -31.3770  -14.3443 Cl  0  0  0  0  0  0  0  0  0  0  0  0
  -27.4919  -30.7743  -15.9585 C   0  0  0  0  0  0  0  0  0  0  0  0
  -26.6903  -31.2241  -14.9611 N   0  0  0  0  0  0  0  0  0  0  0  0
  -25.3544  -31.1836  -15.1201 C   0  0  0  0  0  0  0  0  0  0  0  0
  -24.7446  -30.6824  -16.2435 C   0  0  0  0  0  0  0  0  0  0  0  0
  -25.5607  -30.2235  -17.2702 C   0  0  0  0  0  0  0  0  0  0  0  0
  -26.9724  -30.2852  -17.1805 C   0  0  0  0  0  0  0  0  0  0  0  0
  -26.3337  -29.3089  -21.6791 C   0  0  0  0  0  0  0  0  0  0  0  0
  -26.5938  -30.0769  -22.8087 C   0  0  0  0  0  0  0  0  0  0  0  0
  -26.2483  -29.5536  -24.0360 C   0  0  0  0  0  0  0  0  0  0  0  0
  -26.3764  -30.3285  -25.1168 F   0  0  0  0  0  0  0  0  0  0  0  0
  -25.7150  -28.3307  -24.1993 N   0  0  0  0  0  0  0  0  0  0  0  0
  -25.4621  -27.6103  -23.0831 C   0  0  0  0  0  0  0  0  0  0  0  0
  -25.7591  -28.0464  -21.8031 C   0  0  0  0  0  0  0  0  0  0  0  0
  -25.2916  -26.9707  -20.3325 Br  0  0  0  0  0  0  0  0  0  0  0  0
  1  2  2  0
  2  3  1  0
  3  4  1  0
  4  5  2  0
  5  6  1  0
  6  7  2  0
  7  8  1  0
  7  9  1  0
  9 10  2  0
 10 11  1  0
 11 12  2  0
 12 13  1  0
 13 14  2  0
  2 15  1  0
 15 16  2  0
 16 17  1  0
 17 18  1  0
 17 19  2  0
 19 20  1  0
 20 21  2  0
 21 22  1  0
 14  4  1  0
 21 15  1  0
 14  9  1  0
M  END
>  <id>  (26) 
237439

>  <inchikey>  (26) 
UUZOCBLDCXYIKZ-UHFFFAOYSA-N

>  <alias>  (26) 
None

>  <smiles>  (26) 
O=C(Nc1ccc(Cl)c2ncccc12)c1cc(F)ncc1Br

>  <path>  (26) 
/opt/xchem-fragalysis-2/maxwin/RdRp_FFF/syndirella/mar_elabs/elabs_005/YAOSTISNIUSXMX-UHFFFAOYSA-N/output/YAOSTISNIUSXMX-UHFFFAOYSA-N-kzFKyu-49-A/YAOSTISNIUSXMX-UHFFFAOYSA-N-kzFKyu-49-A.minimised.mol

>  <distance_score>  (26) 
0.821427

>  <energy_score>  (26) 
-13.940055

>  <compound>  (26) 
UUZOCBLDCXYIKZ-UHFFFAOYSA-N

>  <compound_id>  (26) 
77449

>  <target>  (26) 
Flavi_NS5_RdRp

>  <tags>  (26) 
[]

>  <inspirations>  (26) 
{P × 2}

>  <subsites>  (26) 
None

>  <reference>  (26) 
z0221a

$$$$
MGBIILOHVWPYJI-UHFFFAOYSA-N
     RDKit          3D

 22 24  0  0  0  0  0  0  0  0999 V2000
  -25.7846  -31.1140  -20.4349 O   0  0  0  0  0  0  0  0  0  0  0  0
  -26.3930  -30.1240  -20.5365 C   0  0  0  0  0  0  0  0  0  0  0  0
  -27.3222  -29.4193  -19.5376 N   0  0  0  0  0  0  0  0  0  0  0  0
  -27.7621  -29.8144  -18.2792 C   0  0  0  0  0  0  0  0  0  0  0  0
  -29.1285  -29.6907  -18.0533 C   0  0  0  0  0  0  0  0  0  0  0  0
  -29.6624  -30.1281  -16.8561 C   0  0  0  0  0  0  0  0  0  0  0  0
  -28.8305  -30.6928  -15.8907 C   0  0  0  0  0  0  0  0  0  0  0  0
  -29.6051  -31.2640  -14.4458 Cl  0  0  0  0  0  0  0  0  0  0  0  0
  -27.4447  -30.8043  -16.0624 C   0  0  0  0  0  0  0  0  0  0  0  0
  -26.6676  -31.3141  -15.0743 N   0  0  0  0  0  0  0  0  0  0  0  0
  -25.3340  -31.3800  -15.2523 C   0  0  0  0  0  0  0  0  0  0  0  0
  -24.6990  -30.9359  -16.3875 C   0  0  0  0  0  0  0  0  0  0  0  0
  -25.4869  -30.4145  -17.4055 C   0  0  0  0  0  0  0  0  0  0  0  0
  -26.8950  -30.3518  -17.2851 C   0  0  0  0  0  0  0  0  0  0  0  0
  -26.2907  -29.3886  -21.8146 C   0  0  0  0  0  0  0  0  0  0  0  0
  -26.4481  -30.1127  -22.9989 C   0  0  0  0  0  0  0  0  0  0  0  0
  -26.6962  -31.4585  -23.0097 O   0  0  0  0  0  0  0  0  0  0  0  0
  -26.1972  -29.4748  -24.1983 C   0  0  0  0  0  0  0  0  0  0  0  0
  -25.7315  -28.2101  -24.2698 N   0  0  0  0  0  0  0  0  0  0  0  0
  -25.5045  -27.5570  -23.1080 C   0  0  0  0  0  0  0  0  0  0  0  0
  -25.8034  -28.0825  -21.8623 C   0  0  0  0  0  0  0  0  0  0  0  0
  -25.5779  -27.3742  -20.7209 O   0  0  0  0  0  0  0  0  0  0  0  0
  1  2  2  0
  2  3  1  0
  3  4  1  0
  4  5  2  0
  5  6  1  0
  6  7  2  0
  7  8  1  0
  7  9  1  0
  9 10  2  0
 10 11  1  0
 11 12  2  0
 12 13  1  0
 13 14  2  0
  2 15  1  0
 15 16  2  0
 16 17  1  0
 16 18  1  0
 18 19  2  0
 19 20  1  0
 20 21  2  0
 21 22  1  0
 14  4  1  0
 21 15  1  0
 14  9  1  0
M  END
>  <id>  (27) 
237440

>  <inchikey>  (27) 
MGBIILOHVWPYJI-UHFFFAOYSA-N

>  <alias>  (27) 
None

>  <smiles>  (27) 
O=C(Nc1ccc(Cl)c2ncccc12)c1c(O)cncc1O

>  <path>  (27) 
/opt/xchem-fragalysis-2/maxwin/RdRp_FFF/syndirella/mar_elabs/elabs_005/YAOSTISNIUSXMX-UHFFFAOYSA-N/output/YAOSTISNIUSXMX-UHFFFAOYSA-N-kzFKyu-50-A/YAOSTISNIUSXMX-UHFFFAOYSA-N-kzFKyu-50-A.minimised.mol

>  <distance_score>  (27) 
0.774627

>  <energy_score>  (27) 
-34.748114

>  <compound>  (27) 
MGBIILOHVWPYJI-UHFFFAOYSA-N

>  <compound_id>  (27) 
77450

>  <target>  (27) 
Flavi_NS5_RdRp

>  <tags>  (27) 
[]

>  <inspirations>  (27) 
{P × 2}

>  <subsites>  (27) 
None

>  <reference>  (27) 
z0221a

$$$$
BYJNDXFLXZDNSG-UHFFFAOYSA-N
     RDKit          3D

 22 24  0  0  0  0  0  0  0  0999 V2000
  -25.6158  -30.9106  -20.1638 O   0  0  0  0  0  0  0  0  0  0  0  0
  -26.3900  -30.0636  -20.3559 C   0  0  0  0  0  0  0  0  0  0  0  0
  -27.4633  -29.4700  -19.4358 N   0  0  0  0  0  0  0  0  0  0  0  0
  -27.8648  -29.8431  -18.1549 C   0  0  0  0  0  0  0  0  0  0  0  0
  -29.2360  -29.7840  -17.9248 C   0  0  0  0  0  0  0  0  0  0  0  0
  -29.7416  -30.2386  -16.7224 C   0  0  0  0  0  0  0  0  0  0  0  0
  -28.8826  -30.7576  -15.7566 C   0  0  0  0  0  0  0  0  0  0  0  0
  -29.6312  -31.3721  -14.3154 Cl  0  0  0  0  0  0  0  0  0  0  0  0
  -27.4940  -30.7897  -15.9242 C   0  0  0  0  0  0  0  0  0  0  0  0
  -26.6984  -31.2526  -14.9282 N   0  0  0  0  0  0  0  0  0  0  0  0
  -25.3623  -31.2393  -15.0908 C   0  0  0  0  0  0  0  0  0  0  0  0
  -24.7449  -30.7499  -16.2156 C   0  0  0  0  0  0  0  0  0  0  0  0
  -25.5540  -30.2735  -17.2397 C   0  0  0  0  0  0  0  0  0  0  0  0
  -26.9664  -30.3079  -17.1456 C   0  0  0  0  0  0  0  0  0  0  0  0
  -26.3354  -29.3519  -21.6415 C   0  0  0  0  0  0  0  0  0  0  0  0
  -26.5419  -30.0857  -22.7997 C   0  0  0  0  0  0  0  0  0  0  0  0
  -26.2002  -29.4924  -23.9952 C   0  0  0  0  0  0  0  0  0  0  0  0
  -26.3080  -30.2168  -25.1137 F   0  0  0  0  0  0  0  0  0  0  0  0
  -25.7161  -28.2445  -24.0968 N   0  0  0  0  0  0  0  0  0  0  0  0
  -25.5260  -27.5701  -22.9474 C   0  0  0  0  0  0  0  0  0  0  0  0
  -25.1102  -26.3031  -23.0355 F   0  0  0  0  0  0  0  0  0  0  0  0
  -25.8298  -28.0610  -21.6954 C   0  0  0  0  0  0  0  0  0  0  0  0
  1  2  2  0
  2  3  1  0
  3  4  1  0
  4  5  2  0
  5  6  1  0
  6  7  2  0
  7  8  1  0
  7  9  1  0
  9 10  2  0
 10 11  1  0
 11 12  2  0
 12 13  1  0
 13 14  2  0
  2 15  1  0
 15 16  2  0
 16 17  1  0
 17 18  1  0
 17 19  2  0
 19 20  1  0
 20 21  1  0
 20 22  2  0
 14  4  1  0
 22 15  1  0
 14  9  1  0
M  END
>  <id>  (28) 
237446

>  <inchikey>  (28) 
BYJNDXFLXZDNSG-UHFFFAOYSA-N

>  <alias>  (28) 
None

>  <smiles>  (28) 
O=C(Nc1ccc(Cl)c2ncccc12)c1cc(F)nc(F)c1

>  <path>  (28) 
/opt/xchem-fragalysis-2/maxwin/RdRp_FFF/syndirella/mar_elabs/elabs_005/YAOSTISNIUSXMX-UHFFFAOYSA-N/output/YAOSTISNIUSXMX-UHFFFAOYSA-N-kzFKyu-63-A/YAOSTISNIUSXMX-UHFFFAOYSA-N-kzFKyu-63-A.minimised.mol

>  <distance_score>  (28) 
0.83017

>  <energy_score>  (28) 
-4.632575

>  <compound>  (28) 
BYJNDXFLXZDNSG-UHFFFAOYSA-N

>  <compound_id>  (28) 
77459

>  <target>  (28) 
Flavi_NS5_RdRp

>  <tags>  (28) 
[]

>  <inspirations>  (28) 
{P × 2}

>  <subsites>  (28) 
None

>  <reference>  (28) 
z0221a

$$$$
JEGLDYZXLQQMOJ-UHFFFAOYSA-N
     RDKit          3D

 22 24  0  0  0  0  0  0  0  0999 V2000
  -26.3762  -29.1130  -25.1980 N   0  0  0  0  0  0  0  0  0  0  0  0
  -26.1480  -28.9168  -23.8525 C   0  0  0  0  0  0  0  0  0  0  0  0
  -26.8186  -29.6715  -22.9151 C   0  0  0  0  0  0  0  0  0  0  0  0
  -26.8247  -29.2461  -21.5951 C   0  0  0  0  0  0  0  0  0  0  0  0
  -27.7363  -29.9143  -20.6470 C   0  0  0  0  0  0  0  0  0  0  0  0
  -28.7960  -30.2294  -21.0106 O   0  0  0  0  0  0  0  0  0  0  0  0
  -27.0961  -29.9968  -19.2523 N   0  0  0  0  0  0  0  0  0  0  0  0
  -27.6371  -30.3832  -18.0321 C   0  0  0  0  0  0  0  0  0  0  0  0
  -29.0181  -30.5748  -17.9586 C   0  0  0  0  0  0  0  0  0  0  0  0
  -29.5956  -30.9294  -16.7556 C   0  0  0  0  0  0  0  0  0  0  0  0
  -28.7913  -31.0945  -15.6314 C   0  0  0  0  0  0  0  0  0  0  0  0
  -29.6019  -31.5771  -14.1738 Cl  0  0  0  0  0  0  0  0  0  0  0  0
  -27.4002  -30.9089  -15.6616 C   0  0  0  0  0  0  0  0  0  0  0  0
  -26.6540  -31.0869  -14.5441 N   0  0  0  0  0  0  0  0  0  0  0  0
  -25.3184  -30.9221  -14.6020 C   0  0  0  0  0  0  0  0  0  0  0  0
  -24.6476  -30.5720  -15.7495 C   0  0  0  0  0  0  0  0  0  0  0  0
  -25.3968  -30.3832  -16.9028 C   0  0  0  0  0  0  0  0  0  0  0  0
  -26.8057  -30.5441  -16.8913 C   0  0  0  0  0  0  0  0  0  0  0  0
  -26.1765  -28.0785  -21.2303 C   0  0  0  0  0  0  0  0  0  0  0  0
  -25.5544  -27.3902  -22.2394 C   0  0  0  0  0  0  0  0  0  0  0  0
  -25.1332  -26.1189  -22.0114 O   0  0  0  0  0  0  0  0  0  0  0  0
  -25.4997  -27.7919  -23.5195 N   0  0  0  0  0  0  0  0  0  0  0  0
  1  2  1  0
  2  3  2  0
  3  4  1  0
  4  5  1  0
  5  6  2  0
  5  7  1  0
  7  8  1  0
  8  9  2  0
  9 10  1  0
 10 11  2  0
 11 12  1  0
 11 13  1  0
 13 14  2  0
 14 15  1  0
 15 16  2  0
 16 17  1  0
 17 18  2  0
  4 19  2  0
 19 20  1  0
 20 21  1  0
 20 22  2  0
 22  2  1  0
 18  8  1  0
 18 13  1  0
M  END
>  <id>  (29) 
237453

>  <inchikey>  (29) 
JEGLDYZXLQQMOJ-UHFFFAOYSA-N

>  <alias>  (29) 
None

>  <smiles>  (29) 
Nc1cc(C(=O)Nc2ccc(Cl)c3ncccc23)cc(O)n1

>  <path>  (29) 
/opt/xchem-fragalysis-2/maxwin/RdRp_FFF/syndirella/mar_elabs/elabs_005/YAOSTISNIUSXMX-UHFFFAOYSA-N/output/YAOSTISNIUSXMX-UHFFFAOYSA-N-kzFKyu-80-A/YAOSTISNIUSXMX-UHFFFAOYSA-N-kzFKyu-80-A.minimised.mol

>  <distance_score>  (29) 
1.133658

>  <energy_score>  (29) 
-17.632835

>  <compound>  (29) 
JEGLDYZXLQQMOJ-UHFFFAOYSA-N

>  <compound_id>  (29) 
77469

>  <target>  (29) 
Flavi_NS5_RdRp

>  <tags>  (29) 
[]

>  <inspirations>  (29) 
{P × 2}

>  <subsites>  (29) 
None

>  <reference>  (29) 
z0221a

$$$$
OBWMRSVFLDIWLD-UHFFFAOYSA-N
     RDKit          3D

 22 24  0  0  0  0  0  0  0  0999 V2000
  -25.4805  -27.3654  -20.6648 N   0  0  0  0  0  0  0  0  0  0  0  0
  -25.8457  -28.0673  -21.8200 C   0  0  0  0  0  0  0  0  0  0  0  0
  -25.5079  -27.5716  -23.0779 C   0  0  0  0  0  0  0  0  0  0  0  0
  -25.7318  -28.2098  -24.2525 N   0  0  0  0  0  0  0  0  0  0  0  0
  -26.2010  -29.4700  -24.1977 C   0  0  0  0  0  0  0  0  0  0  0  0
  -26.4517  -30.1145  -23.0053 C   0  0  0  0  0  0  0  0  0  0  0  0
  -26.6887  -31.4625  -23.0228 O   0  0  0  0  0  0  0  0  0  0  0  0
  -26.3015  -29.3946  -21.8149 C   0  0  0  0  0  0  0  0  0  0  0  0
  -26.4259  -30.1522  -20.5549 C   0  0  0  0  0  0  0  0  0  0  0  0
  -25.7528  -31.0933  -20.4104 O   0  0  0  0  0  0  0  0  0  0  0  0
  -27.4799  -29.5286  -19.6262 N   0  0  0  0  0  0  0  0  0  0  0  0
  -27.8515  -29.8623  -18.3263 C   0  0  0  0  0  0  0  0  0  0  0  0
  -29.2130  -29.7465  -18.0636 C   0  0  0  0  0  0  0  0  0  0  0  0
  -29.7077  -30.1496  -16.8385 C   0  0  0  0  0  0  0  0  0  0  0  0
  -28.8451  -30.6750  -15.8800 C   0  0  0  0  0  0  0  0  0  0  0  0
  -29.5801  -31.2285  -14.4083 Cl  0  0  0  0  0  0  0  0  0  0  0  0
  -27.4627  -30.7630  -16.0802 C   0  0  0  0  0  0  0  0  0  0  0  0
  -26.6597  -31.2249  -15.0897 N   0  0  0  0  0  0  0  0  0  0  0  0
  -25.3291  -31.2716  -15.2865 C   0  0  0  0  0  0  0  0  0  0  0  0
  -24.7228  -30.8454  -16.4427 C   0  0  0  0  0  0  0  0  0  0  0  0
  -25.5379  -30.3693  -17.4625 C   0  0  0  0  0  0  0  0  0  0  0  0
  -26.9471  -30.3385  -17.3291 C   0  0  0  0  0  0  0  0  0  0  0  0
  1  2  1  0
  2  3  2  0
  3  4  1  0
  4  5  2  0
  5  6  1  0
  6  7  1  0
  6  8  2  0
  8  9  1  0
  9 10  2  0
  9 11  1  0
 11 12  1  0
 12 13  2  0
 13 14  1  0
 14 15  2  0
 15 16  1  0
 15 17  1  0
 17 18  2  0
 18 19  1  0
 19 20  2  0
 20 21  1  0
 21 22  2  0
  8  2  1  0
 22 12  1  0
 22 17  1  0
M  END
>  <id>  (30) 
237454

>  <inchikey>  (30) 
OBWMRSVFLDIWLD-UHFFFAOYSA-N

>  <alias>  (30) 
None

>  <smiles>  (30) 
Nc1cncc(O)c1C(=O)Nc1ccc(Cl)c2ncccc12

>  <path>  (30) 
/opt/xchem-fragalysis-2/maxwin/RdRp_FFF/syndirella/mar_elabs/elabs_005/YAOSTISNIUSXMX-UHFFFAOYSA-N/output/YAOSTISNIUSXMX-UHFFFAOYSA-N-kzFKyu-81-A/YAOSTISNIUSXMX-UHFFFAOYSA-N-kzFKyu-81-A.minimised.mol

>  <distance_score>  (30) 
0.744134

>  <energy_score>  (30) 
-39.372611

>  <compound>  (30) 
OBWMRSVFLDIWLD-UHFFFAOYSA-N

>  <compound_id>  (30) 
77470

>  <target>  (30) 
Flavi_NS5_RdRp

>  <tags>  (30) 
[]

>  <inspirations>  (30) 
{P × 2}

>  <subsites>  (30) 
None

>  <reference>  (30) 
z0221a

$$$$
WWSAPFFAYRWFBK-UHFFFAOYSA-N
     RDKit          3D

 22 24  0  0  0  0  0  0  0  0999 V2000
  -25.3204  -30.6357  -19.8408 O   0  0  0  0  0  0  0  0  0  0  0  0
  -26.2388  -29.9951  -20.1599 C   0  0  0  0  0  0  0  0  0  0  0  0
  -27.4821  -29.5697  -19.3632 N   0  0  0  0  0  0  0  0  0  0  0  0
  -27.8928  -29.9102  -18.0738 C   0  0  0  0  0  0  0  0  0  0  0  0
  -29.2728  -29.9625  -17.8939 C   0  0  0  0  0  0  0  0  0  0  0  0
  -29.7781  -30.4368  -16.6987 C   0  0  0  0  0  0  0  0  0  0  0  0
  -28.9151  -30.8549  -15.6888 C   0  0  0  0  0  0  0  0  0  0  0  0
  -29.6632  -31.4973  -14.2584 Cl  0  0  0  0  0  0  0  0  0  0  0  0
  -27.5257  -30.7600  -15.8010 C   0  0  0  0  0  0  0  0  0  0  0  0
  -26.7362  -31.1332  -14.7625 N   0  0  0  0  0  0  0  0  0  0  0  0
  -25.4026  -30.9827  -14.8596 C   0  0  0  0  0  0  0  0  0  0  0  0
  -24.7872  -30.4335  -15.9557 C   0  0  0  0  0  0  0  0  0  0  0  0
  -25.5932  -30.0526  -17.0215 C   0  0  0  0  0  0  0  0  0  0  0  0
  -26.9964  -30.2467  -17.0077 C   0  0  0  0  0  0  0  0  0  0  0  0
  -26.2503  -29.4070  -21.5169 C   0  0  0  0  0  0  0  0  0  0  0  0
  -26.4363  -30.2461  -22.6196 C   0  0  0  0  0  0  0  0  0  0  0  0
  -26.5517  -32.1355  -22.4082 Br  0  0  0  0  0  0  0  0  0  0  0  0
  -26.2443  -29.7082  -23.8868 C   0  0  0  0  0  0  0  0  0  0  0  0
  -25.8274  -28.4409  -24.0995 N   0  0  0  0  0  0  0  0  0  0  0  0
  -25.5567  -27.6835  -23.0121 C   0  0  0  0  0  0  0  0  0  0  0  0
  -25.7849  -28.1024  -21.7105 C   0  0  0  0  0  0  0  0  0  0  0  0
  -25.2787  -26.8285  -20.1595 I   0  0  0  0  0  0  0  0  0  0  0  0
  1  2  2  0
  2  3  1  0
  3  4  1  0
  4  5  2  0
  5  6  1  0
  6  7  2  0
  7  8  1  0
  7  9  1  0
  9 10  2  0
 10 11  1  0
 11 12  2  0
 12 13  1  0
 13 14  2  0
  2 15  1  0
 15 16  2  0
 16 17  1  0
 16 18  1  0
 18 19  2  0
 19 20  1  0
 20 21  2  0
 21 22  1  0
 14  4  1  0
 21 15  1  0
 14  9  1  0
M  END
>  <id>  (31) 
237455

>  <inchikey>  (31) 
WWSAPFFAYRWFBK-UHFFFAOYSA-N

>  <alias>  (31) 
None

>  <smiles>  (31) 
O=C(Nc1ccc(Cl)c2ncccc12)c1c(Br)cncc1I

>  <path>  (31) 
/opt/xchem-fragalysis-2/maxwin/RdRp_FFF/syndirella/mar_elabs/elabs_005/YAOSTISNIUSXMX-UHFFFAOYSA-N/output/YAOSTISNIUSXMX-UHFFFAOYSA-N-kzFKyu-82-A/YAOSTISNIUSXMX-UHFFFAOYSA-N-kzFKyu-82-A.minimised.mol

>  <distance_score>  (31) 
0.938881

>  <energy_score>  (31) 
-26.553258

>  <compound>  (31) 
WWSAPFFAYRWFBK-UHFFFAOYSA-N

>  <compound_id>  (31) 
77471

>  <target>  (31) 
Flavi_NS5_RdRp

>  <tags>  (31) 
[]

>  <inspirations>  (31) 
{P × 2}

>  <subsites>  (31) 
None

>  <reference>  (31) 
z0221a

$$$$
OOTGRIVUZCDFPN-UHFFFAOYSA-N
     RDKit          3D

 22 24  0  0  0  0  0  0  0  0999 V2000
  -25.6041  -27.1598  -20.6768 N   0  0  0  0  0  0  0  0  0  0  0  0
  -25.7315  -28.0106  -21.7762 C   0  0  0  0  0  0  0  0  0  0  0  0
  -25.4797  -27.5549  -23.0673 C   0  0  0  0  0  0  0  0  0  0  0  0
  -25.6934  -28.2690  -24.1974 N   0  0  0  0  0  0  0  0  0  0  0  0
  -26.1995  -29.5035  -24.0558 C   0  0  0  0  0  0  0  0  0  0  0  0
  -26.3222  -30.2623  -25.1493 F   0  0  0  0  0  0  0  0  0  0  0  0
  -26.5392  -30.0484  -22.8405 C   0  0  0  0  0  0  0  0  0  0  0  0
  -26.2986  -29.2885  -21.6995 C   0  0  0  0  0  0  0  0  0  0  0  0
  -26.3716  -30.0199  -20.4188 C   0  0  0  0  0  0  0  0  0  0  0  0
  -25.6444  -30.9141  -20.2558 O   0  0  0  0  0  0  0  0  0  0  0  0
  -27.4077  -29.3968  -19.4766 N   0  0  0  0  0  0  0  0  0  0  0  0
  -27.8255  -29.7861  -18.2062 C   0  0  0  0  0  0  0  0  0  0  0  0
  -29.1964  -29.7127  -17.9838 C   0  0  0  0  0  0  0  0  0  0  0  0
  -29.7161  -30.1645  -16.7861 C   0  0  0  0  0  0  0  0  0  0  0  0
  -28.8696  -30.6985  -15.8174 C   0  0  0  0  0  0  0  0  0  0  0  0
  -29.6324  -31.3008  -14.3785 Cl  0  0  0  0  0  0  0  0  0  0  0  0
  -27.4811  -30.7564  -15.9814 C   0  0  0  0  0  0  0  0  0  0  0  0
  -26.6965  -31.2375  -14.9851 N   0  0  0  0  0  0  0  0  0  0  0  0
  -25.3603  -31.2566  -15.1475 C   0  0  0  0  0  0  0  0  0  0  0  0
  -24.7310  -30.7858  -16.2738 C   0  0  0  0  0  0  0  0  0  0  0  0
  -25.5278  -30.2893  -17.2981 C   0  0  0  0  0  0  0  0  0  0  0  0
  -26.9405  -30.2823  -17.2005 C   0  0  0  0  0  0  0  0  0  0  0  0
  1  2  1  0
  2  3  2  0
  3  4  1  0
  4  5  2  0
  5  6  1  0
  5  7  1  0
  7  8  2  0
  8  9  1  0
  9 10  2  0
  9 11  1  0
 11 12  1  0
 12 13  2  0
 13 14  1  0
 14 15  2  0
 15 16  1  0
 15 17  1  0
 17 18  2  0
 18 19  1  0
 19 20  2  0
 20 21  1  0
 21 22  2  0
  8  2  1  0
 22 12  1  0
 22 17  1  0
M  END
>  <id>  (32) 
237456

>  <inchikey>  (32) 
OOTGRIVUZCDFPN-UHFFFAOYSA-N

>  <alias>  (32) 
None

>  <smiles>  (32) 
Nc1cnc(F)cc1C(=O)Nc1ccc(Cl)c2ncccc12

>  <path>  (32) 
/opt/xchem-fragalysis-2/maxwin/RdRp_FFF/syndirella/mar_elabs/elabs_005/YAOSTISNIUSXMX-UHFFFAOYSA-N/output/YAOSTISNIUSXMX-UHFFFAOYSA-N-kzFKyu-83-A/YAOSTISNIUSXMX-UHFFFAOYSA-N-kzFKyu-83-A.minimised.mol

>  <distance_score>  (32) 
0.806823

>  <energy_score>  (32) 
-30.40237

>  <compound>  (32) 
OOTGRIVUZCDFPN-UHFFFAOYSA-N

>  <compound_id>  (32) 
77472

>  <target>  (32) 
Flavi_NS5_RdRp

>  <tags>  (32) 
[]

>  <inspirations>  (32) 
{P × 2}

>  <subsites>  (32) 
None

>  <reference>  (32) 
z0221a

$$$$
AKDLQSUYGKFRMK-UHFFFAOYSA-N
     RDKit          3D

 22 24  0  0  0  0  0  0  0  0999 V2000
  -26.2264  -30.5955  -24.8848 N   0  0  0  0  0  0  0  0  0  0  0  0
  -26.2512  -29.8368  -23.7223 C   0  0  0  0  0  0  0  0  0  0  0  0
  -26.5495  -30.4525  -22.5264 C   0  0  0  0  0  0  0  0  0  0  0  0
  -26.4404  -29.6901  -21.3815 C   0  0  0  0  0  0  0  0  0  0  0  0
  -26.4696  -30.3515  -20.0794 C   0  0  0  0  0  0  0  0  0  0  0  0
  -25.6706  -31.1628  -19.8372 O   0  0  0  0  0  0  0  0  0  0  0  0
  -27.5636  -29.7366  -19.1957 N   0  0  0  0  0  0  0  0  0  0  0  0
  -27.9558  -30.0449  -17.9001 C   0  0  0  0  0  0  0  0  0  0  0  0
  -29.3263  -29.9679  -17.6676 C   0  0  0  0  0  0  0  0  0  0  0  0
  -29.8252  -30.4111  -16.4598 C   0  0  0  0  0  0  0  0  0  0  0  0
  -28.9580  -30.9159  -15.4924 C   0  0  0  0  0  0  0  0  0  0  0  0
  -29.7021  -31.5394  -14.0521 Cl  0  0  0  0  0  0  0  0  0  0  0  0
  -27.5670  -30.9292  -15.6556 C   0  0  0  0  0  0  0  0  0  0  0  0
  -26.7608  -31.3588  -14.6523 N   0  0  0  0  0  0  0  0  0  0  0  0
  -25.4240  -31.3212  -14.8158 C   0  0  0  0  0  0  0  0  0  0  0  0
  -24.8146  -30.8370  -15.9477 C   0  0  0  0  0  0  0  0  0  0  0  0
  -25.6346  -30.3981  -16.9789 C   0  0  0  0  0  0  0  0  0  0  0  0
  -27.0471  -30.4643  -16.8832 C   0  0  0  0  0  0  0  0  0  0  0  0
  -26.0638  -28.3604  -21.4348 C   0  0  0  0  0  0  0  0  0  0  0  0
  -25.7323  -27.8571  -22.6701 C   0  0  0  0  0  0  0  0  0  0  0  0
  -25.3845  -26.5246  -22.7779 N   0  0  0  0  0  0  0  0  0  0  0  0
  -25.8508  -28.5591  -23.8098 N   0  0  0  0  0  0  0  0  0  0  0  0
  1  2  1  0
  2  3  2  0
  3  4  1  0
  4  5  1  0
  5  6  2  0
  5  7  1  0
  7  8  1  0
  8  9  2  0
  9 10  1  0
 10 11  2  0
 11 12  1  0
 11 13  1  0
 13 14  2  0
 14 15  1  0
 15 16  2  0
 16 17  1  0
 17 18  2  0
  4 19  2  0
 19 20  1  0
 20 21  1  0
 20 22  2  0
 22  2  1  0
 18  8  1  0
 18 13  1  0
M  END
>  <id>  (33) 
237457

>  <inchikey>  (33) 
AKDLQSUYGKFRMK-UHFFFAOYSA-N

>  <alias>  (33) 
None

>  <smiles>  (33) 
Nc1cc(C(=O)Nc2ccc(Cl)c3ncccc23)cc(N)n1

>  <path>  (33) 
/opt/xchem-fragalysis-2/maxwin/RdRp_FFF/syndirella/mar_elabs/elabs_005/YAOSTISNIUSXMX-UHFFFAOYSA-N/output/YAOSTISNIUSXMX-UHFFFAOYSA-N-kzFKyu-84-A/YAOSTISNIUSXMX-UHFFFAOYSA-N-kzFKyu-84-A.minimised.mol

>  <distance_score>  (33) 
1.051892

>  <energy_score>  (33) 
-20.192667

>  <compound>  (33) 
AKDLQSUYGKFRMK-UHFFFAOYSA-N

>  <compound_id>  (33) 
77473

>  <target>  (33) 
Flavi_NS5_RdRp

>  <tags>  (33) 
[]

>  <inspirations>  (33) 
{P × 2}

>  <subsites>  (33) 
None

>  <reference>  (33) 
z0221a

$$$$
YOEYSWPHRRIEHT-UHFFFAOYSA-N
     RDKit          3D

 22 24  0  0  0  0  0  0  0  0999 V2000
  -25.8808  -31.6041  -20.0817 O   0  0  0  0  0  0  0  0  0  0  0  0
  -26.5912  -30.7103  -20.3134 C   0  0  0  0  0  0  0  0  0  0  0  0
  -27.6530  -30.0258  -19.4348 N   0  0  0  0  0  0  0  0  0  0  0  0
  -27.9874  -30.2270  -18.1024 C   0  0  0  0  0  0  0  0  0  0  0  0
  -29.3368  -30.0369  -17.8151 C   0  0  0  0  0  0  0  0  0  0  0  0
  -29.8089  -30.3673  -16.5618 C   0  0  0  0  0  0  0  0  0  0  0  0
  -28.9338  -30.8704  -15.6018 C   0  0  0  0  0  0  0  0  0  0  0  0
  -29.6579  -31.3872  -14.1113 Cl  0  0  0  0  0  0  0  0  0  0  0  0
  -27.5532  -30.9704  -15.8155 C   0  0  0  0  0  0  0  0  0  0  0  0
  -26.7303  -31.3712  -14.8139 N   0  0  0  0  0  0  0  0  0  0  0  0
  -25.4006  -31.4077  -15.0275 C   0  0  0  0  0  0  0  0  0  0  0  0
  -24.8142  -31.0343  -16.2126 C   0  0  0  0  0  0  0  0  0  0  0  0
  -25.6521  -30.6350  -17.2459 C   0  0  0  0  0  0  0  0  0  0  0  0
  -27.0605  -30.6222  -17.0935 C   0  0  0  0  0  0  0  0  0  0  0  0
  -26.4746  -30.0236  -21.5976 C   0  0  0  0  0  0  0  0  0  0  0  0
  -26.5194  -30.7357  -22.7867 C   0  0  0  0  0  0  0  0  0  0  0  0
  -26.2284  -30.0590  -23.9634 C   0  0  0  0  0  0  0  0  0  0  0  0
  -25.8700  -28.7678  -23.9902 N   0  0  0  0  0  0  0  0  0  0  0  0
  -25.7657  -28.1360  -22.8039 C   0  0  0  0  0  0  0  0  0  0  0  0
  -25.2557  -26.4786  -22.8279 S   0  0  0  0  0  0  0  0  0  0  0  0
  -26.0886  -28.7033  -21.5952 C   0  0  0  0  0  0  0  0  0  0  0  0
  -25.9416  -28.0101  -20.4555 F   0  0  0  0  0  0  0  0  0  0  0  0
  1  2  2  0
  2  3  1  0
  3  4  1  0
  4  5  2  0
  5  6  1  0
  6  7  2  0
  7  8  1  0
  7  9  1  0
  9 10  2  0
 10 11  1  0
 11 12  2  0
 12 13  1  0
 13 14  2  0
  2 15  1  0
 15 16  2  0
 16 17  1  0
 17 18  2  0
 18 19  1  0
 19 20  1  0
 19 21  2  0
 21 22  1  0
 14  4  1  0
 21 15  1  0
 14  9  1  0
M  END
>  <id>  (34) 
237460

>  <inchikey>  (34) 
YOEYSWPHRRIEHT-UHFFFAOYSA-N

>  <alias>  (34) 
None

>  <smiles>  (34) 
O=C(Nc1ccc(Cl)c2ncccc12)c1ccnc(S)c1F

>  <path>  (34) 
/opt/xchem-fragalysis-2/maxwin/RdRp_FFF/syndirella/mar_elabs/elabs_005/YAOSTISNIUSXMX-UHFFFAOYSA-N/output/YAOSTISNIUSXMX-UHFFFAOYSA-N-kzFKyu-100-A/YAOSTISNIUSXMX-UHFFFAOYSA-N-kzFKyu-100-A.minimised.mol

>  <distance_score>  (34) 
1.006253

>  <energy_score>  (34) 
-6.190503

>  <compound>  (34) 
YOEYSWPHRRIEHT-UHFFFAOYSA-N

>  <compound_id>  (34) 
77483

>  <target>  (34) 
Flavi_NS5_RdRp

>  <tags>  (34) 
[]

>  <inspirations>  (34) 
{P × 2}

>  <subsites>  (34) 
None

>  <reference>  (34) 
z0221a

$$$$
LQHVJSJXINRHRP-UHFFFAOYSA-N
     RDKit          3D

 22 24  0  0  0  0  0  0  0  0999 V2000
  -26.0419  -27.2198  -20.0359 N   0  0  0  0  0  0  0  0  0  0  0  0
  -26.0154  -27.6656  -21.3694 C   0  0  0  0  0  0  0  0  0  0  0  0
  -25.2854  -26.9648  -22.3098 C   0  0  0  0  0  0  0  0  0  0  0  0
  -25.0611  -27.3511  -23.5760 N   0  0  0  0  0  0  0  0  0  0  0  0
  -25.6026  -28.5089  -23.9665 C   0  0  0  0  0  0  0  0  0  0  0  0
  -26.4478  -29.2530  -23.1625 C   0  0  0  0  0  0  0  0  0  0  0  0
  -27.0601  -30.3973  -23.6861 N   0  0  0  0  0  0  0  0  0  0  0  0
  -26.5716  -28.8697  -21.8141 C   0  0  0  0  0  0  0  0  0  0  0  0
  -27.5003  -29.6279  -20.9315 C   0  0  0  0  0  0  0  0  0  0  0  0
  -28.5375  -29.9523  -21.3566 O   0  0  0  0  0  0  0  0  0  0  0  0
  -26.9156  -29.7632  -19.5112 N   0  0  0  0  0  0  0  0  0  0  0  0
  -27.4991  -30.2244  -18.3310 C   0  0  0  0  0  0  0  0  0  0  0  0
  -28.8675  -30.4980  -18.3223 C   0  0  0  0  0  0  0  0  0  0  0  0
  -29.4875  -30.8551  -17.1375 C   0  0  0  0  0  0  0  0  0  0  0  0
  -28.7394  -30.9493  -15.9663 C   0  0  0  0  0  0  0  0  0  0  0  0
  -29.6024  -31.3940  -14.5268 Cl  0  0  0  0  0  0  0  0  0  0  0  0
  -27.3583  -30.7135  -15.9361 C   0  0  0  0  0  0  0  0  0  0  0  0
  -26.6612  -30.8419  -14.7802 N   0  0  0  0  0  0  0  0  0  0  0  0
  -25.3308  -30.6385  -14.7834 C   0  0  0  0  0  0  0  0  0  0  0  0
  -24.6213  -30.2893  -15.9074 C   0  0  0  0  0  0  0  0  0  0  0  0
  -25.3223  -30.1416  -17.0964 C   0  0  0  0  0  0  0  0  0  0  0  0
  -26.7223  -30.3466  -17.1459 C   0  0  0  0  0  0  0  0  0  0  0  0
  1  2  1  0
  2  3  2  0
  3  4  1  0
  4  5  2  0
  5  6  1  0
  6  7  1  0
  6  8  2  0
  8  9  1  0
  9 10  2  0
  9 11  1  0
 11 12  1  0
 12 13  2  0
 13 14  1  0
 14 15  2  0
 15 16  1  0
 15 17  1  0
 17 18  2  0
 18 19  1  0
 19 20  2  0
 20 21  1  0
 21 22  2  0
  8  2  1  0
 22 12  1  0
 22 17  1  0
M  END
>  <id>  (35) 
237461

>  <inchikey>  (35) 
LQHVJSJXINRHRP-UHFFFAOYSA-N

>  <alias>  (35) 
None

>  <smiles>  (35) 
Nc1cncc(N)c1C(=O)Nc1ccc(Cl)c2ncccc12

>  <path>  (35) 
/opt/xchem-fragalysis-2/maxwin/RdRp_FFF/syndirella/mar_elabs/elabs_005/YAOSTISNIUSXMX-UHFFFAOYSA-N/output/YAOSTISNIUSXMX-UHFFFAOYSA-N-kzFKyu-101-A/YAOSTISNIUSXMX-UHFFFAOYSA-N-kzFKyu-101-A.minimised.mol

>  <distance_score>  (35) 
1.083912

>  <energy_score>  (35) 
-53.748184

>  <compound>  (35) 
LQHVJSJXINRHRP-UHFFFAOYSA-N

>  <compound_id>  (35) 
77484

>  <target>  (35) 
Flavi_NS5_RdRp

>  <tags>  (35) 
[]

>  <inspirations>  (35) 
{P × 2}

>  <subsites>  (35) 
None

>  <reference>  (35) 
z0221a

$$$$
PNZPTWWVGQRGHR-UHFFFAOYSA-N
     RDKit          3D

 22 24  0  0  0  0  0  0  0  0999 V2000
  -25.7414  -31.1156  -20.2460 O   0  0  0  0  0  0  0  0  0  0  0  0
  -26.4713  -30.2234  -20.4140 C   0  0  0  0  0  0  0  0  0  0  0  0
  -27.5587  -29.6396  -19.4987 N   0  0  0  0  0  0  0  0  0  0  0  0
  -27.9045  -29.9576  -18.1886 C   0  0  0  0  0  0  0  0  0  0  0  0
  -29.2650  -29.8467  -17.9136 C   0  0  0  0  0  0  0  0  0  0  0  0
  -29.7460  -30.2653  -16.6890 C   0  0  0  0  0  0  0  0  0  0  0  0
  -28.8700  -30.7929  -15.7435 C   0  0  0  0  0  0  0  0  0  0  0  0
  -29.5918  -31.3810  -14.2779 Cl  0  0  0  0  0  0  0  0  0  0  0  0
  -27.4869  -30.8559  -15.9496 C   0  0  0  0  0  0  0  0  0  0  0  0
  -26.6710  -31.3099  -14.9656 N   0  0  0  0  0  0  0  0  0  0  0  0
  -25.3390  -31.3129  -15.1629 C   0  0  0  0  0  0  0  0  0  0  0  0
  -24.7455  -30.8555  -16.3140 C   0  0  0  0  0  0  0  0  0  0  0  0
  -25.5759  -30.3977  -17.3295 C   0  0  0  0  0  0  0  0  0  0  0  0
  -26.9853  -30.4130  -17.1966 C   0  0  0  0  0  0  0  0  0  0  0  0
  -26.3742  -29.4726  -21.6683 C   0  0  0  0  0  0  0  0  0  0  0  0
  -26.5499  -30.1494  -22.8721 C   0  0  0  0  0  0  0  0  0  0  0  0
  -26.2151  -29.4936  -24.0449 C   0  0  0  0  0  0  0  0  0  0  0  0
  -25.7173  -28.2396  -24.0634 N   0  0  0  0  0  0  0  0  0  0  0  0
  -25.5650  -27.6355  -22.8699 C   0  0  0  0  0  0  0  0  0  0  0  0
  -25.1301  -26.3600  -22.9462 O   0  0  0  0  0  0  0  0  0  0  0  0
  -25.8844  -28.1846  -21.6526 C   0  0  0  0  0  0  0  0  0  0  0  0
  -25.6746  -27.5205  -20.5105 F   0  0  0  0  0  0  0  0  0  0  0  0
  1  2  2  0
  2  3  1  0
  3  4  1  0
  4  5  2  0
  5  6  1  0
  6  7  2  0
  7  8  1  0
  7  9  1  0
  9 10  2  0
 10 11  1  0
 11 12  2  0
 12 13  1  0
 13 14  2  0
  2 15  1  0
 15 16  2  0
 16 17  1  0
 17 18  2  0
 18 19  1  0
 19 20  1  0
 19 21  2  0
 21 22  1  0
 14  4  1  0
 21 15  1  0
 14  9  1  0
M  END
>  <id>  (36) 
237463

>  <inchikey>  (36) 
PNZPTWWVGQRGHR-UHFFFAOYSA-N

>  <alias>  (36) 
None

>  <smiles>  (36) 
O=C(Nc1ccc(Cl)c2ncccc12)c1ccnc(O)c1F

>  <path>  (36) 
/opt/xchem-fragalysis-2/maxwin/RdRp_FFF/syndirella/mar_elabs/elabs_005/YAOSTISNIUSXMX-UHFFFAOYSA-N/output/YAOSTISNIUSXMX-UHFFFAOYSA-N-kzFKyu-110-A/YAOSTISNIUSXMX-UHFFFAOYSA-N-kzFKyu-110-A.minimised.mol

>  <distance_score>  (36) 
0.828136

>  <energy_score>  (36) 
-19.865457

>  <compound>  (36) 
PNZPTWWVGQRGHR-UHFFFAOYSA-N

>  <compound_id>  (36) 
77489

>  <target>  (36) 
Flavi_NS5_RdRp

>  <tags>  (36) 
[]

>  <inspirations>  (36) 
{P × 2}

>  <subsites>  (36) 
None

>  <reference>  (36) 
z0221a

$$$$
FTWJTVFTLAEIQX-UHFFFAOYSA-N
     RDKit          3D

 22 24  0  0  0  0  0  0  0  0999 V2000
  -26.6501  -29.4850  -25.2573 N   0  0  0  0  0  0  0  0  0  0  0  0
  -26.2309  -29.0962  -24.0121 C   0  0  0  0  0  0  0  0  0  0  0  0
  -26.5558  -29.8068  -22.8737 C   0  0  0  0  0  0  0  0  0  0  0  0
  -26.2696  -29.2281  -21.6425 C   0  0  0  0  0  0  0  0  0  0  0  0
  -26.3868  -30.0374  -20.4236 C   0  0  0  0  0  0  0  0  0  0  0  0
  -25.6821  -30.9566  -20.3029 O   0  0  0  0  0  0  0  0  0  0  0  0
  -27.4043  -29.4274  -19.4479 N   0  0  0  0  0  0  0  0  0  0  0  0
  -27.8260  -29.8597  -18.1940 C   0  0  0  0  0  0  0  0  0  0  0  0
  -29.1950  -29.7782  -17.9606 C   0  0  0  0  0  0  0  0  0  0  0  0
  -29.7077  -30.2449  -16.7655 C   0  0  0  0  0  0  0  0  0  0  0  0
  -28.8553  -30.7947  -15.8099 C   0  0  0  0  0  0  0  0  0  0  0  0
  -29.6081  -31.4035  -14.3681 Cl  0  0  0  0  0  0  0  0  0  0  0  0
  -27.4680  -30.8573  -15.9852 C   0  0  0  0  0  0  0  0  0  0  0  0
  -26.6761  -31.3509  -15.0007 N   0  0  0  0  0  0  0  0  0  0  0  0
  -25.3404  -31.3598  -15.1715 C   0  0  0  0  0  0  0  0  0  0  0  0
  -24.7194  -30.8700  -16.2947 C   0  0  0  0  0  0  0  0  0  0  0  0
  -25.5242  -30.3666  -17.3089 C   0  0  0  0  0  0  0  0  0  0  0  0
  -26.9357  -30.3693  -17.2017 C   0  0  0  0  0  0  0  0  0  0  0  0
  -25.6889  -27.9747  -21.5739 C   0  0  0  0  0  0  0  0  0  0  0  0
  -25.3838  -27.3967  -20.4091 F   0  0  0  0  0  0  0  0  0  0  0  0
  -25.3920  -27.3472  -22.7572 C   0  0  0  0  0  0  0  0  0  0  0  0
  -25.6540  -27.8857  -23.9657 N   0  0  0  0  0  0  0  0  0  0  0  0
  1  2  1  0
  2  3  2  0
  3  4  1  0
  4  5  1  0
  5  6  2  0
  5  7  1  0
  7  8  1  0
  8  9  2  0
  9 10  1  0
 10 11  2  0
 11 12  1  0
 11 13  1  0
 13 14  2  0
 14 15  1  0
 15 16  2  0
 16 17  1  0
 17 18  2  0
  4 19  2  0
 19 20  1  0
 19 21  1  0
 21 22  2  0
 22  2  1  0
 18  8  1  0
 18 13  1  0
M  END
>  <id>  (37) 
237464

>  <inchikey>  (37) 
FTWJTVFTLAEIQX-UHFFFAOYSA-N

>  <alias>  (37) 
None

>  <smiles>  (37) 
Nc1cc(C(=O)Nc2ccc(Cl)c3ncccc23)c(F)cn1

>  <path>  (37) 
/opt/xchem-fragalysis-2/maxwin/RdRp_FFF/syndirella/mar_elabs/elabs_005/YAOSTISNIUSXMX-UHFFFAOYSA-N/output/YAOSTISNIUSXMX-UHFFFAOYSA-N-kzFKyu-111-A/YAOSTISNIUSXMX-UHFFFAOYSA-N-kzFKyu-111-A.minimised.mol

>  <distance_score>  (37) 
0.857418

>  <energy_score>  (37) 
-25.193892

>  <compound>  (37) 
FTWJTVFTLAEIQX-UHFFFAOYSA-N

>  <compound_id>  (37) 
77490

>  <target>  (37) 
Flavi_NS5_RdRp

>  <tags>  (37) 
[]

>  <inspirations>  (37) 
{P × 2}

>  <subsites>  (37) 
None

>  <reference>  (37) 
z0221a

$$$$
CIXSUHMNFGZJLO-UHFFFAOYSA-N
     RDKit          3D

 22 24  0  0  0  0  0  0  0  0999 V2000
  -26.4007  -28.7998  -25.6556 C   0  0  0  0  0  0  0  0  0  0  0  0
  -26.6321  -29.7259  -24.5727 N   0  0  0  0  0  0  0  0  0  0  0  0
  -26.3093  -29.1402  -23.3483 C   0  0  0  0  0  0  0  0  0  0  0  0
  -26.5737  -29.8382  -22.1970 C   0  0  0  0  0  0  0  0  0  0  0  0
  -26.2239  -29.2257  -21.0050 C   0  0  0  0  0  0  0  0  0  0  0  0
  -26.2845  -30.0149  -19.7826 C   0  0  0  0  0  0  0  0  0  0  0  0
  -25.4504  -30.7928  -19.5534 O   0  0  0  0  0  0  0  0  0  0  0  0
  -27.5189  -29.6117  -18.9682 N   0  0  0  0  0  0  0  0  0  0  0  0
  -27.9272  -29.9967  -17.6989 C   0  0  0  0  0  0  0  0  0  0  0  0
  -29.3089  -29.9955  -17.5148 C   0  0  0  0  0  0  0  0  0  0  0  0
  -29.8302  -30.5229  -16.3514 C   0  0  0  0  0  0  0  0  0  0  0  0
  -28.9733  -31.0385  -15.3804 C   0  0  0  0  0  0  0  0  0  0  0  0
  -29.7338  -31.7436  -13.9855 Cl  0  0  0  0  0  0  0  0  0  0  0  0
  -27.5780  -30.9920  -15.4971 C   0  0  0  0  0  0  0  0  0  0  0  0
  -26.7912  -31.4551  -14.4932 N   0  0  0  0  0  0  0  0  0  0  0  0
  -25.4521  -31.3538  -14.5996 C   0  0  0  0  0  0  0  0  0  0  0  0
  -24.8233  -30.7661  -15.6692 C   0  0  0  0  0  0  0  0  0  0  0  0
  -25.6243  -30.2911  -16.6989 C   0  0  0  0  0  0  0  0  0  0  0  0
  -27.0353  -30.4309  -16.6727 C   0  0  0  0  0  0  0  0  0  0  0  0
  -25.6848  -27.9472  -20.9456 C   0  0  0  0  0  0  0  0  0  0  0  0
  -25.4555  -27.3322  -22.1447 C   0  0  0  0  0  0  0  0  0  0  0  0
  -25.7405  -27.9105  -23.3218 N   0  0  0  0  0  0  0  0  0  0  0  0
  1  2  1  0
  2  3  1  0
  3  4  2  0
  4  5  1  0
  5  6  1  0
  6  7  2  0
  6  8  1  0
  8  9  1  0
  9 10  2  0
 10 11  1  0
 11 12  2  0
 12 13  1  0
 12 14  1  0
 14 15  2  0
 15 16  1  0
 16 17  2  0
 17 18  1  0
 18 19  2  0
  5 20  2  0
 20 21  1  0
 21 22  2  0
 22  3  1  0
 19  9  1  0
 19 14  1  0
M  END
>  <id>  (38) 
237468

>  <inchikey>  (38) 
CIXSUHMNFGZJLO-UHFFFAOYSA-N

>  <alias>  (38) 
None

>  <smiles>  (38) 
CNc1cc(C(=O)Nc2ccc(Cl)c3ncccc23)ccn1

>  <path>  (38) 
/opt/xchem-fragalysis-2/maxwin/RdRp_FFF/syndirella/mar_elabs/elabs_005/YAOSTISNIUSXMX-UHFFFAOYSA-N/output/YAOSTISNIUSXMX-UHFFFAOYSA-N-kzFKyu-116-A/YAOSTISNIUSXMX-UHFFFAOYSA-N-kzFKyu-116-A.minimised.mol

>  <distance_score>  (38) 
1.276045

>  <energy_score>  (38) 
-9.174691

>  <compound>  (38) 
CIXSUHMNFGZJLO-UHFFFAOYSA-N

>  <compound_id>  (38) 
77494

>  <target>  (38) 
Flavi_NS5_RdRp

>  <tags>  (38) 
[]

>  <inspirations>  (38) 
{P × 2}

>  <subsites>  (38) 
None

>  <reference>  (38) 
z0221a

$$$$
ZENHZUPMAKXYQZ-UHFFFAOYSA-N
     RDKit          3D

 22 24  0  0  0  0  0  0  0  0999 V2000
  -26.0786  -27.8199  -20.4481 N   0  0  0  0  0  0  0  0  0  0  0  0
  -26.0693  -28.6632  -21.5760 C   0  0  0  0  0  0  0  0  0  0  0  0
  -26.4737  -29.9949  -21.5480 C   0  0  0  0  0  0  0  0  0  0  0  0
  -26.5840  -30.6918  -20.2563 C   0  0  0  0  0  0  0  0  0  0  0  0
  -25.9331  -31.6379  -20.0598 O   0  0  0  0  0  0  0  0  0  0  0  0
  -27.5340  -29.9237  -19.3228 N   0  0  0  0  0  0  0  0  0  0  0  0
  -27.9421  -30.2003  -18.0279 C   0  0  0  0  0  0  0  0  0  0  0  0
  -29.2923  -29.9851  -17.7715 C   0  0  0  0  0  0  0  0  0  0  0  0
  -29.8017  -30.3379  -16.5389 C   0  0  0  0  0  0  0  0  0  0  0  0
  -28.9605  -30.8844  -15.5706 C   0  0  0  0  0  0  0  0  0  0  0  0
  -29.7252  -31.4000  -14.0995 Cl  0  0  0  0  0  0  0  0  0  0  0  0
  -27.5786  -31.0237  -15.7588 C   0  0  0  0  0  0  0  0  0  0  0  0
  -26.7847  -31.4697  -14.7525 N   0  0  0  0  0  0  0  0  0  0  0  0
  -25.4529  -31.5459  -14.9458 C   0  0  0  0  0  0  0  0  0  0  0  0
  -24.8343  -31.1766  -16.1165 C   0  0  0  0  0  0  0  0  0  0  0  0
  -25.6417  -30.7331  -17.1555 C   0  0  0  0  0  0  0  0  0  0  0  0
  -27.0507  -30.6641  -17.0178 C   0  0  0  0  0  0  0  0  0  0  0  0
  -26.5310  -30.7566  -22.7134 C   0  0  0  0  0  0  0  0  0  0  0  0
  -26.2241  -30.1435  -23.9169 C   0  0  0  0  0  0  0  0  0  0  0  0
  -25.8588  -28.8643  -24.0024 N   0  0  0  0  0  0  0  0  0  0  0  0
  -25.7845  -28.1762  -22.8470 C   0  0  0  0  0  0  0  0  0  0  0  0
  -25.2285  -26.5399  -23.0180 S   0  0  0  0  0  0  0  0  0  0  0  0
  1  2  1  0
  2  3  2  0
  3  4  1  0
  4  5  2  0
  4  6  1  0
  6  7  1  0
  7  8  2  0
  8  9  1  0
  9 10  2  0
 10 11  1  0
 10 12  1  0
 12 13  2  0
 13 14  1  0
 14 15  2  0
 15 16  1  0
 16 17  2  0
  3 18  1  0
 18 19  2  0
 19 20  1  0
 20 21  2  0
 21 22  1  0
 21  2  1  0
 17  7  1  0
 17 12  1  0
M  END
>  <id>  (39) 
237474

>  <inchikey>  (39) 
ZENHZUPMAKXYQZ-UHFFFAOYSA-N

>  <alias>  (39) 
None

>  <smiles>  (39) 
Nc1c(C(=O)Nc2ccc(Cl)c3ncccc23)ccnc1S

>  <path>  (39) 
/opt/xchem-fragalysis-2/maxwin/RdRp_FFF/syndirella/mar_elabs/elabs_005/YAOSTISNIUSXMX-UHFFFAOYSA-N/output/YAOSTISNIUSXMX-UHFFFAOYSA-N-kzFKyu-126-A/YAOSTISNIUSXMX-UHFFFAOYSA-N-kzFKyu-126-A.minimised.mol

>  <distance_score>  (39) 
1.054281

>  <energy_score>  (39) 
-40.552031

>  <compound>  (39) 
ZENHZUPMAKXYQZ-UHFFFAOYSA-N

>  <compound_id>  (39) 
77501

>  <target>  (39) 
Flavi_NS5_RdRp

>  <tags>  (39) 
[]

>  <inspirations>  (39) 
{P × 2}

>  <subsites>  (39) 
None

>  <reference>  (39) 
z0221a

$$$$
RZCYRPLDFCEVMH-UHFFFAOYSA-N
     RDKit          3D

 22 24  0  0  0  0  0  0  0  0999 V2000
  -25.6891  -31.2949  -20.0513 O   0  0  0  0  0  0  0  0  0  0  0  0
  -26.4807  -30.4711  -20.2779 C   0  0  0  0  0  0  0  0  0  0  0  0
  -27.6261  -29.9241  -19.4112 N   0  0  0  0  0  0  0  0  0  0  0  0
  -27.9714  -30.1978  -18.0909 C   0  0  0  0  0  0  0  0  0  0  0  0
  -29.3319  -30.0634  -17.8211 C   0  0  0  0  0  0  0  0  0  0  0  0
  -29.8128  -30.4273  -16.5801 C   0  0  0  0  0  0  0  0  0  0  0  0
  -28.9387  -30.9134  -15.6117 C   0  0  0  0  0  0  0  0  0  0  0  0
  -29.6679  -31.4490  -14.1293 Cl  0  0  0  0  0  0  0  0  0  0  0  0
  -27.5546  -30.9747  -15.8070 C   0  0  0  0  0  0  0  0  0  0  0  0
  -26.7449  -31.3732  -14.7942 N   0  0  0  0  0  0  0  0  0  0  0  0
  -25.4107  -31.3675  -14.9734 C   0  0  0  0  0  0  0  0  0  0  0  0
  -24.8093  -30.9555  -16.1363 C   0  0  0  0  0  0  0  0  0  0  0  0
  -25.6354  -30.5606  -17.1816 C   0  0  0  0  0  0  0  0  0  0  0  0
  -27.0485  -30.5881  -17.0700 C   0  0  0  0  0  0  0  0  0  0  0  0
  -26.4003  -29.7411  -21.5491 C   0  0  0  0  0  0  0  0  0  0  0  0
  -26.6165  -30.4837  -22.7103 C   0  0  0  0  0  0  0  0  0  0  0  0
  -26.3435  -29.8923  -23.9297 C   0  0  0  0  0  0  0  0  0  0  0  0
  -25.8887  -28.6420  -24.0336 N   0  0  0  0  0  0  0  0  0  0  0  0
  -25.6681  -27.9690  -22.8847 C   0  0  0  0  0  0  0  0  0  0  0  0
  -25.1912  -26.3824  -23.1852 Cl  0  0  0  0  0  0  0  0  0  0  0  0
  -25.9135  -28.4414  -21.6107 C   0  0  0  0  0  0  0  0  0  0  0  0
  -25.4480  -27.3021  -19.9122 I   0  0  0  0  0  0  0  0  0  0  0  0
  1  2  2  0
  2  3  1  0
  3  4  1  0
  4  5  2  0
  5  6  1  0
  6  7  2  0
  7  8  1  0
  7  9  1  0
  9 10  2  0
 10 11  1  0
 11 12  2  0
 12 13  1  0
 13 14  2  0
  2 15  1  0
 15 16  2  0
 16 17  1  0
 17 18  2  0
 18 19  1  0
 19 20  1  0
 19 21  2  0
 21 22  1  0
 14  4  1  0
 21 15  1  0
 14  9  1  0
M  END
>  <id>  (40) 
237475

>  <inchikey>  (40) 
RZCYRPLDFCEVMH-UHFFFAOYSA-N

>  <alias>  (40) 
None

>  <smiles>  (40) 
O=C(Nc1ccc(Cl)c2ncccc12)c1ccnc(Cl)c1I

>  <path>  (40) 
/opt/xchem-fragalysis-2/maxwin/RdRp_FFF/syndirella/mar_elabs/elabs_005/YAOSTISNIUSXMX-UHFFFAOYSA-N/output/YAOSTISNIUSXMX-UHFFFAOYSA-N-kzFKyu-130-A/YAOSTISNIUSXMX-UHFFFAOYSA-N-kzFKyu-130-A.minimised.mol

>  <distance_score>  (40) 
0.974752

>  <energy_score>  (40) 
-16.037391

>  <compound>  (40) 
RZCYRPLDFCEVMH-UHFFFAOYSA-N

>  <compound_id>  (40) 
77503

>  <target>  (40) 
Flavi_NS5_RdRp

>  <tags>  (40) 
[]

>  <inspirations>  (40) 
{P × 2}

>  <subsites>  (40) 
None

>  <reference>  (40) 
z0221a

$$$$
PQHKIMBVMZFHKQ-UHFFFAOYSA-N
     RDKit          3D

 22 24  0  0  0  0  0  0  0  0999 V2000
  -25.4560  -27.2630  -20.6082 C   0  0  0  0  0  0  0  0  0  0  0  0
  -25.7956  -28.0773  -21.8162 C   0  0  0  0  0  0  0  0  0  0  0  0
  -25.5064  -27.5857  -23.0803 C   0  0  0  0  0  0  0  0  0  0  0  0
  -25.7414  -28.2588  -24.2248 N   0  0  0  0  0  0  0  0  0  0  0  0
  -26.2248  -29.5142  -24.1259 C   0  0  0  0  0  0  0  0  0  0  0  0
  -26.5235  -30.1449  -22.9223 C   0  0  0  0  0  0  0  0  0  0  0  0
  -26.6943  -31.5546  -22.9024 N   0  0  0  0  0  0  0  0  0  0  0  0
  -26.2964  -29.3909  -21.7568 C   0  0  0  0  0  0  0  0  0  0  0  0
  -26.3488  -30.0909  -20.4507 C   0  0  0  0  0  0  0  0  0  0  0  0
  -25.5472  -30.9038  -20.2205 O   0  0  0  0  0  0  0  0  0  0  0  0
  -27.5197  -29.5784  -19.6001 N   0  0  0  0  0  0  0  0  0  0  0  0
  -27.8873  -29.8793  -18.2883 C   0  0  0  0  0  0  0  0  0  0  0  0
  -29.2568  -29.8191  -18.0463 C   0  0  0  0  0  0  0  0  0  0  0  0
  -29.7486  -30.2203  -16.8195 C   0  0  0  0  0  0  0  0  0  0  0  0
  -28.8803  -30.6917  -15.8392 C   0  0  0  0  0  0  0  0  0  0  0  0
  -29.6162  -31.2568  -14.3718 Cl  0  0  0  0  0  0  0  0  0  0  0  0
  -27.4936  -30.7132  -16.0133 C   0  0  0  0  0  0  0  0  0  0  0  0
  -26.6918  -31.1221  -14.9986 N   0  0  0  0  0  0  0  0  0  0  0  0
  -25.3565  -31.0897  -15.1584 C   0  0  0  0  0  0  0  0  0  0  0  0
  -24.7478  -30.6316  -16.2999 C   0  0  0  0  0  0  0  0  0  0  0  0
  -25.5644  -30.2138  -17.3442 C   0  0  0  0  0  0  0  0  0  0  0  0
  -26.9767  -30.2763  -17.2573 C   0  0  0  0  0  0  0  0  0  0  0  0
  1  2  1  0
  2  3  2  0
  3  4  1  0
  4  5  2  0
  5  6  1  0
  6  7  1  0
  6  8  2  0
  8  9  1  0
  9 10  2  0
  9 11  1  0
 11 12  1  0
 12 13  2  0
 13 14  1  0
 14 15  2  0
 15 16  1  0
 15 17  1  0
 17 18  2  0
 18 19  1  0
 19 20  2  0
 20 21  1  0
 21 22  2  0
  8  2  1  0
 22 12  1  0
 22 17  1  0
M  END
>  <id>  (41) 
237476

>  <inchikey>  (41) 
PQHKIMBVMZFHKQ-UHFFFAOYSA-N

>  <alias>  (41) 
None

>  <smiles>  (41) 
Cc1cncc(N)c1C(=O)Nc1ccc(Cl)c2ncccc12

>  <path>  (41) 
/opt/xchem-fragalysis-2/maxwin/RdRp_FFF/syndirella/mar_elabs/elabs_005/YAOSTISNIUSXMX-UHFFFAOYSA-N/output/YAOSTISNIUSXMX-UHFFFAOYSA-N-kzFKyu-131-A/YAOSTISNIUSXMX-UHFFFAOYSA-N-kzFKyu-131-A.minimised.mol

>  <distance_score>  (41) 
0.759805

>  <energy_score>  (41) 
-38.557654

>  <compound>  (41) 
PQHKIMBVMZFHKQ-UHFFFAOYSA-N

>  <compound_id>  (41) 
77504

>  <target>  (41) 
Flavi_NS5_RdRp

>  <tags>  (41) 
[]

>  <inspirations>  (41) 
{P × 2}

>  <subsites>  (41) 
None

>  <reference>  (41) 
z0221a

$$$$
RRXUTBQGHFYNDX-UHFFFAOYSA-N
     RDKit          3D

 22 24  0  0  0  0  0  0  0  0999 V2000
  -24.3507  -27.4024  -19.8975 C   0  0  0  0  0  0  0  0  0  0  0  0
  -25.5909  -27.1351  -20.6200 N   0  0  0  0  0  0  0  0  0  0  0  0
  -25.8056  -27.9527  -21.7436 C   0  0  0  0  0  0  0  0  0  0  0  0
  -25.4914  -27.5022  -23.0254 C   0  0  0  0  0  0  0  0  0  0  0  0
  -25.7061  -28.1948  -24.1706 N   0  0  0  0  0  0  0  0  0  0  0  0
  -26.2284  -29.4279  -24.0650 C   0  0  0  0  0  0  0  0  0  0  0  0
  -26.5236  -30.0055  -22.8488 C   0  0  0  0  0  0  0  0  0  0  0  0
  -26.2756  -29.2711  -21.6836 C   0  0  0  0  0  0  0  0  0  0  0  0
  -26.3580  -30.0392  -20.4184 C   0  0  0  0  0  0  0  0  0  0  0  0
  -25.6937  -30.9902  -20.3090 O   0  0  0  0  0  0  0  0  0  0  0  0
  -27.3461  -29.3978  -19.4364 N   0  0  0  0  0  0  0  0  0  0  0  0
  -27.7865  -29.8259  -18.1865 C   0  0  0  0  0  0  0  0  0  0  0  0
  -29.1541  -29.6963  -17.9668 C   0  0  0  0  0  0  0  0  0  0  0  0
  -29.7009  -30.1401  -16.7786 C   0  0  0  0  0  0  0  0  0  0  0  0
  -28.8816  -30.7195  -15.8127 C   0  0  0  0  0  0  0  0  0  0  0  0
  -29.6731  -31.2959  -14.3783 Cl  0  0  0  0  0  0  0  0  0  0  0  0
  -27.4965  -30.8420  -15.9751 C   0  0  0  0  0  0  0  0  0  0  0  0
  -26.7374  -31.3672  -14.9803 N   0  0  0  0  0  0  0  0  0  0  0  0
  -25.4036  -31.4535  -15.1430 C   0  0  0  0  0  0  0  0  0  0  0  0
  -24.7508  -31.0151  -16.2690 C   0  0  0  0  0  0  0  0  0  0  0  0
  -25.5227  -30.4773  -17.2912 C   0  0  0  0  0  0  0  0  0  0  0  0
  -26.9313  -30.3867  -17.1901 C   0  0  0  0  0  0  0  0  0  0  0  0
  1  2  1  0
  2  3  1  0
  3  4  2  0
  4  5  1  0
  5  6  2  0
  6  7  1  0
  7  8  2  0
  8  9  1  0
  9 10  2  0
  9 11  1  0
 11 12  1  0
 12 13  2  0
 13 14  1  0
 14 15  2  0
 15 16  1  0
 15 17  1  0
 17 18  2  0
 18 19  1  0
 19 20  2  0
 20 21  1  0
 21 22  2  0
  8  3  1  0
 22 12  1  0
 22 17  1  0
M  END
>  <id>  (42) 
237485

>  <inchikey>  (42) 
RRXUTBQGHFYNDX-UHFFFAOYSA-N

>  <alias>  (42) 
None

>  <smiles>  (42) 
CNc1cnccc1C(=O)Nc1ccc(Cl)c2ncccc12

>  <path>  (42) 
/opt/xchem-fragalysis-2/maxwin/RdRp_FFF/syndirella/mar_elabs/elabs_005/YAOSTISNIUSXMX-UHFFFAOYSA-N/output/YAOSTISNIUSXMX-UHFFFAOYSA-N-kzFKyu-149-A/YAOSTISNIUSXMX-UHFFFAOYSA-N-kzFKyu-149-A.minimised.mol

>  <distance_score>  (42) 
0.845651

>  <energy_score>  (42) 
-2.849015

>  <compound>  (42) 
RRXUTBQGHFYNDX-UHFFFAOYSA-N

>  <compound_id>  (42) 
77514

>  <target>  (42) 
Flavi_NS5_RdRp

>  <tags>  (42) 
[]

>  <inspirations>  (42) 
{P × 2}

>  <subsites>  (42) 
None

>  <reference>  (42) 
z0221a

$$$$
QCSKVHXPAHOEBT-UHFFFAOYSA-N
     RDKit          3D

 22 24  0  0  0  0  0  0  0  0999 V2000
  -25.4533  -30.7448  -19.8702 O   0  0  0  0  0  0  0  0  0  0  0  0
  -26.2995  -29.9878  -20.1262 C   0  0  0  0  0  0  0  0  0  0  0  0
  -27.4615  -29.4683  -19.2708 N   0  0  0  0  0  0  0  0  0  0  0  0
  -27.8739  -29.8281  -17.9903 C   0  0  0  0  0  0  0  0  0  0  0  0
  -29.2528  -29.8356  -17.7964 C   0  0  0  0  0  0  0  0  0  0  0  0
  -29.7643  -30.3332  -16.6139 C   0  0  0  0  0  0  0  0  0  0  0  0
  -28.9042  -30.8234  -15.6336 C   0  0  0  0  0  0  0  0  0  0  0  0
  -29.6579  -31.4987  -14.2216 Cl  0  0  0  0  0  0  0  0  0  0  0  0
  -27.5118  -30.7793  -15.7622 C   0  0  0  0  0  0  0  0  0  0  0  0
  -26.7188  -31.2193  -14.7533 N   0  0  0  0  0  0  0  0  0  0  0  0
  -25.3813  -31.1223  -14.8750 C   0  0  0  0  0  0  0  0  0  0  0  0
  -24.7621  -30.5687  -15.9683 C   0  0  0  0  0  0  0  0  0  0  0  0
  -25.5694  -30.1190  -17.0053 C   0  0  0  0  0  0  0  0  0  0  0  0
  -26.9790  -30.2468  -16.9585 C   0  0  0  0  0  0  0  0  0  0  0  0
  -26.3258  -29.4127  -21.4723 C   0  0  0  0  0  0  0  0  0  0  0  0
  -26.7051  -30.2370  -22.5233 C   0  0  0  0  0  0  0  0  0  0  0  0
  -26.4631  -29.7938  -23.8136 C   0  0  0  0  0  0  0  0  0  0  0  0
  -25.8690  -28.5750  -24.0623 N   0  0  0  0  0  0  0  0  0  0  0  0
  -25.7771  -28.1951  -25.2455 O   0  0  0  0  0  0  0  0  0  0  0  0
  -25.4930  -27.7731  -23.0085 C   0  0  0  0  0  0  0  0  0  0  0  0
  -25.7337  -28.1778  -21.7087 C   0  0  0  0  0  0  0  0  0  0  0  0
  -25.3457  -27.3964  -20.6949 F   0  0  0  0  0  0  0  0  0  0  0  0
  1  2  2  0
  2  3  1  0
  3  4  1  0
  4  5  2  0
  5  6  1  0
  6  7  2  0
  7  8  1  0
  7  9  1  0
  9 10  2  0
 10 11  1  0
 11 12  2  0
 12 13  1  0
 13 14  2  0
  2 15  1  0
 15 16  2  0
 16 17  1  0
 17 18  2  0
 18 19  1  0
 18 20  1  0
 20 21  2  0
 21 22  1  0
 14  4  1  0
 21 15  1  0
 14  9  1  0
M  CHG  2  18   1  19  -1
M  END
>  <id>  (43) 
237486

>  <inchikey>  (43) 
QCSKVHXPAHOEBT-UHFFFAOYSA-N

>  <alias>  (43) 
None

>  <smiles>  (43) 
O=C(Nc1ccc(Cl)c2ncccc12)c1cc[n+]([O-])cc1F

>  <path>  (43) 
/opt/xchem-fragalysis-2/maxwin/RdRp_FFF/syndirella/mar_elabs/elabs_005/YAOSTISNIUSXMX-UHFFFAOYSA-N/output/YAOSTISNIUSXMX-UHFFFAOYSA-N-kzFKyu-150-A/YAOSTISNIUSXMX-UHFFFAOYSA-N-kzFKyu-150-A.minimised.mol

>  <distance_score>  (43) 
0.944636

>  <energy_score>  (43) 
-8.415985

>  <compound>  (43) 
QCSKVHXPAHOEBT-UHFFFAOYSA-N

>  <compound_id>  (43) 
77515

>  <target>  (43) 
Flavi_NS5_RdRp

>  <tags>  (43) 
[]

>  <inspirations>  (43) 
{P × 2}

>  <subsites>  (43) 
None

>  <reference>  (43) 
z0221a

$$$$
KOLRUNJXVRCYKB-UHFFFAOYSA-N
     RDKit          3D

 22 24  0  0  0  0  0  0  0  0999 V2000
  -25.6876  -31.6448  -25.2752 N   0  0  0  0  0  0  0  0  0  0  0  0
  -25.8372  -30.6433  -24.7041 C   0  0  0  0  0  0  0  0  0  0  0  0
  -26.0689  -29.5578  -23.8004 C   0  0  0  0  0  0  0  0  0  0  0  0
  -26.8447  -29.7727  -22.6790 C   0  0  0  0  0  0  0  0  0  0  0  0
  -26.8140  -28.7998  -21.6881 C   0  0  0  0  0  0  0  0  0  0  0  0
  -27.7680  -28.9414  -20.5852 C   0  0  0  0  0  0  0  0  0  0  0  0
  -28.8958  -28.7462  -20.7942 O   0  0  0  0  0  0  0  0  0  0  0  0
  -27.0624  -29.4419  -19.3163 N   0  0  0  0  0  0  0  0  0  0  0  0
  -27.5881  -29.8857  -18.1012 C   0  0  0  0  0  0  0  0  0  0  0  0
  -28.9771  -29.9053  -17.9561 C   0  0  0  0  0  0  0  0  0  0  0  0
  -29.5452  -30.3818  -16.7898 C   0  0  0  0  0  0  0  0  0  0  0  0
  -28.7251  -30.8455  -15.7670 C   0  0  0  0  0  0  0  0  0  0  0  0
  -29.5262  -31.4687  -14.3587 Cl  0  0  0  0  0  0  0  0  0  0  0  0
  -27.3265  -30.8318  -15.8599 C   0  0  0  0  0  0  0  0  0  0  0  0
  -26.5678  -31.2809  -14.8305 N   0  0  0  0  0  0  0  0  0  0  0  0
  -25.2270  -31.2717  -14.9414 C   0  0  0  0  0  0  0  0  0  0  0  0
  -24.5645  -30.8134  -16.0553 C   0  0  0  0  0  0  0  0  0  0  0  0
  -25.3262  -30.3428  -17.1173 C   0  0  0  0  0  0  0  0  0  0  0  0
  -26.7411  -30.3429  -17.0541 C   0  0  0  0  0  0  0  0  0  0  0  0
  -26.0201  -27.6678  -21.8049 C   0  0  0  0  0  0  0  0  0  0  0  0
  -25.3466  -27.5138  -22.9994 C   0  0  0  0  0  0  0  0  0  0  0  0
  -25.3519  -28.4309  -23.9910 N   0  0  0  0  0  0  0  0  0  0  0  0
  1  2  3  0
  2  3  1  0
  3  4  2  0
  4  5  1  0
  5  6  1  0
  6  7  2  0
  6  8  1  0
  8  9  1  0
  9 10  2  0
 10 11  1  0
 11 12  2  0
 12 13  1  0
 12 14  1  0
 14 15  2  0
 15 16  1  0
 16 17  2  0
 17 18  1  0
 18 19  2  0
  5 20  2  0
 20 21  1  0
 21 22  2  0
 22  3  1  0
 19  9  1  0
 19 14  1  0
M  END
>  <id>  (44) 
237487

>  <inchikey>  (44) 
KOLRUNJXVRCYKB-UHFFFAOYSA-N

>  <alias>  (44) 
None

>  <smiles>  (44) 
N#Cc1cc(C(=O)Nc2ccc(Cl)c3ncccc23)ccn1

>  <path>  (44) 
/opt/xchem-fragalysis-2/maxwin/RdRp_FFF/syndirella/mar_elabs/elabs_005/YAOSTISNIUSXMX-UHFFFAOYSA-N/output/YAOSTISNIUSXMX-UHFFFAOYSA-N-kzFKyu-151-A/YAOSTISNIUSXMX-UHFFFAOYSA-N-kzFKyu-151-A.minimised.mol

>  <distance_score>  (44) 
1.16024

>  <energy_score>  (44) 
-13.255411

>  <compound>  (44) 
KOLRUNJXVRCYKB-UHFFFAOYSA-N

>  <compound_id>  (44) 
77516

>  <target>  (44) 
Flavi_NS5_RdRp

>  <tags>  (44) 
[]

>  <inspirations>  (44) 
{P × 2}

>  <subsites>  (44) 
None

>  <reference>  (44) 
z0221a

$$$$
KGPFAAIGJFVIFJ-UHFFFAOYSA-N
     RDKit          3D

 22 24  0  0  0  0  0  0  0  0999 V2000
  -28.7484  -29.3835  -21.1185 O   0  0  0  0  0  0  0  0  0  0  0  0
  -27.6256  -29.3443  -20.8092 C   0  0  0  0  0  0  0  0  0  0  0  0
  -26.9608  -29.5550  -19.4380 N   0  0  0  0  0  0  0  0  0  0  0  0
  -27.5105  -29.9402  -18.2123 C   0  0  0  0  0  0  0  0  0  0  0  0
  -28.9035  -30.0163  -18.1222 C   0  0  0  0  0  0  0  0  0  0  0  0
  -29.5027  -30.4268  -16.9463 C   0  0  0  0  0  0  0  0  0  0  0  0
  -28.7107  -30.7697  -15.8566 C   0  0  0  0  0  0  0  0  0  0  0  0
  -29.5475  -31.3172  -14.4377 Cl  0  0  0  0  0  0  0  0  0  0  0  0
  -27.3116  -30.6970  -15.8931 C   0  0  0  0  0  0  0  0  0  0  0  0
  -26.5825  -31.0356  -14.8021 N   0  0  0  0  0  0  0  0  0  0  0  0
  -25.2401  -30.9717  -14.8572 C   0  0  0  0  0  0  0  0  0  0  0  0
  -24.5488  -30.5683  -15.9745 C   0  0  0  0  0  0  0  0  0  0  0  0
  -25.2799  -30.2130  -17.1010 C   0  0  0  0  0  0  0  0  0  0  0  0
  -26.6941  -30.2700  -17.0963 C   0  0  0  0  0  0  0  0  0  0  0  0
  -26.6550  -29.0727  -21.8675 C   0  0  0  0  0  0  0  0  0  0  0  0
  -26.6756  -29.8934  -22.9831 C   0  0  0  0  0  0  0  0  0  0  0  0
  -27.2219  -31.1097  -22.9173 F   0  0  0  0  0  0  0  0  0  0  0  0
  -26.0611  -29.4620  -24.1388 C   0  0  0  0  0  0  0  0  0  0  0  0
  -25.4089  -28.2842  -24.2126 N   0  0  0  0  0  0  0  0  0  0  0  0
  -25.3349  -27.5396  -23.0837 C   0  0  0  0  0  0  0  0  0  0  0  0
  -25.9262  -27.8999  -21.8901 C   0  0  0  0  0  0  0  0  0  0  0  0
  -25.8428  -27.0992  -20.8235 F   0  0  0  0  0  0  0  0  0  0  0  0
  1  2  2  0
  2  3  1  0
  3  4  1  0
  4  5  2  0
  5  6  1  0
  6  7  2  0
  7  8  1  0
  7  9  1  0
  9 10  2  0
 10 11  1  0
 11 12  2  0
 12 13  1  0
 13 14  2  0
  2 15  1  0
 15 16  2  0
 16 17  1  0
 16 18  1  0
 18 19  2  0
 19 20  1  0
 20 21  2  0
 21 22  1  0
 14  4  1  0
 21 15  1  0
 14  9  1  0
M  END
>  <id>  (45) 
237488

>  <inchikey>  (45) 
KGPFAAIGJFVIFJ-UHFFFAOYSA-N

>  <alias>  (45) 
None

>  <smiles>  (45) 
O=C(Nc1ccc(Cl)c2ncccc12)c1c(F)cncc1F

>  <path>  (45) 
/opt/xchem-fragalysis-2/maxwin/RdRp_FFF/syndirella/mar_elabs/elabs_005/YAOSTISNIUSXMX-UHFFFAOYSA-N/output/YAOSTISNIUSXMX-UHFFFAOYSA-N-kzFKyu-152-A/YAOSTISNIUSXMX-UHFFFAOYSA-N-kzFKyu-152-A.minimised.mol

>  <distance_score>  (45) 
0.975755

>  <energy_score>  (45) 
-16.358151

>  <compound>  (45) 
KGPFAAIGJFVIFJ-UHFFFAOYSA-N

>  <compound_id>  (45) 
77517

>  <target>  (45) 
Flavi_NS5_RdRp

>  <tags>  (45) 
[]

>  <inspirations>  (45) 
{P × 2}

>  <subsites>  (45) 
None

>  <reference>  (45) 
z0221a

$$$$
NWEBENRSJCXRSW-UHFFFAOYSA-N
     RDKit          3D

 22 24  0  0  0  0  0  0  0  0999 V2000
  -25.7800  -31.4804  -20.0246 O   0  0  0  0  0  0  0  0  0  0  0  0
  -26.5526  -30.6432  -20.2684 C   0  0  0  0  0  0  0  0  0  0  0  0
  -27.6735  -30.0384  -19.4059 N   0  0  0  0  0  0  0  0  0  0  0  0
  -28.0090  -30.2607  -18.0759 C   0  0  0  0  0  0  0  0  0  0  0  0
  -29.3649  -30.1108  -17.7950 C   0  0  0  0  0  0  0  0  0  0  0  0
  -29.8323  -30.4520  -16.5426 C   0  0  0  0  0  0  0  0  0  0  0  0
  -28.9480  -30.9251  -15.5763 C   0  0  0  0  0  0  0  0  0  0  0  0
  -29.6638  -31.4495  -14.0839 Cl  0  0  0  0  0  0  0  0  0  0  0  0
  -27.5650  -30.9860  -15.7831 C   0  0  0  0  0  0  0  0  0  0  0  0
  -26.7395  -31.3623  -14.7741 N   0  0  0  0  0  0  0  0  0  0  0  0
  -25.4078  -31.3562  -14.9737 C   0  0  0  0  0  0  0  0  0  0  0  0
  -24.8231  -30.9609  -16.1517 C   0  0  0  0  0  0  0  0  0  0  0  0
  -25.6643  -30.5869  -17.1921 C   0  0  0  0  0  0  0  0  0  0  0  0
  -27.0748  -30.6229  -17.0580 C   0  0  0  0  0  0  0  0  0  0  0  0
  -26.4523  -29.9363  -21.5478 C   0  0  0  0  0  0  0  0  0  0  0  0
  -26.5676  -30.6800  -22.7175 C   0  0  0  0  0  0  0  0  0  0  0  0
  -26.2816  -30.0555  -23.9183 C   0  0  0  0  0  0  0  0  0  0  0  0
  -25.8945  -28.7802  -23.9911 N   0  0  0  0  0  0  0  0  0  0  0  0
  -25.7418  -28.1015  -22.8336 C   0  0  0  0  0  0  0  0  0  0  0  0
  -25.2296  -26.4562  -23.0478 S   0  0  0  0  0  0  0  0  0  0  0  0
  -26.0249  -28.6179  -21.5821 C   0  0  0  0  0  0  0  0  0  0  0  0
  -25.7455  -27.6913  -20.1459 Cl  0  0  0  0  0  0  0  0  0  0  0  0
  1  2  2  0
  2  3  1  0
  3  4  1  0
  4  5  2  0
  5  6  1  0
  6  7  2  0
  7  8  1  0
  7  9  1  0
  9 10  2  0
 10 11  1  0
 11 12  2  0
 12 13  1  0
 13 14  2  0
  2 15  1  0
 15 16  2  0
 16 17  1  0
 17 18  2  0
 18 19  1  0
 19 20  1  0
 19 21  2  0
 21 22  1  0
 14  4  1  0
 21 15  1  0
 14  9  1  0
M  END
>  <id>  (46) 
237489

>  <inchikey>  (46) 
NWEBENRSJCXRSW-UHFFFAOYSA-N

>  <alias>  (46) 
None

>  <smiles>  (46) 
O=C(Nc1ccc(Cl)c2ncccc12)c1ccnc(S)c1Cl

>  <path>  (46) 
/opt/xchem-fragalysis-2/maxwin/RdRp_FFF/syndirella/mar_elabs/elabs_005/YAOSTISNIUSXMX-UHFFFAOYSA-N/output/YAOSTISNIUSXMX-UHFFFAOYSA-N-kzFKyu-153-A/YAOSTISNIUSXMX-UHFFFAOYSA-N-kzFKyu-153-A.minimised.mol

>  <distance_score>  (46) 
1.011367

>  <energy_score>  (46) 
-8.418816

>  <compound>  (46) 
NWEBENRSJCXRSW-UHFFFAOYSA-N

>  <compound_id>  (46) 
77518

>  <target>  (46) 
Flavi_NS5_RdRp

>  <tags>  (46) 
[]

>  <inspirations>  (46) 
{P × 2}

>  <subsites>  (46) 
None

>  <reference>  (46) 
z0221a

$$$$
KXDYRLKTJSPDDX-UHFFFAOYSA-N
     RDKit          3D

 22 24  0  0  0  0  0  0  0  0999 V2000
  -25.5792  -30.8845  -20.1547 O   0  0  0  0  0  0  0  0  0  0  0  0
  -26.3509  -30.0388  -20.3734 C   0  0  0  0  0  0  0  0  0  0  0  0
  -27.5071  -29.4976  -19.5156 N   0  0  0  0  0  0  0  0  0  0  0  0
  -27.8883  -29.8065  -18.2118 C   0  0  0  0  0  0  0  0  0  0  0  0
  -29.2599  -29.7685  -17.9821 C   0  0  0  0  0  0  0  0  0  0  0  0
  -29.7561  -30.2022  -16.7681 C   0  0  0  0  0  0  0  0  0  0  0  0
  -28.8889  -30.6835  -15.7908 C   0  0  0  0  0  0  0  0  0  0  0  0
  -29.6293  -31.2873  -14.3410 Cl  0  0  0  0  0  0  0  0  0  0  0  0
  -27.5005  -30.6870  -15.9550 C   0  0  0  0  0  0  0  0  0  0  0  0
  -26.6988  -31.1092  -14.9456 N   0  0  0  0  0  0  0  0  0  0  0  0
  -25.3629  -31.0606  -15.1016 C   0  0  0  0  0  0  0  0  0  0  0  0
  -24.7538  -30.5771  -16.2332 C   0  0  0  0  0  0  0  0  0  0  0  0
  -25.5702  -30.1459  -17.2716 C   0  0  0  0  0  0  0  0  0  0  0  0
  -26.9815  -30.2197  -17.1862 C   0  0  0  0  0  0  0  0  0  0  0  0
  -26.3591  -29.3272  -21.6820 C   0  0  0  0  0  0  0  0  0  0  0  0
  -26.5806  -30.1446  -22.7216 C   0  0  0  0  0  0  0  0  0  0  0  0
  -26.1100  -29.7392  -24.0664 C   0  0  0  0  0  0  0  0  0  0  0  0
  -26.1445  -30.5447  -24.9862 O   0  0  0  0  0  0  0  0  0  0  0  0
  -25.5685  -28.4818  -24.1645 N   0  0  0  0  0  0  0  0  0  0  0  0
  -25.4046  -27.6330  -23.0959 C   0  0  0  0  0  0  0  0  0  0  0  0
  -25.7928  -28.0096  -21.8681 C   0  0  0  0  0  0  0  0  0  0  0  0
  -25.6572  -27.2364  -20.7470 O   0  0  0  0  0  0  0  0  0  0  0  0
  1  2  2  0
  2  3  1  0
  3  4  1  0
  4  5  2  0
  5  6  1  0
  6  7  2  0
  7  8  1  0
  7  9  1  0
  9 10  2  0
 10 11  1  0
 11 12  2  0
 12 13  1  0
 13 14  2  0
  2 15  1  0
 15 16  2  0
 16 17  1  0
 17 18  2  0
 17 19  1  0
 19 20  1  0
 20 21  2  0
 21 22  1  0
 14  4  1  0
 21 15  1  0
 14  9  1  0
M  END
>  <id>  (47) 
237497

>  <inchikey>  (47) 
KXDYRLKTJSPDDX-UHFFFAOYSA-N

>  <alias>  (47) 
None

>  <smiles>  (47) 
O=C(Nc1ccc(Cl)c2ncccc12)c1cc(=O)[nH]cc1O

>  <path>  (47) 
/opt/xchem-fragalysis-2/maxwin/RdRp_FFF/syndirella/mar_elabs/elabs_005/YAOSTISNIUSXMX-UHFFFAOYSA-N/output/YAOSTISNIUSXMX-UHFFFAOYSA-N-kzFKyu-170-A/YAOSTISNIUSXMX-UHFFFAOYSA-N-kzFKyu-170-A.minimised.mol

>  <distance_score>  (47) 
0.792343

>  <energy_score>  (47) 
-34.113219

>  <compound>  (47) 
KXDYRLKTJSPDDX-UHFFFAOYSA-N

>  <compound_id>  (47) 
77529

>  <target>  (47) 
Flavi_NS5_RdRp

>  <tags>  (47) 
[]

>  <inspirations>  (47) 
{P × 2}

>  <subsites>  (47) 
None

>  <reference>  (47) 
z0221a

$$$$
BOHWXLRPSZWTJX-UHFFFAOYSA-N
     RDKit          3D

 22 24  0  0  0  0  0  0  0  0999 V2000
  -25.6607  -30.9188  -20.2547 O   0  0  0  0  0  0  0  0  0  0  0  0
  -26.3857  -30.0210  -20.4130 C   0  0  0  0  0  0  0  0  0  0  0  0
  -27.4908  -29.4629  -19.5069 N   0  0  0  0  0  0  0  0  0  0  0  0
  -27.8661  -29.8180  -18.2137 C   0  0  0  0  0  0  0  0  0  0  0  0
  -29.2344  -29.7566  -17.9673 C   0  0  0  0  0  0  0  0  0  0  0  0
  -29.7289  -30.2052  -16.7581 C   0  0  0  0  0  0  0  0  0  0  0  0
  -28.8602  -30.7223  -15.8005 C   0  0  0  0  0  0  0  0  0  0  0  0
  -29.5945  -31.3340  -14.3507 Cl  0  0  0  0  0  0  0  0  0  0  0  0
  -27.4734  -30.7566  -15.9831 C   0  0  0  0  0  0  0  0  0  0  0  0
  -26.6678  -31.2166  -14.9932 N   0  0  0  0  0  0  0  0  0  0  0  0
  -25.3336  -31.2046  -15.1708 C   0  0  0  0  0  0  0  0  0  0  0  0
  -24.7281  -30.7207  -16.3044 C   0  0  0  0  0  0  0  0  0  0  0  0
  -25.5473  -30.2482  -17.3222 C   0  0  0  0  0  0  0  0  0  0  0  0
  -26.9582  -30.2806  -17.2127 C   0  0  0  0  0  0  0  0  0  0  0  0
  -26.3134  -29.2894  -21.6910 C   0  0  0  0  0  0  0  0  0  0  0  0
  -26.5523  -30.0323  -22.8411 C   0  0  0  0  0  0  0  0  0  0  0  0
  -26.2054  -29.4714  -24.0488 C   0  0  0  0  0  0  0  0  0  0  0  0
  -26.3355  -30.2111  -25.1543 F   0  0  0  0  0  0  0  0  0  0  0  0
  -25.6833  -28.2375  -24.1725 N   0  0  0  0  0  0  0  0  0  0  0  0
  -25.4616  -27.5390  -23.0367 C   0  0  0  0  0  0  0  0  0  0  0  0
  -25.7691  -28.0122  -21.7731 C   0  0  0  0  0  0  0  0  0  0  0  0
  -25.5132  -27.2918  -20.6496 O   0  0  0  0  0  0  0  0  0  0  0  0
  1  2  2  0
  2  3  1  0
  3  4  1  0
  4  5  2  0
  5  6  1  0
  6  7  2  0
  7  8  1  0
  7  9  1  0
  9 10  2  0
 10 11  1  0
 11 12  2  0
 12 13  1  0
 13 14  2  0
  2 15  1  0
 15 16  2  0
 16 17  1  0
 17 18  1  0
 17 19  2  0
 19 20  1  0
 20 21  2  0
 21 22  1  0
 14  4  1  0
 21 15  1  0
 14  9  1  0
M  END
>  <id>  (48) 
237498

>  <inchikey>  (48) 
BOHWXLRPSZWTJX-UHFFFAOYSA-N

>  <alias>  (48) 
None

>  <smiles>  (48) 
O=C(Nc1ccc(Cl)c2ncccc12)c1cc(F)ncc1O

>  <path>  (48) 
/opt/xchem-fragalysis-2/maxwin/RdRp_FFF/syndirella/mar_elabs/elabs_005/YAOSTISNIUSXMX-UHFFFAOYSA-N/output/YAOSTISNIUSXMX-UHFFFAOYSA-N-kzFKyu-171-A/YAOSTISNIUSXMX-UHFFFAOYSA-N-kzFKyu-171-A.minimised.mol

>  <distance_score>  (48) 
0.79188

>  <energy_score>  (48) 
-9.116975

>  <compound>  (48) 
BOHWXLRPSZWTJX-UHFFFAOYSA-N

>  <compound_id>  (48) 
77530

>  <target>  (48) 
Flavi_NS5_RdRp

>  <tags>  (48) 
[]

>  <inspirations>  (48) 
{P × 2}

>  <subsites>  (48) 
None

>  <reference>  (48) 
z0221a

$$$$
OJFDNWOEFHRCRZ-UHFFFAOYSA-N
     RDKit          3D

 22 24  0  0  0  0  0  0  0  0999 V2000
  -25.5410  -27.1270  -20.6371 N   0  0  0  0  0  0  0  0  0  0  0  0
  -25.7062  -28.0034  -21.7130 C   0  0  0  0  0  0  0  0  0  0  0  0
  -25.4934  -27.5765  -23.0231 C   0  0  0  0  0  0  0  0  0  0  0  0
  -25.7595  -28.3099  -24.1310 N   0  0  0  0  0  0  0  0  0  0  0  0
  -26.2648  -29.5283  -23.9211 C   0  0  0  0  0  0  0  0  0  0  0  0
  -26.4350  -30.2700  -25.0344 O   0  0  0  0  0  0  0  0  0  0  0  0
  -26.5698  -30.0597  -22.6967 C   0  0  0  0  0  0  0  0  0  0  0  0
  -26.2816  -29.2757  -21.5863 C   0  0  0  0  0  0  0  0  0  0  0  0
  -26.3230  -29.9715  -20.2871 C   0  0  0  0  0  0  0  0  0  0  0  0
  -25.5468  -30.8157  -20.0879 O   0  0  0  0  0  0  0  0  0  0  0  0
  -27.4161  -29.3928  -19.3823 N   0  0  0  0  0  0  0  0  0  0  0  0
  -27.8386  -29.7794  -18.1126 C   0  0  0  0  0  0  0  0  0  0  0  0
  -29.2142  -29.7393  -17.9089 C   0  0  0  0  0  0  0  0  0  0  0  0
  -29.7378  -30.2118  -16.7213 C   0  0  0  0  0  0  0  0  0  0  0  0
  -28.8919  -30.7323  -15.7448 C   0  0  0  0  0  0  0  0  0  0  0  0
  -29.6605  -31.3644  -14.3214 Cl  0  0  0  0  0  0  0  0  0  0  0  0
  -27.5004  -30.7525  -15.8881 C   0  0  0  0  0  0  0  0  0  0  0  0
  -26.7193  -31.2223  -14.8835 N   0  0  0  0  0  0  0  0  0  0  0  0
  -25.3806  -31.2007  -15.0229 C   0  0  0  0  0  0  0  0  0  0  0  0
  -24.7465  -30.6973  -16.1320 C   0  0  0  0  0  0  0  0  0  0  0  0
  -25.5407  -30.2130  -17.1640 C   0  0  0  0  0  0  0  0  0  0  0  0
  -26.9547  -30.2527  -17.0940 C   0  0  0  0  0  0  0  0  0  0  0  0
  1  2  1  0
  2  3  2  0
  3  4  1  0
  4  5  2  0
  5  6  1  0
  5  7  1  0
  7  8  2  0
  8  9  1  0
  9 10  2  0
  9 11  1  0
 11 12  1  0
 12 13  2  0
 13 14  1  0
 14 15  2  0
 15 16  1  0
 15 17  1  0
 17 18  2  0
 18 19  1  0
 19 20  2  0
 20 21  1  0
 21 22  2  0
  8  2  1  0
 22 12  1  0
 22 17  1  0
M  END
>  <id>  (49) 
237499

>  <inchikey>  (49) 
OJFDNWOEFHRCRZ-UHFFFAOYSA-N

>  <alias>  (49) 
None

>  <smiles>  (49) 
Nc1cnc(O)cc1C(=O)Nc1ccc(Cl)c2ncccc12

>  <path>  (49) 
/opt/xchem-fragalysis-2/maxwin/RdRp_FFF/syndirella/mar_elabs/elabs_005/YAOSTISNIUSXMX-UHFFFAOYSA-N/output/YAOSTISNIUSXMX-UHFFFAOYSA-N-kzFKyu-172-A/YAOSTISNIUSXMX-UHFFFAOYSA-N-kzFKyu-172-A.minimised.mol

>  <distance_score>  (49) 
0.865667

>  <energy_score>  (49) 
-41.446939

>  <compound>  (49) 
OJFDNWOEFHRCRZ-UHFFFAOYSA-N

>  <compound_id>  (49) 
77531

>  <target>  (49) 
Flavi_NS5_RdRp

>  <tags>  (49) 
[]

>  <inspirations>  (49) 
{P × 2}

>  <subsites>  (49) 
None

>  <reference>  (49) 
z0221a

$$$$
KNLRPMGHUXZZKR-UHFFFAOYSA-N
     RDKit          3D

 22 24  0  0  0  0  0  0  0  0999 V2000
  -26.5337  -29.9797  -25.1574 N   0  0  0  0  0  0  0  0  0  0  0  0
  -26.3026  -29.3428  -23.9584 C   0  0  0  0  0  0  0  0  0  0  0  0
  -26.6048  -29.9436  -22.7559 C   0  0  0  0  0  0  0  0  0  0  0  0
  -26.2963  -29.2552  -21.5877 C   0  0  0  0  0  0  0  0  0  0  0  0
  -26.3733  -30.0147  -20.3326 C   0  0  0  0  0  0  0  0  0  0  0  0
  -25.5924  -30.8545  -20.1394 O   0  0  0  0  0  0  0  0  0  0  0  0
  -27.5232  -29.5062  -19.4565 N   0  0  0  0  0  0  0  0  0  0  0  0
  -27.8898  -29.8469  -18.1555 C   0  0  0  0  0  0  0  0  0  0  0  0
  -29.2603  -29.7928  -17.9147 C   0  0  0  0  0  0  0  0  0  0  0  0
  -29.7564  -30.2349  -16.7044 C   0  0  0  0  0  0  0  0  0  0  0  0
  -28.8890  -30.7365  -15.7384 C   0  0  0  0  0  0  0  0  0  0  0  0
  -29.6282  -31.3471  -14.2908 Cl  0  0  0  0  0  0  0  0  0  0  0  0
  -27.5013  -30.7564  -15.9117 C   0  0  0  0  0  0  0  0  0  0  0  0
  -26.7020  -31.1972  -14.9090 N   0  0  0  0  0  0  0  0  0  0  0  0
  -25.3664  -31.1785  -15.0708 C   0  0  0  0  0  0  0  0  0  0  0  0
  -24.7536  -30.7023  -16.2028 C   0  0  0  0  0  0  0  0  0  0  0  0
  -25.5668  -30.2466  -17.2339 C   0  0  0  0  0  0  0  0  0  0  0  0
  -26.9804  -30.2878  -17.1424 C   0  0  0  0  0  0  0  0  0  0  0  0
  -25.7269  -27.9900  -21.6378 C   0  0  0  0  0  0  0  0  0  0  0  0
  -25.3862  -27.2438  -20.5554 O   0  0  0  0  0  0  0  0  0  0  0  0
  -25.4546  -27.4810  -22.8902 C   0  0  0  0  0  0  0  0  0  0  0  0
  -25.7362  -28.1311  -24.0416 N   0  0  0  0  0  0  0  0  0  0  0  0
  1  2  1  0
  2  3  2  0
  3  4  1  0
  4  5  1  0
  5  6  2  0
  5  7  1  0
  7  8  1  0
  8  9  2  0
  9 10  1  0
 10 11  2  0
 11 12  1  0
 11 13  1  0
 13 14  2  0
 14 15  1  0
 15 16  2  0
 16 17  1  0
 17 18  2  0
  4 19  2  0
 19 20  1  0
 19 21  1  0
 21 22  2  0
 22  2  1  0
 18  8  1  0
 18 13  1  0
M  END
>  <id>  (50) 
237500

>  <inchikey>  (50) 
KNLRPMGHUXZZKR-UHFFFAOYSA-N

>  <alias>  (50) 
None

>  <smiles>  (50) 
Nc1cc(C(=O)Nc2ccc(Cl)c3ncccc23)c(O)cn1

>  <path>  (50) 
/opt/xchem-fragalysis-2/maxwin/RdRp_FFF/syndirella/mar_elabs/elabs_005/YAOSTISNIUSXMX-UHFFFAOYSA-N/output/YAOSTISNIUSXMX-UHFFFAOYSA-N-kzFKyu-173-A/YAOSTISNIUSXMX-UHFFFAOYSA-N-kzFKyu-173-A.minimised.mol

>  <distance_score>  (50) 
0.844631

>  <energy_score>  (50) 
-25.438419

>  <compound>  (50) 
KNLRPMGHUXZZKR-UHFFFAOYSA-N

>  <compound_id>  (50) 
77532

>  <target>  (50) 
Flavi_NS5_RdRp

>  <tags>  (50) 
[]

>  <inspirations>  (50) 
{P × 2}

>  <subsites>  (50) 
None

>  <reference>  (50) 
z0221a

$$$$
ZILUFIILJKREFE-UHFFFAOYSA-N
     RDKit          3D

 22 24  0  0  0  0  0  0  0  0999 V2000
  -28.8453  -29.0117  -20.9517 O   0  0  0  0  0  0  0  0  0  0  0  0
  -27.7133  -29.1192  -20.6989 C   0  0  0  0  0  0  0  0  0  0  0  0
  -27.0178  -29.5002  -19.3819 N   0  0  0  0  0  0  0  0  0  0  0  0
  -27.5532  -29.9096  -18.1584 C   0  0  0  0  0  0  0  0  0  0  0  0
  -28.9446  -29.9482  -18.0350 C   0  0  0  0  0  0  0  0  0  0  0  0
  -29.5251  -30.3938  -16.8626 C   0  0  0  0  0  0  0  0  0  0  0  0
  -28.7158  -30.8084  -15.8109 C   0  0  0  0  0  0  0  0  0  0  0  0
  -29.5318  -31.3991  -14.3971 Cl  0  0  0  0  0  0  0  0  0  0  0  0
  -27.3164  -30.7712  -15.8800 C   0  0  0  0  0  0  0  0  0  0  0  0
  -26.5695  -31.1735  -14.8232 N   0  0  0  0  0  0  0  0  0  0  0  0
  -25.2273  -31.1350  -14.9079 C   0  0  0  0  0  0  0  0  0  0  0  0
  -24.5533  -30.6964  -16.0227 C   0  0  0  0  0  0  0  0  0  0  0  0
  -25.3031  -30.2782  -17.1148 C   0  0  0  0  0  0  0  0  0  0  0  0
  -26.7181  -30.3090  -17.0792 C   0  0  0  0  0  0  0  0  0  0  0  0
  -26.7588  -28.9699  -21.8055 C   0  0  0  0  0  0  0  0  0  0  0  0
  -26.9306  -29.8533  -22.8681 C   0  0  0  0  0  0  0  0  0  0  0  0
  -26.2334  -29.6174  -24.0300 C   0  0  0  0  0  0  0  0  0  0  0  0
  -26.3113  -30.5063  -25.0247 F   0  0  0  0  0  0  0  0  0  0  0  0
  -25.4404  -28.5514  -24.2004 N   0  0  0  0  0  0  0  0  0  0  0  0
  -25.2802  -27.7233  -23.1433 C   0  0  0  0  0  0  0  0  0  0  0  0
  -25.8734  -27.9095  -21.9078 C   0  0  0  0  0  0  0  0  0  0  0  0
  -25.5273  -26.8400  -20.6200 Cl  0  0  0  0  0  0  0  0  0  0  0  0
  1  2  2  0
  2  3  1  0
  3  4  1  0
  4  5  2  0
  5  6  1  0
  6  7  2  0
  7  8  1  0
  7  9  1  0
  9 10  2  0
 10 11  1  0
 11 12  2  0
 12 13  1  0
 13 14  2  0
  2 15  1  0
 15 16  2  0
 16 17  1  0
 17 18  1  0
 17 19  2  0
 19 20  1  0
 20 21  2  0
 21 22  1  0
 14  4  1  0
 21 15  1  0
 14  9  1  0
M  END
>  <id>  (51) 
237501

>  <inchikey>  (51) 
ZILUFIILJKREFE-UHFFFAOYSA-N

>  <alias>  (51) 
None

>  <smiles>  (51) 
O=C(Nc1ccc(Cl)c2ncccc12)c1cc(F)ncc1Cl

>  <path>  (51) 
/opt/xchem-fragalysis-2/maxwin/RdRp_FFF/syndirella/mar_elabs/elabs_005/YAOSTISNIUSXMX-UHFFFAOYSA-N/output/YAOSTISNIUSXMX-UHFFFAOYSA-N-kzFKyu-174-A/YAOSTISNIUSXMX-UHFFFAOYSA-N-kzFKyu-174-A.minimised.mol

>  <distance_score>  (51) 
1.065567

>  <energy_score>  (51) 
-17.750975

>  <compound>  (51) 
ZILUFIILJKREFE-UHFFFAOYSA-N

>  <compound_id>  (51) 
77533

>  <target>  (51) 
Flavi_NS5_RdRp

>  <tags>  (51) 
[]

>  <inspirations>  (51) 
{P × 2}

>  <subsites>  (51) 
None

>  <reference>  (51) 
z0221a

$$$$
HLQBGTAEOOMKPR-UHFFFAOYSA-N
     RDKit          3D

 22 24  0  0  0  0  0  0  0  0999 V2000
  -24.7863  -27.9263  -24.5815 N   0  0  0  0  0  0  0  0  0  0  0  0
  -25.5262  -28.3670  -23.5161 N   0  0  0  0  0  0  0  0  0  0  0  0
  -26.2403  -29.5332  -23.6647 C   0  0  0  0  0  0  0  0  0  0  0  0
  -27.0325  -29.9489  -22.6726 C   0  0  0  0  0  0  0  0  0  0  0  0
  -27.1604  -29.1626  -21.4790 C   0  0  0  0  0  0  0  0  0  0  0  0
  -28.1657  -29.5313  -20.4613 C   0  0  0  0  0  0  0  0  0  0  0  0
  -29.3093  -29.5379  -20.6799 O   0  0  0  0  0  0  0  0  0  0  0  0
  -27.3894  -29.9149  -19.1849 N   0  0  0  0  0  0  0  0  0  0  0  0
  -27.8484  -30.2832  -17.9258 C   0  0  0  0  0  0  0  0  0  0  0  0
  -29.2244  -30.4210  -17.7438 C   0  0  0  0  0  0  0  0  0  0  0  0
  -29.7114  -30.8434  -16.5239 C   0  0  0  0  0  0  0  0  0  0  0  0
  -28.8228  -31.1244  -15.4903 C   0  0  0  0  0  0  0  0  0  0  0  0
  -29.5278  -31.7235  -14.0207 Cl  0  0  0  0  0  0  0  0  0  0  0  0
  -27.4343  -30.9702  -15.6205 C   0  0  0  0  0  0  0  0  0  0  0  0
  -26.6091  -31.2406  -14.5790 N   0  0  0  0  0  0  0  0  0  0  0  0
  -25.2783  -31.1038  -14.7318 C   0  0  0  0  0  0  0  0  0  0  0  0
  -24.6896  -30.6935  -15.9042 C   0  0  0  0  0  0  0  0  0  0  0  0
  -25.5209  -30.4119  -16.9803 C   0  0  0  0  0  0  0  0  0  0  0  0
  -26.9297  -30.5410  -16.8693 C   0  0  0  0  0  0  0  0  0  0  0  0
  -26.4587  -28.0427  -21.2880 C   0  0  0  0  0  0  0  0  0  0  0  0
  -25.6026  -27.5471  -22.3829 C   0  0  0  0  0  0  0  0  0  0  0  0
  -25.0857  -26.4486  -22.2216 O   0  0  0  0  0  0  0  0  0  0  0  0
  1  2  1  0
  2  3  1  0
  3  4  2  0
  4  5  1  0
  5  6  1  0
  6  7  2  0
  6  8  1  0
  8  9  1  0
  9 10  2  0
 10 11  1  0
 11 12  2  0
 12 13  1  0
 12 14  1  0
 14 15  2  0
 15 16  1  0
 16 17  2  0
 17 18  1  0
 18 19  2  0
  5 20  2  0
 20 21  1  0
 21 22  2  0
 21  2  1  0
 19  9  1  0
 19 14  1  0
M  END
>  <id>  (52) 
237523

>  <inchikey>  (52) 
HLQBGTAEOOMKPR-UHFFFAOYSA-N

>  <alias>  (52) 
None

>  <smiles>  (52) 
Nn1ccc(C(=O)Nc2ccc(Cl)c3ncccc23)cc1=O

>  <path>  (52) 
/opt/xchem-fragalysis-2/maxwin/RdRp_FFF/syndirella/mar_elabs/elabs_005/YAOSTISNIUSXMX-UHFFFAOYSA-N/output/YAOSTISNIUSXMX-UHFFFAOYSA-N-kzFKyu-229-A/YAOSTISNIUSXMX-UHFFFAOYSA-N-kzFKyu-229-A.minimised.mol

>  <distance_score>  (52) 
1.272467

>  <energy_score>  (52) 
-32.186275

>  <compound>  (52) 
HLQBGTAEOOMKPR-UHFFFAOYSA-N

>  <compound_id>  (52) 
77563

>  <target>  (52) 
Flavi_NS5_RdRp

>  <tags>  (52) 
[]

>  <inspirations>  (52) 
{P × 2}

>  <subsites>  (52) 
None

>  <reference>  (52) 
z0221a

$$$$
WFTSNMOMCAYDKM-UHFFFAOYSA-N
     RDKit          3D

 22 24  0  0  0  0  0  0  0  0999 V2000
  -27.0437  -30.3829  -23.7439 N   0  0  0  0  0  0  0  0  0  0  0  0
  -26.4281  -29.2520  -23.2021 C   0  0  0  0  0  0  0  0  0  0  0  0
  -25.6090  -28.4667  -23.9993 C   0  0  0  0  0  0  0  0  0  0  0  0
  -25.0851  -27.3034  -23.5836 N   0  0  0  0  0  0  0  0  0  0  0  0
  -25.2748  -26.9675  -22.2987 C   0  0  0  0  0  0  0  0  0  0  0  0
  -25.9170  -27.7635  -21.3902 C   0  0  0  0  0  0  0  0  0  0  0  0
  -25.9934  -27.3629  -20.1187 F   0  0  0  0  0  0  0  0  0  0  0  0
  -26.5202  -28.9222  -21.8415 C   0  0  0  0  0  0  0  0  0  0  0  0
  -27.4437  -29.6573  -20.9414 C   0  0  0  0  0  0  0  0  0  0  0  0
  -28.4615  -30.0195  -21.3844 O   0  0  0  0  0  0  0  0  0  0  0  0
  -26.8898  -29.7468  -19.5029 N   0  0  0  0  0  0  0  0  0  0  0  0
  -27.4892  -30.1994  -18.3278 C   0  0  0  0  0  0  0  0  0  0  0  0
  -28.8548  -30.4848  -18.3361 C   0  0  0  0  0  0  0  0  0  0  0  0
  -29.4854  -30.8460  -17.1579 C   0  0  0  0  0  0  0  0  0  0  0  0
  -28.7502  -30.9345  -15.9778 C   0  0  0  0  0  0  0  0  0  0  0  0
  -29.6264  -31.3867  -14.5484 Cl  0  0  0  0  0  0  0  0  0  0  0  0
  -27.3715  -30.6879  -15.9313 C   0  0  0  0  0  0  0  0  0  0  0  0
  -26.6864  -30.8153  -14.7685 N   0  0  0  0  0  0  0  0  0  0  0  0
  -25.3586  -30.5934  -14.7544 C   0  0  0  0  0  0  0  0  0  0  0  0
  -24.6390  -30.2346  -15.8687 C   0  0  0  0  0  0  0  0  0  0  0  0
  -25.3274  -30.0951  -17.0661 C   0  0  0  0  0  0  0  0  0  0  0  0
  -26.7252  -30.3132  -17.1330 C   0  0  0  0  0  0  0  0  0  0  0  0
  1  2  1  0
  2  3  2  0
  3  4  1  0
  4  5  2  0
  5  6  1  0
  6  7  1  0
  6  8  2  0
  8  9  1  0
  9 10  2  0
  9 11  1  0
 11 12  1  0
 12 13  2  0
 13 14  1  0
 14 15  2  0
 15 16  1  0
 15 17  1  0
 17 18  2  0
 18 19  1  0
 19 20  2  0
 20 21  1  0
 21 22  2  0
  8  2  1  0
 22 12  1  0
 22 17  1  0
M  END
>  <id>  (53) 
237545

>  <inchikey>  (53) 
WFTSNMOMCAYDKM-UHFFFAOYSA-N

>  <alias>  (53) 
None

>  <smiles>  (53) 
Nc1cncc(F)c1C(=O)Nc1ccc(Cl)c2ncccc12

>  <path>  (53) 
/opt/xchem-fragalysis-2/maxwin/RdRp_FFF/syndirella/mar_elabs/elabs_005/YAOSTISNIUSXMX-UHFFFAOYSA-N/output/YAOSTISNIUSXMX-UHFFFAOYSA-N-kzFKyu-270-A/YAOSTISNIUSXMX-UHFFFAOYSA-N-kzFKyu-270-A.minimised.mol

>  <distance_score>  (53) 
1.064121

>  <energy_score>  (53) 
-33.668626

>  <compound>  (53) 
WFTSNMOMCAYDKM-UHFFFAOYSA-N

>  <compound_id>  (53) 
77591

>  <target>  (53) 
Flavi_NS5_RdRp

>  <tags>  (53) 
[]

>  <inspirations>  (53) 
{P × 2}

>  <subsites>  (53) 
None

>  <reference>  (53) 
z0221a

$$$$
LFOFXODKJREZPY-UHFFFAOYSA-N
     RDKit          3D

 22 24  0  0  0  0  0  0  0  0999 V2000
  -29.4960  -30.2988  -20.4263 O   0  0  0  0  0  0  0  0  0  0  0  0
  -28.4054  -30.0040  -20.1513 C   0  0  0  0  0  0  0  0  0  0  0  0
  -27.6607  -30.0786  -18.8076 N   0  0  0  0  0  0  0  0  0  0  0  0
  -28.0556  -30.5984  -17.5913 C   0  0  0  0  0  0  0  0  0  0  0  0
  -29.4103  -30.8447  -17.3968 C   0  0  0  0  0  0  0  0  0  0  0  0
  -29.8379  -31.3076  -16.1723 C   0  0  0  0  0  0  0  0  0  0  0  0
  -28.9038  -31.5256  -15.1599 C   0  0  0  0  0  0  0  0  0  0  0  0
  -29.5276  -32.1560  -13.6654 Cl  0  0  0  0  0  0  0  0  0  0  0  0
  -27.5288  -31.2791  -15.3183 C   0  0  0  0  0  0  0  0  0  0  0  0
  -26.6569  -31.5015  -14.3026 N   0  0  0  0  0  0  0  0  0  0  0  0
  -25.3424  -31.2670  -14.4858 C   0  0  0  0  0  0  0  0  0  0  0  0
  -24.8129  -30.7984  -15.6646 C   0  0  0  0  0  0  0  0  0  0  0  0
  -25.6921  -30.5655  -16.7130 C   0  0  0  0  0  0  0  0  0  0  0  0
  -27.0876  -30.8001  -16.5672 C   0  0  0  0  0  0  0  0  0  0  0  0
  -27.5130  -29.3613  -21.1167 C   0  0  0  0  0  0  0  0  0  0  0  0
  -27.2682  -29.9258  -22.3446 C   0  0  0  0  0  0  0  0  0  0  0  0
  -26.3642  -29.2801  -23.1556 C   0  0  0  0  0  0  0  0  0  0  0  0
  -26.0030  -29.9278  -24.7344 S   0  0  0  0  0  0  0  0  0  0  0  0
  -25.7060  -28.1501  -22.8049 N   0  0  0  0  0  0  0  0  0  0  0  0
  -25.9754  -27.6470  -21.5899 C   0  0  0  0  0  0  0  0  0  0  0  0
  -25.1996  -26.1815  -21.0323 S   0  0  0  0  0  0  0  0  0  0  0  0
  -26.8804  -28.1974  -20.7276 C   0  0  0  0  0  0  0  0  0  0  0  0
  1  2  2  0
  2  3  1  0
  3  4  1  0
  4  5  2  0
  5  6  1  0
  6  7  2  0
  7  8  1  0
  7  9  1  0
  9 10  2  0
 10 11  1  0
 11 12  2  0
 12 13  1  0
 13 14  2  0
  2 15  1  0
 15 16  2  0
 16 17  1  0
 17 18  1  0
 17 19  2  0
 19 20  1  0
 20 21  1  0
 20 22  2  0
 14  4  1  0
 22 15  1  0
 14  9  1  0
M  END
>  <id>  (54) 
237546

>  <inchikey>  (54) 
LFOFXODKJREZPY-UHFFFAOYSA-N

>  <alias>  (54) 
None

>  <smiles>  (54) 
O=C(Nc1ccc(Cl)c2ncccc12)c1cc(S)nc(S)c1

>  <path>  (54) 
/opt/xchem-fragalysis-2/maxwin/RdRp_FFF/syndirella/mar_elabs/elabs_005/YAOSTISNIUSXMX-UHFFFAOYSA-N/output/YAOSTISNIUSXMX-UHFFFAOYSA-N-kzFKyu-271-A/YAOSTISNIUSXMX-UHFFFAOYSA-N-kzFKyu-271-A.minimised.mol

>  <distance_score>  (54) 
1.672044

>  <energy_score>  (54) 
-27.925798

>  <compound>  (54) 
LFOFXODKJREZPY-UHFFFAOYSA-N

>  <compound_id>  (54) 
77592

>  <target>  (54) 
Flavi_NS5_RdRp

>  <tags>  (54) 
[]

>  <inspirations>  (54) 
{P × 2}

>  <subsites>  (54) 
None

>  <reference>  (54) 
z0221a

$$$$
HJQSZQCXVGWBTD-UHFFFAOYSA-N
     RDKit          3D

 22 24  0  0  0  0  0  0  0  0999 V2000
  -26.5372  -30.3507  -24.9899 N   0  0  0  0  0  0  0  0  0  0  0  0
  -26.3772  -29.5271  -23.8966 C   0  0  0  0  0  0  0  0  0  0  0  0
  -27.0660  -29.7588  -22.7293 C   0  0  0  0  0  0  0  0  0  0  0  0
  -26.8365  -28.9100  -21.6527 C   0  0  0  0  0  0  0  0  0  0  0  0
  -27.7732  -29.0403  -20.5331 C   0  0  0  0  0  0  0  0  0  0  0  0
  -28.8920  -28.7772  -20.7184 O   0  0  0  0  0  0  0  0  0  0  0  0
  -27.0732  -29.5885  -19.2811 N   0  0  0  0  0  0  0  0  0  0  0  0
  -27.5986  -30.0058  -18.0598 C   0  0  0  0  0  0  0  0  0  0  0  0
  -28.9886  -30.0420  -17.9244 C   0  0  0  0  0  0  0  0  0  0  0  0
  -29.5555  -30.4933  -16.7484 C   0  0  0  0  0  0  0  0  0  0  0  0
  -28.7331  -30.9113  -15.7074 C   0  0  0  0  0  0  0  0  0  0  0  0
  -29.5338  -31.5113  -14.2886 Cl  0  0  0  0  0  0  0  0  0  0  0  0
  -27.3337  -30.8734  -15.7901 C   0  0  0  0  0  0  0  0  0  0  0  0
  -26.5731  -31.2739  -14.7418 N   0  0  0  0  0  0  0  0  0  0  0  0
  -25.2314  -31.2389  -14.8442 C   0  0  0  0  0  0  0  0  0  0  0  0
  -24.5699  -30.8031  -15.9678 C   0  0  0  0  0  0  0  0  0  0  0  0
  -25.3340  -30.3851  -17.0497 C   0  0  0  0  0  0  0  0  0  0  0  0
  -26.7494  -30.4121  -16.9947 C   0  0  0  0  0  0  0  0  0  0  0  0
  -25.8988  -27.8961  -21.7404 C   0  0  0  0  0  0  0  0  0  0  0  0
  -25.4340  -26.7770  -20.3080 Br  0  0  0  0  0  0  0  0  0  0  0  0
  -25.3059  -27.7154  -22.9724 C   0  0  0  0  0  0  0  0  0  0  0  0
  -25.5292  -28.5062  -24.0441 N   0  0  0  0  0  0  0  0  0  0  0  0
  1  2  1  0
  2  3  2  0
  3  4  1  0
  4  5  1  0
  5  6  2  0
  5  7  1  0
  7  8  1  0
  8  9  2  0
  9 10  1  0
 10 11  2  0
 11 12  1  0
 11 13  1  0
 13 14  2  0
 14 15  1  0
 15 16  2  0
 16 17  1  0
 17 18  2  0
  4 19  2  0
 19 20  1  0
 19 21  1  0
 21 22  2  0
 22  2  1  0
 18  8  1  0
 18 13  1  0
M  END
>  <id>  (55) 
237547

>  <inchikey>  (55) 
HJQSZQCXVGWBTD-UHFFFAOYSA-N

>  <alias>  (55) 
None

>  <smiles>  (55) 
Nc1cc(C(=O)Nc2ccc(Cl)c3ncccc23)c(Br)cn1

>  <path>  (55) 
/opt/xchem-fragalysis-2/maxwin/RdRp_FFF/syndirella/mar_elabs/elabs_005/YAOSTISNIUSXMX-UHFFFAOYSA-N/output/YAOSTISNIUSXMX-UHFFFAOYSA-N-kzFKyu-272-A/YAOSTISNIUSXMX-UHFFFAOYSA-N-kzFKyu-272-A.minimised.mol

>  <distance_score>  (55) 
1.163226

>  <energy_score>  (55) 
-45.925686

>  <compound>  (55) 
HJQSZQCXVGWBTD-UHFFFAOYSA-N

>  <compound_id>  (55) 
77593

>  <target>  (55) 
Flavi_NS5_RdRp

>  <tags>  (55) 
[]

>  <inspirations>  (55) 
{P × 2}

>  <subsites>  (55) 
None

>  <reference>  (55) 
z0221a

$$$$
NZLSHPHYPIMMAK-UHFFFAOYSA-N
     RDKit          3D

 22 24  0  0  0  0  0  0  0  0999 V2000
  -26.4963  -30.3167  -24.9447 N   0  0  0  0  0  0  0  0  0  0  0  0
  -26.3831  -29.5047  -23.8337 C   0  0  0  0  0  0  0  0  0  0  0  0
  -27.1320  -29.7419  -22.7097 C   0  0  0  0  0  0  0  0  0  0  0  0
  -26.9654  -28.9004  -21.6128 C   0  0  0  0  0  0  0  0  0  0  0  0
  -27.9199  -29.1207  -20.5178 C   0  0  0  0  0  0  0  0  0  0  0  0
  -29.0594  -29.0980  -20.7560 O   0  0  0  0  0  0  0  0  0  0  0  0
  -27.1821  -29.4518  -19.2128 N   0  0  0  0  0  0  0  0  0  0  0  0
  -27.6684  -29.9032  -17.9869 C   0  0  0  0  0  0  0  0  0  0  0  0
  -29.0531  -30.0118  -17.8352 C   0  0  0  0  0  0  0  0  0  0  0  0
  -29.5818  -30.5240  -16.6667 C   0  0  0  0  0  0  0  0  0  0  0  0
  -28.7259  -30.9299  -15.6486 C   0  0  0  0  0  0  0  0  0  0  0  0
  -29.4771  -31.6141  -14.2405 Cl  0  0  0  0  0  0  0  0  0  0  0  0
  -27.3314  -30.8190  -15.7463 C   0  0  0  0  0  0  0  0  0  0  0  0
  -26.5390  -31.2147  -14.7201 N   0  0  0  0  0  0  0  0  0  0  0  0
  -25.2022  -31.1185  -14.8401 C   0  0  0  0  0  0  0  0  0  0  0  0
  -24.5777  -30.6226  -15.9598 C   0  0  0  0  0  0  0  0  0  0  0  0
  -25.3745  -30.2052  -17.0179 C   0  0  0  0  0  0  0  0  0  0  0  0
  -26.7862  -30.2943  -16.9433 C   0  0  0  0  0  0  0  0  0  0  0  0
  -26.0467  -27.8540  -21.6254 C   0  0  0  0  0  0  0  0  0  0  0  0
  -25.7054  -27.1046  -20.4936 N   0  0  0  0  0  0  0  0  0  0  0  0
  -25.3380  -27.7313  -22.8121 C   0  0  0  0  0  0  0  0  0  0  0  0
  -25.5060  -28.5024  -23.9111 N   0  0  0  0  0  0  0  0  0  0  0  0
  1  2  1  0
  2  3  2  0
  3  4  1  0
  4  5  1  0
  5  6  2  0
  5  7  1  0
  7  8  1  0
  8  9  2  0
  9 10  1  0
 10 11  2  0
 11 12  1  0
 11 13  1  0
 13 14  2  0
 14 15  1  0
 15 16  2  0
 16 17  1  0
 17 18  2  0
  4 19  2  0
 19 20  1  0
 19 21  1  0
 21 22  2  0
 22  2  1  0
 18  8  1  0
 18 13  1  0
M  END
>  <id>  (56) 
237553

>  <inchikey>  (56) 
NZLSHPHYPIMMAK-UHFFFAOYSA-N

>  <alias>  (56) 
None

>  <smiles>  (56) 
Nc1cc(C(=O)Nc2ccc(Cl)c3ncccc23)c(N)cn1

>  <path>  (56) 
/opt/xchem-fragalysis-2/maxwin/RdRp_FFF/syndirella/mar_elabs/elabs_005/YAOSTISNIUSXMX-UHFFFAOYSA-N/output/YAOSTISNIUSXMX-UHFFFAOYSA-N-kzFKyu-288-A/YAOSTISNIUSXMX-UHFFFAOYSA-N-kzFKyu-288-A.minimised.mol

>  <distance_score>  (56) 
1.16044

>  <energy_score>  (56) 
-53.89925

>  <compound>  (56) 
NZLSHPHYPIMMAK-UHFFFAOYSA-N

>  <compound_id>  (56) 
77602

>  <target>  (56) 
Flavi_NS5_RdRp

>  <tags>  (56) 
[]

>  <inspirations>  (56) 
{P × 2}

>  <subsites>  (56) 
None

>  <reference>  (56) 
z0221a

$$$$
GKAKHVRQLIFQNL-UHFFFAOYSA-N
     RDKit          3D

 22 24  0  0  0  0  0  0  0  0999 V2000
  -24.9836  -26.4460  -22.5750 N   0  0  0  0  0  0  0  0  0  0  0  0
  -25.5672  -27.6966  -22.6540 C   0  0  0  0  0  0  0  0  0  0  0  0
  -25.6351  -28.2601  -23.8680 N   0  0  0  0  0  0  0  0  0  0  0  0
  -26.3635  -29.3808  -23.9751 C   0  0  0  0  0  0  0  0  0  0  0  0
  -27.0601  -29.8996  -22.9022 C   0  0  0  0  0  0  0  0  0  0  0  0
  -26.9520  -29.3155  -21.6444 C   0  0  0  0  0  0  0  0  0  0  0  0
  -27.8617  -29.8363  -20.5932 C   0  0  0  0  0  0  0  0  0  0  0  0
  -28.8527  -30.3420  -20.9366 O   0  0  0  0  0  0  0  0  0  0  0  0
  -27.2834  -29.6355  -19.1880 N   0  0  0  0  0  0  0  0  0  0  0  0
  -27.7368  -30.0804  -17.9544 C   0  0  0  0  0  0  0  0  0  0  0  0
  -29.0936  -30.3962  -17.8526 C   0  0  0  0  0  0  0  0  0  0  0  0
  -29.5963  -30.8810  -16.6627 C   0  0  0  0  0  0  0  0  0  0  0  0
  -28.7354  -31.0610  -15.5833 C   0  0  0  0  0  0  0  0  0  0  0  0
  -29.4419  -31.7295  -14.1444 Cl  0  0  0  0  0  0  0  0  0  0  0  0
  -27.3655  -30.7546  -15.6437 C   0  0  0  0  0  0  0  0  0  0  0  0
  -26.5594  -30.9619  -14.5727 N   0  0  0  0  0  0  0  0  0  0  0  0
  -25.2436  -30.6923  -14.6704 C   0  0  0  0  0  0  0  0  0  0  0  0
  -24.6523  -30.2005  -15.8100 C   0  0  0  0  0  0  0  0  0  0  0  0
  -25.4635  -29.9758  -16.9131 C   0  0  0  0  0  0  0  0  0  0  0  0
  -26.8528  -30.2453  -16.8587 C   0  0  0  0  0  0  0  0  0  0  0  0
  -26.1143  -28.2355  -21.4993 C   0  0  0  0  0  0  0  0  0  0  0  0
  -25.8416  -27.6442  -20.2985 O   0  0  0  0  0  0  0  0  0  0  0  0
  1  2  1  0
  2  3  2  0
  3  4  1  0
  4  5  2  0
  5  6  1  0
  6  7  1  0
  7  8  2  0
  7  9  1  0
  9 10  1  0
 10 11  2  0
 11 12  1  0
 12 13  2  0
 13 14  1  0
 13 15  1  0
 15 16  2  0
 16 17  1  0
 17 18  2  0
 18 19  1  0
 19 20  2  0
  6 21  2  0
 21 22  1  0
 21  2  1  0
 20 10  1  0
 20 15  1  0
M  END
>  <id>  (57) 
237555

>  <inchikey>  (57) 
GKAKHVRQLIFQNL-UHFFFAOYSA-N

>  <alias>  (57) 
None

>  <smiles>  (57) 
Nc1nccc(C(=O)Nc2ccc(Cl)c3ncccc23)c1O

>  <path>  (57) 
/opt/xchem-fragalysis-2/maxwin/RdRp_FFF/syndirella/mar_elabs/elabs_005/YAOSTISNIUSXMX-UHFFFAOYSA-N/output/YAOSTISNIUSXMX-UHFFFAOYSA-N-kzFKyu-290-A/YAOSTISNIUSXMX-UHFFFAOYSA-N-kzFKyu-290-A.minimised.mol

>  <distance_score>  (57) 
1.037089

>  <energy_score>  (57) 
-25.17752

>  <compound>  (57) 
GKAKHVRQLIFQNL-UHFFFAOYSA-N

>  <compound_id>  (57) 
77604

>  <target>  (57) 
Flavi_NS5_RdRp

>  <tags>  (57) 
[]

>  <inspirations>  (57) 
{P × 2}

>  <subsites>  (57) 
None

>  <reference>  (57) 
z0221a

$$$$
XFKYKFOJPTVYNH-UHFFFAOYSA-N
     RDKit          3D

 22 24  0  0  0  0  0  0  0  0999 V2000
  -25.6102  -30.9819  -20.1749 O   0  0  0  0  0  0  0  0  0  0  0  0
  -26.3919  -30.1427  -20.3770 C   0  0  0  0  0  0  0  0  0  0  0  0
  -27.4739  -29.5479  -19.4626 N   0  0  0  0  0  0  0  0  0  0  0  0
  -27.8741  -29.9115  -18.1790 C   0  0  0  0  0  0  0  0  0  0  0  0
  -29.2439  -29.8404  -17.9438 C   0  0  0  0  0  0  0  0  0  0  0  0
  -29.7453  -30.2763  -16.7327 C   0  0  0  0  0  0  0  0  0  0  0  0
  -28.8839  -30.7851  -15.7634 C   0  0  0  0  0  0  0  0  0  0  0  0
  -29.6288  -31.3780  -14.3111 Cl  0  0  0  0  0  0  0  0  0  0  0  0
  -27.4959  -30.8206  -15.9344 C   0  0  0  0  0  0  0  0  0  0  0  0
  -26.6969  -31.2671  -14.9332 N   0  0  0  0  0  0  0  0  0  0  0  0
  -25.3610  -31.2468  -15.0972 C   0  0  0  0  0  0  0  0  0  0  0  0
  -24.7475  -30.7676  -16.2285 C   0  0  0  0  0  0  0  0  0  0  0  0
  -25.5604  -30.3122  -17.2589 C   0  0  0  0  0  0  0  0  0  0  0  0
  -26.9724  -30.3562  -17.1640 C   0  0  0  0  0  0  0  0  0  0  0  0
  -26.3349  -29.4353  -21.6653 C   0  0  0  0  0  0  0  0  0  0  0  0
  -26.6052  -30.1757  -22.8142 C   0  0  0  0  0  0  0  0  0  0  0  0
  -26.3308  -29.5983  -24.0401 C   0  0  0  0  0  0  0  0  0  0  0  0
  -25.8316  -28.3567  -24.1636 N   0  0  0  0  0  0  0  0  0  0  0  0
  -25.5732  -27.6740  -23.0325 C   0  0  0  0  0  0  0  0  0  0  0  0
  -25.1874  -26.3868  -23.2372 O   0  0  0  0  0  0  0  0  0  0  0  0
  -25.8058  -28.1552  -21.7568 C   0  0  0  0  0  0  0  0  0  0  0  0
  -25.4079  -27.1920  -20.3899 Cl  0  0  0  0  0  0  0  0  0  0  0  0
  1  2  2  0
  2  3  1  0
  3  4  1  0
  4  5  2  0
  5  6  1  0
  6  7  2  0
  7  8  1  0
  7  9  1  0
  9 10  2  0
 10 11  1  0
 11 12  2  0
 12 13  1  0
 13 14  2  0
  2 15  1  0
 15 16  2  0
 16 17  1  0
 17 18  2  0
 18 19  1  0
 19 20  1  0
 19 21  2  0
 21 22  1  0
 14  4  1  0
 21 15  1  0
 14  9  1  0
M  END
>  <id>  (58) 
237556

>  <inchikey>  (58) 
XFKYKFOJPTVYNH-UHFFFAOYSA-N

>  <alias>  (58) 
None

>  <smiles>  (58) 
O=C(Nc1ccc(Cl)c2ncccc12)c1ccnc(O)c1Cl

>  <path>  (58) 
/opt/xchem-fragalysis-2/maxwin/RdRp_FFF/syndirella/mar_elabs/elabs_005/YAOSTISNIUSXMX-UHFFFAOYSA-N/output/YAOSTISNIUSXMX-UHFFFAOYSA-N-kzFKyu-291-A/YAOSTISNIUSXMX-UHFFFAOYSA-N-kzFKyu-291-A.minimised.mol

>  <distance_score>  (58) 
0.832081

>  <energy_score>  (58) 
-17.737423

>  <compound>  (58) 
XFKYKFOJPTVYNH-UHFFFAOYSA-N

>  <compound_id>  (58) 
77605

>  <target>  (58) 
Flavi_NS5_RdRp

>  <tags>  (58) 
[]

>  <inspirations>  (58) 
{P × 2}

>  <subsites>  (58) 
None

>  <reference>  (58) 
z0221a

$$$$
IGNZZQMQVNOQJW-UHFFFAOYSA-N
     RDKit          3D

 22 24  0  0  0  0  0  0  0  0999 V2000
  -26.0845  -31.1015  -24.8455 N   0  0  0  0  0  0  0  0  0  0  0  0
  -26.2318  -30.3118  -23.7093 C   0  0  0  0  0  0  0  0  0  0  0  0
  -26.5270  -30.9142  -22.4994 C   0  0  0  0  0  0  0  0  0  0  0  0
  -26.5251  -30.1177  -21.3714 C   0  0  0  0  0  0  0  0  0  0  0  0
  -26.5703  -30.7234  -20.0423 C   0  0  0  0  0  0  0  0  0  0  0  0
  -25.8214  -31.5731  -19.7722 O   0  0  0  0  0  0  0  0  0  0  0  0
  -27.6116  -29.9994  -19.1740 N   0  0  0  0  0  0  0  0  0  0  0  0
  -28.0034  -30.2231  -17.8642 C   0  0  0  0  0  0  0  0  0  0  0  0
  -29.3648  -30.0690  -17.6209 C   0  0  0  0  0  0  0  0  0  0  0  0
  -29.8646  -30.4436  -16.3913 C   0  0  0  0  0  0  0  0  0  0  0  0
  -29.0052  -30.9482  -15.4159 C   0  0  0  0  0  0  0  0  0  0  0  0
  -29.7594  -31.5103  -13.9557 Cl  0  0  0  0  0  0  0  0  0  0  0  0
  -27.6161  -31.0138  -15.5891 C   0  0  0  0  0  0  0  0  0  0  0  0
  -26.8099  -31.4244  -14.5775 N   0  0  0  0  0  0  0  0  0  0  0  0
  -25.4740  -31.4287  -14.7576 C   0  0  0  0  0  0  0  0  0  0  0  0
  -24.8640  -31.0124  -15.9167 C   0  0  0  0  0  0  0  0  0  0  0  0
  -25.6841  -30.6018  -16.9587 C   0  0  0  0  0  0  0  0  0  0  0  0
  -27.0964  -30.6222  -16.8404 C   0  0  0  0  0  0  0  0  0  0  0  0
  -26.2135  -28.7745  -21.4487 C   0  0  0  0  0  0  0  0  0  0  0  0
  -25.8831  -28.2999  -22.6911 C   0  0  0  0  0  0  0  0  0  0  0  0
  -25.2820  -26.6763  -22.8180 S   0  0  0  0  0  0  0  0  0  0  0  0
  -25.9365  -29.0175  -23.8273 N   0  0  0  0  0  0  0  0  0  0  0  0
  1  2  1  0
  2  3  2  0
  3  4  1  0
  4  5  1  0
  5  6  2  0
  5  7  1  0
  7  8  1  0
  8  9  2  0
  9 10  1  0
 10 11  2  0
 11 12  1  0
 11 13  1  0
 13 14  2  0
 14 15  1  0
 15 16  2  0
 16 17  1  0
 17 18  2  0
  4 19  2  0
 19 20  1  0
 20 21  1  0
 20 22  2  0
 22  2  1  0
 18  8  1  0
 18 13  1  0
M  END
>  <id>  (59) 
237557

>  <inchikey>  (59) 
IGNZZQMQVNOQJW-UHFFFAOYSA-N

>  <alias>  (59) 
None

>  <smiles>  (59) 
Nc1cc(C(=O)Nc2ccc(Cl)c3ncccc23)cc(S)n1

>  <path>  (59) 
/opt/xchem-fragalysis-2/maxwin/RdRp_FFF/syndirella/mar_elabs/elabs_005/YAOSTISNIUSXMX-UHFFFAOYSA-N/output/YAOSTISNIUSXMX-UHFFFAOYSA-N-kzFKyu-292-A/YAOSTISNIUSXMX-UHFFFAOYSA-N-kzFKyu-292-A.minimised.mol

>  <distance_score>  (59) 
1.191884

>  <energy_score>  (59) 
-28.049719

>  <compound>  (59) 
IGNZZQMQVNOQJW-UHFFFAOYSA-N

>  <compound_id>  (59) 
77606

>  <target>  (59) 
Flavi_NS5_RdRp

>  <tags>  (59) 
[]

>  <inspirations>  (59) 
{P × 2}

>  <subsites>  (59) 
None

>  <reference>  (59) 
z0221a

$$$$
JVNYZISUFTUEOU-UHFFFAOYSA-N
     RDKit          3D

 22 24  0  0  0  0  0  0  0  0999 V2000
  -26.4484  -30.2434  -24.9346 N   0  0  0  0  0  0  0  0  0  0  0  0
  -26.3415  -29.4641  -23.7961 C   0  0  0  0  0  0  0  0  0  0  0  0
  -27.0317  -29.7987  -22.6561 C   0  0  0  0  0  0  0  0  0  0  0  0
  -26.9248  -28.9512  -21.5637 C   0  0  0  0  0  0  0  0  0  0  0  0
  -27.8805  -29.1538  -20.4742 C   0  0  0  0  0  0  0  0  0  0  0  0
  -29.0177  -29.0708  -20.7053 O   0  0  0  0  0  0  0  0  0  0  0  0
  -27.1539  -29.5337  -19.1777 N   0  0  0  0  0  0  0  0  0  0  0  0
  -27.6558  -29.9707  -17.9532 C   0  0  0  0  0  0  0  0  0  0  0  0
  -29.0430  -30.0421  -17.8036 C   0  0  0  0  0  0  0  0  0  0  0  0
  -29.5854  -30.5382  -16.6346 C   0  0  0  0  0  0  0  0  0  0  0  0
  -28.7406  -30.9635  -15.6147 C   0  0  0  0  0  0  0  0  0  0  0  0
  -29.5100  -31.6283  -14.2071 Cl  0  0  0  0  0  0  0  0  0  0  0  0
  -27.3434  -30.8854  -15.7096 C   0  0  0  0  0  0  0  0  0  0  0  0
  -26.5616  -31.2950  -14.6808 N   0  0  0  0  0  0  0  0  0  0  0  0
  -25.2223  -31.2227  -14.7949 C   0  0  0  0  0  0  0  0  0  0  0  0
  -24.5839  -30.7409  -15.9130 C   0  0  0  0  0  0  0  0  0  0  0  0
  -25.3698  -30.3141  -16.9756 C   0  0  0  0  0  0  0  0  0  0  0  0
  -26.7839  -30.3772  -16.9065 C   0  0  0  0  0  0  0  0  0  0  0  0
  -26.1070  -27.8375  -21.5906 C   0  0  0  0  0  0  0  0  0  0  0  0
  -25.4864  -27.5827  -22.7909 C   0  0  0  0  0  0  0  0  0  0  0  0
  -24.9277  -26.3811  -22.9462 F   0  0  0  0  0  0  0  0  0  0  0  0
  -25.5783  -28.3688  -23.8832 N   0  0  0  0  0  0  0  0  0  0  0  0
  1  2  1  0
  2  3  2  0
  3  4  1  0
  4  5  1  0
  5  6  2  0
  5  7  1  0
  7  8  1  0
  8  9  2  0
  9 10  1  0
 10 11  2  0
 11 12  1  0
 11 13  1  0
 13 14  2  0
 14 15  1  0
 15 16  2  0
 16 17  1  0
 17 18  2  0
  4 19  2  0
 19 20  1  0
 20 21  1  0
 20 22  2  0
 22  2  1  0
 18  8  1  0
 18 13  1  0
M  END
>  <id>  (60) 
237561

>  <inchikey>  (60) 
JVNYZISUFTUEOU-UHFFFAOYSA-N

>  <alias>  (60) 
None

>  <smiles>  (60) 
Nc1cc(C(=O)Nc2ccc(Cl)c3ncccc23)cc(F)n1

>  <path>  (60) 
/opt/xchem-fragalysis-2/maxwin/RdRp_FFF/syndirella/mar_elabs/elabs_005/YAOSTISNIUSXMX-UHFFFAOYSA-N/output/YAOSTISNIUSXMX-UHFFFAOYSA-N-kzFKyu-303-A/YAOSTISNIUSXMX-UHFFFAOYSA-N-kzFKyu-303-A.minimised.mol

>  <distance_score>  (60) 
1.182414

>  <energy_score>  (60) 
-17.933643

>  <compound>  (60) 
JVNYZISUFTUEOU-UHFFFAOYSA-N

>  <compound_id>  (60) 
77614

>  <target>  (60) 
Flavi_NS5_RdRp

>  <tags>  (60) 
[]

>  <inspirations>  (60) 
{P × 2}

>  <subsites>  (60) 
None

>  <reference>  (60) 
z0221a

$$$$
GVZALRPEDLHCSI-UHFFFAOYSA-N
     RDKit          3D

 22 24  0  0  0  0  0  0  0  0999 V2000
  -25.5395  -30.9166  -19.8750 O   0  0  0  0  0  0  0  0  0  0  0  0
  -26.3719  -30.1427  -20.1293 C   0  0  0  0  0  0  0  0  0  0  0  0
  -27.5141  -29.5849  -19.2624 N   0  0  0  0  0  0  0  0  0  0  0  0
  -27.9171  -29.9201  -17.9738 C   0  0  0  0  0  0  0  0  0  0  0  0
  -29.2924  -29.8914  -17.7602 C   0  0  0  0  0  0  0  0  0  0  0  0
  -29.7958  -30.3612  -16.5634 C   0  0  0  0  0  0  0  0  0  0  0  0
  -28.9313  -30.8552  -15.5887 C   0  0  0  0  0  0  0  0  0  0  0  0
  -29.6788  -31.5036  -14.1611 Cl  0  0  0  0  0  0  0  0  0  0  0  0
  -27.5398  -30.8362  -15.7351 C   0  0  0  0  0  0  0  0  0  0  0  0
  -26.7405  -31.2699  -14.7284 N   0  0  0  0  0  0  0  0  0  0  0  0
  -25.4032  -31.1957  -14.8678 C   0  0  0  0  0  0  0  0  0  0  0  0
  -24.7889  -30.6723  -15.9788 C   0  0  0  0  0  0  0  0  0  0  0  0
  -25.6025  -30.2308  -17.0144 C   0  0  0  0  0  0  0  0  0  0  0  0
  -27.0140  -30.3348  -16.9472 C   0  0  0  0  0  0  0  0  0  0  0  0
  -26.4150  -29.4602  -21.4423 C   0  0  0  0  0  0  0  0  0  0  0  0
  -26.7024  -30.2190  -22.6357 C   0  0  0  0  0  0  0  0  0  0  0  0
  -26.2781  -29.7514  -23.8153 C   0  0  0  0  0  0  0  0  0  0  0  0
  -25.6348  -28.5500  -23.8511 N   0  0  0  0  0  0  0  0  0  0  0  0
  -25.2310  -28.1613  -25.1224 O   0  0  0  0  0  0  0  0  0  0  0  0
  -25.5290  -27.6625  -22.8071 C   0  0  0  0  0  0  0  0  0  0  0  0
  -25.1616  -26.4978  -22.8741 O   0  0  0  0  0  0  0  0  0  0  0  0
  -25.8977  -28.2230  -21.4842 C   0  0  0  0  0  0  0  0  0  0  0  0
  1  2  2  0
  2  3  1  0
  3  4  1  0
  4  5  2  0
  5  6  1  0
  6  7  2  0
  7  8  1  0
  7  9  1  0
  9 10  2  0
 10 11  1  0
 11 12  2  0
 12 13  1  0
 13 14  2  0
  2 15  1  0
 15 16  1  0
 16 17  2  0
 17 18  1  0
 18 19  1  0
 18 20  1  0
 20 21  2  0
 20 22  1  0
 14  4  1  0
 22 15  2  0
 14  9  1  0
M  END
>  <id>  (61) 
237562

>  <inchikey>  (61) 
GVZALRPEDLHCSI-UHFFFAOYSA-N

>  <alias>  (61) 
None

>  <smiles>  (61) 
O=C(Nc1ccc(Cl)c2ncccc12)c1ccn(O)c(=O)c1

>  <path>  (61) 
/opt/xchem-fragalysis-2/maxwin/RdRp_FFF/syndirella/mar_elabs/elabs_005/YAOSTISNIUSXMX-UHFFFAOYSA-N/output/YAOSTISNIUSXMX-UHFFFAOYSA-N-kzFKyu-306-A/YAOSTISNIUSXMX-UHFFFAOYSA-N-kzFKyu-306-A.minimised.mol

>  <distance_score>  (61) 
0.962788

>  <energy_score>  (61) 
-24.604687

>  <compound>  (61) 
GVZALRPEDLHCSI-UHFFFAOYSA-N

>  <compound_id>  (61) 
77615

>  <target>  (61) 
Flavi_NS5_RdRp

>  <tags>  (61) 
[]

>  <inspirations>  (61) 
{P × 2}

>  <subsites>  (61) 
None

>  <reference>  (61) 
z0221a

$$$$
RQUDDCYHJJWKDP-UHFFFAOYSA-N
     RDKit          3D

 22 24  0  0  0  0  0  0  0  0999 V2000
  -25.0882  -26.3803  -22.8611 N   0  0  0  0  0  0  0  0  0  0  0  0
  -25.6053  -27.6496  -22.7977 C   0  0  0  0  0  0  0  0  0  0  0  0
  -25.7960  -28.2745  -23.9776 N   0  0  0  0  0  0  0  0  0  0  0  0
  -26.2887  -29.5287  -23.9647 C   0  0  0  0  0  0  0  0  0  0  0  0
  -26.5995  -30.1954  -22.7969 C   0  0  0  0  0  0  0  0  0  0  0  0
  -26.3878  -29.5328  -21.5939 C   0  0  0  0  0  0  0  0  0  0  0  0
  -26.4923  -30.3125  -20.3548 C   0  0  0  0  0  0  0  0  0  0  0  0
  -25.7412  -31.1849  -20.1759 O   0  0  0  0  0  0  0  0  0  0  0  0
  -27.6027  -29.7517  -19.4513 N   0  0  0  0  0  0  0  0  0  0  0  0
  -27.9512  -30.0716  -18.1433 C   0  0  0  0  0  0  0  0  0  0  0  0
  -29.3115  -29.9640  -17.8654 C   0  0  0  0  0  0  0  0  0  0  0  0
  -29.7826  -30.3688  -16.6327 C   0  0  0  0  0  0  0  0  0  0  0  0
  -28.8980  -30.8713  -15.6814 C   0  0  0  0  0  0  0  0  0  0  0  0
  -29.6106  -31.4438  -14.2048 Cl  0  0  0  0  0  0  0  0  0  0  0  0
  -27.5147  -30.9187  -15.8880 C   0  0  0  0  0  0  0  0  0  0  0  0
  -26.6921  -31.3407  -14.8949 N   0  0  0  0  0  0  0  0  0  0  0  0
  -25.3600  -31.3268  -15.0915 C   0  0  0  0  0  0  0  0  0  0  0  0
  -24.7732  -30.8795  -16.2495 C   0  0  0  0  0  0  0  0  0  0  0  0
  -25.6112  -30.4541  -17.2728 C   0  0  0  0  0  0  0  0  0  0  0  0
  -27.0215  -30.4918  -17.1430 C   0  0  0  0  0  0  0  0  0  0  0  0
  -25.8802  -28.2429  -21.5739 C   0  0  0  0  0  0  0  0  0  0  0  0
  -25.5364  -27.3933  -20.1113 Cl  0  0  0  0  0  0  0  0  0  0  0  0
  1  2  1  0
  2  3  2  0
  3  4  1  0
  4  5  2  0
  5  6  1  0
  6  7  1  0
  7  8  2  0
  7  9  1  0
  9 10  1  0
 10 11  2  0
 11 12  1  0
 12 13  2  0
 13 14  1  0
 13 15  1  0
 15 16  2  0
 16 17  1  0
 17 18  2  0
 18 19  1  0
 19 20  2  0
  6 21  2  0
 21 22  1  0
 21  2  1  0
 20 10  1  0
 20 15  1  0
M  END
>  <id>  (62) 
237563

>  <inchikey>  (62) 
RQUDDCYHJJWKDP-UHFFFAOYSA-N

>  <alias>  (62) 
None

>  <smiles>  (62) 
Nc1nccc(C(=O)Nc2ccc(Cl)c3ncccc23)c1Cl

>  <path>  (62) 
/opt/xchem-fragalysis-2/maxwin/RdRp_FFF/syndirella/mar_elabs/elabs_005/YAOSTISNIUSXMX-UHFFFAOYSA-N/output/YAOSTISNIUSXMX-UHFFFAOYSA-N-kzFKyu-307-A/YAOSTISNIUSXMX-UHFFFAOYSA-N-kzFKyu-307-A.minimised.mol

>  <distance_score>  (62) 
0.888431

>  <energy_score>  (62) 
-21.166028

>  <compound>  (62) 
RQUDDCYHJJWKDP-UHFFFAOYSA-N

>  <compound_id>  (62) 
77616

>  <target>  (62) 
Flavi_NS5_RdRp

>  <tags>  (62) 
[]

>  <inspirations>  (62) 
{P × 2}

>  <subsites>  (62) 
None

>  <reference>  (62) 
z0221a

$$$$
PGTTYWWYDAXFTR-UHFFFAOYSA-N
     RDKit          3D

 22 24  0  0  0  0  0  0  0  0999 V2000
  -25.5027  -30.7275  -20.0305 O   0  0  0  0  0  0  0  0  0  0  0  0
  -26.3196  -29.9283  -20.2508 C   0  0  0  0  0  0  0  0  0  0  0  0
  -27.4508  -29.3920  -19.3650 N   0  0  0  0  0  0  0  0  0  0  0  0
  -27.8651  -29.7793  -18.0921 C   0  0  0  0  0  0  0  0  0  0  0  0
  -29.2418  -29.7794  -17.8902 C   0  0  0  0  0  0  0  0  0  0  0  0
  -29.7510  -30.2708  -16.7036 C   0  0  0  0  0  0  0  0  0  0  0  0
  -28.8912  -30.7683  -15.7270 C   0  0  0  0  0  0  0  0  0  0  0  0
  -29.6425  -31.4257  -14.3057 Cl  0  0  0  0  0  0  0  0  0  0  0  0
  -27.5001  -30.7442  -15.8673 C   0  0  0  0  0  0  0  0  0  0  0  0
  -26.7065  -31.1941  -14.8632 N   0  0  0  0  0  0  0  0  0  0  0  0
  -25.3693  -31.1223  -14.9975 C   0  0  0  0  0  0  0  0  0  0  0  0
  -24.7505  -30.5843  -16.0988 C   0  0  0  0  0  0  0  0  0  0  0  0
  -25.5581  -30.1214  -17.1299 C   0  0  0  0  0  0  0  0  0  0  0  0
  -26.9692  -30.2201  -17.0692 C   0  0  0  0  0  0  0  0  0  0  0  0
  -26.3067  -29.2777  -21.5651 C   0  0  0  0  0  0  0  0  0  0  0  0
  -26.6053  -30.0551  -22.6742 C   0  0  0  0  0  0  0  0  0  0  0  0
  -26.2899  -29.5214  -23.9000 C   0  0  0  0  0  0  0  0  0  0  0  0
  -26.4626  -30.2597  -25.0145 O   0  0  0  0  0  0  0  0  0  0  0  0
  -25.7589  -28.3085  -24.1082 N   0  0  0  0  0  0  0  0  0  0  0  0
  -25.4687  -27.5855  -23.0001 C   0  0  0  0  0  0  0  0  0  0  0  0
  -25.7346  -28.0225  -21.7166 C   0  0  0  0  0  0  0  0  0  0  0  0
  -25.3940  -27.2747  -20.6624 F   0  0  0  0  0  0  0  0  0  0  0  0
  1  2  2  0
  2  3  1  0
  3  4  1  0
  4  5  2  0
  5  6  1  0
  6  7  2  0
  7  8  1  0
  7  9  1  0
  9 10  2  0
 10 11  1  0
 11 12  2  0
 12 13  1  0
 13 14  2  0
  2 15  1  0
 15 16  2  0
 16 17  1  0
 17 18  1  0
 17 19  2  0
 19 20  1  0
 20 21  2  0
 21 22  1  0
 14  4  1  0
 21 15  1  0
 14  9  1  0
M  END
>  <id>  (63) 
237564

>  <inchikey>  (63) 
PGTTYWWYDAXFTR-UHFFFAOYSA-N

>  <alias>  (63) 
None

>  <smiles>  (63) 
O=C(Nc1ccc(Cl)c2ncccc12)c1cc(O)ncc1F

>  <path>  (63) 
/opt/xchem-fragalysis-2/maxwin/RdRp_FFF/syndirella/mar_elabs/elabs_005/YAOSTISNIUSXMX-UHFFFAOYSA-N/output/YAOSTISNIUSXMX-UHFFFAOYSA-N-kzFKyu-308-A/YAOSTISNIUSXMX-UHFFFAOYSA-N-kzFKyu-308-A.minimised.mol

>  <distance_score>  (63) 
0.869938

>  <energy_score>  (63) 
-22.729032

>  <compound>  (63) 
PGTTYWWYDAXFTR-UHFFFAOYSA-N

>  <compound_id>  (63) 
77617

>  <target>  (63) 
Flavi_NS5_RdRp

>  <tags>  (63) 
[]

>  <inspirations>  (63) 
{P × 2}

>  <subsites>  (63) 
None

>  <reference>  (63) 
z0221a

$$$$
DYUUCWYGEHXYDQ-UHFFFAOYSA-N
     RDKit          3D

 22 24  0  0  0  0  0  0  0  0999 V2000
  -25.6981  -31.0174  -20.3173 O   0  0  0  0  0  0  0  0  0  0  0  0
  -26.4144  -30.1117  -20.4674 C   0  0  0  0  0  0  0  0  0  0  0  0
  -27.4339  -29.4798  -19.5098 N   0  0  0  0  0  0  0  0  0  0  0  0
  -27.8447  -29.8717  -18.2385 C   0  0  0  0  0  0  0  0  0  0  0  0
  -29.2109  -29.7681  -17.9984 C   0  0  0  0  0  0  0  0  0  0  0  0
  -29.7220  -30.1975  -16.7891 C   0  0  0  0  0  0  0  0  0  0  0  0
  -28.8716  -30.7337  -15.8250 C   0  0  0  0  0  0  0  0  0  0  0  0
  -29.6257  -31.3056  -14.3693 Cl  0  0  0  0  0  0  0  0  0  0  0  0
  -27.4860  -30.8142  -16.0047 C   0  0  0  0  0  0  0  0  0  0  0  0
  -26.6963  -31.2886  -15.0091 N   0  0  0  0  0  0  0  0  0  0  0  0
  -25.3620  -31.3243  -15.1848 C   0  0  0  0  0  0  0  0  0  0  0  0
  -24.7394  -30.8782  -16.3248 C   0  0  0  0  0  0  0  0  0  0  0  0
  -25.5418  -30.3915  -17.3495 C   0  0  0  0  0  0  0  0  0  0  0  0
  -26.9535  -30.3662  -17.2371 C   0  0  0  0  0  0  0  0  0  0  0  0
  -26.3158  -29.3372  -21.7222 C   0  0  0  0  0  0  0  0  0  0  0  0
  -26.5273  -30.0401  -22.9073 C   0  0  0  0  0  0  0  0  0  0  0  0
  -26.2144  -29.4170  -24.0955 C   0  0  0  0  0  0  0  0  0  0  0  0
  -25.7117  -28.1710  -24.1474 N   0  0  0  0  0  0  0  0  0  0  0  0
  -25.5168  -27.5129  -22.9743 C   0  0  0  0  0  0  0  0  0  0  0  0
  -25.8082  -28.0318  -21.7194 C   0  0  0  0  0  0  0  0  0  0  0  0
  -25.7073  -27.2747  -20.5370 N   0  0  0  0  0  0  0  0  0  0  0  0
  -25.1885  -25.9855  -20.5819 O   0  0  0  0  0  0  0  0  0  0  0  0
  1  2  2  0
  2  3  1  0
  3  4  1  0
  4  5  2  0
  5  6  1  0
  6  7  2  0
  7  8  1  0
  7  9  1  0
  9 10  2  0
 10 11  1  0
 11 12  2  0
 12 13  1  0
 13 14  2  0
  2 15  1  0
 15 16  2  0
 16 17  1  0
 17 18  2  0
 18 19  1  0
 19 20  2  0
 20 21  1  0
 21 22  1  0
 14  4  1  0
 20 15  1  0
 14  9  1  0
M  END
>  <id>  (64) 
237565

>  <inchikey>  (64) 
DYUUCWYGEHXYDQ-UHFFFAOYSA-N

>  <alias>  (64) 
None

>  <smiles>  (64) 
O=C(Nc1ccc(Cl)c2ncccc12)c1ccncc1NO

>  <path>  (64) 
/opt/xchem-fragalysis-2/maxwin/RdRp_FFF/syndirella/mar_elabs/elabs_005/YAOSTISNIUSXMX-UHFFFAOYSA-N/output/YAOSTISNIUSXMX-UHFFFAOYSA-N-kzFKyu-309-A/YAOSTISNIUSXMX-UHFFFAOYSA-N-kzFKyu-309-A.minimised.mol

>  <distance_score>  (64) 
0.803961

>  <energy_score>  (64) 
-36.137989

>  <compound>  (64) 
DYUUCWYGEHXYDQ-UHFFFAOYSA-N

>  <compound_id>  (64) 
77618

>  <target>  (64) 
Flavi_NS5_RdRp

>  <tags>  (64) 
[]

>  <inspirations>  (64) 
{P × 2}

>  <subsites>  (64) 
None

>  <reference>  (64) 
z0221a

$$$$
QTJOFTCXQRALNH-UHFFFAOYSA-N
     RDKit          3D

 22 24  0  0  0  0  0  0  0  0999 V2000
  -25.6259  -27.2549  -20.6353 N   0  0  0  0  0  0  0  0  0  0  0  0
  -25.7456  -28.0661  -21.7765 C   0  0  0  0  0  0  0  0  0  0  0  0
  -26.2915  -29.3496  -21.7466 C   0  0  0  0  0  0  0  0  0  0  0  0
  -26.3999  -30.1114  -20.4877 C   0  0  0  0  0  0  0  0  0  0  0  0
  -25.6792  -31.0104  -20.3207 O   0  0  0  0  0  0  0  0  0  0  0  0
  -27.4906  -29.5291  -19.5803 N   0  0  0  0  0  0  0  0  0  0  0  0
  -27.8539  -29.8575  -18.2755 C   0  0  0  0  0  0  0  0  0  0  0  0
  -29.2171  -29.7417  -18.0190 C   0  0  0  0  0  0  0  0  0  0  0  0
  -29.7205  -30.1488  -16.7993 C   0  0  0  0  0  0  0  0  0  0  0  0
  -28.8645  -30.6802  -15.8388 C   0  0  0  0  0  0  0  0  0  0  0  0
  -29.6101  -31.2438  -14.3759 Cl  0  0  0  0  0  0  0  0  0  0  0  0
  -27.4810  -30.7672  -16.0302 C   0  0  0  0  0  0  0  0  0  0  0  0
  -26.6871  -31.2351  -15.0349 N   0  0  0  0  0  0  0  0  0  0  0  0
  -25.3550  -31.2815  -15.2188 C   0  0  0  0  0  0  0  0  0  0  0  0
  -24.7380  -30.8483  -16.3663 C   0  0  0  0  0  0  0  0  0  0  0  0
  -25.5445  -30.3662  -17.3904 C   0  0  0  0  0  0  0  0  0  0  0  0
  -26.9555  -30.3367  -17.2731 C   0  0  0  0  0  0  0  0  0  0  0  0
  -26.5396  -30.0654  -22.9182 C   0  0  0  0  0  0  0  0  0  0  0  0
  -26.2455  -29.4686  -24.1260 C   0  0  0  0  0  0  0  0  0  0  0  0
  -25.7435  -28.2271  -24.2156 N   0  0  0  0  0  0  0  0  0  0  0  0
  -25.5149  -27.5638  -23.0591 C   0  0  0  0  0  0  0  0  0  0  0  0
  -25.1147  -26.2889  -23.1643 F   0  0  0  0  0  0  0  0  0  0  0  0
  1  2  1  0
  2  3  2  0
  3  4  1  0
  4  5  2  0
  4  6  1  0
  6  7  1  0
  7  8  2  0
  8  9  1  0
  9 10  2  0
 10 11  1  0
 10 12  1  0
 12 13  2  0
 13 14  1  0
 14 15  2  0
 15 16  1  0
 16 17  2  0
  3 18  1  0
 18 19  2  0
 19 20  1  0
 20 21  2  0
 21 22  1  0
 21  2  1  0
 17  7  1  0
 17 12  1  0
M  END
>  <id>  (65) 
237566

>  <inchikey>  (65) 
QTJOFTCXQRALNH-UHFFFAOYSA-N

>  <alias>  (65) 
None

>  <smiles>  (65) 
Nc1c(C(=O)Nc2ccc(Cl)c3ncccc23)ccnc1F

>  <path>  (65) 
/opt/xchem-fragalysis-2/maxwin/RdRp_FFF/syndirella/mar_elabs/elabs_005/YAOSTISNIUSXMX-UHFFFAOYSA-N/output/YAOSTISNIUSXMX-UHFFFAOYSA-N-kzFKyu-310-A/YAOSTISNIUSXMX-UHFFFAOYSA-N-kzFKyu-310-A.minimised.mol

>  <distance_score>  (65) 
0.777301

>  <energy_score>  (65) 
-24.424742

>  <compound>  (65) 
QTJOFTCXQRALNH-UHFFFAOYSA-N

>  <compound_id>  (65) 
77619

>  <target>  (65) 
Flavi_NS5_RdRp

>  <tags>  (65) 
[]

>  <inspirations>  (65) 
{P × 2}

>  <subsites>  (65) 
None

>  <reference>  (65) 
z0221a

$$$$
JVTYFGDWFOLSLQ-UHFFFAOYSA-N
     RDKit          3D

 22 24  0  0  0  0  0  0  0  0999 V2000
  -25.7485  -31.5363  -19.9782 O   0  0  0  0  0  0  0  0  0  0  0  0
  -26.5400  -30.7186  -20.2275 C   0  0  0  0  0  0  0  0  0  0  0  0
  -27.6808  -30.1417  -19.3731 N   0  0  0  0  0  0  0  0  0  0  0  0
  -28.0199  -30.3718  -18.0443 C   0  0  0  0  0  0  0  0  0  0  0  0
  -29.3762  -30.2085  -17.7695 C   0  0  0  0  0  0  0  0  0  0  0  0
  -29.8506  -30.5275  -16.5144 C   0  0  0  0  0  0  0  0  0  0  0  0
  -28.9730  -30.9889  -15.5372 C   0  0  0  0  0  0  0  0  0  0  0  0
  -29.6986  -31.4814  -14.0380 Cl  0  0  0  0  0  0  0  0  0  0  0  0
  -27.5899  -31.0615  -15.7370 C   0  0  0  0  0  0  0  0  0  0  0  0
  -26.7750  -31.4234  -14.7144 N   0  0  0  0  0  0  0  0  0  0  0  0
  -25.4414  -31.4236  -14.9000 C   0  0  0  0  0  0  0  0  0  0  0  0
  -24.8453  -31.0551  -16.0802 C   0  0  0  0  0  0  0  0  0  0  0  0
  -25.6772  -30.7024  -17.1359 C   0  0  0  0  0  0  0  0  0  0  0  0
  -27.0903  -30.7246  -17.0158 C   0  0  0  0  0  0  0  0  0  0  0  0
  -26.4498  -30.0048  -21.5068 C   0  0  0  0  0  0  0  0  0  0  0  0
  -26.5613  -30.7707  -22.6666 C   0  0  0  0  0  0  0  0  0  0  0  0
  -26.2767  -30.1709  -23.8805 C   0  0  0  0  0  0  0  0  0  0  0  0
  -25.9175  -28.8949  -23.9820 N   0  0  0  0  0  0  0  0  0  0  0  0
  -25.7694  -28.1993  -22.8357 C   0  0  0  0  0  0  0  0  0  0  0  0
  -25.2204  -26.4578  -23.1113 Br  0  0  0  0  0  0  0  0  0  0  0  0
  -26.0339  -28.6787  -21.5655 C   0  0  0  0  0  0  0  0  0  0  0  0
  -25.6389  -27.5173  -19.8398 I   0  0  0  0  0  0  0  0  0  0  0  0
  1  2  2  0
  2  3  1  0
  3  4  1  0
  4  5  2  0
  5  6  1  0
  6  7  2  0
  7  8  1  0
  7  9  1  0
  9 10  2  0
 10 11  1  0
 11 12  2  0
 12 13  1  0
 13 14  2  0
  2 15  1  0
 15 16  2  0
 16 17  1  0
 17 18  2  0
 18 19  1  0
 19 20  1  0
 19 21  2  0
 21 22  1  0
 14  4  1  0
 21 15  1  0
 14  9  1  0
M  END
>  <id>  (66) 
237567

>  <inchikey>  (66) 
JVTYFGDWFOLSLQ-UHFFFAOYSA-N

>  <alias>  (66) 
None

>  <smiles>  (66) 
O=C(Nc1ccc(Cl)c2ncccc12)c1ccnc(Br)c1I

>  <path>  (66) 
/opt/xchem-fragalysis-2/maxwin/RdRp_FFF/syndirella/mar_elabs/elabs_005/YAOSTISNIUSXMX-UHFFFAOYSA-N/output/YAOSTISNIUSXMX-UHFFFAOYSA-N-kzFKyu-311-A/YAOSTISNIUSXMX-UHFFFAOYSA-N-kzFKyu-311-A.minimised.mol

>  <distance_score>  (66) 
1.089111

>  <energy_score>  (66) 
-38.561227

>  <compound>  (66) 
JVTYFGDWFOLSLQ-UHFFFAOYSA-N

>  <compound_id>  (66) 
77620

>  <target>  (66) 
Flavi_NS5_RdRp

>  <tags>  (66) 
[]

>  <inspirations>  (66) 
{P × 2}

>  <subsites>  (66) 
None

>  <reference>  (66) 
z0221a

$$$$
FWEJSTWNXJCMFM-UHFFFAOYSA-N
     RDKit          3D

 22 24  0  0  0  0  0  0  0  0999 V2000
  -25.3324  -30.5157  -19.8543 O   0  0  0  0  0  0  0  0  0  0  0  0
  -26.2174  -29.8174  -20.1465 C   0  0  0  0  0  0  0  0  0  0  0  0
  -27.4332  -29.3584  -19.3315 N   0  0  0  0  0  0  0  0  0  0  0  0
  -27.8581  -29.7231  -18.0543 C   0  0  0  0  0  0  0  0  0  0  0  0
  -29.2382  -29.7954  -17.8887 C   0  0  0  0  0  0  0  0  0  0  0  0
  -29.7504  -30.3121  -16.7139 C   0  0  0  0  0  0  0  0  0  0  0  0
  -28.8919  -30.7615  -15.7132 C   0  0  0  0  0  0  0  0  0  0  0  0
  -29.6447  -31.4532  -14.3089 Cl  0  0  0  0  0  0  0  0  0  0  0  0
  -27.5011  -30.6625  -15.8162 C   0  0  0  0  0  0  0  0  0  0  0  0
  -26.7117  -31.0743  -14.7924 N   0  0  0  0  0  0  0  0  0  0  0  0
  -25.3771  -30.9286  -14.8880 C   0  0  0  0  0  0  0  0  0  0  0  0
  -24.7598  -30.3450  -15.9658 C   0  0  0  0  0  0  0  0  0  0  0  0
  -25.5643  -29.9195  -17.0153 C   0  0  0  0  0  0  0  0  0  0  0  0
  -26.9680  -30.1055  -17.0015 C   0  0  0  0  0  0  0  0  0  0  0  0
  -26.2422  -29.2794  -21.5165 C   0  0  0  0  0  0  0  0  0  0  0  0
  -25.7729  -27.9874  -21.7153 C   0  0  0  0  0  0  0  0  0  0  0  0
  -25.4951  -27.1809  -20.6855 F   0  0  0  0  0  0  0  0  0  0  0  0
  -25.5250  -27.5718  -23.0066 C   0  0  0  0  0  0  0  0  0  0  0  0
  -25.7864  -28.3354  -24.0920 N   0  0  0  0  0  0  0  0  0  0  0  0
  -26.2262  -29.5981  -23.8750 C   0  0  0  0  0  0  0  0  0  0  0  0
  -26.4335  -30.1374  -22.6064 C   0  0  0  0  0  0  0  0  0  0  0  0
  -26.6280  -31.9031  -22.4006 S   0  0  0  0  0  0  0  0  0  0  0  0
  1  2  2  0
  2  3  1  0
  3  4  1  0
  4  5  2  0
  5  6  1  0
  6  7  2  0
  7  8  1  0
  7  9  1  0
  9 10  2  0
 10 11  1  0
 11 12  2  0
 12 13  1  0
 13 14  2  0
  2 15  1  0
 15 16  2  0
 16 17  1  0
 16 18  1  0
 18 19  2  0
 19 20  1  0
 20 21  2  0
 21 22  1  0
 14  4  1  0
 21 15  1  0
 14  9  1  0
M  END
>  <id>  (67) 
237568

>  <inchikey>  (67) 
FWEJSTWNXJCMFM-UHFFFAOYSA-N

>  <alias>  (67) 
None

>  <smiles>  (67) 
O=C(Nc1ccc(Cl)c2ncccc12)c1c(F)cncc1S

>  <path>  (67) 
/opt/xchem-fragalysis-2/maxwin/RdRp_FFF/syndirella/mar_elabs/elabs_005/YAOSTISNIUSXMX-UHFFFAOYSA-N/output/YAOSTISNIUSXMX-UHFFFAOYSA-N-kzFKyu-312-A/YAOSTISNIUSXMX-UHFFFAOYSA-N-kzFKyu-312-A.minimised.mol

>  <distance_score>  (67) 
0.916409

>  <energy_score>  (67) 
-23.823961

>  <compound>  (67) 
FWEJSTWNXJCMFM-UHFFFAOYSA-N

>  <compound_id>  (67) 
77621

>  <target>  (67) 
Flavi_NS5_RdRp

>  <tags>  (67) 
[]

>  <inspirations>  (67) 
{P × 2}

>  <subsites>  (67) 
None

>  <reference>  (67) 
z0221a

$$$$
HVIQGCTXQLGIFI-UHFFFAOYSA-N
     RDKit          3D

 22 24  0  0  0  0  0  0  0  0999 V2000
  -25.7809  -31.1543  -20.2604 O   0  0  0  0  0  0  0  0  0  0  0  0
  -26.4551  -30.2130  -20.3924 C   0  0  0  0  0  0  0  0  0  0  0  0
  -27.4343  -29.5439  -19.4156 N   0  0  0  0  0  0  0  0  0  0  0  0
  -27.8493  -29.9301  -18.1472 C   0  0  0  0  0  0  0  0  0  0  0  0
  -29.2128  -29.8071  -17.9001 C   0  0  0  0  0  0  0  0  0  0  0  0
  -29.7235  -30.2479  -16.6950 C   0  0  0  0  0  0  0  0  0  0  0  0
  -28.8726  -30.8080  -15.7436 C   0  0  0  0  0  0  0  0  0  0  0  0
  -29.6256  -31.3987  -14.2945 Cl  0  0  0  0  0  0  0  0  0  0  0  0
  -27.4872  -30.8988  -15.9296 C   0  0  0  0  0  0  0  0  0  0  0  0
  -26.6919  -31.3930  -14.9473 N   0  0  0  0  0  0  0  0  0  0  0  0
  -25.3587  -31.4322  -15.1369 C   0  0  0  0  0  0  0  0  0  0  0  0
  -24.7416  -30.9711  -16.2749 C   0  0  0  0  0  0  0  0  0  0  0  0
  -25.5495  -30.4665  -17.2854 C   0  0  0  0  0  0  0  0  0  0  0  0
  -26.9589  -30.4402  -17.1580 C   0  0  0  0  0  0  0  0  0  0  0  0
  -26.3650  -29.4533  -21.6504 C   0  0  0  0  0  0  0  0  0  0  0  0
  -26.5495  -30.1407  -22.8497 C   0  0  0  0  0  0  0  0  0  0  0  0
  -26.2209  -29.5011  -24.0354 C   0  0  0  0  0  0  0  0  0  0  0  0
  -25.7194  -28.2500  -24.0790 N   0  0  0  0  0  0  0  0  0  0  0  0
  -25.5673  -27.6391  -22.8957 C   0  0  0  0  0  0  0  0  0  0  0  0
  -25.1181  -26.3634  -22.9590 O   0  0  0  0  0  0  0  0  0  0  0  0
  -25.8826  -28.1599  -21.6617 C   0  0  0  0  0  0  0  0  0  0  0  0
  -25.6676  -27.4343  -20.5308 O   0  0  0  0  0  0  0  0  0  0  0  0
  1  2  2  0
  2  3  1  0
  3  4  1  0
  4  5  2  0
  5  6  1  0
  6  7  2  0
  7  8  1  0
  7  9  1  0
  9 10  2  0
 10 11  1  0
 11 12  2  0
 12 13  1  0
 13 14  2  0
  2 15  1  0
 15 16  2  0
 16 17  1  0
 17 18  2  0
 18 19  1  0
 19 20  1  0
 19 21  2  0
 21 22  1  0
 14  4  1  0
 21 15  1  0
 14  9  1  0
M  END
>  <id>  (68) 
237577

>  <inchikey>  (68) 
HVIQGCTXQLGIFI-UHFFFAOYSA-N

>  <alias>  (68) 
None

>  <smiles>  (68) 
O=C(Nc1ccc(Cl)c2ncccc12)c1ccnc(O)c1O

>  <path>  (68) 
/opt/xchem-fragalysis-2/maxwin/RdRp_FFF/syndirella/mar_elabs/elabs_005/YAOSTISNIUSXMX-UHFFFAOYSA-N/output/YAOSTISNIUSXMX-UHFFFAOYSA-N-kzFKyu-330-A/YAOSTISNIUSXMX-UHFFFAOYSA-N-kzFKyu-330-A.minimised.mol

>  <distance_score>  (68) 
0.853908

>  <energy_score>  (68) 
-29.529403

>  <compound>  (68) 
HVIQGCTXQLGIFI-UHFFFAOYSA-N

>  <compound_id>  (68) 
77632

>  <target>  (68) 
Flavi_NS5_RdRp

>  <tags>  (68) 
[]

>  <inspirations>  (68) 
{P × 2}

>  <subsites>  (68) 
None

>  <reference>  (68) 
z0221a

$$$$
FAVLVDCRSWVQBT-UHFFFAOYSA-N
     RDKit          3D

 22 24  0  0  0  0  0  0  0  0999 V2000
  -26.1938  -26.8967  -19.6579 N   0  0  0  0  0  0  0  0  0  0  0  0
  -25.3260  -27.0759  -20.7474 N   0  0  0  0  0  0  0  0  0  0  0  0
  -25.7335  -27.9402  -21.7912 C   0  0  0  0  0  0  0  0  0  0  0  0
  -25.4414  -27.5914  -23.1123 C   0  0  0  0  0  0  0  0  0  0  0  0
  -25.7584  -28.3199  -24.2099 N   0  0  0  0  0  0  0  0  0  0  0  0
  -26.3735  -29.4957  -24.0122 C   0  0  0  0  0  0  0  0  0  0  0  0
  -26.6818  -29.9740  -22.7546 C   0  0  0  0  0  0  0  0  0  0  0  0
  -26.3372  -29.1975  -21.6399 C   0  0  0  0  0  0  0  0  0  0  0  0
  -26.3556  -29.9273  -20.3491 C   0  0  0  0  0  0  0  0  0  0  0  0
  -25.5645  -30.7666  -20.1845 O   0  0  0  0  0  0  0  0  0  0  0  0
  -27.4598  -29.4052  -19.4212 N   0  0  0  0  0  0  0  0  0  0  0  0
  -27.8761  -29.8516  -18.1698 C   0  0  0  0  0  0  0  0  0  0  0  0
  -29.2490  -29.8290  -17.9496 C   0  0  0  0  0  0  0  0  0  0  0  0
  -29.7489  -30.3087  -16.7542 C   0  0  0  0  0  0  0  0  0  0  0  0
  -28.8829  -30.8107  -15.7851 C   0  0  0  0  0  0  0  0  0  0  0  0
  -29.6229  -31.4318  -14.3416 Cl  0  0  0  0  0  0  0  0  0  0  0  0
  -27.4937  -30.8113  -15.9452 C   0  0  0  0  0  0  0  0  0  0  0  0
  -26.6934  -31.2587  -14.9449 N   0  0  0  0  0  0  0  0  0  0  0  0
  -25.3570  -31.2149  -15.1002 C   0  0  0  0  0  0  0  0  0  0  0  0
  -24.7449  -30.7013  -16.2166 C   0  0  0  0  0  0  0  0  0  0  0  0
  -25.5597  -30.2346  -17.2406 C   0  0  0  0  0  0  0  0  0  0  0  0
  -26.9718  -30.3073  -17.1592 C   0  0  0  0  0  0  0  0  0  0  0  0
  1  2  1  0
  2  3  1  0
  3  4  2  0
  4  5  1  0
  5  6  2  0
  6  7  1  0
  7  8  2  0
  8  9  1  0
  9 10  2  0
  9 11  1  0
 11 12  1  0
 12 13  2  0
 13 14  1  0
 14 15  2  0
 15 16  1  0
 15 17  1  0
 17 18  2  0
 18 19  1  0
 19 20  2  0
 20 21  1  0
 21 22  2  0
  8  3  1  0
 22 12  1  0
 22 17  1  0
M  END
>  <id>  (69) 
237578

>  <inchikey>  (69) 
FAVLVDCRSWVQBT-UHFFFAOYSA-N

>  <alias>  (69) 
None

>  <smiles>  (69) 
NNc1cnccc1C(=O)Nc1ccc(Cl)c2ncccc12

>  <path>  (69) 
/opt/xchem-fragalysis-2/maxwin/RdRp_FFF/syndirella/mar_elabs/elabs_005/YAOSTISNIUSXMX-UHFFFAOYSA-N/output/YAOSTISNIUSXMX-UHFFFAOYSA-N-kzFKyu-331-A/YAOSTISNIUSXMX-UHFFFAOYSA-N-kzFKyu-331-A.minimised.mol

>  <distance_score>  (69) 
0.824846

>  <energy_score>  (69) 
-24.386602

>  <compound>  (69) 
FAVLVDCRSWVQBT-UHFFFAOYSA-N

>  <compound_id>  (69) 
77633

>  <target>  (69) 
Flavi_NS5_RdRp

>  <tags>  (69) 
[]

>  <inspirations>  (69) 
{P × 2}

>  <subsites>  (69) 
None

>  <reference>  (69) 
z0221a

$$$$
YOKVEJILSHDNKC-UHFFFAOYSA-N
     RDKit          3D

 22 24  0  0  0  0  0  0  0  0999 V2000
  -25.8118  -29.1805  -24.7906 C   0  0  0  0  0  0  0  0  0  0  0  0
  -26.0504  -28.8605  -23.3612 C   0  0  0  0  0  0  0  0  0  0  0  0
  -26.8719  -29.6737  -22.6034 C   0  0  0  0  0  0  0  0  0  0  0  0
  -27.1190  -29.2830  -21.3063 C   0  0  0  0  0  0  0  0  0  0  0  0
  -28.0079  -30.0623  -20.4321 C   0  0  0  0  0  0  0  0  0  0  0  0
  -29.0549  -30.4140  -20.7962 O   0  0  0  0  0  0  0  0  0  0  0  0
  -27.3396  -30.1832  -19.0525 N   0  0  0  0  0  0  0  0  0  0  0  0
  -27.8360  -30.6591  -17.8517 C   0  0  0  0  0  0  0  0  0  0  0  0
  -29.2060  -30.8878  -17.7460 C   0  0  0  0  0  0  0  0  0  0  0  0
  -29.7355  -31.2502  -16.5246 C   0  0  0  0  0  0  0  0  0  0  0  0
  -28.8909  -31.3867  -15.4236 C   0  0  0  0  0  0  0  0  0  0  0  0
  -29.6436  -31.8687  -13.9340 Cl  0  0  0  0  0  0  0  0  0  0  0  0
  -27.5039  -31.1747  -15.4950 C   0  0  0  0  0  0  0  0  0  0  0  0
  -26.7152  -31.3300  -14.4018 N   0  0  0  0  0  0  0  0  0  0  0  0
  -25.3852  -31.1393  -14.5050 C   0  0  0  0  0  0  0  0  0  0  0  0
  -24.7589  -30.7794  -15.6746 C   0  0  0  0  0  0  0  0  0  0  0  0
  -25.5523  -30.6124  -16.8008 C   0  0  0  0  0  0  0  0  0  0  0  0
  -26.9589  -30.8037  -16.7413 C   0  0  0  0  0  0  0  0  0  0  0  0
  -26.5798  -28.1086  -20.8019 C   0  0  0  0  0  0  0  0  0  0  0  0
  -25.7725  -27.3541  -21.6166 C   0  0  0  0  0  0  0  0  0  0  0  0
  -25.2285  -26.0823  -21.0554 C   0  0  0  0  0  0  0  0  0  0  0  0
  -25.4877  -27.7195  -22.8815 N   0  0  0  0  0  0  0  0  0  0  0  0
  1  2  1  0
  2  3  2  0
  3  4  1  0
  4  5  1  0
  5  6  2  0
  5  7  1  0
  7  8  1  0
  8  9  2  0
  9 10  1  0
 10 11  2  0
 11 12  1  0
 11 13  1  0
 13 14  2  0
 14 15  1  0
 15 16  2  0
 16 17  1  0
 17 18  2  0
  4 19  2  0
 19 20  1  0
 20 21  1  0
 20 22  2  0
 22  2  1  0
 18  8  1  0
 18 13  1  0
M  END
>  <id>  (70) 
237579

>  <inchikey>  (70) 
YOKVEJILSHDNKC-UHFFFAOYSA-N

>  <alias>  (70) 
None

>  <smiles>  (70) 
Cc1cc(C(=O)Nc2ccc(Cl)c3ncccc23)cc(C)n1

>  <path>  (70) 
/opt/xchem-fragalysis-2/maxwin/RdRp_FFF/syndirella/mar_elabs/elabs_005/YAOSTISNIUSXMX-UHFFFAOYSA-N/output/YAOSTISNIUSXMX-UHFFFAOYSA-N-kzFKyu-333-A/YAOSTISNIUSXMX-UHFFFAOYSA-N-kzFKyu-333-A.minimised.mol

>  <distance_score>  (70) 
1.463547

>  <energy_score>  (70) 
-10.085033

>  <compound>  (70) 
YOKVEJILSHDNKC-UHFFFAOYSA-N

>  <compound_id>  (70) 
77634

>  <target>  (70) 
Flavi_NS5_RdRp

>  <tags>  (70) 
[]

>  <inspirations>  (70) 
{P × 2}

>  <subsites>  (70) 
None

>  <reference>  (70) 
z0221a

$$$$
XODRXRIEKJTFLQ-UHFFFAOYSA-N
     RDKit          3D

 22 24  0  0  0  0  0  0  0  0999 V2000
  -25.7882  -31.4894  -24.8890 N   0  0  0  0  0  0  0  0  0  0  0  0
  -26.3032  -30.1203  -25.0580 O   0  0  0  0  0  0  0  0  0  0  0  0
  -26.2197  -29.4189  -23.8762 C   0  0  0  0  0  0  0  0  0  0  0  0
  -26.5925  -29.9821  -22.6726 C   0  0  0  0  0  0  0  0  0  0  0  0
  -26.3295  -29.2493  -21.5245 C   0  0  0  0  0  0  0  0  0  0  0  0
  -26.3688  -29.9652  -20.2412 C   0  0  0  0  0  0  0  0  0  0  0  0
  -25.5432  -30.7549  -20.0216 O   0  0  0  0  0  0  0  0  0  0  0  0
  -27.5589  -29.5088  -19.3906 N   0  0  0  0  0  0  0  0  0  0  0  0
  -27.9243  -29.8468  -18.0887 C   0  0  0  0  0  0  0  0  0  0  0  0
  -29.2973  -29.8427  -17.8565 C   0  0  0  0  0  0  0  0  0  0  0  0
  -29.7816  -30.3134  -16.6519 C   0  0  0  0  0  0  0  0  0  0  0  0
  -28.9012  -30.7908  -15.6848 C   0  0  0  0  0  0  0  0  0  0  0  0
  -29.6255  -31.4400  -14.2458 Cl  0  0  0  0  0  0  0  0  0  0  0  0
  -27.5131  -30.7556  -15.8483 C   0  0  0  0  0  0  0  0  0  0  0  0
  -26.7024  -31.1771  -14.8457 N   0  0  0  0  0  0  0  0  0  0  0  0
  -25.3678  -31.0952  -14.9974 C   0  0  0  0  0  0  0  0  0  0  0  0
  -24.7690  -30.5724  -16.1162 C   0  0  0  0  0  0  0  0  0  0  0  0
  -25.5950  -30.1392  -17.1463 C   0  0  0  0  0  0  0  0  0  0  0  0
  -27.0051  -30.2521  -17.0694 C   0  0  0  0  0  0  0  0  0  0  0  0
  -25.7763  -27.9740  -21.5870 C   0  0  0  0  0  0  0  0  0  0  0  0
  -25.4738  -27.4898  -22.8431 C   0  0  0  0  0  0  0  0  0  0  0  0
  -25.6974  -28.1785  -23.9826 N   0  0  0  0  0  0  0  0  0  0  0  0
  1  2  1  0
  2  3  1  0
  3  4  2  0
  4  5  1  0
  5  6  1  0
  6  7  2  0
  6  8  1  0
  8  9  1  0
  9 10  2  0
 10 11  1  0
 11 12  2  0
 12 13  1  0
 12 14  1  0
 14 15  2  0
 15 16  1  0
 16 17  2  0
 17 18  1  0
 18 19  2  0
  5 20  2  0
 20 21  1  0
 21 22  2  0
 22  3  1  0
 19  9  1  0
 19 14  1  0
M  END
>  <id>  (71) 
237580

>  <inchikey>  (71) 
XODRXRIEKJTFLQ-UHFFFAOYSA-N

>  <alias>  (71) 
None

>  <smiles>  (71) 
NOc1cc(C(=O)Nc2ccc(Cl)c3ncccc23)ccn1

>  <path>  (71) 
/opt/xchem-fragalysis-2/maxwin/RdRp_FFF/syndirella/mar_elabs/elabs_005/YAOSTISNIUSXMX-UHFFFAOYSA-N/output/YAOSTISNIUSXMX-UHFFFAOYSA-N-kzFKyu-334-A/YAOSTISNIUSXMX-UHFFFAOYSA-N-kzFKyu-334-A.minimised.mol

>  <distance_score>  (71) 
0.876587

>  <energy_score>  (71) 
-15.04229

>  <compound>  (71) 
XODRXRIEKJTFLQ-UHFFFAOYSA-N

>  <compound_id>  (71) 
77635

>  <target>  (71) 
Flavi_NS5_RdRp

>  <tags>  (71) 
[]

>  <inspirations>  (71) 
{P × 2}

>  <subsites>  (71) 
None

>  <reference>  (71) 
z0221a

$$$$
DUVRUVXVGXUWRH-UHFFFAOYSA-N
     RDKit          3D

 22 24  0  0  0  0  0  0  0  0999 V2000
  -25.9576  -31.5814  -20.0457 O   0  0  0  0  0  0  0  0  0  0  0  0
  -26.6528  -30.6639  -20.2214 C   0  0  0  0  0  0  0  0  0  0  0  0
  -27.7073  -30.0212  -19.3040 N   0  0  0  0  0  0  0  0  0  0  0  0
  -28.0497  -30.3022  -17.9904 C   0  0  0  0  0  0  0  0  0  0  0  0
  -29.3983  -30.1292  -17.6927 C   0  0  0  0  0  0  0  0  0  0  0  0
  -29.8590  -30.4953  -16.4452 C   0  0  0  0  0  0  0  0  0  0  0  0
  -28.9714  -31.0072  -15.5006 C   0  0  0  0  0  0  0  0  0  0  0  0
  -29.6770  -31.5471  -14.0084 Cl  0  0  0  0  0  0  0  0  0  0  0  0
  -27.5915  -31.0936  -15.7260 C   0  0  0  0  0  0  0  0  0  0  0  0
  -26.7584  -31.5046  -14.7370 N   0  0  0  0  0  0  0  0  0  0  0  0
  -25.4298  -31.5286  -14.9590 C   0  0  0  0  0  0  0  0  0  0  0  0
  -24.8535  -31.1318  -16.1413 C   0  0  0  0  0  0  0  0  0  0  0  0
  -25.7018  -30.7210  -17.1617 C   0  0  0  0  0  0  0  0  0  0  0  0
  -27.1106  -30.7179  -16.9995 C   0  0  0  0  0  0  0  0  0  0  0  0
  -26.5167  -29.8663  -21.4419 C   0  0  0  0  0  0  0  0  0  0  0  0
  -26.5553  -30.4486  -22.6961 C   0  0  0  0  0  0  0  0  0  0  0  0
  -26.2145  -29.6541  -23.7733 C   0  0  0  0  0  0  0  0  0  0  0  0
  -25.8051  -28.3759  -23.6330 N   0  0  0  0  0  0  0  0  0  0  0  0
  -25.7661  -27.8476  -22.3875 C   0  0  0  0  0  0  0  0  0  0  0  0
  -25.4357  -26.4992  -22.2292 N   0  0  0  0  0  0  0  0  0  0  0  0
  -25.0176  -25.8321  -23.3740 O   0  0  0  0  0  0  0  0  0  0  0  0
  -26.1416  -28.5451  -21.2706 C   0  0  0  0  0  0  0  0  0  0  0  0
  1  2  2  0
  2  3  1  0
  3  4  1  0
  4  5  2  0
  5  6  1  0
  6  7  2  0
  7  8  1  0
  7  9  1  0
  9 10  2  0
 10 11  1  0
 11 12  2  0
 12 13  1  0
 13 14  2  0
  2 15  1  0
 15 16  2  0
 16 17  1  0
 17 18  2  0
 18 19  1  0
 19 20  1  0
 20 21  1  0
 19 22  2  0
 14  4  1  0
 22 15  1  0
 14  9  1  0
M  END
>  <id>  (72) 
237588

>  <inchikey>  (72) 
DUVRUVXVGXUWRH-UHFFFAOYSA-N

>  <alias>  (72) 
None

>  <smiles>  (72) 
O=C(Nc1ccc(Cl)c2ncccc12)c1ccnc(NO)c1

>  <path>  (72) 
/opt/xchem-fragalysis-2/maxwin/RdRp_FFF/syndirella/mar_elabs/elabs_005/YAOSTISNIUSXMX-UHFFFAOYSA-N/output/YAOSTISNIUSXMX-UHFFFAOYSA-N-kzFKyu-350-A/YAOSTISNIUSXMX-UHFFFAOYSA-N-kzFKyu-350-A.minimised.mol

>  <distance_score>  (72) 
1.094439

>  <energy_score>  (72) 
-25.77769

>  <compound>  (72) 
DUVRUVXVGXUWRH-UHFFFAOYSA-N

>  <compound_id>  (72) 
77644

>  <target>  (72) 
Flavi_NS5_RdRp

>  <tags>  (72) 
[]

>  <inspirations>  (72) 
{P × 2}

>  <subsites>  (72) 
None

>  <reference>  (72) 
z0221a

$$$$
JAGPFGLMOWIMFX-UHFFFAOYSA-N
     RDKit          3D

 22 24  0  0  0  0  0  0  0  0999 V2000
  -25.2387  -26.2933  -22.8230 N   0  0  0  0  0  0  0  0  0  0  0  0
  -25.5683  -27.6306  -22.7684 C   0  0  0  0  0  0  0  0  0  0  0  0
  -25.5339  -28.3024  -23.9336 N   0  0  0  0  0  0  0  0  0  0  0  0
  -26.1193  -29.5124  -23.9780 C   0  0  0  0  0  0  0  0  0  0  0  0
  -26.7595  -30.0597  -22.8862 C   0  0  0  0  0  0  0  0  0  0  0  0
  -26.8122  -29.3371  -21.7037 C   0  0  0  0  0  0  0  0  0  0  0  0
  -27.7348  -29.8142  -20.6619 C   0  0  0  0  0  0  0  0  0  0  0  0
  -28.7510  -30.2607  -21.0135 O   0  0  0  0  0  0  0  0  0  0  0  0
  -27.1570  -29.6460  -19.2501 N   0  0  0  0  0  0  0  0  0  0  0  0
  -27.6477  -30.0624  -18.0180 C   0  0  0  0  0  0  0  0  0  0  0  0
  -29.0159  -30.3358  -17.9375 C   0  0  0  0  0  0  0  0  0  0  0  0
  -29.5568  -30.7929  -16.7527 C   0  0  0  0  0  0  0  0  0  0  0  0
  -28.7250  -30.9876  -15.6540 C   0  0  0  0  0  0  0  0  0  0  0  0
  -29.4808  -31.6166  -14.2229 Cl  0  0  0  0  0  0  0  0  0  0  0  0
  -27.3464  -30.7224  -15.6907 C   0  0  0  0  0  0  0  0  0  0  0  0
  -26.5710  -30.9423  -14.6006 N   0  0  0  0  0  0  0  0  0  0  0  0
  -25.2471  -30.7069  -14.6690 C   0  0  0  0  0  0  0  0  0  0  0  0
  -24.6181  -30.2400  -15.7986 C   0  0  0  0  0  0  0  0  0  0  0  0
  -25.3968  -30.0054  -16.9233 C   0  0  0  0  0  0  0  0  0  0  0  0
  -26.7932  -30.2402  -16.9004 C   0  0  0  0  0  0  0  0  0  0  0  0
  -26.1584  -28.1318  -21.6191 C   0  0  0  0  0  0  0  0  0  0  0  0
  -26.1483  -27.4078  -20.4919 F   0  0  0  0  0  0  0  0  0  0  0  0
  1  2  1  0
  2  3  2  0
  3  4  1  0
  4  5  2  0
  5  6  1  0
  6  7  1  0
  7  8  2  0
  7  9  1  0
  9 10  1  0
 10 11  2  0
 11 12  1  0
 12 13  2  0
 13 14  1  0
 13 15  1  0
 15 16  2  0
 16 17  1  0
 17 18  2  0
 18 19  1  0
 19 20  2  0
  6 21  2  0
 21 22  1  0
 21  2  1  0
 20 10  1  0
 20 15  1  0
M  END
>  <id>  (73) 
237589

>  <inchikey>  (73) 
JAGPFGLMOWIMFX-UHFFFAOYSA-N

>  <alias>  (73) 
None

>  <smiles>  (73) 
Nc1nccc(C(=O)Nc2ccc(Cl)c3ncccc23)c1F

>  <path>  (73) 
/opt/xchem-fragalysis-2/maxwin/RdRp_FFF/syndirella/mar_elabs/elabs_005/YAOSTISNIUSXMX-UHFFFAOYSA-N/output/YAOSTISNIUSXMX-UHFFFAOYSA-N-kzFKyu-351-A/YAOSTISNIUSXMX-UHFFFAOYSA-N-kzFKyu-351-A.minimised.mol

>  <distance_score>  (73) 
0.992505

>  <energy_score>  (73) 
-15.5795

>  <compound>  (73) 
JAGPFGLMOWIMFX-UHFFFAOYSA-N

>  <compound_id>  (73) 
77645

>  <target>  (73) 
Flavi_NS5_RdRp

>  <tags>  (73) 
[]

>  <inspirations>  (73) 
{P × 2}

>  <subsites>  (73) 
None

>  <reference>  (73) 
z0221a

$$$$
VVLJIFXPPGUQGC-UHFFFAOYSA-N
     RDKit          3D

 22 24  0  0  0  0  0  0  0  0999 V2000
  -26.4340  -30.0823  -25.0065 N   0  0  0  0  0  0  0  0  0  0  0  0
  -26.3309  -29.6192  -23.7097 C   0  0  0  0  0  0  0  0  0  0  0  0
  -26.6445  -30.4133  -22.6189 C   0  0  0  0  0  0  0  0  0  0  0  0
  -26.5070  -29.8580  -21.3590 C   0  0  0  0  0  0  0  0  0  0  0  0
  -26.6067  -30.6427  -20.1283 C   0  0  0  0  0  0  0  0  0  0  0  0
  -25.9462  -31.5898  -19.9812 O   0  0  0  0  0  0  0  0  0  0  0  0
  -27.5787  -29.9436  -19.1609 N   0  0  0  0  0  0  0  0  0  0  0  0
  -27.9971  -30.3027  -17.8918 C   0  0  0  0  0  0  0  0  0  0  0  0
  -29.3517  -30.1237  -17.6310 C   0  0  0  0  0  0  0  0  0  0  0  0
  -29.8490  -30.5203  -16.4067 C   0  0  0  0  0  0  0  0  0  0  0  0
  -28.9907  -31.0644  -15.4510 C   0  0  0  0  0  0  0  0  0  0  0  0
  -29.7349  -31.6107  -13.9795 Cl  0  0  0  0  0  0  0  0  0  0  0  0
  -27.6066  -31.1709  -15.6458 C   0  0  0  0  0  0  0  0  0  0  0  0
  -26.8000  -31.6203  -14.6516 N   0  0  0  0  0  0  0  0  0  0  0  0
  -25.4670  -31.6609  -14.8488 C   0  0  0  0  0  0  0  0  0  0  0  0
  -24.8596  -31.2467  -16.0101 C   0  0  0  0  0  0  0  0  0  0  0  0
  -25.6801  -30.7971  -17.0358 C   0  0  0  0  0  0  0  0  0  0  0  0
  -27.0910  -30.7703  -16.8960 C   0  0  0  0  0  0  0  0  0  0  0  0
  -26.0628  -28.5633  -21.1955 C   0  0  0  0  0  0  0  0  0  0  0  0
  -25.7441  -27.8918  -22.3357 C   0  0  0  0  0  0  0  0  0  0  0  0
  -25.2770  -26.2862  -22.1727 Cl  0  0  0  0  0  0  0  0  0  0  0  0
  -25.8693  -28.3683  -23.5846 N   0  0  0  0  0  0  0  0  0  0  0  0
  1  2  1  0
  2  3  2  0
  3  4  1  0
  4  5  1  0
  5  6  2  0
  5  7  1  0
  7  8  1  0
  8  9  2  0
  9 10  1  0
 10 11  2  0
 11 12  1  0
 11 13  1  0
 13 14  2  0
 14 15  1  0
 15 16  2  0
 16 17  1  0
 17 18  2  0
  4 19  2  0
 19 20  1  0
 20 21  1  0
 20 22  2  0
 22  2  1  0
 18  8  1  0
 18 13  1  0
M  END
>  <id>  (74) 
237590

>  <inchikey>  (74) 
VVLJIFXPPGUQGC-UHFFFAOYSA-N

>  <alias>  (74) 
None

>  <smiles>  (74) 
Nc1cc(C(=O)Nc2ccc(Cl)c3ncccc23)cc(Cl)n1

>  <path>  (74) 
/opt/xchem-fragalysis-2/maxwin/RdRp_FFF/syndirella/mar_elabs/elabs_005/YAOSTISNIUSXMX-UHFFFAOYSA-N/output/YAOSTISNIUSXMX-UHFFFAOYSA-N-kzFKyu-352-A/YAOSTISNIUSXMX-UHFFFAOYSA-N-kzFKyu-352-A.minimised.mol

>  <distance_score>  (74) 
1.159383

>  <energy_score>  (74) 
-15.480739

>  <compound>  (74) 
VVLJIFXPPGUQGC-UHFFFAOYSA-N

>  <compound_id>  (74) 
77646

>  <target>  (74) 
Flavi_NS5_RdRp

>  <tags>  (74) 
[]

>  <inspirations>  (74) 
{P × 2}

>  <subsites>  (74) 
None

>  <reference>  (74) 
z0221a

$$$$
CDIUHNWUYKXYAR-UHFFFAOYSA-N
     RDKit          3D

 22 24  0  0  0  0  0  0  0  0999 V2000
  -28.6106  -29.7895  -21.1447 O   0  0  0  0  0  0  0  0  0  0  0  0
  -27.5668  -29.4344  -20.7648 C   0  0  0  0  0  0  0  0  0  0  0  0
  -26.9887  -29.3849  -19.3436 N   0  0  0  0  0  0  0  0  0  0  0  0
  -27.5170  -29.8348  -18.1350 C   0  0  0  0  0  0  0  0  0  0  0  0
  -28.8859  -30.1200  -18.0963 C   0  0  0  0  0  0  0  0  0  0  0  0
  -29.4620  -30.5982  -16.9348 C   0  0  0  0  0  0  0  0  0  0  0  0
  -28.6653  -30.8085  -15.8140 C   0  0  0  0  0  0  0  0  0  0  0  0
  -29.4640  -31.4437  -14.4100 Cl  0  0  0  0  0  0  0  0  0  0  0  0
  -27.2867  -30.5472  -15.8099 C   0  0  0  0  0  0  0  0  0  0  0  0
  -26.5441  -30.7875  -14.7021 N   0  0  0  0  0  0  0  0  0  0  0  0
  -25.2174  -30.5631  -14.7328 C   0  0  0  0  0  0  0  0  0  0  0  0
  -24.5562  -30.0851  -15.8390 C   0  0  0  0  0  0  0  0  0  0  0  0
  -25.3017  -29.8250  -16.9807 C   0  0  0  0  0  0  0  0  0  0  0  0
  -26.6985  -30.0451  -16.9972 C   0  0  0  0  0  0  0  0  0  0  0  0
  -26.6192  -29.0142  -21.8059 C   0  0  0  0  0  0  0  0  0  0  0  0
  -26.5718  -29.7755  -22.9728 C   0  0  0  0  0  0  0  0  0  0  0  0
  -27.1109  -31.0215  -23.0198 O   0  0  0  0  0  0  0  0  0  0  0  0
  -25.9304  -29.2677  -24.0809 C   0  0  0  0  0  0  0  0  0  0  0  0
  -25.3334  -28.0616  -24.0709 N   0  0  0  0  0  0  0  0  0  0  0  0
  -25.3289  -27.3751  -22.9053 C   0  0  0  0  0  0  0  0  0  0  0  0
  -25.9314  -27.8206  -21.7480 C   0  0  0  0  0  0  0  0  0  0  0  0
  -25.8932  -27.0812  -20.6358 F   0  0  0  0  0  0  0  0  0  0  0  0
  1  2  2  0
  2  3  1  0
  3  4  1  0
  4  5  2  0
  5  6  1  0
  6  7  2  0
  7  8  1  0
  7  9  1  0
  9 10  2  0
 10 11  1  0
 11 12  2  0
 12 13  1  0
 13 14  2  0
  2 15  1  0
 15 16  2  0
 16 17  1  0
 16 18  1  0
 18 19  2  0
 19 20  1  0
 20 21  2  0
 21 22  1  0
 14  4  1  0
 21 15  1  0
 14  9  1  0
M  END
>  <id>  (75) 
237591

>  <inchikey>  (75) 
CDIUHNWUYKXYAR-UHFFFAOYSA-N

>  <alias>  (75) 
None

>  <smiles>  (75) 
O=C(Nc1ccc(Cl)c2ncccc12)c1c(O)cncc1F

>  <path>  (75) 
/opt/xchem-fragalysis-2/maxwin/RdRp_FFF/syndirella/mar_elabs/elabs_005/YAOSTISNIUSXMX-UHFFFAOYSA-N/output/YAOSTISNIUSXMX-UHFFFAOYSA-N-kzFKyu-353-A/YAOSTISNIUSXMX-UHFFFAOYSA-N-kzFKyu-353-A.minimised.mol

>  <distance_score>  (75) 
0.956413

>  <energy_score>  (75) 
-16.354411

>  <compound>  (75) 
CDIUHNWUYKXYAR-UHFFFAOYSA-N

>  <compound_id>  (75) 
77647

>  <target>  (75) 
Flavi_NS5_RdRp

>  <tags>  (75) 
[]

>  <inspirations>  (75) 
{P × 2}

>  <subsites>  (75) 
None

>  <reference>  (75) 
z0221a

$$$$
PMDIBTYKVDBINH-UHFFFAOYSA-N
     RDKit          3D

 22 24  0  0  0  0  0  0  0  0999 V2000
  -25.5439  -28.9545  -24.6432 N   0  0  0  0  0  0  0  0  0  0  0  0
  -25.8889  -28.7562  -23.3223 C   0  0  0  0  0  0  0  0  0  0  0  0
  -26.8265  -29.5742  -22.7107 C   0  0  0  0  0  0  0  0  0  0  0  0
  -27.1709  -29.2786  -21.4094 C   0  0  0  0  0  0  0  0  0  0  0  0
  -28.0625  -30.1002  -20.5710 C   0  0  0  0  0  0  0  0  0  0  0  0
  -29.1088  -30.4462  -20.9431 O   0  0  0  0  0  0  0  0  0  0  0  0
  -27.3839  -30.2694  -19.1948 N   0  0  0  0  0  0  0  0  0  0  0  0
  -27.8716  -30.7954  -18.0098 C   0  0  0  0  0  0  0  0  0  0  0  0
  -29.2331  -31.0600  -17.9046 C   0  0  0  0  0  0  0  0  0  0  0  0
  -29.7583  -31.3907  -16.6708 C   0  0  0  0  0  0  0  0  0  0  0  0
  -28.9202  -31.4569  -15.5572 C   0  0  0  0  0  0  0  0  0  0  0  0
  -29.6739  -31.8727  -14.0483 Cl  0  0  0  0  0  0  0  0  0  0  0  0
  -27.5387  -31.2199  -15.6293 C   0  0  0  0  0  0  0  0  0  0  0  0
  -26.7568  -31.3085  -14.5238 N   0  0  0  0  0  0  0  0  0  0  0  0
  -25.4319  -31.0831  -14.6231 C   0  0  0  0  0  0  0  0  0  0  0  0
  -24.8053  -30.7563  -15.8017 C   0  0  0  0  0  0  0  0  0  0  0  0
  -25.5931  -30.6605  -16.9408 C   0  0  0  0  0  0  0  0  0  0  0  0
  -26.9954  -30.8875  -16.8875 C   0  0  0  0  0  0  0  0  0  0  0  0
  -26.6539  -28.1558  -20.7920 C   0  0  0  0  0  0  0  0  0  0  0  0
  -25.6838  -27.4519  -21.4420 C   0  0  0  0  0  0  0  0  0  0  0  0
  -24.8166  -26.2108  -20.3264 Br  0  0  0  0  0  0  0  0  0  0  0  0
  -25.2986  -27.7166  -22.7007 N   0  0  0  0  0  0  0  0  0  0  0  0
  1  2  1  0
  2  3  2  0
  3  4  1  0
  4  5  1  0
  5  6  2  0
  5  7  1  0
  7  8  1  0
  8  9  2  0
  9 10  1  0
 10 11  2  0
 11 12  1  0
 11 13  1  0
 13 14  2  0
 14 15  1  0
 15 16  2  0
 16 17  1  0
 17 18  2  0
  4 19  2  0
 19 20  1  0
 20 21  1  0
 20 22  2  0
 22  2  1  0
 18  8  1  0
 18 13  1  0
M  END
>  <id>  (76) 
237595

>  <inchikey>  (76) 
PMDIBTYKVDBINH-UHFFFAOYSA-N

>  <alias>  (76) 
None

>  <smiles>  (76) 
Nc1cc(C(=O)Nc2ccc(Cl)c3ncccc23)cc(Br)n1

>  <path>  (76) 
/opt/xchem-fragalysis-2/maxwin/RdRp_FFF/syndirella/mar_elabs/elabs_005/YAOSTISNIUSXMX-UHFFFAOYSA-N/output/YAOSTISNIUSXMX-UHFFFAOYSA-N-kzFKyu-362-A/YAOSTISNIUSXMX-UHFFFAOYSA-N-kzFKyu-362-A.minimised.mol

>  <distance_score>  (76) 
1.488507

>  <energy_score>  (76) 
-7.423207

>  <compound>  (76) 
PMDIBTYKVDBINH-UHFFFAOYSA-N

>  <compound_id>  (76) 
77653

>  <target>  (76) 
Flavi_NS5_RdRp

>  <tags>  (76) 
[]

>  <inspirations>  (76) 
{P × 2}

>  <subsites>  (76) 
None

>  <reference>  (76) 
z0221a

$$$$
WPHIKZOGIIIICH-UHFFFAOYSA-N
     RDKit          3D

 22 24  0  0  0  0  0  0  0  0999 V2000
  -26.0602  -27.8838  -20.4692 N   0  0  0  0  0  0  0  0  0  0  0  0
  -26.0579  -28.7227  -21.6034 C   0  0  0  0  0  0  0  0  0  0  0  0
  -26.4557  -30.0566  -21.5670 C   0  0  0  0  0  0  0  0  0  0  0  0
  -26.5527  -30.7346  -20.2645 C   0  0  0  0  0  0  0  0  0  0  0  0
  -25.8784  -31.6600  -20.0482 O   0  0  0  0  0  0  0  0  0  0  0  0
  -27.5275  -29.9744  -19.3484 N   0  0  0  0  0  0  0  0  0  0  0  0
  -27.9344  -30.2384  -18.0511 C   0  0  0  0  0  0  0  0  0  0  0  0
  -29.2819  -30.0009  -17.7998 C   0  0  0  0  0  0  0  0  0  0  0  0
  -29.7989  -30.3301  -16.5640 C   0  0  0  0  0  0  0  0  0  0  0  0
  -28.9672  -30.8744  -15.5867 C   0  0  0  0  0  0  0  0  0  0  0  0
  -29.7416  -31.3609  -14.1109 Cl  0  0  0  0  0  0  0  0  0  0  0  0
  -27.5864  -31.0307  -15.7686 C   0  0  0  0  0  0  0  0  0  0  0  0
  -26.8011  -31.4671  -14.7516 N   0  0  0  0  0  0  0  0  0  0  0  0
  -25.4690  -31.5563  -14.9362 C   0  0  0  0  0  0  0  0  0  0  0  0
  -24.8416  -31.2058  -16.1076 C   0  0  0  0  0  0  0  0  0  0  0  0
  -25.6405  -30.7714  -17.1572 C   0  0  0  0  0  0  0  0  0  0  0  0
  -27.0502  -30.6943  -17.0309 C   0  0  0  0  0  0  0  0  0  0  0  0
  -26.5049  -30.8257  -22.7271 C   0  0  0  0  0  0  0  0  0  0  0  0
  -26.2116  -30.2132  -23.9367 C   0  0  0  0  0  0  0  0  0  0  0  0
  -25.8795  -28.9271  -24.0356 N   0  0  0  0  0  0  0  0  0  0  0  0
  -25.7955  -28.2407  -22.8811 C   0  0  0  0  0  0  0  0  0  0  0  0
  -25.2387  -26.4822  -23.0171 Br  0  0  0  0  0  0  0  0  0  0  0  0
  1  2  1  0
  2  3  2  0
  3  4  1  0
  4  5  2  0
  4  6  1  0
  6  7  1  0
  7  8  2  0
  8  9  1  0
  9 10  2  0
 10 11  1  0
 10 12  1  0
 12 13  2  0
 13 14  1  0
 14 15  2  0
 15 16  1  0
 16 17  2  0
  3 18  1  0
 18 19  2  0
 19 20  1  0
 20 21  2  0
 21 22  1  0
 21  2  1  0
 17  7  1  0
 17 12  1  0
M  END
>  <id>  (77) 
237596

>  <inchikey>  (77) 
WPHIKZOGIIIICH-UHFFFAOYSA-N

>  <alias>  (77) 
None

>  <smiles>  (77) 
Nc1c(C(=O)Nc2ccc(Cl)c3ncccc23)ccnc1Br

>  <path>  (77) 
/opt/xchem-fragalysis-2/maxwin/RdRp_FFF/syndirella/mar_elabs/elabs_005/YAOSTISNIUSXMX-UHFFFAOYSA-N/output/YAOSTISNIUSXMX-UHFFFAOYSA-N-kzFKyu-363-A/YAOSTISNIUSXMX-UHFFFAOYSA-N-kzFKyu-363-A.minimised.mol

>  <distance_score>  (77) 
1.067096

>  <energy_score>  (77) 
-26.830804

>  <compound>  (77) 
WPHIKZOGIIIICH-UHFFFAOYSA-N

>  <compound_id>  (77) 
77654

>  <target>  (77) 
Flavi_NS5_RdRp

>  <tags>  (77) 
[]

>  <inspirations>  (77) 
{P × 2}

>  <subsites>  (77) 
None

>  <reference>  (77) 
z0221a

$$$$
GNBPZPUCQKBHRO-UHFFFAOYSA-N
     RDKit          3D

 22 24  0  0  0  0  0  0  0  0999 V2000
  -25.6618  -30.9895  -20.2857 O   0  0  0  0  0  0  0  0  0  0  0  0
  -26.3809  -30.0864  -20.4417 C   0  0  0  0  0  0  0  0  0  0  0  0
  -27.4039  -29.4520  -19.4887 N   0  0  0  0  0  0  0  0  0  0  0  0
  -27.8149  -29.8379  -18.2172 C   0  0  0  0  0  0  0  0  0  0  0  0
  -29.1825  -29.7356  -17.9842 C   0  0  0  0  0  0  0  0  0  0  0  0
  -29.7030  -30.1808  -16.7845 C   0  0  0  0  0  0  0  0  0  0  0  0
  -28.8587  -30.7334  -15.8237 C   0  0  0  0  0  0  0  0  0  0  0  0
  -29.6211  -31.3254  -14.3802 Cl  0  0  0  0  0  0  0  0  0  0  0  0
  -27.4719  -30.8142  -15.9970 C   0  0  0  0  0  0  0  0  0  0  0  0
  -26.6865  -31.3084  -15.0073 N   0  0  0  0  0  0  0  0  0  0  0  0
  -25.3514  -31.3378  -15.1788 C   0  0  0  0  0  0  0  0  0  0  0  0
  -24.7237  -30.8657  -16.3060 C   0  0  0  0  0  0  0  0  0  0  0  0
  -25.5215  -30.3598  -17.3243 C   0  0  0  0  0  0  0  0  0  0  0  0
  -26.9325  -30.3456  -17.2184 C   0  0  0  0  0  0  0  0  0  0  0  0
  -26.3089  -29.3511  -21.7188 C   0  0  0  0  0  0  0  0  0  0  0  0
  -26.5606  -30.0713  -22.8846 C   0  0  0  0  0  0  0  0  0  0  0  0
  -26.2653  -29.4787  -24.0986 C   0  0  0  0  0  0  0  0  0  0  0  0
  -25.7513  -28.2387  -24.2005 N   0  0  0  0  0  0  0  0  0  0  0  0
  -25.5080  -27.5759  -23.0509 C   0  0  0  0  0  0  0  0  0  0  0  0
  -25.0868  -26.3085  -23.1417 F   0  0  0  0  0  0  0  0  0  0  0  0
  -25.7842  -28.0703  -21.7879 C   0  0  0  0  0  0  0  0  0  0  0  0
  -25.5317  -27.3400  -20.6647 O   0  0  0  0  0  0  0  0  0  0  0  0
  1  2  2  0
  2  3  1  0
  3  4  1  0
  4  5  2  0
  5  6  1  0
  6  7  2  0
  7  8  1  0
  7  9  1  0
  9 10  2  0
 10 11  1  0
 11 12  2  0
 12 13  1  0
 13 14  2  0
  2 15  1  0
 15 16  2  0
 16 17  1  0
 17 18  2  0
 18 19  1  0
 19 20  1  0
 19 21  2  0
 21 22  1  0
 14  4  1  0
 21 15  1  0
 14  9  1  0
M  END
>  <id>  (78) 
237605

>  <inchikey>  (78) 
GNBPZPUCQKBHRO-UHFFFAOYSA-N

>  <alias>  (78) 
None

>  <smiles>  (78) 
O=C(Nc1ccc(Cl)c2ncccc12)c1ccnc(F)c1O

>  <path>  (78) 
/opt/xchem-fragalysis-2/maxwin/RdRp_FFF/syndirella/mar_elabs/elabs_005/YAOSTISNIUSXMX-UHFFFAOYSA-N/output/YAOSTISNIUSXMX-UHFFFAOYSA-N-kzFKyu-385-A/YAOSTISNIUSXMX-UHFFFAOYSA-N-kzFKyu-385-A.minimised.mol

>  <distance_score>  (78) 
0.8047

>  <energy_score>  (78) 
-13.258159

>  <compound>  (78) 
GNBPZPUCQKBHRO-UHFFFAOYSA-N

>  <compound_id>  (78) 
77666

>  <target>  (78) 
Flavi_NS5_RdRp

>  <tags>  (78) 
[]

>  <inspirations>  (78) 
{P × 2}

>  <subsites>  (78) 
None

>  <reference>  (78) 
z0221a

$$$$
WUQIYSAHFQYOLX-UHFFFAOYSA-N
     RDKit          3D

 22 24  0  0  0  0  0  0  0  0999 V2000
  -25.5717  -30.9447  -20.0894 O   0  0  0  0  0  0  0  0  0  0  0  0
  -26.3659  -30.1250  -20.3216 C   0  0  0  0  0  0  0  0  0  0  0  0
  -27.4694  -29.5251  -19.4331 N   0  0  0  0  0  0  0  0  0  0  0  0
  -27.8768  -29.8624  -18.1445 C   0  0  0  0  0  0  0  0  0  0  0  0
  -29.2492  -29.8041  -17.9236 C   0  0  0  0  0  0  0  0  0  0  0  0
  -29.7583  -30.2424  -16.7167 C   0  0  0  0  0  0  0  0  0  0  0  0
  -28.9030  -30.7450  -15.7389 C   0  0  0  0  0  0  0  0  0  0  0  0
  -29.6586  -31.3486  -14.2967 Cl  0  0  0  0  0  0  0  0  0  0  0  0
  -27.5134  -30.7688  -15.8957 C   0  0  0  0  0  0  0  0  0  0  0  0
  -26.7215  -31.2125  -14.8878 N   0  0  0  0  0  0  0  0  0  0  0  0
  -25.3842  -31.1857  -15.0388 C   0  0  0  0  0  0  0  0  0  0  0  0
  -24.7625  -30.7007  -16.1629 C   0  0  0  0  0  0  0  0  0  0  0  0
  -25.5683  -30.2461  -17.1995 C   0  0  0  0  0  0  0  0  0  0  0  0
  -26.9812  -30.2987  -17.1193 C   0  0  0  0  0  0  0  0  0  0  0  0
  -26.3785  -29.4214  -21.6310 C   0  0  0  0  0  0  0  0  0  0  0  0
  -26.5572  -30.1851  -22.8387 C   0  0  0  0  0  0  0  0  0  0  0  0
  -26.1405  -29.6846  -24.0064 C   0  0  0  0  0  0  0  0  0  0  0  0
  -26.1809  -30.4481  -25.1124 F   0  0  0  0  0  0  0  0  0  0  0  0
  -25.6179  -28.4274  -24.0633 N   0  0  0  0  0  0  0  0  0  0  0  0
  -25.5254  -27.5957  -22.9790 C   0  0  0  0  0  0  0  0  0  0  0  0
  -25.1947  -26.4218  -23.0438 O   0  0  0  0  0  0  0  0  0  0  0  0
  -25.8966  -28.1712  -21.6639 C   0  0  0  0  0  0  0  0  0  0  0  0
  1  2  2  0
  2  3  1  0
  3  4  1  0
  4  5  2  0
  5  6  1  0
  6  7  2  0
  7  8  1  0
  7  9  1  0
  9 10  2  0
 10 11  1  0
 11 12  2  0
 12 13  1  0
 13 14  2  0
  2 15  1  0
 15 16  1  0
 16 17  2  0
 17 18  1  0
 17 19  1  0
 19 20  1  0
 20 21  2  0
 20 22  1  0
 14  4  1  0
 22 15  2  0
 14  9  1  0
M  END
>  <id>  (79) 
237606

>  <inchikey>  (79) 
WUQIYSAHFQYOLX-UHFFFAOYSA-N

>  <alias>  (79) 
None

>  <smiles>  (79) 
O=C(Nc1ccc(Cl)c2ncccc12)c1cc(F)[nH]c(=O)c1

>  <path>  (79) 
/opt/xchem-fragalysis-2/maxwin/RdRp_FFF/syndirella/mar_elabs/elabs_005/YAOSTISNIUSXMX-UHFFFAOYSA-N/output/YAOSTISNIUSXMX-UHFFFAOYSA-N-kzFKyu-386-A/YAOSTISNIUSXMX-UHFFFAOYSA-N-kzFKyu-386-A.minimised.mol

>  <distance_score>  (79) 
0.838712

>  <energy_score>  (79) 
-3.078441

>  <compound>  (79) 
WUQIYSAHFQYOLX-UHFFFAOYSA-N

>  <compound_id>  (79) 
77667

>  <target>  (79) 
Flavi_NS5_RdRp

>  <tags>  (79) 
[]

>  <inspirations>  (79) 
{P × 2}

>  <subsites>  (79) 
None

>  <reference>  (79) 
z0221a

$$$$
NIVYILVUEHSGMS-UHFFFAOYSA-N
     RDKit          3D

 22 24  0  0  0  0  0  0  0  0999 V2000
  -24.1918  -27.3145  -20.1821 N   0  0  0  0  0  0  0  0  0  0  0  0
  -25.5999  -27.3150  -20.5478 O   0  0  0  0  0  0  0  0  0  0  0  0
  -25.7651  -28.0296  -21.6979 C   0  0  0  0  0  0  0  0  0  0  0  0
  -25.4568  -27.4929  -22.9325 C   0  0  0  0  0  0  0  0  0  0  0  0
  -25.6896  -28.1292  -24.1087 N   0  0  0  0  0  0  0  0  0  0  0  0
  -26.2260  -29.3651  -24.0629 C   0  0  0  0  0  0  0  0  0  0  0  0
  -26.5552  -29.9901  -22.8774 C   0  0  0  0  0  0  0  0  0  0  0  0
  -26.3159  -29.3053  -21.6878 C   0  0  0  0  0  0  0  0  0  0  0  0
  -26.4143  -30.0731  -20.4349 C   0  0  0  0  0  0  0  0  0  0  0  0
  -25.6862  -30.9681  -20.2762 O   0  0  0  0  0  0  0  0  0  0  0  0
  -27.5163  -29.5132  -19.5252 N   0  0  0  0  0  0  0  0  0  0  0  0
  -27.8837  -29.8631  -18.2280 C   0  0  0  0  0  0  0  0  0  0  0  0
  -29.2489  -29.7785  -17.9707 C   0  0  0  0  0  0  0  0  0  0  0  0
  -29.7396  -30.2050  -16.7523 C   0  0  0  0  0  0  0  0  0  0  0  0
  -28.8703  -30.7208  -15.7949 C   0  0  0  0  0  0  0  0  0  0  0  0
  -29.6022  -31.3070  -14.3339 Cl  0  0  0  0  0  0  0  0  0  0  0  0
  -27.4854  -30.7736  -15.9868 C   0  0  0  0  0  0  0  0  0  0  0  0
  -26.6793  -31.2252  -14.9936 N   0  0  0  0  0  0  0  0  0  0  0  0
  -25.3465  -31.2395  -15.1798 C   0  0  0  0  0  0  0  0  0  0  0  0
  -24.7416  -30.7873  -16.3264 C   0  0  0  0  0  0  0  0  0  0  0  0
  -25.5611  -30.3201  -17.3468 C   0  0  0  0  0  0  0  0  0  0  0  0
  -26.9724  -30.3250  -17.2279 C   0  0  0  0  0  0  0  0  0  0  0  0
  1  2  1  0
  2  3  1  0
  3  4  2  0
  4  5  1  0
  5  6  2  0
  6  7  1  0
  7  8  2  0
  8  9  1  0
  9 10  2  0
  9 11  1  0
 11 12  1  0
 12 13  2  0
 13 14  1  0
 14 15  2  0
 15 16  1  0
 15 17  1  0
 17 18  2  0
 18 19  1  0
 19 20  2  0
 20 21  1  0
 21 22  2  0
  8  3  1  0
 22 12  1  0
 22 17  1  0
M  END
>  <id>  (80) 
237607

>  <inchikey>  (80) 
NIVYILVUEHSGMS-UHFFFAOYSA-N

>  <alias>  (80) 
None

>  <smiles>  (80) 
NOc1cnccc1C(=O)Nc1ccc(Cl)c2ncccc12

>  <path>  (80) 
/opt/xchem-fragalysis-2/maxwin/RdRp_FFF/syndirella/mar_elabs/elabs_005/YAOSTISNIUSXMX-UHFFFAOYSA-N/output/YAOSTISNIUSXMX-UHFFFAOYSA-N-kzFKyu-387-A/YAOSTISNIUSXMX-UHFFFAOYSA-N-kzFKyu-387-A.minimised.mol

>  <distance_score>  (80) 
0.79889

>  <energy_score>  (80) 
-5.107099

>  <compound>  (80) 
NIVYILVUEHSGMS-UHFFFAOYSA-N

>  <compound_id>  (80) 
77668

>  <target>  (80) 
Flavi_NS5_RdRp

>  <tags>  (80) 
[]

>  <inspirations>  (80) 
{P × 2}

>  <subsites>  (80) 
None

>  <reference>  (80) 
z0221a

$$$$
MBMSZSMSHWMEML-UHFFFAOYSA-N
     RDKit          3D

 22 24  0  0  0  0  0  0  0  0999 V2000
  -28.6423  -29.5206  -21.1080 O   0  0  0  0  0  0  0  0  0  0  0  0
  -27.5546  -29.3052  -20.7459 C   0  0  0  0  0  0  0  0  0  0  0  0
  -26.9361  -29.3943  -19.3431 N   0  0  0  0  0  0  0  0  0  0  0  0
  -27.4804  -29.8440  -18.1385 C   0  0  0  0  0  0  0  0  0  0  0  0
  -28.8667  -30.0268  -18.0884 C   0  0  0  0  0  0  0  0  0  0  0  0
  -29.4651  -30.5013  -16.9365 C   0  0  0  0  0  0  0  0  0  0  0  0
  -28.6768  -30.8028  -15.8317 C   0  0  0  0  0  0  0  0  0  0  0  0
  -29.5067  -31.4232  -14.4387 Cl  0  0  0  0  0  0  0  0  0  0  0  0
  -27.2852  -30.6315  -15.8323 C   0  0  0  0  0  0  0  0  0  0  0  0
  -26.5597  -30.9419  -14.7314 N   0  0  0  0  0  0  0  0  0  0  0  0
  -25.2244  -30.7799  -14.7520 C   0  0  0  0  0  0  0  0  0  0  0  0
  -24.5375  -30.3073  -15.8447 C   0  0  0  0  0  0  0  0  0  0  0  0
  -25.2643  -29.9845  -16.9831 C   0  0  0  0  0  0  0  0  0  0  0  0
  -26.6704  -30.1367  -17.0106 C   0  0  0  0  0  0  0  0  0  0  0  0
  -26.5868  -28.9824  -21.8100 C   0  0  0  0  0  0  0  0  0  0  0  0
  -26.6247  -29.8087  -22.9366 C   0  0  0  0  0  0  0  0  0  0  0  0
  -27.2269  -31.0260  -22.8903 O   0  0  0  0  0  0  0  0  0  0  0  0
  -26.0209  -29.3970  -24.1038 C   0  0  0  0  0  0  0  0  0  0  0  0
  -25.3873  -28.2175  -24.1953 N   0  0  0  0  0  0  0  0  0  0  0  0
  -25.2933  -27.4697  -23.0707 C   0  0  0  0  0  0  0  0  0  0  0  0
  -25.8401  -27.8176  -21.8473 C   0  0  0  0  0  0  0  0  0  0  0  0
  -25.5984  -26.7960  -20.4971 Cl  0  0  0  0  0  0  0  0  0  0  0  0
  1  2  2  0
  2  3  1  0
  3  4  1  0
  4  5  2  0
  5  6  1  0
  6  7  2  0
  7  8  1  0
  7  9  1  0
  9 10  2  0
 10 11  1  0
 11 12  2  0
 12 13  1  0
 13 14  2  0
  2 15  1  0
 15 16  2  0
 16 17  1  0
 16 18  1  0
 18 19  2  0
 19 20  1  0
 20 21  2  0
 21 22  1  0
 14  4  1  0
 21 15  1  0
 14  9  1  0
M  END
>  <id>  (81) 
237608

>  <inchikey>  (81) 
MBMSZSMSHWMEML-UHFFFAOYSA-N

>  <alias>  (81) 
None

>  <smiles>  (81) 
O=C(Nc1ccc(Cl)c2ncccc12)c1c(O)cncc1Cl

>  <path>  (81) 
/opt/xchem-fragalysis-2/maxwin/RdRp_FFF/syndirella/mar_elabs/elabs_005/YAOSTISNIUSXMX-UHFFFAOYSA-N/output/YAOSTISNIUSXMX-UHFFFAOYSA-N-kzFKyu-388-A/YAOSTISNIUSXMX-UHFFFAOYSA-N-kzFKyu-388-A.minimised.mol

>  <distance_score>  (81) 
0.986935

>  <energy_score>  (81) 
-36.725032

>  <compound>  (81) 
MBMSZSMSHWMEML-UHFFFAOYSA-N

>  <compound_id>  (81) 
77669

>  <target>  (81) 
Flavi_NS5_RdRp

>  <tags>  (81) 
[]

>  <inspirations>  (81) 
{P × 2}

>  <subsites>  (81) 
None

>  <reference>  (81) 
z0221a

$$$$
NQCHAQREQFCPDU-UHFFFAOYSA-N
     RDKit          3D

 22 24  0  0  0  0  0  0  0  0999 V2000
  -25.6196  -30.9241  -20.2595 O   0  0  0  0  0  0  0  0  0  0  0  0
  -26.3978  -30.0796  -20.4518 C   0  0  0  0  0  0  0  0  0  0  0  0
  -27.5364  -29.5545  -19.5659 N   0  0  0  0  0  0  0  0  0  0  0  0
  -27.8908  -29.8811  -18.2572 C   0  0  0  0  0  0  0  0  0  0  0  0
  -29.2566  -29.8043  -17.9990 C   0  0  0  0  0  0  0  0  0  0  0  0
  -29.7431  -30.2249  -16.7767 C   0  0  0  0  0  0  0  0  0  0  0  0
  -28.8706  -30.7305  -15.8169 C   0  0  0  0  0  0  0  0  0  0  0  0
  -29.5982  -31.3149  -14.3529 Cl  0  0  0  0  0  0  0  0  0  0  0  0
  -27.4858  -30.7711  -16.0079 C   0  0  0  0  0  0  0  0  0  0  0  0
  -26.6780  -31.2131  -15.0122 N   0  0  0  0  0  0  0  0  0  0  0  0
  -25.3443  -31.1966  -15.1890 C   0  0  0  0  0  0  0  0  0  0  0  0
  -24.7424  -30.7253  -16.3292 C   0  0  0  0  0  0  0  0  0  0  0  0
  -25.5649  -30.2756  -17.3552 C   0  0  0  0  0  0  0  0  0  0  0  0
  -26.9760  -30.3177  -17.2489 C   0  0  0  0  0  0  0  0  0  0  0  0
  -26.3175  -29.3470  -21.7266 C   0  0  0  0  0  0  0  0  0  0  0  0
  -26.5981  -30.0744  -22.8819 C   0  0  0  0  0  0  0  0  0  0  0  0
  -26.3034  -29.5012  -24.1033 C   0  0  0  0  0  0  0  0  0  0  0  0
  -25.7726  -28.2713  -24.2176 N   0  0  0  0  0  0  0  0  0  0  0  0
  -25.4991  -27.5959  -23.0763 C   0  0  0  0  0  0  0  0  0  0  0  0
  -25.0713  -26.3351  -23.2160 F   0  0  0  0  0  0  0  0  0  0  0  0
  -25.7587  -28.0785  -21.8060 C   0  0  0  0  0  0  0  0  0  0  0  0
  -25.3710  -27.1434  -20.4212 Cl  0  0  0  0  0  0  0  0  0  0  0  0
  1  2  2  0
  2  3  1  0
  3  4  1  0
  4  5  2  0
  5  6  1  0
  6  7  2  0
  7  8  1  0
  7  9  1  0
  9 10  2  0
 10 11  1  0
 11 12  2  0
 12 13  1  0
 13 14  2  0
  2 15  1  0
 15 16  2  0
 16 17  1  0
 17 18  2  0
 18 19  1  0
 19 20  1  0
 19 21  2  0
 21 22  1  0
 14  4  1  0
 21 15  1  0
 14  9  1  0
M  END
>  <id>  (82) 
237616

>  <inchikey>  (82) 
NQCHAQREQFCPDU-UHFFFAOYSA-N

>  <alias>  (82) 
None

>  <smiles>  (82) 
O=C(Nc1ccc(Cl)c2ncccc12)c1ccnc(F)c1Cl

>  <path>  (82) 
/opt/xchem-fragalysis-2/maxwin/RdRp_FFF/syndirella/mar_elabs/elabs_005/YAOSTISNIUSXMX-UHFFFAOYSA-N/output/YAOSTISNIUSXMX-UHFFFAOYSA-N-kzFKyu-407-A/YAOSTISNIUSXMX-UHFFFAOYSA-N-kzFKyu-407-A.minimised.mol

>  <distance_score>  (82) 
0.783897

>  <energy_score>  (82) 
-9.637434

>  <compound>  (82) 
NQCHAQREQFCPDU-UHFFFAOYSA-N

>  <compound_id>  (82) 
77680

>  <target>  (82) 
Flavi_NS5_RdRp

>  <tags>  (82) 
[]

>  <inspirations>  (82) 
{P × 2}

>  <subsites>  (82) 
None

>  <reference>  (82) 
z0221a

$$$$
FLNXUFBJESOTRG-UHFFFAOYSA-N
     RDKit          3D

 22 24  0  0  0  0  0  0  0  0999 V2000
  -24.9630  -29.2894  -19.4417 O   0  0  0  0  0  0  0  0  0  0  0  0
  -26.0184  -29.1088  -19.9016 C   0  0  0  0  0  0  0  0  0  0  0  0
  -27.4180  -29.2247  -19.2671 N   0  0  0  0  0  0  0  0  0  0  0  0
  -27.8083  -29.6677  -17.9928 C   0  0  0  0  0  0  0  0  0  0  0  0
  -29.1676  -29.9991  -17.9282 C   0  0  0  0  0  0  0  0  0  0  0  0
  -29.6697  -30.6528  -16.8190 C   0  0  0  0  0  0  0  0  0  0  0  0
  -28.8169  -30.9927  -15.7745 C   0  0  0  0  0  0  0  0  0  0  0  0
  -29.5321  -31.8475  -14.4407 Cl  0  0  0  0  0  0  0  0  0  0  0  0
  -27.4595  -30.6595  -15.7734 C   0  0  0  0  0  0  0  0  0  0  0  0
  -26.6861  -31.0260  -14.7205 N   0  0  0  0  0  0  0  0  0  0  0  0
  -25.3903  -30.6687  -14.6929 C   0  0  0  0  0  0  0  0  0  0  0  0
  -24.8121  -29.8893  -15.6591 C   0  0  0  0  0  0  0  0  0  0  0  0
  -25.6094  -29.4991  -16.7288 C   0  0  0  0  0  0  0  0  0  0  0  0
  -26.9485  -29.9319  -16.8766 C   0  0  0  0  0  0  0  0  0  0  0  0
  -26.1062  -28.8127  -21.3372 C   0  0  0  0  0  0  0  0  0  0  0  0
  -25.5785  -27.6132  -21.7776 C   0  0  0  0  0  0  0  0  0  0  0  0
  -25.2041  -26.6646  -20.9153 F   0  0  0  0  0  0  0  0  0  0  0  0
  -25.4186  -27.4283  -23.1331 C   0  0  0  0  0  0  0  0  0  0  0  0
  -25.7922  -28.3418  -24.0601 N   0  0  0  0  0  0  0  0  0  0  0  0
  -26.2829  -29.5194  -23.6095 C   0  0  0  0  0  0  0  0  0  0  0  0
  -26.4391  -29.8121  -22.2590 C   0  0  0  0  0  0  0  0  0  0  0  0
  -26.7880  -31.7890  -21.6462 I   0  0  0  0  0  0  0  0  0  0  0  0
  1  2  2  0
  2  3  1  0
  3  4  1  0
  4  5  2  0
  5  6  1  0
  6  7  2  0
  7  8  1  0
  7  9  1  0
  9 10  2  0
 10 11  1  0
 11 12  2  0
 12 13  1  0
 13 14  2  0
  2 15  1  0
 15 16  2  0
 16 17  1  0
 16 18  1  0
 18 19  2  0
 19 20  1  0
 20 21  2  0
 21 22  1  0
 14  4  1  0
 21 15  1  0
 14  9  1  0
M  END
>  <id>  (83) 
237617

>  <inchikey>  (83) 
FLNXUFBJESOTRG-UHFFFAOYSA-N

>  <alias>  (83) 
None

>  <smiles>  (83) 
O=C(Nc1ccc(Cl)c2ncccc12)c1c(F)cncc1I

>  <path>  (83) 
/opt/xchem-fragalysis-2/maxwin/RdRp_FFF/syndirella/mar_elabs/elabs_005/YAOSTISNIUSXMX-UHFFFAOYSA-N/output/YAOSTISNIUSXMX-UHFFFAOYSA-N-kzFKyu-408-A/YAOSTISNIUSXMX-UHFFFAOYSA-N-kzFKyu-408-A.minimised.mol

>  <distance_score>  (83) 
1.160873

>  <energy_score>  (83) 
-31.320474

>  <compound>  (83) 
FLNXUFBJESOTRG-UHFFFAOYSA-N

>  <compound_id>  (83) 
77681

>  <target>  (83) 
Flavi_NS5_RdRp

>  <tags>  (83) 
[]

>  <inspirations>  (83) 
{P × 2}

>  <subsites>  (83) 
None

>  <reference>  (83) 
z0221a

$$$$
QMBRIZARJWEQOY-UHFFFAOYSA-N
     RDKit          3D

 22 24  0  0  0  0  0  0  0  0999 V2000
  -25.0140  -29.3265  -19.5437 O   0  0  0  0  0  0  0  0  0  0  0  0
  -26.0701  -29.1358  -19.9968 C   0  0  0  0  0  0  0  0  0  0  0  0
  -27.4672  -29.2695  -19.3633 N   0  0  0  0  0  0  0  0  0  0  0  0
  -27.8547  -29.7455  -18.0994 C   0  0  0  0  0  0  0  0  0  0  0  0
  -29.2044  -30.1081  -18.0364 C   0  0  0  0  0  0  0  0  0  0  0  0
  -29.6924  -30.7621  -16.9200 C   0  0  0  0  0  0  0  0  0  0  0  0
  -28.8380  -31.0640  -15.8645 C   0  0  0  0  0  0  0  0  0  0  0  0
  -29.5404  -31.9101  -14.5182 Cl  0  0  0  0  0  0  0  0  0  0  0  0
  -27.4899  -30.6986  -15.8618 C   0  0  0  0  0  0  0  0  0  0  0  0
  -26.7154  -31.0269  -14.7969 N   0  0  0  0  0  0  0  0  0  0  0  0
  -25.4307  -30.6332  -14.7648 C   0  0  0  0  0  0  0  0  0  0  0  0
  -24.8657  -29.8567  -15.7409 C   0  0  0  0  0  0  0  0  0  0  0  0
  -25.6648  -29.5076  -16.8238 C   0  0  0  0  0  0  0  0  0  0  0  0
  -26.9921  -29.9769  -16.9747 C   0  0  0  0  0  0  0  0  0  0  0  0
  -26.1391  -28.8042  -21.4268 C   0  0  0  0  0  0  0  0  0  0  0  0
  -25.5531  -27.6186  -21.8318 C   0  0  0  0  0  0  0  0  0  0  0  0
  -25.1543  -26.7060  -20.9414 F   0  0  0  0  0  0  0  0  0  0  0  0
  -25.3739  -27.4030  -23.1807 C   0  0  0  0  0  0  0  0  0  0  0  0
  -25.7631  -28.2800  -24.1351 N   0  0  0  0  0  0  0  0  0  0  0  0
  -26.3141  -29.4416  -23.7177 C   0  0  0  0  0  0  0  0  0  0  0  0
  -26.5161  -29.7519  -22.3784 C   0  0  0  0  0  0  0  0  0  0  0  0
  -27.0396  -31.3225  -21.9270 Cl  0  0  0  0  0  0  0  0  0  0  0  0
  1  2  2  0
  2  3  1  0
  3  4  1  0
  4  5  2  0
  5  6  1  0
  6  7  2  0
  7  8  1  0
  7  9  1  0
  9 10  2  0
 10 11  1  0
 11 12  2  0
 12 13  1  0
 13 14  2  0
  2 15  1  0
 15 16  2  0
 16 17  1  0
 16 18  1  0
 18 19  2  0
 19 20  1  0
 20 21  2  0
 21 22  1  0
 14  4  1  0
 21 15  1  0
 14  9  1  0
M  END
>  <id>  (84) 
237618

>  <inchikey>  (84) 
QMBRIZARJWEQOY-UHFFFAOYSA-N

>  <alias>  (84) 
None

>  <smiles>  (84) 
O=C(Nc1ccc(Cl)c2ncccc12)c1c(F)cncc1Cl

>  <path>  (84) 
/opt/xchem-fragalysis-2/maxwin/RdRp_FFF/syndirella/mar_elabs/elabs_005/YAOSTISNIUSXMX-UHFFFAOYSA-N/output/YAOSTISNIUSXMX-UHFFFAOYSA-N-kzFKyu-410-A/YAOSTISNIUSXMX-UHFFFAOYSA-N-kzFKyu-410-A.minimised.mol

>  <distance_score>  (84) 
1.090004

>  <energy_score>  (84) 
-11.137557

>  <compound>  (84) 
QMBRIZARJWEQOY-UHFFFAOYSA-N

>  <compound_id>  (84) 
77682

>  <target>  (84) 
Flavi_NS5_RdRp

>  <tags>  (84) 
[]

>  <inspirations>  (84) 
{P × 2}

>  <subsites>  (84) 
None

>  <reference>  (84) 
z0221a

$$$$
CWMJVCDCBNGSLM-UHFFFAOYSA-N
     RDKit          3D

 22 24  0  0  0  0  0  0  0  0999 V2000
  -25.6232  -27.7116  -20.4598 N   0  0  0  0  0  0  0  0  0  0  0  0
  -25.9831  -28.4409  -21.6047 C   0  0  0  0  0  0  0  0  0  0  0  0
  -26.4047  -29.7669  -21.5709 C   0  0  0  0  0  0  0  0  0  0  0  0
  -26.4682  -30.4700  -20.2826 C   0  0  0  0  0  0  0  0  0  0  0  0
  -25.7349  -31.3502  -20.0703 O   0  0  0  0  0  0  0  0  0  0  0  0
  -27.5045  -29.7915  -19.3684 N   0  0  0  0  0  0  0  0  0  0  0  0
  -27.9092  -30.1028  -18.0770 C   0  0  0  0  0  0  0  0  0  0  0  0
  -29.2719  -29.9617  -17.8323 C   0  0  0  0  0  0  0  0  0  0  0  0
  -29.7763  -30.3512  -16.6079 C   0  0  0  0  0  0  0  0  0  0  0  0
  -28.9218  -30.8681  -15.6355 C   0  0  0  0  0  0  0  0  0  0  0  0
  -29.6761  -31.4193  -14.1719 Cl  0  0  0  0  0  0  0  0  0  0  0  0
  -27.5348  -30.9464  -15.8128 C   0  0  0  0  0  0  0  0  0  0  0  0
  -26.7367  -31.3777  -14.8043 N   0  0  0  0  0  0  0  0  0  0  0  0
  -25.4008  -31.3935  -14.9802 C   0  0  0  0  0  0  0  0  0  0  0  0
  -24.7850  -30.9712  -16.1335 C   0  0  0  0  0  0  0  0  0  0  0  0
  -25.5969  -30.5375  -17.1736 C   0  0  0  0  0  0  0  0  0  0  0  0
  -27.0093  -30.5396  -17.0598 C   0  0  0  0  0  0  0  0  0  0  0  0
  -26.5813  -30.5144  -22.7351 C   0  0  0  0  0  0  0  0  0  0  0  0
  -26.3109  -29.9091  -23.9502 C   0  0  0  0  0  0  0  0  0  0  0  0
  -25.8786  -28.6497  -24.0478 N   0  0  0  0  0  0  0  0  0  0  0  0
  -25.6888  -27.9917  -22.8870 C   0  0  0  0  0  0  0  0  0  0  0  0
  -25.2000  -26.3925  -23.1009 Cl  0  0  0  0  0  0  0  0  0  0  0  0
  1  2  1  0
  2  3  2  0
  3  4  1  0
  4  5  2  0
  4  6  1  0
  6  7  1  0
  7  8  2  0
  8  9  1  0
  9 10  2  0
 10 11  1  0
 10 12  1  0
 12 13  2  0
 13 14  1  0
 14 15  2  0
 15 16  1  0
 16 17  2  0
  3 18  1  0
 18 19  2  0
 19 20  1  0
 20 21  2  0
 21 22  1  0
 21  2  1  0
 17  7  1  0
 17 12  1  0
M  END
>  <id>  (85) 
237620

>  <inchikey>  (85) 
CWMJVCDCBNGSLM-UHFFFAOYSA-N

>  <alias>  (85) 
None

>  <smiles>  (85) 
Nc1c(C(=O)Nc2ccc(Cl)c3ncccc23)ccnc1Cl

>  <path>  (85) 
/opt/xchem-fragalysis-2/maxwin/RdRp_FFF/syndirella/mar_elabs/elabs_005/YAOSTISNIUSXMX-UHFFFAOYSA-N/output/YAOSTISNIUSXMX-UHFFFAOYSA-N-kzFKyu-412-A/YAOSTISNIUSXMX-UHFFFAOYSA-N-kzFKyu-412-A.minimised.mol

>  <distance_score>  (85) 
0.947324

>  <energy_score>  (85) 
-28.487797

>  <compound>  (85) 
CWMJVCDCBNGSLM-UHFFFAOYSA-N

>  <compound_id>  (85) 
77684

>  <target>  (85) 
Flavi_NS5_RdRp

>  <tags>  (85) 
[]

>  <inspirations>  (85) 
{P × 2}

>  <subsites>  (85) 
None

>  <reference>  (85) 
z0221a

$$$$
ZQQXUFUEAUFITQ-UHFFFAOYSA-N
     RDKit          3D

 22 24  0  0  0  0  0  0  0  0999 V2000
  -25.6469  -30.9644  -20.2745 O   0  0  0  0  0  0  0  0  0  0  0  0
  -26.3769  -30.0682  -20.4109 C   0  0  0  0  0  0  0  0  0  0  0  0
  -27.3779  -29.4422  -19.4308 N   0  0  0  0  0  0  0  0  0  0  0  0
  -27.7508  -29.8313  -18.1469 C   0  0  0  0  0  0  0  0  0  0  0  0
  -29.1052  -29.7162  -17.8400 C   0  0  0  0  0  0  0  0  0  0  0  0
  -29.5760  -30.1916  -16.6259 C   0  0  0  0  0  0  0  0  0  0  0  0
  -30.8670  -30.0307  -16.3268 F   0  0  0  0  0  0  0  0  0  0  0  0
  -28.7331  -30.8135  -15.7191 C   0  0  0  0  0  0  0  0  0  0  0  0
  -29.4054  -31.4893  -14.2783 Cl  0  0  0  0  0  0  0  0  0  0  0  0
  -27.3647  -30.8753  -15.9880 C   0  0  0  0  0  0  0  0  0  0  0  0
  -26.4879  -31.4254  -15.0316 N   0  0  0  0  0  0  0  0  0  0  0  0
  -25.1310  -31.4544  -15.1646 C   0  0  0  0  0  0  0  0  0  0  0  0
  -24.3886  -31.9036  -14.2998 O   0  0  0  0  0  0  0  0  0  0  0  0
  -24.5857  -30.8723  -16.4056 C   0  0  0  0  0  0  0  0  0  0  0  0
  -25.3861  -30.3584  -17.3473 C   0  0  0  0  0  0  0  0  0  0  0  0
  -26.8504  -30.3696  -17.1999 C   0  0  0  0  0  0  0  0  0  0  0  0
  -26.3274  -29.3152  -21.6785 C   0  0  0  0  0  0  0  0  0  0  0  0
  -26.6083  -30.0074  -22.8513 C   0  0  0  0  0  0  0  0  0  0  0  0
  -26.2949  -29.3986  -24.0483 C   0  0  0  0  0  0  0  0  0  0  0  0
  -25.7400  -28.1722  -24.1169 N   0  0  0  0  0  0  0  0  0  0  0  0
  -25.4692  -27.5292  -22.9585 C   0  0  0  0  0  0  0  0  0  0  0  0
  -25.7625  -28.0438  -21.7119 C   0  0  0  0  0  0  0  0  0  0  0  0
  1  2  2  0
  2  3  1  0
  3  4  1  0
  4  5  2  0
  5  6  1  0
  6  7  1  0
  6  8  2  0
  8  9  1  0
  8 10  1  0
 10 11  1  0
 11 12  1  0
 12 13  2  0
 12 14  1  0
 14 15  2  0
 15 16  1  0
  2 17  1  0
 17 18  2  0
 18 19  1  0
 19 20  2  0
 20 21  1  0
 21 22  2  0
 16  4  1  0
 22 17  1  0
 16 10  2  0
M  END
>  <id>  (86) 
237622

>  <inchikey>  (86) 
ZQQXUFUEAUFITQ-UHFFFAOYSA-N

>  <alias>  (86) 
None

>  <smiles>  (86) 
O=C(Nc1cc(F)c(Cl)c2[nH]c(=O)ccc12)c1ccncc1

>  <path>  (86) 
/opt/xchem-fragalysis-2/maxwin/RdRp_FFF/syndirella/mar_elabs/elabs_005/YAOSTISNIUSXMX-UHFFFAOYSA-N/output/YAOSTISNIUSXMX-UHFFFAOYSA-N-kzFKyu-414-A/YAOSTISNIUSXMX-UHFFFAOYSA-N-kzFKyu-414-A.minimised.mol

>  <distance_score>  (86) 
0.870329

>  <energy_score>  (86) 
-15.663643

>  <compound>  (86) 
ZQQXUFUEAUFITQ-UHFFFAOYSA-N

>  <compound_id>  (86) 
77686

>  <target>  (86) 
Flavi_NS5_RdRp

>  <tags>  (86) 
[]

>  <inspirations>  (86) 
{P × 2}

>  <subsites>  (86) 
None

>  <reference>  (86) 
z0221a

$$$$
IHISEKLRIPDDHE-UHFFFAOYSA-N
     RDKit          3D

 22 24  0  0  0  0  0  0  0  0999 V2000
  -26.6573  -29.4063  -25.1465 N   0  0  0  0  0  0  0  0  0  0  0  0
  -26.3673  -29.1710  -23.8064 C   0  0  0  0  0  0  0  0  0  0  0  0
  -27.1657  -29.6745  -22.7852 C   0  0  0  0  0  0  0  0  0  0  0  0
  -27.0484  -29.1500  -21.5010 C   0  0  0  0  0  0  0  0  0  0  0  0
  -28.0244  -29.5671  -20.4778 C   0  0  0  0  0  0  0  0  0  0  0  0
  -29.1593  -29.5760  -20.7357 O   0  0  0  0  0  0  0  0  0  0  0  0
  -27.3011  -29.8513  -19.1504 N   0  0  0  0  0  0  0  0  0  0  0  0
  -27.7971  -30.2833  -17.9269 C   0  0  0  0  0  0  0  0  0  0  0  0
  -29.1755  -30.4432  -17.7897 C   0  0  0  0  0  0  0  0  0  0  0  0
  -29.6929  -30.8783  -16.5861 C   0  0  0  0  0  0  0  0  0  0  0  0
  -28.8327  -31.1495  -15.5254 C   0  0  0  0  0  0  0  0  0  0  0  0
  -29.5735  -31.7352  -14.0679 Cl  0  0  0  0  0  0  0  0  0  0  0  0
  -27.4421  -30.9879  -15.6167 C   0  0  0  0  0  0  0  0  0  0  0  0
  -26.6437  -31.2589  -14.5544 N   0  0  0  0  0  0  0  0  0  0  0  0
  -25.3101  -31.1144  -14.6692 C   0  0  0  0  0  0  0  0  0  0  0  0
  -24.6915  -30.6930  -15.8219 C   0  0  0  0  0  0  0  0  0  0  0  0
  -25.4952  -30.4084  -16.9180 C   0  0  0  0  0  0  0  0  0  0  0  0
  -26.9063  -30.5467  -16.8474 C   0  0  0  0  0  0  0  0  0  0  0  0
  -26.1380  -28.1384  -21.2129 C   0  0  0  0  0  0  0  0  0  0  0  0
  -25.3299  -27.6761  -22.2316 C   0  0  0  0  0  0  0  0  0  0  0  0
  -25.4215  -28.1775  -23.5128 N   0  0  0  0  0  0  0  0  0  0  0  0
  -24.7088  -27.6878  -24.4233 O   0  0  0  0  0  0  0  0  0  0  0  0
  1  2  1  0
  2  3  2  0
  3  4  1  0
  4  5  1  0
  5  6  2  0
  5  7  1  0
  7  8  1  0
  8  9  2  0
  9 10  1  0
 10 11  2  0
 11 12  1  0
 11 13  1  0
 13 14  2  0
 14 15  1  0
 15 16  2  0
 16 17  1  0
 17 18  2  0
  4 19  2  0
 19 20  1  0
 20 21  2  0
 21 22  1  0
 21  2  1  0
 18  8  1  0
 18 13  1  0
M  CHG  2  21   1  22  -1
M  END
>  <id>  (87) 
237623

>  <inchikey>  (87) 
IHISEKLRIPDDHE-UHFFFAOYSA-N

>  <alias>  (87) 
None

>  <smiles>  (87) 
Nc1cc(C(=O)Nc2ccc(Cl)c3ncccc23)cc[n+]1[O-]

>  <path>  (87) 
/opt/xchem-fragalysis-2/maxwin/RdRp_FFF/syndirella/mar_elabs/elabs_005/YAOSTISNIUSXMX-UHFFFAOYSA-N/output/YAOSTISNIUSXMX-UHFFFAOYSA-N-kzFKyu-415-A/YAOSTISNIUSXMX-UHFFFAOYSA-N-kzFKyu-415-A.minimised.mol

>  <distance_score>  (87) 
1.233929

>  <energy_score>  (87) 
-29.706831

>  <compound>  (87) 
IHISEKLRIPDDHE-UHFFFAOYSA-N

>  <compound_id>  (87) 
77687

>  <target>  (87) 
Flavi_NS5_RdRp

>  <tags>  (87) 
[]

>  <inspirations>  (87) 
{P × 2}

>  <subsites>  (87) 
None

>  <reference>  (87) 
z0221a

$$$$
DAHJRFNGYBMDNI-UHFFFAOYSA-N
     RDKit          3D

 22 24  0  0  0  0  0  0  0  0999 V2000
  -25.6100  -30.8550  -20.2044 O   0  0  0  0  0  0  0  0  0  0  0  0
  -26.3714  -29.9925  -20.3822 C   0  0  0  0  0  0  0  0  0  0  0  0
  -27.4380  -29.3998  -19.4528 N   0  0  0  0  0  0  0  0  0  0  0  0
  -27.8477  -29.7907  -18.1797 C   0  0  0  0  0  0  0  0  0  0  0  0
  -29.2200  -29.7458  -17.9561 C   0  0  0  0  0  0  0  0  0  0  0  0
  -29.7280  -30.2141  -16.7595 C   0  0  0  0  0  0  0  0  0  0  0  0
  -28.8700  -30.7360  -15.7941 C   0  0  0  0  0  0  0  0  0  0  0  0
  -29.6197  -31.3611  -14.3580 Cl  0  0  0  0  0  0  0  0  0  0  0  0
  -27.4810  -30.7623  -15.9583 C   0  0  0  0  0  0  0  0  0  0  0  0
  -26.6862  -31.2341  -14.9655 N   0  0  0  0  0  0  0  0  0  0  0  0
  -25.3499  -31.2149  -15.1261 C   0  0  0  0  0  0  0  0  0  0  0  0
  -24.7320  -30.7119  -16.2448 C   0  0  0  0  0  0  0  0  0  0  0  0
  -25.5401  -30.2262  -17.2651 C   0  0  0  0  0  0  0  0  0  0  0  0
  -26.9520  -30.2654  -17.1731 C   0  0  0  0  0  0  0  0  0  0  0  0
  -26.3268  -29.3001  -21.6763 C   0  0  0  0  0  0  0  0  0  0  0  0
  -26.5731  -30.0509  -22.8190 C   0  0  0  0  0  0  0  0  0  0  0  0
  -26.2263  -29.4975  -24.0335 C   0  0  0  0  0  0  0  0  0  0  0  0
  -26.3594  -30.2443  -25.1334 F   0  0  0  0  0  0  0  0  0  0  0  0
  -25.6987  -28.2654  -24.1672 N   0  0  0  0  0  0  0  0  0  0  0  0
  -25.4595  -27.5662  -23.0334 C   0  0  0  0  0  0  0  0  0  0  0  0
  -25.7654  -28.0364  -21.7728 C   0  0  0  0  0  0  0  0  0  0  0  0
  -25.4686  -27.3137  -20.6883 F   0  0  0  0  0  0  0  0  0  0  0  0
  1  2  2  0
  2  3  1  0
  3  4  1  0
  4  5  2  0
  5  6  1  0
  6  7  2  0
  7  8  1  0
  7  9  1  0
  9 10  2  0
 10 11  1  0
 11 12  2  0
 12 13  1  0
 13 14  2  0
  2 15  1  0
 15 16  2  0
 16 17  1  0
 17 18  1  0
 17 19  2  0
 19 20  1  0
 20 21  2  0
 21 22  1  0
 14  4  1  0
 21 15  1  0
 14  9  1  0
M  END
>  <id>  (88) 
237624

>  <inchikey>  (88) 
DAHJRFNGYBMDNI-UHFFFAOYSA-N

>  <alias>  (88) 
None

>  <smiles>  (88) 
O=C(Nc1ccc(Cl)c2ncccc12)c1cc(F)ncc1F

>  <path>  (88) 
/opt/xchem-fragalysis-2/maxwin/RdRp_FFF/syndirella/mar_elabs/elabs_005/YAOSTISNIUSXMX-UHFFFAOYSA-N/output/YAOSTISNIUSXMX-UHFFFAOYSA-N-kzFKyu-416-A/YAOSTISNIUSXMX-UHFFFAOYSA-N-kzFKyu-416-A.minimised.mol

>  <distance_score>  (88) 
0.811067

>  <energy_score>  (88) 
-2.674618

>  <compound>  (88) 
DAHJRFNGYBMDNI-UHFFFAOYSA-N

>  <compound_id>  (88) 
77688

>  <target>  (88) 
Flavi_NS5_RdRp

>  <tags>  (88) 
[]

>  <inspirations>  (88) 
{P × 2}

>  <subsites>  (88) 
None

>  <reference>  (88) 
z0221a

$$$$
VSHMFQNFMAFKRX-UHFFFAOYSA-N
     RDKit          3D

 22 24  0  0  0  0  0  0  0  0999 V2000
  -25.6485  -26.9753  -20.7267 N   0  0  0  0  0  0  0  0  0  0  0  0
  -25.7745  -27.9555  -21.7132 C   0  0  0  0  0  0  0  0  0  0  0  0
  -25.5118  -27.6699  -23.0504 C   0  0  0  0  0  0  0  0  0  0  0  0
  -25.6697  -28.5445  -24.0720 N   0  0  0  0  0  0  0  0  0  0  0  0
  -26.1417  -29.7658  -23.7638 C   0  0  0  0  0  0  0  0  0  0  0  0
  -25.7772  -31.2058  -24.9372 Br  0  0  0  0  0  0  0  0  0  0  0  0
  -26.5755  -30.1199  -22.5048 C   0  0  0  0  0  0  0  0  0  0  0  0
  -26.3498  -29.2092  -21.4772 C   0  0  0  0  0  0  0  0  0  0  0  0
  -26.3272  -29.8042  -20.1302 C   0  0  0  0  0  0  0  0  0  0  0  0
  -25.4593  -30.5377  -19.8799 O   0  0  0  0  0  0  0  0  0  0  0  0
  -27.5070  -29.3339  -19.2760 N   0  0  0  0  0  0  0  0  0  0  0  0
  -27.9151  -29.7242  -18.0016 C   0  0  0  0  0  0  0  0  0  0  0  0
  -29.2920  -29.7869  -17.8130 C   0  0  0  0  0  0  0  0  0  0  0  0
  -29.7878  -30.3180  -16.6379 C   0  0  0  0  0  0  0  0  0  0  0  0
  -28.9159  -30.7909  -15.6600 C   0  0  0  0  0  0  0  0  0  0  0  0
  -29.6515  -31.4998  -14.2549 Cl  0  0  0  0  0  0  0  0  0  0  0  0
  -27.5266  -30.7037  -15.7860 C   0  0  0  0  0  0  0  0  0  0  0  0
  -26.7252  -31.1364  -14.7808 N   0  0  0  0  0  0  0  0  0  0  0  0
  -25.3908  -31.0040  -14.8966 C   0  0  0  0  0  0  0  0  0  0  0  0
  -24.7842  -30.4220  -15.9815 C   0  0  0  0  0  0  0  0  0  0  0  0
  -25.6012  -29.9776  -17.0137 C   0  0  0  0  0  0  0  0  0  0  0  0
  -27.0083  -30.1377  -16.9736 C   0  0  0  0  0  0  0  0  0  0  0  0
  1  2  1  0
  2  3  2  0
  3  4  1  0
  4  5  2  0
  5  6  1  0
  5  7  1  0
  7  8  2  0
  8  9  1  0
  9 10  2  0
  9 11  1  0
 11 12  1  0
 12 13  2  0
 13 14  1  0
 14 15  2  0
 15 16  1  0
 15 17  1  0
 17 18  2  0
 18 19  1  0
 19 20  2  0
 20 21  1  0
 21 22  2  0
  8  2  1  0
 22 12  1  0
 22 17  1  0
M  END
>  <id>  (89) 
237625

>  <inchikey>  (89) 
VSHMFQNFMAFKRX-UHFFFAOYSA-N

>  <alias>  (89) 
None

>  <smiles>  (89) 
Nc1cnc(Br)cc1C(=O)Nc1ccc(Cl)c2ncccc12

>  <path>  (89) 
/opt/xchem-fragalysis-2/maxwin/RdRp_FFF/syndirella/mar_elabs/elabs_005/YAOSTISNIUSXMX-UHFFFAOYSA-N/output/YAOSTISNIUSXMX-UHFFFAOYSA-N-kzFKyu-417-A/YAOSTISNIUSXMX-UHFFFAOYSA-N-kzFKyu-417-A.minimised.mol

>  <distance_score>  (89) 
0.940647

>  <energy_score>  (89) 
-9.577369

>  <compound>  (89) 
VSHMFQNFMAFKRX-UHFFFAOYSA-N

>  <compound_id>  (89) 
77689

>  <target>  (89) 
Flavi_NS5_RdRp

>  <tags>  (89) 
[]

>  <inspirations>  (89) 
{P × 2}

>  <subsites>  (89) 
None

>  <reference>  (89) 
z0221a

$$$$
DERKLRNPOPOCKP-UHFFFAOYSA-N
     RDKit          3D

 22 24  0  0  0  0  0  0  0  0999 V2000
  -25.8492  -27.1730  -20.5298 N   0  0  0  0  0  0  0  0  0  0  0  0
  -26.0512  -27.9816  -21.6457 C   0  0  0  0  0  0  0  0  0  0  0  0
  -26.8692  -29.0388  -21.7822 C   0  0  0  0  0  0  0  0  0  0  0  0
  -27.8808  -29.3981  -20.7408 C   0  0  0  0  0  0  0  0  0  0  0  0
  -28.9872  -29.6079  -21.0419 O   0  0  0  0  0  0  0  0  0  0  0  0
  -27.1831  -29.4944  -19.3701 N   0  0  0  0  0  0  0  0  0  0  0  0
  -27.6612  -29.9453  -18.1400 C   0  0  0  0  0  0  0  0  0  0  0  0
  -29.0354  -30.1709  -18.0217 C   0  0  0  0  0  0  0  0  0  0  0  0
  -29.5570  -30.6549  -16.8372 C   0  0  0  0  0  0  0  0  0  0  0  0
  -28.7055  -30.9156  -15.7690 C   0  0  0  0  0  0  0  0  0  0  0  0
  -29.4441  -31.5594  -14.3358 Cl  0  0  0  0  0  0  0  0  0  0  0  0
  -27.3233  -30.6918  -15.8358 C   0  0  0  0  0  0  0  0  0  0  0  0
  -26.5343  -30.9563  -14.7658 N   0  0  0  0  0  0  0  0  0  0  0  0
  -25.2087  -30.7458  -14.8532 C   0  0  0  0  0  0  0  0  0  0  0  0
  -24.5936  -30.2627  -15.9833 C   0  0  0  0  0  0  0  0  0  0  0  0
  -25.3865  -29.9851  -17.0889 C   0  0  0  0  0  0  0  0  0  0  0  0
  -26.7859  -30.1927  -17.0482 C   0  0  0  0  0  0  0  0  0  0  0  0
  -26.9086  -29.8056  -23.0091 C   0  0  0  0  0  0  0  0  0  0  0  0
  -26.1556  -29.4828  -24.0638 C   0  0  0  0  0  0  0  0  0  0  0  0
  -25.3692  -28.3684  -23.9969 N   0  0  0  0  0  0  0  0  0  0  0  0
  -25.3875  -27.5157  -22.9270 C   0  0  0  0  0  0  0  0  0  0  0  0
  -24.9873  -26.3590  -22.9775 O   0  0  0  0  0  0  0  0  0  0  0  0
  1  2  1  0
  2  3  2  0
  3  4  1  0
  4  5  2  0
  4  6  1  0
  6  7  1  0
  7  8  2  0
  8  9  1  0
  9 10  2  0
 10 11  1  0
 10 12  1  0
 12 13  2  0
 13 14  1  0
 14 15  2  0
 15 16  1  0
 16 17  2  0
  3 18  1  0
 18 19  2  0
 19 20  1  0
 20 21  1  0
 21 22  2  0
 21  2  1  0
 17  7  1  0
 17 12  1  0
M  END
>  <id>  (90) 
237626

>  <inchikey>  (90) 
DERKLRNPOPOCKP-UHFFFAOYSA-N

>  <alias>  (90) 
None

>  <smiles>  (90) 
Nc1c(C(=O)Nc2ccc(Cl)c3ncccc23)cc[nH]c1=O

>  <path>  (90) 
/opt/xchem-fragalysis-2/maxwin/RdRp_FFF/syndirella/mar_elabs/elabs_005/YAOSTISNIUSXMX-UHFFFAOYSA-N/output/YAOSTISNIUSXMX-UHFFFAOYSA-N-kzFKyu-418-A/YAOSTISNIUSXMX-UHFFFAOYSA-N-kzFKyu-418-A.minimised.mol

>  <distance_score>  (90) 
1.006718

>  <energy_score>  (90) 
-59.048551

>  <compound>  (90) 
DERKLRNPOPOCKP-UHFFFAOYSA-N

>  <compound_id>  (90) 
77690

>  <target>  (90) 
Flavi_NS5_RdRp

>  <tags>  (90) 
[]

>  <inspirations>  (90) 
{P × 2}

>  <subsites>  (90) 
None

>  <reference>  (90) 
z0221a

$$$$
LPUFCMLDBVEBNZ-UHFFFAOYSA-N
     RDKit          3D

 22 24  0  0  0  0  0  0  0  0999 V2000
  -25.3899  -30.7729  -20.1632 O   0  0  0  0  0  0  0  0  0  0  0  0
  -26.2278  -30.0085  -20.4041 C   0  0  0  0  0  0  0  0  0  0  0  0
  -27.3940  -29.5236  -19.5571 N   0  0  0  0  0  0  0  0  0  0  0  0
  -27.8283  -29.9292  -18.3007 C   0  0  0  0  0  0  0  0  0  0  0  0
  -29.1925  -30.1975  -18.1909 C   0  0  0  0  0  0  0  0  0  0  0  0
  -30.1916  -30.1341  -19.6008 Cl  0  0  0  0  0  0  0  0  0  0  0  0
  -29.7017  -30.6723  -17.0002 C   0  0  0  0  0  0  0  0  0  0  0  0
  -28.8401  -30.8985  -15.9265 C   0  0  0  0  0  0  0  0  0  0  0  0
  -29.5659  -31.5104  -14.4721 Cl  0  0  0  0  0  0  0  0  0  0  0  0
  -27.4577  -30.6772  -16.0002 C   0  0  0  0  0  0  0  0  0  0  0  0
  -26.6628  -30.9424  -14.9372 N   0  0  0  0  0  0  0  0  0  0  0  0
  -25.3406  -30.7239  -15.0455 C   0  0  0  0  0  0  0  0  0  0  0  0
  -24.4223  -31.1401  -13.6606 Cl  0  0  0  0  0  0  0  0  0  0  0  0
  -24.7351  -30.2003  -16.1595 C   0  0  0  0  0  0  0  0  0  0  0  0
  -25.5475  -29.9103  -17.2464 C   0  0  0  0  0  0  0  0  0  0  0  0
  -26.9379  -30.1732  -17.2155 C   0  0  0  0  0  0  0  0  0  0  0  0
  -26.2272  -29.3047  -21.7014 C   0  0  0  0  0  0  0  0  0  0  0  0
  -26.5945  -30.0203  -22.8349 C   0  0  0  0  0  0  0  0  0  0  0  0
  -26.3395  -29.4418  -24.0610 C   0  0  0  0  0  0  0  0  0  0  0  0
  -25.7747  -28.2247  -24.1914 N   0  0  0  0  0  0  0  0  0  0  0  0
  -25.4369  -27.5542  -23.0670 C   0  0  0  0  0  0  0  0  0  0  0  0
  -25.6606  -28.0372  -21.7951 C   0  0  0  0  0  0  0  0  0  0  0  0
  1  2  2  0
  2  3  1  0
  3  4  1  0
  4  5  2  0
  5  6  1  0
  5  7  1  0
  7  8  2  0
  8  9  1  0
  8 10  1  0
 10 11  2  0
 11 12  1  0
 12 13  1  0
 12 14  2  0
 14 15  1  0
 15 16  2  0
  2 17  1  0
 17 18  2  0
 18 19  1  0
 19 20  2  0
 20 21  1  0
 21 22  2  0
 16  4  1  0
 22 17  1  0
 16 10  1  0
M  END
>  <id>  (91) 
237627

>  <inchikey>  (91) 
LPUFCMLDBVEBNZ-UHFFFAOYSA-N

>  <alias>  (91) 
None

>  <smiles>  (91) 
O=C(Nc1c(Cl)cc(Cl)c2nc(Cl)ccc12)c1ccncc1

>  <path>  (91) 
/opt/xchem-fragalysis-2/maxwin/RdRp_FFF/syndirella/mar_elabs/elabs_005/YAOSTISNIUSXMX-UHFFFAOYSA-N/output/YAOSTISNIUSXMX-UHFFFAOYSA-N-kzFKyu-419-A/YAOSTISNIUSXMX-UHFFFAOYSA-N-kzFKyu-419-A.minimised.mol

>  <distance_score>  (91) 
0.709537

>  <energy_score>  (91) 
-1.864945

>  <compound>  (91) 
LPUFCMLDBVEBNZ-UHFFFAOYSA-N

>  <compound_id>  (91) 
77691

>  <target>  (91) 
Flavi_NS5_RdRp

>  <tags>  (91) 
[]

>  <inspirations>  (91) 
{P × 2}

>  <subsites>  (91) 
None

>  <reference>  (91) 
z0221a

$$$$
UDIADZJKGJIIFF-UHFFFAOYSA-N
     RDKit          3D

 22 24  0  0  0  0  0  0  0  0999 V2000
  -24.9812  -29.0034  -19.6022 O   0  0  0  0  0  0  0  0  0  0  0  0
  -26.0238  -29.0188  -20.1180 C   0  0  0  0  0  0  0  0  0  0  0  0
  -27.4017  -29.3991  -19.5638 N   0  0  0  0  0  0  0  0  0  0  0  0
  -27.7721  -29.9226  -18.3081 C   0  0  0  0  0  0  0  0  0  0  0  0
  -29.0768  -30.4578  -18.3112 C   0  0  0  0  0  0  0  0  0  0  0  0
  -30.0405  -30.4280  -19.7549 Cl  0  0  0  0  0  0  0  0  0  0  0  0
  -29.5920  -31.0944  -17.2002 C   0  0  0  0  0  0  0  0  0  0  0  0
  -28.7855  -31.2520  -16.0807 C   0  0  0  0  0  0  0  0  0  0  0  0
  -29.4906  -32.0944  -14.7324 Cl  0  0  0  0  0  0  0  0  0  0  0  0
  -27.4722  -30.7756  -16.0201 C   0  0  0  0  0  0  0  0  0  0  0  0
  -26.7429  -31.0294  -14.9073 N   0  0  0  0  0  0  0  0  0  0  0  0
  -25.5036  -30.5411  -14.8318 C   0  0  0  0  0  0  0  0  0  0  0  0
  -24.8422  -30.8795  -13.7003 O   0  0  0  0  0  0  0  0  0  0  0  0
  -24.9259  -29.7458  -15.7740 C   0  0  0  0  0  0  0  0  0  0  0  0
  -25.6836  -29.4724  -16.9069 C   0  0  0  0  0  0  0  0  0  0  0  0
  -26.9638  -30.0407  -17.1265 C   0  0  0  0  0  0  0  0  0  0  0  0
  -26.0942  -28.7274  -21.5680 C   0  0  0  0  0  0  0  0  0  0  0  0
  -26.6434  -29.6497  -22.4679 C   0  0  0  0  0  0  0  0  0  0  0  0
  -26.4445  -29.4154  -23.8165 C   0  0  0  0  0  0  0  0  0  0  0  0
  -25.7800  -28.3462  -24.2870 N   0  0  0  0  0  0  0  0  0  0  0  0
  -25.2646  -27.4829  -23.3878 C   0  0  0  0  0  0  0  0  0  0  0  0
  -25.3994  -27.6177  -22.0263 C   0  0  0  0  0  0  0  0  0  0  0  0
  1  2  2  0
  2  3  1  0
  3  4  1  0
  4  5  2  0
  5  6  1  0
  5  7  1  0
  7  8  2  0
  8  9  1  0
  8 10  1  0
 10 11  2  0
 11 12  1  0
 12 13  1  0
 12 14  2  0
 14 15  1  0
 15 16  2  0
  2 17  1  0
 17 18  2  0
 18 19  1  0
 19 20  2  0
 20 21  1  0
 21 22  2  0
 16  4  1  0
 22 17  1  0
 16 10  1  0
M  END
>  <id>  (92) 
237628

>  <inchikey>  (92) 
UDIADZJKGJIIFF-UHFFFAOYSA-N

>  <alias>  (92) 
None

>  <smiles>  (92) 
O=C(Nc1c(Cl)cc(Cl)c2nc(O)ccc12)c1ccncc1

>  <path>  (92) 
/opt/xchem-fragalysis-2/maxwin/RdRp_FFF/syndirella/mar_elabs/elabs_005/YAOSTISNIUSXMX-UHFFFAOYSA-N/output/YAOSTISNIUSXMX-UHFFFAOYSA-N-kzFKyu-421-A/YAOSTISNIUSXMX-UHFFFAOYSA-N-kzFKyu-421-A.minimised.mol

>  <distance_score>  (92) 
1.070153

>  <energy_score>  (92) 
-19.614264

>  <compound>  (92) 
UDIADZJKGJIIFF-UHFFFAOYSA-N

>  <compound_id>  (92) 
77692

>  <target>  (92) 
Flavi_NS5_RdRp

>  <tags>  (92) 
[]

>  <inspirations>  (92) 
{P × 2}

>  <subsites>  (92) 
None

>  <reference>  (92) 
z0221a

$$$$
UIKQWLQQVKVMGT-UHFFFAOYSA-N
     RDKit          3D

 22 24  0  0  0  0  0  0  0  0999 V2000
  -25.5681  -27.6246  -20.3857 C   0  0  0  0  0  0  0  0  0  0  0  0
  -25.8918  -28.4475  -21.5952 C   0  0  0  0  0  0  0  0  0  0  0  0
  -26.3848  -29.7482  -21.5545 C   0  0  0  0  0  0  0  0  0  0  0  0
  -26.4725  -30.4715  -20.2795 C   0  0  0  0  0  0  0  0  0  0  0  0
  -25.6950  -31.3046  -20.0412 O   0  0  0  0  0  0  0  0  0  0  0  0
  -27.6079  -29.8938  -19.4217 N   0  0  0  0  0  0  0  0  0  0  0  0
  -27.9578  -30.1429  -18.0982 C   0  0  0  0  0  0  0  0  0  0  0  0
  -29.3185  -30.0006  -17.8349 C   0  0  0  0  0  0  0  0  0  0  0  0
  -29.8067  -30.3578  -16.5949 C   0  0  0  0  0  0  0  0  0  0  0  0
  -28.9398  -30.8475  -15.6220 C   0  0  0  0  0  0  0  0  0  0  0  0
  -29.6792  -31.3807  -14.1442 Cl  0  0  0  0  0  0  0  0  0  0  0  0
  -27.5551  -30.9165  -15.8110 C   0  0  0  0  0  0  0  0  0  0  0  0
  -26.7504  -31.3162  -14.7945 N   0  0  0  0  0  0  0  0  0  0  0  0
  -25.4161  -31.3290  -14.9730 C   0  0  0  0  0  0  0  0  0  0  0  0
  -24.8084  -30.9282  -16.1369 C   0  0  0  0  0  0  0  0  0  0  0  0
  -25.6284  -30.5250  -17.1839 C   0  0  0  0  0  0  0  0  0  0  0  0
  -27.0418  -30.5373  -17.0733 C   0  0  0  0  0  0  0  0  0  0  0  0
  -26.6078  -30.4809  -22.7181 C   0  0  0  0  0  0  0  0  0  0  0  0
  -26.3426  -29.8754  -23.9314 C   0  0  0  0  0  0  0  0  0  0  0  0
  -25.8917  -28.6226  -24.0245 N   0  0  0  0  0  0  0  0  0  0  0  0
  -25.6678  -27.9667  -22.8699 C   0  0  0  0  0  0  0  0  0  0  0  0
  -25.2008  -26.3701  -23.1186 Cl  0  0  0  0  0  0  0  0  0  0  0  0
  1  2  1  0
  2  3  2  0
  3  4  1  0
  4  5  2  0
  4  6  1  0
  6  7  1  0
  7  8  2  0
  8  9  1  0
  9 10  2  0
 10 11  1  0
 10 12  1  0
 12 13  2  0
 13 14  1  0
 14 15  2  0
 15 16  1  0
 16 17  2  0
  3 18  1  0
 18 19  2  0
 19 20  1  0
 20 21  2  0
 21 22  1  0
 21  2  1  0
 17  7  1  0
 17 12  1  0
M  END
>  <id>  (93) 
237629

>  <inchikey>  (93) 
UIKQWLQQVKVMGT-UHFFFAOYSA-N

>  <alias>  (93) 
None

>  <smiles>  (93) 
Cc1c(C(=O)Nc2ccc(Cl)c3ncccc23)ccnc1Cl

>  <path>  (93) 
/opt/xchem-fragalysis-2/maxwin/RdRp_FFF/syndirella/mar_elabs/elabs_005/YAOSTISNIUSXMX-UHFFFAOYSA-N/output/YAOSTISNIUSXMX-UHFFFAOYSA-N-kzFKyu-422-A/YAOSTISNIUSXMX-UHFFFAOYSA-N-kzFKyu-422-A.minimised.mol

>  <distance_score>  (93) 
0.939805

>  <energy_score>  (93) 
-9.522907

>  <compound>  (93) 
UIKQWLQQVKVMGT-UHFFFAOYSA-N

>  <compound_id>  (93) 
77693

>  <target>  (93) 
Flavi_NS5_RdRp

>  <tags>  (93) 
[]

>  <inspirations>  (93) 
{P × 2}

>  <subsites>  (93) 
None

>  <reference>  (93) 
z0221a

$$$$
CWFILHVZHLKHPZ-UHFFFAOYSA-N
     RDKit          3D

 22 24  0  0  0  0  0  0  0  0999 V2000
  -24.5761  -31.8180  -13.9127 C   0  0  0  0  0  0  0  0  0  0  0  0
  -25.3428  -31.1814  -15.0306 C   0  0  0  0  0  0  0  0  0  0  0  0
  -24.6892  -30.5022  -16.0350 C   0  0  0  0  0  0  0  0  0  0  0  0
  -25.4362  -29.9045  -17.0595 C   0  0  0  0  0  0  0  0  0  0  0  0
  -24.6575  -29.0080  -17.9860 C   0  0  0  0  0  0  0  0  0  0  0  0
  -26.8582  -30.0925  -17.1152 C   0  0  0  0  0  0  0  0  0  0  0  0
  -27.7642  -29.6551  -18.1440 C   0  0  0  0  0  0  0  0  0  0  0  0
  -27.3632  -29.3133  -19.4309 N   0  0  0  0  0  0  0  0  0  0  0  0
  -26.3807  -30.0037  -20.3848 C   0  0  0  0  0  0  0  0  0  0  0  0
  -25.6908  -30.9261  -20.2197 O   0  0  0  0  0  0  0  0  0  0  0  0
  -26.3128  -29.2917  -21.6769 C   0  0  0  0  0  0  0  0  0  0  0  0
  -26.6132  -30.0086  -22.8303 C   0  0  0  0  0  0  0  0  0  0  0  0
  -26.3091  -29.4284  -24.0444 C   0  0  0  0  0  0  0  0  0  0  0  0
  -25.7467  -28.2080  -24.1489 N   0  0  0  0  0  0  0  0  0  0  0  0
  -25.4579  -27.5410  -23.0091 C   0  0  0  0  0  0  0  0  0  0  0  0
  -25.7403  -28.0249  -21.7479 C   0  0  0  0  0  0  0  0  0  0  0  0
  -29.1476  -29.6952  -17.9769 C   0  0  0  0  0  0  0  0  0  0  0  0
  -29.6746  -30.2361  -16.8240 C   0  0  0  0  0  0  0  0  0  0  0  0
  -28.8227  -30.7688  -15.8628 C   0  0  0  0  0  0  0  0  0  0  0  0
  -29.5900  -31.4935  -14.4800 Cl  0  0  0  0  0  0  0  0  0  0  0  0
  -27.4287  -30.7208  -15.9778 C   0  0  0  0  0  0  0  0  0  0  0  0
  -26.6833  -31.2530  -14.9824 N   0  0  0  0  0  0  0  0  0  0  0  0
  1  2  1  0
  2  3  2  0
  3  4  1  0
  4  5  1  0
  4  6  2  0
  6  7  1  0
  7  8  1  0
  8  9  1  0
  9 10  2  0
  9 11  1  0
 11 12  2  0
 12 13  1  0
 13 14  2  0
 14 15  1  0
 15 16  2  0
  7 17  2  0
 17 18  1  0
 18 19  2  0
 19 20  1  0
 19 21  1  0
 21 22  2  0
 22  2  1  0
 21  6  1  0
 16 11  1  0
M  END
>  <id>  (94) 
237630

>  <inchikey>  (94) 
CWFILHVZHLKHPZ-UHFFFAOYSA-N

>  <alias>  (94) 
None

>  <smiles>  (94) 
Cc1cc(C)c2c(NC(=O)c3ccncc3)ccc(Cl)c2n1

>  <path>  (94) 
/opt/xchem-fragalysis-2/maxwin/RdRp_FFF/syndirella/mar_elabs/elabs_005/YAOSTISNIUSXMX-UHFFFAOYSA-N/output/YAOSTISNIUSXMX-UHFFFAOYSA-N-kzFKyu-427-A/YAOSTISNIUSXMX-UHFFFAOYSA-N-kzFKyu-427-A.minimised.mol

>  <distance_score>  (94) 
0.796459

>  <energy_score>  (94) 
-9.918403

>  <compound>  (94) 
CWFILHVZHLKHPZ-UHFFFAOYSA-N

>  <compound_id>  (94) 
77697

>  <target>  (94) 
Flavi_NS5_RdRp

>  <tags>  (94) 
[]

>  <inspirations>  (94) 
{P × 2}

>  <subsites>  (94) 
None

>  <reference>  (94) 
z0221a

$$$$
MVWIMMIHWVGVMY-UHFFFAOYSA-N
     RDKit          3D

 22 24  0  0  0  0  0  0  0  0999 V2000
  -26.9464  -32.5870  -14.1636 C   0  0  0  0  0  0  0  0  0  0  0  0
  -26.5285  -31.6051  -15.1480 N   0  0  0  0  0  0  0  0  0  0  0  0
  -25.1550  -31.4328  -15.2811 C   0  0  0  0  0  0  0  0  0  0  0  0
  -24.3100  -31.8953  -14.5161 O   0  0  0  0  0  0  0  0  0  0  0  0
  -24.6846  -30.6243  -16.4142 C   0  0  0  0  0  0  0  0  0  0  0  0
  -25.5291  -30.1395  -17.3221 C   0  0  0  0  0  0  0  0  0  0  0  0
  -26.9773  -30.3472  -17.2096 C   0  0  0  0  0  0  0  0  0  0  0  0
  -27.8667  -29.8408  -18.1913 C   0  0  0  0  0  0  0  0  0  0  0  0
  -27.4604  -29.4431  -19.4630 N   0  0  0  0  0  0  0  0  0  0  0  0
  -26.3765  -30.0136  -20.3869 C   0  0  0  0  0  0  0  0  0  0  0  0
  -25.5971  -30.8583  -20.2041 O   0  0  0  0  0  0  0  0  0  0  0  0
  -26.3279  -29.2870  -21.6681 C   0  0  0  0  0  0  0  0  0  0  0  0
  -26.6239  -29.9962  -22.8272 C   0  0  0  0  0  0  0  0  0  0  0  0
  -26.3102  -29.4090  -24.0353 C   0  0  0  0  0  0  0  0  0  0  0  0
  -25.7445  -28.1890  -24.1272 N   0  0  0  0  0  0  0  0  0  0  0  0
  -25.4621  -27.5297  -22.9806 C   0  0  0  0  0  0  0  0  0  0  0  0
  -25.7511  -28.0222  -21.7243 C   0  0  0  0  0  0  0  0  0  0  0  0
  -29.2311  -29.7999  -17.9491 C   0  0  0  0  0  0  0  0  0  0  0  0
  -29.7217  -30.2964  -16.7539 C   0  0  0  0  0  0  0  0  0  0  0  0
  -28.8736  -30.8914  -15.8124 C   0  0  0  0  0  0  0  0  0  0  0  0
  -29.6989  -31.4036  -14.3758 Cl  0  0  0  0  0  0  0  0  0  0  0  0
  -27.4787  -30.9593  -16.0303 C   0  0  0  0  0  0  0  0  0  0  0  0
  1  2  1  0
  2  3  1  0
  3  4  2  0
  3  5  1  0
  5  6  2  0
  6  7  1  0
  7  8  2  0
  8  9  1  0
  9 10  1  0
 10 11  2  0
 10 12  1  0
 12 13  2  0
 13 14  1  0
 14 15  2  0
 15 16  1  0
 16 17  2  0
  8 18  1  0
 18 19  2  0
 19 20  1  0
 20 21  1  0
 20 22  2  0
 22  2  1  0
 22  7  1  0
 17 12  1  0
M  END
>  <id>  (95) 
237631

>  <inchikey>  (95) 
MVWIMMIHWVGVMY-UHFFFAOYSA-N

>  <alias>  (95) 
None

>  <smiles>  (95) 
Cn1c(=O)ccc2c(NC(=O)c3ccncc3)ccc(Cl)c21

>  <path>  (95) 
/opt/xchem-fragalysis-2/maxwin/RdRp_FFF/syndirella/mar_elabs/elabs_005/YAOSTISNIUSXMX-UHFFFAOYSA-N/output/YAOSTISNIUSXMX-UHFFFAOYSA-N-kzFKyu-428-A/YAOSTISNIUSXMX-UHFFFAOYSA-N-kzFKyu-428-A.minimised.mol

>  <distance_score>  (95) 
0.817129

>  <energy_score>  (95) 
-36.952411

>  <compound>  (95) 
MVWIMMIHWVGVMY-UHFFFAOYSA-N

>  <compound_id>  (95) 
77698

>  <target>  (95) 
Flavi_NS5_RdRp

>  <tags>  (95) 
[]

>  <inspirations>  (95) 
{P × 2}

>  <subsites>  (95) 
None

>  <reference>  (95) 
z0221a

$$$$
CKCLSNGVOUJKIM-UHFFFAOYSA-N
     RDKit          3D

 22 24  0  0  0  0  0  0  0  0999 V2000
  -25.7625  -31.3664  -20.0955 O   0  0  0  0  0  0  0  0  0  0  0  0
  -26.4935  -30.4855  -20.3119 C   0  0  0  0  0  0  0  0  0  0  0  0
  -27.5136  -29.7881  -19.3963 N   0  0  0  0  0  0  0  0  0  0  0  0
  -27.9043  -30.0778  -18.0952 C   0  0  0  0  0  0  0  0  0  0  0  0
  -29.2659  -29.9342  -17.8429 C   0  0  0  0  0  0  0  0  0  0  0  0
  -29.7662  -30.3223  -16.6164 C   0  0  0  0  0  0  0  0  0  0  0  0
  -28.9080  -30.8418  -15.6488 C   0  0  0  0  0  0  0  0  0  0  0  0
  -29.6570  -31.3979  -14.1845 Cl  0  0  0  0  0  0  0  0  0  0  0  0
  -27.5218  -30.9212  -15.8324 C   0  0  0  0  0  0  0  0  0  0  0  0
  -26.7186  -31.3553  -14.8288 N   0  0  0  0  0  0  0  0  0  0  0  0
  -25.3839  -31.3728  -15.0132 C   0  0  0  0  0  0  0  0  0  0  0  0
  -24.7740  -30.9494  -16.1695 C   0  0  0  0  0  0  0  0  0  0  0  0
  -25.5911  -30.5132  -17.2044 C   0  0  0  0  0  0  0  0  0  0  0  0
  -27.0018  -30.5145  -17.0819 C   0  0  0  0  0  0  0  0  0  0  0  0
  -26.4251  -29.8196  -21.6120 C   0  0  0  0  0  0  0  0  0  0  0  0
  -26.5567  -30.5599  -22.7815 C   0  0  0  0  0  0  0  0  0  0  0  0
  -26.2723  -29.9344  -23.9881 C   0  0  0  0  0  0  0  0  0  0  0  0
  -25.8563  -28.6627  -24.0675 N   0  0  0  0  0  0  0  0  0  0  0  0
  -25.6938  -28.0122  -22.8984 C   0  0  0  0  0  0  0  0  0  0  0  0
  -25.2141  -26.4111  -23.0419 Cl  0  0  0  0  0  0  0  0  0  0  0  0
  -25.9870  -28.5161  -21.6580 C   0  0  0  0  0  0  0  0  0  0  0  0
  -25.7907  -27.7935  -20.5469 F   0  0  0  0  0  0  0  0  0  0  0  0
  1  2  2  0
  2  3  1  0
  3  4  1  0
  4  5  2  0
  5  6  1  0
  6  7  2  0
  7  8  1  0
  7  9  1  0
  9 10  2  0
 10 11  1  0
 11 12  2  0
 12 13  1  0
 13 14  2  0
  2 15  1  0
 15 16  2  0
 16 17  1  0
 17 18  2  0
 18 19  1  0
 19 20  1  0
 19 21  2  0
 21 22  1  0
 14  4  1  0
 21 15  1  0
 14  9  1  0
M  END
>  <id>  (96) 
237632

>  <inchikey>  (96) 
CKCLSNGVOUJKIM-UHFFFAOYSA-N

>  <alias>  (96) 
None

>  <smiles>  (96) 
O=C(Nc1ccc(Cl)c2ncccc12)c1ccnc(Cl)c1F

>  <path>  (96) 
/opt/xchem-fragalysis-2/maxwin/RdRp_FFF/syndirella/mar_elabs/elabs_005/YAOSTISNIUSXMX-UHFFFAOYSA-N/output/YAOSTISNIUSXMX-UHFFFAOYSA-N-kzFKyu-429-A/YAOSTISNIUSXMX-UHFFFAOYSA-N-kzFKyu-429-A.minimised.mol

>  <distance_score>  (96) 
0.93494

>  <energy_score>  (96) 
-3.13118

>  <compound>  (96) 
CKCLSNGVOUJKIM-UHFFFAOYSA-N

>  <compound_id>  (96) 
77699

>  <target>  (96) 
Flavi_NS5_RdRp

>  <tags>  (96) 
[]

>  <inspirations>  (96) 
{P × 2}

>  <subsites>  (96) 
None

>  <reference>  (96) 
z0221a

$$$$
VBLZIFNMNLCKAM-UHFFFAOYSA-N
     RDKit          3D

 22 24  0  0  0  0  0  0  0  0999 V2000
  -24.3990  -31.3507  -13.9905 C   0  0  0  0  0  0  0  0  0  0  0  0
  -25.2609  -30.8658  -15.1157 C   0  0  0  0  0  0  0  0  0  0  0  0
  -24.7064  -30.2009  -16.1874 C   0  0  0  0  0  0  0  0  0  0  0  0
  -25.5584  -29.7752  -17.1991 C   0  0  0  0  0  0  0  0  0  0  0  0
  -25.0335  -28.9507  -18.1661 O   0  0  0  0  0  0  0  0  0  0  0  0
  -26.9512  -30.0536  -17.1811 C   0  0  0  0  0  0  0  0  0  0  0  0
  -27.9022  -29.7237  -18.2027 C   0  0  0  0  0  0  0  0  0  0  0  0
  -27.5366  -29.4305  -19.5112 N   0  0  0  0  0  0  0  0  0  0  0  0
  -26.4090  -30.0014  -20.3842 C   0  0  0  0  0  0  0  0  0  0  0  0
  -25.6536  -30.8632  -20.1742 O   0  0  0  0  0  0  0  0  0  0  0  0
  -26.3255  -29.2861  -21.6691 C   0  0  0  0  0  0  0  0  0  0  0  0
  -26.6142  -29.9945  -22.8301 C   0  0  0  0  0  0  0  0  0  0  0  0
  -26.2956  -29.4044  -24.0353 C   0  0  0  0  0  0  0  0  0  0  0  0
  -25.7320  -28.1827  -24.1223 N   0  0  0  0  0  0  0  0  0  0  0  0
  -25.4578  -27.5247  -22.9724 C   0  0  0  0  0  0  0  0  0  0  0  0
  -25.7522  -28.0202  -21.7191 C   0  0  0  0  0  0  0  0  0  0  0  0
  -29.2728  -29.8248  -17.9846 C   0  0  0  0  0  0  0  0  0  0  0  0
  -29.7217  -30.3560  -16.7918 C   0  0  0  0  0  0  0  0  0  0  0  0
  -28.8066  -30.7940  -15.8365 C   0  0  0  0  0  0  0  0  0  0  0  0
  -29.4785  -31.5220  -14.4087 Cl  0  0  0  0  0  0  0  0  0  0  0  0
  -27.4234  -30.6526  -15.9942 C   0  0  0  0  0  0  0  0  0  0  0  0
  -26.5893  -31.0622  -15.0063 N   0  0  0  0  0  0  0  0  0  0  0  0
  1  2  1  0
  2  3  2  0
  3  4  1  0
  4  5  1  0
  4  6  2  0
  6  7  1  0
  7  8  1  0
  8  9  1  0
  9 10  2  0
  9 11  1  0
 11 12  2  0
 12 13  1  0
 13 14  2  0
 14 15  1  0
 15 16  2  0
  7 17  2  0
 17 18  1  0
 18 19  2  0
 19 20  1  0
 19 21  1  0
 21 22  2  0
 22  2  1  0
 21  6  1  0
 16 11  1  0
M  END
>  <id>  (97) 
237633

>  <inchikey>  (97) 
VBLZIFNMNLCKAM-UHFFFAOYSA-N

>  <alias>  (97) 
None

>  <smiles>  (97) 
Cc1cc(O)c2c(NC(=O)c3ccncc3)ccc(Cl)c2n1

>  <path>  (97) 
/opt/xchem-fragalysis-2/maxwin/RdRp_FFF/syndirella/mar_elabs/elabs_005/YAOSTISNIUSXMX-UHFFFAOYSA-N/output/YAOSTISNIUSXMX-UHFFFAOYSA-N-kzFKyu-431-A/YAOSTISNIUSXMX-UHFFFAOYSA-N-kzFKyu-431-A.minimised.mol

>  <distance_score>  (97) 
0.760504

>  <energy_score>  (97) 
-12.751389

>  <compound>  (97) 
VBLZIFNMNLCKAM-UHFFFAOYSA-N

>  <compound_id>  (97) 
77701

>  <target>  (97) 
Flavi_NS5_RdRp

>  <tags>  (97) 
[]

>  <inspirations>  (97) 
{P × 2}

>  <subsites>  (97) 
None

>  <reference>  (97) 
z0221a

$$$$
BNEOMARKXMGGTG-UHFFFAOYSA-N
     RDKit          3D

 23 25  0  0  0  0  0  0  0  0999 V2000
  -25.5367  -30.9417  -20.2080 O   0  0  0  0  0  0  0  0  0  0  0  0
  -26.3165  -30.0805  -20.2692 C   0  0  0  0  0  0  0  0  0  0  0  0
  -27.2586  -29.5139  -19.1990 N   0  0  0  0  0  0  0  0  0  0  0  0
  -27.5019  -29.9342  -17.8946 C   0  0  0  0  0  0  0  0  0  0  0  0
  -28.8097  -30.0103  -17.4496 C   0  0  0  0  0  0  0  0  0  0  0  0
  -29.0607  -30.6803  -16.2466 C   0  0  0  0  0  0  0  0  0  0  0  0
  -30.6924  -30.8177  -15.7142 Cl  0  0  0  0  0  0  0  0  0  0  0  0
  -28.0574  -31.2645  -15.4563 C   0  0  0  0  0  0  0  0  0  0  0  0
  -28.3897  -31.9561  -14.3385 N   0  0  0  0  0  0  0  0  0  0  0  0
  -27.4334  -32.5114  -13.5697 C   0  0  0  0  0  0  0  0  0  0  0  0
  -26.0961  -32.3688  -13.8277 C   0  0  0  0  0  0  0  0  0  0  0  0
  -25.7392  -31.6510  -14.9614 C   0  0  0  0  0  0  0  0  0  0  0  0
  -26.7168  -31.1040  -15.8438 C   0  0  0  0  0  0  0  0  0  0  0  0
  -26.4626  -30.4239  -17.0701 C   0  0  0  0  0  0  0  0  0  0  0  0
  -25.0845  -30.0490  -17.3876 N   0  0  0  0  0  0  0  0  0  0  0  0
  -24.2080  -30.9191  -17.3186 O   0  0  0  0  0  0  0  0  0  0  0  0
  -24.8734  -28.8514  -17.6340 O   0  0  0  0  0  0  0  0  0  0  0  0
  -26.3712  -29.3218  -21.5354 C   0  0  0  0  0  0  0  0  0  0  0  0
  -26.6706  -30.0152  -22.7057 C   0  0  0  0  0  0  0  0  0  0  0  0
  -26.3511  -29.4160  -23.9090 C   0  0  0  0  0  0  0  0  0  0  0  0
  -25.7763  -28.1987  -23.9911 N   0  0  0  0  0  0  0  0  0  0  0  0
  -25.4961  -27.5516  -22.8371 C   0  0  0  0  0  0  0  0  0  0  0  0
  -25.7898  -28.0566  -21.5852 C   0  0  0  0  0  0  0  0  0  0  0  0
  1  2  2  0
  2  3  1  0
  3  4  1  0
  4  5  2  0
  5  6  1  0
  6  7  1  0
  6  8  2  0
  8  9  1  0
  9 10  2  0
 10 11  1  0
 11 12  2  0
 12 13  1  0
 13 14  2  0
 14 15  1  0
 15 16  2  0
 15 17  1  0
  2 18  1  0
 18 19  2  0
 19 20  1  0
 20 21  2  0
 21 22  1  0
 22 23  2  0
 14  4  1  0
 23 18  1  0
 13  8  1  0
M  CHG  2  15   1  17  -1
M  END
>  <id>  (98) 
238333

>  <inchikey>  (98) 
BNEOMARKXMGGTG-UHFFFAOYSA-N

>  <alias>  (98) 
None

>  <smiles>  (98) 
O=C(Nc1cc(Cl)c2ncccc2c1[N+](=O)[O-])c1ccncc1

>  <path>  (98) 
/opt/xchem-fragalysis-2/maxwin/RdRp_FFF/syndirella/mar_elabs/elabs_005/YAOSTISNIUSXMX-UHFFFAOYSA-N/output/YAOSTISNIUSXMX-UHFFFAOYSA-N-kzFKyu-1919-A/YAOSTISNIUSXMX-UHFFFAOYSA-N-kzFKyu-1919-A.minimised.mol

>  <distance_score>  (98) 
1.142217

>  <energy_score>  (98) 
-38.393306

>  <compound>  (98) 
BNEOMARKXMGGTG-UHFFFAOYSA-N

>  <compound_id>  (98) 
78594

>  <target>  (98) 
Flavi_NS5_RdRp

>  <tags>  (98) 
[]

>  <inspirations>  (98) 
{P × 2}

>  <subsites>  (98) 
None

>  <reference>  (98) 
z0221a

$$$$
LSANSQJDMMMGPT-UHFFFAOYSA-N
     RDKit          3D

 23 25  0  0  0  0  0  0  0  0999 V2000
  -27.3421  -33.8812  -14.6657 C   0  0  0  0  0  0  0  0  0  0  0  0
  -26.8932  -32.5403  -14.1003 C   0  0  0  0  0  0  0  0  0  0  0  0
  -26.5133  -31.5898  -15.1427 N   0  0  0  0  0  0  0  0  0  0  0  0
  -25.1401  -31.5237  -15.3914 C   0  0  0  0  0  0  0  0  0  0  0  0
  -24.2747  -32.0988  -14.7321 O   0  0  0  0  0  0  0  0  0  0  0  0
  -24.6907  -30.6826  -16.5057 C   0  0  0  0  0  0  0  0  0  0  0  0
  -25.5550  -30.1561  -17.3680 C   0  0  0  0  0  0  0  0  0  0  0  0
  -26.9989  -30.3629  -17.2263 C   0  0  0  0  0  0  0  0  0  0  0  0
  -27.8953  -29.8707  -18.2105 C   0  0  0  0  0  0  0  0  0  0  0  0
  -27.5276  -29.5199  -19.5086 N   0  0  0  0  0  0  0  0  0  0  0  0
  -26.3932  -30.0433  -20.3994 C   0  0  0  0  0  0  0  0  0  0  0  0
  -25.6308  -30.9050  -20.2224 O   0  0  0  0  0  0  0  0  0  0  0  0
  -26.3244  -29.2966  -21.6677 C   0  0  0  0  0  0  0  0  0  0  0  0
  -26.6100  -29.9900  -22.8392 C   0  0  0  0  0  0  0  0  0  0  0  0
  -26.2910  -29.3855  -24.0367 C   0  0  0  0  0  0  0  0  0  0  0  0
  -25.7304  -28.1617  -24.1066 N   0  0  0  0  0  0  0  0  0  0  0  0
  -25.4611  -27.5168  -22.9481 C   0  0  0  0  0  0  0  0  0  0  0  0
  -25.7552  -28.0285  -21.7006 C   0  0  0  0  0  0  0  0  0  0  0  0
  -29.2533  -29.8030  -17.9477 C   0  0  0  0  0  0  0  0  0  0  0  0
  -29.7307  -30.2682  -16.7373 C   0  0  0  0  0  0  0  0  0  0  0  0
  -28.8796  -30.8606  -15.7942 C   0  0  0  0  0  0  0  0  0  0  0  0
  -29.7366  -31.3703  -14.3767 Cl  0  0  0  0  0  0  0  0  0  0  0  0
  -27.4846  -30.9464  -16.0200 C   0  0  0  0  0  0  0  0  0  0  0  0
  1  2  1  0
  2  3  1  0
  3  4  1  0
  4  5  2  0
  4  6  1  0
  6  7  2  0
  7  8  1  0
  8  9  2  0
  9 10  1  0
 10 11  1  0
 11 12  2  0
 11 13  1  0
 13 14  2  0
 14 15  1  0
 15 16  2  0
 16 17  1  0
 17 18  2  0
  9 19  1  0
 19 20  2  0
 20 21  1  0
 21 22  1  0
 21 23  2  0
 23  3  1  0
 23  8  1  0
 18 13  1  0
M  END
>  <id>  (99) 
238334

>  <inchikey>  (99) 
LSANSQJDMMMGPT-UHFFFAOYSA-N

>  <alias>  (99) 
None

>  <smiles>  (99) 
CCn1c(=O)ccc2c(NC(=O)c3ccncc3)ccc(Cl)c21

>  <path>  (99) 
/opt/xchem-fragalysis-2/maxwin/RdRp_FFF/syndirella/mar_elabs/elabs_005/YAOSTISNIUSXMX-UHFFFAOYSA-N/output/YAOSTISNIUSXMX-UHFFFAOYSA-N-kzFKyu-1922-A/YAOSTISNIUSXMX-UHFFFAOYSA-N-kzFKyu-1922-A.minimised.mol

>  <distance_score>  (99) 
0.810316

>  <energy_score>  (99) 
-43.162869

>  <compound>  (99) 
LSANSQJDMMMGPT-UHFFFAOYSA-N

>  <compound_id>  (99) 
78597

>  <target>  (99) 
Flavi_NS5_RdRp

>  <tags>  (99) 
[]

>  <inspirations>  (99) 
{P × 2}

>  <subsites>  (99) 
None

>  <reference>  (99) 
z0221a

$$$$
PTSWVUFUDDKMCM-UHFFFAOYSA-N
     RDKit          3D

 23 25  0  0  0  0  0  0  0  0999 V2000
  -27.2863  -31.2231  -21.2424 O   0  0  0  0  0  0  0  0  0  0  0  0
  -27.0528  -30.1373  -20.8817 C   0  0  0  0  0  0  0  0  0  0  0  0
  -27.2817  -29.4678  -19.5093 N   0  0  0  0  0  0  0  0  0  0  0  0
  -27.7436  -30.0039  -18.3020 C   0  0  0  0  0  0  0  0  0  0  0  0
  -27.1130  -29.5527  -17.1252 C   0  0  0  0  0  0  0  0  0  0  0  0
  -26.0184  -28.5520  -17.2000 C   0  0  0  0  0  0  0  0  0  0  0  0
  -25.8577  -27.7473  -18.1005 O   0  0  0  0  0  0  0  0  0  0  0  0
  -25.1488  -28.6434  -16.1799 O   0  0  0  0  0  0  0  0  0  0  0  0
  -27.4425  -30.1254  -15.9039 C   0  0  0  0  0  0  0  0  0  0  0  0
  -28.3650  -31.1689  -15.8647 C   0  0  0  0  0  0  0  0  0  0  0  0
  -28.6738  -31.8910  -14.3167 Cl  0  0  0  0  0  0  0  0  0  0  0  0
  -28.9962  -31.6614  -17.0082 C   0  0  0  0  0  0  0  0  0  0  0  0
  -29.8065  -32.7354  -16.9057 N   0  0  0  0  0  0  0  0  0  0  0  0
  -30.3748  -33.2365  -18.0146 C   0  0  0  0  0  0  0  0  0  0  0  0
  -30.2650  -32.6392  -19.2462 C   0  0  0  0  0  0  0  0  0  0  0  0
  -29.4700  -31.5066  -19.3493 C   0  0  0  0  0  0  0  0  0  0  0  0
  -28.7248  -31.0360  -18.2456 C   0  0  0  0  0  0  0  0  0  0  0  0
  -26.4563  -29.2054  -21.8933 C   0  0  0  0  0  0  0  0  0  0  0  0
  -26.4607  -29.6653  -23.2137 C   0  0  0  0  0  0  0  0  0  0  0  0
  -25.9327  -28.8853  -24.2118 C   0  0  0  0  0  0  0  0  0  0  0  0
  -25.4097  -27.6786  -23.9658 N   0  0  0  0  0  0  0  0  0  0  0  0
  -25.3854  -27.2491  -22.6922 C   0  0  0  0  0  0  0  0  0  0  0  0
  -25.8830  -27.9666  -21.6241 C   0  0  0  0  0  0  0  0  0  0  0  0
  1  2  2  0
  2  3  1  0
  3  4  1  0
  4  5  2  0
  5  6  1  0
  6  7  2  0
  6  8  1  0
  5  9  1  0
  9 10  2  0
 10 11  1  0
 10 12  1  0
 12 13  2  0
 13 14  1  0
 14 15  2  0
 15 16  1  0
 16 17  2  0
  2 18  1  0
 18 19  2  0
 19 20  1  0
 20 21  2  0
 21 22  1  0
 22 23  2  0
 17  4  1  0
 23 18  1  0
 17 12  1  0
M  END
>  <id>  (100) 
238335

>  <inchikey>  (100) 
PTSWVUFUDDKMCM-UHFFFAOYSA-N

>  <alias>  (100) 
None

>  <smiles>  (100) 
O=C(Nc1c(C(=O)O)cc(Cl)c2ncccc12)c1ccncc1

>  <path>  (100) 
/opt/xchem-fragalysis-2/maxwin/RdRp_FFF/syndirella/mar_elabs/elabs_005/YAOSTISNIUSXMX-UHFFFAOYSA-N/output/YAOSTISNIUSXMX-UHFFFAOYSA-N-kzFKyu-1923-A/YAOSTISNIUSXMX-UHFFFAOYSA-N-kzFKyu-1923-A.minimised.mol

>  <distance_score>  (100) 
1.173531

>  <energy_score>  (100) 
-22.102447

>  <compound>  (100) 
PTSWVUFUDDKMCM-UHFFFAOYSA-N

>  <compound_id>  (100) 
78598

>  <target>  (100) 
Flavi_NS5_RdRp

>  <tags>  (100) 
[]

>  <inspirations>  (100) 
{P × 2}

>  <subsites>  (100) 
None

>  <reference>  (100) 
z0221a

$$$$
UCFULLFKXBBHMY-UHFFFAOYSA-N
     RDKit          3D

 23 25  0  0  0  0  0  0  0  0999 V2000
  -24.5290  -31.2233  -13.7723 C   0  0  0  0  0  0  0  0  0  0  0  0
  -25.3271  -30.7421  -14.9448 C   0  0  0  0  0  0  0  0  0  0  0  0
  -24.7249  -30.0331  -15.9599 C   0  0  0  0  0  0  0  0  0  0  0  0
  -25.4950  -29.6107  -17.0513 C   0  0  0  0  0  0  0  0  0  0  0  0
  -24.7986  -28.6852  -18.0142 C   0  0  0  0  0  0  0  0  0  0  0  0
  -26.8688  -30.0143  -17.1596 C   0  0  0  0  0  0  0  0  0  0  0  0
  -27.7650  -29.7911  -18.2611 C   0  0  0  0  0  0  0  0  0  0  0  0
  -27.3288  -29.4044  -19.5218 N   0  0  0  0  0  0  0  0  0  0  0  0
  -26.2719  -30.0152  -20.4350 C   0  0  0  0  0  0  0  0  0  0  0  0
  -25.5378  -30.8958  -20.2534 O   0  0  0  0  0  0  0  0  0  0  0  0
  -26.2432  -29.2994  -21.7265 C   0  0  0  0  0  0  0  0  0  0  0  0
  -26.5842  -30.0140  -22.8690 C   0  0  0  0  0  0  0  0  0  0  0  0
  -26.3184  -29.4315  -24.0901 C   0  0  0  0  0  0  0  0  0  0  0  0
  -25.7615  -28.2100  -24.2092 N   0  0  0  0  0  0  0  0  0  0  0  0
  -25.4412  -27.5425  -23.0782 C   0  0  0  0  0  0  0  0  0  0  0  0
  -25.6820  -28.0289  -21.8104 C   0  0  0  0  0  0  0  0  0  0  0  0
  -29.1184  -30.1530  -18.2021 C   0  0  0  0  0  0  0  0  0  0  0  0
  -30.1047  -30.1106  -19.6254 Cl  0  0  0  0  0  0  0  0  0  0  0  0
  -29.6300  -30.7121  -17.0530 C   0  0  0  0  0  0  0  0  0  0  0  0
  -28.7724  -30.9660  -15.9874 C   0  0  0  0  0  0  0  0  0  0  0  0
  -29.4924  -31.7103  -14.5885 Cl  0  0  0  0  0  0  0  0  0  0  0  0
  -27.4024  -30.6679  -16.0191 C   0  0  0  0  0  0  0  0  0  0  0  0
  -26.6435  -31.0138  -14.9555 N   0  0  0  0  0  0  0  0  0  0  0  0
  1  2  1  0
  2  3  2  0
  3  4  1  0
  4  5  1  0
  4  6  2  0
  6  7  1  0
  7  8  1  0
  8  9  1  0
  9 10  2  0
  9 11  1  0
 11 12  2  0
 12 13  1  0
 13 14  2  0
 14 15  1  0
 15 16  2  0
  7 17  2  0
 17 18  1  0
 17 19  1  0
 19 20  2  0
 20 21  1  0
 20 22  1  0
 22 23  2  0
 23  2  1  0
 22  6  1  0
 16 11  1  0
M  END
>  <id>  (101) 
238336

>  <inchikey>  (101) 
UCFULLFKXBBHMY-UHFFFAOYSA-N

>  <alias>  (101) 
None

>  <smiles>  (101) 
Cc1cc(C)c2c(NC(=O)c3ccncc3)c(Cl)cc(Cl)c2n1

>  <path>  (101) 
/opt/xchem-fragalysis-2/maxwin/RdRp_FFF/syndirella/mar_elabs/elabs_005/YAOSTISNIUSXMX-UHFFFAOYSA-N/output/YAOSTISNIUSXMX-UHFFFAOYSA-N-kzFKyu-1927-A/YAOSTISNIUSXMX-UHFFFAOYSA-N-kzFKyu-1927-A.minimised.mol

>  <distance_score>  (101) 
0.700394

>  <energy_score>  (101) 
-10.989727

>  <compound>  (101) 
UCFULLFKXBBHMY-UHFFFAOYSA-N

>  <compound_id>  (101) 
78602

>  <target>  (101) 
Flavi_NS5_RdRp

>  <tags>  (101) 
[]

>  <inspirations>  (101) 
{P × 2}

>  <subsites>  (101) 
None

>  <reference>  (101) 
z0221a

$$$$
JZGKQSMZAFQPPH-UHFFFAOYSA-N
     RDKit          3D

 24 26  0  0  0  0  0  0  0  0999 V2000
  -28.9341  -29.5787  -21.0647 O   0  0  0  0  0  0  0  0  0  0  0  0
  -27.8389  -29.3517  -20.7425 C   0  0  0  0  0  0  0  0  0  0  0  0
  -27.1695  -29.4345  -19.3636 N   0  0  0  0  0  0  0  0  0  0  0  0
  -27.6617  -29.8884  -18.1483 C   0  0  0  0  0  0  0  0  0  0  0  0
  -28.9589  -30.4037  -18.1015 C   0  0  0  0  0  0  0  0  0  0  0  0
  -29.4263  -30.9718  -16.9331 C   0  0  0  0  0  0  0  0  0  0  0  0
  -28.5838  -31.0403  -15.8268 C   0  0  0  0  0  0  0  0  0  0  0  0
  -29.2275  -31.8111  -14.4107 Cl  0  0  0  0  0  0  0  0  0  0  0  0
  -27.2837  -30.5067  -15.8278 C   0  0  0  0  0  0  0  0  0  0  0  0
  -26.5112  -30.5822  -14.7176 N   0  0  0  0  0  0  0  0  0  0  0  0
  -25.3120  -29.9622  -14.6891 C   0  0  0  0  0  0  0  0  0  0  0  0
  -24.8115  -29.2275  -15.7379 C   0  0  0  0  0  0  0  0  0  0  0  0
  -23.6084  -28.4188  -15.4788 C   0  0  0  0  0  0  0  0  0  0  0  0
  -22.8238  -28.5648  -14.5635 O   0  0  0  0  0  0  0  0  0  0  0  0
  -23.5099  -27.3898  -16.3473 O   0  0  0  0  0  0  0  0  0  0  0  0
  -25.5446  -29.2313  -16.9253 C   0  0  0  0  0  0  0  0  0  0  0  0
  -25.0804  -28.5441  -18.0334 O   0  0  0  0  0  0  0  0  0  0  0  0
  -26.8166  -29.8754  -17.0025 C   0  0  0  0  0  0  0  0  0  0  0  0
  -26.8638  -28.9847  -21.7887 C   0  0  0  0  0  0  0  0  0  0  0  0
  -26.9067  -29.7313  -22.9629 C   0  0  0  0  0  0  0  0  0  0  0  0
  -26.1559  -29.3147  -24.0379 C   0  0  0  0  0  0  0  0  0  0  0  0
  -25.3914  -28.2105  -23.9879 N   0  0  0  0  0  0  0  0  0  0  0  0
  -25.3563  -27.5145  -22.8314 C   0  0  0  0  0  0  0  0  0  0  0  0
  -26.0507  -27.8654  -21.6920 C   0  0  0  0  0  0  0  0  0  0  0  0
  1  2  2  0
  2  3  1  0
  3  4  1  0
  4  5  2  0
  5  6  1  0
  6  7  2  0
  7  8  1  0
  7  9  1  0
  9 10  2  0
 10 11  1  0
 11 12  2  0
 12 13  1  0
 13 14  2  0
 13 15  1  0
 12 16  1  0
 16 17  1  0
 16 18  2  0
  2 19  1  0
 19 20  2  0
 20 21  1  0
 21 22  2  0
 22 23  1  0
 23 24  2  0
 18  4  1  0
 24 19  1  0
 18  9  1  0
M  END
>  <id>  (102) 
238933

>  <inchikey>  (102) 
JZGKQSMZAFQPPH-UHFFFAOYSA-N

>  <alias>  (102) 
None

>  <smiles>  (102) 
O=C(Nc1ccc(Cl)c2ncc(C(=O)O)c(O)c12)c1ccncc1

>  <path>  (102) 
/opt/xchem-fragalysis-2/maxwin/RdRp_FFF/syndirella/mar_elabs/elabs_005/YAOSTISNIUSXMX-UHFFFAOYSA-N/output/YAOSTISNIUSXMX-UHFFFAOYSA-N-kzFKyu-3071-A/YAOSTISNIUSXMX-UHFFFAOYSA-N-kzFKyu-3071-A.minimised.mol

>  <distance_score>  (102) 
1.060149

>  <energy_score>  (102) 
-37.018283

>  <compound>  (102) 
JZGKQSMZAFQPPH-UHFFFAOYSA-N

>  <compound_id>  (102) 
79556

>  <target>  (102) 
Flavi_NS5_RdRp

>  <tags>  (102) 
[]

>  <inspirations>  (102) 
{P × 2}

>  <subsites>  (102) 
None

>  <reference>  (102) 
z0221a

$$$$
CBMRSUJVLKEMPC-UHFFFAOYSA-N
     RDKit          3D

 25 27  0  0  0  0  0  0  0  0999 V2000
  -22.3323  -33.1831  -13.8165 C   0  0  0  0  0  0  0  0  0  0  0  0
  -23.1026  -32.3725  -14.7055 O   0  0  0  0  0  0  0  0  0  0  0  0
  -24.4174  -32.3031  -14.3797 C   0  0  0  0  0  0  0  0  0  0  0  0
  -24.9452  -32.8338  -13.4097 O   0  0  0  0  0  0  0  0  0  0  0  0
  -25.2085  -31.4819  -15.3532 C   0  0  0  0  0  0  0  0  0  0  0  0
  -24.6239  -30.9111  -16.4147 C   0  0  0  0  0  0  0  0  0  0  0  0
  -25.4637  -30.0960  -17.3224 C   0  0  0  0  0  0  0  0  0  0  0  0
  -24.9210  -29.2628  -18.0401 O   0  0  0  0  0  0  0  0  0  0  0  0
  -26.9473  -30.2640  -17.2365 C   0  0  0  0  0  0  0  0  0  0  0  0
  -27.8345  -29.7685  -18.2094 C   0  0  0  0  0  0  0  0  0  0  0  0
  -27.4178  -29.4071  -19.4792 N   0  0  0  0  0  0  0  0  0  0  0  0
  -26.4127  -30.0760  -20.4267 C   0  0  0  0  0  0  0  0  0  0  0  0
  -25.7166  -30.9949  -20.2627 O   0  0  0  0  0  0  0  0  0  0  0  0
  -26.3189  -29.3292  -21.6948 C   0  0  0  0  0  0  0  0  0  0  0  0
  -26.5961  -30.0127  -22.8723 C   0  0  0  0  0  0  0  0  0  0  0  0
  -26.2820  -29.3937  -24.0636 C   0  0  0  0  0  0  0  0  0  0  0  0
  -25.7306  -28.1651  -24.1221 N   0  0  0  0  0  0  0  0  0  0  0  0
  -25.4588  -27.5332  -22.9568 C   0  0  0  0  0  0  0  0  0  0  0  0
  -25.7520  -28.0590  -21.7155 C   0  0  0  0  0  0  0  0  0  0  0  0
  -29.2049  -29.7430  -17.9618 C   0  0  0  0  0  0  0  0  0  0  0  0
  -29.6989  -30.2507  -16.7656 C   0  0  0  0  0  0  0  0  0  0  0  0
  -28.8320  -30.8126  -15.8319 C   0  0  0  0  0  0  0  0  0  0  0  0
  -29.5172  -31.4915  -14.3975 Cl  0  0  0  0  0  0  0  0  0  0  0  0
  -27.4481  -30.8388  -16.0539 C   0  0  0  0  0  0  0  0  0  0  0  0
  -26.5585  -31.3438  -15.0890 N   0  0  0  0  0  0  0  0  0  0  0  0
  1  2  1  0
  2  3  1  0
  3  4  2  0
  3  5  1  0
  5  6  2  0
  6  7  1  0
  7  8  2  0
  7  9  1  0
  9 10  2  0
 10 11  1  0
 11 12  1  0
 12 13  2  0
 12 14  1  0
 14 15  2  0
 15 16  1  0
 16 17  2  0
 17 18  1  0
 18 19  2  0
 10 20  1  0
 20 21  2  0
 21 22  1  0
 22 23  1  0
 22 24  2  0
 24 25  1  0
 25  5  1  0
 24  9  1  0
 19 14  1  0
M  END
>  <id>  (103) 
239055

>  <inchikey>  (103) 
CBMRSUJVLKEMPC-UHFFFAOYSA-N

>  <alias>  (103) 
None

>  <smiles>  (103) 
COC(=O)c1cc(=O)c2c(NC(=O)c3ccncc3)ccc(Cl)c2[nH]1

>  <path>  (103) 
/opt/xchem-fragalysis-2/maxwin/RdRp_FFF/syndirella/mar_elabs/elabs_005/YAOSTISNIUSXMX-UHFFFAOYSA-N/output/YAOSTISNIUSXMX-UHFFFAOYSA-N-kzFKyu-3594-A/YAOSTISNIUSXMX-UHFFFAOYSA-N-kzFKyu-3594-A.minimised.mol

>  <distance_score>  (103) 
0.793158

>  <energy_score>  (103) 
-24.018912

>  <compound>  (103) 
CBMRSUJVLKEMPC-UHFFFAOYSA-N

>  <compound_id>  (103) 
79959

>  <target>  (103) 
Flavi_NS5_RdRp

>  <tags>  (103) 
[]

>  <inspirations>  (103) 
{P × 2}

>  <subsites>  (103) 
None

>  <reference>  (103) 
z0221a

$$$$
