DNV2_NS5A-x0759_A_2101_1_DNV2_NS5A-x0249+A+1707+1
     RDKit          3D

 18 20  0  0  0  0  0  0  0  0999 V2000
   -5.4650  -72.3690  -20.8850 O   0  0  0  0  0  0  0  0  0  0  0  0
   -5.7190  -71.4140  -20.1790 C   0  0  0  0  0  0  0  0  0  0  0  0
   -7.1220  -71.1940  -19.7160 C   0  0  0  0  0  0  0  0  0  0  0  0
   -8.0370  -70.5400  -20.5400 C   0  0  0  0  0  0  0  0  0  0  0  0
   -9.3190  -70.3640  -20.0800 C   0  0  0  0  0  0  0  0  0  0  0  0
  -10.3800  -69.7630  -20.7190 O   0  0  0  0  0  0  0  0  0  0  0  0
  -11.5020  -69.9560  -19.8540 C   0  0  0  0  0  0  0  0  0  0  0  0
  -11.0300  -70.5170  -18.6260 O   0  0  0  0  0  0  0  0  0  0  0  0
   -9.7040  -70.8120  -18.8430 C   0  0  0  0  0  0  0  0  0  0  0  0
   -8.8190  -71.4610  -18.0070 C   0  0  0  0  0  0  0  0  0  0  0  0
   -7.5220  -71.6500  -18.4560 C   0  0  0  0  0  0  0  0  0  0  0  0
   -4.7770  -70.5370  -19.8120 N   0  0  0  0  0  0  0  0  0  0  0  0
   -3.3850  -70.7100  -20.2380 C   0  0  0  0  0  0  0  0  0  0  0  0
   -3.0070  -69.8770  -21.4470 C   0  0  0  0  0  0  0  0  0  0  0  0
   -2.6500  -68.4390  -21.1400 C   0  0  0  0  0  0  0  0  0  0  0  0
   -3.6010  -67.7040  -20.2190 C   0  0  0  0  0  0  0  0  0  0  0  0
   -3.9240  -68.3760  -18.9040 C   0  0  0  0  0  0  0  0  0  0  0  0
   -5.0620  -69.3760  -18.9640 C   0  0  0  0  0  0  0  0  0  0  0  0
  2  1  2  0
 12  2  1  0
 12 18  1  0
 18 17  1  0
 17 16  1  0
 16 15  1  0
 15 14  1  0
 14 13  1  0
 13 12  1  0
  3  2  1  0
  3 11  2  0
 11 10  1  0
 10  9  2  0
  9  8  1  0
  8  7  1  0
  7  6  1  0
  6  5  1  0
  9  5  1  0
  5  4  2  0
  4  3  1  0
M  END
$$$$

