Zika_NS5A-x0875_A_1101_1_Zika_NS5A-x0041+A+1112+1
     RDKit          3D

  7  7  0  0  0  0  0  0  0  0999 V2000
  -30.3730  -12.4800  -31.0010 N   0  0  0  0  0  0  0  0  0  0  0  0
  -31.1120  -13.1110  -30.3800 C   0  0  0  0  0  0  0  0  0  0  0  0
  -32.0070  -13.8780  -29.5430 C   0  0  0  0  0  0  0  0  0  0  0  0
  -32.9050  -14.8010  -30.0570 N   0  0  0  0  0  0  0  0  0  0  0  0
  -33.5370  -15.2980  -29.0000 C   0  0  0  0  0  0  0  0  0  0  0  0
  -33.1000  -14.7550  -27.8530 N   0  0  0  0  0  0  0  0  0  0  0  0
  -32.1240  -13.8520  -28.1800 C   0  0  0  0  0  0  0  0  0  0  0  0
  2  1  3  0
  3  2  1  0
  3  7  2  0
  7  6  1  0
  6  5  1  0
  5  4  2  0
  4  3  1  0
M  END
$$$$

