DNV2_NS5A-x0160_A_1608_1_DNV2_NS5A-x0254+A+1701+1
     RDKit          3D

 12 13  0  0  0  0  0  0  0  0999 V2000
  -14.8680  -42.8470  -22.4170 C   0  0  0  0  0  0  0  0  0  0  0  0
  -14.3590  -41.4720  -22.7610 C   0  0  0  0  0  0  0  0  0  0  0  0
  -14.6310  -40.6870  -23.8930 C   0  0  0  0  0  0  0  0  0  0  0  0
  -13.9280  -39.5420  -23.7350 N   0  0  0  0  0  0  0  0  0  0  0  0
  -13.2130  -39.5230  -22.5740 N   0  0  0  0  0  0  0  0  0  0  0  0
  -13.4780  -40.6900  -21.9930 C   0  0  0  0  0  0  0  0  0  0  0  0
  -15.4880  -40.9120  -25.0760 C   0  0  0  0  0  0  0  0  0  0  0  0
  -16.4450  -41.9230  -25.0890 C   0  0  0  0  0  0  0  0  0  0  0  0
  -17.2400  -42.0720  -26.2090 C   0  0  0  0  0  0  0  0  0  0  0  0
  -17.1550  -41.2910  -27.2920 N   0  0  0  0  0  0  0  0  0  0  0  0
  -16.2280  -40.3270  -27.2660 C   0  0  0  0  0  0  0  0  0  0  0  0
  -15.3790  -40.1030  -26.1990 C   0  0  0  0  0  0  0  0  0  0  0  0
  2  1  1  0
  2  6  1  0
  6  5  2  0
  5  4  1  0
  4  3  1  0
  3  2  2  0
  7  3  1  0
  7 12  2  0
 12 11  1  0
 11 10  2  0
 10  9  1  0
  9  8  2  0
  8  7  1  0
M  END
$$$$

