DNV2_NS5A-x0279_A_1608_1_DNV2_NS5A-x0249+A+1707+1
     RDKit          3D

 14 15  0  0  0  0  0  0  0  0999 V2000
  -11.4380  -70.0300  -20.7050 F   0  0  0  0  0  0  0  0  0  0  0  0
  -10.1750  -70.4220  -20.3810 C   0  0  0  0  0  0  0  0  0  0  0  0
   -9.9850  -71.3320  -19.3710 C   0  0  0  0  0  0  0  0  0  0  0  0
   -8.7520  -71.7210  -19.0030 N   0  0  0  0  0  0  0  0  0  0  0  0
   -7.6990  -71.1840  -19.6470 C   0  0  0  0  0  0  0  0  0  0  0  0
   -7.8490  -70.2460  -20.6770 C   0  0  0  0  0  0  0  0  0  0  0  0
   -9.1260  -69.8760  -21.0540 C   0  0  0  0  0  0  0  0  0  0  0  0
   -6.4400  -71.5750  -19.2490 N   0  0  0  0  0  0  0  0  0  0  0  0
   -5.2400  -71.5040  -20.0880 C   0  0  0  0  0  0  0  0  0  0  0  0
   -4.2680  -72.6290  -19.7650 C   0  0  0  0  0  0  0  0  0  0  0  0
   -3.0110  -72.4640  -20.5840 C   0  0  0  0  0  0  0  0  0  0  0  0
   -2.3920  -71.1940  -20.3430 O   0  0  0  0  0  0  0  0  0  0  0  0
   -3.2630  -70.1340  -20.7410 C   0  0  0  0  0  0  0  0  0  0  0  0
   -4.5500  -70.1520  -19.9520 C   0  0  0  0  0  0  0  0  0  0  0  0
  2  1  1  0
  2  7  2  0
  7  6  1  0
  6  5  2  0
  8  5  1  0
  9  8  1  0
  9 14  1  0
 14 13  1  0
 13 12  1  0
 12 11  1  0
 11 10  1  0
 10  9  1  0
  5  4  1  0
  4  3  2  0
  3  2  1  0
M  END
$$$$

