DNV2_NS5A-x0376_A_1608_1_DNV2_NS5A-x0249+A+1707+1
     RDKit          3D

 16 17  0  0  0  0  0  0  0  0999 V2000
   -6.4280  -72.6450  -21.5430 O   0  0  0  0  0  0  0  0  0  0  0  0
   -6.4170  -71.8730  -20.5950 C   0  0  0  0  0  0  0  0  0  0  0  0
   -7.7230  -71.4680  -20.0230 C   0  0  0  0  0  0  0  0  0  0  0  0
   -8.9560  -70.6680  -20.9380 S   0  0  0  0  0  0  0  0  0  0  0  0
  -10.0000  -70.6220  -19.6020 C   0  0  0  0  0  0  0  0  0  0  0  0
   -9.4690  -71.1860  -18.4970 C   0  0  0  0  0  0  0  0  0  0  0  0
   -8.1310  -71.6920  -18.7130 C   0  0  0  0  0  0  0  0  0  0  0  0
   -5.2630  -71.3980  -20.0790 N   0  0  0  0  0  0  0  0  0  0  0  0
   -5.1330  -70.4250  -18.9860 C   0  0  0  0  0  0  0  0  0  0  0  0
   -4.2120  -69.2840  -19.4080 C   0  0  0  0  0  0  0  0  0  0  0  0
   -3.9510  -71.8690  -20.5420 C   0  0  0  0  0  0  0  0  0  0  0  0
   -3.1020  -70.6950  -20.9780 C   0  0  0  0  0  0  0  0  0  0  0  0
   -2.8950  -69.7840  -19.8480 N   0  0  0  0  0  0  0  0  0  0  0  0
   -1.8840  -68.7160  -19.9970 C   0  0  0  0  0  0  0  0  0  0  0  0
   -0.6590  -69.1460  -20.7880 C   0  0  0  0  0  0  0  0  0  0  0  0
   -2.4580  -67.4170  -20.5360 C   0  0  0  0  0  0  0  0  0  0  0  0
 16 14  1  0
 15 14  1  0
 14 13  1  0
 13 10  1  0
 10  9  1  0
  9  8  1  0
 11  8  1  0
 12 11  1  0
 13 12  1  0
  8  2  1  0
  2  1  2  0
  3  2  1  0
  3  7  2  0
  7  6  1  0
  6  5  2  0
  5  4  1  0
  4  3  1  0
M  END
$$$$

