Zika_NS5A-x0995_A_1112_1_Zika_NS5A-x0351+A+1112+1
     RDKit          3D

 14 15  0  0  0  0  0  0  0  0999 V2000
  -24.8410  -32.5670  -23.3220 N   0  0  0  0  0  0  0  0  0  0  0  0
  -24.5020  -31.5210  -22.3550 C   0  0  2  0  0  0  0  0  0  0  0  0
  -23.3120  -31.9480  -21.4990 C   0  0  0  0  0  0  0  0  0  0  0  0
  -25.6780  -31.1130  -21.5130 C   0  0  0  0  0  0  0  0  0  0  0  0
  -26.7340  -30.3940  -22.0070 N   0  0  0  0  0  0  0  0  0  0  0  0
  -27.5380  -30.0810  -21.0200 N   0  0  0  0  0  0  0  0  0  0  0  0
  -27.0020  -30.6040  -19.8900 N   0  0  0  0  0  0  0  0  0  0  0  0
  -25.8600  -31.2710  -20.1730 C   0  0  0  0  0  0  0  0  0  0  0  0
  -27.5890  -30.3310  -18.6200 C   0  0  0  0  0  0  0  0  0  0  0  0
  -28.9530  -30.0930  -18.5240 C   0  0  0  0  0  0  0  0  0  0  0  0
  -29.5080  -29.8040  -17.2890 C   0  0  0  0  0  0  0  0  0  0  0  0
  -28.7160  -29.7650  -16.1570 C   0  0  0  0  0  0  0  0  0  0  0  0
  -27.3610  -30.0140  -16.2530 C   0  0  0  0  0  0  0  0  0  0  0  0
  -26.7870  -30.2910  -17.4820 C   0  0  0  0  0  0  0  0  0  0  0  0
  2  3  1  1
  2  1  1  0
  4  2  1  0
  4  8  2  0
  8  7  1  0
  7  6  1  0
  6  5  2  0
  5  4  1  0
  9  7  1  0
  9 14  2  0
 14 13  1  0
 13 12  2  0
 12 11  1  0
 11 10  2  0
 10  9  1  0
M  END
$$$$

