DNV2_NS5A-x0567_A_1707_1_DNV2_NS5A-x0249+A+1707+1
     RDKit          3D

 13 13  0  0  0  0  0  0  0  0999 V2000
   -7.7570  -71.6860  -17.8300 F   0  0  0  0  0  0  0  0  0  0  0  0
   -8.9610  -71.2210  -18.2060 C   0  0  0  0  0  0  0  0  0  0  0  0
   -9.0450  -70.7530  -19.5130 C   0  0  0  0  0  0  0  0  0  0  0  0
   -7.8800  -70.7470  -20.4680 C   0  0  0  0  0  0  0  0  0  0  0  0
  -10.2860  -70.2760  -19.9230 C   0  0  0  0  0  0  0  0  0  0  0  0
  -11.3770  -70.2740  -19.0700 C   0  0  0  0  0  0  0  0  0  0  0  0
  -11.2600  -70.7470  -17.7760 C   0  0  0  0  0  0  0  0  0  0  0  0
  -10.0380  -71.2270  -17.3270 C   0  0  0  0  0  0  0  0  0  0  0  0
   -9.9140  -71.7930  -15.6590 S   0  0  0  0  0  0  0  0  0  0  0  0
   -8.6180  -71.4310  -15.1750 O   0  0  0  0  0  0  0  0  0  0  0  0
  -10.3270  -73.1620  -15.6280 O   0  0  0  0  0  0  0  0  0  0  0  0
  -10.9880  -70.9510  -14.8130 N   0  0  0  0  0  0  0  0  0  0  0  0
  -12.3990  -71.3050  -14.9080 C   0  0  0  0  0  0  0  0  0  0  0  0
 13 12  1  0
 12  9  1  0
 10  9  2  0
 11  9  2  0
  9  8  1  0
  8  7  2  0
  7  6  1  0
  6  5  2  0
  5  3  1  0
  4  3  1  0
  3  2  2  0
  8  2  1  0
  2  1  1  0
M  END
$$$$

