Zika_NS5A-x0993_A_1113_1_Zika_NS5A-x0411+A+1104+1
     RDKit          3D

 15 16  0  0  0  0  0  0  0  0999 V2000
  -12.5780  -24.7520  -17.0370 O   0  0  0  0  0  0  0  0  0  0  0  0
  -12.9330  -25.5270  -17.9390 C   0  0  0  0  0  0  0  0  0  0  0  0
  -13.0000  -26.8390  -17.7720 N   0  0  0  0  0  0  0  0  0  0  0  0
  -13.3050  -24.9750  -19.2820 C   0  0  0  0  0  0  0  0  0  0  0  0
  -14.2580  -23.9650  -19.3800 C   0  0  0  0  0  0  0  0  0  0  0  0
  -14.5090  -23.4110  -20.6400 C   0  0  0  0  0  0  0  0  0  0  0  0
  -13.8690  -23.8090  -21.7530 N   0  0  0  0  0  0  0  0  0  0  0  0
  -12.9710  -24.7960  -21.6310 C   0  0  0  0  0  0  0  0  0  0  0  0
  -12.6670  -25.4080  -20.4340 C   0  0  0  0  0  0  0  0  0  0  0  0
  -15.4480  -22.4210  -20.7840 N   0  0  0  0  0  0  0  0  0  0  0  0
  -16.6170  -22.1770  -19.9390 C   0  0  0  0  0  0  0  0  0  0  0  0
  -17.6950  -23.2770  -20.0350 C   0  0  0  0  0  0  0  0  0  0  0  0
  -18.9680  -22.5610  -20.3120 C   0  0  0  0  0  0  0  0  0  0  0  0
  -18.7830  -21.2760  -20.4670 C   0  0  0  0  0  0  0  0  0  0  0  0
  -17.3490  -20.8810  -20.3290 C   0  0  0  0  0  0  0  0  0  0  0  0
  3  2  1  0
  2  1  2  0
  4  2  1  0
  4  9  2  0
  9  8  1  0
  8  7  2  0
  7  6  1  0
 10  6  1  0
 11 10  1  0
 11 15  1  0
 15 14  1  0
 14 13  2  0
 13 12  1  0
 12 11  1  0
  6  5  2  0
  5  4  1  0
M  END
$$$$

