Zika_NS5A-x0342_A_1013_1_Zika_NS5A-x0411+A+1104+1
     RDKit          3D

 14 15  0  0  0  0  0  0  0  0999 V2000
  -10.2630  -25.1010  -22.0170 C   0  0  0  0  0  0  0  0  0  0  0  0
  -11.6470  -24.6160  -21.9700 N   0  0  0  0  0  0  0  0  0  0  0  0
  -12.0080  -24.0700  -20.6520 C   0  0  0  0  0  0  0  0  0  0  0  0
  -13.4840  -24.1940  -20.3700 C   0  0  0  0  0  0  0  0  0  0  0  0
  -14.4770  -23.2940  -20.7060 C   0  0  0  0  0  0  0  0  0  0  0  0
  -15.6240  -23.7510  -20.1630 N   0  0  0  0  0  0  0  0  0  0  0  0
  -15.4430  -24.9330  -19.5070 N   0  0  0  0  0  0  0  0  0  0  0  0
  -14.1520  -25.1870  -19.6420 C   0  0  0  0  0  0  0  0  0  0  0  0
  -16.9200  -23.1580  -20.2050 C   0  0  0  0  0  0  0  0  0  0  0  0
  -18.0500  -23.9440  -20.0090 C   0  0  0  0  0  0  0  0  0  0  0  0
  -19.3080  -23.3730  -20.1140 C   0  0  0  0  0  0  0  0  0  0  0  0
  -19.4450  -22.0370  -20.4050 C   0  0  0  0  0  0  0  0  0  0  0  0
  -18.3270  -21.2560  -20.5830 C   0  0  0  0  0  0  0  0  0  0  0  0
  -17.0580  -21.8090  -20.4830 C   0  0  0  0  0  0  0  0  0  0  0  0
  2  1  1  0
  3  2  1  0
  4  3  1  0
  4  8  1  0
  8  7  2  0
  7  6  1  0
  6  5  1  0
  5  4  2  0
  9  6  1  0
  9 14  2  0
 14 13  1  0
 13 12  2  0
 12 11  1  0
 11 10  2  0
 10  9  1  0
M  END
$$$$

