6ld2_A_903_1_Zika_NS5A-x0103+A+1112+1__LIG
     RDKit          3D

 18 19  0  0  0  0  0  0  0  0999 V2000
  -15.0030  -46.0180  -19.8700 C   0  0  0  0  0  0  0  0  0  0  0  0
  -13.8170  -45.6220  -19.2040 C   0  0  1  0  0  0  0  0  0  0  0  0
  -13.3690  -44.3780  -19.6850 C   0  0  2  0  0  0  0  0  0  0  0  0
  -13.3540  -44.3490  -21.0970 C   0  0  0  0  0  0  0  0  0  0  0  0
  -14.0460  -45.3030  -21.8830 C   0  0  1  0  0  0  0  0  0  0  0  0
  -14.9470  -46.2450  -21.2790 C   0  0  2  0  0  0  0  0  0  0  0  0
  -13.8260  -43.9370  -23.9110 C   0  0  0  0  0  0  0  0  0  0  0  0
  -11.4990  -42.7280  -19.5460 C   0  0  0  0  0  0  0  0  0  0  0  0
  -13.9030  -45.6700  -17.7890 C   0  0  0  0  0  0  0  0  0  0  0  0
  -16.1710  -46.6580  -21.7360 C   0  0  0  0  0  0  0  0  0  0  0  0
  -16.7080  -47.8450  -21.3290 C   0  0  0  0  0  0  0  0  0  0  0  0
  -17.8440  -48.1970  -21.9510 C   0  0  0  0  0  0  0  0  0  0  0  0
  -18.2650  -47.3550  -22.8880 C   0  0  0  0  0  0  0  0  0  0  0  0
  -14.6160  -44.7470  -23.0230 O   0  0  0  0  0  0  0  0  0  0  0  0
  -12.1670  -43.9480  -19.1870 O   0  0  0  0  0  0  0  0  0  0  0  0
  -14.9990  -45.6910  -17.1860 O   0  0  0  0  0  0  0  0  0  0  0  0
  -12.8610  -45.6920  -17.0860 O   0  0  0  0  0  0  0  0  0  0  0  0
  -17.1960  -46.0470  -22.9630 S   0  0  0  0  0  0  0  0  0  0  0  0
  7 14  1  0
  5 14  1  6
  5  6  1  0
  5  4  1  0
 12 13  2  0
 12 11  1  0
 13 18  1  0
  6 10  1  6
  6  1  1  0
 11 10  2  0
 18 10  1  0
  4  3  1  0
  1  2  1  0
  2  3  1  0
  2  9  1  1
 15  8  1  0
  3 15  1  1
 17  9  2  0
  9 16  1  0
M  END
$$$$
