Zika_NS5A-x0594_A_1013_1_Zika_NS5A-x0594+A+1013+1
     RDKit          3D

 15 15  0  0  0  0  0  0  0  0999 V2000
  -37.8570  -56.2690  -25.0010 F   0  0  0  0  0  0  0  0  0  0  0  0
  -37.3890  -55.0520  -25.3640 C   0  0  0  0  0  0  0  0  0  0  0  0
  -37.0960  -54.1370  -24.3540 C   0  0  0  0  0  0  0  0  0  0  0  0
  -37.2580  -54.4440  -23.0200 N   0  0  0  0  0  0  0  0  0  0  0  0
  -36.6050  -52.8880  -24.7540 C   0  0  0  0  0  0  0  0  0  0  0  0
  -36.4010  -52.5900  -26.0880 C   0  0  0  0  0  0  0  0  0  0  0  0
  -37.2070  -54.7840  -26.7000 C   0  0  0  0  0  0  0  0  0  0  0  0
  -36.6900  -53.5450  -27.0570 C   0  0  0  0  0  0  0  0  0  0  0  0
  -36.3860  -53.3090  -28.3760 O   0  0  0  0  0  0  0  0  0  0  0  0
  -37.1800  -52.3800  -29.1130 C   0  0  0  0  0  0  0  0  0  0  0  0
  -36.3500  -51.7710  -30.2350 C   0  0  0  0  0  0  0  0  0  0  0  0
  -36.5760  -52.1050  -31.3860 O   0  0  0  0  0  0  0  0  0  0  0  0
  -35.3910  -50.8720  -29.9400 N   0  0  0  0  0  0  0  0  0  0  0  0
  -35.0390  -50.4730  -28.5740 C   0  0  0  0  0  0  0  0  0  0  0  0
  -34.6170  -50.2170  -30.9930 C   0  0  0  0  0  0  0  0  0  0  0  0
 15 13  1  0
 14 13  1  0
 13 11  1  0
 12 11  2  0
 11 10  1  0
 10  9  1  0
  9  8  1  0
  8  6  1  0
  6  5  2  0
  5  3  1  0
  4  3  1  0
  3  2  2  0
  2  1  1  0
  7  2  1  0
  8  7  2  0
M  END
$$$$

