Zika_NS5A-x0200_A_1112_1_Zika_NS5A-x0351+A+1112+1
     RDKit          3D

 14 15  0  0  0  0  0  0  0  0999 V2000
  -25.5180  -30.8140  -19.9410 O   0  0  0  0  0  0  0  0  0  0  0  0
  -26.4530  -30.0200  -19.9980 C   0  0  0  0  0  0  0  0  0  0  0  0
  -26.2900  -28.7010  -19.9630 N   0  0  0  0  0  0  0  0  0  0  0  0
  -25.0670  -28.0590  -20.4080 C   0  0  0  0  0  0  0  0  0  0  0  0
  -27.8920  -30.4910  -20.0450 C   0  0  1  0  0  0  0  0  0  0  0  0
  -28.4700  -30.4180  -18.7050 C   0  0  0  0  0  0  0  0  0  0  0  0
  -27.7220  -30.2860  -17.5570 N   0  0  0  0  0  0  0  0  0  0  0  0
  -28.4820  -30.2510  -16.5010 C   0  0  0  0  0  0  0  0  0  0  0  0
  -27.9580  -30.1810  -15.1070 C   0  0  0  0  0  0  0  0  0  0  0  0
  -30.1750  -30.3600  -16.8280 S   0  0  0  0  0  0  0  0  0  0  0  0
  -29.8140  -30.4790  -18.5180 C   0  0  0  0  0  0  0  0  0  0  0  0
  -30.8560  -30.3040  -19.5830 C   0  0  0  0  0  0  0  0  0  0  0  0
  -30.2130  -30.2150  -20.9710 C   0  0  0  0  0  0  0  0  0  0  0  0
  -28.8090  -29.6280  -20.9240 C   0  0  0  0  0  0  0  0  0  0  0  0
  4  3  1  0
  3  2  1  0
  2  1  2  0
  5  2  1  1
  5 14  1  0
 14 13  1  0
 13 12  1  0
 12 11  1  0
 11 10  1  0
 10  8  1  0
  9  8  1  0
  8  7  2  0
  7  6  1  0
  6  5  1  0
 11  6  2  0
M  END
$$$$

