Zika_NS5A-x0207_A_1201_1_Zika_NS5A-x0136+A+1016+1
     RDKit          3D

 13 13  0  0  0  0  0  0  0  0999 V2000
  -26.1130  -63.0690   -3.7230 Cl  0  0  0  0  0  0  0  0  0  0  0  0
  -25.9990  -61.5190   -2.9480 C   0  0  0  0  0  0  0  0  0  0  0  0
  -24.8980  -61.1960   -2.2140 C   0  0  0  0  0  0  0  0  0  0  0  0
  -24.7680  -60.0060   -1.6260 N   0  0  0  0  0  0  0  0  0  0  0  0
  -26.9960  -60.5960   -3.0800 C   0  0  0  0  0  0  0  0  0  0  0  0
  -26.9060  -59.3850   -2.5170 N   0  0  0  0  0  0  0  0  0  0  0  0
  -25.7840  -59.1510   -1.8100 C   0  0  0  0  0  0  0  0  0  0  0  0
  -25.6780  -57.9370   -1.2030 N   0  0  0  0  0  0  0  0  0  0  0  0
  -26.8310  -57.0590   -1.0570 C   0  0  0  0  0  0  0  0  0  0  0  0
  -24.3900  -57.5060   -0.6250 C   0  0  2  0  0  0  0  0  0  0  0  0
  -24.1910  -58.0830    0.7660 C   0  0  0  0  0  0  0  0  0  0  0  0
  -24.2080  -55.9960   -0.6270 C   0  0  0  0  0  0  0  0  0  0  0  0
  -23.6410  -55.5710   -1.8520 O   0  0  0  0  0  0  0  0  0  0  0  0
 10 11  1  1
 12 10  1  0
 13 12  1  0
 10  8  1  0
  9  8  1  0
  8  7  1  0
  7  4  2  0
  4  3  1  0
  3  2  2  0
  2  1  1  0
  5  2  1  0
  6  5  2  0
  7  6  1  0
M  END
$$$$

