XDGUIPBTSIDPMH-UHFFFAOYSA-N
     RDKit          3D

 14 14  0  0  0  0  0  0  0  0999 V2000
  -14.5086  -69.4359  -22.7559 C   0  0  0  0  0  0  0  0  0  0  0  0
  -15.0878  -69.4746  -21.3571 C   0  0  0  0  0  0  0  0  0  0  0  0
  -13.8676  -69.7837  -20.0871 S   0  0  0  0  0  0  0  0  0  0  0  0
  -12.8479  -68.7677  -20.1534 O   0  0  0  0  0  0  0  0  0  0  0  0
  -14.5570  -70.0753  -18.8446 O   0  0  0  0  0  0  0  0  0  0  0  0
  -13.2168  -71.2472  -20.5465 N   0  0  0  0  0  0  0  0  0  0  0  0
  -11.8791  -71.2653  -21.1408 C   0  0  0  0  0  0  0  0  0  0  0  0
  -10.7327  -71.2835  -20.1560 C   0  0  0  0  0  0  0  0  0  0  0  0
  -10.8654  -71.7838  -18.8541 C   0  0  0  0  0  0  0  0  0  0  0  0
   -9.7510  -71.8264  -18.0242 C   0  0  0  0  0  0  0  0  0  0  0  0
   -8.5199  -71.4180  -18.3910 N   0  0  0  0  0  0  0  0  0  0  0  0
   -8.4007  -70.9448  -19.6532 C   0  0  0  0  0  0  0  0  0  0  0  0
   -9.4584  -70.8647  -20.5513 C   0  0  0  0  0  0  0  0  0  0  0  0
   -9.1785  -70.2759  -22.1297 Cl  0  0  0  0  0  0  0  0  0  0  0  0
  1  2  1  0
  2  3  1  0
  3  4  2  0
  3  5  2  0
  3  6  1  0
  6  7  1  0
  7  8  1  0
  8  9  2  0
  9 10  1  0
 10 11  2  0
 11 12  1  0
 12 13  2  0
 13 14  1  0
 13  8  1  0
M  END
>  <id>  (1) 
35409

>  <inchikey>  (1) 
XDGUIPBTSIDPMH-UHFFFAOYSA-N

>  <alias>  (1) 
None

>  <smiles>  (1) 
CCS(=O)(=O)NCc1ccncc1Cl

>  <path>  (1) 
/opt/xchem-fragalysis-2/maxwin/BulkDock/SCRATCH/211010/C890-P17/C890-P17.minimised.mol

>  <distance_score>  (1) 
0.758021

>  <energy_score>  (1) 
-30.027819

>  <compound>  (1) 
XDGUIPBTSIDPMH-UHFFFAOYSA-N

>  <compound_id>  (1) 
890

>  <target>  (1) 
Flavi_NS5_RdRp

>  <tags>  (1) 
['Fragmenstein placed', 'Enamine_Quote_1977854', 'Thumb Site 2 merge', 'Knitwork pure merge', 'acceptable']

>  <SLURM_JOB_ID>  (1) 
211010

>  <SLURM_JOB_NAME>  (1) 
BulkDock.place:Flavi_NS5_RdRp:RdRp_knitwork_thumb_site_2_pure_split4000_batch000

>  <csv_name>  (1) 
RdRp_knitwork_thumb_site_2_pure_split4000_batch000.csv

>  <scratch_subdir>  (1) 
['/opt/xchem-fragalysis-2/maxwin/BulkDock/SCRATCH/211010/C890-P17']

>  <fragmenstein_runtime>  (1) 
[1.9352526664733887]

>  <fragmenstein_outcome>  (1) 
['acceptable']

>  <fragmenstein_mode>  (1) 
['expansion']

>  <fragmenstein_error>  (1) 
['']

>  <exports>  (1) 
['/opt/xchem-fragalysis-2/maxwin/BulkDock/OUTPUTS/RdRp_knitwork_thumb_site_2_pure_split4000_batch000_211010.sdf', '/opt/xchem-fragalysis-2/maxwin/BulkDock/OUTPUTS/RdRp_knitwork_thumb_site_2_pure_fragalysis.sdf']

>  <Multi-SuCOS>  (1) 
nan

>  <merge_set>  (1) 
nan

$$$$
XDGUIPBTSIDPMH-UHFFFAOYSA-N
     RDKit          3D

 14 14  0  0  0  0  0  0  0  0999 V2000
  -14.5475  -69.5114  -22.7115 C   0  0  0  0  0  0  0  0  0  0  0  0
  -15.0670  -69.6742  -21.2985 C   0  0  0  0  0  0  0  0  0  0  0  0
  -13.7611  -69.8666  -20.0919 S   0  0  0  0  0  0  0  0  0  0  0  0
  -12.9109  -68.7052  -20.1398 O   0  0  0  0  0  0  0  0  0  0  0  0
  -14.3539  -70.3177  -18.8474 O   0  0  0  0  0  0  0  0  0  0  0  0
  -12.9275  -71.1869  -20.6920 N   0  0  0  0  0  0  0  0  0  0  0  0
  -11.5009  -71.0321  -21.0268 C   0  0  0  0  0  0  0  0  0  0  0  0
  -10.5297  -71.3124  -19.9003 C   0  0  0  0  0  0  0  0  0  0  0  0
  -10.8471  -72.1894  -18.8537 C   0  0  0  0  0  0  0  0  0  0  0  0
   -9.8882  -72.4862  -17.8907 C   0  0  0  0  0  0  0  0  0  0  0  0
   -8.6352  -71.9933  -17.8939 N   0  0  0  0  0  0  0  0  0  0  0  0
   -8.3322  -71.1599  -18.9098 C   0  0  0  0  0  0  0  0  0  0  0  0
   -9.2298  -70.7898  -19.9050 C   0  0  0  0  0  0  0  0  0  0  0  0
   -8.6831  -69.6722  -21.0670 Cl  0  0  0  0  0  0  0  0  0  0  0  0
  1  2  1  0
  2  3  1  0
  3  4  2  0
  3  5  2  0
  3  6  1  0
  6  7  1  0
  7  8  1  0
  8  9  2  0
  9 10  1  0
 10 11  2  0
 11 12  1  0
 12 13  2  0
 13 14  1  0
 13  8  1  0
M  END
>  <id>  (2) 
35410

>  <inchikey>  (2) 
XDGUIPBTSIDPMH-UHFFFAOYSA-N

>  <alias>  (2) 
None

>  <smiles>  (2) 
CCS(=O)(=O)NCc1ccncc1Cl

>  <path>  (2) 
/opt/xchem-fragalysis-2/maxwin/BulkDock/SCRATCH/211010/C890-P29/C890-P29.minimised.mol

>  <distance_score>  (2) 
0.826049

>  <energy_score>  (2) 
-28.755577

>  <compound>  (2) 
XDGUIPBTSIDPMH-UHFFFAOYSA-N

>  <compound_id>  (2) 
890

>  <target>  (2) 
Flavi_NS5_RdRp

>  <tags>  (2) 
['JA curated YES', 'Fragmenstein placed', 'DF curated INTERESTING', 'Enamine_Quote_1977854', 'Thumb Site 2 merge', 'Knitwork pure merge', 'Enamine_Order_1968912', 'acceptable']

>  <SLURM_JOB_ID>  (2) 
211010

>  <SLURM_JOB_NAME>  (2) 
BulkDock.place:Flavi_NS5_RdRp:RdRp_knitwork_thumb_site_2_pure_split4000_batch000

>  <csv_name>  (2) 
RdRp_knitwork_thumb_site_2_pure_split4000_batch000.csv

>  <scratch_subdir>  (2) 
['/opt/xchem-fragalysis-2/maxwin/BulkDock/SCRATCH/211010/C890-P29']

>  <fragmenstein_runtime>  (2) 
[1.9639780521392822]

>  <fragmenstein_outcome>  (2) 
['acceptable']

>  <fragmenstein_mode>  (2) 
['expansion']

>  <fragmenstein_error>  (2) 
['']

>  <exports>  (2) 
['/opt/xchem-fragalysis-2/maxwin/BulkDock/OUTPUTS/RdRp_knitwork_thumb_site_2_pure_split4000_batch000_211010.sdf', '/opt/xchem-fragalysis-2/maxwin/BulkDock/OUTPUTS/RdRp_knitwork_thumb_site_2_pure_fragalysis.sdf', '/opt/xchem-fragalysis-2/maxwin/RdRp_FFF/curation/Curated_JA_YES.sdf', '/opt/xchem-fragalysis-2/maxwin/RdRp_FFF/quotes/JA_curated_and_manual_ordered.sdf', '/opt/xchem-fragalysis-2/maxwin/RdRp_FFF/curation/Curated_DF.sdf']

>  <Multi-SuCOS>  (2) 
nan

>  <merge_set>  (2) 
nan

$$$$
ZPBHINXHGPMFIS-UHFFFAOYSA-N
     RDKit          3D

 21 22  0  0  0  0  0  0  0  0999 V2000
  -14.6366  -69.5318  -22.7217 C   0  0  0  0  0  0  0  0  0  0  0  0
  -15.1349  -69.6369  -21.2962 C   0  0  0  0  0  0  0  0  0  0  0  0
  -13.8201  -69.8173  -20.0973 S   0  0  0  0  0  0  0  0  0  0  0  0
  -12.9313  -68.6886  -20.1986 O   0  0  0  0  0  0  0  0  0  0  0  0
  -14.4187  -70.1968  -18.8312 O   0  0  0  0  0  0  0  0  0  0  0  0
  -13.0304  -71.1842  -20.6276 N   0  0  0  0  0  0  0  0  0  0  0  0
  -11.7672  -71.0508  -21.3588 C   0  0  0  0  0  0  0  0  0  0  0  0
  -10.5252  -71.1832  -20.5094 C   0  0  0  0  0  0  0  0  0  0  0  0
  -10.4334  -72.1046  -19.4580 C   0  0  0  0  0  0  0  0  0  0  0  0
   -9.2307  -72.2798  -18.7679 C   0  0  0  0  0  0  0  0  0  0  0  0
   -8.0954  -71.5492  -19.1172 C   0  0  0  0  0  0  0  0  0  0  0  0
   -6.9728  -71.8592  -18.4044 O   0  0  0  0  0  0  0  0  0  0  0  0
   -5.8732  -70.9529  -18.4844 C   0  0  0  0  0  0  0  0  0  0  0  0
   -4.9090  -71.1833  -19.6125 C   0  0  0  0  0  0  0  0  0  0  0  0
   -4.5496  -72.4689  -20.0050 C   0  0  0  0  0  0  0  0  0  0  0  0
   -3.5788  -72.6144  -20.9798 C   0  0  0  0  0  0  0  0  0  0  0  0
   -2.9890  -71.4766  -21.5161 C   0  0  0  0  0  0  0  0  0  0  0  0
   -3.3860  -70.2330  -21.0587 C   0  0  0  0  0  0  0  0  0  0  0  0
   -4.3348  -70.0674  -20.1260 N   0  0  0  0  0  0  0  0  0  0  0  0
   -8.1757  -70.6267  -20.1558 C   0  0  0  0  0  0  0  0  0  0  0  0
   -9.3807  -70.4452  -20.8433 C   0  0  0  0  0  0  0  0  0  0  0  0
  1  2  1  0
  2  3  1  0
  3  4  2  0
  3  5  2  0
  3  6  1  0
  6  7  1  0
  7  8  1  0
  8  9  2  0
  9 10  1  0
 10 11  2  0
 11 12  1  0
 12 13  1  0
 13 14  1  0
 14 15  2  0
 15 16  1  0
 16 17  2  0
 17 18  1  0
 18 19  2  0
 11 20  1  0
 20 21  2  0
 21  8  1  0
 19 14  1  0
M  END
>  <id>  (3) 
35422

>  <inchikey>  (3) 
ZPBHINXHGPMFIS-UHFFFAOYSA-N

>  <alias>  (3) 
None

>  <smiles>  (3) 
CCS(=O)(=O)NCc1ccc(OCc2ccccn2)cc1

>  <path>  (3) 
/opt/xchem-fragalysis-2/maxwin/BulkDock/SCRATCH/211010/C897-P29/C897-P29.minimised.mol

>  <distance_score>  (3) 
0.974417

>  <energy_score>  (3) 
-36.21249

>  <compound>  (3) 
ZPBHINXHGPMFIS-UHFFFAOYSA-N

>  <compound_id>  (3) 
897

>  <target>  (3) 
Flavi_NS5_RdRp

>  <tags>  (3) 
['JA curated YES', 'Fragmenstein placed', 'DF curated INTERESTING', 'Enamine_Quote_1977854', 'Thumb Site 2 merge', 'Knitwork pure merge', 'Enamine_Order_1968912', 'acceptable']

>  <SLURM_JOB_ID>  (3) 
211010

>  <SLURM_JOB_NAME>  (3) 
BulkDock.place:Flavi_NS5_RdRp:RdRp_knitwork_thumb_site_2_pure_split4000_batch000

>  <csv_name>  (3) 
RdRp_knitwork_thumb_site_2_pure_split4000_batch000.csv

>  <scratch_subdir>  (3) 
['/opt/xchem-fragalysis-2/maxwin/BulkDock/SCRATCH/211010/C897-P29']

>  <fragmenstein_runtime>  (3) 
[6.457012414932251]

>  <fragmenstein_outcome>  (3) 
['acceptable']

>  <fragmenstein_mode>  (3) 
['expansion']

>  <fragmenstein_error>  (3) 
['']

>  <exports>  (3) 
['/opt/xchem-fragalysis-2/maxwin/BulkDock/OUTPUTS/RdRp_knitwork_thumb_site_2_pure_split4000_batch000_211010.sdf', '/opt/xchem-fragalysis-2/maxwin/BulkDock/OUTPUTS/RdRp_knitwork_thumb_site_2_pure_fragalysis.sdf', '/opt/xchem-fragalysis-2/maxwin/RdRp_FFF/curation/Curated_JA_YES.sdf', '/opt/xchem-fragalysis-2/maxwin/RdRp_FFF/quotes/JA_curated_and_manual_ordered.sdf', '/opt/xchem-fragalysis-2/maxwin/RdRp_FFF/curation/Curated_DF.sdf']

>  <Multi-SuCOS>  (3) 
nan

>  <merge_set>  (3) 
nan

$$$$
MKHBBPCZLAEZGC-ZDUSSCGKSA-N
     RDKit          3D

 19 20  0  0  0  0  0  0  0  0999 V2000
  -16.1145  -42.8918  -21.1377 O   0  0  0  0  0  0  0  0  0  0  0  0
  -15.9863  -43.4004  -22.2355 C   0  0  0  0  0  0  0  0  0  0  0  0
  -16.2884  -44.7978  -22.6065 C   0  0  0  0  0  0  0  0  0  0  0  0
  -16.9274  -45.7103  -21.8644 C   0  0  0  0  0  0  0  0  0  0  0  0
  -17.2697  -45.6005  -20.4958 C   0  0  0  0  0  0  0  0  0  0  0  0
  -18.5386  -45.4489  -19.9871 C   0  0  0  0  0  0  0  0  0  0  0  0
  -18.4563  -45.4205  -18.2731 S   0  0  0  0  0  0  0  0  0  0  0  0
  -16.7541  -45.6271  -18.3707 C   0  0  0  0  0  0  0  0  0  0  0  0
  -16.2523  -45.7463  -19.5812 N   0  0  0  0  0  0  0  0  0  0  0  0
  -15.5711  -42.7238  -23.3359 O   0  0  0  0  0  0  0  0  0  0  0  0
  -16.6273  -42.4394  -24.2620 C   0  0  0  0  0  0  0  0  0  0  0  0
  -16.0190  -42.1496  -25.6176 C   0  0  0  0  0  0  0  0  0  0  0  0
  -15.1947  -40.8600  -25.6273 C   0  0  0  0  0  0  0  0  0  0  0  0
  -15.8712  -39.7432  -26.4166 C   0  0  0  0  0  0  0  0  0  0  0  0
  -17.0966  -39.1756  -25.7204 C   0  0  1  0  0  0  0  0  0  0  0  0
  -16.7471  -38.3679  -24.4821 C   0  0  0  0  0  0  0  0  0  0  0  0
  -17.9273  -37.4467  -24.3706 C   0  0  0  0  0  0  0  0  0  0  0  0
  -18.2878  -37.1843  -25.8139 C   0  0  0  0  0  0  0  0  0  0  0  0
  -17.8153  -38.2865  -26.5956 O   0  0  0  0  0  0  0  0  0  0  0  0
  1  2  2  0
  2  3  1  0
  3  4  2  3
  4  5  1  0
  5  6  2  0
  6  7  1  0
  7  8  1  0
  8  9  2  0
  2 10  1  0
 10 11  1  0
 11 12  1  0
 12 13  1  0
 13 14  1  0
 15 14  1  6
 15 16  1  0
 16 17  1  0
 17 18  1  0
 18 19  1  0
  9  5  1  0
 19 15  1  0
M  END
>  <id>  (4) 
46189

>  <inchikey>  (4) 
MKHBBPCZLAEZGC-ZDUSSCGKSA-N

>  <alias>  (4) 
None

>  <smiles>  (4) 
O=C(C=Cc1cscn1)OCCCC[C@H]1CCCO1

>  <path>  (4) 
/opt/xchem-fragalysis-2/maxwin/BulkDock/SCRATCH/211036/C9420-P19/C9420-P19.minimised.mol

>  <distance_score>  (4) 
0.986395

>  <energy_score>  (4) 
-48.593273

>  <compound>  (4) 
MKHBBPCZLAEZGC-UHFFFAOYSA-N

>  <compound_id>  (4) 
9420

>  <target>  (4) 
Flavi_NS5_RdRp

>  <tags>  (4) 
['AC curated YES', 'Fragmenstein placed', 'Enamine_unavailable', 'Enamine_Quote_1970815', 'Knitwork impure merge', 'Primer grip/N-pocket merge', 'acceptable']

>  <SLURM_JOB_ID>  (4) 
211036

>  <SLURM_JOB_NAME>  (4) 
BulkDock.place:Flavi_NS5_RdRp:RdRp_knitwork_primer_grip_n_pocket_impure_split4000_batch004

>  <csv_name>  (4) 
RdRp_knitwork_primer_grip_n_pocket_impure_split4000_batch004.csv

>  <scratch_subdir>  (4) 
['/opt/xchem-fragalysis-2/maxwin/BulkDock/SCRATCH/211036/C9420-P19']

>  <fragmenstein_runtime>  (4) 
[5.221753358840942]

>  <fragmenstein_outcome>  (4) 
['acceptable']

>  <fragmenstein_mode>  (4) 
['expansion']

>  <fragmenstein_error>  (4) 
['']

>  <exports>  (4) 
['/opt/xchem-fragalysis-2/maxwin/BulkDock/OUTPUTS/RdRp_knitwork_primer_grip_n_pocket_impure_split4000_batch004_211036.sdf', '/opt/xchem-fragalysis-2/maxwin/BulkDock/OUTPUTS/RdRp_knitwork_primer_grip_n_pocket_impure_fragalysis.sdf', '/opt/xchem-fragalysis-2/maxwin/RdRp_FFF/curation/Curated_AC.sdf']

>  <Multi-SuCOS>  (4) 
nan

>  <merge_set>  (4) 
nan

$$$$
IQFFGYDSWILZBZ-UHFFFAOYSA-N
     RDKit          3D

 18 19  0  0  0  0  0  0  0  0999 V2000
  -14.6703  -69.2999  -22.9966 C   0  0  0  0  0  0  0  0  0  0  0  0
  -14.2653  -70.7300  -22.6132 C   0  0  0  0  0  0  0  0  0  0  0  0
  -15.4292  -71.3177  -21.8034 C   0  0  0  0  0  0  0  0  0  0  0  0
  -14.0675  -71.6058  -23.8706 C   0  0  0  0  0  0  0  0  0  0  0  0
  -13.1380  -71.0959  -24.8112 O   0  0  0  0  0  0  0  0  0  0  0  0
  -13.0673  -70.7582  -21.7439 N   0  0  0  0  0  0  0  0  0  0  0  0
  -12.0306  -69.7063  -21.8899 C   0  0  0  0  0  0  0  0  0  0  0  0
  -11.7559  -69.7759  -23.1061 O   0  0  0  0  0  0  0  0  0  0  0  0
  -11.3375  -70.4907  -20.8017 C   0  0  0  0  0  0  0  0  0  0  0  0
  -11.4679  -70.2223  -19.4477 C   0  0  0  0  0  0  0  0  0  0  0  0
  -10.1863  -70.9640  -18.5795 S   0  0  0  0  0  0  0  0  0  0  0  0
   -9.5254  -71.5036  -20.0619 C   0  0  0  0  0  0  0  0  0  0  0  0
   -8.1030  -72.1080  -20.2628 C   0  0  0  0  0  0  0  0  0  0  0  0
   -7.6713  -72.6699  -21.5013 C   0  0  0  0  0  0  0  0  0  0  0  0
   -6.3701  -73.1077  -21.4448 C   0  0  0  0  0  0  0  0  0  0  0  0
   -5.6577  -72.7883  -19.9240 S   0  0  0  0  0  0  0  0  0  0  0  0
   -7.1117  -72.1242  -19.3115 C   0  0  0  0  0  0  0  0  0  0  0  0
  -10.2872  -71.3322  -21.1164 N   0  0  0  0  0  0  0  0  0  0  0  0
  1  2  1  0
  2  3  1  0
  2  4  1  0
  4  5  1  0
  2  6  1  0
  6  7  1  0
  7  8  2  0
  7  9  1  0
  9 10  2  0
 10 11  1  0
 11 12  1  0
 12 13  1  0
 13 14  1  0
 14 15  2  0
 15 16  1  0
 16 17  1  0
 12 18  2  0
 18  9  1  0
 17 13  2  0
M  END
>  <id>  (5) 
48009

>  <inchikey>  (5) 
IQFFGYDSWILZBZ-UHFFFAOYSA-N

>  <alias>  (5) 
None

>  <smiles>  (5) 
CC(C)(CO)NC(=O)c1csc(-c2ccsc2)n1

>  <path>  (5) 
/opt/xchem-fragalysis-2/maxwin/BulkDock/SCRATCH/211010/C1443-P33/C1443-P33.minimised.mol

>  <distance_score>  (5) 
0.806872

>  <energy_score>  (5) 
-6.451584

>  <compound>  (5) 
IQFFGYDSWILZBZ-UHFFFAOYSA-N

>  <compound_id>  (5) 
1443

>  <target>  (5) 
Flavi_NS5_RdRp

>  <tags>  (5) 
['Knitwork pure merge', 'Thumb Site 2 merge', 'Fragmenstein placed', 'acceptable']

>  <SLURM_JOB_ID>  (5) 
211010

>  <SLURM_JOB_NAME>  (5) 
BulkDock.place:Flavi_NS5_RdRp:RdRp_knitwork_thumb_site_2_pure_split4000_batch000

>  <csv_name>  (5) 
RdRp_knitwork_thumb_site_2_pure_split4000_batch000.csv

>  <scratch_subdir>  (5) 
['/opt/xchem-fragalysis-2/maxwin/BulkDock/SCRATCH/211010/C1443-P33']

>  <fragmenstein_runtime>  (5) 
[4.153818368911743]

>  <fragmenstein_outcome>  (5) 
['acceptable']

>  <fragmenstein_mode>  (5) 
['expansion']

>  <fragmenstein_error>  (5) 
['']

>  <exports>  (5) 
['/opt/xchem-fragalysis-2/maxwin/BulkDock/OUTPUTS/RdRp_knitwork_thumb_site_2_pure_split4000_batch000_211010.sdf', '/opt/xchem-fragalysis-2/maxwin/BulkDock/OUTPUTS/RdRp_knitwork_thumb_site_2_pure_fragalysis.sdf']

>  <Multi-SuCOS>  (5) 
nan

>  <merge_set>  (5) 
nan

$$$$
FOZSYKGVMKDKBV-SNVBAGLBSA-N
     RDKit          3D

 20 21  0  0  0  0  0  0  0  0999 V2000
  -14.1479  -69.6505  -22.8418 C   0  0  0  0  0  0  0  0  0  0  0  0
  -14.7237  -69.8669  -21.4599 C   0  0  0  0  0  0  0  0  0  0  0  0
  -13.4917  -69.8900  -20.1589 S   0  0  0  0  0  0  0  0  0  0  0  0
  -12.6575  -68.7209  -20.2650 O   0  0  0  0  0  0  0  0  0  0  0  0
  -14.1759  -70.2172  -18.9204 O   0  0  0  0  0  0  0  0  0  0  0  0
  -12.5607  -71.2368  -20.4972 N   0  0  0  0  0  0  0  0  0  0  0  0
  -11.2604  -71.1538  -21.1933 C   0  0  0  0  0  0  0  0  0  0  0  0
  -10.0966  -70.7504  -20.2820 C   0  0  1  0  0  0  0  0  0  0  0  0
  -10.0955  -71.3599  -18.8850 C   0  0  0  0  0  0  0  0  0  0  0  0
   -8.6526  -71.1930  -18.4598 C   0  0  0  0  0  0  0  0  0  0  0  0
   -8.2858  -71.1647  -17.2963 O   0  0  0  0  0  0  0  0  0  0  0  0
   -7.8650  -71.1380  -19.6119 N   0  0  0  0  0  0  0  0  0  0  0  0
   -6.4701  -70.8475  -19.6629 C   0  0  0  0  0  0  0  0  0  0  0  0
   -5.6792  -71.3091  -20.7056 C   0  0  0  0  0  0  0  0  0  0  0  0
   -4.3905  -70.7832  -20.9294 C   0  0  0  0  0  0  0  0  0  0  0  0
   -3.8780  -69.7906  -20.1014 C   0  0  0  0  0  0  0  0  0  0  0  0
   -2.4308  -68.9646  -20.5266 Cl  0  0  0  0  0  0  0  0  0  0  0  0
   -4.5795  -69.4461  -18.9597 C   0  0  0  0  0  0  0  0  0  0  0  0
   -5.8459  -70.0128  -18.7340 C   0  0  0  0  0  0  0  0  0  0  0  0
   -8.7046  -71.1566  -20.8000 C   0  0  0  0  0  0  0  0  0  0  0  0
  1  2  1  0
  2  3  1  0
  3  4  2  0
  3  5  2  0
  3  6  1  0
  6  7  1  0
  8  7  1  6
  8  9  1  0
  9 10  1  0
 10 11  2  0
 10 12  1  0
 12 13  1  0
 13 14  2  0
 14 15  1  0
 15 16  2  0
 16 17  1  0
 16 18  1  0
 18 19  2  0
 12 20  1  0
 20  8  1  0
 19 13  1  0
M  END
>  <id>  (6) 
48487

>  <inchikey>  (6) 
FOZSYKGVMKDKBV-SNVBAGLBSA-N

>  <alias>  (6) 
None

>  <smiles>  (6) 
CCS(=O)(=O)NC[C@H]1CC(=O)N(c2ccc(Cl)cc2)C1

>  <path>  (6) 
/opt/xchem-fragalysis-2/maxwin/BulkDock/SCRATCH/211010/C3075-P45/C3075-P45.minimised.mol

>  <distance_score>  (6) 
0.957905

>  <energy_score>  (6) 
-21.834161

>  <compound>  (6) 
FOZSYKGVMKDKBV-UHFFFAOYSA-N

>  <compound_id>  (6) 
3075

>  <target>  (6) 
Flavi_NS5_RdRp

>  <tags>  (6) 
['JA curated YES', 'Fragmenstein placed', 'Thumb Site 2 merge', 'Knitwork pure merge', 'AC curated INTERESTING', 'Enamine_Order_1968912', 'acceptable']

>  <SLURM_JOB_ID>  (6) 
211010

>  <SLURM_JOB_NAME>  (6) 
BulkDock.place:Flavi_NS5_RdRp:RdRp_knitwork_thumb_site_2_pure_split4000_batch000

>  <csv_name>  (6) 
RdRp_knitwork_thumb_site_2_pure_split4000_batch000.csv

>  <scratch_subdir>  (6) 
['/opt/xchem-fragalysis-2/maxwin/BulkDock/SCRATCH/211010/C3075-P45']

>  <fragmenstein_runtime>  (6) 
[10.632996082305908]

>  <fragmenstein_outcome>  (6) 
['acceptable']

>  <fragmenstein_mode>  (6) 
['expansion']

>  <fragmenstein_error>  (6) 
['']

>  <exports>  (6) 
['/opt/xchem-fragalysis-2/maxwin/BulkDock/OUTPUTS/RdRp_knitwork_thumb_site_2_pure_split4000_batch000_211010.sdf', '/opt/xchem-fragalysis-2/maxwin/BulkDock/OUTPUTS/RdRp_knitwork_thumb_site_2_pure_fragalysis.sdf', '/opt/xchem-fragalysis-2/maxwin/RdRp_FFF/quotes/JA_curated_and_manual_ordered.sdf', '/opt/xchem-fragalysis-2/maxwin/RdRp_FFF/curation/Curated_AC.sdf']

>  <Multi-SuCOS>  (6) 
nan

>  <merge_set>  (6) 
nan

$$$$
VJAXJNJKELENHP-UHFFFAOYSA-N
     RDKit          3D

 15 15  0  0  0  0  0  0  0  0999 V2000
  -14.7110  -69.4600  -22.6404 C   0  0  0  0  0  0  0  0  0  0  0  0
  -15.2222  -69.6142  -21.2220 C   0  0  0  0  0  0  0  0  0  0  0  0
  -13.9241  -69.7531  -19.9952 S   0  0  0  0  0  0  0  0  0  0  0  0
  -13.0062  -68.6515  -20.1448 O   0  0  0  0  0  0  0  0  0  0  0  0
  -14.5368  -70.0458  -18.7143 O   0  0  0  0  0  0  0  0  0  0  0  0
  -13.1483  -71.1681  -20.4229 N   0  0  0  0  0  0  0  0  0  0  0  0
  -11.9636  -71.0407  -21.2940 C   0  0  0  0  0  0  0  0  0  0  0  0
  -10.6590  -71.1730  -20.5434 C   0  0  0  0  0  0  0  0  0  0  0  0
  -10.7239  -71.7751  -19.3156 N   0  0  0  0  0  0  0  0  0  0  0  0
   -9.5706  -71.8798  -18.6183 C   0  0  0  0  0  0  0  0  0  0  0  0
   -8.3493  -71.4150  -19.0743 C   0  0  0  0  0  0  0  0  0  0  0  0
   -8.3012  -70.8178  -20.3299 C   0  0  0  0  0  0  0  0  0  0  0  0
   -9.4608  -70.7211  -21.0960 C   0  0  0  0  0  0  0  0  0  0  0  0
   -9.3454  -70.1014  -22.3058 O   0  0  0  0  0  0  0  0  0  0  0  0
   -9.8041  -70.8714  -23.4158 C   0  0  0  0  0  0  0  0  0  0  0  0
  1  2  1  0
  2  3  1  0
  3  4  2  0
  3  5  2  0
  3  6  1  0
  6  7  1  0
  7  8  1  0
  8  9  2  0
  9 10  1  0
 10 11  2  0
 11 12  1  0
 12 13  2  0
 13 14  1  0
 14 15  1  0
 13  8  1  0
M  END
>  <id>  (7) 
50417

>  <inchikey>  (7) 
VJAXJNJKELENHP-UHFFFAOYSA-N

>  <alias>  (7) 
None

>  <smiles>  (7) 
CCS(=O)(=O)NCc1ncccc1OC

>  <path>  (7) 
/opt/xchem-fragalysis-2/maxwin/BulkDock/SCRATCH/211010/C772-P50/C772-P50.minimised.mol

>  <distance_score>  (7) 
0.788304

>  <energy_score>  (7) 
-32.130172

>  <compound>  (7) 
VJAXJNJKELENHP-UHFFFAOYSA-N

>  <compound_id>  (7) 
772

>  <target>  (7) 
Flavi_NS5_RdRp

>  <tags>  (7) 
['JA curated YES', 'Fragmenstein placed', 'DF curated INTERESTING', 'Thumb Site 2 merge', 'Knitwork pure merge', 'Enamine_Order_1968912', 'acceptable']

>  <SLURM_JOB_ID>  (7) 
211010

>  <SLURM_JOB_NAME>  (7) 
BulkDock.place:Flavi_NS5_RdRp:RdRp_knitwork_thumb_site_2_pure_split4000_batch000

>  <csv_name>  (7) 
RdRp_knitwork_thumb_site_2_pure_split4000_batch000.csv

>  <scratch_subdir>  (7) 
['/opt/xchem-fragalysis-2/maxwin/BulkDock/SCRATCH/211010/C772-P50']

>  <fragmenstein_runtime>  (7) 
[1.7414286136627197]

>  <fragmenstein_outcome>  (7) 
['acceptable']

>  <fragmenstein_mode>  (7) 
['expansion']

>  <fragmenstein_error>  (7) 
['']

>  <exports>  (7) 
['/opt/xchem-fragalysis-2/maxwin/BulkDock/OUTPUTS/RdRp_knitwork_thumb_site_2_pure_split4000_batch000_211010.sdf', '/opt/xchem-fragalysis-2/maxwin/BulkDock/OUTPUTS/RdRp_knitwork_thumb_site_2_pure_fragalysis.sdf', '/opt/xchem-fragalysis-2/maxwin/RdRp_FFF/quotes/JA_curated_and_manual_ordered.sdf', '/opt/xchem-fragalysis-2/maxwin/RdRp_FFF/curation/Curated_DF.sdf']

>  <Multi-SuCOS>  (7) 
nan

>  <merge_set>  (7) 
nan

$$$$
KYKFBYOZGOXJTI-UHFFFAOYSA-N
     RDKit          3D

 15 15  0  0  0  0  0  0  0  0999 V2000
  -14.6892  -69.5242  -22.6594 C   0  0  0  0  0  0  0  0  0  0  0  0
  -15.2155  -69.5558  -21.2387 C   0  0  0  0  0  0  0  0  0  0  0  0
  -13.9357  -69.7377  -19.9993 S   0  0  0  0  0  0  0  0  0  0  0  0
  -12.9088  -68.7501  -20.2257 O   0  0  0  0  0  0  0  0  0  0  0  0
  -14.5726  -69.8850  -18.7067 O   0  0  0  0  0  0  0  0  0  0  0  0
  -13.3077  -71.2567  -20.3182 N   0  0  0  0  0  0  0  0  0  0  0  0
  -12.0675  -71.3002  -21.1115 C   0  0  0  0  0  0  0  0  0  0  0  0
  -10.8080  -71.2317  -20.2672 C   0  0  0  0  0  0  0  0  0  0  0  0
  -10.9231  -71.5327  -18.9415 N   0  0  0  0  0  0  0  0  0  0  0  0
   -9.7852  -71.5025  -18.2136 C   0  0  0  0  0  0  0  0  0  0  0  0
   -9.9994  -71.8059  -16.5381 Cl  0  0  0  0  0  0  0  0  0  0  0  0
   -8.5272  -71.2317  -18.7263 C   0  0  0  0  0  0  0  0  0  0  0  0
   -8.4254  -70.9438  -20.0830 C   0  0  0  0  0  0  0  0  0  0  0  0
   -9.5803  -70.9442  -20.8608 C   0  0  0  0  0  0  0  0  0  0  0  0
   -9.4704  -70.5890  -22.7006 Br  0  0  0  0  0  0  0  0  0  0  0  0
  1  2  1  0
  2  3  1  0
  3  4  2  0
  3  5  2  0
  3  6  1  0
  6  7  1  0
  7  8  1  0
  8  9  2  0
  9 10  1  0
 10 11  1  0
 10 12  2  0
 12 13  1  0
 13 14  2  0
 14 15  1  0
 14  8  1  0
M  END
>  <id>  (8) 
50498

>  <inchikey>  (8) 
KYKFBYOZGOXJTI-UHFFFAOYSA-N

>  <alias>  (8) 
None

>  <smiles>  (8) 
CCS(=O)(=O)NCc1nc(Cl)ccc1Br

>  <path>  (8) 
/opt/xchem-fragalysis-2/maxwin/BulkDock/SCRATCH/211010/C808-P50/C808-P50.minimised.mol

>  <distance_score>  (8) 
0.818691

>  <energy_score>  (8) 
-36.279095

>  <compound>  (8) 
KYKFBYOZGOXJTI-UHFFFAOYSA-N

>  <compound_id>  (8) 
808

>  <target>  (8) 
Flavi_NS5_RdRp

>  <tags>  (8) 
['JA curated YES', 'Fragmenstein placed', 'DF curated INTERESTING', 'Thumb Site 2 merge', 'Knitwork pure merge', 'Enamine_Order_1968912', 'acceptable']

>  <SLURM_JOB_ID>  (8) 
211010

>  <SLURM_JOB_NAME>  (8) 
BulkDock.place:Flavi_NS5_RdRp:RdRp_knitwork_thumb_site_2_pure_split4000_batch000

>  <csv_name>  (8) 
RdRp_knitwork_thumb_site_2_pure_split4000_batch000.csv

>  <scratch_subdir>  (8) 
['/opt/xchem-fragalysis-2/maxwin/BulkDock/SCRATCH/211010/C808-P50']

>  <fragmenstein_runtime>  (8) 
[1.5386583805084229]

>  <fragmenstein_outcome>  (8) 
['acceptable']

>  <fragmenstein_mode>  (8) 
['expansion']

>  <fragmenstein_error>  (8) 
['']

>  <exports>  (8) 
['/opt/xchem-fragalysis-2/maxwin/BulkDock/OUTPUTS/RdRp_knitwork_thumb_site_2_pure_split4000_batch000_211010.sdf', '/opt/xchem-fragalysis-2/maxwin/BulkDock/OUTPUTS/RdRp_knitwork_thumb_site_2_pure_fragalysis.sdf', '/opt/xchem-fragalysis-2/maxwin/RdRp_FFF/quotes/JA_curated_and_manual_ordered.sdf', '/opt/xchem-fragalysis-2/maxwin/RdRp_FFF/curation/Curated_DF.sdf']

>  <Multi-SuCOS>  (8) 
nan

>  <merge_set>  (8) 
nan

$$$$
JSMASCHCFMRBQP-UHFFFAOYSA-N
     RDKit          3D

 14 14  0  0  0  0  0  0  0  0999 V2000
  -14.6711  -69.4032  -22.7069 C   0  0  0  0  0  0  0  0  0  0  0  0
  -15.1973  -69.5822  -21.2965 C   0  0  0  0  0  0  0  0  0  0  0  0
  -13.8982  -69.7958  -20.0839 S   0  0  0  0  0  0  0  0  0  0  0  0
  -13.0004  -68.6707  -20.1537 O   0  0  0  0  0  0  0  0  0  0  0  0
  -14.4918  -70.2045  -18.8257 O   0  0  0  0  0  0  0  0  0  0  0  0
  -13.1161  -71.1619  -20.6420 N   0  0  0  0  0  0  0  0  0  0  0  0
  -11.7596  -71.0153  -21.1743 C   0  0  0  0  0  0  0  0  0  0  0  0
  -10.6384  -71.0975  -20.1603 C   0  0  0  0  0  0  0  0  0  0  0  0
  -10.8599  -71.4484  -18.8224 C   0  0  0  0  0  0  0  0  0  0  0  0
   -9.7812  -71.5523  -17.9554 C   0  0  0  0  0  0  0  0  0  0  0  0
   -8.5024  -71.3364  -18.3125 N   0  0  0  0  0  0  0  0  0  0  0  0
   -8.2982  -70.9917  -19.6004 C   0  0  0  0  0  0  0  0  0  0  0  0
   -9.3115  -70.8545  -20.5523 C   0  0  0  0  0  0  0  0  0  0  0  0
   -8.9208  -70.5051  -21.9502 C   0  0  0  0  0  0  0  0  0  0  0  0
  1  2  1  0
  2  3  1  0
  3  4  2  0
  3  5  2  0
  3  6  1  0
  6  7  1  0
  7  8  1  0
  8  9  2  0
  9 10  1  0
 10 11  2  0
 11 12  1  0
 12 13  2  0
 13 14  1  0
 13  8  1  0
M  END
>  <id>  (9) 
50578

>  <inchikey>  (9) 
JSMASCHCFMRBQP-UHFFFAOYSA-N

>  <alias>  (9) 
None

>  <smiles>  (9) 
CCS(=O)(=O)NCc1ccncc1C

>  <path>  (9) 
/opt/xchem-fragalysis-2/maxwin/BulkDock/SCRATCH/211010/C850-P50/C850-P50.minimised.mol

>  <distance_score>  (9) 
0.656089

>  <energy_score>  (9) 
-33.257943

>  <compound>  (9) 
JSMASCHCFMRBQP-UHFFFAOYSA-N

>  <compound_id>  (9) 
850

>  <target>  (9) 
Flavi_NS5_RdRp

>  <tags>  (9) 
['JA curated YES', 'Fragmenstein placed', 'DF curated INTERESTING', 'Thumb Site 2 merge', 'Knitwork pure merge', 'Enamine_Order_1968912', 'acceptable']

>  <SLURM_JOB_ID>  (9) 
211010

>  <SLURM_JOB_NAME>  (9) 
BulkDock.place:Flavi_NS5_RdRp:RdRp_knitwork_thumb_site_2_pure_split4000_batch000

>  <csv_name>  (9) 
RdRp_knitwork_thumb_site_2_pure_split4000_batch000.csv

>  <scratch_subdir>  (9) 
['/opt/xchem-fragalysis-2/maxwin/BulkDock/SCRATCH/211010/C850-P50']

>  <fragmenstein_runtime>  (9) 
[2.3045759201049805]

>  <fragmenstein_outcome>  (9) 
['acceptable']

>  <fragmenstein_mode>  (9) 
['expansion']

>  <fragmenstein_error>  (9) 
['']

>  <exports>  (9) 
['/opt/xchem-fragalysis-2/maxwin/BulkDock/OUTPUTS/RdRp_knitwork_thumb_site_2_pure_split4000_batch000_211010.sdf', '/opt/xchem-fragalysis-2/maxwin/BulkDock/OUTPUTS/RdRp_knitwork_thumb_site_2_pure_fragalysis.sdf', '/opt/xchem-fragalysis-2/maxwin/RdRp_FFF/quotes/JA_curated_and_manual_ordered.sdf', '/opt/xchem-fragalysis-2/maxwin/RdRp_FFF/curation/Curated_DF.sdf']

>  <Multi-SuCOS>  (9) 
nan

>  <merge_set>  (9) 
nan

$$$$
CZXIYJPCHZSMDX-UHFFFAOYSA-N
     RDKit          3D

 15 15  0  0  0  0  0  0  0  0999 V2000
  -14.6586  -69.4235  -22.6841 C   0  0  0  0  0  0  0  0  0  0  0  0
  -15.2108  -69.6203  -21.2866 C   0  0  0  0  0  0  0  0  0  0  0  0
  -13.9419  -69.7338  -20.0284 S   0  0  0  0  0  0  0  0  0  0  0  0
  -13.0915  -68.5734  -20.0981 O   0  0  0  0  0  0  0  0  0  0  0  0
  -14.5553  -70.1368  -18.7793 O   0  0  0  0  0  0  0  0  0  0  0  0
  -13.0612  -71.0609  -20.4987 N   0  0  0  0  0  0  0  0  0  0  0  0
  -11.8087  -70.8669  -21.2235 C   0  0  0  0  0  0  0  0  0  0  0  0
  -10.5546  -71.0919  -20.4184 C   0  0  0  0  0  0  0  0  0  0  0  0
  -10.5265  -71.0168  -19.0273 C   0  0  0  0  0  0  0  0  0  0  0  0
   -9.4308  -71.2433  -18.2608 N   0  0  0  0  0  0  0  0  0  0  0  0
   -8.2737  -71.5093  -18.9049 C   0  0  0  0  0  0  0  0  0  0  0  0
   -7.0540  -71.7601  -18.0743 C   0  0  0  0  0  0  0  0  0  0  0  0
   -8.1798  -71.5368  -20.2888 C   0  0  0  0  0  0  0  0  0  0  0  0
   -9.3319  -71.3465  -21.0589 C   0  0  0  0  0  0  0  0  0  0  0  0
   -9.2247  -71.3924  -22.5521 C   0  0  0  0  0  0  0  0  0  0  0  0
  1  2  1  0
  2  3  1  0
  3  4  2  0
  3  5  2  0
  3  6  1  0
  6  7  1  0
  7  8  1  0
  8  9  2  0
  9 10  1  0
 10 11  2  0
 11 12  1  0
 11 13  1  0
 13 14  2  0
 14 15  1  0
 14  8  1  0
M  END
>  <id>  (10) 
50611

>  <inchikey>  (10) 
CZXIYJPCHZSMDX-UHFFFAOYSA-N

>  <alias>  (10) 
None

>  <smiles>  (10) 
CCS(=O)(=O)NCc1cnc(C)cc1C

>  <path>  (10) 
/opt/xchem-fragalysis-2/maxwin/BulkDock/SCRATCH/211010/C885-P50/C885-P50.minimised.mol

>  <distance_score>  (10) 
0.773801

>  <energy_score>  (10) 
-28.004284

>  <compound>  (10) 
CZXIYJPCHZSMDX-UHFFFAOYSA-N

>  <compound_id>  (10) 
885

>  <target>  (10) 
Flavi_NS5_RdRp

>  <tags>  (10) 
['JA curated YES', 'Fragmenstein placed', 'DF curated INTERESTING', 'Thumb Site 2 merge', 'Knitwork pure merge', 'Enamine_Order_1968912', 'acceptable']

>  <SLURM_JOB_ID>  (10) 
211010

>  <SLURM_JOB_NAME>  (10) 
BulkDock.place:Flavi_NS5_RdRp:RdRp_knitwork_thumb_site_2_pure_split4000_batch000

>  <csv_name>  (10) 
RdRp_knitwork_thumb_site_2_pure_split4000_batch000.csv

>  <scratch_subdir>  (10) 
['/opt/xchem-fragalysis-2/maxwin/BulkDock/SCRATCH/211010/C885-P50']

>  <fragmenstein_runtime>  (10) 
[1.7871043682098389]

>  <fragmenstein_outcome>  (10) 
['acceptable']

>  <fragmenstein_mode>  (10) 
['expansion']

>  <fragmenstein_error>  (10) 
['']

>  <exports>  (10) 
['/opt/xchem-fragalysis-2/maxwin/BulkDock/OUTPUTS/RdRp_knitwork_thumb_site_2_pure_split4000_batch000_211010.sdf', '/opt/xchem-fragalysis-2/maxwin/BulkDock/OUTPUTS/RdRp_knitwork_thumb_site_2_pure_fragalysis.sdf', '/opt/xchem-fragalysis-2/maxwin/RdRp_FFF/quotes/JA_curated_and_manual_ordered.sdf', '/opt/xchem-fragalysis-2/maxwin/RdRp_FFF/curation/Curated_DF.sdf']

>  <Multi-SuCOS>  (10) 
nan

>  <merge_set>  (10) 
nan

$$$$
XDGUIPBTSIDPMH-UHFFFAOYSA-N
     RDKit          3D

 14 14  0  0  0  0  0  0  0  0999 V2000
  -14.6342  -69.4153  -22.6921 C   0  0  0  0  0  0  0  0  0  0  0  0
  -15.1664  -69.5394  -21.2783 C   0  0  0  0  0  0  0  0  0  0  0  0
  -13.8803  -69.8049  -20.0609 S   0  0  0  0  0  0  0  0  0  0  0  0
  -12.9182  -68.7352  -20.1463 O   0  0  0  0  0  0  0  0  0  0  0  0
  -14.4963  -70.1618  -18.7978 O   0  0  0  0  0  0  0  0  0  0  0  0
  -13.1726  -71.2215  -20.5877 N   0  0  0  0  0  0  0  0  0  0  0  0
  -11.8288  -71.1592  -21.1666 C   0  0  0  0  0  0  0  0  0  0  0  0
  -10.6891  -71.1971  -20.1737 C   0  0  0  0  0  0  0  0  0  0  0  0
  -10.8348  -71.6924  -18.8710 C   0  0  0  0  0  0  0  0  0  0  0  0
   -9.7244  -71.7528  -18.0366 C   0  0  0  0  0  0  0  0  0  0  0  0
   -8.4848  -71.3662  -18.3990 N   0  0  0  0  0  0  0  0  0  0  0  0
   -8.3543  -70.8929  -19.6600 C   0  0  0  0  0  0  0  0  0  0  0  0
   -9.4070  -70.7945  -20.5622 C   0  0  0  0  0  0  0  0  0  0  0  0
   -9.1095  -70.1975  -22.1353 Cl  0  0  0  0  0  0  0  0  0  0  0  0
  1  2  1  0
  2  3  1  0
  3  4  2  0
  3  5  2  0
  3  6  1  0
  6  7  1  0
  7  8  1  0
  8  9  2  0
  9 10  1  0
 10 11  2  0
 11 12  1  0
 12 13  2  0
 13 14  1  0
 13  8  1  0
M  END
>  <id>  (11) 
50614

>  <inchikey>  (11) 
XDGUIPBTSIDPMH-UHFFFAOYSA-N

>  <alias>  (11) 
None

>  <smiles>  (11) 
CCS(=O)(=O)NCc1ccncc1Cl

>  <path>  (11) 
/opt/xchem-fragalysis-2/maxwin/BulkDock/SCRATCH/211010/C890-P50/C890-P50.minimised.mol

>  <distance_score>  (11) 
0.706599

>  <energy_score>  (11) 
-30.408529

>  <compound>  (11) 
XDGUIPBTSIDPMH-UHFFFAOYSA-N

>  <compound_id>  (11) 
890

>  <target>  (11) 
Flavi_NS5_RdRp

>  <tags>  (11) 
['JA curated YES', 'Fragmenstein placed', 'DF curated INTERESTING', 'Enamine_Quote_1977854', 'Thumb Site 2 merge', 'Knitwork pure merge', 'Enamine_Order_1968912', 'acceptable']

>  <SLURM_JOB_ID>  (11) 
211010

>  <SLURM_JOB_NAME>  (11) 
BulkDock.place:Flavi_NS5_RdRp:RdRp_knitwork_thumb_site_2_pure_split4000_batch000

>  <csv_name>  (11) 
RdRp_knitwork_thumb_site_2_pure_split4000_batch000.csv

>  <scratch_subdir>  (11) 
['/opt/xchem-fragalysis-2/maxwin/BulkDock/SCRATCH/211010/C890-P50']

>  <fragmenstein_runtime>  (11) 
[1.2955694198608398]

>  <fragmenstein_outcome>  (11) 
['acceptable']

>  <fragmenstein_mode>  (11) 
['expansion']

>  <fragmenstein_error>  (11) 
['']

>  <exports>  (11) 
['/opt/xchem-fragalysis-2/maxwin/BulkDock/OUTPUTS/RdRp_knitwork_thumb_site_2_pure_split4000_batch000_211010.sdf', '/opt/xchem-fragalysis-2/maxwin/BulkDock/OUTPUTS/RdRp_knitwork_thumb_site_2_pure_fragalysis.sdf', '/opt/xchem-fragalysis-2/maxwin/RdRp_FFF/quotes/JA_curated_and_manual_ordered.sdf', '/opt/xchem-fragalysis-2/maxwin/RdRp_FFF/curation/Curated_DF.sdf']

>  <Multi-SuCOS>  (11) 
nan

>  <merge_set>  (11) 
nan

$$$$
BCMFRBFZBGDNRH-UHFFFAOYSA-N
     RDKit          3D

 14 14  0  0  0  0  0  0  0  0999 V2000
  -14.6006  -69.4550  -22.6938 C   0  0  0  0  0  0  0  0  0  0  0  0
  -15.1677  -69.6591  -21.3035 C   0  0  0  0  0  0  0  0  0  0  0  0
  -13.9111  -69.7523  -20.0312 S   0  0  0  0  0  0  0  0  0  0  0  0
  -13.0679  -68.5868  -20.1030 O   0  0  0  0  0  0  0  0  0  0  0  0
  -14.5351  -70.1483  -18.7849 O   0  0  0  0  0  0  0  0  0  0  0  0
  -13.0163  -71.0804  -20.4793 N   0  0  0  0  0  0  0  0  0  0  0  0
  -11.7288  -70.8833  -21.1426 C   0  0  0  0  0  0  0  0  0  0  0  0
  -10.5112  -71.0653  -20.2692 C   0  0  0  0  0  0  0  0  0  0  0  0
  -10.5526  -70.9501  -18.8799 C   0  0  0  0  0  0  0  0  0  0  0  0
   -9.4885  -71.1188  -18.0541 N   0  0  0  0  0  0  0  0  0  0  0  0
   -8.3022  -71.3625  -18.6428 C   0  0  0  0  0  0  0  0  0  0  0  0
   -8.1322  -71.4497  -20.0115 C   0  0  0  0  0  0  0  0  0  0  0  0
   -9.2511  -71.3131  -20.8413 C   0  0  0  0  0  0  0  0  0  0  0  0
   -9.0755  -71.4068  -22.3260 C   0  0  0  0  0  0  0  0  0  0  0  0
  1  2  1  0
  2  3  1  0
  3  4  2  0
  3  5  2  0
  3  6  1  0
  6  7  1  0
  7  8  1  0
  8  9  2  0
  9 10  1  0
 10 11  2  0
 11 12  1  0
 12 13  2  0
 13 14  1  0
 13  8  1  0
M  END
>  <id>  (12) 
50640

>  <inchikey>  (12) 
BCMFRBFZBGDNRH-UHFFFAOYSA-N

>  <alias>  (12) 
None

>  <smiles>  (12) 
CCS(=O)(=O)NCc1cnccc1C

>  <path>  (12) 
/opt/xchem-fragalysis-2/maxwin/BulkDock/SCRATCH/211010/C915-P50/C915-P50.minimised.mol

>  <distance_score>  (12) 
0.896937

>  <energy_score>  (12) 
-26.981517

>  <compound>  (12) 
BCMFRBFZBGDNRH-UHFFFAOYSA-N

>  <compound_id>  (12) 
915

>  <target>  (12) 
Flavi_NS5_RdRp

>  <tags>  (12) 
['JA curated YES', 'Fragmenstein placed', 'DF curated INTERESTING', 'Thumb Site 2 merge', 'Knitwork pure merge', 'Enamine_Order_1968912', 'acceptable']

>  <SLURM_JOB_ID>  (12) 
211010

>  <SLURM_JOB_NAME>  (12) 
BulkDock.place:Flavi_NS5_RdRp:RdRp_knitwork_thumb_site_2_pure_split4000_batch000

>  <csv_name>  (12) 
RdRp_knitwork_thumb_site_2_pure_split4000_batch000.csv

>  <scratch_subdir>  (12) 
['/opt/xchem-fragalysis-2/maxwin/BulkDock/SCRATCH/211010/C915-P50']

>  <fragmenstein_runtime>  (12) 
[1.3582980632781982]

>  <fragmenstein_outcome>  (12) 
['acceptable']

>  <fragmenstein_mode>  (12) 
['expansion']

>  <fragmenstein_error>  (12) 
['']

>  <exports>  (12) 
['/opt/xchem-fragalysis-2/maxwin/BulkDock/OUTPUTS/RdRp_knitwork_thumb_site_2_pure_split4000_batch000_211010.sdf', '/opt/xchem-fragalysis-2/maxwin/BulkDock/OUTPUTS/RdRp_knitwork_thumb_site_2_pure_fragalysis.sdf', '/opt/xchem-fragalysis-2/maxwin/RdRp_FFF/quotes/JA_curated_and_manual_ordered.sdf', '/opt/xchem-fragalysis-2/maxwin/RdRp_FFF/curation/Curated_DF.sdf']

>  <Multi-SuCOS>  (12) 
nan

>  <merge_set>  (12) 
nan

$$$$
KUNYWHXFLWUFPB-UHFFFAOYSA-N
     RDKit          3D

 13 13  0  0  0  0  0  0  0  0999 V2000
  -15.4062  -70.2297  -21.2706 C   0  0  0  0  0  0  0  0  0  0  0  0
  -14.1364  -71.0236  -21.0188 C   0  0  0  0  0  0  0  0  0  0  0  0
  -13.1056  -70.2089  -19.7956 S   0  0  0  0  0  0  0  0  0  0  0  0
  -12.9757  -68.8043  -20.1119 O   0  0  0  0  0  0  0  0  0  0  0  0
  -13.6599  -70.5968  -18.5140 O   0  0  0  0  0  0  0  0  0  0  0  0
  -11.5863  -70.9819  -20.0273 N   0  0  0  0  0  0  0  0  0  0  0  0
  -10.5769  -70.8829  -18.9354 C   0  0  0  0  0  0  0  0  0  0  0  0
  -11.0151  -70.9148  -21.3538 C   0  0  0  0  0  0  0  0  0  0  0  0
  -10.0489  -71.8379  -21.7371 C   0  0  0  0  0  0  0  0  0  0  0  0
   -9.6021  -71.8545  -23.0545 C   0  0  0  0  0  0  0  0  0  0  0  0
  -10.1177  -70.9301  -23.9452 C   0  0  0  0  0  0  0  0  0  0  0  0
  -11.0213  -70.0024  -23.6028 N   0  0  0  0  0  0  0  0  0  0  0  0
  -11.4312  -70.0121  -22.3227 C   0  0  0  0  0  0  0  0  0  0  0  0
  1  2  1  0
  2  3  1  0
  3  4  2  0
  3  5  2  0
  3  6  1  0
  6  7  1  0
  6  8  1  0
  8  9  2  0
  9 10  1  0
 10 11  2  0
 11 12  1  0
 12 13  2  0
 13  8  1  0
M  END
>  <id>  (13) 
51151

>  <inchikey>  (13) 
KUNYWHXFLWUFPB-UHFFFAOYSA-N

>  <alias>  (13) 
None

>  <smiles>  (13) 
CCS(=O)(=O)N(C)c1cccnc1

>  <path>  (13) 
/opt/xchem-fragalysis-2/maxwin/BulkDock/SCRATCH/211013/C1345-P17/C1345-P17.minimised.mol

>  <distance_score>  (13) 
0.638958

>  <energy_score>  (13) 
-34.33625

>  <compound>  (13) 
KUNYWHXFLWUFPB-UHFFFAOYSA-N

>  <compound_id>  (13) 
1345

>  <target>  (13) 
Flavi_NS5_RdRp

>  <tags>  (13) 
['JA curated YES', 'Fragmenstein placed', 'DF curated INTERESTING', 'Thumb Site 2 merge', 'Knitwork impure merge', 'Enamine_Order_1968912', 'acceptable']

>  <SLURM_JOB_ID>  (13) 
211013

>  <SLURM_JOB_NAME>  (13) 
BulkDock.place:Flavi_NS5_RdRp:RdRp_knitwork_thumb_site_2_impure_split4000_batch000

>  <csv_name>  (13) 
RdRp_knitwork_thumb_site_2_impure_split4000_batch000.csv

>  <scratch_subdir>  (13) 
['/opt/xchem-fragalysis-2/maxwin/BulkDock/SCRATCH/211013/C1345-P17']

>  <fragmenstein_runtime>  (13) 
[1.338061809539795]

>  <fragmenstein_outcome>  (13) 
['acceptable']

>  <fragmenstein_mode>  (13) 
['expansion']

>  <fragmenstein_error>  (13) 
['']

>  <exports>  (13) 
['/opt/xchem-fragalysis-2/maxwin/BulkDock/OUTPUTS/RdRp_knitwork_thumb_site_2_impure_split4000_batch000_211013.sdf', '/opt/xchem-fragalysis-2/maxwin/BulkDock/OUTPUTS/RdRp_knitwork_thumb_site_2_impure_fragalysis.sdf', '/opt/xchem-fragalysis-2/maxwin/RdRp_FFF/quotes/JA_curated_and_manual_ordered.sdf', '/opt/xchem-fragalysis-2/maxwin/RdRp_FFF/curation/Curated_DF.sdf']

>  <Multi-SuCOS>  (13) 
nan

>  <merge_set>  (13) 
nan

$$$$
AJQQGJNKKDEODG-UHFFFAOYSA-N
     RDKit          3D

 11 12  0  0  0  0  0  0  0  0999 V2000
  -15.3054  -44.7297  -21.1642 C   0  0  0  0  0  0  0  0  0  0  0  0
  -14.5560  -43.6147  -21.5105 C   0  0  0  0  0  0  0  0  0  0  0  0
  -13.7686  -43.0043  -20.5330 C   0  0  0  0  0  0  0  0  0  0  0  0
  -13.0322  -41.7773  -20.8209 C   0  0  0  0  0  0  0  0  0  0  0  0
  -13.3224  -40.7019  -21.6423 C   0  0  0  0  0  0  0  0  0  0  0  0
  -12.3431  -39.7413  -21.5814 N   0  0  0  0  0  0  0  0  0  0  0  0
  -11.4766  -40.1978  -20.7086 C   0  0  0  0  0  0  0  0  0  0  0  0
  -11.8175  -41.4437  -20.2632 N   0  0  0  0  0  0  0  0  0  0  0  0
  -13.7697  -43.5516  -19.2490 C   0  0  0  0  0  0  0  0  0  0  0  0
  -14.5574  -44.6652  -18.9993 C   0  0  0  0  0  0  0  0  0  0  0  0
  -15.3133  -45.2828  -19.9305 N   0  0  0  0  0  0  0  0  0  0  0  0
  1  2  2  0
  2  3  1  0
  3  4  1  0
  4  5  2  0
  5  6  1  0
  6  7  2  0
  7  8  1  0
  3  9  2  0
  9 10  1  0
 10 11  2  0
 11  1  1  0
  8  4  1  0
M  END
>  <id>  (14) 
51564

>  <inchikey>  (14) 
AJQQGJNKKDEODG-UHFFFAOYSA-N

>  <alias>  (14) 
None

>  <smiles>  (14) 
c1cc(-c2cnc[nH]2)ccn1

>  <path>  (14) 
/opt/xchem-fragalysis-2/maxwin/BulkDock/SCRATCH/211036/C8715-P42/C8715-P42.minimised.mol

>  <distance_score>  (14) 
0.859558

>  <energy_score>  (14) 
-11.85689

>  <compound>  (14) 
AJQQGJNKKDEODG-UHFFFAOYSA-N

>  <compound_id>  (14) 
8715

>  <target>  (14) 
Flavi_NS5_RdRp

>  <tags>  (14) 
['Fragmenstein placed', 'Enamine_Quote_1970815', 'Knitwork impure merge', 'Primer grip/N-pocket merge', 'acceptable']

>  <SLURM_JOB_ID>  (14) 
211036

>  <SLURM_JOB_NAME>  (14) 
BulkDock.place:Flavi_NS5_RdRp:RdRp_knitwork_primer_grip_n_pocket_impure_split4000_batch004

>  <csv_name>  (14) 
RdRp_knitwork_primer_grip_n_pocket_impure_split4000_batch004.csv

>  <scratch_subdir>  (14) 
['/opt/xchem-fragalysis-2/maxwin/BulkDock/SCRATCH/211036/C8715-P42']

>  <fragmenstein_runtime>  (14) 
[2.5739381313323975]

>  <fragmenstein_outcome>  (14) 
['acceptable']

>  <fragmenstein_mode>  (14) 
['expansion']

>  <fragmenstein_error>  (14) 
['']

>  <exports>  (14) 
['/opt/xchem-fragalysis-2/maxwin/BulkDock/OUTPUTS/RdRp_knitwork_primer_grip_n_pocket_impure_split4000_batch004_211036.sdf', '/opt/xchem-fragalysis-2/maxwin/BulkDock/OUTPUTS/RdRp_knitwork_primer_grip_n_pocket_impure_fragalysis.sdf']

>  <Multi-SuCOS>  (14) 
nan

>  <merge_set>  (14) 
nan

$$$$
XVUBRPZAPHYKMV-JTQLQIEISA-N
     RDKit          3D

 16 16  0  0  0  0  0  0  0  0999 V2000
  -10.2691  -71.0248  -23.6125 C   0  0  0  0  0  0  0  0  0  0  0  0
  -11.0752  -70.4272  -22.4714 C   0  0  0  0  0  0  0  0  0  0  0  0
  -11.2917  -71.4209  -21.3174 C   0  0  2  0  0  0  0  0  0  0  0  0
  -12.7051  -71.4142  -20.9103 N   0  0  0  0  0  0  0  0  0  0  0  0
  -13.4081  -70.1045  -20.1907 S   0  0  0  0  0  0  0  0  0  0  0  0
  -13.7855  -70.5062  -18.8521 O   0  0  0  0  0  0  0  0  0  0  0  0
  -12.6983  -68.8853  -20.4585 O   0  0  0  0  0  0  0  0  0  0  0  0
  -14.8259  -70.0985  -21.0973 N   0  0  0  0  0  0  0  0  0  0  0  0
  -14.6898  -69.7568  -22.5347 C   0  0  0  0  0  0  0  0  0  0  0  0
  -15.8725  -69.3043  -20.4600 C   0  0  0  0  0  0  0  0  0  0  0  0
  -10.2745  -71.3589  -20.1856 C   0  0  0  0  0  0  0  0  0  0  0  0
  -10.5709  -71.8870  -18.9225 C   0  0  0  0  0  0  0  0  0  0  0  0
   -9.5897  -71.8960  -17.9415 C   0  0  0  0  0  0  0  0  0  0  0  0
   -8.3367  -71.4357  -18.1225 N   0  0  0  0  0  0  0  0  0  0  0  0
   -8.0523  -70.9440  -19.3448 C   0  0  0  0  0  0  0  0  0  0  0  0
   -8.9691  -70.8824  -20.3841 C   0  0  0  0  0  0  0  0  0  0  0  0
  1  2  1  0
  3  2  1  6
  3  4  1  0
  4  5  1  0
  5  6  2  0
  5  7  2  0
  5  8  1  0
  8  9  1  0
  8 10  1  0
  3 11  1  0
 11 12  2  0
 12 13  1  0
 13 14  2  0
 14 15  1  0
 15 16  2  0
 16 11  1  0
M  END
>  <id>  (15) 
51809

>  <inchikey>  (15) 
XVUBRPZAPHYKMV-JTQLQIEISA-N

>  <alias>  (15) 
None

>  <smiles>  (15) 
CC[C@H](NS(=O)(=O)N(C)C)c1ccncc1

>  <path>  (15) 
/opt/xchem-fragalysis-2/maxwin/BulkDock/SCRATCH/211013/C6527-P17/C6527-P17.minimised.mol

>  <distance_score>  (15) 
0.765163

>  <energy_score>  (15) 
-27.994881

>  <compound>  (15) 
XVUBRPZAPHYKMV-UHFFFAOYSA-N

>  <compound_id>  (15) 
6527

>  <target>  (15) 
Flavi_NS5_RdRp

>  <tags>  (15) 
['AC curated YES', 'Fragmenstein placed', 'DF curated INTERESTING', 'Enamine_Quote_1970815', 'Thumb Site 2 merge', 'Knitwork impure merge', 'acceptable']

>  <SLURM_JOB_ID>  (15) 
211013

>  <SLURM_JOB_NAME>  (15) 
BulkDock.place:Flavi_NS5_RdRp:RdRp_knitwork_thumb_site_2_impure_split4000_batch000

>  <csv_name>  (15) 
RdRp_knitwork_thumb_site_2_impure_split4000_batch000.csv

>  <scratch_subdir>  (15) 
['/opt/xchem-fragalysis-2/maxwin/BulkDock/SCRATCH/211013/C6527-P17']

>  <fragmenstein_runtime>  (15) 
[3.3061165809631348]

>  <fragmenstein_outcome>  (15) 
['acceptable']

>  <fragmenstein_mode>  (15) 
['expansion']

>  <fragmenstein_error>  (15) 
['']

>  <exports>  (15) 
['/opt/xchem-fragalysis-2/maxwin/BulkDock/OUTPUTS/RdRp_knitwork_thumb_site_2_impure_split4000_batch000_211013.sdf', '/opt/xchem-fragalysis-2/maxwin/BulkDock/OUTPUTS/RdRp_knitwork_thumb_site_2_impure_fragalysis.sdf', '/opt/xchem-fragalysis-2/maxwin/RdRp_FFF/curation/Curated_DF.sdf', '/opt/xchem-fragalysis-2/maxwin/RdRp_FFF/curation/Curated_AC.sdf']

>  <Multi-SuCOS>  (15) 
nan

>  <merge_set>  (15) 
nan

$$$$
KGPMAROHLPCGEI-SNVBAGLBSA-N
     RDKit          3D

 21 21  0  0  0  0  0  0  0  0999 V2000
  -10.1222  -71.1526  -23.6117 C   0  0  0  0  0  0  0  0  0  0  0  0
  -11.3929  -71.4030  -22.8167 C   0  0  0  0  0  0  0  0  0  0  0  0
  -11.4708  -70.6477  -21.4846 C   0  0  1  0  0  0  0  0  0  0  0  0
  -12.8132  -70.8897  -20.9099 N   0  0  0  0  0  0  0  0  0  0  0  0
  -13.6044  -69.6298  -20.1816 S   0  0  0  0  0  0  0  0  0  0  0  0
  -12.6067  -68.7792  -19.5863 O   0  0  0  0  0  0  0  0  0  0  0  0
  -14.6667  -70.1986  -19.3818 O   0  0  0  0  0  0  0  0  0  0  0  0
  -14.3139  -68.7121  -21.5249 C   0  0  0  0  0  0  0  0  0  0  0  0
  -15.5650  -69.2896  -22.1352 C   0  0  0  0  0  0  0  0  0  0  0  0
  -15.2964  -70.3757  -23.1498 C   0  0  0  0  0  0  0  0  0  0  0  0
  -14.3132  -69.9682  -23.9904 F   0  0  0  0  0  0  0  0  0  0  0  0
  -14.8276  -71.4821  -22.5122 F   0  0  0  0  0  0  0  0  0  0  0  0
  -16.5590  -70.7074  -23.9352 C   0  0  0  0  0  0  0  0  0  0  0  0
  -17.0924  -69.5903  -24.5032 F   0  0  0  0  0  0  0  0  0  0  0  0
  -16.2717  -71.5604  -24.9491 F   0  0  0  0  0  0  0  0  0  0  0  0
  -10.3619  -71.0236  -20.5236 C   0  0  0  0  0  0  0  0  0  0  0  0
  -10.5022  -72.0205  -19.5518 C   0  0  0  0  0  0  0  0  0  0  0  0
   -9.4355  -72.3331  -18.7118 C   0  0  0  0  0  0  0  0  0  0  0  0
   -8.2461  -71.6462  -18.8767 C   0  0  0  0  0  0  0  0  0  0  0  0
   -8.0657  -70.6759  -19.7942 N   0  0  0  0  0  0  0  0  0  0  0  0
   -9.1246  -70.3817  -20.5846 C   0  0  0  0  0  0  0  0  0  0  0  0
  1  2  1  0
  3  2  1  6
  3  4  1  0
  4  5  1  0
  5  6  2  0
  5  7  2  0
  5  8  1  0
  8  9  1  0
  9 10  1  0
 10 11  1  0
 10 12  1  0
 10 13  1  0
 13 14  1  0
 13 15  1  0
  3 16  1  0
 16 17  2  0
 17 18  1  0
 18 19  2  0
 19 20  1  0
 20 21  2  0
 21 16  1  0
M  END
>  <id>  (16) 
51980

>  <inchikey>  (16) 
KGPMAROHLPCGEI-SNVBAGLBSA-N

>  <alias>  (16) 
None

>  <smiles>  (16) 
CC[C@@H](NS(=O)(=O)CCC(F)(F)C(F)F)c1cccnc1

>  <path>  (16) 
/opt/xchem-fragalysis-2/maxwin/BulkDock/SCRATCH/211013/C6950-P50/C6950-P50.minimised.mol

>  <distance_score>  (16) 
0.923923

>  <energy_score>  (16) 
-66.53151

>  <compound>  (16) 
KGPMAROHLPCGEI-UHFFFAOYSA-N

>  <compound_id>  (16) 
6950

>  <target>  (16) 
Flavi_NS5_RdRp

>  <tags>  (16) 
['AC curated YES', 'Fragmenstein placed', 'DF curated INTERESTING', 'Enamine_Quote_1970815', 'Thumb Site 2 merge', 'Knitwork impure merge', 'acceptable']

>  <SLURM_JOB_ID>  (16) 
211013

>  <SLURM_JOB_NAME>  (16) 
BulkDock.place:Flavi_NS5_RdRp:RdRp_knitwork_thumb_site_2_impure_split4000_batch000

>  <csv_name>  (16) 
RdRp_knitwork_thumb_site_2_impure_split4000_batch000.csv

>  <scratch_subdir>  (16) 
['/opt/xchem-fragalysis-2/maxwin/BulkDock/SCRATCH/211013/C6950-P50']

>  <fragmenstein_runtime>  (16) 
[3.2299387454986572]

>  <fragmenstein_outcome>  (16) 
['acceptable']

>  <fragmenstein_mode>  (16) 
['expansion']

>  <fragmenstein_error>  (16) 
['']

>  <exports>  (16) 
['/opt/xchem-fragalysis-2/maxwin/BulkDock/OUTPUTS/RdRp_knitwork_thumb_site_2_impure_split4000_batch000_211013.sdf', '/opt/xchem-fragalysis-2/maxwin/BulkDock/OUTPUTS/RdRp_knitwork_thumb_site_2_impure_fragalysis.sdf', '/opt/xchem-fragalysis-2/maxwin/RdRp_FFF/curation/Curated_DF.sdf', '/opt/xchem-fragalysis-2/maxwin/RdRp_FFF/curation/Curated_AC.sdf']

>  <Multi-SuCOS>  (16) 
nan

>  <merge_set>  (16) 
nan

$$$$
AJQQGJNKKDEODG-UHFFFAOYSA-N
     RDKit          3D

 11 12  0  0  0  0  0  0  0  0999 V2000
  -15.3054  -44.7297  -21.1642 C   0  0  0  0  0  0  0  0  0  0  0  0
  -14.5560  -43.6147  -21.5105 C   0  0  0  0  0  0  0  0  0  0  0  0
  -13.7686  -43.0043  -20.5330 C   0  0  0  0  0  0  0  0  0  0  0  0
  -13.0322  -41.7773  -20.8209 C   0  0  0  0  0  0  0  0  0  0  0  0
  -13.3224  -40.7019  -21.6423 C   0  0  0  0  0  0  0  0  0  0  0  0
  -12.3431  -39.7413  -21.5814 N   0  0  0  0  0  0  0  0  0  0  0  0
  -11.4766  -40.1978  -20.7086 C   0  0  0  0  0  0  0  0  0  0  0  0
  -11.8175  -41.4437  -20.2632 N   0  0  0  0  0  0  0  0  0  0  0  0
  -13.7697  -43.5516  -19.2490 C   0  0  0  0  0  0  0  0  0  0  0  0
  -14.5574  -44.6652  -18.9993 C   0  0  0  0  0  0  0  0  0  0  0  0
  -15.3133  -45.2828  -19.9305 N   0  0  0  0  0  0  0  0  0  0  0  0
  1  2  2  0
  2  3  1  0
  3  4  1  0
  4  5  2  0
  5  6  1  0
  6  7  2  0
  7  8  1  0
  3  9  2  0
  9 10  1  0
 10 11  2  0
 11  1  1  0
  8  4  1  0
M  END
>  <id>  (17) 
55140

>  <inchikey>  (17) 
AJQQGJNKKDEODG-UHFFFAOYSA-N

>  <alias>  (17) 
None

>  <smiles>  (17) 
c1cc(-c2cnc[nH]2)ccn1

>  <path>  (17) 
/opt/xchem-fragalysis-2/maxwin/BulkDock/SCRATCH/211032/C8715-P42/C8715-P42.minimised.mol

>  <distance_score>  (17) 
0.859558

>  <energy_score>  (17) 
-11.85689

>  <compound>  (17) 
AJQQGJNKKDEODG-UHFFFAOYSA-N

>  <compound_id>  (17) 
8715

>  <target>  (17) 
Flavi_NS5_RdRp

>  <tags>  (17) 
['DF curated YES', 'AC curated YES', 'Fragmenstein placed', 'Enamine_Quote_1970815', 'Knitwork impure merge', 'Primer grip/N-pocket merge', 'acceptable']

>  <SLURM_JOB_ID>  (17) 
211032

>  <SLURM_JOB_NAME>  (17) 
BulkDock.place:Flavi_NS5_RdRp:RdRp_knitwork_primer_grip_n_pocket_impure_split4000_batch000

>  <csv_name>  (17) 
RdRp_knitwork_primer_grip_n_pocket_impure_split4000_batch000.csv

>  <scratch_subdir>  (17) 
['/opt/xchem-fragalysis-2/maxwin/BulkDock/SCRATCH/211032/C8715-P42']

>  <fragmenstein_runtime>  (17) 
[1.4302153587341309]

>  <fragmenstein_outcome>  (17) 
['acceptable']

>  <fragmenstein_mode>  (17) 
['expansion']

>  <fragmenstein_error>  (17) 
['']

>  <exports>  (17) 
['/opt/xchem-fragalysis-2/maxwin/BulkDock/OUTPUTS/RdRp_knitwork_primer_grip_n_pocket_impure_split4000_batch000_211032.sdf', '/opt/xchem-fragalysis-2/maxwin/BulkDock/OUTPUTS/RdRp_knitwork_primer_grip_n_pocket_impure_fragalysis.sdf', '/opt/xchem-fragalysis-2/maxwin/RdRp_FFF/curation/Curated_DF.sdf', '/opt/xchem-fragalysis-2/maxwin/RdRp_FFF/curation/Curated_AC.sdf']

>  <Multi-SuCOS>  (17) 
nan

>  <merge_set>  (17) 
nan

$$$$
DNLUSRYLIQAQAE-NSHDSACASA-N
     RDKit          3D

 21 23  0  0  0  0  0  0  0  0999 V2000
  -15.7661  -38.7909  -23.3149 C   0  0  0  0  0  0  0  0  0  0  0  0
  -14.3812  -39.3107  -22.9399 C   0  0  2  0  0  0  0  0  0  0  0  0
  -14.4960  -40.4611  -22.0578 N   0  0  0  0  0  0  0  0  0  0  0  0
  -13.4108  -41.2885  -21.3481 C   0  0  0  0  0  0  0  0  0  0  0  0
  -12.2568  -41.1338  -21.2950 O   0  0  0  0  0  0  0  0  0  0  0  0
  -13.9911  -42.5038  -20.6890 C   0  0  0  0  0  0  0  0  0  0  0  0
  -13.4885  -42.8730  -19.4471 C   0  0  0  0  0  0  0  0  0  0  0  0
  -14.0130  -43.9991  -18.8481 C   0  0  0  0  0  0  0  0  0  0  0  0
  -14.9525  -44.7904  -19.4071 N   0  0  0  0  0  0  0  0  0  0  0  0
  -15.4280  -44.4284  -20.6293 C   0  0  0  0  0  0  0  0  0  0  0  0
  -16.4514  -45.2507  -21.1971 N   0  0  0  0  0  0  0  0  0  0  0  0
  -16.8921  -46.4511  -20.6629 C   0  0  0  0  0  0  0  0  0  0  0  0
  -17.8765  -46.9645  -21.4757 C   0  0  0  0  0  0  0  0  0  0  0  0
  -18.0847  -46.0429  -22.5194 C   0  0  0  0  0  0  0  0  0  0  0  0
  -17.1957  -45.0083  -22.3341 C   0  0  0  0  0  0  0  0  0  0  0  0
  -14.9668  -43.2984  -21.3059 C   0  0  0  0  0  0  0  0  0  0  0  0
  -13.5082  -38.2226  -22.3677 C   0  0  0  0  0  0  0  0  0  0  0  0
  -13.7911  -36.9352  -22.2756 N   0  0  0  0  0  0  0  0  0  0  0  0
  -12.6501  -36.3159  -21.8391 C   0  0  0  0  0  0  0  0  0  0  0  0
  -11.6426  -37.2292  -21.6727 C   0  0  0  0  0  0  0  0  0  0  0  0
  -12.2044  -38.4370  -21.9781 N   0  0  0  0  0  0  0  0  0  0  0  0
  2  1  1  1
  2  3  1  0
  3  4  1  0
  4  5  2  0
  4  6  1  0
  6  7  2  0
  7  8  1  0
  8  9  2  0
  9 10  1  0
 10 11  1  0
 11 12  1  0
 12 13  2  0
 13 14  1  0
 14 15  2  0
 10 16  2  0
  2 17  1  0
 17 18  2  0
 18 19  1  0
 19 20  2  0
 20 21  1  0
 16  6  1  0
 21 17  1  0
 15 11  1  0
M  END
>  <id>  (18) 
61491

>  <inchikey>  (18) 
DNLUSRYLIQAQAE-NSHDSACASA-N

>  <alias>  (18) 
None

>  <smiles>  (18) 
C[C@H](NC(=O)c1ccnc(-n2cccc2)c1)c1ncc[nH]1

>  <path>  (18) 
/opt/xchem-fragalysis-2/maxwin/BulkDock/SCRATCH/217041/C19774-P42/C19774-P42.minimised.mol

>  <distance_score>  (18) 
0.866441

>  <energy_score>  (18) 
-46.182851

>  <compound>  (18) 
DNLUSRYLIQAQAE-UHFFFAOYSA-N

>  <compound_id>  (18) 
19774

>  <target>  (18) 
Flavi_NS5_RdRp

>  <tags>  (18) 
['DF curated YES', 'Fragmenstein placed', 'Enamine_Quote_1970815', 'Knitwork pure merge', 'Primer grip/N-pocket merge', 'acceptable']

>  <SLURM_JOB_ID>  (18) 
217041

>  <SLURM_JOB_NAME>  (18) 
BulkDock.place:Flavi_NS5_RdRp:RdRp_knitwork_primer_grip_n_pocket_pure_split1800_batch007

>  <csv_name>  (18) 
RdRp_knitwork_primer_grip_n_pocket_pure_split1800_batch007.csv

>  <scratch_subdir>  (18) 
/opt/xchem-fragalysis-2/maxwin/BulkDock/SCRATCH/217041/C19774-P42

>  <fragmenstein_runtime>  (18) 
3.960283

>  <fragmenstein_outcome>  (18) 
acceptable

>  <fragmenstein_mode>  (18) 
expansion

>  <fragmenstein_error>  (18) 


>  <exports>  (18) 
['/opt/xchem-fragalysis-2/maxwin/BulkDock/OUTPUTS/RdRp_knitwork_primer_grip_n_pocket_pure_split1800_batch007_217041.sdf', '/opt/xchem-fragalysis-2/maxwin/BulkDock/OUTPUTS/RdRp_knitwork_primer_grip_n_pocket_pure_fragalysis.sdf', '/opt/xchem-fragalysis-2/maxwin/RdRp_FFF/curation/Curated_DF.sdf']

>  <Multi-SuCOS>  (18) 
nan

>  <merge_set>  (18) 
nan

$$$$
FJIZSRBICNYNGK-UHFFFAOYSA-N
     RDKit          3D

 14 15  0  0  0  0  0  0  0  0999 V2000
  -16.3978  -46.4739  -21.0360 N   0  0  0  0  0  0  0  0  0  0  0  0
  -15.8545  -45.3369  -20.4469 C   0  0  0  0  0  0  0  0  0  0  0  0
  -15.9081  -44.1101  -21.0950 C   0  0  0  0  0  0  0  0  0  0  0  0
  -15.4613  -42.9733  -20.4261 C   0  0  0  0  0  0  0  0  0  0  0  0
  -15.5572  -41.7021  -21.0300 N   0  0  0  0  0  0  0  0  0  0  0  0
  -14.4667  -41.4244  -21.9887 C   0  0  0  0  0  0  0  0  0  0  0  0
  -13.1515  -41.0405  -21.3702 C   0  0  0  0  0  0  0  0  0  0  0  0
  -12.3035  -41.8411  -20.6387 C   0  0  0  0  0  0  0  0  0  0  0  0
  -11.2821  -41.0375  -20.2293 N   0  0  0  0  0  0  0  0  0  0  0  0
  -11.5216  -39.7942  -20.7408 C   0  0  0  0  0  0  0  0  0  0  0  0
  -12.6318  -39.7637  -21.4462 N   0  0  0  0  0  0  0  0  0  0  0  0
  -14.8998  -43.1309  -19.1618 C   0  0  0  0  0  0  0  0  0  0  0  0
  -14.8222  -44.4040  -18.6269 C   0  0  0  0  0  0  0  0  0  0  0  0
  -15.2815  -45.5113  -19.2436 N   0  0  0  0  0  0  0  0  0  0  0  0
  1  2  1  0
  2  3  2  0
  3  4  1  0
  4  5  1  0
  5  6  1  0
  6  7  1  0
  7  8  2  0
  8  9  1  0
  9 10  1  0
 10 11  2  0
  4 12  2  0
 12 13  1  0
 13 14  2  0
 14  2  1  0
 11  7  1  0
M  END
>  <id>  (19) 
69503

>  <inchikey>  (19) 
FJIZSRBICNYNGK-UHFFFAOYSA-N

>  <alias>  (19) 
None

>  <smiles>  (19) 
Nc1cc(NCc2c[nH]cn2)ccn1

>  <path>  (19) 
/opt/xchem-fragalysis-2/maxwin/BulkDock/SCRATCH/217040/C12483-P42/C12483-P42.minimised.mol

>  <distance_score>  (19) 
0.992544

>  <energy_score>  (19) 
-17.539288

>  <compound>  (19) 
FJIZSRBICNYNGK-UHFFFAOYSA-N

>  <compound_id>  (19) 
12483

>  <target>  (19) 
Flavi_NS5_RdRp

>  <tags>  (19) 
['DF curated YES', 'Fragmenstein placed', 'Enamine_Quote_1977854', 'Enamine_Quote_1970815', 'Knitwork pure merge', 'AC curated INTERESTING', 'Primer grip/N-pocket merge', 'acceptable']

>  <SLURM_JOB_ID>  (19) 
217040

>  <SLURM_JOB_NAME>  (19) 
BulkDock.place:Flavi_NS5_RdRp:RdRp_knitwork_primer_grip_n_pocket_pure_split1800_batch006

>  <csv_name>  (19) 
RdRp_knitwork_primer_grip_n_pocket_pure_split1800_batch006.csv

>  <scratch_subdir>  (19) 
/opt/xchem-fragalysis-2/maxwin/BulkDock/SCRATCH/217040/C12483-P42

>  <fragmenstein_runtime>  (19) 
1.807809

>  <fragmenstein_outcome>  (19) 
acceptable

>  <fragmenstein_mode>  (19) 
expansion

>  <fragmenstein_error>  (19) 


>  <exports>  (19) 
['/opt/xchem-fragalysis-2/maxwin/BulkDock/OUTPUTS/RdRp_knitwork_primer_grip_n_pocket_pure_split1800_batch006_217040.sdf', '/opt/xchem-fragalysis-2/maxwin/BulkDock/OUTPUTS/RdRp_knitwork_primer_grip_n_pocket_pure_fragalysis.sdf', '/opt/xchem-fragalysis-2/maxwin/RdRp_FFF/curation/Curated_DF.sdf', '/opt/xchem-fragalysis-2/maxwin/RdRp_FFF/curation/Curated_AC.sdf']

>  <Multi-SuCOS>  (19) 
nan

>  <merge_set>  (19) 
nan

$$$$
DJVQSQXCKGQNJE-UHFFFAOYSA-N
     RDKit          3D

 14 15  0  0  0  0  0  0  0  0999 V2000
  -16.2378  -43.8993  -22.7721 C   0  0  0  0  0  0  0  0  0  0  0  0
  -15.7749  -44.0430  -21.3554 C   0  0  0  0  0  0  0  0  0  0  0  0
  -15.6875  -45.3164  -20.7945 C   0  0  0  0  0  0  0  0  0  0  0  0
  -15.2518  -45.5909  -19.5423 N   0  0  0  0  0  0  0  0  0  0  0  0
  -14.9008  -44.5233  -18.8014 C   0  0  0  0  0  0  0  0  0  0  0  0
  -14.9674  -43.2141  -19.2505 C   0  0  0  0  0  0  0  0  0  0  0  0
  -15.4165  -42.9565  -20.5506 C   0  0  0  0  0  0  0  0  0  0  0  0
  -15.4956  -41.6251  -21.0125 N   0  0  0  0  0  0  0  0  0  0  0  0
  -14.4198  -41.2328  -21.9463 C   0  0  0  0  0  0  0  0  0  0  0  0
  -13.0910  -40.9331  -21.3184 C   0  0  0  0  0  0  0  0  0  0  0  0
  -12.2832  -41.7915  -20.6074 C   0  0  0  0  0  0  0  0  0  0  0  0
  -11.2191  -41.0488  -20.1908 N   0  0  0  0  0  0  0  0  0  0  0  0
  -11.3952  -39.7858  -20.6790 C   0  0  0  0  0  0  0  0  0  0  0  0
  -12.5043  -39.6855  -21.3790 N   0  0  0  0  0  0  0  0  0  0  0  0
  1  2  1  0
  2  3  2  0
  3  4  1  0
  4  5  2  0
  5  6  1  0
  6  7  2  0
  7  8  1  0
  8  9  1  0
  9 10  1  0
 10 11  2  0
 11 12  1  0
 12 13  1  0
 13 14  2  0
  7  2  1  0
 14 10  1  0
M  END
>  <id>  (20) 
69511

>  <inchikey>  (20) 
DJVQSQXCKGQNJE-UHFFFAOYSA-N

>  <alias>  (20) 
None

>  <smiles>  (20) 
Cc1cnccc1NCc1c[nH]cn1

>  <path>  (20) 
/opt/xchem-fragalysis-2/maxwin/BulkDock/SCRATCH/217040/C12548-P42/C12548-P42.minimised.mol

>  <distance_score>  (20) 
0.997294

>  <energy_score>  (20) 
-27.523897

>  <compound>  (20) 
DJVQSQXCKGQNJE-UHFFFAOYSA-N

>  <compound_id>  (20) 
12548

>  <target>  (20) 
Flavi_NS5_RdRp

>  <tags>  (20) 
['DF curated YES', 'Fragmenstein placed', 'Enamine_Quote_1970815', 'Knitwork pure merge', 'Primer grip/N-pocket merge', 'acceptable']

>  <SLURM_JOB_ID>  (20) 
217040

>  <SLURM_JOB_NAME>  (20) 
BulkDock.place:Flavi_NS5_RdRp:RdRp_knitwork_primer_grip_n_pocket_pure_split1800_batch006

>  <csv_name>  (20) 
RdRp_knitwork_primer_grip_n_pocket_pure_split1800_batch006.csv

>  <scratch_subdir>  (20) 
/opt/xchem-fragalysis-2/maxwin/BulkDock/SCRATCH/217040/C12548-P42

>  <fragmenstein_runtime>  (20) 
1.837259

>  <fragmenstein_outcome>  (20) 
acceptable

>  <fragmenstein_mode>  (20) 
expansion

>  <fragmenstein_error>  (20) 


>  <exports>  (20) 
['/opt/xchem-fragalysis-2/maxwin/BulkDock/OUTPUTS/RdRp_knitwork_primer_grip_n_pocket_pure_split1800_batch006_217040.sdf', '/opt/xchem-fragalysis-2/maxwin/BulkDock/OUTPUTS/RdRp_knitwork_primer_grip_n_pocket_pure_fragalysis.sdf', '/opt/xchem-fragalysis-2/maxwin/RdRp_FFF/curation/Curated_DF.sdf']

>  <Multi-SuCOS>  (20) 
nan

>  <merge_set>  (20) 
nan

$$$$
NMMXOIPTLDWKIW-CYBMUJFWSA-N
     RDKit          3D

 22 23  0  0  0  0  0  0  0  0999 V2000
  -17.3818  -44.8147  -22.9617 C   0  0  0  0  0  0  0  0  0  0  0  0
  -15.9952  -44.8403  -23.3262 O   0  0  0  0  0  0  0  0  0  0  0  0
  -15.4648  -43.9755  -24.2275 C   0  0  0  0  0  0  0  0  0  0  0  0
  -14.2738  -43.6758  -24.1885 O   0  0  0  0  0  0  0  0  0  0  0  0
  -16.3647  -43.4660  -25.3274 C   0  0  0  0  0  0  0  0  0  0  0  0
  -16.8289  -42.0281  -25.2053 C   0  0  0  0  0  0  0  0  0  0  0  0
  -15.7667  -41.0983  -24.7587 N   0  0  0  0  0  0  0  0  0  0  0  0
  -15.4549  -39.9871  -25.6993 C   0  0  0  0  0  0  0  0  0  0  0  0
  -16.5618  -38.9832  -25.8841 C   0  0  0  0  0  0  0  0  0  0  0  0
  -16.7498  -37.9361  -24.9846 C   0  0  0  0  0  0  0  0  0  0  0  0
  -17.8650  -37.1201  -25.0761 C   0  0  0  0  0  0  0  0  0  0  0  0
  -18.7561  -37.3570  -26.0983 C   0  0  0  0  0  0  0  0  0  0  0  0
  -18.5888  -38.3053  -27.0404 N   0  0  0  0  0  0  0  0  0  0  0  0
  -17.4856  -39.0861  -26.9168 C   0  0  0  0  0  0  0  0  0  0  0  0
  -15.7116  -40.8424  -23.0788 S   0  0  0  0  0  0  0  0  0  0  0  0
  -16.1092  -42.0936  -22.4684 O   0  0  0  0  0  0  0  0  0  0  0  0
  -16.4904  -39.6690  -22.7631 O   0  0  0  0  0  0  0  0  0  0  0  0
  -13.9799  -40.5668  -22.7337 C   0  0  2  0  0  0  0  0  0  0  0  0
  -13.5238  -41.2244  -21.4482 C   0  0  0  0  0  0  0  0  0  0  0  0
  -13.8864  -40.1862  -20.4115 C   0  0  0  0  0  0  0  0  0  0  0  0
  -13.6714  -38.9151  -21.0408 O   0  0  0  0  0  0  0  0  0  0  0  0
  -13.6616  -39.1146  -22.4635 C   0  0  0  0  0  0  0  0  0  0  0  0
  1  2  1  0
  2  3  1  0
  3  4  2  0
  3  5  1  0
  5  6  1  0
  6  7  1  0
  7  8  1  0
  8  9  1  0
  9 10  2  0
 10 11  1  0
 11 12  2  0
 12 13  1  0
 13 14  2  0
  7 15  1  0
 15 16  2  0
 15 17  2  0
 18 15  1  1
 18 19  1  0
 19 20  1  0
 20 21  1  0
 21 22  1  0
 14  9  1  0
 22 18  1  0
M  END
>  <id>  (21) 
72746

>  <inchikey>  (21) 
NMMXOIPTLDWKIW-CYBMUJFWSA-N

>  <alias>  (21) 
None

>  <smiles>  (21) 
COC(=O)CCN(Cc1cccnc1)S(=O)(=O)[C@@H]1CCOC1

>  <path>  (21) 
/opt/xchem-fragalysis-2/maxwin/BulkDock/SCRATCH/217035/C10412-P19/C10412-P19.minimised.mol

>  <distance_score>  (21) 
0.944481

>  <energy_score>  (21) 
-39.252512

>  <compound>  (21) 
NMMXOIPTLDWKIW-UHFFFAOYSA-N

>  <compound_id>  (21) 
10412

>  <target>  (21) 
Flavi_NS5_RdRp

>  <tags>  (21) 
['AC curated YES', 'Fragmenstein placed', 'Enamine_Quote_1970815', 'Knitwork pure merge', 'AC curated INTERESTING', 'Primer grip/N-pocket merge', 'acceptable']

>  <SLURM_JOB_ID>  (21) 
217035

>  <SLURM_JOB_NAME>  (21) 
BulkDock.place:Flavi_NS5_RdRp:RdRp_knitwork_primer_grip_n_pocket_pure_split1800_batch001

>  <csv_name>  (21) 
RdRp_knitwork_primer_grip_n_pocket_pure_split1800_batch001.csv

>  <scratch_subdir>  (21) 
/opt/xchem-fragalysis-2/maxwin/BulkDock/SCRATCH/217035/C10412-P19

>  <fragmenstein_runtime>  (21) 
9.805182

>  <fragmenstein_outcome>  (21) 
acceptable

>  <fragmenstein_mode>  (21) 
expansion

>  <fragmenstein_error>  (21) 


>  <exports>  (21) 
['/opt/xchem-fragalysis-2/maxwin/BulkDock/OUTPUTS/RdRp_knitwork_primer_grip_n_pocket_pure_split1800_batch001_217035.sdf', '/opt/xchem-fragalysis-2/maxwin/BulkDock/OUTPUTS/RdRp_knitwork_primer_grip_n_pocket_pure_fragalysis.sdf', '/opt/xchem-fragalysis-2/maxwin/RdRp_FFF/curation/Curated_AC.sdf']

>  <Multi-SuCOS>  (21) 
nan

>  <merge_set>  (21) 
nan

$$$$
HGMRINZTTPAZBD-LBPRGKRZSA-N
     RDKit          3D

 23 24  0  0  0  0  0  0  0  0999 V2000
  -23.9826  -43.9045  -19.6309 C   0  0  0  0  0  0  0  0  0  0  0  0
  -24.3706  -44.0818  -18.1663 C   0  0  0  0  0  0  0  0  0  0  0  0
  -25.8426  -43.6855  -18.0194 C   0  0  0  0  0  0  0  0  0  0  0  0
  -24.1411  -45.5380  -17.6955 C   0  0  0  0  0  0  0  0  0  0  0  0
  -22.8885  -45.7376  -16.8178 C   0  0  2  0  0  0  0  0  0  0  0  0
  -21.6750  -45.5796  -17.6281 N   0  0  0  0  0  0  0  0  0  0  0  0
  -20.9479  -44.3126  -18.0980 C   0  0  0  0  0  0  0  0  0  0  0  0
  -21.1500  -43.1929  -17.8545 O   0  0  0  0  0  0  0  0  0  0  0  0
  -19.9059  -44.6623  -19.0394 C   0  0  0  0  0  0  0  0  0  0  0  0
  -19.8585  -44.4015  -20.3910 C   0  0  0  0  0  0  0  0  0  0  0  0
  -18.6407  -44.6351  -20.9988 N   0  0  0  0  0  0  0  0  0  0  0  0
  -17.7432  -44.9339  -20.0720 C   0  0  0  0  0  0  0  0  0  0  0  0
  -16.2836  -44.7434  -20.2346 C   0  0  0  0  0  0  0  0  0  0  0  0
  -15.7667  -44.2880  -21.4478 C   0  0  0  0  0  0  0  0  0  0  0  0
  -14.4469  -43.8444  -21.4988 C   0  0  0  0  0  0  0  0  0  0  0  0
  -13.6837  -43.8470  -20.3402 C   0  0  0  0  0  0  0  0  0  0  0  0
  -14.2565  -44.3449  -19.1863 C   0  0  0  0  0  0  0  0  0  0  0  0
  -15.5176  -44.8251  -19.1130 N   0  0  0  0  0  0  0  0  0  0  0  0
  -18.4308  -45.3517  -18.5349 S   0  0  0  0  0  0  0  0  0  0  0  0
  -22.9578  -47.0917  -16.0877 C   0  0  0  0  0  0  0  0  0  0  0  0
  -22.0617  -47.1432  -15.0856 F   0  0  0  0  0  0  0  0  0  0  0  0
  -22.7054  -48.1178  -16.9342 F   0  0  0  0  0  0  0  0  0  0  0  0
  -24.1719  -47.3163  -15.5357 F   0  0  0  0  0  0  0  0  0  0  0  0
  1  2  1  0
  2  3  1  0
  2  4  1  0
  5  4  1  6
  5  6  1  0
  6  7  1  0
  7  8  2  0
  7  9  1  0
  9 10  2  0
 10 11  1  0
 11 12  2  0
 12 13  1  0
 13 14  2  0
 14 15  1  0
 15 16  2  0
 16 17  1  0
 17 18  2  0
 12 19  1  0
  5 20  1  0
 20 21  1  0
 20 22  1  0
 20 23  1  0
 19  9  1  0
 18 13  1  0
M  END
>  <id>  (22) 
73409

>  <inchikey>  (22) 
HGMRINZTTPAZBD-LBPRGKRZSA-N

>  <alias>  (22) 
None

>  <smiles>  (22) 
CC(C)C[C@H](NC(=O)c1cnc(-c2ccccn2)s1)C(F)(F)F

>  <path>  (22) 
/opt/xchem-fragalysis-2/maxwin/BulkDock/SCRATCH/217037/C13884-P42/C13884-P42.minimised.mol

>  <distance_score>  (22) 
0.941505

>  <energy_score>  (22) 
-40.513359

>  <compound>  (22) 
HGMRINZTTPAZBD-UHFFFAOYSA-N

>  <compound_id>  (22) 
13884

>  <target>  (22) 
Flavi_NS5_RdRp

>  <tags>  (22) 
['DF curated YES', 'Fragmenstein placed', 'Enamine_Quote_1977854', 'Enamine_Quote_1970815', 'Knitwork pure merge', 'Primer grip/N-pocket merge', 'acceptable']

>  <SLURM_JOB_ID>  (22) 
217037

>  <SLURM_JOB_NAME>  (22) 
BulkDock.place:Flavi_NS5_RdRp:RdRp_knitwork_primer_grip_n_pocket_pure_split1800_batch003

>  <csv_name>  (22) 
RdRp_knitwork_primer_grip_n_pocket_pure_split1800_batch003.csv

>  <scratch_subdir>  (22) 
/opt/xchem-fragalysis-2/maxwin/BulkDock/SCRATCH/217037/C13884-P42

>  <fragmenstein_runtime>  (22) 
12.097528

>  <fragmenstein_outcome>  (22) 
acceptable

>  <fragmenstein_mode>  (22) 
expansion

>  <fragmenstein_error>  (22) 


>  <exports>  (22) 
['/opt/xchem-fragalysis-2/maxwin/BulkDock/OUTPUTS/RdRp_knitwork_primer_grip_n_pocket_pure_split1800_batch003_217037.sdf', '/opt/xchem-fragalysis-2/maxwin/BulkDock/OUTPUTS/RdRp_knitwork_primer_grip_n_pocket_pure_fragalysis.sdf', '/opt/xchem-fragalysis-2/maxwin/RdRp_FFF/curation/Curated_DF.sdf']

>  <Multi-SuCOS>  (22) 
nan

>  <merge_set>  (22) 
nan

$$$$
SHENAZADMNUPGS-VIFPVBQESA-N
     RDKit          3D

 18 19  0  0  0  0  0  0  0  0999 V2000
  -21.3794  -32.8383  -24.2989 C   0  0  0  0  0  0  0  0  0  0  0  0
  -22.1466  -32.0817  -23.2362 C   0  0  2  0  0  0  0  0  0  0  0  0
  -21.2208  -31.7577  -22.1963 O   0  0  0  0  0  0  0  0  0  0  0  0
  -23.2803  -32.9191  -22.6526 C   0  0  0  0  0  0  0  0  0  0  0  0
  -24.1054  -32.1267  -21.7772 N   0  0  0  0  0  0  0  0  0  0  0  0
  -25.4767  -31.4503  -22.0305 C   0  0  0  0  0  0  0  0  0  0  0  0
  -26.0926  -31.3703  -22.9855 O   0  0  0  0  0  0  0  0  0  0  0  0
  -25.8079  -30.9975  -20.5820 N   0  0  0  0  0  0  0  0  0  0  0  0
  -26.9781  -30.4592  -20.0500 C   0  0  0  0  0  0  0  0  0  0  0  0
  -28.1312  -30.3051  -20.8220 C   0  0  0  0  0  0  0  0  0  0  0  0
  -29.3246  -29.9346  -20.2133 C   0  0  0  0  0  0  0  0  0  0  0  0
  -29.3554  -29.7165  -18.8383 C   0  0  0  0  0  0  0  0  0  0  0  0
  -28.1828  -29.8128  -18.0713 C   0  0  0  0  0  0  0  0  0  0  0  0
  -28.1891  -29.6220  -16.6843 C   0  0  0  0  0  0  0  0  0  0  0  0
  -27.0175  -29.8049  -15.9576 C   0  0  0  0  0  0  0  0  0  0  0  0
  -25.8660  -30.1450  -16.6373 C   0  0  0  0  0  0  0  0  0  0  0  0
  -25.8207  -30.3197  -17.9743 N   0  0  0  0  0  0  0  0  0  0  0  0
  -26.9656  -30.1751  -18.6814 C   0  0  0  0  0  0  0  0  0  0  0  0
  2  1  1  6
  2  3  1  0
  2  4  1  0
  4  5  1  0
  5  6  1  0
  6  7  2  0
  6  8  1  0
  8  9  1  0
  9 10  2  0
 10 11  1  0
 11 12  2  0
 12 13  1  0
 13 14  2  0
 14 15  1  0
 15 16  2  0
 16 17  1  0
 17 18  2  0
 18  9  1  0
 18 13  1  0
M  END
>  <id>  (23) 
90531

>  <inchikey>  (23) 
SHENAZADMNUPGS-VIFPVBQESA-N

>  <alias>  (23) 
None

>  <smiles>  (23) 
C[C@H](O)CNC(=O)Nc1cccc2cccnc12

>  <path>  (23) 
/opt/xchem-fragalysis-2/maxwin/BulkDock/SCRATCH/217087/C33434-P173/C33434-P173.minimised.mol

>  <distance_score>  (23) 
0.983745

>  <energy_score>  (23) 
-24.32603

>  <compound>  (23) 
SHENAZADMNUPGS-UHFFFAOYSA-N

>  <compound_id>  (23) 
33434

>  <target>  (23) 
Flavi_NS5_RdRp

>  <tags>  (23) 
['JA curated YES', 'Fragmenstein placed', 'Enamine_Quote_1977854', 'Knitwork pure merge', 'Enamine_Order_1968912', 'acceptable', 'Green Site/RNA tunnel merge']

>  <SLURM_JOB_ID>  (23) 
217087

>  <SLURM_JOB_NAME>  (23) 
BulkDock.place:Flavi_NS5_RdRp:RdRp_knitwork_green_site_rna_tunnel_pure_split4000_batch016

>  <csv_name>  (23) 
RdRp_knitwork_green_site_rna_tunnel_pure_split4000_batch016.csv

>  <scratch_subdir>  (23) 
/opt/xchem-fragalysis-2/maxwin/BulkDock/SCRATCH/217087/C33434-P173

>  <fragmenstein_runtime>  (23) 
3.506608

>  <fragmenstein_outcome>  (23) 
acceptable

>  <fragmenstein_mode>  (23) 
expansion

>  <fragmenstein_error>  (23) 


>  <exports>  (23) 
['/opt/xchem-fragalysis-2/maxwin/BulkDock/OUTPUTS/RdRp_knitwork_green_site_rna_tunnel_pure_split4000_batch016_217087.sdf', '/opt/xchem-fragalysis-2/maxwin/BulkDock/OUTPUTS/RdRp_knitwork_green_site_rna_tunnel_pure_fragalysis.sdf', '/opt/xchem-fragalysis-2/maxwin/RdRp_FFF/quotes/JA_curated_and_manual_ordered.sdf']

>  <Multi-SuCOS>  (23) 
nan

>  <merge_set>  (23) 
nan

$$$$
IMMHZJLASOVDCS-UHFFFAOYSA-N
     RDKit          3D

 20 22  0  0  0  0  0  0  0  0999 V2000
  -29.4981  -31.2578  -14.5138 C   0  0  0  0  0  0  0  0  0  0  0  0
  -28.8779  -30.7480  -15.7888 C   0  0  0  0  0  0  0  0  0  0  0  0
  -29.7400  -30.2307  -16.7597 C   0  0  0  0  0  0  0  0  0  0  0  0
  -29.2500  -29.7928  -17.9749 C   0  0  0  0  0  0  0  0  0  0  0  0
  -27.8834  -29.8516  -18.2255 C   0  0  0  0  0  0  0  0  0  0  0  0
  -27.5182  -29.5171  -19.5286 N   0  0  0  0  0  0  0  0  0  0  0  0
  -26.3816  -30.0451  -20.4113 C   0  0  0  0  0  0  0  0  0  0  0  0
  -25.6135  -30.8988  -20.2223 O   0  0  0  0  0  0  0  0  0  0  0  0
  -26.3150  -29.3042  -21.6831 C   0  0  0  0  0  0  0  0  0  0  0  0
  -26.6062  -29.9999  -22.8510 C   0  0  0  0  0  0  0  0  0  0  0  0
  -26.2942  -29.3966  -24.0509 C   0  0  0  0  0  0  0  0  0  0  0  0
  -25.7344  -28.1727  -24.1259 N   0  0  0  0  0  0  0  0  0  0  0  0
  -25.4591  -27.5256  -22.9701 C   0  0  0  0  0  0  0  0  0  0  0  0
  -25.7474  -28.0353  -21.7207 C   0  0  0  0  0  0  0  0  0  0  0  0
  -26.9745  -30.2824  -17.2135 C   0  0  0  0  0  0  0  0  0  0  0  0
  -25.5629  -30.2321  -17.3075 C   0  0  0  0  0  0  0  0  0  0  0  0
  -24.7500  -30.6702  -16.2696 C   0  0  0  0  0  0  0  0  0  0  0  0
  -25.3642  -31.1361  -15.1327 C   0  0  0  0  0  0  0  0  0  0  0  0
  -26.7008  -31.1652  -14.9699 N   0  0  0  0  0  0  0  0  0  0  0  0
  -27.4939  -30.7439  -15.9791 C   0  0  0  0  0  0  0  0  0  0  0  0
  1  2  1  0
  2  3  2  0
  3  4  1  0
  4  5  2  0
  5  6  1  0
  6  7  1  0
  7  8  2  0
  7  9  1  0
  9 10  2  0
 10 11  1  0
 11 12  2  0
 12 13  1  0
 13 14  2  0
  5 15  1  0
 15 16  2  0
 16 17  1  0
 17 18  2  0
 18 19  1  0
 19 20  2  0
 20  2  1  0
 14  9  1  0
 20 15  1  0
M  END
>  <id>  (24) 
94360

>  <inchikey>  (24) 
IMMHZJLASOVDCS-UHFFFAOYSA-N

>  <alias>  (24) 
None

>  <smiles>  (24) 
Cc1ccc(NC(=O)c2ccncc2)c2cccnc12

>  <path>  (24) 
/opt/xchem-fragalysis-2/maxwin/BulkDock/SCRATCH/217074/C28013-P105/C28013-P105.minimised.mol

>  <distance_score>  (24) 
0.788972

>  <energy_score>  (24) 
-18.848466

>  <compound>  (24) 
IMMHZJLASOVDCS-UHFFFAOYSA-N

>  <compound_id>  (24) 
28013

>  <target>  (24) 
Flavi_NS5_RdRp

>  <tags>  (24) 
['JA curated YES', 'Fragmenstein placed', 'Knitwork pure merge', 'Enamine_Order_1968912', 'acceptable', 'Green Site/RNA tunnel merge']

>  <SLURM_JOB_ID>  (24) 
217074

>  <SLURM_JOB_NAME>  (24) 
BulkDock.place:Flavi_NS5_RdRp:RdRp_knitwork_green_site_rna_tunnel_pure_split4000_batch003

>  <csv_name>  (24) 
RdRp_knitwork_green_site_rna_tunnel_pure_split4000_batch003.csv

>  <scratch_subdir>  (24) 
/opt/xchem-fragalysis-2/maxwin/BulkDock/SCRATCH/217074/C28013-P105

>  <fragmenstein_runtime>  (24) 
3.831657

>  <fragmenstein_outcome>  (24) 
acceptable

>  <fragmenstein_mode>  (24) 
expansion

>  <fragmenstein_error>  (24) 


>  <exports>  (24) 
['/opt/xchem-fragalysis-2/maxwin/BulkDock/OUTPUTS/RdRp_knitwork_green_site_rna_tunnel_pure_split4000_batch003_217074.sdf', '/opt/xchem-fragalysis-2/maxwin/BulkDock/OUTPUTS/RdRp_knitwork_green_site_rna_tunnel_pure_fragalysis.sdf', '/opt/xchem-fragalysis-2/maxwin/RdRp_FFF/quotes/JA_curated_and_manual_ordered.sdf']

>  <Multi-SuCOS>  (24) 
nan

>  <merge_set>  (24) 
nan

$$$$
YAOSTISNIUSXMX-UHFFFAOYSA-N
     RDKit          3D

 20 22  0  0  0  0  0  0  0  0999 V2000
  -25.6059  -30.8882  -20.2103 O   0  0  0  0  0  0  0  0  0  0  0  0
  -26.3699  -30.0305  -20.3965 C   0  0  0  0  0  0  0  0  0  0  0  0
  -27.4386  -29.4329  -19.4734 N   0  0  0  0  0  0  0  0  0  0  0  0
  -27.8474  -29.8130  -18.1966 C   0  0  0  0  0  0  0  0  0  0  0  0
  -29.2191  -29.7539  -17.9717 C   0  0  0  0  0  0  0  0  0  0  0  0
  -29.7301  -30.2057  -16.7702 C   0  0  0  0  0  0  0  0  0  0  0  0
  -28.8758  -30.7251  -15.8005 C   0  0  0  0  0  0  0  0  0  0  0  0
  -29.6300  -31.3315  -14.3587 Cl  0  0  0  0  0  0  0  0  0  0  0  0
  -27.4872  -30.7635  -15.9648 C   0  0  0  0  0  0  0  0  0  0  0  0
  -26.6962  -31.2297  -14.9663 N   0  0  0  0  0  0  0  0  0  0  0  0
  -25.3599  -31.2244  -15.1270 C   0  0  0  0  0  0  0  0  0  0  0  0
  -24.7378  -30.7399  -16.2512 C   0  0  0  0  0  0  0  0  0  0  0  0
  -25.5420  -30.2589  -17.2770 C   0  0  0  0  0  0  0  0  0  0  0  0
  -26.9545  -30.2842  -17.1853 C   0  0  0  0  0  0  0  0  0  0  0  0
  -26.3158  -29.3044  -21.6786 C   0  0  0  0  0  0  0  0  0  0  0  0
  -26.6133  -30.0108  -22.8384 C   0  0  0  0  0  0  0  0  0  0  0  0
  -26.3072  -29.4180  -24.0456 C   0  0  0  0  0  0  0  0  0  0  0  0
  -25.7465  -28.1954  -24.1357 N   0  0  0  0  0  0  0  0  0  0  0  0
  -25.4614  -27.5390  -22.9883 C   0  0  0  0  0  0  0  0  0  0  0  0
  -25.7449  -28.0365  -21.7329 C   0  0  0  0  0  0  0  0  0  0  0  0
  1  2  2  0
  2  3  1  0
  3  4  1  0
  4  5  2  0
  5  6  1  0
  6  7  2  0
  7  8  1  0
  7  9  1  0
  9 10  2  0
 10 11  1  0
 11 12  2  0
 12 13  1  0
 13 14  2  0
  2 15  1  0
 15 16  2  0
 16 17  1  0
 17 18  2  0
 18 19  1  0
 19 20  2  0
 14  4  1  0
 20 15  1  0
 14  9  1  0
M  END
>  <id>  (25) 
94375

>  <inchikey>  (25) 
YAOSTISNIUSXMX-UHFFFAOYSA-N

>  <alias>  (25) 
None

>  <smiles>  (25) 
O=C(Nc1ccc(Cl)c2ncccc12)c1ccncc1

>  <path>  (25) 
/opt/xchem-fragalysis-2/maxwin/BulkDock/SCRATCH/217074/C29639-P105/C29639-P105.minimised.mol

>  <distance_score>  (25) 
0.805216

>  <energy_score>  (25) 
-10.708304

>  <compound>  (25) 
YAOSTISNIUSXMX-UHFFFAOYSA-N

>  <compound_id>  (25) 
29639

>  <target>  (25) 
Flavi_NS5_RdRp

>  <tags>  (25) 
['JA curated YES', 'Fragmenstein placed', 'Knitwork pure merge', 'Enamine_Order_1968912', 'acceptable', 'Green Site/RNA tunnel merge']

>  <SLURM_JOB_ID>  (25) 
217074

>  <SLURM_JOB_NAME>  (25) 
BulkDock.place:Flavi_NS5_RdRp:RdRp_knitwork_green_site_rna_tunnel_pure_split4000_batch003

>  <csv_name>  (25) 
RdRp_knitwork_green_site_rna_tunnel_pure_split4000_batch003.csv

>  <scratch_subdir>  (25) 
/opt/xchem-fragalysis-2/maxwin/BulkDock/SCRATCH/217074/C29639-P105

>  <fragmenstein_runtime>  (25) 
3.122275

>  <fragmenstein_outcome>  (25) 
acceptable

>  <fragmenstein_mode>  (25) 
expansion

>  <fragmenstein_error>  (25) 


>  <exports>  (25) 
['/opt/xchem-fragalysis-2/maxwin/BulkDock/OUTPUTS/RdRp_knitwork_green_site_rna_tunnel_pure_split4000_batch003_217074.sdf', '/opt/xchem-fragalysis-2/maxwin/BulkDock/OUTPUTS/RdRp_knitwork_green_site_rna_tunnel_pure_fragalysis.sdf', '/opt/xchem-fragalysis-2/maxwin/RdRp_FFF/quotes/JA_curated_and_manual_ordered.sdf']

>  <Multi-SuCOS>  (25) 
nan

>  <merge_set>  (25) 
nan

$$$$
MERWPLCUOCXLGQ-JTQLQIEISA-N
     RDKit          3D

 19 20  0  0  0  0  0  0  0  0999 V2000
  -21.5149  -33.1629  -23.7227 C   0  0  0  0  0  0  0  0  0  0  0  0
  -22.2858  -32.1989  -22.8393 C   0  0  2  0  0  0  0  0  0  0  0  0
  -21.3319  -31.3067  -22.2666 O   0  0  0  0  0  0  0  0  0  0  0  0
  -23.0169  -32.9359  -21.7110 C   0  0  0  0  0  0  0  0  0  0  0  0
  -23.9998  -32.1149  -21.0381 N   0  0  0  0  0  0  0  0  0  0  0  0
  -25.2240  -31.3457  -21.6038 C   0  0  0  0  0  0  0  0  0  0  0  0
  -25.5686  -31.2005  -22.6801 O   0  0  0  0  0  0  0  0  0  0  0  0
  -25.8982  -30.9187  -20.2650 N   0  0  0  0  0  0  0  0  0  0  0  0
  -27.1438  -30.3289  -20.0265 C   0  0  0  0  0  0  0  0  0  0  0  0
  -28.0095  -30.1012  -21.0974 C   0  0  0  0  0  0  0  0  0  0  0  0
  -29.3391  -29.7939  -20.8561 C   0  0  0  0  0  0  0  0  0  0  0  0
  -29.7679  -29.7889  -19.5557 C   0  0  0  0  0  0  0  0  0  0  0  0
  -28.9362  -29.8693  -18.5083 N   0  0  0  0  0  0  0  0  0  0  0  0
  -27.6152  -30.0918  -18.7242 C   0  0  0  0  0  0  0  0  0  0  0  0
  -26.8436  -30.2115  -17.5853 N   0  0  0  0  0  0  0  0  0  0  0  0
  -27.5784  -29.9946  -16.3325 C   0  0  0  0  0  0  0  0  0  0  0  0
  -26.5151  -30.2318  -15.2785 C   0  0  0  0  0  0  0  0  0  0  0  0
  -25.1861  -30.0717  -16.0088 C   0  0  0  0  0  0  0  0  0  0  0  0
  -25.5432  -29.5977  -17.4157 C   0  0  0  0  0  0  0  0  0  0  0  0
  2  1  1  6
  2  3  1  0
  2  4  1  0
  4  5  1  0
  5  6  1  0
  6  7  2  0
  6  8  1  0
  8  9  1  0
  9 10  2  0
 10 11  1  0
 11 12  2  0
 12 13  1  0
 13 14  2  0
 14 15  1  0
 15 16  1  0
 16 17  1  0
 17 18  1  0
 18 19  1  0
 14  9  1  0
 19 15  1  0
M  END
>  <id>  (26) 
94533

>  <inchikey>  (26) 
MERWPLCUOCXLGQ-JTQLQIEISA-N

>  <alias>  (26) 
None

>  <smiles>  (26) 
C[C@H](O)CNC(=O)Nc1cccnc1N1CCCC1

>  <path>  (26) 
/opt/xchem-fragalysis-2/maxwin/BulkDock/SCRATCH/217079/C45327-P102/C45327-P102.minimised.mol

>  <distance_score>  (26) 
0.976322

>  <energy_score>  (26) 
-45.726681

>  <compound>  (26) 
MERWPLCUOCXLGQ-UHFFFAOYSA-N

>  <compound_id>  (26) 
45327

>  <target>  (26) 
Flavi_NS5_RdRp

>  <tags>  (26) 
['LCD curated INTERESTING', 'Fragmenstein placed', 'Enamine_Quote_1977854', 'Enamine_Quote_1970815', 'Knitwork pure merge', 'JA curated INTERESTING', 'acceptable', 'Green Site/RNA tunnel merge', 'LCD curated YES']

>  <SLURM_JOB_ID>  (26) 
217079

>  <SLURM_JOB_NAME>  (26) 
BulkDock.place:Flavi_NS5_RdRp:RdRp_knitwork_green_site_rna_tunnel_pure_split4000_batch008

>  <csv_name>  (26) 
RdRp_knitwork_green_site_rna_tunnel_pure_split4000_batch008.csv

>  <scratch_subdir>  (26) 
/opt/xchem-fragalysis-2/maxwin/BulkDock/SCRATCH/217079/C45327-P102

>  <fragmenstein_runtime>  (26) 
6.138051

>  <fragmenstein_outcome>  (26) 
acceptable

>  <fragmenstein_mode>  (26) 
expansion

>  <fragmenstein_error>  (26) 


>  <exports>  (26) 
['/opt/xchem-fragalysis-2/maxwin/BulkDock/OUTPUTS/RdRp_knitwork_green_site_rna_tunnel_pure_split4000_batch008_217079.sdf', '/opt/xchem-fragalysis-2/maxwin/BulkDock/OUTPUTS/RdRp_knitwork_green_site_rna_tunnel_pure_fragalysis.sdf']

>  <Multi-SuCOS>  (26) 
nan

>  <merge_set>  (26) 
nan

$$$$
RYINUJYFPYCEFQ-UHFFFAOYSA-N
     RDKit          3D

 15 17  0  0  0  0  0  0  0  0999 V2000
  -27.8431  -30.3512  -15.8373 C   0  0  0  0  0  0  0  0  0  0  0  0
  -26.7393  -29.7020  -16.3719 C   0  0  0  0  0  0  0  0  0  0  0  0
  -26.7227  -29.3653  -17.7261 C   0  0  0  0  0  0  0  0  0  0  0  0
  -27.8018  -29.6910  -18.5876 C   0  0  0  0  0  0  0  0  0  0  0  0
  -27.8835  -29.3890  -19.9678 C   0  0  0  0  0  0  0  0  0  0  0  0
  -26.9055  -28.5324  -20.6534 C   0  0  0  0  0  0  0  0  0  0  0  0
  -26.3411  -27.4450  -20.1504 N   0  0  0  0  0  0  0  0  0  0  0  0
  -25.6023  -26.8050  -21.1244 C   0  0  0  0  0  0  0  0  0  0  0  0
  -25.5131  -27.4630  -22.3298 C   0  0  0  0  0  0  0  0  0  0  0  0
  -26.4145  -28.9208  -22.2605 S   0  0  0  0  0  0  0  0  0  0  0  0
  -28.9184  -29.7719  -20.7686 N   0  0  0  0  0  0  0  0  0  0  0  0
  -29.9320  -30.4372  -20.1961 C   0  0  0  0  0  0  0  0  0  0  0  0
  -29.9621  -30.7584  -18.8547 C   0  0  0  0  0  0  0  0  0  0  0  0
  -28.8967  -30.3829  -18.0331 C   0  0  0  0  0  0  0  0  0  0  0  0
  -28.9138  -30.6901  -16.6626 C   0  0  0  0  0  0  0  0  0  0  0  0
  1  2  2  0
  2  3  1  0
  3  4  2  0
  4  5  1  0
  5  6  1  0
  6  7  2  0
  7  8  1  0
  8  9  2  0
  9 10  1  0
  5 11  2  0
 11 12  1  0
 12 13  2  0
 13 14  1  0
 14 15  2  0
 15  1  1  0
 14  4  1  0
 10  6  1  0
M  END
>  <id>  (27) 
95029

>  <inchikey>  (27) 
RYINUJYFPYCEFQ-UHFFFAOYSA-N

>  <alias>  (27) 
None

>  <smiles>  (27) 
c1ccc2c(-c3nccs3)nccc2c1

>  <path>  (27) 
/opt/xchem-fragalysis-2/maxwin/BulkDock/SCRATCH/217076/C30341-P136/C30341-P136.minimised.mol

>  <distance_score>  (27) 
0.693014

>  <energy_score>  (27) 
-58.072942

>  <compound>  (27) 
RYINUJYFPYCEFQ-UHFFFAOYSA-N

>  <compound_id>  (27) 
30341

>  <target>  (27) 
Flavi_NS5_RdRp

>  <tags>  (27) 
['Fragmenstein placed', 'Enamine_Quote_1977854', 'Enamine_Quote_1970815', 'Knitwork pure merge', 'acceptable', 'Green Site/RNA tunnel merge']

>  <SLURM_JOB_ID>  (27) 
217076

>  <SLURM_JOB_NAME>  (27) 
BulkDock.place:Flavi_NS5_RdRp:RdRp_knitwork_green_site_rna_tunnel_pure_split4000_batch005

>  <csv_name>  (27) 
RdRp_knitwork_green_site_rna_tunnel_pure_split4000_batch005.csv

>  <scratch_subdir>  (27) 
/opt/xchem-fragalysis-2/maxwin/BulkDock/SCRATCH/217076/C30341-P136

>  <fragmenstein_runtime>  (27) 
1.842096

>  <fragmenstein_outcome>  (27) 
acceptable

>  <fragmenstein_mode>  (27) 
expansion

>  <fragmenstein_error>  (27) 


>  <exports>  (27) 
['/opt/xchem-fragalysis-2/maxwin/BulkDock/OUTPUTS/RdRp_knitwork_green_site_rna_tunnel_pure_split4000_batch005_217076.sdf', '/opt/xchem-fragalysis-2/maxwin/BulkDock/OUTPUTS/RdRp_knitwork_green_site_rna_tunnel_pure_fragalysis.sdf']

>  <Multi-SuCOS>  (27) 
nan

>  <merge_set>  (27) 
nan

$$$$
WXCSLBRGRKDJSX-QMMMGPOBSA-N
     RDKit          3D

 15 15  0  0  0  0  0  0  0  0999 V2000
  -28.3148  -29.7147  -16.4672 C   0  0  0  0  0  0  0  0  0  0  0  0
  -28.3158  -29.9093  -17.9520 C   0  0  0  0  0  0  0  0  0  0  0  0
  -29.5305  -29.8960  -18.6274 C   0  0  0  0  0  0  0  0  0  0  0  0
  -29.5269  -30.0008  -20.0069 C   0  0  0  0  0  0  0  0  0  0  0  0
  -28.3148  -30.1634  -20.6586 C   0  0  0  0  0  0  0  0  0  0  0  0
  -27.1495  -30.2730  -19.9084 C   0  0  0  0  0  0  0  0  0  0  0  0
  -25.9723  -30.6165  -20.5469 N   0  0  0  0  0  0  0  0  0  0  0  0
  -25.6674  -30.8123  -22.0610 C   0  0  0  0  0  0  0  0  0  0  0  0
  -26.3284  -30.6415  -22.9712 O   0  0  0  0  0  0  0  0  0  0  0  0
  -24.2376  -31.4043  -21.9589 N   0  0  0  0  0  0  0  0  0  0  0  0
  -23.3952  -31.9852  -22.9710 C   0  0  0  0  0  0  0  0  0  0  0  0
  -21.9204  -32.0847  -22.5949 C   0  0  2  0  0  0  0  0  0  0  0  0
  -21.1564  -32.8762  -23.6465 C   0  0  0  0  0  0  0  0  0  0  0  0
  -21.7817  -32.7446  -21.3349 O   0  0  0  0  0  0  0  0  0  0  0  0
  -27.1258  -30.1287  -18.5693 N   0  0  0  0  0  0  0  0  0  0  0  0
  1  2  1  0
  2  3  2  0
  3  4  1  0
  4  5  2  0
  5  6  1  0
  6  7  1  0
  7  8  1  0
  8  9  2  0
  8 10  1  0
 10 11  1  0
 11 12  1  0
 12 13  1  6
 12 14  1  0
  6 15  2  0
 15  2  1  0
M  END
>  <id>  (28) 
95593

>  <inchikey>  (28) 
WXCSLBRGRKDJSX-QMMMGPOBSA-N

>  <alias>  (28) 
None

>  <smiles>  (28) 
Cc1cccc(NC(=O)NC[C@H](C)O)n1

>  <path>  (28) 
/opt/xchem-fragalysis-2/maxwin/BulkDock/SCRATCH/217079/C49374-P102/C49374-P102.minimised.mol

>  <distance_score>  (28) 
0.553023

>  <energy_score>  (28) 
-7.75607

>  <compound>  (28) 
WXCSLBRGRKDJSX-UHFFFAOYSA-N

>  <compound_id>  (28) 
49374

>  <target>  (28) 
Flavi_NS5_RdRp

>  <tags>  (28) 
['JA curated YES', 'Fragmenstein placed', 'Knitwork pure merge', 'Enamine_Order_1968912', 'acceptable', 'Green Site/RNA tunnel merge']

>  <SLURM_JOB_ID>  (28) 
217079

>  <SLURM_JOB_NAME>  (28) 
BulkDock.place:Flavi_NS5_RdRp:RdRp_knitwork_green_site_rna_tunnel_pure_split4000_batch008

>  <csv_name>  (28) 
RdRp_knitwork_green_site_rna_tunnel_pure_split4000_batch008.csv

>  <scratch_subdir>  (28) 
/opt/xchem-fragalysis-2/maxwin/BulkDock/SCRATCH/217079/C49374-P102

>  <fragmenstein_runtime>  (28) 
2.765121

>  <fragmenstein_outcome>  (28) 
acceptable

>  <fragmenstein_mode>  (28) 
expansion

>  <fragmenstein_error>  (28) 


>  <exports>  (28) 
['/opt/xchem-fragalysis-2/maxwin/BulkDock/OUTPUTS/RdRp_knitwork_green_site_rna_tunnel_pure_split4000_batch008_217079.sdf', '/opt/xchem-fragalysis-2/maxwin/BulkDock/OUTPUTS/RdRp_knitwork_green_site_rna_tunnel_pure_fragalysis.sdf', '/opt/xchem-fragalysis-2/maxwin/RdRp_FFF/quotes/JA_curated_and_manual_ordered.sdf']

>  <Multi-SuCOS>  (28) 
nan

>  <merge_set>  (28) 
nan

$$$$
WXCSLBRGRKDJSX-QMMMGPOBSA-N
     RDKit          3D

 15 15  0  0  0  0  0  0  0  0999 V2000
  -28.4699  -29.7411  -16.7815 C   0  0  0  0  0  0  0  0  0  0  0  0
  -28.3662  -29.8182  -18.2756 C   0  0  0  0  0  0  0  0  0  0  0  0
  -29.4945  -29.5534  -19.0367 C   0  0  0  0  0  0  0  0  0  0  0  0
  -29.3683  -29.4699  -20.4136 C   0  0  0  0  0  0  0  0  0  0  0  0
  -28.1299  -29.7002  -20.9916 C   0  0  0  0  0  0  0  0  0  0  0  0
  -27.0810  -30.0921  -20.1787 C   0  0  0  0  0  0  0  0  0  0  0  0
  -25.9482  -30.6435  -20.7426 N   0  0  0  0  0  0  0  0  0  0  0  0
  -25.4735  -30.6781  -22.2305 C   0  0  0  0  0  0  0  0  0  0  0  0
  -25.9235  -30.1892  -23.1605 O   0  0  0  0  0  0  0  0  0  0  0  0
  -24.2722  -31.6538  -22.0908 N   0  0  0  0  0  0  0  0  0  0  0  0
  -23.4589  -32.2829  -23.1000 C   0  0  0  0  0  0  0  0  0  0  0  0
  -21.9622  -32.0056  -22.9610 C   0  0  2  0  0  0  0  0  0  0  0  0
  -21.1787  -33.0171  -23.7814 C   0  0  0  0  0  0  0  0  0  0  0  0
  -21.5537  -32.1333  -21.5965 O   0  0  0  0  0  0  0  0  0  0  0  0
  -27.1671  -30.1276  -18.8304 N   0  0  0  0  0  0  0  0  0  0  0  0
  1  2  1  0
  2  3  2  0
  3  4  1  0
  4  5  2  0
  5  6  1  0
  6  7  1  0
  7  8  1  0
  8  9  2  0
  8 10  1  0
 10 11  1  0
 11 12  1  0
 12 13  1  6
 12 14  1  0
  6 15  2  0
 15  2  1  0
M  END
>  <id>  (29) 
95600

>  <inchikey>  (29) 
WXCSLBRGRKDJSX-QMMMGPOBSA-N

>  <alias>  (29) 
None

>  <smiles>  (29) 
Cc1cccc(NC(=O)NC[C@H](C)O)n1

>  <path>  (29) 
/opt/xchem-fragalysis-2/maxwin/BulkDock/SCRATCH/217079/C49374-P151/C49374-P151.minimised.mol

>  <distance_score>  (29) 
0.563151

>  <energy_score>  (29) 
-6.948278

>  <compound>  (29) 
WXCSLBRGRKDJSX-UHFFFAOYSA-N

>  <compound_id>  (29) 
49374

>  <target>  (29) 
Flavi_NS5_RdRp

>  <tags>  (29) 
['JA curated YES', 'Fragmenstein placed', 'Knitwork pure merge', 'Enamine_Order_1968912', 'acceptable', 'Green Site/RNA tunnel merge']

>  <SLURM_JOB_ID>  (29) 
217079

>  <SLURM_JOB_NAME>  (29) 
BulkDock.place:Flavi_NS5_RdRp:RdRp_knitwork_green_site_rna_tunnel_pure_split4000_batch008

>  <csv_name>  (29) 
RdRp_knitwork_green_site_rna_tunnel_pure_split4000_batch008.csv

>  <scratch_subdir>  (29) 
/opt/xchem-fragalysis-2/maxwin/BulkDock/SCRATCH/217079/C49374-P151

>  <fragmenstein_runtime>  (29) 
2.230866

>  <fragmenstein_outcome>  (29) 
acceptable

>  <fragmenstein_mode>  (29) 
expansion

>  <fragmenstein_error>  (29) 


>  <exports>  (29) 
['/opt/xchem-fragalysis-2/maxwin/BulkDock/OUTPUTS/RdRp_knitwork_green_site_rna_tunnel_pure_split4000_batch008_217079.sdf', '/opt/xchem-fragalysis-2/maxwin/BulkDock/OUTPUTS/RdRp_knitwork_green_site_rna_tunnel_pure_fragalysis.sdf', '/opt/xchem-fragalysis-2/maxwin/RdRp_FFF/quotes/JA_curated_and_manual_ordered.sdf']

>  <Multi-SuCOS>  (29) 
nan

>  <merge_set>  (29) 
nan

$$$$
YLNUDNTUPQXQBM-UHFFFAOYSA-N
     RDKit          3D

 16 18  0  0  0  0  0  0  0  0999 V2000
  -25.2683  -28.7749  -24.4348 N   0  0  0  0  0  0  0  0  0  0  0  0
  -25.6846  -28.5134  -23.1820 C   0  0  0  0  0  0  0  0  0  0  0  0
  -26.4516  -29.3269  -22.4991 N   0  0  0  0  0  0  0  0  0  0  0  0
  -26.7906  -28.7724  -21.2653 C   0  0  0  0  0  0  0  0  0  0  0  0
  -27.8054  -29.3910  -20.4036 C   0  0  0  0  0  0  0  0  0  0  0  0
  -28.9089  -29.7582  -21.1079 N   0  0  0  0  0  0  0  0  0  0  0  0
  -29.9480  -30.2720  -20.4345 C   0  0  0  0  0  0  0  0  0  0  0  0
  -29.9472  -30.4557  -19.0688 C   0  0  0  0  0  0  0  0  0  0  0  0
  -28.8190  -30.0953  -18.3323 C   0  0  0  0  0  0  0  0  0  0  0  0
  -28.8106  -30.2827  -16.9389 C   0  0  0  0  0  0  0  0  0  0  0  0
  -27.6909  -29.9584  -16.1786 C   0  0  0  0  0  0  0  0  0  0  0  0
  -26.5695  -29.4327  -16.8032 C   0  0  0  0  0  0  0  0  0  0  0  0
  -26.5793  -29.2104  -18.1841 C   0  0  0  0  0  0  0  0  0  0  0  0
  -27.6962  -29.5445  -18.9934 C   0  0  0  0  0  0  0  0  0  0  0  0
  -26.2277  -27.5293  -21.0341 C   0  0  0  0  0  0  0  0  0  0  0  0
  -25.2448  -27.0650  -22.3696 S   0  0  0  0  0  0  0  0  0  0  0  0
  1  2  1  0
  2  3  2  0
  3  4  1  0
  4  5  1  0
  5  6  2  0
  6  7  1  0
  7  8  2  0
  8  9  1  0
  9 10  2  0
 10 11  1  0
 11 12  2  0
 12 13  1  0
 13 14  2  0
  4 15  2  0
 15 16  1  0
 16  2  1  0
 14  5  1  0
 14  9  1  0
M  END
>  <id>  (30) 
95763

>  <inchikey>  (30) 
YLNUDNTUPQXQBM-UHFFFAOYSA-N

>  <alias>  (30) 
None

>  <smiles>  (30) 
Nc1nc(-c2nccc3ccccc23)cs1

>  <path>  (30) 
/opt/xchem-fragalysis-2/maxwin/BulkDock/SCRATCH/217076/C48706-P136/C48706-P136.minimised.mol

>  <distance_score>  (30) 
0.685583

>  <energy_score>  (30) 
-123.931454

>  <compound>  (30) 
YLNUDNTUPQXQBM-UHFFFAOYSA-N

>  <compound_id>  (30) 
48706

>  <target>  (30) 
Flavi_NS5_RdRp

>  <tags>  (30) 
['JA curated YES', 'Fragmenstein placed', 'Enamine_Quote_1977854', 'Knitwork pure merge', 'Enamine_Order_1968912', 'acceptable', 'Green Site/RNA tunnel merge', 'LCD curated YES']

>  <SLURM_JOB_ID>  (30) 
217076

>  <SLURM_JOB_NAME>  (30) 
BulkDock.place:Flavi_NS5_RdRp:RdRp_knitwork_green_site_rna_tunnel_pure_split4000_batch005

>  <csv_name>  (30) 
RdRp_knitwork_green_site_rna_tunnel_pure_split4000_batch005.csv

>  <scratch_subdir>  (30) 
/opt/xchem-fragalysis-2/maxwin/BulkDock/SCRATCH/217076/C48706-P136

>  <fragmenstein_runtime>  (30) 
1.774051

>  <fragmenstein_outcome>  (30) 
acceptable

>  <fragmenstein_mode>  (30) 
expansion

>  <fragmenstein_error>  (30) 


>  <exports>  (30) 
['/opt/xchem-fragalysis-2/maxwin/BulkDock/OUTPUTS/RdRp_knitwork_green_site_rna_tunnel_pure_split4000_batch005_217076.sdf', '/opt/xchem-fragalysis-2/maxwin/BulkDock/OUTPUTS/RdRp_knitwork_green_site_rna_tunnel_pure_fragalysis.sdf', '/opt/xchem-fragalysis-2/maxwin/RdRp_FFF/quotes/JA_curated_and_manual_ordered.sdf']

>  <Multi-SuCOS>  (30) 
nan

>  <merge_set>  (30) 
nan

$$$$
OHJDLUXFTXKBRG-ZETCQYMHSA-N
     RDKit          3D

 19 19  0  0  0  0  0  0  0  0999 V2000
  -30.5431  -30.0680  -19.5248 C   0  0  0  0  0  0  0  0  0  0  0  0
  -29.0762  -30.0508  -19.4520 C   0  0  0  0  0  0  0  0  0  0  0  0
  -28.1861  -30.0977  -20.4983 C   0  0  0  0  0  0  0  0  0  0  0  0
  -26.9373  -30.3064  -19.8992 C   0  0  0  0  0  0  0  0  0  0  0  0
  -25.8168  -30.6647  -20.5753 N   0  0  0  0  0  0  0  0  0  0  0  0
  -25.5800  -30.8601  -22.1027 C   0  0  0  0  0  0  0  0  0  0  0  0
  -26.2759  -30.6713  -22.9851 O   0  0  0  0  0  0  0  0  0  0  0  0
  -24.1519  -31.4675  -22.0644 N   0  0  0  0  0  0  0  0  0  0  0  0
  -23.3555  -32.0442  -23.1166 C   0  0  0  0  0  0  0  0  0  0  0  0
  -21.8693  -32.1472  -22.7774 C   0  0  2  0  0  0  0  0  0  0  0  0
  -21.1348  -32.9272  -23.8544 C   0  0  0  0  0  0  0  0  0  0  0  0
  -21.7038  -32.8010  -21.5148 O   0  0  0  0  0  0  0  0  0  0  0  0
  -27.0004  -30.2011  -18.5704 N   0  0  0  0  0  0  0  0  0  0  0  0
  -28.3159  -30.0615  -18.3014 N   0  0  0  0  0  0  0  0  0  0  0  0
  -28.7818  -29.9009  -16.9352 C   0  0  0  0  0  0  0  0  0  0  0  0
  -27.9424  -30.5446  -15.8562 C   0  0  0  0  0  0  0  0  0  0  0  0
  -28.4936  -30.2670  -14.6384 F   0  0  0  0  0  0  0  0  0  0  0  0
  -26.6770  -30.0914  -15.8008 F   0  0  0  0  0  0  0  0  0  0  0  0
  -27.9260  -31.8882  -15.9491 F   0  0  0  0  0  0  0  0  0  0  0  0
  1  2  1  0
  2  3  2  0
  3  4  1  0
  4  5  1  0
  5  6  1  0
  6  7  2  0
  6  8  1  0
  8  9  1  0
  9 10  1  0
 10 11  1  6
 10 12  1  0
  4 13  2  0
 13 14  1  0
 14 15  1  0
 15 16  1  0
 16 17  1  0
 16 18  1  0
 16 19  1  0
 14  2  1  0
M  END
>  <id>  (31) 
98190

>  <inchikey>  (31) 
OHJDLUXFTXKBRG-ZETCQYMHSA-N

>  <alias>  (31) 
None

>  <smiles>  (31) 
Cc1cc(NC(=O)NC[C@H](C)O)nn1CC(F)(F)F

>  <path>  (31) 
/opt/xchem-fragalysis-2/maxwin/BulkDock/SCRATCH/217083/C54733-P104/C54733-P104.minimised.mol

>  <distance_score>  (31) 
0.89392

>  <energy_score>  (31) 
-24.866547

>  <compound>  (31) 
OHJDLUXFTXKBRG-UHFFFAOYSA-N

>  <compound_id>  (31) 
54733

>  <target>  (31) 
Flavi_NS5_RdRp

>  <tags>  (31) 
['Fragmenstein placed', 'Enamine_Quote_1977854', 'Enamine_Quote_1970815', 'Knitwork pure merge', 'JA curated INTERESTING', 'acceptable', 'Green Site/RNA tunnel merge', 'LCD curated YES']

>  <SLURM_JOB_ID>  (31) 
217083

>  <SLURM_JOB_NAME>  (31) 
BulkDock.place:Flavi_NS5_RdRp:RdRp_knitwork_green_site_rna_tunnel_pure_split4000_batch012

>  <csv_name>  (31) 
RdRp_knitwork_green_site_rna_tunnel_pure_split4000_batch012.csv

>  <scratch_subdir>  (31) 
/opt/xchem-fragalysis-2/maxwin/BulkDock/SCRATCH/217083/C54733-P104

>  <fragmenstein_runtime>  (31) 
11.082007

>  <fragmenstein_outcome>  (31) 
acceptable

>  <fragmenstein_mode>  (31) 
expansion

>  <fragmenstein_error>  (31) 


>  <exports>  (31) 
['/opt/xchem-fragalysis-2/maxwin/BulkDock/OUTPUTS/RdRp_knitwork_green_site_rna_tunnel_pure_split4000_batch012_217083.sdf', '/opt/xchem-fragalysis-2/maxwin/BulkDock/OUTPUTS/RdRp_knitwork_green_site_rna_tunnel_pure_fragalysis.sdf']

>  <Multi-SuCOS>  (31) 
nan

>  <merge_set>  (31) 
nan

$$$$
ZLBFYANSAYZPQU-UHFFFAOYSA-N
     RDKit          3D

 17 19  0  0  0  0  0  0  0  0999 V2000
  -25.4442  -34.0361  -19.4400 C   0  0  0  0  0  0  0  0  0  0  0  0
  -24.5349  -32.9953  -19.3978 C   0  0  0  0  0  0  0  0  0  0  0  0
  -24.9622  -31.7258  -19.7688 C   0  0  0  0  0  0  0  0  0  0  0  0
  -26.2818  -31.5051  -20.1666 C   0  0  0  0  0  0  0  0  0  0  0  0
  -26.7004  -30.1918  -20.4226 N   0  0  0  0  0  0  0  0  0  0  0  0
  -27.8539  -30.0365  -21.3114 C   0  0  0  0  0  0  0  0  0  0  0  0
  -29.0834  -29.4146  -20.6577 C   0  0  0  0  0  0  0  0  0  0  0  0
  -29.6034  -30.2204  -19.6067 O   0  0  0  0  0  0  0  0  0  0  0  0
  -28.9827  -30.1033  -18.3928 C   0  0  0  0  0  0  0  0  0  0  0  0
  -29.8033  -30.4762  -17.3194 C   0  0  0  0  0  0  0  0  0  0  0  0
  -29.3564  -30.4005  -16.0032 C   0  0  0  0  0  0  0  0  0  0  0  0
  -28.0696  -29.9515  -15.7478 C   0  0  0  0  0  0  0  0  0  0  0  0
  -27.2350  -29.6032  -16.8118 C   0  0  0  0  0  0  0  0  0  0  0  0
  -27.6639  -29.6940  -18.1540 C   0  0  0  0  0  0  0  0  0  0  0  0
  -26.6659  -29.3218  -19.2375 C   0  0  0  0  0  0  0  0  0  0  0  0
  -27.1382  -32.5375  -20.2860 N   0  0  0  0  0  0  0  0  0  0  0  0
  -26.7196  -33.7623  -19.8989 C   0  0  0  0  0  0  0  0  0  0  0  0
  1  2  2  0
  2  3  1  0
  3  4  2  0
  4  5  1  0
  5  6  1  0
  6  7  1  0
  7  8  1  0
  8  9  1  0
  9 10  2  0
 10 11  1  0
 11 12  2  0
 12 13  1  0
 13 14  2  0
 14 15  1  0
  4 16  1  0
 16 17  2  0
 17  1  1  0
 15  5  1  0
 14  9  1  0
M  END
>  <id>  (32) 
98291

>  <inchikey>  (32) 
ZLBFYANSAYZPQU-UHFFFAOYSA-N

>  <alias>  (32) 
None

>  <smiles>  (32) 
c1ccc(N2CCOc3ccccc3C2)nc1

>  <path>  (32) 
/opt/xchem-fragalysis-2/maxwin/BulkDock/SCRATCH/217078/C32376-P144/C32376-P144.minimised.mol

>  <distance_score>  (32) 
0.999442

>  <energy_score>  (32) 
-21.454072

>  <compound>  (32) 
ZLBFYANSAYZPQU-UHFFFAOYSA-N

>  <compound_id>  (32) 
32376

>  <target>  (32) 
Flavi_NS5_RdRp

>  <tags>  (32) 
['Knitwork pure merge', 'Green Site/RNA tunnel merge', 'Fragmenstein placed', 'acceptable']

>  <SLURM_JOB_ID>  (32) 
217078

>  <SLURM_JOB_NAME>  (32) 
BulkDock.place:Flavi_NS5_RdRp:RdRp_knitwork_green_site_rna_tunnel_pure_split4000_batch007

>  <csv_name>  (32) 
RdRp_knitwork_green_site_rna_tunnel_pure_split4000_batch007.csv

>  <scratch_subdir>  (32) 
/opt/xchem-fragalysis-2/maxwin/BulkDock/SCRATCH/217078/C32376-P144

>  <fragmenstein_runtime>  (32) 
1.939471

>  <fragmenstein_outcome>  (32) 
acceptable

>  <fragmenstein_mode>  (32) 
expansion

>  <fragmenstein_error>  (32) 


>  <exports>  (32) 
['/opt/xchem-fragalysis-2/maxwin/BulkDock/OUTPUTS/RdRp_knitwork_green_site_rna_tunnel_pure_split4000_batch007_217078.sdf', '/opt/xchem-fragalysis-2/maxwin/BulkDock/OUTPUTS/RdRp_knitwork_green_site_rna_tunnel_pure_fragalysis.sdf']

>  <Multi-SuCOS>  (32) 
nan

>  <merge_set>  (32) 
nan

$$$$
VRFUMBMWIYOQKS-MRVPVSSYSA-N
     RDKit          3D

 19 20  0  0  0  0  0  0  0  0999 V2000
  -20.7926  -32.9717  -24.3421 C   0  0  0  0  0  0  0  0  0  0  0  0
  -21.7289  -32.6222  -23.2118 C   0  0  1  0  0  0  0  0  0  0  0  0
  -21.2115  -31.4894  -22.5129 O   0  0  0  0  0  0  0  0  0  0  0  0
  -23.1222  -32.3668  -23.7631 C   0  0  0  0  0  0  0  0  0  0  0  0
  -23.9272  -31.7447  -22.7701 N   0  0  0  0  0  0  0  0  0  0  0  0
  -25.2691  -31.0024  -22.8960 C   0  0  0  0  0  0  0  0  0  0  0  0
  -25.8703  -30.7252  -23.8174 O   0  0  0  0  0  0  0  0  0  0  0  0
  -25.6032  -30.8375  -21.4043 N   0  0  0  0  0  0  0  0  0  0  0  0
  -26.7248  -30.4064  -20.8071 C   0  0  0  0  0  0  0  0  0  0  0  0
  -27.9569  -30.0368  -21.3615 C   0  0  0  0  0  0  0  0  0  0  0  0
  -28.7625  -29.7878  -20.2749 C   0  0  0  0  0  0  0  0  0  0  0  0
  -27.9525  -29.9117  -19.1670 N   0  0  0  0  0  0  0  0  0  0  0  0
  -28.2987  -29.7921  -17.8032 C   0  0  0  0  0  0  0  0  0  0  0  0
  -29.6008  -29.8144  -17.4867 N   0  0  0  0  0  0  0  0  0  0  0  0
  -29.8546  -30.0049  -16.1902 C   0  0  0  0  0  0  0  0  0  0  0  0
  -28.8883  -30.1098  -15.2136 C   0  0  0  0  0  0  0  0  0  0  0  0
  -27.5909  -30.0120  -15.6295 C   0  0  0  0  0  0  0  0  0  0  0  0
  -27.2755  -29.8369  -16.9114 N   0  0  0  0  0  0  0  0  0  0  0  0
  -26.7042  -30.2970  -19.4933 N   0  0  0  0  0  0  0  0  0  0  0  0
  2  1  1  6
  2  3  1  0
  2  4  1  0
  4  5  1  0
  5  6  1  0
  6  7  2  0
  6  8  1  0
  8  9  1  0
  9 10  1  0
 10 11  2  0
 11 12  1  0
 12 13  1  0
 13 14  2  0
 14 15  1  0
 15 16  2  0
 16 17  1  0
 17 18  2  0
 12 19  1  0
 19  9  2  0
 18 13  1  0
M  END
>  <id>  (33) 
98416

>  <inchikey>  (33) 
VRFUMBMWIYOQKS-MRVPVSSYSA-N

>  <alias>  (33) 
None

>  <smiles>  (33) 
C[C@@H](O)CNC(=O)Nc1ccn(-c2ncccn2)n1

>  <path>  (33) 
/opt/xchem-fragalysis-2/maxwin/BulkDock/SCRATCH/217083/C55174-P102/C55174-P102.minimised.mol

>  <distance_score>  (33) 
0.999608

>  <energy_score>  (33) 
-16.716605

>  <compound>  (33) 
VRFUMBMWIYOQKS-UHFFFAOYSA-N

>  <compound_id>  (33) 
55174

>  <target>  (33) 
Flavi_NS5_RdRp

>  <tags>  (33) 
['Fragmenstein placed', 'Enamine_Quote_1977854', 'Enamine_Quote_1970815', 'Knitwork pure merge', 'JA curated INTERESTING', 'acceptable', 'Green Site/RNA tunnel merge']

>  <SLURM_JOB_ID>  (33) 
217083

>  <SLURM_JOB_NAME>  (33) 
BulkDock.place:Flavi_NS5_RdRp:RdRp_knitwork_green_site_rna_tunnel_pure_split4000_batch012

>  <csv_name>  (33) 
RdRp_knitwork_green_site_rna_tunnel_pure_split4000_batch012.csv

>  <scratch_subdir>  (33) 
/opt/xchem-fragalysis-2/maxwin/BulkDock/SCRATCH/217083/C55174-P102

>  <fragmenstein_runtime>  (33) 
4.503808

>  <fragmenstein_outcome>  (33) 
acceptable

>  <fragmenstein_mode>  (33) 
expansion

>  <fragmenstein_error>  (33) 


>  <exports>  (33) 
['/opt/xchem-fragalysis-2/maxwin/BulkDock/OUTPUTS/RdRp_knitwork_green_site_rna_tunnel_pure_split4000_batch012_217083.sdf', '/opt/xchem-fragalysis-2/maxwin/BulkDock/OUTPUTS/RdRp_knitwork_green_site_rna_tunnel_pure_fragalysis.sdf']

>  <Multi-SuCOS>  (33) 
nan

>  <merge_set>  (33) 
nan

$$$$
FGZCUNYQGFTGLS-LLVKDONJSA-N
     RDKit          3D

 20 21  0  0  0  0  0  0  0  0999 V2000
  -31.0631  -30.0978  -20.3224 C   0  0  0  0  0  0  0  0  0  0  0  0
  -29.6327  -29.9385  -20.0717 C   0  0  0  0  0  0  0  0  0  0  0  0
  -28.5765  -29.9119  -20.9795 C   0  0  0  0  0  0  0  0  0  0  0  0
  -27.4506  -30.1563  -20.2164 C   0  0  0  0  0  0  0  0  0  0  0  0
  -26.2742  -30.5984  -20.7734 N   0  0  0  0  0  0  0  0  0  0  0  0
  -25.8548  -30.7385  -22.2773 C   0  0  0  0  0  0  0  0  0  0  0  0
  -26.4077  -30.4328  -23.2272 O   0  0  0  0  0  0  0  0  0  0  0  0
  -24.5150  -31.5069  -22.0990 N   0  0  0  0  0  0  0  0  0  0  0  0
  -23.5579  -31.9595  -23.0831 C   0  0  0  0  0  0  0  0  0  0  0  0
  -22.2371  -32.4636  -22.5071 C   0  0  1  0  0  0  0  0  0  0  0  0
  -21.2684  -32.8482  -23.6155 C   0  0  0  0  0  0  0  0  0  0  0  0
  -21.6310  -31.4583  -21.6976 O   0  0  0  0  0  0  0  0  0  0  0  0
  -27.8627  -30.0396  -18.8828 N   0  0  0  0  0  0  0  0  0  0  0  0
  -27.1991  -30.1204  -17.6336 C   0  0  0  0  0  0  0  0  0  0  0  0
  -27.9910  -30.1623  -16.4632 C   0  0  0  0  0  0  0  0  0  0  0  0
  -27.4067  -30.3352  -15.2174 C   0  0  0  0  0  0  0  0  0  0  0  0
  -26.0277  -30.4543  -15.1192 C   0  0  0  0  0  0  0  0  0  0  0  0
  -25.2362  -30.3838  -16.2632 C   0  0  0  0  0  0  0  0  0  0  0  0
  -25.8174  -30.2097  -17.5223 C   0  0  0  0  0  0  0  0  0  0  0  0
  -29.2092  -29.9080  -18.8203 N   0  0  0  0  0  0  0  0  0  0  0  0
  1  2  1  0
  2  3  1  0
  3  4  2  0
  4  5  1  0
  5  6  1  0
  6  7  2  0
  6  8  1  0
  8  9  1  0
  9 10  1  0
 10 11  1  6
 10 12  1  0
  4 13  1  0
 13 14  1  0
 14 15  2  0
 15 16  1  0
 16 17  2  0
 17 18  1  0
 18 19  2  0
 13 20  1  0
 20  2  2  0
 19 14  1  0
M  END
>  <id>  (34) 
98948

>  <inchikey>  (34) 
FGZCUNYQGFTGLS-LLVKDONJSA-N

>  <alias>  (34) 
None

>  <smiles>  (34) 
Cc1cc(NC(=O)NC[C@@H](C)O)n(-c2ccccc2)n1

>  <path>  (34) 
/opt/xchem-fragalysis-2/maxwin/BulkDock/SCRATCH/217083/C55996-P104/C55996-P104.minimised.mol

>  <distance_score>  (34) 
0.985805

>  <energy_score>  (34) 
-6.224139

>  <compound>  (34) 
FGZCUNYQGFTGLS-UHFFFAOYSA-N

>  <compound_id>  (34) 
55996

>  <target>  (34) 
Flavi_NS5_RdRp

>  <tags>  (34) 
['LCD curated INTERESTING', 'Fragmenstein placed', 'Enamine_Quote_1977854', 'Enamine_Quote_1970815', 'Knitwork pure merge', 'JA curated INTERESTING', 'acceptable', 'Green Site/RNA tunnel merge', 'LCD curated YES']

>  <SLURM_JOB_ID>  (34) 
217083

>  <SLURM_JOB_NAME>  (34) 
BulkDock.place:Flavi_NS5_RdRp:RdRp_knitwork_green_site_rna_tunnel_pure_split4000_batch012

>  <csv_name>  (34) 
RdRp_knitwork_green_site_rna_tunnel_pure_split4000_batch012.csv

>  <scratch_subdir>  (34) 
/opt/xchem-fragalysis-2/maxwin/BulkDock/SCRATCH/217083/C55996-P104

>  <fragmenstein_runtime>  (34) 
6.014448

>  <fragmenstein_outcome>  (34) 
acceptable

>  <fragmenstein_mode>  (34) 
expansion

>  <fragmenstein_error>  (34) 


>  <exports>  (34) 
['/opt/xchem-fragalysis-2/maxwin/BulkDock/OUTPUTS/RdRp_knitwork_green_site_rna_tunnel_pure_split4000_batch012_217083.sdf', '/opt/xchem-fragalysis-2/maxwin/BulkDock/OUTPUTS/RdRp_knitwork_green_site_rna_tunnel_pure_fragalysis.sdf']

>  <Multi-SuCOS>  (34) 
nan

>  <merge_set>  (34) 
nan

$$$$
ZLBFYANSAYZPQU-UHFFFAOYSA-N
     RDKit          3D

 17 19  0  0  0  0  0  0  0  0999 V2000
  -25.4442  -34.0361  -19.4400 C   0  0  0  0  0  0  0  0  0  0  0  0
  -24.5349  -32.9953  -19.3978 C   0  0  0  0  0  0  0  0  0  0  0  0
  -24.9622  -31.7258  -19.7688 C   0  0  0  0  0  0  0  0  0  0  0  0
  -26.2818  -31.5051  -20.1666 C   0  0  0  0  0  0  0  0  0  0  0  0
  -26.7004  -30.1918  -20.4226 N   0  0  0  0  0  0  0  0  0  0  0  0
  -27.8539  -30.0365  -21.3114 C   0  0  0  0  0  0  0  0  0  0  0  0
  -29.0834  -29.4146  -20.6577 C   0  0  0  0  0  0  0  0  0  0  0  0
  -29.6034  -30.2204  -19.6067 O   0  0  0  0  0  0  0  0  0  0  0  0
  -28.9827  -30.1033  -18.3928 C   0  0  0  0  0  0  0  0  0  0  0  0
  -29.8033  -30.4762  -17.3194 C   0  0  0  0  0  0  0  0  0  0  0  0
  -29.3564  -30.4005  -16.0032 C   0  0  0  0  0  0  0  0  0  0  0  0
  -28.0696  -29.9515  -15.7478 C   0  0  0  0  0  0  0  0  0  0  0  0
  -27.2350  -29.6032  -16.8118 C   0  0  0  0  0  0  0  0  0  0  0  0
  -27.6639  -29.6940  -18.1540 C   0  0  0  0  0  0  0  0  0  0  0  0
  -26.6659  -29.3218  -19.2375 C   0  0  0  0  0  0  0  0  0  0  0  0
  -27.1382  -32.5375  -20.2860 N   0  0  0  0  0  0  0  0  0  0  0  0
  -26.7196  -33.7623  -19.8989 C   0  0  0  0  0  0  0  0  0  0  0  0
  1  2  2  0
  2  3  1  0
  3  4  2  0
  4  5  1  0
  5  6  1  0
  6  7  1  0
  7  8  1  0
  8  9  1  0
  9 10  2  0
 10 11  1  0
 11 12  2  0
 12 13  1  0
 13 14  2  0
 14 15  1  0
  4 16  1  0
 16 17  2  0
 17  1  1  0
 15  5  1  0
 14  9  1  0
M  END
>  <id>  (35) 
100189

>  <inchikey>  (35) 
ZLBFYANSAYZPQU-UHFFFAOYSA-N

>  <alias>  (35) 
None

>  <smiles>  (35) 
c1ccc(N2CCOc3ccccc3C2)nc1

>  <path>  (35) 
/opt/xchem-fragalysis-2/maxwin/BulkDock/SCRATCH/217082/C32376-P144/C32376-P144.minimised.mol

>  <distance_score>  (35) 
0.999442

>  <energy_score>  (35) 
-21.454072

>  <compound>  (35) 
ZLBFYANSAYZPQU-UHFFFAOYSA-N

>  <compound_id>  (35) 
32376

>  <target>  (35) 
Flavi_NS5_RdRp

>  <tags>  (35) 
['JA curated YES', 'Fragmenstein placed', 'Knitwork pure merge', 'Enamine_Order_1968912', 'acceptable', 'Green Site/RNA tunnel merge']

>  <SLURM_JOB_ID>  (35) 
217082

>  <SLURM_JOB_NAME>  (35) 
BulkDock.place:Flavi_NS5_RdRp:RdRp_knitwork_green_site_rna_tunnel_pure_split4000_batch011

>  <csv_name>  (35) 
RdRp_knitwork_green_site_rna_tunnel_pure_split4000_batch011.csv

>  <scratch_subdir>  (35) 
/opt/xchem-fragalysis-2/maxwin/BulkDock/SCRATCH/217082/C32376-P144

>  <fragmenstein_runtime>  (35) 
2.031196

>  <fragmenstein_outcome>  (35) 
acceptable

>  <fragmenstein_mode>  (35) 
expansion

>  <fragmenstein_error>  (35) 


>  <exports>  (35) 
['/opt/xchem-fragalysis-2/maxwin/BulkDock/OUTPUTS/RdRp_knitwork_green_site_rna_tunnel_pure_split4000_batch011_217082.sdf', '/opt/xchem-fragalysis-2/maxwin/BulkDock/OUTPUTS/RdRp_knitwork_green_site_rna_tunnel_pure_fragalysis.sdf', '/opt/xchem-fragalysis-2/maxwin/RdRp_FFF/quotes/JA_curated_and_manual_ordered.sdf']

>  <Multi-SuCOS>  (35) 
nan

>  <merge_set>  (35) 
nan

$$$$
RYINUJYFPYCEFQ-UHFFFAOYSA-N
     RDKit          3D

 15 17  0  0  0  0  0  0  0  0999 V2000
  -27.8431  -30.3512  -15.8373 C   0  0  0  0  0  0  0  0  0  0  0  0
  -26.7393  -29.7020  -16.3719 C   0  0  0  0  0  0  0  0  0  0  0  0
  -26.7227  -29.3653  -17.7261 C   0  0  0  0  0  0  0  0  0  0  0  0
  -27.8018  -29.6910  -18.5876 C   0  0  0  0  0  0  0  0  0  0  0  0
  -27.8835  -29.3890  -19.9678 C   0  0  0  0  0  0  0  0  0  0  0  0
  -26.9055  -28.5324  -20.6534 C   0  0  0  0  0  0  0  0  0  0  0  0
  -26.3411  -27.4450  -20.1504 N   0  0  0  0  0  0  0  0  0  0  0  0
  -25.6023  -26.8050  -21.1244 C   0  0  0  0  0  0  0  0  0  0  0  0
  -25.5131  -27.4630  -22.3298 C   0  0  0  0  0  0  0  0  0  0  0  0
  -26.4145  -28.9208  -22.2605 S   0  0  0  0  0  0  0  0  0  0  0  0
  -28.9184  -29.7719  -20.7686 N   0  0  0  0  0  0  0  0  0  0  0  0
  -29.9320  -30.4372  -20.1961 C   0  0  0  0  0  0  0  0  0  0  0  0
  -29.9621  -30.7584  -18.8547 C   0  0  0  0  0  0  0  0  0  0  0  0
  -28.8967  -30.3829  -18.0331 C   0  0  0  0  0  0  0  0  0  0  0  0
  -28.9138  -30.6901  -16.6626 C   0  0  0  0  0  0  0  0  0  0  0  0
  1  2  2  0
  2  3  1  0
  3  4  2  0
  4  5  1  0
  5  6  1  0
  6  7  2  0
  7  8  1  0
  8  9  2  0
  9 10  1  0
  5 11  2  0
 11 12  1  0
 12 13  2  0
 13 14  1  0
 14 15  2  0
 15  1  1  0
 14  4  1  0
 10  6  1  0
M  END
>  <id>  (36) 
103562

>  <inchikey>  (36) 
RYINUJYFPYCEFQ-UHFFFAOYSA-N

>  <alias>  (36) 
None

>  <smiles>  (36) 
c1ccc2c(-c3nccs3)nccc2c1

>  <path>  (36) 
/opt/xchem-fragalysis-2/maxwin/BulkDock/SCRATCH/217073/C30341-P136/C30341-P136.minimised.mol

>  <distance_score>  (36) 
0.693014

>  <energy_score>  (36) 
-58.072942

>  <compound>  (36) 
RYINUJYFPYCEFQ-UHFFFAOYSA-N

>  <compound_id>  (36) 
30341

>  <target>  (36) 
Flavi_NS5_RdRp

>  <tags>  (36) 
['Fragmenstein placed', 'Enamine_Quote_1977854', 'Enamine_Quote_1970815', 'Knitwork pure merge', 'JA curated INTERESTING', 'acceptable', 'Green Site/RNA tunnel merge']

>  <SLURM_JOB_ID>  (36) 
217073

>  <SLURM_JOB_NAME>  (36) 
BulkDock.place:Flavi_NS5_RdRp:RdRp_knitwork_green_site_rna_tunnel_pure_split4000_batch002

>  <csv_name>  (36) 
RdRp_knitwork_green_site_rna_tunnel_pure_split4000_batch002.csv

>  <scratch_subdir>  (36) 
/opt/xchem-fragalysis-2/maxwin/BulkDock/SCRATCH/217073/C30341-P136

>  <fragmenstein_runtime>  (36) 
1.664581

>  <fragmenstein_outcome>  (36) 
acceptable

>  <fragmenstein_mode>  (36) 
expansion

>  <fragmenstein_error>  (36) 


>  <exports>  (36) 
['/opt/xchem-fragalysis-2/maxwin/BulkDock/OUTPUTS/RdRp_knitwork_green_site_rna_tunnel_pure_split4000_batch002_217073.sdf', '/opt/xchem-fragalysis-2/maxwin/BulkDock/OUTPUTS/RdRp_knitwork_green_site_rna_tunnel_pure_fragalysis.sdf']

>  <Multi-SuCOS>  (36) 
nan

>  <merge_set>  (36) 
nan

$$$$
MOWNOSLAQYMJTK-UHFFFAOYSA-N
     RDKit          3D

 22 24  0  0  0  0  0  0  0  0999 V2000
  -25.9153  -30.5769  -23.1172 O   0  0  0  0  0  0  0  0  0  0  0  0
  -26.3396  -30.7419  -22.0406 C   0  0  0  0  0  0  0  0  0  0  0  0
  -27.6605  -30.0139  -21.7153 C   0  0  0  0  0  0  0  0  0  0  0  0
  -28.3278  -30.2069  -20.4265 C   0  0  0  0  0  0  0  0  0  0  0  0
  -29.7134  -30.1739  -20.1613 C   0  0  0  0  0  0  0  0  0  0  0  0
  -29.7977  -30.0834  -18.7973 C   0  0  0  0  0  0  0  0  0  0  0  0
  -28.5101  -30.0673  -18.3487 N   0  0  0  0  0  0  0  0  0  0  0  0
  -28.0616  -29.5339  -17.0937 C   0  0  0  0  0  0  0  0  0  0  0  0
  -26.6113  -29.8435  -16.7232 C   0  0  0  0  0  0  0  0  0  0  0  0
  -26.5842  -29.9660  -15.2209 C   0  0  0  0  0  0  0  0  0  0  0  0
  -28.0258  -30.1195  -14.7769 C   0  0  0  0  0  0  0  0  0  0  0  0
  -28.9421  -29.9497  -15.9490 C   0  0  0  0  0  0  0  0  0  0  0  0
  -27.6060  -30.2490  -19.3088 N   0  0  0  0  0  0  0  0  0  0  0  0
  -25.8183  -31.6119  -20.8875 N   0  0  0  0  0  0  0  0  0  0  0  0
  -24.7106  -32.5456  -20.8380 C   0  0  0  0  0  0  0  0  0  0  0  0
  -23.4366  -31.9755  -21.4965 C   0  0  0  0  0  0  0  0  0  0  0  0
  -22.8270  -32.7809  -22.5519 N   0  0  0  0  0  0  0  0  0  0  0  0
  -21.3961  -32.7310  -22.7532 C   0  0  0  0  0  0  0  0  0  0  0  0
  -21.2006  -32.9592  -24.2383 C   0  0  0  0  0  0  0  0  0  0  0  0
  -22.4463  -33.7133  -24.6669 C   0  0  0  0  0  0  0  0  0  0  0  0
  -23.4876  -33.2186  -23.6949 C   0  0  0  0  0  0  0  0  0  0  0  0
  -24.6893  -33.2601  -23.9025 O   0  0  0  0  0  0  0  0  0  0  0  0
  1  2  2  0
  2  3  1  0
  3  4  1  0
  4  5  1  0
  5  6  2  0
  6  7  1  0
  7  8  1  0
  8  9  1  0
  9 10  1  0
 10 11  1  0
 11 12  1  0
  7 13  1  0
  2 14  1  0
 14 15  1  0
 15 16  1  0
 16 17  1  0
 17 18  1  0
 18 19  1  0
 19 20  1  0
 20 21  1  0
 21 22  2  0
 13  4  2  0
 21 17  1  0
 12  8  1  0
M  END
>  <id>  (37) 
106992

>  <inchikey>  (37) 
MOWNOSLAQYMJTK-UHFFFAOYSA-N

>  <alias>  (37) 
None

>  <smiles>  (37) 
O=C(Cc1ccn(C2CCCC2)n1)NCCN1CCCC1=O

>  <path>  (37) 
/opt/xchem-fragalysis-2/maxwin/BulkDock/SCRATCH/217087/C41552-P206/C41552-P206.minimised.mol

>  <distance_score>  (37) 
0.892855

>  <energy_score>  (37) 
-19.142453

>  <compound>  (37) 
MOWNOSLAQYMJTK-UHFFFAOYSA-N

>  <compound_id>  (37) 
41552

>  <target>  (37) 
Flavi_NS5_RdRp

>  <tags>  (37) 
['Fragmenstein placed', 'Enamine_Quote_1977854', 'Enamine_Quote_1970815', 'Knitwork pure merge', 'JA curated INTERESTING', 'acceptable', 'Green Site/RNA tunnel merge', 'LCD curated YES']

>  <SLURM_JOB_ID>  (37) 
217087

>  <SLURM_JOB_NAME>  (37) 
BulkDock.place:Flavi_NS5_RdRp:RdRp_knitwork_green_site_rna_tunnel_pure_split4000_batch016

>  <csv_name>  (37) 
RdRp_knitwork_green_site_rna_tunnel_pure_split4000_batch016.csv

>  <scratch_subdir>  (37) 
/opt/xchem-fragalysis-2/maxwin/BulkDock/SCRATCH/217087/C41552-P206

>  <fragmenstein_runtime>  (37) 
4.387921

>  <fragmenstein_outcome>  (37) 
acceptable

>  <fragmenstein_mode>  (37) 
expansion

>  <fragmenstein_error>  (37) 


>  <exports>  (37) 
['/opt/xchem-fragalysis-2/maxwin/BulkDock/OUTPUTS/RdRp_knitwork_green_site_rna_tunnel_pure_split4000_batch016_217087.sdf', '/opt/xchem-fragalysis-2/maxwin/BulkDock/OUTPUTS/RdRp_knitwork_green_site_rna_tunnel_pure_fragalysis.sdf']

>  <Multi-SuCOS>  (37) 
nan

>  <merge_set>  (37) 
nan

$$$$
UKWFLRZSMSDWTC-SNVBAGLBSA-N
     RDKit          3D

 20 21  0  0  0  0  0  0  0  0999 V2000
  -21.1732  -32.9054  -23.8959 C   0  0  0  0  0  0  0  0  0  0  0  0
  -22.0787  -32.4718  -22.7576 C   0  0  1  0  0  0  0  0  0  0  0  0
  -21.4327  -31.4233  -22.0423 O   0  0  0  0  0  0  0  0  0  0  0  0
  -23.4438  -32.0341  -23.2807 C   0  0  0  0  0  0  0  0  0  0  0  0
  -24.3114  -31.5512  -22.2433 N   0  0  0  0  0  0  0  0  0  0  0  0
  -25.6815  -30.8343  -22.3345 C   0  0  0  0  0  0  0  0  0  0  0  0
  -26.2610  -30.4682  -23.2438 O   0  0  0  0  0  0  0  0  0  0  0  0
  -26.0683  -30.8293  -20.8285 N   0  0  0  0  0  0  0  0  0  0  0  0
  -27.2544  -30.4634  -20.2064 C   0  0  0  0  0  0  0  0  0  0  0  0
  -28.3879  -30.1640  -20.9498 C   0  0  0  0  0  0  0  0  0  0  0  0
  -29.5936  -29.9180  -20.3031 C   0  0  0  0  0  0  0  0  0  0  0  0
  -29.6366  -29.8719  -18.9118 C   0  0  0  0  0  0  0  0  0  0  0  0
  -28.4726  -30.0276  -18.1565 C   0  0  0  0  0  0  0  0  0  0  0  0
  -27.3013  -30.3978  -18.8134 C   0  0  0  0  0  0  0  0  0  0  0  0
  -26.1761  -30.7906  -18.1463 O   0  0  0  0  0  0  0  0  0  0  0  0
  -25.9724  -30.2198  -16.8550 C   0  0  0  0  0  0  0  0  0  0  0  0
  -25.3841  -28.8510  -17.1253 C   0  0  0  0  0  0  0  0  0  0  0  0
  -24.8974  -31.0801  -16.1715 C   0  0  0  0  0  0  0  0  0  0  0  0
  -27.2258  -30.1854  -15.9655 C   0  0  0  0  0  0  0  0  0  0  0  0
  -28.5049  -29.7767  -16.6829 C   0  0  0  0  0  0  0  0  0  0  0  0
  2  1  1  6
  2  3  1  0
  2  4  1  0
  4  5  1  0
  5  6  1  0
  6  7  2  0
  6  8  1  0
  8  9  1  0
  9 10  2  0
 10 11  1  0
 11 12  2  0
 12 13  1  0
 13 14  2  0
 14 15  1  0
 15 16  1  0
 16 17  1  0
 16 18  1  0
 16 19  1  0
 19 20  1  0
 14  9  1  0
 20 13  1  0
M  END
>  <id>  (38) 
114721

>  <inchikey>  (38) 
UKWFLRZSMSDWTC-SNVBAGLBSA-N

>  <alias>  (38) 
None

>  <smiles>  (38) 
C[C@@H](O)CNC(=O)Nc1cccc2c1OC(C)(C)CC2

>  <path>  (38) 
/opt/xchem-fragalysis-2/maxwin/BulkDock/SCRATCH/217087/C53809-P102/C53809-P102.minimised.mol

>  <distance_score>  (38) 
0.77861

>  <energy_score>  (38) 
-25.978202

>  <compound>  (38) 
UKWFLRZSMSDWTC-UHFFFAOYSA-N

>  <compound_id>  (38) 
53809

>  <target>  (38) 
Flavi_NS5_RdRp

>  <tags>  (38) 
['JA curated YES', 'Fragmenstein placed', 'Knitwork pure merge', 'Enamine_Order_1968912', 'acceptable', 'Green Site/RNA tunnel merge']

>  <SLURM_JOB_ID>  (38) 
217087

>  <SLURM_JOB_NAME>  (38) 
BulkDock.place:Flavi_NS5_RdRp:RdRp_knitwork_green_site_rna_tunnel_pure_split4000_batch016

>  <csv_name>  (38) 
RdRp_knitwork_green_site_rna_tunnel_pure_split4000_batch016.csv

>  <scratch_subdir>  (38) 
/opt/xchem-fragalysis-2/maxwin/BulkDock/SCRATCH/217087/C53809-P102

>  <fragmenstein_runtime>  (38) 
6.260428

>  <fragmenstein_outcome>  (38) 
acceptable

>  <fragmenstein_mode>  (38) 
expansion

>  <fragmenstein_error>  (38) 


>  <exports>  (38) 
['/opt/xchem-fragalysis-2/maxwin/BulkDock/OUTPUTS/RdRp_knitwork_green_site_rna_tunnel_pure_split4000_batch016_217087.sdf', '/opt/xchem-fragalysis-2/maxwin/BulkDock/OUTPUTS/RdRp_knitwork_green_site_rna_tunnel_pure_fragalysis.sdf', '/opt/xchem-fragalysis-2/maxwin/RdRp_FFF/quotes/JA_curated_and_manual_ordered.sdf']

>  <Multi-SuCOS>  (38) 
nan

>  <merge_set>  (38) 
nan

$$$$
XZCHKOUIHXKRTC-GFCCVEGCSA-N
     RDKit          3D

 22 24  0  0  0  0  0  0  0  0999 V2000
  -23.8341  -33.2180  -19.7900 C   0  0  0  0  0  0  0  0  0  0  0  0
  -24.6108  -32.6226  -20.9575 C   0  0  2  0  0  0  0  0  0  0  0  0
  -23.6739  -31.8003  -21.8769 C   0  0  0  0  0  0  0  0  0  0  0  0
  -22.9404  -32.5900  -22.8543 N   0  0  0  0  0  0  0  0  0  0  0  0
  -21.5073  -32.7450  -22.7978 C   0  0  0  0  0  0  0  0  0  0  0  0
  -21.1230  -33.0525  -24.2331 C   0  0  0  0  0  0  0  0  0  0  0  0
  -22.3650  -33.7091  -24.8206 C   0  0  0  0  0  0  0  0  0  0  0  0
  -23.4842  -33.0754  -24.0327 C   0  0  0  0  0  0  0  0  0  0  0  0
  -24.6550  -33.0400  -24.3800 O   0  0  0  0  0  0  0  0  0  0  0  0
  -25.7213  -31.8143  -20.4626 N   0  0  0  0  0  0  0  0  0  0  0  0
  -26.6796  -30.8782  -21.2055 C   0  0  0  0  0  0  0  0  0  0  0  0
  -26.6915  -30.5400  -22.3187 O   0  0  0  0  0  0  0  0  0  0  0  0
  -27.8092  -30.3283  -20.3606 C   0  0  0  0  0  0  0  0  0  0  0  0
  -28.9269  -29.9237  -21.1074 C   0  0  0  0  0  0  0  0  0  0  0  0
  -30.1483  -29.6769  -20.5125 C   0  0  0  0  0  0  0  0  0  0  0  0
  -30.2343  -29.7367  -19.1359 C   0  0  0  0  0  0  0  0  0  0  0  0
  -29.1104  -29.9005  -18.3505 C   0  0  0  0  0  0  0  0  0  0  0  0
  -29.2837  -29.7473  -17.0305 N   0  0  0  0  0  0  0  0  0  0  0  0
  -28.1920  -29.7511  -16.2444 C   0  0  0  0  0  0  0  0  0  0  0  0
  -26.9085  -29.9087  -16.7204 C   0  0  0  0  0  0  0  0  0  0  0  0
  -26.7414  -30.1329  -18.0821 C   0  0  0  0  0  0  0  0  0  0  0  0
  -27.8542  -30.1603  -18.9539 C   0  0  0  0  0  0  0  0  0  0  0  0
  2  1  1  1
  2  3  1  0
  3  4  1  0
  4  5  1  0
  5  6  1  0
  6  7  1  0
  7  8  1  0
  8  9  2  0
  2 10  1  0
 10 11  1  0
 11 12  2  0
 11 13  1  0
 13 14  2  0
 14 15  1  0
 15 16  2  0
 16 17  1  0
 17 18  2  0
 18 19  1  0
 19 20  2  0
 20 21  1  0
 21 22  2  0
  8  4  1  0
 22 13  1  0
 22 17  1  0
M  END
>  <id>  (39) 
119882

>  <inchikey>  (39) 
XZCHKOUIHXKRTC-GFCCVEGCSA-N

>  <alias>  (39) 
None

>  <smiles>  (39) 
C[C@H](CN1CCCC1=O)NC(=O)c1cccc2ncccc12

>  <path>  (39) 
/opt/xchem-fragalysis-2/maxwin/BulkDock/SCRATCH/217082/C65404-P206/C65404-P206.minimised.mol

>  <distance_score>  (39) 
0.843755

>  <energy_score>  (39) 
-45.046073

>  <compound>  (39) 
XZCHKOUIHXKRTC-UHFFFAOYSA-N

>  <compound_id>  (39) 
65404

>  <target>  (39) 
Flavi_NS5_RdRp

>  <tags>  (39) 
['Fragmenstein placed', 'Enamine_unavailable', 'Enamine_Quote_1970815', 'Knitwork pure merge', 'JA curated INTERESTING', 'acceptable', 'Green Site/RNA tunnel merge', 'LCD curated YES']

>  <SLURM_JOB_ID>  (39) 
217082

>  <SLURM_JOB_NAME>  (39) 
BulkDock.place:Flavi_NS5_RdRp:RdRp_knitwork_green_site_rna_tunnel_pure_split4000_batch011

>  <csv_name>  (39) 
RdRp_knitwork_green_site_rna_tunnel_pure_split4000_batch011.csv

>  <scratch_subdir>  (39) 
/opt/xchem-fragalysis-2/maxwin/BulkDock/SCRATCH/217082/C65404-P206

>  <fragmenstein_runtime>  (39) 
5.61817

>  <fragmenstein_outcome>  (39) 
acceptable

>  <fragmenstein_mode>  (39) 
expansion

>  <fragmenstein_error>  (39) 


>  <exports>  (39) 
['/opt/xchem-fragalysis-2/maxwin/BulkDock/OUTPUTS/RdRp_knitwork_green_site_rna_tunnel_pure_split4000_batch011_217082.sdf', '/opt/xchem-fragalysis-2/maxwin/BulkDock/OUTPUTS/RdRp_knitwork_green_site_rna_tunnel_pure_fragalysis.sdf']

>  <Multi-SuCOS>  (39) 
nan

>  <merge_set>  (39) 
nan

$$$$
UITHGRVXYULYQA-UHFFFAOYSA-N
     RDKit          3D

 21 23  0  0  0  0  0  0  0  0999 V2000
  -27.2779  -30.1216  -22.2807 O   0  0  0  0  0  0  0  0  0  0  0  0
  -27.2067  -30.6225  -21.2309 C   0  0  0  0  0  0  0  0  0  0  0  0
  -26.2667  -31.7292  -20.7142 N   0  0  0  0  0  0  0  0  0  0  0  0
  -25.2710  -32.5263  -21.4139 C   0  0  0  0  0  0  0  0  0  0  0  0
  -24.0921  -31.7112  -21.9678 C   0  0  0  0  0  0  0  0  0  0  0  0
  -23.2066  -32.4740  -22.8383 N   0  0  0  0  0  0  0  0  0  0  0  0
  -21.7982  -32.6409  -22.5674 C   0  0  0  0  0  0  0  0  0  0  0  0
  -21.1985  -32.9035  -23.9376 C   0  0  0  0  0  0  0  0  0  0  0  0
  -22.3315  -33.5543  -24.7189 C   0  0  0  0  0  0  0  0  0  0  0  0
  -23.5578  -32.9385  -24.0943 C   0  0  0  0  0  0  0  0  0  0  0  0
  -24.6645  -32.8973  -24.6069 O   0  0  0  0  0  0  0  0  0  0  0  0
  -28.2376  -30.2016  -20.2199 C   0  0  0  0  0  0  0  0  0  0  0  0
  -29.5025  -29.9143  -20.7447 C   0  0  0  0  0  0  0  0  0  0  0  0
  -30.5694  -29.7966  -19.8928 C   0  0  0  0  0  0  0  0  0  0  0  0
  -30.4341  -29.8386  -18.5634 N   0  0  0  0  0  0  0  0  0  0  0  0
  -29.2029  -29.9143  -18.0572 C   0  0  0  0  0  0  0  0  0  0  0  0
  -29.1068  -29.7877  -16.6881 C   0  0  0  0  0  0  0  0  0  0  0  0
  -27.8765  -29.7851  -16.0385 C   0  0  0  0  0  0  0  0  0  0  0  0
  -26.7090  -29.9153  -16.7744 C   0  0  0  0  0  0  0  0  0  0  0  0
  -26.7850  -30.0899  -18.1542 C   0  0  0  0  0  0  0  0  0  0  0  0
  -28.0349  -30.0932  -18.8276 C   0  0  0  0  0  0  0  0  0  0  0  0
  1  2  2  0
  2  3  1  0
  3  4  1  0
  4  5  1  0
  5  6  1  0
  6  7  1  0
  7  8  1  0
  8  9  1  0
  9 10  1  0
 10 11  2  0
  2 12  1  0
 12 13  2  0
 13 14  1  0
 14 15  2  0
 15 16  1  0
 16 17  2  0
 17 18  1  0
 18 19  2  0
 19 20  1  0
 20 21  2  0
 10  6  1  0
 21 12  1  0
 21 16  1  0
M  END
>  <id>  (40) 
120695

>  <inchikey>  (40) 
UITHGRVXYULYQA-UHFFFAOYSA-N

>  <alias>  (40) 
None

>  <smiles>  (40) 
O=C(NCCN1CCCC1=O)c1ccnc2ccccc12

>  <path>  (40) 
/opt/xchem-fragalysis-2/maxwin/BulkDock/SCRATCH/217082/C65644-P206/C65644-P206.minimised.mol

>  <distance_score>  (40) 
0.850362

>  <energy_score>  (40) 
-42.700457

>  <compound>  (40) 
UITHGRVXYULYQA-UHFFFAOYSA-N

>  <compound_id>  (40) 
65644

>  <target>  (40) 
Flavi_NS5_RdRp

>  <tags>  (40) 
['Fragmenstein placed', 'Enamine_Quote_1977854', 'Enamine_Quote_1970815', 'Knitwork pure merge', 'JA curated INTERESTING', 'acceptable', 'Green Site/RNA tunnel merge', 'LCD curated YES']

>  <SLURM_JOB_ID>  (40) 
217082

>  <SLURM_JOB_NAME>  (40) 
BulkDock.place:Flavi_NS5_RdRp:RdRp_knitwork_green_site_rna_tunnel_pure_split4000_batch011

>  <csv_name>  (40) 
RdRp_knitwork_green_site_rna_tunnel_pure_split4000_batch011.csv

>  <scratch_subdir>  (40) 
/opt/xchem-fragalysis-2/maxwin/BulkDock/SCRATCH/217082/C65644-P206

>  <fragmenstein_runtime>  (40) 
3.825018

>  <fragmenstein_outcome>  (40) 
acceptable

>  <fragmenstein_mode>  (40) 
expansion

>  <fragmenstein_error>  (40) 


>  <exports>  (40) 
['/opt/xchem-fragalysis-2/maxwin/BulkDock/OUTPUTS/RdRp_knitwork_green_site_rna_tunnel_pure_split4000_batch011_217082.sdf', '/opt/xchem-fragalysis-2/maxwin/BulkDock/OUTPUTS/RdRp_knitwork_green_site_rna_tunnel_pure_fragalysis.sdf']

>  <Multi-SuCOS>  (40) 
nan

>  <merge_set>  (40) 
nan

$$$$
UITHGRVXYULYQA-UHFFFAOYSA-N
     RDKit          3D

 21 23  0  0  0  0  0  0  0  0999 V2000
  -27.5439  -30.1286  -22.4788 O   0  0  0  0  0  0  0  0  0  0  0  0
  -27.5259  -30.8013  -21.5290 C   0  0  0  0  0  0  0  0  0  0  0  0
  -26.7173  -32.0737  -21.2235 N   0  0  0  0  0  0  0  0  0  0  0  0
  -25.6855  -32.7368  -21.9886 C   0  0  0  0  0  0  0  0  0  0  0  0
  -24.3888  -31.9194  -22.1253 C   0  0  0  0  0  0  0  0  0  0  0  0
  -23.3773  -32.6028  -22.9170 N   0  0  0  0  0  0  0  0  0  0  0  0
  -21.9973  -32.6805  -22.5146 C   0  0  0  0  0  0  0  0  0  0  0  0
  -21.2446  -32.8644  -23.8182 C   0  0  0  0  0  0  0  0  0  0  0  0
  -22.2603  -33.4758  -24.7696 C   0  0  0  0  0  0  0  0  0  0  0  0
  -23.5640  -32.9524  -24.2436 C   0  0  0  0  0  0  0  0  0  0  0  0
  -24.6008  -32.9112  -24.8816 O   0  0  0  0  0  0  0  0  0  0  0  0
  -28.4843  -30.4795  -20.4308 C   0  0  0  0  0  0  0  0  0  0  0  0
  -29.7967  -30.2329  -20.8319 C   0  0  0  0  0  0  0  0  0  0  0  0
  -30.7703  -30.1409  -19.8715 C   0  0  0  0  0  0  0  0  0  0  0  0
  -30.5061  -30.2178  -18.5598 N   0  0  0  0  0  0  0  0  0  0  0  0
  -29.2369  -30.3386  -18.1717 C   0  0  0  0  0  0  0  0  0  0  0  0
  -29.0121  -30.3417  -16.8109 C   0  0  0  0  0  0  0  0  0  0  0  0
  -27.7263  -30.4305  -16.2886 C   0  0  0  0  0  0  0  0  0  0  0  0
  -26.6357  -30.4933  -17.1450 C   0  0  0  0  0  0  0  0  0  0  0  0
  -26.8402  -30.5024  -18.5227 C   0  0  0  0  0  0  0  0  0  0  0  0
  -28.1499  -30.4533  -19.0612 C   0  0  0  0  0  0  0  0  0  0  0  0
  1  2  2  0
  2  3  1  0
  3  4  1  0
  4  5  1  0
  5  6  1  0
  6  7  1  0
  7  8  1  0
  8  9  1  0
  9 10  1  0
 10 11  2  0
  2 12  1  0
 12 13  2  0
 13 14  1  0
 14 15  2  0
 15 16  1  0
 16 17  2  0
 17 18  1  0
 18 19  2  0
 19 20  1  0
 20 21  2  0
 10  6  1  0
 21 12  1  0
 21 16  1  0
M  END
>  <id>  (41) 
120701

>  <inchikey>  (41) 
UITHGRVXYULYQA-UHFFFAOYSA-N

>  <alias>  (41) 
None

>  <smiles>  (41) 
O=C(NCCN1CCCC1=O)c1ccnc2ccccc12

>  <path>  (41) 
/opt/xchem-fragalysis-2/maxwin/BulkDock/SCRATCH/217082/C65644-P208/C65644-P208.minimised.mol

>  <distance_score>  (41) 
0.983392

>  <energy_score>  (41) 
-45.430687

>  <compound>  (41) 
UITHGRVXYULYQA-UHFFFAOYSA-N

>  <compound_id>  (41) 
65644

>  <target>  (41) 
Flavi_NS5_RdRp

>  <tags>  (41) 
['Fragmenstein placed', 'Enamine_Quote_1977854', 'Enamine_Quote_1970815', 'Knitwork pure merge', 'JA curated INTERESTING', 'acceptable', 'Green Site/RNA tunnel merge']

>  <SLURM_JOB_ID>  (41) 
217082

>  <SLURM_JOB_NAME>  (41) 
BulkDock.place:Flavi_NS5_RdRp:RdRp_knitwork_green_site_rna_tunnel_pure_split4000_batch011

>  <csv_name>  (41) 
RdRp_knitwork_green_site_rna_tunnel_pure_split4000_batch011.csv

>  <scratch_subdir>  (41) 
/opt/xchem-fragalysis-2/maxwin/BulkDock/SCRATCH/217082/C65644-P208

>  <fragmenstein_runtime>  (41) 
4.255212

>  <fragmenstein_outcome>  (41) 
acceptable

>  <fragmenstein_mode>  (41) 
expansion

>  <fragmenstein_error>  (41) 


>  <exports>  (41) 
['/opt/xchem-fragalysis-2/maxwin/BulkDock/OUTPUTS/RdRp_knitwork_green_site_rna_tunnel_pure_split4000_batch011_217082.sdf', '/opt/xchem-fragalysis-2/maxwin/BulkDock/OUTPUTS/RdRp_knitwork_green_site_rna_tunnel_pure_fragalysis.sdf']

>  <Multi-SuCOS>  (41) 
nan

>  <merge_set>  (41) 
nan

$$$$
OHJDLUXFTXKBRG-ZETCQYMHSA-N
     RDKit          3D

 19 19  0  0  0  0  0  0  0  0999 V2000
  -30.4476  -30.4413  -19.1915 C   0  0  0  0  0  0  0  0  0  0  0  0
  -28.9730  -30.4023  -19.1836 C   0  0  0  0  0  0  0  0  0  0  0  0
  -28.0804  -30.1901  -20.2087 C   0  0  0  0  0  0  0  0  0  0  0  0
  -26.8285  -30.5481  -19.6774 C   0  0  0  0  0  0  0  0  0  0  0  0
  -25.7136  -30.8192  -20.3994 N   0  0  0  0  0  0  0  0  0  0  0  0
  -25.5239  -30.9872  -21.9360 C   0  0  0  0  0  0  0  0  0  0  0  0
  -26.2665  -30.8437  -22.7899 O   0  0  0  0  0  0  0  0  0  0  0  0
  -24.0591  -31.5055  -21.9562 N   0  0  0  0  0  0  0  0  0  0  0  0
  -23.2722  -32.0349  -23.0402 C   0  0  0  0  0  0  0  0  0  0  0  0
  -21.7637  -32.0497  -22.7880 C   0  0  2  0  0  0  0  0  0  0  0  0
  -21.0853  -33.0935  -23.6659 C   0  0  0  0  0  0  0  0  0  0  0  0
  -21.4849  -32.3647  -21.4202 O   0  0  0  0  0  0  0  0  0  0  0  0
  -26.8873  -30.7599  -18.3616 N   0  0  0  0  0  0  0  0  0  0  0  0
  -28.2074  -30.7006  -18.0840 N   0  0  0  0  0  0  0  0  0  0  0  0
  -28.6789  -31.1884  -16.8070 C   0  0  0  0  0  0  0  0  0  0  0  0
  -28.6770  -30.1246  -15.7514 C   0  0  0  0  0  0  0  0  0  0  0  0
  -29.3033  -28.9974  -16.1508 F   0  0  0  0  0  0  0  0  0  0  0  0
  -29.3344  -30.5615  -14.6459 F   0  0  0  0  0  0  0  0  0  0  0  0
  -27.4306  -29.7954  -15.3485 F   0  0  0  0  0  0  0  0  0  0  0  0
  1  2  1  0
  2  3  2  0
  3  4  1  0
  4  5  1  0
  5  6  1  0
  6  7  2  0
  6  8  1  0
  8  9  1  0
  9 10  1  0
 10 11  1  6
 10 12  1  0
  4 13  2  0
 13 14  1  0
 14 15  1  0
 15 16  1  0
 16 17  1  0
 16 18  1  0
 16 19  1  0
 14  2  1  0
M  END
>  <id>  (42) 
130431

>  <inchikey>  (42) 
OHJDLUXFTXKBRG-ZETCQYMHSA-N

>  <alias>  (42) 
None

>  <smiles>  (42) 
Cc1cc(NC(=O)NC[C@H](C)O)nn1CC(F)(F)F

>  <path>  (42) 
/opt/xchem-fragalysis-2/maxwin/BulkDock/SCRATCH/217077/C54733-P153/C54733-P153.minimised.mol

>  <distance_score>  (42) 
0.785891

>  <energy_score>  (42) 
-8.969837

>  <compound>  (42) 
OHJDLUXFTXKBRG-UHFFFAOYSA-N

>  <compound_id>  (42) 
54733

>  <target>  (42) 
Flavi_NS5_RdRp

>  <tags>  (42) 
['LCD curated INTERESTING', 'Fragmenstein placed', 'Enamine_Quote_1977854', 'Enamine_Quote_1970815', 'Knitwork pure merge', 'JA curated INTERESTING', 'acceptable', 'Green Site/RNA tunnel merge', 'LCD curated YES']

>  <SLURM_JOB_ID>  (42) 
217077

>  <SLURM_JOB_NAME>  (42) 
BulkDock.place:Flavi_NS5_RdRp:RdRp_knitwork_green_site_rna_tunnel_pure_split4000_batch006

>  <csv_name>  (42) 
RdRp_knitwork_green_site_rna_tunnel_pure_split4000_batch006.csv

>  <scratch_subdir>  (42) 
/opt/xchem-fragalysis-2/maxwin/BulkDock/SCRATCH/217077/C54733-P153

>  <fragmenstein_runtime>  (42) 
4.14878

>  <fragmenstein_outcome>  (42) 
acceptable

>  <fragmenstein_mode>  (42) 
expansion

>  <fragmenstein_error>  (42) 


>  <exports>  (42) 
['/opt/xchem-fragalysis-2/maxwin/BulkDock/OUTPUTS/RdRp_knitwork_green_site_rna_tunnel_pure_split4000_batch006_217077.sdf', '/opt/xchem-fragalysis-2/maxwin/BulkDock/OUTPUTS/RdRp_knitwork_green_site_rna_tunnel_pure_fragalysis.sdf']

>  <Multi-SuCOS>  (42) 
nan

>  <merge_set>  (42) 
nan

$$$$
QLFFONPVDDKJCE-SNVBAGLBSA-N
     RDKit          3D

 19 20  0  0  0  0  0  0  0  0999 V2000
  -21.0522  -33.0241  -23.8094 C   0  0  0  0  0  0  0  0  0  0  0  0
  -21.9338  -32.5345  -22.6712 C   0  0  1  0  0  0  0  0  0  0  0  0
  -21.1818  -31.6196  -21.8797 O   0  0  0  0  0  0  0  0  0  0  0  0
  -23.2081  -31.8899  -23.2021 C   0  0  0  0  0  0  0  0  0  0  0  0
  -24.1279  -31.4907  -22.1703 N   0  0  0  0  0  0  0  0  0  0  0  0
  -25.5499  -30.8767  -22.2740 C   0  0  0  0  0  0  0  0  0  0  0  0
  -26.2027  -30.6794  -23.1892 O   0  0  0  0  0  0  0  0  0  0  0  0
  -25.8665  -30.7039  -20.7511 N   0  0  0  0  0  0  0  0  0  0  0  0
  -27.0531  -30.3536  -20.1118 C   0  0  0  0  0  0  0  0  0  0  0  0
  -28.1154  -29.9008  -20.8934 C   0  0  0  0  0  0  0  0  0  0  0  0
  -29.3957  -29.8245  -20.3681 C   0  0  0  0  0  0  0  0  0  0  0  0
  -29.6166  -30.1766  -19.0464 C   0  0  0  0  0  0  0  0  0  0  0  0
  -28.5429  -30.5275  -18.2179 C   0  0  0  0  0  0  0  0  0  0  0  0
  -28.8398  -30.8741  -16.8740 N   0  0  0  0  0  0  0  0  0  0  0  0
  -27.9693  -31.2134  -15.8630 C   0  0  0  0  0  0  0  0  0  0  0  0
  -28.7261  -31.5656  -14.7716 C   0  0  0  0  0  0  0  0  0  0  0  0
  -30.0495  -31.3882  -15.1945 C   0  0  0  0  0  0  0  0  0  0  0  0
  -30.1265  -30.9326  -16.4441 N   0  0  0  0  0  0  0  0  0  0  0  0
  -27.2410  -30.5988  -18.7482 C   0  0  0  0  0  0  0  0  0  0  0  0
  2  1  1  6
  2  3  1  0
  2  4  1  0
  4  5  1  0
  5  6  1  0
  6  7  2  0
  6  8  1  0
  8  9  1  0
  9 10  2  0
 10 11  1  0
 11 12  2  0
 12 13  1  0
 13 14  1  0
 14 15  1  0
 15 16  2  0
 16 17  1  0
 17 18  2  0
 13 19  2  0
 19  9  1  0
 18 14  1  0
M  END
>  <id>  (43) 
130715

>  <inchikey>  (43) 
QLFFONPVDDKJCE-SNVBAGLBSA-N

>  <alias>  (43) 
None

>  <smiles>  (43) 
C[C@@H](O)CNC(=O)Nc1cccc(-n2cccn2)c1

>  <path>  (43) 
/opt/xchem-fragalysis-2/maxwin/BulkDock/SCRATCH/217077/C55598-P153/C55598-P153.minimised.mol

>  <distance_score>  (43) 
0.787615

>  <energy_score>  (43) 
-46.042673

>  <compound>  (43) 
QLFFONPVDDKJCE-UHFFFAOYSA-N

>  <compound_id>  (43) 
55598

>  <target>  (43) 
Flavi_NS5_RdRp

>  <tags>  (43) 
['Fragmenstein placed', 'Enamine_Quote_1977854', 'Knitwork pure merge', 'JA curated INTERESTING', 'acceptable', 'Green Site/RNA tunnel merge']

>  <SLURM_JOB_ID>  (43) 
217077

>  <SLURM_JOB_NAME>  (43) 
BulkDock.place:Flavi_NS5_RdRp:RdRp_knitwork_green_site_rna_tunnel_pure_split4000_batch006

>  <csv_name>  (43) 
RdRp_knitwork_green_site_rna_tunnel_pure_split4000_batch006.csv

>  <scratch_subdir>  (43) 
/opt/xchem-fragalysis-2/maxwin/BulkDock/SCRATCH/217077/C55598-P153

>  <fragmenstein_runtime>  (43) 
4.003887

>  <fragmenstein_outcome>  (43) 
acceptable

>  <fragmenstein_mode>  (43) 
expansion

>  <fragmenstein_error>  (43) 


>  <exports>  (43) 
['/opt/xchem-fragalysis-2/maxwin/BulkDock/OUTPUTS/RdRp_knitwork_green_site_rna_tunnel_pure_split4000_batch006_217077.sdf', '/opt/xchem-fragalysis-2/maxwin/BulkDock/OUTPUTS/RdRp_knitwork_green_site_rna_tunnel_pure_fragalysis.sdf']

>  <Multi-SuCOS>  (43) 
nan

>  <merge_set>  (43) 
nan

$$$$
XYRDJRCBUAYREB-MRVPVSSYSA-N
     RDKit          3D

 17 18  0  0  0  0  0  0  0  0999 V2000
  -20.9776  -32.8281  -24.0426 C   0  0  0  0  0  0  0  0  0  0  0  0
  -21.9727  -32.5955  -22.9236 C   0  0  1  0  0  0  0  0  0  0  0  0
  -21.4111  -31.6897  -21.9699 O   0  0  0  0  0  0  0  0  0  0  0  0
  -23.3043  -32.0631  -23.4509 C   0  0  0  0  0  0  0  0  0  0  0  0
  -24.1551  -31.6374  -22.3718 N   0  0  0  0  0  0  0  0  0  0  0  0
  -25.5238  -30.9166  -22.3993 C   0  0  0  0  0  0  0  0  0  0  0  0
  -26.1190  -30.4996  -23.2772 O   0  0  0  0  0  0  0  0  0  0  0  0
  -25.8165  -30.8645  -20.8692 N   0  0  0  0  0  0  0  0  0  0  0  0
  -26.9205  -30.3790  -20.1816 C   0  0  0  0  0  0  0  0  0  0  0  0
  -28.1167  -30.0791  -20.8373 C   0  0  0  0  0  0  0  0  0  0  0  0
  -29.2582  -29.7264  -20.1232 C   0  0  0  0  0  0  0  0  0  0  0  0
  -29.2064  -29.5819  -18.7349 C   0  0  0  0  0  0  0  0  0  0  0  0
  -27.9750  -29.7241  -18.0719 C   0  0  0  0  0  0  0  0  0  0  0  0
  -27.5493  -29.5310  -16.7300 C   0  0  0  0  0  0  0  0  0  0  0  0
  -26.2136  -29.8508  -16.6595 C   0  0  0  0  0  0  0  0  0  0  0  0
  -25.8165  -30.2544  -17.9059 N   0  0  0  0  0  0  0  0  0  0  0  0
  -26.8653  -30.1623  -18.7972 C   0  0  0  0  0  0  0  0  0  0  0  0
  2  1  1  6
  2  3  1  0
  2  4  1  0
  4  5  1  0
  5  6  1  0
  6  7  2  0
  6  8  1  0
  8  9  1  0
  9 10  2  0
 10 11  1  0
 11 12  2  0
 12 13  1  0
 13 14  1  0
 14 15  2  0
 15 16  1  0
 16 17  1  0
 17  9  1  0
 17 13  2  0
M  END
>  <id>  (44) 
132062

>  <inchikey>  (44) 
XYRDJRCBUAYREB-MRVPVSSYSA-N

>  <alias>  (44) 
None

>  <smiles>  (44) 
C[C@@H](O)CNC(=O)Nc1cccc2cc[nH]c12

>  <path>  (44) 
/opt/xchem-fragalysis-2/maxwin/BulkDock/SCRATCH/217079/C34701-P82/C34701-P82.minimised.mol

>  <distance_score>  (44) 
0.700033

>  <energy_score>  (44) 
-1.256086

>  <compound>  (44) 
XYRDJRCBUAYREB-UHFFFAOYSA-N

>  <compound_id>  (44) 
34701

>  <target>  (44) 
Flavi_NS5_RdRp

>  <tags>  (44) 
['Fragmenstein placed', 'Enamine_Quote_1977854', 'Knitwork pure merge', 'acceptable', 'Green Site/RNA tunnel merge']

>  <SLURM_JOB_ID>  (44) 
217079

>  <SLURM_JOB_NAME>  (44) 
BulkDock.place:Flavi_NS5_RdRp:RdRp_knitwork_green_site_rna_tunnel_pure_split4000_batch008

>  <csv_name>  (44) 
RdRp_knitwork_green_site_rna_tunnel_pure_split4000_batch008.csv

>  <scratch_subdir>  (44) 
/opt/xchem-fragalysis-2/maxwin/BulkDock/SCRATCH/217079/C34701-P82

>  <fragmenstein_runtime>  (44) 
2.603448

>  <fragmenstein_outcome>  (44) 
acceptable

>  <fragmenstein_mode>  (44) 
expansion

>  <fragmenstein_error>  (44) 


>  <exports>  (44) 
['/opt/xchem-fragalysis-2/maxwin/BulkDock/OUTPUTS/RdRp_knitwork_green_site_rna_tunnel_pure_split4000_batch008_217079.sdf', '/opt/xchem-fragalysis-2/maxwin/BulkDock/OUTPUTS/RdRp_knitwork_green_site_rna_tunnel_pure_fragalysis.sdf']

>  <Multi-SuCOS>  (44) 
nan

>  <merge_set>  (44) 
nan

$$$$
XYRDJRCBUAYREB-MRVPVSSYSA-N
     RDKit          3D

 17 18  0  0  0  0  0  0  0  0999 V2000
  -21.0306  -32.8852  -23.9488 C   0  0  0  0  0  0  0  0  0  0  0  0
  -22.0193  -32.6980  -22.8144 C   0  0  1  0  0  0  0  0  0  0  0  0
  -21.3767  -32.0096  -21.7379 O   0  0  0  0  0  0  0  0  0  0  0  0
  -23.2307  -31.9048  -23.2911 C   0  0  0  0  0  0  0  0  0  0  0  0
  -24.0793  -31.5243  -22.2007 N   0  0  0  0  0  0  0  0  0  0  0  0
  -25.4979  -30.9124  -22.2033 C   0  0  0  0  0  0  0  0  0  0  0  0
  -26.2054  -30.7012  -23.0680 O   0  0  0  0  0  0  0  0  0  0  0  0
  -25.7038  -30.7393  -20.6745 N   0  0  0  0  0  0  0  0  0  0  0  0
  -26.8307  -30.3703  -19.9571 C   0  0  0  0  0  0  0  0  0  0  0  0
  -28.0796  -30.2557  -20.5793 C   0  0  0  0  0  0  0  0  0  0  0  0
  -29.2302  -29.9909  -19.8441 C   0  0  0  0  0  0  0  0  0  0  0  0
  -29.1543  -29.8058  -18.4620 C   0  0  0  0  0  0  0  0  0  0  0  0
  -27.8994  -29.8453  -17.8252 C   0  0  0  0  0  0  0  0  0  0  0  0
  -27.4759  -29.7175  -16.4765 C   0  0  0  0  0  0  0  0  0  0  0  0
  -26.1122  -29.8933  -16.4402 C   0  0  0  0  0  0  0  0  0  0  0  0
  -25.6863  -30.1353  -17.7190 N   0  0  0  0  0  0  0  0  0  0  0  0
  -26.7614  -30.1304  -18.5827 C   0  0  0  0  0  0  0  0  0  0  0  0
  2  1  1  6
  2  3  1  0
  2  4  1  0
  4  5  1  0
  5  6  1  0
  6  7  2  0
  6  8  1  0
  8  9  1  0
  9 10  2  0
 10 11  1  0
 11 12  2  0
 12 13  1  0
 13 14  1  0
 14 15  2  0
 15 16  1  0
 16 17  1  0
 17  9  1  0
 17 13  2  0
M  END
>  <id>  (45) 
132071

>  <inchikey>  (45) 
XYRDJRCBUAYREB-MRVPVSSYSA-N

>  <alias>  (45) 
None

>  <smiles>  (45) 
C[C@@H](O)CNC(=O)Nc1cccc2cc[nH]c12

>  <path>  (45) 
/opt/xchem-fragalysis-2/maxwin/BulkDock/SCRATCH/217079/C34701-P102/C34701-P102.minimised.mol

>  <distance_score>  (45) 
0.678419

>  <energy_score>  (45) 
-3.948916

>  <compound>  (45) 
XYRDJRCBUAYREB-UHFFFAOYSA-N

>  <compound_id>  (45) 
34701

>  <target>  (45) 
Flavi_NS5_RdRp

>  <tags>  (45) 
['JA curated YES', 'Fragmenstein placed', 'Enamine_Quote_1977854', 'Knitwork pure merge', 'Enamine_Order_1968912', 'acceptable', 'Green Site/RNA tunnel merge']

>  <SLURM_JOB_ID>  (45) 
217079

>  <SLURM_JOB_NAME>  (45) 
BulkDock.place:Flavi_NS5_RdRp:RdRp_knitwork_green_site_rna_tunnel_pure_split4000_batch008

>  <csv_name>  (45) 
RdRp_knitwork_green_site_rna_tunnel_pure_split4000_batch008.csv

>  <scratch_subdir>  (45) 
/opt/xchem-fragalysis-2/maxwin/BulkDock/SCRATCH/217079/C34701-P102

>  <fragmenstein_runtime>  (45) 
4.191432

>  <fragmenstein_outcome>  (45) 
acceptable

>  <fragmenstein_mode>  (45) 
expansion

>  <fragmenstein_error>  (45) 


>  <exports>  (45) 
['/opt/xchem-fragalysis-2/maxwin/BulkDock/OUTPUTS/RdRp_knitwork_green_site_rna_tunnel_pure_split4000_batch008_217079.sdf', '/opt/xchem-fragalysis-2/maxwin/BulkDock/OUTPUTS/RdRp_knitwork_green_site_rna_tunnel_pure_fragalysis.sdf', '/opt/xchem-fragalysis-2/maxwin/RdRp_FFF/quotes/JA_curated_and_manual_ordered.sdf']

>  <Multi-SuCOS>  (45) 
nan

>  <merge_set>  (45) 
nan

$$$$
OXHXBAHSHMBTDQ-NSHDSACASA-N
     RDKit          3D

 20 21  0  0  0  0  0  0  0  0999 V2000
  -24.4584  -31.3358  -14.6622 C   0  0  0  0  0  0  0  0  0  0  0  0
  -25.7997  -31.3394  -15.3757 C   0  0  0  0  0  0  0  0  0  0  0  0
  -26.3334  -29.9287  -15.5974 C   0  0  0  0  0  0  0  0  0  0  0  0
  -27.5122  -29.8610  -16.4488 N   0  0  0  0  0  0  0  0  0  0  0  0
  -28.8041  -29.7455  -16.0132 C   0  0  0  0  0  0  0  0  0  0  0  0
  -29.6250  -29.7170  -17.1199 C   0  0  0  0  0  0  0  0  0  0  0  0
  -28.8081  -29.8343  -18.2767 C   0  0  0  0  0  0  0  0  0  0  0  0
  -29.0569  -29.9150  -19.6623 C   0  0  0  0  0  0  0  0  0  0  0  0
  -27.9875  -30.1566  -20.5348 C   0  0  0  0  0  0  0  0  0  0  0  0
  -26.7012  -30.3279  -20.0333 C   0  0  0  0  0  0  0  0  0  0  0  0
  -25.6416  -30.7400  -20.8196 N   0  0  0  0  0  0  0  0  0  0  0  0
  -25.5257  -30.8699  -22.3565 C   0  0  0  0  0  0  0  0  0  0  0  0
  -26.2604  -30.5835  -23.1754 O   0  0  0  0  0  0  0  0  0  0  0  0
  -24.1655  -31.5941  -22.4449 N   0  0  0  0  0  0  0  0  0  0  0  0
  -23.5017  -32.1863  -23.5663 C   0  0  0  0  0  0  0  0  0  0  0  0
  -21.9849  -31.9915  -23.4775 C   0  0  2  0  0  0  0  0  0  0  0  0
  -21.2617  -33.1502  -24.1306 C   0  0  0  0  0  0  0  0  0  0  0  0
  -21.5578  -31.9085  -22.1103 O   0  0  0  0  0  0  0  0  0  0  0  0
  -26.4224  -30.1682  -18.6810 C   0  0  0  0  0  0  0  0  0  0  0  0
  -27.4932  -29.9323  -17.8219 C   0  0  0  0  0  0  0  0  0  0  0  0
  1  2  1  0
  2  3  1  0
  3  4  1  0
  4  5  1  0
  5  6  2  0
  6  7  1  0
  7  8  2  0
  8  9  1  0
  9 10  2  0
 10 11  1  0
 11 12  1  0
 12 13  2  0
 12 14  1  0
 14 15  1  0
 15 16  1  0
 16 17  1  1
 16 18  1  0
 10 19  1  0
 19 20  2  0
 20  4  1  0
 20  7  1  0
M  END
>  <id>  (46) 
132202

>  <inchikey>  (46) 
OXHXBAHSHMBTDQ-NSHDSACASA-N

>  <alias>  (46) 
None

>  <smiles>  (46) 
CCCn1ccc2ccc(NC(=O)NC[C@H](C)O)cc21

>  <path>  (46) 
/opt/xchem-fragalysis-2/maxwin/BulkDock/SCRATCH/217079/C35145-P102/C35145-P102.minimised.mol

>  <distance_score>  (46) 
0.896831

>  <energy_score>  (46) 
-4.236385

>  <compound>  (46) 
OXHXBAHSHMBTDQ-UHFFFAOYSA-N

>  <compound_id>  (46) 
35145

>  <target>  (46) 
Flavi_NS5_RdRp

>  <tags>  (46) 
['LCD curated INTERESTING', 'Fragmenstein placed', 'Enamine_Quote_1977854', 'Enamine_Quote_1970815', 'Knitwork pure merge', 'JA curated INTERESTING', 'acceptable', 'Green Site/RNA tunnel merge', 'LCD curated YES']

>  <SLURM_JOB_ID>  (46) 
217079

>  <SLURM_JOB_NAME>  (46) 
BulkDock.place:Flavi_NS5_RdRp:RdRp_knitwork_green_site_rna_tunnel_pure_split4000_batch008

>  <csv_name>  (46) 
RdRp_knitwork_green_site_rna_tunnel_pure_split4000_batch008.csv

>  <scratch_subdir>  (46) 
/opt/xchem-fragalysis-2/maxwin/BulkDock/SCRATCH/217079/C35145-P102

>  <fragmenstein_runtime>  (46) 
9.56863

>  <fragmenstein_outcome>  (46) 
acceptable

>  <fragmenstein_mode>  (46) 
expansion

>  <fragmenstein_error>  (46) 


>  <exports>  (46) 
['/opt/xchem-fragalysis-2/maxwin/BulkDock/OUTPUTS/RdRp_knitwork_green_site_rna_tunnel_pure_split4000_batch008_217079.sdf', '/opt/xchem-fragalysis-2/maxwin/BulkDock/OUTPUTS/RdRp_knitwork_green_site_rna_tunnel_pure_fragalysis.sdf']

>  <Multi-SuCOS>  (46) 
nan

>  <merge_set>  (46) 
nan

$$$$
DBRZTKKVIQOBQT-NSHDSACASA-N
     RDKit          3D

 20 21  0  0  0  0  0  0  0  0999 V2000
  -29.3443  -30.1412  -22.3911 C   0  0  0  0  0  0  0  0  0  0  0  0
  -28.5435  -30.0606  -21.1754 C   0  0  0  0  0  0  0  0  0  0  0  0
  -29.0856  -29.7907  -19.9286 C   0  0  0  0  0  0  0  0  0  0  0  0
  -28.0644  -29.8942  -19.0466 N   0  0  0  0  0  0  0  0  0  0  0  0
  -28.0963  -29.9823  -17.6069 C   0  0  0  0  0  0  0  0  0  0  0  0
  -26.7036  -29.8833  -16.9198 C   0  0  0  0  0  0  0  0  0  0  0  0
  -26.7334  -30.1541  -15.4232 C   0  0  0  0  0  0  0  0  0  0  0  0
  -28.1487  -30.3348  -14.9445 C   0  0  0  0  0  0  0  0  0  0  0  0
  -29.0716  -29.2516  -15.4471 C   0  0  0  0  0  0  0  0  0  0  0  0
  -29.0693  -29.0449  -16.9454 C   0  0  0  0  0  0  0  0  0  0  0  0
  -26.9384  -30.2589  -19.6286 N   0  0  0  0  0  0  0  0  0  0  0  0
  -27.1916  -30.3374  -20.9288 C   0  0  0  0  0  0  0  0  0  0  0  0
  -26.0765  -30.7455  -21.5734 N   0  0  0  0  0  0  0  0  0  0  0  0
  -25.8646  -31.1496  -23.0438 C   0  0  0  0  0  0  0  0  0  0  0  0
  -26.5832  -31.1212  -23.9264 O   0  0  0  0  0  0  0  0  0  0  0  0
  -24.4206  -31.7006  -22.9456 N   0  0  0  0  0  0  0  0  0  0  0  0
  -23.6337  -32.4049  -23.9036 C   0  0  0  0  0  0  0  0  0  0  0  0
  -22.1491  -32.2664  -23.5296 C   0  0  2  0  0  0  0  0  0  0  0  0
  -21.2965  -33.1743  -24.3899 C   0  0  0  0  0  0  0  0  0  0  0  0
  -21.9335  -32.6074  -22.1507 O   0  0  0  0  0  0  0  0  0  0  0  0
  1  2  1  0
  2  3  2  0
  3  4  1  0
  4  5  1  0
  5  6  1  0
  6  7  1  0
  7  8  1  0
  8  9  1  0
  9 10  1  0
  4 11  1  0
 11 12  2  0
 12 13  1  0
 13 14  1  0
 14 15  2  0
 14 16  1  0
 16 17  1  0
 17 18  1  0
 18 19  1  6
 18 20  1  0
 12  2  1  0
 10  5  1  0
M  END
>  <id>  (47) 
133849

>  <inchikey>  (47) 
DBRZTKKVIQOBQT-NSHDSACASA-N

>  <alias>  (47) 
None

>  <smiles>  (47) 
Cc1cn(C2CCCCC2)nc1NC(=O)NC[C@H](C)O

>  <path>  (47) 
/opt/xchem-fragalysis-2/maxwin/BulkDock/SCRATCH/217082/C54123-P196/C54123-P196.minimised.mol

>  <distance_score>  (47) 
0.986033

>  <energy_score>  (47) 
-19.005621

>  <compound>  (47) 
DBRZTKKVIQOBQT-UHFFFAOYSA-N

>  <compound_id>  (47) 
54123

>  <target>  (47) 
Flavi_NS5_RdRp

>  <tags>  (47) 
['JA curated YES', 'Fragmenstein placed', 'Enamine_Quote_1977854', 'Knitwork pure merge', 'Enamine_Order_1968912', 'acceptable', 'Green Site/RNA tunnel merge', 'LCD curated YES']

>  <SLURM_JOB_ID>  (47) 
217082

>  <SLURM_JOB_NAME>  (47) 
BulkDock.place:Flavi_NS5_RdRp:RdRp_knitwork_green_site_rna_tunnel_pure_split4000_batch011

>  <csv_name>  (47) 
RdRp_knitwork_green_site_rna_tunnel_pure_split4000_batch011.csv

>  <scratch_subdir>  (47) 
/opt/xchem-fragalysis-2/maxwin/BulkDock/SCRATCH/217082/C54123-P196

>  <fragmenstein_runtime>  (47) 
5.734726

>  <fragmenstein_outcome>  (47) 
acceptable

>  <fragmenstein_mode>  (47) 
expansion

>  <fragmenstein_error>  (47) 


>  <exports>  (47) 
['/opt/xchem-fragalysis-2/maxwin/BulkDock/OUTPUTS/RdRp_knitwork_green_site_rna_tunnel_pure_split4000_batch011_217082.sdf', '/opt/xchem-fragalysis-2/maxwin/BulkDock/OUTPUTS/RdRp_knitwork_green_site_rna_tunnel_pure_fragalysis.sdf', '/opt/xchem-fragalysis-2/maxwin/RdRp_FFF/quotes/JA_curated_and_manual_ordered.sdf']

>  <Multi-SuCOS>  (47) 
nan

>  <merge_set>  (47) 
nan

$$$$
UIINRFUWBVLBNK-NSHDSACASA-N
     RDKit          3D

 20 21  0  0  0  0  0  0  0  0999 V2000
  -30.5290  -30.3799  -19.8544 C   0  0  0  0  0  0  0  0  0  0  0  0
  -29.1040  -30.2038  -20.1611 C   0  0  0  0  0  0  0  0  0  0  0  0
  -28.4791  -30.2820  -21.4081 C   0  0  0  0  0  0  0  0  0  0  0  0
  -27.1327  -30.4112  -21.1032 C   0  0  0  0  0  0  0  0  0  0  0  0
  -26.0099  -30.8040  -21.7279 N   0  0  0  0  0  0  0  0  0  0  0  0
  -25.7781  -31.2290  -23.1825 C   0  0  0  0  0  0  0  0  0  0  0  0
  -26.4885  -31.2333  -24.0698 O   0  0  0  0  0  0  0  0  0  0  0  0
  -24.3264  -31.7445  -23.0623 N   0  0  0  0  0  0  0  0  0  0  0  0
  -23.5174  -32.4479  -23.9983 C   0  0  0  0  0  0  0  0  0  0  0  0
  -22.0482  -32.2084  -23.6248 C   0  0  2  0  0  0  0  0  0  0  0  0
  -21.1481  -33.1221  -24.4231 C   0  0  0  0  0  0  0  0  0  0  0  0
  -21.8401  -32.4734  -22.2268 O   0  0  0  0  0  0  0  0  0  0  0  0
  -26.9135  -30.2503  -19.8160 N   0  0  0  0  0  0  0  0  0  0  0  0
  -28.0924  -30.1030  -19.2132 N   0  0  0  0  0  0  0  0  0  0  0  0
  -28.0284  -29.9655  -17.7948 C   0  0  0  0  0  0  0  0  0  0  0  0
  -26.7425  -30.0437  -17.1883 C   0  0  0  0  0  0  0  0  0  0  0  0
  -26.5579  -29.8987  -15.8252 C   0  0  0  0  0  0  0  0  0  0  0  0
  -27.6700  -29.6918  -15.0429 C   0  0  0  0  0  0  0  0  0  0  0  0
  -28.9387  -29.6431  -15.6111 C   0  0  0  0  0  0  0  0  0  0  0  0
  -29.1344  -29.7744  -16.9843 C   0  0  0  0  0  0  0  0  0  0  0  0
  1  2  1  0
  2  3  2  0
  3  4  1  0
  4  5  1  0
  5  6  1  0
  6  7  2  0
  6  8  1  0
  8  9  1  0
  9 10  1  0
 10 11  1  6
 10 12  1  0
  4 13  2  0
 13 14  1  0
 14 15  1  0
 15 16  2  0
 16 17  1  0
 17 18  2  0
 18 19  1  0
 19 20  2  0
 14  2  1  0
 20 15  1  0
M  END
>  <id>  (48) 
134209

>  <inchikey>  (48) 
UIINRFUWBVLBNK-NSHDSACASA-N

>  <alias>  (48) 
None

>  <smiles>  (48) 
Cc1cc(NC(=O)NC[C@H](C)O)nn1-c1ccccc1

>  <path>  (48) 
/opt/xchem-fragalysis-2/maxwin/BulkDock/SCRATCH/217082/C55149-P196/C55149-P196.minimised.mol

>  <distance_score>  (48) 
0.979805

>  <energy_score>  (48) 
-27.017101

>  <compound>  (48) 
UIINRFUWBVLBNK-UHFFFAOYSA-N

>  <compound_id>  (48) 
55149

>  <target>  (48) 
Flavi_NS5_RdRp

>  <tags>  (48) 
['Fragmenstein placed', 'Enamine_Quote_1977854', 'Enamine_Quote_1970815', 'Knitwork pure merge', 'JA curated INTERESTING', 'acceptable', 'Green Site/RNA tunnel merge']

>  <SLURM_JOB_ID>  (48) 
217082

>  <SLURM_JOB_NAME>  (48) 
BulkDock.place:Flavi_NS5_RdRp:RdRp_knitwork_green_site_rna_tunnel_pure_split4000_batch011

>  <csv_name>  (48) 
RdRp_knitwork_green_site_rna_tunnel_pure_split4000_batch011.csv

>  <scratch_subdir>  (48) 
/opt/xchem-fragalysis-2/maxwin/BulkDock/SCRATCH/217082/C55149-P196

>  <fragmenstein_runtime>  (48) 
4.277842

>  <fragmenstein_outcome>  (48) 
acceptable

>  <fragmenstein_mode>  (48) 
expansion

>  <fragmenstein_error>  (48) 


>  <exports>  (48) 
['/opt/xchem-fragalysis-2/maxwin/BulkDock/OUTPUTS/RdRp_knitwork_green_site_rna_tunnel_pure_split4000_batch011_217082.sdf', '/opt/xchem-fragalysis-2/maxwin/BulkDock/OUTPUTS/RdRp_knitwork_green_site_rna_tunnel_pure_fragalysis.sdf']

>  <Multi-SuCOS>  (48) 
nan

>  <merge_set>  (48) 
nan

$$$$
QLFFONPVDDKJCE-SNVBAGLBSA-N
     RDKit          3D

 19 20  0  0  0  0  0  0  0  0999 V2000
  -21.1839  -32.8345  -23.8424 C   0  0  0  0  0  0  0  0  0  0  0  0
  -22.3835  -32.7153  -22.9189 C   0  0  1  0  0  0  0  0  0  0  0  0
  -21.9752  -32.0633  -21.7063 O   0  0  0  0  0  0  0  0  0  0  0  0
  -23.5279  -31.9348  -23.5811 C   0  0  0  0  0  0  0  0  0  0  0  0
  -24.4892  -31.5191  -22.6065 N   0  0  0  0  0  0  0  0  0  0  0  0
  -25.9314  -30.9770  -22.7856 C   0  0  0  0  0  0  0  0  0  0  0  0
  -26.5646  -30.8635  -23.7269 O   0  0  0  0  0  0  0  0  0  0  0  0
  -26.2815  -30.6970  -21.3039 N   0  0  0  0  0  0  0  0  0  0  0  0
  -27.4826  -30.3225  -20.7193 C   0  0  0  0  0  0  0  0  0  0  0  0
  -28.6900  -30.1763  -21.3705 C   0  0  0  0  0  0  0  0  0  0  0  0
  -29.8453  -29.9945  -20.6006 C   0  0  0  0  0  0  0  0  0  0  0  0
  -29.7832  -29.9193  -19.1963 C   0  0  0  0  0  0  0  0  0  0  0  0
  -28.5527  -29.9938  -18.5524 C   0  0  0  0  0  0  0  0  0  0  0  0
  -28.3705  -29.8599  -17.1539 N   0  0  0  0  0  0  0  0  0  0  0  0
  -29.3220  -29.6503  -16.1880 C   0  0  0  0  0  0  0  0  0  0  0  0
  -28.6579  -29.5973  -14.9856 C   0  0  0  0  0  0  0  0  0  0  0  0
  -27.3102  -29.7904  -15.2976 C   0  0  0  0  0  0  0  0  0  0  0  0
  -27.1212  -29.9256  -16.6059 N   0  0  0  0  0  0  0  0  0  0  0  0
  -27.4268  -30.2311  -19.3241 C   0  0  0  0  0  0  0  0  0  0  0  0
  2  1  1  6
  2  3  1  0
  2  4  1  0
  4  5  1  0
  5  6  1  0
  6  7  2  0
  6  8  1  0
  8  9  1  0
  9 10  2  0
 10 11  1  0
 11 12  2  0
 12 13  1  0
 13 14  1  0
 14 15  1  0
 15 16  2  0
 16 17  1  0
 17 18  2  0
 13 19  2  0
 19  9  1  0
 18 14  1  0
M  END
>  <id>  (49) 
134566

>  <inchikey>  (49) 
QLFFONPVDDKJCE-SNVBAGLBSA-N

>  <alias>  (49) 
None

>  <smiles>  (49) 
C[C@@H](O)CNC(=O)Nc1cccc(-n2cccn2)c1

>  <path>  (49) 
/opt/xchem-fragalysis-2/maxwin/BulkDock/SCRATCH/217082/C55598-P196/C55598-P196.minimised.mol

>  <distance_score>  (49) 
0.814242

>  <energy_score>  (49) 
-50.433259

>  <compound>  (49) 
QLFFONPVDDKJCE-UHFFFAOYSA-N

>  <compound_id>  (49) 
55598

>  <target>  (49) 
Flavi_NS5_RdRp

>  <tags>  (49) 
['JA curated YES', 'Fragmenstein placed', 'Enamine_Quote_1977854', 'Knitwork pure merge', 'LCD curated INTERESTING', 'Enamine_Order_1968912', 'acceptable', 'Green Site/RNA tunnel merge', 'LCD curated YES']

>  <SLURM_JOB_ID>  (49) 
217082

>  <SLURM_JOB_NAME>  (49) 
BulkDock.place:Flavi_NS5_RdRp:RdRp_knitwork_green_site_rna_tunnel_pure_split4000_batch011

>  <csv_name>  (49) 
RdRp_knitwork_green_site_rna_tunnel_pure_split4000_batch011.csv

>  <scratch_subdir>  (49) 
/opt/xchem-fragalysis-2/maxwin/BulkDock/SCRATCH/217082/C55598-P196

>  <fragmenstein_runtime>  (49) 
4.909375

>  <fragmenstein_outcome>  (49) 
acceptable

>  <fragmenstein_mode>  (49) 
expansion

>  <fragmenstein_error>  (49) 


>  <exports>  (49) 
['/opt/xchem-fragalysis-2/maxwin/BulkDock/OUTPUTS/RdRp_knitwork_green_site_rna_tunnel_pure_split4000_batch011_217082.sdf', '/opt/xchem-fragalysis-2/maxwin/BulkDock/OUTPUTS/RdRp_knitwork_green_site_rna_tunnel_pure_fragalysis.sdf', '/opt/xchem-fragalysis-2/maxwin/RdRp_FFF/quotes/JA_curated_and_manual_ordered.sdf']

>  <Multi-SuCOS>  (49) 
nan

>  <merge_set>  (49) 
nan

$$$$
LYBJDPXLKAGWQA-NSHDSACASA-N
     RDKit          3D

 20 21  0  0  0  0  0  0  0  0999 V2000
  -25.8269  -30.7094  -14.6554 C   0  0  0  0  0  0  0  0  0  0  0  0
  -26.9981  -30.2165  -15.3980 C   0  0  0  0  0  0  0  0  0  0  0  0
  -28.3647  -30.1209  -15.0666 C   0  0  0  0  0  0  0  0  0  0  0  0
  -28.9976  -29.7614  -16.2373 C   0  0  0  0  0  0  0  0  0  0  0  0
  -28.0170  -29.7683  -17.1950 N   0  0  0  0  0  0  0  0  0  0  0  0
  -28.1271  -29.8677  -18.5910 C   0  0  0  0  0  0  0  0  0  0  0  0
  -29.3451  -29.7903  -19.2572 C   0  0  0  0  0  0  0  0  0  0  0  0
  -29.3535  -29.8415  -20.6492 C   0  0  0  0  0  0  0  0  0  0  0  0
  -28.1690  -30.0752  -21.3543 C   0  0  0  0  0  0  0  0  0  0  0  0
  -26.9861  -30.2964  -20.6674 C   0  0  0  0  0  0  0  0  0  0  0  0
  -25.8216  -30.7192  -21.2787 N   0  0  0  0  0  0  0  0  0  0  0  0
  -25.4732  -30.8643  -22.7801 C   0  0  0  0  0  0  0  0  0  0  0  0
  -26.0734  -30.5832  -23.7043 O   0  0  0  0  0  0  0  0  0  0  0  0
  -24.1192  -31.5939  -22.6537 N   0  0  0  0  0  0  0  0  0  0  0  0
  -23.2986  -32.1966  -23.6512 C   0  0  0  0  0  0  0  0  0  0  0  0
  -21.8226  -32.1414  -23.2690 C   0  0  2  0  0  0  0  0  0  0  0  0
  -21.0236  -33.0106  -24.2175 C   0  0  0  0  0  0  0  0  0  0  0  0
  -21.6295  -32.6247  -21.9344 O   0  0  0  0  0  0  0  0  0  0  0  0
  -26.9527  -30.1454  -19.2970 C   0  0  0  0  0  0  0  0  0  0  0  0
  -26.7919  -29.7957  -16.6387 N   0  0  0  0  0  0  0  0  0  0  0  0
  1  2  1  0
  2  3  1  0
  3  4  2  0
  4  5  1  0
  5  6  1  0
  6  7  2  0
  7  8  1  0
  8  9  2  0
  9 10  1  0
 10 11  1  0
 11 12  1  0
 12 13  2  0
 12 14  1  0
 14 15  1  0
 15 16  1  0
 16 17  1  6
 16 18  1  0
 10 19  2  0
  5 20  1  0
 20  2  2  0
 19  6  1  0
M  END
>  <id>  (50) 
134697

>  <inchikey>  (50) 
LYBJDPXLKAGWQA-NSHDSACASA-N

>  <alias>  (50) 
None

>  <smiles>  (50) 
Cc1ccn(-c2cccc(NC(=O)NC[C@H](C)O)c2)n1

>  <path>  (50) 
/opt/xchem-fragalysis-2/maxwin/BulkDock/SCRATCH/217082/C55856-P102/C55856-P102.minimised.mol

>  <distance_score>  (50) 
0.741055

>  <energy_score>  (50) 
-25.566815

>  <compound>  (50) 
LYBJDPXLKAGWQA-UHFFFAOYSA-N

>  <compound_id>  (50) 
55856

>  <target>  (50) 
Flavi_NS5_RdRp

>  <tags>  (50) 
['JA curated YES', 'Fragmenstein placed', 'Enamine_Quote_1977854', 'Knitwork pure merge', 'LCD curated INTERESTING', 'Enamine_Order_1968912', 'acceptable', 'Green Site/RNA tunnel merge', 'LCD curated YES']

>  <SLURM_JOB_ID>  (50) 
217082

>  <SLURM_JOB_NAME>  (50) 
BulkDock.place:Flavi_NS5_RdRp:RdRp_knitwork_green_site_rna_tunnel_pure_split4000_batch011

>  <csv_name>  (50) 
RdRp_knitwork_green_site_rna_tunnel_pure_split4000_batch011.csv

>  <scratch_subdir>  (50) 
/opt/xchem-fragalysis-2/maxwin/BulkDock/SCRATCH/217082/C55856-P102

>  <fragmenstein_runtime>  (50) 
2.445407

>  <fragmenstein_outcome>  (50) 
acceptable

>  <fragmenstein_mode>  (50) 
expansion

>  <fragmenstein_error>  (50) 


>  <exports>  (50) 
['/opt/xchem-fragalysis-2/maxwin/BulkDock/OUTPUTS/RdRp_knitwork_green_site_rna_tunnel_pure_split4000_batch011_217082.sdf', '/opt/xchem-fragalysis-2/maxwin/BulkDock/OUTPUTS/RdRp_knitwork_green_site_rna_tunnel_pure_fragalysis.sdf', '/opt/xchem-fragalysis-2/maxwin/RdRp_FFF/quotes/JA_curated_and_manual_ordered.sdf']

>  <Multi-SuCOS>  (50) 
nan

>  <merge_set>  (50) 
nan

$$$$
LYBJDPXLKAGWQA-NSHDSACASA-N
     RDKit          3D

 20 21  0  0  0  0  0  0  0  0999 V2000
  -25.9961  -29.9997  -14.7385 C   0  0  0  0  0  0  0  0  0  0  0  0
  -27.2184  -29.8630  -15.5568 C   0  0  0  0  0  0  0  0  0  0  0  0
  -28.5526  -29.6478  -15.1675 C   0  0  0  0  0  0  0  0  0  0  0  0
  -29.2793  -29.6519  -16.3386 C   0  0  0  0  0  0  0  0  0  0  0  0
  -28.3803  -29.8516  -17.3561 N   0  0  0  0  0  0  0  0  0  0  0  0
  -28.6010  -29.9722  -18.7483 C   0  0  0  0  0  0  0  0  0  0  0  0
  -29.8447  -29.9101  -19.3600 C   0  0  0  0  0  0  0  0  0  0  0  0
  -29.9312  -29.9971  -20.7616 C   0  0  0  0  0  0  0  0  0  0  0  0
  -28.7893  -30.1830  -21.5551 C   0  0  0  0  0  0  0  0  0  0  0  0
  -27.5644  -30.3093  -20.9354 C   0  0  0  0  0  0  0  0  0  0  0  0
  -26.3796  -30.7114  -21.5343 N   0  0  0  0  0  0  0  0  0  0  0  0
  -26.0494  -30.9830  -23.0227 C   0  0  0  0  0  0  0  0  0  0  0  0
  -26.6866  -30.8390  -23.9577 O   0  0  0  0  0  0  0  0  0  0  0  0
  -24.6345  -31.6046  -22.8572 N   0  0  0  0  0  0  0  0  0  0  0  0
  -23.7875  -32.2495  -23.8143 C   0  0  0  0  0  0  0  0  0  0  0  0
  -22.3114  -32.1756  -23.3854 C   0  0  2  0  0  0  0  0  0  0  0  0
  -21.4559  -33.1228  -24.2077 C   0  0  0  0  0  0  0  0  0  0  0  0
  -22.1575  -32.5219  -22.0000 O   0  0  0  0  0  0  0  0  0  0  0  0
  -27.4862  -30.1987  -19.5476 C   0  0  0  0  0  0  0  0  0  0  0  0
  -27.1156  -29.9429  -16.8790 N   0  0  0  0  0  0  0  0  0  0  0  0
  1  2  1  0
  2  3  1  0
  3  4  2  0
  4  5  1  0
  5  6  1  0
  6  7  2  0
  7  8  1  0
  8  9  2  0
  9 10  1  0
 10 11  1  0
 11 12  1  0
 12 13  2  0
 12 14  1  0
 14 15  1  0
 15 16  1  0
 16 17  1  6
 16 18  1  0
 10 19  2  0
  5 20  1  0
 20  2  2  0
 19  6  1  0
M  END
>  <id>  (51) 
134704

>  <inchikey>  (51) 
LYBJDPXLKAGWQA-NSHDSACASA-N

>  <alias>  (51) 
None

>  <smiles>  (51) 
Cc1ccn(-c2cccc(NC(=O)NC[C@H](C)O)c2)n1

>  <path>  (51) 
/opt/xchem-fragalysis-2/maxwin/BulkDock/SCRATCH/217082/C55856-P196/C55856-P196.minimised.mol

>  <distance_score>  (51) 
0.833651

>  <energy_score>  (51) 
-29.020459

>  <compound>  (51) 
LYBJDPXLKAGWQA-UHFFFAOYSA-N

>  <compound_id>  (51) 
55856

>  <target>  (51) 
Flavi_NS5_RdRp

>  <tags>  (51) 
['JA curated YES', 'Fragmenstein placed', 'Enamine_Quote_1977854', 'Knitwork pure merge', 'Enamine_Order_1968912', 'acceptable', 'Green Site/RNA tunnel merge']

>  <SLURM_JOB_ID>  (51) 
217082

>  <SLURM_JOB_NAME>  (51) 
BulkDock.place:Flavi_NS5_RdRp:RdRp_knitwork_green_site_rna_tunnel_pure_split4000_batch011

>  <csv_name>  (51) 
RdRp_knitwork_green_site_rna_tunnel_pure_split4000_batch011.csv

>  <scratch_subdir>  (51) 
/opt/xchem-fragalysis-2/maxwin/BulkDock/SCRATCH/217082/C55856-P196

>  <fragmenstein_runtime>  (51) 
4.29716

>  <fragmenstein_outcome>  (51) 
acceptable

>  <fragmenstein_mode>  (51) 
expansion

>  <fragmenstein_error>  (51) 


>  <exports>  (51) 
['/opt/xchem-fragalysis-2/maxwin/BulkDock/OUTPUTS/RdRp_knitwork_green_site_rna_tunnel_pure_split4000_batch011_217082.sdf', '/opt/xchem-fragalysis-2/maxwin/BulkDock/OUTPUTS/RdRp_knitwork_green_site_rna_tunnel_pure_fragalysis.sdf', '/opt/xchem-fragalysis-2/maxwin/RdRp_FFF/quotes/JA_curated_and_manual_ordered.sdf']

>  <Multi-SuCOS>  (51) 
nan

>  <merge_set>  (51) 
nan

$$$$
SHENAZADMNUPGS-VIFPVBQESA-N
     RDKit          3D

 18 19  0  0  0  0  0  0  0  0999 V2000
  -21.2659  -33.0565  -23.9986 C   0  0  0  0  0  0  0  0  0  0  0  0
  -21.9929  -32.0097  -23.1727 C   0  0  2  0  0  0  0  0  0  0  0  0
  -21.5462  -32.1262  -21.8204 O   0  0  0  0  0  0  0  0  0  0  0  0
  -23.5014  -32.2329  -23.2688 C   0  0  0  0  0  0  0  0  0  0  0  0
  -24.2650  -31.6225  -22.2149 N   0  0  0  0  0  0  0  0  0  0  0  0
  -25.6168  -30.8682  -22.2635 C   0  0  0  0  0  0  0  0  0  0  0  0
  -26.2600  -30.5686  -23.1534 O   0  0  0  0  0  0  0  0  0  0  0  0
  -25.8863  -30.7317  -20.7399 N   0  0  0  0  0  0  0  0  0  0  0  0
  -27.0202  -30.2934  -20.0605 C   0  0  0  0  0  0  0  0  0  0  0  0
  -28.2255  -30.1214  -20.7462 C   0  0  0  0  0  0  0  0  0  0  0  0
  -29.4000  -29.9038  -20.0394 C   0  0  0  0  0  0  0  0  0  0  0  0
  -29.3572  -29.8173  -18.6517 C   0  0  0  0  0  0  0  0  0  0  0  0
  -28.1337  -29.8989  -17.9704 C   0  0  0  0  0  0  0  0  0  0  0  0
  -28.0683  -29.8064  -16.5760 C   0  0  0  0  0  0  0  0  0  0  0  0
  -26.8471  -29.9792  -15.9351 C   0  0  0  0  0  0  0  0  0  0  0  0
  -25.7256  -30.2154  -16.7074 C   0  0  0  0  0  0  0  0  0  0  0  0
  -25.7480  -30.2918  -18.0505 N   0  0  0  0  0  0  0  0  0  0  0  0
  -26.9378  -30.1488  -18.6768 C   0  0  0  0  0  0  0  0  0  0  0  0
  2  1  1  6
  2  3  1  0
  2  4  1  0
  4  5  1  0
  5  6  1  0
  6  7  2  0
  6  8  1  0
  8  9  1  0
  9 10  2  0
 10 11  1  0
 11 12  2  0
 12 13  1  0
 13 14  2  0
 14 15  1  0
 15 16  2  0
 16 17  1  0
 17 18  2  0
 18  9  1  0
 18 13  1  0
M  END
>  <id>  (52) 
134819

>  <inchikey>  (52) 
SHENAZADMNUPGS-VIFPVBQESA-N

>  <alias>  (52) 
None

>  <smiles>  (52) 
C[C@H](O)CNC(=O)Nc1cccc2cccnc12

>  <path>  (52) 
/opt/xchem-fragalysis-2/maxwin/BulkDock/SCRATCH/217075/C33434-P102/C33434-P102.minimised.mol

>  <distance_score>  (52) 
0.963034

>  <energy_score>  (52) 
-21.948084

>  <compound>  (52) 
SHENAZADMNUPGS-UHFFFAOYSA-N

>  <compound_id>  (52) 
33434

>  <target>  (52) 
Flavi_NS5_RdRp

>  <tags>  (52) 
['JA curated YES', 'Fragmenstein placed', 'Enamine_Quote_1977854', 'Knitwork pure merge', 'Enamine_Order_1968912', 'acceptable', 'Green Site/RNA tunnel merge']

>  <SLURM_JOB_ID>  (52) 
217075

>  <SLURM_JOB_NAME>  (52) 
BulkDock.place:Flavi_NS5_RdRp:RdRp_knitwork_green_site_rna_tunnel_pure_split4000_batch004

>  <csv_name>  (52) 
RdRp_knitwork_green_site_rna_tunnel_pure_split4000_batch004.csv

>  <scratch_subdir>  (52) 
/opt/xchem-fragalysis-2/maxwin/BulkDock/SCRATCH/217075/C33434-P102

>  <fragmenstein_runtime>  (52) 
4.497667

>  <fragmenstein_outcome>  (52) 
acceptable

>  <fragmenstein_mode>  (52) 
expansion

>  <fragmenstein_error>  (52) 


>  <exports>  (52) 
['/opt/xchem-fragalysis-2/maxwin/BulkDock/OUTPUTS/RdRp_knitwork_green_site_rna_tunnel_pure_split4000_batch004_217075.sdf', '/opt/xchem-fragalysis-2/maxwin/BulkDock/OUTPUTS/RdRp_knitwork_green_site_rna_tunnel_pure_fragalysis.sdf', '/opt/xchem-fragalysis-2/maxwin/RdRp_FFF/quotes/JA_curated_and_manual_ordered.sdf']

>  <Multi-SuCOS>  (52) 
nan

>  <merge_set>  (52) 
nan

$$$$
SHENAZADMNUPGS-VIFPVBQESA-N
     RDKit          3D

 18 19  0  0  0  0  0  0  0  0999 V2000
  -21.5134  -33.2798  -23.8934 C   0  0  0  0  0  0  0  0  0  0  0  0
  -22.3341  -32.1165  -23.3744 C   0  0  2  0  0  0  0  0  0  0  0  0
  -21.9467  -31.8743  -22.0171 O   0  0  0  0  0  0  0  0  0  0  0  0
  -23.8344  -32.4182  -23.4865 C   0  0  0  0  0  0  0  0  0  0  0  0
  -24.6071  -31.8503  -22.4176 N   0  0  0  0  0  0  0  0  0  0  0  0
  -26.0407  -31.2619  -22.4183 C   0  0  0  0  0  0  0  0  0  0  0  0
  -26.7633  -31.0835  -23.2817 O   0  0  0  0  0  0  0  0  0  0  0  0
  -26.2292  -31.0463  -20.8893 N   0  0  0  0  0  0  0  0  0  0  0  0
  -27.3567  -30.6673  -20.1640 C   0  0  0  0  0  0  0  0  0  0  0  0
  -28.5693  -30.4060  -20.8038 C   0  0  0  0  0  0  0  0  0  0  0  0
  -29.7074  -30.1398  -20.0541 C   0  0  0  0  0  0  0  0  0  0  0  0
  -29.6280  -30.1360  -18.6655 C   0  0  0  0  0  0  0  0  0  0  0  0
  -28.4002  -30.3605  -18.0230 C   0  0  0  0  0  0  0  0  0  0  0  0
  -28.3024  -30.3663  -16.6293 C   0  0  0  0  0  0  0  0  0  0  0  0
  -27.0698  -30.5895  -16.0296 C   0  0  0  0  0  0  0  0  0  0  0  0
  -25.9682  -30.7838  -16.8398 C   0  0  0  0  0  0  0  0  0  0  0  0
  -26.0234  -30.8060  -18.1846 N   0  0  0  0  0  0  0  0  0  0  0  0
  -27.2305  -30.6082  -18.7728 C   0  0  0  0  0  0  0  0  0  0  0  0
  2  1  1  1
  2  3  1  0
  2  4  1  0
  4  5  1  0
  5  6  1  0
  6  7  2  0
  6  8  1  0
  8  9  1  0
  9 10  2  0
 10 11  1  0
 11 12  2  0
 12 13  1  0
 13 14  2  0
 14 15  1  0
 15 16  2  0
 16 17  1  0
 17 18  2  0
 18  9  1  0
 18 13  1  0
M  END
>  <id>  (53) 
134826

>  <inchikey>  (53) 
SHENAZADMNUPGS-VIFPVBQESA-N

>  <alias>  (53) 
None

>  <smiles>  (53) 
C[C@H](O)CNC(=O)Nc1cccc2cccnc12

>  <path>  (53) 
/opt/xchem-fragalysis-2/maxwin/BulkDock/SCRATCH/217075/C33434-P208/C33434-P208.minimised.mol

>  <distance_score>  (53) 
0.949588

>  <energy_score>  (53) 
-22.097794

>  <compound>  (53) 
SHENAZADMNUPGS-UHFFFAOYSA-N

>  <compound_id>  (53) 
33434

>  <target>  (53) 
Flavi_NS5_RdRp

>  <tags>  (53) 
['JA curated YES', 'Fragmenstein placed', 'Enamine_Quote_1977854', 'Knitwork pure merge', 'Enamine_Order_1968912', 'acceptable', 'Green Site/RNA tunnel merge']

>  <SLURM_JOB_ID>  (53) 
217075

>  <SLURM_JOB_NAME>  (53) 
BulkDock.place:Flavi_NS5_RdRp:RdRp_knitwork_green_site_rna_tunnel_pure_split4000_batch004

>  <csv_name>  (53) 
RdRp_knitwork_green_site_rna_tunnel_pure_split4000_batch004.csv

>  <scratch_subdir>  (53) 
/opt/xchem-fragalysis-2/maxwin/BulkDock/SCRATCH/217075/C33434-P208

>  <fragmenstein_runtime>  (53) 
2.465154

>  <fragmenstein_outcome>  (53) 
acceptable

>  <fragmenstein_mode>  (53) 
expansion

>  <fragmenstein_error>  (53) 


>  <exports>  (53) 
['/opt/xchem-fragalysis-2/maxwin/BulkDock/OUTPUTS/RdRp_knitwork_green_site_rna_tunnel_pure_split4000_batch004_217075.sdf', '/opt/xchem-fragalysis-2/maxwin/BulkDock/OUTPUTS/RdRp_knitwork_green_site_rna_tunnel_pure_fragalysis.sdf', '/opt/xchem-fragalysis-2/maxwin/RdRp_FFF/quotes/JA_curated_and_manual_ordered.sdf']

>  <Multi-SuCOS>  (53) 
nan

>  <merge_set>  (53) 
nan

$$$$
DEGPAYOEPZCOBR-UHFFFAOYSA-N
     RDKit          3D

 20 22  0  0  0  0  0  0  0  0999 V2000
  -26.0968  -31.7801  -17.3571 C   0  0  0  0  0  0  0  0  0  0  0  0
  -27.0016  -31.1395  -18.3560 C   0  0  0  0  0  0  0  0  0  0  0  0
  -28.2243  -30.6196  -17.9383 C   0  0  0  0  0  0  0  0  0  0  0  0
  -29.1337  -30.0647  -18.7624 N   0  0  0  0  0  0  0  0  0  0  0  0
  -28.8166  -30.0266  -20.0703 C   0  0  0  0  0  0  0  0  0  0  0  0
  -27.6256  -30.5052  -20.5870 C   0  0  0  0  0  0  0  0  0  0  0  0
  -26.6960  -31.0643  -19.7202 C   0  0  0  0  0  0  0  0  0  0  0  0
  -25.4680  -31.5379  -20.1977 N   0  0  0  0  0  0  0  0  0  0  0  0
  -24.9151  -31.6385  -21.6666 C   0  0  0  0  0  0  0  0  0  0  0  0
  -25.3769  -31.2686  -22.6772 O   0  0  0  0  0  0  0  0  0  0  0  0
  -23.5656  -32.3480  -21.5175 C   0  0  0  0  0  0  0  0  0  0  0  0
  -22.7625  -32.5725  -22.7573 C   0  0  0  0  0  0  0  0  0  0  0  0
  -21.4378  -32.2069  -22.9186 C   0  0  0  0  0  0  0  0  0  0  0  0
  -20.9305  -32.6684  -24.0866 O   0  0  0  0  0  0  0  0  0  0  0  0
  -21.9364  -33.3267  -24.7163 C   0  0  0  0  0  0  0  0  0  0  0  0
  -21.8100  -33.9874  -25.9370 C   0  0  0  0  0  0  0  0  0  0  0  0
  -22.9521  -34.6309  -26.4135 C   0  0  0  0  0  0  0  0  0  0  0  0
  -24.1565  -34.5705  -25.7034 C   0  0  0  0  0  0  0  0  0  0  0  0
  -24.2493  -33.8946  -24.4743 C   0  0  0  0  0  0  0  0  0  0  0  0
  -23.1018  -33.2726  -23.9583 C   0  0  0  0  0  0  0  0  0  0  0  0
  1  2  1  0
  2  3  2  0
  3  4  1  0
  4  5  2  0
  5  6  1  0
  6  7  2  0
  7  8  1  0
  8  9  1  0
  9 10  2  0
  9 11  1  0
 11 12  1  0
 12 13  2  0
 13 14  1  0
 14 15  1  0
 15 16  2  0
 16 17  1  0
 17 18  2  0
 18 19  1  0
 19 20  2  0
  7  2  1  0
 20 12  1  0
 20 15  1  0
M  END
>  <id>  (54) 
155833

>  <inchikey>  (54) 
DEGPAYOEPZCOBR-UHFFFAOYSA-N

>  <alias>  (54) 
None

>  <smiles>  (54) 
Cc1cnccc1NC(=O)Cc1coc2ccccc12

>  <path>  (54) 
/opt/xchem-fragalysis-2/maxwin/BulkDock/SCRATCH/217079/C36458-P123/C36458-P123.minimised.mol

>  <distance_score>  (54) 
0.887184

>  <energy_score>  (54) 
-54.996595

>  <compound>  (54) 
DEGPAYOEPZCOBR-UHFFFAOYSA-N

>  <compound_id>  (54) 
36458

>  <target>  (54) 
Flavi_NS5_RdRp

>  <tags>  (54) 
['JA curated YES', 'Fragmenstein placed', 'Knitwork pure merge', 'Enamine_Order_1968912', 'acceptable', 'Green Site/RNA tunnel merge']

>  <SLURM_JOB_ID>  (54) 
217079

>  <SLURM_JOB_NAME>  (54) 
BulkDock.place:Flavi_NS5_RdRp:RdRp_knitwork_green_site_rna_tunnel_pure_split4000_batch008

>  <csv_name>  (54) 
RdRp_knitwork_green_site_rna_tunnel_pure_split4000_batch008.csv

>  <scratch_subdir>  (54) 
/opt/xchem-fragalysis-2/maxwin/BulkDock/SCRATCH/217079/C36458-P123

>  <fragmenstein_runtime>  (54) 
5.697099

>  <fragmenstein_outcome>  (54) 
acceptable

>  <fragmenstein_mode>  (54) 
expansion

>  <fragmenstein_error>  (54) 


>  <exports>  (54) 
['/opt/xchem-fragalysis-2/maxwin/BulkDock/OUTPUTS/RdRp_knitwork_green_site_rna_tunnel_pure_split4000_batch008_217079.sdf', '/opt/xchem-fragalysis-2/maxwin/BulkDock/OUTPUTS/RdRp_knitwork_green_site_rna_tunnel_pure_fragalysis.sdf', '/opt/xchem-fragalysis-2/maxwin/RdRp_FFF/quotes/JA_curated_and_manual_ordered.sdf']

>  <Multi-SuCOS>  (54) 
nan

>  <merge_set>  (54) 
nan

$$$$
LZEZZOBYMRLTRX-UHFFFAOYSA-N
     RDKit          3D

 15 17  0  0  0  0  0  0  0  0999 V2000
  -28.4434  -30.6614  -16.4211 C   0  0  0  0  0  0  0  0  0  0  0  0
  -27.6209  -29.9294  -17.2610 C   0  0  0  0  0  0  0  0  0  0  0  0
  -27.9888  -29.7892  -18.5984 C   0  0  0  0  0  0  0  0  0  0  0  0
  -27.1699  -29.1074  -19.5061 C   0  0  0  0  0  0  0  0  0  0  0  0
  -27.5027  -29.0594  -20.8632 C   0  0  0  0  0  0  0  0  0  0  0  0
  -26.5770  -28.4980  -21.8295 C   0  0  0  0  0  0  0  0  0  0  0  0
  -25.9003  -27.3042  -21.6588 C   0  0  0  0  0  0  0  0  0  0  0  0
  -24.9258  -26.9885  -23.0370 S   0  0  0  0  0  0  0  0  0  0  0  0
  -25.4407  -28.4730  -23.7206 C   0  0  0  0  0  0  0  0  0  0  0  0
  -26.3226  -29.1555  -23.0218 N   0  0  0  0  0  0  0  0  0  0  0  0
  -28.7026  -29.6339  -21.3004 C   0  0  0  0  0  0  0  0  0  0  0  0
  -29.5500  -30.2780  -20.3985 C   0  0  0  0  0  0  0  0  0  0  0  0
  -29.1826  -30.3844  -19.0488 C   0  0  0  0  0  0  0  0  0  0  0  0
  -29.9308  -31.0979  -18.1133 C   0  0  0  0  0  0  0  0  0  0  0  0
  -29.5942  -31.2451  -16.8103 N   0  0  0  0  0  0  0  0  0  0  0  0
  1  2  2  0
  2  3  1  0
  3  4  2  0
  4  5  1  0
  5  6  1  0
  6  7  2  0
  7  8  1  0
  8  9  1  0
  9 10  2  0
  5 11  2  0
 11 12  1  0
 12 13  2  0
 13 14  1  0
 14 15  2  0
 15  1  1  0
 13  3  1  0
 10  6  1  0
M  END
>  <id>  (55) 
161381

>  <inchikey>  (55) 
LZEZZOBYMRLTRX-UHFFFAOYSA-N

>  <alias>  (55) 
None

>  <smiles>  (55) 
c1cc2cc(-c3cscn3)ccc2cn1

>  <path>  (55) 
/opt/xchem-fragalysis-2/maxwin/BulkDock/SCRATCH/220454/C29796-P136/C29796-P136.minimised.mol

>  <distance_score>  (55) 
0.919145

>  <energy_score>  (55) 
-39.403236

>  <compound>  (55) 
LZEZZOBYMRLTRX-UHFFFAOYSA-N

>  <compound_id>  (55) 
29796

>  <target>  (55) 
Flavi_NS5_RdRp

>  <tags>  (55) 
['Fragmenstein placed', 'RdRp_knitwork_green_site_rna_tunnel_impure_fragalysis.sdf Pose OK', 'Enamine_Quote_1977854', 'Knitwork impure merge', 'acceptable', 'Green Site/RNA tunnel merge']

>  <SLURM_JOB_ID>  (55) 
220454

>  <SLURM_JOB_NAME>  (55) 
BulkDock.place:Flavi_NS5_RdRp:RdRp_knitwork_green_site_rna_tunnel_impure_split4000_batch003

>  <csv_name>  (55) 
RdRp_knitwork_green_site_rna_tunnel_impure_split4000_batch003.csv

>  <scratch_subdir>  (55) 
/opt/xchem-fragalysis-2/maxwin/BulkDock/SCRATCH/220454/C29796-P136

>  <fragmenstein_runtime>  (55) 
5.501829

>  <fragmenstein_outcome>  (55) 
acceptable

>  <fragmenstein_mode>  (55) 
expansion

>  <fragmenstein_error>  (55) 


>  <exports>  (55) 
['/opt/xchem-fragalysis-2/maxwin/BulkDock/OUTPUTS/RdRp_knitwork_green_site_rna_tunnel_impure_split4000_batch003_220454.sdf', '/opt/xchem-fragalysis-2/maxwin/BulkDock/OUTPUTS/RdRp_knitwork_green_site_rna_tunnel_impure_fragalysis.sdf', '/opt/xchem-fragalysis-2/maxwin/RdRp_FFF/syndirella/Retro_OK_batch3.sdf']

>  <Multi-SuCOS>  (55) 
0.803391

>  <merge_set>  (55) 
RdRp_knitwork_green_site_rna_tunnel_impure_fragalysis.sdf

$$$$
RYINUJYFPYCEFQ-UHFFFAOYSA-N
     RDKit          3D

 15 17  0  0  0  0  0  0  0  0999 V2000
  -27.8431  -30.3512  -15.8373 C   0  0  0  0  0  0  0  0  0  0  0  0
  -26.7393  -29.7020  -16.3719 C   0  0  0  0  0  0  0  0  0  0  0  0
  -26.7227  -29.3653  -17.7261 C   0  0  0  0  0  0  0  0  0  0  0  0
  -27.8018  -29.6910  -18.5876 C   0  0  0  0  0  0  0  0  0  0  0  0
  -27.8835  -29.3890  -19.9678 C   0  0  0  0  0  0  0  0  0  0  0  0
  -26.9055  -28.5324  -20.6534 C   0  0  0  0  0  0  0  0  0  0  0  0
  -26.3411  -27.4450  -20.1504 N   0  0  0  0  0  0  0  0  0  0  0  0
  -25.6023  -26.8050  -21.1244 C   0  0  0  0  0  0  0  0  0  0  0  0
  -25.5131  -27.4630  -22.3298 C   0  0  0  0  0  0  0  0  0  0  0  0
  -26.4145  -28.9208  -22.2605 S   0  0  0  0  0  0  0  0  0  0  0  0
  -28.9184  -29.7719  -20.7686 N   0  0  0  0  0  0  0  0  0  0  0  0
  -29.9320  -30.4372  -20.1961 C   0  0  0  0  0  0  0  0  0  0  0  0
  -29.9621  -30.7584  -18.8547 C   0  0  0  0  0  0  0  0  0  0  0  0
  -28.8967  -30.3829  -18.0331 C   0  0  0  0  0  0  0  0  0  0  0  0
  -28.9138  -30.6901  -16.6626 C   0  0  0  0  0  0  0  0  0  0  0  0
  1  2  2  0
  2  3  1  0
  3  4  2  0
  4  5  1  0
  5  6  1  0
  6  7  2  0
  7  8  1  0
  8  9  2  0
  9 10  1  0
  5 11  2  0
 11 12  1  0
 12 13  2  0
 13 14  1  0
 14 15  2  0
 15  1  1  0
 14  4  1  0
 10  6  1  0
M  END
>  <id>  (56) 
161593

>  <inchikey>  (56) 
RYINUJYFPYCEFQ-UHFFFAOYSA-N

>  <alias>  (56) 
None

>  <smiles>  (56) 
c1ccc2c(-c3nccs3)nccc2c1

>  <path>  (56) 
/opt/xchem-fragalysis-2/maxwin/BulkDock/SCRATCH/220454/C30341-P136/C30341-P136.minimised.mol

>  <distance_score>  (56) 
0.693014

>  <energy_score>  (56) 
-58.072942

>  <compound>  (56) 
RYINUJYFPYCEFQ-UHFFFAOYSA-N

>  <compound_id>  (56) 
30341

>  <target>  (56) 
Flavi_NS5_RdRp

>  <tags>  (56) 
['Fragmenstein placed', 'RdRp_knitwork_green_site_rna_tunnel_impure_fragalysis.sdf Pose OK', 'Enamine_Quote_1977854', 'Enamine_Quote_1970815', 'Knitwork impure merge', 'acceptable', 'Green Site/RNA tunnel merge']

>  <SLURM_JOB_ID>  (56) 
220454

>  <SLURM_JOB_NAME>  (56) 
BulkDock.place:Flavi_NS5_RdRp:RdRp_knitwork_green_site_rna_tunnel_impure_split4000_batch003

>  <csv_name>  (56) 
RdRp_knitwork_green_site_rna_tunnel_impure_split4000_batch003.csv

>  <scratch_subdir>  (56) 
/opt/xchem-fragalysis-2/maxwin/BulkDock/SCRATCH/220454/C30341-P136

>  <fragmenstein_runtime>  (56) 
1.232878

>  <fragmenstein_outcome>  (56) 
acceptable

>  <fragmenstein_mode>  (56) 
expansion

>  <fragmenstein_error>  (56) 


>  <exports>  (56) 
['/opt/xchem-fragalysis-2/maxwin/BulkDock/OUTPUTS/RdRp_knitwork_green_site_rna_tunnel_impure_split4000_batch003_220454.sdf', '/opt/xchem-fragalysis-2/maxwin/BulkDock/OUTPUTS/RdRp_knitwork_green_site_rna_tunnel_impure_fragalysis.sdf', '/opt/xchem-fragalysis-2/maxwin/RdRp_FFF/syndirella/Retro_OK_batch3.sdf']

>  <Multi-SuCOS>  (56) 
0.795546

>  <merge_set>  (56) 
RdRp_knitwork_green_site_rna_tunnel_impure_fragalysis.sdf

$$$$
PGVYGILCFWWCGJ-CPCISQLKSA-N
     RDKit          3D

 20 21  0  0  0  0  0  0  0  0999 V2000
  -23.5527  -34.3193  -23.2808 C   0  0  0  0  0  0  0  0  0  0  0  0
  -22.8054  -33.3831  -22.3297 C   0  0  2  0  0  0  0  0  0  0  0  0
  -23.7410  -32.6704  -21.4742 N   0  0  0  0  0  0  0  0  0  0  0  0
  -25.0952  -31.9901  -21.8127 C   0  0  0  0  0  0  0  0  0  0  0  0
  -25.6841  -31.9676  -22.7882 O   0  0  0  0  0  0  0  0  0  0  0  0
  -25.4137  -31.3478  -20.4311 N   0  0  0  0  0  0  0  0  0  0  0  0
  -26.5421  -30.6560  -19.9969 C   0  0  0  0  0  0  0  0  0  0  0  0
  -27.6335  -30.4205  -20.8416 C   0  0  0  0  0  0  0  0  0  0  0  0
  -28.8276  -29.8999  -20.3428 C   0  0  0  0  0  0  0  0  0  0  0  0
  -28.9571  -29.5780  -18.9915 C   0  0  0  0  0  0  0  0  0  0  0  0
  -27.8248  -29.7108  -18.1821 C   0  0  0  0  0  0  0  0  0  0  0  0
  -27.6458  -29.4215  -16.8494 N   0  0  0  0  0  0  0  0  0  0  0  0
  -26.3718  -29.7332  -16.4594 C   0  0  0  0  0  0  0  0  0  0  0  0
  -25.7139  -30.2496  -17.5503 C   0  0  0  0  0  0  0  0  0  0  0  0
  -26.6206  -30.2409  -18.6502 C   0  0  0  0  0  0  0  0  0  0  0  0
  -21.8991  -32.3772  -23.0748 C   0  0  2  0  0  0  0  0  0  0  0  0
  -21.2285  -33.0150  -24.1724 O   0  0  0  0  0  0  0  0  0  0  0  0
  -20.8835  -31.7742  -22.0947 C   0  0  0  0  0  0  0  0  0  0  0  0
  -20.1037  -32.7534  -21.5555 F   0  0  0  0  0  0  0  0  0  0  0  0
  -21.5031  -31.1787  -21.0436 F   0  0  0  0  0  0  0  0  0  0  0  0
  2  1  1  6
  2  3  1  0
  3  4  1  0
  4  5  2  0
  4  6  1  0
  6  7  1  0
  7  8  2  0
  8  9  1  0
  9 10  2  0
 10 11  1  0
 11 12  1  0
 12 13  1  0
 13 14  2  0
 14 15  1  0
  2 16  1  0
 16 17  1  6
 16 18  1  0
 18 19  1  0
 18 20  1  0
 15  7  1  0
 15 11  2  0
M  END
>  <id>  (57) 
165490

>  <inchikey>  (57) 
PGVYGILCFWWCGJ-CPCISQLKSA-N

>  <alias>  (57) 
None

>  <smiles>  (57) 
C[C@H](NC(=O)Nc1cccc2[nH]ccc12)[C@H](O)C(F)F

>  <path>  (57) 
/opt/xchem-fragalysis-2/maxwin/BulkDock/SCRATCH/220467/C43135-P82/C43135-P82.minimised.mol

>  <distance_score>  (57) 
0.85492

>  <energy_score>  (57) 
-18.553471

>  <compound>  (57) 
PGVYGILCFWWCGJ-UHFFFAOYSA-N

>  <compound_id>  (57) 
43135

>  <target>  (57) 
Flavi_NS5_RdRp

>  <tags>  (57) 
['Fragmenstein placed', 'Enamine_unavailable', 'RdRp_knitwork_green_site_rna_tunnel_impure_fragalysis.sdf Pose OK', 'Knitwork impure merge', 'acceptable', 'Green Site/RNA tunnel merge', 'LCD curated YES']

>  <SLURM_JOB_ID>  (57) 
220467

>  <SLURM_JOB_NAME>  (57) 
BulkDock.place:Flavi_NS5_RdRp:RdRp_knitwork_green_site_rna_tunnel_impure_split4000_batch016

>  <csv_name>  (57) 
RdRp_knitwork_green_site_rna_tunnel_impure_split4000_batch016.csv

>  <scratch_subdir>  (57) 
/opt/xchem-fragalysis-2/maxwin/BulkDock/SCRATCH/220467/C43135-P82

>  <fragmenstein_runtime>  (57) 
4.110196

>  <fragmenstein_outcome>  (57) 
acceptable

>  <fragmenstein_mode>  (57) 
expansion

>  <fragmenstein_error>  (57) 


>  <exports>  (57) 
['/opt/xchem-fragalysis-2/maxwin/BulkDock/OUTPUTS/RdRp_knitwork_green_site_rna_tunnel_impure_split4000_batch016_220467.sdf', '/opt/xchem-fragalysis-2/maxwin/BulkDock/OUTPUTS/RdRp_knitwork_green_site_rna_tunnel_impure_fragalysis.sdf', '/opt/xchem-fragalysis-2/maxwin/RdRp_FFF/syndirella/Retro_OK_batch3.sdf']

>  <Multi-SuCOS>  (57) 
0.593903

>  <merge_set>  (57) 
RdRp_knitwork_green_site_rna_tunnel_impure_fragalysis.sdf

$$$$
PGVYGILCFWWCGJ-CPCISQLKSA-N
     RDKit          3D

 20 21  0  0  0  0  0  0  0  0999 V2000
  -23.2604  -34.3576  -22.6661 C   0  0  0  0  0  0  0  0  0  0  0  0
  -22.5761  -33.1724  -21.9829 C   0  0  2  0  0  0  0  0  0  0  0  0
  -23.5400  -32.4217  -21.2011 N   0  0  0  0  0  0  0  0  0  0  0  0
  -24.9342  -31.8619  -21.5928 C   0  0  0  0  0  0  0  0  0  0  0  0
  -25.5325  -31.9845  -22.5540 O   0  0  0  0  0  0  0  0  0  0  0  0
  -25.3168  -31.1726  -20.2535 N   0  0  0  0  0  0  0  0  0  0  0  0
  -26.5197  -30.6058  -19.8434 C   0  0  0  0  0  0  0  0  0  0  0  0
  -27.6363  -30.5379  -20.6877 C   0  0  0  0  0  0  0  0  0  0  0  0
  -28.8812  -30.1430  -20.1977 C   0  0  0  0  0  0  0  0  0  0  0  0
  -29.0512  -29.8237  -18.8506 C   0  0  0  0  0  0  0  0  0  0  0  0
  -27.9152  -29.8283  -18.0359 C   0  0  0  0  0  0  0  0  0  0  0  0
  -27.7899  -29.5941  -16.6875 N   0  0  0  0  0  0  0  0  0  0  0  0
  -26.4916  -29.7663  -16.2903 C   0  0  0  0  0  0  0  0  0  0  0  0
  -25.7542  -30.1081  -17.3981 C   0  0  0  0  0  0  0  0  0  0  0  0
  -26.6492  -30.1835  -18.5055 C   0  0  0  0  0  0  0  0  0  0  0  0
  -21.8615  -32.2421  -22.9879 C   0  0  2  0  0  0  0  0  0  0  0  0
  -21.2201  -32.9958  -24.0396 O   0  0  0  0  0  0  0  0  0  0  0  0
  -20.8112  -31.4046  -22.2588 C   0  0  0  0  0  0  0  0  0  0  0  0
  -19.8091  -32.2362  -21.8434 F   0  0  0  0  0  0  0  0  0  0  0  0
  -21.2889  -30.8130  -21.1434 F   0  0  0  0  0  0  0  0  0  0  0  0
  2  1  1  6
  2  3  1  0
  3  4  1  0
  4  5  2  0
  4  6  1  0
  6  7  1  0
  7  8  2  0
  8  9  1  0
  9 10  2  0
 10 11  1  0
 11 12  1  0
 12 13  1  0
 13 14  2  0
 14 15  1  0
  2 16  1  0
 16 17  1  6
 16 18  1  0
 18 19  1  0
 18 20  1  0
 15  7  1  0
 15 11  2  0
M  END
>  <id>  (58) 
165517

>  <inchikey>  (58) 
PGVYGILCFWWCGJ-CPCISQLKSA-N

>  <alias>  (58) 
None

>  <smiles>  (58) 
C[C@H](NC(=O)Nc1cccc2[nH]ccc12)[C@H](O)C(F)F

>  <path>  (58) 
/opt/xchem-fragalysis-2/maxwin/BulkDock/SCRATCH/220467/C43135-P102/C43135-P102.minimised.mol

>  <distance_score>  (58) 
0.875778

>  <energy_score>  (58) 
-20.030516

>  <compound>  (58) 
PGVYGILCFWWCGJ-UHFFFAOYSA-N

>  <compound_id>  (58) 
43135

>  <target>  (58) 
Flavi_NS5_RdRp

>  <tags>  (58) 
['Fragmenstein placed', 'Enamine_unavailable', 'RdRp_knitwork_green_site_rna_tunnel_impure_fragalysis.sdf Pose OK', 'Knitwork impure merge', 'acceptable', 'Green Site/RNA tunnel merge']

>  <SLURM_JOB_ID>  (58) 
220467

>  <SLURM_JOB_NAME>  (58) 
BulkDock.place:Flavi_NS5_RdRp:RdRp_knitwork_green_site_rna_tunnel_impure_split4000_batch016

>  <csv_name>  (58) 
RdRp_knitwork_green_site_rna_tunnel_impure_split4000_batch016.csv

>  <scratch_subdir>  (58) 
/opt/xchem-fragalysis-2/maxwin/BulkDock/SCRATCH/220467/C43135-P102

>  <fragmenstein_runtime>  (58) 
4.481055

>  <fragmenstein_outcome>  (58) 
acceptable

>  <fragmenstein_mode>  (58) 
expansion

>  <fragmenstein_error>  (58) 


>  <exports>  (58) 
['/opt/xchem-fragalysis-2/maxwin/BulkDock/OUTPUTS/RdRp_knitwork_green_site_rna_tunnel_impure_split4000_batch016_220467.sdf', '/opt/xchem-fragalysis-2/maxwin/BulkDock/OUTPUTS/RdRp_knitwork_green_site_rna_tunnel_impure_fragalysis.sdf', '/opt/xchem-fragalysis-2/maxwin/RdRp_FFF/syndirella/Retro_OK_batch3.sdf']

>  <Multi-SuCOS>  (58) 
0.582379

>  <merge_set>  (58) 
RdRp_knitwork_green_site_rna_tunnel_impure_fragalysis.sdf

$$$$
UCXOUSGPQWXLPI-SNVBAGLBSA-N
     RDKit          3D

 22 23  0  0  0  0  0  0  0  0999 V2000
  -24.5412  -35.1141  -24.0758 C   0  0  0  0  0  0  0  0  0  0  0  0
  -24.2366  -33.6561  -25.1024 S   0  0  0  0  0  0  0  0  0  0  0  0
  -22.4295  -33.7780  -25.2849 C   0  0  0  0  0  0  0  0  0  0  0  0
  -21.5889  -33.5741  -24.0184 C   0  0  0  0  0  0  0  0  0  0  0  0
  -21.5004  -32.1552  -23.4717 C   0  0  2  0  0  0  0  0  0  0  0  0
  -20.4903  -32.0771  -22.3030 C   0  0  0  0  0  0  0  0  0  0  0  0
  -19.9033  -30.7690  -22.2347 O   0  0  0  0  0  0  0  0  0  0  0  0
  -22.7955  -31.6731  -23.0710 N   0  0  0  0  0  0  0  0  0  0  0  0
  -23.6449  -32.0072  -21.8420 C   0  0  0  0  0  0  0  0  0  0  0  0
  -23.4038  -32.6669  -20.9157 O   0  0  0  0  0  0  0  0  0  0  0  0
  -24.9961  -31.2546  -21.9246 C   0  0  0  0  0  0  0  0  0  0  0  0
  -25.4525  -30.9195  -22.9413 O   0  0  0  0  0  0  0  0  0  0  0  0
  -25.5483  -31.1323  -20.4958 N   0  0  0  0  0  0  0  0  0  0  0  0
  -26.6935  -30.5104  -20.0229 C   0  0  0  0  0  0  0  0  0  0  0  0
  -27.7810  -30.2399  -20.8591 C   0  0  0  0  0  0  0  0  0  0  0  0
  -28.9895  -29.7975  -20.3236 C   0  0  0  0  0  0  0  0  0  0  0  0
  -29.1243  -29.5655  -18.9526 C   0  0  0  0  0  0  0  0  0  0  0  0
  -27.9851  -29.7031  -18.1543 C   0  0  0  0  0  0  0  0  0  0  0  0
  -27.7966  -29.4551  -16.8144 N   0  0  0  0  0  0  0  0  0  0  0  0
  -26.5107  -29.7535  -16.4495 C   0  0  0  0  0  0  0  0  0  0  0  0
  -25.8585  -30.2286  -17.5626 C   0  0  0  0  0  0  0  0  0  0  0  0
  -26.7772  -30.1905  -18.6522 C   0  0  0  0  0  0  0  0  0  0  0  0
  1  2  1  0
  2  3  1  0
  3  4  1  0
  5  4  1  1
  5  6  1  0
  6  7  1  0
  5  8  1  0
  8  9  1  0
  9 10  2  0
  9 11  1  0
 11 12  2  0
 11 13  1  0
 13 14  1  0
 14 15  2  0
 15 16  1  0
 16 17  2  0
 17 18  1  0
 18 19  1  0
 19 20  1  0
 20 21  2  0
 21 22  1  0
 22 14  1  0
 22 18  2  0
M  END
>  <id>  (59) 
165620

>  <inchikey>  (59) 
UCXOUSGPQWXLPI-SNVBAGLBSA-N

>  <alias>  (59) 
None

>  <smiles>  (59) 
CSCC[C@H](CO)NC(=O)C(=O)Nc1cccc2[nH]ccc12

>  <path>  (59) 
/opt/xchem-fragalysis-2/maxwin/BulkDock/SCRATCH/220467/C43304-P82/C43304-P82.minimised.mol

>  <distance_score>  (59) 
0.787436

>  <energy_score>  (59) 
-25.334891

>  <compound>  (59) 
UCXOUSGPQWXLPI-UHFFFAOYSA-N

>  <compound_id>  (59) 
43304

>  <target>  (59) 
Flavi_NS5_RdRp

>  <tags>  (59) 
['Fragmenstein placed', 'RdRp_knitwork_green_site_rna_tunnel_impure_fragalysis.sdf Pose OK', 'Enamine_Quote_1977854', 'Knitwork impure merge', 'LCD curated INTERESTING', 'acceptable', 'Green Site/RNA tunnel merge']

>  <SLURM_JOB_ID>  (59) 
220467

>  <SLURM_JOB_NAME>  (59) 
BulkDock.place:Flavi_NS5_RdRp:RdRp_knitwork_green_site_rna_tunnel_impure_split4000_batch016

>  <csv_name>  (59) 
RdRp_knitwork_green_site_rna_tunnel_impure_split4000_batch016.csv

>  <scratch_subdir>  (59) 
/opt/xchem-fragalysis-2/maxwin/BulkDock/SCRATCH/220467/C43304-P82

>  <fragmenstein_runtime>  (59) 
12.03959

>  <fragmenstein_outcome>  (59) 
acceptable

>  <fragmenstein_mode>  (59) 
expansion

>  <fragmenstein_error>  (59) 


>  <exports>  (59) 
['/opt/xchem-fragalysis-2/maxwin/BulkDock/OUTPUTS/RdRp_knitwork_green_site_rna_tunnel_impure_split4000_batch016_220467.sdf', '/opt/xchem-fragalysis-2/maxwin/BulkDock/OUTPUTS/RdRp_knitwork_green_site_rna_tunnel_impure_fragalysis.sdf', '/opt/xchem-fragalysis-2/maxwin/RdRp_FFF/syndirella/Retro_OK_batch3.sdf']

>  <Multi-SuCOS>  (59) 
0.518908

>  <merge_set>  (59) 
RdRp_knitwork_green_site_rna_tunnel_impure_fragalysis.sdf

$$$$
UCXOUSGPQWXLPI-SNVBAGLBSA-N
     RDKit          3D

 22 23  0  0  0  0  0  0  0  0999 V2000
  -21.5676  -34.4764  -26.7097 C   0  0  0  0  0  0  0  0  0  0  0  0
  -22.8822  -34.8188  -25.5291 S   0  0  0  0  0  0  0  0  0  0  0  0
  -22.7989  -33.2785  -24.5704 C   0  0  0  0  0  0  0  0  0  0  0  0
  -21.6627  -33.2826  -23.5393 C   0  0  0  0  0  0  0  0  0  0  0  0
  -21.5461  -31.9429  -22.7950 C   0  0  2  0  0  0  0  0  0  0  0  0
  -20.6382  -32.0582  -21.5623 C   0  0  0  0  0  0  0  0  0  0  0  0
  -20.4069  -30.7781  -20.9663 O   0  0  0  0  0  0  0  0  0  0  0  0
  -22.8554  -31.4758  -22.4328 N   0  0  0  0  0  0  0  0  0  0  0  0
  -23.8550  -32.0161  -21.4127 C   0  0  0  0  0  0  0  0  0  0  0  0
  -23.7540  -32.8810  -20.6438 O   0  0  0  0  0  0  0  0  0  0  0  0
  -25.1861  -31.2583  -21.5394 C   0  0  0  0  0  0  0  0  0  0  0  0
  -25.7130  -31.1185  -22.5641 O   0  0  0  0  0  0  0  0  0  0  0  0
  -25.6416  -30.8790  -20.1301 N   0  0  0  0  0  0  0  0  0  0  0  0
  -26.8402  -30.3512  -19.6841 C   0  0  0  0  0  0  0  0  0  0  0  0
  -27.9579  -30.2435  -20.5186 C   0  0  0  0  0  0  0  0  0  0  0  0
  -29.2122  -29.9829  -19.9736 C   0  0  0  0  0  0  0  0  0  0  0  0
  -29.3741  -29.8094  -18.5958 C   0  0  0  0  0  0  0  0  0  0  0  0
  -28.2261  -29.8110  -17.7976 C   0  0  0  0  0  0  0  0  0  0  0  0
  -28.0807  -29.6768  -16.4379 N   0  0  0  0  0  0  0  0  0  0  0  0
  -26.7652  -29.8148  -16.0804 C   0  0  0  0  0  0  0  0  0  0  0  0
  -26.0384  -30.0367  -17.2242 C   0  0  0  0  0  0  0  0  0  0  0  0
  -26.9573  -30.0625  -18.3138 C   0  0  0  0  0  0  0  0  0  0  0  0
  1  2  1  0
  2  3  1  0
  3  4  1  0
  5  4  1  1
  5  6  1  0
  6  7  1  0
  5  8  1  0
  8  9  1  0
  9 10  2  0
  9 11  1  0
 11 12  2  0
 11 13  1  0
 13 14  1  0
 14 15  2  0
 15 16  1  0
 16 17  2  0
 17 18  1  0
 18 19  1  0
 19 20  1  0
 20 21  2  0
 21 22  1  0
 22 14  1  0
 22 18  2  0
M  END
>  <id>  (60) 
165638

>  <inchikey>  (60) 
UCXOUSGPQWXLPI-SNVBAGLBSA-N

>  <alias>  (60) 
None

>  <smiles>  (60) 
CSCC[C@H](CO)NC(=O)C(=O)Nc1cccc2[nH]ccc12

>  <path>  (60) 
/opt/xchem-fragalysis-2/maxwin/BulkDock/SCRATCH/220467/C43304-P102/C43304-P102.minimised.mol

>  <distance_score>  (60) 
0.849763

>  <energy_score>  (60) 
-23.772618

>  <compound>  (60) 
UCXOUSGPQWXLPI-UHFFFAOYSA-N

>  <compound_id>  (60) 
43304

>  <target>  (60) 
Flavi_NS5_RdRp

>  <tags>  (60) 
['Fragmenstein placed', 'RdRp_knitwork_green_site_rna_tunnel_impure_fragalysis.sdf Pose OK', 'Enamine_Quote_1977854', 'Knitwork impure merge', 'acceptable', 'Green Site/RNA tunnel merge']

>  <SLURM_JOB_ID>  (60) 
220467

>  <SLURM_JOB_NAME>  (60) 
BulkDock.place:Flavi_NS5_RdRp:RdRp_knitwork_green_site_rna_tunnel_impure_split4000_batch016

>  <csv_name>  (60) 
RdRp_knitwork_green_site_rna_tunnel_impure_split4000_batch016.csv

>  <scratch_subdir>  (60) 
/opt/xchem-fragalysis-2/maxwin/BulkDock/SCRATCH/220467/C43304-P102

>  <fragmenstein_runtime>  (60) 
4.941778

>  <fragmenstein_outcome>  (60) 
acceptable

>  <fragmenstein_mode>  (60) 
expansion

>  <fragmenstein_error>  (60) 


>  <exports>  (60) 
['/opt/xchem-fragalysis-2/maxwin/BulkDock/OUTPUTS/RdRp_knitwork_green_site_rna_tunnel_impure_split4000_batch016_220467.sdf', '/opt/xchem-fragalysis-2/maxwin/BulkDock/OUTPUTS/RdRp_knitwork_green_site_rna_tunnel_impure_fragalysis.sdf', '/opt/xchem-fragalysis-2/maxwin/RdRp_FFF/syndirella/Retro_OK_batch3.sdf']

>  <Multi-SuCOS>  (60) 
0.52532

>  <merge_set>  (60) 
RdRp_knitwork_green_site_rna_tunnel_impure_fragalysis.sdf

$$$$
XKPKUAISYUPFGS-OAHLLOKOSA-N
     RDKit          3D

 20 21  0  0  0  0  0  0  0  0999 V2000
  -20.8348  -32.9849  -23.8038 C   0  0  0  0  0  0  0  0  0  0  0  0
  -21.7407  -33.0682  -22.5704 C   0  0  0  0  0  0  0  0  0  0  0  0
  -21.2239  -32.0876  -21.5150 C   0  0  0  0  0  0  0  0  0  0  0  0
  -23.2683  -32.9765  -22.9262 C   0  0  1  0  0  0  0  0  0  0  0  0
  -23.5397  -32.1036  -24.1652 C   0  0  0  0  0  0  0  0  0  0  0  0
  -23.7721  -34.4308  -23.2098 C   0  0  0  0  0  0  0  0  0  0  0  0
  -25.0407  -34.4923  -23.8547 O   0  0  0  0  0  0  0  0  0  0  0  0
  -24.0495  -32.3633  -21.8428 N   0  0  0  0  0  0  0  0  0  0  0  0
  -25.5800  -32.2548  -21.6492 C   0  0  0  0  0  0  0  0  0  0  0  0
  -26.4313  -32.6917  -22.2648 O   0  0  0  0  0  0  0  0  0  0  0  0
  -25.6147  -31.2919  -20.4306 N   0  0  0  0  0  0  0  0  0  0  0  0
  -26.6841  -30.6395  -19.8302 C   0  0  0  0  0  0  0  0  0  0  0  0
  -27.8941  -30.4753  -20.5176 C   0  0  0  0  0  0  0  0  0  0  0  0
  -29.0174  -29.9439  -19.8888 C   0  0  0  0  0  0  0  0  0  0  0  0
  -28.9634  -29.5670  -18.5481 C   0  0  0  0  0  0  0  0  0  0  0  0
  -27.7316  -29.6729  -17.8921 C   0  0  0  0  0  0  0  0  0  0  0  0
  -27.3960  -29.3957  -16.5880 N   0  0  0  0  0  0  0  0  0  0  0  0
  -26.0832  -29.7007  -16.3567 C   0  0  0  0  0  0  0  0  0  0  0  0
  -25.5504  -30.1845  -17.5271 C   0  0  0  0  0  0  0  0  0  0  0  0
  -26.5845  -30.1832  -18.5046 C   0  0  0  0  0  0  0  0  0  0  0  0
  1  2  1  0
  2  3  1  0
  2  4  1  0
  4  5  1  6
  4  6  1  0
  6  7  1  0
  4  8  1  0
  8  9  1  0
  9 10  2  0
  9 11  1  0
 11 12  1  0
 12 13  2  0
 13 14  1  0
 14 15  2  0
 15 16  1  0
 16 17  1  0
 17 18  1  0
 18 19  2  0
 19 20  1  0
 20 12  1  0
 20 16  2  0
M  END
>  <id>  (61) 
166625

>  <inchikey>  (61) 
XKPKUAISYUPFGS-OAHLLOKOSA-N

>  <alias>  (61) 
None

>  <smiles>  (61) 
CC(C)[C@@](C)(CO)NC(=O)Nc1cccc2[nH]ccc12

>  <path>  (61) 
/opt/xchem-fragalysis-2/maxwin/BulkDock/SCRATCH/220467/C27417-P82/C27417-P82.minimised.mol

>  <distance_score>  (61) 
0.851586

>  <energy_score>  (61) 
-48.803946

>  <compound>  (61) 
XKPKUAISYUPFGS-UHFFFAOYSA-N

>  <compound_id>  (61) 
27417

>  <target>  (61) 
Flavi_NS5_RdRp

>  <tags>  (61) 
['Fragmenstein placed', 'Enamine_unavailable', 'RdRp_knitwork_green_site_rna_tunnel_impure_fragalysis.sdf Pose OK', 'Knitwork impure merge', 'acceptable', 'Green Site/RNA tunnel merge', 'LCD curated YES']

>  <SLURM_JOB_ID>  (61) 
220467

>  <SLURM_JOB_NAME>  (61) 
BulkDock.place:Flavi_NS5_RdRp:RdRp_knitwork_green_site_rna_tunnel_impure_split4000_batch016

>  <csv_name>  (61) 
RdRp_knitwork_green_site_rna_tunnel_impure_split4000_batch016.csv

>  <scratch_subdir>  (61) 
/opt/xchem-fragalysis-2/maxwin/BulkDock/SCRATCH/220467/C27417-P82

>  <fragmenstein_runtime>  (61) 
8.621567

>  <fragmenstein_outcome>  (61) 
acceptable

>  <fragmenstein_mode>  (61) 
expansion

>  <fragmenstein_error>  (61) 


>  <exports>  (61) 
['/opt/xchem-fragalysis-2/maxwin/BulkDock/OUTPUTS/RdRp_knitwork_green_site_rna_tunnel_impure_split4000_batch016_220467.sdf', '/opt/xchem-fragalysis-2/maxwin/BulkDock/OUTPUTS/RdRp_knitwork_green_site_rna_tunnel_impure_fragalysis.sdf', '/opt/xchem-fragalysis-2/maxwin/RdRp_FFF/syndirella/Retro_OK_batch3.sdf']

>  <Multi-SuCOS>  (61) 
0.535388

>  <merge_set>  (61) 
RdRp_knitwork_green_site_rna_tunnel_impure_fragalysis.sdf

$$$$
XKPKUAISYUPFGS-OAHLLOKOSA-N
     RDKit          3D

 20 21  0  0  0  0  0  0  0  0999 V2000
  -20.9169  -33.1803  -23.4500 C   0  0  0  0  0  0  0  0  0  0  0  0
  -21.8398  -32.8060  -22.2877 C   0  0  0  0  0  0  0  0  0  0  0  0
  -21.2005  -31.5996  -21.5964 C   0  0  0  0  0  0  0  0  0  0  0  0
  -23.3262  -32.6338  -22.7438 C   0  0  1  0  0  0  0  0  0  0  0  0
  -23.3945  -31.9018  -24.0851 C   0  0  0  0  0  0  0  0  0  0  0  0
  -23.9910  -34.0390  -22.9003 C   0  0  0  0  0  0  0  0  0  0  0  0
  -25.2745  -34.0164  -23.5287 O   0  0  0  0  0  0  0  0  0  0  0  0
  -24.0967  -31.8797  -21.7539 N   0  0  0  0  0  0  0  0  0  0  0  0
  -25.4948  -31.2266  -21.8590 C   0  0  0  0  0  0  0  0  0  0  0  0
  -26.1922  -31.1268  -22.7493 O   0  0  0  0  0  0  0  0  0  0  0  0
  -25.7066  -30.8414  -20.3765 N   0  0  0  0  0  0  0  0  0  0  0  0
  -26.8326  -30.3590  -19.7262 C   0  0  0  0  0  0  0  0  0  0  0  0
  -28.0579  -30.2555  -20.4023 C   0  0  0  0  0  0  0  0  0  0  0  0
  -29.2317  -29.9720  -19.7123 C   0  0  0  0  0  0  0  0  0  0  0  0
  -29.2133  -29.7712  -18.3316 C   0  0  0  0  0  0  0  0  0  0  0  0
  -27.9734  -29.8079  -17.6842 C   0  0  0  0  0  0  0  0  0  0  0  0
  -27.6656  -29.6905  -16.3503 N   0  0  0  0  0  0  0  0  0  0  0  0
  -26.3211  -29.8529  -16.1526 C   0  0  0  0  0  0  0  0  0  0  0  0
  -25.7390  -30.0803  -17.3763 C   0  0  0  0  0  0  0  0  0  0  0  0
  -26.7779  -30.0813  -18.3507 C   0  0  0  0  0  0  0  0  0  0  0  0
  1  2  1  0
  2  3  1  0
  2  4  1  0
  4  5  1  6
  4  6  1  0
  6  7  1  0
  4  8  1  0
  8  9  1  0
  9 10  2  0
  9 11  1  0
 11 12  1  0
 12 13  2  0
 13 14  1  0
 14 15  2  0
 15 16  1  0
 16 17  1  0
 17 18  1  0
 18 19  2  0
 19 20  1  0
 20 12  1  0
 20 16  2  0
M  END
>  <id>  (62) 
166655

>  <inchikey>  (62) 
XKPKUAISYUPFGS-OAHLLOKOSA-N

>  <alias>  (62) 
None

>  <smiles>  (62) 
CC(C)[C@@](C)(CO)NC(=O)Nc1cccc2[nH]ccc12

>  <path>  (62) 
/opt/xchem-fragalysis-2/maxwin/BulkDock/SCRATCH/220467/C27417-P102/C27417-P102.minimised.mol

>  <distance_score>  (62) 
0.737873

>  <energy_score>  (62) 
-49.753921

>  <compound>  (62) 
XKPKUAISYUPFGS-UHFFFAOYSA-N

>  <compound_id>  (62) 
27417

>  <target>  (62) 
Flavi_NS5_RdRp

>  <tags>  (62) 
['Fragmenstein placed', 'Enamine_unavailable', 'RdRp_knitwork_green_site_rna_tunnel_impure_fragalysis.sdf Pose OK', 'Knitwork impure merge', 'acceptable', 'Green Site/RNA tunnel merge']

>  <SLURM_JOB_ID>  (62) 
220467

>  <SLURM_JOB_NAME>  (62) 
BulkDock.place:Flavi_NS5_RdRp:RdRp_knitwork_green_site_rna_tunnel_impure_split4000_batch016

>  <csv_name>  (62) 
RdRp_knitwork_green_site_rna_tunnel_impure_split4000_batch016.csv

>  <scratch_subdir>  (62) 
/opt/xchem-fragalysis-2/maxwin/BulkDock/SCRATCH/220467/C27417-P102

>  <fragmenstein_runtime>  (62) 
7.109853

>  <fragmenstein_outcome>  (62) 
acceptable

>  <fragmenstein_mode>  (62) 
expansion

>  <fragmenstein_error>  (62) 


>  <exports>  (62) 
['/opt/xchem-fragalysis-2/maxwin/BulkDock/OUTPUTS/RdRp_knitwork_green_site_rna_tunnel_impure_split4000_batch016_220467.sdf', '/opt/xchem-fragalysis-2/maxwin/BulkDock/OUTPUTS/RdRp_knitwork_green_site_rna_tunnel_impure_fragalysis.sdf', '/opt/xchem-fragalysis-2/maxwin/RdRp_FFF/syndirella/Retro_OK_batch3.sdf']

>  <Multi-SuCOS>  (62) 
0.619389

>  <merge_set>  (62) 
RdRp_knitwork_green_site_rna_tunnel_impure_fragalysis.sdf

$$$$
RMDDLTVCDWQPGN-AWEZNQCLSA-N
     RDKit          3D

 22 25  0  0  0  0  0  0  0  0999 V2000
  -26.4440  -30.9562  -22.2857 O   0  0  0  0  0  0  0  0  0  0  0  0
  -26.1627  -31.3102  -21.2126 C   0  0  0  0  0  0  0  0  0  0  0  0
  -25.0667  -32.3120  -20.8859 C   0  0  0  0  0  0  0  0  0  0  0  0
  -24.3180  -32.8419  -22.1105 C   0  0  0  0  0  0  0  0  0  0  0  0
  -23.2659  -33.8277  -21.6582 C   0  0  0  0  0  0  0  0  0  0  0  0
  -23.4824  -35.1869  -21.5430 C   0  0  0  0  0  0  0  0  0  0  0  0
  -22.2043  -35.9914  -20.7604 S   0  0  0  0  0  0  0  0  0  0  0  0
  -21.2801  -34.5474  -20.6206 C   0  0  0  0  0  0  0  0  0  0  0  0
  -20.0132  -34.4064  -20.0159 C   0  0  0  0  0  0  0  0  0  0  0  0
  -19.3891  -33.1581  -20.0255 C   0  0  0  0  0  0  0  0  0  0  0  0
  -20.0174  -32.0662  -20.6032 C   0  0  0  0  0  0  0  0  0  0  0  0
  -21.2826  -32.2064  -21.1808 C   0  0  0  0  0  0  0  0  0  0  0  0
  -21.9427  -33.4611  -21.1970 C   0  0  0  0  0  0  0  0  0  0  0  0
  -26.7585  -30.9155  -19.8363 N   0  0  0  0  0  0  0  0  0  0  0  0
  -27.7635  -29.9278  -19.4942 C   0  0  1  0  0  0  0  0  0  0  0  0
  -29.1835  -30.4568  -19.7246 C   0  0  0  0  0  0  0  0  0  0  0  0
  -29.5977  -31.4607  -18.6513 C   0  0  0  0  0  0  0  0  0  0  0  0
  -29.4773  -30.8995  -17.3053 N   0  0  0  0  0  0  0  0  0  0  0  0
  -28.0971  -30.4468  -17.0563 C   0  0  0  0  0  0  0  0  0  0  0  0
  -27.6765  -30.3136  -15.6154 C   0  0  0  0  0  0  0  0  0  0  0  0
  -27.1333  -31.4381  -16.4438 C   0  0  0  0  0  0  0  0  0  0  0  0
  -27.5747  -29.4362  -18.0542 C   0  0  0  0  0  0  0  0  0  0  0  0
  1  2  2  0
  2  3  1  0
  3  4  1  0
  4  5  1  0
  5  6  2  0
  6  7  1  0
  7  8  1  0
  8  9  2  0
  9 10  1  0
 10 11  2  0
 11 12  1  0
 12 13  2  0
  2 14  1  0
 15 14  1  1
 15 16  1  0
 16 17  1  0
 17 18  1  0
 18 19  1  0
 19 20  1  0
 20 21  1  0
 19 22  1  0
 13  5  1  0
 22 15  1  0
 13  8  1  0
 21 19  1  0
M  END
>  <id>  (63) 
168974

>  <inchikey>  (63) 
RMDDLTVCDWQPGN-AWEZNQCLSA-N

>  <alias>  (63) 
None

>  <smiles>  (63) 
O=C(CCc1csc2ccccc12)N[C@H]1CCNC2(CC2)C1

>  <path>  (63) 
/opt/xchem-fragalysis-2/maxwin/BulkDock/SCRATCH/220468/C34583-P120/C34583-P120.minimised.mol

>  <distance_score>  (63) 
0.853421

>  <energy_score>  (63) 
-39.882357

>  <compound>  (63) 
RMDDLTVCDWQPGN-UHFFFAOYSA-N

>  <compound_id>  (63) 
34583

>  <target>  (63) 
Flavi_NS5_RdRp

>  <tags>  (63) 
['Fragmenstein placed', 'Enamine_unavailable', 'RdRp_knitwork_green_site_rna_tunnel_impure_fragalysis.sdf Pose OK', 'Knitwork impure merge', 'acceptable', 'Green Site/RNA tunnel merge', 'LCD curated YES']

>  <SLURM_JOB_ID>  (63) 
220468

>  <SLURM_JOB_NAME>  (63) 
BulkDock.place:Flavi_NS5_RdRp:RdRp_knitwork_green_site_rna_tunnel_impure_split4000_batch017

>  <csv_name>  (63) 
RdRp_knitwork_green_site_rna_tunnel_impure_split4000_batch017.csv

>  <scratch_subdir>  (63) 
/opt/xchem-fragalysis-2/maxwin/BulkDock/SCRATCH/220468/C34583-P120

>  <fragmenstein_runtime>  (63) 
5.397103

>  <fragmenstein_outcome>  (63) 
acceptable

>  <fragmenstein_mode>  (63) 
expansion

>  <fragmenstein_error>  (63) 


>  <exports>  (63) 
['/opt/xchem-fragalysis-2/maxwin/BulkDock/OUTPUTS/RdRp_knitwork_green_site_rna_tunnel_impure_split4000_batch017_220468.sdf', '/opt/xchem-fragalysis-2/maxwin/BulkDock/OUTPUTS/RdRp_knitwork_green_site_rna_tunnel_impure_fragalysis.sdf', '/opt/xchem-fragalysis-2/maxwin/RdRp_FFF/syndirella/Retro_OK_batch3.sdf']

>  <Multi-SuCOS>  (63) 
0.568131

>  <merge_set>  (63) 
RdRp_knitwork_green_site_rna_tunnel_impure_fragalysis.sdf

$$$$
CJNBNTYLNLSYBI-UHFFFAOYSA-N
     RDKit          3D

 22 23  0  0  0  0  0  0  0  0999 V2000
  -28.5598  -32.7896  -16.0712 C   0  0  0  0  0  0  0  0  0  0  0  0
  -29.0492  -31.3293  -16.0224 C   0  0  0  0  0  0  0  0  0  0  0  0
  -30.4934  -31.3094  -15.4988 C   0  0  0  0  0  0  0  0  0  0  0  0
  -28.1468  -30.5498  -15.0732 C   0  0  0  0  0  0  0  0  0  0  0  0
  -27.0568  -30.9214  -14.6570 O   0  0  0  0  0  0  0  0  0  0  0  0
  -28.5975  -29.3192  -14.7573 O   0  0  0  0  0  0  0  0  0  0  0  0
  -28.9154  -30.7463  -17.3605 N   0  0  0  0  0  0  0  0  0  0  0  0
  -27.7312  -30.4318  -17.9697 C   0  0  0  0  0  0  0  0  0  0  0  0
  -28.0296  -30.2125  -19.2860 C   0  0  0  0  0  0  0  0  0  0  0  0
  -27.0758  -30.1237  -20.2477 N   0  0  0  0  0  0  0  0  0  0  0  0
  -27.2059  -29.9289  -21.7746 C   0  0  0  0  0  0  0  0  0  0  0  0
  -28.1471  -29.7371  -22.4339 O   0  0  0  0  0  0  0  0  0  0  0  0
  -25.8281  -30.1405  -22.3650 C   0  0  0  0  0  0  0  0  0  0  0  0
  -25.5236  -31.6394  -22.4687 C   0  0  0  0  0  0  0  0  0  0  0  0
  -25.4457  -32.3700  -21.1502 C   0  0  0  0  0  0  0  0  0  0  0  0
  -25.9551  -33.6552  -21.0057 C   0  0  0  0  0  0  0  0  0  0  0  0
  -25.8558  -34.2806  -19.7652 C   0  0  0  0  0  0  0  0  0  0  0  0
  -25.2312  -33.6213  -18.7130 C   0  0  0  0  0  0  0  0  0  0  0  0
  -24.7370  -32.3524  -18.9429 C   0  0  0  0  0  0  0  0  0  0  0  0
  -24.8594  -31.7076  -20.1225 N   0  0  0  0  0  0  0  0  0  0  0  0
  -29.4263  -30.3026  -19.3680 C   0  0  0  0  0  0  0  0  0  0  0  0
  -29.9733  -30.6525  -18.1960 N   0  0  0  0  0  0  0  0  0  0  0  0
  1  2  1  0
  2  3  1  0
  2  4  1  0
  4  5  2  0
  4  6  1  0
  2  7  1  0
  7  8  1  0
  8  9  2  0
  9 10  1  0
 10 11  1  0
 11 12  2  0
 11 13  1  0
 13 14  1  0
 14 15  1  0
 15 16  2  0
 16 17  1  0
 17 18  2  0
 18 19  1  0
 19 20  2  0
  9 21  1  0
 21 22  2  0
 22  7  1  0
 20 15  1  0
M  END
>  <id>  (64) 
173200

>  <inchikey>  (64) 
CJNBNTYLNLSYBI-UHFFFAOYSA-N

>  <alias>  (64) 
None

>  <smiles>  (64) 
CC(C)(C(=O)O)n1cc(NC(=O)CCc2ccccn2)cn1

>  <path>  (64) 
/opt/xchem-fragalysis-2/maxwin/BulkDock/SCRATCH/220465/C12690-P153/C12690-P153.minimised.mol

>  <distance_score>  (64) 
0.832997

>  <energy_score>  (64) 
-53.919179

>  <compound>  (64) 
CJNBNTYLNLSYBI-UHFFFAOYSA-N

>  <compound_id>  (64) 
12690

>  <target>  (64) 
Flavi_NS5_RdRp

>  <tags>  (64) 
['Fragmenstein placed', 'RdRp_knitwork_green_site_rna_tunnel_impure_fragalysis.sdf Pose OK', 'Enamine_Quote_1977854', 'Knitwork impure merge', 'acceptable', 'Green Site/RNA tunnel merge', 'LCD curated YES']

>  <SLURM_JOB_ID>  (64) 
220465

>  <SLURM_JOB_NAME>  (64) 
BulkDock.place:Flavi_NS5_RdRp:RdRp_knitwork_green_site_rna_tunnel_impure_split4000_batch014

>  <csv_name>  (64) 
RdRp_knitwork_green_site_rna_tunnel_impure_split4000_batch014.csv

>  <scratch_subdir>  (64) 
/opt/xchem-fragalysis-2/maxwin/BulkDock/SCRATCH/220465/C12690-P153

>  <fragmenstein_runtime>  (64) 
4.98357

>  <fragmenstein_outcome>  (64) 
acceptable

>  <fragmenstein_mode>  (64) 
expansion

>  <fragmenstein_error>  (64) 


>  <exports>  (64) 
['/opt/xchem-fragalysis-2/maxwin/BulkDock/OUTPUTS/RdRp_knitwork_green_site_rna_tunnel_impure_split4000_batch014_220465.sdf', '/opt/xchem-fragalysis-2/maxwin/BulkDock/OUTPUTS/RdRp_knitwork_green_site_rna_tunnel_impure_fragalysis.sdf', '/opt/xchem-fragalysis-2/maxwin/RdRp_FFF/syndirella/Retro_OK_batch3.sdf']

>  <Multi-SuCOS>  (64) 
0.378335

>  <merge_set>  (64) 
RdRp_knitwork_green_site_rna_tunnel_impure_fragalysis.sdf

$$$$
ZAXPKNMZZARUDB-UHFFFAOYSA-N
     RDKit          3D

 23 26  0  0  0  0  0  0  0  0999 V2000
  -26.6286  -33.8947  -22.3308 O   0  0  0  0  0  0  0  0  0  0  0  0
  -25.8200  -33.6255  -21.5301 C   0  0  0  0  0  0  0  0  0  0  0  0
  -24.8469  -34.6873  -20.9987 C   0  0  0  0  0  0  0  0  0  0  0  0
  -23.4245  -34.3223  -21.2141 C   0  0  0  0  0  0  0  0  0  0  0  0
  -22.7792  -33.3856  -21.9959 C   0  0  0  0  0  0  0  0  0  0  0  0
  -21.4689  -33.2695  -21.4687 C   0  0  0  0  0  0  0  0  0  0  0  0
  -20.3902  -32.3923  -21.6595 C   0  0  0  0  0  0  0  0  0  0  0  0
  -19.2473  -32.5643  -20.8659 C   0  0  0  0  0  0  0  0  0  0  0  0
  -19.1506  -33.6101  -19.9452 C   0  0  0  0  0  0  0  0  0  0  0  0
  -20.2105  -34.4981  -19.7506 C   0  0  0  0  0  0  0  0  0  0  0  0
  -21.3531  -34.2685  -20.5114 C   0  0  0  0  0  0  0  0  0  0  0  0
  -22.5285  -34.9404  -20.3883 O   0  0  0  0  0  0  0  0  0  0  0  0
  -25.4743  -32.2606  -20.8653 N   0  0  0  0  0  0  0  0  0  0  0  0
  -25.9905  -30.9336  -21.1219 C   0  0  0  0  0  0  0  0  0  0  0  0
  -27.2079  -30.6025  -20.3102 C   0  0  0  0  0  0  0  0  0  0  0  0
  -28.3300  -30.3129  -20.9731 N   0  0  0  0  0  0  0  0  0  0  0  0
  -29.5454  -30.0173  -19.9055 S   0  0  0  0  0  0  0  0  0  0  0  0
  -28.5904  -30.1599  -18.4847 C   0  0  0  0  0  0  0  0  0  0  0  0
  -28.9711  -30.0124  -17.1401 C   0  0  0  0  0  0  0  0  0  0  0  0
  -27.9989  -30.1898  -16.1552 C   0  0  0  0  0  0  0  0  0  0  0  0
  -26.6862  -30.4899  -16.5004 C   0  0  0  0  0  0  0  0  0  0  0  0
  -26.3169  -30.6321  -17.8433 C   0  0  0  0  0  0  0  0  0  0  0  0
  -27.2830  -30.4797  -18.8673 C   0  0  0  0  0  0  0  0  0  0  0  0
  1  2  2  0
  2  3  1  0
  3  4  1  0
  4  5  2  0
  5  6  1  0
  6  7  2  0
  7  8  1  0
  8  9  2  0
  9 10  1  0
 10 11  2  0
 11 12  1  0
  2 13  1  0
 13 14  1  0
 14 15  1  0
 15 16  2  0
 16 17  1  0
 17 18  1  0
 18 19  2  0
 19 20  1  0
 20 21  2  0
 21 22  1  0
 22 23  2  0
 12  4  1  0
 23 15  1  0
 11  6  1  0
 23 18  1  0
M  END
>  <id>  (65) 
173663

>  <inchikey>  (65) 
ZAXPKNMZZARUDB-UHFFFAOYSA-N

>  <alias>  (65) 
None

>  <smiles>  (65) 
O=C(Cc1cc2ccccc2o1)NCc1nsc2ccccc12

>  <path>  (65) 
/opt/xchem-fragalysis-2/maxwin/BulkDock/SCRATCH/220454/C55535-P88/C55535-P88.minimised.mol

>  <distance_score>  (65) 
0.97113

>  <energy_score>  (65) 
-40.533553

>  <compound>  (65) 
ZAXPKNMZZARUDB-UHFFFAOYSA-N

>  <compound_id>  (65) 
55535

>  <target>  (65) 
Flavi_NS5_RdRp

>  <tags>  (65) 
['Fragmenstein placed', 'RdRp_knitwork_green_site_rna_tunnel_impure_fragalysis.sdf Pose OK', 'Enamine_Quote_1977854', 'Knitwork impure merge', 'acceptable', 'Green Site/RNA tunnel merge', 'LCD curated YES']

>  <SLURM_JOB_ID>  (65) 
220454

>  <SLURM_JOB_NAME>  (65) 
BulkDock.place:Flavi_NS5_RdRp:RdRp_knitwork_green_site_rna_tunnel_impure_split4000_batch003

>  <csv_name>  (65) 
RdRp_knitwork_green_site_rna_tunnel_impure_split4000_batch003.csv

>  <scratch_subdir>  (65) 
/opt/xchem-fragalysis-2/maxwin/BulkDock/SCRATCH/220454/C55535-P88

>  <fragmenstein_runtime>  (65) 
3.807134

>  <fragmenstein_outcome>  (65) 
acceptable

>  <fragmenstein_mode>  (65) 
expansion

>  <fragmenstein_error>  (65) 


>  <exports>  (65) 
['/opt/xchem-fragalysis-2/maxwin/BulkDock/OUTPUTS/RdRp_knitwork_green_site_rna_tunnel_impure_split4000_batch003_220454.sdf', '/opt/xchem-fragalysis-2/maxwin/BulkDock/OUTPUTS/RdRp_knitwork_green_site_rna_tunnel_impure_fragalysis.sdf', '/opt/xchem-fragalysis-2/maxwin/RdRp_FFF/syndirella/Retro_OK_batch3.sdf']

>  <Multi-SuCOS>  (65) 
0.699172

>  <merge_set>  (65) 
RdRp_knitwork_green_site_rna_tunnel_impure_fragalysis.sdf

$$$$
LQQWCINYCCMFRV-UHFFFAOYSA-N
     RDKit          3D

 24 27  0  0  0  0  0  0  0  0999 V2000
  -25.4165  -33.0678  -19.8921 O   0  0  0  0  0  0  0  0  0  0  0  0
  -25.7009  -32.6492  -20.9467 C   0  0  0  0  0  0  0  0  0  0  0  0
  -26.0169  -31.1556  -21.1573 C   0  0  0  0  0  0  0  0  0  0  0  0
  -27.1530  -30.6906  -20.3038 C   0  0  0  0  0  0  0  0  0  0  0  0
  -28.3159  -30.3337  -20.8735 N   0  0  0  0  0  0  0  0  0  0  0  0
  -29.1639  -29.9939  -19.8301 O   0  0  0  0  0  0  0  0  0  0  0  0
  -28.5019  -30.1147  -18.6468 C   0  0  0  0  0  0  0  0  0  0  0  0
  -29.0259  -29.8824  -17.3762 C   0  0  0  0  0  0  0  0  0  0  0  0
  -28.1543  -30.0796  -16.3000 C   0  0  0  0  0  0  0  0  0  0  0  0
  -26.8308  -30.4797  -16.5072 C   0  0  0  0  0  0  0  0  0  0  0  0
  -26.3367  -30.7069  -17.8003 C   0  0  0  0  0  0  0  0  0  0  0  0
  -27.2036  -30.5277  -18.8920 C   0  0  0  0  0  0  0  0  0  0  0  0
  -25.7372  -33.3546  -22.3367 N   0  0  0  0  0  0  0  0  0  0  0  0
  -25.5215  -34.7488  -22.6944 C   0  0  0  0  0  0  0  0  0  0  0  0
  -24.4424  -35.5111  -21.9033 C   0  0  0  0  0  0  0  0  0  0  0  0
  -23.1509  -34.7841  -21.7717 C   0  0  0  0  0  0  0  0  0  0  0  0
  -22.6432  -33.6238  -22.3213 C   0  0  0  0  0  0  0  0  0  0  0  0
  -21.4682  -33.3105  -21.5975 C   0  0  0  0  0  0  0  0  0  0  0  0
  -20.5669  -32.2335  -21.5741 C   0  0  0  0  0  0  0  0  0  0  0  0
  -19.4996  -32.2769  -20.6674 C   0  0  0  0  0  0  0  0  0  0  0  0
  -19.3146  -33.3738  -19.8216 C   0  0  0  0  0  0  0  0  0  0  0  0
  -20.2083  -34.4497  -19.8250 C   0  0  0  0  0  0  0  0  0  0  0  0
  -21.2759  -34.3653  -20.7153 C   0  0  0  0  0  0  0  0  0  0  0  0
  -22.2763  -35.2812  -20.8457 O   0  0  0  0  0  0  0  0  0  0  0  0
  1  2  2  0
  2  3  1  0
  3  4  1  0
  4  5  2  0
  5  6  1  0
  6  7  1  0
  7  8  2  0
  8  9  1  0
  9 10  2  0
 10 11  1  0
 11 12  2  0
  2 13  1  0
 13 14  1  0
 14 15  1  0
 15 16  1  0
 16 17  2  0
 17 18  1  0
 18 19  2  0
 19 20  1  0
 20 21  2  0
 21 22  1  0
 22 23  2  0
 23 24  1  0
 12  4  1  0
 24 16  1  0
 12  7  1  0
 23 18  1  0
M  END
>  <id>  (66) 
174899

>  <inchikey>  (66) 
LQQWCINYCCMFRV-UHFFFAOYSA-N

>  <alias>  (66) 
None

>  <smiles>  (66) 
O=C(Cc1noc2ccccc12)NCCc1cc2ccccc2o1

>  <path>  (66) 
/opt/xchem-fragalysis-2/maxwin/BulkDock/SCRATCH/220454/C56786-P88/C56786-P88.minimised.mol

>  <distance_score>  (66) 
0.894052

>  <energy_score>  (66) 
-21.404264

>  <compound>  (66) 
LQQWCINYCCMFRV-UHFFFAOYSA-N

>  <compound_id>  (66) 
56786

>  <target>  (66) 
Flavi_NS5_RdRp

>  <tags>  (66) 
['Fragmenstein placed', 'RdRp_knitwork_green_site_rna_tunnel_impure_fragalysis.sdf Pose OK', 'Enamine_Quote_1977854', 'Knitwork impure merge', 'acceptable', 'Green Site/RNA tunnel merge', 'LCD curated YES']

>  <SLURM_JOB_ID>  (66) 
220454

>  <SLURM_JOB_NAME>  (66) 
BulkDock.place:Flavi_NS5_RdRp:RdRp_knitwork_green_site_rna_tunnel_impure_split4000_batch003

>  <csv_name>  (66) 
RdRp_knitwork_green_site_rna_tunnel_impure_split4000_batch003.csv

>  <scratch_subdir>  (66) 
/opt/xchem-fragalysis-2/maxwin/BulkDock/SCRATCH/220454/C56786-P88

>  <fragmenstein_runtime>  (66) 
3.55849

>  <fragmenstein_outcome>  (66) 
acceptable

>  <fragmenstein_mode>  (66) 
expansion

>  <fragmenstein_error>  (66) 


>  <exports>  (66) 
['/opt/xchem-fragalysis-2/maxwin/BulkDock/OUTPUTS/RdRp_knitwork_green_site_rna_tunnel_impure_split4000_batch003_220454.sdf', '/opt/xchem-fragalysis-2/maxwin/BulkDock/OUTPUTS/RdRp_knitwork_green_site_rna_tunnel_impure_fragalysis.sdf', '/opt/xchem-fragalysis-2/maxwin/RdRp_FFF/syndirella/Retro_OK_batch3.sdf']

>  <Multi-SuCOS>  (66) 
0.669853

>  <merge_set>  (66) 
RdRp_knitwork_green_site_rna_tunnel_impure_fragalysis.sdf

$$$$
KSLLTEVDKMOHSW-KRWDZBQOSA-N
     RDKit          3D

 23 26  0  0  0  0  0  0  0  0999 V2000
  -29.2191  -30.5832  -16.2216 C   0  0  0  0  0  0  0  0  0  0  0  0
  -28.0176  -30.0880  -16.6570 C   0  0  0  0  0  0  0  0  0  0  0  0
  -27.7425  -29.7827  -17.9469 N   0  0  0  0  0  0  0  0  0  0  0  0
  -28.7050  -29.9964  -18.8829 C   0  0  0  0  0  0  0  0  0  0  0  0
  -29.9757  -30.4136  -18.5199 C   0  0  0  0  0  0  0  0  0  0  0  0
  -30.2115  -30.7418  -17.1737 C   0  0  0  0  0  0  0  0  0  0  0  0
  -31.0957  -30.3968  -19.5107 C   0  0  0  0  0  0  0  0  0  0  0  0
  -30.8096  -29.8303  -20.8840 C   0  0  0  0  0  0  0  0  0  0  0  0
  -29.5896  -28.9582  -20.9704 C   0  0  0  0  0  0  0  0  0  0  0  0
  -28.4082  -29.6378  -20.3398 C   0  0  2  0  0  0  0  0  0  0  0  0
  -28.0638  -30.7702  -21.2248 N   0  0  0  0  0  0  0  0  0  0  0  0
  -26.9954  -30.4723  -22.1846 C   0  0  0  0  0  0  0  0  0  0  0  0
  -25.8552  -29.8395  -21.4552 C   0  0  0  0  0  0  0  0  0  0  0  0
  -25.4241  -28.5731  -21.9074 C   0  0  0  0  0  0  0  0  0  0  0  0
  -24.7587  -27.7357  -21.0422 C   0  0  0  0  0  0  0  0  0  0  0  0
  -24.5172  -28.2161  -19.7816 C   0  0  0  0  0  0  0  0  0  0  0  0
  -24.8343  -29.4675  -19.3723 N   0  0  0  0  0  0  0  0  0  0  0  0
  -25.4665  -30.3297  -20.1962 C   0  0  0  0  0  0  0  0  0  0  0  0
  -25.6859  -31.6225  -19.7386 N   0  0  0  0  0  0  0  0  0  0  0  0
  -25.1140  -32.0417  -18.4622 C   0  0  0  0  0  0  0  0  0  0  0  0
  -24.9443  -33.5526  -18.5692 C   0  0  0  0  0  0  0  0  0  0  0  0
  -26.0309  -33.9459  -19.5379 C   0  0  0  0  0  0  0  0  0  0  0  0
  -26.0016  -32.8012  -20.5428 C   0  0  0  0  0  0  0  0  0  0  0  0
  1  2  2  0
  2  3  1  0
  3  4  2  0
  4  5  1  0
  5  6  2  0
  5  7  1  0
  7  8  1  0
  8  9  1  0
  9 10  1  0
 10 11  1  6
 11 12  1  0
 12 13  1  0
 13 14  2  0
 14 15  1  0
 15 16  2  0
 16 17  1  0
 17 18  2  0
 18 19  1  0
 19 20  1  0
 20 21  1  0
 21 22  1  0
 22 23  1  0
  6  1  1  0
 18 13  1  0
 23 19  1  0
 10  4  1  0
M  END
>  <id>  (67) 
175443

>  <inchikey>  (67) 
KSLLTEVDKMOHSW-KRWDZBQOSA-N

>  <alias>  (67) 
None

>  <smiles>  (67) 
c1cnc2c(c1)CCC[C@@H]2NCc1cccnc1N1CCCC1

>  <path>  (67) 
/opt/xchem-fragalysis-2/maxwin/BulkDock/SCRATCH/220452/C61386-P100/C61386-P100.minimised.mol

>  <distance_score>  (67) 
0.89828

>  <energy_score>  (67) 
-10.941015

>  <compound>  (67) 
KSLLTEVDKMOHSW-UHFFFAOYSA-N

>  <compound_id>  (67) 
61386

>  <target>  (67) 
Flavi_NS5_RdRp

>  <tags>  (67) 
['Fragmenstein placed', 'RdRp_knitwork_green_site_rna_tunnel_impure_fragalysis.sdf Pose OK', 'Enamine_Quote_1977854', 'Knitwork impure merge', 'acceptable', 'Green Site/RNA tunnel merge', 'LCD curated YES']

>  <SLURM_JOB_ID>  (67) 
220452

>  <SLURM_JOB_NAME>  (67) 
BulkDock.place:Flavi_NS5_RdRp:RdRp_knitwork_green_site_rna_tunnel_impure_split4000_batch001

>  <csv_name>  (67) 
RdRp_knitwork_green_site_rna_tunnel_impure_split4000_batch001.csv

>  <scratch_subdir>  (67) 
/opt/xchem-fragalysis-2/maxwin/BulkDock/SCRATCH/220452/C61386-P100

>  <fragmenstein_runtime>  (67) 
2.506821

>  <fragmenstein_outcome>  (67) 
acceptable

>  <fragmenstein_mode>  (67) 
expansion

>  <fragmenstein_error>  (67) 


>  <exports>  (67) 
['/opt/xchem-fragalysis-2/maxwin/BulkDock/OUTPUTS/RdRp_knitwork_green_site_rna_tunnel_impure_split4000_batch001_220452.sdf', '/opt/xchem-fragalysis-2/maxwin/BulkDock/OUTPUTS/RdRp_knitwork_green_site_rna_tunnel_impure_fragalysis.sdf', '/opt/xchem-fragalysis-2/maxwin/RdRp_FFF/syndirella/Retro_OK_batch3.sdf']

>  <Multi-SuCOS>  (67) 
0.636188

>  <merge_set>  (67) 
RdRp_knitwork_green_site_rna_tunnel_impure_fragalysis.sdf

$$$$
SHENAZADMNUPGS-VIFPVBQESA-N
     RDKit          3D

 18 19  0  0  0  0  0  0  0  0999 V2000
  -21.2659  -33.0565  -23.9986 C   0  0  0  0  0  0  0  0  0  0  0  0
  -21.9929  -32.0097  -23.1727 C   0  0  2  0  0  0  0  0  0  0  0  0
  -21.5462  -32.1262  -21.8204 O   0  0  0  0  0  0  0  0  0  0  0  0
  -23.5014  -32.2329  -23.2688 C   0  0  0  0  0  0  0  0  0  0  0  0
  -24.2650  -31.6225  -22.2149 N   0  0  0  0  0  0  0  0  0  0  0  0
  -25.6168  -30.8682  -22.2635 C   0  0  0  0  0  0  0  0  0  0  0  0
  -26.2600  -30.5686  -23.1534 O   0  0  0  0  0  0  0  0  0  0  0  0
  -25.8863  -30.7317  -20.7399 N   0  0  0  0  0  0  0  0  0  0  0  0
  -27.0202  -30.2934  -20.0605 C   0  0  0  0  0  0  0  0  0  0  0  0
  -28.2255  -30.1214  -20.7462 C   0  0  0  0  0  0  0  0  0  0  0  0
  -29.4000  -29.9038  -20.0394 C   0  0  0  0  0  0  0  0  0  0  0  0
  -29.3572  -29.8173  -18.6517 C   0  0  0  0  0  0  0  0  0  0  0  0
  -28.1337  -29.8989  -17.9704 C   0  0  0  0  0  0  0  0  0  0  0  0
  -28.0683  -29.8064  -16.5760 C   0  0  0  0  0  0  0  0  0  0  0  0
  -26.8471  -29.9792  -15.9351 C   0  0  0  0  0  0  0  0  0  0  0  0
  -25.7256  -30.2154  -16.7074 C   0  0  0  0  0  0  0  0  0  0  0  0
  -25.7480  -30.2918  -18.0505 N   0  0  0  0  0  0  0  0  0  0  0  0
  -26.9378  -30.1488  -18.6768 C   0  0  0  0  0  0  0  0  0  0  0  0
  2  1  1  6
  2  3  1  0
  2  4  1  0
  4  5  1  0
  5  6  1  0
  6  7  2  0
  6  8  1  0
  8  9  1  0
  9 10  2  0
 10 11  1  0
 11 12  2  0
 12 13  1  0
 13 14  2  0
 14 15  1  0
 15 16  2  0
 16 17  1  0
 17 18  2  0
 18  9  1  0
 18 13  1  0
M  END
>  <id>  (68) 
175618

>  <inchikey>  (68) 
SHENAZADMNUPGS-VIFPVBQESA-N

>  <alias>  (68) 
None

>  <smiles>  (68) 
C[C@H](O)CNC(=O)Nc1cccc2cccnc12

>  <path>  (68) 
/opt/xchem-fragalysis-2/maxwin/BulkDock/SCRATCH/220453/C33434-P102/C33434-P102.minimised.mol

>  <distance_score>  (68) 
0.963034

>  <energy_score>  (68) 
-21.948084

>  <compound>  (68) 
SHENAZADMNUPGS-UHFFFAOYSA-N

>  <compound_id>  (68) 
33434

>  <target>  (68) 
Flavi_NS5_RdRp

>  <tags>  (68) 
['Fragmenstein placed', 'RdRp_knitwork_green_site_rna_tunnel_impure_fragalysis.sdf Pose OK', 'Enamine_Quote_1977854', 'Knitwork impure merge', 'acceptable', 'Green Site/RNA tunnel merge', 'LCD curated YES']

>  <SLURM_JOB_ID>  (68) 
220453

>  <SLURM_JOB_NAME>  (68) 
BulkDock.place:Flavi_NS5_RdRp:RdRp_knitwork_green_site_rna_tunnel_impure_split4000_batch002

>  <csv_name>  (68) 
RdRp_knitwork_green_site_rna_tunnel_impure_split4000_batch002.csv

>  <scratch_subdir>  (68) 
/opt/xchem-fragalysis-2/maxwin/BulkDock/SCRATCH/220453/C33434-P102

>  <fragmenstein_runtime>  (68) 
3.019897

>  <fragmenstein_outcome>  (68) 
acceptable

>  <fragmenstein_mode>  (68) 
expansion

>  <fragmenstein_error>  (68) 


>  <exports>  (68) 
['/opt/xchem-fragalysis-2/maxwin/BulkDock/OUTPUTS/RdRp_knitwork_green_site_rna_tunnel_impure_split4000_batch002_220453.sdf', '/opt/xchem-fragalysis-2/maxwin/BulkDock/OUTPUTS/RdRp_knitwork_green_site_rna_tunnel_impure_fragalysis.sdf', '/opt/xchem-fragalysis-2/maxwin/RdRp_FFF/syndirella/Retro_OK_batch3.sdf']

>  <Multi-SuCOS>  (68) 
0.792167

>  <merge_set>  (68) 
RdRp_knitwork_green_site_rna_tunnel_impure_fragalysis.sdf

$$$$
SHENAZADMNUPGS-VIFPVBQESA-N
     RDKit          3D

 18 19  0  0  0  0  0  0  0  0999 V2000
  -21.5134  -33.2798  -23.8934 C   0  0  0  0  0  0  0  0  0  0  0  0
  -22.3341  -32.1165  -23.3744 C   0  0  2  0  0  0  0  0  0  0  0  0
  -21.9467  -31.8743  -22.0171 O   0  0  0  0  0  0  0  0  0  0  0  0
  -23.8344  -32.4182  -23.4865 C   0  0  0  0  0  0  0  0  0  0  0  0
  -24.6071  -31.8503  -22.4176 N   0  0  0  0  0  0  0  0  0  0  0  0
  -26.0407  -31.2619  -22.4183 C   0  0  0  0  0  0  0  0  0  0  0  0
  -26.7633  -31.0835  -23.2817 O   0  0  0  0  0  0  0  0  0  0  0  0
  -26.2292  -31.0463  -20.8893 N   0  0  0  0  0  0  0  0  0  0  0  0
  -27.3567  -30.6673  -20.1640 C   0  0  0  0  0  0  0  0  0  0  0  0
  -28.5693  -30.4060  -20.8038 C   0  0  0  0  0  0  0  0  0  0  0  0
  -29.7074  -30.1398  -20.0541 C   0  0  0  0  0  0  0  0  0  0  0  0
  -29.6280  -30.1360  -18.6655 C   0  0  0  0  0  0  0  0  0  0  0  0
  -28.4002  -30.3605  -18.0230 C   0  0  0  0  0  0  0  0  0  0  0  0
  -28.3024  -30.3663  -16.6293 C   0  0  0  0  0  0  0  0  0  0  0  0
  -27.0698  -30.5895  -16.0296 C   0  0  0  0  0  0  0  0  0  0  0  0
  -25.9682  -30.7838  -16.8398 C   0  0  0  0  0  0  0  0  0  0  0  0
  -26.0234  -30.8060  -18.1846 N   0  0  0  0  0  0  0  0  0  0  0  0
  -27.2305  -30.6082  -18.7728 C   0  0  0  0  0  0  0  0  0  0  0  0
  2  1  1  1
  2  3  1  0
  2  4  1  0
  4  5  1  0
  5  6  1  0
  6  7  2  0
  6  8  1  0
  8  9  1  0
  9 10  2  0
 10 11  1  0
 11 12  2  0
 12 13  1  0
 13 14  2  0
 14 15  1  0
 15 16  2  0
 16 17  1  0
 17 18  2  0
 18  9  1  0
 18 13  1  0
M  END
>  <id>  (69) 
175630

>  <inchikey>  (69) 
SHENAZADMNUPGS-VIFPVBQESA-N

>  <alias>  (69) 
None

>  <smiles>  (69) 
C[C@H](O)CNC(=O)Nc1cccc2cccnc12

>  <path>  (69) 
/opt/xchem-fragalysis-2/maxwin/BulkDock/SCRATCH/220453/C33434-P208/C33434-P208.minimised.mol

>  <distance_score>  (69) 
0.949588

>  <energy_score>  (69) 
-22.097794

>  <compound>  (69) 
SHENAZADMNUPGS-UHFFFAOYSA-N

>  <compound_id>  (69) 
33434

>  <target>  (69) 
Flavi_NS5_RdRp

>  <tags>  (69) 
['Fragmenstein placed', 'RdRp_knitwork_green_site_rna_tunnel_impure_fragalysis.sdf Pose OK', 'Enamine_Quote_1977854', 'Knitwork impure merge', 'acceptable', 'Green Site/RNA tunnel merge']

>  <SLURM_JOB_ID>  (69) 
220453

>  <SLURM_JOB_NAME>  (69) 
BulkDock.place:Flavi_NS5_RdRp:RdRp_knitwork_green_site_rna_tunnel_impure_split4000_batch002

>  <csv_name>  (69) 
RdRp_knitwork_green_site_rna_tunnel_impure_split4000_batch002.csv

>  <scratch_subdir>  (69) 
/opt/xchem-fragalysis-2/maxwin/BulkDock/SCRATCH/220453/C33434-P208

>  <fragmenstein_runtime>  (69) 
2.180516

>  <fragmenstein_outcome>  (69) 
acceptable

>  <fragmenstein_mode>  (69) 
expansion

>  <fragmenstein_error>  (69) 


>  <exports>  (69) 
['/opt/xchem-fragalysis-2/maxwin/BulkDock/OUTPUTS/RdRp_knitwork_green_site_rna_tunnel_impure_split4000_batch002_220453.sdf', '/opt/xchem-fragalysis-2/maxwin/BulkDock/OUTPUTS/RdRp_knitwork_green_site_rna_tunnel_impure_fragalysis.sdf', '/opt/xchem-fragalysis-2/maxwin/RdRp_FFF/syndirella/Retro_OK_batch3.sdf']

>  <Multi-SuCOS>  (69) 
0.754665

>  <merge_set>  (69) 
RdRp_knitwork_green_site_rna_tunnel_impure_fragalysis.sdf

$$$$
YNGYAVXHTVNYBC-LBPRGKRZSA-N
     RDKit          3D

 15 16  0  0  0  0  0  0  0  0999 V2000
  -27.4981  -30.9133  -22.6212 C   0  0  0  0  0  0  0  0  0  0  0  0
  -27.4969  -31.8313  -21.4229 C   0  0  0  0  0  0  0  0  0  0  0  0
  -27.6184  -31.0581  -20.2282 O   0  0  0  0  0  0  0  0  0  0  0  0
  -28.8817  -30.7691  -19.8245 C   0  0  0  0  0  0  0  0  0  0  0  0
  -29.8922  -31.2148  -20.3578 O   0  0  0  0  0  0  0  0  0  0  0  0
  -28.9132  -29.7740  -18.6715 C   0  0  1  0  0  0  0  0  0  0  0  0
  -29.7509  -30.3235  -17.5020 C   0  0  0  0  0  0  0  0  0  0  0  0
  -29.1034  -30.2346  -16.1202 C   0  0  0  0  0  0  0  0  0  0  0  0
  -27.6148  -30.5538  -16.1516 C   0  0  0  0  0  0  0  0  0  0  0  0
  -26.9305  -29.5930  -17.0818 C   0  0  0  0  0  0  0  0  0  0  0  0
  -25.6781  -29.0679  -16.7581 C   0  0  0  0  0  0  0  0  0  0  0  0
  -25.0806  -28.1246  -17.5920 C   0  0  0  0  0  0  0  0  0  0  0  0
  -25.7027  -27.7192  -18.7671 C   0  0  0  0  0  0  0  0  0  0  0  0
  -26.9350  -28.2640  -19.1119 C   0  0  0  0  0  0  0  0  0  0  0  0
  -27.5606  -29.2050  -18.2758 C   0  0  0  0  0  0  0  0  0  0  0  0
  1  2  1  0
  2  3  1  0
  3  4  1  0
  4  5  2  0
  6  4  1  6
  6  7  1  0
  7  8  1  0
  8  9  1  0
  9 10  1  0
 10 11  2  0
 11 12  1  0
 12 13  2  0
 13 14  1  0
 14 15  2  0
 15  6  1  0
 15 10  1  0
M  END
>  <id>  (70) 
177284

>  <inchikey>  (70) 
YNGYAVXHTVNYBC-LBPRGKRZSA-N

>  <alias>  (70) 
None

>  <smiles>  (70) 
CCOC(=O)[C@H]1CCCc2ccccc21

>  <path>  (70) 
/opt/xchem-fragalysis-2/maxwin/BulkDock/SCRATCH/220464/C45330-P3/C45330-P3.minimised.mol

>  <distance_score>  (70) 
0.984728

>  <energy_score>  (70) 
-32.499132

>  <compound>  (70) 
YNGYAVXHTVNYBC-UHFFFAOYSA-N

>  <compound_id>  (70) 
45330

>  <target>  (70) 
Flavi_NS5_RdRp

>  <tags>  (70) 
['Fragmenstein placed', 'Enamine_unavailable', 'RdRp_knitwork_green_site_rna_tunnel_impure_fragalysis.sdf Pose OK', 'Knitwork impure merge', 'acceptable', 'Green Site/RNA tunnel merge', 'LCD curated YES']

>  <SLURM_JOB_ID>  (70) 
220464

>  <SLURM_JOB_NAME>  (70) 
BulkDock.place:Flavi_NS5_RdRp:RdRp_knitwork_green_site_rna_tunnel_impure_split4000_batch013

>  <csv_name>  (70) 
RdRp_knitwork_green_site_rna_tunnel_impure_split4000_batch013.csv

>  <scratch_subdir>  (70) 
/opt/xchem-fragalysis-2/maxwin/BulkDock/SCRATCH/220464/C45330-P3

>  <fragmenstein_runtime>  (70) 
2.59182

>  <fragmenstein_outcome>  (70) 
acceptable

>  <fragmenstein_mode>  (70) 
expansion

>  <fragmenstein_error>  (70) 


>  <exports>  (70) 
['/opt/xchem-fragalysis-2/maxwin/BulkDock/OUTPUTS/RdRp_knitwork_green_site_rna_tunnel_impure_split4000_batch013_220464.sdf', '/opt/xchem-fragalysis-2/maxwin/BulkDock/OUTPUTS/RdRp_knitwork_green_site_rna_tunnel_impure_fragalysis.sdf', '/opt/xchem-fragalysis-2/maxwin/RdRp_FFF/syndirella/Retro_OK_batch3.sdf']

>  <Multi-SuCOS>  (70) 
0.637834

>  <merge_set>  (70) 
RdRp_knitwork_green_site_rna_tunnel_impure_fragalysis.sdf

$$$$
DHXCDLUKFAKLSY-UHFFFAOYSA-N
     RDKit          3D

 24 27  0  0  0  0  0  0  0  0999 V2000
  -27.1161  -31.9055  -21.8911 O   0  0  0  0  0  0  0  0  0  0  0  0
  -26.1661  -31.5333  -21.3268 C   0  0  0  0  0  0  0  0  0  0  0  0
  -24.7242  -31.3444  -21.8216 N   0  0  0  0  0  0  0  0  0  0  0  0
  -24.1230  -31.6610  -23.0853 C   0  0  0  0  0  0  0  0  0  0  0  0
  -23.8692  -33.1457  -23.3490 C   0  0  0  0  0  0  0  0  0  0  0  0
  -23.1911  -34.0175  -22.3041 C   0  0  0  0  0  0  0  0  0  0  0  0
  -23.8404  -35.2396  -22.0204 C   0  0  0  0  0  0  0  0  0  0  0  0
  -23.3093  -36.1592  -21.1291 C   0  0  0  0  0  0  0  0  0  0  0  0
  -22.1094  -35.8716  -20.4922 C   0  0  0  0  0  0  0  0  0  0  0  0
  -21.4179  -34.6794  -20.7518 C   0  0  0  0  0  0  0  0  0  0  0  0
  -20.2010  -34.4348  -20.0912 C   0  0  0  0  0  0  0  0  0  0  0  0
  -19.4836  -33.2634  -20.3131 C   0  0  0  0  0  0  0  0  0  0  0  0
  -19.9690  -32.3329  -21.2173 C   0  0  0  0  0  0  0  0  0  0  0  0
  -21.1628  -32.5762  -21.9033 C   0  0  0  0  0  0  0  0  0  0  0  0
  -21.9414  -33.7342  -21.6758 C   0  0  0  0  0  0  0  0  0  0  0  0
  -26.3344  -31.0529  -19.9078 C   0  0  0  0  0  0  0  0  0  0  0  0
  -25.3192  -31.0511  -18.9333 C   0  0  0  0  0  0  0  0  0  0  0  0
  -25.5464  -30.5497  -17.6476 C   0  0  0  0  0  0  0  0  0  0  0  0
  -26.8060  -30.0652  -17.2783 C   0  0  0  0  0  0  0  0  0  0  0  0
  -27.8525  -30.0893  -18.2185 C   0  0  0  0  0  0  0  0  0  0  0  0
  -29.2262  -29.7258  -18.1772 C   0  0  0  0  0  0  0  0  0  0  0  0
  -29.7652  -29.9719  -19.4193 C   0  0  0  0  0  0  0  0  0  0  0  0
  -28.7707  -30.4636  -20.2158 N   0  0  0  0  0  0  0  0  0  0  0  0
  -27.5935  -30.5689  -19.5024 C   0  0  0  0  0  0  0  0  0  0  0  0
  1  2  2  0
  2  3  1  0
  3  4  1  0
  4  5  1  0
  5  6  1  0
  6  7  2  0
  7  8  1  0
  8  9  2  0
  9 10  1  0
 10 11  2  0
 11 12  1  0
 12 13  2  0
 13 14  1  0
 14 15  2  0
  2 16  1  0
 16 17  2  0
 17 18  1  0
 18 19  2  0
 19 20  1  0
 20 21  1  0
 21 22  2  0
 22 23  1  0
 23 24  1  0
 15  6  1  0
 24 16  1  0
 15 10  1  0
 24 20  2  0
M  END
>  <id>  (71) 
180920

>  <inchikey>  (71) 
DHXCDLUKFAKLSY-UHFFFAOYSA-N

>  <alias>  (71) 
None

>  <smiles>  (71) 
O=C(NCCc1cccc2ccccc12)c1cccc2cc[nH]c12

>  <path>  (71) 
/opt/xchem-fragalysis-2/maxwin/BulkDock/SCRATCH/220461/C28628-P86/C28628-P86.minimised.mol

>  <distance_score>  (71) 
0.774008

>  <energy_score>  (71) 
-41.775808

>  <compound>  (71) 
DHXCDLUKFAKLSY-UHFFFAOYSA-N

>  <compound_id>  (71) 
28628

>  <target>  (71) 
Flavi_NS5_RdRp

>  <tags>  (71) 
['Fragmenstein placed', 'RdRp_knitwork_green_site_rna_tunnel_impure_fragalysis.sdf Pose OK', 'Enamine_Quote_1977854', 'Knitwork impure merge', 'acceptable', 'Green Site/RNA tunnel merge', 'LCD curated YES']

>  <SLURM_JOB_ID>  (71) 
220461

>  <SLURM_JOB_NAME>  (71) 
BulkDock.place:Flavi_NS5_RdRp:RdRp_knitwork_green_site_rna_tunnel_impure_split4000_batch010

>  <csv_name>  (71) 
RdRp_knitwork_green_site_rna_tunnel_impure_split4000_batch010.csv

>  <scratch_subdir>  (71) 
/opt/xchem-fragalysis-2/maxwin/BulkDock/SCRATCH/220461/C28628-P86

>  <fragmenstein_runtime>  (71) 
3.634602

>  <fragmenstein_outcome>  (71) 
acceptable

>  <fragmenstein_mode>  (71) 
expansion

>  <fragmenstein_error>  (71) 


>  <exports>  (71) 
['/opt/xchem-fragalysis-2/maxwin/BulkDock/OUTPUTS/RdRp_knitwork_green_site_rna_tunnel_impure_split4000_batch010_220461.sdf', '/opt/xchem-fragalysis-2/maxwin/BulkDock/OUTPUTS/RdRp_knitwork_green_site_rna_tunnel_impure_fragalysis.sdf', '/opt/xchem-fragalysis-2/maxwin/RdRp_FFF/syndirella/Retro_OK_batch3.sdf']

>  <Multi-SuCOS>  (71) 
0.675235

>  <merge_set>  (71) 
RdRp_knitwork_green_site_rna_tunnel_impure_fragalysis.sdf

$$$$
ZOPZYWPRKRGGTC-UHFFFAOYSA-N
     RDKit          3D

 14 15  0  0  0  0  0  0  0  0999 V2000
  -27.3698  -30.7621  -20.6509 C   0  0  0  0  0  0  0  0  0  0  0  0
  -28.8706  -29.8830  -20.2618 S   0  0  0  0  0  0  0  0  0  0  0  0
  -28.8261  -28.6430  -20.9991 O   0  0  0  0  0  0  0  0  0  0  0  0
  -29.9721  -30.8039  -20.4529 O   0  0  0  0  0  0  0  0  0  0  0  0
  -28.7092  -29.5480  -18.6018 N   0  0  0  0  0  0  0  0  0  0  0  0
  -29.5896  -30.3370  -17.7115 C   0  0  0  0  0  0  0  0  0  0  0  0
  -29.1966  -30.2274  -16.2469 C   0  0  0  0  0  0  0  0  0  0  0  0
  -27.7169  -30.5322  -16.0764 C   0  0  0  0  0  0  0  0  0  0  0  0
  -26.9211  -29.5765  -16.9181 C   0  0  0  0  0  0  0  0  0  0  0  0
  -25.6488  -29.1895  -16.4976 C   0  0  0  0  0  0  0  0  0  0  0  0
  -24.9381  -28.2425  -17.2266 C   0  0  0  0  0  0  0  0  0  0  0  0
  -25.4791  -27.6695  -18.3713 C   0  0  0  0  0  0  0  0  0  0  0  0
  -26.7377  -28.0717  -18.8054 C   0  0  0  0  0  0  0  0  0  0  0  0
  -27.4452  -29.0623  -18.1153 C   0  0  0  0  0  0  0  0  0  0  0  0
  1  2  1  0
  2  3  2  0
  2  4  2  0
  2  5  1  0
  5  6  1  0
  6  7  1  0
  7  8  1  0
  8  9  1  0
  9 10  2  0
 10 11  1  0
 11 12  2  0
 12 13  1  0
 13 14  2  0
 14  5  1  0
 14  9  1  0
M  END
>  <id>  (72) 
183500

>  <inchikey>  (72) 
ZOPZYWPRKRGGTC-UHFFFAOYSA-N

>  <alias>  (72) 
None

>  <smiles>  (72) 
CS(=O)(=O)N1CCCc2ccccc21

>  <path>  (72) 
/opt/xchem-fragalysis-2/maxwin/BulkDock/SCRATCH/220458/C61134-P3/C61134-P3.minimised.mol

>  <distance_score>  (72) 
0.829974

>  <energy_score>  (72) 
-32.921421

>  <compound>  (72) 
ZOPZYWPRKRGGTC-UHFFFAOYSA-N

>  <compound_id>  (72) 
61134

>  <target>  (72) 
Flavi_NS5_RdRp

>  <tags>  (72) 
['Fragmenstein placed', 'RdRp_knitwork_green_site_rna_tunnel_impure_fragalysis.sdf Pose OK', 'Enamine_Quote_1977854', 'Knitwork impure merge', 'acceptable', 'Green Site/RNA tunnel merge', 'LCD curated YES']

>  <SLURM_JOB_ID>  (72) 
220458

>  <SLURM_JOB_NAME>  (72) 
BulkDock.place:Flavi_NS5_RdRp:RdRp_knitwork_green_site_rna_tunnel_impure_split4000_batch007

>  <csv_name>  (72) 
RdRp_knitwork_green_site_rna_tunnel_impure_split4000_batch007.csv

>  <scratch_subdir>  (72) 
/opt/xchem-fragalysis-2/maxwin/BulkDock/SCRATCH/220458/C61134-P3

>  <fragmenstein_runtime>  (72) 
1.919771

>  <fragmenstein_outcome>  (72) 
acceptable

>  <fragmenstein_mode>  (72) 
expansion

>  <fragmenstein_error>  (72) 


>  <exports>  (72) 
['/opt/xchem-fragalysis-2/maxwin/BulkDock/OUTPUTS/RdRp_knitwork_green_site_rna_tunnel_impure_split4000_batch007_220458.sdf', '/opt/xchem-fragalysis-2/maxwin/BulkDock/OUTPUTS/RdRp_knitwork_green_site_rna_tunnel_impure_fragalysis.sdf', '/opt/xchem-fragalysis-2/maxwin/RdRp_FFF/syndirella/Retro_OK_batch3.sdf']

>  <Multi-SuCOS>  (72) 
0.765545

>  <merge_set>  (72) 
RdRp_knitwork_green_site_rna_tunnel_impure_fragalysis.sdf

$$$$
SEXBZMJMGRUWGS-UHFFFAOYSA-N
     RDKit          3D

 22 24  0  0  0  0  0  0  0  0999 V2000
  -31.0069  -30.4844  -20.2150 C   0  0  0  0  0  0  0  0  0  0  0  0
  -30.0584  -30.1243  -19.0856 C   0  0  0  0  0  0  0  0  0  0  0  0
  -28.8361  -29.5612  -19.6338 N   0  0  0  0  0  0  0  0  0  0  0  0
  -27.5899  -30.0804  -19.4050 C   0  0  0  0  0  0  0  0  0  0  0  0
  -27.0062  -30.0776  -20.6421 C   0  0  0  0  0  0  0  0  0  0  0  0
  -25.9140  -30.7612  -21.0408 N   0  0  0  0  0  0  0  0  0  0  0  0
  -25.2097  -30.8181  -22.4244 C   0  0  0  0  0  0  0  0  0  0  0  0
  -25.4221  -30.2233  -23.4061 O   0  0  0  0  0  0  0  0  0  0  0  0
  -24.2024  -31.9300  -22.2701 C   0  0  0  0  0  0  0  0  0  0  0  0
  -23.5083  -32.2686  -23.5752 C   0  0  0  0  0  0  0  0  0  0  0  0
  -23.0642  -33.7248  -23.6423 C   0  0  0  0  0  0  0  0  0  0  0  0
  -22.5167  -34.3218  -22.3725 C   0  0  0  0  0  0  0  0  0  0  0  0
  -22.9839  -35.5163  -21.8569 C   0  0  0  0  0  0  0  0  0  0  0  0
  -22.1863  -35.9875  -20.4352 S   0  0  0  0  0  0  0  0  0  0  0  0
  -21.1725  -34.6013  -20.4606 C   0  0  0  0  0  0  0  0  0  0  0  0
  -20.1572  -34.2919  -19.5343 C   0  0  0  0  0  0  0  0  0  0  0  0
  -19.4359  -33.1084  -19.6852 C   0  0  0  0  0  0  0  0  0  0  0  0
  -19.7116  -32.2515  -20.7367 C   0  0  0  0  0  0  0  0  0  0  0  0
  -20.6904  -32.5818  -21.6782 C   0  0  0  0  0  0  0  0  0  0  0  0
  -21.4557  -33.7712  -21.5502 C   0  0  0  0  0  0  0  0  0  0  0  0
  -27.8351  -29.2954  -21.4489 C   0  0  0  0  0  0  0  0  0  0  0  0
  -28.8968  -28.8526  -20.7811 N   0  0  0  0  0  0  0  0  0  0  0  0
  1  2  1  0
  2  3  1  0
  3  4  1  0
  4  5  2  0
  5  6  1  0
  6  7  1  0
  7  8  2  0
  7  9  1  0
  9 10  1  0
 10 11  1  0
 11 12  1  0
 12 13  2  0
 13 14  1  0
 14 15  1  0
 15 16  2  0
 16 17  1  0
 17 18  2  0
 18 19  1  0
 19 20  2  0
  5 21  1  0
 21 22  2  0
 22  3  1  0
 20 12  1  0
 20 15  1  0
M  END
>  <id>  (73) 
184490

>  <inchikey>  (73) 
SEXBZMJMGRUWGS-UHFFFAOYSA-N

>  <alias>  (73) 
None

>  <smiles>  (73) 
CCn1cc(NC(=O)CCCc2csc3ccccc23)cn1

>  <path>  (73) 
/opt/xchem-fragalysis-2/maxwin/BulkDock/SCRATCH/220455/C28301-P104/C28301-P104.minimised.mol

>  <distance_score>  (73) 
0.837353

>  <energy_score>  (73) 
-15.401844

>  <compound>  (73) 
SEXBZMJMGRUWGS-UHFFFAOYSA-N

>  <compound_id>  (73) 
28301

>  <target>  (73) 
Flavi_NS5_RdRp

>  <tags>  (73) 
['Fragmenstein placed', 'RdRp_knitwork_green_site_rna_tunnel_impure_fragalysis.sdf Pose OK', 'Enamine_Quote_1977854', 'Knitwork impure merge', 'acceptable', 'Green Site/RNA tunnel merge', 'LCD curated YES']

>  <SLURM_JOB_ID>  (73) 
220455

>  <SLURM_JOB_NAME>  (73) 
BulkDock.place:Flavi_NS5_RdRp:RdRp_knitwork_green_site_rna_tunnel_impure_split4000_batch004

>  <csv_name>  (73) 
RdRp_knitwork_green_site_rna_tunnel_impure_split4000_batch004.csv

>  <scratch_subdir>  (73) 
/opt/xchem-fragalysis-2/maxwin/BulkDock/SCRATCH/220455/C28301-P104

>  <fragmenstein_runtime>  (73) 
5.225038

>  <fragmenstein_outcome>  (73) 
acceptable

>  <fragmenstein_mode>  (73) 
expansion

>  <fragmenstein_error>  (73) 


>  <exports>  (73) 
['/opt/xchem-fragalysis-2/maxwin/BulkDock/OUTPUTS/RdRp_knitwork_green_site_rna_tunnel_impure_split4000_batch004_220455.sdf', '/opt/xchem-fragalysis-2/maxwin/BulkDock/OUTPUTS/RdRp_knitwork_green_site_rna_tunnel_impure_fragalysis.sdf', '/opt/xchem-fragalysis-2/maxwin/RdRp_FFF/syndirella/Retro_OK_batch3.sdf']

>  <Multi-SuCOS>  (73) 
0.518134

>  <merge_set>  (73) 
RdRp_knitwork_green_site_rna_tunnel_impure_fragalysis.sdf

$$$$
FRNXPLHZHRXKEC-UHFFFAOYSA-N
     RDKit          3D

 24 26  0  0  0  0  0  0  0  0999 V2000
  -24.7739  -32.8161  -24.8307 O   0  0  0  0  0  0  0  0  0  0  0  0
  -23.6069  -33.0919  -24.5517 C   0  0  0  0  0  0  0  0  0  0  0  0
  -22.8134  -34.1071  -25.3440 C   0  0  0  0  0  0  0  0  0  0  0  0
  -21.3955  -33.6290  -25.6053 C   0  0  0  0  0  0  0  0  0  0  0  0
  -20.7128  -33.0577  -24.3666 C   0  0  0  0  0  0  0  0  0  0  0  0
  -21.5990  -33.0337  -23.1317 C   0  0  0  0  0  0  0  0  0  0  0  0
  -22.9301  -32.5643  -23.4654 N   0  0  0  0  0  0  0  0  0  0  0  0
  -23.6531  -31.7904  -22.4798 C   0  0  0  0  0  0  0  0  0  0  0  0
  -24.5986  -32.6532  -21.6498 C   0  0  0  0  0  0  0  0  0  0  0  0
  -25.3883  -31.7831  -20.6913 C   0  0  0  0  0  0  0  0  0  0  0  0
  -26.4285  -31.0268  -21.3806 N   0  0  0  0  0  0  0  0  0  0  0  0
  -27.4918  -30.3485  -20.7839 C   0  0  0  0  0  0  0  0  0  0  0  0
  -28.4559  -29.8199  -21.6381 C   0  0  0  0  0  0  0  0  0  0  0  0
  -29.6637  -29.3792  -21.1300 C   0  0  0  0  0  0  0  0  0  0  0  0
  -29.9700  -29.3935  -19.8240 N   0  0  0  0  0  0  0  0  0  0  0  0
  -29.0058  -29.7379  -18.9703 C   0  0  0  0  0  0  0  0  0  0  0  0
  -29.2512  -29.5758  -17.6086 C   0  0  0  0  0  0  0  0  0  0  0  0
  -28.2463  -29.7382  -16.6516 C   0  0  0  0  0  0  0  0  0  0  0  0
  -26.9797  -30.0967  -17.0925 C   0  0  0  0  0  0  0  0  0  0  0  0
  -25.8634  -30.2975  -16.1832 N   0  0  0  0  0  0  0  0  0  0  0  0
  -25.8738  -29.6589  -15.1317 O   0  0  0  0  0  0  0  0  0  0  0  0
  -24.9925  -31.1188  -16.5005 O   0  0  0  0  0  0  0  0  0  0  0  0
  -26.7374  -30.3365  -18.4333 C   0  0  0  0  0  0  0  0  0  0  0  0
  -27.7357  -30.1910  -19.4016 C   0  0  0  0  0  0  0  0  0  0  0  0
  1  2  2  0
  2  3  1  0
  3  4  1  0
  4  5  1  0
  5  6  1  0
  6  7  1  0
  7  8  1  0
  8  9  1  0
  9 10  1  0
 10 11  1  0
 11 12  1  0
 12 13  2  0
 13 14  1  0
 14 15  2  0
 15 16  1  0
 16 17  2  0
 17 18  1  0
 18 19  2  0
 19 20  1  0
 20 21  2  0
 20 22  1  0
 19 23  1  0
 23 24  2  0
  7  2  1  0
 24 12  1  0
 24 16  1  0
M  CHG  2  20   1  22  -1
M  END
>  <id>  (74) 
185607

>  <inchikey>  (74) 
FRNXPLHZHRXKEC-UHFFFAOYSA-N

>  <alias>  (74) 
None

>  <smiles>  (74) 
O=C1CCCCN1CCCNc1ccnc2ccc([N+](=O)[O-])cc12

>  <path>  (74) 
/opt/xchem-fragalysis-2/maxwin/BulkDock/SCRATCH/220468/C54938-P206/C54938-P206.minimised.mol

>  <distance_score>  (74) 
0.933179

>  <energy_score>  (74) 
-31.638829

>  <compound>  (74) 
FRNXPLHZHRXKEC-UHFFFAOYSA-N

>  <compound_id>  (74) 
54938

>  <target>  (74) 
Flavi_NS5_RdRp

>  <tags>  (74) 
['Fragmenstein placed', 'RdRp_knitwork_green_site_rna_tunnel_impure_fragalysis.sdf Pose OK', 'Enamine_Quote_1977854', 'Knitwork impure merge', 'acceptable', 'Green Site/RNA tunnel merge', 'LCD curated YES']

>  <SLURM_JOB_ID>  (74) 
220468

>  <SLURM_JOB_NAME>  (74) 
BulkDock.place:Flavi_NS5_RdRp:RdRp_knitwork_green_site_rna_tunnel_impure_split4000_batch017

>  <csv_name>  (74) 
RdRp_knitwork_green_site_rna_tunnel_impure_split4000_batch017.csv

>  <scratch_subdir>  (74) 
/opt/xchem-fragalysis-2/maxwin/BulkDock/SCRATCH/220468/C54938-P206

>  <fragmenstein_runtime>  (74) 
3.254548

>  <fragmenstein_outcome>  (74) 
acceptable

>  <fragmenstein_mode>  (74) 
expansion

>  <fragmenstein_error>  (74) 


>  <exports>  (74) 
['/opt/xchem-fragalysis-2/maxwin/BulkDock/OUTPUTS/RdRp_knitwork_green_site_rna_tunnel_impure_split4000_batch017_220468.sdf', '/opt/xchem-fragalysis-2/maxwin/BulkDock/OUTPUTS/RdRp_knitwork_green_site_rna_tunnel_impure_fragalysis.sdf', '/opt/xchem-fragalysis-2/maxwin/RdRp_FFF/syndirella/Retro_OK_batch3.sdf']

>  <Multi-SuCOS>  (74) 
0.57694

>  <merge_set>  (74) 
RdRp_knitwork_green_site_rna_tunnel_impure_fragalysis.sdf

$$$$
FRNXPLHZHRXKEC-UHFFFAOYSA-N
     RDKit          3D

 24 26  0  0  0  0  0  0  0  0999 V2000
  -25.0081  -32.7545  -24.6973 O   0  0  0  0  0  0  0  0  0  0  0  0
  -23.8459  -33.0993  -24.4987 C   0  0  0  0  0  0  0  0  0  0  0  0
  -23.1514  -34.0973  -25.3991 C   0  0  0  0  0  0  0  0  0  0  0  0
  -21.7186  -33.6944  -25.7005 C   0  0  0  0  0  0  0  0  0  0  0  0
  -20.9752  -33.1554  -24.4779 C   0  0  0  0  0  0  0  0  0  0  0  0
  -21.7737  -33.2400  -23.1909 C   0  0  0  0  0  0  0  0  0  0  0  0
  -23.0877  -32.6849  -23.4154 N   0  0  0  0  0  0  0  0  0  0  0  0
  -23.7127  -31.9050  -22.3624 C   0  0  0  0  0  0  0  0  0  0  0  0
  -24.6293  -32.7849  -21.5158 C   0  0  0  0  0  0  0  0  0  0  0  0
  -25.4383  -31.9639  -20.5295 C   0  0  0  0  0  0  0  0  0  0  0  0
  -26.3103  -31.0118  -21.2210 N   0  0  0  0  0  0  0  0  0  0  0  0
  -27.5365  -30.6047  -20.6732 C   0  0  0  0  0  0  0  0  0  0  0  0
  -28.5358  -30.2351  -21.5622 C   0  0  0  0  0  0  0  0  0  0  0  0
  -29.7975  -29.9223  -21.0928 C   0  0  0  0  0  0  0  0  0  0  0  0
  -30.1362  -29.9598  -19.7955 N   0  0  0  0  0  0  0  0  0  0  0  0
  -29.1627  -30.1852  -18.9140 C   0  0  0  0  0  0  0  0  0  0  0  0
  -29.4757  -30.1415  -17.5591 C   0  0  0  0  0  0  0  0  0  0  0  0
  -28.4977  -30.2989  -16.5753 C   0  0  0  0  0  0  0  0  0  0  0  0
  -27.1762  -30.4478  -16.9812 C   0  0  0  0  0  0  0  0  0  0  0  0
  -26.0939  -30.6443  -16.0326 N   0  0  0  0  0  0  0  0  0  0  0  0
  -24.9333  -30.4858  -16.4397 O   0  0  0  0  0  0  0  0  0  0  0  0
  -26.3996  -31.0022  -14.8885 O   0  0  0  0  0  0  0  0  0  0  0  0
  -26.8429  -30.4678  -18.3251 C   0  0  0  0  0  0  0  0  0  0  0  0
  -27.8275  -30.4338  -19.3096 C   0  0  0  0  0  0  0  0  0  0  0  0
  1  2  2  0
  2  3  1  0
  3  4  1  0
  4  5  1  0
  5  6  1  0
  6  7  1  0
  7  8  1  0
  8  9  1  0
  9 10  1  0
 10 11  1  0
 11 12  1  0
 12 13  2  0
 13 14  1  0
 14 15  2  0
 15 16  1  0
 16 17  2  0
 17 18  1  0
 18 19  2  0
 19 20  1  0
 20 21  2  0
 20 22  1  0
 19 23  1  0
 23 24  2  0
  7  2  1  0
 24 12  1  0
 24 16  1  0
M  CHG  2  20   1  22  -1
M  END
>  <id>  (75) 
185617

>  <inchikey>  (75) 
FRNXPLHZHRXKEC-UHFFFAOYSA-N

>  <alias>  (75) 
None

>  <smiles>  (75) 
O=C1CCCCN1CCCNc1ccnc2ccc([N+](=O)[O-])cc12

>  <path>  (75) 
/opt/xchem-fragalysis-2/maxwin/BulkDock/SCRATCH/220468/C54938-P208/C54938-P208.minimised.mol

>  <distance_score>  (75) 
0.708355

>  <energy_score>  (75) 
-36.739179

>  <compound>  (75) 
FRNXPLHZHRXKEC-UHFFFAOYSA-N

>  <compound_id>  (75) 
54938

>  <target>  (75) 
Flavi_NS5_RdRp

>  <tags>  (75) 
['Fragmenstein placed', 'RdRp_knitwork_green_site_rna_tunnel_impure_fragalysis.sdf Pose OK', 'Enamine_Quote_1977854', 'Knitwork impure merge', 'acceptable', 'Green Site/RNA tunnel merge']

>  <SLURM_JOB_ID>  (75) 
220468

>  <SLURM_JOB_NAME>  (75) 
BulkDock.place:Flavi_NS5_RdRp:RdRp_knitwork_green_site_rna_tunnel_impure_split4000_batch017

>  <csv_name>  (75) 
RdRp_knitwork_green_site_rna_tunnel_impure_split4000_batch017.csv

>  <scratch_subdir>  (75) 
/opt/xchem-fragalysis-2/maxwin/BulkDock/SCRATCH/220468/C54938-P208

>  <fragmenstein_runtime>  (75) 
2.574526

>  <fragmenstein_outcome>  (75) 
acceptable

>  <fragmenstein_mode>  (75) 
expansion

>  <fragmenstein_error>  (75) 


>  <exports>  (75) 
['/opt/xchem-fragalysis-2/maxwin/BulkDock/OUTPUTS/RdRp_knitwork_green_site_rna_tunnel_impure_split4000_batch017_220468.sdf', '/opt/xchem-fragalysis-2/maxwin/BulkDock/OUTPUTS/RdRp_knitwork_green_site_rna_tunnel_impure_fragalysis.sdf', '/opt/xchem-fragalysis-2/maxwin/RdRp_FFF/syndirella/Retro_OK_batch3.sdf']

>  <Multi-SuCOS>  (75) 
0.597887

>  <merge_set>  (75) 
RdRp_knitwork_green_site_rna_tunnel_impure_fragalysis.sdf

$$$$
UCXOUSGPQWXLPI-SNVBAGLBSA-N
     RDKit          3D

 22 23  0  0  0  0  0  0  0  0999 V2000
  -23.8863  -32.1413  -17.2650 C   0  0  0  0  0  0  0  0  0  0  0  0
  -24.0486  -32.3582  -19.0520 S   0  0  0  0  0  0  0  0  0  0  0  0
  -22.3680  -32.9474  -19.4039 C   0  0  0  0  0  0  0  0  0  0  0  0
  -22.1279  -33.4004  -20.8456 C   0  0  0  0  0  0  0  0  0  0  0  0
  -22.0296  -32.3464  -21.9701 C   0  0  2  0  0  0  0  0  0  0  0  0
  -20.7638  -31.4827  -21.9414 C   0  0  0  0  0  0  0  0  0  0  0  0
  -20.6353  -30.5379  -20.8881 O   0  0  0  0  0  0  0  0  0  0  0  0
  -23.2599  -31.6179  -22.1527 N   0  0  0  0  0  0  0  0  0  0  0  0
  -24.6849  -32.1196  -22.4238 C   0  0  0  0  0  0  0  0  0  0  0  0
  -25.0818  -33.1973  -22.6197 O   0  0  0  0  0  0  0  0  0  0  0  0
  -25.7568  -31.0089  -22.3133 C   0  0  0  0  0  0  0  0  0  0  0  0
  -26.1785  -30.4681  -23.2548 O   0  0  0  0  0  0  0  0  0  0  0  0
  -26.1615  -30.8921  -20.8252 N   0  0  0  0  0  0  0  0  0  0  0  0
  -27.1961  -30.1820  -20.2229 C   0  0  0  0  0  0  0  0  0  0  0  0
  -28.3711  -30.0026  -20.9573 C   0  0  0  0  0  0  0  0  0  0  0  0
  -29.5914  -29.8623  -20.3051 C   0  0  0  0  0  0  0  0  0  0  0  0
  -29.6621  -29.8369  -18.9114 C   0  0  0  0  0  0  0  0  0  0  0  0
  -28.4597  -29.7950  -18.2051 C   0  0  0  0  0  0  0  0  0  0  0  0
  -28.2291  -29.6670  -16.8545 N   0  0  0  0  0  0  0  0  0  0  0  0
  -26.8842  -29.6718  -16.6050 C   0  0  0  0  0  0  0  0  0  0  0  0
  -26.2395  -29.8186  -17.8113 C   0  0  0  0  0  0  0  0  0  0  0  0
  -27.2220  -29.9495  -18.8313 C   0  0  0  0  0  0  0  0  0  0  0  0
  1  2  1  0
  2  3  1  0
  3  4  1  0
  5  4  1  1
  5  6  1  0
  6  7  1  0
  5  8  1  0
  8  9  1  0
  9 10  2  0
  9 11  1  0
 11 12  2  0
 11 13  1  0
 13 14  1  0
 14 15  2  0
 15 16  1  0
 16 17  2  0
 17 18  1  0
 18 19  1  0
 19 20  1  0
 20 21  2  0
 21 22  1  0
 22 14  1  0
 22 18  2  0
M  END
>  <id>  (76) 
185725

>  <inchikey>  (76) 
UCXOUSGPQWXLPI-SNVBAGLBSA-N

>  <alias>  (76) 
None

>  <smiles>  (76) 
CSCC[C@H](CO)NC(=O)C(=O)Nc1cccc2[nH]ccc12

>  <path>  (76) 
/opt/xchem-fragalysis-2/maxwin/BulkDock/SCRATCH/220459/C43304-P102/C43304-P102.minimised.mol

>  <distance_score>  (76) 
0.963323

>  <energy_score>  (76) 
-24.642004

>  <compound>  (76) 
UCXOUSGPQWXLPI-UHFFFAOYSA-N

>  <compound_id>  (76) 
43304

>  <target>  (76) 
Flavi_NS5_RdRp

>  <tags>  (76) 
['Fragmenstein placed', 'RdRp_knitwork_green_site_rna_tunnel_impure_fragalysis.sdf Pose OK', 'Enamine_Quote_1977854', 'Knitwork impure merge', 'acceptable', 'Green Site/RNA tunnel merge', 'LCD curated YES']

>  <SLURM_JOB_ID>  (76) 
220459

>  <SLURM_JOB_NAME>  (76) 
BulkDock.place:Flavi_NS5_RdRp:RdRp_knitwork_green_site_rna_tunnel_impure_split4000_batch008

>  <csv_name>  (76) 
RdRp_knitwork_green_site_rna_tunnel_impure_split4000_batch008.csv

>  <scratch_subdir>  (76) 
/opt/xchem-fragalysis-2/maxwin/BulkDock/SCRATCH/220459/C43304-P102

>  <fragmenstein_runtime>  (76) 
9.832323

>  <fragmenstein_outcome>  (76) 
acceptable

>  <fragmenstein_mode>  (76) 
expansion

>  <fragmenstein_error>  (76) 


>  <exports>  (76) 
['/opt/xchem-fragalysis-2/maxwin/BulkDock/OUTPUTS/RdRp_knitwork_green_site_rna_tunnel_impure_split4000_batch008_220459.sdf', '/opt/xchem-fragalysis-2/maxwin/BulkDock/OUTPUTS/RdRp_knitwork_green_site_rna_tunnel_impure_fragalysis.sdf', '/opt/xchem-fragalysis-2/maxwin/RdRp_FFF/syndirella/Retro_OK_batch3.sdf']

>  <Multi-SuCOS>  (76) 
0.503273

>  <merge_set>  (76) 
RdRp_knitwork_green_site_rna_tunnel_impure_fragalysis.sdf

$$$$
XWUQVDZICNOZJP-NSHDSACASA-N
     RDKit          3D

 22 24  0  0  0  0  0  0  0  0999 V2000
  -25.8899  -33.0968  -22.6342 C   0  0  0  0  0  0  0  0  0  0  0  0
  -25.1034  -32.0748  -21.8259 C   0  0  1  0  0  0  0  0  0  0  0  0
  -24.0125  -31.4022  -22.6529 C   0  0  0  0  0  0  0  0  0  0  0  0
  -23.0177  -32.2930  -23.2151 N   0  0  0  0  0  0  0  0  0  0  0  0
  -21.7101  -32.4585  -22.6411 C   0  0  0  0  0  0  0  0  0  0  0  0
  -20.8811  -32.8714  -23.8374 C   0  0  0  0  0  0  0  0  0  0  0  0
  -21.8614  -33.6520  -24.7059 C   0  0  0  0  0  0  0  0  0  0  0  0
  -23.1658  -32.9664  -24.4116 C   0  0  0  0  0  0  0  0  0  0  0  0
  -24.1623  -33.0375  -25.1083 O   0  0  0  0  0  0  0  0  0  0  0  0
  -25.9822  -31.0739  -21.2218 N   0  0  0  0  0  0  0  0  0  0  0  0
  -27.1864  -30.3001  -21.8179 C   0  0  0  0  0  0  0  0  0  0  0  0
  -27.6137  -30.2860  -22.9057 O   0  0  0  0  0  0  0  0  0  0  0  0
  -27.7705  -29.3715  -20.7548 C   0  0  0  0  0  0  0  0  0  0  0  0
  -28.2385  -29.8863  -19.4161 C   0  0  0  0  0  0  0  0  0  0  0  0
  -29.5681  -30.0705  -19.3205 N   0  0  0  0  0  0  0  0  0  0  0  0
  -29.8210  -30.1548  -18.0180 N   0  0  0  0  0  0  0  0  0  0  0  0
  -28.7063  -30.1095  -17.2559 C   0  0  0  0  0  0  0  0  0  0  0  0
  -27.6300  -30.0391  -18.1103 C   0  0  0  0  0  0  0  0  0  0  0  0
  -26.2555  -30.0320  -17.5083 C   0  0  0  0  0  0  0  0  0  0  0  0
  -26.1859  -30.6677  -16.1089 C   0  0  0  0  0  0  0  0  0  0  0  0
  -27.2955  -30.1363  -15.1961 C   0  0  0  0  0  0  0  0  0  0  0  0
  -28.7017  -30.2247  -15.7865 C   0  0  0  0  0  0  0  0  0  0  0  0
  2  1  1  6
  2  3  1  0
  3  4  1  0
  4  5  1  0
  5  6  1  0
  6  7  1  0
  7  8  1  0
  8  9  2  0
  2 10  1  0
 10 11  1  0
 11 12  2  0
 11 13  1  0
 13 14  1  0
 14 15  2  0
 15 16  1  0
 16 17  1  0
 17 18  2  0
 18 19  1  0
 19 20  1  0
 20 21  1  0
 21 22  1  0
  8  4  1  0
 18 14  1  0
 22 17  1  0
M  END
>  <id>  (77) 
185894

>  <inchikey>  (77) 
XWUQVDZICNOZJP-NSHDSACASA-N

>  <alias>  (77) 
None

>  <smiles>  (77) 
C[C@@H](CN1CCCC1=O)NC(=O)Cc1n[nH]c2c1CCCC2

>  <path>  (77) 
/opt/xchem-fragalysis-2/maxwin/BulkDock/SCRATCH/220470/C52471-P196/C52471-P196.minimised.mol

>  <distance_score>  (77) 
0.956121

>  <energy_score>  (77) 
-32.978494

>  <compound>  (77) 
XWUQVDZICNOZJP-UHFFFAOYSA-N

>  <compound_id>  (77) 
52471

>  <target>  (77) 
Flavi_NS5_RdRp

>  <tags>  (77) 
['Fragmenstein placed', 'Enamine_unavailable', 'RdRp_knitwork_green_site_rna_tunnel_impure_fragalysis.sdf Pose OK', 'Knitwork impure merge', 'acceptable', 'Green Site/RNA tunnel merge', 'LCD curated YES']

>  <SLURM_JOB_ID>  (77) 
220470

>  <SLURM_JOB_NAME>  (77) 
BulkDock.place:Flavi_NS5_RdRp:RdRp_knitwork_green_site_rna_tunnel_impure_split4000_batch019

>  <csv_name>  (77) 
RdRp_knitwork_green_site_rna_tunnel_impure_split4000_batch019.csv

>  <scratch_subdir>  (77) 
/opt/xchem-fragalysis-2/maxwin/BulkDock/SCRATCH/220470/C52471-P196

>  <fragmenstein_runtime>  (77) 
9.202245

>  <fragmenstein_outcome>  (77) 
acceptable

>  <fragmenstein_mode>  (77) 
expansion

>  <fragmenstein_error>  (77) 


>  <exports>  (77) 
['/opt/xchem-fragalysis-2/maxwin/BulkDock/OUTPUTS/RdRp_knitwork_green_site_rna_tunnel_impure_split4000_batch019_220470.sdf', '/opt/xchem-fragalysis-2/maxwin/BulkDock/OUTPUTS/RdRp_knitwork_green_site_rna_tunnel_impure_fragalysis.sdf', '/opt/xchem-fragalysis-2/maxwin/RdRp_FFF/syndirella/Retro_OK_batch3.sdf']

>  <Multi-SuCOS>  (77) 
0.53963

>  <merge_set>  (77) 
RdRp_knitwork_green_site_rna_tunnel_impure_fragalysis.sdf

$$$$
XWUQVDZICNOZJP-NSHDSACASA-N
     RDKit          3D

 22 24  0  0  0  0  0  0  0  0999 V2000
  -23.9030  -33.7703  -20.5886 C   0  0  0  0  0  0  0  0  0  0  0  0
  -23.7672  -32.2572  -20.6462 C   0  0  1  0  0  0  0  0  0  0  0  0
  -22.9300  -31.7208  -21.8251 C   0  0  0  0  0  0  0  0  0  0  0  0
  -22.5954  -32.6147  -22.9131 N   0  0  0  0  0  0  0  0  0  0  0  0
  -21.2238  -32.9708  -23.1733 C   0  0  0  0  0  0  0  0  0  0  0  0
  -21.2082  -33.3700  -24.6353 C   0  0  0  0  0  0  0  0  0  0  0  0
  -22.6448  -33.7744  -24.9328 C   0  0  0  0  0  0  0  0  0  0  0  0
  -23.4346  -32.9267  -23.9683 C   0  0  0  0  0  0  0  0  0  0  0  0
  -24.6017  -32.6002  -24.1100 O   0  0  0  0  0  0  0  0  0  0  0  0
  -25.0444  -31.5618  -20.5958 N   0  0  0  0  0  0  0  0  0  0  0  0
  -26.4682  -32.0502  -20.9484 C   0  0  0  0  0  0  0  0  0  0  0  0
  -26.8486  -33.1075  -21.2600 O   0  0  0  0  0  0  0  0  0  0  0  0
  -27.3772  -30.8253  -20.9298 C   0  0  0  0  0  0  0  0  0  0  0  0
  -27.9857  -30.4268  -19.6291 C   0  0  0  0  0  0  0  0  0  0  0  0
  -29.2967  -30.1248  -19.6448 N   0  0  0  0  0  0  0  0  0  0  0  0
  -29.6009  -29.8204  -18.3828 N   0  0  0  0  0  0  0  0  0  0  0  0
  -28.5296  -29.9009  -17.5548 C   0  0  0  0  0  0  0  0  0  0  0  0
  -27.4411  -30.2342  -18.3308 C   0  0  0  0  0  0  0  0  0  0  0  0
  -26.0751  -30.3646  -17.7596 C   0  0  0  0  0  0  0  0  0  0  0  0
  -26.0036  -29.7783  -16.3359 C   0  0  0  0  0  0  0  0  0  0  0  0
  -27.2379  -30.0166  -15.4518 C   0  0  0  0  0  0  0  0  0  0  0  0
  -28.5773  -29.6587  -16.1040 C   0  0  0  0  0  0  0  0  0  0  0  0
  2  1  1  6
  2  3  1  0
  3  4  1  0
  4  5  1  0
  5  6  1  0
  6  7  1  0
  7  8  1  0
  8  9  2  0
  2 10  1  0
 10 11  1  0
 11 12  2  0
 11 13  1  0
 13 14  1  0
 14 15  2  0
 15 16  1  0
 16 17  1  0
 17 18  2  0
 18 19  1  0
 19 20  1  0
 20 21  1  0
 21 22  1  0
  8  4  1  0
 18 14  1  0
 22 17  1  0
M  END
>  <id>  (78) 
185920

>  <inchikey>  (78) 
XWUQVDZICNOZJP-NSHDSACASA-N

>  <alias>  (78) 
None

>  <smiles>  (78) 
C[C@@H](CN1CCCC1=O)NC(=O)Cc1n[nH]c2c1CCCC2

>  <path>  (78) 
/opt/xchem-fragalysis-2/maxwin/BulkDock/SCRATCH/220470/C52471-P206/C52471-P206.minimised.mol

>  <distance_score>  (78) 
0.851756

>  <energy_score>  (78) 
-36.06925

>  <compound>  (78) 
XWUQVDZICNOZJP-UHFFFAOYSA-N

>  <compound_id>  (78) 
52471

>  <target>  (78) 
Flavi_NS5_RdRp

>  <tags>  (78) 
['Fragmenstein placed', 'Enamine_unavailable', 'RdRp_knitwork_green_site_rna_tunnel_impure_fragalysis.sdf Pose OK', 'Knitwork impure merge', 'acceptable', 'Green Site/RNA tunnel merge']

>  <SLURM_JOB_ID>  (78) 
220470

>  <SLURM_JOB_NAME>  (78) 
BulkDock.place:Flavi_NS5_RdRp:RdRp_knitwork_green_site_rna_tunnel_impure_split4000_batch019

>  <csv_name>  (78) 
RdRp_knitwork_green_site_rna_tunnel_impure_split4000_batch019.csv

>  <scratch_subdir>  (78) 
/opt/xchem-fragalysis-2/maxwin/BulkDock/SCRATCH/220470/C52471-P206

>  <fragmenstein_runtime>  (78) 
6.67232

>  <fragmenstein_outcome>  (78) 
acceptable

>  <fragmenstein_mode>  (78) 
expansion

>  <fragmenstein_error>  (78) 


>  <exports>  (78) 
['/opt/xchem-fragalysis-2/maxwin/BulkDock/OUTPUTS/RdRp_knitwork_green_site_rna_tunnel_impure_split4000_batch019_220470.sdf', '/opt/xchem-fragalysis-2/maxwin/BulkDock/OUTPUTS/RdRp_knitwork_green_site_rna_tunnel_impure_fragalysis.sdf', '/opt/xchem-fragalysis-2/maxwin/RdRp_FFF/syndirella/Retro_OK_batch3.sdf']

>  <Multi-SuCOS>  (78) 
0.598991

>  <merge_set>  (78) 
RdRp_knitwork_green_site_rna_tunnel_impure_fragalysis.sdf

$$$$
YJLPYZNIZMWRSU-UHFFFAOYSA-N
     RDKit          3D

 20 21  0  0  0  0  0  0  0  0999 V2000
  -27.1825  -31.6470  -22.9432 C   0  0  0  0  0  0  0  0  0  0  0  0
  -27.5921  -31.2378  -21.5149 C   0  0  0  0  0  0  0  0  0  0  0  0
  -26.5145  -31.6048  -20.4988 C   0  0  0  0  0  0  0  0  0  0  0  0
  -27.7549  -29.7267  -21.4381 C   0  0  0  0  0  0  0  0  0  0  0  0
  -28.8667  -29.0370  -20.2386 S   0  0  0  0  0  0  0  0  0  0  0  0
  -28.6336  -27.6120  -20.2681 O   0  0  0  0  0  0  0  0  0  0  0  0
  -30.1693  -29.5517  -20.5989 O   0  0  0  0  0  0  0  0  0  0  0  0
  -28.4071  -29.6184  -18.7227 N   0  0  0  0  0  0  0  0  0  0  0  0
  -29.5182  -30.1680  -17.8780 C   0  0  0  0  0  0  0  0  0  0  0  0
  -29.2833  -30.0206  -16.3830 C   0  0  0  0  0  0  0  0  0  0  0  0
  -27.8851  -30.4803  -16.0231 C   0  0  0  0  0  0  0  0  0  0  0  0
  -26.9047  -29.6321  -16.7768 C   0  0  0  0  0  0  0  0  0  0  0  0
  -25.6912  -29.3169  -16.1625 C   0  0  0  0  0  0  0  0  0  0  0  0
  -24.8036  -28.4596  -16.7902 C   0  0  0  0  0  0  0  0  0  0  0  0
  -25.1019  -27.9272  -18.0363 C   0  0  0  0  0  0  0  0  0  0  0  0
  -26.2809  -28.2916  -18.6768 C   0  0  0  0  0  0  0  0  0  0  0  0
  -27.2081  -29.1406  -18.0610 C   0  0  0  0  0  0  0  0  0  0  0  0
  -28.9262  -31.9631  -21.3406 C   0  0  0  0  0  0  0  0  0  0  0  0
  -29.3504  -31.9182  -20.0699 F   0  0  0  0  0  0  0  0  0  0  0  0
  -28.7889  -33.2725  -21.6691 F   0  0  0  0  0  0  0  0  0  0  0  0
  1  2  1  0
  2  3  1  0
  2  4  1  0
  4  5  1  0
  5  6  2  0
  5  7  2  0
  5  8  1  0
  8  9  1  0
  9 10  1  0
 10 11  1  0
 11 12  1  0
 12 13  2  0
 13 14  1  0
 14 15  2  0
 15 16  1  0
 16 17  2  0
  2 18  1  0
 18 19  1  0
 18 20  1  0
 17  8  1  0
 17 12  1  0
M  END
>  <id>  (79) 
186031

>  <inchikey>  (79) 
YJLPYZNIZMWRSU-UHFFFAOYSA-N

>  <alias>  (79) 
None

>  <smiles>  (79) 
CC(C)(CS(=O)(=O)N1CCCc2ccccc21)C(F)F

>  <path>  (79) 
/opt/xchem-fragalysis-2/maxwin/BulkDock/SCRATCH/220458/C65250-P3/C65250-P3.minimised.mol

>  <distance_score>  (79) 
0.970041

>  <energy_score>  (79) 
-36.497578

>  <compound>  (79) 
YJLPYZNIZMWRSU-UHFFFAOYSA-N

>  <compound_id>  (79) 
65250

>  <target>  (79) 
Flavi_NS5_RdRp

>  <tags>  (79) 
['Fragmenstein placed', 'RdRp_knitwork_green_site_rna_tunnel_impure_fragalysis.sdf Pose OK', 'Enamine_Quote_1977854', 'Knitwork impure merge', 'acceptable', 'Green Site/RNA tunnel merge', 'LCD curated YES']

>  <SLURM_JOB_ID>  (79) 
220458

>  <SLURM_JOB_NAME>  (79) 
BulkDock.place:Flavi_NS5_RdRp:RdRp_knitwork_green_site_rna_tunnel_impure_split4000_batch007

>  <csv_name>  (79) 
RdRp_knitwork_green_site_rna_tunnel_impure_split4000_batch007.csv

>  <scratch_subdir>  (79) 
/opt/xchem-fragalysis-2/maxwin/BulkDock/SCRATCH/220458/C65250-P3

>  <fragmenstein_runtime>  (79) 
3.338219

>  <fragmenstein_outcome>  (79) 
acceptable

>  <fragmenstein_mode>  (79) 
expansion

>  <fragmenstein_error>  (79) 


>  <exports>  (79) 
['/opt/xchem-fragalysis-2/maxwin/BulkDock/OUTPUTS/RdRp_knitwork_green_site_rna_tunnel_impure_split4000_batch007_220458.sdf', '/opt/xchem-fragalysis-2/maxwin/BulkDock/OUTPUTS/RdRp_knitwork_green_site_rna_tunnel_impure_fragalysis.sdf', '/opt/xchem-fragalysis-2/maxwin/RdRp_FFF/syndirella/Retro_OK_batch3.sdf']

>  <Multi-SuCOS>  (79) 
0.549869

>  <merge_set>  (79) 
RdRp_knitwork_green_site_rna_tunnel_impure_fragalysis.sdf

$$$$
KOQNTKIDGWWPRP-UHFFFAOYSA-N
     RDKit          3D

 16 17  0  0  0  0  0  0  0  0999 V2000
  -27.1658  -31.5041  -22.8776 N   0  0  0  0  0  0  0  0  0  0  0  0
  -27.2534  -31.1538  -21.7743 C   0  0  0  0  0  0  0  0  0  0  0  0
  -27.2564  -30.7095  -20.3977 C   0  0  0  0  0  0  0  0  0  0  0  0
  -28.8086  -29.8700  -20.1598 S   0  0  0  0  0  0  0  0  0  0  0  0
  -28.7661  -28.6411  -20.9176 O   0  0  0  0  0  0  0  0  0  0  0  0
  -29.8882  -30.8164  -20.3550 O   0  0  0  0  0  0  0  0  0  0  0  0
  -28.7446  -29.4671  -18.4903 N   0  0  0  0  0  0  0  0  0  0  0  0
  -29.6110  -30.2903  -17.6123 C   0  0  0  0  0  0  0  0  0  0  0  0
  -29.2005  -30.2179  -16.1503 C   0  0  0  0  0  0  0  0  0  0  0  0
  -27.7187  -30.5285  -16.0060 C   0  0  0  0  0  0  0  0  0  0  0  0
  -26.9320  -29.5549  -16.8353 C   0  0  0  0  0  0  0  0  0  0  0  0
  -25.6373  -29.2112  -16.4506 C   0  0  0  0  0  0  0  0  0  0  0  0
  -24.9303  -28.2586  -17.1771 C   0  0  0  0  0  0  0  0  0  0  0  0
  -25.4977  -27.6300  -18.2798 C   0  0  0  0  0  0  0  0  0  0  0  0
  -26.7847  -27.9785  -18.6724 C   0  0  0  0  0  0  0  0  0  0  0  0
  -27.4850  -28.9803  -17.9898 C   0  0  0  0  0  0  0  0  0  0  0  0
  1  2  3  0
  2  3  1  0
  3  4  1  0
  4  5  2  0
  4  6  2  0
  4  7  1  0
  7  8  1  0
  8  9  1  0
  9 10  1  0
 10 11  1  0
 11 12  2  0
 12 13  1  0
 13 14  2  0
 14 15  1  0
 15 16  2  0
 16  7  1  0
 16 11  1  0
M  END
>  <id>  (80) 
186233

>  <inchikey>  (80) 
KOQNTKIDGWWPRP-UHFFFAOYSA-N

>  <alias>  (80) 
None

>  <smiles>  (80) 
N#CCS(=O)(=O)N1CCCc2ccccc21

>  <path>  (80) 
/opt/xchem-fragalysis-2/maxwin/BulkDock/SCRATCH/220458/C65264-P3/C65264-P3.minimised.mol

>  <distance_score>  (80) 
0.817618

>  <energy_score>  (80) 
-37.581185

>  <compound>  (80) 
KOQNTKIDGWWPRP-UHFFFAOYSA-N

>  <compound_id>  (80) 
65264

>  <target>  (80) 
Flavi_NS5_RdRp

>  <tags>  (80) 
['Fragmenstein placed', 'RdRp_knitwork_green_site_rna_tunnel_impure_fragalysis.sdf Pose OK', 'Enamine_Quote_1977854', 'Knitwork impure merge', 'acceptable', 'Green Site/RNA tunnel merge', 'LCD curated YES']

>  <SLURM_JOB_ID>  (80) 
220458

>  <SLURM_JOB_NAME>  (80) 
BulkDock.place:Flavi_NS5_RdRp:RdRp_knitwork_green_site_rna_tunnel_impure_split4000_batch007

>  <csv_name>  (80) 
RdRp_knitwork_green_site_rna_tunnel_impure_split4000_batch007.csv

>  <scratch_subdir>  (80) 
/opt/xchem-fragalysis-2/maxwin/BulkDock/SCRATCH/220458/C65264-P3

>  <fragmenstein_runtime>  (80) 
1.72358

>  <fragmenstein_outcome>  (80) 
acceptable

>  <fragmenstein_mode>  (80) 
expansion

>  <fragmenstein_error>  (80) 


>  <exports>  (80) 
['/opt/xchem-fragalysis-2/maxwin/BulkDock/OUTPUTS/RdRp_knitwork_green_site_rna_tunnel_impure_split4000_batch007_220458.sdf', '/opt/xchem-fragalysis-2/maxwin/BulkDock/OUTPUTS/RdRp_knitwork_green_site_rna_tunnel_impure_fragalysis.sdf', '/opt/xchem-fragalysis-2/maxwin/RdRp_FFF/syndirella/Retro_OK_batch3.sdf']

>  <Multi-SuCOS>  (80) 
0.679147

>  <merge_set>  (80) 
RdRp_knitwork_green_site_rna_tunnel_impure_fragalysis.sdf

$$$$
KOQNTKIDGWWPRP-UHFFFAOYSA-N
     RDKit          3D

 16 17  0  0  0  0  0  0  0  0999 V2000
  -26.0794  -30.4900  -21.9878 N   0  0  0  0  0  0  0  0  0  0  0  0
  -26.7547  -30.8676  -21.1229 C   0  0  0  0  0  0  0  0  0  0  0  0
  -27.5360  -31.4506  -20.0511 C   0  0  0  0  0  0  0  0  0  0  0  0
  -29.0733  -30.5526  -19.8711 S   0  0  0  0  0  0  0  0  0  0  0  0
  -29.1985  -29.5553  -20.9103 O   0  0  0  0  0  0  0  0  0  0  0  0
  -30.1302  -31.5279  -19.6733 O   0  0  0  0  0  0  0  0  0  0  0  0
  -28.8611  -29.8027  -18.3468 N   0  0  0  0  0  0  0  0  0  0  0  0
  -29.3463  -30.6205  -17.1968 C   0  0  0  0  0  0  0  0  0  0  0  0
  -28.8241  -30.1094  -15.8668 C   0  0  0  0  0  0  0  0  0  0  0  0
  -27.3074  -30.0532  -15.9270 C   0  0  0  0  0  0  0  0  0  0  0  0
  -26.8975  -29.1360  -17.0446 C   0  0  0  0  0  0  0  0  0  0  0  0
  -25.7472  -28.3638  -16.9222 C   0  0  0  0  0  0  0  0  0  0  0  0
  -25.4157  -27.4245  -17.9052 C   0  0  0  0  0  0  0  0  0  0  0  0
  -26.1969  -27.2745  -19.0343 C   0  0  0  0  0  0  0  0  0  0  0  0
  -27.3373  -28.0486  -19.1664 C   0  0  0  0  0  0  0  0  0  0  0  0
  -27.6819  -28.9966  -18.1950 C   0  0  0  0  0  0  0  0  0  0  0  0
  1  2  3  0
  2  3  1  0
  3  4  1  0
  4  5  2  0
  4  6  2  0
  4  7  1  0
  7  8  1  0
  8  9  1  0
  9 10  1  0
 10 11  1  0
 11 12  2  0
 12 13  1  0
 13 14  2  0
 14 15  1  0
 15 16  2  0
 16  7  1  0
 16 11  1  0
M  END
>  <id>  (81) 
186246

>  <inchikey>  (81) 
KOQNTKIDGWWPRP-UHFFFAOYSA-N

>  <alias>  (81) 
None

>  <smiles>  (81) 
N#CCS(=O)(=O)N1CCCc2ccccc21

>  <path>  (81) 
/opt/xchem-fragalysis-2/maxwin/BulkDock/SCRATCH/220458/C65264-P150/C65264-P150.minimised.mol

>  <distance_score>  (81) 
0.880578

>  <energy_score>  (81) 
-34.325769

>  <compound>  (81) 
KOQNTKIDGWWPRP-UHFFFAOYSA-N

>  <compound_id>  (81) 
65264

>  <target>  (81) 
Flavi_NS5_RdRp

>  <tags>  (81) 
['Fragmenstein placed', 'RdRp_knitwork_green_site_rna_tunnel_impure_fragalysis.sdf Pose OK', 'Enamine_Quote_1977854', 'Knitwork impure merge', 'acceptable', 'Green Site/RNA tunnel merge']

>  <SLURM_JOB_ID>  (81) 
220458

>  <SLURM_JOB_NAME>  (81) 
BulkDock.place:Flavi_NS5_RdRp:RdRp_knitwork_green_site_rna_tunnel_impure_split4000_batch007

>  <csv_name>  (81) 
RdRp_knitwork_green_site_rna_tunnel_impure_split4000_batch007.csv

>  <scratch_subdir>  (81) 
/opt/xchem-fragalysis-2/maxwin/BulkDock/SCRATCH/220458/C65264-P150

>  <fragmenstein_runtime>  (81) 
2.200037

>  <fragmenstein_outcome>  (81) 
acceptable

>  <fragmenstein_mode>  (81) 
expansion

>  <fragmenstein_error>  (81) 


>  <exports>  (81) 
['/opt/xchem-fragalysis-2/maxwin/BulkDock/OUTPUTS/RdRp_knitwork_green_site_rna_tunnel_impure_split4000_batch007_220458.sdf', '/opt/xchem-fragalysis-2/maxwin/BulkDock/OUTPUTS/RdRp_knitwork_green_site_rna_tunnel_impure_fragalysis.sdf', '/opt/xchem-fragalysis-2/maxwin/RdRp_FFF/syndirella/Retro_OK_batch3.sdf']

>  <Multi-SuCOS>  (81) 
0.626468

>  <merge_set>  (81) 
RdRp_knitwork_green_site_rna_tunnel_impure_fragalysis.sdf

$$$$
UFFLSBNXFSNCOZ-UHFFFAOYSA-N
     RDKit          3D

 14 16  0  0  0  0  0  0  0  0999 V2000
  -30.0213  -30.2309  -20.3840 C   0  0  0  0  0  0  0  0  0  0  0  0
  -29.0151  -29.6592  -21.1686 C   0  0  0  0  0  0  0  0  0  0  0  0
  -27.7882  -29.2443  -20.6088 C   0  0  0  0  0  0  0  0  0  0  0  0
  -26.7740  -28.6519  -21.4582 C   0  0  0  0  0  0  0  0  0  0  0  0
  -26.1165  -27.4686  -21.1789 C   0  0  0  0  0  0  0  0  0  0  0  0
  -25.1221  -27.0212  -22.5119 S   0  0  0  0  0  0  0  0  0  0  0  0
  -25.5771  -28.4691  -23.3134 C   0  0  0  0  0  0  0  0  0  0  0  0
  -26.4721  -29.2120  -22.6946 N   0  0  0  0  0  0  0  0  0  0  0  0
  -27.5871  -29.4420  -19.2272 C   0  0  0  0  0  0  0  0  0  0  0  0
  -26.5311  -29.1853  -18.3721 N   0  0  0  0  0  0  0  0  0  0  0  0
  -26.9542  -29.6280  -17.2081 C   0  0  0  0  0  0  0  0  0  0  0  0
  -28.2123  -30.1422  -17.1970 O   0  0  0  0  0  0  0  0  0  0  0  0
  -28.6143  -30.0292  -18.4965 C   0  0  0  0  0  0  0  0  0  0  0  0
  -29.8377  -30.4327  -19.0152 C   0  0  0  0  0  0  0  0  0  0  0  0
  1  2  2  0
  2  3  1  0
  3  4  1  0
  4  5  2  0
  5  6  1  0
  6  7  1  0
  7  8  2  0
  3  9  2  0
  9 10  1  0
 10 11  2  0
 11 12  1  0
 12 13  1  0
 13 14  2  0
 14  1  1  0
  8  4  1  0
 13  9  1  0
M  END
>  <id>  (82) 
191110

>  <inchikey>  (82) 
UFFLSBNXFSNCOZ-UHFFFAOYSA-N

>  <alias>  (82) 
None

>  <smiles>  (82) 
c1cc(-c2cscn2)c2ncoc2c1

>  <path>  (82) 
/opt/xchem-fragalysis-2/maxwin/BulkDock/SCRATCH/220467/C49938-P136/C49938-P136.minimised.mol

>  <distance_score>  (82) 
0.70255

>  <energy_score>  (82) 
-31.512034

>  <compound>  (82) 
UFFLSBNXFSNCOZ-UHFFFAOYSA-N

>  <compound_id>  (82) 
49938

>  <target>  (82) 
Flavi_NS5_RdRp

>  <tags>  (82) 
['Fragmenstein placed', 'RdRp_knitwork_green_site_rna_tunnel_impure_fragalysis.sdf Pose OK', 'Enamine_Quote_1977854', 'Knitwork impure merge', 'acceptable', 'Green Site/RNA tunnel merge']

>  <SLURM_JOB_ID>  (82) 
220467

>  <SLURM_JOB_NAME>  (82) 
BulkDock.place:Flavi_NS5_RdRp:RdRp_knitwork_green_site_rna_tunnel_impure_split4000_batch016

>  <csv_name>  (82) 
RdRp_knitwork_green_site_rna_tunnel_impure_split4000_batch016.csv

>  <scratch_subdir>  (82) 
/opt/xchem-fragalysis-2/maxwin/BulkDock/SCRATCH/220467/C49938-P136

>  <fragmenstein_runtime>  (82) 
0.972353

>  <fragmenstein_outcome>  (82) 
acceptable

>  <fragmenstein_mode>  (82) 
expansion

>  <fragmenstein_error>  (82) 


>  <exports>  (82) 
['/opt/xchem-fragalysis-2/maxwin/BulkDock/OUTPUTS/RdRp_knitwork_green_site_rna_tunnel_impure_split4000_batch016_220467.sdf', '/opt/xchem-fragalysis-2/maxwin/BulkDock/OUTPUTS/RdRp_knitwork_green_site_rna_tunnel_impure_fragalysis.sdf', '/opt/xchem-fragalysis-2/maxwin/RdRp_FFF/syndirella/Retro_OK_batch3.sdf']

>  <Multi-SuCOS>  (82) 
0.820228

>  <merge_set>  (82) 
RdRp_knitwork_green_site_rna_tunnel_impure_fragalysis.sdf

$$$$
ZTHISXNUAOFTJB-SNVBAGLBSA-N
     RDKit          3D

 23 25  0  0  0  0  0  0  0  0999 V2000
  -24.5596  -33.9366  -20.9674 C   0  0  0  0  0  0  0  0  0  0  0  0
  -23.4571  -33.0160  -21.4671 C   0  0  2  0  0  0  0  0  0  0  0  0
  -23.7420  -31.5652  -21.1345 C   0  0  0  0  0  0  0  0  0  0  0  0
  -24.9769  -30.9562  -21.8028 C   0  0  0  0  0  0  0  0  0  0  0  0
  -25.0179  -30.7253  -22.9502 O   0  0  0  0  0  0  0  0  0  0  0  0
  -26.0340  -30.6974  -20.6791 N   0  0  0  0  0  0  0  0  0  0  0  0
  -27.3146  -30.2181  -20.7573 C   0  0  0  0  0  0  0  0  0  0  0  0
  -27.9532  -29.9863  -21.9504 C   0  0  0  0  0  0  0  0  0  0  0  0
  -29.2267  -29.6285  -21.6408 N   0  0  0  0  0  0  0  0  0  0  0  0
  -29.4668  -29.6070  -20.3272 N   0  0  0  0  0  0  0  0  0  0  0  0
  -28.2886  -29.9162  -19.7612 C   0  0  0  0  0  0  0  0  0  0  0  0
  -28.1439  -29.9361  -18.1732 C   0  0  0  0  0  0  0  0  0  0  0  0
  -29.1958  -29.8360  -17.3812 N   0  0  0  0  0  0  0  0  0  0  0  0
  -28.8213  -30.0051  -16.0675 C   0  0  0  0  0  0  0  0  0  0  0  0
  -27.4709  -30.1502  -15.8508 C   0  0  0  0  0  0  0  0  0  0  0  0
  -26.6393  -30.0750  -17.3475 S   0  0  0  0  0  0  0  0  0  0  0  0
  -23.0028  -33.2298  -22.8497 N   0  0  0  0  0  0  0  0  0  0  0  0
  -21.5633  -33.0999  -23.0602 C   0  0  0  0  0  0  0  0  0  0  0  0
  -21.1075  -33.0623  -24.5038 C   0  0  0  0  0  0  0  0  0  0  0  0
  -21.8881  -34.0476  -25.3428 C   0  0  0  0  0  0  0  0  0  0  0  0
  -23.3500  -33.6895  -25.2657 C   0  0  0  0  0  0  0  0  0  0  0  0
  -23.8929  -33.5404  -23.8650 C   0  0  0  0  0  0  0  0  0  0  0  0
  -25.1045  -33.6712  -23.6924 O   0  0  0  0  0  0  0  0  0  0  0  0
  2  1  1  6
  2  3  1  0
  3  4  1  0
  4  5  2  0
  4  6  1  0
  6  7  1  0
  7  8  2  0
  8  9  1  0
  9 10  1  0
 10 11  2  0
 11 12  1  0
 12 13  2  0
 13 14  1  0
 14 15  2  0
 15 16  1  0
  2 17  1  0
 17 18  1  0
 18 19  1  0
 19 20  1  0
 20 21  1  0
 21 22  1  0
 22 23  2  0
 11  7  1  0
 16 12  1  0
 22 17  1  0
M  END
>  <id>  (83) 
196606

>  <inchikey>  (83) 
ZTHISXNUAOFTJB-SNVBAGLBSA-N

>  <alias>  (83) 
None

>  <smiles>  (83) 
C[C@H](CC(=O)Nc1c[nH]nc1-c1nccs1)N1CCCCC1=O

>  <path>  (83) 
/opt/xchem-fragalysis-2/maxwin/BulkDock/SCRATCH/220465/C23289-P104/C23289-P104.minimised.mol

>  <distance_score>  (83) 
0.923437

>  <energy_score>  (83) 
-95.120887

>  <compound>  (83) 
ZTHISXNUAOFTJB-UHFFFAOYSA-N

>  <compound_id>  (83) 
23289

>  <target>  (83) 
Flavi_NS5_RdRp

>  <tags>  (83) 
['Fragmenstein placed', 'Enamine_unavailable', 'RdRp_knitwork_green_site_rna_tunnel_impure_fragalysis.sdf Pose OK', 'Knitwork impure merge', 'acceptable', 'Green Site/RNA tunnel merge', 'LCD curated YES']

>  <SLURM_JOB_ID>  (83) 
220465

>  <SLURM_JOB_NAME>  (83) 
BulkDock.place:Flavi_NS5_RdRp:RdRp_knitwork_green_site_rna_tunnel_impure_split4000_batch014

>  <csv_name>  (83) 
RdRp_knitwork_green_site_rna_tunnel_impure_split4000_batch014.csv

>  <scratch_subdir>  (83) 
/opt/xchem-fragalysis-2/maxwin/BulkDock/SCRATCH/220465/C23289-P104

>  <fragmenstein_runtime>  (83) 
5.892197

>  <fragmenstein_outcome>  (83) 
acceptable

>  <fragmenstein_mode>  (83) 
expansion

>  <fragmenstein_error>  (83) 


>  <exports>  (83) 
['/opt/xchem-fragalysis-2/maxwin/BulkDock/OUTPUTS/RdRp_knitwork_green_site_rna_tunnel_impure_split4000_batch014_220465.sdf', '/opt/xchem-fragalysis-2/maxwin/BulkDock/OUTPUTS/RdRp_knitwork_green_site_rna_tunnel_impure_fragalysis.sdf', '/opt/xchem-fragalysis-2/maxwin/RdRp_FFF/syndirella/Retro_OK_batch3.sdf']

>  <Multi-SuCOS>  (83) 
0.739216

>  <merge_set>  (83) 
RdRp_knitwork_green_site_rna_tunnel_impure_fragalysis.sdf

$$$$
ZTHISXNUAOFTJB-SNVBAGLBSA-N
     RDKit          3D

 23 25  0  0  0  0  0  0  0  0999 V2000
  -24.5979  -34.0505  -21.2592 C   0  0  0  0  0  0  0  0  0  0  0  0
  -23.5565  -32.9875  -21.5901 C   0  0  2  0  0  0  0  0  0  0  0  0
  -24.0434  -31.6105  -21.1634 C   0  0  0  0  0  0  0  0  0  0  0  0
  -25.3492  -31.1389  -21.7965 C   0  0  0  0  0  0  0  0  0  0  0  0
  -25.4566  -30.9750  -22.9517 O   0  0  0  0  0  0  0  0  0  0  0  0
  -26.3574  -30.8526  -20.6346 N   0  0  0  0  0  0  0  0  0  0  0  0
  -27.5946  -30.2512  -20.6542 C   0  0  0  0  0  0  0  0  0  0  0  0
  -28.2207  -29.7842  -21.7812 C   0  0  0  0  0  0  0  0  0  0  0  0
  -29.4309  -29.3038  -21.3822 N   0  0  0  0  0  0  0  0  0  0  0  0
  -29.6377  -29.4180  -20.0674 N   0  0  0  0  0  0  0  0  0  0  0  0
  -28.4677  -29.8720  -19.5924 C   0  0  0  0  0  0  0  0  0  0  0  0
  -28.1701  -29.8790  -18.0370 C   0  0  0  0  0  0  0  0  0  0  0  0
  -29.1139  -29.6957  -17.1332 N   0  0  0  0  0  0  0  0  0  0  0  0
  -28.5712  -29.7628  -15.8701 C   0  0  0  0  0  0  0  0  0  0  0  0
  -27.2063  -29.9266  -15.8144 C   0  0  0  0  0  0  0  0  0  0  0  0
  -26.5752  -30.0323  -17.4021 S   0  0  0  0  0  0  0  0  0  0  0  0
  -22.9674  -33.0748  -22.9403 N   0  0  0  0  0  0  0  0  0  0  0  0
  -21.6906  -32.3902  -23.1518 C   0  0  0  0  0  0  0  0  0  0  0  0
  -20.7858  -33.0925  -24.1619 C   0  0  0  0  0  0  0  0  0  0  0  0
  -21.5482  -33.9685  -25.1423 C   0  0  0  0  0  0  0  0  0  0  0  0
  -22.9300  -33.3960  -25.3682 C   0  0  0  0  0  0  0  0  0  0  0  0
  -23.7230  -33.3674  -24.0753 C   0  0  0  0  0  0  0  0  0  0  0  0
  -24.9299  -33.5934  -24.0921 O   0  0  0  0  0  0  0  0  0  0  0  0
  2  1  1  6
  2  3  1  0
  3  4  1  0
  4  5  2  0
  4  6  1  0
  6  7  1  0
  7  8  2  0
  8  9  1  0
  9 10  1  0
 10 11  2  0
 11 12  1  0
 12 13  2  0
 13 14  1  0
 14 15  2  0
 15 16  1  0
  2 17  1  0
 17 18  1  0
 18 19  1  0
 19 20  1  0
 20 21  1  0
 21 22  1  0
 22 23  2  0
 11  7  1  0
 16 12  1  0
 22 17  1  0
M  END
>  <id>  (84) 
196624

>  <inchikey>  (84) 
ZTHISXNUAOFTJB-SNVBAGLBSA-N

>  <alias>  (84) 
None

>  <smiles>  (84) 
C[C@H](CC(=O)Nc1c[nH]nc1-c1nccs1)N1CCCCC1=O

>  <path>  (84) 
/opt/xchem-fragalysis-2/maxwin/BulkDock/SCRATCH/220465/C23289-P206/C23289-P206.minimised.mol

>  <distance_score>  (84) 
0.992799

>  <energy_score>  (84) 
-91.16463

>  <compound>  (84) 
ZTHISXNUAOFTJB-UHFFFAOYSA-N

>  <compound_id>  (84) 
23289

>  <target>  (84) 
Flavi_NS5_RdRp

>  <tags>  (84) 
['Fragmenstein placed', 'Enamine_unavailable', 'RdRp_knitwork_green_site_rna_tunnel_impure_fragalysis.sdf Pose OK', 'Knitwork impure merge', 'acceptable', 'Green Site/RNA tunnel merge']

>  <SLURM_JOB_ID>  (84) 
220465

>  <SLURM_JOB_NAME>  (84) 
BulkDock.place:Flavi_NS5_RdRp:RdRp_knitwork_green_site_rna_tunnel_impure_split4000_batch014

>  <csv_name>  (84) 
RdRp_knitwork_green_site_rna_tunnel_impure_split4000_batch014.csv

>  <scratch_subdir>  (84) 
/opt/xchem-fragalysis-2/maxwin/BulkDock/SCRATCH/220465/C23289-P206

>  <fragmenstein_runtime>  (84) 
6.914925

>  <fragmenstein_outcome>  (84) 
acceptable

>  <fragmenstein_mode>  (84) 
expansion

>  <fragmenstein_error>  (84) 


>  <exports>  (84) 
['/opt/xchem-fragalysis-2/maxwin/BulkDock/OUTPUTS/RdRp_knitwork_green_site_rna_tunnel_impure_split4000_batch014_220465.sdf', '/opt/xchem-fragalysis-2/maxwin/BulkDock/OUTPUTS/RdRp_knitwork_green_site_rna_tunnel_impure_fragalysis.sdf', '/opt/xchem-fragalysis-2/maxwin/RdRp_FFF/syndirella/Retro_OK_batch3.sdf']

>  <Multi-SuCOS>  (84) 
0.732563

>  <merge_set>  (84) 
RdRp_knitwork_green_site_rna_tunnel_impure_fragalysis.sdf

$$$$
AWQDWKYDKALBOD-UHFFFAOYSA-N
     RDKit          3D

 23 26  0  0  0  0  0  0  0  0999 V2000
  -23.6346  -36.7221  -22.2552 C   0  0  0  0  0  0  0  0  0  0  0  0
  -22.6538  -35.6960  -21.8436 C   0  0  0  0  0  0  0  0  0  0  0  0
  -21.6778  -36.0912  -20.9768 O   0  0  0  0  0  0  0  0  0  0  0  0
  -20.8850  -35.0073  -20.7512 C   0  0  0  0  0  0  0  0  0  0  0  0
  -19.7609  -34.9864  -19.9293 C   0  0  0  0  0  0  0  0  0  0  0  0
  -19.0441  -33.7870  -19.8802 C   0  0  0  0  0  0  0  0  0  0  0  0
  -19.4492  -32.6757  -20.6197 C   0  0  0  0  0  0  0  0  0  0  0  0
  -20.5906  -32.7194  -21.4274 C   0  0  0  0  0  0  0  0  0  0  0  0
  -21.3315  -33.9153  -21.4836 C   0  0  0  0  0  0  0  0  0  0  0  0
  -22.5298  -34.3471  -22.1229 C   0  0  0  0  0  0  0  0  0  0  0  0
  -23.4782  -33.5762  -22.8957 C   0  0  0  0  0  0  0  0  0  0  0  0
  -23.9866  -34.0038  -23.9268 O   0  0  0  0  0  0  0  0  0  0  0  0
  -23.7931  -32.3364  -22.4195 O   0  0  0  0  0  0  0  0  0  0  0  0
  -23.8216  -32.1029  -20.9958 C   0  0  0  0  0  0  0  0  0  0  0  0
  -25.1129  -31.4376  -20.6030 C   0  0  0  0  0  0  0  0  0  0  0  0
  -25.3585  -31.2960  -19.1647 C   0  0  0  0  0  0  0  0  0  0  0  0
  -26.5058  -30.7370  -18.7462 C   0  0  0  0  0  0  0  0  0  0  0  0
  -27.4466  -30.3125  -19.6817 N   0  0  0  0  0  0  0  0  0  0  0  0
  -28.6647  -29.7607  -19.4709 N   0  0  0  0  0  0  0  0  0  0  0  0
  -29.1294  -29.6189  -20.7134 C   0  0  0  0  0  0  0  0  0  0  0  0
  -28.2867  -29.9893  -21.7131 N   0  0  0  0  0  0  0  0  0  0  0  0
  -27.2440  -30.4374  -21.0560 C   0  0  0  0  0  0  0  0  0  0  0  0
  -26.0245  -31.0056  -21.4994 C   0  0  0  0  0  0  0  0  0  0  0  0
  1  2  1  0
  2  3  1  0
  3  4  1  0
  4  5  2  0
  5  6  1  0
  6  7  2  0
  7  8  1  0
  8  9  2  0
  9 10  1  0
 10 11  1  0
 11 12  2  0
 11 13  1  0
 13 14  1  0
 14 15  1  0
 15 16  1  0
 16 17  2  0
 17 18  1  0
 18 19  1  0
 19 20  2  0
 20 21  1  0
 21 22  2  0
 22 23  1  0
 10  2  2  0
 23 15  2  0
  9  4  1  0
 22 18  1  0
M  END
>  <id>  (85) 
199035

>  <inchikey>  (85) 
AWQDWKYDKALBOD-UHFFFAOYSA-N

>  <alias>  (85) 
None

>  <smiles>  (85) 
Cc1oc2ccccc2c1C(=O)OCc1ccn2ncnc2c1

>  <path>  (85) 
/opt/xchem-fragalysis-2/maxwin/BulkDock/SCRATCH/220463/C60687-P141/C60687-P141.minimised.mol

>  <distance_score>  (85) 
0.540496

>  <energy_score>  (85) 
-35.672788

>  <compound>  (85) 
AWQDWKYDKALBOD-UHFFFAOYSA-N

>  <compound_id>  (85) 
60687

>  <target>  (85) 
Flavi_NS5_RdRp

>  <tags>  (85) 
['Fragmenstein placed', 'RdRp_knitwork_green_site_rna_tunnel_impure_fragalysis.sdf Pose OK', 'Enamine_Quote_1977854', 'Knitwork impure merge', 'acceptable', 'Green Site/RNA tunnel merge', 'LCD curated YES']

>  <SLURM_JOB_ID>  (85) 
220463

>  <SLURM_JOB_NAME>  (85) 
BulkDock.place:Flavi_NS5_RdRp:RdRp_knitwork_green_site_rna_tunnel_impure_split4000_batch012

>  <csv_name>  (85) 
RdRp_knitwork_green_site_rna_tunnel_impure_split4000_batch012.csv

>  <scratch_subdir>  (85) 
/opt/xchem-fragalysis-2/maxwin/BulkDock/SCRATCH/220463/C60687-P141

>  <fragmenstein_runtime>  (85) 
1.898428

>  <fragmenstein_outcome>  (85) 
acceptable

>  <fragmenstein_mode>  (85) 
expansion

>  <fragmenstein_error>  (85) 


>  <exports>  (85) 
['/opt/xchem-fragalysis-2/maxwin/BulkDock/OUTPUTS/RdRp_knitwork_green_site_rna_tunnel_impure_split4000_batch012_220463.sdf', '/opt/xchem-fragalysis-2/maxwin/BulkDock/OUTPUTS/RdRp_knitwork_green_site_rna_tunnel_impure_fragalysis.sdf', '/opt/xchem-fragalysis-2/maxwin/RdRp_FFF/syndirella/Retro_OK_batch3.sdf']

>  <Multi-SuCOS>  (85) 
0.793141

>  <merge_set>  (85) 
RdRp_knitwork_green_site_rna_tunnel_impure_fragalysis.sdf

$$$$
AWQDWKYDKALBOD-UHFFFAOYSA-N
     RDKit          3D

 23 26  0  0  0  0  0  0  0  0999 V2000
  -23.9702  -36.1833  -22.0084 C   0  0  0  0  0  0  0  0  0  0  0  0
  -22.8784  -35.2523  -21.6377 C   0  0  0  0  0  0  0  0  0  0  0  0
  -21.8393  -35.8082  -20.9578 O   0  0  0  0  0  0  0  0  0  0  0  0
  -20.9289  -34.8289  -20.7352 C   0  0  0  0  0  0  0  0  0  0  0  0
  -19.7235  -34.9921  -20.0588 C   0  0  0  0  0  0  0  0  0  0  0  0
  -18.9019  -33.8646  -19.9600 C   0  0  0  0  0  0  0  0  0  0  0  0
  -19.2752  -32.6475  -20.5306 C   0  0  0  0  0  0  0  0  0  0  0  0
  -20.4910  -32.5189  -21.2125 C   0  0  0  0  0  0  0  0  0  0  0  0
  -21.3580  -33.6318  -21.2918 C   0  0  0  0  0  0  0  0  0  0  0  0
  -22.6653  -33.8921  -21.8195 C   0  0  0  0  0  0  0  0  0  0  0  0
  -23.6077  -32.9850  -22.4510 C   0  0  0  0  0  0  0  0  0  0  0  0
  -24.5098  -33.3654  -23.1878 O   0  0  0  0  0  0  0  0  0  0  0  0
  -23.3912  -31.6476  -22.2536 O   0  0  0  0  0  0  0  0  0  0  0  0
  -23.4036  -31.1650  -20.8971 C   0  0  0  0  0  0  0  0  0  0  0  0
  -24.8069  -31.0250  -20.3926 C   0  0  0  0  0  0  0  0  0  0  0  0
  -25.2239  -31.8777  -19.2785 C   0  0  0  0  0  0  0  0  0  0  0  0
  -26.4676  -31.7501  -18.7891 C   0  0  0  0  0  0  0  0  0  0  0  0
  -27.3363  -30.8198  -19.3472 N   0  0  0  0  0  0  0  0  0  0  0  0
  -28.6206  -30.5654  -19.0220 N   0  0  0  0  0  0  0  0  0  0  0  0
  -28.9462  -29.6000  -19.8775 C   0  0  0  0  0  0  0  0  0  0  0  0
  -27.9583  -29.1935  -20.7214 N   0  0  0  0  0  0  0  0  0  0  0  0
  -26.9605  -29.9782  -20.3929 C   0  0  0  0  0  0  0  0  0  0  0  0
  -25.6490  -30.1095  -20.9149 C   0  0  0  0  0  0  0  0  0  0  0  0
  1  2  1  0
  2  3  1  0
  3  4  1  0
  4  5  2  0
  5  6  1  0
  6  7  2  0
  7  8  1  0
  8  9  2  0
  9 10  1  0
 10 11  1  0
 11 12  2  0
 11 13  1  0
 13 14  1  0
 14 15  1  0
 15 16  1  0
 16 17  2  0
 17 18  1  0
 18 19  1  0
 19 20  2  0
 20 21  1  0
 21 22  2  0
 22 23  1  0
 10  2  2  0
 23 15  2  0
  9  4  1  0
 22 18  1  0
M  END
>  <id>  (86) 
199040

>  <inchikey>  (86) 
AWQDWKYDKALBOD-UHFFFAOYSA-N

>  <alias>  (86) 
None

>  <smiles>  (86) 
Cc1oc2ccccc2c1C(=O)OCc1ccn2ncnc2c1

>  <path>  (86) 
/opt/xchem-fragalysis-2/maxwin/BulkDock/SCRATCH/220463/C60687-P217/C60687-P217.minimised.mol

>  <distance_score>  (86) 
0.899146

>  <energy_score>  (86) 
-33.633958

>  <compound>  (86) 
AWQDWKYDKALBOD-UHFFFAOYSA-N

>  <compound_id>  (86) 
60687

>  <target>  (86) 
Flavi_NS5_RdRp

>  <tags>  (86) 
['Fragmenstein placed', 'RdRp_knitwork_green_site_rna_tunnel_impure_fragalysis.sdf Pose OK', 'Enamine_Quote_1977854', 'Knitwork impure merge', 'acceptable', 'Green Site/RNA tunnel merge']

>  <SLURM_JOB_ID>  (86) 
220463

>  <SLURM_JOB_NAME>  (86) 
BulkDock.place:Flavi_NS5_RdRp:RdRp_knitwork_green_site_rna_tunnel_impure_split4000_batch012

>  <csv_name>  (86) 
RdRp_knitwork_green_site_rna_tunnel_impure_split4000_batch012.csv

>  <scratch_subdir>  (86) 
/opt/xchem-fragalysis-2/maxwin/BulkDock/SCRATCH/220463/C60687-P217

>  <fragmenstein_runtime>  (86) 
3.037513

>  <fragmenstein_outcome>  (86) 
acceptable

>  <fragmenstein_mode>  (86) 
expansion

>  <fragmenstein_error>  (86) 


>  <exports>  (86) 
['/opt/xchem-fragalysis-2/maxwin/BulkDock/OUTPUTS/RdRp_knitwork_green_site_rna_tunnel_impure_split4000_batch012_220463.sdf', '/opt/xchem-fragalysis-2/maxwin/BulkDock/OUTPUTS/RdRp_knitwork_green_site_rna_tunnel_impure_fragalysis.sdf', '/opt/xchem-fragalysis-2/maxwin/RdRp_FFF/syndirella/Retro_OK_batch3.sdf']

>  <Multi-SuCOS>  (86) 
0.713811

>  <merge_set>  (86) 
RdRp_knitwork_green_site_rna_tunnel_impure_fragalysis.sdf

$$$$
KJOJCYOZXQMGKF-UHFFFAOYSA-N
     RDKit          3D

 17 19  0  0  0  0  0  0  0  0999 V2000
  -25.3287  -26.5210  -19.1485 F   0  0  0  0  0  0  0  0  0  0  0  0
  -25.8517  -27.3495  -18.2329 C   0  0  0  0  0  0  0  0  0  0  0  0
  -25.1259  -27.6595  -17.0944 C   0  0  0  0  0  0  0  0  0  0  0  0
  -25.6490  -28.5768  -16.1861 C   0  0  0  0  0  0  0  0  0  0  0  0
  -26.8709  -29.2202  -16.4456 C   0  0  0  0  0  0  0  0  0  0  0  0
  -27.5418  -29.0027  -17.6647 C   0  0  0  0  0  0  0  0  0  0  0  0
  -27.0711  -27.9674  -18.4895 C   0  0  0  0  0  0  0  0  0  0  0  0
  -28.5511  -29.8745  -18.0952 N   0  0  0  0  0  0  0  0  0  0  0  0
  -28.5783  -30.2852  -19.5268 C   0  0  0  0  0  0  0  0  0  0  0  0
  -27.2809  -30.3810  -20.2610 C   0  0  0  0  0  0  0  0  0  0  0  0
  -26.9488  -30.2050  -21.5870 C   0  0  0  0  0  0  0  0  0  0  0  0
  -25.6384  -29.8397  -21.7144 N   0  0  0  0  0  0  0  0  0  0  0  0
  -25.1859  -29.8559  -20.4873 C   0  0  0  0  0  0  0  0  0  0  0  0
  -26.0579  -30.4836  -19.6464 N   0  0  0  0  0  0  0  0  0  0  0  0
  -29.0415  -30.9004  -17.1650 C   0  0  0  0  0  0  0  0  0  0  0  0
  -28.8803  -30.4781  -15.7145 C   0  0  0  0  0  0  0  0  0  0  0  0
  -27.4060  -30.2137  -15.4476 C   0  0  0  0  0  0  0  0  0  0  0  0
  1  2  1  0
  2  3  2  0
  3  4  1  0
  4  5  2  0
  5  6  1  0
  6  7  2  0
  6  8  1  0
  8  9  1  0
  9 10  1  0
 10 11  2  0
 11 12  1  0
 12 13  2  0
 13 14  1  0
  8 15  1  0
 15 16  1  0
 16 17  1  0
  7  2  1  0
 14 10  1  0
 17  5  1  0
M  END
>  <id>  (87) 
199053

>  <inchikey>  (87) 
KJOJCYOZXQMGKF-UHFFFAOYSA-N

>  <alias>  (87) 
None

>  <smiles>  (87) 
Fc1ccc2c(c1)N(Cc1cnc[nH]1)CCC2

>  <path>  (87) 
/opt/xchem-fragalysis-2/maxwin/BulkDock/SCRATCH/220456/C36233-P1/C36233-P1.minimised.mol

>  <distance_score>  (87) 
0.966816

>  <energy_score>  (87) 
-7.925336

>  <compound>  (87) 
KJOJCYOZXQMGKF-UHFFFAOYSA-N

>  <compound_id>  (87) 
36233

>  <target>  (87) 
Flavi_NS5_RdRp

>  <tags>  (87) 
['Fragmenstein placed', 'RdRp_knitwork_green_site_rna_tunnel_impure_fragalysis.sdf Pose OK', 'Enamine_Quote_1977854', 'Knitwork impure merge', 'acceptable', 'Green Site/RNA tunnel merge', 'LCD curated YES']

>  <SLURM_JOB_ID>  (87) 
220456

>  <SLURM_JOB_NAME>  (87) 
BulkDock.place:Flavi_NS5_RdRp:RdRp_knitwork_green_site_rna_tunnel_impure_split4000_batch005

>  <csv_name>  (87) 
RdRp_knitwork_green_site_rna_tunnel_impure_split4000_batch005.csv

>  <scratch_subdir>  (87) 
/opt/xchem-fragalysis-2/maxwin/BulkDock/SCRATCH/220456/C36233-P1

>  <fragmenstein_runtime>  (87) 
2.020278

>  <fragmenstein_outcome>  (87) 
acceptable

>  <fragmenstein_mode>  (87) 
expansion

>  <fragmenstein_error>  (87) 


>  <exports>  (87) 
['/opt/xchem-fragalysis-2/maxwin/BulkDock/OUTPUTS/RdRp_knitwork_green_site_rna_tunnel_impure_split4000_batch005_220456.sdf', '/opt/xchem-fragalysis-2/maxwin/BulkDock/OUTPUTS/RdRp_knitwork_green_site_rna_tunnel_impure_fragalysis.sdf', '/opt/xchem-fragalysis-2/maxwin/RdRp_FFF/syndirella/Retro_OK_batch3.sdf']

>  <Multi-SuCOS>  (87) 
0.685068

>  <merge_set>  (87) 
RdRp_knitwork_green_site_rna_tunnel_impure_fragalysis.sdf

$$$$
KDLJKMCSUJXXOQ-SFHVURJKSA-N
     RDKit          3D

 23 25  0  0  0  0  0  0  0  0999 V2000
  -22.5997  -34.0139  -22.1979 C   0  0  0  0  0  0  0  0  0  0  0  0
  -22.3098  -32.7342  -22.9647 C   0  0  2  0  0  0  0  0  0  0  0  0
  -21.3610  -31.9705  -22.2078 O   0  0  0  0  0  0  0  0  0  0  0  0
  -23.5712  -31.9142  -23.2563 C   0  0  0  0  0  0  0  0  0  0  0  0
  -24.3129  -31.4976  -22.1029 N   0  0  0  0  0  0  0  0  0  0  0  0
  -25.7857  -31.7387  -21.7239 C   0  0  0  0  0  0  0  0  0  0  0  0
  -26.5815  -32.3607  -22.2379 O   0  0  0  0  0  0  0  0  0  0  0  0
  -25.8863  -30.8065  -20.5005 N   0  0  0  0  0  0  0  0  0  0  0  0
  -26.9902  -30.4107  -19.7623 C   0  0  0  0  0  0  0  0  0  0  0  0
  -28.2300  -30.3334  -20.4037 C   0  0  0  0  0  0  0  0  0  0  0  0
  -29.3628  -29.9403  -19.7051 C   0  0  0  0  0  0  0  0  0  0  0  0
  -29.2523  -29.6294  -18.3553 C   0  0  0  0  0  0  0  0  0  0  0  0
  -28.0091  -29.6798  -17.7039 C   0  0  0  0  0  0  0  0  0  0  0  0
  -27.9118  -29.4225  -16.3341 C   0  0  0  0  0  0  0  0  0  0  0  0
  -26.6985  -29.5775  -15.6626 C   0  0  0  0  0  0  0  0  0  0  0  0
  -25.5546  -29.9553  -16.3459 C   0  0  0  0  0  0  0  0  0  0  0  0
  -25.6255  -30.1961  -17.7094 C   0  0  0  0  0  0  0  0  0  0  0  0
  -26.8484  -30.0721  -18.4084 C   0  0  0  0  0  0  0  0  0  0  0  0
  -21.6789  -33.0961  -24.2537 C   0  0  0  0  0  0  0  0  0  0  0  0
  -20.3825  -33.2751  -24.6601 C   0  0  0  0  0  0  0  0  0  0  0  0
  -20.4403  -33.7057  -25.9994 C   0  0  0  0  0  0  0  0  0  0  0  0
  -21.7718  -33.7582  -26.3270 C   0  0  0  0  0  0  0  0  0  0  0  0
  -22.5319  -33.4065  -25.2697 O   0  0  0  0  0  0  0  0  0  0  0  0
  2  1  1  1
  2  3  1  0
  2  4  1  0
  4  5  1  0
  5  6  1  0
  6  7  2  0
  6  8  1  0
  8  9  1  0
  9 10  2  0
 10 11  1  0
 11 12  2  0
 12 13  1  0
 13 14  2  0
 14 15  1  0
 15 16  2  0
 16 17  1  0
 17 18  2  0
  2 19  1  0
 19 20  2  0
 20 21  1  0
 21 22  2  0
 22 23  1  0
 18  9  1  0
 23 19  1  0
 18 13  1  0
M  END
>  <id>  (88) 
203850

>  <inchikey>  (88) 
KDLJKMCSUJXXOQ-SFHVURJKSA-N

>  <alias>  (88) 
None

>  <smiles>  (88) 
C[C@](O)(CNC(=O)Nc1cccc2ccccc12)c1ccco1

>  <path>  (88) 
/opt/xchem-fragalysis-2/maxwin/BulkDock/SCRATCH/220459/C33380-P82/C33380-P82.minimised.mol

>  <distance_score>  (88) 
0.941457

>  <energy_score>  (88) 
-22.056899

>  <compound>  (88) 
KDLJKMCSUJXXOQ-UHFFFAOYSA-N

>  <compound_id>  (88) 
33380

>  <target>  (88) 
Flavi_NS5_RdRp

>  <tags>  (88) 
['Fragmenstein placed', 'Enamine_unavailable', 'RdRp_knitwork_green_site_rna_tunnel_impure_fragalysis.sdf Pose OK', 'Knitwork impure merge', 'acceptable', 'Green Site/RNA tunnel merge']

>  <SLURM_JOB_ID>  (88) 
220459

>  <SLURM_JOB_NAME>  (88) 
BulkDock.place:Flavi_NS5_RdRp:RdRp_knitwork_green_site_rna_tunnel_impure_split4000_batch008

>  <csv_name>  (88) 
RdRp_knitwork_green_site_rna_tunnel_impure_split4000_batch008.csv

>  <scratch_subdir>  (88) 
/opt/xchem-fragalysis-2/maxwin/BulkDock/SCRATCH/220459/C33380-P82

>  <fragmenstein_runtime>  (88) 
12.981013

>  <fragmenstein_outcome>  (88) 
acceptable

>  <fragmenstein_mode>  (88) 
expansion

>  <fragmenstein_error>  (88) 


>  <exports>  (88) 
['/opt/xchem-fragalysis-2/maxwin/BulkDock/OUTPUTS/RdRp_knitwork_green_site_rna_tunnel_impure_split4000_batch008_220459.sdf', '/opt/xchem-fragalysis-2/maxwin/BulkDock/OUTPUTS/RdRp_knitwork_green_site_rna_tunnel_impure_fragalysis.sdf', '/opt/xchem-fragalysis-2/maxwin/RdRp_FFF/syndirella/Retro_OK_batch3.sdf']

>  <Multi-SuCOS>  (88) 
0.613989

>  <merge_set>  (88) 
RdRp_knitwork_green_site_rna_tunnel_impure_fragalysis.sdf

$$$$
KDLJKMCSUJXXOQ-SFHVURJKSA-N
     RDKit          3D

 23 25  0  0  0  0  0  0  0  0999 V2000
  -21.1286  -32.7618  -24.2764 C   0  0  0  0  0  0  0  0  0  0  0  0
  -22.1015  -32.7411  -23.0999 C   0  0  2  0  0  0  0  0  0  0  0  0
  -22.6494  -34.0544  -22.9867 O   0  0  0  0  0  0  0  0  0  0  0  0
  -23.2502  -31.7699  -23.4044 C   0  0  0  0  0  0  0  0  0  0  0  0
  -24.1370  -31.4797  -22.3067 N   0  0  0  0  0  0  0  0  0  0  0  0
  -25.5417  -30.8368  -22.2983 C   0  0  0  0  0  0  0  0  0  0  0  0
  -26.2117  -30.5220  -23.1627 O   0  0  0  0  0  0  0  0  0  0  0  0
  -25.7768  -30.7552  -20.7663 N   0  0  0  0  0  0  0  0  0  0  0  0
  -26.9032  -30.3619  -20.0460 C   0  0  0  0  0  0  0  0  0  0  0  0
  -28.1233  -30.2169  -20.7123 C   0  0  0  0  0  0  0  0  0  0  0  0
  -29.2887  -29.9678  -19.9997 C   0  0  0  0  0  0  0  0  0  0  0  0
  -29.2318  -29.8313  -18.6168 C   0  0  0  0  0  0  0  0  0  0  0  0
  -28.0078  -29.8963  -17.9358 C   0  0  0  0  0  0  0  0  0  0  0  0
  -27.9654  -29.7518  -16.5419 C   0  0  0  0  0  0  0  0  0  0  0  0
  -26.7658  -29.8723  -15.8409 C   0  0  0  0  0  0  0  0  0  0  0  0
  -25.5827  -30.1018  -16.5257 C   0  0  0  0  0  0  0  0  0  0  0  0
  -25.6041  -30.2398  -17.9116 C   0  0  0  0  0  0  0  0  0  0  0  0
  -26.8139  -30.1655  -18.6468 C   0  0  0  0  0  0  0  0  0  0  0  0
  -21.4099  -32.5230  -21.7928 C   0  0  0  0  0  0  0  0  0  0  0  0
  -21.7338  -32.9298  -20.5107 C   0  0  0  0  0  0  0  0  0  0  0  0
  -20.6293  -32.6123  -19.7032 C   0  0  0  0  0  0  0  0  0  0  0  0
  -19.7045  -32.0267  -20.5327 C   0  0  0  0  0  0  0  0  0  0  0  0
  -20.1735  -31.9459  -21.8012 O   0  0  0  0  0  0  0  0  0  0  0  0
  2  1  1  6
  2  3  1  0
  2  4  1  0
  4  5  1  0
  5  6  1  0
  6  7  2  0
  6  8  1  0
  8  9  1  0
  9 10  2  0
 10 11  1  0
 11 12  2  0
 12 13  1  0
 13 14  2  0
 14 15  1  0
 15 16  2  0
 16 17  1  0
 17 18  2  0
  2 19  1  0
 19 20  2  0
 20 21  1  0
 21 22  2  0
 22 23  1  0
 18  9  1  0
 23 19  1  0
 18 13  1  0
M  END
>  <id>  (89) 
203866

>  <inchikey>  (89) 
KDLJKMCSUJXXOQ-SFHVURJKSA-N

>  <alias>  (89) 
None

>  <smiles>  (89) 
C[C@](O)(CNC(=O)Nc1cccc2ccccc12)c1ccco1

>  <path>  (89) 
/opt/xchem-fragalysis-2/maxwin/BulkDock/SCRATCH/220459/C33380-P102/C33380-P102.minimised.mol

>  <distance_score>  (89) 
0.940824

>  <energy_score>  (89) 
-24.936509

>  <compound>  (89) 
KDLJKMCSUJXXOQ-UHFFFAOYSA-N

>  <compound_id>  (89) 
33380

>  <target>  (89) 
Flavi_NS5_RdRp

>  <tags>  (89) 
['Fragmenstein placed', 'Enamine_unavailable', 'RdRp_knitwork_green_site_rna_tunnel_impure_fragalysis.sdf Pose OK', 'Knitwork impure merge', 'acceptable', 'Green Site/RNA tunnel merge', 'LCD curated YES']

>  <SLURM_JOB_ID>  (89) 
220459

>  <SLURM_JOB_NAME>  (89) 
BulkDock.place:Flavi_NS5_RdRp:RdRp_knitwork_green_site_rna_tunnel_impure_split4000_batch008

>  <csv_name>  (89) 
RdRp_knitwork_green_site_rna_tunnel_impure_split4000_batch008.csv

>  <scratch_subdir>  (89) 
/opt/xchem-fragalysis-2/maxwin/BulkDock/SCRATCH/220459/C33380-P102

>  <fragmenstein_runtime>  (89) 
11.067519

>  <fragmenstein_outcome>  (89) 
acceptable

>  <fragmenstein_mode>  (89) 
expansion

>  <fragmenstein_error>  (89) 


>  <exports>  (89) 
['/opt/xchem-fragalysis-2/maxwin/BulkDock/OUTPUTS/RdRp_knitwork_green_site_rna_tunnel_impure_split4000_batch008_220459.sdf', '/opt/xchem-fragalysis-2/maxwin/BulkDock/OUTPUTS/RdRp_knitwork_green_site_rna_tunnel_impure_fragalysis.sdf', '/opt/xchem-fragalysis-2/maxwin/RdRp_FFF/syndirella/Retro_OK_batch3.sdf']

>  <Multi-SuCOS>  (89) 
0.590254

>  <merge_set>  (89) 
RdRp_knitwork_green_site_rna_tunnel_impure_fragalysis.sdf

$$$$
XYRDJRCBUAYREB-MRVPVSSYSA-N
     RDKit          3D

 17 18  0  0  0  0  0  0  0  0999 V2000
  -20.9776  -32.8281  -24.0426 C   0  0  0  0  0  0  0  0  0  0  0  0
  -21.9727  -32.5955  -22.9236 C   0  0  1  0  0  0  0  0  0  0  0  0
  -21.4111  -31.6897  -21.9699 O   0  0  0  0  0  0  0  0  0  0  0  0
  -23.3043  -32.0631  -23.4509 C   0  0  0  0  0  0  0  0  0  0  0  0
  -24.1551  -31.6374  -22.3718 N   0  0  0  0  0  0  0  0  0  0  0  0
  -25.5238  -30.9166  -22.3993 C   0  0  0  0  0  0  0  0  0  0  0  0
  -26.1190  -30.4996  -23.2772 O   0  0  0  0  0  0  0  0  0  0  0  0
  -25.8165  -30.8645  -20.8692 N   0  0  0  0  0  0  0  0  0  0  0  0
  -26.9205  -30.3790  -20.1816 C   0  0  0  0  0  0  0  0  0  0  0  0
  -28.1167  -30.0791  -20.8373 C   0  0  0  0  0  0  0  0  0  0  0  0
  -29.2582  -29.7264  -20.1232 C   0  0  0  0  0  0  0  0  0  0  0  0
  -29.2064  -29.5819  -18.7349 C   0  0  0  0  0  0  0  0  0  0  0  0
  -27.9750  -29.7241  -18.0719 C   0  0  0  0  0  0  0  0  0  0  0  0
  -27.5493  -29.5310  -16.7300 C   0  0  0  0  0  0  0  0  0  0  0  0
  -26.2136  -29.8508  -16.6595 C   0  0  0  0  0  0  0  0  0  0  0  0
  -25.8165  -30.2544  -17.9059 N   0  0  0  0  0  0  0  0  0  0  0  0
  -26.8653  -30.1623  -18.7972 C   0  0  0  0  0  0  0  0  0  0  0  0
  2  1  1  6
  2  3  1  0
  2  4  1  0
  4  5  1  0
  5  6  1  0
  6  7  2  0
  6  8  1  0
  8  9  1  0
  9 10  2  0
 10 11  1  0
 11 12  2  0
 12 13  1  0
 13 14  1  0
 14 15  2  0
 15 16  1  0
 16 17  1  0
 17  9  1  0
 17 13  2  0
M  END
>  <id>  (90) 
205073

>  <inchikey>  (90) 
XYRDJRCBUAYREB-MRVPVSSYSA-N

>  <alias>  (90) 
None

>  <smiles>  (90) 
C[C@@H](O)CNC(=O)Nc1cccc2cc[nH]c12

>  <path>  (90) 
/opt/xchem-fragalysis-2/maxwin/BulkDock/SCRATCH/220459/C34701-P82/C34701-P82.minimised.mol

>  <distance_score>  (90) 
0.700033

>  <energy_score>  (90) 
-1.256086

>  <compound>  (90) 
XYRDJRCBUAYREB-UHFFFAOYSA-N

>  <compound_id>  (90) 
34701

>  <target>  (90) 
Flavi_NS5_RdRp

>  <tags>  (90) 
['Fragmenstein placed', 'RdRp_knitwork_green_site_rna_tunnel_impure_fragalysis.sdf Pose OK', 'Enamine_Quote_1977854', 'Knitwork impure merge', 'acceptable', 'Green Site/RNA tunnel merge']

>  <SLURM_JOB_ID>  (90) 
220459

>  <SLURM_JOB_NAME>  (90) 
BulkDock.place:Flavi_NS5_RdRp:RdRp_knitwork_green_site_rna_tunnel_impure_split4000_batch008

>  <csv_name>  (90) 
RdRp_knitwork_green_site_rna_tunnel_impure_split4000_batch008.csv

>  <scratch_subdir>  (90) 
/opt/xchem-fragalysis-2/maxwin/BulkDock/SCRATCH/220459/C34701-P82

>  <fragmenstein_runtime>  (90) 
3.148595

>  <fragmenstein_outcome>  (90) 
acceptable

>  <fragmenstein_mode>  (90) 
expansion

>  <fragmenstein_error>  (90) 


>  <exports>  (90) 
['/opt/xchem-fragalysis-2/maxwin/BulkDock/OUTPUTS/RdRp_knitwork_green_site_rna_tunnel_impure_split4000_batch008_220459.sdf', '/opt/xchem-fragalysis-2/maxwin/BulkDock/OUTPUTS/RdRp_knitwork_green_site_rna_tunnel_impure_fragalysis.sdf', '/opt/xchem-fragalysis-2/maxwin/RdRp_FFF/syndirella/Retro_OK_batch3.sdf']

>  <Multi-SuCOS>  (90) 
0.757943

>  <merge_set>  (90) 
RdRp_knitwork_green_site_rna_tunnel_impure_fragalysis.sdf

$$$$
XYRDJRCBUAYREB-MRVPVSSYSA-N
     RDKit          3D

 17 18  0  0  0  0  0  0  0  0999 V2000
  -21.0306  -32.8852  -23.9488 C   0  0  0  0  0  0  0  0  0  0  0  0
  -22.0193  -32.6980  -22.8144 C   0  0  1  0  0  0  0  0  0  0  0  0
  -21.3767  -32.0096  -21.7379 O   0  0  0  0  0  0  0  0  0  0  0  0
  -23.2307  -31.9048  -23.2911 C   0  0  0  0  0  0  0  0  0  0  0  0
  -24.0793  -31.5243  -22.2007 N   0  0  0  0  0  0  0  0  0  0  0  0
  -25.4979  -30.9124  -22.2033 C   0  0  0  0  0  0  0  0  0  0  0  0
  -26.2054  -30.7012  -23.0680 O   0  0  0  0  0  0  0  0  0  0  0  0
  -25.7038  -30.7393  -20.6745 N   0  0  0  0  0  0  0  0  0  0  0  0
  -26.8307  -30.3703  -19.9571 C   0  0  0  0  0  0  0  0  0  0  0  0
  -28.0796  -30.2557  -20.5793 C   0  0  0  0  0  0  0  0  0  0  0  0
  -29.2302  -29.9909  -19.8441 C   0  0  0  0  0  0  0  0  0  0  0  0
  -29.1543  -29.8058  -18.4620 C   0  0  0  0  0  0  0  0  0  0  0  0
  -27.8994  -29.8453  -17.8252 C   0  0  0  0  0  0  0  0  0  0  0  0
  -27.4759  -29.7175  -16.4765 C   0  0  0  0  0  0  0  0  0  0  0  0
  -26.1122  -29.8933  -16.4402 C   0  0  0  0  0  0  0  0  0  0  0  0
  -25.6863  -30.1353  -17.7190 N   0  0  0  0  0  0  0  0  0  0  0  0
  -26.7614  -30.1304  -18.5827 C   0  0  0  0  0  0  0  0  0  0  0  0
  2  1  1  6
  2  3  1  0
  2  4  1  0
  4  5  1  0
  5  6  1  0
  6  7  2  0
  6  8  1  0
  8  9  1  0
  9 10  2  0
 10 11  1  0
 11 12  2  0
 12 13  1  0
 13 14  1  0
 14 15  2  0
 15 16  1  0
 16 17  1  0
 17  9  1  0
 17 13  2  0
M  END
>  <id>  (91) 
205083

>  <inchikey>  (91) 
XYRDJRCBUAYREB-MRVPVSSYSA-N

>  <alias>  (91) 
None

>  <smiles>  (91) 
C[C@@H](O)CNC(=O)Nc1cccc2cc[nH]c12

>  <path>  (91) 
/opt/xchem-fragalysis-2/maxwin/BulkDock/SCRATCH/220459/C34701-P102/C34701-P102.minimised.mol

>  <distance_score>  (91) 
0.678419

>  <energy_score>  (91) 
-3.948916

>  <compound>  (91) 
XYRDJRCBUAYREB-UHFFFAOYSA-N

>  <compound_id>  (91) 
34701

>  <target>  (91) 
Flavi_NS5_RdRp

>  <tags>  (91) 
['Fragmenstein placed', 'RdRp_knitwork_green_site_rna_tunnel_impure_fragalysis.sdf Pose OK', 'Enamine_Quote_1977854', 'Knitwork impure merge', 'acceptable', 'Green Site/RNA tunnel merge', 'LCD curated YES']

>  <SLURM_JOB_ID>  (91) 
220459

>  <SLURM_JOB_NAME>  (91) 
BulkDock.place:Flavi_NS5_RdRp:RdRp_knitwork_green_site_rna_tunnel_impure_split4000_batch008

>  <csv_name>  (91) 
RdRp_knitwork_green_site_rna_tunnel_impure_split4000_batch008.csv

>  <scratch_subdir>  (91) 
/opt/xchem-fragalysis-2/maxwin/BulkDock/SCRATCH/220459/C34701-P102

>  <fragmenstein_runtime>  (91) 
4.743426

>  <fragmenstein_outcome>  (91) 
acceptable

>  <fragmenstein_mode>  (91) 
expansion

>  <fragmenstein_error>  (91) 


>  <exports>  (91) 
['/opt/xchem-fragalysis-2/maxwin/BulkDock/OUTPUTS/RdRp_knitwork_green_site_rna_tunnel_impure_split4000_batch008_220459.sdf', '/opt/xchem-fragalysis-2/maxwin/BulkDock/OUTPUTS/RdRp_knitwork_green_site_rna_tunnel_impure_fragalysis.sdf', '/opt/xchem-fragalysis-2/maxwin/RdRp_FFF/syndirella/Retro_OK_batch3.sdf']

>  <Multi-SuCOS>  (91) 
0.786825

>  <merge_set>  (91) 
RdRp_knitwork_green_site_rna_tunnel_impure_fragalysis.sdf

$$$$
HMCRTDAZYKANIV-INIZCTEOSA-N
     RDKit          3D

 22 24  0  0  0  0  0  0  0  0999 V2000
  -22.6818  -34.0753  -22.0356 C   0  0  0  0  0  0  0  0  0  0  0  0
  -22.3836  -32.8245  -22.8441 C   0  0  2  0  0  0  0  0  0  0  0  0
  -21.4194  -32.0519  -22.1081 O   0  0  0  0  0  0  0  0  0  0  0  0
  -23.6246  -31.9822  -23.1297 C   0  0  0  0  0  0  0  0  0  0  0  0
  -24.3615  -31.5658  -21.9710 N   0  0  0  0  0  0  0  0  0  0  0  0
  -25.8569  -31.7111  -21.6352 C   0  0  0  0  0  0  0  0  0  0  0  0
  -26.6845  -32.2444  -22.1962 O   0  0  0  0  0  0  0  0  0  0  0  0
  -25.9178  -30.8316  -20.3646 N   0  0  0  0  0  0  0  0  0  0  0  0
  -27.0048  -30.3901  -19.6333 C   0  0  0  0  0  0  0  0  0  0  0  0
  -28.2662  -30.3181  -20.2400 C   0  0  0  0  0  0  0  0  0  0  0  0
  -29.3932  -29.9249  -19.5300 C   0  0  0  0  0  0  0  0  0  0  0  0
  -29.2817  -29.5964  -18.1802 C   0  0  0  0  0  0  0  0  0  0  0  0
  -28.0175  -29.6222  -17.5604 C   0  0  0  0  0  0  0  0  0  0  0  0
  -27.5767  -29.4201  -16.2281 C   0  0  0  0  0  0  0  0  0  0  0  0
  -26.2254  -29.6708  -16.1819 C   0  0  0  0  0  0  0  0  0  0  0  0
  -25.8223  -30.0175  -17.4414 N   0  0  0  0  0  0  0  0  0  0  0  0
  -26.8972  -30.0064  -18.3003 C   0  0  0  0  0  0  0  0  0  0  0  0
  -21.7897  -33.2047  -24.1479 C   0  0  0  0  0  0  0  0  0  0  0  0
  -20.6825  -32.7883  -24.8359 C   0  0  0  0  0  0  0  0  0  0  0  0
  -20.6543  -33.5241  -26.0335 C   0  0  0  0  0  0  0  0  0  0  0  0
  -21.8002  -34.2793  -26.0514 C   0  0  0  0  0  0  0  0  0  0  0  0
  -22.4859  -34.1113  -24.8942 O   0  0  0  0  0  0  0  0  0  0  0  0
  2  1  1  1
  2  3  1  0
  2  4  1  0
  4  5  1  0
  5  6  1  0
  6  7  2  0
  6  8  1  0
  8  9  1  0
  9 10  2  0
 10 11  1  0
 11 12  2  0
 12 13  1  0
 13 14  1  0
 14 15  2  0
 15 16  1  0
 16 17  1  0
  2 18  1  0
 18 19  2  0
 19 20  1  0
 20 21  2  0
 21 22  1  0
 17  9  1  0
 22 18  1  0
 17 13  2  0
M  END
>  <id>  (92) 
205230

>  <inchikey>  (92) 
HMCRTDAZYKANIV-INIZCTEOSA-N

>  <alias>  (92) 
None

>  <smiles>  (92) 
C[C@](O)(CNC(=O)Nc1cccc2cc[nH]c12)c1ccco1

>  <path>  (92) 
/opt/xchem-fragalysis-2/maxwin/BulkDock/SCRATCH/220459/C50922-P82/C50922-P82.minimised.mol

>  <distance_score>  (92) 
0.95958

>  <energy_score>  (92) 
-43.448542

>  <compound>  (92) 
HMCRTDAZYKANIV-UHFFFAOYSA-N

>  <compound_id>  (92) 
50922

>  <target>  (92) 
Flavi_NS5_RdRp

>  <tags>  (92) 
['Fragmenstein placed', 'Enamine_unavailable', 'RdRp_knitwork_green_site_rna_tunnel_impure_fragalysis.sdf Pose OK', 'Knitwork impure merge', 'acceptable', 'Green Site/RNA tunnel merge', 'LCD curated YES']

>  <SLURM_JOB_ID>  (92) 
220459

>  <SLURM_JOB_NAME>  (92) 
BulkDock.place:Flavi_NS5_RdRp:RdRp_knitwork_green_site_rna_tunnel_impure_split4000_batch008

>  <csv_name>  (92) 
RdRp_knitwork_green_site_rna_tunnel_impure_split4000_batch008.csv

>  <scratch_subdir>  (92) 
/opt/xchem-fragalysis-2/maxwin/BulkDock/SCRATCH/220459/C50922-P82

>  <fragmenstein_runtime>  (92) 
7.12284

>  <fragmenstein_outcome>  (92) 
acceptable

>  <fragmenstein_mode>  (92) 
expansion

>  <fragmenstein_error>  (92) 


>  <exports>  (92) 
['/opt/xchem-fragalysis-2/maxwin/BulkDock/OUTPUTS/RdRp_knitwork_green_site_rna_tunnel_impure_split4000_batch008_220459.sdf', '/opt/xchem-fragalysis-2/maxwin/BulkDock/OUTPUTS/RdRp_knitwork_green_site_rna_tunnel_impure_fragalysis.sdf', '/opt/xchem-fragalysis-2/maxwin/RdRp_FFF/syndirella/Retro_OK_batch3.sdf']

>  <Multi-SuCOS>  (92) 
0.60776

>  <merge_set>  (92) 
RdRp_knitwork_green_site_rna_tunnel_impure_fragalysis.sdf

$$$$
HMCRTDAZYKANIV-INIZCTEOSA-N
     RDKit          3D

 22 24  0  0  0  0  0  0  0  0999 V2000
  -21.1166  -32.8614  -24.3952 C   0  0  0  0  0  0  0  0  0  0  0  0
  -22.0474  -32.8064  -23.1910 C   0  0  2  0  0  0  0  0  0  0  0  0
  -22.7157  -34.0583  -23.0814 O   0  0  0  0  0  0  0  0  0  0  0  0
  -23.1042  -31.7287  -23.4224 C   0  0  0  0  0  0  0  0  0  0  0  0
  -23.9855  -31.4654  -22.3111 N   0  0  0  0  0  0  0  0  0  0  0  0
  -25.4296  -30.9094  -22.2874 C   0  0  0  0  0  0  0  0  0  0  0  0
  -26.1348  -30.6593  -23.1442 O   0  0  0  0  0  0  0  0  0  0  0  0
  -25.6311  -30.7815  -20.7520 N   0  0  0  0  0  0  0  0  0  0  0  0
  -26.7526  -30.4167  -20.0207 C   0  0  0  0  0  0  0  0  0  0  0  0
  -28.0037  -30.2855  -20.6378 C   0  0  0  0  0  0  0  0  0  0  0  0
  -29.1485  -29.9971  -19.9015 C   0  0  0  0  0  0  0  0  0  0  0  0
  -29.0654  -29.8025  -18.5219 C   0  0  0  0  0  0  0  0  0  0  0  0
  -27.8091  -29.8592  -17.8890 C   0  0  0  0  0  0  0  0  0  0  0  0
  -27.3808  -29.7211  -16.5427 C   0  0  0  0  0  0  0  0  0  0  0  0
  -26.0201  -29.9164  -16.5076 C   0  0  0  0  0  0  0  0  0  0  0  0
  -25.6015  -30.1850  -17.7837 N   0  0  0  0  0  0  0  0  0  0  0  0
  -26.6773  -30.1725  -18.6466 C   0  0  0  0  0  0  0  0  0  0  0  0
  -21.2557  -32.6914  -21.9361 C   0  0  0  0  0  0  0  0  0  0  0  0
  -20.7919  -33.6491  -21.0532 C   0  0  0  0  0  0  0  0  0  0  0  0
  -20.1253  -32.9566  -20.0297 C   0  0  0  0  0  0  0  0  0  0  0  0
  -20.2218  -31.6265  -20.3541 C   0  0  0  0  0  0  0  0  0  0  0  0
  -20.8767  -31.4507  -21.5253 O   0  0  0  0  0  0  0  0  0  0  0  0
  2  1  1  6
  2  3  1  0
  2  4  1  0
  4  5  1  0
  5  6  1  0
  6  7  2  0
  6  8  1  0
  8  9  1  0
  9 10  2  0
 10 11  1  0
 11 12  2  0
 12 13  1  0
 13 14  1  0
 14 15  2  0
 15 16  1  0
 16 17  1  0
  2 18  1  0
 18 19  2  0
 19 20  1  0
 20 21  2  0
 21 22  1  0
 17  9  1  0
 22 18  1  0
 17 13  2  0
M  END
>  <id>  (93) 
205244

>  <inchikey>  (93) 
HMCRTDAZYKANIV-INIZCTEOSA-N

>  <alias>  (93) 
None

>  <smiles>  (93) 
C[C@](O)(CNC(=O)Nc1cccc2cc[nH]c12)c1ccco1

>  <path>  (93) 
/opt/xchem-fragalysis-2/maxwin/BulkDock/SCRATCH/220459/C50922-P102/C50922-P102.minimised.mol

>  <distance_score>  (93) 
0.932507

>  <energy_score>  (93) 
-45.505956

>  <compound>  (93) 
HMCRTDAZYKANIV-UHFFFAOYSA-N

>  <compound_id>  (93) 
50922

>  <target>  (93) 
Flavi_NS5_RdRp

>  <tags>  (93) 
['Fragmenstein placed', 'Enamine_unavailable', 'RdRp_knitwork_green_site_rna_tunnel_impure_fragalysis.sdf Pose OK', 'Knitwork impure merge', 'acceptable', 'Green Site/RNA tunnel merge']

>  <SLURM_JOB_ID>  (93) 
220459

>  <SLURM_JOB_NAME>  (93) 
BulkDock.place:Flavi_NS5_RdRp:RdRp_knitwork_green_site_rna_tunnel_impure_split4000_batch008

>  <csv_name>  (93) 
RdRp_knitwork_green_site_rna_tunnel_impure_split4000_batch008.csv

>  <scratch_subdir>  (93) 
/opt/xchem-fragalysis-2/maxwin/BulkDock/SCRATCH/220459/C50922-P102

>  <fragmenstein_runtime>  (93) 
8.328884

>  <fragmenstein_outcome>  (93) 
acceptable

>  <fragmenstein_mode>  (93) 
expansion

>  <fragmenstein_error>  (93) 


>  <exports>  (93) 
['/opt/xchem-fragalysis-2/maxwin/BulkDock/OUTPUTS/RdRp_knitwork_green_site_rna_tunnel_impure_split4000_batch008_220459.sdf', '/opt/xchem-fragalysis-2/maxwin/BulkDock/OUTPUTS/RdRp_knitwork_green_site_rna_tunnel_impure_fragalysis.sdf', '/opt/xchem-fragalysis-2/maxwin/RdRp_FFF/syndirella/Retro_OK_batch3.sdf']

>  <Multi-SuCOS>  (93) 
0.56759

>  <merge_set>  (93) 
RdRp_knitwork_green_site_rna_tunnel_impure_fragalysis.sdf

$$$$
OUADHXQUGPVFPL-UHFFFAOYSA-N
     RDKit          3D

 17 19  0  0  0  0  0  0  0  0999 V2000
  -25.4362  -31.9667  -20.2361 O   0  0  0  0  0  0  0  0  0  0  0  0
  -24.9057  -31.6530  -19.2435 C   0  0  0  0  0  0  0  0  0  0  0  0
  -25.4150  -30.7897  -18.0625 N   0  0  0  0  0  0  0  0  0  0  0  0
  -26.6852  -30.2263  -17.8201 C   0  0  0  0  0  0  0  0  0  0  0  0
  -26.8661  -29.9644  -16.4415 C   0  0  0  0  0  0  0  0  0  0  0  0
  -28.1148  -29.6820  -15.9106 C   0  0  0  0  0  0  0  0  0  0  0  0
  -29.1626  -29.6044  -16.7880 C   0  0  0  0  0  0  0  0  0  0  0  0
  -29.0230  -29.7543  -18.1190 N   0  0  0  0  0  0  0  0  0  0  0  0
  -27.8009  -30.0708  -18.6653 C   0  0  0  0  0  0  0  0  0  0  0  0
  -27.9071  -30.2843  -20.1664 C   0  0  0  0  0  0  0  0  0  0  0  0
  -26.9466  -29.8647  -21.2345 C   0  0  0  0  0  0  0  0  0  0  0  0
  -28.1769  -29.0538  -21.0128 C   0  0  0  0  0  0  0  0  0  0  0  0
  -23.5717  -32.1892  -18.9260 C   0  0  0  0  0  0  0  0  0  0  0  0
  -22.9633  -32.4474  -17.6658 C   0  0  0  0  0  0  0  0  0  0  0  0
  -21.7295  -32.9516  -17.7648 N   0  0  0  0  0  0  0  0  0  0  0  0
  -21.5667  -33.0896  -19.0907 N   0  0  0  0  0  0  0  0  0  0  0  0
  -22.6341  -32.6607  -19.8227 C   0  0  0  0  0  0  0  0  0  0  0  0
  1  2  2  0
  2  3  1  0
  3  4  1  0
  4  5  2  0
  5  6  1  0
  6  7  2  0
  7  8  1  0
  8  9  2  0
  9 10  1  0
 10 11  1  0
 11 12  1  0
  2 13  1  0
 13 14  1  0
 14 15  2  0
 15 16  1  0
 16 17  1  0
  9  4  1  0
 12 10  1  0
 17 13  2  0
M  END
>  <id>  (94) 
206727

>  <inchikey>  (94) 
OUADHXQUGPVFPL-UHFFFAOYSA-N

>  <alias>  (94) 
None

>  <smiles>  (94) 
O=C(Nc1cccnc1C1CC1)c1cn[nH]c1

>  <path>  (94) 
/opt/xchem-fragalysis-2/maxwin/BulkDock/SCRATCH/220462/C20299-P104/C20299-P104.minimised.mol

>  <distance_score>  (94) 
0.914404

>  <energy_score>  (94) 
-15.964435

>  <compound>  (94) 
OUADHXQUGPVFPL-UHFFFAOYSA-N

>  <compound_id>  (94) 
20299

>  <target>  (94) 
Flavi_NS5_RdRp

>  <tags>  (94) 
['Fragmenstein placed', 'RdRp_knitwork_green_site_rna_tunnel_impure_fragalysis.sdf Pose OK', 'Enamine_Quote_1977854', 'Knitwork impure merge', 'acceptable', 'Green Site/RNA tunnel merge', 'LCD curated YES']

>  <SLURM_JOB_ID>  (94) 
220462

>  <SLURM_JOB_NAME>  (94) 
BulkDock.place:Flavi_NS5_RdRp:RdRp_knitwork_green_site_rna_tunnel_impure_split4000_batch011

>  <csv_name>  (94) 
RdRp_knitwork_green_site_rna_tunnel_impure_split4000_batch011.csv

>  <scratch_subdir>  (94) 
/opt/xchem-fragalysis-2/maxwin/BulkDock/SCRATCH/220462/C20299-P104

>  <fragmenstein_runtime>  (94) 
2.771199

>  <fragmenstein_outcome>  (94) 
acceptable

>  <fragmenstein_mode>  (94) 
expansion

>  <fragmenstein_error>  (94) 


>  <exports>  (94) 
['/opt/xchem-fragalysis-2/maxwin/BulkDock/OUTPUTS/RdRp_knitwork_green_site_rna_tunnel_impure_split4000_batch011_220462.sdf', '/opt/xchem-fragalysis-2/maxwin/BulkDock/OUTPUTS/RdRp_knitwork_green_site_rna_tunnel_impure_fragalysis.sdf', '/opt/xchem-fragalysis-2/maxwin/RdRp_FFF/syndirella/Retro_OK_batch3.sdf']

>  <Multi-SuCOS>  (94) 
0.552315

>  <merge_set>  (94) 
RdRp_knitwork_green_site_rna_tunnel_impure_fragalysis.sdf

$$$$
OUADHXQUGPVFPL-UHFFFAOYSA-N
     RDKit          3D

 17 19  0  0  0  0  0  0  0  0999 V2000
  -25.2310  -31.8425  -19.9734 O   0  0  0  0  0  0  0  0  0  0  0  0
  -24.8203  -31.5848  -18.9125 C   0  0  0  0  0  0  0  0  0  0  0  0
  -25.4653  -30.7912  -17.7549 N   0  0  0  0  0  0  0  0  0  0  0  0
  -26.7523  -30.2454  -17.6294 C   0  0  0  0  0  0  0  0  0  0  0  0
  -27.0629  -29.9262  -16.2939 C   0  0  0  0  0  0  0  0  0  0  0  0
  -28.3572  -29.5995  -15.9151 C   0  0  0  0  0  0  0  0  0  0  0  0
  -29.3154  -29.5632  -16.8943 C   0  0  0  0  0  0  0  0  0  0  0  0
  -29.0520  -29.8042  -18.1908 N   0  0  0  0  0  0  0  0  0  0  0  0
  -27.7797  -30.1369  -18.5851 C   0  0  0  0  0  0  0  0  0  0  0  0
  -27.6718  -30.3734  -20.0754 C   0  0  0  0  0  0  0  0  0  0  0  0
  -26.6881  -29.6779  -20.9747 C   0  0  0  0  0  0  0  0  0  0  0  0
  -28.1097  -29.2326  -20.9863 C   0  0  0  0  0  0  0  0  0  0  0  0
  -23.5286  -32.1389  -18.4807 C   0  0  0  0  0  0  0  0  0  0  0  0
  -22.7169  -31.9126  -17.3403 C   0  0  0  0  0  0  0  0  0  0  0  0
  -21.6475  -32.7146  -17.2786 N   0  0  0  0  0  0  0  0  0  0  0  0
  -21.7706  -33.4667  -18.3852 N   0  0  0  0  0  0  0  0  0  0  0  0
  -22.8382  -33.1276  -19.1563 C   0  0  0  0  0  0  0  0  0  0  0  0
  1  2  2  0
  2  3  1  0
  3  4  1  0
  4  5  2  0
  5  6  1  0
  6  7  2  0
  7  8  1  0
  8  9  2  0
  9 10  1  0
 10 11  1  0
 11 12  1  0
  2 13  1  0
 13 14  1  0
 14 15  2  0
 15 16  1  0
 16 17  1  0
  9  4  1  0
 12 10  1  0
 17 13  2  0
M  END
>  <id>  (95) 
206741

>  <inchikey>  (95) 
OUADHXQUGPVFPL-UHFFFAOYSA-N

>  <alias>  (95) 
None

>  <smiles>  (95) 
O=C(Nc1cccnc1C1CC1)c1cn[nH]c1

>  <path>  (95) 
/opt/xchem-fragalysis-2/maxwin/BulkDock/SCRATCH/220462/C20299-P151/C20299-P151.minimised.mol

>  <distance_score>  (95) 
0.896531

>  <energy_score>  (95) 
-20.450256

>  <compound>  (95) 
OUADHXQUGPVFPL-UHFFFAOYSA-N

>  <compound_id>  (95) 
20299

>  <target>  (95) 
Flavi_NS5_RdRp

>  <tags>  (95) 
['Fragmenstein placed', 'RdRp_knitwork_green_site_rna_tunnel_impure_fragalysis.sdf Pose OK', 'Enamine_Quote_1977854', 'Knitwork impure merge', 'acceptable', 'Green Site/RNA tunnel merge']

>  <SLURM_JOB_ID>  (95) 
220462

>  <SLURM_JOB_NAME>  (95) 
BulkDock.place:Flavi_NS5_RdRp:RdRp_knitwork_green_site_rna_tunnel_impure_split4000_batch011

>  <csv_name>  (95) 
RdRp_knitwork_green_site_rna_tunnel_impure_split4000_batch011.csv

>  <scratch_subdir>  (95) 
/opt/xchem-fragalysis-2/maxwin/BulkDock/SCRATCH/220462/C20299-P151

>  <fragmenstein_runtime>  (95) 
3.20722

>  <fragmenstein_outcome>  (95) 
acceptable

>  <fragmenstein_mode>  (95) 
expansion

>  <fragmenstein_error>  (95) 


>  <exports>  (95) 
['/opt/xchem-fragalysis-2/maxwin/BulkDock/OUTPUTS/RdRp_knitwork_green_site_rna_tunnel_impure_split4000_batch011_220462.sdf', '/opt/xchem-fragalysis-2/maxwin/BulkDock/OUTPUTS/RdRp_knitwork_green_site_rna_tunnel_impure_fragalysis.sdf', '/opt/xchem-fragalysis-2/maxwin/RdRp_FFF/syndirella/Retro_OK_batch3.sdf']

>  <Multi-SuCOS>  (95) 
0.580927

>  <merge_set>  (95) 
RdRp_knitwork_green_site_rna_tunnel_impure_fragalysis.sdf

$$$$
JLMNNNUCENKWBV-HNNXBMFYSA-N
     RDKit          3D

 21 22  0  0  0  0  0  0  0  0999 V2000
  -21.4259  -34.3617  -26.4442 C   0  0  0  0  0  0  0  0  0  0  0  0
  -21.5335  -33.1529  -25.7107 O   0  0  0  0  0  0  0  0  0  0  0  0
  -21.1917  -33.3407  -24.3313 C   0  0  0  0  0  0  0  0  0  0  0  0
  -21.7095  -32.1908  -23.4624 C   0  0  1  0  0  0  0  0  0  0  0  0
  -21.3765  -32.4794  -21.9929 C   0  0  0  0  0  0  0  0  0  0  0  0
  -21.0098  -30.9981  -23.8306 O   0  0  0  0  0  0  0  0  0  0  0  0
  -23.2166  -32.0846  -23.7549 C   0  0  0  0  0  0  0  0  0  0  0  0
  -23.9997  -31.4924  -22.7206 N   0  0  0  0  0  0  0  0  0  0  0  0
  -25.5241  -31.4764  -22.5096 C   0  0  0  0  0  0  0  0  0  0  0  0
  -26.3601  -31.8676  -23.1700 O   0  0  0  0  0  0  0  0  0  0  0  0
  -25.5768  -30.8522  -21.0981 N   0  0  0  0  0  0  0  0  0  0  0  0
  -26.6590  -30.5220  -20.3061 C   0  0  0  0  0  0  0  0  0  0  0  0
  -27.9407  -30.4144  -20.8409 C   0  0  0  0  0  0  0  0  0  0  0  0
  -29.0196  -30.1845  -19.9958 C   0  0  0  0  0  0  0  0  0  0  0  0
  -28.8250  -30.1550  -18.6134 C   0  0  0  0  0  0  0  0  0  0  0  0
  -27.5207  -30.2117  -18.0903 C   0  0  0  0  0  0  0  0  0  0  0  0
  -26.4343  -30.3523  -18.9468 C   0  0  0  0  0  0  0  0  0  0  0  0
  -27.2751  -30.2818  -16.6089 C   0  0  0  0  0  0  0  0  0  0  0  0
  -28.5139  -29.9229  -15.8033 C   0  0  0  0  0  0  0  0  0  0  0  0
  -29.7401  -30.5449  -16.4432 C   0  0  0  0  0  0  0  0  0  0  0  0
  -29.9249  -29.9852  -17.7668 N   0  0  0  0  0  0  0  0  0  0  0  0
  1  2  1  0
  2  3  1  0
  3  4  1  0
  4  5  1  1
  4  6  1  0
  4  7  1  0
  7  8  1  0
  8  9  1  0
  9 10  2  0
  9 11  1  0
 11 12  1  0
 12 13  2  0
 13 14  1  0
 14 15  2  0
 15 16  1  0
 16 17  2  0
 16 18  1  0
 18 19  1  0
 19 20  1  0
 20 21  1  0
 17 12  1  0
 21 15  1  0
M  END
>  <id>  (96) 
206805

>  <inchikey>  (96) 
JLMNNNUCENKWBV-HNNXBMFYSA-N

>  <alias>  (96) 
None

>  <smiles>  (96) 
COC[C@@](C)(O)CNC(=O)Nc1ccc2c(c1)CCCN2

>  <path>  (96) 
/opt/xchem-fragalysis-2/maxwin/BulkDock/SCRATCH/220464/C37157-P7/C37157-P7.minimised.mol

>  <distance_score>  (96) 
0.969789

>  <energy_score>  (96) 
-22.902645

>  <compound>  (96) 
JLMNNNUCENKWBV-UHFFFAOYSA-N

>  <compound_id>  (96) 
37157

>  <target>  (96) 
Flavi_NS5_RdRp

>  <tags>  (96) 
['Fragmenstein placed', 'Enamine_unavailable', 'RdRp_knitwork_green_site_rna_tunnel_impure_fragalysis.sdf Pose OK', 'Knitwork impure merge', 'acceptable', 'Green Site/RNA tunnel merge', 'LCD curated YES']

>  <SLURM_JOB_ID>  (96) 
220464

>  <SLURM_JOB_NAME>  (96) 
BulkDock.place:Flavi_NS5_RdRp:RdRp_knitwork_green_site_rna_tunnel_impure_split4000_batch013

>  <csv_name>  (96) 
RdRp_knitwork_green_site_rna_tunnel_impure_split4000_batch013.csv

>  <scratch_subdir>  (96) 
/opt/xchem-fragalysis-2/maxwin/BulkDock/SCRATCH/220464/C37157-P7

>  <fragmenstein_runtime>  (96) 
11.089031

>  <fragmenstein_outcome>  (96) 
acceptable

>  <fragmenstein_mode>  (96) 
expansion

>  <fragmenstein_error>  (96) 


>  <exports>  (96) 
['/opt/xchem-fragalysis-2/maxwin/BulkDock/OUTPUTS/RdRp_knitwork_green_site_rna_tunnel_impure_split4000_batch013_220464.sdf', '/opt/xchem-fragalysis-2/maxwin/BulkDock/OUTPUTS/RdRp_knitwork_green_site_rna_tunnel_impure_fragalysis.sdf', '/opt/xchem-fragalysis-2/maxwin/RdRp_FFF/syndirella/Retro_OK_batch3.sdf']

>  <Multi-SuCOS>  (96) 
0.522136

>  <merge_set>  (96) 
RdRp_knitwork_green_site_rna_tunnel_impure_fragalysis.sdf

$$$$
JLMNNNUCENKWBV-HNNXBMFYSA-N
     RDKit          3D

 21 22  0  0  0  0  0  0  0  0999 V2000
  -21.4027  -34.1352  -26.5193 C   0  0  0  0  0  0  0  0  0  0  0  0
  -21.5137  -32.9808  -25.7102 O   0  0  0  0  0  0  0  0  0  0  0  0
  -21.0694  -33.2035  -24.3656 C   0  0  0  0  0  0  0  0  0  0  0  0
  -21.6095  -32.1071  -23.4401 C   0  0  1  0  0  0  0  0  0  0  0  0
  -21.1470  -32.3622  -22.0021 C   0  0  0  0  0  0  0  0  0  0  0  0
  -21.0409  -30.8551  -23.8418 O   0  0  0  0  0  0  0  0  0  0  0  0
  -23.1381  -32.1323  -23.6136 C   0  0  0  0  0  0  0  0  0  0  0  0
  -23.8726  -31.5628  -22.5328 N   0  0  0  0  0  0  0  0  0  0  0  0
  -25.2643  -30.9130  -22.5085 C   0  0  0  0  0  0  0  0  0  0  0  0
  -25.9790  -30.6772  -23.3581 O   0  0  0  0  0  0  0  0  0  0  0  0
  -25.4464  -30.7691  -20.9828 N   0  0  0  0  0  0  0  0  0  0  0  0
  -26.5504  -30.4046  -20.2481 C   0  0  0  0  0  0  0  0  0  0  0  0
  -27.8104  -30.3003  -20.8273 C   0  0  0  0  0  0  0  0  0  0  0  0
  -28.9185  -30.1057  -20.0144 C   0  0  0  0  0  0  0  0  0  0  0  0
  -28.7576  -29.9658  -18.6340 C   0  0  0  0  0  0  0  0  0  0  0  0
  -27.4688  -30.0034  -18.0726 C   0  0  0  0  0  0  0  0  0  0  0  0
  -26.3670  -30.2218  -18.8874 C   0  0  0  0  0  0  0  0  0  0  0  0
  -27.2300  -29.8559  -16.5975 C   0  0  0  0  0  0  0  0  0  0  0  0
  -28.4959  -30.0257  -15.7810 C   0  0  0  0  0  0  0  0  0  0  0  0
  -29.6925  -29.4480  -16.4982 C   0  0  0  0  0  0  0  0  0  0  0  0
  -29.8917  -29.9906  -17.8201 N   0  0  0  0  0  0  0  0  0  0  0  0
  1  2  1  0
  2  3  1  0
  3  4  1  0
  4  5  1  1
  4  6  1  0
  4  7  1  0
  7  8  1  0
  8  9  1  0
  9 10  2  0
  9 11  1  0
 11 12  1  0
 12 13  2  0
 13 14  1  0
 14 15  2  0
 15 16  1  0
 16 17  2  0
 16 18  1  0
 18 19  1  0
 19 20  1  0
 20 21  1  0
 17 12  1  0
 21 15  1  0
M  END
>  <id>  (97) 
206815

>  <inchikey>  (97) 
JLMNNNUCENKWBV-HNNXBMFYSA-N

>  <alias>  (97) 
None

>  <smiles>  (97) 
COC[C@@](C)(O)CNC(=O)Nc1ccc2c(c1)CCCN2

>  <path>  (97) 
/opt/xchem-fragalysis-2/maxwin/BulkDock/SCRATCH/220464/C37157-P102/C37157-P102.minimised.mol

>  <distance_score>  (97) 
0.958078

>  <energy_score>  (97) 
-24.285206

>  <compound>  (97) 
JLMNNNUCENKWBV-UHFFFAOYSA-N

>  <compound_id>  (97) 
37157

>  <target>  (97) 
Flavi_NS5_RdRp

>  <tags>  (97) 
['Fragmenstein placed', 'Enamine_unavailable', 'RdRp_knitwork_green_site_rna_tunnel_impure_fragalysis.sdf Pose OK', 'Knitwork impure merge', 'acceptable', 'Green Site/RNA tunnel merge']

>  <SLURM_JOB_ID>  (97) 
220464

>  <SLURM_JOB_NAME>  (97) 
BulkDock.place:Flavi_NS5_RdRp:RdRp_knitwork_green_site_rna_tunnel_impure_split4000_batch013

>  <csv_name>  (97) 
RdRp_knitwork_green_site_rna_tunnel_impure_split4000_batch013.csv

>  <scratch_subdir>  (97) 
/opt/xchem-fragalysis-2/maxwin/BulkDock/SCRATCH/220464/C37157-P102

>  <fragmenstein_runtime>  (97) 
10.433176

>  <fragmenstein_outcome>  (97) 
acceptable

>  <fragmenstein_mode>  (97) 
expansion

>  <fragmenstein_error>  (97) 


>  <exports>  (97) 
['/opt/xchem-fragalysis-2/maxwin/BulkDock/OUTPUTS/RdRp_knitwork_green_site_rna_tunnel_impure_split4000_batch013_220464.sdf', '/opt/xchem-fragalysis-2/maxwin/BulkDock/OUTPUTS/RdRp_knitwork_green_site_rna_tunnel_impure_fragalysis.sdf', '/opt/xchem-fragalysis-2/maxwin/RdRp_FFF/syndirella/Retro_OK_batch3.sdf']

>  <Multi-SuCOS>  (97) 
0.533502

>  <merge_set>  (97) 
RdRp_knitwork_green_site_rna_tunnel_impure_fragalysis.sdf

$$$$
RYINUJYFPYCEFQ-UHFFFAOYSA-N
     RDKit          3D

 15 17  0  0  0  0  0  0  0  0999 V2000
  -27.8431  -30.3512  -15.8373 C   0  0  0  0  0  0  0  0  0  0  0  0
  -26.7393  -29.7020  -16.3719 C   0  0  0  0  0  0  0  0  0  0  0  0
  -26.7227  -29.3653  -17.7261 C   0  0  0  0  0  0  0  0  0  0  0  0
  -27.8018  -29.6910  -18.5876 C   0  0  0  0  0  0  0  0  0  0  0  0
  -27.8835  -29.3890  -19.9678 C   0  0  0  0  0  0  0  0  0  0  0  0
  -26.9055  -28.5324  -20.6534 C   0  0  0  0  0  0  0  0  0  0  0  0
  -26.3411  -27.4450  -20.1504 N   0  0  0  0  0  0  0  0  0  0  0  0
  -25.6023  -26.8050  -21.1244 C   0  0  0  0  0  0  0  0  0  0  0  0
  -25.5131  -27.4630  -22.3298 C   0  0  0  0  0  0  0  0  0  0  0  0
  -26.4145  -28.9208  -22.2605 S   0  0  0  0  0  0  0  0  0  0  0  0
  -28.9184  -29.7719  -20.7686 N   0  0  0  0  0  0  0  0  0  0  0  0
  -29.9320  -30.4372  -20.1961 C   0  0  0  0  0  0  0  0  0  0  0  0
  -29.9621  -30.7584  -18.8547 C   0  0  0  0  0  0  0  0  0  0  0  0
  -28.8967  -30.3829  -18.0331 C   0  0  0  0  0  0  0  0  0  0  0  0
  -28.9138  -30.6901  -16.6626 C   0  0  0  0  0  0  0  0  0  0  0  0
  1  2  2  0
  2  3  1  0
  3  4  2  0
  4  5  1  0
  5  6  1  0
  6  7  2  0
  7  8  1  0
  8  9  2  0
  9 10  1  0
  5 11  2  0
 11 12  1  0
 12 13  2  0
 13 14  1  0
 14 15  2  0
 15  1  1  0
 14  4  1  0
 10  6  1  0
M  END
>  <id>  (98) 
206909

>  <inchikey>  (98) 
RYINUJYFPYCEFQ-UHFFFAOYSA-N

>  <alias>  (98) 
None

>  <smiles>  (98) 
c1ccc2c(-c3nccs3)nccc2c1

>  <path>  (98) 
/opt/xchem-fragalysis-2/maxwin/BulkDock/SCRATCH/220453/C30341-P136/C30341-P136.minimised.mol

>  <distance_score>  (98) 
0.693014

>  <energy_score>  (98) 
-58.072942

>  <compound>  (98) 
RYINUJYFPYCEFQ-UHFFFAOYSA-N

>  <compound_id>  (98) 
30341

>  <target>  (98) 
Flavi_NS5_RdRp

>  <tags>  (98) 
['Fragmenstein placed', 'RdRp_knitwork_green_site_rna_tunnel_impure_fragalysis.sdf Pose OK', 'Enamine_Quote_1977854', 'Enamine_Quote_1970815', 'Knitwork impure merge', 'acceptable', 'Green Site/RNA tunnel merge', 'LCD curated YES']

>  <SLURM_JOB_ID>  (98) 
220453

>  <SLURM_JOB_NAME>  (98) 
BulkDock.place:Flavi_NS5_RdRp:RdRp_knitwork_green_site_rna_tunnel_impure_split4000_batch002

>  <csv_name>  (98) 
RdRp_knitwork_green_site_rna_tunnel_impure_split4000_batch002.csv

>  <scratch_subdir>  (98) 
/opt/xchem-fragalysis-2/maxwin/BulkDock/SCRATCH/220453/C30341-P136

>  <fragmenstein_runtime>  (98) 
1.598882

>  <fragmenstein_outcome>  (98) 
acceptable

>  <fragmenstein_mode>  (98) 
expansion

>  <fragmenstein_error>  (98) 


>  <exports>  (98) 
['/opt/xchem-fragalysis-2/maxwin/BulkDock/OUTPUTS/RdRp_knitwork_green_site_rna_tunnel_impure_split4000_batch002_220453.sdf', '/opt/xchem-fragalysis-2/maxwin/BulkDock/OUTPUTS/RdRp_knitwork_green_site_rna_tunnel_impure_fragalysis.sdf', '/opt/xchem-fragalysis-2/maxwin/RdRp_FFF/syndirella/Retro_OK_batch3.sdf']

>  <Multi-SuCOS>  (98) 
0.795546

>  <merge_set>  (98) 
RdRp_knitwork_green_site_rna_tunnel_impure_fragalysis.sdf

$$$$
SHENAZADMNUPGS-VIFPVBQESA-N
     RDKit          3D

 18 19  0  0  0  0  0  0  0  0999 V2000
  -21.3794  -32.8383  -24.2989 C   0  0  0  0  0  0  0  0  0  0  0  0
  -22.1466  -32.0817  -23.2362 C   0  0  2  0  0  0  0  0  0  0  0  0
  -21.2208  -31.7577  -22.1963 O   0  0  0  0  0  0  0  0  0  0  0  0
  -23.2803  -32.9191  -22.6526 C   0  0  0  0  0  0  0  0  0  0  0  0
  -24.1054  -32.1267  -21.7772 N   0  0  0  0  0  0  0  0  0  0  0  0
  -25.4767  -31.4503  -22.0305 C   0  0  0  0  0  0  0  0  0  0  0  0
  -26.0926  -31.3703  -22.9855 O   0  0  0  0  0  0  0  0  0  0  0  0
  -25.8079  -30.9975  -20.5820 N   0  0  0  0  0  0  0  0  0  0  0  0
  -26.9781  -30.4592  -20.0500 C   0  0  0  0  0  0  0  0  0  0  0  0
  -28.1312  -30.3051  -20.8220 C   0  0  0  0  0  0  0  0  0  0  0  0
  -29.3246  -29.9346  -20.2133 C   0  0  0  0  0  0  0  0  0  0  0  0
  -29.3554  -29.7165  -18.8383 C   0  0  0  0  0  0  0  0  0  0  0  0
  -28.1828  -29.8128  -18.0713 C   0  0  0  0  0  0  0  0  0  0  0  0
  -28.1891  -29.6220  -16.6843 C   0  0  0  0  0  0  0  0  0  0  0  0
  -27.0175  -29.8049  -15.9576 C   0  0  0  0  0  0  0  0  0  0  0  0
  -25.8660  -30.1450  -16.6373 C   0  0  0  0  0  0  0  0  0  0  0  0
  -25.8207  -30.3197  -17.9743 N   0  0  0  0  0  0  0  0  0  0  0  0
  -26.9656  -30.1751  -18.6814 C   0  0  0  0  0  0  0  0  0  0  0  0
  2  1  1  6
  2  3  1  0
  2  4  1  0
  4  5  1  0
  5  6  1  0
  6  7  2  0
  6  8  1  0
  8  9  1  0
  9 10  2  0
 10 11  1  0
 11 12  2  0
 12 13  1  0
 13 14  2  0
 14 15  1  0
 15 16  2  0
 16 17  1  0
 17 18  2  0
 18  9  1  0
 18 13  1  0
M  END
>  <id>  (99) 
207307

>  <inchikey>  (99) 
SHENAZADMNUPGS-VIFPVBQESA-N

>  <alias>  (99) 
None

>  <smiles>  (99) 
C[C@H](O)CNC(=O)Nc1cccc2cccnc12

>  <path>  (99) 
/opt/xchem-fragalysis-2/maxwin/BulkDock/SCRATCH/220456/C33434-P173/C33434-P173.minimised.mol

>  <distance_score>  (99) 
0.983745

>  <energy_score>  (99) 
-24.32603

>  <compound>  (99) 
SHENAZADMNUPGS-UHFFFAOYSA-N

>  <compound_id>  (99) 
33434

>  <target>  (99) 
Flavi_NS5_RdRp

>  <tags>  (99) 
['Fragmenstein placed', 'RdRp_knitwork_green_site_rna_tunnel_impure_fragalysis.sdf Pose OK', 'Enamine_Quote_1977854', 'Knitwork impure merge', 'acceptable', 'Green Site/RNA tunnel merge']

>  <SLURM_JOB_ID>  (99) 
220456

>  <SLURM_JOB_NAME>  (99) 
BulkDock.place:Flavi_NS5_RdRp:RdRp_knitwork_green_site_rna_tunnel_impure_split4000_batch005

>  <csv_name>  (99) 
RdRp_knitwork_green_site_rna_tunnel_impure_split4000_batch005.csv

>  <scratch_subdir>  (99) 
/opt/xchem-fragalysis-2/maxwin/BulkDock/SCRATCH/220456/C33434-P173

>  <fragmenstein_runtime>  (99) 
5.342627

>  <fragmenstein_outcome>  (99) 
acceptable

>  <fragmenstein_mode>  (99) 
expansion

>  <fragmenstein_error>  (99) 


>  <exports>  (99) 
['/opt/xchem-fragalysis-2/maxwin/BulkDock/OUTPUTS/RdRp_knitwork_green_site_rna_tunnel_impure_split4000_batch005_220456.sdf', '/opt/xchem-fragalysis-2/maxwin/BulkDock/OUTPUTS/RdRp_knitwork_green_site_rna_tunnel_impure_fragalysis.sdf', '/opt/xchem-fragalysis-2/maxwin/RdRp_FFF/syndirella/Retro_OK_batch3.sdf']

>  <Multi-SuCOS>  (99) 
0.755516

>  <merge_set>  (99) 
RdRp_knitwork_green_site_rna_tunnel_impure_fragalysis.sdf

$$$$
LZEZZOBYMRLTRX-UHFFFAOYSA-N
     RDKit          3D

 15 17  0  0  0  0  0  0  0  0999 V2000
  -28.4434  -30.6614  -16.4211 C   0  0  0  0  0  0  0  0  0  0  0  0
  -27.6209  -29.9294  -17.2610 C   0  0  0  0  0  0  0  0  0  0  0  0
  -27.9888  -29.7892  -18.5984 C   0  0  0  0  0  0  0  0  0  0  0  0
  -27.1699  -29.1074  -19.5061 C   0  0  0  0  0  0  0  0  0  0  0  0
  -27.5027  -29.0594  -20.8632 C   0  0  0  0  0  0  0  0  0  0  0  0
  -26.5770  -28.4980  -21.8295 C   0  0  0  0  0  0  0  0  0  0  0  0
  -25.9003  -27.3042  -21.6588 C   0  0  0  0  0  0  0  0  0  0  0  0
  -24.9258  -26.9885  -23.0370 S   0  0  0  0  0  0  0  0  0  0  0  0
  -25.4407  -28.4730  -23.7206 C   0  0  0  0  0  0  0  0  0  0  0  0
  -26.3226  -29.1555  -23.0218 N   0  0  0  0  0  0  0  0  0  0  0  0
  -28.7026  -29.6339  -21.3004 C   0  0  0  0  0  0  0  0  0  0  0  0
  -29.5500  -30.2780  -20.3985 C   0  0  0  0  0  0  0  0  0  0  0  0
  -29.1826  -30.3844  -19.0488 C   0  0  0  0  0  0  0  0  0  0  0  0
  -29.9308  -31.0979  -18.1133 C   0  0  0  0  0  0  0  0  0  0  0  0
  -29.5942  -31.2451  -16.8103 N   0  0  0  0  0  0  0  0  0  0  0  0
  1  2  2  0
  2  3  1  0
  3  4  2  0
  4  5  1  0
  5  6  1  0
  6  7  2  0
  7  8  1  0
  8  9  1  0
  9 10  2  0
  5 11  2  0
 11 12  1  0
 12 13  2  0
 13 14  1  0
 14 15  2  0
 15  1  1  0
 13  3  1  0
 10  6  1  0
M  END
>  <id>  (100) 
208608

>  <inchikey>  (100) 
LZEZZOBYMRLTRX-UHFFFAOYSA-N

>  <alias>  (100) 
None

>  <smiles>  (100) 
c1cc2cc(-c3cscn3)ccc2cn1

>  <path>  (100) 
/opt/xchem-fragalysis-2/maxwin/BulkDock/SCRATCH/220453/C29796-P136/C29796-P136.minimised.mol

>  <distance_score>  (100) 
0.919145

>  <energy_score>  (100) 
-39.403236

>  <compound>  (100) 
LZEZZOBYMRLTRX-UHFFFAOYSA-N

>  <compound_id>  (100) 
29796

>  <target>  (100) 
Flavi_NS5_RdRp

>  <tags>  (100) 
['Fragmenstein placed', 'RdRp_knitwork_green_site_rna_tunnel_impure_fragalysis.sdf Pose OK', 'Enamine_Quote_1977854', 'Knitwork impure merge', 'LCD curated INTERESTING', 'acceptable', 'Green Site/RNA tunnel merge', 'LCD curated YES']

>  <SLURM_JOB_ID>  (100) 
220453

>  <SLURM_JOB_NAME>  (100) 
BulkDock.place:Flavi_NS5_RdRp:RdRp_knitwork_green_site_rna_tunnel_impure_split4000_batch002

>  <csv_name>  (100) 
RdRp_knitwork_green_site_rna_tunnel_impure_split4000_batch002.csv

>  <scratch_subdir>  (100) 
/opt/xchem-fragalysis-2/maxwin/BulkDock/SCRATCH/220453/C29796-P136

>  <fragmenstein_runtime>  (100) 
5.808211

>  <fragmenstein_outcome>  (100) 
acceptable

>  <fragmenstein_mode>  (100) 
expansion

>  <fragmenstein_error>  (100) 


>  <exports>  (100) 
['/opt/xchem-fragalysis-2/maxwin/BulkDock/OUTPUTS/RdRp_knitwork_green_site_rna_tunnel_impure_split4000_batch002_220453.sdf', '/opt/xchem-fragalysis-2/maxwin/BulkDock/OUTPUTS/RdRp_knitwork_green_site_rna_tunnel_impure_fragalysis.sdf', '/opt/xchem-fragalysis-2/maxwin/RdRp_FFF/syndirella/Retro_OK_batch3.sdf']

>  <Multi-SuCOS>  (100) 
0.803391

>  <merge_set>  (100) 
RdRp_knitwork_green_site_rna_tunnel_impure_fragalysis.sdf

$$$$
IMMHZJLASOVDCS-UHFFFAOYSA-N
     RDKit          3D

 20 22  0  0  0  0  0  0  0  0999 V2000
  -29.4981  -31.2578  -14.5138 C   0  0  0  0  0  0  0  0  0  0  0  0
  -28.8779  -30.7480  -15.7888 C   0  0  0  0  0  0  0  0  0  0  0  0
  -29.7400  -30.2307  -16.7597 C   0  0  0  0  0  0  0  0  0  0  0  0
  -29.2500  -29.7928  -17.9749 C   0  0  0  0  0  0  0  0  0  0  0  0
  -27.8834  -29.8516  -18.2255 C   0  0  0  0  0  0  0  0  0  0  0  0
  -27.5182  -29.5171  -19.5286 N   0  0  0  0  0  0  0  0  0  0  0  0
  -26.3816  -30.0451  -20.4113 C   0  0  0  0  0  0  0  0  0  0  0  0
  -25.6135  -30.8988  -20.2223 O   0  0  0  0  0  0  0  0  0  0  0  0
  -26.3150  -29.3042  -21.6831 C   0  0  0  0  0  0  0  0  0  0  0  0
  -26.6062  -29.9999  -22.8510 C   0  0  0  0  0  0  0  0  0  0  0  0
  -26.2942  -29.3966  -24.0509 C   0  0  0  0  0  0  0  0  0  0  0  0
  -25.7344  -28.1727  -24.1259 N   0  0  0  0  0  0  0  0  0  0  0  0
  -25.4591  -27.5256  -22.9701 C   0  0  0  0  0  0  0  0  0  0  0  0
  -25.7474  -28.0353  -21.7207 C   0  0  0  0  0  0  0  0  0  0  0  0
  -26.9745  -30.2824  -17.2135 C   0  0  0  0  0  0  0  0  0  0  0  0
  -25.5629  -30.2321  -17.3075 C   0  0  0  0  0  0  0  0  0  0  0  0
  -24.7500  -30.6702  -16.2696 C   0  0  0  0  0  0  0  0  0  0  0  0
  -25.3642  -31.1361  -15.1327 C   0  0  0  0  0  0  0  0  0  0  0  0
  -26.7008  -31.1652  -14.9699 N   0  0  0  0  0  0  0  0  0  0  0  0
  -27.4939  -30.7439  -15.9791 C   0  0  0  0  0  0  0  0  0  0  0  0
  1  2  1  0
  2  3  2  0
  3  4  1  0
  4  5  2  0
  5  6  1  0
  6  7  1  0
  7  8  2  0
  7  9  1  0
  9 10  2  0
 10 11  1  0
 11 12  2  0
 12 13  1  0
 13 14  2  0
  5 15  1  0
 15 16  2  0
 16 17  1  0
 17 18  2  0
 18 19  1  0
 19 20  2  0
 20  2  1  0
 14  9  1  0
 20 15  1  0
M  END
>  <id>  (101) 
210962

>  <inchikey>  (101) 
IMMHZJLASOVDCS-UHFFFAOYSA-N

>  <alias>  (101) 
None

>  <smiles>  (101) 
Cc1ccc(NC(=O)c2ccncc2)c2cccnc12

>  <path>  (101) 
/opt/xchem-fragalysis-2/maxwin/BulkDock/SCRATCH/220466/C28013-P105/C28013-P105.minimised.mol

>  <distance_score>  (101) 
0.788972

>  <energy_score>  (101) 
-18.848466

>  <compound>  (101) 
IMMHZJLASOVDCS-UHFFFAOYSA-N

>  <compound_id>  (101) 
28013

>  <target>  (101) 
Flavi_NS5_RdRp

>  <tags>  (101) 
['Fragmenstein placed', 'RdRp_knitwork_green_site_rna_tunnel_impure_fragalysis.sdf Pose OK', 'Knitwork impure merge', 'acceptable', 'Green Site/RNA tunnel merge']

>  <SLURM_JOB_ID>  (101) 
220466

>  <SLURM_JOB_NAME>  (101) 
BulkDock.place:Flavi_NS5_RdRp:RdRp_knitwork_green_site_rna_tunnel_impure_split4000_batch015

>  <csv_name>  (101) 
RdRp_knitwork_green_site_rna_tunnel_impure_split4000_batch015.csv

>  <scratch_subdir>  (101) 
/opt/xchem-fragalysis-2/maxwin/BulkDock/SCRATCH/220466/C28013-P105

>  <fragmenstein_runtime>  (101) 
3.255564

>  <fragmenstein_outcome>  (101) 
acceptable

>  <fragmenstein_mode>  (101) 
expansion

>  <fragmenstein_error>  (101) 


>  <exports>  (101) 
['/opt/xchem-fragalysis-2/maxwin/BulkDock/OUTPUTS/RdRp_knitwork_green_site_rna_tunnel_impure_split4000_batch015_220466.sdf', '/opt/xchem-fragalysis-2/maxwin/BulkDock/OUTPUTS/RdRp_knitwork_green_site_rna_tunnel_impure_fragalysis.sdf', '/opt/xchem-fragalysis-2/maxwin/RdRp_FFF/syndirella/Retro_OK_batch3.sdf']

>  <Multi-SuCOS>  (101) 
0.606619

>  <merge_set>  (101) 
RdRp_knitwork_green_site_rna_tunnel_impure_fragalysis.sdf

$$$$
YAOSTISNIUSXMX-UHFFFAOYSA-N
     RDKit          3D

 20 22  0  0  0  0  0  0  0  0999 V2000
  -25.6059  -30.8882  -20.2103 O   0  0  0  0  0  0  0  0  0  0  0  0
  -26.3699  -30.0305  -20.3965 C   0  0  0  0  0  0  0  0  0  0  0  0
  -27.4386  -29.4329  -19.4734 N   0  0  0  0  0  0  0  0  0  0  0  0
  -27.8474  -29.8130  -18.1966 C   0  0  0  0  0  0  0  0  0  0  0  0
  -29.2191  -29.7539  -17.9717 C   0  0  0  0  0  0  0  0  0  0  0  0
  -29.7301  -30.2057  -16.7702 C   0  0  0  0  0  0  0  0  0  0  0  0
  -28.8758  -30.7251  -15.8005 C   0  0  0  0  0  0  0  0  0  0  0  0
  -29.6300  -31.3315  -14.3587 Cl  0  0  0  0  0  0  0  0  0  0  0  0
  -27.4872  -30.7635  -15.9648 C   0  0  0  0  0  0  0  0  0  0  0  0
  -26.6962  -31.2297  -14.9663 N   0  0  0  0  0  0  0  0  0  0  0  0
  -25.3599  -31.2244  -15.1270 C   0  0  0  0  0  0  0  0  0  0  0  0
  -24.7378  -30.7399  -16.2512 C   0  0  0  0  0  0  0  0  0  0  0  0
  -25.5420  -30.2589  -17.2770 C   0  0  0  0  0  0  0  0  0  0  0  0
  -26.9545  -30.2842  -17.1853 C   0  0  0  0  0  0  0  0  0  0  0  0
  -26.3158  -29.3044  -21.6786 C   0  0  0  0  0  0  0  0  0  0  0  0
  -26.6133  -30.0108  -22.8384 C   0  0  0  0  0  0  0  0  0  0  0  0
  -26.3072  -29.4180  -24.0456 C   0  0  0  0  0  0  0  0  0  0  0  0
  -25.7465  -28.1954  -24.1357 N   0  0  0  0  0  0  0  0  0  0  0  0
  -25.4614  -27.5390  -22.9883 C   0  0  0  0  0  0  0  0  0  0  0  0
  -25.7449  -28.0365  -21.7329 C   0  0  0  0  0  0  0  0  0  0  0  0
  1  2  2  0
  2  3  1  0
  3  4  1  0
  4  5  2  0
  5  6  1  0
  6  7  2  0
  7  8  1  0
  7  9  1  0
  9 10  2  0
 10 11  1  0
 11 12  2  0
 12 13  1  0
 13 14  2  0
  2 15  1  0
 15 16  2  0
 16 17  1  0
 17 18  2  0
 18 19  1  0
 19 20  2  0
 14  4  1  0
 20 15  1  0
 14  9  1  0
M  END
>  <id>  (102) 
211048

>  <inchikey>  (102) 
YAOSTISNIUSXMX-UHFFFAOYSA-N

>  <alias>  (102) 
None

>  <smiles>  (102) 
O=C(Nc1ccc(Cl)c2ncccc12)c1ccncc1

>  <path>  (102) 
/opt/xchem-fragalysis-2/maxwin/BulkDock/SCRATCH/220466/C29639-P105/C29639-P105.minimised.mol

>  <distance_score>  (102) 
0.805216

>  <energy_score>  (102) 
-10.708304

>  <compound>  (102) 
YAOSTISNIUSXMX-UHFFFAOYSA-N

>  <compound_id>  (102) 
29639

>  <target>  (102) 
Flavi_NS5_RdRp

>  <tags>  (102) 
['Fragmenstein placed', 'RdRp_knitwork_green_site_rna_tunnel_impure_fragalysis.sdf Pose OK', 'Knitwork impure merge', 'acceptable', 'Green Site/RNA tunnel merge']

>  <SLURM_JOB_ID>  (102) 
220466

>  <SLURM_JOB_NAME>  (102) 
BulkDock.place:Flavi_NS5_RdRp:RdRp_knitwork_green_site_rna_tunnel_impure_split4000_batch015

>  <csv_name>  (102) 
RdRp_knitwork_green_site_rna_tunnel_impure_split4000_batch015.csv

>  <scratch_subdir>  (102) 
/opt/xchem-fragalysis-2/maxwin/BulkDock/SCRATCH/220466/C29639-P105

>  <fragmenstein_runtime>  (102) 
3.597533

>  <fragmenstein_outcome>  (102) 
acceptable

>  <fragmenstein_mode>  (102) 
expansion

>  <fragmenstein_error>  (102) 


>  <exports>  (102) 
['/opt/xchem-fragalysis-2/maxwin/BulkDock/OUTPUTS/RdRp_knitwork_green_site_rna_tunnel_impure_split4000_batch015_220466.sdf', '/opt/xchem-fragalysis-2/maxwin/BulkDock/OUTPUTS/RdRp_knitwork_green_site_rna_tunnel_impure_fragalysis.sdf', '/opt/xchem-fragalysis-2/maxwin/RdRp_FFF/syndirella/Retro_OK_batch3.sdf']

>  <Multi-SuCOS>  (102) 
0.599096

>  <merge_set>  (102) 
RdRp_knitwork_green_site_rna_tunnel_impure_fragalysis.sdf

$$$$
WNOQDDCSSLWEEK-UHFFFAOYSA-N
     RDKit          3D

 20 23  0  0  0  0  0  0  0  0999 V2000
  -28.0358  -29.0583  -20.3860 C   0  0  0  0  0  0  0  0  0  0  0  0
  -26.7761  -29.2263  -20.8733 N   0  0  0  0  0  0  0  0  0  0  0  0
  -26.3466  -30.2646  -20.1950 C   0  0  0  0  0  0  0  0  0  0  0  0
  -25.1553  -31.0289  -20.2715 C   0  0  0  0  0  0  0  0  0  0  0  0
  -24.9743  -32.0551  -19.4184 C   0  0  0  0  0  0  0  0  0  0  0  0
  -25.9353  -32.3746  -18.3634 C   0  0  0  0  0  0  0  0  0  0  0  0
  -25.6596  -33.2978  -17.3853 N   0  0  0  0  0  0  0  0  0  0  0  0
  -24.4380  -34.0099  -17.0929 C   0  0  0  0  0  0  0  0  0  0  0  0
  -23.2084  -33.1782  -16.8509 C   0  0  0  0  0  0  0  0  0  0  0  0
  -22.0843  -33.3427  -17.6789 C   0  0  0  0  0  0  0  0  0  0  0  0
  -20.8852  -32.6758  -17.4231 C   0  0  0  0  0  0  0  0  0  0  0  0
  -20.8606  -31.8634  -16.2948 C   0  0  0  0  0  0  0  0  0  0  0  0
  -19.7829  -31.1541  -15.8658 O   0  0  0  0  0  0  0  0  0  0  0  0
  -20.1648  -30.4981  -14.7400 C   0  0  0  0  0  0  0  0  0  0  0  0
  -21.4750  -30.7859  -14.4312 C   0  0  0  0  0  0  0  0  0  0  0  0
  -21.9395  -31.6694  -15.4408 C   0  0  0  0  0  0  0  0  0  0  0  0
  -23.1447  -32.3323  -15.7247 C   0  0  0  0  0  0  0  0  0  0  0  0
  -27.0964  -31.6962  -18.3693 C   0  0  0  0  0  0  0  0  0  0  0  0
  -27.3092  -30.6665  -19.2712 N   0  0  0  0  0  0  0  0  0  0  0  0
  -28.4063  -29.8874  -19.4129 N   0  0  0  0  0  0  0  0  0  0  0  0
  1  2  1  0
  2  3  2  0
  3  4  1  0
  4  5  2  0
  5  6  1  0
  6  7  1  0
  7  8  1  0
  8  9  1  0
  9 10  2  0
 10 11  1  0
 11 12  2  0
 12 13  1  0
 13 14  1  0
 14 15  2  0
 15 16  1  0
 16 17  2  0
  6 18  2  0
 18 19  1  0
 19 20  1  0
 20  1  2  0
 19  3  1  0
 17  9  1  0
 16 12  1  0
M  END
>  <id>  (103) 
214592

>  <inchikey>  (103) 
WNOQDDCSSLWEEK-UHFFFAOYSA-N

>  <alias>  (103) 
None

>  <smiles>  (103) 
c1nc2ccc(NCc3ccc4occc4c3)cn2n1

>  <path>  (103) 
/opt/xchem-fragalysis-2/maxwin/BulkDock/SCRATCH/220457/C60663-P218/C60663-P218.minimised.mol

>  <distance_score>  (103) 
0.97416

>  <energy_score>  (103) 
-39.392499

>  <compound>  (103) 
WNOQDDCSSLWEEK-UHFFFAOYSA-N

>  <compound_id>  (103) 
60663

>  <target>  (103) 
Flavi_NS5_RdRp

>  <tags>  (103) 
['Fragmenstein placed', 'RdRp_knitwork_green_site_rna_tunnel_impure_fragalysis.sdf Pose OK', 'Enamine_Quote_1977854', 'Knitwork impure merge', 'acceptable', 'Green Site/RNA tunnel merge', 'LCD curated YES']

>  <SLURM_JOB_ID>  (103) 
220457

>  <SLURM_JOB_NAME>  (103) 
BulkDock.place:Flavi_NS5_RdRp:RdRp_knitwork_green_site_rna_tunnel_impure_split4000_batch006

>  <csv_name>  (103) 
RdRp_knitwork_green_site_rna_tunnel_impure_split4000_batch006.csv

>  <scratch_subdir>  (103) 
/opt/xchem-fragalysis-2/maxwin/BulkDock/SCRATCH/220457/C60663-P218

>  <fragmenstein_runtime>  (103) 
2.483314

>  <fragmenstein_outcome>  (103) 
acceptable

>  <fragmenstein_mode>  (103) 
expansion

>  <fragmenstein_error>  (103) 


>  <exports>  (103) 
['/opt/xchem-fragalysis-2/maxwin/BulkDock/OUTPUTS/RdRp_knitwork_green_site_rna_tunnel_impure_split4000_batch006_220457.sdf', '/opt/xchem-fragalysis-2/maxwin/BulkDock/OUTPUTS/RdRp_knitwork_green_site_rna_tunnel_impure_fragalysis.sdf', '/opt/xchem-fragalysis-2/maxwin/RdRp_FFF/syndirella/Retro_OK_batch3.sdf']

>  <Multi-SuCOS>  (103) 
0.759464

>  <merge_set>  (103) 
RdRp_knitwork_green_site_rna_tunnel_impure_fragalysis.sdf

$$$$
ZLBFYANSAYZPQU-UHFFFAOYSA-N
     RDKit          3D

 17 19  0  0  0  0  0  0  0  0999 V2000
  -25.4442  -34.0361  -19.4400 C   0  0  0  0  0  0  0  0  0  0  0  0
  -24.5349  -32.9953  -19.3978 C   0  0  0  0  0  0  0  0  0  0  0  0
  -24.9622  -31.7258  -19.7688 C   0  0  0  0  0  0  0  0  0  0  0  0
  -26.2818  -31.5051  -20.1666 C   0  0  0  0  0  0  0  0  0  0  0  0
  -26.7004  -30.1918  -20.4226 N   0  0  0  0  0  0  0  0  0  0  0  0
  -27.8539  -30.0365  -21.3114 C   0  0  0  0  0  0  0  0  0  0  0  0
  -29.0834  -29.4146  -20.6577 C   0  0  0  0  0  0  0  0  0  0  0  0
  -29.6034  -30.2204  -19.6067 O   0  0  0  0  0  0  0  0  0  0  0  0
  -28.9827  -30.1033  -18.3928 C   0  0  0  0  0  0  0  0  0  0  0  0
  -29.8033  -30.4762  -17.3194 C   0  0  0  0  0  0  0  0  0  0  0  0
  -29.3564  -30.4005  -16.0032 C   0  0  0  0  0  0  0  0  0  0  0  0
  -28.0696  -29.9515  -15.7478 C   0  0  0  0  0  0  0  0  0  0  0  0
  -27.2350  -29.6032  -16.8118 C   0  0  0  0  0  0  0  0  0  0  0  0
  -27.6639  -29.6940  -18.1540 C   0  0  0  0  0  0  0  0  0  0  0  0
  -26.6659  -29.3218  -19.2375 C   0  0  0  0  0  0  0  0  0  0  0  0
  -27.1382  -32.5375  -20.2860 N   0  0  0  0  0  0  0  0  0  0  0  0
  -26.7196  -33.7623  -19.8989 C   0  0  0  0  0  0  0  0  0  0  0  0
  1  2  2  0
  2  3  1  0
  3  4  2  0
  4  5  1  0
  5  6  1  0
  6  7  1  0
  7  8  1  0
  8  9  1  0
  9 10  2  0
 10 11  1  0
 11 12  2  0
 12 13  1  0
 13 14  2  0
 14 15  1  0
  4 16  1  0
 16 17  2  0
 17  1  1  0
 15  5  1  0
 14  9  1  0
M  END
>  <id>  (104) 
218119

>  <inchikey>  (104) 
ZLBFYANSAYZPQU-UHFFFAOYSA-N

>  <alias>  (104) 
None

>  <smiles>  (104) 
c1ccc(N2CCOc3ccccc3C2)nc1

>  <path>  (104) 
/opt/xchem-fragalysis-2/maxwin/BulkDock/SCRATCH/220469/C32376-P144/C32376-P144.minimised.mol

>  <distance_score>  (104) 
0.999442

>  <energy_score>  (104) 
-21.454072

>  <compound>  (104) 
ZLBFYANSAYZPQU-UHFFFAOYSA-N

>  <compound_id>  (104) 
32376

>  <target>  (104) 
Flavi_NS5_RdRp

>  <tags>  (104) 
['Fragmenstein placed', 'RdRp_knitwork_green_site_rna_tunnel_impure_fragalysis.sdf Pose OK', 'Knitwork impure merge', 'acceptable', 'Green Site/RNA tunnel merge']

>  <SLURM_JOB_ID>  (104) 
220469

>  <SLURM_JOB_NAME>  (104) 
BulkDock.place:Flavi_NS5_RdRp:RdRp_knitwork_green_site_rna_tunnel_impure_split4000_batch018

>  <csv_name>  (104) 
RdRp_knitwork_green_site_rna_tunnel_impure_split4000_batch018.csv

>  <scratch_subdir>  (104) 
/opt/xchem-fragalysis-2/maxwin/BulkDock/SCRATCH/220469/C32376-P144

>  <fragmenstein_runtime>  (104) 
2.03403

>  <fragmenstein_outcome>  (104) 
acceptable

>  <fragmenstein_mode>  (104) 
expansion

>  <fragmenstein_error>  (104) 


>  <exports>  (104) 
['/opt/xchem-fragalysis-2/maxwin/BulkDock/OUTPUTS/RdRp_knitwork_green_site_rna_tunnel_impure_split4000_batch018_220469.sdf', '/opt/xchem-fragalysis-2/maxwin/BulkDock/OUTPUTS/RdRp_knitwork_green_site_rna_tunnel_impure_fragalysis.sdf', '/opt/xchem-fragalysis-2/maxwin/RdRp_FFF/syndirella/Retro_OK_batch3.sdf']

>  <Multi-SuCOS>  (104) 
0.843983

>  <merge_set>  (104) 
RdRp_knitwork_green_site_rna_tunnel_impure_fragalysis.sdf

$$$$
UFFLSBNXFSNCOZ-UHFFFAOYSA-N
     RDKit          3D

 14 16  0  0  0  0  0  0  0  0999 V2000
  -29.9845  -30.2137  -20.3668 C   0  0  0  0  0  0  0  0  0  0  0  0
  -28.9973  -29.6617  -21.1904 C   0  0  0  0  0  0  0  0  0  0  0  0
  -27.7626  -29.2250  -20.6683 C   0  0  0  0  0  0  0  0  0  0  0  0
  -26.7595  -28.6528  -21.5436 C   0  0  0  0  0  0  0  0  0  0  0  0
  -26.0857  -27.4726  -21.2881 C   0  0  0  0  0  0  0  0  0  0  0  0
  -25.0940  -27.0599  -22.6329 S   0  0  0  0  0  0  0  0  0  0  0  0
  -25.5760  -28.5126  -23.4090 C   0  0  0  0  0  0  0  0  0  0  0  0
  -26.4762  -29.2346  -22.7734 N   0  0  0  0  0  0  0  0  0  0  0  0
  -27.5340  -29.3799  -19.2875 C   0  0  0  0  0  0  0  0  0  0  0  0
  -26.4587  -29.0911  -18.4715 N   0  0  0  0  0  0  0  0  0  0  0  0
  -26.8478  -29.4982  -17.2840 C   0  0  0  0  0  0  0  0  0  0  0  0
  -28.1056  -30.0115  -17.2223 O   0  0  0  0  0  0  0  0  0  0  0  0
  -28.5411  -29.9461  -18.5150 C   0  0  0  0  0  0  0  0  0  0  0  0
  -29.7736  -30.3711  -18.9948 C   0  0  0  0  0  0  0  0  0  0  0  0
  1  2  2  0
  2  3  1  0
  3  4  1  0
  4  5  2  0
  5  6  1  0
  6  7  1  0
  7  8  2  0
  3  9  2  0
  9 10  1  0
 10 11  2  0
 11 12  1  0
 12 13  1  0
 13 14  2  0
 14  1  1  0
  8  4  1  0
 13  9  1  0
M  END
>  <id>  (105) 
218154

>  <inchikey>  (105) 
UFFLSBNXFSNCOZ-UHFFFAOYSA-N

>  <alias>  (105) 
None

>  <smiles>  (105) 
c1cc(-c2cscn2)c2ncoc2c1

>  <path>  (105) 
/opt/xchem-fragalysis-2/maxwin/BulkDock/SCRATCH/220460/C49938-P136/C49938-P136.minimised.mol

>  <distance_score>  (105) 
0.68182

>  <energy_score>  (105) 
-31.82771

>  <compound>  (105) 
UFFLSBNXFSNCOZ-UHFFFAOYSA-N

>  <compound_id>  (105) 
49938

>  <target>  (105) 
Flavi_NS5_RdRp

>  <tags>  (105) 
['Fragmenstein placed', 'RdRp_knitwork_green_site_rna_tunnel_impure_fragalysis.sdf Pose OK', 'Enamine_Quote_1977854', 'Knitwork impure merge', 'acceptable', 'Green Site/RNA tunnel merge', 'LCD curated YES']

>  <SLURM_JOB_ID>  (105) 
220460

>  <SLURM_JOB_NAME>  (105) 
BulkDock.place:Flavi_NS5_RdRp:RdRp_knitwork_green_site_rna_tunnel_impure_split4000_batch009

>  <csv_name>  (105) 
RdRp_knitwork_green_site_rna_tunnel_impure_split4000_batch009.csv

>  <scratch_subdir>  (105) 
/opt/xchem-fragalysis-2/maxwin/BulkDock/SCRATCH/220460/C49938-P136

>  <fragmenstein_runtime>  (105) 
1.299683

>  <fragmenstein_outcome>  (105) 
acceptable

>  <fragmenstein_mode>  (105) 
expansion

>  <fragmenstein_error>  (105) 


>  <exports>  (105) 
['/opt/xchem-fragalysis-2/maxwin/BulkDock/OUTPUTS/RdRp_knitwork_green_site_rna_tunnel_impure_split4000_batch009_220460.sdf', '/opt/xchem-fragalysis-2/maxwin/BulkDock/OUTPUTS/RdRp_knitwork_green_site_rna_tunnel_impure_fragalysis.sdf', '/opt/xchem-fragalysis-2/maxwin/RdRp_FFF/syndirella/Retro_OK_batch3.sdf']

>  <Multi-SuCOS>  (105) 
0.82594

>  <merge_set>  (105) 
RdRp_knitwork_green_site_rna_tunnel_impure_fragalysis.sdf

$$$$
