Zika_NS5A-x0910_A_1206_1_Zika_NS5A-x0351+A+1112+1
     RDKit          3D

 13 14  0  0  0  0  0  0  0  0999 V2000
  -27.8720  -30.4310  -21.8020 O   0  0  0  0  0  0  0  0  0  0  0  0
  -27.0160  -30.4890  -20.9240 C   0  0  0  0  0  0  0  0  0  0  0  0
  -25.7120  -30.6370  -21.2030 N   0  0  0  0  0  0  0  0  0  0  0  0
  -25.0820  -31.9460  -21.3770 C   0  0  0  0  0  0  0  0  0  0  0  0
  -23.9970  -32.0760  -22.3810 C   0  0  0  0  0  0  0  0  0  0  0  0
  -23.6790  -32.1200  -20.9280 C   0  0  0  0  0  0  0  0  0  0  0  0
  -27.3960  -30.3630  -19.4810 C   0  0  0  0  0  0  0  0  0  0  0  0
  -28.7430  -30.1670  -19.1210 C   0  0  0  0  0  0  0  0  0  0  0  0
  -29.7160  -30.1060  -20.0660 O   0  0  0  0  0  0  0  0  0  0  0  0
  -26.4370  -30.4250  -18.4650 C   0  0  0  0  0  0  0  0  0  0  0  0
  -26.8050  -30.2930  -17.1350 C   0  0  0  0  0  0  0  0  0  0  0  0
  -28.1250  -30.0970  -16.7950 C   0  0  0  0  0  0  0  0  0  0  0  0
  -29.0950  -30.0340  -17.7800 C   0  0  0  0  0  0  0  0  0  0  0  0
  9  8  1  0
  8 13  2  0
 13 12  1  0
 12 11  2  0
 11 10  1  0
 10  7  2  0
  8  7  1  0
  7  2  1  0
  2  1  2  0
  3  2  1  0
  4  3  1  0
  4  6  1  0
  6  5  1  0
  5  4  1  0
M  END
$$$$

