
     RDKit          2D

  0  0  0  0  0  0  0  0  0  0999 V2000
M  END
>  <smiles>  (1) 
nan

>  <error>  (1) 
DistanceError 9.07 Å

>  <∆∆G>  (1) 
nan

>  <∆G_bound>  (1) 
nan

>  <∆G_unbound>  (1) 
nan

>  <comRMSD>  (1) 
nan

>  <N_constrained_atoms>  (1) 
nan

>  <N_unconstrained_atoms>  (1) 
nan

>  <runtime>  (1) 
nan

>  <regarded>  (1) 
[]

>  <disregarded>  (1) 
[]

>  <LE>  (1) 
nan

>  <outcome>  (1) 
too distant

>  <percent_hybrid>  (1) 
nan

$$$$

     RDKit          2D

  0  0  0  0  0  0  0  0  0  0999 V2000
M  END
>  <smiles>  (2) 
nan

>  <error>  (2) 
DistanceError 8.54 Å

>  <∆∆G>  (2) 
nan

>  <∆G_bound>  (2) 
nan

>  <∆G_unbound>  (2) 
nan

>  <comRMSD>  (2) 
nan

>  <N_constrained_atoms>  (2) 
nan

>  <N_unconstrained_atoms>  (2) 
nan

>  <runtime>  (2) 
nan

>  <regarded>  (2) 
[]

>  <disregarded>  (2) 
[]

>  <LE>  (2) 
nan

>  <outcome>  (2) 
too distant

>  <percent_hybrid>  (2) 
nan

$$$$
LIG
     RDKit          3D

 56 59  0  0  0  0  0  0  0  0999 V2000
  -24.1883  -41.2430  -16.9098 O   0  0  0  0  0  0  0  0  0  0  0  0
  -23.9898  -41.9179  -17.8467 C   0  0  0  0  0  0  0  0  0  0  0  0
  -23.9574  -40.2576  -19.7735 C   0  0  0  0  0  0  0  0  0  0  0  0
  -24.7010  -40.1303  -20.9096 N   0  0  0  0  0  0  0  0  0  0  0  0
  -25.5841  -41.1188  -21.0796 N   0  0  0  0  0  0  0  0  0  0  0  0
  -25.3235  -41.9548  -20.0664 C   0  0  0  0  0  0  0  0  0  0  0  0
  -24.3467  -41.4370  -19.1765 C   0  0  0  0  0  0  0  0  0  0  0  0
  -21.9800  -43.3518  -18.0414 C   0  0  0  0  0  0  0  0  0  0  0  0
  -23.4876  -43.3174  -17.9384 N   0  0  0  0  0  0  0  0  0  0  0  0
  -23.1780  -44.3293  -16.8536 C   0  0  0  0  0  0  0  0  0  0  0  0
  -22.8226  -45.7324  -17.3693 C   0  0  0  0  0  0  0  0  0  0  0  0
  -21.4875  -45.7349  -17.8725 O   0  0  0  0  0  0  0  0  0  0  0  0
  -21.2883  -44.5859  -18.6825 C   0  0  2  0  0  0  0  0  0  0  0  0
  -18.8011  -45.0280  -23.2588 O   0  0  0  0  0  0  0  0  0  0  0  0
  -17.8134  -44.9386  -22.6394 C   0  0  0  0  0  0  0  0  0  0  0  0
  -16.5747  -44.0242  -22.8463 N   0  0  0  0  0  0  0  0  0  0  0  0
  -15.3777  -39.8871  -26.4309 C   0  0  0  0  0  0  0  0  0  0  0  0
  -16.2457  -45.3512  -20.7529 O   0  0  0  0  0  0  0  0  0  0  0  0
  -16.4531  -45.3120  -19.3355 C   0  0  0  0  0  0  0  0  0  0  0  0
  -17.6696  -46.1657  -19.1168 C   0  0  0  0  0  0  0  0  0  0  0  0
  -18.5551  -45.8102  -20.2991 C   0  0  2  0  0  0  0  0  0  0  0  0
  -17.4790  -45.7846  -21.3913 C   0  0  1  0  0  0  0  0  0  0  0  0
  -17.2030  -42.7917  -24.8199 C   0  0  0  0  0  0  0  0  0  0  0  0
  -16.3501  -43.0184  -23.7545 C   0  0  0  0  0  0  0  0  0  0  0  0
  -15.2494  -42.2824  -23.5171 N   0  0  0  0  0  0  0  0  0  0  0  0
  -14.9723  -41.2933  -24.3927 C   0  0  0  0  0  0  0  0  0  0  0  0
  -15.7417  -41.0058  -25.5101 C   0  0  0  0  0  0  0  0  0  0  0  0
  -16.8926  -41.7657  -25.7072 C   0  0  0  0  0  0  0  0  0  0  0  0
  -19.8487  -44.3096  -18.7776 N   0  0  0  0  0  0  0  0  0  0  0  0
  -19.2777  -44.4607  -20.1166 C   0  0  0  0  0  0  0  0  0  0  0  0
  -23.2672  -39.4867  -19.4609 H   0  0  0  0  0  0  0  0  0  0  0  0
  -25.8845  -42.8782  -19.9822 H   0  0  0  0  0  0  0  0  0  0  0  0
  -21.4634  -42.9505  -17.1481 H   0  0  0  0  0  0  0  0  0  0  0  0
  -21.7740  -42.5403  -18.7611 H   0  0  0  0  0  0  0  0  0  0  0  0
  -22.5764  -43.9681  -16.0016 H   0  0  0  0  0  0  0  0  0  0  0  0
  -24.1663  -44.4437  -16.3815 H   0  0  0  0  0  0  0  0  0  0  0  0
  -22.8792  -46.4679  -16.5612 H   0  0  0  0  0  0  0  0  0  0  0  0
  -23.5073  -46.0386  -18.1662 H   0  0  0  0  0  0  0  0  0  0  0  0
  -21.7439  -44.7508  -19.6609 H   0  0  0  0  0  0  0  0  0  0  0  0
  -15.9267  -44.1477  -22.0700 H   0  0  0  0  0  0  0  0  0  0  0  0
  -15.8052  -38.9472  -26.0692 H   0  0  0  0  0  0  0  0  0  0  0  0
  -14.2913  -39.7776  -26.5059 H   0  0  0  0  0  0  0  0  0  0  0  0
  -15.7549  -40.0793  -27.4410 H   0  0  0  0  0  0  0  0  0  0  0  0
  -15.5669  -45.6998  -18.8259 H   0  0  0  0  0  0  0  0  0  0  0  0
  -16.6059  -44.2719  -19.0314 H   0  0  0  0  0  0  0  0  0  0  0  0
  -17.3368  -47.2018  -19.2195 H   0  0  0  0  0  0  0  0  0  0  0  0
  -18.1419  -46.0537  -18.1445 H   0  0  0  0  0  0  0  0  0  0  0  0
  -19.3002  -46.5913  -20.4867 H   0  0  0  0  0  0  0  0  0  0  0  0
  -17.2883  -46.8041  -21.7485 H   0  0  0  0  0  0  0  0  0  0  0  0
  -18.0918  -43.3886  -24.9749 H   0  0  0  0  0  0  0  0  0  0  0  0
  -14.0829  -40.7168  -24.1598 H   0  0  0  0  0  0  0  0  0  0  0  0
  -17.5500  -41.5583  -26.5458 H   0  0  0  0  0  0  0  0  0  0  0  0
  -19.6601  -43.3646  -18.4470 H   0  0  0  0  0  0  0  0  0  0  0  0
  -20.0249  -44.3083  -20.9044 H   0  0  0  0  0  0  0  0  0  0  0  0
  -18.5570  -43.6435  -20.2483 H   0  0  0  0  0  0  0  0  0  0  0  0
  -24.6994  -39.3696  -21.5816 H   0  0  0  0  0  0  0  0  0  0  0  0
  2  1  2  0
  3  4  1  0
  3  7  2  0
  4  5  1  0
  5  6  2  0
  6  7  1  0
  7  2  1  0
  8 13  1  0
  8  9  1  0
  9  2  1  0
  9 10  1  0
 10 11  1  0
 11 12  1  0
 12 13  1  0
 16 15  1  0
 15 14  2  0
 18 19  1  0
 18 22  1  0
 19 20  1  0
 20 21  1  0
 21 22  1  0
 22 15  1  0
 23 28  2  0
 23 24  1  0
 24 16  1  0
 24 25  2  0
 25 26  1  0
 26 27  2  0
 27 17  1  0
 27 28  1  0
 29 13  1  0
 30 29  1  0
 30 21  1  0
  3 31  1  0
  6 32  1  0
  8 33  1  0
  8 34  1  0
 10 35  1  0
 10 36  1  0
 11 37  1  0
 11 38  1  0
 13 39  1  6
 16 40  1  0
 17 41  1  0
 17 42  1  0
 17 43  1  0
 19 44  1  0
 19 45  1  0
 20 46  1  0
 20 47  1  0
 21 48  1  1
 22 49  1  6
 23 50  1  0
 26 51  1  0
 28 52  1  0
 29 53  1  0
 30 54  1  0
 30 55  1  0
  4 56  1  0
M  END
>  <smiles>  (3) 
[H]c1n[nH]c([H])c1C(=O)N1C([H])([H])C([H])([H])O[C@]([H])(N([H])C([H])([H])[C@@]2([H])C([H])([H])C([H])([H])O[C@]2([H])C(=O)N([H])c2nc([H])c(C([H])([H])[H])c([H])c2[H])C1([H])[H]

>  <error>  (3) 


>  <∆∆G>  (3) 
-150.872926

>  <∆G_bound>  (3) 
367.43495

>  <∆G_unbound>  (3) 
518.307876

>  <comRMSD>  (3) 
1.694818

>  <N_constrained_atoms>  (3) 
28.0

>  <N_unconstrained_atoms>  (3) 
2.0

>  <runtime>  (3) 
9.645069

>  <regarded>  (3) 
['z0471a', 'd0254a']

>  <disregarded>  (3) 
[]

>  <LE>  (3) 
5.029098

>  <outcome>  (3) 
too moved

>  <percent_hybrid>  (3) 
47.0

$$$$

     RDKit          2D

  0  0  0  0  0  0  0  0  0  0999 V2000
M  END
>  <smiles>  (4) 
nan

>  <error>  (4) 
TimeoutError

>  <∆∆G>  (4) 
nan

>  <∆G_bound>  (4) 
nan

>  <∆G_unbound>  (4) 
nan

>  <comRMSD>  (4) 
nan

>  <N_constrained_atoms>  (4) 
nan

>  <N_unconstrained_atoms>  (4) 
nan

>  <runtime>  (4) 
nan

>  <regarded>  (4) 
[]

>  <disregarded>  (4) 
[]

>  <LE>  (4) 
nan

>  <outcome>  (4) 
timeout

>  <percent_hybrid>  (4) 
nan

$$$$

     RDKit          2D

  0  0  0  0  0  0  0  0  0  0999 V2000
M  END
>  <smiles>  (5) 
nan

>  <error>  (5) 
DistanceError 6.02 Å

>  <∆∆G>  (5) 
nan

>  <∆G_bound>  (5) 
nan

>  <∆G_unbound>  (5) 
nan

>  <comRMSD>  (5) 
nan

>  <N_constrained_atoms>  (5) 
nan

>  <N_unconstrained_atoms>  (5) 
nan

>  <runtime>  (5) 
nan

>  <regarded>  (5) 
[]

>  <disregarded>  (5) 
[]

>  <LE>  (5) 
nan

>  <outcome>  (5) 
too distant

>  <percent_hybrid>  (5) 
nan

$$$$

     RDKit          2D

  0  0  0  0  0  0  0  0  0  0999 V2000
M  END
>  <smiles>  (6) 
nan

>  <error>  (6) 
DistanceError 7.81 Å

>  <∆∆G>  (6) 
nan

>  <∆G_bound>  (6) 
nan

>  <∆G_unbound>  (6) 
nan

>  <comRMSD>  (6) 
nan

>  <N_constrained_atoms>  (6) 
nan

>  <N_unconstrained_atoms>  (6) 
nan

>  <runtime>  (6) 
nan

>  <regarded>  (6) 
[]

>  <disregarded>  (6) 
[]

>  <LE>  (6) 
nan

>  <outcome>  (6) 
too distant

>  <percent_hybrid>  (6) 
nan

$$$$

     RDKit          2D

  0  0  0  0  0  0  0  0  0  0999 V2000
M  END
>  <smiles>  (7) 
nan

>  <error>  (7) 
DistanceError 6.48 Å

>  <∆∆G>  (7) 
nan

>  <∆G_bound>  (7) 
nan

>  <∆G_unbound>  (7) 
nan

>  <comRMSD>  (7) 
nan

>  <N_constrained_atoms>  (7) 
nan

>  <N_unconstrained_atoms>  (7) 
nan

>  <runtime>  (7) 
nan

>  <regarded>  (7) 
[]

>  <disregarded>  (7) 
[]

>  <LE>  (7) 
nan

>  <outcome>  (7) 
too distant

>  <percent_hybrid>  (7) 
nan

$$$$

     RDKit          2D

  0  0  0  0  0  0  0  0  0  0999 V2000
M  END
>  <smiles>  (8) 
nan

>  <error>  (8) 
DistanceError 5.86 Å

>  <∆∆G>  (8) 
nan

>  <∆G_bound>  (8) 
nan

>  <∆G_unbound>  (8) 
nan

>  <comRMSD>  (8) 
nan

>  <N_constrained_atoms>  (8) 
nan

>  <N_unconstrained_atoms>  (8) 
nan

>  <runtime>  (8) 
nan

>  <regarded>  (8) 
[]

>  <disregarded>  (8) 
[]

>  <LE>  (8) 
nan

>  <outcome>  (8) 
too distant

>  <percent_hybrid>  (8) 
nan

$$$$

     RDKit          2D

  0  0  0  0  0  0  0  0  0  0999 V2000
M  END
>  <smiles>  (9) 
nan

>  <error>  (9) 
DistanceError 6.68 Å

>  <∆∆G>  (9) 
nan

>  <∆G_bound>  (9) 
nan

>  <∆G_unbound>  (9) 
nan

>  <comRMSD>  (9) 
nan

>  <N_constrained_atoms>  (9) 
nan

>  <N_unconstrained_atoms>  (9) 
nan

>  <runtime>  (9) 
nan

>  <regarded>  (9) 
[]

>  <disregarded>  (9) 
[]

>  <LE>  (9) 
nan

>  <outcome>  (9) 
too distant

>  <percent_hybrid>  (9) 
nan

$$$$

     RDKit          2D

  0  0  0  0  0  0  0  0  0  0999 V2000
M  END
>  <smiles>  (10) 
nan

>  <error>  (10) 
DistanceError 12.60 Å

>  <∆∆G>  (10) 
nan

>  <∆G_bound>  (10) 
nan

>  <∆G_unbound>  (10) 
nan

>  <comRMSD>  (10) 
nan

>  <N_constrained_atoms>  (10) 
nan

>  <N_unconstrained_atoms>  (10) 
nan

>  <runtime>  (10) 
nan

>  <regarded>  (10) 
[]

>  <disregarded>  (10) 
[]

>  <LE>  (10) 
nan

>  <outcome>  (10) 
too distant

>  <percent_hybrid>  (10) 
nan

$$$$

     RDKit          2D

  0  0  0  0  0  0  0  0  0  0999 V2000
M  END
>  <smiles>  (11) 
nan

>  <error>  (11) 
DistanceError 7.53 Å

>  <∆∆G>  (11) 
nan

>  <∆G_bound>  (11) 
nan

>  <∆G_unbound>  (11) 
nan

>  <comRMSD>  (11) 
nan

>  <N_constrained_atoms>  (11) 
nan

>  <N_unconstrained_atoms>  (11) 
nan

>  <runtime>  (11) 
nan

>  <regarded>  (11) 
[]

>  <disregarded>  (11) 
[]

>  <LE>  (11) 
nan

>  <outcome>  (11) 
too distant

>  <percent_hybrid>  (11) 
nan

$$$$

     RDKit          2D

  0  0  0  0  0  0  0  0  0  0999 V2000
M  END
>  <smiles>  (12) 
nan

>  <error>  (12) 
DistanceError 10.46 Å

>  <∆∆G>  (12) 
nan

>  <∆G_bound>  (12) 
nan

>  <∆G_unbound>  (12) 
nan

>  <comRMSD>  (12) 
nan

>  <N_constrained_atoms>  (12) 
nan

>  <N_unconstrained_atoms>  (12) 
nan

>  <runtime>  (12) 
nan

>  <regarded>  (12) 
[]

>  <disregarded>  (12) 
[]

>  <LE>  (12) 
nan

>  <outcome>  (12) 
too distant

>  <percent_hybrid>  (12) 
nan

$$$$
LIG
     RDKit          3D

 42 44  0  0  0  0  0  0  0  0999 V2000
  -26.1042  -43.1447  -20.1120 O   0  0  0  0  0  0  0  0  0  0  0  0
  -25.1860  -42.4052  -19.7319 C   0  0  0  0  0  0  0  0  0  0  0  0
  -25.1195  -43.6642  -16.2603 C   0  0  0  0  0  0  0  0  0  0  0  0
  -24.9539  -40.9025  -21.9510 C   0  0  0  0  0  0  0  0  0  0  0  0
  -25.7463  -39.7927  -22.4754 N   0  0  0  0  0  0  0  0  0  0  0  0
  -26.9936  -40.0358  -21.8763 N   0  0  0  0  0  0  0  0  0  0  0  0
  -26.6601  -40.4694  -20.5154 C   0  0  0  0  0  0  0  0  0  0  0  0
  -25.1548  -40.9663  -20.4315 C   0  0  0  0  0  0  0  0  0  0  0  0
  -22.9840  -42.9071  -18.3599 C   0  0  1  0  0  0  0  0  0  0  0  0
  -24.4682  -42.7789  -18.5594 N   0  0  0  0  0  0  0  0  0  0  0  0
  -25.1369  -43.9035  -17.7768 C   0  0  1  0  0  0  0  0  0  0  0  0
  -24.5762  -45.3091  -18.1458 C   0  0  0  0  0  0  0  0  0  0  0  0
  -23.1126  -45.4827  -18.0410 N   0  0  0  0  0  0  0  0  0  0  0  0
  -22.4657  -44.3461  -18.7178 C   0  0  0  0  0  0  0  0  0  0  0  0
  -24.3255  -39.8735  -19.7239 C   0  0  0  0  0  0  0  0  0  0  0  0
  -22.8796  -39.8712  -19.8484 N   0  0  0  0  0  0  0  0  0  0  0  0
  -22.1819  -40.4530  -18.7235 C   0  0  0  0  0  0  0  0  0  0  0  0
  -21.9291  -41.9289  -18.8896 C   0  0  0  0  0  0  0  0  0  0  0  0
  -22.7641  -45.3597  -16.6384 O   0  0  0  0  0  0  0  0  0  0  0  0
  -24.1208  -43.5719  -15.8308 H   0  0  0  0  0  0  0  0  0  0  0  0
  -25.6354  -42.7314  -16.0128 H   0  0  0  0  0  0  0  0  0  0  0  0
  -25.6244  -44.4811  -15.7339 H   0  0  0  0  0  0  0  0  0  0  0  0
  -25.3368  -41.7990  -22.4458 H   0  0  0  0  0  0  0  0  0  0  0  0
  -23.9346  -40.6553  -22.2429 H   0  0  0  0  0  0  0  0  0  0  0  0
  -25.8036  -39.8697  -23.4958 H   0  0  0  0  0  0  0  0  0  0  0  0
  -27.6088  -39.2177  -21.8547 H   0  0  0  0  0  0  0  0  0  0  0  0
  -26.7810  -39.5722  -19.9111 H   0  0  0  0  0  0  0  0  0  0  0  0
  -27.4082  -41.2084  -20.2184 H   0  0  0  0  0  0  0  0  0  0  0  0
  -22.8688  -42.7947  -17.2751 H   0  0  0  0  0  0  0  0  0  0  0  0
  -26.1966  -43.9111  -18.0328 H   0  0  0  0  0  0  0  0  0  0  0  0
  -25.0761  -46.0830  -17.5506 H   0  0  0  0  0  0  0  0  0  0  0  0
  -24.8287  -45.5162  -19.1913 H   0  0  0  0  0  0  0  0  0  0  0  0
  -22.5798  -44.4855  -19.7950 H   0  0  0  0  0  0  0  0  0  0  0  0
  -21.3870  -44.4158  -18.5252 H   0  0  0  0  0  0  0  0  0  0  0  0
  -24.5765  -39.8066  -18.6625 H   0  0  0  0  0  0  0  0  0  0  0  0
  -24.6334  -38.8963  -20.1205 H   0  0  0  0  0  0  0  0  0  0  0  0
  -22.5230  -40.1489  -20.7540 H   0  0  0  0  0  0  0  0  0  0  0  0
  -21.2063  -39.9523  -18.6805 H   0  0  0  0  0  0  0  0  0  0  0  0
  -22.6567  -40.2302  -17.7605 H   0  0  0  0  0  0  0  0  0  0  0  0
  -21.5931  -42.1633  -19.8996 H   0  0  0  0  0  0  0  0  0  0  0  0
  -21.0192  -42.1329  -18.3010 H   0  0  0  0  0  0  0  0  0  0  0  0
  -22.3599  -46.2276  -16.4424 H   0  0  0  0  0  0  0  0  0  0  0  0
  2  1  2  0
  4  5  1  0
  4  8  1  0
  5  6  1  0
  6  7  1  0
  7  8  1  0
  8  2  1  0
  9 14  1  0
  9 10  1  0
 10  2  1  0
 10 11  1  0
 11 12  1  0
 12 13  1  0
 13 14  1  0
 15 16  1  0
 16 17  1  0
 17 18  1  0
  8 15  1  0
  9 18  1  0
 11  3  1  0
 13 19  1  0
  3 20  1  0
  3 21  1  0
  3 22  1  0
  4 23  1  0
  4 24  1  0
  5 25  1  0
  6 26  1  0
  7 27  1  0
  7 28  1  0
  9 29  1  1
 11 30  1  6
 12 31  1  0
 12 32  1  0
 14 33  1  0
 14 34  1  0
 15 35  1  0
 15 36  1  0
 16 37  1  0
 17 38  1  0
 17 39  1  0
 18 40  1  0
 18 41  1  0
 19 42  1  0
M  END
>  <smiles>  (13) 
[H]ON1C([H])([H])[C@]2([H])N(C(=O)C3(C([H])([H])N([H])N([H])C3([H])[H])C([H])([H])N([H])C([H])([H])C2([H])[H])[C@]([H])(C([H])([H])[H])C1([H])[H]

>  <error>  (13) 


>  <∆∆G>  (13) 
-65.274143

>  <∆G_bound>  (13) 
246.879471

>  <∆G_unbound>  (13) 
312.153613

>  <comRMSD>  (13) 
1.729415

>  <N_constrained_atoms>  (13) 
19.0

>  <N_unconstrained_atoms>  (13) 
0.0

>  <runtime>  (13) 
1.432086

>  <regarded>  (13) 
['z0471a', 'z0193a']

>  <disregarded>  (13) 
[]

>  <LE>  (13) 
3.435481

>  <outcome>  (13) 
too moved

>  <percent_hybrid>  (13) 
32.0

$$$$

     RDKit          2D

  0  0  0  0  0  0  0  0  0  0999 V2000
M  END
>  <smiles>  (14) 
nan

>  <error>  (14) 
RecursionError maximum recursion depth exceeded while calling a Python object

>  <∆∆G>  (14) 
nan

>  <∆G_bound>  (14) 
nan

>  <∆G_unbound>  (14) 
nan

>  <comRMSD>  (14) 
nan

>  <N_constrained_atoms>  (14) 
nan

>  <N_unconstrained_atoms>  (14) 
nan

>  <runtime>  (14) 
nan

>  <regarded>  (14) 
[]

>  <disregarded>  (14) 
[]

>  <LE>  (14) 
nan

>  <outcome>  (14) 
crashed

>  <percent_hybrid>  (14) 
nan

$$$$

     RDKit          2D

  0  0  0  0  0  0  0  0  0  0999 V2000
M  END
>  <smiles>  (15) 
nan

>  <error>  (15) 
DistanceError 9.64 Å

>  <∆∆G>  (15) 
nan

>  <∆G_bound>  (15) 
nan

>  <∆G_unbound>  (15) 
nan

>  <comRMSD>  (15) 
nan

>  <N_constrained_atoms>  (15) 
nan

>  <N_unconstrained_atoms>  (15) 
nan

>  <runtime>  (15) 
nan

>  <regarded>  (15) 
[]

>  <disregarded>  (15) 
[]

>  <LE>  (15) 
nan

>  <outcome>  (15) 
too distant

>  <percent_hybrid>  (15) 
nan

$$$$

     RDKit          2D

  0  0  0  0  0  0  0  0  0  0999 V2000
M  END
>  <smiles>  (16) 
nan

>  <error>  (16) 
DistanceError 5.89 Å

>  <∆∆G>  (16) 
nan

>  <∆G_bound>  (16) 
nan

>  <∆G_unbound>  (16) 
nan

>  <comRMSD>  (16) 
nan

>  <N_constrained_atoms>  (16) 
nan

>  <N_unconstrained_atoms>  (16) 
nan

>  <runtime>  (16) 
nan

>  <regarded>  (16) 
[]

>  <disregarded>  (16) 
[]

>  <LE>  (16) 
nan

>  <outcome>  (16) 
too distant

>  <percent_hybrid>  (16) 
nan

$$$$

     RDKit          2D

  0  0  0  0  0  0  0  0  0  0999 V2000
M  END
>  <smiles>  (17) 
nan

>  <error>  (17) 
DistanceError 5.20 Å

>  <∆∆G>  (17) 
nan

>  <∆G_bound>  (17) 
nan

>  <∆G_unbound>  (17) 
nan

>  <comRMSD>  (17) 
nan

>  <N_constrained_atoms>  (17) 
nan

>  <N_unconstrained_atoms>  (17) 
nan

>  <runtime>  (17) 
nan

>  <regarded>  (17) 
[]

>  <disregarded>  (17) 
[]

>  <LE>  (17) 
nan

>  <outcome>  (17) 
too distant

>  <percent_hybrid>  (17) 
nan

$$$$

     RDKit          2D

  0  0  0  0  0  0  0  0  0  0999 V2000
M  END
>  <smiles>  (18) 
nan

>  <error>  (18) 
DistanceError 5.68 Å

>  <∆∆G>  (18) 
nan

>  <∆G_bound>  (18) 
nan

>  <∆G_unbound>  (18) 
nan

>  <comRMSD>  (18) 
nan

>  <N_constrained_atoms>  (18) 
nan

>  <N_unconstrained_atoms>  (18) 
nan

>  <runtime>  (18) 
nan

>  <regarded>  (18) 
[]

>  <disregarded>  (18) 
[]

>  <LE>  (18) 
nan

>  <outcome>  (18) 
too distant

>  <percent_hybrid>  (18) 
nan

$$$$

     RDKit          2D

  0  0  0  0  0  0  0  0  0  0999 V2000
M  END
>  <smiles>  (19) 
nan

>  <error>  (19) 
DistanceError 5.54 Å

>  <∆∆G>  (19) 
nan

>  <∆G_bound>  (19) 
nan

>  <∆G_unbound>  (19) 
nan

>  <comRMSD>  (19) 
nan

>  <N_constrained_atoms>  (19) 
nan

>  <N_unconstrained_atoms>  (19) 
nan

>  <runtime>  (19) 
nan

>  <regarded>  (19) 
[]

>  <disregarded>  (19) 
[]

>  <LE>  (19) 
nan

>  <outcome>  (19) 
too distant

>  <percent_hybrid>  (19) 
nan

$$$$

     RDKit          2D

  0  0  0  0  0  0  0  0  0  0999 V2000
M  END
>  <smiles>  (20) 
nan

>  <error>  (20) 
DistanceError 5.61 Å

>  <∆∆G>  (20) 
nan

>  <∆G_bound>  (20) 
nan

>  <∆G_unbound>  (20) 
nan

>  <comRMSD>  (20) 
nan

>  <N_constrained_atoms>  (20) 
nan

>  <N_unconstrained_atoms>  (20) 
nan

>  <runtime>  (20) 
nan

>  <regarded>  (20) 
[]

>  <disregarded>  (20) 
[]

>  <LE>  (20) 
nan

>  <outcome>  (20) 
too distant

>  <percent_hybrid>  (20) 
nan

$$$$

     RDKit          2D

  0  0  0  0  0  0  0  0  0  0999 V2000
M  END
>  <smiles>  (21) 
nan

>  <error>  (21) 
DistanceError 7.35 Å

>  <∆∆G>  (21) 
nan

>  <∆G_bound>  (21) 
nan

>  <∆G_unbound>  (21) 
nan

>  <comRMSD>  (21) 
nan

>  <N_constrained_atoms>  (21) 
nan

>  <N_unconstrained_atoms>  (21) 
nan

>  <runtime>  (21) 
nan

>  <regarded>  (21) 
[]

>  <disregarded>  (21) 
[]

>  <LE>  (21) 
nan

>  <outcome>  (21) 
too distant

>  <percent_hybrid>  (21) 
nan

$$$$

     RDKit          2D

  0  0  0  0  0  0  0  0  0  0999 V2000
M  END
>  <smiles>  (22) 
nan

>  <error>  (22) 
DistanceError 5.61 Å

>  <∆∆G>  (22) 
nan

>  <∆G_bound>  (22) 
nan

>  <∆G_unbound>  (22) 
nan

>  <comRMSD>  (22) 
nan

>  <N_constrained_atoms>  (22) 
nan

>  <N_unconstrained_atoms>  (22) 
nan

>  <runtime>  (22) 
nan

>  <regarded>  (22) 
[]

>  <disregarded>  (22) 
[]

>  <LE>  (22) 
nan

>  <outcome>  (22) 
too distant

>  <percent_hybrid>  (22) 
nan

$$$$

     RDKit          2D

  0  0  0  0  0  0  0  0  0  0999 V2000
M  END
>  <smiles>  (23) 
nan

>  <error>  (23) 
DistanceError 5.65 Å

>  <∆∆G>  (23) 
nan

>  <∆G_bound>  (23) 
nan

>  <∆G_unbound>  (23) 
nan

>  <comRMSD>  (23) 
nan

>  <N_constrained_atoms>  (23) 
nan

>  <N_unconstrained_atoms>  (23) 
nan

>  <runtime>  (23) 
nan

>  <regarded>  (23) 
[]

>  <disregarded>  (23) 
[]

>  <LE>  (23) 
nan

>  <outcome>  (23) 
too distant

>  <percent_hybrid>  (23) 
nan

$$$$

     RDKit          2D

  0  0  0  0  0  0  0  0  0  0999 V2000
M  END
>  <smiles>  (24) 
nan

>  <error>  (24) 
DistanceError 6.01 Å

>  <∆∆G>  (24) 
nan

>  <∆G_bound>  (24) 
nan

>  <∆G_unbound>  (24) 
nan

>  <comRMSD>  (24) 
nan

>  <N_constrained_atoms>  (24) 
nan

>  <N_unconstrained_atoms>  (24) 
nan

>  <runtime>  (24) 
nan

>  <regarded>  (24) 
[]

>  <disregarded>  (24) 
[]

>  <LE>  (24) 
nan

>  <outcome>  (24) 
too distant

>  <percent_hybrid>  (24) 
nan

$$$$

     RDKit          2D

  0  0  0  0  0  0  0  0  0  0999 V2000
M  END
>  <smiles>  (25) 
nan

>  <error>  (25) 
DistanceError 6.04 Å

>  <∆∆G>  (25) 
nan

>  <∆G_bound>  (25) 
nan

>  <∆G_unbound>  (25) 
nan

>  <comRMSD>  (25) 
nan

>  <N_constrained_atoms>  (25) 
nan

>  <N_unconstrained_atoms>  (25) 
nan

>  <runtime>  (25) 
nan

>  <regarded>  (25) 
[]

>  <disregarded>  (25) 
[]

>  <LE>  (25) 
nan

>  <outcome>  (25) 
too distant

>  <percent_hybrid>  (25) 
nan

$$$$

     RDKit          2D

  0  0  0  0  0  0  0  0  0  0999 V2000
M  END
>  <smiles>  (26) 
nan

>  <error>  (26) 
DistanceError 6.30 Å

>  <∆∆G>  (26) 
nan

>  <∆G_bound>  (26) 
nan

>  <∆G_unbound>  (26) 
nan

>  <comRMSD>  (26) 
nan

>  <N_constrained_atoms>  (26) 
nan

>  <N_unconstrained_atoms>  (26) 
nan

>  <runtime>  (26) 
nan

>  <regarded>  (26) 
[]

>  <disregarded>  (26) 
[]

>  <LE>  (26) 
nan

>  <outcome>  (26) 
too distant

>  <percent_hybrid>  (26) 
nan

$$$$

     RDKit          2D

  0  0  0  0  0  0  0  0  0  0999 V2000
M  END
>  <smiles>  (27) 
nan

>  <error>  (27) 
DistanceError 5.44 Å

>  <∆∆G>  (27) 
nan

>  <∆G_bound>  (27) 
nan

>  <∆G_unbound>  (27) 
nan

>  <comRMSD>  (27) 
nan

>  <N_constrained_atoms>  (27) 
nan

>  <N_unconstrained_atoms>  (27) 
nan

>  <runtime>  (27) 
nan

>  <regarded>  (27) 
[]

>  <disregarded>  (27) 
[]

>  <LE>  (27) 
nan

>  <outcome>  (27) 
too distant

>  <percent_hybrid>  (27) 
nan

$$$$

     RDKit          2D

  0  0  0  0  0  0  0  0  0  0999 V2000
M  END
>  <smiles>  (28) 
nan

>  <error>  (28) 
DistanceError 5.53 Å

>  <∆∆G>  (28) 
nan

>  <∆G_bound>  (28) 
nan

>  <∆G_unbound>  (28) 
nan

>  <comRMSD>  (28) 
nan

>  <N_constrained_atoms>  (28) 
nan

>  <N_unconstrained_atoms>  (28) 
nan

>  <runtime>  (28) 
nan

>  <regarded>  (28) 
[]

>  <disregarded>  (28) 
[]

>  <LE>  (28) 
nan

>  <outcome>  (28) 
too distant

>  <percent_hybrid>  (28) 
nan

$$$$

     RDKit          2D

  0  0  0  0  0  0  0  0  0  0999 V2000
M  END
>  <smiles>  (29) 
nan

>  <error>  (29) 
DistanceError 6.38 Å

>  <∆∆G>  (29) 
nan

>  <∆G_bound>  (29) 
nan

>  <∆G_unbound>  (29) 
nan

>  <comRMSD>  (29) 
nan

>  <N_constrained_atoms>  (29) 
nan

>  <N_unconstrained_atoms>  (29) 
nan

>  <runtime>  (29) 
nan

>  <regarded>  (29) 
[]

>  <disregarded>  (29) 
[]

>  <LE>  (29) 
nan

>  <outcome>  (29) 
too distant

>  <percent_hybrid>  (29) 
nan

$$$$

     RDKit          2D

  0  0  0  0  0  0  0  0  0  0999 V2000
M  END
>  <smiles>  (30) 
nan

>  <error>  (30) 
DistanceError 9.07 Å

>  <∆∆G>  (30) 
nan

>  <∆G_bound>  (30) 
nan

>  <∆G_unbound>  (30) 
nan

>  <comRMSD>  (30) 
nan

>  <N_constrained_atoms>  (30) 
nan

>  <N_unconstrained_atoms>  (30) 
nan

>  <runtime>  (30) 
nan

>  <regarded>  (30) 
[]

>  <disregarded>  (30) 
[]

>  <LE>  (30) 
nan

>  <outcome>  (30) 
too distant

>  <percent_hybrid>  (30) 
nan

$$$$
LIG
     RDKit          3D

 39 41  0  0  0  0  0  0  0  0999 V2000
  -15.1160  -42.5119  -22.3024 C   0  0  0  0  0  0  0  0  0  0  0  0
  -14.6395  -41.1272  -22.5517 C   0  0  0  0  0  0  0  0  0  0  0  0
  -13.8444  -40.4149  -21.6774 C   0  0  0  0  0  0  0  0  0  0  0  0
  -13.5510  -39.2421  -22.2875 N   0  0  0  0  0  0  0  0  0  0  0  0
  -14.1172  -39.1106  -23.4894 N   0  0  0  0  0  0  0  0  0  0  0  0
  -14.7967  -40.2561  -23.6887 C   0  0  0  0  0  0  0  0  0  0  0  0
  -15.8149  -41.9717  -25.2937 C   0  0  0  0  0  0  0  0  0  0  0  0
  -15.4149  -40.4957  -25.0678 C   0  0  1  0  0  0  0  0  0  0  0  0
  -16.5776  -39.5533  -25.5816 C   0  0  1  0  0  0  0  0  0  0  0  0
  -16.7639  -39.8533  -27.1164 C   0  0  0  0  0  0  0  0  0  0  0  0
  -16.2093  -41.1296  -27.5358 N   0  0  0  0  0  0  0  0  0  0  0  0
  -16.4923  -42.2129  -26.6362 C   0  0  0  0  0  0  0  0  0  0  0  0
  -17.9051  -39.8019  -24.8252 C   0  0  0  0  0  0  0  0  0  0  0  0
  -16.2619  -38.0477  -25.4327 C   0  0  0  0  0  0  0  0  0  0  0  0
  -17.4326  -37.1308  -25.7756 C   0  0  0  0  0  0  0  0  0  0  0  0
  -18.6792  -37.5188  -25.0058 C   0  0  0  0  0  0  0  0  0  0  0  0
  -19.0117  -38.9208  -25.2517 N   0  0  0  0  0  0  0  0  0  0  0  0
  -14.8234  -42.8526  -21.3027 H   0  0  0  0  0  0  0  0  0  0  0  0
  -16.2075  -42.5616  -22.3508 H   0  0  0  0  0  0  0  0  0  0  0  0
  -14.6834  -43.2143  -23.0201 H   0  0  0  0  0  0  0  0  0  0  0  0
  -13.4422  -40.6613  -20.7050 H   0  0  0  0  0  0  0  0  0  0  0  0
  -16.5035  -42.3176  -24.5173 H   0  0  0  0  0  0  0  0  0  0  0  0
  -14.9164  -42.5947  -25.2231 H   0  0  0  0  0  0  0  0  0  0  0  0
  -14.5642  -40.3065  -25.7452 H   0  0  0  0  0  0  0  0  0  0  0  0
  -17.8194  -39.8109  -27.4080 H   0  0  0  0  0  0  0  0  0  0  0  0
  -16.2605  -39.0858  -27.7113 H   0  0  0  0  0  0  0  0  0  0  0  0
  -16.2596  -41.3182  -28.5301 H   0  0  0  0  0  0  0  0  0  0  0  0
  -16.1201  -43.1479  -27.0572 H   0  0  0  0  0  0  0  0  0  0  0  0
  -17.5713  -42.3436  -26.5054 H   0  0  0  0  0  0  0  0  0  0  0  0
  -17.7499  -39.6843  -23.7446 H   0  0  0  0  0  0  0  0  0  0  0  0
  -18.2535  -40.8282  -24.9693 H   0  0  0  0  0  0  0  0  0  0  0  0
  -15.4452  -37.7991  -26.1065 H   0  0  0  0  0  0  0  0  0  0  0  0
  -15.9623  -37.8061  -24.4098 H   0  0  0  0  0  0  0  0  0  0  0  0
  -17.1642  -36.0921  -25.5508 H   0  0  0  0  0  0  0  0  0  0  0  0
  -17.6343  -37.1750  -26.8517 H   0  0  0  0  0  0  0  0  0  0  0  0
  -18.5423  -37.3409  -23.9322 H   0  0  0  0  0  0  0  0  0  0  0  0
  -19.5168  -36.8923  -25.3310 H   0  0  0  0  0  0  0  0  0  0  0  0
  -19.8379  -39.1546  -24.7013 H   0  0  0  0  0  0  0  0  0  0  0  0
  -12.9629  -38.4898  -21.9450 H   0  0  0  0  0  0  0  0  0  0  0  0
  2  1  1  0
  2  3  2  0
  2  6  1  0
  3  4  1  0
  4  5  1  0
  5  6  2  0
  6  8  1  0
  7 12  1  0
  7  8  1  0
  8  9  1  0
  9 10  1  6
 10 11  1  0
 11 12  1  0
 13 17  1  0
 14 15  1  0
 15 16  1  0
 16 17  1  0
  9 13  1  0
  9 14  1  0
  1 18  1  0
  1 19  1  0
  1 20  1  0
  3 21  1  0
  7 22  1  0
  7 23  1  0
  8 24  1  6
 10 25  1  0
 10 26  1  0
 11 27  1  0
 12 28  1  0
 12 29  1  0
 13 30  1  0
 13 31  1  0
 14 32  1  0
 14 33  1  0
 15 34  1  0
 15 35  1  0
 16 36  1  0
 16 37  1  0
 17 38  1  0
  4 39  1  0
M  END
>  <smiles>  (31) 
[H]c1[nH]nc([C@@]2([H])C([H])([H])C([H])([H])N([H])C([H])([H])[C@@]23C([H])([H])N([H])C([H])([H])C([H])([H])C3([H])[H])c1C([H])([H])[H]

>  <error>  (31) 


>  <∆∆G>  (31) 
-44.036006

>  <∆G_bound>  (31) 
330.058492

>  <∆G_unbound>  (31) 
374.094499

>  <comRMSD>  (31) 
1.002542

>  <N_constrained_atoms>  (31) 
17.0

>  <N_unconstrained_atoms>  (31) 
0.0

>  <runtime>  (31) 
1.203324

>  <regarded>  (31) 
['d0160a', 'd0191a']

>  <disregarded>  (31) 
[]

>  <LE>  (31) 
2.590353

>  <outcome>  (31) 
too moved

>  <percent_hybrid>  (31) 
30.0

$$$$
LIG
     RDKit          3D

 35 38  0  0  0  0  0  0  0  0999 V2000
  -18.1780  -45.3064  -23.2382 O   0  0  0  0  0  0  0  0  0  0  0  0
  -17.4253  -45.1872  -22.3429 C   0  0  0  0  0  0  0  0  0  0  0  0
  -16.2616  -44.1480  -22.1199 N   0  0  0  0  0  0  0  0  0  0  0  0
  -14.4907  -41.1873  -22.6896 C   0  0  0  0  0  0  0  0  0  0  0  0
  -13.6094  -40.4448  -22.0195 C   0  0  0  0  0  0  0  0  0  0  0  0
  -13.2847  -39.3013  -22.6959 N   0  0  0  0  0  0  0  0  0  0  0  0
  -13.9295  -39.2972  -23.7832 N   0  0  0  0  0  0  0  0  0  0  0  0
  -14.7217  -40.4374  -23.8946 C   0  0  0  0  0  0  0  0  0  0  0  0
  -16.3956  -41.8620  -25.0013 C   0  0  0  0  0  0  0  0  0  0  0  0
  -15.5218  -40.7078  -24.9409 C   0  0  0  0  0  0  0  0  0  0  0  0
  -15.5481  -39.8155  -26.1028 C   0  0  0  0  0  0  0  0  0  0  0  0
  -16.3905  -40.0450  -27.1224 C   0  0  0  0  0  0  0  0  0  0  0  0
  -17.2972  -41.0746  -27.1916 N   0  0  0  0  0  0  0  0  0  0  0  0
  -17.2852  -41.9073  -26.1976 C   0  0  0  0  0  0  0  0  0  0  0  0
  -16.4005  -45.7154  -20.1403 O   0  0  0  0  0  0  0  0  0  0  0  0
  -16.9405  -44.9823  -19.0337 C   0  0  0  0  0  0  0  0  0  0  0  0
  -18.3524  -45.4819  -18.8750 C   0  0  0  0  0  0  0  0  0  0  0  0
  -18.7830  -45.7257  -20.2994 C   0  0  0  0  0  0  0  0  0  0  0  0
  -17.4838  -46.0251  -21.0416 C   0  0  1  0  0  0  0  0  0  0  0  0
  -16.5744  -42.8769  -24.1516 C   0  0  0  0  0  0  0  0  0  0  0  0
  -15.8830  -43.0586  -22.8671 C   0  0  0  0  0  0  0  0  0  0  0  0
  -14.9991  -42.3622  -22.2568 N   0  0  0  0  0  0  0  0  0  0  0  0
  -15.7537  -44.3825  -21.2715 H   0  0  0  0  0  0  0  0  0  0  0  0
  -13.1722  -40.6737  -21.0597 H   0  0  0  0  0  0  0  0  0  0  0  0
  -14.8671  -38.9727  -26.1529 H   0  0  0  0  0  0  0  0  0  0  0  0
  -16.3878  -39.3745  -27.9782 H   0  0  0  0  0  0  0  0  0  0  0  0
  -18.0187  -42.7250  -26.2173 H   0  0  0  0  0  0  0  0  0  0  0  0
  -16.3160  -45.1463  -18.1533 H   0  0  0  0  0  0  0  0  0  0  0  0
  -16.9218  -43.9144  -19.2779 H   0  0  0  0  0  0  0  0  0  0  0  0
  -18.3535  -46.4251  -18.3236 H   0  0  0  0  0  0  0  0  0  0  0  0
  -18.9980  -44.7781  -18.3441 H   0  0  0  0  0  0  0  0  0  0  0  0
  -19.4948  -46.5534  -20.3773 H   0  0  0  0  0  0  0  0  0  0  0  0
  -19.2838  -44.8358  -20.6994 H   0  0  0  0  0  0  0  0  0  0  0  0
  -17.3970  -47.0820  -21.3138 H   0  0  0  0  0  0  0  0  0  0  0  0
  -17.2818  -43.6481  -24.4183 H   0  0  0  0  0  0  0  0  0  0  0  0
  3  2  1  0
  2  1  2  0
  4  5  2  0
  4  8  1  0
  5  6  1  0
  6  7  2  0
  7  8  1  0
  8 10  2  0
  9 14  1  0
  9 10  1  0
 10 11  1  0
 11 12  2  0
 12 13  1  0
 13 14  2  0
 15 16  1  0
 15 19  1  0
 16 17  1  0
 17 18  1  0
 18 19  1  0
 19  2  1  0
 20 21  1  0
 21  3  1  0
 21 22  2  0
  9 20  2  0
 22  4  1  0
  3 23  1  0
  5 24  1  0
 11 25  1  0
 12 26  1  0
 14 27  1  0
 16 28  1  0
 16 29  1  0
 17 30  1  0
 17 31  1  0
 18 32  1  0
 18 33  1  0
 19 34  1  6
 20 35  1  0
M  END
>  <smiles>  (32) 
[H]c1nnc2c3c([H])c([H])nc([H])c3c([H])c(N([H])C(=O)[C@@]3([H])OC([H])([H])C([H])([H])C3([H])[H])nc1-2

>  <error>  (32) 


>  <∆∆G>  (32) 
-71.47504

>  <∆G_bound>  (32) 
135.535847

>  <∆G_unbound>  (32) 
207.010887

>  <comRMSD>  (32) 
0.400924

>  <N_constrained_atoms>  (32) 
22.0

>  <N_unconstrained_atoms>  (32) 
0.0

>  <runtime>  (32) 
1.385198

>  <regarded>  (32) 
['d0160a', 'd0254a']

>  <disregarded>  (32) 
[]

>  <LE>  (32) 
3.248865

>  <outcome>  (32) 
acceptable

>  <percent_hybrid>  (32) 
50.0

$$$$

     RDKit          2D

  0  0  0  0  0  0  0  0  0  0999 V2000
M  END
>  <smiles>  (33) 
nan

>  <error>  (33) 
DistanceError 5.29 Å

>  <∆∆G>  (33) 
nan

>  <∆G_bound>  (33) 
nan

>  <∆G_unbound>  (33) 
nan

>  <comRMSD>  (33) 
nan

>  <N_constrained_atoms>  (33) 
nan

>  <N_unconstrained_atoms>  (33) 
nan

>  <runtime>  (33) 
nan

>  <regarded>  (33) 
[]

>  <disregarded>  (33) 
[]

>  <LE>  (33) 
nan

>  <outcome>  (33) 
too distant

>  <percent_hybrid>  (33) 
nan

$$$$
LIG
     RDKit          3D

 38 41  0  0  0  0  0  0  0  0999 V2000
  -14.9640  -42.9882  -22.5841 C   0  0  0  0  0  0  0  0  0  0  0  0
  -14.6213  -41.4999  -22.6384 C   0  0  0  0  0  0  0  0  0  0  0  0
  -13.9897  -40.6654  -21.7298 C   0  0  0  0  0  0  0  0  0  0  0  0
  -13.8285  -39.4551  -22.3242 N   0  0  0  0  0  0  0  0  0  0  0  0
  -14.3753  -39.3843  -23.5357 N   0  0  0  0  0  0  0  0  0  0  0  0
  -14.9131  -40.6007  -23.7362 C   0  0  0  0  0  0  0  0  0  0  0  0
  -16.9532  -41.4655  -24.8558 C   0  0  0  0  0  0  0  0  0  0  0  0
  -15.7110  -40.8375  -24.9392 C   0  0  0  0  0  0  0  0  0  0  0  0
  -15.2918  -40.3511  -26.1779 C   0  0  0  0  0  0  0  0  0  0  0  0
  -16.1115  -40.5480  -27.2765 C   0  0  0  0  0  0  0  0  0  0  0  0
  -17.3071  -41.1750  -27.2235 N   0  0  0  0  0  0  0  0  0  0  0  0
  -17.7010  -41.6092  -26.0094 C   0  0  0  0  0  0  0  0  0  0  0  0
  -14.7377  -43.6002  -21.2203 C   0  0  0  0  0  0  0  0  0  0  0  0
  -15.6394  -44.4083  -20.5078 C   0  0  0  0  0  0  0  0  0  0  0  0
  -15.5144  -44.5936  -19.1618 N   0  0  0  0  0  0  0  0  0  0  0  0
  -14.4540  -44.0674  -18.5326 C   0  0  0  0  0  0  0  0  0  0  0  0
  -13.3842  -43.5331  -19.2017 C   0  0  0  0  0  0  0  0  0  0  0  0
  -13.5179  -43.3524  -20.5679 C   0  0  0  0  0  0  0  0  0  0  0  0
  -17.0434  -45.3879  -22.4101 C   0  0  0  0  0  0  0  0  0  0  0  0
  -18.1213  -46.2461  -22.4878 C   0  0  0  0  0  0  0  0  0  0  0  0
  -18.4257  -46.6575  -21.1812 C   0  0  0  0  0  0  0  0  0  0  0  0
  -17.5492  -46.0069  -20.3465 C   0  0  0  0  0  0  0  0  0  0  0  0
  -16.7031  -45.1872  -21.0898 N   0  0  0  0  0  0  0  0  0  0  0  0
  -16.0253  -43.0414  -22.8155 H   0  0  0  0  0  0  0  0  0  0  0  0
  -14.3946  -43.5355  -23.3431 H   0  0  0  0  0  0  0  0  0  0  0  0
  -13.6151  -40.8102  -20.7281 H   0  0  0  0  0  0  0  0  0  0  0  0
  -17.3710  -41.7884  -23.9103 H   0  0  0  0  0  0  0  0  0  0  0  0
  -14.3503  -39.8210  -26.2849 H   0  0  0  0  0  0  0  0  0  0  0  0
  -15.8239  -40.1950  -28.2615 H   0  0  0  0  0  0  0  0  0  0  0  0
  -18.6826  -42.0717  -25.9780 H   0  0  0  0  0  0  0  0  0  0  0  0
  -14.4754  -44.1398  -17.4495 H   0  0  0  0  0  0  0  0  0  0  0  0
  -12.4821  -43.2278  -18.6841 H   0  0  0  0  0  0  0  0  0  0  0  0
  -12.6795  -42.9196  -21.1111 H   0  0  0  0  0  0  0  0  0  0  0  0
  -16.4755  -44.9598  -23.2176 H   0  0  0  0  0  0  0  0  0  0  0  0
  -18.5955  -46.5868  -23.3992 H   0  0  0  0  0  0  0  0  0  0  0  0
  -19.2001  -47.3493  -20.8804 H   0  0  0  0  0  0  0  0  0  0  0  0
  -17.4558  -46.0420  -19.2686 H   0  0  0  0  0  0  0  0  0  0  0  0
  -13.3756  -38.6297  -21.9455 H   0  0  0  0  0  0  0  0  0  0  0  0
  2  1  1  0
  2  3  2  0
  2  6  1  0
  3  4  1  0
  4  5  1  0
  5  6  2  0
  6  8  1  0
  7 12  2  0
  7  8  1  0
  8  9  2  0
  9 10  1  0
 10 11  2  0
 11 12  1  0
 13 18  2  0
 13 14  1  0
 14 15  2  0
 14 23  1  0
 15 16  1  0
 16 17  2  0
 17 18  1  0
 19 20  2  0
 19 23  1  0
 20 21  1  0
 21 22  2  0
 22 23  1  0
  1 13  1  0
  1 24  1  0
  1 25  1  0
  3 26  1  0
  7 27  1  0
  9 28  1  0
 10 29  1  0
 12 30  1  0
 16 31  1  0
 17 32  1  0
 18 33  1  0
 19 34  1  0
 20 35  1  0
 21 36  1  0
 22 37  1  0
  4 38  1  0
M  END
>  <smiles>  (34) 
[H]c1nc(-n2c([H])c([H])c([H])c2[H])c(C([H])([H])c2c(-c3c([H])c([H])nc([H])c3[H])n[nH]c2[H])c([H])c1[H]

>  <error>  (34) 


>  <∆∆G>  (34) 
-45.740474

>  <∆G_bound>  (34) 
337.048331

>  <∆G_unbound>  (34) 
382.788806

>  <comRMSD>  (34) 
0.732346

>  <N_constrained_atoms>  (34) 
23.0

>  <N_unconstrained_atoms>  (34) 
0.0

>  <runtime>  (34) 
1.380766

>  <regarded>  (34) 
['d0160a', 'd0472a']

>  <disregarded>  (34) 
[]

>  <LE>  (34) 
1.988716

>  <outcome>  (34) 
acceptable

>  <percent_hybrid>  (34) 
48.0

$$$$
LIG
     RDKit          3D

 34 35  0  0  0  0  0  0  0  0999 V2000
  -17.6453  -39.1651  -23.6482 C   0  0  0  0  0  0  0  0  0  0  0  0
  -17.8419  -38.2281  -24.3693 O   0  0  0  0  0  0  0  0  0  0  0  0
  -15.5855  -42.4708  -22.1398 C   0  0  0  0  0  0  0  0  0  0  0  0
  -14.6369  -43.4196  -21.8525 C   0  0  0  0  0  0  0  0  0  0  0  0
  -13.9975  -43.6860  -23.0275 N   0  0  0  0  0  0  0  0  0  0  0  0
  -14.4925  -42.9846  -24.0680 N   0  0  0  0  0  0  0  0  0  0  0  0
  -15.4369  -42.2014  -23.5286 C   0  0  0  0  0  0  0  0  0  0  0  0
  -17.5956  -41.8159  -24.6559 C   0  0  0  0  0  0  0  0  0  0  0  0
  -16.1964  -41.1014  -24.3733 C   0  0  0  0  0  0  0  0  0  0  0  0
  -15.6083  -40.9145  -25.8252 C   0  0  0  0  0  0  0  0  0  0  0  0
  -16.5274  -40.1628  -26.7740 C   0  0  0  0  0  0  0  0  0  0  0  0
  -17.7697  -40.9025  -26.9933 N   0  0  0  0  0  0  0  0  0  0  0  0
  -18.4688  -41.1842  -25.7467 C   0  0  0  0  0  0  0  0  0  0  0  0
  -14.5323  -38.5647  -22.5900 C   0  0  0  0  0  0  0  0  0  0  0  0
  -15.0230  -39.5357  -23.6787 C   0  0  0  0  0  0  0  0  0  0  0  0
  -16.4472  -39.8413  -23.3208 N   0  0  0  0  0  0  0  0  0  0  0  0
  -18.4757  -39.6629  -23.1152 H   0  0  0  0  0  0  0  0  0  0  0  0
  -16.2592  -41.9931  -21.4425 H   0  0  0  0  0  0  0  0  0  0  0  0
  -14.3405  -43.9046  -20.9340 H   0  0  0  0  0  0  0  0  0  0  0  0
  -18.1772  -41.9051  -23.7290 H   0  0  0  0  0  0  0  0  0  0  0  0
  -17.3996  -42.8512  -24.9766 H   0  0  0  0  0  0  0  0  0  0  0  0
  -14.6066  -40.4736  -25.8525 H   0  0  0  0  0  0  0  0  0  0  0  0
  -15.4572  -41.9136  -26.2592 H   0  0  0  0  0  0  0  0  0  0  0  0
  -16.7273  -39.1473  -26.4225 H   0  0  0  0  0  0  0  0  0  0  0  0
  -16.0264  -40.0633  -27.7432 H   0  0  0  0  0  0  0  0  0  0  0  0
  -18.3763  -40.3266  -27.5819 H   0  0  0  0  0  0  0  0  0  0  0  0
  -19.2865  -41.8799  -25.9696 H   0  0  0  0  0  0  0  0  0  0  0  0
  -18.9660  -40.2780  -25.3956 H   0  0  0  0  0  0  0  0  0  0  0  0
  -13.4944  -38.2725  -22.7788 H   0  0  0  0  0  0  0  0  0  0  0  0
  -14.5807  -39.0330  -21.6008 H   0  0  0  0  0  0  0  0  0  0  0  0
  -15.1442  -37.6565  -22.5638 H   0  0  0  0  0  0  0  0  0  0  0  0
  -15.0000  -38.9292  -24.5911 H   0  0  0  0  0  0  0  0  0  0  0  0
  -14.2504  -40.3082  -23.6521 H   0  0  0  0  0  0  0  0  0  0  0  0
  -13.2039  -44.3096  -23.1810 H   0  0  0  0  0  0  0  0  0  0  0  0
  2  1  2  0
  3  4  2  0
  3  7  1  0
  4  5  1  0
  5  6  1  0
  6  7  2  0
  7  9  1  0
  8 13  1  0
  8  9  1  0
  9 10  1  0
 10 11  1  0
 11 12  1  0
 12 13  1  0
 14 15  1  0
 15 16  1  0
 16  1  1  0
  9 16  1  0
  1 17  1  0
  3 18  1  0
  4 19  1  0
  8 20  1  0
  8 21  1  0
 10 22  1  0
 10 23  1  0
 11 24  1  0
 11 25  1  0
 12 26  1  0
 13 27  1  0
 13 28  1  0
 14 29  1  0
 14 30  1  0
 14 31  1  0
 15 32  1  0
 15 33  1  0
  5 34  1  0
M  END
>  <smiles>  (35) 
[H]C(=O)N(C([H])([H])C([H])([H])[H])C1(c2n[nH]c([H])c2[H])C([H])([H])C([H])([H])N([H])C([H])([H])C1([H])[H]

>  <error>  (35) 


>  <∆∆G>  (35) 
33.271613

>  <∆G_bound>  (35) 
346.339111

>  <∆G_unbound>  (35) 
313.067498

>  <comRMSD>  (35) 
2.278164

>  <N_constrained_atoms>  (35) 
16.0

>  <N_unconstrained_atoms>  (35) 
0.0

>  <runtime>  (35) 
2.077963

>  <regarded>  (35) 
['d0160a', 'd0612a']

>  <disregarded>  (35) 
[]

>  <LE>  (35) 
-2.079476

>  <outcome>  (35) 
equally sized

>  <percent_hybrid>  (35) 
32.0

$$$$
LIG
     RDKit          3D

 38 41  0  0  0  0  0  0  0  0999 V2000
  -17.7331  -43.9517  -24.6878 F   0  0  0  0  0  0  0  0  0  0  0  0
  -18.4908  -36.2757  -24.3586 C   0  0  0  0  0  0  0  0  0  0  0  0
  -14.9804  -41.5176  -22.3820 C   0  0  0  0  0  0  0  0  0  0  0  0
  -13.9114  -41.0271  -21.6797 C   0  0  0  0  0  0  0  0  0  0  0  0
  -13.5573  -39.8801  -22.3122 N   0  0  0  0  0  0  0  0  0  0  0  0
  -14.3171  -39.5971  -23.3753 N   0  0  0  0  0  0  0  0  0  0  0  0
  -15.2386  -40.5751  -23.4318 C   0  0  0  0  0  0  0  0  0  0  0  0
  -16.6059  -41.9176  -24.9930 C   0  0  0  0  0  0  0  0  0  0  0  0
  -16.1955  -40.7147  -24.5116 C   0  0  0  0  0  0  0  0  0  0  0  0
  -16.6367  -39.5002  -25.3349 C   0  0  1  0  0  0  0  0  0  0  0  0
  -16.1961  -39.8103  -26.7887 C   0  0  0  0  0  0  0  0  0  0  0  0
  -16.9961  -40.9259  -27.3456 N   0  0  0  0  0  0  0  0  0  0  0  0
  -17.0607  -42.0729  -26.4253 C   0  0  0  0  0  0  0  0  0  0  0  0
  -16.6262  -43.2433  -24.2593 C   0  0  1  0  0  0  0  0  0  0  0  0
  -15.5679  -42.6928  -22.0755 N   0  0  0  0  0  0  0  0  0  0  0  0
  -16.7674  -43.1579  -22.7358 C   0  0  0  0  0  0  0  0  0  0  0  0
  -18.1954  -39.3167  -25.2499 C   0  0  0  0  0  0  0  0  0  0  0  0
  -18.6056  -38.1024  -25.9951 N   0  0  0  0  0  0  0  0  0  0  0  0
  -17.7535  -37.0433  -25.4491 C   0  0  2  0  0  0  0  0  0  0  0  0
  -16.2490  -37.8101  -24.8008 S   0  0  0  0  0  0  0  0  0  0  0  0
  -18.7840  -36.9153  -23.5182 H   0  0  0  0  0  0  0  0  0  0  0  0
  -17.8706  -35.4627  -23.9641 H   0  0  0  0  0  0  0  0  0  0  0  0
  -19.4039  -35.8210  -24.7603 H   0  0  0  0  0  0  0  0  0  0  0  0
  -13.3618  -41.3975  -20.8274 H   0  0  0  0  0  0  0  0  0  0  0  0
  -16.3258  -38.9474  -27.4516 H   0  0  0  0  0  0  0  0  0  0  0  0
  -15.1287  -40.0659  -26.8345 H   0  0  0  0  0  0  0  0  0  0  0  0
  -17.9401  -40.5724  -27.5003 H   0  0  0  0  0  0  0  0  0  0  0  0
  -16.4610  -42.8669  -26.8838 H   0  0  0  0  0  0  0  0  0  0  0  0
  -18.0997  -42.4123  -26.4042 H   0  0  0  0  0  0  0  0  0  0  0  0
  -15.7464  -43.8331  -24.5398 H   0  0  0  0  0  0  0  0  0  0  0  0
  -15.2816  -43.2113  -21.2492 H   0  0  0  0  0  0  0  0  0  0  0  0
  -17.6231  -42.5282  -22.4604 H   0  0  0  0  0  0  0  0  0  0  0  0
  -17.0050  -44.1593  -22.3564 H   0  0  0  0  0  0  0  0  0  0  0  0
  -18.5311  -39.2463  -24.2029 H   0  0  0  0  0  0  0  0  0  0  0  0
  -18.7663  -40.1616  -25.6462 H   0  0  0  0  0  0  0  0  0  0  0  0
  -18.3121  -38.2327  -26.9621 H   0  0  0  0  0  0  0  0  0  0  0  0
  -17.4807  -36.3462  -26.2488 H   0  0  0  0  0  0  0  0  0  0  0  0
  -12.7914  -39.2539  -22.0879 H   0  0  0  0  0  0  0  0  0  0  0  0
  3  4  2  0
  3  7  1  0
  4  5  1  0
  5  6  1  0
  6  7  2  0
  7  9  1  0
  8 13  1  0
  8  9  2  0
  9 10  1  0
 10 11  1  0
 11 12  1  0
 12 13  1  0
 14 16  1  0
 14  1  1  0
 15 16  1  0
 17 18  1  0
 18 19  1  0
 19  2  1  0
 19 20  1  0
  3 15  1  0
  8 14  1  0
 10 17  1  0
 10 20  1  1
  2 21  1  0
  2 22  1  0
  2 23  1  0
  4 24  1  0
 11 25  1  0
 11 26  1  0
 12 27  1  0
 13 28  1  0
 13 29  1  0
 14 30  1  1
 15 31  1  0
 16 32  1  0
 16 33  1  0
 17 34  1  0
 17 35  1  0
 18 36  1  0
 19 37  1  6
  5 38  1  0
M  END
>  <smiles>  (36) 
[H]c1[nH]nc2c1N([H])C([H])([H])[C@@]([H])(F)C1=C2[C@@]2(S[C@]([H])(C([H])([H])[H])N([H])C2([H])[H])C([H])([H])N([H])C1([H])[H]

>  <error>  (36) 


>  <∆∆G>  (36) 
-58.650066

>  <∆G_bound>  (36) 
367.206505

>  <∆G_unbound>  (36) 
425.856571

>  <comRMSD>  (36) 
0.823958

>  <N_constrained_atoms>  (36) 
20.0

>  <N_unconstrained_atoms>  (36) 
0.0

>  <runtime>  (36) 
1.627813

>  <regarded>  (36) 
['d0160a', 'd0615b']

>  <disregarded>  (36) 
[]

>  <LE>  (36) 
2.932503

>  <outcome>  (36) 
acceptable

>  <percent_hybrid>  (36) 
45.0

$$$$
LIG
     RDKit          3D

 32 33  0  0  0  0  0  0  0  0999 V2000
  -14.5970  -43.4026  -22.5887 C   0  0  0  0  0  0  0  0  0  0  0  0
  -20.6840  -40.3756  -24.8428 O   0  0  0  0  0  0  0  0  0  0  0  0
  -20.0114  -40.1616  -26.1134 S   0  0  0  0  0  0  0  0  0  0  0  0
  -19.8799  -38.8256  -26.6728 O   0  0  0  0  0  0  0  0  0  0  0  0
  -20.8086  -41.1650  -27.3123 C   0  0  0  0  0  0  0  0  0  0  0  0
  -15.2151  -38.9229  -25.7065 C   0  0  0  0  0  0  0  0  0  0  0  0
  -15.5599  -38.0751  -26.8031 O   0  0  0  0  0  0  0  0  0  0  0  0
  -14.3576  -41.9400  -22.6195 C   0  0  0  0  0  0  0  0  0  0  0  0
  -13.5099  -41.2616  -21.7664 C   0  0  0  0  0  0  0  0  0  0  0  0
  -13.5207  -39.9696  -22.1679 N   0  0  0  0  0  0  0  0  0  0  0  0
  -14.3388  -39.7415  -23.1975 N   0  0  0  0  0  0  0  0  0  0  0  0
  -14.8949  -40.9339  -23.4941 C   0  0  0  0  0  0  0  0  0  0  0  0
  -16.9823  -41.9992  -24.3483 C   0  0  0  0  0  0  0  0  0  0  0  0
  -15.9698  -41.0394  -24.5194 C   0  0  0  0  0  0  0  0  0  0  0  0
  -16.1487  -40.0778  -25.5472 C   0  0  0  0  0  0  0  0  0  0  0  0
  -17.3286  -40.0421  -26.3000 C   0  0  0  0  0  0  0  0  0  0  0  0
  -18.3825  -40.8526  -25.9316 C   0  0  0  0  0  0  0  0  0  0  0  0
  -18.1963  -41.8969  -25.0315 C   0  0  0  0  0  0  0  0  0  0  0  0
  -13.7459  -43.9281  -22.1418 H   0  0  0  0  0  0  0  0  0  0  0  0
  -15.4829  -43.6374  -21.9910 H   0  0  0  0  0  0  0  0  0  0  0  0
  -14.7290  -43.8044  -23.5981 H   0  0  0  0  0  0  0  0  0  0  0  0
  -20.8411  -42.1960  -26.9602 H   0  0  0  0  0  0  0  0  0  0  0  0
  -21.8283  -40.7944  -27.4408 H   0  0  0  0  0  0  0  0  0  0  0  0
  -20.2744  -41.0764  -28.2511 H   0  0  0  0  0  0  0  0  0  0  0  0
  -14.1991  -39.2929  -25.8701 H   0  0  0  0  0  0  0  0  0  0  0  0
  -15.3000  -38.2937  -24.8169 H   0  0  0  0  0  0  0  0  0  0  0  0
  -14.9068  -37.3507  -26.7140 H   0  0  0  0  0  0  0  0  0  0  0  0
  -12.8875  -41.6010  -20.9497 H   0  0  0  0  0  0  0  0  0  0  0  0
  -16.9260  -42.7352  -23.5525 H   0  0  0  0  0  0  0  0  0  0  0  0
  -17.4938  -39.2221  -26.9983 H   0  0  0  0  0  0  0  0  0  0  0  0
  -19.0312  -42.5163  -24.7112 H   0  0  0  0  0  0  0  0  0  0  0  0
  -12.9993  -39.1904  -21.7800 H   0  0  0  0  0  0  0  0  0  0  0  0
  5  3  1  0
  4  3  2  0
  3  2  2  0
  7  6  1  0
  8  1  1  0
  8  9  2  0
  8 12  1  0
  9 10  1  0
 10 11  1  0
 11 12  2  0
 12 14  1  0
 13 18  2  0
 13 14  1  0
 14 15  2  0
 15 16  1  0
 16 17  2  0
 17 18  1  0
  3 17  1  0
  6 15  1  0
  1 19  1  0
  1 20  1  0
  1 21  1  0
  5 22  1  0
  5 23  1  0
  5 24  1  0
  6 25  1  0
  6 26  1  0
  7 27  1  0
  9 28  1  0
 13 29  1  0
 16 30  1  0
 18 31  1  0
 10 32  1  0
M  END
>  <smiles>  (37) 
[H]OC([H])([H])c1c([H])c(S(=O)(=O)C([H])([H])[H])c([H])c([H])c1-c1n[nH]c([H])c1C([H])([H])[H]

>  <error>  (37) 


>  <∆∆G>  (37) 
-28.467542

>  <∆G_bound>  (37) 
394.52654

>  <∆G_unbound>  (37) 
422.994082

>  <comRMSD>  (37) 
1.046972

>  <N_constrained_atoms>  (37) 
18.0

>  <N_unconstrained_atoms>  (37) 
0.0

>  <runtime>  (37) 
0.83312

>  <regarded>  (37) 
['d0160a', 'd0851a']

>  <disregarded>  (37) 
[]

>  <LE>  (37) 
1.58153

>  <outcome>  (37) 
too moved

>  <percent_hybrid>  (37) 
34.0

$$$$
LIG
     RDKit          3D

  0  0  0  0  0  0  0  0  0  0999 V3000
M  V30 BEGIN CTAB
M  V30 COUNTS 41 44 0 0 0
M  V30 BEGIN ATOM
M  V30 1 C -14.868000 -42.847000 -22.417000 0
M  V30 2 C -18.801001 -40.066002 -25.077000 0
M  V30 3 S -16.291000 -41.674000 -23.726000 0
M  V30 4 O -16.832001 -41.215000 -22.487000 0
M  V30 5 O -16.914000 -42.779999 -24.382999 0
M  V30 6 C -14.359000 -41.472000 -22.761000 0
M  V30 7 C -13.478000 -40.689999 -21.993000 0
M  V30 8 N -13.213000 -39.522999 -22.573999 0
M  V30 9 N -13.928000 -39.542000 -23.735001 0
M  V30 10 C -14.631000 -40.687000 -23.893000 0
M  V30 11 C -16.445000 -41.923000 -25.089001 0
M  V30 12 C -15.488000 -40.911999 -25.076000 0
M  V30 13 C -15.379000 -40.103001 -26.198999 0
M  V30 14 C -16.228001 -40.327000 -27.266001 0
M  V30 15 N -17.155001 -41.291000 -27.292000 0
M  V30 16 C -17.240000 -42.071999 -26.209000 0
M  V30 17 O -19.218000 -37.455002 -26.510000 0
M  V30 18 C -18.440001 -37.272999 -25.589001 0
M  V30 19 C -18.129000 -36.304001 -23.285000 0
M  V30 20 C -19.089001 -35.396999 -22.541000 0
M  V30 21 C -19.528999 -34.411999 -23.573999 0
M  V30 22 C -19.582001 -35.196999 -24.878000 0
M  V30 23 N -18.677000 -36.332001 -24.648001 0
M  V30 24 N -18.620501 -38.669502 -25.333000 0
M  V30 25 H -15.157663 -43.060242 -21.377470 0
M  V30 26 H -14.420553 -43.845715 -22.528168 0
M  V30 27 H -19.836267 -40.291660 -25.372467 0
M  V30 28 H -18.487976 -40.127209 -24.024256 0
M  V30 29 H -13.057901 -41.005753 -21.026657 0
M  V30 30 H -14.630236 -39.298153 -26.238676 0
M  V30 31 H -16.136074 -39.673790 -28.146267 0
M  V30 32 H -17.110168 -35.889343 -23.278488 0
M  V30 33 H -18.045275 -37.303970 -22.834385 0
M  V30 34 H -19.946302 -35.967758 -22.154648 0
M  V30 35 H -18.625710 -34.915722 -21.667082 0
M  V30 36 H -20.522223 -34.009979 -23.325226 0
M  V30 37 H -18.845905 -33.552284 -23.639366 0
M  V30 38 H -20.604527 -35.547546 -25.081858 0
M  V30 39 H -19.288511 -34.591660 -25.748306 0
M  V30 40 H -17.730501 -37.779499 -24.443001 0
M  V30 41 H -12.602403 -38.770920 -22.224072 0
M  V30 END ATOM
M  V30 BEGIN BOND
M  V30 1 2 4 3
M  V30 2 2 5 3
M  V30 3 1 3 1
M  V30 4 1 6 1
M  V30 5 2 6 7
M  V30 6 1 6 10
M  V30 7 1 7 8
M  V30 8 1 8 9
M  V30 9 2 9 10
M  V30 10 1 10 12
M  V30 11 1 11 16
M  V30 12 2 11 12
M  V30 13 1 12 13
M  V30 14 2 13 14
M  V30 15 1 14 15
M  V30 16 2 15 16
M  V30 17 1 2 16
M  V30 18 1 3 11
M  V30 19 2 18 17
M  V30 20 1 19 20
M  V30 21 1 19 23
M  V30 22 1 20 21
M  V30 23 1 21 22
M  V30 24 1 22 23
M  V30 25 1 23 18
M  V30 26 1 24 2
M  V30 27 1 24 18
M  V30 28 1 1 25
M  V30 29 1 1 26
M  V30 30 1 2 27
M  V30 31 1 2 28
M  V30 32 1 7 29
M  V30 33 1 13 30
M  V30 34 1 14 31
M  V30 35 1 19 32
M  V30 36 1 19 33
M  V30 37 1 20 34
M  V30 38 1 20 35
M  V30 39 1 21 36
M  V30 40 1 21 37
M  V30 41 1 22 38
M  V30 42 1 22 39
M  V30 43 1 24 40
M  V30 44 1 8 41
M  V30 END BOND
M  V30 BEGIN COLLECTION
M  V30 MDLV30/STEABS ATOMS=(0)
M  V30 END COLLECTION
M  V30 END CTAB
M  END
>  <smiles>  (38) 
[H]c1nc(C([H])([H])N([H])C(=O)N2C([H])([H])C([H])([H])C([H])([H])C2([H])[H])c2c(c1[H])-c1n[nH]c([H])c1C([H])([H])S2(=O)=O

>  <error>  (38) 


>  <∆∆G>  (38) 
nan

>  <∆G_bound>  (38) 
nan

>  <∆G_unbound>  (38) 
nan

>  <comRMSD>  (38) 
0.0

>  <N_constrained_atoms>  (38) 
23.0

>  <N_unconstrained_atoms>  (38) 
1.0

>  <runtime>  (38) 
1.08085

>  <regarded>  (38) 
['d0160a', 'd0866a']

>  <disregarded>  (38) 
[]

>  <LE>  (38) 
nan

>  <outcome>  (38) 
crashed

>  <percent_hybrid>  (38) 
48.0

$$$$
LIG
     RDKit          3D

  0  0  0  0  0  0  0  0  0  0999 V3000
M  V30 BEGIN CTAB
M  V30 COUNTS 51 55 0 0 0
M  V30 BEGIN ATOM
M  V30 1 C -14.868000 -42.847000 -22.417000 0
M  V30 2 C -14.359000 -41.472000 -22.761000 0
M  V30 3 C -13.478000 -40.689999 -21.993000 0
M  V30 4 N -13.213000 -39.522999 -22.573999 0
M  V30 5 N -13.928000 -39.542000 -23.735001 0
M  V30 6 C -14.631000 -40.687000 -23.893000 0
M  V30 7 C -16.445000 -41.923000 -25.089001 0
M  V30 8 C -15.488000 -40.911999 -25.076000 0
M  V30 9 C -15.379000 -40.103001 -26.198999 0
M  V30 10 C -16.228001 -40.327000 -27.266001 0
M  V30 11 N -17.155001 -41.291000 -27.292000 0
M  V30 12 C -17.240000 -42.071999 -26.209000 0
M  V30 13 O -11.370000 -32.450001 -20.969999 0
M  V30 14 C -11.950000 -33.465000 -20.601000 0
M  V30 15 C -13.292000 -33.436001 -19.997999 0
M  V30 16 C -13.877000 -34.640999 -19.552999 0
M  V30 17 N -13.139000 -35.812000 -19.618000 0
M  V30 18 C -12.110000 -35.952000 -20.645000 0 CFG=1
M  V30 19 N -11.382000 -34.679001 -20.705000 0
M  V30 20 C -13.994000 -32.241001 -19.871000 0
M  V30 21 C -15.168000 -34.624001 -19.025000 0
M  V30 22 C -15.853000 -33.424000 -18.921000 0
M  V30 23 C -15.268000 -32.243000 -19.333000 0
M  V30 24 C -11.190000 -37.138000 -20.316999 0
M  V30 25 C -11.152000 -37.980999 -21.587999 0
M  V30 26 C -12.451000 -37.754002 -22.233000 0 CFG=2
M  V30 27 C -12.749000 -36.279999 -22.002001 0
M  V30 28 C -12.832001 -38.638500 -22.403500 0
M  V30 29 H -14.909686 -42.959610 -21.323574 0
M  V30 30 H -15.875333 -42.981052 -22.838083 0
M  V30 31 H -14.190761 -43.604652 -22.838083 0
M  V30 32 H -13.057901 -41.005753 -21.026657 0
M  V30 33 H -16.565941 -42.590923 -24.223406 0
M  V30 34 H -14.630236 -39.298153 -26.238676 0
M  V30 35 H -16.136074 -39.673790 -28.146267 0
M  V30 36 H -17.986483 -42.879936 -26.210447 0
M  V30 37 H -13.314224 -36.575504 -18.949228 0
M  V30 38 H -10.361188 -34.718678 -20.836409 0
M  V30 39 H -13.535987 -31.295929 -20.198202 0
M  V30 40 H -15.640623 -35.559937 -18.692352 0
M  V30 41 H -16.871866 -33.412075 -18.506548 0
M  V30 42 H -15.819530 -31.296577 -19.232512 0
M  V30 43 H -10.669828 -37.336834 -19.368376 0
M  V30 44 H -12.057853 -37.712925 -19.961624 0
M  V30 45 H -10.330162 -38.619820 -21.943655 0
M  V30 46 H -11.575160 -38.832932 -21.035601 0
M  V30 47 H -13.083096 -37.563656 -23.112900 0
M  V30 48 H -13.302277 -35.597340 -22.663710 0
M  V30 49 H -11.810613 -36.010841 -22.508938 0
M  V30 50 H -11.842000 -37.648499 -21.413500 0
M  V30 51 H -11.832001 -37.638500 -21.403500 0
M  V30 END ATOM
M  V30 BEGIN BOND
M  V30 1 1 2 1
M  V30 2 2 2 3
M  V30 3 1 2 6
M  V30 4 1 3 4
M  V30 5 1 4 5
M  V30 6 2 5 6
M  V30 7 1 6 8
M  V30 8 2 7 12
M  V30 9 1 7 8
M  V30 10 2 8 9
M  V30 11 1 9 10
M  V30 12 2 10 11
M  V30 13 1 11 12
M  V30 14 2 14 13
M  V30 15 1 14 19
M  V30 16 1 14 15
M  V30 17 2 15 20
M  V30 18 1 15 16
M  V30 19 1 16 17
M  V30 20 2 16 21
M  V30 21 1 18 17 CFG=1
M  V30 22 1 18 19
M  V30 23 1 18 27
M  V30 24 1 18 24
M  V30 25 1 20 23
M  V30 26 1 21 22
M  V30 27 2 22 23
M  V30 28 1 24 25
M  V30 29 1 25 26
M  V30 30 1 26 27
M  V30 31 1 28 4
M  V30 32 1 28 26
M  V30 33 1 1 29
M  V30 34 1 1 30
M  V30 35 1 1 31
M  V30 36 1 3 32
M  V30 37 1 7 33
M  V30 38 1 9 34
M  V30 39 1 10 35
M  V30 40 1 12 36
M  V30 41 1 17 37
M  V30 42 1 19 38
M  V30 43 1 20 39
M  V30 44 1 21 40
M  V30 45 1 22 41
M  V30 46 1 23 42
M  V30 47 1 24 43
M  V30 48 1 24 44
M  V30 49 1 25 45
M  V30 50 1 25 46
M  V30 51 1 26 47 CFG=3
M  V30 52 1 27 48
M  V30 53 1 27 49
M  V30 54 1 28 50
M  V30 55 1 28 51
M  V30 END BOND
M  V30 BEGIN COLLECTION
M  V30 MDLV30/STEABS ATOMS=(0)
M  V30 END COLLECTION
M  V30 END CTAB
M  END
>  <smiles>  (39) 
[H]c1nc([H])c([H])c(-c2nn(C([H])([H])[C@]3([H])C([H])([H])C([H])([H])[C@@]4(N([H])C(=O)c5c([H])c([H])c([H])c([H])c5N4[H])C3([H])[H])c([H])c2C([H])([H])[H])c1[H]

>  <error>  (39) 


>  <∆∆G>  (39) 
nan

>  <∆G_bound>  (39) 
nan

>  <∆G_unbound>  (39) 
nan

>  <comRMSD>  (39) 
0.0

>  <N_constrained_atoms>  (39) 
27.0

>  <N_unconstrained_atoms>  (39) 
1.0

>  <runtime>  (39) 
1.755006

>  <regarded>  (39) 
['d0160a', 'd1196a']

>  <disregarded>  (39) 
[]

>  <LE>  (39) 
nan

>  <outcome>  (39) 
crashed

>  <percent_hybrid>  (39) 
45.0

$$$$
LIG
     RDKit          3D

 46 48  0  0  0  0  0  0  0  0999 V2000
  -14.7804  -42.8017  -22.6098 C   0  0  0  0  0  0  0  0  0  0  0  0
  -14.4503  -41.3402  -22.7068 C   0  0  0  0  0  0  0  0  0  0  0  0
  -13.6583  -40.5737  -21.8698 C   0  0  0  0  0  0  0  0  0  0  0  0
  -13.5799  -39.3369  -22.4237 N   0  0  0  0  0  0  0  0  0  0  0  0
  -14.2697  -39.2167  -23.5611 N   0  0  0  0  0  0  0  0  0  0  0  0
  -14.8264  -40.4263  -23.7538 C   0  0  0  0  0  0  0  0  0  0  0  0
  -16.8984  -41.3316  -24.7955 C   0  0  0  0  0  0  0  0  0  0  0  0
  -15.6759  -40.6713  -24.9214 C   0  0  0  0  0  0  0  0  0  0  0  0
  -15.2930  -40.2187  -26.1843 C   0  0  0  0  0  0  0  0  0  0  0  0
  -16.1245  -40.4817  -27.2617 C   0  0  0  0  0  0  0  0  0  0  0  0
  -17.2969  -41.1481  -27.1691 N   0  0  0  0  0  0  0  0  0  0  0  0
  -17.6579  -41.5472  -25.9326 C   0  0  0  0  0  0  0  0  0  0  0  0
  -13.5576  -44.0240  -19.3918 O   0  0  0  0  0  0  0  0  0  0  0  0
  -13.2563  -42.8552  -18.6188 C   0  0  0  0  0  0  0  0  0  0  0  0
  -12.9097  -43.2452  -17.1789 C   0  0  0  0  0  0  0  0  0  0  0  0
  -14.0818  -43.6453  -16.3864 N   0  0  0  0  0  0  0  0  0  0  0  0
  -13.8737  -44.6923  -15.3744 C   0  0  0  0  0  0  0  0  0  0  0  0
  -13.7182  -44.1864  -13.9469 C   0  0  0  0  0  0  0  0  0  0  0  0
  -14.8634  -43.4769  -13.4851 O   0  0  0  0  0  0  0  0  0  0  0  0
  -15.5559  -42.7801  -14.5263 C   0  0  0  0  0  0  0  0  0  0  0  0
  -14.6797  -42.4504  -15.7423 C   0  0  0  0  0  0  0  0  0  0  0  0
  -14.8269  -43.2645  -21.2268 N   0  0  0  0  0  0  0  0  0  0  0  0
  -13.5314  -43.7445  -20.7869 C   0  0  0  0  0  0  0  0  0  0  0  0
  -15.7707  -42.9935  -23.0256 H   0  0  0  0  0  0  0  0  0  0  0  0
  -14.0814  -43.3891  -23.2180 H   0  0  0  0  0  0  0  0  0  0  0  0
  -13.1268  -40.7995  -20.9582 H   0  0  0  0  0  0  0  0  0  0  0  0
  -17.2810  -41.6452  -23.8311 H   0  0  0  0  0  0  0  0  0  0  0  0
  -14.3645  -39.6747  -26.3283 H   0  0  0  0  0  0  0  0  0  0  0  0
  -15.8626  -40.1571  -28.2637 H   0  0  0  0  0  0  0  0  0  0  0  0
  -18.6188  -42.0489  -25.8695 H   0  0  0  0  0  0  0  0  0  0  0  0
  -12.3781  -42.3515  -19.0412 H   0  0  0  0  0  0  0  0  0  0  0  0
  -14.0993  -42.1568  -18.6508 H   0  0  0  0  0  0  0  0  0  0  0  0
  -12.1996  -44.0437  -17.3012 H   0  0  0  0  0  0  0  0  0  0  0  0
  -12.3574  -42.4323  -16.6920 H   0  0  0  0  0  0  0  0  0  0  0  0
  -14.7502  -45.3323  -15.4195 H   0  0  0  0  0  0  0  0  0  0  0  0
  -13.0526  -45.3607  -15.5801 H   0  0  0  0  0  0  0  0  0  0  0  0
  -13.5477  -45.0235  -13.2620 H   0  0  0  0  0  0  0  0  0  0  0  0
  -12.8460  -43.5270  -13.8630 H   0  0  0  0  0  0  0  0  0  0  0  0
  -16.4145  -43.3676  -14.8414 H   0  0  0  0  0  0  0  0  0  0  0  0
  -15.9503  -41.8560  -14.0908 H   0  0  0  0  0  0  0  0  0  0  0  0
  -13.8925  -41.7720  -15.3871 H   0  0  0  0  0  0  0  0  0  0  0  0
  -15.2764  -41.9042  -16.4813 H   0  0  0  0  0  0  0  0  0  0  0  0
  -15.1446  -42.5208  -20.6152 H   0  0  0  0  0  0  0  0  0  0  0  0
  -13.3165  -44.6809  -21.2976 H   0  0  0  0  0  0  0  0  0  0  0  0
  -12.7090  -43.0628  -21.0222 H   0  0  0  0  0  0  0  0  0  0  0  0
  -13.0684  -38.5306  -22.0796 H   0  0  0  0  0  0  0  0  0  0  0  0
  2  1  1  0
  2  3  2  0
  2  6  1  0
  3  4  1  0
  4  5  1  0
  5  6  2  0
  6  8  1  0
  7 12  2  0
  7  8  1  0
  8  9  2  0
  9 10  1  0
 10 11  2  0
 11 12  1  0
 14 13  1  0
 15 14  1  0
 16 15  1  0
 16 21  1  0
 16 17  1  0
 17 18  1  0
 18 19  1  0
 19 20  1  0
 20 21  1  0
 22  1  1  0
 23 22  1  0
 23 13  1  0
  1 24  1  0
  1 25  1  0
  3 26  1  0
  7 27  1  0
  9 28  1  0
 10 29  1  0
 12 30  1  0
 14 31  1  0
 14 32  1  0
 15 33  1  0
 15 34  1  0
 17 35  1  0
 17 36  1  0
 18 37  1  0
 18 38  1  0
 20 39  1  0
 20 40  1  0
 21 41  1  0
 21 42  1  0
 22 43  1  0
 23 44  1  0
 23 45  1  0
  4 46  1  0
M  END
>  <smiles>  (40) 
[H]c1nc([H])c([H])c(-c2n[nH]c([H])c2C([H])([H])N([H])C([H])([H])OC([H])([H])C([H])([H])N2C([H])([H])C([H])([H])OC([H])([H])C2([H])[H])c1[H]

>  <error>  (40) 


>  <∆∆G>  (40) 
-27.66608

>  <∆G_bound>  (40) 
228.026292

>  <∆G_unbound>  (40) 
255.692371

>  <comRMSD>  (40) 
1.193341

>  <N_constrained_atoms>  (40) 
21.0

>  <N_unconstrained_atoms>  (40) 
2.0

>  <runtime>  (40) 
2.514782

>  <regarded>  (40) 
['d0160a', 'z0052a']

>  <disregarded>  (40) 
[]

>  <LE>  (40) 
1.202873

>  <outcome>  (40) 
too moved

>  <percent_hybrid>  (40) 
43.0

$$$$
LIG
     RDKit          3D

 32 35  0  0  0  0  0  0  0  0999 V2000
  -14.8680  -42.8470  -22.4170 C   0  0  0  0  0  0  0  0  0  0  0  0
  -12.9440  -41.0220  -21.8330 C   0  0  0  0  0  0  0  0  0  0  0  0
  -14.3590  -41.4720  -22.7610 C   0  0  0  0  0  0  0  0  0  0  0  0
  -13.2130  -39.5230  -22.5740 N   0  0  0  0  0  0  0  0  0  0  0  0
  -13.9280  -39.5420  -23.7350 N   0  0  0  0  0  0  0  0  0  0  0  0
  -14.6310  -40.6870  -23.8930 C   0  0  1  0  0  0  0  0  0  0  0  0
  -16.4450  -41.9230  -25.0890 C   0  0  0  0  0  0  0  0  0  0  0  0
  -15.4880  -40.9120  -25.0760 C   0  0  0  0  0  0  0  0  0  0  0  0
  -15.3790  -40.1030  -26.1990 C   0  0  0  0  0  0  0  0  0  0  0  0
  -16.2280  -40.3270  -27.2660 C   0  0  0  0  0  0  0  0  0  0  0  0
  -17.1550  -41.2910  -27.2920 N   0  0  0  0  0  0  0  0  0  0  0  0
  -17.2400  -42.0720  -26.2090 C   0  0  0  0  0  0  0  0  0  0  0  0
  -12.9660  -37.9070  -22.9250 C   0  0  0  0  0  0  0  0  0  0  0  0
  -11.7410  -37.4580  -22.8790 N   0  0  0  0  0  0  0  0  0  0  0  0
  -11.8370  -36.2110  -22.2990 C   0  0  0  0  0  0  0  0  0  0  0  0
  -13.1010  -35.9420  -22.0180 C   0  0  0  0  0  0  0  0  0  0  0  0
  -13.8180  -37.0350  -22.4210 N   0  0  0  0  0  0  0  0  0  0  0  0
  -13.9060  -41.9345  -22.1250 C   0  0  0  0  0  0  0  0  0  0  0  0
  -14.6135  -42.1595  -22.5890 C   0  0  0  0  0  0  0  0  0  0  0  0
  -15.4741  -43.7650  -22.4093 H   0  0  0  0  0  0  0  0  0  0  0  0
  -12.8562  -38.6453  -22.1699 H   0  0  0  0  0  0  0  0  0  0  0  0
  -15.4872  -40.2331  -23.3725 H   0  0  0  0  0  0  0  0  0  0  0  0
  -16.5659  -42.5909  -24.2234 H   0  0  0  0  0  0  0  0  0  0  0  0
  -14.6302  -39.2982  -26.2387 H   0  0  0  0  0  0  0  0  0  0  0  0
  -16.1361  -39.6738  -28.1463 H   0  0  0  0  0  0  0  0  0  0  0  0
  -17.9865  -42.8799  -26.2104 H   0  0  0  0  0  0  0  0  0  0  0  0
  -10.9886  -35.5398  -22.0996 H   0  0  0  0  0  0  0  0  0  0  0  0
  -13.4955  -35.0257  -21.5545 H   0  0  0  0  0  0  0  0  0  0  0  0
  -13.0760  -41.1045  -21.2950 H   0  0  0  0  0  0  0  0  0  0  0  0
  -13.7735  -41.3195  -21.7490 H   0  0  0  0  0  0  0  0  0  0  0  0
  -13.7635  -41.3095  -21.7390 H   0  0  0  0  0  0  0  0  0  0  0  0
  -14.8381  -37.1553  -22.3448 H   0  0  0  0  0  0  0  0  0  0  0  0
  3  6  1  0
  4  5  1  0
  5  6  1  0
  6  8  1  0
  7 12  2  0
  7  8  1  0
  8  9  2  0
  9 10  1  0
 10 11  2  0
 11 12  1  0
 13 14  2  0
 13 17  1  0
 14 15  1  0
 15 16  2  0
 16 17  1  0
  2  4  1  0
  5 13  1  0
  2  3  2  0
  1 18  2  0
  2 18  1  0
  1 19  1  0
  3 19  1  0
  1 20  1  0
  4 21  1  0
  6 22  1  1
  7 23  1  0
  9 24  1  0
 10 25  1  0
 12 26  1  0
 15 27  1  0
 16 28  1  0
 18 29  1  0
 19 30  1  0
 19 31  1  0
 17 32  1  0
M  END
>  <smiles>  (41) 
[H]C1=C([H])C([H])([H])C2=C1N([H])N(c1nc([H])c([H])[nH]1)[C@@]2([H])c1c([H])c([H])nc([H])c1[H]

>  <error>  (41) 


>  <∆∆G>  (41) 
nan

>  <∆G_bound>  (41) 
nan

>  <∆G_unbound>  (41) 
nan

>  <comRMSD>  (41) 
0.0

>  <N_constrained_atoms>  (41) 
17.0

>  <N_unconstrained_atoms>  (41) 
2.0

>  <runtime>  (41) 
0.883383

>  <regarded>  (41) 
['d0160a', 'z0103a']

>  <disregarded>  (41) 
[]

>  <LE>  (41) 
nan

>  <outcome>  (41) 
crashed

>  <percent_hybrid>  (41) 
36.0

$$$$

     RDKit          2D

  0  0  0  0  0  0  0  0  0  0999 V2000
M  END
>  <smiles>  (42) 
nan

>  <error>  (42) 
DistanceError 7.95 Å

>  <∆∆G>  (42) 
nan

>  <∆G_bound>  (42) 
nan

>  <∆G_unbound>  (42) 
nan

>  <comRMSD>  (42) 
nan

>  <N_constrained_atoms>  (42) 
nan

>  <N_unconstrained_atoms>  (42) 
nan

>  <runtime>  (42) 
nan

>  <regarded>  (42) 
[]

>  <disregarded>  (42) 
[]

>  <LE>  (42) 
nan

>  <outcome>  (42) 
too distant

>  <percent_hybrid>  (42) 
nan

$$$$

     RDKit          2D

  0  0  0  0  0  0  0  0  0  0999 V2000
M  END
>  <smiles>  (43) 
nan

>  <error>  (43) 
RecursionError maximum recursion depth exceeded while calling a Python object

>  <∆∆G>  (43) 
nan

>  <∆G_bound>  (43) 
nan

>  <∆G_unbound>  (43) 
nan

>  <comRMSD>  (43) 
nan

>  <N_constrained_atoms>  (43) 
nan

>  <N_unconstrained_atoms>  (43) 
nan

>  <runtime>  (43) 
nan

>  <regarded>  (43) 
[]

>  <disregarded>  (43) 
[]

>  <LE>  (43) 
nan

>  <outcome>  (43) 
crashed

>  <percent_hybrid>  (43) 
nan

$$$$
LIG
     RDKit          3D

 32 34  0  0  0  0  0  0  0  0999 V2000
  -14.9806  -43.0632  -23.0854 C   0  0  0  0  0  0  0  0  0  0  0  0
  -13.6289  -44.1810  -19.5407 N   0  0  0  0  0  0  0  0  0  0  0  0
  -13.3049  -43.2806  -20.1997 C   0  0  0  0  0  0  0  0  0  0  0  0
  -15.2983  -41.7402  -22.3836 C   0  0  0  0  0  0  0  0  0  0  0  0
  -14.2677  -41.2933  -21.3274 C   0  0  2  0  0  0  0  0  0  0  0  0
  -13.7469  -39.9836  -21.7866 N   0  0  0  0  0  0  0  0  0  0  0  0
  -14.0158  -39.9599  -23.2260 N   0  0  0  0  0  0  0  0  0  0  0  0
  -15.3794  -40.5146  -23.3161 C   0  0  0  0  0  0  0  0  0  0  0  0
  -17.2418  -41.2945  -24.7970 C   0  0  0  0  0  0  0  0  0  0  0  0
  -15.9568  -40.7400  -24.6953 C   0  0  0  0  0  0  0  0  0  0  0  0
  -15.3250  -40.3700  -25.8836 C   0  0  0  0  0  0  0  0  0  0  0  0
  -15.9850  -40.5855  -27.0894 C   0  0  0  0  0  0  0  0  0  0  0  0
  -17.2186  -41.1268  -27.2001 N   0  0  0  0  0  0  0  0  0  0  0  0
  -17.8173  -41.4671  -26.0442 C   0  0  0  0  0  0  0  0  0  0  0  0
  -13.0296  -42.1534  -21.1023 C   0  0  1  0  0  0  0  0  0  0  0  0
  -12.3113  -39.9880  -21.4718 C   0  0  0  0  0  0  0  0  0  0  0  0
  -12.0318  -41.1636  -20.6447 N   0  0  0  0  0  0  0  0  0  0  0  0
  -14.8328  -43.8748  -22.3680 H   0  0  0  0  0  0  0  0  0  0  0  0
  -15.8122  -43.3817  -23.7218 H   0  0  0  0  0  0  0  0  0  0  0  0
  -14.0974  -42.9926  -23.7255 H   0  0  0  0  0  0  0  0  0  0  0  0
  -17.8014  -41.5806  -23.9117 H   0  0  0  0  0  0  0  0  0  0  0  0
  -14.3356  -39.9258  -25.8944 H   0  0  0  0  0  0  0  0  0  0  0  0
  -15.5192  -40.3223  -28.0332 H   0  0  0  0  0  0  0  0  0  0  0  0
  -18.8157  -41.8822  -26.1413 H   0  0  0  0  0  0  0  0  0  0  0  0
  -12.0484  -39.0760  -20.9253 H   0  0  0  0  0  0  0  0  0  0  0  0
  -16.2705  -41.8631  -21.8864 H   0  0  0  0  0  0  0  0  0  0  0  0
  -14.7888  -41.1162  -20.3752 H   0  0  0  0  0  0  0  0  0  0  0  0
  -14.0451  -38.9989  -23.5730 H   0  0  0  0  0  0  0  0  0  0  0  0
  -16.0483  -39.7748  -22.8461 H   0  0  0  0  0  0  0  0  0  0  0  0
  -12.6768  -42.5890  -22.0233 H   0  0  0  0  0  0  0  0  0  0  0  0
  -11.6902  -40.0070  -22.3700 H   0  0  0  0  0  0  0  0  0  0  0  0
  -12.2475  -40.9169  -19.6796 H   0  0  0  0  0  0  0  0  0  0  0  0
  3  2  3  0
  4  1  1  0
  4  5  1  0
  4  8  1  0
  5  6  1  0
  6  7  1  0
  7  8  1  0
  8 10  1  0
  9 14  2  0
  9 10  1  0
 10 11  2  0
 11 12  1  0
 12 13  2  0
 13 14  1  0
 15  3  1  0
 15 17  1  0
 16 17  1  0
  5 15  1  0
  6 16  1  0
  1 18  1  0
  1 19  1  0
  1 20  1  0
  9 21  1  0
 11 22  1  0
 12 23  1  0
 14 24  1  0
 16 25  1  0
  4 26  1  0
  5 27  1  1
  7 28  1  0
  8 29  1  0
 15 30  1  6
 16 31  1  0
 17 32  1  0
M  END
>  <smiles>  (44) 
[H]c1nc([H])c([H])c(C2NN3C([H])N[C@@H](C#N)[C@@H]3C2C([H])([H])[H])c1[H]

>  <error>  (44) 


>  <∆∆G>  (44) 
-0.20238

>  <∆G_bound>  (44) 
213.585215

>  <∆G_unbound>  (44) 
213.787595

>  <comRMSD>  (44) 
0.862694

>  <N_constrained_atoms>  (44) 
17.0

>  <N_unconstrained_atoms>  (44) 
0.0

>  <runtime>  (44) 
1.131393

>  <regarded>  (44) 
['d0160a', 'z0875c']

>  <disregarded>  (44) 
[]

>  <LE>  (44) 
0.011905

>  <outcome>  (44) 
acceptable

>  <percent_hybrid>  (44) 
30.0

$$$$
LIG
     RDKit          3D

 72 76  0  0  0  0  0  0  0  0999 V2000
  -14.5663  -42.9805  -22.7696 C   0  0  1  0  0  0  0  0  0  0  0  0
  -15.1666  -43.6866  -23.9542 C   0  0  0  0  0  0  0  0  0  0  0  0
  -13.2318  -42.6730  -18.1388 O   0  0  0  0  0  0  0  0  0  0  0  0
  -16.2201  -43.3500  -14.0593 O   0  0  0  0  0  0  0  0  0  0  0  0
  -13.8494  -38.2094  -16.4315 O   0  0  0  0  0  0  0  0  0  0  0  0
  -19.5262  -45.8444  -24.5133 C   0  0  0  0  0  0  0  0  0  0  0  0
  -20.1708  -46.1164  -25.4932 C   0  0  0  0  0  0  0  0  0  0  0  0
  -20.9021  -46.4994  -26.7056 C   0  0  0  0  0  0  0  0  0  0  0  0
  -14.7683  -44.6414  -16.5645 O   0  0  0  0  0  0  0  0  0  0  0  0
  -15.4132  -43.8257  -17.1000 C   0  0  0  0  0  0  0  0  0  0  0  0
  -16.3438  -42.7265  -16.5081 N   0  0  0  0  0  0  0  0  0  0  0  0
  -16.6283  -42.2966  -14.9489 S   0  0  0  0  0  0  0  0  0  0  0  0
  -17.9075  -41.6253  -14.9041 O   0  0  0  0  0  0  0  0  0  0  0  0
  -14.7184  -38.0560  -17.5468 C   0  0  0  0  0  0  0  0  0  0  0  0
  -12.4187  -41.5810  -18.5613 C   0  0  0  0  0  0  0  0  0  0  0  0
  -22.0297  -45.6562  -26.8834 O   0  0  0  0  0  0  0  0  0  0  0  0
  -14.4766  -41.4349  -22.8670 C   0  0  0  0  0  0  0  0  0  0  0  0
  -13.6359  -40.6143  -22.1174 C   0  0  0  0  0  0  0  0  0  0  0  0
  -13.7886  -39.3392  -22.5449 N   0  0  0  0  0  0  0  0  0  0  0  0
  -14.6105  -39.2347  -23.5785 N   0  0  0  0  0  0  0  0  0  0  0  0
  -15.0238  -40.4931  -23.8197 C   0  0  0  0  0  0  0  0  0  0  0  0
  -17.1800  -41.1377  -24.8561 C   0  0  0  0  0  0  0  0  0  0  0  0
  -15.8678  -40.6995  -24.9864 C   0  0  0  0  0  0  0  0  0  0  0  0
  -15.3795  -40.3825  -26.2545 C   0  0  0  0  0  0  0  0  0  0  0  0
  -16.2101  -40.5677  -27.3426 C   0  0  0  0  0  0  0  0  0  0  0  0
  -17.4719  -41.0404  -27.2504 N   0  0  0  0  0  0  0  0  0  0  0  0
  -17.9273  -41.3090  -26.0070 C   0  0  0  0  0  0  0  0  0  0  0  0
  -15.0061  -43.3557  -21.3455 C   0  0  0  0  0  0  0  0  0  0  0  0
  -13.9865  -43.0604  -20.3998 C   0  0  0  0  0  0  0  0  0  0  0  0
  -14.1615  -43.1106  -19.0349 C   0  0  0  0  0  0  0  0  0  0  0  0
  -15.3344  -43.6634  -18.5588 C   0  0  0  0  0  0  0  0  0  0  0  0
  -16.3198  -44.1275  -19.4374 C   0  0  0  0  0  0  0  0  0  0  0  0
  -16.1683  -44.0043  -20.8490 C   0  0  0  0  0  0  0  0  0  0  0  0
  -13.3302  -39.2661  -14.4162 C   0  0  0  0  0  0  0  0  0  0  0  0
  -13.5284  -40.2364  -13.4343 C   0  0  0  0  0  0  0  0  0  0  0  0
  -14.5641  -41.1460  -13.5784 C   0  0  0  0  0  0  0  0  0  0  0  0
  -15.3959  -41.0607  -14.6999 C   0  0  0  0  0  0  0  0  0  0  0  0
  -15.2224  -40.0782  -15.6698 C   0  0  0  0  0  0  0  0  0  0  0  0
  -14.1702  -39.1857  -15.5335 C   0  0  0  0  0  0  0  0  0  0  0  0
  -17.3948  -46.1485  -21.5206 C   0  0  0  0  0  0  0  0  0  0  0  0
  -18.3409  -46.6242  -22.4737 C   0  0  0  0  0  0  0  0  0  0  0  0
  -18.7534  -45.6233  -23.3254 C   0  0  0  0  0  0  0  0  0  0  0  0
  -18.2558  -44.0936  -22.7443 S   0  0  0  0  0  0  0  0  0  0  0  0
  -17.1440  -44.7874  -21.6404 C   0  0  0  0  0  0  0  0  0  0  0  0
  -13.5246  -43.3305  -22.8185 H   0  0  0  0  0  0  0  0  0  0  0  0
  -15.2062  -44.7618  -23.7759 H   0  0  0  0  0  0  0  0  0  0  0  0
  -16.1672  -43.3606  -24.2048 H   0  0  0  0  0  0  0  0  0  0  0  0
  -14.5543  -43.5118  -24.8413 H   0  0  0  0  0  0  0  0  0  0  0  0
  -21.2224  -47.5446  -26.6944 H   0  0  0  0  0  0  0  0  0  0  0  0
  -20.2570  -46.3664  -27.5730 H   0  0  0  0  0  0  0  0  0  0  0  0
  -16.8166  -42.2399  -17.2623 H   0  0  0  0  0  0  0  0  0  0  0  0
  -15.7344  -37.8015  -17.2270 H   0  0  0  0  0  0  0  0  0  0  0  0
  -14.3431  -37.2224  -18.1484 H   0  0  0  0  0  0  0  0  0  0  0  0
  -14.7123  -38.9487  -18.1808 H   0  0  0  0  0  0  0  0  0  0  0  0
  -11.8687  -41.2208  -17.6865 H   0  0  0  0  0  0  0  0  0  0  0  0
  -11.6841  -41.8940  -19.3073 H   0  0  0  0  0  0  0  0  0  0  0  0
  -13.0308  -40.7527  -18.9318 H   0  0  0  0  0  0  0  0  0  0  0  0
  -22.8054  -46.1551  -26.5454 H   0  0  0  0  0  0  0  0  0  0  0  0
  -12.9169  -40.8123  -21.3416 H   0  0  0  0  0  0  0  0  0  0  0  0
  -17.6131  -41.3325  -23.8830 H   0  0  0  0  0  0  0  0  0  0  0  0
  -14.3758  -39.9927  -26.3898 H   0  0  0  0  0  0  0  0  0  0  0  0
  -15.8740  -40.3381  -28.3491 H   0  0  0  0  0  0  0  0  0  0  0  0
  -18.9528  -41.6641  -25.9571 H   0  0  0  0  0  0  0  0  0  0  0  0
  -12.9952  -42.8049  -20.7717 H   0  0  0  0  0  0  0  0  0  0  0  0
  -17.1951  -44.6301  -19.0278 H   0  0  0  0  0  0  0  0  0  0  0  0
  -12.5083  -38.5608  -14.3123 H   0  0  0  0  0  0  0  0  0  0  0  0
  -12.8673  -40.2875  -12.5733 H   0  0  0  0  0  0  0  0  0  0  0  0
  -14.7061  -41.9212  -12.8285 H   0  0  0  0  0  0  0  0  0  0  0  0
  -15.8998  -40.0412  -16.5133 H   0  0  0  0  0  0  0  0  0  0  0  0
  -16.8781  -46.7953  -20.8205 H   0  0  0  0  0  0  0  0  0  0  0  0
  -18.6227  -47.6657  -22.5853 H   0  0  0  0  0  0  0  0  0  0  0  0
  -13.3364  -38.5011  -22.1948 H   0  0  0  0  0  0  0  0  0  0  0  0
  2  1  1  0
  8 16  1  0
  8  7  1  0
  7  6  3  0
 11 10  1  0
 11 12  1  0
 10  9  2  0
  4 12  2  0
 13 12  2  0
  3 15  1  0
 14  5  1  0
 17  1  1  0
 17 18  2  0
 17 21  1  0
 18 19  1  0
 19 20  1  0
 20 21  2  0
 21 23  1  0
 22 27  2  0
 22 23  1  0
 23 24  2  0
 24 25  1  0
 25 26  2  0
 26 27  1  0
 28 33  1  0
 28 29  2  0
 29 30  1  0
 30 31  2  0
 30  3  1  0
 31 32  1  0
 31 10  1  0
 32 33  2  0
 33 44  1  0
 34 39  2  0
 34 35  1  0
 35 36  2  0
 36 37  1  0
 37 12  1  0
 37 38  2  0
 38 39  1  0
 39  5  1  0
 40 41  1  0
 40 44  2  0
 41 42  2  0
 42  6  1  0
 42 43  1  0
 43 44  1  0
  1 28  1  0
  1 45  1  1
  2 46  1  0
  2 47  1  0
  2 48  1  0
  8 49  1  0
  8 50  1  0
 11 51  1  0
 14 52  1  0
 14 53  1  0
 14 54  1  0
 15 55  1  0
 15 56  1  0
 15 57  1  0
 16 58  1  0
 18 59  1  0
 22 60  1  0
 24 61  1  0
 25 62  1  0
 27 63  1  0
 29 64  1  0
 32 65  1  0
 34 66  1  0
 35 67  1  0
 36 68  1  0
 38 69  1  0
 40 70  1  0
 41 71  1  0
 19 72  1  0
M  END
>  <smiles>  (45) 
[H]OC([H])([H])C#Cc1sc(-c2c([H])c(C(=O)N([H])S(=O)(=O)c3c([H])c([H])c([H])c(OC([H])([H])[H])c3[H])c(OC([H])([H])[H])c([H])c2[C@]([H])(c2c(-c3c([H])c([H])nc([H])c3[H])n[nH]c2[H])C([H])([H])[H])c([H])c1[H]

>  <error>  (45) 


>  <∆∆G>  (45) 
-104.00449

>  <∆G_bound>  (45) 
200.342727

>  <∆G_unbound>  (45) 
304.347216

>  <comRMSD>  (45) 
0.759043

>  <N_constrained_atoms>  (45) 
44.0

>  <N_unconstrained_atoms>  (45) 
0.0

>  <runtime>  (45) 
3.334219

>  <regarded>  (45) 
['d0160a', '5i3p-a']

>  <disregarded>  (45) 
[]

>  <LE>  (45) 
2.363738

>  <outcome>  (45) 
acceptable

>  <percent_hybrid>  (45) 
28.0

$$$$
LIG
     RDKit          3D

 44 47  0  0  0  0  0  0  0  0999 V2000
  -14.9270  -43.1799  -22.4406 C   0  0  0  0  0  0  0  0  0  0  0  0
  -14.3214  -40.6310  -20.2769 O   0  0  0  0  0  0  0  0  0  0  0  0
  -17.3969  -45.1856  -18.4935 O   0  0  0  0  0  0  0  0  0  0  0  0
  -14.7205  -41.6688  -22.5381 C   0  0  0  0  0  0  0  0  0  0  0  0
  -14.3359  -40.7174  -21.6011 C   0  0  0  0  0  0  0  0  0  0  0  0
  -13.8482  -39.6757  -22.3241 N   0  0  0  0  0  0  0  0  0  0  0  0
  -14.2483  -39.6465  -23.5776 N   0  0  0  0  0  0  0  0  0  0  0  0
  -14.8524  -40.8391  -23.7356 C   0  0  0  0  0  0  0  0  0  0  0  0
  -16.8440  -41.7083  -24.9160 C   0  0  0  0  0  0  0  0  0  0  0  0
  -15.6100  -41.0671  -24.9674 C   0  0  0  0  0  0  0  0  0  0  0  0
  -15.2220  -40.4813  -26.1739 C   0  0  0  0  0  0  0  0  0  0  0  0
  -16.0631  -40.5956  -27.2688 C   0  0  0  0  0  0  0  0  0  0  0  0
  -17.2570  -41.2261  -27.2401 N   0  0  0  0  0  0  0  0  0  0  0  0
  -17.6191  -41.7589  -26.0576 C   0  0  0  0  0  0  0  0  0  0  0  0
  -16.3247  -44.5614  -19.0902 C   0  0  0  0  0  0  0  0  0  0  0  0
  -15.3015  -44.1879  -18.2273 C   0  0  0  0  0  0  0  0  0  0  0  0
  -14.1278  -43.6718  -18.7520 C   0  0  0  0  0  0  0  0  0  0  0  0
  -14.0159  -43.4595  -20.1235 C   0  0  0  0  0  0  0  0  0  0  0  0
  -15.1080  -43.6488  -20.9986 C   0  0  0  0  0  0  0  0  0  0  0  0
  -16.2455  -44.3447  -20.4915 C   0  0  0  0  0  0  0  0  0  0  0  0
  -18.1756  -47.1006  -22.1978 C   0  0  0  0  0  0  0  0  0  0  0  0
  -17.3558  -46.4146  -21.3122 C   0  0  0  0  0  0  0  0  0  0  0  0
  -17.2246  -45.0133  -21.3740 C   0  0  0  0  0  0  0  0  0  0  0  0
  -18.0195  -44.3212  -22.2909 C   0  0  0  0  0  0  0  0  0  0  0  0
  -18.7704  -45.0120  -23.2412 C   0  0  0  0  0  0  0  0  0  0  0  0
  -18.7986  -46.4037  -23.2221 C   0  0  0  0  0  0  0  0  0  0  0  0
  -13.1414  -38.6148  -21.8077 O   0  0  0  0  0  0  0  0  0  0  0  0
  -15.7464  -43.4949  -23.0814 H   0  0  0  0  0  0  0  0  0  0  0  0
  -14.0333  -43.6730  -22.8467 H   0  0  0  0  0  0  0  0  0  0  0  0
  -14.9213  -41.3128  -19.9218 H   0  0  0  0  0  0  0  0  0  0  0  0
  -18.1373  -45.1699  -19.1282 H   0  0  0  0  0  0  0  0  0  0  0  0
  -17.2425  -42.0955  -23.9921 H   0  0  0  0  0  0  0  0  0  0  0  0
  -14.2944  -39.9222  -26.2570 H   0  0  0  0  0  0  0  0  0  0  0  0
  -15.7987  -40.1617  -28.2272 H   0  0  0  0  0  0  0  0  0  0  0  0
  -18.6017  -42.2178  -26.0362 H   0  0  0  0  0  0  0  0  0  0  0  0
  -15.3985  -44.3419  -17.1560 H   0  0  0  0  0  0  0  0  0  0  0  0
  -13.2885  -43.4310  -18.1012 H   0  0  0  0  0  0  0  0  0  0  0  0
  -13.0674  -43.0735  -20.5071 H   0  0  0  0  0  0  0  0  0  0  0  0
  -18.2541  -48.1833  -22.1466 H   0  0  0  0  0  0  0  0  0  0  0  0
  -16.7819  -46.9894  -20.5882 H   0  0  0  0  0  0  0  0  0  0  0  0
  -18.0188  -43.2355  -22.2934 H   0  0  0  0  0  0  0  0  0  0  0  0
  -19.3260  -44.4695  -24.0005 H   0  0  0  0  0  0  0  0  0  0  0  0
  -19.3250  -46.9559  -23.9977 H   0  0  0  0  0  0  0  0  0  0  0  0
  -13.1372  -38.8977  -20.8772 H   0  0  0  0  0  0  0  0  0  0  0  0
  4  1  1  0
  4  5  2  0
  4  8  1  0
  5  6  1  0
  6  7  1  0
  7  8  2  0
  8 10  1  0
  9 14  2  0
  9 10  1  0
 10 11  2  0
 11 12  1  0
 12 13  2  0
 13 14  1  0
 15  3  1  0
 15 20  2  0
 15 16  1  0
 16 17  2  0
 17 18  1  0
 18 19  2  0
 19 20  1  0
 20 23  1  0
 21 26  2  0
 21 22  1  0
 22 23  2  0
 23 24  1  0
 24 25  2  0
 25 26  1  0
  5  2  1  0
  1 19  1  0
  6 27  1  0
  1 28  1  0
  1 29  1  0
  2 30  1  0
  3 31  1  0
  9 32  1  0
 11 33  1  0
 12 34  1  0
 14 35  1  0
 16 36  1  0
 17 37  1  0
 18 38  1  0
 21 39  1  0
 22 40  1  0
 24 41  1  0
 25 42  1  0
 26 43  1  0
 27 44  1  0
M  END
>  <smiles>  (46) 
[H]Oc1c([H])c([H])c([H])c(C([H])([H])c2c(-c3c([H])c([H])nc([H])c3[H])nn(O[H])c2O[H])c1-c1c([H])c([H])c([H])c([H])c1[H]

>  <error>  (46) 


>  <∆∆G>  (46) 
-75.100502

>  <∆G_bound>  (46) 
254.7943

>  <∆G_unbound>  (46) 
329.894802

>  <comRMSD>  (46) 
0.672281

>  <N_constrained_atoms>  (46) 
27.0

>  <N_unconstrained_atoms>  (46) 
0.0

>  <runtime>  (46) 
1.92571

>  <regarded>  (46) 
['d0160a', '5hn0-a']

>  <disregarded>  (46) 
[]

>  <LE>  (46) 
2.7815

>  <outcome>  (46) 
acceptable

>  <percent_hybrid>  (46) 
45.0

$$$$
LIG
     RDKit          3D

 47 50  0  0  0  0  0  0  0  0999 V2000
  -14.4985  -43.0601  -22.6974 C   0  0  1  0  0  0  0  0  0  0  0  0
  -15.2668  -43.7542  -23.7982 C   0  0  0  0  0  0  0  0  0  0  0  0
  -15.0917  -43.7694  -16.9116 C   0  0  0  0  0  0  0  0  0  0  0  0
  -15.9155  -42.0665  -15.3948 O   0  0  0  0  0  0  0  0  0  0  0  0
  -16.1274  -42.8663  -16.2940 C   0  0  0  0  0  0  0  0  0  0  0  0
  -17.3792  -43.0705  -16.7477 O   0  0  0  0  0  0  0  0  0  0  0  0
  -14.4573  -41.5163  -22.7609 C   0  0  0  0  0  0  0  0  0  0  0  0
  -13.7355  -40.6819  -21.9120 C   0  0  0  0  0  0  0  0  0  0  0  0
  -13.8535  -39.4118  -22.3653 N   0  0  0  0  0  0  0  0  0  0  0  0
  -14.5667  -39.3172  -23.4816 N   0  0  0  0  0  0  0  0  0  0  0  0
  -14.9633  -40.5772  -23.7435 C   0  0  0  0  0  0  0  0  0  0  0  0
  -17.0914  -41.2465  -24.8201 C   0  0  0  0  0  0  0  0  0  0  0  0
  -15.7854  -40.7804  -24.9310 C   0  0  0  0  0  0  0  0  0  0  0  0
  -15.3069  -40.4167  -26.1894 C   0  0  0  0  0  0  0  0  0  0  0  0
  -16.1350  -40.5909  -27.2847 C   0  0  0  0  0  0  0  0  0  0  0  0
  -17.3900  -41.0873  -27.2101 N   0  0  0  0  0  0  0  0  0  0  0  0
  -17.8379  -41.3958  -25.9749 C   0  0  0  0  0  0  0  0  0  0  0  0
  -14.9870  -43.7371  -18.4133 C   0  0  0  0  0  0  0  0  0  0  0  0
  -13.7744  -43.3981  -18.9961 C   0  0  0  0  0  0  0  0  0  0  0  0
  -13.6672  -43.3097  -20.3773 C   0  0  0  0  0  0  0  0  0  0  0  0
  -14.7700  -43.4735  -21.2467 C   0  0  0  0  0  0  0  0  0  0  0  0
  -15.9365  -44.0088  -20.6695 C   0  0  0  0  0  0  0  0  0  0  0  0
  -16.0380  -44.1092  -19.2605 C   0  0  0  0  0  0  0  0  0  0  0  0
  -17.1512  -45.9788  -21.4879 C   0  0  0  0  0  0  0  0  0  0  0  0
  -18.5079  -46.4673  -22.3911 S   0  0  0  0  0  0  0  0  0  0  0  0
  -18.9742  -44.8464  -22.6738 C   0  0  0  0  0  0  0  0  0  0  0  0
  -18.1359  -43.9539  -22.0445 C   0  0  0  0  0  0  0  0  0  0  0  0
  -17.0327  -44.6024  -21.4190 C   0  0  0  0  0  0  0  0  0  0  0  0
  -13.4692  -43.3918  -22.8861 H   0  0  0  0  0  0  0  0  0  0  0  0
  -15.2301  -44.8359  -23.6598 H   0  0  0  0  0  0  0  0  0  0  0  0
  -16.3157  -43.4770  -23.8342 H   0  0  0  0  0  0  0  0  0  0  0  0
  -14.8356  -43.5291  -24.7774 H   0  0  0  0  0  0  0  0  0  0  0  0
  -14.1294  -43.4753  -16.4715 H   0  0  0  0  0  0  0  0  0  0  0  0
  -15.2546  -44.7983  -16.5859 H   0  0  0  0  0  0  0  0  0  0  0  0
  -17.9445  -42.6207  -16.0786 H   0  0  0  0  0  0  0  0  0  0  0  0
  -13.1328  -40.8711  -21.0376 H   0  0  0  0  0  0  0  0  0  0  0  0
  -17.5238  -41.4724  -23.8538 H   0  0  0  0  0  0  0  0  0  0  0  0
  -14.3128  -39.9999  -26.3135 H   0  0  0  0  0  0  0  0  0  0  0  0
  -15.8017  -40.3298  -28.2844 H   0  0  0  0  0  0  0  0  0  0  0  0
  -18.8586  -41.7632  -25.9329 H   0  0  0  0  0  0  0  0  0  0  0  0
  -12.8928  -43.1812  -18.3954 H   0  0  0  0  0  0  0  0  0  0  0  0
  -12.6859  -43.0586  -20.7858 H   0  0  0  0  0  0  0  0  0  0  0  0
  -16.9661  -44.4807  -18.8268 H   0  0  0  0  0  0  0  0  0  0  0  0
  -16.4930  -46.7263  -21.0656 H   0  0  0  0  0  0  0  0  0  0  0  0
  -19.8572  -44.6179  -23.2529 H   0  0  0  0  0  0  0  0  0  0  0  0
  -18.2853  -42.8822  -22.0564 H   0  0  0  0  0  0  0  0  0  0  0  0
  -13.4604  -38.5669  -21.9643 H   0  0  0  0  0  0  0  0  0  0  0  0
  2  1  1  0
  3  5  1  0
  4  5  2  0
  5  6  1  0
  7  1  1  0
  7  8  2  0
  7 11  1  0
  8  9  1  0
  9 10  1  0
 10 11  2  0
 11 13  1  0
 12 17  2  0
 12 13  1  0
 13 14  2  0
 14 15  1  0
 15 16  2  0
 16 17  1  0
 18 23  2  0
 18  3  1  0
 18 19  1  0
 19 20  2  0
 20 21  1  0
 21 22  2  0
 22 28  1  0
 22 23  1  0
 24 25  1  0
 24 28  2  0
 25 26  1  0
 26 27  2  0
 27 28  1  0
  1 21  1  0
  1 29  1  6
  2 30  1  0
  2 31  1  0
  2 32  1  0
  3 33  1  0
  3 34  1  0
  6 35  1  0
  8 36  1  0
 12 37  1  0
 14 38  1  0
 15 39  1  0
 17 40  1  0
 19 41  1  0
 20 42  1  0
 23 43  1  0
 24 44  1  0
 26 45  1  0
 27 46  1  0
  9 47  1  0
M  END
>  <smiles>  (47) 
[H]OC(=O)C([H])([H])c1c([H])c([H])c([C@]([H])(c2c(-c3c([H])c([H])nc([H])c3[H])n[nH]c2[H])C([H])([H])[H])c(-c2c([H])sc([H])c2[H])c1[H]

>  <error>  (47) 


>  <∆∆G>  (47) 
-85.688978

>  <∆G_bound>  (47) 
142.064649

>  <∆G_unbound>  (47) 
227.753627

>  <comRMSD>  (47) 
0.894247

>  <N_constrained_atoms>  (47) 
28.0

>  <N_unconstrained_atoms>  (47) 
0.0

>  <runtime>  (47) 
2.962336

>  <regarded>  (47) 
['d0160a', '5f41-a']

>  <disregarded>  (47) 
[]

>  <LE>  (47) 
3.060321

>  <outcome>  (47) 
acceptable

>  <percent_hybrid>  (47) 
43.0

$$$$
LIG
     RDKit          3D

 45 48  0  0  0  0  0  0  0  0999 V2000
  -15.6861  -42.0911  -22.3247 C   0  0  0  0  0  0  0  0  0  0  0  0
  -15.0743  -44.0622  -16.8067 C   0  0  0  0  0  0  0  0  0  0  0  0
  -15.1025  -43.4118  -22.3889 O   0  0  0  0  0  0  0  0  0  0  0  0
  -14.2956  -42.1132  -15.6296 O   0  0  0  0  0  0  0  0  0  0  0  0
  -12.8548  -43.8293  -15.9033 O   0  0  0  0  0  0  0  0  0  0  0  0
  -13.9689  -43.3478  -16.0670 C   0  0  0  0  0  0  0  0  0  0  0  0
  -14.7434  -40.9834  -22.6550 C   0  0  0  0  0  0  0  0  0  0  0  0
  -13.8580  -40.3494  -21.8066 C   0  0  0  0  0  0  0  0  0  0  0  0
  -13.2997  -39.3404  -22.5224 N   0  0  0  0  0  0  0  0  0  0  0  0
  -13.8137  -39.2131  -23.7523 N   0  0  0  0  0  0  0  0  0  0  0  0
  -14.6404  -40.2662  -23.8881 C   0  0  0  0  0  0  0  0  0  0  0  0
  -15.6613  -41.8486  -25.5037 C   0  0  0  0  0  0  0  0  0  0  0  0
  -15.3605  -40.5393  -25.1344 C   0  0  0  0  0  0  0  0  0  0  0  0
  -15.7784  -39.5087  -25.9734 C   0  0  0  0  0  0  0  0  0  0  0  0
  -16.5213  -39.8270  -27.1013 C   0  0  0  0  0  0  0  0  0  0  0  0
  -16.8834  -41.0834  -27.4409 N   0  0  0  0  0  0  0  0  0  0  0  0
  -16.4128  -42.0625  -26.6416 C   0  0  0  0  0  0  0  0  0  0  0  0
  -14.9910  -44.0484  -18.3151 C   0  0  0  0  0  0  0  0  0  0  0  0
  -13.8941  -43.5090  -18.9922 C   0  0  0  0  0  0  0  0  0  0  0  0
  -13.8983  -43.4355  -20.3762 C   0  0  0  0  0  0  0  0  0  0  0  0
  -15.0148  -43.8632  -21.0938 C   0  0  0  0  0  0  0  0  0  0  0  0
  -16.0510  -44.5791  -20.4763 C   0  0  0  0  0  0  0  0  0  0  0  0
  -16.0293  -44.6375  -19.0709 C   0  0  0  0  0  0  0  0  0  0  0  0
  -18.6454  -46.1305  -22.9550 C   0  0  0  0  0  0  0  0  0  0  0  0
  -18.4203  -47.0850  -21.9930 C   0  0  0  0  0  0  0  0  0  0  0  0
  -17.5161  -46.6210  -20.9961 C   0  0  0  0  0  0  0  0  0  0  0  0
  -17.0875  -45.3211  -21.2200 C   0  0  0  0  0  0  0  0  0  0  0  0
  -17.9305  -44.6427  -22.5515 S   0  0  0  0  0  0  0  0  0  0  0  0
  -16.5317  -42.0770  -23.0191 H   0  0  0  0  0  0  0  0  0  0  0  0
  -16.1479  -41.8709  -21.3484 H   0  0  0  0  0  0  0  0  0  0  0  0
  -15.0330  -45.1028  -16.4706 H   0  0  0  0  0  0  0  0  0  0  0  0
  -16.0384  -43.6482  -16.4918 H   0  0  0  0  0  0  0  0  0  0  0  0
  -15.2131  -41.8402  -15.8258 H   0  0  0  0  0  0  0  0  0  0  0  0
  -13.5923  -40.5168  -20.7729 H   0  0  0  0  0  0  0  0  0  0  0  0
  -15.2902  -42.7052  -24.9509 H   0  0  0  0  0  0  0  0  0  0  0  0
  -15.5383  -38.4744  -25.7536 H   0  0  0  0  0  0  0  0  0  0  0  0
  -16.8548  -39.0479  -27.7806 H   0  0  0  0  0  0  0  0  0  0  0  0
  -16.6254  -43.0743  -26.9587 H   0  0  0  0  0  0  0  0  0  0  0  0
  -13.0213  -43.1176  -18.4709 H   0  0  0  0  0  0  0  0  0  0  0  0
  -13.0530  -42.9906  -20.8982 H   0  0  0  0  0  0  0  0  0  0  0  0
  -16.8507  -45.1306  -18.5556 H   0  0  0  0  0  0  0  0  0  0  0  0
  -19.2136  -46.2326  -23.8682 H   0  0  0  0  0  0  0  0  0  0  0  0
  -18.8226  -48.0893  -22.0449 H   0  0  0  0  0  0  0  0  0  0  0  0
  -17.1374  -47.2479  -20.1982 H   0  0  0  0  0  0  0  0  0  0  0  0
  -12.5865  -38.6823  -22.2235 H   0  0  0  0  0  0  0  0  0  0  0  0
  5  6  2  0
  2  6  1  0
  6  4  1  0
  3  1  1  0
  7  1  1  0
  7  8  2  0
  7 11  1  0
  8  9  1  0
  9 10  1  0
 10 11  2  0
 11 13  1  0
 12 17  2  0
 12 13  1  0
 13 14  2  0
 14 15  1  0
 15 16  2  0
 16 17  1  0
 18 23  2  0
 18  2  1  0
 18 19  1  0
 19 20  2  0
 20 21  1  0
 21 22  2  0
 21  3  1  0
 22 27  1  0
 22 23  1  0
 24 25  2  0
 24 28  1  0
 25 26  1  0
 26 27  2  0
 27 28  1  0
  1 29  1  0
  1 30  1  0
  2 31  1  0
  2 32  1  0
  4 33  1  0
  8 34  1  0
 12 35  1  0
 14 36  1  0
 15 37  1  0
 17 38  1  0
 19 39  1  0
 20 40  1  0
 23 41  1  0
 24 42  1  0
 25 43  1  0
 26 44  1  0
  9 45  1  0
M  END
>  <smiles>  (48) 
[H]OC(=O)C([H])([H])c1c([H])c([H])c(OC([H])([H])c2c(-c3c([H])c([H])nc([H])c3[H])n[nH]c2[H])c(-c2sc([H])c([H])c2[H])c1[H]

>  <error>  (48) 


>  <∆∆G>  (48) 
-74.714602

>  <∆G_bound>  (48) 
191.46345

>  <∆G_unbound>  (48) 
266.178052

>  <comRMSD>  (48) 
1.224722

>  <N_constrained_atoms>  (48) 
28.0

>  <N_unconstrained_atoms>  (48) 
0.0

>  <runtime>  (48) 
2.623257

>  <regarded>  (48) 
['d0160a', '6h80-a']

>  <disregarded>  (48) 
[]

>  <LE>  (48) 
2.668379

>  <outcome>  (48) 
too moved

>  <percent_hybrid>  (48) 
43.0

$$$$
LIG
     RDKit          3D

 58 61  0  0  0  0  0  0  0  0999 V2000
  -14.6371  -42.7793  -23.4491 C   0  0  0  0  0  0  0  0  0  0  0  0
  -14.4591  -41.3316  -23.2076 C   0  0  0  0  0  0  0  0  0  0  0  0
  -13.9328  -40.6487  -22.1293 C   0  0  0  0  0  0  0  0  0  0  0  0
  -13.8449  -39.3456  -22.5462 N   0  0  0  0  0  0  0  0  0  0  0  0
  -14.4769  -39.0965  -23.6969 N   0  0  0  0  0  0  0  0  0  0  0  0
  -14.9077  -40.3021  -24.0868 C   0  0  0  0  0  0  0  0  0  0  0  0
  -16.9775  -41.2007  -25.0617 C   0  0  0  0  0  0  0  0  0  0  0  0
  -15.7872  -40.4856  -25.2274 C   0  0  0  0  0  0  0  0  0  0  0  0
  -15.4609  -39.9781  -26.4755 C   0  0  0  0  0  0  0  0  0  0  0  0
  -16.3322  -40.2367  -27.5161 C   0  0  0  0  0  0  0  0  0  0  0  0
  -17.4845  -40.9355  -27.3922 N   0  0  0  0  0  0  0  0  0  0  0  0
  -17.7839  -41.3945  -26.1611 C   0  0  0  0  0  0  0  0  0  0  0  0
  -13.3275  -42.4422  -20.3475 C   0  0  0  0  0  0  0  0  0  0  0  0
  -14.5362  -40.3168  -19.9485 O   0  0  0  0  0  0  0  0  0  0  0  0
  -18.6455  -41.2878  -16.0454 O   0  0  0  0  0  0  0  0  0  0  0  0
  -19.2710  -42.8724  -17.4811 O   0  0  0  0  0  0  0  0  0  0  0  0
  -19.2982  -46.2641  -24.3516 C   0  0  0  0  0  0  0  0  0  0  0  0
  -19.9242  -46.4236  -25.3687 C   0  0  0  0  0  0  0  0  0  0  0  0
  -20.6971  -46.6724  -26.5946 C   0  0  0  0  0  0  0  0  0  0  0  0
  -12.3612  -40.1944  -20.5300 O   0  0  0  0  0  0  0  0  0  0  0  0
  -13.5410  -40.9527  -20.7343 C   0  0  2  0  0  0  0  0  0  0  0  0
  -16.8997  -42.6652  -16.8820 C   0  0  0  0  0  0  0  0  0  0  0  0
  -18.3672  -42.3104  -16.8819 C   0  0  0  0  0  0  0  0  0  0  0  0
  -21.8382  -45.8280  -26.6315 O   0  0  0  0  0  0  0  0  0  0  0  0
  -14.5601  -43.1649  -19.8351 C   0  0  0  0  0  0  0  0  0  0  0  0
  -15.0973  -42.7857  -18.6011 C   0  0  0  0  0  0  0  0  0  0  0  0
  -16.3453  -43.2502  -18.1674 C   0  0  0  0  0  0  0  0  0  0  0  0
  -17.0261  -44.1850  -18.9640 C   0  0  0  0  0  0  0  0  0  0  0  0
  -16.4978  -44.5985  -20.1941 C   0  0  0  0  0  0  0  0  0  0  0  0
  -15.2340  -44.1340  -20.5820 C   0  0  0  0  0  0  0  0  0  0  0  0
  -18.4578  -47.1369  -22.1646 C   0  0  0  0  0  0  0  0  0  0  0  0
  -18.6198  -46.1286  -23.0925 C   0  0  0  0  0  0  0  0  0  0  0  0
  -17.9414  -44.6691  -22.5350 S   0  0  0  0  0  0  0  0  0  0  0  0
  -17.2990  -45.4076  -21.1179 C   0  0  0  0  0  0  0  0  0  0  0  0
  -17.6806  -46.7291  -21.0364 C   0  0  0  0  0  0  0  0  0  0  0  0
  -15.5948  -43.1058  -23.0537 H   0  0  0  0  0  0  0  0  0  0  0  0
  -14.6333  -43.0015  -24.5220 H   0  0  0  0  0  0  0  0  0  0  0  0
  -13.8237  -43.3706  -23.0303 H   0  0  0  0  0  0  0  0  0  0  0  0
  -17.2807  -41.5843  -24.0942 H   0  0  0  0  0  0  0  0  0  0  0  0
  -14.5487  -39.4129  -26.6314 H   0  0  0  0  0  0  0  0  0  0  0  0
  -16.1229  -39.8867  -28.5198 H   0  0  0  0  0  0  0  0  0  0  0  0
  -18.7234  -41.9316  -26.0762 H   0  0  0  0  0  0  0  0  0  0  0  0
  -12.8492  -42.9981  -21.1584 H   0  0  0  0  0  0  0  0  0  0  0  0
  -12.5907  -42.4948  -19.5325 H   0  0  0  0  0  0  0  0  0  0  0  0
  -19.6251  -41.2491  -16.0392 H   0  0  0  0  0  0  0  0  0  0  0  0
  -21.0119  -47.7156  -26.6835 H   0  0  0  0  0  0  0  0  0  0  0  0
  -20.0967  -46.4410  -27.4728 H   0  0  0  0  0  0  0  0  0  0  0  0
  -12.0058  -40.4719  -19.6704 H   0  0  0  0  0  0  0  0  0  0  0  0
  -16.3589  -41.7343  -16.6644 H   0  0  0  0  0  0  0  0  0  0  0  0
  -16.6949  -43.3479  -16.0561 H   0  0  0  0  0  0  0  0  0  0  0  0
  -22.6086  -46.3649  -26.3500 H   0  0  0  0  0  0  0  0  0  0  0  0
  -14.5677  -42.0431  -18.0018 H   0  0  0  0  0  0  0  0  0  0  0  0
  -18.0126  -44.5418  -18.6742 H   0  0  0  0  0  0  0  0  0  0  0  0
  -14.7999  -44.5100  -21.5029 H   0  0  0  0  0  0  0  0  0  0  0  0
  -18.8455  -48.1393  -22.3011 H   0  0  0  0  0  0  0  0  0  0  0  0
  -17.4015  -47.3860  -20.2232 H   0  0  0  0  0  0  0  0  0  0  0  0
  -13.4351  -38.5798  -22.0193 H   0  0  0  0  0  0  0  0  0  0  0  0
  -15.3866  -40.4755  -20.3952 H   0  0  0  0  0  0  0  0  0  0  0  0
  2  1  1  0
  2  3  2  0
  2  6  1  0
  3  4  1  0
  4  5  1  0
  5  6  2  0
  6  8  1  0
  7 12  2  0
  7  8  1  0
  8  9  2  0
  9 10  1  0
 10 11  2  0
 11 12  1  0
 24 19  1  0
 19 18  1  0
 18 17  3  0
 22 23  1  0
 16 23  2  0
 23 15  1  0
 13 21  1  0
 21 14  1  1
 21 20  1  0
 25 30  1  0
 25 26  2  0
 25 13  1  0
 26 27  1  0
 27 28  2  0
 27 22  1  0
 28 29  1  0
 29 34  1  0
 29 30  2  0
 31 32  2  0
 31 35  1  0
 32 17  1  0
 32 33  1  0
 33 34  1  0
 34 35  2  0
  3 21  1  0
  1 36  1  0
  1 37  1  0
  1 38  1  0
  7 39  1  0
  9 40  1  0
 10 41  1  0
 12 42  1  0
 13 43  1  0
 13 44  1  0
 15 45  1  0
 19 46  1  0
 19 47  1  0
 20 48  1  0
 22 49  1  0
 22 50  1  0
 24 51  1  0
 26 52  1  0
 28 53  1  0
 30 54  1  0
 31 55  1  0
 35 56  1  0
  4 57  1  0
 14 58  1  0
M  END
>  <smiles>  (49) 
[H]OC(=O)C([H])([H])c1c([H])c(-c2sc(C#CC([H])([H])O[H])c([H])c2[H])c([H])c(C([H])([H])[C@@](O)(O[H])c2[nH]nc(-c3c([H])c([H])nc([H])c3[H])c2C([H])([H])[H])c1[H]

>  <error>  (49) 


>  <∆∆G>  (49) 
-54.039198

>  <∆G_bound>  (49) 
194.0829

>  <∆G_unbound>  (49) 
248.122099

>  <comRMSD>  (49) 
1.154418

>  <N_constrained_atoms>  (49) 
35.0

>  <N_unconstrained_atoms>  (49) 
0.0

>  <runtime>  (49) 
4.044427

>  <regarded>  (49) 
['d0160a', '5hmy-a']

>  <disregarded>  (49) 
[]

>  <LE>  (49) 
1.543977

>  <outcome>  (49) 
too moved

>  <percent_hybrid>  (49) 
35.0

$$$$
LIG
     RDKit          3D

 25 25  0  0  0  0  0  0  0  0999 V2000
  -14.6013  -41.3437  -23.8663 N   0  0  0  0  0  0  0  0  0  0  0  0
  -13.1155  -40.4305  -20.9680 C   0  0  0  0  0  0  0  0  0  0  0  0
  -12.9021  -39.8768  -22.2993 N   0  0  0  0  0  0  0  0  0  0  0  0
  -14.1005  -39.3047  -22.7521 N   0  0  0  0  0  0  0  0  0  0  0  0
  -14.6172  -39.9753  -23.8054 C   0  0  0  0  0  0  0  0  0  0  0  0
  -15.2107  -41.7635  -25.0167 C   0  0  0  0  0  0  0  0  0  0  0  0
  -15.6018  -40.6434  -25.7303 C   0  0  0  0  0  0  0  0  0  0  0  0
  -16.2778  -40.6145  -27.0551 C   0  0  0  0  0  0  0  0  0  0  0  0
  -17.7245  -40.4945  -26.8724 N   0  0  0  0  0  0  0  0  0  0  0  0
  -18.2854  -41.5785  -26.0828 C   0  0  0  0  0  0  0  0  0  0  0  0
  -15.2631  -39.5186  -24.9286 C   0  0  0  0  0  0  0  0  0  0  0  0
  -14.1595  -41.9258  -23.1703 H   0  0  0  0  0  0  0  0  0  0  0  0
  -12.1904  -40.9009  -20.6198 H   0  0  0  0  0  0  0  0  0  0  0  0
  -13.3867  -39.6487  -20.2504 H   0  0  0  0  0  0  0  0  0  0  0  0
  -13.8950  -41.1995  -20.9634 H   0  0  0  0  0  0  0  0  0  0  0  0
  -12.1500  -39.1842  -22.2557 H   0  0  0  0  0  0  0  0  0  0  0  0
  -14.1471  -38.2853  -22.7698 H   0  0  0  0  0  0  0  0  0  0  0  0
  -15.2850  -42.8179  -25.2405 H   0  0  0  0  0  0  0  0  0  0  0  0
  -15.9259  -39.7513  -27.6279 H   0  0  0  0  0  0  0  0  0  0  0  0
  -16.0319  -41.5089  -27.6390 H   0  0  0  0  0  0  0  0  0  0  0  0
  -18.1849  -40.3947  -27.7697 H   0  0  0  0  0  0  0  0  0  0  0  0
  -18.1363  -41.4094  -25.0116 H   0  0  0  0  0  0  0  0  0  0  0  0
  -19.3683  -41.6168  -26.2401 H   0  0  0  0  0  0  0  0  0  0  0  0
  -17.8688  -42.5532  -26.3487 H   0  0  0  0  0  0  0  0  0  0  0  0
  -15.4636  -38.4857  -25.1746 H   0  0  0  0  0  0  0  0  0  0  0  0
  1  5  1  0
  2  3  1  0
  3  4  1  0
  4  5  1  0
  7  8  1  0
  8  9  1  0
  9 10  1  0
  5 11  2  0
  6  1  1  0
  7 11  1  0
  6  7  2  0
  1 12  1  0
  2 13  1  0
  2 14  1  0
  2 15  1  0
  3 16  1  0
  4 17  1  0
  6 18  1  0
  8 19  1  0
  8 20  1  0
  9 21  1  0
 10 22  1  0
 10 23  1  0
 10 24  1  0
 11 25  1  0
M  END
>  <smiles>  (50) 
[H]c1c(C([H])([H])N([H])C([H])([H])[H])c([H])n([H])c1N([H])N([H])C([H])([H])[H]

>  <error>  (50) 


>  <∆∆G>  (50) 
-22.517509

>  <∆G_bound>  (50) 
305.857356

>  <∆G_unbound>  (50) 
328.374865

>  <comRMSD>  (50) 
0.956946

>  <N_constrained_atoms>  (50) 
11.0

>  <N_unconstrained_atoms>  (50) 
0.0

>  <runtime>  (50) 
0.722873

>  <regarded>  (50) 
['d0160a', '6izx-a']

>  <disregarded>  (50) 
[]

>  <LE>  (50) 
2.047046

>  <outcome>  (50) 
equally sized

>  <percent_hybrid>  (50) 
10.0

$$$$
LIG
     RDKit          3D

 70 75  0  0  0  0  0  0  0  0999 V2000
  -14.2833  -43.0567  -23.2625 C   0  0  0  0  0  0  0  0  0  0  0  0
  -21.9793  -45.8045  -26.8186 O   0  0  0  0  0  0  0  0  0  0  0  0
  -16.8300  -42.3139  -16.7643 O   0  0  0  0  0  0  0  0  0  0  0  0
  -15.8426  -43.5654  -13.9075 O   0  0  0  0  0  0  0  0  0  0  0  0
  -19.4565  -46.1514  -24.5177 C   0  0  0  0  0  0  0  0  0  0  0  0
  -20.0820  -46.3619  -25.5238 C   0  0  0  0  0  0  0  0  0  0  0  0
  -20.8373  -46.6454  -26.7459 C   0  0  0  0  0  0  0  0  0  0  0  0
  -15.9400  -43.0016  -17.0764 C   0  0  0  0  0  0  0  0  0  0  0  0
  -13.6571  -44.7186  -14.2976 O   0  0  0  0  0  0  0  0  0  0  0  0
  -14.5846  -43.6482  -14.5986 S   0  0  0  0  0  0  0  0  0  0  0  0
  -14.8665  -43.7190  -16.2059 N   0  0  0  0  0  0  0  0  0  0  0  0
  -13.3400  -42.2701  -18.3935 C   0  0  0  0  0  0  0  0  0  0  0  0
  -15.3179  -43.7809  -22.5985 O   0  0  0  0  0  0  0  0  0  0  0  0
  -14.3225  -41.5500  -23.1550 C   0  0  0  0  0  0  0  0  0  0  0  0
  -13.5822  -40.7079  -22.2764 C   0  0  0  0  0  0  0  0  0  0  0  0
  -13.7341  -39.4069  -22.5282 N   0  0  0  0  0  0  0  0  0  0  0  0
  -14.5861  -39.3983  -23.5584 N   0  0  0  0  0  0  0  0  0  0  0  0
  -14.9462  -40.6433  -23.9967 C   0  0  0  0  0  0  0  0  0  0  0  0
  -17.0006  -41.5154  -25.0067 C   0  0  0  0  0  0  0  0  0  0  0  0
  -15.8120  -40.8113  -25.1432 C   0  0  0  0  0  0  0  0  0  0  0  0
  -15.4930  -40.2273  -26.3679 C   0  0  0  0  0  0  0  0  0  0  0  0
  -16.3910  -40.3680  -27.4065 C   0  0  0  0  0  0  0  0  0  0  0  0
  -17.5631  -41.0276  -27.2957 N   0  0  0  0  0  0  0  0  0  0  0  0
  -17.8396  -41.5869  -26.0968 C   0  0  0  0  0  0  0  0  0  0  0  0
  -15.3471  -43.7498  -21.2309 C   0  0  0  0  0  0  0  0  0  0  0  0
  -14.2933  -43.2696  -20.4522 C   0  0  0  0  0  0  0  0  0  0  0  0
  -14.4679  -42.9677  -19.1037 C   0  0  0  0  0  0  0  0  0  0  0  0
  -15.6890  -43.3133  -18.5058 C   0  0  0  0  0  0  0  0  0  0  0  0
  -16.6972  -43.9665  -19.2423 C   0  0  0  0  0  0  0  0  0  0  0  0
  -16.5265  -44.2039  -20.6136 C   0  0  0  0  0  0  0  0  0  0  0  0
  -18.7904  -45.9213  -23.2697 C   0  0  0  0  0  0  0  0  0  0  0  0
  -18.5261  -46.8817  -22.3152 C   0  0  0  0  0  0  0  0  0  0  0  0
  -17.7830  -46.3597  -21.2130 C   0  0  0  0  0  0  0  0  0  0  0  0
  -17.4833  -45.0202  -21.3781 C   0  0  0  0  0  0  0  0  0  0  0  0
  -18.3075  -44.3774  -22.7392 S   0  0  0  0  0  0  0  0  0  0  0  0
  -14.6356  -41.0843  -13.7597 C   0  0  0  0  0  0  0  0  0  0  0  0
  -14.0914  -39.8462  -13.4800 C   0  0  0  0  0  0  0  0  0  0  0  0
  -12.7639  -39.6125  -13.8056 C   0  0  0  0  0  0  0  0  0  0  0  0
  -11.9824  -40.6139  -14.4108 C   0  0  0  0  0  0  0  0  0  0  0  0
  -12.5153  -41.8878  -14.7077 C   0  0  0  0  0  0  0  0  0  0  0  0
  -13.8447  -42.0825  -14.3623 C   0  0  0  0  0  0  0  0  0  0  0  0
  -10.6438  -40.3615  -14.7239 C   0  0  0  0  0  0  0  0  0  0  0  0
   -9.8602  -41.3597  -15.2812 C   0  0  0  0  0  0  0  0  0  0  0  0
  -10.4527  -42.5777  -15.5285 C   0  0  0  0  0  0  0  0  0  0  0  0
  -11.7568  -42.8413  -15.3021 N   0  0  0  0  0  0  0  0  0  0  0  0
  -13.3234  -43.4806  -22.9594 H   0  0  0  0  0  0  0  0  0  0  0  0
  -14.3719  -43.3182  -24.3245 H   0  0  0  0  0  0  0  0  0  0  0  0
  -22.7539  -46.3441  -26.5582 H   0  0  0  0  0  0  0  0  0  0  0  0
  -21.1476  -47.6918  -26.8114 H   0  0  0  0  0  0  0  0  0  0  0  0
  -20.2165  -46.4228  -27.6117 H   0  0  0  0  0  0  0  0  0  0  0  0
  -14.1916  -44.1692  -16.8053 H   0  0  0  0  0  0  0  0  0  0  0  0
  -13.7100  -41.5963  -17.6157 H   0  0  0  0  0  0  0  0  0  0  0  0
  -12.6584  -43.0064  -17.9592 H   0  0  0  0  0  0  0  0  0  0  0  0
  -12.7655  -41.6464  -19.0871 H   0  0  0  0  0  0  0  0  0  0  0  0
  -12.8964  -40.9861  -21.4883 H   0  0  0  0  0  0  0  0  0  0  0  0
  -17.2844  -41.9604  -24.0616 H   0  0  0  0  0  0  0  0  0  0  0  0
  -14.5655  -39.6850  -26.5206 H   0  0  0  0  0  0  0  0  0  0  0  0
  -16.1907  -39.9439  -28.3849 H   0  0  0  0  0  0  0  0  0  0  0  0
  -18.7952  -42.0974  -26.0270 H   0  0  0  0  0  0  0  0  0  0  0  0
  -13.3172  -43.0817  -20.8888 H   0  0  0  0  0  0  0  0  0  0  0  0
  -17.6201  -44.2637  -18.7479 H   0  0  0  0  0  0  0  0  0  0  0  0
  -18.8063  -47.9238  -22.4179 H   0  0  0  0  0  0  0  0  0  0  0  0
  -17.4049  -46.9689  -20.4012 H   0  0  0  0  0  0  0  0  0  0  0  0
  -15.6790  -41.2680  -13.5043 H   0  0  0  0  0  0  0  0  0  0  0  0
  -14.6939  -39.0711  -13.0134 H   0  0  0  0  0  0  0  0  0  0  0  0
  -12.3347  -38.6372  -13.5822 H   0  0  0  0  0  0  0  0  0  0  0  0
  -10.1950  -39.3938  -14.5111 H   0  0  0  0  0  0  0  0  0  0  0  0
   -8.8101  -41.1952  -15.4950 H   0  0  0  0  0  0  0  0  0  0  0  0
   -9.8703  -43.4105  -15.9098 H   0  0  0  0  0  0  0  0  0  0  0  0
  -14.8887  -38.5081  -23.9380 H   0  0  0  0  0  0  0  0  0  0  0  0
  2  7  1  0
  7  6  1  0
  6  5  3  0
  3  8  2  0
  8 11  1  0
  4 10  2  0
 11 10  1  0
 10  9  2  0
 13  1  1  0
 14  1  1  0
 14 15  1  0
 14 18  2  0
 15 16  2  0
 16 17  1  0
 17 18  1  0
 18 20  1  0
 19 24  2  0
 19 20  1  0
 20 21  2  0
 21 22  1  0
 22 23  2  0
 23 24  1  0
 25 30  1  0
 25 13  1  0
 25 26  2  0
 26 27  1  0
 27 28  2  0
 27 12  1  0
 28 29  1  0
 28  8  1  0
 29 30  2  0
 30 34  1  0
 31  5  1  0
 31 32  2  0
 31 35  1  0
 32 33  1  0
 33 34  2  0
 34 35  1  0
 36 41  2  0
 36 37  1  0
 37 38  2  0
 38 39  1  0
 39 40  2  0
 39 42  1  0
 40 41  1  0
 40 45  1  0
 41 10  1  0
 42 43  2  0
 43 44  1  0
 44 45  2  0
  1 46  1  0
  1 47  1  0
  2 48  1  0
  7 49  1  0
  7 50  1  0
 11 51  1  0
 12 52  1  0
 12 53  1  0
 12 54  1  0
 15 55  1  0
 19 56  1  0
 21 57  1  0
 22 58  1  0
 24 59  1  0
 26 60  1  0
 29 61  1  0
 32 62  1  0
 33 63  1  0
 36 64  1  0
 37 65  1  0
 38 66  1  0
 42 67  1  0
 43 68  1  0
 44 69  1  0
 17 70  1  0
M  END
>  <smiles>  (51) 
[H]OC([H])([H])C#Cc1sc(-c2c([H])c(C(=O)N([H])S(=O)(=O)c3c([H])c([H])c([H])c4c([H])c([H])c([H])nc34)c(C([H])([H])[H])c([H])c2OC([H])([H])c2c([H])n[nH]c2-c2c([H])c([H])nc([H])c2[H])c([H])c1[H]

>  <error>  (51) 


>  <∆∆G>  (51) 
-69.043041

>  <∆G_bound>  (51) 
205.937541

>  <∆G_unbound>  (51) 
274.980582

>  <comRMSD>  (51) 
0.676156

>  <N_constrained_atoms>  (51) 
45.0

>  <N_unconstrained_atoms>  (51) 
0.0

>  <runtime>  (51) 
5.041362

>  <regarded>  (51) 
['d0160a', '5i3q-a']

>  <disregarded>  (51) 
[]

>  <LE>  (51) 
1.53429

>  <outcome>  (51) 
acceptable

>  <percent_hybrid>  (51) 
27.0

$$$$
LIG
     RDKit          3D

 47 50  0  0  0  0  0  0  0  0999 V2000
  -15.8489  -42.1877  -22.1431 C   0  0  1  0  0  0  0  0  0  0  0  0
  -17.4262  -41.1823  -20.5781 O   0  0  0  0  0  0  0  0  0  0  0  0
  -17.2119  -41.5260  -21.8679 C   0  0  0  0  0  0  0  0  0  0  0  0
  -18.0543  -41.2319  -22.7067 O   0  0  0  0  0  0  0  0  0  0  0  0
  -15.5028  -42.5742  -14.9762 O   0  0  0  0  0  0  0  0  0  0  0  0
  -17.0495  -43.0396  -16.5196 O   0  0  0  0  0  0  0  0  0  0  0  0
  -14.8715  -44.0050  -16.8265 C   0  0  0  0  0  0  0  0  0  0  0  0
  -15.7978  -43.1191  -16.0297 C   0  0  0  0  0  0  0  0  0  0  0  0
  -14.8949  -41.0372  -22.4631 C   0  0  0  0  0  0  0  0  0  0  0  0
  -14.1834  -40.2158  -21.6006 C   0  0  0  0  0  0  0  0  0  0  0  0
  -13.5325  -39.2999  -22.3592 N   0  0  0  0  0  0  0  0  0  0  0  0
  -13.9006  -39.3232  -23.6393 N   0  0  0  0  0  0  0  0  0  0  0  0
  -14.7252  -40.3823  -23.7448 C   0  0  0  0  0  0  0  0  0  0  0  0
  -15.6480  -41.9571  -25.4483 C   0  0  0  0  0  0  0  0  0  0  0  0
  -15.3972  -40.6605  -25.0198 C   0  0  0  0  0  0  0  0  0  0  0  0
  -15.8165  -39.6096  -25.8409 C   0  0  0  0  0  0  0  0  0  0  0  0
  -16.5118  -39.8982  -27.0064 C   0  0  0  0  0  0  0  0  0  0  0  0
  -16.8287  -41.1476  -27.4033 N   0  0  0  0  0  0  0  0  0  0  0  0
  -16.3603  -42.1414  -26.6200 C   0  0  0  0  0  0  0  0  0  0  0  0
  -14.1522  -42.9213  -20.3656 C   0  0  0  0  0  0  0  0  0  0  0  0
  -13.9604  -43.2537  -19.0309 C   0  0  0  0  0  0  0  0  0  0  0  0
  -14.9761  -43.8776  -18.3236 C   0  0  0  0  0  0  0  0  0  0  0  0
  -16.0578  -44.3886  -19.0532 C   0  0  0  0  0  0  0  0  0  0  0  0
  -16.2428  -44.1048  -20.4275 C   0  0  0  0  0  0  0  0  0  0  0  0
  -15.3913  -43.1173  -20.9974 C   0  0  0  0  0  0  0  0  0  0  0  0
  -18.3795  -46.9337  -21.8116 C   0  0  0  0  0  0  0  0  0  0  0  0
  -18.5820  -46.1295  -22.9026 C   0  0  0  0  0  0  0  0  0  0  0  0
  -17.9256  -44.5836  -22.6752 S   0  0  0  0  0  0  0  0  0  0  0  0
  -17.2027  -44.9849  -21.1723 C   0  0  0  0  0  0  0  0  0  0  0  0
  -17.5895  -46.2796  -20.8241 C   0  0  0  0  0  0  0  0  0  0  0  0
  -15.9324  -42.8261  -23.0163 H   0  0  0  0  0  0  0  0  0  0  0  0
  -18.2949  -40.7323  -20.5919 H   0  0  0  0  0  0  0  0  0  0  0  0
  -17.5757  -42.6501  -15.7848 H   0  0  0  0  0  0  0  0  0  0  0  0
  -13.8498  -43.7565  -16.5112 H   0  0  0  0  0  0  0  0  0  0  0  0
  -15.0330  -45.0460  -16.5364 H   0  0  0  0  0  0  0  0  0  0  0  0
  -14.0798  -40.2081  -20.5242 H   0  0  0  0  0  0  0  0  0  0  0  0
  -15.2553  -42.8251  -24.9344 H   0  0  0  0  0  0  0  0  0  0  0  0
  -15.6100  -38.5775  -25.5765 H   0  0  0  0  0  0  0  0  0  0  0  0
  -16.8402  -39.1015  -27.6677 H   0  0  0  0  0  0  0  0  0  0  0  0
  -16.5318  -43.1436  -26.9877 H   0  0  0  0  0  0  0  0  0  0  0  0
  -13.3308  -42.4150  -20.8677 H   0  0  0  0  0  0  0  0  0  0  0  0
  -13.0313  -42.9522  -18.5498 H   0  0  0  0  0  0  0  0  0  0  0  0
  -16.7952  -44.9922  -18.5308 H   0  0  0  0  0  0  0  0  0  0  0  0
  -18.7373  -47.9538  -21.7533 H   0  0  0  0  0  0  0  0  0  0  0  0
  -19.0919  -46.3811  -23.8222 H   0  0  0  0  0  0  0  0  0  0  0  0
  -17.2665  -46.7755  -19.9189 H   0  0  0  0  0  0  0  0  0  0  0  0
  -12.8748  -38.5887  -22.0554 H   0  0  0  0  0  0  0  0  0  0  0  0
  4  3  2  0
  3  2  1  0
  3  1  1  0
  7  8  1  0
  8  5  2  0
  8  6  1  0
  9  1  1  0
  9 10  2  0
  9 13  1  0
 10 11  1  0
 11 12  1  0
 12 13  2  0
 13 15  1  0
 14 19  2  0
 14 15  1  0
 15 16  2  0
 16 17  1  0
 17 18  2  0
 18 19  1  0
 20 25  2  0
 20 21  1  0
 21 22  2  0
 22 23  1  0
 22  7  1  0
 23 24  2  0
 24 29  1  0
 24 25  1  0
 26 27  2  0
 26 30  1  0
 27 28  1  0
 28 29  1  0
 29 30  2  0
  1 25  1  0
  1 31  1  1
  2 32  1  0
  6 33  1  0
  7 34  1  0
  7 35  1  0
 10 36  1  0
 14 37  1  0
 16 38  1  0
 17 39  1  0
 19 40  1  0
 20 41  1  0
 21 42  1  0
 23 43  1  0
 26 44  1  0
 27 45  1  0
 30 46  1  0
 11 47  1  0
M  END
>  <smiles>  (52) 
[H]OC(=O)C([H])([H])c1c([H])c([H])c([C@]([H])(C(=O)O[H])c2c(-c3c([H])c([H])nc([H])c3[H])n[nH]c2[H])c(-c2sc([H])c([H])c2[H])c1[H]

>  <error>  (52) 


>  <∆∆G>  (52) 
-214.970285

>  <∆G_bound>  (52) 
199.119689

>  <∆G_unbound>  (52) 
414.089974

>  <comRMSD>  (52) 
1.420987

>  <N_constrained_atoms>  (52) 
30.0

>  <N_unconstrained_atoms>  (52) 
0.0

>  <runtime>  (52) 
2.84705

>  <regarded>  (52) 
['d0160a', '5hmx-b']

>  <disregarded>  (52) 
[]

>  <LE>  (52) 
7.165676

>  <outcome>  (52) 
too moved

>  <percent_hybrid>  (52) 
40.0

$$$$
LIG
     RDKit          3D

 72 76  0  0  0  0  0  0  0  0999 V2000
  -14.9673  -42.7940  -22.6753 C   0  0  2  0  0  0  0  0  0  0  0  0
  -14.1739  -43.7183  -23.5718 C   0  0  0  0  0  0  0  0  0  0  0  0
  -12.8789  -42.8729  -18.2224 O   0  0  0  0  0  0  0  0  0  0  0  0
  -17.2350  -41.5484  -14.7261 O   0  0  0  0  0  0  0  0  0  0  0  0
  -12.4535  -38.8789  -15.8075 O   0  0  0  0  0  0  0  0  0  0  0  0
  -19.3349  -46.0398  -24.4029 C   0  0  0  0  0  0  0  0  0  0  0  0
  -19.9653  -46.2985  -25.3963 C   0  0  0  0  0  0  0  0  0  0  0  0
  -20.7102  -46.6427  -26.6155 C   0  0  0  0  0  0  0  0  0  0  0  0
  -14.4646  -44.8489  -16.5359 O   0  0  0  0  0  0  0  0  0  0  0  0
  -15.0516  -43.9658  -17.0266 C   0  0  0  0  0  0  0  0  0  0  0  0
  -15.8741  -42.8163  -16.3748 N   0  0  0  0  0  0  0  0  0  0  0  0
  -16.0859  -42.4212  -14.7985 S   0  0  0  0  0  0  0  0  0  0  0  0
  -15.9139  -43.5948  -13.9884 O   0  0  0  0  0  0  0  0  0  0  0  0
  -13.2759  -38.3177  -16.8209 C   0  0  0  0  0  0  0  0  0  0  0  0
  -12.0930  -41.7594  -18.6352 C   0  0  0  0  0  0  0  0  0  0  0  0
  -21.8422  -45.7954  -26.7458 O   0  0  0  0  0  0  0  0  0  0  0  0
  -14.5566  -41.3177  -22.7665 C   0  0  0  0  0  0  0  0  0  0  0  0
  -13.7865  -40.5129  -21.9430 C   0  0  0  0  0  0  0  0  0  0  0  0
  -13.6768  -39.2946  -22.5315 N   0  0  0  0  0  0  0  0  0  0  0  0
  -14.3315  -39.2045  -23.6833 N   0  0  0  0  0  0  0  0  0  0  0  0
  -14.8993  -40.4120  -23.8474 C   0  0  0  0  0  0  0  0  0  0  0  0
  -17.0143  -41.1999  -24.8886 C   0  0  0  0  0  0  0  0  0  0  0  0
  -15.7393  -40.6529  -25.0196 C   0  0  0  0  0  0  0  0  0  0  0  0
  -15.2970  -40.2879  -26.2901 C   0  0  0  0  0  0  0  0  0  0  0  0
  -16.1278  -40.5285  -27.3706 C   0  0  0  0  0  0  0  0  0  0  0  0
  -17.3511  -41.0931  -27.2723 N   0  0  0  0  0  0  0  0  0  0  0  0
  -17.7667  -41.4104  -26.0293 C   0  0  0  0  0  0  0  0  0  0  0  0
  -15.0086  -43.3087  -21.2388 C   0  0  0  0  0  0  0  0  0  0  0  0
  -13.8717  -43.0813  -20.4303 C   0  0  0  0  0  0  0  0  0  0  0  0
  -13.9002  -43.2289  -19.0542 C   0  0  0  0  0  0  0  0  0  0  0  0
  -15.0350  -43.7880  -18.4865 C   0  0  0  0  0  0  0  0  0  0  0  0
  -16.0836  -44.2633  -19.2819 C   0  0  0  0  0  0  0  0  0  0  0  0
  -16.0722  -44.0741  -20.6823 C   0  0  0  0  0  0  0  0  0  0  0  0
  -12.3539  -40.0815  -13.8131 C   0  0  0  0  0  0  0  0  0  0  0  0
  -12.8328  -41.0235  -12.9061 C   0  0  0  0  0  0  0  0  0  0  0  0
  -13.9956  -41.7167  -13.2032 C   0  0  0  0  0  0  0  0  0  0  0  0
  -14.6674  -41.4557  -14.4058 C   0  0  0  0  0  0  0  0  0  0  0  0
  -14.2051  -40.5059  -15.3088 C   0  0  0  0  0  0  0  0  0  0  0  0
  -13.0389  -39.8151  -15.0051 C   0  0  0  0  0  0  0  0  0  0  0  0
  -17.3688  -46.2182  -21.2746 C   0  0  0  0  0  0  0  0  0  0  0  0
  -18.2700  -46.7331  -22.2561 C   0  0  0  0  0  0  0  0  0  0  0  0
  -18.5972  -45.7853  -23.1990 C   0  0  0  0  0  0  0  0  0  0  0  0
  -18.0236  -44.2493  -22.7363 S   0  0  0  0  0  0  0  0  0  0  0  0
  -17.0568  -44.8762  -21.4648 C   0  0  0  0  0  0  0  0  0  0  0  0
  -15.9824  -42.7873  -23.0468 H   0  0  0  0  0  0  0  0  0  0  0  0
  -13.1937  -43.9691  -23.1624 H   0  0  0  0  0  0  0  0  0  0  0  0
  -14.7274  -44.6540  -23.6691 H   0  0  0  0  0  0  0  0  0  0  0  0
  -14.0393  -43.3023  -24.5732 H   0  0  0  0  0  0  0  0  0  0  0  0
  -21.0287  -47.6879  -26.6368 H   0  0  0  0  0  0  0  0  0  0  0  0
  -20.0846  -46.4799  -27.4915 H   0  0  0  0  0  0  0  0  0  0  0  0
  -16.3226  -42.2662  -17.1001 H   0  0  0  0  0  0  0  0  0  0  0  0
  -14.2023  -37.9078  -16.4038 H   0  0  0  0  0  0  0  0  0  0  0  0
  -12.7241  -37.4901  -17.2775 H   0  0  0  0  0  0  0  0  0  0  0  0
  -13.4891  -39.0450  -17.6089 H   0  0  0  0  0  0  0  0  0  0  0  0
  -11.3949  -41.5252  -17.8261 H   0  0  0  0  0  0  0  0  0  0  0  0
  -11.5116  -41.9766  -19.5338 H   0  0  0  0  0  0  0  0  0  0  0  0
  -12.7248  -40.8810  -18.7911 H   0  0  0  0  0  0  0  0  0  0  0  0
  -22.6173  -46.2998  -26.4186 H   0  0  0  0  0  0  0  0  0  0  0  0
  -13.2873  -40.6682  -21.0047 H   0  0  0  0  0  0  0  0  0  0  0  0
  -17.4399  -41.4238  -23.9187 H   0  0  0  0  0  0  0  0  0  0  0  0
  -14.3259  -39.8261  -26.4367 H   0  0  0  0  0  0  0  0  0  0  0  0
  -15.8233  -40.2711  -28.3800 H   0  0  0  0  0  0  0  0  0  0  0  0
  -18.7647  -41.8347  -25.9672 H   0  0  0  0  0  0  0  0  0  0  0  0
  -12.9466  -42.7744  -20.9137 H   0  0  0  0  0  0  0  0  0  0  0  0
  -16.9009  -44.8062  -18.8105 H   0  0  0  0  0  0  0  0  0  0  0  0
  -11.4359  -39.5418  -13.5901 H   0  0  0  0  0  0  0  0  0  0  0  0
  -12.2940  -41.2206  -11.9833 H   0  0  0  0  0  0  0  0  0  0  0  0
  -14.3636  -42.4657  -12.5048 H   0  0  0  0  0  0  0  0  0  0  0  0
  -14.7495  -40.3331  -16.2280 H   0  0  0  0  0  0  0  0  0  0  0  0
  -16.9257  -46.8350  -20.5009 H   0  0  0  0  0  0  0  0  0  0  0  0
  -18.5875  -47.7692  -22.3071 H   0  0  0  0  0  0  0  0  0  0  0  0
  -13.1729  -38.4811  -22.1940 H   0  0  0  0  0  0  0  0  0  0  0  0
  2  1  1  0
  8 16  1  0
  8  7  1  0
  7  6  3  0
 11 10  1  0
 11 12  1  0
 10  9  2  0
  4 12  2  0
 13 12  2  0
  3 15  1  0
 14  5  1  0
 17  1  1  0
 17 18  2  0
 17 21  1  0
 18 19  1  0
 19 20  1  0
 20 21  2  0
 21 23  1  0
 22 27  2  0
 22 23  1  0
 23 24  2  0
 24 25  1  0
 25 26  2  0
 26 27  1  0
 28 33  1  0
 28 29  2  0
 29 30  1  0
 30 31  2  0
 30  3  1  0
 31 32  1  0
 31 10  1  0
 32 33  2  0
 33 44  1  0
 34 39  2  0
 34 35  1  0
 35 36  2  0
 36 37  1  0
 37 12  1  0
 37 38  2  0
 38 39  1  0
 39  5  1  0
 40 41  1  0
 40 44  2  0
 41 42  2  0
 42  6  1  0
 42 43  1  0
 43 44  1  0
  1 28  1  0
  1 45  1  6
  2 46  1  0
  2 47  1  0
  2 48  1  0
  8 49  1  0
  8 50  1  0
 11 51  1  0
 14 52  1  0
 14 53  1  0
 14 54  1  0
 15 55  1  0
 15 56  1  0
 15 57  1  0
 16 58  1  0
 18 59  1  0
 22 60  1  0
 24 61  1  0
 25 62  1  0
 27 63  1  0
 29 64  1  0
 32 65  1  0
 34 66  1  0
 35 67  1  0
 36 68  1  0
 38 69  1  0
 40 70  1  0
 41 71  1  0
 19 72  1  0
M  END
>  <smiles>  (53) 
[H]OC([H])([H])C#Cc1sc(-c2c([H])c(C(=O)N([H])S(=O)(=O)c3c([H])c([H])c([H])c(OC([H])([H])[H])c3[H])c(OC([H])([H])[H])c([H])c2[C@@]([H])(c2c(-c3c([H])c([H])nc([H])c3[H])n[nH]c2[H])C([H])([H])[H])c([H])c1[H]

>  <error>  (53) 


>  <∆∆G>  (53) 
-69.290994

>  <∆G_bound>  (53) 
235.158966

>  <∆G_unbound>  (53) 
304.449959

>  <comRMSD>  (53) 
0.631977

>  <N_constrained_atoms>  (53) 
44.0

>  <N_unconstrained_atoms>  (53) 
0.0

>  <runtime>  (53) 
5.269738

>  <regarded>  (53) 
['d0160a', '5k5m-a']

>  <disregarded>  (53) 
[]

>  <LE>  (53) 
1.574795

>  <outcome>  (53) 
acceptable

>  <percent_hybrid>  (53) 
28.0

$$$$
LIG
     RDKit          3D

 60 63  0  0  0  0  0  0  0  0999 V2000
  -14.5554  -42.9817  -22.7978 C   0  0  1  0  0  0  0  0  0  0  0  0
  -15.1854  -43.6835  -23.9683 C   0  0  0  0  0  0  0  0  0  0  0  0
  -19.5088  -45.7897  -24.4629 C   0  0  0  0  0  0  0  0  0  0  0  0
  -15.3523  -40.9302  -14.8034 C   0  0  0  0  0  0  0  0  0  0  0  0
  -20.1494  -46.0699  -25.4439 C   0  0  0  0  0  0  0  0  0  0  0  0
  -20.8763  -46.4717  -26.6545 C   0  0  0  0  0  0  0  0  0  0  0  0
  -15.2492  -43.7819  -17.1123 C   0  0  0  0  0  0  0  0  0  0  0  0
  -12.8140  -42.7362  -18.2594 C   0  0  0  0  0  0  0  0  0  0  0  0
  -14.5763  -44.5677  -16.5678 O   0  0  0  0  0  0  0  0  0  0  0  0
  -16.2100  -42.7042  -16.5333 N   0  0  0  0  0  0  0  0  0  0  0  0
  -16.4994  -42.2588  -14.9812 S   0  0  0  0  0  0  0  0  0  0  0  0
  -16.0339  -43.2820  -14.0799 O   0  0  0  0  0  0  0  0  0  0  0  0
  -17.8257  -41.6857  -14.9435 O   0  0  0  0  0  0  0  0  0  0  0  0
  -22.0433  -45.6799  -26.8074 O   0  0  0  0  0  0  0  0  0  0  0  0
  -14.4880  -41.4346  -22.8638 C   0  0  0  0  0  0  0  0  0  0  0  0
  -13.7254  -40.6062  -22.0420 C   0  0  0  0  0  0  0  0  0  0  0  0
  -13.8550  -39.3329  -22.4839 N   0  0  0  0  0  0  0  0  0  0  0  0
  -14.6014  -39.2338  -23.5751 N   0  0  0  0  0  0  0  0  0  0  0  0
  -15.0074  -40.4914  -23.8303 C   0  0  0  0  0  0  0  0  0  0  0  0
  -17.1549  -41.1303  -24.8783 C   0  0  0  0  0  0  0  0  0  0  0  0
  -15.8400  -40.6960  -25.0057 C   0  0  0  0  0  0  0  0  0  0  0  0
  -15.3500  -40.3783  -26.2715 C   0  0  0  0  0  0  0  0  0  0  0  0
  -16.1805  -40.5647  -27.3605 C   0  0  0  0  0  0  0  0  0  0  0  0
  -17.4432  -41.0369  -27.2713 N   0  0  0  0  0  0  0  0  0  0  0  0
  -17.9017  -41.3014  -26.0289 C   0  0  0  0  0  0  0  0  0  0  0  0
  -16.2158  -44.0687  -19.4177 C   0  0  0  0  0  0  0  0  0  0  0  0
  -15.1761  -43.6483  -18.5751 C   0  0  0  0  0  0  0  0  0  0  0  0
  -13.9774  -43.1833  -19.0944 C   0  0  0  0  0  0  0  0  0  0  0  0
  -13.8583  -43.1515  -20.4702 C   0  0  0  0  0  0  0  0  0  0  0  0
  -14.9332  -43.3857  -21.3687 C   0  0  0  0  0  0  0  0  0  0  0  0
  -16.1047  -43.9761  -20.8324 C   0  0  0  0  0  0  0  0  0  0  0  0
  -18.7383  -45.5718  -23.2715 C   0  0  0  0  0  0  0  0  0  0  0  0
  -18.3215  -46.5767  -22.4258 C   0  0  0  0  0  0  0  0  0  0  0  0
  -17.3714  -46.1047  -21.4739 C   0  0  0  0  0  0  0  0  0  0  0  0
  -17.1153  -44.7449  -21.5947 C   0  0  0  0  0  0  0  0  0  0  0  0
  -18.2444  -44.0442  -22.6773 S   0  0  0  0  0  0  0  0  0  0  0  0
  -13.5129  -43.3154  -22.8949 H   0  0  0  0  0  0  0  0  0  0  0  0
  -15.2184  -44.7596  -23.7946 H   0  0  0  0  0  0  0  0  0  0  0  0
  -16.1931  -43.3589  -24.1898 H   0  0  0  0  0  0  0  0  0  0  0  0
  -14.5998  -43.5023  -24.8716 H   0  0  0  0  0  0  0  0  0  0  0  0
  -15.4573  -40.5214  -13.7958 H   0  0  0  0  0  0  0  0  0  0  0  0
  -14.3376  -41.3089  -14.9424 H   0  0  0  0  0  0  0  0  0  0  0  0
  -15.5819  -40.1564  -15.5386 H   0  0  0  0  0  0  0  0  0  0  0  0
  -21.1485  -47.5304  -26.6480 H   0  0  0  0  0  0  0  0  0  0  0  0
  -20.2531  -46.3065  -27.5326 H   0  0  0  0  0  0  0  0  0  0  0  0
  -12.2467  -43.5985  -17.9015 H   0  0  0  0  0  0  0  0  0  0  0  0
  -12.1347  -42.0969  -18.8341 H   0  0  0  0  0  0  0  0  0  0  0  0
  -13.1475  -42.1401  -17.4038 H   0  0  0  0  0  0  0  0  0  0  0  0
  -16.5770  -42.1333  -17.2911 H   0  0  0  0  0  0  0  0  0  0  0  0
  -22.8074  -46.2414  -26.5613 H   0  0  0  0  0  0  0  0  0  0  0  0
  -13.0854  -40.7945  -21.1954 H   0  0  0  0  0  0  0  0  0  0  0  0
  -17.5907  -41.3211  -23.9054 H   0  0  0  0  0  0  0  0  0  0  0  0
  -14.3468  -39.9872  -26.4050 H   0  0  0  0  0  0  0  0  0  0  0  0
  -15.8438  -40.3362  -28.3669 H   0  0  0  0  0  0  0  0  0  0  0  0
  -18.9285  -41.6524  -25.9791 H   0  0  0  0  0  0  0  0  0  0  0  0
  -17.1041  -44.5178  -18.9744 H   0  0  0  0  0  0  0  0  0  0  0  0
  -12.8744  -42.8985  -20.8760 H   0  0  0  0  0  0  0  0  0  0  0  0
  -18.5993  -47.6187  -22.5425 H   0  0  0  0  0  0  0  0  0  0  0  0
  -16.8464  -46.7547  -20.7830 H   0  0  0  0  0  0  0  0  0  0  0  0
  -13.4448  -38.4899  -22.0958 H   0  0  0  0  0  0  0  0  0  0  0  0
  2  1  1  0
 14  6  1  0
  6  5  1  0
  5  3  3  0
 12 11  2  0
 10  7  1  0
 10 11  1  0
  7  9  2  0
 13 11  2  0
 11  4  1  0
 15  1  1  0
 15 16  2  0
 15 19  1  0
 16 17  1  0
 17 18  1  0
 18 19  2  0
 19 21  1  0
 20 25  2  0
 20 21  1  0
 21 22  2  0
 22 23  1  0
 23 24  2  0
 24 25  1  0
 26 31  2  0
 26 27  1  0
 27  7  1  0
 27 28  2  0
 28 29  1  0
 28  8  1  0
 29 30  2  0
 30 31  1  0
 31 35  1  0
 32  3  1  0
 32 33  2  0
 32 36  1  0
 33 34  1  0
 34 35  2  0
 35 36  1  0
  1 30  1  0
  1 37  1  1
  2 38  1  0
  2 39  1  0
  2 40  1  0
  4 41  1  0
  4 42  1  0
  4 43  1  0
  6 44  1  0
  6 45  1  0
  8 46  1  0
  8 47  1  0
  8 48  1  0
 10 49  1  0
 14 50  1  0
 16 51  1  0
 20 52  1  0
 22 53  1  0
 23 54  1  0
 25 55  1  0
 26 56  1  0
 29 57  1  0
 33 58  1  0
 34 59  1  0
 17 60  1  0
M  END
>  <smiles>  (54) 
[H]OC([H])([H])C#Cc1sc(-c2c([H])c(C(=O)N([H])S(=O)(=O)C([H])([H])[H])c(C([H])([H])[H])c([H])c2[C@]([H])(c2c(-c3c([H])c([H])nc([H])c3[H])n[nH]c2[H])C([H])([H])[H])c([H])c1[H]

>  <error>  (54) 


>  <∆∆G>  (54) 
-38.961197

>  <∆G_bound>  (54) 
148.707738

>  <∆G_unbound>  (54) 
187.668935

>  <comRMSD>  (54) 
0.746717

>  <N_constrained_atoms>  (54) 
36.0

>  <N_unconstrained_atoms>  (54) 
0.0

>  <runtime>  (54) 
3.907689

>  <regarded>  (54) 
['d0160a', '5hmz-a']

>  <disregarded>  (54) 
[]

>  <LE>  (54) 
1.082255

>  <outcome>  (54) 
acceptable

>  <percent_hybrid>  (54) 
34.0

$$$$
LIG
     RDKit          3D

 50 53  0  0  0  0  0  0  0  0999 V2000
  -15.8731  -42.0230  -22.0612 C   0  0  1  0  0  0  0  0  0  0  0  0
  -18.0594  -40.9238  -22.3603 O   0  0  0  0  0  0  0  0  0  0  0  0
  -17.1320  -40.8309  -20.3420 O   0  0  0  0  0  0  0  0  0  0  0  0
  -17.1272  -41.2379  -21.6299 C   0  0  0  0  0  0  0  0  0  0  0  0
  -14.9262  -44.0085  -16.8288 C   0  0  0  0  0  0  0  0  0  0  0  0
  -17.0949  -43.0348  -16.4850 O   0  0  0  0  0  0  0  0  0  0  0  0
  -15.8402  -43.1334  -16.0061 C   0  0  0  0  0  0  0  0  0  0  0  0
  -15.5317  -42.6139  -14.9435 O   0  0  0  0  0  0  0  0  0  0  0  0
  -14.8512  -40.9619  -22.4498 C   0  0  0  0  0  0  0  0  0  0  0  0
  -14.0721  -40.1590  -21.6286 C   0  0  0  0  0  0  0  0  0  0  0  0
  -13.4053  -39.2908  -22.4268 N   0  0  0  0  0  0  0  0  0  0  0  0
  -13.8160  -39.3262  -23.6939 N   0  0  0  0  0  0  0  0  0  0  0  0
  -14.6773  -40.3589  -23.7526 C   0  0  0  0  0  0  0  0  0  0  0  0
  -15.6610  -41.9657  -25.3852 C   0  0  0  0  0  0  0  0  0  0  0  0
  -15.3772  -40.6599  -25.0059 C   0  0  0  0  0  0  0  0  0  0  0  0
  -15.7822  -39.6273  -25.8565 C   0  0  0  0  0  0  0  0  0  0  0  0
  -16.4962  -39.9393  -27.0040 C   0  0  0  0  0  0  0  0  0  0  0  0
  -16.8448  -41.1946  -27.3540 N   0  0  0  0  0  0  0  0  0  0  0  0
  -16.3893  -42.1728  -26.5431 C   0  0  0  0  0  0  0  0  0  0  0  0
  -15.0332  -43.8432  -18.3211 C   0  0  0  0  0  0  0  0  0  0  0  0
  -13.9949  -43.2356  -19.0109 C   0  0  0  0  0  0  0  0  0  0  0  0
  -14.1713  -42.8621  -20.3353 C   0  0  0  0  0  0  0  0  0  0  0  0
  -15.4106  -43.0155  -20.9753 C   0  0  0  0  0  0  0  0  0  0  0  0
  -16.2977  -43.9902  -20.4340 C   0  0  0  0  0  0  0  0  0  0  0  0
  -16.1308  -44.3018  -19.0626 C   0  0  0  0  0  0  0  0  0  0  0  0
  -17.9652  -47.1211  -21.8123 C   0  0  0  0  0  0  0  0  0  0  0  0
  -17.2408  -46.2355  -21.0145 C   0  0  0  0  0  0  0  0  0  0  0  0
  -17.2352  -44.8383  -21.2420 C   0  0  0  0  0  0  0  0  0  0  0  0
  -18.0519  -44.3872  -22.2869 C   0  0  0  0  0  0  0  0  0  0  0  0
  -18.7378  -45.2723  -23.1259 C   0  0  0  0  0  0  0  0  0  0  0  0
  -18.6677  -46.6405  -22.9035 C   0  0  0  0  0  0  0  0  0  0  0  0
  -16.1289  -42.6258  -22.9293 H   0  0  0  0  0  0  0  0  0  0  0  0
  -17.9619  -40.3225  -20.2429 H   0  0  0  0  0  0  0  0  0  0  0  0
  -13.9019  -43.7760  -16.5094 H   0  0  0  0  0  0  0  0  0  0  0  0
  -15.0907  -45.0560  -16.5673 H   0  0  0  0  0  0  0  0  0  0  0  0
  -17.6225  -42.6970  -15.7251 H   0  0  0  0  0  0  0  0  0  0  0  0
  -13.9422  -40.1288  -20.5552 H   0  0  0  0  0  0  0  0  0  0  0  0
  -15.2846  -42.8223  -24.8384 H   0  0  0  0  0  0  0  0  0  0  0  0
  -15.5486  -38.5922  -25.6295 H   0  0  0  0  0  0  0  0  0  0  0  0
  -16.8139  -39.1582  -27.6890 H   0  0  0  0  0  0  0  0  0  0  0  0
  -16.5898  -43.1821  -26.8736 H   0  0  0  0  0  0  0  0  0  0  0  0
  -13.0598  -42.9726  -18.5192 H   0  0  0  0  0  0  0  0  0  0  0  0
  -13.3366  -42.3600  -20.8169 H   0  0  0  0  0  0  0  0  0  0  0  0
  -16.8885  -44.9029  -18.5641 H   0  0  0  0  0  0  0  0  0  0  0  0
  -17.9163  -48.1906  -21.6306 H   0  0  0  0  0  0  0  0  0  0  0  0
  -16.6219  -46.6641  -20.2298 H   0  0  0  0  0  0  0  0  0  0  0  0
  -18.1819  -43.3382  -22.5048 H   0  0  0  0  0  0  0  0  0  0  0  0
  -19.3241  -44.8849  -23.9551 H   0  0  0  0  0  0  0  0  0  0  0  0
  -19.1559  -47.3396  -23.5778 H   0  0  0  0  0  0  0  0  0  0  0  0
  -12.7076  -38.6030  -22.1600 H   0  0  0  0  0  0  0  0  0  0  0  0
  2  4  2  0
  4  3  1  0
  4  1  1  0
  5  7  1  0
  7  8  2  0
  7  6  1  0
  9  1  1  0
  9 10  2  0
  9 13  1  0
 10 11  1  0
 11 12  1  0
 12 13  2  0
 13 15  1  0
 14 19  2  0
 14 15  1  0
 15 16  2  0
 16 17  1  0
 17 18  2  0
 18 19  1  0
 20 25  2  0
 20  5  1  0
 20 21  1  0
 21 22  2  0
 22 23  1  0
 23 24  2  0
 24 28  1  0
 24 25  1  0
 26 31  2  0
 26 27  1  0
 27 28  2  0
 28 29  1  0
 29 30  2  0
 30 31  1  0
  1 23  1  0
  1 32  1  1
  3 33  1  0
  5 34  1  0
  5 35  1  0
  6 36  1  0
 10 37  1  0
 14 38  1  0
 16 39  1  0
 17 40  1  0
 19 41  1  0
 21 42  1  0
 22 43  1  0
 25 44  1  0
 26 45  1  0
 27 46  1  0
 29 47  1  0
 30 48  1  0
 31 49  1  0
 11 50  1  0
M  END
>  <smiles>  (55) 
[H]OC(=O)C([H])([H])c1c([H])c([H])c([C@]([H])(C(=O)O[H])c2c(-c3c([H])c([H])nc([H])c3[H])n[nH]c2[H])c(-c2c([H])c([H])c([H])c([H])c2[H])c1[H]

>  <error>  (55) 


>  <∆∆G>  (55) 
-43.992806

>  <∆G_bound>  (55) 
232.00569

>  <∆G_unbound>  (55) 
275.998496

>  <comRMSD>  (55) 
1.334617

>  <N_constrained_atoms>  (55) 
31.0

>  <N_unconstrained_atoms>  (55) 
0.0

>  <runtime>  (55) 
3.29444

>  <regarded>  (55) 
['d0160a', '5hmw-b']

>  <disregarded>  (55) 
[]

>  <LE>  (55) 
1.419123

>  <outcome>  (55) 
too moved

>  <percent_hybrid>  (55) 
39.0

$$$$
LIG
     RDKit          3D

 47 50  0  0  0  0  0  0  0  0999 V2000
  -14.4230  -43.0059  -22.4623 C   0  0  1  0  0  0  0  0  0  0  0  0
  -14.8926  -43.7615  -23.6827 C   0  0  0  0  0  0  0  0  0  0  0  0
  -16.7993  -42.7953  -17.1450 C   0  0  0  0  0  0  0  0  0  0  0  0
  -18.4451  -41.0449  -17.3275 O   0  0  0  0  0  0  0  0  0  0  0  0
  -19.1758  -43.1792  -17.4071 O   0  0  0  0  0  0  0  0  0  0  0  0
  -18.2535  -42.3835  -17.2778 C   0  0  0  0  0  0  0  0  0  0  0  0
  -14.2985  -41.4744  -22.6511 C   0  0  0  0  0  0  0  0  0  0  0  0
  -13.4409  -40.6572  -21.9193 C   0  0  0  0  0  0  0  0  0  0  0  0
  -13.5427  -39.3992  -22.4067 N   0  0  0  0  0  0  0  0  0  0  0  0
  -14.3404  -39.3071  -23.4644 N   0  0  0  0  0  0  0  0  0  0  0  0
  -14.8115  -40.5561  -23.6533 C   0  0  0  0  0  0  0  0  0  0  0  0
  -16.9871  -41.2120  -24.6537 C   0  0  0  0  0  0  0  0  0  0  0  0
  -15.6805  -40.7694  -24.8091 C   0  0  0  0  0  0  0  0  0  0  0  0
  -15.2389  -40.4445  -26.0931 C   0  0  0  0  0  0  0  0  0  0  0  0
  -16.0965  -40.6426  -27.1638 C   0  0  0  0  0  0  0  0  0  0  0  0
  -17.3509  -41.1307  -27.0451 N   0  0  0  0  0  0  0  0  0  0  0  0
  -17.7654  -41.3950  -25.7867 C   0  0  0  0  0  0  0  0  0  0  0  0
  -16.1518  -43.1069  -18.4679 C   0  0  0  0  0  0  0  0  0  0  0  0
  -14.8235  -42.7930  -18.6937 C   0  0  0  0  0  0  0  0  0  0  0  0
  -14.3066  -42.9056  -19.9802 C   0  0  0  0  0  0  0  0  0  0  0  0
  -15.0930  -43.2675  -21.1057 C   0  0  0  0  0  0  0  0  0  0  0  0
  -16.3463  -43.8421  -20.8163 C   0  0  0  0  0  0  0  0  0  0  0  0
  -16.8538  -43.7354  -19.5007 C   0  0  0  0  0  0  0  0  0  0  0  0
  -18.8409  -45.4850  -23.3195 C   0  0  0  0  0  0  0  0  0  0  0  0
  -18.3328  -46.5106  -22.5569 C   0  0  0  0  0  0  0  0  0  0  0  0
  -17.3527  -46.0398  -21.6383 C   0  0  0  0  0  0  0  0  0  0  0  0
  -17.1828  -44.6651  -21.6972 C   0  0  0  0  0  0  0  0  0  0  0  0
  -18.3126  -43.9628  -22.7671 S   0  0  0  0  0  0  0  0  0  0  0  0
  -13.3928  -43.3698  -22.3270 H   0  0  0  0  0  0  0  0  0  0  0  0
  -14.9462  -44.8282  -23.4614 H   0  0  0  0  0  0  0  0  0  0  0  0
  -15.8718  -43.4604  -24.0393 H   0  0  0  0  0  0  0  0  0  0  0  0
  -14.1924  -43.6196  -24.5120 H   0  0  0  0  0  0  0  0  0  0  0  0
  -16.2580  -41.9929  -16.6287 H   0  0  0  0  0  0  0  0  0  0  0  0
  -16.7317  -43.6615  -16.4905 H   0  0  0  0  0  0  0  0  0  0  0  0
  -17.6210  -40.5245  -17.2911 H   0  0  0  0  0  0  0  0  0  0  0  0
  -12.7532  -40.8623  -21.1136 H   0  0  0  0  0  0  0  0  0  0  0  0
  -17.3943  -41.3919  -23.6671 H   0  0  0  0  0  0  0  0  0  0  0  0
  -14.2456  -40.0404  -26.2581 H   0  0  0  0  0  0  0  0  0  0  0  0
  -15.7846  -40.4087  -28.1775 H   0  0  0  0  0  0  0  0  0  0  0  0
  -18.7866  -41.7543  -25.7029 H   0  0  0  0  0  0  0  0  0  0  0  0
  -14.1889  -42.4080  -17.8994 H   0  0  0  0  0  0  0  0  0  0  0  0
  -13.2538  -42.6589  -20.1132 H   0  0  0  0  0  0  0  0  0  0  0  0
  -17.8553  -44.1258  -19.3064 H   0  0  0  0  0  0  0  0  0  0  0  0
  -19.5450  -45.5499  -24.1363 H   0  0  0  0  0  0  0  0  0  0  0  0
  -18.6103  -47.5509  -22.6844 H   0  0  0  0  0  0  0  0  0  0  0  0
  -16.8000  -46.6803  -20.9613 H   0  0  0  0  0  0  0  0  0  0  0  0
  -13.0680  -38.5636  -22.0821 H   0  0  0  0  0  0  0  0  0  0  0  0
  2  1  1  0
  5  6  2  0
  3  6  1  0
  6  4  1  0
  7  1  1  0
  7  8  2  0
  7 11  1  0
  8  9  1  0
  9 10  1  0
 10 11  2  0
 11 13  1  0
 12 17  2  0
 12 13  1  0
 13 14  2  0
 14 15  1  0
 15 16  2  0
 16 17  1  0
 18 23  2  0
 18  3  1  0
 18 19  1  0
 19 20  2  0
 20 21  1  0
 21 22  2  0
 22 27  1  0
 22 23  1  0
 24 25  2  0
 24 28  1  0
 25 26  1  0
 26 27  2  0
 27 28  1  0
  1 21  1  0
  1 29  1  1
  2 30  1  0
  2 31  1  0
  2 32  1  0
  3 33  1  0
  3 34  1  0
  4 35  1  0
  8 36  1  0
 12 37  1  0
 14 38  1  0
 15 39  1  0
 17 40  1  0
 19 41  1  0
 20 42  1  0
 23 43  1  0
 24 44  1  0
 25 45  1  0
 26 46  1  0
  9 47  1  0
M  END
>  <smiles>  (56) 
[H]OC(=O)C([H])([H])c1c([H])c([H])c([C@]([H])(c2c(-c3c([H])c([H])nc([H])c3[H])n[nH]c2[H])C([H])([H])[H])c(-c2sc([H])c([H])c2[H])c1[H]

>  <error>  (56) 


>  <∆∆G>  (56) 
-90.787417

>  <∆G_bound>  (56) 
152.12506

>  <∆G_unbound>  (56) 
242.912477

>  <comRMSD>  (56) 
1.189524

>  <N_constrained_atoms>  (56) 
28.0

>  <N_unconstrained_atoms>  (56) 
0.0

>  <runtime>  (56) 
3.082693

>  <regarded>  (56) 
['d0160a', '5f3z-a']

>  <disregarded>  (56) 
[]

>  <LE>  (56) 
3.242408

>  <outcome>  (56) 
too moved

>  <percent_hybrid>  (56) 
43.0

$$$$
LIG
     RDKit          3D

 45 48  0  0  0  0  0  0  0  0999 V2000
  -15.6837  -42.0953  -22.3076 C   0  0  0  0  0  0  0  0  0  0  0  0
  -15.0681  -44.0667  -16.7814 C   0  0  0  0  0  0  0  0  0  0  0  0
  -15.1030  -43.4176  -22.3635 O   0  0  0  0  0  0  0  0  0  0  0  0
  -14.2737  -42.0802  -15.6820 O   0  0  0  0  0  0  0  0  0  0  0  0
  -12.8623  -43.8351  -15.8448 O   0  0  0  0  0  0  0  0  0  0  0  0
  -13.9636  -43.3412  -16.0512 C   0  0  0  0  0  0  0  0  0  0  0  0
  -14.7395  -40.9904  -22.6437 C   0  0  0  0  0  0  0  0  0  0  0  0
  -13.8503  -40.3567  -21.7990 C   0  0  0  0  0  0  0  0  0  0  0  0
  -13.2932  -39.3489  -22.5175 N   0  0  0  0  0  0  0  0  0  0  0  0
  -13.8111  -39.2220  -23.7457 N   0  0  0  0  0  0  0  0  0  0  0  0
  -14.6389  -40.2747  -23.8784 C   0  0  0  0  0  0  0  0  0  0  0  0
  -15.6665  -41.8563  -25.4912 C   0  0  0  0  0  0  0  0  0  0  0  0
  -15.3610  -40.5476  -25.1238 C   0  0  0  0  0  0  0  0  0  0  0  0
  -15.7739  -39.5168  -25.9655 C   0  0  0  0  0  0  0  0  0  0  0  0
  -16.5164  -39.8339  -27.0940 C   0  0  0  0  0  0  0  0  0  0  0  0
  -16.8829  -41.0894  -27.4317 N   0  0  0  0  0  0  0  0  0  0  0  0
  -16.4174  -42.0689  -26.6299 C   0  0  0  0  0  0  0  0  0  0  0  0
  -14.9922  -44.0538  -18.2897 C   0  0  0  0  0  0  0  0  0  0  0  0
  -13.8946  -43.5163  -18.9674 C   0  0  0  0  0  0  0  0  0  0  0  0
  -13.9007  -43.4405  -20.3506 C   0  0  0  0  0  0  0  0  0  0  0  0
  -15.0186  -43.8656  -21.0673 C   0  0  0  0  0  0  0  0  0  0  0  0
  -16.0556  -44.5809  -20.4502 C   0  0  0  0  0  0  0  0  0  0  0  0
  -16.0325  -44.6411  -19.0446 C   0  0  0  0  0  0  0  0  0  0  0  0
  -18.6411  -46.1300  -22.9408 C   0  0  0  0  0  0  0  0  0  0  0  0
  -18.4199  -47.0853  -21.9788 C   0  0  0  0  0  0  0  0  0  0  0  0
  -17.5212  -46.6218  -20.9764 C   0  0  0  0  0  0  0  0  0  0  0  0
  -17.0915  -45.3217  -21.1969 C   0  0  0  0  0  0  0  0  0  0  0  0
  -17.9290  -44.6426  -22.5320 S   0  0  0  0  0  0  0  0  0  0  0  0
  -16.5290  -42.0835  -23.0022 H   0  0  0  0  0  0  0  0  0  0  0  0
  -16.1449  -41.8692  -21.3324 H   0  0  0  0  0  0  0  0  0  0  0  0
  -15.0176  -45.1064  -16.4437 H   0  0  0  0  0  0  0  0  0  0  0  0
  -16.0317  -43.6569  -16.4595 H   0  0  0  0  0  0  0  0  0  0  0  0
  -15.1777  -41.7973  -15.9216 H   0  0  0  0  0  0  0  0  0  0  0  0
  -13.5814  -40.5233  -20.7660 H   0  0  0  0  0  0  0  0  0  0  0  0
  -15.2993  -42.7134  -24.9367 H   0  0  0  0  0  0  0  0  0  0  0  0
  -15.5297  -38.4830  -25.7475 H   0  0  0  0  0  0  0  0  0  0  0  0
  -16.8456  -39.0546  -27.7753 H   0  0  0  0  0  0  0  0  0  0  0  0
  -16.6338  -43.0803  -26.9455 H   0  0  0  0  0  0  0  0  0  0  0  0
  -13.0195  -43.1281  -18.4473 H   0  0  0  0  0  0  0  0  0  0  0  0
  -13.0549  -42.9976  -20.8736 H   0  0  0  0  0  0  0  0  0  0  0  0
  -16.8536  -45.1347  -18.5298 H   0  0  0  0  0  0  0  0  0  0  0  0
  -19.2052  -46.2317  -23.8567 H   0  0  0  0  0  0  0  0  0  0  0  0
  -18.8210  -48.0899  -22.0342 H   0  0  0  0  0  0  0  0  0  0  0  0
  -17.1455  -47.2500  -20.1782 H   0  0  0  0  0  0  0  0  0  0  0  0
  -12.5782  -38.6914  -22.2217 H   0  0  0  0  0  0  0  0  0  0  0  0
  5  6  2  0
  2  6  1  0
  6  4  1  0
  3  1  1  0
  7  1  1  0
  7  8  2  0
  7 11  1  0
  8  9  1  0
  9 10  1  0
 10 11  2  0
 11 13  1  0
 12 17  2  0
 12 13  1  0
 13 14  2  0
 14 15  1  0
 15 16  2  0
 16 17  1  0
 18 23  2  0
 18  2  1  0
 18 19  1  0
 19 20  2  0
 20 21  1  0
 21 22  2  0
 21  3  1  0
 22 27  1  0
 22 23  1  0
 24 25  2  0
 24 28  1  0
 25 26  1  0
 26 27  2  0
 27 28  1  0
  1 29  1  0
  1 30  1  0
  2 31  1  0
  2 32  1  0
  4 33  1  0
  8 34  1  0
 12 35  1  0
 14 36  1  0
 15 37  1  0
 17 38  1  0
 19 39  1  0
 20 40  1  0
 23 41  1  0
 24 42  1  0
 25 43  1  0
 26 44  1  0
  9 45  1  0
M  END
>  <smiles>  (57) 
[H]OC(=O)C([H])([H])c1c([H])c([H])c(OC([H])([H])c2c(-c3c([H])c([H])nc([H])c3[H])n[nH]c2[H])c(-c2sc([H])c([H])c2[H])c1[H]

>  <error>  (57) 


>  <∆∆G>  (57) 
-74.923428

>  <∆G_bound>  (57) 
183.152283

>  <∆G_unbound>  (57) 
258.075711

>  <comRMSD>  (57) 
1.192211

>  <N_constrained_atoms>  (57) 
28.0

>  <N_unconstrained_atoms>  (57) 
0.0

>  <runtime>  (57) 
3.764548

>  <regarded>  (57) 
['d0160a', '6h9r-a']

>  <disregarded>  (57) 
[]

>  <LE>  (57) 
2.675837

>  <outcome>  (57) 
too moved

>  <percent_hybrid>  (57) 
43.0

$$$$
LIG
     RDKit          3D

 50 53  0  0  0  0  0  0  0  0999 V2000
  -14.4893  -43.1078  -22.4802 C   0  0  1  0  0  0  0  0  0  0  0  0
  -15.0850  -43.8380  -23.6599 C   0  0  0  0  0  0  0  0  0  0  0  0
  -15.2405  -41.5682  -15.2548 O   0  0  0  0  0  0  0  0  0  0  0  0
  -16.1764  -40.7727  -17.1451 O   0  0  0  0  0  0  0  0  0  0  0  0
  -15.7797  -41.7801  -16.3320 C   0  0  0  0  0  0  0  0  0  0  0  0
  -16.0841  -43.1686  -16.8576 C   0  0  0  0  0  0  0  0  0  0  0  0
  -14.4037  -41.5669  -22.6312 C   0  0  0  0  0  0  0  0  0  0  0  0
  -13.6093  -40.7327  -21.8489 C   0  0  0  0  0  0  0  0  0  0  0  0
  -13.7084  -39.4736  -22.3358 N   0  0  0  0  0  0  0  0  0  0  0  0
  -14.4668  -39.3894  -23.4225 N   0  0  0  0  0  0  0  0  0  0  0  0
  -14.9007  -40.6463  -23.6413 C   0  0  0  0  0  0  0  0  0  0  0  0
  -17.0444  -41.3038  -24.7090 C   0  0  0  0  0  0  0  0  0  0  0  0
  -15.7348  -40.8535  -24.8237 C   0  0  0  0  0  0  0  0  0  0  0  0
  -15.2651  -40.4928  -26.0879 C   0  0  0  0  0  0  0  0  0  0  0  0
  -16.0995  -40.6604  -27.1812 C   0  0  0  0  0  0  0  0  0  0  0  0
  -17.3567  -41.1494  -27.1013 N   0  0  0  0  0  0  0  0  0  0  0  0
  -17.7985  -41.4505  -25.8619 C   0  0  0  0  0  0  0  0  0  0  0  0
  -14.9998  -43.4249  -21.0600 C   0  0  0  0  0  0  0  0  0  0  0  0
  -14.0497  -43.1684  -20.0403 C   0  0  0  0  0  0  0  0  0  0  0  0
  -14.3750  -43.1272  -18.6914 C   0  0  0  0  0  0  0  0  0  0  0  0
  -15.6758  -43.3891  -18.2932 C   0  0  0  0  0  0  0  0  0  0  0  0
  -16.5695  -43.8791  -19.2519 C   0  0  0  0  0  0  0  0  0  0  0  0
  -16.2361  -43.9679  -20.6321 C   0  0  0  0  0  0  0  0  0  0  0  0
  -18.7701  -45.1679  -23.1960 C   0  0  0  0  0  0  0  0  0  0  0  0
  -18.0235  -44.3048  -22.3914 C   0  0  0  0  0  0  0  0  0  0  0  0
  -17.1364  -44.8108  -21.4408 C   0  0  0  0  0  0  0  0  0  0  0  0
  -17.1460  -46.2015  -21.2031 C   0  0  0  0  0  0  0  0  0  0  0  0
  -17.9479  -47.0590  -21.9479 C   0  0  0  0  0  0  0  0  0  0  0  0
  -18.6985  -46.5454  -22.9946 C   0  0  0  0  0  0  0  0  0  0  0  0
  -13.4450  -43.4555  -22.4811 H   0  0  0  0  0  0  0  0  0  0  0  0
  -15.1063  -44.9113  -23.4661 H   0  0  0  0  0  0  0  0  0  0  0  0
  -16.1008  -43.5354  -23.8907 H   0  0  0  0  0  0  0  0  0  0  0  0
  -14.4866  -43.6653  -24.5597 H   0  0  0  0  0  0  0  0  0  0  0  0
  -16.5572  -41.0811  -17.9907 H   0  0  0  0  0  0  0  0  0  0  0  0
  -15.5495  -43.8932  -16.2341 H   0  0  0  0  0  0  0  0  0  0  0  0
  -17.1590  -43.3292  -16.7311 H   0  0  0  0  0  0  0  0  0  0  0  0
  -12.9626  -40.9200  -21.0060 H   0  0  0  0  0  0  0  0  0  0  0  0
  -17.4756  -41.5095  -23.7392 H   0  0  0  0  0  0  0  0  0  0  0  0
  -14.2702  -40.0800  -26.2196 H   0  0  0  0  0  0  0  0  0  0  0  0
  -15.7672  -40.3982  -28.1813 H   0  0  0  0  0  0  0  0  0  0  0  0
  -18.8229  -41.8065  -25.8130 H   0  0  0  0  0  0  0  0  0  0  0  0
  -13.0122  -42.9562  -20.3075 H   0  0  0  0  0  0  0  0  0  0  0  0
  -13.6081  -42.8356  -17.9751 H   0  0  0  0  0  0  0  0  0  0  0  0
  -17.5558  -44.2188  -18.9322 H   0  0  0  0  0  0  0  0  0  0  0  0
  -19.4024  -44.7670  -23.9829 H   0  0  0  0  0  0  0  0  0  0  0  0
  -18.1031  -43.2339  -22.5359 H   0  0  0  0  0  0  0  0  0  0  0  0
  -16.4957  -46.6243  -20.4410 H   0  0  0  0  0  0  0  0  0  0  0  0
  -17.9240  -48.1305  -21.7695 H   0  0  0  0  0  0  0  0  0  0  0  0
  -19.2272  -47.2311  -23.6521 H   0  0  0  0  0  0  0  0  0  0  0  0
  -13.2663  -38.6312  -21.9828 H   0  0  0  0  0  0  0  0  0  0  0  0
  2  1  1  0
  3  5  2  0
  6  5  1  0
  5  4  1  0
  7  1  1  0
  7  8  2  0
  7 11  1  0
  8  9  1  0
  9 10  1  0
 10 11  2  0
 11 13  1  0
 12 17  2  0
 12 13  1  0
 13 14  2  0
 14 15  1  0
 15 16  2  0
 16 17  1  0
 18 23  1  0
 18 19  2  0
 19 20  1  0
 20 21  2  0
 21 22  1  0
 21  6  1  0
 22 23  2  0
 23 26  1  0
 24 29  2  0
 24 25  1  0
 25 26  2  0
 26 27  1  0
 27 28  2  0
 28 29  1  0
  1 18  1  0
  1 30  1  1
  2 31  1  0
  2 32  1  0
  2 33  1  0
  4 34  1  0
  6 35  1  0
  6 36  1  0
  8 37  1  0
 12 38  1  0
 14 39  1  0
 15 40  1  0
 17 41  1  0
 19 42  1  0
 20 43  1  0
 22 44  1  0
 24 45  1  0
 25 46  1  0
 27 47  1  0
 28 48  1  0
 29 49  1  0
  9 50  1  0
M  END
>  <smiles>  (58) 
[H]OC(=O)C([H])([H])c1c([H])c([H])c([C@]([H])(c2c(-c3c([H])c([H])nc([H])c3[H])n[nH]c2[H])C([H])([H])[H])c(-c2c([H])c([H])c([H])c([H])c2[H])c1[H]

>  <error>  (58) 


>  <∆∆G>  (58) 
-27.155997

>  <∆G_bound>  (58) 
152.99189

>  <∆G_unbound>  (58) 
180.147887

>  <comRMSD>  (58) 
1.047239

>  <N_constrained_atoms>  (58) 
29.0

>  <N_unconstrained_atoms>  (58) 
0.0

>  <runtime>  (58) 
3.252738

>  <regarded>  (58) 
['d0160a', '5f3t-a']

>  <disregarded>  (58) 
[]

>  <LE>  (58) 
0.936414

>  <outcome>  (58) 
too moved

>  <percent_hybrid>  (58) 
42.0

$$$$

     RDKit          2D

  0  0  0  0  0  0  0  0  0  0999 V2000
M  END
>  <smiles>  (59) 
nan

>  <error>  (59) 
DistanceError 8.54 Å

>  <∆∆G>  (59) 
nan

>  <∆G_bound>  (59) 
nan

>  <∆G_unbound>  (59) 
nan

>  <comRMSD>  (59) 
nan

>  <N_constrained_atoms>  (59) 
nan

>  <N_unconstrained_atoms>  (59) 
nan

>  <runtime>  (59) 
nan

>  <regarded>  (59) 
[]

>  <disregarded>  (59) 
[]

>  <LE>  (59) 
nan

>  <outcome>  (59) 
too distant

>  <percent_hybrid>  (59) 
nan

$$$$
LIG
     RDKit          3D

 37 39  0  0  0  0  0  0  0  0999 V2000
  -15.7539  -39.8983  -25.6417 C   0  0  0  0  0  0  0  0  0  0  0  0
  -14.6018  -42.6102  -21.4938 C   0  0  0  0  0  0  0  0  0  0  0  0
  -14.9864  -41.3144  -23.6918 C   0  0  1  0  0  0  0  0  0  0  0  0
  -14.7319  -42.5949  -24.4602 C   0  0  0  0  0  0  0  0  0  0  0  0
  -16.1190  -43.0722  -24.8459 C   0  0  0  0  0  0  0  0  0  0  0  0
  -16.9794  -41.8166  -24.8208 C   0  0  0  0  0  0  0  0  0  0  0  0
  -16.0886  -40.6979  -24.4520 N   0  0  0  0  0  0  0  0  0  0  0  0
  -17.6818  -38.7664  -26.8665 C   0  0  0  0  0  0  0  0  0  0  0  0
  -16.7983  -38.8179  -25.7955 C   0  0  0  0  0  0  0  0  0  0  0  0
  -16.9376  -37.8480  -24.7951 C   0  0  0  0  0  0  0  0  0  0  0  0
  -17.9514  -36.9065  -24.8802 C   0  0  0  0  0  0  0  0  0  0  0  0
  -18.7986  -36.9631  -25.9732 C   0  0  0  0  0  0  0  0  0  0  0  0
  -18.6906  -37.8632  -26.9800 N   0  0  0  0  0  0  0  0  0  0  0  0
  -15.3826  -41.5072  -22.2174 C   0  0  2  0  0  0  0  0  0  0  0  0
  -15.0672  -40.1360  -21.6186 C   0  0  0  0  0  0  0  0  0  0  0  0
  -14.0102  -39.5444  -22.4463 N   0  0  0  0  0  0  0  0  0  0  0  0
  -13.8112  -40.4715  -23.5244 N   0  0  0  0  0  0  0  0  0  0  0  0
  -14.8064  -39.3612  -25.5602 H   0  0  0  0  0  0  0  0  0  0  0  0
  -15.6660  -40.5108  -26.5486 H   0  0  0  0  0  0  0  0  0  0  0  0
  -14.8194  -42.5876  -20.4201 H   0  0  0  0  0  0  0  0  0  0  0  0
  -14.8938  -43.6017  -21.8538 H   0  0  0  0  0  0  0  0  0  0  0  0
  -13.5188  -42.5028  -21.6131 H   0  0  0  0  0  0  0  0  0  0  0  0
  -14.1718  -42.3472  -25.3600 H   0  0  0  0  0  0  0  0  0  0  0  0
  -14.1596  -43.3656  -23.9386 H   0  0  0  0  0  0  0  0  0  0  0  0
  -16.1111  -43.5350  -25.8354 H   0  0  0  0  0  0  0  0  0  0  0  0
  -16.4917  -43.8056  -24.1227 H   0  0  0  0  0  0  0  0  0  0  0  0
  -17.5070  -41.6748  -25.7714 H   0  0  0  0  0  0  0  0  0  0  0  0
  -17.7597  -41.9191  -24.0571 H   0  0  0  0  0  0  0  0  0  0  0  0
  -17.6138  -39.4782  -27.6842 H   0  0  0  0  0  0  0  0  0  0  0  0
  -16.2687  -37.8548  -23.9366 H   0  0  0  0  0  0  0  0  0  0  0  0
  -18.0865  -36.1608  -24.1058 H   0  0  0  0  0  0  0  0  0  0  0  0
  -19.6178  -36.2564  -26.0693 H   0  0  0  0  0  0  0  0  0  0  0  0
  -16.4506  -41.7219  -22.0899 H   0  0  0  0  0  0  0  0  0  0  0  0
  -15.9500  -39.4884  -21.6763 H   0  0  0  0  0  0  0  0  0  0  0  0
  -14.7698  -40.1879  -20.5657 H   0  0  0  0  0  0  0  0  0  0  0  0
  -13.1580  -39.4690  -21.8821 H   0  0  0  0  0  0  0  0  0  0  0  0
  -13.4940  -40.0647  -24.3992 H   0  0  0  0  0  0  0  0  0  0  0  0
  3  4  1  0
  3  7  1  6
  4  5  1  0
  5  6  1  0
  6  7  1  0
  7  1  1  0
  8 13  2  0
  8  9  1  0
  9  1  1  0
  9 10  2  0
 10 11  1  0
 11 12  2  0
 12 13  1  0
 14  2  1  0
 14 15  1  0
 15 16  1  0
 16 17  1  0
  3 14  1  0
  3 17  1  0
  1 18  1  0
  1 19  1  0
  2 20  1  0
  2 21  1  0
  2 22  1  0
  4 23  1  0
  4 24  1  0
  5 25  1  0
  5 26  1  0
  6 27  1  0
  6 28  1  0
  8 29  1  0
 10 30  1  0
 11 31  1  0
 12 32  1  0
 14 33  1  6
 15 34  1  0
 15 35  1  0
 16 36  1  0
 17 37  1  0
M  END
>  <smiles>  (60) 
[H]c1nc([H])c(C([H])([H])N2C([H])([H])C([H])([H])C([H])([H])[C@@]23N([H])N([H])C([H])([H])[C@]3([H])C([H])([H])[H])c([H])c1[H]

>  <error>  (60) 


>  <∆∆G>  (60) 
-46.767926

>  <∆G_bound>  (60) 
336.577005

>  <∆G_unbound>  (60) 
383.344931

>  <comRMSD>  (60) 
0.917086

>  <N_constrained_atoms>  (60) 
17.0

>  <N_unconstrained_atoms>  (60) 
0.0

>  <runtime>  (60) 
1.320518

>  <regarded>  (60) 
['d0191a', 'd0160a']

>  <disregarded>  (60) 
[]

>  <LE>  (60) 
2.751054

>  <outcome>  (60) 
acceptable

>  <percent_hybrid>  (60) 
30.0

$$$$
LIG
     RDKit          3D

 37 39  0  0  0  0  0  0  0  0999 V2000
  -15.2050  -39.9964  -25.7258 C   0  0  0  0  0  0  0  0  0  0  0  0
  -18.3875  -45.3287  -23.2741 O   0  0  0  0  0  0  0  0  0  0  0  0
  -17.4931  -44.9499  -22.6186 C   0  0  0  0  0  0  0  0  0  0  0  0
  -16.4243  -43.8505  -22.9056 N   0  0  0  0  0  0  0  0  0  0  0  0
  -15.4409  -41.9135  -24.0708 C   0  0  0  0  0  0  0  0  0  0  0  0
  -16.3050  -42.9820  -23.9536 C   0  0  0  0  0  0  0  0  0  0  0  0
  -17.0879  -43.0224  -25.1238 C   0  0  0  0  0  0  0  0  0  0  0  0
  -16.6714  -42.0046  -25.9423 C   0  0  0  0  0  0  0  0  0  0  0  0
  -15.7272  -41.2796  -25.2612 N   0  0  0  0  0  0  0  0  0  0  0  0
  -17.0904  -38.6626  -26.7766 C   0  0  0  0  0  0  0  0  0  0  0  0
  -16.2865  -38.9453  -25.6719 C   0  0  0  0  0  0  0  0  0  0  0  0
  -16.5738  -38.2655  -24.4850 C   0  0  0  0  0  0  0  0  0  0  0  0
  -17.6215  -37.3505  -24.4479 C   0  0  0  0  0  0  0  0  0  0  0  0
  -18.3661  -37.1541  -25.5995 C   0  0  0  0  0  0  0  0  0  0  0  0
  -18.1327  -37.7922  -26.7670 N   0  0  0  0  0  0  0  0  0  0  0  0
  -16.2519  -44.7771  -20.4436 O   0  0  0  0  0  0  0  0  0  0  0  0
  -16.8574  -44.5676  -19.1610 C   0  0  0  0  0  0  0  0  0  0  0  0
  -17.9059  -45.6425  -19.0100 C   0  0  0  0  0  0  0  0  0  0  0  0
  -18.4089  -45.7856  -20.4210 C   0  0  0  0  0  0  0  0  0  0  0  0
  -17.1460  -45.5642  -21.2455 C   0  0  1  0  0  0  0  0  0  0  0  0
  -14.3598  -39.7192  -25.0873 H   0  0  0  0  0  0  0  0  0  0  0  0
  -14.8284  -40.1400  -26.7446 H   0  0  0  0  0  0  0  0  0  0  0  0
  -15.8396  -43.7200  -22.0809 H   0  0  0  0  0  0  0  0  0  0  0  0
  -14.6860  -41.5271  -23.3999 H   0  0  0  0  0  0  0  0  0  0  0  0
  -17.8798  -43.7216  -25.3412 H   0  0  0  0  0  0  0  0  0  0  0  0
  -17.0077  -41.6988  -26.9192 H   0  0  0  0  0  0  0  0  0  0  0  0
  -16.9218  -39.1514  -27.7339 H   0  0  0  0  0  0  0  0  0  0  0  0
  -15.9956  -38.4564  -23.5844 H   0  0  0  0  0  0  0  0  0  0  0  0
  -17.8615  -36.8141  -23.5365 H   0  0  0  0  0  0  0  0  0  0  0  0
  -19.1984  -36.4563  -25.6083 H   0  0  0  0  0  0  0  0  0  0  0  0
  -16.0922  -44.6094  -18.3810 H   0  0  0  0  0  0  0  0  0  0  0  0
  -17.3069  -43.5687  -19.1593 H   0  0  0  0  0  0  0  0  0  0  0  0
  -17.4279  -46.5747  -18.6913 H   0  0  0  0  0  0  0  0  0  0  0  0
  -18.6884  -45.3868  -18.2920 H   0  0  0  0  0  0  0  0  0  0  0  0
  -18.8734  -46.7566  -20.6172 H   0  0  0  0  0  0  0  0  0  0  0  0
  -19.1584  -45.0121  -20.6300 H   0  0  0  0  0  0  0  0  0  0  0  0
  -16.6423  -46.5188  -21.4353 H   0  0  0  0  0  0  0  0  0  0  0  0
  4  3  1  0
  3  2  2  0
  5  6  2  0
  5  9  1  0
  6  7  1  0
  7  8  2  0
  8  9  1  0
  9  1  1  0
 10 15  2  0
 10 11  1  0
 11  1  1  0
 11 12  2  0
 12 13  1  0
 13 14  2  0
 14 15  1  0
 16 17  1  0
 16 20  1  0
 17 18  1  0
 18 19  1  0
 19 20  1  0
 20  3  1  0
  4  6  1  0
  1 21  1  0
  1 22  1  0
  4 23  1  0
  5 24  1  0
  7 25  1  0
  8 26  1  0
 10 27  1  0
 12 28  1  0
 13 29  1  0
 14 30  1  0
 17 31  1  0
 17 32  1  0
 18 33  1  0
 18 34  1  0
 19 35  1  0
 19 36  1  0
 20 37  1  6
M  END
>  <smiles>  (61) 
[H]c1nc([H])c(C([H])([H])n2c([H])c([H])c(N([H])C(=O)[C@@]3([H])OC([H])([H])C([H])([H])C3([H])[H])c2[H])c([H])c1[H]

>  <error>  (61) 


>  <∆∆G>  (61) 
-44.424384

>  <∆G_bound>  (61) 
247.059097

>  <∆G_unbound>  (61) 
291.483481

>  <comRMSD>  (61) 
0.601998

>  <N_constrained_atoms>  (61) 
20.0

>  <N_unconstrained_atoms>  (61) 
0.0

>  <runtime>  (61) 
3.143663

>  <regarded>  (61) 
['d0191a', 'd0254a']

>  <disregarded>  (61) 
[]

>  <LE>  (61) 
2.221219

>  <outcome>  (61) 
acceptable

>  <percent_hybrid>  (61) 
40.0

$$$$
LIG
     RDKit          3D

  0  0  0  0  0  0  0  0  0  0999 V3000
M  V30 BEGIN CTAB
M  V30 COUNTS 62 64 0 0 0
M  V30 BEGIN ATOM
M  V30 1 C -15.248000 -40.036999 -26.167000 0
M  V30 2 C -14.724000 -41.629002 -24.274000 0
M  V30 3 C -15.198000 -42.825001 -23.830999 0
M  V30 4 C -16.190001 -43.247002 -24.733000 0
M  V30 5 C -16.294001 -42.299000 -25.702000 0
M  V30 6 N -15.398000 -41.293999 -25.423000 0
M  V30 7 C -17.406000 -38.859001 -26.754000 0
M  V30 8 C -16.355000 -39.054001 -25.875000 0
M  V30 9 C -16.341000 -38.275002 -24.731001 0
M  V30 10 C -17.327999 -37.328999 -24.525999 0
M  V30 11 C -18.322001 -37.206001 -25.469999 0
M  V30 12 N -18.382999 -37.960999 -26.572001 0
M  V30 13 O -23.164000 -45.938000 -18.049000 0
M  V30 14 C -22.246000 -46.016998 -17.236000 0
M  V30 15 C -22.204000 -47.136002 -16.188999 0
M  V30 16 C -23.259001 -46.889000 -15.112000 0
M  V30 17 C -22.391001 -48.480999 -16.875999 0
M  V30 18 N -21.222000 -45.154999 -17.212000 0
M  V30 19 C -21.018999 -44.181000 -18.270000 0 CFG=1
M  V30 20 C -20.471001 -42.877998 -17.697001 0
M  V30 21 C -20.379999 -43.105999 -21.250999 0
M  V30 22 C -17.607000 -47.167999 -21.084000 0
M  V30 23 C -20.124001 -44.757999 -19.327999 0
M  V30 24 S -19.247999 -46.223999 -19.002001 0
M  V30 25 C -18.566000 -46.140999 -20.593000 0
M  V30 26 C -18.959000 -45.118000 -21.297001 0
M  V30 27 C -19.841000 -44.330002 -20.590000 0
M  V30 28 N -16.882250 -43.714752 -23.874001 0
M  V30 29 C -17.574501 -44.182503 -23.014999 0
M  V30 30 C -18.266750 -44.650249 -22.156000 0
M  V30 31 H -14.287182 -39.577408 -25.892035 0
M  V30 32 H -15.290560 -40.277637 -27.239511 0
M  V30 33 H -13.935004 -41.031788 -23.793562 0
M  V30 34 H -14.865563 -43.363384 -22.931206 0
M  V30 35 H -16.978371 -42.330608 -26.562603 0
M  V30 36 H -17.441278 -39.481430 -27.660278 0
M  V30 37 H -15.544135 -38.408703 -23.984589 0
M  V30 38 H -17.319143 -36.690296 -23.630466 0
M  V30 39 H -19.104530 -36.449635 -25.310135 0
M  V30 40 H -21.224400 -47.145100 -15.688701 0
M  V30 41 H -22.800341 -46.996384 -14.117969 0
M  V30 42 H -23.663401 -45.871887 -15.221285 0
M  V30 43 H -24.072884 -47.620884 -15.221285 0
M  V30 44 H -22.500528 -49.268772 -16.116119 0
M  V30 45 H -23.293409 -48.449520 -17.504227 0
M  V30 46 H -21.514233 -48.696888 -17.504227 0
M  V30 47 H -20.560917 -45.183292 -16.422653 0
M  V30 48 H -21.983677 -43.943588 -18.742264 0
M  V30 49 H -20.490307 -42.923904 -16.598129 0
M  V30 50 H -19.435837 -42.733383 -18.039818 0
M  V30 51 H -21.091650 -42.037003 -18.039818 0
M  V30 52 H -20.697660 -42.384628 -20.483721 0
M  V30 53 H -19.597904 -42.653469 -21.878328 0
M  V30 54 H -21.241858 -43.377396 -21.878328 0
M  V30 55 H -17.137276 -47.671032 -20.225910 0
M  V30 56 H -18.143948 -47.908951 -21.694473 0
M  V30 57 H -16.831057 -46.682991 -21.694473 0
M  V30 58 H -15.812250 -42.644753 -22.804001 0
M  V30 59 H -16.494499 -43.102501 -21.934999 0
M  V30 60 H -16.484501 -43.092503 -21.925001 0
M  V30 61 H -17.166750 -43.550251 -21.056000 0
M  V30 62 H -17.156750 -43.540249 -21.046001 0
M  V30 END ATOM
M  V30 BEGIN BOND
M  V30 1 2 2 3
M  V30 2 1 2 6
M  V30 3 1 3 4
M  V30 4 2 4 5
M  V30 5 1 5 6
M  V30 6 1 6 1
M  V30 7 2 7 12
M  V30 8 1 7 8
M  V30 9 1 8 1
M  V30 10 2 8 9
M  V30 11 1 9 10
M  V30 12 2 10 11
M  V30 13 1 11 12
M  V30 14 1 17 15
M  V30 15 1 16 15
M  V30 16 1 15 14
M  V30 17 2 14 13
M  V30 18 1 18 14
M  V30 19 1 19 18
M  V30 20 1 19 20
M  V30 21 1 23 19
M  V30 22 1 23 24
M  V30 23 2 23 27
M  V30 24 1 24 25
M  V30 25 1 25 22
M  V30 26 2 25 26
M  V30 27 1 26 27
M  V30 28 1 27 21
M  V30 29 1 28 4
M  V30 30 1 29 28
M  V30 31 1 30 29
M  V30 32 1 30 26
M  V30 33 1 1 31
M  V30 34 1 1 32
M  V30 35 1 2 33
M  V30 36 1 3 34
M  V30 37 1 5 35
M  V30 38 1 7 36
M  V30 39 1 9 37
M  V30 40 1 10 38
M  V30 41 1 11 39
M  V30 42 1 15 40
M  V30 43 1 16 41
M  V30 44 1 16 42
M  V30 45 1 16 43
M  V30 46 1 17 44
M  V30 47 1 17 45
M  V30 48 1 17 46
M  V30 49 1 18 47
M  V30 50 1 19 48 CFG=3
M  V30 51 1 20 49
M  V30 52 1 20 50
M  V30 53 1 20 51
M  V30 54 1 21 52
M  V30 55 1 21 53
M  V30 56 1 21 54
M  V30 57 1 22 55
M  V30 58 1 22 56
M  V30 59 1 22 57
M  V30 60 1 28 58
M  V30 61 1 29 59
M  V30 62 1 29 60
M  V30 63 1 30 61
M  V30 64 1 30 62
M  V30 END BOND
M  V30 BEGIN COLLECTION
M  V30 MDLV30/STEABS ATOMS=(0)
M  V30 END COLLECTION
M  V30 END CTAB
M  END
>  <smiles>  (62) 
[H]c1nc([H])c(C([H])([H])n2c([H])c([H])c(N([H])C([H])([H])C([H])([H])c3c(C([H])([H])[H])sc([C@@]([H])(N([H])C(=O)C([H])(C([H])([H])[H])C([H])([H])[H])C([H])([H])[H])c3C([H])([H])[H])c2[H])c([H])c1[H]

>  <error>  (62) 


>  <∆∆G>  (62) 
nan

>  <∆G_bound>  (62) 
nan

>  <∆G_unbound>  (62) 
nan

>  <comRMSD>  (62) 
0.0

>  <N_constrained_atoms>  (62) 
27.0

>  <N_unconstrained_atoms>  (62) 
3.0

>  <runtime>  (62) 
2.154773

>  <regarded>  (62) 
['d0191a', 'd0264a']

>  <disregarded>  (62) 
[]

>  <LE>  (62) 
nan

>  <outcome>  (62) 
crashed

>  <percent_hybrid>  (62) 
45.0

$$$$
LIG
     RDKit          3D

 41 44  0  0  0  0  0  0  0  0999 V2000
  -15.4400  -39.7860  -26.1634 C   0  0  0  0  0  0  0  0  0  0  0  0
  -15.7457  -41.0635  -24.0175 C   0  0  0  0  0  0  0  0  0  0  0  0
  -16.0444  -42.3587  -23.6785 C   0  0  0  0  0  0  0  0  0  0  0  0
  -16.1958  -43.0928  -24.8667 C   0  0  0  0  0  0  0  0  0  0  0  0
  -16.0332  -42.2152  -25.9160 C   0  0  0  0  0  0  0  0  0  0  0  0
  -15.7275  -40.9874  -25.3892 N   0  0  0  0  0  0  0  0  0  0  0  0
  -17.6077  -38.7875  -26.9911 C   0  0  0  0  0  0  0  0  0  0  0  0
  -16.5731  -38.8021  -26.0601 C   0  0  0  0  0  0  0  0  0  0  0  0
  -16.6583  -37.8978  -24.9966 C   0  0  0  0  0  0  0  0  0  0  0  0
  -17.7502  -37.0440  -24.8970 C   0  0  0  0  0  0  0  0  0  0  0  0
  -18.7283  -37.1167  -25.8741 C   0  0  0  0  0  0  0  0  0  0  0  0
  -18.6844  -37.9620  -26.9291 N   0  0  0  0  0  0  0  0  0  0  0  0
  -16.2749  -42.8308  -22.4288 N   0  0  0  0  0  0  0  0  0  0  0  0
  -15.2565  -43.3573  -21.5820 C   0  0  0  0  0  0  0  0  0  0  0  0
  -15.3888  -44.5328  -20.8211 C   0  0  0  0  0  0  0  0  0  0  0  0
  -14.4715  -44.8931  -19.8685 N   0  0  0  0  0  0  0  0  0  0  0  0
  -13.3939  -44.0946  -19.7074 C   0  0  0  0  0  0  0  0  0  0  0  0
  -13.1774  -42.9320  -20.4046 C   0  0  0  0  0  0  0  0  0  0  0  0
  -14.1244  -42.5600  -21.3397 C   0  0  0  0  0  0  0  0  0  0  0  0
  -17.5199  -45.4475  -21.9087 C   0  0  0  0  0  0  0  0  0  0  0  0
  -18.1126  -46.6882  -21.9636 C   0  0  0  0  0  0  0  0  0  0  0  0
  -17.3938  -47.5235  -21.0951 C   0  0  0  0  0  0  0  0  0  0  0  0
  -16.4386  -46.7562  -20.4775 C   0  0  0  0  0  0  0  0  0  0  0  0
  -16.4278  -45.4954  -21.0607 N   0  0  0  0  0  0  0  0  0  0  0  0
  -14.5053  -39.3677  -25.7774 H   0  0  0  0  0  0  0  0  0  0  0  0
  -15.2643  -40.0820  -27.2034 H   0  0  0  0  0  0  0  0  0  0  0  0
  -15.5609  -40.1933  -23.4049 H   0  0  0  0  0  0  0  0  0  0  0  0
  -16.4329  -44.1389  -24.9486 H   0  0  0  0  0  0  0  0  0  0  0  0
  -16.0769  -42.3795  -26.9846 H   0  0  0  0  0  0  0  0  0  0  0  0
  -17.6019  -39.4604  -27.8452 H   0  0  0  0  0  0  0  0  0  0  0  0
  -15.8800  -37.8589  -24.2396 H   0  0  0  0  0  0  0  0  0  0  0  0
  -17.8383  -36.3413  -24.0760 H   0  0  0  0  0  0  0  0  0  0  0  0
  -19.6021  -36.4724  -25.8310 H   0  0  0  0  0  0  0  0  0  0  0  0
  -16.7310  -42.1352  -21.8331 H   0  0  0  0  0  0  0  0  0  0  0  0
  -12.6445  -44.4167  -18.9967 H   0  0  0  0  0  0  0  0  0  0  0  0
  -12.2807  -42.3454  -20.2402 H   0  0  0  0  0  0  0  0  0  0  0  0
  -13.9699  -41.6371  -21.8901 H   0  0  0  0  0  0  0  0  0  0  0  0
  -17.7851  -44.5573  -22.4527 H   0  0  0  0  0  0  0  0  0  0  0  0
  -18.9393  -46.9731  -22.5978 H   0  0  0  0  0  0  0  0  0  0  0  0
  -17.5378  -48.5790  -20.9506 H   0  0  0  0  0  0  0  0  0  0  0  0
  -15.6965  -47.0114  -19.7346 H   0  0  0  0  0  0  0  0  0  0  0  0
  2  3  2  0
  2  6  1  0
  3  4  1  0
  4  5  2  0
  5  6  1  0
  6  1  1  0
  7 12  2  0
  7  8  1  0
  8  1  1  0
  8  9  2  0
  9 10  1  0
 10 11  2  0
 11 12  1  0
 14 13  1  0
 14 19  2  0
 14 15  1  0
 15 16  2  0
 15 24  1  0
 16 17  1  0
 17 18  2  0
 18 19  1  0
 20 21  2  0
 20 24  1  0
 21 22  1  0
 22 23  2  0
 23 24  1  0
  3 13  1  0
  1 25  1  0
  1 26  1  0
  2 27  1  0
  4 28  1  0
  5 29  1  0
  7 30  1  0
  9 31  1  0
 10 32  1  0
 11 33  1  0
 13 34  1  0
 17 35  1  0
 18 36  1  0
 19 37  1  0
 20 38  1  0
 21 39  1  0
 22 40  1  0
 23 41  1  0
M  END
>  <smiles>  (63) 
[H]c1nc(-n2c([H])c([H])c([H])c2[H])c(N([H])c2c([H])c([H])n(C([H])([H])c3c([H])nc([H])c([H])c3[H])c2[H])c([H])c1[H]

>  <error>  (63) 


>  <∆∆G>  (63) 
-44.062023

>  <∆G_bound>  (63) 
345.147006

>  <∆G_unbound>  (63) 
389.209029

>  <comRMSD>  (63) 
0.685883

>  <N_constrained_atoms>  (63) 
24.0

>  <N_unconstrained_atoms>  (63) 
0.0

>  <runtime>  (63) 
1.321189

>  <regarded>  (63) 
['d0191a', 'd0472a']

>  <disregarded>  (63) 
[]

>  <LE>  (63) 
1.835918

>  <outcome>  (63) 
acceptable

>  <percent_hybrid>  (63) 
50.0

$$$$
LIG
     RDKit          3D

 42 44  0  0  0  0  0  0  0  0999 V2000
  -16.0784  -40.0349  -26.0700 C   0  0  1  0  0  0  0  0  0  0  0  0
  -14.7444  -39.5915  -26.0296 O   0  0  0  0  0  0  0  0  0  0  0  0
  -16.2399  -40.5611  -27.4082 N   0  0  0  0  0  0  0  0  0  0  0  0
  -14.2812  -44.7856  -20.0046 F   0  0  0  0  0  0  0  0  0  0  0  0
  -15.9328  -40.7558  -23.7002 C   0  0  0  0  0  0  0  0  0  0  0  0
  -15.3879  -42.0404  -23.0124 C   0  0  2  0  0  0  0  0  0  0  0  0
  -14.9029  -42.7976  -24.2511 C   0  0  0  0  0  0  0  0  0  0  0  0
  -15.9292  -42.4518  -25.3265 C   0  0  0  0  0  0  0  0  0  0  0  0
  -16.3534  -41.0788  -25.0780 N   0  0  0  0  0  0  0  0  0  0  0  0
  -18.1985  -38.7315  -26.6371 C   0  0  0  0  0  0  0  0  0  0  0  0
  -17.0262  -38.8504  -25.8860 C   0  0  0  0  0  0  0  0  0  0  0  0
  -16.7805  -37.8276  -24.9582 C   0  0  0  0  0  0  0  0  0  0  0  0
  -17.6656  -36.7614  -24.8386 C   0  0  0  0  0  0  0  0  0  0  0  0
  -18.7747  -36.7324  -25.6669 C   0  0  0  0  0  0  0  0  0  0  0  0
  -19.0594  -37.6828  -26.5821 N   0  0  0  0  0  0  0  0  0  0  0  0
  -14.4484  -44.0302  -21.1338 C   0  0  1  0  0  0  0  0  0  0  0  0
  -15.9137  -44.1146  -21.5597 C   0  0  0  0  0  0  0  0  0  0  0  0
  -16.4613  -42.8542  -22.2586 C   0  0  0  0  0  0  0  0  0  0  0  0
  -14.2894  -41.6368  -21.9900 C   0  0  0  0  0  0  0  0  0  0  0  0
  -14.0223  -42.6104  -20.8377 C   0  0  0  0  0  0  0  0  0  0  0  0
  -15.4030  -41.1216  -27.5550 H   0  0  0  0  0  0  0  0  0  0  0  0
  -16.1023  -39.7885  -28.0589 H   0  0  0  0  0  0  0  0  0  0  0  0
  -16.7751  -40.3384  -23.1370 H   0  0  0  0  0  0  0  0  0  0  0  0
  -15.1354  -40.0033  -23.7007 H   0  0  0  0  0  0  0  0  0  0  0  0
  -13.9272  -42.4261  -24.5721 H   0  0  0  0  0  0  0  0  0  0  0  0
  -14.8190  -43.8775  -24.1064 H   0  0  0  0  0  0  0  0  0  0  0  0
  -15.5506  -42.6602  -26.3227 H   0  0  0  0  0  0  0  0  0  0  0  0
  -16.8058  -43.1010  -25.2089 H   0  0  0  0  0  0  0  0  0  0  0  0
  -18.4920  -39.5052  -27.3441 H   0  0  0  0  0  0  0  0  0  0  0  0
  -15.9006  -37.8582  -24.3222 H   0  0  0  0  0  0  0  0  0  0  0  0
  -17.4922  -35.9685  -24.1196 H   0  0  0  0  0  0  0  0  0  0  0  0
  -19.4892  -35.9158  -25.6088 H   0  0  0  0  0  0  0  0  0  0  0  0
  -13.8043  -44.4551  -21.9104 H   0  0  0  0  0  0  0  0  0  0  0  0
  -16.0278  -44.9779  -22.2276 H   0  0  0  0  0  0  0  0  0  0  0  0
  -16.5426  -44.3389  -20.6893 H   0  0  0  0  0  0  0  0  0  0  0  0
  -17.2920  -43.1389  -22.9147 H   0  0  0  0  0  0  0  0  0  0  0  0
  -16.9058  -42.2080  -21.4889 H   0  0  0  0  0  0  0  0  0  0  0  0
  -14.5740  -40.6830  -21.5226 H   0  0  0  0  0  0  0  0  0  0  0  0
  -13.3561  -41.4133  -22.5085 H   0  0  0  0  0  0  0  0  0  0  0  0
  -14.5578  -42.2650  -19.9434 H   0  0  0  0  0  0  0  0  0  0  0  0
  -12.9611  -42.5853  -20.5625 H   0  0  0  0  0  0  0  0  0  0  0  0
  -14.7251  -38.6434  -26.2448 H   0  0  0  0  0  0  0  0  0  0  0  0
  1  2  1  1
  3  1  1  0
  6  5  1  6
  5  9  1  0
  6  7  1  0
  7  8  1  0
  8  9  1  0
  9  1  1  0
 10 15  2  0
 10 11  1  0
 11  1  1  0
 11 12  2  0
 12 13  1  0
 13 14  2  0
 14 15  1  0
 16 20  1  0
 16  4  1  0
 16 17  1  0
 17 18  1  0
 19 20  1  0
  6 18  1  0
  6 19  1  0
  3 21  1  0
  3 22  1  0
  5 23  1  0
  5 24  1  0
  7 25  1  0
  7 26  1  0
  8 27  1  0
  8 28  1  0
 10 29  1  0
 12 30  1  0
 13 31  1  0
 14 32  1  0
 16 33  1  6
 17 34  1  0
 17 35  1  0
 18 36  1  0
 18 37  1  0
 19 38  1  0
 19 39  1  0
 20 40  1  0
 20 41  1  0
  2 42  1  0
M  END
>  <smiles>  (64) 
[H]c1nc([H])c([C@@](O)(N([H])[H])N2C([H])([H])C([H])([H])[C@]3(C2([H])[H])C([H])([H])C([H])([H])[C@@]([H])(F)C([H])([H])C3([H])[H])c([H])c1[H]

>  <error>  (64) 


>  <∆∆G>  (64) 
-95.925256

>  <∆G_bound>  (64) 
34.205315

>  <∆G_unbound>  (64) 
130.130572

>  <comRMSD>  (64) 
1.041994

>  <N_constrained_atoms>  (64) 
20.0

>  <N_unconstrained_atoms>  (64) 
0.0

>  <runtime>  (64) 
1.163049

>  <regarded>  (64) 
['d0191a', 'd0612a']

>  <disregarded>  (64) 
[]

>  <LE>  (64) 
4.796263

>  <outcome>  (64) 
too moved

>  <percent_hybrid>  (64) 
40.0

$$$$
LIG
     RDKit          3D

 25 26  0  0  0  0  0  0  0  0999 V2000
  -15.4305  -40.1501  -26.2352 C   0  0  0  0  0  0  0  0  0  0  0  0
  -17.9432  -43.9887  -24.6512 F   0  0  0  0  0  0  0  0  0  0  0  0
  -19.3019  -36.0685  -25.0500 C   0  0  0  0  0  0  0  0  0  0  0  0
  -15.0870  -41.9225  -24.4714 C   0  0  0  0  0  0  0  0  0  0  0  0
  -15.7838  -43.0243  -24.0157 C   0  0  0  0  0  0  0  0  0  0  0  0
  -16.9522  -43.1001  -24.7914 C   0  0  0  0  0  0  0  0  0  0  0  0
  -16.9414  -42.0924  -25.7178 C   0  0  0  0  0  0  0  0  0  0  0  0
  -15.7978  -41.3617  -25.5062 N   0  0  0  0  0  0  0  0  0  0  0  0
  -17.3525  -38.6262  -26.8366 C   0  0  0  0  0  0  0  0  0  0  0  0
  -16.3928  -39.0403  -25.9183 C   0  0  0  0  0  0  0  0  0  0  0  0
  -16.3949  -38.4241  -24.6656 C   0  0  0  0  0  0  0  0  0  0  0  0
  -17.3384  -37.4456  -24.3814 C   0  0  0  0  0  0  0  0  0  0  0  0
  -18.2704  -37.1092  -25.3579 C   0  0  0  0  0  0  0  0  0  0  0  0
  -18.2955  -37.6844  -26.5867 N   0  0  0  0  0  0  0  0  0  0  0  0
  -14.4096  -39.8688  -25.9576 H   0  0  0  0  0  0  0  0  0  0  0  0
  -15.4331  -40.4049  -27.3011 H   0  0  0  0  0  0  0  0  0  0  0  0
  -19.9023  -36.3711  -24.1864 H   0  0  0  0  0  0  0  0  0  0  0  0
  -18.8208  -35.1089  -24.8366 H   0  0  0  0  0  0  0  0  0  0  0  0
  -19.9773  -35.9288  -25.9001 H   0  0  0  0  0  0  0  0  0  0  0  0
  -14.1513  -41.4951  -24.1399 H   0  0  0  0  0  0  0  0  0  0  0  0
  -15.4865  -43.6778  -23.2068 H   0  0  0  0  0  0  0  0  0  0  0  0
  -17.6645  -41.8123  -26.4679 H   0  0  0  0  0  0  0  0  0  0  0  0
  -17.4007  -39.0607  -27.8321 H   0  0  0  0  0  0  0  0  0  0  0  0
  -15.6747  -38.7142  -23.9046 H   0  0  0  0  0  0  0  0  0  0  0  0
  -17.3522  -36.9649  -23.4083 H   0  0  0  0  0  0  0  0  0  0  0  0
  4  5  2  0
  4  8  1  0
  5  6  1  0
  6  7  2  0
  7  8  1  0
  8  1  1  0
  9 14  2  0
  9 10  1  0
 10  1  1  0
 10 11  2  0
 11 12  1  0
 12 13  2  0
 13 14  1  0
  2  6  1  0
  3 13  1  0
  1 15  1  0
  1 16  1  0
  3 17  1  0
  3 18  1  0
  3 19  1  0
  4 20  1  0
  5 21  1  0
  7 22  1  0
  9 23  1  0
 11 24  1  0
 12 25  1  0
M  END
>  <smiles>  (65) 
[H]c1nc(C([H])([H])[H])c([H])c([H])c1C([H])([H])n1c([H])c([H])c(F)c1[H]

>  <error>  (65) 


>  <∆∆G>  (65) 
-17.992696

>  <∆G_bound>  (65) 
381.527937

>  <∆G_unbound>  (65) 
399.520633

>  <comRMSD>  (65) 
0.496322

>  <N_constrained_atoms>  (65) 
14.0

>  <N_unconstrained_atoms>  (65) 
0.0

>  <runtime>  (65) 
0.663648

>  <regarded>  (65) 
['d0191a', 'd0615b']

>  <disregarded>  (65) 
[]

>  <LE>  (65) 
1.285193

>  <outcome>  (65) 
equally sized

>  <percent_hybrid>  (65) 
15.0

$$$$

     RDKit          2D

  0  0  0  0  0  0  0  0  0  0999 V2000
M  END
>  <smiles>  (66) 
nan

>  <error>  (66) 
FragmensteinError Ideal compound failed. Something is wrong with the SMILES

>  <∆∆G>  (66) 
nan

>  <∆G_bound>  (66) 
nan

>  <∆G_unbound>  (66) 
nan

>  <comRMSD>  (66) 
nan

>  <N_constrained_atoms>  (66) 
nan

>  <N_unconstrained_atoms>  (66) 
nan

>  <runtime>  (66) 
nan

>  <regarded>  (66) 
[]

>  <disregarded>  (66) 
[]

>  <LE>  (66) 
nan

>  <outcome>  (66) 
crashed

>  <percent_hybrid>  (66) 
nan

$$$$

     RDKit          2D

  0  0  0  0  0  0  0  0  0  0999 V2000
M  END
>  <smiles>  (67) 
nan

>  <error>  (67) 
ValueError No idea what this S SP3D2 is

>  <∆∆G>  (67) 
nan

>  <∆G_bound>  (67) 
nan

>  <∆G_unbound>  (67) 
nan

>  <comRMSD>  (67) 
nan

>  <N_constrained_atoms>  (67) 
nan

>  <N_unconstrained_atoms>  (67) 
nan

>  <runtime>  (67) 
nan

>  <regarded>  (67) 
[]

>  <disregarded>  (67) 
[]

>  <LE>  (67) 
nan

>  <outcome>  (67) 
crashed

>  <percent_hybrid>  (67) 
nan

$$$$
LIG
     RDKit          3D

  0  0  0  0  0  0  0  0  0  0999 V3000
M  V30 BEGIN CTAB
M  V30 COUNTS 57 61 0 0 0
M  V30 BEGIN ATOM
M  V30 1 C -15.248000 -40.036999 -26.167000 0
M  V30 2 C -14.724000 -41.629002 -24.274000 0
M  V30 3 C -15.198000 -42.825001 -23.830999 0
M  V30 4 C -16.190001 -43.247002 -24.733000 0
M  V30 5 C -16.294001 -42.299000 -25.702000 0
M  V30 6 N -15.398000 -41.293999 -25.423000 0
M  V30 7 C -17.406000 -38.859001 -26.754000 0
M  V30 8 C -16.355000 -39.054001 -25.875000 0
M  V30 9 C -16.341000 -38.275002 -24.731001 0
M  V30 10 C -17.327999 -37.328999 -24.525999 0
M  V30 11 C -18.322001 -37.206001 -25.469999 0
M  V30 12 N -18.382999 -37.960999 -26.572001 0
M  V30 13 O -11.370000 -32.450001 -20.969999 0
M  V30 14 C -11.950000 -33.465000 -20.601000 0
M  V30 15 C -13.292000 -33.436001 -19.997999 0
M  V30 16 C -13.877000 -34.640999 -19.552999 0
M  V30 17 N -13.139000 -35.812000 -19.618000 0
M  V30 18 C -12.110000 -35.952000 -20.645000 0 CFG=1
M  V30 19 N -11.382000 -34.679001 -20.705000 0
M  V30 20 C -13.994000 -32.241001 -19.871000 0
M  V30 21 C -15.168000 -34.624001 -19.025000 0
M  V30 22 C -15.853000 -33.424000 -18.921000 0
M  V30 23 C -15.268000 -32.243000 -19.333000 0
M  V30 24 C -11.190000 -37.138000 -20.316999 0
M  V30 25 C -11.152000 -37.980999 -21.587999 0
M  V30 26 C -12.451000 -37.754002 -22.233000 0 CFG=1
M  V30 27 C -12.749000 -36.279999 -22.002001 0
M  V30 28 N -15.368500 -38.144753 -24.106501 0
M  V30 29 C -14.396000 -38.014503 -23.482000 0
M  V30 30 C -13.423500 -37.884251 -22.857500 0
M  V30 31 H -14.287182 -39.577408 -25.892035 0
M  V30 32 H -15.290560 -40.277637 -27.239511 0
M  V30 33 H -13.935004 -41.031788 -23.793562 0
M  V30 34 H -14.865563 -43.363384 -22.931206 0
M  V30 35 H -16.775831 -44.175674 -24.666897 0
M  V30 36 H -16.978371 -42.330608 -26.562603 0
M  V30 37 H -17.441278 -39.481430 -27.660278 0
M  V30 38 H -17.319143 -36.690296 -23.630466 0
M  V30 39 H -19.104530 -36.449635 -25.310135 0
M  V30 40 H -13.314224 -36.575504 -18.949228 0
M  V30 41 H -10.361188 -34.718678 -20.836409 0
M  V30 42 H -13.535987 -31.295929 -20.198202 0
M  V30 43 H -15.640623 -35.559937 -18.692352 0
M  V30 44 H -16.871866 -33.412075 -18.506548 0
M  V30 45 H -15.819530 -31.296577 -19.232512 0
M  V30 46 H -10.669828 -37.336834 -19.368376 0
M  V30 47 H -12.057853 -37.712925 -19.961624 0
M  V30 48 H -10.330162 -38.619820 -21.943655 0
M  V30 49 H -11.575160 -38.832932 -21.035601 0
M  V30 50 H -12.962158 -38.004837 -21.291830 0
M  V30 51 H -13.302277 -35.597340 -22.663710 0
M  V30 52 H -11.810613 -36.010841 -22.508938 0
M  V30 53 H -14.348499 -37.124752 -23.086500 0
M  V30 54 H -13.366000 -36.984501 -22.452000 0
M  V30 55 H -13.356000 -36.974503 -22.441999 0
M  V30 56 H -12.373500 -36.834251 -21.807501 0
M  V30 57 H -12.363500 -36.824253 -21.797501 0
M  V30 END ATOM
M  V30 BEGIN BOND
M  V30 1 2 2 3
M  V30 2 1 2 6
M  V30 3 1 3 4
M  V30 4 2 4 5
M  V30 5 1 5 6
M  V30 6 1 6 1
M  V30 7 2 7 12
M  V30 8 1 7 8
M  V30 9 1 8 1
M  V30 10 2 8 9
M  V30 11 1 9 10
M  V30 12 2 10 11
M  V30 13 1 11 12
M  V30 14 2 14 13
M  V30 15 1 14 19
M  V30 16 1 14 15
M  V30 17 2 15 20
M  V30 18 1 15 16
M  V30 19 1 16 17
M  V30 20 2 16 21
M  V30 21 1 18 17 CFG=1
M  V30 22 1 18 19
M  V30 23 1 18 27
M  V30 24 1 18 24
M  V30 25 1 20 23
M  V30 26 1 21 22
M  V30 27 2 22 23
M  V30 28 1 24 25
M  V30 29 1 25 26
M  V30 30 1 26 27
M  V30 31 1 28 9
M  V30 32 1 29 28
M  V30 33 1 30 29
M  V30 34 1 30 26
M  V30 35 1 1 31
M  V30 36 1 1 32
M  V30 37 1 2 33
M  V30 38 1 3 34
M  V30 39 1 4 35
M  V30 40 1 5 36
M  V30 41 1 7 37
M  V30 42 1 10 38
M  V30 43 1 11 39
M  V30 44 1 17 40
M  V30 45 1 19 41
M  V30 46 1 20 42
M  V30 47 1 21 43
M  V30 48 1 22 44
M  V30 49 1 23 45
M  V30 50 1 24 46
M  V30 51 1 24 47
M  V30 52 1 25 48
M  V30 53 1 25 49
M  V30 54 1 26 50 CFG=1
M  V30 55 1 27 51
M  V30 56 1 27 52
M  V30 57 1 28 53
M  V30 58 1 29 54
M  V30 59 1 29 55
M  V30 60 1 30 56
M  V30 61 1 30 57
M  V30 END BOND
M  V30 BEGIN COLLECTION
M  V30 MDLV30/STEABS ATOMS=(0)
M  V30 END COLLECTION
M  V30 END CTAB
M  END
>  <smiles>  (68) 
[H]c1nc([H])c(C([H])([H])n2c([H])c([H])c([H])c2[H])c(N([H])C([H])([H])C([H])([H])[C@@]2([H])C([H])([H])C([H])([H])[C@@]3(N([H])C(=O)c4c([H])c([H])c([H])c([H])c4N3[H])C2([H])[H])c1[H]

>  <error>  (68) 


>  <∆∆G>  (68) 
nan

>  <∆G_bound>  (68) 
nan

>  <∆G_unbound>  (68) 
nan

>  <comRMSD>  (68) 
0.0

>  <N_constrained_atoms>  (68) 
27.0

>  <N_unconstrained_atoms>  (68) 
3.0

>  <runtime>  (68) 
1.79897

>  <regarded>  (68) 
['d0191a', 'd1196a']

>  <disregarded>  (68) 
[]

>  <LE>  (68) 
nan

>  <outcome>  (68) 
crashed

>  <percent_hybrid>  (68) 
45.0

$$$$

     RDKit          2D

  0  0  0  0  0  0  0  0  0  0999 V2000
M  END
>  <smiles>  (69) 
nan

>  <error>  (69) 
DistanceError 5.13 Å

>  <∆∆G>  (69) 
nan

>  <∆G_bound>  (69) 
nan

>  <∆G_unbound>  (69) 
nan

>  <comRMSD>  (69) 
nan

>  <N_constrained_atoms>  (69) 
nan

>  <N_unconstrained_atoms>  (69) 
nan

>  <runtime>  (69) 
nan

>  <regarded>  (69) 
[]

>  <disregarded>  (69) 
[]

>  <LE>  (69) 
nan

>  <outcome>  (69) 
too distant

>  <percent_hybrid>  (69) 
nan

$$$$
LIG
     RDKit          3D

  0  0  0  0  0  0  0  0  0  0999 V3000
M  V30 BEGIN CTAB
M  V30 COUNTS 42 44 0 0 0
M  V30 BEGIN ATOM
M  V30 1 C -15.248000 -40.036999 -26.167000 0
M  V30 2 C -14.724000 -41.629002 -24.274000 0
M  V30 3 C -15.198000 -42.825001 -23.830999 0
M  V30 4 C -16.190001 -43.247002 -24.733000 0
M  V30 5 C -16.294001 -42.299000 -25.702000 0
M  V30 6 N -15.398000 -41.293999 -25.423000 0
M  V30 7 C -17.406000 -38.859001 -26.754000 0
M  V30 8 C -16.355000 -39.054001 -25.875000 0
M  V30 9 C -16.341000 -38.275002 -24.731001 0
M  V30 10 C -17.327999 -37.328999 -24.525999 0
M  V30 11 C -18.322001 -37.206001 -25.469999 0
M  V30 12 N -18.382999 -37.960999 -26.572001 0
M  V30 13 N -13.266000 -42.196999 -21.974001 0
M  V30 14 C -12.944000 -41.021999 -21.833000 0
M  V30 15 C -11.629000 -40.624001 -21.225000 0
M  V30 16 N -13.726000 -40.034000 -22.247999 0
M  V30 17 C -13.348000 -39.222000 -23.382000 0
M  V30 18 C -12.966000 -37.907001 -22.924999 0
M  V30 19 N -11.741000 -37.458000 -22.879000 0
M  V30 20 C -11.837000 -36.210999 -22.299000 0
M  V30 21 C -13.101000 -35.942001 -22.018000 0
M  V30 22 N -13.818000 -37.035000 -22.421000 0
M  V30 23 N -14.232000 -42.511002 -22.902500 0
M  V30 24 H -14.287182 -39.577408 -25.892035 0
M  V30 25 H -15.290560 -40.277637 -27.239511 0
M  V30 26 H -13.935004 -41.031788 -23.793562 0
M  V30 27 H -16.775831 -44.175674 -24.666897 0
M  V30 28 H -16.978371 -42.330608 -26.562603 0
M  V30 29 H -17.441278 -39.481430 -27.660278 0
M  V30 30 H -15.544135 -38.408703 -23.984589 0
M  V30 31 H -17.319143 -36.690296 -23.630466 0
M  V30 32 H -19.104530 -36.449635 -25.310135 0
M  V30 33 H -11.709771 -40.648445 -20.128242 0
M  V30 34 H -10.847049 -41.325714 -21.550806 0
M  V30 35 H -11.367404 -39.606445 -21.550806 0
M  V30 36 H -14.611291 -39.843807 -21.757097 0
M  V30 37 H -12.499456 -39.690483 -23.902094 0
M  V30 38 H -14.199591 -39.137444 -24.073118 0
M  V30 39 H -10.988646 -35.539764 -22.099646 0
M  V30 40 H -13.495500 -35.025738 -21.554501 0
M  V30 41 H -13.332000 -41.611000 -22.002501 0
M  V30 42 H -10.887267 -37.932812 -23.205488 0
M  V30 END ATOM
M  V30 BEGIN BOND
M  V30 1 2 2 3
M  V30 2 1 2 6
M  V30 3 1 3 4
M  V30 4 2 4 5
M  V30 5 1 5 6
M  V30 6 1 6 1
M  V30 7 2 7 12
M  V30 8 1 7 8
M  V30 9 1 8 1
M  V30 10 2 8 9
M  V30 11 1 9 10
M  V30 12 2 10 11
M  V30 13 1 11 12
M  V30 14 1 15 14
M  V30 15 2 14 13
M  V30 16 1 16 14
M  V30 17 1 17 16
M  V30 18 1 18 17
M  V30 19 1 18 19
M  V30 20 2 18 22
M  V30 21 1 19 20
M  V30 22 2 20 21
M  V30 23 1 21 22
M  V30 24 1 23 3
M  V30 25 1 23 13
M  V30 26 1 1 24
M  V30 27 1 1 25
M  V30 28 1 2 26
M  V30 29 1 4 27
M  V30 30 1 5 28
M  V30 31 1 7 29
M  V30 32 1 9 30
M  V30 33 1 10 31
M  V30 34 1 11 32
M  V30 35 1 15 33
M  V30 36 1 15 34
M  V30 37 1 15 35
M  V30 38 1 16 36
M  V30 39 1 17 37
M  V30 40 1 17 38
M  V30 41 1 20 39
M  V30 42 1 21 40
M  V30 43 1 23 41
M  V30 44 1 19 42
M  V30 END BOND
M  V30 BEGIN COLLECTION
M  V30 MDLV30/STEABS ATOMS=(0)
M  V30 END COLLECTION
M  V30 END CTAB
M  END
>  <smiles>  (70) 
[H]c1nc(C([H])([H])N([H])/C(=N\N([H])c2c([H])c([H])n(C([H])([H])c3c([H])nc([H])c([H])c3[H])c2[H])C([H])([H])[H])[nH]c1[H]

>  <error>  (70) 


>  <∆∆G>  (70) 
nan

>  <∆G_bound>  (70) 
nan

>  <∆G_unbound>  (70) 
nan

>  <comRMSD>  (70) 
0.0

>  <N_constrained_atoms>  (70) 
22.0

>  <N_unconstrained_atoms>  (70) 
1.0

>  <runtime>  (70) 
1.131671

>  <regarded>  (70) 
['d0191a', 'z0103a']

>  <disregarded>  (70) 
[]

>  <LE>  (70) 
nan

>  <outcome>  (70) 
crashed

>  <percent_hybrid>  (70) 
46.0

$$$$

     RDKit          2D

  0  0  0  0  0  0  0  0  0  0999 V2000
M  END
>  <smiles>  (71) 
nan

>  <error>  (71) 
DistanceError 7.52 Å

>  <∆∆G>  (71) 
nan

>  <∆G_bound>  (71) 
nan

>  <∆G_unbound>  (71) 
nan

>  <comRMSD>  (71) 
nan

>  <N_constrained_atoms>  (71) 
nan

>  <N_unconstrained_atoms>  (71) 
nan

>  <runtime>  (71) 
nan

>  <regarded>  (71) 
[]

>  <disregarded>  (71) 
[]

>  <LE>  (71) 
nan

>  <outcome>  (71) 
too distant

>  <percent_hybrid>  (71) 
nan

$$$$

     RDKit          2D

  0  0  0  0  0  0  0  0  0  0999 V2000
M  END
>  <smiles>  (72) 
nan

>  <error>  (72) 
RecursionError maximum recursion depth exceeded while calling a Python object

>  <∆∆G>  (72) 
nan

>  <∆G_bound>  (72) 
nan

>  <∆G_unbound>  (72) 
nan

>  <comRMSD>  (72) 
nan

>  <N_constrained_atoms>  (72) 
nan

>  <N_unconstrained_atoms>  (72) 
nan

>  <runtime>  (72) 
nan

>  <regarded>  (72) 
[]

>  <disregarded>  (72) 
[]

>  <LE>  (72) 
nan

>  <outcome>  (72) 
crashed

>  <percent_hybrid>  (72) 
nan

$$$$
LIG
     RDKit          3D

  0  0  0  0  0  0  0  0  0  0999 V3000
M  V30 BEGIN CTAB
M  V30 COUNTS 32 34 0 0 0
M  V30 BEGIN ATOM
M  V30 1 C -15.248000 -40.036999 -26.167000 0
M  V30 2 C -14.724000 -41.629002 -24.274000 0
M  V30 3 C -15.198000 -42.825001 -23.830999 0
M  V30 4 C -16.190001 -43.247002 -24.733000 0
M  V30 5 C -16.294001 -42.299000 -25.702000 0
M  V30 6 N -15.398000 -41.293999 -25.423000 0
M  V30 7 C -17.406000 -38.859001 -26.754000 0
M  V30 8 C -16.355000 -39.054001 -25.875000 0
M  V30 9 C -16.341000 -38.275002 -24.731001 0
M  V30 10 C -17.327999 -37.328999 -24.525999 0
M  V30 11 C -18.322001 -37.206001 -25.469999 0
M  V30 12 N -18.382999 -37.960999 -26.572001 0
M  V30 13 N -13.297000 -44.498001 -20.850000 0
M  V30 14 C -12.948000 -43.432999 -21.100000 0
M  V30 15 C -12.567000 -42.085999 -21.440001 0
M  V30 16 C -13.246000 -41.202000 -22.230000 0
M  V30 17 N -12.548000 -40.040001 -22.191999 0
M  V30 18 C -11.474000 -40.242001 -21.403000 0
M  V30 19 N -11.428000 -41.477001 -20.927000 0
M  V30 20 N -13.985001 -41.415501 -23.251999 0
M  V30 21 H -14.287182 -39.577408 -25.892035 0
M  V30 22 H -15.290560 -40.277637 -27.239511 0
M  V30 23 H -14.865563 -43.363384 -22.931206 0
M  V30 24 H -16.775831 -44.175674 -24.666897 0
M  V30 25 H -16.978371 -42.330608 -26.562603 0
M  V30 26 H -17.441278 -39.481430 -27.660278 0
M  V30 27 H -15.544135 -38.408703 -23.984589 0
M  V30 28 H -17.319143 -36.690296 -23.630466 0
M  V30 29 H -19.104530 -36.449635 -25.310135 0
M  V30 30 H -10.722527 -39.470219 -21.180201 0
M  V30 31 H -13.185000 -40.615501 -22.452000 0
M  V30 32 H -12.793221 -39.164780 -22.676517 0
M  V30 END ATOM
M  V30 BEGIN BOND
M  V30 1 2 2 3
M  V30 2 1 2 6
M  V30 3 1 3 4
M  V30 4 2 4 5
M  V30 5 1 5 6
M  V30 6 1 6 1
M  V30 7 2 7 12
M  V30 8 1 7 8
M  V30 9 1 8 1
M  V30 10 2 8 9
M  V30 11 1 9 10
M  V30 12 2 10 11
M  V30 13 1 11 12
M  V30 14 3 14 13
M  V30 15 1 15 14
M  V30 16 2 15 16
M  V30 17 1 15 19
M  V30 18 1 16 17
M  V30 19 1 17 18
M  V30 20 2 18 19
M  V30 21 1 20 2
M  V30 22 1 20 16
M  V30 23 1 1 21
M  V30 24 1 1 22
M  V30 25 1 3 23
M  V30 26 1 4 24
M  V30 27 1 5 25
M  V30 28 1 7 26
M  V30 29 1 9 27
M  V30 30 1 10 28
M  V30 31 1 11 29
M  V30 32 1 18 30
M  V30 33 1 20 31
M  V30 34 1 17 32
M  V30 END BOND
M  V30 BEGIN COLLECTION
M  V30 MDLV30/STEABS ATOMS=(0)
M  V30 END COLLECTION
M  V30 END CTAB
M  END
>  <smiles>  (73) 
[H]c1nc(C#N)c(N([H])c2c([H])c([H])c([H])n2C([H])([H])c2c([H])nc([H])c([H])c2[H])[nH]1

>  <error>  (73) 


>  <∆∆G>  (73) 
nan

>  <∆G_bound>  (73) 
nan

>  <∆G_unbound>  (73) 
nan

>  <comRMSD>  (73) 
0.0

>  <N_constrained_atoms>  (73) 
19.0

>  <N_unconstrained_atoms>  (73) 
1.0

>  <runtime>  (73) 
0.893932

>  <regarded>  (73) 
['d0191a', 'z0875c']

>  <disregarded>  (73) 
[]

>  <LE>  (73) 
nan

>  <outcome>  (73) 
crashed

>  <percent_hybrid>  (73) 
37.0

$$$$
LIG
     RDKit          3D

 71 75  0  0  0  0  0  0  0  0999 V2000
  -15.6515  -39.2293  -25.4505 C   0  0  0  0  0  0  0  0  0  0  0  0
  -13.2229  -41.9899  -18.9518 O   0  0  0  0  0  0  0  0  0  0  0  0
  -15.6253  -43.4321  -14.4357 O   0  0  0  0  0  0  0  0  0  0  0  0
  -13.7246  -37.7402  -16.2518 O   0  0  0  0  0  0  0  0  0  0  0  0
  -19.6510  -45.7176  -24.6331 C   0  0  0  0  0  0  0  0  0  0  0  0
  -20.3157  -45.9666  -25.6034 C   0  0  0  0  0  0  0  0  0  0  0  0
  -21.0544  -46.3674  -26.7995 C   0  0  0  0  0  0  0  0  0  0  0  0
  -14.1758  -44.2952  -17.1272 O   0  0  0  0  0  0  0  0  0  0  0  0
  -14.9876  -43.5118  -17.5311 C   0  0  0  0  0  0  0  0  0  0  0  0
  -15.8781  -42.6129  -16.8139 N   0  0  0  0  0  0  0  0  0  0  0  0
  -16.0080  -42.2783  -15.2124 S   0  0  0  0  0  0  0  0  0  0  0  0
  -17.2576  -41.5730  -15.0301 O   0  0  0  0  0  0  0  0  0  0  0  0
  -14.7594  -37.4639  -17.1870 C   0  0  0  0  0  0  0  0  0  0  0  0
  -12.1205  -41.4085  -19.6389 C   0  0  0  0  0  0  0  0  0  0  0  0
  -15.1276  -43.5239  -23.1252 O   0  0  0  0  0  0  0  0  0  0  0  0
  -22.1835  -45.5306  -26.9891 O   0  0  0  0  0  0  0  0  0  0  0  0
  -15.3497  -41.1895  -23.8868 C   0  0  0  0  0  0  0  0  0  0  0  0
  -15.4453  -42.5572  -24.0140 C   0  0  0  0  0  0  0  0  0  0  0  0
  -15.9317  -42.8336  -25.3088 C   0  0  0  0  0  0  0  0  0  0  0  0
  -16.0922  -41.6364  -25.9623 C   0  0  0  0  0  0  0  0  0  0  0  0
  -15.7246  -40.6407  -25.0948 N   0  0  0  0  0  0  0  0  0  0  0  0
  -17.6427  -38.4491  -26.7993 C   0  0  0  0  0  0  0  0  0  0  0  0
  -17.0168  -38.6115  -25.5645 C   0  0  0  0  0  0  0  0  0  0  0  0
  -17.7173  -38.1902  -24.4313 C   0  0  0  0  0  0  0  0  0  0  0  0
  -18.9814  -37.6273  -24.5711 C   0  0  0  0  0  0  0  0  0  0  0  0
  -19.5129  -37.5084  -25.8449 C   0  0  0  0  0  0  0  0  0  0  0  0
  -18.8756  -37.9037  -26.9696 N   0  0  0  0  0  0  0  0  0  0  0  0
  -15.2194  -43.3444  -21.7637 C   0  0  0  0  0  0  0  0  0  0  0  0
  -14.1918  -42.6662  -21.0985 C   0  0  0  0  0  0  0  0  0  0  0  0
  -14.1523  -42.6531  -19.7049 C   0  0  0  0  0  0  0  0  0  0  0  0
  -15.1356  -43.3595  -18.9952 C   0  0  0  0  0  0  0  0  0  0  0  0
  -16.1728  -44.0354  -19.6505 C   0  0  0  0  0  0  0  0  0  0  0  0
  -16.2299  -44.0247  -21.0501 C   0  0  0  0  0  0  0  0  0  0  0  0
  -12.7208  -39.1922  -14.7288 C   0  0  0  0  0  0  0  0  0  0  0  0
  -12.6512  -40.3843  -14.0042 C   0  0  0  0  0  0  0  0  0  0  0  0
  -13.6528  -41.3384  -14.1466 C   0  0  0  0  0  0  0  0  0  0  0  0
  -14.7195  -41.0786  -15.0089 C   0  0  0  0  0  0  0  0  0  0  0  0
  -14.8041  -39.8790  -15.7242 C   0  0  0  0  0  0  0  0  0  0  0  0
  -13.7898  -38.9365  -15.5944 C   0  0  0  0  0  0  0  0  0  0  0  0
  -17.5556  -46.1493  -21.6193 C   0  0  0  0  0  0  0  0  0  0  0  0
  -18.4736  -46.5812  -22.6206 C   0  0  0  0  0  0  0  0  0  0  0  0
  -18.8592  -45.5522  -23.4548 C   0  0  0  0  0  0  0  0  0  0  0  0
  -18.3077  -44.0521  -22.8774 S   0  0  0  0  0  0  0  0  0  0  0  0
  -17.2606  -44.8057  -21.7413 C   0  0  0  0  0  0  0  0  0  0  0  0
  -15.0692  -38.7224  -24.6742 H   0  0  0  0  0  0  0  0  0  0  0  0
  -15.0929  -39.1560  -26.3906 H   0  0  0  0  0  0  0  0  0  0  0  0
  -21.3746  -47.4124  -26.7626 H   0  0  0  0  0  0  0  0  0  0  0  0
  -20.4102  -46.2521  -27.6696 H   0  0  0  0  0  0  0  0  0  0  0  0
  -16.4915  -42.1517  -17.4787 H   0  0  0  0  0  0  0  0  0  0  0  0
  -15.7316  -37.3893  -16.6889 H   0  0  0  0  0  0  0  0  0  0  0  0
  -14.5456  -36.4929  -17.6441 H   0  0  0  0  0  0  0  0  0  0  0  0
  -14.7798  -38.2106  -17.9880 H   0  0  0  0  0  0  0  0  0  0  0  0
  -11.4271  -41.0170  -18.8887 H   0  0  0  0  0  0  0  0  0  0  0  0
  -11.5870  -42.1503  -20.2389 H   0  0  0  0  0  0  0  0  0  0  0  0
  -12.4508  -40.5691  -20.2595 H   0  0  0  0  0  0  0  0  0  0  0  0
  -22.9488  -46.0231  -26.6182 H   0  0  0  0  0  0  0  0  0  0  0  0
  -15.0158  -40.5652  -23.0711 H   0  0  0  0  0  0  0  0  0  0  0  0
  -16.1188  -43.8094  -25.7250 H   0  0  0  0  0  0  0  0  0  0  0  0
  -16.4045  -41.4202  -26.9744 H   0  0  0  0  0  0  0  0  0  0  0  0
  -17.1541  -38.7599  -27.7210 H   0  0  0  0  0  0  0  0  0  0  0  0
  -17.2870  -38.3036  -23.4392 H   0  0  0  0  0  0  0  0  0  0  0  0
  -19.5437  -37.2957  -23.7048 H   0  0  0  0  0  0  0  0  0  0  0  0
  -20.5008  -37.0811  -25.9943 H   0  0  0  0  0  0  0  0  0  0  0  0
  -13.4135  -42.2055  -21.6973 H   0  0  0  0  0  0  0  0  0  0  0  0
  -16.9048  -44.5981  -19.0759 H   0  0  0  0  0  0  0  0  0  0  0  0
  -11.9302  -38.4528  -14.6199 H   0  0  0  0  0  0  0  0  0  0  0  0
  -11.8126  -40.5675  -13.3371 H   0  0  0  0  0  0  0  0  0  0  0  0
  -13.5945  -42.2710  -13.5899 H   0  0  0  0  0  0  0  0  0  0  0  0
  -15.6626  -39.7089  -16.3637 H   0  0  0  0  0  0  0  0  0  0  0  0
  -17.0678  -46.8192  -20.9211 H   0  0  0  0  0  0  0  0  0  0  0  0
  -18.7768  -47.6132  -22.7603 H   0  0  0  0  0  0  0  0  0  0  0  0
  7 16  1  0
  7  6  1  0
  6  5  3  0
 10  9  1  0
 10 11  1  0
  9  8  2  0
  3 11  2  0
 12 11  2  0
  2 14  1  0
 13  4  1  0
 17 18  2  0
 17 21  1  0
 18 19  1  0
 19 20  2  0
 20 21  1  0
 21  1  1  0
 22 27  2  0
 22 23  1  0
 23  1  1  0
 23 24  2  0
 24 25  1  0
 25 26  2  0
 26 27  1  0
 28 33  1  0
 28 15  1  0
 28 29  2  0
 29 30  1  0
 30 31  2  0
 30  2  1  0
 31 32  1  0
 31  9  1  0
 32 33  2  0
 33 44  1  0
 34 39  2  0
 34 35  1  0
 35 36  2  0
 36 37  1  0
 37 11  1  0
 37 38  2  0
 38 39  1  0
 39  4  1  0
 40 41  1  0
 40 44  2  0
 41 42  2  0
 42  5  1  0
 42 43  1  0
 43 44  1  0
 18 15  1  0
  1 45  1  0
  1 46  1  0
  7 47  1  0
  7 48  1  0
 10 49  1  0
 13 50  1  0
 13 51  1  0
 13 52  1  0
 14 53  1  0
 14 54  1  0
 14 55  1  0
 16 56  1  0
 17 57  1  0
 19 58  1  0
 20 59  1  0
 22 60  1  0
 24 61  1  0
 25 62  1  0
 26 63  1  0
 29 64  1  0
 32 65  1  0
 34 66  1  0
 35 67  1  0
 36 68  1  0
 38 69  1  0
 40 70  1  0
 41 71  1  0
M  END
>  <smiles>  (74) 
[H]OC([H])([H])C#Cc1sc(-c2c([H])c(C(=O)N([H])S(=O)(=O)c3c([H])c([H])c([H])c(OC([H])([H])[H])c3[H])c(OC([H])([H])[H])c([H])c2Oc2c([H])c([H])n(C([H])([H])c3c([H])nc([H])c([H])c3[H])c2[H])c([H])c1[H]

>  <error>  (74) 


>  <∆∆G>  (74) 
-106.327933

>  <∆G_bound>  (74) 
204.836331

>  <∆G_unbound>  (74) 
311.164264

>  <comRMSD>  (74) 
1.052325

>  <N_constrained_atoms>  (74) 
44.0

>  <N_unconstrained_atoms>  (74) 
0.0

>  <runtime>  (74) 
8.870704

>  <regarded>  (74) 
['d0191a', '5i3p-a']

>  <disregarded>  (74) 
[]

>  <LE>  (74) 
2.416544

>  <outcome>  (74) 
too moved

>  <percent_hybrid>  (74) 
28.0

$$$$
LIG
     RDKit          3D

 54 57  0  0  0  0  0  0  0  0999 V2000
  -15.5321  -39.7423  -26.3787 C   0  0  0  0  0  0  0  0  0  0  0  0
  -14.8959  -40.8980  -24.2512 C   0  0  0  0  0  0  0  0  0  0  0  0
  -14.9100  -42.1938  -23.8166 C   0  0  0  0  0  0  0  0  0  0  0  0
  -15.6694  -42.9564  -24.7280 C   0  0  0  0  0  0  0  0  0  0  0  0
  -16.0827  -42.1036  -25.7279 C   0  0  0  0  0  0  0  0  0  0  0  0
  -15.5452  -40.8698  -25.4601 N   0  0  0  0  0  0  0  0  0  0  0  0
  -17.7304  -38.7175  -27.0417 C   0  0  0  0  0  0  0  0  0  0  0  0
  -16.6861  -38.8172  -26.1283 C   0  0  0  0  0  0  0  0  0  0  0  0
  -16.7594  -38.0198  -24.9826 C   0  0  0  0  0  0  0  0  0  0  0  0
  -17.8507  -37.1803  -24.7939 C   0  0  0  0  0  0  0  0  0  0  0  0
  -18.8379  -37.1601  -25.7656 C   0  0  0  0  0  0  0  0  0  0  0  0
  -18.8067  -37.9043  -26.8953 N   0  0  0  0  0  0  0  0  0  0  0  0
  -11.2267  -41.7036  -20.3120 O   0  0  0  0  0  0  0  0  0  0  0  0
  -12.2319  -42.1354  -18.3828 O   0  0  0  0  0  0  0  0  0  0  0  0
  -12.2661  -42.1975  -19.6011 C   0  0  0  0  0  0  0  0  0  0  0  0
  -13.3038  -42.8656  -20.4868 C   0  0  1  0  0  0  0  0  0  0  0  0
  -17.9784  -45.2593  -18.2472 O   0  0  0  0  0  0  0  0  0  0  0  0
  -16.8669  -44.6966  -18.8107 C   0  0  0  0  0  0  0  0  0  0  0  0
  -16.0666  -43.9076  -17.9876 C   0  0  0  0  0  0  0  0  0  0  0  0
  -14.9199  -43.2871  -18.4931 C   0  0  0  0  0  0  0  0  0  0  0  0
  -14.5162  -43.5093  -19.8087 C   0  0  0  0  0  0  0  0  0  0  0  0
  -15.3230  -44.3542  -20.5920 C   0  0  0  0  0  0  0  0  0  0  0  0
  -16.5390  -44.8826  -20.1495 C   0  0  0  0  0  0  0  0  0  0  0  0
  -18.4041  -47.5014  -22.0944 C   0  0  0  0  0  0  0  0  0  0  0  0
  -17.6934  -46.8934  -21.0669 C   0  0  0  0  0  0  0  0  0  0  0  0
  -17.3945  -45.5341  -21.1404 C   0  0  0  0  0  0  0  0  0  0  0  0
  -17.8680  -44.7906  -22.2392 C   0  0  0  0  0  0  0  0  0  0  0  0
  -18.5638  -45.4040  -23.2732 C   0  0  0  0  0  0  0  0  0  0  0  0
  -18.7894  -46.7721  -23.2164 C   0  0  0  0  0  0  0  0  0  0  0  0
  -14.2559  -42.7017  -22.7618 N   0  0  0  0  0  0  0  0  0  0  0  0
  -13.7502  -41.9161  -21.6282 C   0  0  0  0  0  0  0  0  0  0  0  0
  -14.5769  -39.2211  -26.2648 H   0  0  0  0  0  0  0  0  0  0  0  0
  -15.5561  -40.1495  -27.3965 H   0  0  0  0  0  0  0  0  0  0  0  0
  -14.3980  -40.0220  -23.8619 H   0  0  0  0  0  0  0  0  0  0  0  0
  -15.8637  -44.0173  -24.6786 H   0  0  0  0  0  0  0  0  0  0  0  0
  -16.6431  -42.2944  -26.6315 H   0  0  0  0  0  0  0  0  0  0  0  0
  -17.7282  -39.3039  -27.9570 H   0  0  0  0  0  0  0  0  0  0  0  0
  -15.9718  -38.0502  -24.2344 H   0  0  0  0  0  0  0  0  0  0  0  0
  -17.9304  -36.5592  -23.9086 H   0  0  0  0  0  0  0  0  0  0  0  0
  -19.7100  -36.5217  -25.6537 H   0  0  0  0  0  0  0  0  0  0  0  0
  -10.4667  -41.7463  -19.6786 H   0  0  0  0  0  0  0  0  0  0  0  0
  -12.7552  -43.7141  -20.9183 H   0  0  0  0  0  0  0  0  0  0  0  0
  -18.6008  -45.4549  -18.9725 H   0  0  0  0  0  0  0  0  0  0  0  0
  -16.3557  -43.7258  -16.9544 H   0  0  0  0  0  0  0  0  0  0  0  0
  -14.3717  -42.6324  -17.8213 H   0  0  0  0  0  0  0  0  0  0  0  0
  -15.0309  -44.5869  -21.6138 H   0  0  0  0  0  0  0  0  0  0  0  0
  -18.6070  -48.5646  -22.0588 H   0  0  0  0  0  0  0  0  0  0  0  0
  -17.3322  -47.4946  -20.2390 H   0  0  0  0  0  0  0  0  0  0  0  0
  -17.6473  -43.7251  -22.3102 H   0  0  0  0  0  0  0  0  0  0  0  0
  -18.8875  -44.8230  -24.1306 H   0  0  0  0  0  0  0  0  0  0  0  0
  -19.2697  -47.2835  -24.0475 H   0  0  0  0  0  0  0  0  0  0  0  0
  -13.7192  -43.5559  -22.9339 H   0  0  0  0  0  0  0  0  0  0  0  0
  -12.9290  -41.2796  -21.9710 H   0  0  0  0  0  0  0  0  0  0  0  0
  -14.5377  -41.2442  -21.2619 H   0  0  0  0  0  0  0  0  0  0  0  0
  2  3  2  0
  2  6  1  0
  3  4  1  0
  4  5  2  0
  5  6  1  0
  6  1  1  0
  7 12  2  0
  7  8  1  0
  8  1  1  0
  8  9  2  0
  9 10  1  0
 10 11  2  0
 11 12  1  0
 16 15  1  0
 14 15  2  0
 15 13  1  0
 18 17  1  0
 18 23  2  0
 18 19  1  0
 19 20  2  0
 20 21  1  0
 21 22  2  0
 21 16  1  0
 22 23  1  0
 23 26  1  0
 24 29  2  0
 24 25  1  0
 25 26  2  0
 26 27  1  0
 27 28  2  0
 28 29  1  0
 30  3  1  0
 31 30  1  0
 31 16  1  0
  1 32  1  0
  1 33  1  0
  2 34  1  0
  4 35  1  0
  5 36  1  0
  7 37  1  0
  9 38  1  0
 10 39  1  0
 11 40  1  0
 13 41  1  0
 16 42  1  6
 17 43  1  0
 19 44  1  0
 20 45  1  0
 22 46  1  0
 24 47  1  0
 25 48  1  0
 27 49  1  0
 28 50  1  0
 29 51  1  0
 30 52  1  0
 31 53  1  0
 31 54  1  0
M  END
>  <smiles>  (75) 
[H]OC(=O)[C@@]([H])(c1c([H])c([H])c(O[H])c(-c2c([H])c([H])c([H])c([H])c2[H])c1[H])C([H])([H])N([H])c1c([H])c([H])n(C([H])([H])c2c([H])nc([H])c([H])c2[H])c1[H]

>  <error>  (75) 


>  <∆∆G>  (75) 
-210.494181

>  <∆G_bound>  (75) 
311.660796

>  <∆G_unbound>  (75) 
522.154978

>  <comRMSD>  (75) 
1.232284

>  <N_constrained_atoms>  (75) 
29.0

>  <N_unconstrained_atoms>  (75) 
2.0

>  <runtime>  (75) 
3.61328

>  <regarded>  (75) 
['d0191a', '5hn0-a']

>  <disregarded>  (75) 
[]

>  <LE>  (75) 
6.790135

>  <outcome>  (75) 
too moved

>  <percent_hybrid>  (75) 
42.0

$$$$
LIG
     RDKit          3D

 46 49  0  0  0  0  0  0  0  0999 V2000
  -15.1783  -39.7529  -25.7280 C   0  0  0  0  0  0  0  0  0  0  0  0
  -15.0190  -43.3522  -17.3686 C   0  0  0  0  0  0  0  0  0  0  0  0
  -15.9970  -41.5818  -16.0227 O   0  0  0  0  0  0  0  0  0  0  0  0
  -15.1426  -43.8723  -23.0407 O   0  0  0  0  0  0  0  0  0  0  0  0
  -16.1341  -42.5782  -16.7148 C   0  0  0  0  0  0  0  0  0  0  0  0
  -17.3465  -43.1449  -16.8767 O   0  0  0  0  0  0  0  0  0  0  0  0
  -15.0224  -41.6012  -24.0028 C   0  0  0  0  0  0  0  0  0  0  0  0
  -15.4393  -42.9129  -23.9464 C   0  0  0  0  0  0  0  0  0  0  0  0
  -16.2065  -43.1601  -25.1032 C   0  0  0  0  0  0  0  0  0  0  0  0
  -16.2306  -42.0132  -25.8545 C   0  0  0  0  0  0  0  0  0  0  0  0
  -15.4873  -41.0728  -25.1898 N   0  0  0  0  0  0  0  0  0  0  0  0
  -17.2082  -38.6669  -26.7838 C   0  0  0  0  0  0  0  0  0  0  0  0
  -16.3800  -38.8499  -25.6768 C   0  0  0  0  0  0  0  0  0  0  0  0
  -16.7260  -38.1798  -24.5008 C   0  0  0  0  0  0  0  0  0  0  0  0
  -17.8527  -37.3653  -24.4769 C   0  0  0  0  0  0  0  0  0  0  0  0
  -18.6121  -37.2574  -25.6307 C   0  0  0  0  0  0  0  0  0  0  0  0
  -18.3240  -37.8924  -26.7886 N   0  0  0  0  0  0  0  0  0  0  0  0
  -15.0889  -43.4526  -18.8730 C   0  0  0  0  0  0  0  0  0  0  0  0
  -14.1039  -42.8513  -19.6686 C   0  0  0  0  0  0  0  0  0  0  0  0
  -14.1415  -42.9604  -21.0620 C   0  0  0  0  0  0  0  0  0  0  0  0
  -15.1765  -43.6552  -21.6838 C   0  0  0  0  0  0  0  0  0  0  0  0
  -16.1500  -44.3050  -20.9017 C   0  0  0  0  0  0  0  0  0  0  0  0
  -16.1028  -44.1875  -19.5029 C   0  0  0  0  0  0  0  0  0  0  0  0
  -17.3926  -46.4412  -21.0968 C   0  0  0  0  0  0  0  0  0  0  0  0
  -18.5602  -47.2346  -22.0509 S   0  0  0  0  0  0  0  0  0  0  0  0
  -18.7271  -45.8777  -23.0751 C   0  0  0  0  0  0  0  0  0  0  0  0
  -18.0222  -44.7972  -22.6076 C   0  0  0  0  0  0  0  0  0  0  0  0
  -17.1757  -45.1413  -21.5113 C   0  0  0  0  0  0  0  0  0  0  0  0
  -14.3533  -39.3388  -25.1401 H   0  0  0  0  0  0  0  0  0  0  0  0
  -14.8173  -39.8902  -26.7536 H   0  0  0  0  0  0  0  0  0  0  0  0
  -14.0756  -42.8783  -17.0694 H   0  0  0  0  0  0  0  0  0  0  0  0
  -14.9952  -44.3578  -16.9321 H   0  0  0  0  0  0  0  0  0  0  0  0
  -17.9205  -42.6940  -16.2156 H   0  0  0  0  0  0  0  0  0  0  0  0
  -14.3982  -41.0182  -23.3414 H   0  0  0  0  0  0  0  0  0  0  0  0
  -16.6739  -44.0895  -25.3676 H   0  0  0  0  0  0  0  0  0  0  0  0
  -16.6769  -41.8051  -26.8156 H   0  0  0  0  0  0  0  0  0  0  0  0
  -16.9920  -39.1529  -27.7331 H   0  0  0  0  0  0  0  0  0  0  0  0
  -16.1258  -38.2934  -23.6013 H   0  0  0  0  0  0  0  0  0  0  0  0
  -18.1384  -36.8352  -23.5748 H   0  0  0  0  0  0  0  0  0  0  0  0
  -19.5041  -36.6376  -25.6491 H   0  0  0  0  0  0  0  0  0  0  0  0
  -13.2755  -42.3091  -19.2145 H   0  0  0  0  0  0  0  0  0  0  0  0
  -13.3321  -42.5432  -21.6544 H   0  0  0  0  0  0  0  0  0  0  0  0
  -16.8665  -44.6753  -18.9004 H   0  0  0  0  0  0  0  0  0  0  0  0
  -16.9049  -46.9845  -20.2995 H   0  0  0  0  0  0  0  0  0  0  0  0
  -19.3532  -45.9218  -23.9538 H   0  0  0  0  0  0  0  0  0  0  0  0
  -18.0478  -43.8250  -23.0813 H   0  0  0  0  0  0  0  0  0  0  0  0
  2  5  1  0
  3  5  2  0
  5  6  1  0
  7  8  2  0
  7 11  1  0
  8  9  1  0
  9 10  2  0
 10 11  1  0
 11  1  1  0
 12 17  2  0
 12 13  1  0
 13  1  1  0
 13 14  2  0
 14 15  1  0
 15 16  2  0
 16 17  1  0
 18 23  2  0
 18  2  1  0
 18 19  1  0
 19 20  2  0
 20 21  1  0
 21 22  2  0
 21  4  1  0
 22 28  1  0
 22 23  1  0
 24 25  1  0
 24 28  2  0
 25 26  1  0
 26 27  2  0
 27 28  1  0
  8  4  1  0
  1 29  1  0
  1 30  1  0
  2 31  1  0
  2 32  1  0
  6 33  1  0
  7 34  1  0
  9 35  1  0
 10 36  1  0
 12 37  1  0
 14 38  1  0
 15 39  1  0
 16 40  1  0
 19 41  1  0
 20 42  1  0
 23 43  1  0
 24 44  1  0
 26 45  1  0
 27 46  1  0
M  END
>  <smiles>  (76) 
[H]OC(=O)C([H])([H])c1c([H])c([H])c(Oc2c([H])c([H])n(C([H])([H])c3c([H])nc([H])c([H])c3[H])c2[H])c(-c2c([H])sc([H])c2[H])c1[H]

>  <error>  (76) 


>  <∆∆G>  (76) 
-70.410278

>  <∆G_bound>  (76) 
171.992565

>  <∆G_unbound>  (76) 
242.402844

>  <comRMSD>  (76) 
0.708465

>  <N_constrained_atoms>  (76) 
28.0

>  <N_unconstrained_atoms>  (76) 
0.0

>  <runtime>  (76) 
2.969502

>  <regarded>  (76) 
['d0191a', '5f41-a']

>  <disregarded>  (76) 
[]

>  <LE>  (76) 
2.514653

>  <outcome>  (76) 
acceptable

>  <percent_hybrid>  (76) 
43.0

$$$$
LIG
     RDKit          3D

 46 49  0  0  0  0  0  0  0  0999 V2000
  -15.1477  -39.7837  -25.6462 C   0  0  0  0  0  0  0  0  0  0  0  0
  -15.2856  -43.2011  -17.2771 C   0  0  0  0  0  0  0  0  0  0  0  0
  -15.1623  -43.9004  -22.9355 O   0  0  0  0  0  0  0  0  0  0  0  0
  -15.7517  -40.8390  -17.4249 O   0  0  0  0  0  0  0  0  0  0  0  0
  -14.2370  -41.5213  -15.8992 O   0  0  0  0  0  0  0  0  0  0  0  0
  -15.0201  -41.7900  -16.7993 C   0  0  0  0  0  0  0  0  0  0  0  0
  -15.0228  -41.6287  -23.9079 C   0  0  0  0  0  0  0  0  0  0  0  0
  -15.4368  -42.9432  -23.8555 C   0  0  0  0  0  0  0  0  0  0  0  0
  -16.1678  -43.1948  -25.0355 C   0  0  0  0  0  0  0  0  0  0  0  0
  -16.1804  -42.0497  -25.7900 C   0  0  0  0  0  0  0  0  0  0  0  0
  -15.4616  -41.1033  -25.1081 N   0  0  0  0  0  0  0  0  0  0  0  0
  -17.1600  -38.7029  -26.7447 C   0  0  0  0  0  0  0  0  0  0  0  0
  -16.3511  -38.8811  -25.6223 C   0  0  0  0  0  0  0  0  0  0  0  0
  -16.7149  -38.2004  -24.4577 C   0  0  0  0  0  0  0  0  0  0  0  0
  -17.8386  -37.3813  -24.4590 C   0  0  0  0  0  0  0  0  0  0  0  0
  -18.5780  -37.2790  -25.6262 C   0  0  0  0  0  0  0  0  0  0  0  0
  -18.2726  -37.9238  -26.7740 N   0  0  0  0  0  0  0  0  0  0  0  0
  -15.2588  -43.3801  -18.7785 C   0  0  0  0  0  0  0  0  0  0  0  0
  -14.2154  -42.8478  -19.5485 C   0  0  0  0  0  0  0  0  0  0  0  0
  -14.2084  -42.9909  -20.9383 C   0  0  0  0  0  0  0  0  0  0  0  0
  -15.2403  -43.6745  -21.5806 C   0  0  0  0  0  0  0  0  0  0  0  0
  -16.2510  -44.2991  -20.8195 C   0  0  0  0  0  0  0  0  0  0  0  0
  -16.2552  -44.1292  -19.4221 C   0  0  0  0  0  0  0  0  0  0  0  0
  -18.7208  -46.2935  -23.0308 C   0  0  0  0  0  0  0  0  0  0  0  0
  -18.3601  -47.1571  -22.0236 C   0  0  0  0  0  0  0  0  0  0  0  0
  -17.4827  -46.5347  -21.0926 C   0  0  0  0  0  0  0  0  0  0  0  0
  -17.2302  -45.2132  -21.4178 C   0  0  0  0  0  0  0  0  0  0  0  0
  -18.2675  -44.6909  -22.6769 S   0  0  0  0  0  0  0  0  0  0  0  0
  -14.3346  -39.3643  -25.0450 H   0  0  0  0  0  0  0  0  0  0  0  0
  -14.7671  -39.9235  -26.6646 H   0  0  0  0  0  0  0  0  0  0  0  0
  -14.5307  -43.8641  -16.8388 H   0  0  0  0  0  0  0  0  0  0  0  0
  -16.2589  -43.4948  -16.8682 H   0  0  0  0  0  0  0  0  0  0  0  0
  -16.3289  -41.1908  -18.1306 H   0  0  0  0  0  0  0  0  0  0  0  0
  -14.4174  -41.0410  -23.2334 H   0  0  0  0  0  0  0  0  0  0  0  0
  -16.6238  -44.1247  -25.3154 H   0  0  0  0  0  0  0  0  0  0  0  0
  -16.6034  -41.8484  -26.7634 H   0  0  0  0  0  0  0  0  0  0  0  0
  -16.9294  -39.1951  -27.6875 H   0  0  0  0  0  0  0  0  0  0  0  0
  -16.1295  -38.3080  -23.5478 H   0  0  0  0  0  0  0  0  0  0  0  0
  -18.1369  -36.8425  -23.5663 H   0  0  0  0  0  0  0  0  0  0  0  0
  -19.4667  -36.6556  -25.6646 H   0  0  0  0  0  0  0  0  0  0  0  0
  -13.3852  -42.3181  -19.0801 H   0  0  0  0  0  0  0  0  0  0  0  0
  -13.3691  -42.6086  -21.5150 H   0  0  0  0  0  0  0  0  0  0  0  0
  -17.0451  -44.5956  -18.8359 H   0  0  0  0  0  0  0  0  0  0  0  0
  -19.2766  -46.5229  -23.9285 H   0  0  0  0  0  0  0  0  0  0  0  0
  -18.6268  -48.2060  -22.0163 H   0  0  0  0  0  0  0  0  0  0  0  0
  -16.9890  -47.0629  -20.2864 H   0  0  0  0  0  0  0  0  0  0  0  0
  5  6  2  0
  2  6  1  0
  6  4  1  0
  7  8  2  0
  7 11  1  0
  8  9  1  0
  9 10  2  0
 10 11  1  0
 11  1  1  0
 12 17  2  0
 12 13  1  0
 13  1  1  0
 13 14  2  0
 14 15  1  0
 15 16  2  0
 16 17  1  0
 18 23  2  0
 18  2  1  0
 18 19  1  0
 19 20  2  0
 20 21  1  0
 21 22  2  0
 21  3  1  0
 22 27  1  0
 22 23  1  0
 24 25  2  0
 24 28  1  0
 25 26  1  0
 26 27  2  0
 27 28  1  0
  8  3  1  0
  1 29  1  0
  1 30  1  0
  2 31  1  0
  2 32  1  0
  4 33  1  0
  7 34  1  0
  9 35  1  0
 10 36  1  0
 12 37  1  0
 14 38  1  0
 15 39  1  0
 16 40  1  0
 19 41  1  0
 20 42  1  0
 23 43  1  0
 24 44  1  0
 25 45  1  0
 26 46  1  0
M  END
>  <smiles>  (77) 
[H]OC(=O)C([H])([H])c1c([H])c([H])c(Oc2c([H])c([H])n(C([H])([H])c3c([H])nc([H])c([H])c3[H])c2[H])c(-c2sc([H])c([H])c2[H])c1[H]

>  <error>  (77) 


>  <∆∆G>  (77) 
-39.123235

>  <∆G_bound>  (77) 
193.847372

>  <∆G_unbound>  (77) 
232.970607

>  <comRMSD>  (77) 
1.021659

>  <N_constrained_atoms>  (77) 
28.0

>  <N_unconstrained_atoms>  (77) 
0.0

>  <runtime>  (77) 
2.716932

>  <regarded>  (77) 
['d0191a', '6h80-a']

>  <disregarded>  (77) 
[]

>  <LE>  (77) 
1.397258

>  <outcome>  (77) 
too moved

>  <percent_hybrid>  (77) 
43.0

$$$$
LIG
     RDKit          3D

 62 65  0  0  0  0  0  0  0  0999 V2000
  -15.4893  -39.9113  -26.2506 C   0  0  0  0  0  0  0  0  0  0  0  0
  -14.7706  -40.5714  -23.9394 C   0  0  0  0  0  0  0  0  0  0  0  0
  -14.7480  -41.7164  -23.1891 C   0  0  0  0  0  0  0  0  0  0  0  0
  -15.2967  -42.7508  -23.9789 C   0  0  0  0  0  0  0  0  0  0  0  0
  -15.6990  -42.1864  -25.1760 C   0  0  0  0  0  0  0  0  0  0  0  0
  -15.3574  -40.8574  -25.1464 N   0  0  0  0  0  0  0  0  0  0  0  0
  -17.6571  -38.8916  -27.0393 C   0  0  0  0  0  0  0  0  0  0  0  0
  -16.6528  -38.9687  -26.0778 C   0  0  0  0  0  0  0  0  0  0  0  0
  -16.7606  -38.0957  -24.9893 C   0  0  0  0  0  0  0  0  0  0  0  0
  -17.8486  -37.2360  -24.8839 C   0  0  0  0  0  0  0  0  0  0  0  0
  -18.7989  -37.2583  -25.8883 C   0  0  0  0  0  0  0  0  0  0  0  0
  -18.7281  -38.0564  -26.9771 N   0  0  0  0  0  0  0  0  0  0  0  0
  -13.3126  -43.1710  -20.0702 C   0  0  1  0  0  0  0  0  0  0  0  0
  -12.4483  -40.9436  -19.4896 O   0  0  0  0  0  0  0  0  0  0  0  0
  -19.0669  -41.0992  -16.3927 O   0  0  0  0  0  0  0  0  0  0  0  0
  -19.6479  -42.9673  -17.4506 O   0  0  0  0  0  0  0  0  0  0  0  0
  -19.3759  -46.2726  -24.4610 C   0  0  0  0  0  0  0  0  0  0  0  0
  -19.9982  -46.4279  -25.4789 C   0  0  0  0  0  0  0  0  0  0  0  0
  -20.7609  -46.6762  -26.7048 C   0  0  0  0  0  0  0  0  0  0  0  0
  -12.1728  -42.6090  -18.0399 O   0  0  0  0  0  0  0  0  0  0  0  0
  -12.6170  -42.1250  -19.2241 C   0  0  0  0  0  0  0  0  0  0  0  0
  -17.2706  -42.5295  -17.0102 C   0  0  0  0  0  0  0  0  0  0  0  0
  -18.7552  -42.2552  -17.0188 C   0  0  0  0  0  0  0  0  0  0  0  0
  -21.8955  -45.8249  -26.7595 O   0  0  0  0  0  0  0  0  0  0  0  0
  -14.7184  -43.5350  -19.6413 C   0  0  0  0  0  0  0  0  0  0  0  0
  -15.3312  -42.9926  -18.5083 C   0  0  0  0  0  0  0  0  0  0  0  0
  -16.6773  -43.2552  -18.2049 C   0  0  0  0  0  0  0  0  0  0  0  0
  -17.3892  -44.1370  -19.0313 C   0  0  0  0  0  0  0  0  0  0  0  0
  -16.7975  -44.6754  -20.1768 C   0  0  0  0  0  0  0  0  0  0  0  0
  -15.4611  -44.4017  -20.4513 C   0  0  0  0  0  0  0  0  0  0  0  0
  -18.5594  -47.1943  -22.2978 C   0  0  0  0  0  0  0  0  0  0  0  0
  -18.7312  -46.1546  -23.1881 C   0  0  0  0  0  0  0  0  0  0  0  0
  -18.1598  -44.6854  -22.5479 S   0  0  0  0  0  0  0  0  0  0  0  0
  -17.5604  -45.4566  -21.1377 C   0  0  0  0  0  0  0  0  0  0  0  0
  -17.8598  -46.7987  -21.1237 C   0  0  0  0  0  0  0  0  0  0  0  0
  -14.2737  -41.7511  -21.9209 N   0  0  0  0  0  0  0  0  0  0  0  0
  -13.2447  -42.7335  -21.5428 C   0  0  0  0  0  0  0  0  0  0  0  0
  -14.5506  -39.3518  -26.3219 H   0  0  0  0  0  0  0  0  0  0  0  0
  -15.5874  -40.4998  -27.1708 H   0  0  0  0  0  0  0  0  0  0  0  0
  -14.4013  -39.5820  -23.7171 H   0  0  0  0  0  0  0  0  0  0  0  0
  -15.4066  -43.7904  -23.7077 H   0  0  0  0  0  0  0  0  0  0  0  0
  -16.1642  -42.6339  -26.0438 H   0  0  0  0  0  0  0  0  0  0  0  0
  -17.6269  -39.5145  -27.9299 H   0  0  0  0  0  0  0  0  0  0  0  0
  -16.0050  -38.0733  -24.2109 H   0  0  0  0  0  0  0  0  0  0  0  0
  -17.9515  -36.5681  -24.0360 H   0  0  0  0  0  0  0  0  0  0  0  0
  -19.6693  -36.6101  -25.8413 H   0  0  0  0  0  0  0  0  0  0  0  0
  -12.7012  -44.0783  -19.9780 H   0  0  0  0  0  0  0  0  0  0  0  0
  -20.0473  -41.1012  -16.3854 H   0  0  0  0  0  0  0  0  0  0  0  0
  -21.0833  -47.7174  -26.7905 H   0  0  0  0  0  0  0  0  0  0  0  0
  -20.1443  -46.4468  -27.5716 H   0  0  0  0  0  0  0  0  0  0  0  0
  -11.6660  -41.8526  -17.6759 H   0  0  0  0  0  0  0  0  0  0  0  0
  -16.7793  -41.5490  -16.9421 H   0  0  0  0  0  0  0  0  0  0  0  0
  -17.0235  -43.0776  -16.0974 H   0  0  0  0  0  0  0  0  0  0  0  0
  -22.6565  -46.3347  -26.4091 H   0  0  0  0  0  0  0  0  0  0  0  0
  -14.7861  -42.3035  -17.8658 H   0  0  0  0  0  0  0  0  0  0  0  0
  -18.4353  -44.3646  -18.8431 H   0  0  0  0  0  0  0  0  0  0  0  0
  -15.0170  -44.8217  -21.3521 H   0  0  0  0  0  0  0  0  0  0  0  0
  -18.8956  -48.2049  -22.4891 H   0  0  0  0  0  0  0  0  0  0  0  0
  -17.5693  -47.4721  -20.3291 H   0  0  0  0  0  0  0  0  0  0  0  0
  -14.0586  -40.8520  -21.4897 H   0  0  0  0  0  0  0  0  0  0  0  0
  -13.3011  -43.6166  -22.1901 H   0  0  0  0  0  0  0  0  0  0  0  0
  -12.2751  -42.2587  -21.7018 H   0  0  0  0  0  0  0  0  0  0  0  0
  2  3  2  0
  2  6  1  0
  3  4  1  0
  4  5  2  0
  5  6  1  0
  6  1  1  0
  7 12  2  0
  7  8  1  0
  8  1  1  0
  8  9  2  0
  9 10  1  0
 10 11  2  0
 11 12  1  0
 24 19  1  0
 19 18  1  0
 18 17  3  0
 22 23  1  0
 16 23  2  0
 23 15  1  0
 13 21  1  0
 14 21  2  0
 21 20  1  0
 25 30  1  0
 25 26  2  0
 25 13  1  0
 26 27  1  0
 27 28  2  0
 27 22  1  0
 28 29  1  0
 29 34  1  0
 29 30  2  0
 31 32  2  0
 31 35  1  0
 32 17  1  0
 32 33  1  0
 33 34  1  0
 34 35  2  0
 36  3  1  0
 37 36  1  0
 37 13  1  0
  1 38  1  0
  1 39  1  0
  2 40  1  0
  4 41  1  0
  5 42  1  0
  7 43  1  0
  9 44  1  0
 10 45  1  0
 11 46  1  0
 13 47  1  6
 15 48  1  0
 19 49  1  0
 19 50  1  0
 20 51  1  0
 22 52  1  0
 22 53  1  0
 24 54  1  0
 26 55  1  0
 28 56  1  0
 30 57  1  0
 31 58  1  0
 35 59  1  0
 36 60  1  0
 37 61  1  0
 37 62  1  0
M  END
>  <smiles>  (78) 
[H]OC(=O)C([H])([H])c1c([H])c(-c2sc(C#CC([H])([H])O[H])c([H])c2[H])c([H])c([C@]([H])(C(=O)O[H])C([H])([H])N([H])c2c([H])c([H])n(C([H])([H])c3c([H])nc([H])c([H])c3[H])c2[H])c1[H]

>  <error>  (78) 


>  <∆∆G>  (78) 
-240.625469

>  <∆G_bound>  (78) 
208.907929

>  <∆G_unbound>  (78) 
449.533397

>  <comRMSD>  (78) 
1.615506

>  <N_constrained_atoms>  (78) 
35.0

>  <N_unconstrained_atoms>  (78) 
2.0

>  <runtime>  (78) 
4.62957

>  <regarded>  (78) 
['d0191a', '5hmy-a']

>  <disregarded>  (78) 
[]

>  <LE>  (78) 
6.503391

>  <outcome>  (78) 
too moved

>  <percent_hybrid>  (78) 
35.0

$$$$
LIG
     RDKit          3D

 26 28  0  0  0  0  0  0  0  0999 V2000
  -15.2480  -40.0370  -26.1670 C   0  0  0  0  0  0  0  0  0  0  0  0
  -17.3790  -40.2730  -28.0120 O   0  0  0  0  0  0  0  0  0  0  0  0
  -16.0720  -44.6540  -21.6670 O   0  0  0  0  0  0  0  0  0  0  0  0
  -14.7240  -41.6290  -24.2740 C   0  0  0  0  0  0  0  0  0  0  0  0
  -16.1900  -43.2470  -24.7330 C   0  0  0  0  0  0  0  0  0  0  0  0
  -16.2940  -42.2990  -25.7020 C   0  0  0  0  0  0  0  0  0  0  0  0
  -15.3980  -41.2940  -25.4230 C   0  0  0  0  0  0  0  0  0  0  0  0
  -17.4060  -38.8590  -26.7540 C   0  0  0  0  0  0  0  0  0  0  0  0
  -16.3550  -39.0540  -25.8750 C   0  0  0  0  0  0  0  0  0  0  0  0
  -16.3410  -38.2750  -24.7310 C   0  0  0  0  0  0  0  0  0  0  0  0
  -17.3280  -37.3290  -24.5260 C   0  0  0  0  0  0  0  0  0  0  0  0
  -18.3220  -37.2060  -25.4700 C   0  0  0  0  0  0  0  0  0  0  0  0
  -18.3830  -37.9610  -26.5720 N   0  0  0  0  0  0  0  0  0  0  0  0
  -15.7510  -43.8290  -22.4670 C   0  0  0  0  0  0  0  0  0  0  0  0
  -14.5710  -42.9320  -22.3710 O   0  0  0  0  0  0  0  0  0  0  0  0
  -15.8490  -42.0870  -24.3960 C   0  0  0  0  0  0  0  0  0  0  0  0
  -15.8460  -41.7965  -25.5625 C   0  0  0  0  0  0  0  0  0  0  0  0
  -14.2872  -39.5774  -25.8920 H   0  0  0  0  0  0  0  0  0  0  0  0
  -15.2906  -40.2776  -27.2395 H   0  0  0  0  0  0  0  0  0  0  0  0
  -17.3611  -41.2125  -27.7004 H   0  0  0  0  0  0  0  0  0  0  0  0
  -14.0803  -40.9224  -24.8184 H   0  0  0  0  0  0  0  0  0  0  0  0
  -16.9784  -42.3306  -26.5626 H   0  0  0  0  0  0  0  0  0  0  0  0
  -15.5441  -38.4087  -23.9846 H   0  0  0  0  0  0  0  0  0  0  0  0
  -17.3191  -36.6903  -23.6305 H   0  0  0  0  0  0  0  0  0  0  0  0
  -19.1045  -36.4496  -25.3101 H   0  0  0  0  0  0  0  0  0  0  0  0
  -15.0960  -41.0465  -24.8125 H   0  0  0  0  0  0  0  0  0  0  0  0
  5  6  2  0
  7  1  1  0
  8 13  2  0
  8  9  1  0
  9  1  1  0
  9 10  2  0
 10 11  1  0
 11 12  2  0
 12 13  1  0
 14 15  1  0
 14  3  2  0
  4 15  1  0
  4 16  2  0
  5 14  1  0
  5 16  1  0
  8  2  1  0
  7 16  1  0
  6 17  1  0
  7 17  2  0
  1 18  1  0
  1 19  1  0
  2 20  1  0
  4 21  1  0
  6 22  1  0
 10 23  1  0
 11 24  1  0
 12 25  1  0
 17 26  1  0
M  END
>  <smiles>  (79) 
[H]Oc1nc([H])c([H])c([H])c1C([H])([H])C1=C([H])C([H])=C2C(=O)OC([H])=C21

>  <error>  (79) 


>  <∆∆G>  (79) 
nan

>  <∆G_bound>  (79) 
nan

>  <∆G_unbound>  (79) 
nan

>  <comRMSD>  (79) 
0.0

>  <N_constrained_atoms>  (79) 
16.0

>  <N_unconstrained_atoms>  (79) 
1.0

>  <runtime>  (79) 
0.760005

>  <regarded>  (79) 
['d0191a', '6izx-a']

>  <disregarded>  (79) 
[]

>  <LE>  (79) 
nan

>  <outcome>  (79) 
crashed

>  <percent_hybrid>  (79) 
32.0

$$$$
LIG
     RDKit          3D

 71 76  0  0  0  0  0  0  0  0999 V2000
  -15.1645  -39.7390  -25.7240 C   0  0  0  0  0  0  0  0  0  0  0  0
  -22.0178  -45.7931  -26.9056 O   0  0  0  0  0  0  0  0  0  0  0  0
  -16.7167  -42.1822  -17.1568 O   0  0  0  0  0  0  0  0  0  0  0  0
  -15.8447  -43.6290  -14.4506 O   0  0  0  0  0  0  0  0  0  0  0  0
  -19.5157  -46.1226  -24.5762 C   0  0  0  0  0  0  0  0  0  0  0  0
  -20.1465  -46.3475  -25.5746 C   0  0  0  0  0  0  0  0  0  0  0  0
  -20.8856  -46.6423  -26.7999 C   0  0  0  0  0  0  0  0  0  0  0  0
  -15.7625  -42.7679  -17.4877 C   0  0  0  0  0  0  0  0  0  0  0  0
  -13.6530  -44.7773  -14.7879 O   0  0  0  0  0  0  0  0  0  0  0  0
  -14.5231  -43.6424  -15.0143 S   0  0  0  0  0  0  0  0  0  0  0  0
  -14.6496  -43.4451  -16.6360 N   0  0  0  0  0  0  0  0  0  0  0  0
  -13.2386  -41.8754  -18.8882 C   0  0  0  0  0  0  0  0  0  0  0  0
  -15.0555  -43.8243  -22.9850 O   0  0  0  0  0  0  0  0  0  0  0  0
  -14.9873  -41.5701  -23.9836 C   0  0  0  0  0  0  0  0  0  0  0  0
  -15.3501  -42.8990  -23.9314 C   0  0  0  0  0  0  0  0  0  0  0  0
  -16.0561  -43.1853  -25.1163 C   0  0  0  0  0  0  0  0  0  0  0  0
  -16.1161  -42.0406  -25.8699 C   0  0  0  0  0  0  0  0  0  0  0  0
  -15.4383  -41.0663  -25.1865 N   0  0  0  0  0  0  0  0  0  0  0  0
  -17.2049  -38.6790  -26.7842 C   0  0  0  0  0  0  0  0  0  0  0  0
  -16.3835  -38.8610  -25.6720 C   0  0  0  0  0  0  0  0  0  0  0  0
  -16.7481  -38.2057  -24.4932 C   0  0  0  0  0  0  0  0  0  0  0  0
  -17.8852  -37.4057  -24.4718 C   0  0  0  0  0  0  0  0  0  0  0  0
  -18.6349  -37.2953  -25.6317 C   0  0  0  0  0  0  0  0  0  0  0  0
  -18.3275  -37.9145  -26.7931 N   0  0  0  0  0  0  0  0  0  0  0  0
  -15.2406  -43.5476  -21.6498 C   0  0  0  0  0  0  0  0  0  0  0  0
  -14.2242  -42.8830  -20.9546 C   0  0  0  0  0  0  0  0  0  0  0  0
  -14.3533  -42.6018  -19.5866 C   0  0  0  0  0  0  0  0  0  0  0  0
  -15.5171  -43.0345  -18.9278 C   0  0  0  0  0  0  0  0  0  0  0  0
  -16.5108  -43.7589  -19.6094 C   0  0  0  0  0  0  0  0  0  0  0  0
  -16.3712  -44.0438  -20.9722 C   0  0  0  0  0  0  0  0  0  0  0  0
  -18.8069  -45.8634  -23.3621 C   0  0  0  0  0  0  0  0  0  0  0  0
  -18.4543  -46.8046  -22.4177 C   0  0  0  0  0  0  0  0  0  0  0  0
  -17.6038  -46.2554  -21.4107 C   0  0  0  0  0  0  0  0  0  0  0  0
  -17.3441  -44.9161  -21.6339 C   0  0  0  0  0  0  0  0  0  0  0  0
  -18.3575  -44.2981  -22.8670 S   0  0  0  0  0  0  0  0  0  0  0  0
  -14.6028  -41.2446  -13.7653 C   0  0  0  0  0  0  0  0  0  0  0  0
  -14.0717  -40.0530  -13.3089 C   0  0  0  0  0  0  0  0  0  0  0  0
  -12.7354  -39.7779  -13.5614 C   0  0  0  0  0  0  0  0  0  0  0  0
  -11.9292  -40.6976  -14.2586 C   0  0  0  0  0  0  0  0  0  0  0  0
  -12.4485  -41.9229  -14.7300 C   0  0  0  0  0  0  0  0  0  0  0  0
  -13.7892  -42.1535  -14.4703 C   0  0  0  0  0  0  0  0  0  0  0  0
  -10.5796  -40.4170  -14.4897 C   0  0  0  0  0  0  0  0  0  0  0  0
   -9.7746  -41.3511  -15.1241 C   0  0  0  0  0  0  0  0  0  0  0  0
  -10.3561  -42.5319  -15.5291 C   0  0  0  0  0  0  0  0  0  0  0  0
  -11.6685  -42.8078  -15.3949 N   0  0  0  0  0  0  0  0  0  0  0  0
  -14.3483  -39.3076  -25.1364 H   0  0  0  0  0  0  0  0  0  0  0  0
  -14.7997  -39.8659  -26.7497 H   0  0  0  0  0  0  0  0  0  0  0  0
  -22.7903  -46.3033  -26.5862 H   0  0  0  0  0  0  0  0  0  0  0  0
  -21.2036  -47.6868  -26.8573 H   0  0  0  0  0  0  0  0  0  0  0  0
  -20.2449  -46.4333  -27.6542 H   0  0  0  0  0  0  0  0  0  0  0  0
  -14.0099  -43.9375  -17.2452 H   0  0  0  0  0  0  0  0  0  0  0  0
  -12.5458  -42.5904  -18.4342 H   0  0  0  0  0  0  0  0  0  0  0  0
  -12.6743  -41.2569  -19.5951 H   0  0  0  0  0  0  0  0  0  0  0  0
  -13.6222  -41.1977  -18.1193 H   0  0  0  0  0  0  0  0  0  0  0  0
  -14.4177  -40.9563  -23.3011 H   0  0  0  0  0  0  0  0  0  0  0  0
  -16.4746  -44.1326  -25.3948 H   0  0  0  0  0  0  0  0  0  0  0  0
  -16.5459  -41.8564  -26.8438 H   0  0  0  0  0  0  0  0  0  0  0  0
  -16.9761  -39.1552  -27.7355 H   0  0  0  0  0  0  0  0  0  0  0  0
  -16.1552  -38.3200  -23.5892 H   0  0  0  0  0  0  0  0  0  0  0  0
  -18.1874  -36.8898  -23.5670 H   0  0  0  0  0  0  0  0  0  0  0  0
  -19.5352  -36.6877  -25.6521 H   0  0  0  0  0  0  0  0  0  0  0  0
  -13.3225  -42.5957  -21.4937 H   0  0  0  0  0  0  0  0  0  0  0  0
  -17.3942  -44.0990  -19.0704 H   0  0  0  0  0  0  0  0  0  0  0  0
  -18.7211  -47.8533  -22.4827 H   0  0  0  0  0  0  0  0  0  0  0  0
  -17.1347  -46.8430  -20.6309 H   0  0  0  0  0  0  0  0  0  0  0  0
  -15.6547  -41.4583  -13.5774 H   0  0  0  0  0  0  0  0  0  0  0  0
  -14.6920  -39.3444  -12.7663 H   0  0  0  0  0  0  0  0  0  0  0  0
  -12.3169  -38.8395  -13.2016 H   0  0  0  0  0  0  0  0  0  0  0  0
  -10.1380  -39.4843  -14.1459 H   0  0  0  0  0  0  0  0  0  0  0  0
   -8.7152  -41.1723  -15.2697 H   0  0  0  0  0  0  0  0  0  0  0  0
   -9.7589  -43.3270  -15.9628 H   0  0  0  0  0  0  0  0  0  0  0  0
  2  7  1  0
  7  6  1  0
  6  5  3  0
  3  8  2  0
  8 11  1  0
  4 10  2  0
 11 10  1  0
 10  9  2  0
 14 15  2  0
 14 18  1  0
 15 16  1  0
 16 17  2  0
 17 18  1  0
 18  1  1  0
 19 24  2  0
 19 20  1  0
 20  1  1  0
 20 21  2  0
 21 22  1  0
 22 23  2  0
 23 24  1  0
 25 30  1  0
 25 13  1  0
 25 26  2  0
 26 27  1  0
 27 28  2  0
 27 12  1  0
 28 29  1  0
 28  8  1  0
 29 30  2  0
 30 34  1  0
 31  5  1  0
 31 32  2  0
 31 35  1  0
 32 33  1  0
 33 34  2  0
 34 35  1  0
 36 41  2  0
 36 37  1  0
 37 38  2  0
 38 39  1  0
 39 40  2  0
 39 42  1  0
 40 41  1  0
 40 45  1  0
 41 10  1  0
 42 43  2  0
 43 44  1  0
 44 45  2  0
 15 13  1  0
  1 46  1  0
  1 47  1  0
  2 48  1  0
  7 49  1  0
  7 50  1  0
 11 51  1  0
 12 52  1  0
 12 53  1  0
 12 54  1  0
 14 55  1  0
 16 56  1  0
 17 57  1  0
 19 58  1  0
 21 59  1  0
 22 60  1  0
 23 61  1  0
 26 62  1  0
 29 63  1  0
 32 64  1  0
 33 65  1  0
 36 66  1  0
 37 67  1  0
 38 68  1  0
 42 69  1  0
 43 70  1  0
 44 71  1  0
M  END
>  <smiles>  (80) 
[H]OC([H])([H])C#Cc1sc(-c2c([H])c(C(=O)N([H])S(=O)(=O)c3c([H])c([H])c([H])c4c([H])c([H])c([H])nc34)c(C([H])([H])[H])c([H])c2Oc2c([H])c([H])n(C([H])([H])c3c([H])nc([H])c([H])c3[H])c2[H])c([H])c1[H]

>  <error>  (80) 


>  <∆∆G>  (80) 
-64.29939

>  <∆G_bound>  (80) 
232.259193

>  <∆G_unbound>  (80) 
296.558584

>  <comRMSD>  (80) 
0.675155

>  <N_constrained_atoms>  (80) 
45.0

>  <N_unconstrained_atoms>  (80) 
0.0

>  <runtime>  (80) 
7.171833

>  <regarded>  (80) 
['d0191a', '5i3q-a']

>  <disregarded>  (80) 
[]

>  <LE>  (80) 
1.428875

>  <outcome>  (80) 
acceptable

>  <percent_hybrid>  (80) 
27.0

$$$$
LIG
     RDKit          3D

 56 59  0  0  0  0  0  0  0  0999 V2000
  -15.4965  -39.7547  -26.3245 C   0  0  0  0  0  0  0  0  0  0  0  0
  -14.8637  -40.9438  -24.2097 C   0  0  0  0  0  0  0  0  0  0  0  0
  -14.8939  -42.2450  -23.7888 C   0  0  0  0  0  0  0  0  0  0  0  0
  -15.6630  -42.9849  -24.7109 C   0  0  0  0  0  0  0  0  0  0  0  0
  -16.0661  -42.1162  -25.7007 C   0  0  0  0  0  0  0  0  0  0  0  0
  -15.5162  -40.8919  -25.4173 N   0  0  0  0  0  0  0  0  0  0  0  0
  -17.6798  -38.7184  -27.0245 C   0  0  0  0  0  0  0  0  0  0  0  0
  -16.6591  -38.8366  -26.0861 C   0  0  0  0  0  0  0  0  0  0  0  0
  -16.7620  -38.0613  -24.9277 C   0  0  0  0  0  0  0  0  0  0  0  0
  -17.8573  -37.2240  -24.7520 C   0  0  0  0  0  0  0  0  0  0  0  0
  -18.8193  -37.1845  -25.7481 C   0  0  0  0  0  0  0  0  0  0  0  0
  -18.7599  -37.9076  -26.8902 N   0  0  0  0  0  0  0  0  0  0  0  0
  -13.3188  -42.9860  -20.4712 C   0  0  1  0  0  0  0  0  0  0  0  0
  -11.3029  -41.7318  -20.1252 O   0  0  0  0  0  0  0  0  0  0  0  0
  -18.4879  -40.6589  -17.4515 O   0  0  0  0  0  0  0  0  0  0  0  0
  -19.3911  -42.6955  -17.3417 O   0  0  0  0  0  0  0  0  0  0  0  0
  -12.2802  -42.4351  -19.5140 C   0  0  0  0  0  0  0  0  0  0  0  0
  -12.2170  -42.6391  -18.3083 O   0  0  0  0  0  0  0  0  0  0  0  0
  -17.0242  -42.5605  -17.0282 C   0  0  0  0  0  0  0  0  0  0  0  0
  -18.3319  -41.8594  -17.2903 C   0  0  0  0  0  0  0  0  0  0  0  0
  -14.6063  -43.4832  -19.8231 C   0  0  0  0  0  0  0  0  0  0  0  0
  -15.1628  -42.8980  -18.6826 C   0  0  0  0  0  0  0  0  0  0  0  0
  -16.4397  -43.2634  -18.2318 C   0  0  0  0  0  0  0  0  0  0  0  0
  -17.1698  -44.2238  -18.9495 C   0  0  0  0  0  0  0  0  0  0  0  0
  -16.6479  -44.7738  -20.1182 C   0  0  0  0  0  0  0  0  0  0  0  0
  -15.3520  -44.4507  -20.5075 C   0  0  0  0  0  0  0  0  0  0  0  0
  -18.5124  -47.3437  -22.0808 C   0  0  0  0  0  0  0  0  0  0  0  0
  -18.6728  -46.3365  -23.0045 C   0  0  0  0  0  0  0  0  0  0  0  0
  -18.0924  -44.8440  -22.4284 S   0  0  0  0  0  0  0  0  0  0  0  0
  -17.4570  -45.5796  -21.0149 C   0  0  0  0  0  0  0  0  0  0  0  0
  -17.7774  -46.9140  -20.9441 C   0  0  0  0  0  0  0  0  0  0  0  0
  -14.2554  -42.7791  -22.7358 N   0  0  0  0  0  0  0  0  0  0  0  0
  -13.6813  -42.0166  -21.6195 C   0  0  0  0  0  0  0  0  0  0  0  0
  -14.5463  -39.2298  -26.1906 H   0  0  0  0  0  0  0  0  0  0  0  0
  -15.5014  -40.1528  -27.3463 H   0  0  0  0  0  0  0  0  0  0  0  0
  -14.3596  -40.0771  -23.8086 H   0  0  0  0  0  0  0  0  0  0  0  0
  -15.8751  -44.0423  -24.6737 H   0  0  0  0  0  0  0  0  0  0  0  0
  -16.6327  -42.2894  -26.6040 H   0  0  0  0  0  0  0  0  0  0  0  0
  -17.6541  -39.2868  -27.9508 H   0  0  0  0  0  0  0  0  0  0  0  0
  -15.9957  -38.1090  -24.1587 H   0  0  0  0  0  0  0  0  0  0  0  0
  -17.9605  -36.6208  -23.8567 H   0  0  0  0  0  0  0  0  0  0  0  0
  -19.6938  -36.5478  -25.6463 H   0  0  0  0  0  0  0  0  0  0  0  0
  -12.8254  -43.8734  -20.8914 H   0  0  0  0  0  0  0  0  0  0  0  0
  -10.5176  -41.8651  -19.5342 H   0  0  0  0  0  0  0  0  0  0  0  0
  -20.1550  -42.0926  -17.4644 H   0  0  0  0  0  0  0  0  0  0  0  0
  -16.3290  -41.7989  -16.6523 H   0  0  0  0  0  0  0  0  0  0  0  0
  -17.1435  -43.2629  -16.2041 H   0  0  0  0  0  0  0  0  0  0  0  0
  -14.6275  -42.1084  -18.1568 H   0  0  0  0  0  0  0  0  0  0  0  0
  -18.1841  -44.4799  -18.6518 H   0  0  0  0  0  0  0  0  0  0  0  0
  -14.9625  -44.8863  -21.4262 H   0  0  0  0  0  0  0  0  0  0  0  0
  -18.8571  -48.3550  -22.2472 H   0  0  0  0  0  0  0  0  0  0  0  0
  -19.1318  -46.4064  -23.9806 H   0  0  0  0  0  0  0  0  0  0  0  0
  -17.4637  -47.5578  -20.1374 H   0  0  0  0  0  0  0  0  0  0  0  0
  -13.8091  -43.6852  -22.8889 H   0  0  0  0  0  0  0  0  0  0  0  0
  -12.8100  -41.4559  -21.9651 H   0  0  0  0  0  0  0  0  0  0  0  0
  -14.4072  -41.2721  -21.2659 H   0  0  0  0  0  0  0  0  0  0  0  0
  2  3  2  0
  2  6  1  0
  3  4  1  0
  4  5  2  0
  5  6  1  0
  6  1  1  0
  7 12  2  0
  7  8  1  0
  8  1  1  0
  8  9  2  0
  9 10  1  0
 10 11  2  0
 11 12  1  0
 19 20  1  0
 20 15  2  0
 20 16  1  0
 13 17  1  0
 18 17  2  0
 17 14  1  0
 21 26  1  0
 21 22  2  0
 21 13  1  0
 22 23  1  0
 23 24  2  0
 23 19  1  0
 24 25  1  0
 25 30  1  0
 25 26  2  0
 27 28  2  0
 27 31  1  0
 28 29  1  0
 29 30  1  0
 30 31  2  0
 32  3  1  0
 33 32  1  0
 33 13  1  0
  1 34  1  0
  1 35  1  0
  2 36  1  0
  4 37  1  0
  5 38  1  0
  7 39  1  0
  9 40  1  0
 10 41  1  0
 11 42  1  0
 13 43  1  6
 14 44  1  0
 16 45  1  0
 19 46  1  0
 19 47  1  0
 22 48  1  0
 24 49  1  0
 26 50  1  0
 27 51  1  0
 28 52  1  0
 31 53  1  0
 32 54  1  0
 33 55  1  0
 33 56  1  0
M  END
>  <smiles>  (81) 
[H]OC(=O)C([H])([H])c1c([H])c(-c2sc([H])c([H])c2[H])c([H])c([C@]([H])(C(=O)O[H])C([H])([H])N([H])c2c([H])c([H])n(C([H])([H])c3c([H])nc([H])c([H])c3[H])c2[H])c1[H]

>  <error>  (81) 


>  <∆∆G>  (81) 
-149.657912

>  <∆G_bound>  (81) 
195.479214

>  <∆G_unbound>  (81) 
345.137126

>  <comRMSD>  (81) 
1.60728

>  <N_constrained_atoms>  (81) 
31.0

>  <N_unconstrained_atoms>  (81) 
2.0

>  <runtime>  (81) 
4.479666

>  <regarded>  (81) 
['d0191a', '5hmx-b']

>  <disregarded>  (81) 
[]

>  <LE>  (81) 
4.535088

>  <outcome>  (81) 
too moved

>  <percent_hybrid>  (81) 
39.0

$$$$
LIG
     RDKit          3D

 74 78  0  0  0  0  0  0  0  0999 V2000
  -15.5863  -39.7714  -26.4588 C   0  0  0  0  0  0  0  0  0  0  0  0
  -14.8293  -41.2959  -24.6292 C   0  0  0  0  0  0  0  0  0  0  0  0
  -15.0257  -42.6235  -24.2980 C   0  0  0  0  0  0  0  0  0  0  0  0
  -16.1212  -43.0681  -25.0797 C   0  0  0  0  0  0  0  0  0  0  0  0
  -16.5137  -42.0326  -25.8941 C   0  0  0  0  0  0  0  0  0  0  0  0
  -15.6709  -40.9823  -25.6593 N   0  0  0  0  0  0  0  0  0  0  0  0
  -17.7479  -38.6385  -27.0392 C   0  0  0  0  0  0  0  0  0  0  0  0
  -16.7029  -38.8251  -26.1404 C   0  0  0  0  0  0  0  0  0  0  0  0
  -16.7464  -38.1065  -24.9436 C   0  0  0  0  0  0  0  0  0  0  0  0
  -17.8088  -37.2437  -24.6996 C   0  0  0  0  0  0  0  0  0  0  0  0
  -18.7972  -37.1281  -25.6650 C   0  0  0  0  0  0  0  0  0  0  0  0
  -18.7947  -37.8018  -26.8382 N   0  0  0  0  0  0  0  0  0  0  0  0
  -13.0359  -42.7444  -18.3716 O   0  0  0  0  0  0  0  0  0  0  0  0
  -17.2718  -41.4227  -14.7801 O   0  0  0  0  0  0  0  0  0  0  0  0
  -12.4405  -38.8818  -15.8250 O   0  0  0  0  0  0  0  0  0  0  0  0
  -19.3139  -46.2051  -24.3670 C   0  0  0  0  0  0  0  0  0  0  0  0
  -19.9238  -46.3973  -25.3879 C   0  0  0  0  0  0  0  0  0  0  0  0
  -20.6671  -46.6872  -26.6217 C   0  0  0  0  0  0  0  0  0  0  0  0
  -14.3787  -44.7189  -16.4514 O   0  0  0  0  0  0  0  0  0  0  0  0
  -15.0479  -43.9152  -16.9728 C   0  0  0  0  0  0  0  0  0  0  0  0
  -15.9467  -42.8033  -16.3625 N   0  0  0  0  0  0  0  0  0  0  0  0
  -16.1549  -42.3390  -14.8043 S   0  0  0  0  0  0  0  0  0  0  0  0
  -16.0476  -43.4865  -13.9467 O   0  0  0  0  0  0  0  0  0  0  0  0
  -13.1734  -38.4456  -16.9606 C   0  0  0  0  0  0  0  0  0  0  0  0
  -12.2520  -41.7608  -19.0420 C   0  0  0  0  0  0  0  0  0  0  0  0
  -14.9498  -44.3232  -22.5638 O   0  0  0  0  0  0  0  0  0  0  0  0
  -14.1898  -43.4118  -23.3462 C   0  0  0  0  0  0  0  0  0  0  0  0
  -21.7749  -45.8065  -26.7437 O   0  0  0  0  0  0  0  0  0  0  0  0
  -14.9796  -44.1210  -21.2084 C   0  0  0  0  0  0  0  0  0  0  0  0
  -13.9215  -43.5373  -20.4971 C   0  0  0  0  0  0  0  0  0  0  0  0
  -14.0019  -43.3575  -19.1219 C   0  0  0  0  0  0  0  0  0  0  0  0
  -15.1075  -43.8780  -18.4455 C   0  0  0  0  0  0  0  0  0  0  0  0
  -16.1551  -44.5152  -19.1287 C   0  0  0  0  0  0  0  0  0  0  0  0
  -16.1089  -44.6233  -20.5259 C   0  0  0  0  0  0  0  0  0  0  0  0
  -12.3642  -40.0886  -13.8358 C   0  0  0  0  0  0  0  0  0  0  0  0
  -12.8568  -41.0233  -12.9291 C   0  0  0  0  0  0  0  0  0  0  0  0
  -14.0322  -41.6950  -13.2251 C   0  0  0  0  0  0  0  0  0  0  0  0
  -14.7032  -41.4196  -14.4256 C   0  0  0  0  0  0  0  0  0  0  0  0
  -14.2235  -40.4814  -15.3308 C   0  0  0  0  0  0  0  0  0  0  0  0
  -13.0428  -39.8135  -15.0301 C   0  0  0  0  0  0  0  0  0  0  0  0
  -17.5711  -46.6581  -21.1234 C   0  0  0  0  0  0  0  0  0  0  0  0
  -18.4315  -47.0609  -22.1915 C   0  0  0  0  0  0  0  0  0  0  0  0
  -18.6403  -46.0510  -23.1083 C   0  0  0  0  0  0  0  0  0  0  0  0
  -18.0369  -44.5696  -22.5192 S   0  0  0  0  0  0  0  0  0  0  0  0
  -17.1604  -45.3465  -21.2593 C   0  0  0  0  0  0  0  0  0  0  0  0
  -14.6135  -39.3017  -26.2813 H   0  0  0  0  0  0  0  0  0  0  0  0
  -15.6080  -40.0840  -27.5095 H   0  0  0  0  0  0  0  0  0  0  0  0
  -14.1042  -40.5811  -24.2673 H   0  0  0  0  0  0  0  0  0  0  0  0
  -16.5553  -44.0540  -25.0718 H   0  0  0  0  0  0  0  0  0  0  0  0
  -17.2933  -41.9788  -26.6376 H   0  0  0  0  0  0  0  0  0  0  0  0
  -17.7706  -39.1726  -27.9855 H   0  0  0  0  0  0  0  0  0  0  0  0
  -15.9611  -38.2206  -24.2014 H   0  0  0  0  0  0  0  0  0  0  0  0
  -17.8696  -36.6787  -23.7761 H   0  0  0  0  0  0  0  0  0  0  0  0
  -19.6473  -36.4692  -25.5100 H   0  0  0  0  0  0  0  0  0  0  0  0
  -21.0174  -47.7214  -26.6687 H   0  0  0  0  0  0  0  0  0  0  0  0
  -20.0301  -46.5236  -27.4885 H   0  0  0  0  0  0  0  0  0  0  0  0
  -16.4554  -42.3329  -17.1041 H   0  0  0  0  0  0  0  0  0  0  0  0
  -14.1359  -38.0105  -16.6705 H   0  0  0  0  0  0  0  0  0  0  0  0
  -12.5906  -37.6606  -17.4524 H   0  0  0  0  0  0  0  0  0  0  0  0
  -13.3082  -39.2567  -17.6823 H   0  0  0  0  0  0  0  0  0  0  0  0
  -11.6300  -41.2620  -18.2929 H   0  0  0  0  0  0  0  0  0  0  0  0
  -11.5894  -42.2077  -19.7856 H   0  0  0  0  0  0  0  0  0  0  0  0
  -12.8913  -41.0035  -19.5087 H   0  0  0  0  0  0  0  0  0  0  0  0
  -13.6605  -42.6772  -22.7401 H   0  0  0  0  0  0  0  0  0  0  0  0
  -13.4520  -43.9938  -23.9075 H   0  0  0  0  0  0  0  0  0  0  0  0
  -22.5501  -46.2719  -26.3652 H   0  0  0  0  0  0  0  0  0  0  0  0
  -12.9939  -43.2946  -21.0038 H   0  0  0  0  0  0  0  0  0  0  0  0
  -16.9863  -44.9458  -18.5775 H   0  0  0  0  0  0  0  0  0  0  0  0
  -11.4379  -39.5632  -13.6127 H   0  0  0  0  0  0  0  0  0  0  0  0
  -12.3210  -41.2293  -12.0067 H   0  0  0  0  0  0  0  0  0  0  0  0
  -14.4134  -42.4350  -12.5243 H   0  0  0  0  0  0  0  0  0  0  0  0
  -14.7727  -40.2964  -16.2451 H   0  0  0  0  0  0  0  0  0  0  0  0
  -17.1949  -47.3374  -20.3682 H   0  0  0  0  0  0  0  0  0  0  0  0
  -18.8003  -48.0715  -22.3218 H   0  0  0  0  0  0  0  0  0  0  0  0
  2  3  2  0
  2  6  1  0
  3  4  1  0
  4  5  2  0
  5  6  1  0
  6  1  1  0
  7 12  2  0
  7  8  1  0
  8  1  1  0
  8  9  2  0
  9 10  1  0
 10 11  2  0
 11 12  1  0
 18 28  1  0
 18 17  1  0
 17 16  3  0
 26 27  1  0
 21 20  1  0
 21 22  1  0
 20 19  2  0
 14 22  2  0
 23 22  2  0
 13 25  1  0
 24 15  1  0
 29 34  1  0
 29 26  1  0
 29 30  2  0
 30 31  1  0
 31 32  2  0
 31 13  1  0
 32 33  1  0
 32 20  1  0
 33 34  2  0
 34 45  1  0
 35 40  2  0
 35 36  1  0
 36 37  2  0
 37 38  1  0
 38 22  1  0
 38 39  2  0
 39 40  1  0
 40 15  1  0
 41 42  1  0
 41 45  2  0
 42 43  2  0
 43 16  1  0
 43 44  1  0
 44 45  1  0
  3 27  1  0
  1 46  1  0
  1 47  1  0
  2 48  1  0
  4 49  1  0
  5 50  1  0
  7 51  1  0
  9 52  1  0
 10 53  1  0
 11 54  1  0
 18 55  1  0
 18 56  1  0
 21 57  1  0
 24 58  1  0
 24 59  1  0
 24 60  1  0
 25 61  1  0
 25 62  1  0
 25 63  1  0
 27 64  1  0
 27 65  1  0
 28 66  1  0
 30 67  1  0
 33 68  1  0
 35 69  1  0
 36 70  1  0
 37 71  1  0
 39 72  1  0
 41 73  1  0
 42 74  1  0
M  END
>  <smiles>  (82) 
[H]OC([H])([H])C#Cc1sc(-c2c([H])c(C(=O)N([H])S(=O)(=O)c3c([H])c([H])c([H])c(OC([H])([H])[H])c3[H])c(OC([H])([H])[H])c([H])c2OC([H])([H])c2c([H])c([H])n(C([H])([H])c3c([H])nc([H])c([H])c3[H])c2[H])c([H])c1[H]

>  <error>  (82) 


>  <∆∆G>  (82) 
-45.885874

>  <∆G_bound>  (82) 
236.567105

>  <∆G_unbound>  (82) 
282.452979

>  <comRMSD>  (82) 
0.585156

>  <N_constrained_atoms>  (82) 
45.0

>  <N_unconstrained_atoms>  (82) 
0.0

>  <runtime>  (82) 
3.393225

>  <regarded>  (82) 
['d0191a', '5k5m-a']

>  <disregarded>  (82) 
[]

>  <LE>  (82) 
1.019686

>  <outcome>  (82) 
acceptable

>  <percent_hybrid>  (82) 
27.0

$$$$
LIG
     RDKit          3D

 59 62  0  0  0  0  0  0  0  0999 V2000
  -15.1764  -39.6995  -25.7374 C   0  0  0  0  0  0  0  0  0  0  0  0
  -19.5014  -46.1345  -24.5420 C   0  0  0  0  0  0  0  0  0  0  0  0
  -15.1969  -41.0067  -14.9617 C   0  0  0  0  0  0  0  0  0  0  0  0
  -20.1277  -46.3408  -25.5475 C   0  0  0  0  0  0  0  0  0  0  0  0
  -20.8597  -46.6255  -26.7809 C   0  0  0  0  0  0  0  0  0  0  0  0
  -14.9706  -43.5748  -17.4729 C   0  0  0  0  0  0  0  0  0  0  0  0
  -12.8866  -42.2526  -19.0449 C   0  0  0  0  0  0  0  0  0  0  0  0
  -15.1524  -43.8342  -23.0760 O   0  0  0  0  0  0  0  0  0  0  0  0
  -14.1250  -44.2330  -17.0046 O   0  0  0  0  0  0  0  0  0  0  0  0
  -16.0668  -42.7042  -16.7893 N   0  0  0  0  0  0  0  0  0  0  0  0
  -16.3125  -42.3512  -15.2070 S   0  0  0  0  0  0  0  0  0  0  0  0
  -15.8208  -43.4354  -14.3936 O   0  0  0  0  0  0  0  0  0  0  0  0
  -17.6530  -41.8175  -15.1104 O   0  0  0  0  0  0  0  0  0  0  0  0
  -21.9867  -45.7695  -26.8920 O   0  0  0  0  0  0  0  0  0  0  0  0
  -15.0325  -41.5572  -24.0226 C   0  0  0  0  0  0  0  0  0  0  0  0
  -15.4255  -42.8768  -23.9907 C   0  0  0  0  0  0  0  0  0  0  0  0
  -16.1449  -43.1314  -25.1753 C   0  0  0  0  0  0  0  0  0  0  0  0
  -16.1701  -41.9791  -25.9171 C   0  0  0  0  0  0  0  0  0  0  0  0
  -15.4712  -41.0296  -25.2200 N   0  0  0  0  0  0  0  0  0  0  0  0
  -17.2223  -38.6426  -26.7895 C   0  0  0  0  0  0  0  0  0  0  0  0
  -16.3896  -38.8133  -25.6839 C   0  0  0  0  0  0  0  0  0  0  0  0
  -16.7421  -38.1464  -24.5079 C   0  0  0  0  0  0  0  0  0  0  0  0
  -17.8791  -37.3466  -24.4829 C   0  0  0  0  0  0  0  0  0  0  0  0
  -18.6411  -37.2485  -25.6360 C   0  0  0  0  0  0  0  0  0  0  0  0
  -18.3455  -37.8794  -26.7940 N   0  0  0  0  0  0  0  0  0  0  0  0
  -16.1798  -44.1434  -19.5628 C   0  0  0  0  0  0  0  0  0  0  0  0
  -15.1024  -43.4918  -18.9447 C   0  0  0  0  0  0  0  0  0  0  0  0
  -14.0793  -42.8926  -19.6975 C   0  0  0  0  0  0  0  0  0  0  0  0
  -14.1464  -42.9675  -21.0929 C   0  0  0  0  0  0  0  0  0  0  0  0
  -15.2186  -43.6068  -21.7207 C   0  0  0  0  0  0  0  0  0  0  0  0
  -16.2425  -44.2179  -20.9617 C   0  0  0  0  0  0  0  0  0  0  0  0
  -18.7947  -45.9117  -23.3186 C   0  0  0  0  0  0  0  0  0  0  0  0
  -18.4709  -46.8756  -22.3869 C   0  0  0  0  0  0  0  0  0  0  0  0
  -17.5912  -46.3703  -21.3815 C   0  0  0  0  0  0  0  0  0  0  0  0
  -17.2792  -45.0403  -21.5962 C   0  0  0  0  0  0  0  0  0  0  0  0
  -18.3103  -44.3687  -22.7904 S   0  0  0  0  0  0  0  0  0  0  0  0
  -14.3620  -39.2852  -25.1353 H   0  0  0  0  0  0  0  0  0  0  0  0
  -14.8036  -39.8162  -26.7612 H   0  0  0  0  0  0  0  0  0  0  0  0
  -15.2929  -40.6680  -13.9276 H   0  0  0  0  0  0  0  0  0  0  0  0
  -14.1761  -41.3489  -15.1436 H   0  0  0  0  0  0  0  0  0  0  0  0
  -15.4605  -40.1934  -15.6407 H   0  0  0  0  0  0  0  0  0  0  0  0
  -21.1850  -47.6677  -26.8421 H   0  0  0  0  0  0  0  0  0  0  0  0
  -20.2143  -46.4226  -27.6331 H   0  0  0  0  0  0  0  0  0  0  0  0
  -13.2024  -41.5538  -18.2635 H   0  0  0  0  0  0  0  0  0  0  0  0
  -12.2377  -43.0180  -18.6091 H   0  0  0  0  0  0  0  0  0  0  0  0
  -12.2963  -41.6802  -19.7687 H   0  0  0  0  0  0  0  0  0  0  0  0
  -16.6933  -42.3281  -17.4973 H   0  0  0  0  0  0  0  0  0  0  0  0
  -22.7612  -46.2742  -26.5684 H   0  0  0  0  0  0  0  0  0  0  0  0
  -14.4460  -40.9653  -23.3356 H   0  0  0  0  0  0  0  0  0  0  0  0
  -16.5872  -44.0664  -25.4614 H   0  0  0  0  0  0  0  0  0  0  0  0
  -16.5920  -41.7725  -26.8897 H   0  0  0  0  0  0  0  0  0  0  0  0
  -17.0033  -39.1288  -27.7380 H   0  0  0  0  0  0  0  0  0  0  0  0
  -16.1393  -38.2514  -23.6095 H   0  0  0  0  0  0  0  0  0  0  0  0
  -18.1718  -36.8201  -23.5811 H   0  0  0  0  0  0  0  0  0  0  0  0
  -19.5415  -36.6410  -25.6537 H   0  0  0  0  0  0  0  0  0  0  0  0
  -16.9340  -44.6421  -18.9577 H   0  0  0  0  0  0  0  0  0  0  0  0
  -13.3244  -42.5945  -21.7001 H   0  0  0  0  0  0  0  0  0  0  0  0
  -18.7670  -47.9153  -22.4676 H   0  0  0  0  0  0  0  0  0  0  0  0
  -17.1269  -46.9907  -20.6242 H   0  0  0  0  0  0  0  0  0  0  0  0
 14  5  1  0
  5  4  1  0
  4  2  3  0
 12 11  2  0
 10  6  1  0
 10 11  1  0
  6  9  2  0
 13 11  2  0
 11  3  1  0
 15 16  2  0
 15 19  1  0
 16 17  1  0
 17 18  2  0
 18 19  1  0
 19  1  1  0
 20 25  2  0
 20 21  1  0
 21  1  1  0
 21 22  2  0
 22 23  1  0
 23 24  2  0
 24 25  1  0
 26 31  2  0
 26 27  1  0
 27  6  1  0
 27 28  2  0
 28 29  1  0
 28  7  1  0
 29 30  2  0
 30 31  1  0
 30  8  1  0
 31 35  1  0
 32  2  1  0
 32 33  2  0
 32 36  1  0
 33 34  1  0
 34 35  2  0
 35 36  1  0
 16  8  1  0
  1 37  1  0
  1 38  1  0
  3 39  1  0
  3 40  1  0
  3 41  1  0
  5 42  1  0
  5 43  1  0
  7 44  1  0
  7 45  1  0
  7 46  1  0
 10 47  1  0
 14 48  1  0
 15 49  1  0
 17 50  1  0
 18 51  1  0
 20 52  1  0
 22 53  1  0
 23 54  1  0
 24 55  1  0
 26 56  1  0
 29 57  1  0
 33 58  1  0
 34 59  1  0
M  END
>  <smiles>  (83) 
[H]OC([H])([H])C#Cc1sc(-c2c([H])c(C(=O)N([H])S(=O)(=O)C([H])([H])[H])c(C([H])([H])[H])c([H])c2Oc2c([H])c([H])n(C([H])([H])c3c([H])nc([H])c([H])c3[H])c2[H])c([H])c1[H]

>  <error>  (83) 


>  <∆∆G>  (83) 
-77.666221

>  <∆G_bound>  (83) 
183.326502

>  <∆G_unbound>  (83) 
260.992723

>  <comRMSD>  (83) 
0.595972

>  <N_constrained_atoms>  (83) 
36.0

>  <N_unconstrained_atoms>  (83) 
0.0

>  <runtime>  (83) 
3.884835

>  <regarded>  (83) 
['d0191a', '5hmz-a']

>  <disregarded>  (83) 
[]

>  <LE>  (83) 
2.157395

>  <outcome>  (83) 
acceptable

>  <percent_hybrid>  (83) 
34.0

$$$$
LIG
     RDKit          3D

 60 63  0  0  0  0  0  0  0  0999 V2000
  -15.2530  -39.6621  -25.9067 C   0  0  0  0  0  0  0  0  0  0  0  0
  -15.1139  -41.5685  -24.2300 C   0  0  0  0  0  0  0  0  0  0  0  0
  -15.5713  -42.8719  -24.2344 C   0  0  0  0  0  0  0  0  0  0  0  0
  -16.4300  -43.0314  -25.3338 C   0  0  0  0  0  0  0  0  0  0  0  0
  -16.3970  -41.8649  -26.0492 C   0  0  0  0  0  0  0  0  0  0  0  0
  -15.5759  -40.9810  -25.3855 N   0  0  0  0  0  0  0  0  0  0  0  0
  -17.3168  -38.5483  -26.8526 C   0  0  0  0  0  0  0  0  0  0  0  0
  -16.4360  -38.7396  -25.7892 C   0  0  0  0  0  0  0  0  0  0  0  0
  -16.7251  -38.0817  -24.5917 C   0  0  0  0  0  0  0  0  0  0  0  0
  -17.8496  -37.2686  -24.5068 C   0  0  0  0  0  0  0  0  0  0  0  0
  -18.6635  -37.1511  -25.6223 C   0  0  0  0  0  0  0  0  0  0  0  0
  -18.4315  -37.7751  -26.7987 N   0  0  0  0  0  0  0  0  0  0  0  0
  -16.9246  -42.6163  -16.8253 C   0  0  0  0  0  0  0  0  0  0  0  0
  -18.0389  -40.5845  -17.3914 O   0  0  0  0  0  0  0  0  0  0  0  0
  -13.2645  -40.8550  -21.1278 N   0  0  0  0  0  0  0  0  0  0  0  0
  -12.0086  -40.9149  -19.2806 O   0  0  0  0  0  0  0  0  0  0  0  0
  -12.7808  -41.5639  -20.1655 C   0  0  0  0  0  0  0  0  0  0  0  0
  -12.9494  -43.0428  -19.8616 C   0  0  0  0  0  0  0  0  0  0  0  0
  -16.9208  -41.1101  -16.8504 C   0  0  0  0  0  0  0  0  0  0  0  0
  -16.0179  -40.3809  -16.4704 O   0  0  0  0  0  0  0  0  0  0  0  0
  -16.2869  -43.2332  -18.0474 C   0  0  0  0  0  0  0  0  0  0  0  0
  -14.9444  -42.9710  -18.3411 C   0  0  0  0  0  0  0  0  0  0  0  0
  -14.3643  -43.4468  -19.5182 C   0  0  0  0  0  0  0  0  0  0  0  0
  -15.1314  -44.2443  -20.3827 C   0  0  0  0  0  0  0  0  0  0  0  0
  -16.4814  -44.5152  -20.1133 C   0  0  0  0  0  0  0  0  0  0  0  0
  -17.0436  -44.0146  -18.9334 C   0  0  0  0  0  0  0  0  0  0  0  0
  -18.2112  -47.3063  -21.9501 C   0  0  0  0  0  0  0  0  0  0  0  0
  -17.5021  -46.6185  -20.9696 C   0  0  0  0  0  0  0  0  0  0  0  0
  -17.3012  -45.2395  -21.0837 C   0  0  0  0  0  0  0  0  0  0  0  0
  -17.8786  -44.5587  -22.1675 C   0  0  0  0  0  0  0  0  0  0  0  0
  -18.5750  -45.2496  -23.1557 C   0  0  0  0  0  0  0  0  0  0  0  0
  -18.7042  -46.6301  -23.0623 C   0  0  0  0  0  0  0  0  0  0  0  0
  -14.3480  -40.9297  -23.3098 N   0  0  0  0  0  0  0  0  0  0  0  0
  -14.1422  -41.5791  -22.0329 C   0  0  0  0  0  0  0  0  0  0  0  0
  -14.3893  -39.2718  -25.3642 H   0  0  0  0  0  0  0  0  0  0  0  0
  -14.9457  -39.7900  -26.9504 H   0  0  0  0  0  0  0  0  0  0  0  0
  -15.3472  -43.6320  -23.5005 H   0  0  0  0  0  0  0  0  0  0  0  0
  -16.9818  -43.9163  -25.5867 H   0  0  0  0  0  0  0  0  0  0  0  0
  -16.8714  -41.5879  -26.9764 H   0  0  0  0  0  0  0  0  0  0  0  0
  -17.1479  -39.0324  -27.8119 H   0  0  0  0  0  0  0  0  0  0  0  0
  -16.0860  -38.2088  -23.7220 H   0  0  0  0  0  0  0  0  0  0  0  0
  -18.0932  -36.7486  -23.5869 H   0  0  0  0  0  0  0  0  0  0  0  0
  -19.5560  -36.5325  -25.5922 H   0  0  0  0  0  0  0  0  0  0  0  0
  -16.4035  -42.9496  -15.9206 H   0  0  0  0  0  0  0  0  0  0  0  0
  -17.9627  -42.9442  -16.7222 H   0  0  0  0  0  0  0  0  0  0  0  0
  -17.8867  -39.6176  -17.3487 H   0  0  0  0  0  0  0  0  0  0  0  0
  -11.9594  -39.9883  -19.5669 H   0  0  0  0  0  0  0  0  0  0  0  0
  -12.5846  -43.6232  -20.7119 H   0  0  0  0  0  0  0  0  0  0  0  0
  -12.3061  -43.3085  -19.0138 H   0  0  0  0  0  0  0  0  0  0  0  0
  -14.3570  -42.3444  -17.6677 H   0  0  0  0  0  0  0  0  0  0  0  0
  -14.6858  -44.6221  -21.3032 H   0  0  0  0  0  0  0  0  0  0  0  0
  -18.0999  -44.1898  -18.7332 H   0  0  0  0  0  0  0  0  0  0  0  0
  -18.3314  -48.3825  -21.8847 H   0  0  0  0  0  0  0  0  0  0  0  0
  -17.0803  -47.1670  -20.1331 H   0  0  0  0  0  0  0  0  0  0  0  0
  -17.7572  -43.4805  -22.2583 H   0  0  0  0  0  0  0  0  0  0  0  0
  -18.9895  -44.7139  -24.0037 H   0  0  0  0  0  0  0  0  0  0  0  0
  -19.1886  -47.1926  -23.8571 H   0  0  0  0  0  0  0  0  0  0  0  0
  -14.2693  -39.9235  -23.2562 H   0  0  0  0  0  0  0  0  0  0  0  0
  -15.1225  -41.6759  -21.5520 H   0  0  0  0  0  0  0  0  0  0  0  0
  -13.7339  -42.5721  -22.2401 H   0  0  0  0  0  0  0  0  0  0  0  0
  2  3  2  0
  2  6  1  0
  3  4  1  0
  4  5  2  0
  5  6  1  0
  6  1  1  0
  7 12  2  0
  7  8  1  0
  8  1  1  0
  8  9  2  0
  9 10  1  0
 10 11  2  0
 11 12  1  0
 13 19  1  0
 19 20  2  0
 19 14  1  0
 18 17  1  0
 15 17  2  0
 17 16  1  0
 21 26  2  0
 21 13  1  0
 21 22  1  0
 22 23  2  0
 23 24  1  0
 23 18  1  0
 24 25  2  0
 25 29  1  0
 25 26  1  0
 27 32  2  0
 27 28  1  0
 28 29  2  0
 29 30  1  0
 30 31  2  0
 31 32  1  0
 33  2  1  0
 34 33  1  0
 34 15  1  0
  1 35  1  0
  1 36  1  0
  3 37  1  0
  4 38  1  0
  5 39  1  0
  7 40  1  0
  9 41  1  0
 10 42  1  0
 11 43  1  0
 13 44  1  0
 13 45  1  0
 14 46  1  0
 16 47  1  0
 18 48  1  0
 18 49  1  0
 22 50  1  0
 24 51  1  0
 26 52  1  0
 27 53  1  0
 28 54  1  0
 30 55  1  0
 31 56  1  0
 32 57  1  0
 33 58  1  0
 34 59  1  0
 34 60  1  0
M  END
>  <smiles>  (84) 
[H]OC(=O)C([H])([H])c1c([H])c(-c2c([H])c([H])c([H])c([H])c2[H])c([H])c(C([H])([H])/C(=N\C([H])([H])N([H])c2c([H])c([H])c([H])n2C([H])([H])c2c([H])nc([H])c([H])c2[H])O[H])c1[H]

>  <error>  (84) 


>  <∆∆G>  (84) 
-102.569386

>  <∆G_bound>  (84) 
164.888286

>  <∆G_unbound>  (84) 
267.457671

>  <comRMSD>  (84) 
1.362376

>  <N_constrained_atoms>  (84) 
32.0

>  <N_unconstrained_atoms>  (84) 
2.0

>  <runtime>  (84) 
5.192377

>  <regarded>  (84) 
['d0191a', '5hmw-b']

>  <disregarded>  (84) 
[]

>  <LE>  (84) 
3.016747

>  <outcome>  (84) 
too moved

>  <percent_hybrid>  (84) 
38.0

$$$$
LIG
     RDKit          3D

 46 49  0  0  0  0  0  0  0  0999 V2000
  -15.1541  -39.7667  -25.6694 C   0  0  0  0  0  0  0  0  0  0  0  0
  -15.2905  -43.1332  -17.3001 C   0  0  0  0  0  0  0  0  0  0  0  0
  -15.1492  -43.8743  -22.9500 O   0  0  0  0  0  0  0  0  0  0  0  0
  -15.8411  -40.7913  -17.5167 O   0  0  0  0  0  0  0  0  0  0  0  0
  -14.3923  -41.3899  -15.8967 O   0  0  0  0  0  0  0  0  0  0  0  0
  -15.1084  -41.7035  -16.8375 C   0  0  0  0  0  0  0  0  0  0  0  0
  -15.0238  -41.6057  -23.9273 C   0  0  0  0  0  0  0  0  0  0  0  0
  -15.4264  -42.9233  -23.8749 C   0  0  0  0  0  0  0  0  0  0  0  0
  -16.1495  -43.1843  -25.0573 C   0  0  0  0  0  0  0  0  0  0  0  0
  -16.1698  -42.0403  -25.8133 C   0  0  0  0  0  0  0  0  0  0  0  0
  -15.4614  -41.0870  -25.1304 N   0  0  0  0  0  0  0  0  0  0  0  0
  -17.1769  -38.6948  -26.7560 C   0  0  0  0  0  0  0  0  0  0  0  0
  -16.3603  -38.8683  -25.6386 C   0  0  0  0  0  0  0  0  0  0  0  0
  -16.7189  -38.1874  -24.4725 C   0  0  0  0  0  0  0  0  0  0  0  0
  -17.8455  -37.3724  -24.4678 C   0  0  0  0  0  0  0  0  0  0  0  0
  -18.5925  -37.2743  -25.6305 C   0  0  0  0  0  0  0  0  0  0  0  0
  -18.2921  -37.9194  -26.7794 N   0  0  0  0  0  0  0  0  0  0  0  0
  -15.2608  -43.3270  -18.7995 C   0  0  0  0  0  0  0  0  0  0  0  0
  -14.2128  -42.8022  -19.5683 C   0  0  0  0  0  0  0  0  0  0  0  0
  -14.2008  -42.9554  -20.9565 C   0  0  0  0  0  0  0  0  0  0  0  0
  -15.2337  -43.6390  -21.5973 C   0  0  0  0  0  0  0  0  0  0  0  0
  -16.2526  -44.2515  -20.8370 C   0  0  0  0  0  0  0  0  0  0  0  0
  -16.2608  -44.0729  -19.4411 C   0  0  0  0  0  0  0  0  0  0  0  0
  -18.7282  -46.2350  -23.0500 C   0  0  0  0  0  0  0  0  0  0  0  0
  -18.3771  -47.0988  -22.0393 C   0  0  0  0  0  0  0  0  0  0  0  0
  -17.5015  -46.4790  -21.1048 C   0  0  0  0  0  0  0  0  0  0  0  0
  -17.2369  -45.1609  -21.4340 C   0  0  0  0  0  0  0  0  0  0  0  0
  -18.2657  -44.6347  -22.6983 S   0  0  0  0  0  0  0  0  0  0  0  0
  -14.3392  -39.3459  -25.0717 H   0  0  0  0  0  0  0  0  0  0  0  0
  -14.7780  -39.9044  -26.6897 H   0  0  0  0  0  0  0  0  0  0  0  0
  -14.4928  -43.7442  -16.8614 H   0  0  0  0  0  0  0  0  0  0  0  0
  -16.2409  -43.4826  -16.8819 H   0  0  0  0  0  0  0  0  0  0  0  0
  -16.3620  -41.1720  -18.2506 H   0  0  0  0  0  0  0  0  0  0  0  0
  -14.4270  -41.0113  -23.2510 H   0  0  0  0  0  0  0  0  0  0  0  0
  -16.5946  -44.1195  -25.3372 H   0  0  0  0  0  0  0  0  0  0  0  0
  -16.5900  -41.8444  -26.7891 H   0  0  0  0  0  0  0  0  0  0  0  0
  -16.9505  -39.1879  -27.6993 H   0  0  0  0  0  0  0  0  0  0  0  0
  -16.1272  -38.2915  -23.5663 H   0  0  0  0  0  0  0  0  0  0  0  0
  -18.1401  -36.8333  -23.5740 H   0  0  0  0  0  0  0  0  0  0  0  0
  -19.4837  -36.6540  -25.6641 H   0  0  0  0  0  0  0  0  0  0  0  0
  -13.3835  -42.2720  -19.0991 H   0  0  0  0  0  0  0  0  0  0  0  0
  -13.3580  -42.5808  -21.5330 H   0  0  0  0  0  0  0  0  0  0  0  0
  -17.0558  -44.5304  -18.8548 H   0  0  0  0  0  0  0  0  0  0  0  0
  -19.2833  -46.4616  -23.9489 H   0  0  0  0  0  0  0  0  0  0  0  0
  -18.6512  -48.1464  -22.0294 H   0  0  0  0  0  0  0  0  0  0  0  0
  -17.0155  -47.0082  -20.2945 H   0  0  0  0  0  0  0  0  0  0  0  0
  5  6  2  0
  2  6  1  0
  6  4  1  0
  7  8  2  0
  7 11  1  0
  8  9  1  0
  9 10  2  0
 10 11  1  0
 11  1  1  0
 12 17  2  0
 12 13  1  0
 13  1  1  0
 13 14  2  0
 14 15  1  0
 15 16  2  0
 16 17  1  0
 18 23  2  0
 18  2  1  0
 18 19  1  0
 19 20  2  0
 20 21  1  0
 21 22  2  0
 21  3  1  0
 22 27  1  0
 22 23  1  0
 24 25  2  0
 24 28  1  0
 25 26  1  0
 26 27  2  0
 27 28  1  0
  8  3  1  0
  1 29  1  0
  1 30  1  0
  2 31  1  0
  2 32  1  0
  4 33  1  0
  7 34  1  0
  9 35  1  0
 10 36  1  0
 12 37  1  0
 14 38  1  0
 15 39  1  0
 16 40  1  0
 19 41  1  0
 20 42  1  0
 23 43  1  0
 24 44  1  0
 25 45  1  0
 26 46  1  0
M  END
>  <smiles>  (85) 
[H]OC(=O)C([H])([H])c1c([H])c([H])c(Oc2c([H])c([H])n(C([H])([H])c3c([H])nc([H])c([H])c3[H])c2[H])c(-c2sc([H])c([H])c2[H])c1[H]

>  <error>  (85) 


>  <∆∆G>  (85) 
-39.415662

>  <∆G_bound>  (85) 
185.452604

>  <∆G_unbound>  (85) 
224.868266

>  <comRMSD>  (85) 
0.977007

>  <N_constrained_atoms>  (85) 
28.0

>  <N_unconstrained_atoms>  (85) 
0.0

>  <runtime>  (85) 
2.54022

>  <regarded>  (85) 
['d0191a', '5f3z-a']

>  <disregarded>  (85) 
[]

>  <LE>  (85) 
1.407702

>  <outcome>  (85) 
acceptable

>  <percent_hybrid>  (85) 
43.0

$$$$
LIG
     RDKit          3D

 46 49  0  0  0  0  0  0  0  0999 V2000
  -15.1393  -39.7926  -25.6137 C   0  0  0  0  0  0  0  0  0  0  0  0
  -15.3268  -43.2531  -17.2333 C   0  0  0  0  0  0  0  0  0  0  0  0
  -15.1678  -43.9081  -22.8966 O   0  0  0  0  0  0  0  0  0  0  0  0
  -15.7045  -40.8739  -17.3587 O   0  0  0  0  0  0  0  0  0  0  0  0
  -14.2468  -41.6306  -15.8128 O   0  0  0  0  0  0  0  0  0  0  0  0
  -15.0199  -41.8588  -16.7326 C   0  0  0  0  0  0  0  0  0  0  0  0
  -15.0260  -41.6349  -23.8691 C   0  0  0  0  0  0  0  0  0  0  0  0
  -15.4367  -42.9507  -23.8188 C   0  0  0  0  0  0  0  0  0  0  0  0
  -16.1547  -43.2053  -25.0065 C   0  0  0  0  0  0  0  0  0  0  0  0
  -16.1651  -42.0607  -25.7617 C   0  0  0  0  0  0  0  0  0  0  0  0
  -15.4554  -41.1115  -25.0743 N   0  0  0  0  0  0  0  0  0  0  0  0
  -17.1443  -38.7143  -26.7294 C   0  0  0  0  0  0  0  0  0  0  0  0
  -16.3435  -38.8904  -25.6008 C   0  0  0  0  0  0  0  0  0  0  0  0
  -16.7150  -38.2064  -24.4405 C   0  0  0  0  0  0  0  0  0  0  0  0
  -17.8379  -37.3862  -24.4519 C   0  0  0  0  0  0  0  0  0  0  0  0
  -18.5690  -37.2863  -25.6244 C   0  0  0  0  0  0  0  0  0  0  0  0
  -18.2560  -37.9342  -26.7682 N   0  0  0  0  0  0  0  0  0  0  0  0
  -15.2895  -43.4176  -18.7361 C   0  0  0  0  0  0  0  0  0  0  0  0
  -14.2397  -42.8829  -19.4957 C   0  0  0  0  0  0  0  0  0  0  0  0
  -14.2260  -43.0130  -20.8872 C   0  0  0  0  0  0  0  0  0  0  0  0
  -15.2561  -43.6880  -21.5412 C   0  0  0  0  0  0  0  0  0  0  0  0
  -16.2722  -44.3169  -20.7909 C   0  0  0  0  0  0  0  0  0  0  0  0
  -16.2837  -44.1593  -19.3920 C   0  0  0  0  0  0  0  0  0  0  0  0
  -18.7255  -46.2915  -23.0377 C   0  0  0  0  0  0  0  0  0  0  0  0
  -18.3747  -47.1627  -22.0335 C   0  0  0  0  0  0  0  0  0  0  0  0
  -17.5054  -46.5483  -21.0899 C   0  0  0  0  0  0  0  0  0  0  0  0
  -17.2485  -45.2249  -21.4031 C   0  0  0  0  0  0  0  0  0  0  0  0
  -18.2744  -44.6921  -22.6672 S   0  0  0  0  0  0  0  0  0  0  0  0
  -14.3308  -39.3708  -25.0078 H   0  0  0  0  0  0  0  0  0  0  0  0
  -14.7515  -39.9343  -26.6292 H   0  0  0  0  0  0  0  0  0  0  0  0
  -14.6011  -43.9474  -16.7940 H   0  0  0  0  0  0  0  0  0  0  0  0
  -16.3154  -43.5155  -16.8409 H   0  0  0  0  0  0  0  0  0  0  0  0
  -16.2781  -41.1943  -18.0821 H   0  0  0  0  0  0  0  0  0  0  0  0
  -14.4279  -41.0450  -23.1899 H   0  0  0  0  0  0  0  0  0  0  0  0
  -16.6040  -44.1369  -25.2916 H   0  0  0  0  0  0  0  0  0  0  0  0
  -16.5796  -41.8621  -26.7396 H   0  0  0  0  0  0  0  0  0  0  0  0
  -16.9073  -39.2084  -27.6696 H   0  0  0  0  0  0  0  0  0  0  0  0
  -16.1359  -38.3117  -23.5264 H   0  0  0  0  0  0  0  0  0  0  0  0
  -18.1418  -36.8446  -23.5628 H   0  0  0  0  0  0  0  0  0  0  0  0
  -19.4568  -36.6621  -25.6708 H   0  0  0  0  0  0  0  0  0  0  0  0
  -13.4097  -42.3603  -19.0190 H   0  0  0  0  0  0  0  0  0  0  0  0
  -13.3824  -42.6284  -21.4565 H   0  0  0  0  0  0  0  0  0  0  0  0
  -17.0780  -44.6293  -18.8148 H   0  0  0  0  0  0  0  0  0  0  0  0
  -19.2752  -46.5135  -23.9411 H   0  0  0  0  0  0  0  0  0  0  0  0
  -18.6431  -48.2113  -22.0357 H   0  0  0  0  0  0  0  0  0  0  0  0
  -17.0191  -47.0836  -20.2838 H   0  0  0  0  0  0  0  0  0  0  0  0
  5  6  2  0
  2  6  1  0
  6  4  1  0
  7  8  2  0
  7 11  1  0
  8  9  1  0
  9 10  2  0
 10 11  1  0
 11  1  1  0
 12 17  2  0
 12 13  1  0
 13  1  1  0
 13 14  2  0
 14 15  1  0
 15 16  2  0
 16 17  1  0
 18 23  2  0
 18  2  1  0
 18 19  1  0
 19 20  2  0
 20 21  1  0
 21 22  2  0
 21  3  1  0
 22 27  1  0
 22 23  1  0
 24 25  2  0
 24 28  1  0
 25 26  1  0
 26 27  2  0
 27 28  1  0
  8  3  1  0
  1 29  1  0
  1 30  1  0
  2 31  1  0
  2 32  1  0
  4 33  1  0
  7 34  1  0
  9 35  1  0
 10 36  1  0
 12 37  1  0
 14 38  1  0
 15 39  1  0
 16 40  1  0
 19 41  1  0
 20 42  1  0
 23 43  1  0
 24 44  1  0
 25 45  1  0
 26 46  1  0
M  END
>  <smiles>  (86) 
[H]OC(=O)C([H])([H])c1c([H])c([H])c(Oc2c([H])c([H])n(C([H])([H])c3c([H])nc([H])c([H])c3[H])c2[H])c(-c2sc([H])c([H])c2[H])c1[H]

>  <error>  (86) 


>  <∆∆G>  (86) 
-38.88206

>  <∆G_bound>  (86) 
185.986206

>  <∆G_unbound>  (86) 
224.868266

>  <comRMSD>  (86) 
0.975912

>  <N_constrained_atoms>  (86) 
28.0

>  <N_unconstrained_atoms>  (86) 
0.0

>  <runtime>  (86) 
2.959852

>  <regarded>  (86) 
['d0191a', '6h9r-a']

>  <disregarded>  (86) 
[]

>  <LE>  (86) 
1.388645

>  <outcome>  (86) 
acceptable

>  <percent_hybrid>  (86) 
43.0

$$$$
LIG
     RDKit          3D

 49 52  0  0  0  0  0  0  0  0999 V2000
  -15.1742  -39.8023  -25.6996 C   0  0  0  0  0  0  0  0  0  0  0  0
  -13.9326  -44.4316  -16.7504 O   0  0  0  0  0  0  0  0  0  0  0  0
  -15.1431  -43.6197  -15.0429 O   0  0  0  0  0  0  0  0  0  0  0  0
  -14.8673  -43.7458  -16.3627 C   0  0  0  0  0  0  0  0  0  0  0  0
  -15.8174  -42.9666  -17.2465 C   0  0  0  0  0  0  0  0  0  0  0  0
  -15.1578  -43.8123  -22.8491 O   0  0  0  0  0  0  0  0  0  0  0  0
  -15.0398  -41.5868  -23.9044 C   0  0  0  0  0  0  0  0  0  0  0  0
  -15.4524  -42.8982  -23.8044 C   0  0  0  0  0  0  0  0  0  0  0  0
  -16.1808  -43.1975  -24.9746 C   0  0  0  0  0  0  0  0  0  0  0  0
  -16.2018  -42.0770  -25.7664 C   0  0  0  0  0  0  0  0  0  0  0  0
  -15.4837  -41.1048  -25.1194 N   0  0  0  0  0  0  0  0  0  0  0  0
  -17.1960  -38.7161  -26.7730 C   0  0  0  0  0  0  0  0  0  0  0  0
  -16.3706  -38.8910  -25.6626 C   0  0  0  0  0  0  0  0  0  0  0  0
  -16.7116  -38.1999  -24.4969 C   0  0  0  0  0  0  0  0  0  0  0  0
  -17.8307  -37.3747  -24.4858 C   0  0  0  0  0  0  0  0  0  0  0  0
  -18.5879  -37.2765  -25.6419 C   0  0  0  0  0  0  0  0  0  0  0  0
  -18.3046  -37.9309  -26.7900 N   0  0  0  0  0  0  0  0  0  0  0  0
  -15.3589  -43.5610  -21.5091 C   0  0  0  0  0  0  0  0  0  0  0  0
  -14.4092  -42.8293  -20.7984 C   0  0  0  0  0  0  0  0  0  0  0  0
  -14.5506  -42.6506  -19.4192 C   0  0  0  0  0  0  0  0  0  0  0  0
  -15.6357  -43.2102  -18.7294 C   0  0  0  0  0  0  0  0  0  0  0  0
  -16.5517  -43.9973  -19.4418 C   0  0  0  0  0  0  0  0  0  0  0  0
  -16.4220  -44.1974  -20.8300 C   0  0  0  0  0  0  0  0  0  0  0  0
  -18.8194  -45.5832  -23.3814 C   0  0  0  0  0  0  0  0  0  0  0  0
  -18.1265  -44.6732  -22.5928 C   0  0  0  0  0  0  0  0  0  0  0  0
  -17.3405  -45.1125  -21.5195 C   0  0  0  0  0  0  0  0  0  0  0  0
  -17.3834  -46.4689  -21.1638 C   0  0  0  0  0  0  0  0  0  0  0  0
  -18.1150  -47.3725  -21.9238 C   0  0  0  0  0  0  0  0  0  0  0  0
  -18.7790  -46.9375  -23.0641 C   0  0  0  0  0  0  0  0  0  0  0  0
  -14.3408  -39.3747  -25.1332 H   0  0  0  0  0  0  0  0  0  0  0  0
  -14.8247  -39.9707  -26.7248 H   0  0  0  0  0  0  0  0  0  0  0  0
  -15.9966  -43.1807  -14.8455 H   0  0  0  0  0  0  0  0  0  0  0  0
  -16.8439  -43.2252  -16.9616 H   0  0  0  0  0  0  0  0  0  0  0  0
  -15.6775  -41.8982  -17.0441 H   0  0  0  0  0  0  0  0  0  0  0  0
  -14.4296  -40.9791  -23.2521 H   0  0  0  0  0  0  0  0  0  0  0  0
  -16.6255  -44.1427  -25.2214 H   0  0  0  0  0  0  0  0  0  0  0  0
  -16.6244  -41.9108  -26.7466 H   0  0  0  0  0  0  0  0  0  0  0  0
  -16.9829  -39.2166  -27.7156 H   0  0  0  0  0  0  0  0  0  0  0  0
  -16.1120  -38.3054  -23.5960 H   0  0  0  0  0  0  0  0  0  0  0  0
  -18.1116  -36.8282  -23.5923 H   0  0  0  0  0  0  0  0  0  0  0  0
  -19.4737  -36.6484  -25.6706 H   0  0  0  0  0  0  0  0  0  0  0  0
  -13.5367  -42.4307  -21.3103 H   0  0  0  0  0  0  0  0  0  0  0  0
  -13.7920  -42.0783  -18.8874 H   0  0  0  0  0  0  0  0  0  0  0  0
  -17.3869  -44.4608  -18.9204 H   0  0  0  0  0  0  0  0  0  0  0  0
  -19.3698  -45.2408  -24.2520 H   0  0  0  0  0  0  0  0  0  0  0  0
  -18.1448  -43.6184  -22.8569 H   0  0  0  0  0  0  0  0  0  0  0  0
  -16.7879  -46.8371  -20.3334 H   0  0  0  0  0  0  0  0  0  0  0  0
  -18.0878  -48.4309  -21.6919 H   0  0  0  0  0  0  0  0  0  0  0  0
  -19.2629  -47.6668  -23.7087 H   0  0  0  0  0  0  0  0  0  0  0  0
  2  4  2  0
  5  4  1  0
  4  3  1  0
  7  8  2  0
  7 11  1  0
  8  9  1  0
  9 10  2  0
 10 11  1  0
 11  1  1  0
 12 17  2  0
 12 13  1  0
 13  1  1  0
 13 14  2  0
 14 15  1  0
 15 16  2  0
 16 17  1  0
 18 23  1  0
 18  6  1  0
 18 19  2  0
 19 20  1  0
 20 21  2  0
 21 22  1  0
 21  5  1  0
 22 23  2  0
 23 26  1  0
 24 29  2  0
 24 25  1  0
 25 26  2  0
 26 27  1  0
 27 28  2  0
 28 29  1  0
  8  6  1  0
  1 30  1  0
  1 31  1  0
  3 32  1  0
  5 33  1  0
  5 34  1  0
  7 35  1  0
  9 36  1  0
 10 37  1  0
 12 38  1  0
 14 39  1  0
 15 40  1  0
 16 41  1  0
 19 42  1  0
 20 43  1  0
 22 44  1  0
 24 45  1  0
 25 46  1  0
 27 47  1  0
 28 48  1  0
 29 49  1  0
M  END
>  <smiles>  (87) 
[H]OC(=O)C([H])([H])c1c([H])c([H])c(Oc2c([H])c([H])n(C([H])([H])c3c([H])nc([H])c([H])c3[H])c2[H])c(-c2c([H])c([H])c([H])c([H])c2[H])c1[H]

>  <error>  (87) 


>  <∆∆G>  (87) 
-52.209301

>  <∆G_bound>  (87) 
180.647391

>  <∆G_unbound>  (87) 
232.856692

>  <comRMSD>  (87) 
1.013835

>  <N_constrained_atoms>  (87) 
29.0

>  <N_unconstrained_atoms>  (87) 
0.0

>  <runtime>  (87) 
3.44197

>  <regarded>  (87) 
['d0191a', '5f3t-a']

>  <disregarded>  (87) 
[]

>  <LE>  (87) 
1.800321

>  <outcome>  (87) 
too moved

>  <percent_hybrid>  (87) 
42.0

$$$$
LIG
     RDKit          3D

 56 59  0  0  0  0  0  0  0  0999 V2000
  -19.1241  -44.8203  -22.4775 O   0  0  0  0  0  0  0  0  0  0  0  0
  -18.0457  -44.8951  -22.0271 C   0  0  0  0  0  0  0  0  0  0  0  0
  -16.7244  -44.1870  -22.4499 N   0  0  0  0  0  0  0  0  0  0  0  0
  -15.4996  -40.2349  -26.2632 C   0  0  0  0  0  0  0  0  0  0  0  0
  -16.2533  -46.0684  -20.7610 O   0  0  0  0  0  0  0  0  0  0  0  0
  -15.7711  -45.5723  -19.5045 C   0  0  0  0  0  0  0  0  0  0  0  0
  -16.8361  -44.6461  -18.9809 C   0  0  0  0  0  0  0  0  0  0  0  0
  -18.0915  -45.3652  -19.4241 C   0  0  2  0  0  0  0  0  0  0  0  0
  -17.6885  -45.8399  -20.8357 C   0  0  1  0  0  0  0  0  0  0  0  0
  -17.4296  -42.9071  -24.3772 C   0  0  0  0  0  0  0  0  0  0  0  0
  -16.4930  -43.2191  -23.4047 C   0  0  0  0  0  0  0  0  0  0  0  0
  -15.2905  -42.6198  -23.3296 N   0  0  0  0  0  0  0  0  0  0  0  0
  -15.0126  -41.6730  -24.2560 C   0  0  0  0  0  0  0  0  0  0  0  0
  -15.8681  -41.3060  -25.2847 C   0  0  0  0  0  0  0  0  0  0  0  0
  -17.1080  -41.9405  -25.3317 C   0  0  0  0  0  0  0  0  0  0  0  0
  -23.1670  -40.6522  -17.0569 O   0  0  0  0  0  0  0  0  0  0  0  0
  -23.4376  -41.5828  -17.7179 C   0  0  0  0  0  0  0  0  0  0  0  0
  -24.9875  -42.3796  -19.5754 C   0  0  0  0  0  0  0  0  0  0  0  0
  -25.5417  -41.7749  -20.6660 N   0  0  0  0  0  0  0  0  0  0  0  0
  -25.1879  -40.4818  -20.7914 N   0  0  0  0  0  0  0  0  0  0  0  0
  -24.3563  -40.2853  -19.7636 C   0  0  0  0  0  0  0  0  0  0  0  0
  -24.1953  -41.4324  -18.9542 C   0  0  0  0  0  0  0  0  0  0  0  0
  -21.8293  -43.4439  -18.1166 C   0  0  0  0  0  0  0  0  0  0  0  0
  -23.1607  -43.0399  -17.5018 N   0  0  0  0  0  0  0  0  0  0  0  0
  -22.5392  -43.7666  -16.3176 C   0  0  0  0  0  0  0  0  0  0  0  0
  -22.5284  -45.3095  -16.4097 C   0  0  0  0  0  0  0  0  0  0  0  0
  -21.5244  -45.7142  -17.3439 O   0  0  0  0  0  0  0  0  0  0  0  0
  -21.6959  -44.9210  -18.5199 C   0  0  2  0  0  0  0  0  0  0  0  0
  -19.2482  -44.5338  -19.1122 N   0  0  0  0  0  0  0  0  0  0  0  0
  -20.5140  -45.1757  -19.4896 C   0  0  0  0  0  0  0  0  0  0  0  0
  -15.9912  -44.4171  -21.7909 H   0  0  0  0  0  0  0  0  0  0  0  0
  -15.9780  -39.2910  -25.9845 H   0  0  0  0  0  0  0  0  0  0  0  0
  -14.4171  -40.0781  -26.2956 H   0  0  0  0  0  0  0  0  0  0  0  0
  -15.8192  -40.5124  -27.2734 H   0  0  0  0  0  0  0  0  0  0  0  0
  -15.6201  -46.4298  -18.8398 H   0  0  0  0  0  0  0  0  0  0  0  0
  -14.8108  -45.0710  -19.6525 H   0  0  0  0  0  0  0  0  0  0  0  0
  -16.7564  -44.4852  -17.9038 H   0  0  0  0  0  0  0  0  0  0  0  0
  -16.7569  -43.6669  -19.4705 H   0  0  0  0  0  0  0  0  0  0  0  0
  -18.1671  -46.2666  -18.7981 H   0  0  0  0  0  0  0  0  0  0  0  0
  -18.1566  -46.8046  -21.0660 H   0  0  0  0  0  0  0  0  0  0  0  0
  -18.3942  -43.3986  -24.4094 H   0  0  0  0  0  0  0  0  0  0  0  0
  -14.0449  -41.1976  -24.1390 H   0  0  0  0  0  0  0  0  0  0  0  0
  -17.8311  -41.6773  -26.0992 H   0  0  0  0  0  0  0  0  0  0  0  0
  -25.1904  -43.4191  -19.3520 H   0  0  0  0  0  0  0  0  0  0  0  0
  -23.9109  -39.3076  -19.6232 H   0  0  0  0  0  0  0  0  0  0  0  0
  -20.9458  -42.9889  -17.6348 H   0  0  0  0  0  0  0  0  0  0  0  0
  -21.8310  -42.9049  -19.0774 H   0  0  0  0  0  0  0  0  0  0  0  0
  -21.6251  -43.3102  -15.9018 H   0  0  0  0  0  0  0  0  0  0  0  0
  -23.2677  -43.5395  -15.5238 H   0  0  0  0  0  0  0  0  0  0  0  0
  -22.2813  -45.7487  -15.4384 H   0  0  0  0  0  0  0  0  0  0  0  0
  -23.5022  -45.6990  -16.7291 H   0  0  0  0  0  0  0  0  0  0  0  0
  -22.6256  -45.2439  -19.0035 H   0  0  0  0  0  0  0  0  0  0  0  0
  -19.2586  -44.3657  -18.1071 H   0  0  0  0  0  0  0  0  0  0  0  0
  -20.7845  -44.7883  -20.4763 H   0  0  0  0  0  0  0  0  0  0  0  0
  -20.3748  -46.2611  -19.5603 H   0  0  0  0  0  0  0  0  0  0  0  0
  -26.1134  -42.2069  -21.3853 H   0  0  0  0  0  0  0  0  0  0  0  0
  3  2  1  0
  2  1  2  0
  5  6  1  0
  5  9  1  0
  6  7  1  0
  7  8  1  0
  8  9  1  0
  9  2  1  0
 10 15  2  0
 10 11  1  0
 11  3  1  0
 11 12  2  0
 12 13  1  0
 13 14  2  0
 14  4  1  0
 14 15  1  0
 17 16  2  0
 18 19  1  0
 18 22  2  0
 19 20  1  0
 20 21  2  0
 21 22  1  0
 22 17  1  0
 23 28  1  0
 23 24  1  0
 24 17  1  0
 24 25  1  0
 25 26  1  0
 26 27  1  0
 27 28  1  0
 29  8  1  0
 30 29  1  0
 30 28  1  0
  3 31  1  0
  4 32  1  0
  4 33  1  0
  4 34  1  0
  6 35  1  0
  6 36  1  0
  7 37  1  0
  7 38  1  0
  8 39  1  6
  9 40  1  6
 10 41  1  0
 13 42  1  0
 15 43  1  0
 18 44  1  0
 21 45  1  0
 23 46  1  0
 23 47  1  0
 25 48  1  0
 25 49  1  0
 26 50  1  0
 26 51  1  0
 28 52  1  6
 29 53  1  0
 30 54  1  0
 30 55  1  0
 19 56  1  0
M  END
>  <smiles>  (88) 
[H]c1n[nH]c([H])c1C(=O)N1C([H])([H])C([H])([H])O[C@]([H])(C([H])([H])N([H])[C@@]2([H])C([H])([H])C([H])([H])O[C@]2([H])C(=O)N([H])c2nc([H])c(C([H])([H])[H])c([H])c2[H])C1([H])[H]

>  <error>  (88) 


>  <∆∆G>  (88) 
-44.43188

>  <∆G_bound>  (88) 
420.649653

>  <∆G_unbound>  (88) 
465.081533

>  <comRMSD>  (88) 
1.943746

>  <N_constrained_atoms>  (88) 
28.0

>  <N_unconstrained_atoms>  (88) 
2.0

>  <runtime>  (88) 
8.756736

>  <regarded>  (88) 
['d0254a', 'z0471a']

>  <disregarded>  (88) 
[]

>  <LE>  (88) 
1.481063

>  <outcome>  (88) 
too moved

>  <percent_hybrid>  (88) 
47.0

$$$$
LIG
     RDKit          3D

 36 39  0  0  0  0  0  0  0  0999 V2000
  -18.1966  -45.3360  -23.1440 O   0  0  0  0  0  0  0  0  0  0  0  0
  -17.3509  -45.1248  -22.3586 C   0  0  0  0  0  0  0  0  0  0  0  0
  -16.2235  -44.0371  -22.3495 N   0  0  0  0  0  0  0  0  0  0  0  0
  -16.2262  -45.3187  -20.1473 O   0  0  0  0  0  0  0  0  0  0  0  0
  -16.8979  -44.7471  -19.0182 C   0  0  0  0  0  0  0  0  0  0  0  0
  -18.1589  -45.5552  -18.8533 C   0  0  0  0  0  0  0  0  0  0  0  0
  -18.5614  -45.8192  -20.2789 C   0  0  0  0  0  0  0  0  0  0  0  0
  -17.2284  -45.8829  -21.0194 C   0  0  1  0  0  0  0  0  0  0  0  0
  -16.7907  -42.9011  -24.2862 C   0  0  0  0  0  0  0  0  0  0  0  0
  -15.9851  -42.9898  -23.2113 C   0  0  0  0  0  0  0  0  0  0  0  0
  -14.9956  -41.9981  -22.9840 N   0  0  0  0  0  0  0  0  0  0  0  0
  -14.8533  -40.8809  -23.8449 C   0  0  0  0  0  0  0  0  0  0  0  0
  -15.6702  -40.8458  -25.0930 C   0  0  0  0  0  0  0  0  0  0  0  0
  -16.6541  -41.8099  -25.2314 C   0  0  0  0  0  0  0  0  0  0  0  0
  -14.1532  -42.0121  -21.8981 C   0  0  0  0  0  0  0  0  0  0  0  0
  -13.3146  -40.8286  -21.6878 C   0  0  0  0  0  0  0  0  0  0  0  0
  -13.2848  -39.8008  -22.4712 N   0  0  0  0  0  0  0  0  0  0  0  0
  -14.0823  -39.8440  -23.6303 N   0  0  0  0  0  0  0  0  0  0  0  0
  -15.5230  -39.8565  -26.0629 C   0  0  0  0  0  0  0  0  0  0  0  0
  -16.4075  -39.8581  -27.1275 C   0  0  0  0  0  0  0  0  0  0  0  0
  -17.4175  -40.7451  -27.2653 N   0  0  0  0  0  0  0  0  0  0  0  0
  -17.5201  -41.6804  -26.2977 C   0  0  0  0  0  0  0  0  0  0  0  0
  -15.7108  -44.0862  -21.4736 H   0  0  0  0  0  0  0  0  0  0  0  0
  -16.2429  -44.7870  -18.1445 H   0  0  0  0  0  0  0  0  0  0  0  0
  -17.1192  -43.6982  -19.2445 H   0  0  0  0  0  0  0  0  0  0  0  0
  -17.9238  -46.5021  -18.3612 H   0  0  0  0  0  0  0  0  0  0  0  0
  -18.9288  -45.0422  -18.2730 H   0  0  0  0  0  0  0  0  0  0  0  0
  -19.1407  -46.7406  -20.3920 H   0  0  0  0  0  0  0  0  0  0  0  0
  -19.1896  -44.9978  -20.6452 H   0  0  0  0  0  0  0  0  0  0  0  0
  -16.9330  -46.9145  -21.2371 H   0  0  0  0  0  0  0  0  0  0  0  0
  -17.5671  -43.6217  -24.5029 H   0  0  0  0  0  0  0  0  0  0  0  0
  -14.0559  -42.8741  -21.2587 H   0  0  0  0  0  0  0  0  0  0  0  0
  -12.6801  -40.8427  -20.7877 H   0  0  0  0  0  0  0  0  0  0  0  0
  -14.7500  -39.1004  -25.9904 H   0  0  0  0  0  0  0  0  0  0  0  0
  -16.3438  -39.1059  -27.9074 H   0  0  0  0  0  0  0  0  0  0  0  0
  -18.3704  -42.3416  -26.3955 H   0  0  0  0  0  0  0  0  0  0  0  0
  3  2  1  0
  2  1  2  0
  4  5  1  0
  4  8  1  0
  5  6  1  0
  6  7  1  0
  7  8  1  0
  8  2  1  0
  9 14  1  0
  9 10  2  0
 10  3  1  0
 10 11  1  0
 11 12  1  0
 12 13  1  0
 13 14  2  0
 15 16  1  0
 16 17  2  0
 17 18  1  0
 19 20  2  0
 20 21  1  0
 21 22  2  0
 13 19  1  0
 14 22  1  0
 12 18  2  0
 11 15  4  0
  3 23  1  0
  5 24  1  0
  5 25  1  0
  6 26  1  0
  6 27  1  0
  7 28  1  0
  7 29  1  0
  8 30  1  6
  9 31  1  0
 15 32  1  0
 16 33  1  0
 19 34  1  0
 20 35  1  0
 22 36  1  0
M  END
>  <smiles>  (89) 
[H]C1=NN=C2c3c([H])c([H])nc([H])c3C([H])=C(N([H])C(=O)[C@@]3([H])OC([H])([H])C([H])([H])C3([H])[H])N2:C1[H]

>  <error>  (89) 


>  <∆∆G>  (89) 
-21.584276

>  <∆G_bound>  (89) 
165.092296

>  <∆G_unbound>  (89) 
186.676572

>  <comRMSD>  (89) 
0.491698

>  <N_constrained_atoms>  (89) 
22.0

>  <N_unconstrained_atoms>  (89) 
0.0

>  <runtime>  (89) 
2.295654

>  <regarded>  (89) 
['d0254a', 'd0160a']

>  <disregarded>  (89) 
[]

>  <LE>  (89) 
0.981103

>  <outcome>  (89) 
acceptable

>  <percent_hybrid>  (89) 
37.0

$$$$
LIG
     RDKit          3D

 38 40  0  0  0  0  0  0  0  0999 V2000
  -18.5629  -45.5622  -23.3420 O   0  0  0  0  0  0  0  0  0  0  0  0
  -17.7115  -45.3182  -22.5768 C   0  0  0  0  0  0  0  0  0  0  0  0
  -16.5667  -44.2680  -22.6444 N   0  0  0  0  0  0  0  0  0  0  0  0
  -15.4868  -40.0246  -26.1849 C   0  0  0  0  0  0  0  0  0  0  0  0
  -16.3932  -45.6400  -20.4726 O   0  0  0  0  0  0  0  0  0  0  0  0
  -16.7763  -44.9691  -19.2655 C   0  0  0  0  0  0  0  0  0  0  0  0
  -18.1696  -45.4503  -18.9510 C   0  0  0  0  0  0  0  0  0  0  0  0
  -18.7740  -45.6098  -20.3205 C   0  0  0  0  0  0  0  0  0  0  0  0
  -17.5882  -46.0035  -21.1932 C   0  0  1  0  0  0  0  0  0  0  0  0
  -17.1150  -43.1169  -24.6874 C   0  0  0  0  0  0  0  0  0  0  0  0
  -16.3053  -43.2882  -23.5771 C   0  0  0  0  0  0  0  0  0  0  0  0
  -15.2533  -42.4926  -23.3099 N   0  0  0  0  0  0  0  0  0  0  0  0
  -15.0043  -41.4838  -24.1769 C   0  0  0  0  0  0  0  0  0  0  0  0
  -15.7616  -41.2219  -25.3116 C   0  0  0  0  0  0  0  0  0  0  0  0
  -16.8341  -42.0763  -25.5674 C   0  0  0  0  0  0  0  0  0  0  0  0
  -17.5191  -38.7560  -27.0054 C   0  0  0  0  0  0  0  0  0  0  0  0
  -16.5456  -38.9598  -26.0302 C   0  0  0  0  0  0  0  0  0  0  0  0
  -16.6269  -38.1800  -24.8730 C   0  0  0  0  0  0  0  0  0  0  0  0
  -17.6558  -37.2547  -24.7345 C   0  0  0  0  0  0  0  0  0  0  0  0
  -18.5818  -37.1434  -25.7592 C   0  0  0  0  0  0  0  0  0  0  0  0
  -18.5445  -37.8732  -26.8974 N   0  0  0  0  0  0  0  0  0  0  0  0
  -15.9532  -44.3820  -21.8418 H   0  0  0  0  0  0  0  0  0  0  0  0
  -14.5055  -39.5928  -25.9536 H   0  0  0  0  0  0  0  0  0  0  0  0
  -15.4227  -40.3538  -27.2301 H   0  0  0  0  0  0  0  0  0  0  0  0
  -16.0579  -45.1973  -18.4737 H   0  0  0  0  0  0  0  0  0  0  0  0
  -16.7598  -43.8902  -19.4549 H   0  0  0  0  0  0  0  0  0  0  0  0
  -18.1220  -46.4225  -18.4538 H   0  0  0  0  0  0  0  0  0  0  0  0
  -18.7252  -44.7630  -18.3089 H   0  0  0  0  0  0  0  0  0  0  0  0
  -19.5701  -46.3599  -20.3441 H   0  0  0  0  0  0  0  0  0  0  0  0
  -19.2137  -44.6597  -20.6483 H   0  0  0  0  0  0  0  0  0  0  0  0
  -17.5482  -47.0860  -21.3564 H   0  0  0  0  0  0  0  0  0  0  0  0
  -17.9684  -43.7566  -24.8699 H   0  0  0  0  0  0  0  0  0  0  0  0
  -14.1582  -40.8588  -23.9069 H   0  0  0  0  0  0  0  0  0  0  0  0
  -17.4763  -41.9179  -26.4273 H   0  0  0  0  0  0  0  0  0  0  0  0
  -17.5065  -39.3229  -27.9328 H   0  0  0  0  0  0  0  0  0  0  0  0
  -15.8989  -38.2973  -24.0748 H   0  0  0  0  0  0  0  0  0  0  0  0
  -17.7390  -36.6420  -23.8438 H   0  0  0  0  0  0  0  0  0  0  0  0
  -19.4058  -36.4393  -25.6851 H   0  0  0  0  0  0  0  0  0  0  0  0
  3  2  1  0
  2  1  2  0
  5  6  1  0
  5  9  1  0
  6  7  1  0
  7  8  1  0
  8  9  1  0
  9  2  1  0
 10 15  2  0
 10 11  1  0
 11  3  1  0
 11 12  2  0
 12 13  1  0
 13 14  2  0
 14  4  1  0
 14 15  1  0
 16 21  2  0
 16 17  1  0
 17 18  2  0
 18 19  1  0
 19 20  2  0
 20 21  1  0
  4 17  1  0
  3 22  1  0
  4 23  1  0
  4 24  1  0
  6 25  1  0
  6 26  1  0
  7 27  1  0
  7 28  1  0
  8 29  1  0
  8 30  1  0
  9 31  1  6
 10 32  1  0
 13 33  1  0
 15 34  1  0
 16 35  1  0
 18 36  1  0
 19 37  1  0
 20 38  1  0
M  END
>  <smiles>  (90) 
[H]c1nc([H])c(C([H])([H])c2c([H])nc(N([H])C(=O)[C@@]3([H])OC([H])([H])C([H])([H])C3([H])[H])c([H])c2[H])c([H])c1[H]

>  <error>  (90) 


>  <∆∆G>  (90) 
-36.14009

>  <∆G_bound>  (90) 
223.375513

>  <∆G_unbound>  (90) 
259.515603

>  <comRMSD>  (90) 
0.349275

>  <N_constrained_atoms>  (90) 
21.0

>  <N_unconstrained_atoms>  (90) 
0.0

>  <runtime>  (90) 
1.278903

>  <regarded>  (90) 
['d0254a', 'd0191a']

>  <disregarded>  (90) 
[]

>  <LE>  (90) 
1.720957

>  <outcome>  (90) 
acceptable

>  <percent_hybrid>  (90) 
29.0

$$$$

     RDKit          2D

  0  0  0  0  0  0  0  0  0  0999 V2000
M  END
>  <smiles>  (91) 
nan

>  <error>  (91) 
TimeoutError

>  <∆∆G>  (91) 
nan

>  <∆G_bound>  (91) 
nan

>  <∆G_unbound>  (91) 
nan

>  <comRMSD>  (91) 
nan

>  <N_constrained_atoms>  (91) 
nan

>  <N_unconstrained_atoms>  (91) 
nan

>  <runtime>  (91) 
nan

>  <regarded>  (91) 
[]

>  <disregarded>  (91) 
[]

>  <LE>  (91) 
nan

>  <outcome>  (91) 
timeout

>  <percent_hybrid>  (91) 
nan

$$$$
LIG
     RDKit          3D

 53 56  0  0  0  0  0  0  0  0999 V2000
  -18.5140  -44.9440  -23.0850 O   0  0  0  0  0  0  0  0  0  0  0  0
  -16.4730  -44.1500  -22.4210 C   0  0  1  0  0  0  0  0  0  0  0  0
  -15.1640  -40.1290  -26.1880 C   0  0  0  0  0  0  0  0  0  0  0  0
  -16.4130  -45.7010  -20.2780 C   0  0  2  0  0  0  0  0  0  0  0  0
  -16.7580  -45.4230  -18.9190 C   0  0  0  0  0  0  0  0  0  0  0  0
  -18.2140  -45.7750  -18.7620 C   0  0  0  0  0  0  0  0  0  0  0  0
  -18.7790  -45.4810  -20.1350 C   0  0  0  0  0  0  0  0  0  0  0  0
  -17.6230  -45.8150  -21.0530 C   0  0  1  0  0  0  0  0  0  0  0  0
  -16.8900  -43.1390  -24.6480 C   0  0  0  0  0  0  0  0  0  0  0  0
  -16.1690  -43.2350  -23.4440 C   0  0  0  0  0  0  0  0  0  0  0  0
  -15.1490  -42.4110  -23.1580 N   0  0  0  0  0  0  0  0  0  0  0  0
  -14.8480  -41.4540  -24.0500 C   0  0  0  0  0  0  0  0  0  0  0  0
  -15.5130  -41.2620  -25.2530 C   0  0  0  0  0  0  0  0  0  0  0  0
  -16.5400  -42.1420  -25.5370 C   0  0  0  0  0  0  0  0  0  0  0  0
  -15.1370  -44.0180  -21.4420 C   0  0  0  0  0  0  0  0  0  0  0  0
  -15.0140  -45.4870  -19.5210 N   0  0  0  0  0  0  0  0  0  0  0  0
  -13.9920  -44.7430  -19.0650 C   0  0  0  0  0  0  0  0  0  0  0  0
  -13.4830  -43.6510  -19.7350 C   0  0  0  0  0  0  0  0  0  0  0  0
  -14.0650  -43.2880  -20.9320 C   0  0  0  0  0  0  0  0  0  0  0  0
  -17.5610  -45.7280  -22.0730 C   0  0  1  0  0  0  0  0  0  0  0  0
  -17.4935  -44.5470  -22.7530 C   0  0  0  0  0  0  0  0  0  0  0  0
  -19.1873  -45.2059  -22.4081 H   0  0  0  0  0  0  0  0  0  0  0  0
  -14.8902  -39.2401  -25.6007 H   0  0  0  0  0  0  0  0  0  0  0  0
  -14.3154  -40.4251  -26.8222 H   0  0  0  0  0  0  0  0  0  0  0  0
  -16.0321  -39.8963  -26.8222 H   0  0  0  0  0  0  0  0  0  0  0  0
  -16.0899  -45.0286  -18.1392 H   0  0  0  0  0  0  0  0  0  0  0  0
  -17.0364  -44.3965  -19.1997 H   0  0  0  0  0  0  0  0  0  0  0  0
  -18.7369  -46.1521  -17.8707 H   0  0  0  0  0  0  0  0  0  0  0  0
  -18.4303  -44.7420  -18.4518 H   0  0  0  0  0  0  0  0  0  0  0  0
  -19.7819  -45.1150  -20.4001 H   0  0  0  0  0  0  0  0  0  0  0  0
  -18.4202  -44.4438  -20.0606 H   0  0  0  0  0  0  0  0  0  0  0  0
  -18.0070  -46.8398  -21.1638 H   0  0  0  0  0  0  0  0  0  0  0  0
  -17.7087  -43.8377  -24.8747 H   0  0  0  0  0  0  0  0  0  0  0  0
  -14.0165  -40.7748  -23.8108 H   0  0  0  0  0  0  0  0  0  0  0  0
  -17.0874  -42.0467  -26.4864 H   0  0  0  0  0  0  0  0  0  0  0  0
  -15.0601  -44.9985  -20.9494 H   0  0  0  0  0  0  0  0  0  0  0  0
  -15.7740  -43.6558  -20.6216 H   0  0  0  0  0  0  0  0  0  0  0  0
  -14.7621  -46.4396  -19.2211 H   0  0  0  0  0  0  0  0  0  0  0  0
  -13.5361  -45.0209  -18.1033 H   0  0  0  0  0  0  0  0  0  0  0  0
  -13.2811  -45.3971  -19.5911 H   0  0  0  0  0  0  0  0  0  0  0  0
  -12.6343  -43.0835  -19.3256 H   0  0  0  0  0  0  0  0  0  0  0  0
  -12.7840  -44.3075  -20.2739 H   0  0  0  0  0  0  0  0  0  0  0  0
  -13.6813  -42.4187  -21.4862 H   0  0  0  0  0  0  0  0  0  0  0  0
  -14.7665  -42.6345  -20.3927 H   0  0  0  0  0  0  0  0  0  0  0  0
  -18.1066  -46.1163  -22.9457 H   0  0  0  0  0  0  0  0  0  0  0  0
  -16.5435  -43.5970  -21.8030 H   0  0  0  0  0  0  0  0  0  0  0  0
  -16.5335  -43.5870  -21.7930 H   0  0  0  0  0  0  0  0  0  0  0  0
  -16.9870  -45.7145  -21.1755 C   0  0  0  0  0  0  0  0  0  0  0  0
  -17.5920  -45.7715  -21.5630 C   0  0  0  0  0  0  0  0  0  0  0  0
  -15.9970  -44.7245  -20.1855 H   0  0  0  0  0  0  0  0  0  0  0  0
  -15.9870  -44.7145  -20.1755 H   0  0  0  0  0  0  0  0  0  0  0  0
  -16.5820  -44.7615  -20.5530 H   0  0  0  0  0  0  0  0  0  0  0  0
  -16.5720  -44.7515  -20.5430 H   0  0  0  0  0  0  0  0  0  0  0  0
  4  5  1  0
  5  6  1  0
  6  7  1  0
  7  8  1  0
  9 14  2  0
  9 10  1  0
 10  2  1  0
 10 11  2  0
 11 12  1  0
 12 13  2  0
 13  3  1  0
 13 14  1  0
 15 19  1  0
 16 17  1  0
 17 18  1  0
 18 19  1  0
  4 16  1  1
 20  2  1  0
  2 15  1  0
 21  1  1  0
  2 21  1  1
  1 22  1  0
  3 23  1  0
  3 24  1  0
  3 25  1  0
  5 26  1  0
  5 27  1  0
  6 28  1  0
  6 29  1  0
  7 30  1  0
  7 31  1  0
  8 32  1  6
  9 33  1  0
 12 34  1  0
 14 35  1  0
 15 36  1  0
 15 37  1  0
 16 38  1  0
 17 39  1  0
 17 40  1  0
 18 41  1  0
 18 42  1  0
 19 43  1  0
 19 44  1  0
 20 45  1  6
 21 46  1  0
 21 47  1  0
  4  8  1  0
 20 48  1  0
  4 48  1  0
 20 49  1  0
  8 49  1  0
 48 50  1  0
 48 51  1  0
 49 52  1  0
 49 53  1  0
M  END
>  <smiles>  (92) 
[H]OC([H])([H])[C@@]1(c2nc([H])c(C([H])([H])[H])c([H])c2[H])C([H])([H])C([H])([H])C([H])([H])C([H])([H])N([H])[C@@]23C([H])([H])C([H])([H])C([H])([H])[C@@]2([H])C([H])([H])[C@]1([H])C3([H])[H]

>  <error>  (92) 


>  <∆∆G>  (92) 
nan

>  <∆G_bound>  (92) 
nan

>  <∆G_unbound>  (92) 
nan

>  <comRMSD>  (92) 
0.0

>  <N_constrained_atoms>  (92) 
20.0

>  <N_unconstrained_atoms>  (92) 
3.0

>  <runtime>  (92) 
1.474018

>  <regarded>  (92) 
['d0254a', 'd0472a']

>  <disregarded>  (92) 
[]

>  <LE>  (92) 
nan

>  <outcome>  (92) 
crashed

>  <percent_hybrid>  (92) 
30.0

$$$$
LIG
     RDKit          3D

 54 57  0  0  0  0  0  0  0  0999 V2000
  -18.5140  -44.9440  -23.0850 O   0  0  0  0  0  0  0  0  0  0  0  0
  -17.5800  -44.9250  -22.2900 C   0  0  0  0  0  0  0  0  0  0  0  0
  -16.4730  -44.1500  -22.4210 N   0  0  0  0  0  0  0  0  0  0  0  0
  -15.1640  -40.1290  -26.1880 C   0  0  0  0  0  0  0  0  0  0  0  0
  -15.3290  -37.9410  -26.4740 O   0  0  0  0  0  0  0  0  0  0  0  0
  -16.3260  -39.5440  -27.7270 N   0  0  0  0  0  0  0  0  0  0  0  0
  -13.7420  -44.9730  -19.1420 F   0  0  0  0  0  0  0  0  0  0  0  0
  -16.4130  -45.7010  -20.2780 O   0  0  0  0  0  0  0  0  0  0  0  0
  -16.7580  -45.4230  -18.9190 C   0  0  0  0  0  0  0  0  0  0  0  0
  -18.2140  -45.7750  -18.7620 C   0  0  0  0  0  0  0  0  0  0  0  0
  -18.7790  -45.4810  -20.1350 C   0  0  0  0  0  0  0  0  0  0  0  0
  -17.6230  -45.8150  -21.0530 C   0  0  1  0  0  0  0  0  0  0  0  0
  -16.8900  -43.1390  -24.6480 C   0  0  0  0  0  0  0  0  0  0  0  0
  -16.1690  -43.2350  -23.4440 C   0  0  2  0  0  0  0  0  0  0  0  0
  -15.1490  -42.4110  -23.1580 C   0  0  2  0  0  0  0  0  0  0  0  0
  -14.8480  -41.4540  -24.0500 C   0  0  0  0  0  0  0  0  0  0  0  0
  -15.5130  -41.2620  -25.2530 C   0  0  2  0  0  0  0  0  0  0  0  0
  -16.5400  -42.1420  -25.5370 C   0  0  0  0  0  0  0  0  0  0  0  0
  -14.1440  -44.1640  -20.1680 C   0  0  1  0  0  0  0  0  0  0  0  0
  -15.2410  -44.5320  -20.9060 C   0  0  0  0  0  0  0  0  0  0  0  0
  -15.6570  -43.6970  -21.9320 C   0  0  2  0  0  0  0  0  0  0  0  0
  -13.8550  -42.1920  -21.4290 C   0  0  0  0  0  0  0  0  0  0  0  0
  -13.4440  -43.0190  -20.4000 C   0  0  0  0  0  0  0  0  0  0  0  0
  -16.7934  -40.2479  -28.3160 H   0  0  0  0  0  0  0  0  0  0  0  0
  -16.4525  -38.5411  -27.9246 H   0  0  0  0  0  0  0  0  0  0  0  0
  -16.1449  -46.0334  -18.2396 H   0  0  0  0  0  0  0  0  0  0  0  0
  -16.5774  -44.3662  -18.6729 H   0  0  0  0  0  0  0  0  0  0  0  0
  -18.3393  -46.8361  -18.5007 H   0  0  0  0  0  0  0  0  0  0  0  0
  -18.7131  -45.2163  -17.9565 H   0  0  0  0  0  0  0  0  0  0  0  0
  -19.6510  -46.1166  -20.3489 H   0  0  0  0  0  0  0  0  0  0  0  0
  -19.1377  -44.4470  -20.2456 H   0  0  0  0  0  0  0  0  0  0  0  0
  -17.7433  -46.8382  -21.4384 H   0  0  0  0  0  0  0  0  0  0  0  0
  -17.9470  -42.9858  -24.3846 H   0  0  0  0  0  0  0  0  0  0  0  0
  -16.6603  -44.0738  -25.1803 H   0  0  0  0  0  0  0  0  0  0  0  0
  -16.8408  -42.4961  -22.9828 H   0  0  0  0  0  0  0  0  0  0  0  0
  -14.9415  -40.5027  -23.5056 H   0  0  0  0  0  0  0  0  0  0  0  0
  -13.8732  -41.8129  -24.4118 H   0  0  0  0  0  0  0  0  0  0  0  0
  -16.2455  -40.6173  -24.7452 H   0  0  0  0  0  0  0  0  0  0  0  0
  -16.2707  -42.6432  -26.4784 H   0  0  0  0  0  0  0  0  0  0  0  0
  -17.4258  -41.4898  -25.5291 H   0  0  0  0  0  0  0  0  0  0  0  0
  -13.4816  -44.7086  -20.8569 H   0  0  0  0  0  0  0  0  0  0  0  0
  -15.0175  -45.5113  -21.3543 H   0  0  0  0  0  0  0  0  0  0  0  0
  -16.0716  -44.5084  -20.1852 H   0  0  0  0  0  0  0  0  0  0  0  0
  -15.8964  -42.9110  -21.2007 H   0  0  0  0  0  0  0  0  0  0  0  0
  -14.3090  -41.3457  -20.8926 H   0  0  0  0  0  0  0  0  0  0  0  0
  -12.9200  -42.2844  -22.0010 H   0  0  0  0  0  0  0  0  0  0  0  0
  -13.4755  -42.4258  -19.4742 H   0  0  0  0  0  0  0  0  0  0  0  0
  -12.4507  -43.3699  -20.7166 H   0  0  0  0  0  0  0  0  0  0  0  0
  -16.0650  -43.9235  -22.1765 C   0  0  0  0  0  0  0  0  0  0  0  0
  -16.3210  -43.6925  -22.9325 C   0  0  0  0  0  0  0  0  0  0  0  0
  -15.0650  -42.9235  -21.1765 H   0  0  0  0  0  0  0  0  0  0  0  0
  -15.0550  -42.9135  -21.1665 H   0  0  0  0  0  0  0  0  0  0  0  0
  -15.3010  -42.6725  -21.9125 H   0  0  0  0  0  0  0  0  0  0  0  0
  -15.2910  -42.6625  -21.9025 H   0  0  0  0  0  0  0  0  0  0  0  0
  3  2  1  0
  2  1  2  0
  5  4  2  0
  6  4  1  0
  8  9  1  0
  8 12  1  0
  9 10  1  0
 10 11  1  0
 11 12  1  0
 12  2  1  0
 13 18  1  0
 13 14  1  0
 14 15  1  0
 15 16  1  1
 16 17  1  0
 17  4  1  0
 17 18  1  0
 19 23  1  0
 19  7  1  0
 19 20  1  0
 20 21  1  0
 22 23  1  0
 15 21  1  0
 15 22  1  0
  6 24  1  0
  6 25  1  0
  9 26  1  0
  9 27  1  0
 10 28  1  0
 10 29  1  0
 11 30  1  0
 11 31  1  0
 12 32  1  6
 13 33  1  0
 13 34  1  0
 14 35  1  1
 16 36  1  0
 16 37  1  0
 17 38  1  1
 18 39  1  0
 18 40  1  0
 19 41  1  6
 20 42  1  0
 20 43  1  0
 21 44  1  1
 22 45  1  0
 22 46  1  0
 23 47  1  0
 23 48  1  0
  3 49  1  0
 21 49  1  0
  3 50  1  0
 14 50  1  0
 49 51  1  0
 49 52  1  0
 50 53  1  0
 50 54  1  0
M  END
>  <smiles>  (93) 
[H]N([H])C(=O)[C@@]1([H])C([H])([H])C([H])([H])[C@@]2([H])C([H])([H])N(C(=O)[C@@]3([H])OC([H])([H])C([H])([H])C3([H])[H])C([H])([H])[C@@]3([H])C([H])([H])[C@]([H])(F)C([H])([H])C([H])([H])[C@]32C1([H])[H]

>  <error>  (93) 


>  <∆∆G>  (93) 
nan

>  <∆G_bound>  (93) 
nan

>  <∆G_unbound>  (93) 
nan

>  <comRMSD>  (93) 
0.0

>  <N_constrained_atoms>  (93) 
23.0

>  <N_unconstrained_atoms>  (93) 
2.0

>  <runtime>  (93) 
1.566024

>  <regarded>  (93) 
['d0254a', 'd0612a']

>  <disregarded>  (93) 
[]

>  <LE>  (93) 
nan

>  <outcome>  (93) 
crashed

>  <percent_hybrid>  (93) 
35.0

$$$$
LIG
     RDKit          3D

 38 40  0  0  0  0  0  0  0  0999 V2000
  -18.5540  -45.5963  -23.3424 O   0  0  0  0  0  0  0  0  0  0  0  0
  -17.7198  -45.3497  -22.5593 C   0  0  0  0  0  0  0  0  0  0  0  0
  -16.5766  -44.2967  -22.6029 N   0  0  0  0  0  0  0  0  0  0  0  0
  -15.4089  -40.0609  -26.1217 C   0  0  0  0  0  0  0  0  0  0  0  0
  -18.9275  -36.3078  -24.7834 C   0  0  0  0  0  0  0  0  0  0  0  0
  -16.4274  -45.6873  -20.4434 O   0  0  0  0  0  0  0  0  0  0  0  0
  -16.8034  -44.9975  -19.2448 C   0  0  0  0  0  0  0  0  0  0  0  0
  -18.2109  -45.4406  -18.9379 C   0  0  0  0  0  0  0  0  0  0  0  0
  -18.8077  -45.6001  -20.3108 C   0  0  0  0  0  0  0  0  0  0  0  0
  -17.6252  -46.0292  -21.1706 C   0  0  1  0  0  0  0  0  0  0  0  0
  -17.0732  -43.1556  -24.6659 C   0  0  0  0  0  0  0  0  0  0  0  0
  -16.2981  -43.3169  -23.5299 C   0  0  0  0  0  0  0  0  0  0  0  0
  -15.2615  -42.5127  -23.2310 N   0  0  0  0  0  0  0  0  0  0  0  0
  -14.9939  -41.5026  -24.0898 C   0  0  0  0  0  0  0  0  0  0  0  0
  -15.7131  -41.2534  -25.2515 C   0  0  0  0  0  0  0  0  0  0  0  0
  -16.7685  -42.1186  -25.5422 C   0  0  0  0  0  0  0  0  0  0  0  0
  -17.4615  -38.7570  -27.0438 C   0  0  0  0  0  0  0  0  0  0  0  0
  -18.4005  -37.7996  -26.7025 N   0  0  0  0  0  0  0  0  0  0  0  0
  -18.1375  -37.3519  -25.4907 C   0  0  0  0  0  0  0  0  0  0  0  0
  -16.7771  -38.0562  -24.7109 S   0  0  0  0  0  0  0  0  0  0  0  0
  -16.5135  -39.0485  -26.0841 C   0  0  0  0  0  0  0  0  0  0  0  0
  -15.9802  -44.4088  -21.7876 H   0  0  0  0  0  0  0  0  0  0  0  0
  -14.4638  -39.5942  -25.8200 H   0  0  0  0  0  0  0  0  0  0  0  0
  -15.2560  -40.4101  -27.1509 H   0  0  0  0  0  0  0  0  0  0  0  0
  -19.3672  -36.7078  -23.8643 H   0  0  0  0  0  0  0  0  0  0  0  0
  -18.2995  -35.4479  -24.5298 H   0  0  0  0  0  0  0  0  0  0  0  0
  -19.7437  -35.9515  -25.4203 H   0  0  0  0  0  0  0  0  0  0  0  0
  -16.0970  -45.2372  -18.4457 H   0  0  0  0  0  0  0  0  0  0  0  0
  -16.7582  -43.9208  -19.4420 H   0  0  0  0  0  0  0  0  0  0  0  0
  -18.1934  -46.4078  -18.4292 H   0  0  0  0  0  0  0  0  0  0  0  0
  -18.7546  -44.7322  -18.3086 H   0  0  0  0  0  0  0  0  0  0  0  0
  -19.6198  -46.3328  -20.3327 H   0  0  0  0  0  0  0  0  0  0  0  0
  -19.2241  -44.6441  -20.6513 H   0  0  0  0  0  0  0  0  0  0  0  0
  -17.6088  -47.1134  -21.3260 H   0  0  0  0  0  0  0  0  0  0  0  0
  -17.9142  -43.8036  -24.8734 H   0  0  0  0  0  0  0  0  0  0  0  0
  -14.1649  -40.8671  -23.7912 H   0  0  0  0  0  0  0  0  0  0  0  0
  -17.3777  -41.9719  -26.4278 H   0  0  0  0  0  0  0  0  0  0  0  0
  -17.5186  -39.2294  -28.0163 H   0  0  0  0  0  0  0  0  0  0  0  0
  3  2  1  0
  2  1  2  0
  6  7  1  0
  6 10  1  0
  7  8  1  0
  8  9  1  0
  9 10  1  0
 10  2  1  0
 11 16  2  0
 11 12  1  0
 12  3  1  0
 12 13  2  0
 13 14  1  0
 14 15  2  0
 15  4  1  0
 15 16  1  0
 17 18  1  0
 17 21  2  0
 18 19  2  0
 19  5  1  0
 19 20  1  0
 20 21  1  0
  4 21  1  0
  3 22  1  0
  4 23  1  0
  4 24  1  0
  5 25  1  0
  5 26  1  0
  5 27  1  0
  7 28  1  0
  7 29  1  0
  8 30  1  0
  8 31  1  0
  9 32  1  0
  9 33  1  0
 10 34  1  6
 11 35  1  0
 14 36  1  0
 16 37  1  0
 17 38  1  0
M  END
>  <smiles>  (94) 
[H]c1nc(C([H])([H])[H])sc1C([H])([H])c1c([H])nc(N([H])C(=O)[C@@]2([H])OC([H])([H])C([H])([H])C2([H])[H])c([H])c1[H]

>  <error>  (94) 


>  <∆∆G>  (94) 
-31.9924

>  <∆G_bound>  (94) 
210.918224

>  <∆G_unbound>  (94) 
242.910624

>  <comRMSD>  (94) 
0.332572

>  <N_constrained_atoms>  (94) 
21.0

>  <N_unconstrained_atoms>  (94) 
0.0

>  <runtime>  (94) 
1.921003

>  <regarded>  (94) 
['d0254a', 'd0615b']

>  <disregarded>  (94) 
[]

>  <LE>  (94) 
1.523448

>  <outcome>  (94) 
acceptable

>  <percent_hybrid>  (94) 
29.0

$$$$
LIG
     RDKit          3D

 42 43  0  0  0  0  0  0  0  0999 V2000
  -18.8011  -44.4688  -23.0765 O   0  0  0  0  0  0  0  0  0  0  0  0
  -17.7842  -44.3174  -22.5143 C   0  0  0  0  0  0  0  0  0  0  0  0
  -16.6855  -43.2239  -22.6896 N   0  0  0  0  0  0  0  0  0  0  0  0
  -15.8809  -39.0394  -26.3890 C   0  0  0  0  0  0  0  0  0  0  0  0
  -19.8288  -40.3852  -24.5968 O   0  0  0  0  0  0  0  0  0  0  0  0
  -18.9420  -39.9623  -25.6652 S   0  0  0  0  0  0  0  0  0  0  0  0
  -18.6820  -38.5496  -25.8754 O   0  0  0  0  0  0  0  0  0  0  0  0
  -19.6177  -40.5547  -27.1709 C   0  0  0  0  0  0  0  0  0  0  0  0
  -18.1073  -43.1121  -25.4135 C   0  0  0  0  0  0  0  0  0  0  0  0
  -14.4530  -39.2060  -23.8239 C   0  0  0  0  0  0  0  0  0  0  0  0
  -15.0907  -37.9286  -23.7909 O   0  0  0  0  0  0  0  0  0  0  0  0
  -16.2806  -44.7020  -20.5464 O   0  0  0  0  0  0  0  0  0  0  0  0
  -16.7723  -44.6783  -19.2001 C   0  0  0  0  0  0  0  0  0  0  0  0
  -17.8103  -45.7698  -19.1292 C   0  0  0  0  0  0  0  0  0  0  0  0
  -18.4576  -45.6732  -20.4856 C   0  0  0  0  0  0  0  0  0  0  0  0
  -17.2986  -45.2626  -21.3893 C   0  0  1  0  0  0  0  0  0  0  0  0
  -17.4051  -42.0238  -24.7090 C   0  0  0  0  0  0  0  0  0  0  0  0
  -16.5765  -42.1964  -23.6161 C   0  0  0  0  0  0  0  0  0  0  0  0
  -15.6138  -41.3018  -23.3486 N   0  0  0  0  0  0  0  0  0  0  0  0
  -15.4281  -40.2732  -24.2220 C   0  0  0  0  0  0  0  0  0  0  0  0
  -16.2149  -40.0582  -25.3477 C   0  0  0  0  0  0  0  0  0  0  0  0
  -17.3595  -40.8164  -25.4099 C   0  0  0  0  0  0  0  0  0  0  0  0
  -15.9680  -43.3448  -21.9774 H   0  0  0  0  0  0  0  0  0  0  0  0
  -14.8130  -39.0761  -26.6245 H   0  0  0  0  0  0  0  0  0  0  0  0
  -16.4043  -39.2576  -27.3271 H   0  0  0  0  0  0  0  0  0  0  0  0
  -16.1496  -38.0277  -26.0755 H   0  0  0  0  0  0  0  0  0  0  0  0
  -19.8461  -41.6129  -27.0819 H   0  0  0  0  0  0  0  0  0  0  0  0
  -20.5431  -40.0070  -27.3648 H   0  0  0  0  0  0  0  0  0  0  0  0
  -18.9021  -40.3417  -27.9619 H   0  0  0  0  0  0  0  0  0  0  0  0
  -17.8667  -42.9974  -26.4679 H   0  0  0  0  0  0  0  0  0  0  0  0
  -17.7099  -44.0878  -25.1373 H   0  0  0  0  0  0  0  0  0  0  0  0
  -19.1873  -43.0853  -25.2538 H   0  0  0  0  0  0  0  0  0  0  0  0
  -13.6214  -39.1782  -24.5260 H   0  0  0  0  0  0  0  0  0  0  0  0
  -14.0456  -39.4044  -22.8273 H   0  0  0  0  0  0  0  0  0  0  0  0
  -15.9604  -38.0553  -23.3698 H   0  0  0  0  0  0  0  0  0  0  0  0
  -15.9449  -44.8331  -18.5023 H   0  0  0  0  0  0  0  0  0  0  0  0
  -17.2122  -43.6924  -19.0145 H   0  0  0  0  0  0  0  0  0  0  0  0
  -17.3093  -46.7383  -19.0280 H   0  0  0  0  0  0  0  0  0  0  0  0
  -18.5154  -45.6493  -18.3038 H   0  0  0  0  0  0  0  0  0  0  0  0
  -18.9233  -46.6108  -20.8043 H   0  0  0  0  0  0  0  0  0  0  0  0
  -19.2418  -44.9062  -20.4689 H   0  0  0  0  0  0  0  0  0  0  0  0
  -16.8618  -46.1417  -21.8757 H   0  0  0  0  0  0  0  0  0  0  0  0
  3  2  1  0
  2  1  2  0
  8  6  1  0
  7  6  2  0
  6  5  2  0
 11 10  1  0
 12 13  1  0
 12 16  1  0
 13 14  1  0
 14 15  1  0
 15 16  1  0
 16  2  1  0
 17 22  2  0
 17 18  1  0
 18  3  1  0
 18 19  2  0
 19 20  1  0
 20 21  2  0
 21  4  1  0
 21 22  1  0
  6 22  1  0
  9 17  1  0
 10 20  1  0
  3 23  1  0
  4 24  1  0
  4 25  1  0
  4 26  1  0
  8 27  1  0
  8 28  1  0
  8 29  1  0
  9 30  1  0
  9 31  1  0
  9 32  1  0
 10 33  1  0
 10 34  1  0
 11 35  1  0
 13 36  1  0
 13 37  1  0
 14 38  1  0
 14 39  1  0
 15 40  1  0
 15 41  1  0
 16 42  1  6
M  END
>  <smiles>  (95) 
[H]OC([H])([H])c1nc(N([H])C(=O)[C@@]2([H])OC([H])([H])C([H])([H])C2([H])[H])c(C([H])([H])[H])c(S(=O)(=O)C([H])([H])[H])c1C([H])([H])[H]

>  <error>  (95) 


>  <∆∆G>  (95) 
-46.195612

>  <∆G_bound>  (95) 
195.516856

>  <∆G_unbound>  (95) 
241.712468

>  <comRMSD>  (95) 
1.390411

>  <N_constrained_atoms>  (95) 
22.0

>  <N_unconstrained_atoms>  (95) 
0.0

>  <runtime>  (95) 
2.600015

>  <regarded>  (95) 
['d0254a', 'd0851a']

>  <disregarded>  (95) 
[]

>  <LE>  (95) 
2.099801

>  <outcome>  (95) 
too moved

>  <percent_hybrid>  (95) 
32.0

$$$$
LIG
     RDKit          3D

 62 65  0  0  0  0  0  0  0  0999 V2000
  -18.8281  -45.1340  -23.1832 O   0  0  0  0  0  0  0  0  0  0  0  0
  -17.7847  -44.9692  -22.6188 C   0  0  0  0  0  0  0  0  0  0  0  0
  -16.7829  -43.9651  -22.7842 N   0  0  0  0  0  0  0  0  0  0  0  0
  -19.4445  -37.2704  -27.0598 O   0  0  0  0  0  0  0  0  0  0  0  0
  -18.7292  -36.9831  -26.1329 C   0  0  0  0  0  0  0  0  0  0  0  0
  -19.5172  -39.7769  -25.2978 C   0  0  0  0  0  0  0  0  0  0  0  0
  -15.5275  -41.4792  -22.1060 O   0  0  0  0  0  0  0  0  0  0  0  0
  -16.2256  -45.3860  -20.7179 O   0  0  0  0  0  0  0  0  0  0  0  0
  -16.6655  -44.8541  -19.4637 C   0  0  0  0  0  0  0  0  0  0  0  0
  -17.8479  -45.7025  -19.0797 C   0  0  0  0  0  0  0  0  0  0  0  0
  -18.5305  -45.9288  -20.4052 C   0  0  0  0  0  0  0  0  0  0  0  0
  -17.3906  -45.8782  -21.4212 C   0  0  1  0  0  0  0  0  0  0  0  0
  -17.0017  -43.0894  -25.0787 C   0  0  0  0  0  0  0  0  0  0  0  0
  -16.7544  -42.7968  -23.6015 C   0  0  2  0  0  0  0  0  0  0  0  0
  -15.4364  -42.1922  -23.3761 N   0  0  0  0  0  0  0  0  0  0  0  0
  -15.1074  -41.1794  -24.4072 C   0  0  0  0  0  0  0  0  0  0  0  0
  -16.3305  -40.6032  -25.2141 C   0  0  2  0  0  0  0  0  0  0  0  0
  -16.9323  -41.8257  -25.9515 C   0  0  0  0  0  0  0  0  0  0  0  0
  -19.5345  -35.7361  -24.2243 C   0  0  0  0  0  0  0  0  0  0  0  0
  -19.3293  -34.5051  -23.3659 C   0  0  0  0  0  0  0  0  0  0  0  0
  -19.0593  -33.5074  -24.4356 C   0  0  0  0  0  0  0  0  0  0  0  0
  -19.2133  -34.4083  -25.6366 C   0  0  0  0  0  0  0  0  0  0  0  0
  -18.5938  -35.7546  -25.4074 N   0  0  0  0  0  0  0  0  0  0  0  0
  -18.2902  -39.0659  -24.7180 C   0  0  2  0  0  0  0  0  0  0  0  0
  -17.6779  -37.9865  -25.6199 C   0  0  1  0  0  0  0  0  0  0  0  0
  -16.9069  -38.6355  -26.7751 C   0  0  0  0  0  0  0  0  0  0  0  0
  -15.8129  -39.5413  -26.2098 C   0  0  0  0  0  0  0  0  0  0  0  0
  -17.2878  -40.0239  -24.2412 N   0  0  0  0  0  0  0  0  0  0  0  0
  -16.0683  -44.0913  -22.0739 H   0  0  0  0  0  0  0  0  0  0  0  0
  -19.7855  -40.6552  -24.6994 H   0  0  0  0  0  0  0  0  0  0  0  0
  -20.3866  -39.1098  -25.2787 H   0  0  0  0  0  0  0  0  0  0  0  0
  -19.3789  -40.0953  -26.3335 H   0  0  0  0  0  0  0  0  0  0  0  0
  -14.8263  -41.9314  -21.5984 H   0  0  0  0  0  0  0  0  0  0  0  0
  -15.8518  -44.9049  -18.7353 H   0  0  0  0  0  0  0  0  0  0  0  0
  -16.9477  -43.8054  -19.6086 H   0  0  0  0  0  0  0  0  0  0  0  0
  -17.4891  -46.6553  -18.6795 H   0  0  0  0  0  0  0  0  0  0  0  0
  -18.4944  -45.2326  -18.3350 H   0  0  0  0  0  0  0  0  0  0  0  0
  -19.0699  -46.8798  -20.4421 H   0  0  0  0  0  0  0  0  0  0  0  0
  -19.2684  -45.1370  -20.5823 H   0  0  0  0  0  0  0  0  0  0  0  0
  -17.1516  -46.8724  -21.8077 H   0  0  0  0  0  0  0  0  0  0  0  0
  -17.9770  -43.5687  -25.2184 H   0  0  0  0  0  0  0  0  0  0  0  0
  -16.2542  -43.8080  -25.4365 H   0  0  0  0  0  0  0  0  0  0  0  0
  -17.5753  -42.1804  -23.2187 H   0  0  0  0  0  0  0  0  0  0  0  0
  -14.5286  -40.3636  -23.9528 H   0  0  0  0  0  0  0  0  0  0  0  0
  -14.4233  -41.6614  -25.1168 H   0  0  0  0  0  0  0  0  0  0  0  0
  -16.3219  -42.0668  -26.8327 H   0  0  0  0  0  0  0  0  0  0  0  0
  -17.9234  -41.6103  -26.3534 H   0  0  0  0  0  0  0  0  0  0  0  0
  -19.3010  -36.6082  -23.6060 H   0  0  0  0  0  0  0  0  0  0  0  0
  -20.5824  -35.9016  -24.5309 H   0  0  0  0  0  0  0  0  0  0  0  0
  -20.2095  -34.2732  -22.7598 H   0  0  0  0  0  0  0  0  0  0  0  0
  -18.4647  -34.6137  -22.7023 H   0  0  0  0  0  0  0  0  0  0  0  0
  -19.7643  -32.6717  -24.4478 H   0  0  0  0  0  0  0  0  0  0  0  0
  -18.0421  -33.1091  -24.3563 H   0  0  0  0  0  0  0  0  0  0  0  0
  -20.2465  -34.4897  -26.0143 H   0  0  0  0  0  0  0  0  0  0  0  0
  -18.6575  -33.9767  -26.4794 H   0  0  0  0  0  0  0  0  0  0  0  0
  -18.6584  -38.5802  -23.8083 H   0  0  0  0  0  0  0  0  0  0  0  0
  -16.9448  -37.4228  -25.0230 H   0  0  0  0  0  0  0  0  0  0  0  0
  -17.5715  -39.2077  -27.4324 H   0  0  0  0  0  0  0  0  0  0  0  0
  -16.4503  -37.8581  -27.3995 H   0  0  0  0  0  0  0  0  0  0  0  0
  -15.2734  -40.0193  -27.0364 H   0  0  0  0  0  0  0  0  0  0  0  0
  -15.0820  -38.9043  -25.6998 H   0  0  0  0  0  0  0  0  0  0  0  0
  -16.7467  -39.5979  -23.4850 H   0  0  0  0  0  0  0  0  0  0  0  0
  3  2  1  0
  2  1  2  0
  5  4  2  0
  8  9  1  0
  8 12  1  0
  9 10  1  0
 10 11  1  0
 11 12  1  0
 12  2  1  0
 13 18  1  0
 13 14  1  0
 14  3  1  0
 14 15  1  0
 15 16  1  0
 16 17  1  0
 17 18  1  0
 19 20  1  0
 19 23  1  0
 20 21  1  0
 21 22  1  0
 22 23  1  0
 23  5  1  0
 24  6  1  0
 24 28  1  0
 24 25  1  0
 25 26  1  0
 25  5  1  0
 26 27  1  0
 17 27  1  0
 17 28  1  6
 15  7  1  0
  3 29  1  0
  6 30  1  0
  6 31  1  0
  6 32  1  0
  7 33  1  0
  9 34  1  0
  9 35  1  0
 10 36  1  0
 10 37  1  0
 11 38  1  0
 11 39  1  0
 12 40  1  6
 13 41  1  0
 13 42  1  0
 14 43  1  1
 16 44  1  0
 16 45  1  0
 18 46  1  0
 18 47  1  0
 19 48  1  0
 19 49  1  0
 20 50  1  0
 20 51  1  0
 21 52  1  0
 21 53  1  0
 22 54  1  0
 22 55  1  0
 24 56  1  1
 25 57  1  1
 26 58  1  0
 26 59  1  0
 27 60  1  0
 27 61  1  0
 28 62  1  0
M  END
>  <smiles>  (96) 
[H]ON1C([H])([H])[C@@]2(N([H])[C@]([H])(C([H])([H])[H])[C@]([H])(C(=O)N3C([H])([H])C([H])([H])C([H])([H])C3([H])[H])C([H])([H])C2([H])[H])C([H])([H])C([H])([H])[C@@]1([H])N([H])C(=O)[C@@]1([H])OC([H])([H])C([H])([H])C1([H])[H]

>  <error>  (96) 


>  <∆∆G>  (96) 
-28.479286

>  <∆G_bound>  (96) 
57.307709

>  <∆G_unbound>  (96) 
85.786995

>  <comRMSD>  (96) 
0.84985

>  <N_constrained_atoms>  (96) 
28.0

>  <N_unconstrained_atoms>  (96) 
0.0

>  <runtime>  (96) 
15.841642

>  <regarded>  (96) 
['d0254a', 'd0866a']

>  <disregarded>  (96) 
[]

>  <LE>  (96) 
1.017117

>  <outcome>  (96) 
acceptable

>  <percent_hybrid>  (96) 
50.0

$$$$
LIG
     RDKit          3D

  0  0  0  0  0  0  0  0  0  0999 V3000
M  V30 BEGIN CTAB
M  V30 COUNTS 64 68 0 0 0
M  V30 BEGIN ATOM
M  V30 1 O -18.514000 -44.944000 -23.084999 0
M  V30 2 C -17.580000 -44.924999 -22.290001 0
M  V30 3 N -16.473000 -44.150002 -22.421000 0
M  V30 4 C -15.164000 -40.129002 -26.188000 0
M  V30 5 O -16.413000 -45.701000 -20.278000 0
M  V30 6 C -16.757999 -45.423000 -18.919001 0
M  V30 7 C -18.214001 -45.775002 -18.761999 0
M  V30 8 C -18.778999 -45.480999 -20.135000 0
M  V30 9 C -17.622999 -45.814999 -21.052999 0 CFG=1
M  V30 10 C -16.889999 -43.139000 -24.648001 0
M  V30 11 C -16.169001 -43.235001 -23.444000 0
M  V30 12 N -15.149000 -42.410999 -23.158001 0
M  V30 13 C -14.848000 -41.453999 -24.049999 0
M  V30 14 C -15.513000 -41.262001 -25.253000 0
M  V30 15 C -16.540001 -42.141998 -25.537001 0
M  V30 16 O -11.370000 -32.450001 -20.969999 0
M  V30 17 C -11.950000 -33.465000 -20.601000 0
M  V30 18 C -13.292000 -33.436001 -19.997999 0
M  V30 19 C -13.877000 -34.640999 -19.552999 0
M  V30 20 N -13.139000 -35.812000 -19.618000 0
M  V30 21 C -12.110000 -35.952000 -20.645000 0 CFG=1
M  V30 22 N -11.382000 -34.679001 -20.705000 0
M  V30 23 C -13.994000 -32.241001 -19.871000 0
M  V30 24 C -15.168000 -34.624001 -19.025000 0
M  V30 25 C -15.853000 -33.424000 -18.921000 0
M  V30 26 C -15.268000 -32.243000 -19.333000 0
M  V30 27 C -11.190000 -37.138000 -20.316999 0
M  V30 28 C -11.152000 -37.980999 -21.587999 0
M  V30 29 C -12.451000 -37.754002 -22.233000 0 CFG=1
M  V30 30 C -12.749000 -36.279999 -22.002001 0
M  V30 31 N -14.248750 -40.528999 -23.595749 0
M  V30 32 C -13.649500 -39.604000 -23.141499 0
M  V30 33 C -13.050250 -38.679001 -22.687250 0
M  V30 34 H -15.766908 -44.244354 -21.677069 0
M  V30 35 H -14.890187 -39.240093 -25.600746 0
M  V30 36 H -14.315430 -40.425137 -26.822218 0
M  V30 37 H -16.032122 -39.896343 -26.822218 0
M  V30 38 H -16.089857 -45.028572 -18.139250 0
M  V30 39 H -17.036428 -44.396500 -19.199667 0
M  V30 40 H -18.736921 -46.152126 -17.870747 0
M  V30 41 H -18.430281 -44.742043 -18.451809 0
M  V30 42 H -19.781889 -45.115040 -20.400118 0
M  V30 43 H -18.420212 -44.443825 -20.060553 0
M  V30 44 H -17.743259 -46.838230 -21.438404 0
M  V30 45 H -17.708742 -43.837749 -24.874741 0
M  V30 46 H -17.087391 -42.046734 -26.486362 0
M  V30 47 H -13.314224 -36.575504 -18.949228 0
M  V30 48 H -10.361188 -34.718678 -20.836409 0
M  V30 49 H -13.535987 -31.295929 -20.198202 0
M  V30 50 H -15.640623 -35.559937 -18.692352 0
M  V30 51 H -16.871866 -33.412075 -18.506548 0
M  V30 52 H -15.819530 -31.296577 -19.232512 0
M  V30 53 H -10.669828 -37.336834 -19.368376 0
M  V30 54 H -12.057853 -37.712925 -19.961624 0
M  V30 55 H -10.330162 -38.619820 -21.943655 0
M  V30 56 H -11.575160 -38.832932 -21.035601 0
M  V30 57 H -12.962158 -38.004837 -21.291830 0
M  V30 58 H -13.302277 -35.597340 -22.663710 0
M  V30 59 H -11.810613 -36.010841 -22.508938 0
M  V30 60 H -13.158750 -39.438999 -22.505749 0
M  V30 61 H -12.549500 -38.504002 -22.041500 0
M  V30 62 H -12.539500 -38.493999 -22.031500 0
M  V30 63 H -11.930250 -37.559002 -21.567249 0
M  V30 64 H -11.920250 -37.549000 -21.557249 0
M  V30 END ATOM
M  V30 BEGIN BOND
M  V30 1 1 3 2
M  V30 2 2 2 1
M  V30 3 1 5 6
M  V30 4 1 5 9
M  V30 5 1 6 7
M  V30 6 1 7 8
M  V30 7 1 8 9
M  V30 8 1 9 2
M  V30 9 2 10 15
M  V30 10 1 10 11
M  V30 11 1 11 3
M  V30 12 2 11 12
M  V30 13 1 12 13
M  V30 14 2 13 14
M  V30 15 1 14 4
M  V30 16 1 14 15
M  V30 17 2 17 16
M  V30 18 1 17 22
M  V30 19 1 17 18
M  V30 20 2 18 23
M  V30 21 1 18 19
M  V30 22 1 19 20
M  V30 23 2 19 24
M  V30 24 1 21 20 CFG=1
M  V30 25 1 21 22
M  V30 26 1 21 30
M  V30 27 1 21 27
M  V30 28 1 23 26
M  V30 29 1 24 25
M  V30 30 2 25 26
M  V30 31 1 27 28
M  V30 32 1 28 29
M  V30 33 1 29 30
M  V30 34 1 31 13
M  V30 35 1 32 31
M  V30 36 1 33 32
M  V30 37 1 33 29
M  V30 38 1 3 34
M  V30 39 1 4 35
M  V30 40 1 4 36
M  V30 41 1 4 37
M  V30 42 1 6 38
M  V30 43 1 6 39
M  V30 44 1 7 40
M  V30 45 1 7 41
M  V30 46 1 8 42
M  V30 47 1 8 43
M  V30 48 1 9 44 CFG=3
M  V30 49 1 10 45
M  V30 50 1 15 46
M  V30 51 1 20 47
M  V30 52 1 22 48
M  V30 53 1 23 49
M  V30 54 1 24 50
M  V30 55 1 25 51
M  V30 56 1 26 52
M  V30 57 1 27 53
M  V30 58 1 27 54
M  V30 59 1 28 55
M  V30 60 1 28 56
M  V30 61 1 29 57 CFG=3
M  V30 62 1 30 58
M  V30 63 1 30 59
M  V30 64 1 31 60
M  V30 65 1 32 61
M  V30 66 1 32 62
M  V30 67 1 33 63
M  V30 68 1 33 64
M  V30 END BOND
M  V30 BEGIN COLLECTION
M  V30 MDLV30/STEABS ATOMS=(0)
M  V30 END COLLECTION
M  V30 END CTAB
M  END
>  <smiles>  (97) 
[H]c1c(N([H])C(=O)[C@@]2([H])OC([H])([H])C([H])([H])C2([H])[H])nc(N([H])C([H])([H])C([H])([H])[C@]2([H])C([H])([H])C([H])([H])[C@@]3(N([H])C(=O)c4c([H])c([H])c([H])c([H])c4N3[H])C2([H])[H])c(C([H])([H])[H])c1[H]

>  <error>  (97) 


>  <∆∆G>  (97) 
nan

>  <∆G_bound>  (97) 
nan

>  <∆G_unbound>  (97) 
nan

>  <comRMSD>  (97) 
0.0

>  <N_constrained_atoms>  (97) 
30.0

>  <N_unconstrained_atoms>  (97) 
3.0

>  <runtime>  (97) 
2.429266

>  <regarded>  (97) 
['d0254a', 'd1196a']

>  <disregarded>  (97) 
[]

>  <LE>  (97) 
nan

>  <outcome>  (97) 
crashed

>  <percent_hybrid>  (97) 
50.0

$$$$
LIG
     RDKit          3D

 56 58  0  0  0  0  0  0  0  0999 V2000
  -19.3356  -44.0652  -22.5588 O   0  0  0  0  0  0  0  0  0  0  0  0
  -18.2677  -44.5010  -22.3714 C   0  0  0  0  0  0  0  0  0  0  0  0
  -16.9202  -44.1905  -23.0693 N   0  0  0  0  0  0  0  0  0  0  0  0
  -15.4425  -40.0262  -26.4961 C   0  0  0  0  0  0  0  0  0  0  0  0
  -16.5723  -45.3912  -20.6178 N   0  0  0  0  0  0  0  0  0  0  0  0
  -16.7419  -46.1589  -19.3647 C   0  0  0  0  0  0  0  0  0  0  0  0
  -18.0975  -45.7108  -18.8293 C   0  0  0  0  0  0  0  0  0  0  0  0
  -18.9301  -45.4214  -20.0664 C   0  0  0  0  0  0  0  0  0  0  0  0
  -17.9415  -45.4852  -21.2255 C   0  0  1  0  0  0  0  0  0  0  0  0
  -17.5845  -42.6369  -24.7818 C   0  0  0  0  0  0  0  0  0  0  0  0
  -16.6066  -43.2598  -24.0268 C   0  0  0  0  0  0  0  0  0  0  0  0
  -15.3101  -42.9135  -24.0587 N   0  0  0  0  0  0  0  0  0  0  0  0
  -14.9829  -41.8725  -24.8527 C   0  0  0  0  0  0  0  0  0  0  0  0
  -15.8772  -41.1872  -25.6612 C   0  0  0  0  0  0  0  0  0  0  0  0
  -17.2082  -41.5930  -25.6222 C   0  0  0  0  0  0  0  0  0  0  0  0
  -13.8109  -44.2415  -19.3053 O   0  0  0  0  0  0  0  0  0  0  0  0
  -13.3220  -43.0140  -18.7624 C   0  0  0  0  0  0  0  0  0  0  0  0
  -12.6232  -43.1533  -17.3998 C   0  0  0  0  0  0  0  0  0  0  0  0
  -13.2394  -43.9373  -16.3178 N   0  0  0  0  0  0  0  0  0  0  0  0
  -14.7091  -44.0164  -16.3075 C   0  0  0  0  0  0  0  0  0  0  0  0
  -15.3517  -43.2540  -15.1426 C   0  0  0  0  0  0  0  0  0  0  0  0
  -14.9182  -43.7260  -13.8648 O   0  0  0  0  0  0  0  0  0  0  0  0
  -13.5532  -44.1467  -13.8622 C   0  0  0  0  0  0  0  0  0  0  0  0
  -12.7421  -43.4977  -14.9886 C   0  0  0  0  0  0  0  0  0  0  0  0
  -16.0689  -44.0322  -20.2709 C   0  0  0  0  0  0  0  0  0  0  0  0
  -14.5410  -43.9814  -20.5147 C   0  0  0  0  0  0  0  0  0  0  0  0
  -16.1722  -44.6911  -22.6002 H   0  0  0  0  0  0  0  0  0  0  0  0
  -15.7251  -39.0872  -26.0104 H   0  0  0  0  0  0  0  0  0  0  0  0
  -14.3589  -40.0238  -26.6485 H   0  0  0  0  0  0  0  0  0  0  0  0
  -15.9117  -40.0719  -27.4846 H   0  0  0  0  0  0  0  0  0  0  0  0
  -16.7624  -47.2287  -19.6067 H   0  0  0  0  0  0  0  0  0  0  0  0
  -15.9312  -46.0128  -18.6431 H   0  0  0  0  0  0  0  0  0  0  0  0
  -18.5681  -46.4568  -18.1863 H   0  0  0  0  0  0  0  0  0  0  0  0
  -17.9992  -44.7930  -18.2382 H   0  0  0  0  0  0  0  0  0  0  0  0
  -19.7122  -46.1784  -20.1884 H   0  0  0  0  0  0  0  0  0  0  0  0
  -19.4196  -44.4460  -19.9723 H   0  0  0  0  0  0  0  0  0  0  0  0
  -18.0135  -46.4817  -21.6859 H   0  0  0  0  0  0  0  0  0  0  0  0
  -18.6264  -42.9252  -24.7101 H   0  0  0  0  0  0  0  0  0  0  0  0
  -13.9376  -41.5983  -24.8252 H   0  0  0  0  0  0  0  0  0  0  0  0
  -17.9591  -41.0780  -26.2169 H   0  0  0  0  0  0  0  0  0  0  0  0
  -12.6044  -42.5788  -19.4698 H   0  0  0  0  0  0  0  0  0  0  0  0
  -14.1549  -42.3061  -18.6607 H   0  0  0  0  0  0  0  0  0  0  0  0
  -11.6359  -43.5813  -17.5901 H   0  0  0  0  0  0  0  0  0  0  0  0
  -12.4398  -42.1257  -17.0581 H   0  0  0  0  0  0  0  0  0  0  0  0
  -15.1760  -43.6826  -17.2334 H   0  0  0  0  0  0  0  0  0  0  0  0
  -14.9405  -45.0800  -16.2124 H   0  0  0  0  0  0  0  0  0  0  0  0
  -15.1135  -42.1848  -15.2103 H   0  0  0  0  0  0  0  0  0  0  0  0
  -16.4398  -43.3101  -15.1850 H   0  0  0  0  0  0  0  0  0  0  0  0
  -13.1292  -43.8804  -12.8886 H   0  0  0  0  0  0  0  0  0  0  0  0
  -13.5248  -45.2398  -13.9413 H   0  0  0  0  0  0  0  0  0  0  0  0
  -11.6839  -43.7457  -14.8635 H   0  0  0  0  0  0  0  0  0  0  0  0
  -12.8246  -42.4067  -14.8929 H   0  0  0  0  0  0  0  0  0  0  0  0
  -16.5303  -43.2604  -20.8917 H   0  0  0  0  0  0  0  0  0  0  0  0
  -16.3027  -43.7401  -19.2419 H   0  0  0  0  0  0  0  0  0  0  0  0
  -14.2365  -44.7268  -21.2553 H   0  0  0  0  0  0  0  0  0  0  0  0
  -14.2680  -43.0075  -20.9421 H   0  0  0  0  0  0  0  0  0  0  0  0
  3  2  1  0
  2  1  2  0
  5  6  1  0
  5  9  1  0
  6  7  1  0
  7  8  1  0
  8  9  1  0
  9  2  1  0
 10 15  2  0
 10 11  1  0
 11  3  1  0
 11 12  2  0
 12 13  1  0
 13 14  2  0
 14  4  1  0
 14 15  1  0
 17 16  1  0
 18 17  1  0
 19 18  1  0
 19 24  1  0
 19 20  1  0
 20 21  1  0
 21 22  1  0
 22 23  1  0
 23 24  1  0
 25  5  1  0
 26 25  1  0
 26 16  1  0
  3 27  1  0
  4 28  1  0
  4 29  1  0
  4 30  1  0
  6 31  1  0
  6 32  1  0
  7 33  1  0
  7 34  1  0
  8 35  1  0
  8 36  1  0
  9 37  1  6
 10 38  1  0
 13 39  1  0
 15 40  1  0
 17 41  1  0
 17 42  1  0
 18 43  1  0
 18 44  1  0
 20 45  1  0
 20 46  1  0
 21 47  1  0
 21 48  1  0
 23 49  1  0
 23 50  1  0
 24 51  1  0
 24 52  1  0
 25 53  1  0
 25 54  1  0
 26 55  1  0
 26 56  1  0
M  END
>  <smiles>  (98) 
[H]c1nc(N([H])C(=O)[C@@]2([H])N(C([H])([H])C([H])([H])OC([H])([H])C([H])([H])N3C([H])([H])C([H])([H])OC([H])([H])C3([H])[H])C([H])([H])C([H])([H])C2([H])[H])c([H])c([H])c1C([H])([H])[H]

>  <error>  (98) 


>  <∆∆G>  (98) 
-52.249391

>  <∆G_bound>  (98) 
264.869215

>  <∆G_unbound>  (98) 
317.118607

>  <comRMSD>  (98) 
1.170585

>  <N_constrained_atoms>  (98) 
24.0

>  <N_unconstrained_atoms>  (98) 
2.0

>  <runtime>  (98) 
7.547728

>  <regarded>  (98) 
['d0254a', 'z0052a']

>  <disregarded>  (98) 
[]

>  <LE>  (98) 
2.009592

>  <outcome>  (98) 
too moved

>  <percent_hybrid>  (98) 
38.0

$$$$
LIG
     RDKit          3D

  0  0  0  0  0  0  0  0  0  0999 V3000
M  V30 BEGIN CTAB
M  V30 COUNTS 51 53 0 0 0
M  V30 BEGIN ATOM
M  V30 1 O -18.514000 -44.944000 -23.084999 0
M  V30 2 C -17.580000 -44.924999 -22.290001 0
M  V30 3 N -16.473000 -44.150002 -22.421000 0
M  V30 4 C -15.164000 -40.129002 -26.188000 0
M  V30 5 O -16.413000 -45.701000 -20.278000 0
M  V30 6 C -16.757999 -45.423000 -18.919001 0
M  V30 7 C -18.214001 -45.775002 -18.761999 0
M  V30 8 C -18.778999 -45.480999 -20.135000 0
M  V30 9 C -17.622999 -45.814999 -21.052999 0 CFG=1
M  V30 10 C -16.889999 -43.139000 -24.648001 0
M  V30 11 C -16.169001 -43.235001 -23.444000 0
M  V30 12 C -15.149000 -42.410999 -23.158001 0
M  V30 13 C -14.848000 -41.453999 -24.049999 0
M  V30 14 C -15.513000 -41.262001 -25.253000 0
M  V30 15 C -16.540001 -42.141998 -25.537001 0
M  V30 16 N -13.266000 -42.196999 -21.974001 0
M  V30 17 C -12.944000 -41.021999 -21.833000 0
M  V30 18 C -11.629000 -40.624001 -21.225000 0
M  V30 19 N -13.726000 -40.034000 -22.247999 0
M  V30 20 C -13.348000 -39.222000 -23.382000 0
M  V30 21 C -12.966000 -37.907001 -22.924999 0
M  V30 22 N -11.741000 -37.458000 -22.879000 0
M  V30 23 C -11.837000 -36.210999 -22.299000 0
M  V30 24 C -13.101000 -35.942001 -22.018000 0
M  V30 25 N -13.818000 -37.035000 -22.421000 0
M  V30 26 C -14.207500 -42.304001 -22.566002 0
M  V30 27 H -15.766908 -44.244354 -21.677069 0
M  V30 28 H -14.890187 -39.240093 -25.600746 0
M  V30 29 H -14.315430 -40.425137 -26.822218 0
M  V30 30 H -16.032122 -39.896343 -26.822218 0
M  V30 31 H -16.089857 -45.028572 -18.139250 0
M  V30 32 H -17.036428 -44.396500 -19.199667 0
M  V30 33 H -18.736921 -46.152126 -17.870747 0
M  V30 34 H -18.430281 -44.742043 -18.451809 0
M  V30 35 H -19.781889 -45.115040 -20.400118 0
M  V30 36 H -18.420212 -44.443825 -20.060553 0
M  V30 37 H -17.743259 -46.838230 -21.438404 0
M  V30 38 H -17.708742 -43.837749 -24.874741 0
M  V30 39 H -14.016479 -40.774754 -23.810833 0
M  V30 40 H -17.087391 -42.046734 -26.486362 0
M  V30 41 H -11.709771 -40.648445 -20.128242 0
M  V30 42 H -10.847049 -41.325714 -21.550806 0
M  V30 43 H -11.367404 -39.606445 -21.550806 0
M  V30 44 H -14.611291 -39.843807 -21.757097 0
M  V30 45 H -12.499456 -39.690483 -23.902094 0
M  V30 46 H -14.199591 -39.137444 -24.073118 0
M  V30 47 H -10.988646 -35.539764 -22.099646 0
M  V30 48 H -13.495500 -35.025738 -21.554501 0
M  V30 49 H -13.227500 -41.323997 -21.586000 0
M  V30 50 H -13.217500 -41.313999 -21.576000 0
M  V30 51 H -14.838100 -37.155346 -22.344767 0
M  V30 END ATOM
M  V30 BEGIN BOND
M  V30 1 1 3 2
M  V30 2 2 2 1
M  V30 3 1 5 6
M  V30 4 1 5 9
M  V30 5 1 6 7
M  V30 6 1 7 8
M  V30 7 1 8 9
M  V30 8 1 9 2
M  V30 9 2 10 15
M  V30 10 1 10 11
M  V30 11 1 11 3
M  V30 12 2 11 12
M  V30 13 1 12 13
M  V30 14 2 13 14
M  V30 15 1 14 4
M  V30 16 1 14 15
M  V30 17 1 18 17
M  V30 18 2 17 16
M  V30 19 1 19 17
M  V30 20 1 20 19
M  V30 21 1 21 20
M  V30 22 2 21 22
M  V30 23 1 21 25
M  V30 24 1 22 23
M  V30 25 2 23 24
M  V30 26 1 24 25
M  V30 27 1 26 12
M  V30 28 1 26 16
M  V30 29 1 3 27
M  V30 30 1 4 28
M  V30 31 1 4 29
M  V30 32 1 4 30
M  V30 33 1 6 31
M  V30 34 1 6 32
M  V30 35 1 7 33
M  V30 36 1 7 34
M  V30 37 1 8 35
M  V30 38 1 8 36
M  V30 39 1 9 37 CFG=3
M  V30 40 1 10 38
M  V30 41 1 13 39
M  V30 42 1 15 40
M  V30 43 1 18 41
M  V30 44 1 18 42
M  V30 45 1 18 43
M  V30 46 1 19 44
M  V30 47 1 20 45
M  V30 48 1 20 46
M  V30 49 1 23 47
M  V30 50 1 24 48
M  V30 51 1 26 49
M  V30 52 1 26 50
M  V30 53 1 25 51
M  V30 END BOND
M  V30 BEGIN COLLECTION
M  V30 MDLV30/STEABS ATOMS=(0)
M  V30 END COLLECTION
M  V30 END CTAB
M  END
>  <smiles>  (99) 
[H]c1nc(C([H])([H])N([H])/C(=N\C([H])([H])c2c([H])c(C([H])([H])[H])c([H])c([H])c2N([H])C(=O)[C@@]2([H])OC([H])([H])C([H])([H])C2([H])[H])C([H])([H])[H])[nH]c1[H]

>  <error>  (99) 


>  <∆∆G>  (99) 
nan

>  <∆G_bound>  (99) 
nan

>  <∆G_unbound>  (99) 
nan

>  <comRMSD>  (99) 
0.0

>  <N_constrained_atoms>  (99) 
25.0

>  <N_unconstrained_atoms>  (99) 
1.0

>  <runtime>  (99) 
1.664274

>  <regarded>  (99) 
['d0254a', 'z0103a']

>  <disregarded>  (99) 
[]

>  <LE>  (99) 
nan

>  <outcome>  (99) 
crashed

>  <percent_hybrid>  (99) 
40.0

$$$$
LIG
     RDKit          3D

  0  0  0  0  0  0  0  0  0  0999 V3000
M  V30 BEGIN CTAB
M  V30 COUNTS 60 62 0 0 0
M  V30 BEGIN ATOM
M  V30 1 O -18.514000 -44.944000 -23.084999 0
M  V30 2 C -17.580000 -44.924999 -22.290001 0
M  V30 3 N -16.473000 -44.150002 -22.421000 0
M  V30 4 C -15.164000 -40.129002 -26.188000 0
M  V30 5 O -16.413000 -45.701000 -20.278000 0
M  V30 6 C -16.757999 -45.423000 -18.919001 0
M  V30 7 C -18.214001 -45.775002 -18.761999 0
M  V30 8 C -18.778999 -45.480999 -20.135000 0 CFG=2
M  V30 9 C -17.622999 -45.814999 -21.052999 0 CFG=1
M  V30 10 C -16.889999 -43.139000 -24.648001 0
M  V30 11 C -16.169001 -43.235001 -23.444000 0
M  V30 12 N -15.149000 -42.410999 -23.158001 0
M  V30 13 C -14.848000 -41.453999 -24.049999 0
M  V30 14 C -15.513000 -41.262001 -25.253000 0
M  V30 15 C -16.540001 -42.141998 -25.537001 0
M  V30 16 O -22.927999 -45.049999 -16.892000 0
M  V30 17 S -24.131001 -45.389000 -17.587999 0
M  V30 18 O -24.409000 -46.766998 -17.849001 0
M  V30 19 C -25.497000 -44.713001 -16.718000 0
M  V30 20 N -24.049000 -44.619999 -19.007999 0
M  V30 21 C -23.827999 -43.166000 -19.134001 0 CFG=2
M  V30 22 C -24.524000 -42.647999 -20.384001 0
M  V30 23 C -24.204000 -41.183998 -20.615000 0
M  V30 24 N -22.754999 -40.974998 -20.701000 0
M  V30 25 C -22.097000 -41.375000 -19.458000 0
M  V30 26 C -22.337000 -42.844002 -19.166000 0 CFG=2
M  V30 27 N -19.668499 -44.821751 -19.892750 0
M  V30 28 C -20.557999 -44.162498 -19.650501 0
M  V30 29 C -21.447500 -43.503250 -19.408251 0
M  V30 30 H -15.766908 -44.244354 -21.677069 0
M  V30 31 H -14.890187 -39.240093 -25.600746 0
M  V30 32 H -14.315430 -40.425137 -26.822218 0
M  V30 33 H -16.032122 -39.896343 -26.822218 0
M  V30 34 H -16.089857 -45.028572 -18.139250 0
M  V30 35 H -17.036428 -44.396500 -19.199667 0
M  V30 36 H -18.736921 -46.152126 -17.870747 0
M  V30 37 H -18.430281 -44.742043 -18.451809 0
M  V30 38 H -19.379461 -45.765228 -21.011732 0
M  V30 39 H -17.743259 -46.838230 -21.438404 0
M  V30 40 H -17.708742 -43.837749 -24.874741 0
M  V30 41 H -14.016479 -40.774754 -23.810833 0
M  V30 42 H -17.087391 -42.046734 -26.486362 0
M  V30 43 H -25.321608 -44.799797 -15.635548 0
M  V30 44 H -25.614441 -43.652775 -16.986568 0
M  V30 45 H -26.411160 -45.262714 -16.986568 0
M  V30 46 H -23.280239 -45.067856 -19.526972 0
M  V30 47 H -24.257580 -42.662785 -18.255232 0
M  V30 48 H -25.172569 -43.254494 -21.033249 0
M  V30 49 H -25.397100 -42.361732 -19.779230 0
M  V30 50 H -24.956566 -40.386871 -20.705757 0
M  V30 51 H -24.162924 -41.021439 -19.527853 0
M  V30 52 H -22.266764 -40.597443 -21.525606 0
M  V30 53 H -21.506842 -40.700752 -18.819952 0
M  V30 54 H -23.004616 -41.114555 -18.893728 0
M  V30 55 H -22.248466 -43.299007 -18.168438 0
M  V30 56 H -18.618500 -43.771751 -18.842751 0
M  V30 57 H -19.497999 -43.102501 -18.590500 0
M  V30 58 H -19.487999 -43.092499 -18.580500 0
M  V30 59 H -20.367500 -42.423252 -18.328251 0
M  V30 60 H -20.357500 -42.413250 -18.318251 0
M  V30 END ATOM
M  V30 BEGIN BOND
M  V30 1 1 3 2
M  V30 2 2 2 1
M  V30 3 1 5 6
M  V30 4 1 5 9
M  V30 5 1 6 7
M  V30 6 1 7 8
M  V30 7 1 8 9
M  V30 8 1 9 2
M  V30 9 2 10 15
M  V30 10 1 10 11
M  V30 11 1 11 3
M  V30 12 2 11 12
M  V30 13 1 12 13
M  V30 14 2 13 14
M  V30 15 1 14 4
M  V30 16 1 14 15
M  V30 17 1 19 17
M  V30 18 2 18 17
M  V30 19 2 17 16
M  V30 20 1 20 17
M  V30 21 1 21 20
M  V30 22 1 21 26
M  V30 23 1 21 22
M  V30 24 1 22 23
M  V30 25 1 23 24
M  V30 26 1 24 25
M  V30 27 1 25 26
M  V30 28 1 27 8
M  V30 29 1 28 27
M  V30 30 1 29 28
M  V30 31 1 29 26
M  V30 32 1 3 30
M  V30 33 1 4 31
M  V30 34 1 4 32
M  V30 35 1 4 33
M  V30 36 1 6 34
M  V30 37 1 6 35
M  V30 38 1 7 36
M  V30 39 1 7 37
M  V30 40 1 8 38 CFG=3
M  V30 41 1 9 39 CFG=3
M  V30 42 1 10 40
M  V30 43 1 13 41
M  V30 44 1 15 42
M  V30 45 1 19 43
M  V30 46 1 19 44
M  V30 47 1 19 45
M  V30 48 1 20 46
M  V30 49 1 21 47 CFG=1
M  V30 50 1 22 48
M  V30 51 1 22 49
M  V30 52 1 23 50
M  V30 53 1 23 51
M  V30 54 1 24 52
M  V30 55 1 25 53
M  V30 56 1 25 54
M  V30 57 1 26 55 CFG=1
M  V30 58 1 27 56
M  V30 59 1 28 57
M  V30 60 1 28 58
M  V30 61 1 29 59
M  V30 62 1 29 60
M  V30 END BOND
M  V30 BEGIN COLLECTION
M  V30 MDLV30/STEABS ATOMS=(0)
M  V30 END COLLECTION
M  V30 END CTAB
M  END
>  <smiles>  (100) 
[H]c1nc(N([H])C(=O)[C@@]2([H])OC([H])([H])C([H])([H])[C@@]2([H])N([H])C([H])([H])C([H])([H])[C@@]2([H])C([H])([H])N([H])C([H])([H])C([H])([H])[C@@]2([H])N([H])S(=O)(=O)C([H])([H])[H])c([H])c([H])c1C([H])([H])[H]

>  <error>  (100) 


>  <∆∆G>  (100) 
nan

>  <∆G_bound>  (100) 
nan

>  <∆G_unbound>  (100) 
nan

>  <comRMSD>  (100) 
0.0

>  <N_constrained_atoms>  (100) 
26.0

>  <N_unconstrained_atoms>  (100) 
3.0

>  <runtime>  (100) 
1.869066

>  <regarded>  (100) 
['d0254a', 'z0193a']

>  <disregarded>  (100) 
[]

>  <LE>  (100) 
nan

>  <outcome>  (100) 
crashed

>  <percent_hybrid>  (100) 
43.0

$$$$

     RDKit          2D

  0  0  0  0  0  0  0  0  0  0999 V2000
M  END
>  <smiles>  (101) 
nan

>  <error>  (101) 
RecursionError maximum recursion depth exceeded while calling a Python object

>  <∆∆G>  (101) 
nan

>  <∆G_bound>  (101) 
nan

>  <∆G_unbound>  (101) 
nan

>  <comRMSD>  (101) 
nan

>  <N_constrained_atoms>  (101) 
nan

>  <N_unconstrained_atoms>  (101) 
nan

>  <runtime>  (101) 
nan

>  <regarded>  (101) 
[]

>  <disregarded>  (101) 
[]

>  <LE>  (101) 
nan

>  <outcome>  (101) 
crashed

>  <percent_hybrid>  (101) 
nan

$$$$
LIG
     RDKit          3D

 45 47  0  0  0  0  0  0  0  0999 V2000
  -18.7185  -45.2836  -23.5174 O   0  0  0  0  0  0  0  0  0  0  0  0
  -18.0054  -44.8924  -22.6756 C   0  0  0  0  0  0  0  0  0  0  0  0
  -17.0342  -43.6830  -22.6625 N   0  0  0  0  0  0  0  0  0  0  0  0
  -15.3621  -40.0663  -26.6068 C   0  0  0  0  0  0  0  0  0  0  0  0
  -16.8227  -44.9968  -20.4226 N   0  0  0  0  0  0  0  0  0  0  0  0
  -17.3025  -45.2180  -19.0564 C   0  0  0  0  0  0  0  0  0  0  0  0
  -18.7924  -44.9945  -19.1769 C   0  0  0  0  0  0  0  0  0  0  0  0
  -19.1456  -45.5998  -20.5229 C   0  0  0  0  0  0  0  0  0  0  0  0
  -17.8385  -45.6288  -21.3160 C   0  0  1  0  0  0  0  0  0  0  0  0
  -17.3993  -42.7332  -24.8434 C   0  0  0  0  0  0  0  0  0  0  0  0
  -16.6865  -42.8068  -23.6621 C   0  0  0  0  0  0  0  0  0  0  0  0
  -15.6031  -42.0522  -23.4096 N   0  0  0  0  0  0  0  0  0  0  0  0
  -15.1840  -41.2237  -24.3897 C   0  0  0  0  0  0  0  0  0  0  0  0
  -15.8325  -41.0652  -25.6017 C   0  0  0  0  0  0  0  0  0  0  0  0
  -16.9772  -41.8284  -25.8126 C   0  0  0  0  0  0  0  0  0  0  0  0
  -13.8653  -43.6090  -20.4468 C   0  0  0  0  0  0  0  0  0  0  0  0
  -13.3774  -42.5746  -20.8084 C   0  0  0  0  0  0  0  0  0  0  0  0
  -12.8497  -41.2883  -21.0917 C   0  0  0  0  0  0  0  0  0  0  0  0
  -13.5604  -40.1731  -21.4576 C   0  0  0  0  0  0  0  0  0  0  0  0
  -12.6351  -39.1716  -21.5177 N   0  0  0  0  0  0  0  0  0  0  0  0
  -11.4315  -39.7030  -21.1530 C   0  0  0  0  0  0  0  0  0  0  0  0
  -11.5248  -40.9919  -20.9175 N   0  0  0  0  0  0  0  0  0  0  0  0
  -15.4718  -45.5457  -20.6343 C   0  0  0  0  0  0  0  0  0  0  0  0
  -14.3731  -44.8307  -19.8368 C   0  0  0  0  0  0  0  0  0  0  0  0
  -16.5056  -43.6817  -21.7950 H   0  0  0  0  0  0  0  0  0  0  0  0
  -15.8518  -39.1024  -26.4374 H   0  0  0  0  0  0  0  0  0  0  0  0
  -14.2786  -39.9244  -26.5484 H   0  0  0  0  0  0  0  0  0  0  0  0
  -15.5924  -40.4044  -27.6227 H   0  0  0  0  0  0  0  0  0  0  0  0
  -17.1060  -46.2432  -18.7183 H   0  0  0  0  0  0  0  0  0  0  0  0
  -16.8641  -44.5161  -18.3413 H   0  0  0  0  0  0  0  0  0  0  0  0
  -19.3538  -45.4543  -18.3582 H   0  0  0  0  0  0  0  0  0  0  0  0
  -19.0173  -43.9208  -19.1822 H   0  0  0  0  0  0  0  0  0  0  0  0
  -19.5073  -46.6245  -20.3774 H   0  0  0  0  0  0  0  0  0  0  0  0
  -19.9437  -45.0264  -21.0056 H   0  0  0  0  0  0  0  0  0  0  0  0
  -17.5689  -46.6700  -21.5380 H   0  0  0  0  0  0  0  0  0  0  0  0
  -18.2825  -43.3352  -25.0117 H   0  0  0  0  0  0  0  0  0  0  0  0
  -14.2825  -40.6644  -24.1637 H   0  0  0  0  0  0  0  0  0  0  0  0
  -17.5471  -41.7159  -26.7265 H   0  0  0  0  0  0  0  0  0  0  0  0
  -14.6131  -40.0128  -21.6412 H   0  0  0  0  0  0  0  0  0  0  0  0
  -10.5336  -39.1045  -21.0746 H   0  0  0  0  0  0  0  0  0  0  0  0
  -15.4703  -46.6078  -20.3536 H   0  0  0  0  0  0  0  0  0  0  0  0
  -15.2191  -45.5052  -21.7009 H   0  0  0  0  0  0  0  0  0  0  0  0
  -14.6874  -44.6344  -18.8073 H   0  0  0  0  0  0  0  0  0  0  0  0
  -13.5194  -45.4992  -19.7619 H   0  0  0  0  0  0  0  0  0  0  0  0
  -12.8111  -38.1968  -21.7160 H   0  0  0  0  0  0  0  0  0  0  0  0
  3  2  1  0
  2  1  2  0
  5  6  1  0
  5  9  1  0
  6  7  1  0
  7  8  1  0
  8  9  1  0
  9  2  1  0
 10 15  2  0
 10 11  1  0
 11  3  1  0
 11 12  2  0
 12 13  1  0
 13 14  2  0
 14  4  1  0
 14 15  1  0
 17 16  3  0
 18 17  1  0
 18 19  2  0
 18 22  1  0
 19 20  1  0
 20 21  1  0
 21 22  2  0
 23  5  1  0
 24 23  1  0
 24 16  1  0
  3 25  1  0
  4 26  1  0
  4 27  1  0
  4 28  1  0
  6 29  1  0
  6 30  1  0
  7 31  1  0
  7 32  1  0
  8 33  1  0
  8 34  1  0
  9 35  1  6
 10 36  1  0
 13 37  1  0
 15 38  1  0
 19 39  1  0
 21 40  1  0
 23 41  1  0
 23 42  1  0
 24 43  1  0
 24 44  1  0
 20 45  1  0
M  END
>  <smiles>  (102) 
[H]c1nc(C#CC([H])([H])C([H])([H])N2C([H])([H])C([H])([H])C([H])([H])[C@@]2([H])C(=O)N([H])c2nc([H])c(C([H])([H])[H])c([H])c2[H])c([H])[nH]1

>  <error>  (102) 


>  <∆∆G>  (102) 
-47.859232

>  <∆G_bound>  (102) 
53.904681

>  <∆G_unbound>  (102) 
101.763913

>  <comRMSD>  (102) 
0.770182

>  <N_constrained_atoms>  (102) 
22.0

>  <N_unconstrained_atoms>  (102) 
2.0

>  <runtime>  (102) 
2.463545

>  <regarded>  (102) 
['d0254a', 'z0875c']

>  <disregarded>  (102) 
[]

>  <LE>  (102) 
1.994135

>  <outcome>  (102) 
acceptable

>  <percent_hybrid>  (102) 
32.0

$$$$
LIG
     RDKit          3D

 67 70  0  0  0  0  0  0  0  0999 V2000
  -16.4730  -44.1500  -22.4210 N   0  0  0  0  0  0  0  0  0  0  0  0
  -15.1640  -40.1290  -26.1880 C   0  0  0  0  0  0  0  0  0  0  0  0
  -13.7000  -42.3430  -18.6770 O   0  0  0  0  0  0  0  0  0  0  0  0
  -17.0530  -44.1860  -14.6170 O   0  0  0  0  0  0  0  0  0  0  0  0
  -14.1550  -38.9170  -16.1040 O   0  0  0  0  0  0  0  0  0  0  0  0
  -14.9140  -44.2600  -16.5240 O   0  0  0  0  0  0  0  0  0  0  0  0
  -15.7460  -43.7990  -17.3020 C   0  0  0  0  0  0  0  0  0  0  0  0
  -16.9230  -43.2280  -16.8550 N   0  0  0  0  0  0  0  0  0  0  0  0
  -17.2310  -42.9340  -15.2860 S   0  0  0  0  0  0  0  0  0  0  0  0
  -18.4860  -42.2470  -15.1990 O   0  0  0  0  0  0  0  0  0  0  0  0
  -14.8680  -38.6970  -17.3270 C   0  0  0  0  0  0  0  0  0  0  0  0
  -12.8060  -41.4270  -19.3080 C   0  0  0  0  0  0  0  0  0  0  0  0
  -16.7580  -45.4230  -18.9190 C   0  0  1  0  0  0  0  0  0  0  0  0
  -18.2140  -45.7750  -18.7620 C   0  0  0  0  0  0  0  0  0  0  0  0
  -18.7790  -45.4810  -20.1350 C   0  0  0  0  0  0  0  0  0  0  0  0
  -17.6230  -45.8150  -21.0530 C   0  0  1  0  0  0  0  0  0  0  0  0
  -16.8900  -43.1390  -24.6480 C   0  0  0  0  0  0  0  0  0  0  0  0
  -16.1690  -43.2350  -23.4440 C   0  0  0  0  0  0  0  0  0  0  0  0
  -15.1490  -42.4110  -23.1580 N   0  0  0  0  0  0  0  0  0  0  0  0
  -14.8480  -41.4540  -24.0500 C   0  0  0  0  0  0  0  0  0  0  0  0
  -15.5130  -41.2620  -25.2530 C   0  0  0  0  0  0  0  0  0  0  0  0
  -16.5400  -42.1420  -25.5370 C   0  0  0  0  0  0  0  0  0  0  0  0
  -15.4970  -43.7610  -21.5670 C   0  0  1  0  0  0  0  0  0  0  0  0
  -14.5890  -42.9950  -20.8480 C   0  0  0  0  0  0  0  0  0  0  0  0
  -14.5950  -43.0200  -19.4630 C   0  0  1  0  0  0  0  0  0  0  0  0
  -15.5390  -43.7830  -18.7770 C   0  0  2  0  0  0  0  0  0  0  0  0
  -16.4420  -44.5630  -20.9040 C   0  0  0  0  0  0  0  0  0  0  0  0
  -13.8840  -40.1190  -14.0760 C   0  0  0  0  0  0  0  0  0  0  0  0
  -14.2390  -41.1750  -13.2430 C   0  0  0  0  0  0  0  0  0  0  0  0
  -15.2710  -42.0430  -13.5930 C   0  0  0  0  0  0  0  0  0  0  0  0
  -15.9590  -41.8270  -14.7790 C   0  0  0  0  0  0  0  0  0  0  0  0
  -15.6240  -40.7660  -15.6090 C   0  0  0  0  0  0  0  0  0  0  0  0
  -14.5760  -39.9260  -15.2660 C   0  0  0  0  0  0  0  0  0  0  0  0
  -18.4965  -45.6280  -19.4485 C   0  0  0  0  0  0  0  0  0  0  0  0
  -17.1990  -44.8768  -22.3459 H   0  0  0  0  0  0  0  0  0  0  0  0
  -14.8902  -39.2401  -25.6007 H   0  0  0  0  0  0  0  0  0  0  0  0
  -14.3154  -40.4251  -26.8222 H   0  0  0  0  0  0  0  0  0  0  0  0
  -16.0321  -39.8963  -26.8222 H   0  0  0  0  0  0  0  0  0  0  0  0
  -17.6401  -42.9765  -17.5503 H   0  0  0  0  0  0  0  0  0  0  0  0
  -15.8964  -38.3797  -17.0999 H   0  0  0  0  0  0  0  0  0  0  0  0
  -14.3627  -37.9130  -17.9101 H   0  0  0  0  0  0  0  0  0  0  0  0
  -14.8923  -39.6294  -17.9101 H   0  0  0  0  0  0  0  0  0  0  0  0
  -12.2560  -40.8635  -18.5399 H   0  0  0  0  0  0  0  0  0  0  0  0
  -12.0937  -41.9830  -19.9352 H   0  0  0  0  0  0  0  0  0  0  0  0
  -13.3792  -40.7284  -19.9352 H   0  0  0  0  0  0  0  0  0  0  0  0
  -16.0302  -45.8145  -18.1930 H   0  0  0  0  0  0  0  0  0  0  0  0
  -18.3393  -46.8361  -18.5007 H   0  0  0  0  0  0  0  0  0  0  0  0
  -18.7131  -45.2163  -17.9565 H   0  0  0  0  0  0  0  0  0  0  0  0
  -19.0651  -44.4229  -20.2273 H   0  0  0  0  0  0  0  0  0  0  0  0
  -19.6925  -46.0507  -20.3607 H   0  0  0  0  0  0  0  0  0  0  0  0
  -17.7845  -46.4348  -21.9473 H   0  0  0  0  0  0  0  0  0  0  0  0
  -17.7087  -43.8377  -24.8747 H   0  0  0  0  0  0  0  0  0  0  0  0
  -14.0165  -40.7748  -23.8108 H   0  0  0  0  0  0  0  0  0  0  0  0
  -17.0874  -42.0467  -26.4864 H   0  0  0  0  0  0  0  0  0  0  0  0
  -14.5697  -43.3769  -22.0170 H   0  0  0  0  0  0  0  0  0  0  0  0
  -13.5853  -43.3140  -21.1654 H   0  0  0  0  0  0  0  0  0  0  0  0
  -14.8939  -41.9639  -21.0800 H   0  0  0  0  0  0  0  0  0  0  0  0
  -15.2809  -42.1601  -19.4504 H   0  0  0  0  0  0  0  0  0  0  0  0
  -15.4153  -43.2098  -19.7077 H   0  0  0  0  0  0  0  0  0  0  0  0
  -15.7958  -45.0105  -20.1345 H   0  0  0  0  0  0  0  0  0  0  0  0
  -17.2182  -43.8073  -21.0948 H   0  0  0  0  0  0  0  0  0  0  0  0
  -13.0630  -39.4427  -13.7955 H   0  0  0  0  0  0  0  0  0  0  0  0
  -13.6986  -41.3265  -12.2969 H   0  0  0  0  0  0  0  0  0  0  0  0
  -15.5366  -42.8868  -12.9393 H   0  0  0  0  0  0  0  0  0  0  0  0
  -16.1888  -40.5922  -16.5368 H   0  0  0  0  0  0  0  0  0  0  0  0
  -17.1965  -44.3280  -18.1485 H   0  0  0  0  0  0  0  0  0  0  0  0
  -17.1865  -44.3180  -18.1385 H   0  0  0  0  0  0  0  0  0  0  0  0
  8  7  1  0
  8  9  1  0
  7  6  2  0
  4  9  2  0
 10  9  2  0
  3 12  1  0
 11  5  1  0
 13 14  1  0
 15 16  1  0
 17 22  2  0
 17 18  1  0
 18  1  1  0
 18 19  2  0
 19 20  1  0
 20 21  2  0
 21  2  1  0
 21 22  1  0
 23 27  1  0
 23 24  1  0
 24 25  1  0
 25 26  1  0
 25  3  1  0
 26  7  1  0
 28 33  2  0
 28 29  1  0
 29 30  2  0
 30 31  1  0
 31  9  1  0
 31 32  2  0
 32 33  1  0
 33  5  1  0
 13 26  1  0
 16 27  1  0
  1 23  1  0
 13 16  1  0
 14 34  1  0
 15 34  1  0
  1 35  1  0
  2 36  1  0
  2 37  1  0
  2 38  1  0
  8 39  1  0
 11 40  1  0
 11 41  1  0
 11 42  1  0
 12 43  1  0
 12 44  1  0
 12 45  1  0
 13 46  1  1
 14 47  1  0
 14 48  1  0
 15 49  1  0
 15 50  1  0
 16 51  1  6
 17 52  1  0
 20 53  1  0
 22 54  1  0
 23 55  1  6
 24 56  1  0
 24 57  1  0
 25 58  1  1
 26 59  1  6
 27 60  1  0
 27 61  1  0
 28 62  1  0
 29 63  1  0
 30 64  1  0
 32 65  1  0
 34 66  1  0
 34 67  1  0
M  END
>  <smiles>  (103) 
[H]c1nc(N([H])[C@]2([H])C([H])([H])[C@]3([H])C([H])([H])C([H])([H])C([H])([H])[C@]3([H])[C@@]([H])(C(=O)N([H])S(=O)(=O)c3c([H])c([H])c([H])c(OC([H])([H])[H])c3[H])[C@@]([H])(OC([H])([H])[H])C2([H])[H])c([H])c([H])c1C([H])([H])[H]

>  <error>  (103) 


>  <∆∆G>  (103) 
nan

>  <∆G_bound>  (103) 
nan

>  <∆G_unbound>  (103) 
nan

>  <comRMSD>  (103) 
0.0

>  <N_constrained_atoms>  (103) 
33.0

>  <N_unconstrained_atoms>  (103) 
1.0

>  <runtime>  (103) 
1.712706

>  <regarded>  (103) 
['d0254a', '5i3p-a']

>  <disregarded>  (103) 
[]

>  <LE>  (103) 
nan

>  <outcome>  (103) 
crashed

>  <percent_hybrid>  (103) 
37.0

$$$$

     RDKit          2D

  0  0  0  0  0  0  0  0  0  0999 V2000
M  END
>  <smiles>  (104) 
nan

>  <error>  (104) 
RuntimeError Range Error
	atomId
	Violation occurred on line 35 in file Code/GraphMol/Conformer.cpp
	Failed Expression: 71 < 71
	RDKIT: 2024.03.5
	BOOST: 1_85


>  <∆∆G>  (104) 
nan

>  <∆G_bound>  (104) 
nan

>  <∆G_unbound>  (104) 
nan

>  <comRMSD>  (104) 
nan

>  <N_constrained_atoms>  (104) 
nan

>  <N_unconstrained_atoms>  (104) 
nan

>  <runtime>  (104) 
nan

>  <regarded>  (104) 
[]

>  <disregarded>  (104) 
[]

>  <LE>  (104) 
nan

>  <outcome>  (104) 
crashed

>  <percent_hybrid>  (104) 
nan

$$$$

     RDKit          2D

  0  0  0  0  0  0  0  0  0  0999 V2000
M  END
>  <smiles>  (105) 
nan

>  <error>  (105) 
RuntimeError Range Error
	atomId
	Violation occurred on line 35 in file Code/GraphMol/Conformer.cpp
	Failed Expression: 63 < 63
	RDKIT: 2024.03.5
	BOOST: 1_85


>  <∆∆G>  (105) 
nan

>  <∆G_bound>  (105) 
nan

>  <∆G_unbound>  (105) 
nan

>  <comRMSD>  (105) 
nan

>  <N_constrained_atoms>  (105) 
nan

>  <N_unconstrained_atoms>  (105) 
nan

>  <runtime>  (105) 
nan

>  <regarded>  (105) 
[]

>  <disregarded>  (105) 
[]

>  <LE>  (105) 
nan

>  <outcome>  (105) 
crashed

>  <percent_hybrid>  (105) 
nan

$$$$
LIG
     RDKit          3D

 48 49  0  0  0  0  0  0  0  0999 V2000
  -16.7974  -43.9367  -22.9399 N   0  0  0  0  0  0  0  0  0  0  0  0
  -15.0449  -39.7525  -26.4014 C   0  0  0  0  0  0  0  0  0  0  0  0
  -16.3680  -42.9096  -16.9736 C   0  0  0  0  0  0  0  0  0  0  0  0
  -18.3227  -42.0934  -15.7835 O   0  0  0  0  0  0  0  0  0  0  0  0
  -17.4090  -40.7539  -17.3332 O   0  0  0  0  0  0  0  0  0  0  0  0
  -17.4008  -41.8206  -16.7305 C   0  0  0  0  0  0  0  0  0  0  0  0
  -16.3079  -45.8663  -18.8297 O   0  0  0  0  0  0  0  0  0  0  0  0
  -17.1202  -44.7618  -18.5391 C   0  0  0  0  0  0  0  0  0  0  0  0
  -18.5886  -45.0011  -18.3747 C   0  0  0  0  0  0  0  0  0  0  0  0
  -19.3321  -45.4773  -19.6013 C   0  0  0  0  0  0  0  0  0  0  0  0
  -15.5180  -45.6672  -19.9603 C   0  0  0  0  0  0  0  0  0  0  0  0
  -16.8621  -42.7950  -25.1240 C   0  0  0  0  0  0  0  0  0  0  0  0
  -16.2563  -42.9698  -23.8739 C   0  0  0  0  0  0  0  0  0  0  0  0
  -15.1981  -42.1951  -23.5307 N   0  0  0  0  0  0  0  0  0  0  0  0
  -14.8317  -41.1905  -24.3549 C   0  0  0  0  0  0  0  0  0  0  0  0
  -15.4369  -40.9236  -25.5688 C   0  0  0  0  0  0  0  0  0  0  0  0
  -16.4610  -41.7662  -25.9646 C   0  0  0  0  0  0  0  0  0  0  0  0
  -16.4623  -43.4647  -18.3817 C   0  0  0  0  0  0  0  0  0  0  0  0
  -15.9127  -42.7610  -19.4000 C   0  0  0  0  0  0  0  0  0  0  0  0
  -16.0878  -42.9293  -20.8376 C   0  0  0  0  0  0  0  0  0  0  0  0
  -16.2282  -44.0214  -21.6374 C   0  0  0  0  0  0  0  0  0  0  0  0
  -16.1718  -45.3744  -21.0851 C   0  0  0  0  0  0  0  0  0  0  0  0
  -18.9625  -45.3638  -23.7749 C   0  0  0  0  0  0  0  0  0  0  0  0
  -18.7253  -46.6789  -23.0645 C   0  0  0  0  0  0  0  0  0  0  0  0
  -18.5348  -43.8915  -22.8254 S   0  0  0  0  0  0  0  0  0  0  0  0
  -15.3953  -38.8283  -25.9331 H   0  0  0  0  0  0  0  0  0  0  0  0
  -13.9613  -39.7081  -26.5327 H   0  0  0  0  0  0  0  0  0  0  0  0
  -15.4957  -39.8171  -27.3965 H   0  0  0  0  0  0  0  0  0  0  0  0
  -15.3824  -42.4559  -16.8042 H   0  0  0  0  0  0  0  0  0  0  0  0
  -16.4443  -43.6858  -16.2167 H   0  0  0  0  0  0  0  0  0  0  0  0
  -18.3080  -42.9767  -15.3423 H   0  0  0  0  0  0  0  0  0  0  0  0
  -18.7557  -45.7782  -17.6273 H   0  0  0  0  0  0  0  0  0  0  0  0
  -19.0729  -44.0842  -18.0220 H   0  0  0  0  0  0  0  0  0  0  0  0
  -19.3290  -44.7145  -20.3735 H   0  0  0  0  0  0  0  0  0  0  0  0
  -20.3787  -45.6727  -19.3451 H   0  0  0  0  0  0  0  0  0  0  0  0
  -18.9112  -46.4110  -19.9788 H   0  0  0  0  0  0  0  0  0  0  0  0
  -14.6001  -45.1719  -19.6561 H   0  0  0  0  0  0  0  0  0  0  0  0
  -17.6802  -43.4181  -25.4498 H   0  0  0  0  0  0  0  0  0  0  0  0
  -14.0207  -40.5730  -23.9822 H   0  0  0  0  0  0  0  0  0  0  0  0
  -16.9651  -41.6094  -26.9107 H   0  0  0  0  0  0  0  0  0  0  0  0
  -15.4229  -41.8133  -19.1628 H   0  0  0  0  0  0  0  0  0  0  0  0
  -16.2375  -41.9545  -21.3063 H   0  0  0  0  0  0  0  0  0  0  0  0
  -17.1056  -45.8998  -21.2165 H   0  0  0  0  0  0  0  0  0  0  0  0
  -18.4327  -45.3396  -24.7162 H   0  0  0  0  0  0  0  0  0  0  0  0
  -20.0105  -45.2519  -24.0585 H   0  0  0  0  0  0  0  0  0  0  0  0
  -19.2376  -46.7419  -22.1057 H   0  0  0  0  0  0  0  0  0  0  0  0
  -17.6677  -46.8282  -22.8877 H   0  0  0  0  0  0  0  0  0  0  0  0
  -19.0644  -47.5098  -23.6911 H   0  0  0  0  0  0  0  0  0  0  0  0
  5  6  2  0
  3  6  1  0
  6  4  1  0
  7  8  4  0
  7 11  4  0
  8  9  1  0
  9 10  1  0
 12 17  2  0
 12 13  1  0
 13  1  1  0
 13 14  2  0
 14 15  1  0
 15 16  2  0
 16  2  1  0
 16 17  1  0
 18  3  1  0
 18 19  2  0
 19 20  1  0
 20 21  2  0
 21 22  1  0
 23 24  1  0
 23 25  1  0
  8 18  1  0
 11 22  4  0
 25  1  1  0
  1 21  1  0
  2 26  1  0
  2 27  1  0
  2 28  1  0
  3 29  1  0
  3 30  1  0
  4 31  1  0
  9 32  1  0
  9 33  1  0
 10 34  1  0
 10 35  1  0
 10 36  1  0
 11 37  1  0
 12 38  1  0
 15 39  1  0
 17 40  1  0
 19 41  1  0
 20 42  1  0
 22 43  1  0
 23 44  1  0
 23 45  1  0
 24 46  1  0
 24 47  1  0
 24 48  1  0
M  END
>  <smiles>  (106) 
[H]OC(=O)C([H])([H])/C1=C([H])/C([H])=C(/N(SC([H])([H])C([H])([H])[H])c2nc([H])c(C([H])([H])[H])c([H])c2[H])C([H]):C([H]):O:C1C([H])([H])C([H])([H])[H]

>  <error>  (106) 


>  <∆∆G>  (106) 
-114.135391

>  <∆G_bound>  (106) 
197.077998

>  <∆G_unbound>  (106) 
311.213389

>  <comRMSD>  (106) 
1.406666

>  <N_constrained_atoms>  (106) 
25.0

>  <N_unconstrained_atoms>  (106) 
0.0

>  <runtime>  (106) 
2.901343

>  <regarded>  (106) 
['d0254a', '6h80-a']

>  <disregarded>  (106) 
[]

>  <LE>  (106) 
4.565416

>  <outcome>  (106) 
too moved

>  <percent_hybrid>  (106) 
48.0

$$$$
LIG
     RDKit          3D

 72 76  0  0  0  0  0  0  0  0999 V2000
  -16.4730  -44.1500  -22.4210 N   0  0  0  0  0  0  0  0  0  0  0  0
  -15.1640  -40.1290  -26.1880 C   0  0  0  0  0  0  0  0  0  0  0  0
  -13.6900  -42.0740  -20.9510 C   0  0  0  0  0  0  0  0  0  0  0  0
  -15.1740  -40.2190  -21.2790 O   0  0  0  0  0  0  0  0  0  0  0  0
  -16.2150  -43.7690  -14.7030 O   0  0  0  0  0  0  0  0  0  0  0  0
  -17.0570  -42.7860  -16.4280 O   0  0  0  0  0  0  0  0  0  0  0  0
  -19.6580  -46.4820  -24.1200 C   0  0  0  0  0  0  0  0  0  0  0  0
  -20.1480  -46.5920  -25.1880 C   0  0  0  0  0  0  0  0  0  0  0  0
  -20.6510  -46.6680  -26.5650 C   0  0  0  0  0  0  0  0  0  0  0  0
  -13.2980  -39.8380  -20.2840 O   0  0  0  0  0  0  0  0  0  0  0  0
  -14.0910  -40.6190  -20.8240 C   0  0  0  0  0  0  0  0  0  0  0  0
  -15.2920  -44.3830  -16.7970 C   0  0  0  0  0  0  0  0  0  0  0  0
  -16.2540  -43.5930  -15.9320 C   0  0  0  0  0  0  0  0  0  0  0  0
  -22.0000  -46.2280  -26.6080 O   0  0  0  0  0  0  0  0  0  0  0  0
  -16.4130  -45.7010  -20.2780 O   0  0  0  0  0  0  0  0  0  0  0  0
  -16.7580  -45.4230  -18.9190 C   0  0  1  0  0  0  0  0  0  0  0  0
  -18.2140  -45.7750  -18.7620 C   0  0  0  0  0  0  0  0  0  0  0  0
  -18.7790  -45.4810  -20.1350 C   0  0  0  0  0  0  0  0  0  0  0  0
  -17.6230  -45.8150  -21.0530 C   0  0  1  0  0  0  0  0  0  0  0  0
  -16.8900  -43.1390  -24.6480 C   0  0  0  0  0  0  0  0  0  0  0  0
  -16.1690  -43.2350  -23.4440 C   0  0  0  0  0  0  0  0  0  0  0  0
  -15.1490  -42.4110  -23.1580 N   0  0  0  0  0  0  0  0  0  0  0  0
  -14.8480  -41.4540  -24.0500 C   0  0  0  0  0  0  0  0  0  0  0  0
  -15.5130  -41.2620  -25.2530 C   0  0  0  0  0  0  0  0  0  0  0  0
  -16.5400  -42.1420  -25.5370 C   0  0  0  0  0  0  0  0  0  0  0  0
  -14.6530  -43.0350  -20.2960 C   0  0  2  0  0  0  0  0  0  0  0  0
  -14.5710  -43.2350  -18.9200 C   0  0  0  0  0  0  0  0  0  0  0  0
  -15.4460  -44.1200  -18.2860 C   0  0  2  0  0  0  0  0  0  0  0  0
  -16.4850  -44.6440  -20.4290 C   0  0  0  0  0  0  0  0  0  0  0  0
  -15.5780  -43.7690  -21.0610 C   0  0  0  0  0  0  0  0  0  0  0  0
  -18.7640  -47.2690  -22.0220 C   0  0  2  0  0  0  0  0  0  0  0  0
  -18.9910  -46.2940  -22.9790 C   0  0  2  0  0  0  0  0  0  0  0  0
  -18.0680  -44.8760  -22.7170 S   0  0  1  0  0  0  0  0  0  0  0  0
  -17.9160  -46.7970  -21.0040 C   0  0  0  0  0  0  0  0  0  0  0  0
  -18.5295  -45.5850  -22.8480 C   0  0  0  0  0  0  0  0  0  0  0  0
  -18.8775  -46.7815  -22.5005 C   0  0  0  0  0  0  0  0  0  0  0  0
  -15.8629  -44.3671  -21.6200 H   0  0  0  0  0  0  0  0  0  0  0  0
  -14.8902  -39.2401  -25.6007 H   0  0  0  0  0  0  0  0  0  0  0  0
  -14.3154  -40.4251  -26.8222 H   0  0  0  0  0  0  0  0  0  0  0  0
  -16.0321  -39.8963  -26.8222 H   0  0  0  0  0  0  0  0  0  0  0  0
  -13.6261  -42.3233  -22.0205 H   0  0  0  0  0  0  0  0  0  0  0  0
  -12.7264  -42.1854  -20.4322 H   0  0  0  0  0  0  0  0  0  0  0  0
  -16.8306  -43.2678  -14.1114 H   0  0  0  0  0  0  0  0  0  0  0  0
  -20.5946  -47.7084  -26.9177 H   0  0  0  0  0  0  0  0  0  0  0  0
  -20.0376  -46.0240  -27.2123 H   0  0  0  0  0  0  0  0  0  0  0  0
  -13.5337  -38.8813  -20.1874 H   0  0  0  0  0  0  0  0  0  0  0  0
  -14.2653  -44.1196  -16.5030 H   0  0  0  0  0  0  0  0  0  0  0  0
  -15.5171  -45.4475  -16.6354 H   0  0  0  0  0  0  0  0  0  0  0  0
  -22.3405  -46.1170  -25.6850 H   0  0  0  0  0  0  0  0  0  0  0  0
  -18.3393  -46.8361  -18.5007 H   0  0  0  0  0  0  0  0  0  0  0  0
  -18.7131  -45.2163  -17.9565 H   0  0  0  0  0  0  0  0  0  0  0  0
  -19.6510  -46.1166  -20.3489 H   0  0  0  0  0  0  0  0  0  0  0  0
  -19.1377  -44.4470  -20.2456 H   0  0  0  0  0  0  0  0  0  0  0  0
  -17.7087  -43.8377  -24.8747 H   0  0  0  0  0  0  0  0  0  0  0  0
  -14.0165  -40.7748  -23.8108 H   0  0  0  0  0  0  0  0  0  0  0  0
  -17.0874  -42.0467  -26.4864 H   0  0  0  0  0  0  0  0  0  0  0  0
  -15.4072  -42.2502  -20.1370 H   0  0  0  0  0  0  0  0  0  0  0  0
  -13.5521  -43.5937  -18.7122 H   0  0  0  0  0  0  0  0  0  0  0  0
  -14.8596  -42.2573  -18.5066 H   0  0  0  0  0  0  0  0  0  0  0  0
  -15.6574  -43.3488  -19.0414 H   0  0  0  0  0  0  0  0  0  0  0  0
  -17.4321  -44.1005  -20.5619 H   0  0  0  0  0  0  0  0  0  0  0  0
  -15.9812  -45.5304  -20.8419 H   0  0  0  0  0  0  0  0  0  0  0  0
  -16.1807  -43.0362  -21.6176 H   0  0  0  0  0  0  0  0  0  0  0  0
  -14.9384  -44.4486  -21.6433 H   0  0  0  0  0  0  0  0  0  0  0  0
  -19.6339  -46.8605  -21.4868 H   0  0  0  0  0  0  0  0  0  0  0  0
  -20.0858  -46.2045  -22.9216 H   0  0  0  0  0  0  0  0  0  0  0  0
  -18.4388  -46.9384  -20.0465 H   0  0  0  0  0  0  0  0  0  0  0  0
  -16.9872  -47.3748  -21.1199 H   0  0  0  0  0  0  0  0  0  0  0  0
  -17.3495  -44.4050  -21.6680 H   0  0  0  0  0  0  0  0  0  0  0  0
  -17.3395  -44.3950  -21.6580 H   0  0  0  0  0  0  0  0  0  0  0  0
  -17.6775  -45.5815  -21.3005 H   0  0  0  0  0  0  0  0  0  0  0  0
  -17.6675  -45.5715  -21.2905 H   0  0  0  0  0  0  0  0  0  0  0  0
 14  9  1  0
  9  8  1  0
  8  7  3  0
 12 13  1  0
  6 13  2  0
 13  5  1  0
  3 11  1  0
  4 11  2  0
 11 10  1  0
 16 15  1  1
 19 15  1  1
 16 17  1  0
 17 18  1  0
 18 19  1  0
 20 25  2  0
 20 21  1  0
 21  1  1  0
 21 22  2  0
 22 23  1  0
 23 24  2  0
 24  2  1  0
 24 25  1  0
 26 30  1  0
 26 27  1  0
 26  3  1  0
 27 28  1  0
 28 12  1  0
 29 30  1  0
 31 34  1  0
 32  7  1  0
 16 28  1  0
 16 29  1  0
 19 33  1  0
 19 34  1  0
 33  1  1  6
 33 31  1  0
 32 35  1  0
 33 35  1  0
 32 36  1  0
 31 36  1  0
  1 37  1  0
  2 38  1  0
  2 39  1  0
  2 40  1  0
  3 41  1  0
  3 42  1  0
  5 43  1  0
  9 44  1  0
  9 45  1  0
 10 46  1  0
 12 47  1  0
 12 48  1  0
 14 49  1  0
 17 50  1  0
 17 51  1  0
 18 52  1  0
 18 53  1  0
 20 54  1  0
 23 55  1  0
 25 56  1  0
 26 57  1  1
 27 58  1  0
 27 59  1  0
 28 60  1  1
 29 61  1  0
 29 62  1  0
 30 63  1  0
 30 64  1  0
 31 65  1  6
 32 66  1  1
 34 67  1  0
 34 68  1  0
 35 69  1  0
 35 70  1  0
 36 71  1  0
 36 72  1  0
M  END
>  <smiles>  (107) 
[H]OC(=O)C([H])([H])[C@@]1([H])C([H])([H])C([H])([H])[C@]2(O[C@]3(C([H])([H])C2([H])[H])C([H])([H])[C@@]2([H])C([H])([H])[C@]([H])(C#CC([H])([H])O[H])C([H])([H])[S@]23N([H])c2nc([H])c(C([H])([H])[H])c([H])c2[H])[C@@]([H])(C([H])([H])C(=O)O[H])C1([H])[H]

>  <error>  (107) 


>  <∆∆G>  (107) 
nan

>  <∆G_bound>  (107) 
nan

>  <∆G_unbound>  (107) 
nan

>  <comRMSD>  (107) 
0.0

>  <N_constrained_atoms>  (107) 
34.0

>  <N_unconstrained_atoms>  (107) 
2.0

>  <runtime>  (107) 
2.268095

>  <regarded>  (107) 
['d0254a', '5hmy-a']

>  <disregarded>  (107) 
[]

>  <LE>  (107) 
nan

>  <outcome>  (107) 
crashed

>  <percent_hybrid>  (107) 
39.0

$$$$
LIG
     RDKit          3D

 42 44  0  0  0  0  0  0  0  0999 V2000
  -18.5549  -45.9767  -23.1297 O   0  0  0  0  0  0  0  0  0  0  0  0
  -17.8566  -45.4704  -22.3436 C   0  0  0  0  0  0  0  0  0  0  0  0
  -17.1163  -44.1131  -22.3874 N   0  0  0  0  0  0  0  0  0  0  0  0
  -17.4973  -38.3471  -26.4590 C   0  0  0  0  0  0  0  0  0  0  0  0
  -16.9341  -39.6605  -26.9267 C   0  0  0  0  0  0  0  0  0  0  0  0
  -17.5057  -40.2793  -27.8348 O   0  0  0  0  0  0  0  0  0  0  0  0
  -16.5214  -45.4317  -20.2341 O   0  0  0  0  0  0  0  0  0  0  0  0
  -17.0464  -44.8350  -19.0436 C   0  0  0  0  0  0  0  0  0  0  0  0
  -18.3338  -45.5597  -18.7469 C   0  0  0  0  0  0  0  0  0  0  0  0
  -18.8627  -45.8655  -20.1181 C   0  0  0  0  0  0  0  0  0  0  0  0
  -17.6004  -46.0682  -20.9462 C   0  0  1  0  0  0  0  0  0  0  0  0
  -17.0662  -43.6032  -24.7697 C   0  0  0  0  0  0  0  0  0  0  0  0
  -17.1567  -43.0774  -23.3460 C   0  0  2  0  0  0  0  0  0  0  0  0
  -16.0585  -42.1730  -23.0648 N   0  0  0  0  0  0  0  0  0  0  0  0
  -15.7187  -41.2892  -24.0670 C   0  0  0  0  0  0  0  0  0  0  0  0
  -16.1964  -41.3627  -25.3122 C   0  0  0  0  0  0  0  0  0  0  0  0
  -17.0675  -42.4690  -25.7820 C   0  0  0  0  0  0  0  0  0  0  0  0
  -15.7228  -40.2749  -26.2086 C   0  0  2  0  0  0  0  0  0  0  0  0
  -14.7923  -40.1479  -23.8911 C   0  0  0  0  0  0  0  0  0  0  0  0
  -14.9161  -39.4124  -25.2342 C   0  0  0  0  0  0  0  0  0  0  0  0
  -16.6603  -43.9472  -21.4972 H   0  0  0  0  0  0  0  0  0  0  0  0
  -17.7351  -38.4010  -25.3940 H   0  0  0  0  0  0  0  0  0  0  0  0
  -16.7817  -37.5461  -26.6585 H   0  0  0  0  0  0  0  0  0  0  0  0
  -18.4194  -38.1295  -27.0048 H   0  0  0  0  0  0  0  0  0  0  0  0
  -16.3116  -44.9169  -18.2386 H   0  0  0  0  0  0  0  0  0  0  0  0
  -17.2263  -43.7729  -19.2425 H   0  0  0  0  0  0  0  0  0  0  0  0
  -18.1202  -46.4937  -18.2229 H   0  0  0  0  0  0  0  0  0  0  0  0
  -19.0273  -44.9727  -18.1426 H   0  0  0  0  0  0  0  0  0  0  0  0
  -19.5165  -46.7420  -20.1389 H   0  0  0  0  0  0  0  0  0  0  0  0
  -19.4541  -45.0165  -20.4838 H   0  0  0  0  0  0  0  0  0  0  0  0
  -17.3421  -47.1264  -21.0584 H   0  0  0  0  0  0  0  0  0  0  0  0
  -17.9080  -44.2677  -24.9766 H   0  0  0  0  0  0  0  0  0  0  0  0
  -16.1385  -44.1764  -24.8862 H   0  0  0  0  0  0  0  0  0  0  0  0
  -18.1100  -42.5534  -23.2048 H   0  0  0  0  0  0  0  0  0  0  0  0
  -15.2312  -42.6642  -22.7276 H   0  0  0  0  0  0  0  0  0  0  0  0
  -16.7082  -42.8432  -26.7454 H   0  0  0  0  0  0  0  0  0  0  0  0
  -18.0906  -42.1014  -25.9196 H   0  0  0  0  0  0  0  0  0  0  0  0
  -15.0589  -40.6709  -26.9846 H   0  0  0  0  0  0  0  0  0  0  0  0
  -13.7720  -40.4877  -23.7019 H   0  0  0  0  0  0  0  0  0  0  0  0
  -15.1016  -39.4990  -23.0653 H   0  0  0  0  0  0  0  0  0  0  0  0
  -13.9185  -39.2562  -25.6503 H   0  0  0  0  0  0  0  0  0  0  0  0
  -15.3645  -38.4309  -25.0655 H   0  0  0  0  0  0  0  0  0  0  0  0
  3  2  1  0
  2  1  2  0
  5  6  2  0
  5  4  1  0
  7  8  1  0
  7 11  1  0
  8  9  1  0
  9 10  1  0
 10 11  1  0
 11  2  1  0
 12 17  1  0
 12 13  1  0
 13  3  1  0
 13 14  1  0
 14 15  1  0
 15 16  2  0
 16 17  1  0
 18 20  1  0
 19 20  1  0
 15 19  1  0
 16 18  1  0
 18  5  1  0
  3 21  1  0
  4 22  1  0
  4 23  1  0
  4 24  1  0
  8 25  1  0
  8 26  1  0
  9 27  1  0
  9 28  1  0
 10 29  1  0
 10 30  1  0
 11 31  1  6
 12 32  1  0
 12 33  1  0
 13 34  1  6
 14 35  1  0
 17 36  1  0
 17 37  1  0
 18 38  1  6
 19 39  1  0
 19 40  1  0
 20 41  1  0
 20 42  1  0
M  END
>  <smiles>  (108) 
[H]N(C(=O)[C@@]1([H])OC([H])([H])C([H])([H])C1([H])[H])[C@@]1([H])N([H])C2=C(C([H])([H])C1([H])[H])[C@@]([H])(C(=O)C([H])([H])[H])C([H])([H])C2([H])[H]

>  <error>  (108) 


>  <∆∆G>  (108) 
-30.015553

>  <∆G_bound>  (108) 
-14.944776

>  <∆G_unbound>  (108) 
15.070777

>  <comRMSD>  (108) 
0.684312

>  <N_constrained_atoms>  (108) 
20.0

>  <N_unconstrained_atoms>  (108) 
0.0

>  <runtime>  (108) 
3.45096

>  <regarded>  (108) 
['d0254a', '6izx-a']

>  <disregarded>  (108) 
[]

>  <LE>  (108) 
1.500778

>  <outcome>  (108) 
acceptable

>  <percent_hybrid>  (108) 
30.0

$$$$
LIG
     RDKit          3D

 70 74  0  0  0  0  0  0  0  0999 V2000
  -16.4730  -44.1500  -22.4210 N   0  0  0  0  0  0  0  0  0  0  0  0
  -15.1640  -40.1290  -26.1880 C   0  0  0  0  0  0  0  0  0  0  0  0
  -14.5160  -43.0670  -23.5740 C   0  0  0  0  0  0  0  0  0  0  0  0
  -16.6900  -43.3130  -16.6750 O   0  0  0  0  0  0  0  0  0  0  0  0
  -16.0670  -44.7310  -14.4590 O   0  0  0  0  0  0  0  0  0  0  0  0
  -15.6940  -43.7870  -17.2240 C   0  0  0  0  0  0  0  0  0  0  0  0
  -13.7240  -45.5310  -14.5520 O   0  0  0  0  0  0  0  0  0  0  0  0
  -14.7120  -44.5500  -14.8810 S   0  0  0  0  0  0  0  0  0  0  0  0
  -14.6780  -44.3800  -16.4980 N   0  0  0  0  0  0  0  0  0  0  0  0
  -13.4940  -42.2820  -18.6180 C   0  0  0  0  0  0  0  0  0  0  0  0
  -16.7580  -45.4230  -18.9190 C   0  0  1  0  0  0  0  0  0  0  0  0
  -18.2140  -45.7750  -18.7620 C   0  0  0  0  0  0  0  0  0  0  0  0
  -18.7790  -45.4810  -20.1350 C   0  0  0  0  0  0  0  0  0  0  0  0
  -17.6230  -45.8150  -21.0530 C   0  0  1  0  0  0  0  0  0  0  0  0
  -16.8900  -43.1390  -24.6480 C   0  0  0  0  0  0  0  0  0  0  0  0
  -16.1690  -43.2350  -23.4440 C   0  0  0  0  0  0  0  0  0  0  0  0
  -15.1490  -42.4110  -23.1580 N   0  0  0  0  0  0  0  0  0  0  0  0
  -14.8480  -41.4540  -24.0500 C   0  0  0  0  0  0  0  0  0  0  0  0
  -15.5130  -41.2620  -25.2530 C   0  0  0  0  0  0  0  0  0  0  0  0
  -16.5400  -42.1420  -25.5370 C   0  0  0  0  0  0  0  0  0  0  0  0
  -15.4510  -43.8150  -21.4860 C   0  0  1  0  0  0  0  0  0  0  0  0
  -14.5060  -43.1070  -20.7500 C   0  0  0  0  0  0  0  0  0  0  0  0
  -14.5350  -43.0860  -19.3580 C   0  0  1  0  0  0  0  0  0  0  0  0
  -15.5470  -43.8150  -18.7070 C   0  0  2  0  0  0  0  0  0  0  0  0
  -16.4420  -44.5680  -20.8410 C   0  0  0  0  0  0  0  0  0  0  0  0
  -15.0370  -42.1960  -13.6110 C   0  0  0  0  0  0  0  0  0  0  0  0
  -14.6800  -40.9230  -13.1920 C   0  0  0  0  0  0  0  0  0  0  0  0
  -13.4920  -40.3730  -13.5760 C   0  0  0  0  0  0  0  0  0  0  0  0
  -12.5550  -41.1220  -14.3370 C   0  0  0  0  0  0  0  0  0  0  0  0
  -12.9010  -42.4330  -14.7560 C   0  0  0  0  0  0  0  0  0  0  0  0
  -14.1580  -42.9560  -14.3340 C   0  0  0  0  0  0  0  0  0  0  0  0
  -11.3020  -40.6230  -14.7710 C   0  0  0  0  0  0  0  0  0  0  0  0
  -10.4700  -41.4120  -15.5120 C   0  0  0  0  0  0  0  0  0  0  0  0
  -10.9050  -42.6810  -15.8820 C   0  0  0  0  0  0  0  0  0  0  0  0
  -12.0620  -43.2120  -15.5060 N   0  0  0  0  0  0  0  0  0  0  0  0
  -18.4965  -45.6280  -19.4485 C   0  0  0  0  0  0  0  0  0  0  0  0
  -14.8902  -39.2401  -25.6007 H   0  0  0  0  0  0  0  0  0  0  0  0
  -14.3154  -40.4251  -26.8222 H   0  0  0  0  0  0  0  0  0  0  0  0
  -16.0321  -39.8963  -26.8222 H   0  0  0  0  0  0  0  0  0  0  0  0
  -13.8151  -42.6791  -22.8202 H   0  0  0  0  0  0  0  0  0  0  0  0
  -14.0038  -43.8101  -24.2029 H   0  0  0  0  0  0  0  0  0  0  0  0
  -14.8736  -42.2384  -24.2029 H   0  0  0  0  0  0  0  0  0  0  0  0
  -13.8558  -44.7329  -17.0083 H   0  0  0  0  0  0  0  0  0  0  0  0
  -13.6435  -42.3975  -17.5343 H   0  0  0  0  0  0  0  0  0  0  0  0
  -12.4909  -42.6421  -18.8901 H   0  0  0  0  0  0  0  0  0  0  0  0
  -13.5888  -41.2204  -18.8901 H   0  0  0  0  0  0  0  0  0  0  0  0
  -16.0151  -45.8181  -18.2104 H   0  0  0  0  0  0  0  0  0  0  0  0
  -18.3393  -46.8361  -18.5007 H   0  0  0  0  0  0  0  0  0  0  0  0
  -18.7131  -45.2163  -17.9565 H   0  0  0  0  0  0  0  0  0  0  0  0
  -19.0651  -44.4229  -20.2273 H   0  0  0  0  0  0  0  0  0  0  0  0
  -19.6925  -46.0507  -20.3607 H   0  0  0  0  0  0  0  0  0  0  0  0
  -17.7817  -46.4241  -21.9551 H   0  0  0  0  0  0  0  0  0  0  0  0
  -17.7087  -43.8377  -24.8747 H   0  0  0  0  0  0  0  0  0  0  0  0
  -14.0165  -40.7748  -23.8108 H   0  0  0  0  0  0  0  0  0  0  0  0
  -17.0874  -42.0467  -26.4864 H   0  0  0  0  0  0  0  0  0  0  0  0
  -14.4953  -43.4771  -21.9132 H   0  0  0  0  0  0  0  0  0  0  0  0
  -13.5238  -43.5129  -21.0339 H   0  0  0  0  0  0  0  0  0  0  0  0
  -14.7394  -42.0633  -21.0072 H   0  0  0  0  0  0  0  0  0  0  0  0
  -15.1891  -42.2020  -19.3850 H   0  0  0  0  0  0  0  0  0  0  0  0
  -15.5963  -43.2480  -19.6483 H   0  0  0  0  0  0  0  0  0  0  0  0
  -15.8543  -44.9956  -20.0153 H   0  0  0  0  0  0  0  0  0  0  0  0
  -17.1941  -43.7978  -21.0671 H   0  0  0  0  0  0  0  0  0  0  0  0
  -16.0306  -42.5964  -13.3612 H   0  0  0  0  0  0  0  0  0  0  0  0
  -15.3610  -40.3516  -12.5441 H   0  0  0  0  0  0  0  0  0  0  0  0
  -13.2567  -39.3365  -13.2928 H   0  0  0  0  0  0  0  0  0  0  0  0
  -10.9990  -39.5981  -14.5105 H   0  0  0  0  0  0  0  0  0  0  0  0
   -9.4747  -41.0515  -15.8109 H   0  0  0  0  0  0  0  0  0  0  0  0
  -10.2480  -43.2826  -16.5274 H   0  0  0  0  0  0  0  0  0  0  0  0
  -17.1665  -44.2980  -18.1185 H   0  0  0  0  0  0  0  0  0  0  0  0
  -17.1565  -44.2880  -18.1085 H   0  0  0  0  0  0  0  0  0  0  0  0
  3  1  1  0
  4  6  2  0
  6  9  1  0
  5  8  2  0
  9  8  1  0
  8  7  2  0
 11 12  1  0
 13 14  1  0
 15 20  2  0
 15 16  1  0
 16  1  1  0
 16 17  2  0
 17 18  1  0
 18 19  2  0
 19  2  1  0
 19 20  1  0
 21 25  1  0
 21 22  1  0
 22 23  1  0
 23 24  1  0
 23 10  1  0
 24  6  1  0
 26 31  2  0
 26 27  1  0
 27 28  2  0
 28 29  1  0
 29 30  2  0
 29 32  1  0
 30 31  1  0
 30 35  1  0
 31  8  1  0
 32 33  2  0
 33 34  1  0
 34 35  2  0
 11 24  1  0
 14 25  1  0
  1 21  1  0
 14 11  1  0
 13 36  1  0
 12 36  1  0
  2 37  1  0
  2 38  1  0
  2 39  1  0
  3 40  1  0
  3 41  1  0
  3 42  1  0
  9 43  1  0
 10 44  1  0
 10 45  1  0
 10 46  1  0
 11 47  1  1
 12 48  1  0
 12 49  1  0
 13 50  1  0
 13 51  1  0
 14 52  1  6
 15 53  1  0
 18 54  1  0
 20 55  1  0
 21 56  1  6
 22 57  1  0
 22 58  1  0
 23 59  1  6
 24 60  1  6
 25 61  1  0
 25 62  1  0
 26 63  1  0
 27 64  1  0
 28 65  1  0
 32 66  1  0
 33 67  1  0
 34 68  1  0
 36 69  1  0
 36 70  1  0
M  END
>  <smiles>  (109) 
[H]c1nc2c(S(=O)(=O)N([H])C(=O)[C@@]3([H])[C@@]([H])(C([H])([H])[H])C([H])([H])[C@]([H])(N(c4nc([H])c(C([H])([H])[H])c([H])c4[H])C([H])([H])[H])C([H])([H])[C@]4([H])C([H])([H])C([H])([H])C([H])([H])[C@@]43[H])c([H])c([H])c([H])c2c([H])c1[H]

>  <error>  (109) 


>  <∆∆G>  (109) 
nan

>  <∆G_bound>  (109) 
nan

>  <∆G_unbound>  (109) 
nan

>  <comRMSD>  (109) 
0.0

>  <N_constrained_atoms>  (109) 
35.0

>  <N_unconstrained_atoms>  (109) 
1.0

>  <runtime>  (109) 
1.982122

>  <regarded>  (109) 
['d0254a', '5i3q-a']

>  <disregarded>  (109) 
[]

>  <LE>  (109) 
nan

>  <outcome>  (109) 
crashed

>  <percent_hybrid>  (109) 
35.0

$$$$
LIG
     RDKit          3D

 55 58  0  0  0  0  0  0  0  0999 V2000
  -16.4891  -44.3918  -23.3057 N   0  0  0  0  0  0  0  0  0  0  0  0
  -15.4755  -39.7158  -26.2652 C   0  0  0  0  0  0  0  0  0  0  0  0
  -13.0293  -42.9892  -20.1210 C   0  0  0  0  0  0  0  0  0  0  0  0
  -11.8259  -41.1479  -21.0396 O   0  0  0  0  0  0  0  0  0  0  0  0
  -15.7018  -40.5270  -16.0166 O   0  0  0  0  0  0  0  0  0  0  0  0
  -17.5418  -40.6092  -17.2799 O   0  0  0  0  0  0  0  0  0  0  0  0
  -12.9908  -41.5157  -20.4662 C   0  0  0  0  0  0  0  0  0  0  0  0
  -13.8369  -40.6625  -20.2478 O   0  0  0  0  0  0  0  0  0  0  0  0
  -16.6103  -42.7044  -16.6181 C   0  0  0  0  0  0  0  0  0  0  0  0
  -16.5494  -41.1997  -16.5837 C   0  0  0  0  0  0  0  0  0  0  0  0
  -16.5119  -44.4970  -20.0239 C   0  0  0  0  0  0  0  0  0  0  0  0
  -16.9588  -44.0398  -18.7703 C   0  0  0  0  0  0  0  0  0  0  0  0
  -18.3790  -44.4551  -18.5344 C   0  0  0  0  0  0  0  0  0  0  0  0
  -18.8636  -44.7108  -19.9472 C   0  0  0  0  0  0  0  0  0  0  0  0
  -17.6289  -45.1935  -20.7477 C   0  0  1  0  0  0  0  0  0  0  0  0
  -17.3182  -42.7052  -24.8473 C   0  0  0  0  0  0  0  0  0  0  0  0
  -16.3359  -43.1887  -23.9948 C   0  0  0  0  0  0  0  0  0  0  0  0
  -15.1531  -42.5739  -23.8248 N   0  0  0  0  0  0  0  0  0  0  0  0
  -14.9328  -41.4546  -24.5440 C   0  0  0  0  0  0  0  0  0  0  0  0
  -15.8201  -40.9342  -25.4737 C   0  0  0  0  0  0  0  0  0  0  0  0
  -17.0514  -41.5691  -25.6045 C   0  0  0  0  0  0  0  0  0  0  0  0
  -14.3755  -43.4518  -19.6093 C   0  0  0  0  0  0  0  0  0  0  0  0
  -14.8386  -43.0037  -18.3658 C   0  0  0  0  0  0  0  0  0  0  0  0
  -16.1375  -43.2903  -17.9256 C   0  0  0  0  0  0  0  0  0  0  0  0
  -15.1965  -44.2654  -20.3992 C   0  0  0  0  0  0  0  0  0  0  0  0
  -18.5988  -47.1736  -21.7629 C   0  0  0  0  0  0  0  0  0  0  0  0
  -18.5251  -46.2468  -22.9645 C   0  0  0  0  0  0  0  0  0  0  0  0
  -17.8796  -44.7085  -22.4175 S   0  0  2  0  0  0  0  0  0  0  0  0
  -17.5023  -46.7146  -20.8022 C   0  0  0  0  0  0  0  0  0  0  0  0
  -15.5773  -44.5437  -22.8954 H   0  0  0  0  0  0  0  0  0  0  0  0
  -15.7379  -38.8155  -25.7017 H   0  0  0  0  0  0  0  0  0  0  0  0
  -14.4065  -39.6916  -26.5000 H   0  0  0  0  0  0  0  0  0  0  0  0
  -16.0165  -39.7032  -27.2174 H   0  0  0  0  0  0  0  0  0  0  0  0
  -12.7691  -43.5578  -21.0173 H   0  0  0  0  0  0  0  0  0  0  0  0
  -12.2783  -43.1830  -19.3489 H   0  0  0  0  0  0  0  0  0  0  0  0
  -11.9346  -40.1852  -21.1740 H   0  0  0  0  0  0  0  0  0  0  0  0
  -17.3237  -39.6554  -17.2346 H   0  0  0  0  0  0  0  0  0  0  0  0
  -15.9931  -43.0945  -15.8001 H   0  0  0  0  0  0  0  0  0  0  0  0
  -17.6377  -42.9869  -16.3877 H   0  0  0  0  0  0  0  0  0  0  0  0
  -18.4280  -45.3799  -17.9589 H   0  0  0  0  0  0  0  0  0  0  0  0
  -18.9805  -43.6747  -18.0618 H   0  0  0  0  0  0  0  0  0  0  0  0
  -19.7130  -45.3998  -19.9575 H   0  0  0  0  0  0  0  0  0  0  0  0
  -19.2407  -43.7596  -20.3515 H   0  0  0  0  0  0  0  0  0  0  0  0
  -18.2578  -43.2302  -24.9590 H   0  0  0  0  0  0  0  0  0  0  0  0
  -13.9809  -40.9749  -24.3524 H   0  0  0  0  0  0  0  0  0  0  0  0
  -17.7972  -41.1904  -26.2976 H   0  0  0  0  0  0  0  0  0  0  0  0
  -14.1922  -42.3689  -17.7584 H   0  0  0  0  0  0  0  0  0  0  0  0
  -14.7744  -44.6752  -21.3040 H   0  0  0  0  0  0  0  0  0  0  0  0
  -19.5703  -47.1037  -21.2719 H   0  0  0  0  0  0  0  0  0  0  0  0
  -18.4632  -48.2157  -22.0620 H   0  0  0  0  0  0  0  0  0  0  0  0
  -17.8437  -46.6730  -23.6727 H   0  0  0  0  0  0  0  0  0  0  0  0
  -19.4426  -46.0582  -23.5043 H   0  0  0  0  0  0  0  0  0  0  0  0
  -17.6024  -47.1700  -19.8162 H   0  0  0  0  0  0  0  0  0  0  0  0
  -16.5214  -47.0100  -21.1944 H   0  0  0  0  0  0  0  0  0  0  0  0
  -18.8036  -43.7260  -22.5351 H   0  0  0  0  0  0  0  0  0  0  0  0
  9 10  1  0
 10  5  2  0
 10  6  1  0
  3  7  1  0
  8  7  2  0
  7  4  1  0
 11 12  2  0
 11 15  1  0
 12 13  1  0
 13 14  1  0
 15 14  1  1
 16 21  2  0
 16 17  1  0
 17  1  1  0
 17 18  2  0
 18 19  1  0
 19 20  2  0
 20  2  1  0
 20 21  1  0
 22 25  2  0
 22 23  1  0
 22  3  1  0
 23 24  2  0
 24  9  1  0
 26 27  1  0
 26 29  1  0
 27 28  1  0
 12 24  1  0
 11 25  1  0
 15 28  1  0
 15 29  1  0
 28  1  1  0
  1 30  1  0
  2 31  1  0
  2 32  1  0
  2 33  1  0
  3 34  1  0
  3 35  1  0
  4 36  1  0
  6 37  1  0
  9 38  1  0
  9 39  1  0
 13 40  1  0
 13 41  1  0
 14 42  1  0
 14 43  1  0
 16 44  1  0
 19 45  1  0
 21 46  1  0
 23 47  1  0
 25 48  1  0
 26 49  1  0
 26 50  1  0
 27 51  1  0
 27 52  1  0
 29 53  1  0
 29 54  1  0
 28 55  1  1
M  END
>  <smiles>  (110) 
[H]OC(=O)C([H])([H])c1c([H])c(C([H])([H])C(=O)O[H])c2c(c1[H])[C@]1([S@@H](N([H])c3nc([H])c(C([H])([H])[H])c([H])c3[H])C([H])([H])C([H])([H])C1([H])[H])C([H])([H])C2([H])[H]

>  <error>  (110) 


>  <∆∆G>  (110) 
-90.516429

>  <∆G_bound>  (110) 
116.929791

>  <∆G_unbound>  (110) 
207.44622

>  <comRMSD>  (110) 
1.290047

>  <N_constrained_atoms>  (110) 
29.0

>  <N_unconstrained_atoms>  (110) 
0.0

>  <runtime>  (110) 
3.456144

>  <regarded>  (110) 
['d0254a', '5hmx-b']

>  <disregarded>  (110) 
[]

>  <LE>  (110) 
3.121256

>  <outcome>  (110) 
too moved

>  <percent_hybrid>  (110) 
45.0

$$$$
LIG
     RDKit          3D

 83 87  0  0  0  0  0  0  0  0999 V2000
  -18.5140  -44.9440  -23.0850 O   0  0  0  0  0  0  0  0  0  0  0  0
  -16.4730  -44.1500  -22.4210 C   0  0  2  0  0  0  0  0  0  0  0  0
  -15.1640  -40.1290  -26.1880 C   0  0  0  0  0  0  0  0  0  0  0  0
  -13.8140  -43.2580  -23.4550 C   0  0  0  0  0  0  0  0  0  0  0  0
  -13.0590  -42.6100  -18.4790 O   0  0  0  0  0  0  0  0  0  0  0  0
  -17.7140  -42.2960  -15.0130 O   0  0  0  0  0  0  0  0  0  0  0  0
  -12.8650  -39.4700  -15.4270 O   0  0  0  0  0  0  0  0  0  0  0  0
  -19.2110  -46.5040  -24.4290 C   0  0  0  0  0  0  0  0  0  0  0  0
  -19.7910  -46.6140  -25.4640 C   0  0  0  0  0  0  0  0  0  0  0  0
  -20.5840  -46.8720  -26.6660 C   0  0  0  0  0  0  0  0  0  0  0  0
  -14.2290  -44.4290  -16.3550 O   0  0  0  0  0  0  0  0  0  0  0  0
  -15.1100  -44.0300  -17.1160 C   0  0  0  0  0  0  0  0  0  0  0  0
  -16.2460  -43.4040  -16.6350 N   0  0  0  0  0  0  0  0  0  0  0  0
  -16.5520  -43.1300  -15.0390 S   0  0  0  0  0  0  0  0  0  0  0  0
  -16.5620  -44.3840  -14.3500 O   0  0  0  0  0  0  0  0  0  0  0  0
  -13.2920  -39.0810  -16.7360 C   0  0  0  0  0  0  0  0  0  0  0  0
  -12.1900  -41.6430  -19.0820 C   0  0  0  0  0  0  0  0  0  0  0  0
  -21.7170  -46.0320  -26.7280 O   0  0  0  0  0  0  0  0  0  0  0  0
  -16.7580  -45.4230  -18.9190 C   0  0  1  0  0  0  0  0  0  0  0  0
  -18.2140  -45.7750  -18.7620 C   0  0  0  0  0  0  0  0  0  0  0  0
  -18.7790  -45.4810  -20.1350 C   0  0  0  0  0  0  0  0  0  0  0  0
  -17.6230  -45.8150  -21.0530 C   0  0  1  0  0  0  0  0  0  0  0  0
  -16.8900  -43.1390  -24.6480 C   0  0  0  0  0  0  0  0  0  0  0  0
  -16.1690  -43.2350  -23.4440 C   0  0  0  0  0  0  0  0  0  0  0  0
  -15.1490  -42.4110  -23.1580 N   0  0  0  0  0  0  0  0  0  0  0  0
  -14.8480  -41.4540  -24.0500 C   0  0  0  0  0  0  0  0  0  0  0  0
  -15.5130  -41.2620  -25.2530 C   0  0  0  0  0  0  0  0  0  0  0  0
  -16.5400  -42.1420  -25.5370 C   0  0  0  0  0  0  0  0  0  0  0  0
  -14.8580  -43.9260  -21.4080 C   0  0  0  0  0  0  0  0  0  0  0  0
  -13.9290  -43.2280  -20.6590 C   0  0  0  0  0  0  0  0  0  0  0  0
  -13.9520  -43.2730  -19.2780 C   0  0  1  0  0  0  0  0  0  0  0  0
  -14.9290  -44.0160  -18.6070 C   0  0  1  0  0  0  0  0  0  0  0  0
  -15.8550  -44.6900  -20.7770 C   0  0  0  0  0  0  0  0  0  0  0  0
  -13.0470  -40.6900  -13.5060 C   0  0  0  0  0  0  0  0  0  0  0  0
  -13.6190  -41.6720  -12.7070 C   0  0  0  0  0  0  0  0  0  0  0  0
  -14.7000  -42.4170  -13.1580 C   0  0  0  0  0  0  0  0  0  0  0  0
  -15.1980  -42.1770  -14.4300 C   0  0  0  0  0  0  0  0  0  0  0  0
  -14.6500  -41.1880  -15.2310 C   0  0  0  0  0  0  0  0  0  0  0  0
  -13.5670  -40.4490  -14.7680 C   0  0  0  0  0  0  0  0  0  0  0  0
  -18.3590  -47.1370  -22.1260 C   0  0  0  0  0  0  0  0  0  0  0  0
  -18.4690  -46.3200  -23.2350 C   0  0  2  0  0  0  0  0  0  0  0  0
  -17.4720  -44.9230  -23.0810 S   0  0  1  0  0  0  0  0  0  0  0  0
  -18.4965  -45.6280  -19.4485 C   0  0  0  0  0  0  0  0  0  0  0  0
  -19.0122  -44.9540  -22.2295 H   0  0  0  0  0  0  0  0  0  0  0  0
  -14.8902  -39.2401  -25.6007 H   0  0  0  0  0  0  0  0  0  0  0  0
  -14.3154  -40.4251  -26.8222 H   0  0  0  0  0  0  0  0  0  0  0  0
  -16.0321  -39.8963  -26.8222 H   0  0  0  0  0  0  0  0  0  0  0  0
  -13.1477  -43.0345  -22.6088 H   0  0  0  0  0  0  0  0  0  0  0  0
  -13.3722  -44.0571  -24.0684 H   0  0  0  0  0  0  0  0  0  0  0  0
  -13.9435  -42.3541  -24.0684 H   0  0  0  0  0  0  0  0  0  0  0  0
  -20.9164  -47.9205  -26.6568 H   0  0  0  0  0  0  0  0  0  0  0  0
  -19.9548  -46.6686  -27.5451 H   0  0  0  0  0  0  0  0  0  0  0  0
  -16.9473  -43.0881  -17.3200 H   0  0  0  0  0  0  0  0  0  0  0  0
  -14.1028  -38.3423  -16.6528 H   0  0  0  0  0  0  0  0  0  0  0  0
  -12.4459  -38.6369  -17.2808 H   0  0  0  0  0  0  0  0  0  0  0  0
  -13.6556  -39.9647  -17.2808 H   0  0  0  0  0  0  0  0  0  0  0  0
  -11.6760  -41.0710  -18.2955 H   0  0  0  0  0  0  0  0  0  0  0  0
  -11.4455  -42.1582  -19.7067 H   0  0  0  0  0  0  0  0  0  0  0  0
  -12.7815  -40.9575  -19.7067 H   0  0  0  0  0  0  0  0  0  0  0  0
  -22.0148  -45.8112  -25.8100 H   0  0  0  0  0  0  0  0  0  0  0  0
  -16.0803  -45.6721  -18.0891 H   0  0  0  0  0  0  0  0  0  0  0  0
  -18.7369  -46.1521  -17.8707 H   0  0  0  0  0  0  0  0  0  0  0  0
  -18.4303  -44.7420  -18.4518 H   0  0  0  0  0  0  0  0  0  0  0  0
  -19.7819  -45.1150  -20.4001 H   0  0  0  0  0  0  0  0  0  0  0  0
  -19.1378  -46.5182  -20.2094 H   0  0  0  0  0  0  0  0  0  0  0  0
  -17.7087  -43.8377  -24.8747 H   0  0  0  0  0  0  0  0  0  0  0  0
  -14.0165  -40.7748  -23.8108 H   0  0  0  0  0  0  0  0  0  0  0  0
  -17.0874  -42.0467  -26.4864 H   0  0  0  0  0  0  0  0  0  0  0  0
  -13.1608  -42.6285  -21.1694 H   0  0  0  0  0  0  0  0  0  0  0  0
  -14.5985  -42.3554  -20.6417 H   0  0  0  0  0  0  0  0  0  0  0  0
  -14.6100  -42.3917  -19.2602 H   0  0  0  0  0  0  0  0  0  0  0  0
  -14.2319  -44.8634  -18.5303 H   0  0  0  0  0  0  0  0  0  0  0  0
  -15.6192  -44.7109  -19.7028 H   0  0  0  0  0  0  0  0  0  0  0  0
  -12.1881  -40.1083  -13.1400 H   0  0  0  0  0  0  0  0  0  0  0  0
  -13.2099  -41.8617  -11.7037 H   0  0  0  0  0  0  0  0  0  0  0  0
  -15.1547  -43.1860  -12.5163 H   0  0  0  0  0  0  0  0  0  0  0  0
  -15.0696  -40.9885  -16.2281 H   0  0  0  0  0  0  0  0  0  0  0  0
  -18.6154  -48.1912  -21.9448 H   0  0  0  0  0  0  0  0  0  0  0  0
  -17.3508  -47.4375  -22.4474 H   0  0  0  0  0  0  0  0  0  0  0  0
  -17.6063  -46.8258  -23.6932 H   0  0  0  0  0  0  0  0  0  0  0  0
  -17.1965  -44.3280  -18.1485 H   0  0  0  0  0  0  0  0  0  0  0  0
  -17.1865  -44.3180  -18.1385 H   0  0  0  0  0  0  0  0  0  0  0  0
  -16.2638  -44.5258  -23.5903 H   0  0  0  0  0  0  0  0  0  0  0  0
  2  4  1  6
 10 18  1  0
 10  9  1  0
  9  8  3  0
 13 12  1  0
 13 14  1  0
 12 11  2  0
  6 14  2  0
 15 14  2  0
  5 17  1  0
 16  7  1  0
 19 20  1  0
 22 21  1  1
 23 28  2  0
 23 24  1  0
 24  2  1  0
 24 25  2  0
 25 26  1  0
 26 27  2  0
 27  3  1  0
 27 28  1  0
 29 33  2  0
 29 30  1  0
 30 31  1  0
 31 32  1  0
 31  5  1  0
 32 12  1  0
 34 39  2  0
 34 35  1  0
 35 36  2  0
 36 37  1  0
 37 14  1  0
 37 38  2  0
 38 39  1  0
 39  7  1  0
 40 41  1  0
 41  8  1  0
 41 42  1  0
 19 32  1  0
 22 40  1  0
 22 33  1  0
 42  2  1  0
  2 29  1  0
  1 42  1  0
 19 22  1  0
 20 43  1  0
 21 43  1  0
  1 44  1  0
  3 45  1  0
  3 46  1  0
  3 47  1  0
  4 48  1  0
  4 49  1  0
  4 50  1  0
 10 51  1  0
 10 52  1  0
 13 53  1  0
 16 54  1  0
 16 55  1  0
 16 56  1  0
 17 57  1  0
 17 58  1  0
 17 59  1  0
 18 60  1  0
 19 61  1  1
 20 62  1  0
 20 63  1  0
 21 64  1  0
 21 65  1  0
 23 66  1  0
 26 67  1  0
 28 68  1  0
 30 69  1  0
 30 70  1  0
 31 71  1  1
 32 72  1  1
 33 73  1  0
 34 74  1  0
 35 75  1  0
 36 76  1  0
 38 77  1  0
 40 78  1  0
 40 79  1  0
 41 80  1  1
 43 81  1  0
 43 82  1  0
 42 83  1  6
M  END
>  <smiles>  (111) 
[H]O[S@H]1[C@](c2nc([H])c(C([H])([H])[H])c([H])c2[H])(C([H])([H])[H])C2=C([H])[C@@]3(C([H])([H])C([H])([H])C([H])([H])[C@]3([H])[C@]([H])(C(=O)N([H])S(=O)(=O)c3c([H])c([H])c([H])c(OC([H])([H])[H])c3[H])[C@@]([H])(OC([H])([H])[H])C2([H])[H])C([H])([H])[C@]1([H])C#CC([H])([H])O[H]

>  <error>  (111) 


>  <∆∆G>  (111) 
nan

>  <∆G_bound>  (111) 
nan

>  <∆G_unbound>  (111) 
nan

>  <comRMSD>  (111) 
0.0

>  <N_constrained_atoms>  (111) 
42.0

>  <N_unconstrained_atoms>  (111) 
1.0

>  <runtime>  (111) 
2.70354

>  <regarded>  (111) 
['d0254a', '5k5m-a']

>  <disregarded>  (111) 
[]

>  <LE>  (111) 
nan

>  <outcome>  (111) 
crashed

>  <percent_hybrid>  (111) 
31.0

$$$$
LIG
     RDKit          3D

 58 60  0  0  0  0  0  0  0  0999 V2000
  -16.4730  -44.1500  -22.4210 N   0  0  0  0  0  0  0  0  0  0  0  0
  -15.1640  -40.1290  -26.1880 C   0  0  0  0  0  0  0  0  0  0  0  0
  -14.4150  -43.0450  -23.6430 C   0  0  0  0  0  0  0  0  0  0  0  0
  -15.7600  -42.1920  -14.5030 C   0  0  0  0  0  0  0  0  0  0  0  0
  -15.5340  -43.7620  -17.3110 C   0  0  0  0  0  0  0  0  0  0  0  0
  -13.3210  -42.2770  -18.8210 C   0  0  0  0  0  0  0  0  0  0  0  0
  -14.6650  -44.2930  -16.6210 O   0  0  0  0  0  0  0  0  0  0  0  0
  -16.6530  -43.1520  -16.7890 N   0  0  0  0  0  0  0  0  0  0  0  0
  -17.0310  -43.1020  -15.2300 S   0  0  0  0  0  0  0  0  0  0  0  0
  -16.9840  -44.4180  -14.7500 O   0  0  0  0  0  0  0  0  0  0  0  0
  -18.2330  -42.3530  -15.1500 O   0  0  0  0  0  0  0  0  0  0  0  0
  -16.7580  -45.4230  -18.9190 C   0  0  1  0  0  0  0  0  0  0  0  0
  -18.2140  -45.7750  -18.7620 C   0  0  0  0  0  0  0  0  0  0  0  0
  -18.7790  -45.4810  -20.1350 C   0  0  0  0  0  0  0  0  0  0  0  0
  -17.6230  -45.8150  -21.0530 C   0  0  1  0  0  0  0  0  0  0  0  0
  -16.8900  -43.1390  -24.6480 C   0  0  0  0  0  0  0  0  0  0  0  0
  -16.1690  -43.2350  -23.4440 C   0  0  0  0  0  0  0  0  0  0  0  0
  -15.1490  -42.4110  -23.1580 N   0  0  0  0  0  0  0  0  0  0  0  0
  -14.8480  -41.4540  -24.0500 C   0  0  0  0  0  0  0  0  0  0  0  0
  -15.5130  -41.2620  -25.2530 C   0  0  0  0  0  0  0  0  0  0  0  0
  -16.5400  -42.1420  -25.5370 C   0  0  0  0  0  0  0  0  0  0  0  0
  -15.4090  -43.7600  -18.7960 C   0  0  2  0  0  0  0  0  0  0  0  0
  -14.4300  -43.0430  -19.5080 C   0  0  1  0  0  0  0  0  0  0  0  0
  -14.4930  -43.0500  -20.9000 C   0  0  0  0  0  0  0  0  0  0  0  0
  -15.4710  -43.7740  -21.5760 C   0  0  1  0  0  0  0  0  0  0  0  0
  -16.4260  -44.5080  -20.8730 C   0  0  0  0  0  0  0  0  0  0  0  0
  -18.4965  -45.6280  -19.4485 C   0  0  0  0  0  0  0  0  0  0  0  0
  -14.8902  -39.2401  -25.6007 H   0  0  0  0  0  0  0  0  0  0  0  0
  -14.3154  -40.4251  -26.8222 H   0  0  0  0  0  0  0  0  0  0  0  0
  -16.0321  -39.8963  -26.8222 H   0  0  0  0  0  0  0  0  0  0  0  0
  -13.7052  -42.6639  -22.8940 H   0  0  0  0  0  0  0  0  0  0  0  0
  -13.9157  -43.7963  -24.2724 H   0  0  0  0  0  0  0  0  0  0  0  0
  -14.7654  -42.2137  -24.2724 H   0  0  0  0  0  0  0  0  0  0  0  0
  -15.8453  -42.2531  -13.4080 H   0  0  0  0  0  0  0  0  0  0  0  0
  -14.7890  -42.6014  -14.8186 H   0  0  0  0  0  0  0  0  0  0  0  0
  -15.8347  -41.1409  -14.8186 H   0  0  0  0  0  0  0  0  0  0  0  0
  -13.4397  -42.3590  -17.7305 H   0  0  0  0  0  0  0  0  0  0  0  0
  -12.3480  -42.6965  -19.1165 H   0  0  0  0  0  0  0  0  0  0  0  0
  -13.3689  -41.2185  -19.1165 H   0  0  0  0  0  0  0  0  0  0  0  0
  -17.2963  -42.6929  -17.4495 H   0  0  0  0  0  0  0  0  0  0  0  0
  -16.0489  -45.7973  -18.1659 H   0  0  0  0  0  0  0  0  0  0  0  0
  -18.3393  -46.8361  -18.5007 H   0  0  0  0  0  0  0  0  0  0  0  0
  -18.7131  -45.2163  -17.9565 H   0  0  0  0  0  0  0  0  0  0  0  0
  -19.0651  -44.4229  -20.2273 H   0  0  0  0  0  0  0  0  0  0  0  0
  -19.6925  -46.0507  -20.3607 H   0  0  0  0  0  0  0  0  0  0  0  0
  -17.7768  -46.4349  -21.9486 H   0  0  0  0  0  0  0  0  0  0  0  0
  -17.7087  -43.8377  -24.8747 H   0  0  0  0  0  0  0  0  0  0  0  0
  -14.0165  -40.7748  -23.8108 H   0  0  0  0  0  0  0  0  0  0  0  0
  -17.0874  -42.0467  -26.4864 H   0  0  0  0  0  0  0  0  0  0  0  0
  -15.3723  -43.1829  -19.7318 H   0  0  0  0  0  0  0  0  0  0  0  0
  -13.7918  -43.9386  -19.5324 H   0  0  0  0  0  0  0  0  0  0  0  0
  -14.6107  -42.0016  -21.2116 H   0  0  0  0  0  0  0  0  0  0  0  0
  -13.5696  -43.5791  -21.1780 H   0  0  0  0  0  0  0  0  0  0  0  0
  -14.5482  -43.4111  -22.0522 H   0  0  0  0  0  0  0  0  0  0  0  0
  -15.8120  -44.9065  -20.0519 H   0  0  0  0  0  0  0  0  0  0  0  0
  -17.1931  -43.7428  -21.0628 H   0  0  0  0  0  0  0  0  0  0  0  0
  -17.2865  -44.4180  -18.2385 H   0  0  0  0  0  0  0  0  0  0  0  0
  -17.2765  -44.4080  -18.2285 H   0  0  0  0  0  0  0  0  0  0  0  0
  3  1  1  0
 10  9  2  0
  8  5  1  0
  8  9  1  0
  5  7  2  0
 11  9  2  0
  9  4  1  0
 12 13  1  0
 14 15  1  0
 16 21  2  0
 16 17  1  0
 17  1  1  0
 17 18  2  0
 18 19  1  0
 19 20  2  0
 20  2  1  0
 20 21  1  0
 22  5  1  0
 22 23  1  0
 23 24  1  0
 23  6  1  0
 24 25  1  0
 25 26  1  0
 12 22  1  0
 15 26  1  0
  1 25  1  0
 12 15  1  0
 13 27  1  0
 14 27  1  0
  2 28  1  0
  2 29  1  0
  2 30  1  0
  3 31  1  0
  3 32  1  0
  3 33  1  0
  4 34  1  0
  4 35  1  0
  4 36  1  0
  6 37  1  0
  6 38  1  0
  6 39  1  0
  8 40  1  0
 12 41  1  1
 13 42  1  0
 13 43  1  0
 14 44  1  0
 14 45  1  0
 15 46  1  6
 16 47  1  0
 19 48  1  0
 21 49  1  0
 22 50  1  6
 23 51  1  6
 24 52  1  0
 24 53  1  0
 25 54  1  6
 26 55  1  0
 26 56  1  0
 27 57  1  0
 27 58  1  0
M  END
>  <smiles>  (112) 
[H]c1nc(N(C([H])([H])[H])[C@@]2([H])C([H])([H])[C@@]([H])(C([H])([H])[H])[C@]([H])(C(=O)N([H])S(=O)(=O)C([H])([H])[H])[C@@]3([H])C([H])([H])C([H])([H])C([H])([H])[C@@]3([H])C2([H])[H])c([H])c([H])c1C([H])([H])[H]

>  <error>  (112) 


>  <∆∆G>  (112) 
nan

>  <∆G_bound>  (112) 
nan

>  <∆G_unbound>  (112) 
nan

>  <comRMSD>  (112) 
0.0

>  <N_constrained_atoms>  (112) 
26.0

>  <N_unconstrained_atoms>  (112) 
1.0

>  <runtime>  (112) 
1.638901

>  <regarded>  (112) 
['d0254a', '5hmz-a']

>  <disregarded>  (112) 
[]

>  <LE>  (112) 
nan

>  <outcome>  (112) 
crashed

>  <percent_hybrid>  (112) 
47.0

$$$$

     RDKit          2D

  0  0  0  0  0  0  0  0  0  0999 V2000
M  END
>  <smiles>  (113) 
nan

>  <error>  (113) 
RuntimeError Range Error
	atomId
	Violation occurred on line 35 in file Code/GraphMol/Conformer.cpp
	Failed Expression: 77 < 77
	RDKIT: 2024.03.5
	BOOST: 1_85


>  <∆∆G>  (113) 
nan

>  <∆G_bound>  (113) 
nan

>  <∆G_unbound>  (113) 
nan

>  <comRMSD>  (113) 
nan

>  <N_constrained_atoms>  (113) 
nan

>  <N_unconstrained_atoms>  (113) 
nan

>  <runtime>  (113) 
nan

>  <regarded>  (113) 
[]

>  <disregarded>  (113) 
[]

>  <LE>  (113) 
nan

>  <outcome>  (113) 
crashed

>  <percent_hybrid>  (113) 
nan

$$$$
LIG
     RDKit          3D

 55 58  0  0  0  0  0  0  0  0999 V2000
  -16.4730  -44.1500  -22.4210 C   0  0  2  0  0  0  0  0  0  0  0  0
  -15.1640  -40.1290  -26.1880 C   0  0  0  0  0  0  0  0  0  0  0  0
  -14.5170  -43.0760  -23.6690 C   0  0  0  0  0  0  0  0  0  0  0  0
  -15.2140  -44.1960  -17.2050 C   0  0  0  0  0  0  0  0  0  0  0  0
  -16.7770  -42.4210  -17.0360 O   0  0  0  0  0  0  0  0  0  0  0  0
  -16.7530  -43.9010  -15.4240 O   0  0  0  0  0  0  0  0  0  0  0  0
  -16.3290  -43.4590  -16.5100 C   0  0  0  0  0  0  0  0  0  0  0  0
  -16.7580  -45.4230  -18.9190 C   0  0  1  0  0  0  0  0  0  0  0  0
  -18.2140  -45.7750  -18.7620 C   0  0  0  0  0  0  0  0  0  0  0  0
  -18.7790  -45.4810  -20.1350 C   0  0  0  0  0  0  0  0  0  0  0  0
  -17.6230  -45.8150  -21.0530 C   0  0  1  0  0  0  0  0  0  0  0  0
  -16.8900  -43.1390  -24.6480 C   0  0  0  0  0  0  0  0  0  0  0  0
  -16.1690  -43.2350  -23.4440 C   0  0  0  0  0  0  0  0  0  0  0  0
  -15.1490  -42.4110  -23.1580 N   0  0  0  0  0  0  0  0  0  0  0  0
  -14.8480  -41.4540  -24.0500 C   0  0  0  0  0  0  0  0  0  0  0  0
  -15.5130  -41.2620  -25.2530 C   0  0  0  0  0  0  0  0  0  0  0  0
  -16.5400  -42.1420  -25.5370 C   0  0  0  0  0  0  0  0  0  0  0  0
  -15.3060  -44.0670  -18.7190 C   0  0  2  0  0  0  0  0  0  0  0  0
  -14.3780  -43.2890  -19.4240 C   0  0  0  0  0  0  0  0  0  0  0  0
  -14.4180  -43.1820  -20.8110 C   0  0  0  0  0  0  0  0  0  0  0  0
  -15.4370  -43.8370  -21.5280 C   0  0  0  0  0  0  0  0  0  0  0  0
  -16.4280  -44.6560  -20.7710 C   0  0  0  0  0  0  0  0  0  0  0  0
  -19.2550  -46.2000  -23.1400 C   0  0  0  0  0  0  0  0  0  0  0  0
  -19.0830  -47.0270  -22.0370 C   0  0  0  0  0  0  0  0  0  0  0  0
  -18.1620  -44.8750  -22.9160 S   0  0  0  0  0  0  0  0  0  0  0  0
  -18.4965  -45.6280  -19.4485 C   0  0  0  0  0  0  0  0  0  0  0  0
  -14.8902  -39.2401  -25.6007 H   0  0  0  0  0  0  0  0  0  0  0  0
  -14.3154  -40.4251  -26.8222 H   0  0  0  0  0  0  0  0  0  0  0  0
  -16.0321  -39.8963  -26.8222 H   0  0  0  0  0  0  0  0  0  0  0  0
  -13.7928  -42.6783  -22.9428 H   0  0  0  0  0  0  0  0  0  0  0  0
  -14.0261  -43.8311  -24.3006 H   0  0  0  0  0  0  0  0  0  0  0  0
  -14.8906  -42.2565  -24.3006 H   0  0  0  0  0  0  0  0  0  0  0  0
  -14.2513  -43.7820  -16.8706 H   0  0  0  0  0  0  0  0  0  0  0  0
  -15.2977  -45.2622  -16.9478 H   0  0  0  0  0  0  0  0  0  0  0  0
  -16.4105  -42.1061  -17.9001 H   0  0  0  0  0  0  0  0  0  0  0  0
  -16.0704  -45.7359  -18.1194 H   0  0  0  0  0  0  0  0  0  0  0  0
  -18.7369  -46.1521  -17.8707 H   0  0  0  0  0  0  0  0  0  0  0  0
  -18.4303  -44.7420  -18.4518 H   0  0  0  0  0  0  0  0  0  0  0  0
  -19.7819  -45.1150  -20.4001 H   0  0  0  0  0  0  0  0  0  0  0  0
  -19.1378  -46.5182  -20.2094 H   0  0  0  0  0  0  0  0  0  0  0  0
  -17.7087  -43.8377  -24.8747 H   0  0  0  0  0  0  0  0  0  0  0  0
  -14.0165  -40.7748  -23.8108 H   0  0  0  0  0  0  0  0  0  0  0  0
  -17.0874  -42.0467  -26.4864 H   0  0  0  0  0  0  0  0  0  0  0  0
  -15.2949  -43.5495  -19.6896 H   0  0  0  0  0  0  0  0  0  0  0  0
  -13.5981  -42.7491  -18.8670 H   0  0  0  0  0  0  0  0  0  0  0  0
  -13.7128  -44.1608  -19.5104 H   0  0  0  0  0  0  0  0  0  0  0  0
  -13.6589  -42.5899  -21.3431 H   0  0  0  0  0  0  0  0  0  0  0  0
  -13.7823  -44.0755  -20.8983 H   0  0  0  0  0  0  0  0  0  0  0  0
  -16.3586  -44.4367  -19.6953 H   0  0  0  0  0  0  0  0  0  0  0  0
  -19.9443  -46.3549  -23.9831 H   0  0  0  0  0  0  0  0  0  0  0  0
  -20.0378  -45.6452  -22.6020 H   0  0  0  0  0  0  0  0  0  0  0  0
  -19.5447  -47.9867  -21.7616 H   0  0  0  0  0  0  0  0  0  0  0  0
  -18.2813  -47.5642  -22.5648 H   0  0  0  0  0  0  0  0  0  0  0  0
  -17.4665  -44.5980  -18.4185 H   0  0  0  0  0  0  0  0  0  0  0  0
  -17.4565  -44.5880  -18.4085 H   0  0  0  0  0  0  0  0  0  0  0  0
  1  3  1  6
  6  7  2  0
  4  7  1  0
  7  5  1  0
  8  9  1  0
 11 10  1  1
 12 17  2  0
 12 13  1  0
 13  1  1  0
 13 14  2  0
 14 15  1  0
 15 16  2  0
 16  2  1  0
 16 17  1  0
 18  4  1  0
 18 19  1  0
 19 20  1  0
 20 21  1  0
 21 22  2  0
 23 24  1  0
 23 25  1  0
  8 18  1  0
 11 22  1  0
 11 24  1  0
 25  1  1  0
  1 21  1  0
  8 11  1  0
  9 26  1  0
 10 26  1  0
  2 27  1  0
  2 28  1  0
  2 29  1  0
  3 30  1  0
  3 31  1  0
  3 32  1  0
  4 33  1  0
  4 34  1  0
  5 35  1  0
  8 36  1  1
  9 37  1  0
  9 38  1  0
 10 39  1  0
 10 40  1  0
 12 41  1  0
 15 42  1  0
 17 43  1  0
 18 44  1  1
 19 45  1  0
 19 46  1  0
 20 47  1  0
 20 48  1  0
 22 49  1  0
 23 50  1  0
 23 51  1  0
 24 52  1  0
 24 53  1  0
 26 54  1  0
 26 55  1  0
M  END
>  <smiles>  (114) 
[H]OC(=O)C([H])([H])[C@@]1([H])C([H])([H])C([H])([H])C2=C([H])[C@]3(C([H])([H])C([H])([H])S[C@]2(c2nc([H])c(C([H])([H])[H])c([H])c2[H])C([H])([H])[H])C([H])([H])C([H])([H])C([H])([H])[C@]13[H]

>  <error>  (114) 


>  <∆∆G>  (114) 
nan

>  <∆G_bound>  (114) 
nan

>  <∆G_unbound>  (114) 
nan

>  <comRMSD>  (114) 
0.0

>  <N_constrained_atoms>  (114) 
25.0

>  <N_unconstrained_atoms>  (114) 
1.0

>  <runtime>  (114) 
1.704213

>  <regarded>  (114) 
['d0254a', '5f3z-a']

>  <disregarded>  (114) 
[]

>  <LE>  (114) 
nan

>  <outcome>  (114) 
crashed

>  <percent_hybrid>  (114) 
48.0

$$$$
LIG
     RDKit          3D

 51 53  0  0  0  0  0  0  0  0999 V2000
  -16.4730  -44.1500  -22.4210 N   0  0  0  0  0  0  0  0  0  0  0  0
  -15.1640  -40.1290  -26.1880 C   0  0  0  0  0  0  0  0  0  0  0  0
  -15.2520  -44.4050  -17.0120 C   0  0  0  0  0  0  0  0  0  0  0  0
  -16.2960  -42.2860  -17.0750 O   0  0  0  0  0  0  0  0  0  0  0  0
  -17.1960  -43.6970  -15.6870 O   0  0  0  0  0  0  0  0  0  0  0  0
  -16.3050  -43.4180  -16.5350 C   0  0  0  0  0  0  0  0  0  0  0  0
  -16.7580  -45.4230  -18.9190 C   0  0  0  0  0  0  0  0  0  0  0  0
  -18.2140  -45.7750  -18.7620 C   0  0  0  0  0  0  0  0  0  0  0  0
  -18.7790  -45.4810  -20.1350 C   0  0  0  0  0  0  0  0  0  0  0  0
  -17.6230  -45.8150  -21.0530 C   0  0  0  0  0  0  0  0  0  0  0  0
  -16.8900  -43.1390  -24.6480 C   0  0  0  0  0  0  0  0  0  0  0  0
  -16.1690  -43.2350  -23.4440 C   0  0  0  0  0  0  0  0  0  0  0  0
  -15.1490  -42.4110  -23.1580 N   0  0  0  0  0  0  0  0  0  0  0  0
  -14.8480  -41.4540  -24.0500 C   0  0  0  0  0  0  0  0  0  0  0  0
  -15.5130  -41.2620  -25.2530 C   0  0  0  0  0  0  0  0  0  0  0  0
  -16.5400  -42.1420  -25.5370 C   0  0  0  0  0  0  0  0  0  0  0  0
  -15.3070  -44.2510  -18.5340 C   0  0  0  0  0  0  0  0  0  0  0  0
  -14.3930  -43.4450  -19.2100 C   0  0  0  0  0  0  0  0  0  0  0  0
  -14.4630  -43.3000  -20.6000 C   0  0  0  0  0  0  0  0  0  0  0  0
  -15.4720  -43.9710  -21.3180 C   0  0  0  0  0  0  0  0  0  0  0  0
  -16.3930  -44.7640  -20.6470 C   0  0  0  0  0  0  0  0  0  0  0  0
  -19.2690  -46.2980  -23.1540 C   0  0  0  0  0  0  0  0  0  0  0  0
  -19.0410  -47.1460  -22.0670 C   0  0  0  0  0  0  0  0  0  0  0  0
  -18.0480  -46.7250  -21.1270 C   0  0  0  0  0  0  0  0  0  0  0  0
  -18.2180  -44.9830  -22.8960 S   0  0  0  0  0  0  0  0  0  0  0  0
  -18.4965  -45.6280  -19.4485 C   0  0  0  0  0  0  0  0  0  0  0  0
  -14.8902  -39.2401  -25.6007 H   0  0  0  0  0  0  0  0  0  0  0  0
  -14.3154  -40.4251  -26.8222 H   0  0  0  0  0  0  0  0  0  0  0  0
  -16.0321  -39.8963  -26.8222 H   0  0  0  0  0  0  0  0  0  0  0  0
  -14.2573  -44.1419  -16.6229 H   0  0  0  0  0  0  0  0  0  0  0  0
  -15.4348  -45.4350  -16.6718 H   0  0  0  0  0  0  0  0  0  0  0  0
  -15.5993  -42.0610  -17.7413 H   0  0  0  0  0  0  0  0  0  0  0  0
  -18.3393  -46.8361  -18.5007 H   0  0  0  0  0  0  0  0  0  0  0  0
  -18.7131  -45.2163  -17.9565 H   0  0  0  0  0  0  0  0  0  0  0  0
  -19.0651  -44.4229  -20.2273 H   0  0  0  0  0  0  0  0  0  0  0  0
  -19.6925  -46.0507  -20.3607 H   0  0  0  0  0  0  0  0  0  0  0  0
  -17.7087  -43.8377  -24.8747 H   0  0  0  0  0  0  0  0  0  0  0  0
  -14.0165  -40.7748  -23.8108 H   0  0  0  0  0  0  0  0  0  0  0  0
  -17.0874  -42.0467  -26.4864 H   0  0  0  0  0  0  0  0  0  0  0  0
  -14.4876  -42.4356  -18.7832 H   0  0  0  0  0  0  0  0  0  0  0  0
  -14.5858  -42.2260  -20.8037 H   0  0  0  0  0  0  0  0  0  0  0  0
  -16.2819  -44.6756  -19.5562 H   0  0  0  0  0  0  0  0  0  0  0  0
  -19.0312  -46.8061  -24.1002 H   0  0  0  0  0  0  0  0  0  0  0  0
  -20.3210  -45.9849  -23.2271 H   0  0  0  0  0  0  0  0  0  0  0  0
  -19.9910  -47.2554  -21.5233 H   0  0  0  0  0  0  0  0  0  0  0  0
  -18.6537  -48.0793  -22.5017 H   0  0  0  0  0  0  0  0  0  0  0  0
  -18.4209  -46.8831  -20.1043 H   0  0  0  0  0  0  0  0  0  0  0  0
  -17.1293  -47.3110  -21.2770 H   0  0  0  0  0  0  0  0  0  0  0  0
  -17.8304  -45.6572  -21.2770 H   0  0  0  0  0  0  0  0  0  0  0  0
  -17.5065  -44.6380  -18.4585 H   0  0  0  0  0  0  0  0  0  0  0  0
  -17.4965  -44.6280  -18.4485 H   0  0  0  0  0  0  0  0  0  0  0  0
  5  6  2  0
  3  6  1  0
  6  4  1  0
  7  8  1  0
  9 10  1  0
 11 16  2  0
 11 12  1  0
 12  1  1  0
 12 13  2  0
 13 14  1  0
 14 15  2  0
 15  2  1  0
 15 16  1  0
 17  3  1  0
 17 18  2  0
 18 19  1  0
 19 20  2  0
 20 21  1  0
 22 23  1  0
 22 25  1  0
 23 24  1  0
  7 17  1  0
 10 21  4  0
 25  1  1  0
  1 20  1  0
 10  7  4  0
  8 26  1  0
  9 26  1  0
  2 27  1  0
  2 28  1  0
  2 29  1  0
  3 30  1  0
  3 31  1  0
  4 32  1  0
  8 33  1  0
  8 34  1  0
  9 35  1  0
  9 36  1  0
 11 37  1  0
 14 38  1  0
 16 39  1  0
 18 40  1  0
 19 41  1  0
 21 42  1  0
 22 43  1  0
 22 44  1  0
 23 45  1  0
 23 46  1  0
 24 47  1  0
 24 48  1  0
 24 49  1  0
 26 50  1  0
 26 51  1  0
M  END
>  <smiles>  (115) 
[H]OC(=O)C([H])([H])C1=C([H])C([H])=C(N(SC([H])([H])C([H])([H])C([H])([H])[H])c2nc([H])c(C([H])([H])[H])c([H])c2[H])C([H]):C2:C1C([H])([H])C([H])([H])C2([H])[H]

>  <error>  (115) 


>  <∆∆G>  (115) 
nan

>  <∆G_bound>  (115) 
nan

>  <∆G_unbound>  (115) 
nan

>  <comRMSD>  (115) 
0.0

>  <N_constrained_atoms>  (115) 
25.0

>  <N_unconstrained_atoms>  (115) 
1.0

>  <runtime>  (115) 
1.606328

>  <regarded>  (115) 
['d0254a', '6h9r-a']

>  <disregarded>  (115) 
[]

>  <LE>  (115) 
nan

>  <outcome>  (115) 
crashed

>  <percent_hybrid>  (115) 
48.0

$$$$
LIG
     RDKit          3D

 60 62  0  0  0  0  0  0  0  0999 V2000
  -16.4730  -44.1500  -22.4210 C   0  0  2  0  0  0  0  0  0  0  0  0
  -15.1640  -40.1290  -26.1880 C   0  0  0  0  0  0  0  0  0  0  0  0
  -14.5360  -43.2680  -23.7430 C   0  0  0  0  0  0  0  0  0  0  0  0
  -16.9070  -44.0190  -15.4960 O   0  0  0  0  0  0  0  0  0  0  0  0
  -16.8110  -42.4260  -17.0100 O   0  0  0  0  0  0  0  0  0  0  0  0
  -16.4370  -43.5270  -16.5460 C   0  0  0  0  0  0  0  0  0  0  0  0
  -15.3540  -44.2790  -17.2720 C   0  0  0  0  0  0  0  0  0  0  0  0
  -16.7580  -45.4230  -18.9190 C   0  0  0  0  0  0  0  0  0  0  0  0
  -18.2140  -45.7750  -18.7620 C   0  0  0  0  0  0  0  0  0  0  0  0
  -18.7790  -45.4810  -20.1350 C   0  0  0  0  0  0  0  0  0  0  0  0
  -17.6230  -45.8150  -21.0530 C   0  0  0  0  0  0  0  0  0  0  0  0
  -16.8900  -43.1390  -24.6480 C   0  0  0  0  0  0  0  0  0  0  0  0
  -16.1690  -43.2350  -23.4440 C   0  0  0  0  0  0  0  0  0  0  0  0
  -15.1490  -42.4110  -23.1580 N   0  0  0  0  0  0  0  0  0  0  0  0
  -14.8480  -41.4540  -24.0500 C   0  0  0  0  0  0  0  0  0  0  0  0
  -15.5130  -41.2620  -25.2530 C   0  0  0  0  0  0  0  0  0  0  0  0
  -16.5400  -42.1420  -25.5370 C   0  0  0  0  0  0  0  0  0  0  0  0
  -15.5480  -43.9340  -21.6070 C   0  0  0  0  0  0  0  0  0  0  0  0
  -14.5980  -43.2170  -20.8560 C   0  0  0  0  0  0  0  0  0  0  0  0
  -14.5670  -43.3410  -19.4640 C   0  0  0  0  0  0  0  0  0  0  0  0
  -15.4750  -44.1550  -18.7800 C   0  0  0  0  0  0  0  0  0  0  0  0
  -16.5200  -44.8140  -20.8860 C   0  0  0  0  0  0  0  0  0  0  0  0
  -19.0950  -45.8630  -23.4880 C   0  0  0  0  0  0  0  0  0  0  0  0
  -18.2180  -45.0690  -22.7410 C   0  0  0  0  0  0  0  0  0  0  0  0
  -17.7270  -46.9640  -21.3260 C   0  0  0  0  0  0  0  0  0  0  0  0
  -18.6400  -47.7380  -22.0480 C   0  0  0  0  0  0  0  0  0  0  0  0
  -19.3250  -47.1890  -23.1340 C   0  0  0  0  0  0  0  0  0  0  0  0
  -18.4965  -45.6280  -19.4485 C   0  0  0  0  0  0  0  0  0  0  0  0
  -14.8902  -39.2401  -25.6007 H   0  0  0  0  0  0  0  0  0  0  0  0
  -14.3154  -40.4251  -26.8222 H   0  0  0  0  0  0  0  0  0  0  0  0
  -16.0321  -39.8963  -26.8222 H   0  0  0  0  0  0  0  0  0  0  0  0
  -13.7545  -42.9122  -23.0555 H   0  0  0  0  0  0  0  0  0  0  0  0
  -14.1293  -44.0697  -24.3770 H   0  0  0  0  0  0  0  0  0  0  0  0
  -14.8737  -42.4349  -24.3770 H   0  0  0  0  0  0  0  0  0  0  0  0
  -16.4085  -42.0783  -17.8450 H   0  0  0  0  0  0  0  0  0  0  0  0
  -14.3773  -43.8791  -16.9618 H   0  0  0  0  0  0  0  0  0  0  0  0
  -15.4538  -45.3436  -17.0138 H   0  0  0  0  0  0  0  0  0  0  0  0
  -18.7369  -46.1521  -17.8707 H   0  0  0  0  0  0  0  0  0  0  0  0
  -18.4303  -44.7420  -18.4518 H   0  0  0  0  0  0  0  0  0  0  0  0
  -19.7819  -45.1150  -20.4001 H   0  0  0  0  0  0  0  0  0  0  0  0
  -19.1378  -46.5182  -20.2094 H   0  0  0  0  0  0  0  0  0  0  0  0
  -17.7087  -43.8377  -24.8747 H   0  0  0  0  0  0  0  0  0  0  0  0
  -14.0165  -40.7748  -23.8108 H   0  0  0  0  0  0  0  0  0  0  0  0
  -17.0874  -42.0467  -26.4864 H   0  0  0  0  0  0  0  0  0  0  0  0
  -13.8790  -42.5582  -21.3650 H   0  0  0  0  0  0  0  0  0  0  0  0
  -13.8095  -42.7844  -18.8926 H   0  0  0  0  0  0  0  0  0  0  0  0
  -16.3630  -44.6689  -19.8070 H   0  0  0  0  0  0  0  0  0  0  0  0
  -19.6071  -45.4354  -24.3626 H   0  0  0  0  0  0  0  0  0  0  0  0
  -19.9294  -45.5466  -22.8448 H   0  0  0  0  0  0  0  0  0  0  0  0
  -18.8070  -44.8121  -21.8482 H   0  0  0  0  0  0  0  0  0  0  0  0
  -17.8383  -45.9672  -22.2321 H   0  0  0  0  0  0  0  0  0  0  0  0
  -17.0085  -46.3549  -20.7578 H   0  0  0  0  0  0  0  0  0  0  0  0
  -18.3855  -47.0372  -20.4479 H   0  0  0  0  0  0  0  0  0  0  0  0
  -17.2142  -47.8797  -20.9964 H   0  0  0  0  0  0  0  0  0  0  0  0
  -18.8197  -48.7842  -21.7594 H   0  0  0  0  0  0  0  0  0  0  0  0
  -19.4473  -47.4137  -21.3749 H   0  0  0  0  0  0  0  0  0  0  0  0
  -20.0403  -47.7995  -23.7047 H   0  0  0  0  0  0  0  0  0  0  0  0
  -18.5154  -47.5089  -23.8064 H   0  0  0  0  0  0  0  0  0  0  0  0
  -17.4165  -44.5480  -18.3685 H   0  0  0  0  0  0  0  0  0  0  0  0
  -17.4065  -44.5380  -18.3585 H   0  0  0  0  0  0  0  0  0  0  0  0
  1  3  1  6
  4  6  2  0
  7  6  1  0
  6  5  1  0
  8  9  1  0
 10 11  1  0
 12 17  2  0
 12 13  1  0
 13  1  1  0
 13 14  2  0
 14 15  1  0
 15 16  2  0
 16  2  1  0
 16 17  1  0
 18 22  1  0
 18 19  4  0
 19 20  1  0
 20 21  2  0
 21  7  1  0
 23 27  1  0
 23 24  1  0
 25 26  1  0
 26 27  1  0
  8 21  1  0
 11 22  4  0
 24  1  1  0
  1 18  1  0
  8 11  4  0
  9 28  1  0
 10 28  1  0
  2 29  1  0
  2 30  1  0
  2 31  1  0
  3 32  1  0
  3 33  1  0
  3 34  1  0
  5 35  1  0
  7 36  1  0
  7 37  1  0
  9 38  1  0
  9 39  1  0
 10 40  1  0
 10 41  1  0
 12 42  1  0
 15 43  1  0
 17 44  1  0
 19 45  1  0
 20 46  1  0
 22 47  1  0
 23 48  1  0
 23 49  1  0
 24 50  1  0
 24 51  1  0
 25 52  1  0
 25 53  1  0
 25 54  1  0
 26 55  1  0
 26 56  1  0
 27 57  1  0
 27 58  1  0
 28 59  1  0
 28 60  1  0
M  END
>  <smiles>  (116) 
[H]OC(=O)C([H])([H])C1=C([H])C([H]):C([C@@](c2nc([H])c(C([H])([H])[H])c([H])c2[H])(C([H])([H])[H])C([H])([H])C([H])([H])C([H])([H])C([H])([H])C([H])([H])[H])C([H]):C2:C1C([H])([H])C([H])([H])C2([H])[H]

>  <error>  (116) 


>  <∆∆G>  (116) 
nan

>  <∆G_bound>  (116) 
nan

>  <∆G_unbound>  (116) 
nan

>  <comRMSD>  (116) 
0.0

>  <N_constrained_atoms>  (116) 
27.0

>  <N_unconstrained_atoms>  (116) 
1.0

>  <runtime>  (116) 
1.867209

>  <regarded>  (116) 
['d0254a', '5f3t-a']

>  <disregarded>  (116) 
[]

>  <LE>  (116) 
nan

>  <outcome>  (116) 
crashed

>  <percent_hybrid>  (116) 
45.0

$$$$

     RDKit          2D

  0  0  0  0  0  0  0  0  0  0999 V2000
M  END
>  <smiles>  (117) 
nan

>  <error>  (117) 
TimeoutError

>  <∆∆G>  (117) 
nan

>  <∆G_bound>  (117) 
nan

>  <∆G_unbound>  (117) 
nan

>  <comRMSD>  (117) 
nan

>  <N_constrained_atoms>  (117) 
nan

>  <N_unconstrained_atoms>  (117) 
nan

>  <runtime>  (117) 
nan

>  <regarded>  (117) 
[]

>  <disregarded>  (117) 
[]

>  <LE>  (117) 
nan

>  <outcome>  (117) 
timeout

>  <percent_hybrid>  (117) 
nan

$$$$

     RDKit          2D

  0  0  0  0  0  0  0  0  0  0999 V2000
M  END
>  <smiles>  (118) 
nan

>  <error>  (118) 
DistanceError 5.29 Å

>  <∆∆G>  (118) 
nan

>  <∆G_bound>  (118) 
nan

>  <∆G_unbound>  (118) 
nan

>  <comRMSD>  (118) 
nan

>  <N_constrained_atoms>  (118) 
nan

>  <N_unconstrained_atoms>  (118) 
nan

>  <runtime>  (118) 
nan

>  <regarded>  (118) 
[]

>  <disregarded>  (118) 
[]

>  <LE>  (118) 
nan

>  <outcome>  (118) 
too distant

>  <percent_hybrid>  (118) 
nan

$$$$
LIG
     RDKit          3D

  0  0  0  0  0  0  0  0  0  0999 V3000
M  V30 BEGIN CTAB
M  V30 COUNTS 63 65 0 0 0
M  V30 BEGIN ATOM
M  V30 1 O -23.164000 -45.938000 -18.049000 0
M  V30 2 C -22.246000 -46.016998 -17.236000 0
M  V30 3 C -22.204000 -47.136002 -16.188999 0
M  V30 4 C -23.259001 -46.889000 -15.112000 0
M  V30 5 C -22.391001 -48.480999 -16.875999 0
M  V30 6 N -21.222000 -45.154999 -17.212000 0
M  V30 7 C -21.018999 -44.181000 -18.270000 0 CFG=1
M  V30 8 C -20.471001 -42.877998 -17.697001 0
M  V30 9 C -20.379999 -43.105999 -21.250999 0
M  V30 10 C -17.607000 -47.167999 -21.084000 0
M  V30 11 C -20.124001 -44.757999 -19.327999 0
M  V30 12 S -19.247999 -46.223999 -19.002001 0
M  V30 13 C -18.566000 -46.140999 -20.593000 0
M  V30 14 C -18.959000 -45.118000 -21.297001 0
M  V30 15 C -19.841000 -44.330002 -20.590000 0
M  V30 16 C -15.248000 -40.036999 -26.167000 0
M  V30 17 C -14.724000 -41.629002 -24.274000 0
M  V30 18 C -15.198000 -42.825001 -23.830999 0
M  V30 19 C -16.190001 -43.247002 -24.733000 0
M  V30 20 C -16.294001 -42.299000 -25.702000 0
M  V30 21 N -15.398000 -41.293999 -25.423000 0
M  V30 22 C -17.406000 -38.859001 -26.754000 0
M  V30 23 C -16.355000 -39.054001 -25.875000 0
M  V30 24 C -16.341000 -38.275002 -24.731001 0
M  V30 25 C -17.327999 -37.328999 -24.525999 0
M  V30 26 C -18.322001 -37.206001 -25.469999 0
M  V30 27 N -18.382999 -37.960999 -26.572001 0
M  V30 28 C -18.266750 -44.650249 -22.156000 0
M  V30 29 C -17.574501 -44.182503 -23.014999 0
M  V30 30 C -16.882250 -43.714752 -23.874001 0
M  V30 31 H -21.224400 -47.145100 -15.688701 0
M  V30 32 H -22.800341 -46.996384 -14.117969 0
M  V30 33 H -23.663401 -45.871887 -15.221285 0
M  V30 34 H -24.072884 -47.620884 -15.221285 0
M  V30 35 H -22.500528 -49.268772 -16.116119 0
M  V30 36 H -23.293409 -48.449520 -17.504227 0
M  V30 37 H -21.514233 -48.696888 -17.504227 0
M  V30 38 H -20.560917 -45.183292 -16.422653 0
M  V30 39 H -21.983677 -43.943588 -18.742264 0
M  V30 40 H -20.490307 -42.923904 -16.598129 0
M  V30 41 H -19.435837 -42.733383 -18.039818 0
M  V30 42 H -21.091650 -42.037003 -18.039818 0
M  V30 43 H -20.697660 -42.384628 -20.483721 0
M  V30 44 H -19.597904 -42.653469 -21.878328 0
M  V30 45 H -21.241858 -43.377396 -21.878328 0
M  V30 46 H -17.137276 -47.671032 -20.225910 0
M  V30 47 H -18.143948 -47.908951 -21.694473 0
M  V30 48 H -16.831057 -46.682991 -21.694473 0
M  V30 49 H -14.287182 -39.577408 -25.892035 0
M  V30 50 H -15.290560 -40.277637 -27.239511 0
M  V30 51 H -13.935004 -41.031788 -23.793562 0
M  V30 52 H -14.865563 -43.363384 -22.931206 0
M  V30 53 H -16.978371 -42.330608 -26.562603 0
M  V30 54 H -17.441278 -39.481430 -27.660278 0
M  V30 55 H -15.544135 -38.408703 -23.984589 0
M  V30 56 H -17.319143 -36.690296 -23.630466 0
M  V30 57 H -19.104530 -36.449635 -25.310135 0
M  V30 58 H -17.196751 -43.580250 -21.086000 0
M  V30 59 H -17.186750 -43.570251 -21.076000 0
M  V30 60 H -16.484501 -43.092503 -21.925001 0
M  V30 61 H -16.474501 -43.082500 -21.915001 0
M  V30 62 H -15.772250 -42.604752 -22.764000 0
M  V30 63 H -15.762250 -42.594749 -22.754000 0
M  V30 END ATOM
M  V30 BEGIN BOND
M  V30 1 1 5 3
M  V30 2 1 4 3
M  V30 3 1 3 2
M  V30 4 2 2 1
M  V30 5 1 6 2
M  V30 6 1 7 6
M  V30 7 1 7 8
M  V30 8 1 11 7
M  V30 9 1 11 12
M  V30 10 2 11 15
M  V30 11 1 12 13
M  V30 12 1 13 10
M  V30 13 2 13 14
M  V30 14 1 14 15
M  V30 15 1 15 9
M  V30 16 2 17 18
M  V30 17 1 17 21
M  V30 18 1 18 19
M  V30 19 2 19 20
M  V30 20 1 20 21
M  V30 21 1 21 16
M  V30 22 2 22 27
M  V30 23 1 22 23
M  V30 24 1 23 16
M  V30 25 2 23 24
M  V30 26 1 24 25
M  V30 27 2 25 26
M  V30 28 1 26 27
M  V30 29 1 28 14
M  V30 30 1 29 28
M  V30 31 1 30 29
M  V30 32 1 30 19
M  V30 33 1 3 31
M  V30 34 1 4 32
M  V30 35 1 4 33
M  V30 36 1 4 34
M  V30 37 1 5 35
M  V30 38 1 5 36
M  V30 39 1 5 37
M  V30 40 1 6 38
M  V30 41 1 7 39 CFG=3
M  V30 42 1 8 40
M  V30 43 1 8 41
M  V30 44 1 8 42
M  V30 45 1 9 43
M  V30 46 1 9 44
M  V30 47 1 9 45
M  V30 48 1 10 46
M  V30 49 1 10 47
M  V30 50 1 10 48
M  V30 51 1 16 49
M  V30 52 1 16 50
M  V30 53 1 17 51
M  V30 54 1 18 52
M  V30 55 1 20 53
M  V30 56 1 22 54
M  V30 57 1 24 55
M  V30 58 1 25 56
M  V30 59 1 26 57
M  V30 60 1 28 58
M  V30 61 1 28 59
M  V30 62 1 29 60
M  V30 63 1 29 61
M  V30 64 1 30 62
M  V30 65 1 30 63
M  V30 END BOND
M  V30 BEGIN COLLECTION
M  V30 MDLV30/STEABS ATOMS=(0)
M  V30 END COLLECTION
M  V30 END CTAB
M  END
>  <smiles>  (119) 
[H]c1nc([H])c(C([H])([H])n2c([H])c([H])c(C([H])([H])C([H])([H])C([H])([H])c3c(C([H])([H])[H])sc([C@@]([H])(N([H])C(=O)C([H])(C([H])([H])[H])C([H])([H])[H])C([H])([H])[H])c3C([H])([H])[H])c2[H])c([H])c1[H]

>  <error>  (119) 


>  <∆∆G>  (119) 
nan

>  <∆G_bound>  (119) 
nan

>  <∆G_unbound>  (119) 
nan

>  <comRMSD>  (119) 
0.0

>  <N_constrained_atoms>  (119) 
27.0

>  <N_unconstrained_atoms>  (119) 
3.0

>  <runtime>  (119) 
2.829498

>  <regarded>  (119) 
['d0264a', 'd0191a']

>  <disregarded>  (119) 
[]

>  <LE>  (119) 
nan

>  <outcome>  (119) 
crashed

>  <percent_hybrid>  (119) 
45.0

$$$$
LIG
     RDKit          3D

 50 51  0  0  0  0  0  0  0  0999 V2000
  -23.1685  -46.3567  -18.3688 O   0  0  0  0  0  0  0  0  0  0  0  0
  -22.4544  -46.0936  -17.4859 C   0  0  0  0  0  0  0  0  0  0  0  0
  -22.3596  -46.9505  -16.2200 C   0  0  0  0  0  0  0  0  0  0  0  0
  -23.1695  -46.3084  -15.1016 C   0  0  0  0  0  0  0  0  0  0  0  0
  -22.8713  -48.3607  -16.5084 C   0  0  0  0  0  0  0  0  0  0  0  0
  -21.4451  -44.9322  -17.3248 N   0  0  0  0  0  0  0  0  0  0  0  0
  -21.0363  -43.9053  -18.2604 C   0  0  1  0  0  0  0  0  0  0  0  0
  -20.5660  -42.6512  -17.5320 C   0  0  0  0  0  0  0  0  0  0  0  0
  -20.0548  -42.5832  -21.0209 C   0  0  0  0  0  0  0  0  0  0  0  0
  -17.4772  -47.0075  -20.8648 C   0  0  0  0  0  0  0  0  0  0  0  0
  -18.6837  -45.0607  -23.4614 O   0  0  0  0  0  0  0  0  0  0  0  0
  -18.2164  -44.5115  -22.5455 C   0  0  0  0  0  0  0  0  0  0  0  0
  -17.1537  -43.4021  -22.4841 N   0  0  0  0  0  0  0  0  0  0  0  0
  -15.0569  -40.0033  -26.3983 C   0  0  0  0  0  0  0  0  0  0  0  0
  -19.9786  -44.4275  -19.2324 C   0  0  0  0  0  0  0  0  0  0  0  0
  -19.0561  -45.8340  -18.8963 S   0  0  0  0  0  0  0  0  0  0  0  0
  -18.3550  -45.8749  -20.4485 C   0  0  0  0  0  0  0  0  0  0  0  0
  -18.6987  -44.7607  -21.1832 C   0  0  0  0  0  0  0  0  0  0  0  0
  -19.5939  -43.8857  -20.4566 C   0  0  0  0  0  0  0  0  0  0  0  0
  -16.8246  -42.9519  -24.8234 C   0  0  0  0  0  0  0  0  0  0  0  0
  -16.5366  -42.6980  -23.4927 C   0  0  0  0  0  0  0  0  0  0  0  0
  -15.7378  -41.6928  -23.0881 N   0  0  0  0  0  0  0  0  0  0  0  0
  -15.2454  -40.8808  -24.0517 C   0  0  0  0  0  0  0  0  0  0  0  0
  -15.5221  -41.0178  -25.4054 C   0  0  0  0  0  0  0  0  0  0  0  0
  -16.3154  -42.0942  -25.7911 C   0  0  0  0  0  0  0  0  0  0  0  0
  -21.3080  -47.0274  -15.9212 H   0  0  0  0  0  0  0  0  0  0  0  0
  -23.1050  -46.9013  -14.1871 H   0  0  0  0  0  0  0  0  0  0  0  0
  -22.8052  -45.3017  -14.8718 H   0  0  0  0  0  0  0  0  0  0  0  0
  -24.2264  -46.2187  -15.3768 H   0  0  0  0  0  0  0  0  0  0  0  0
  -22.8349  -48.9789  -15.6099 H   0  0  0  0  0  0  0  0  0  0  0  0
  -23.9095  -48.3467  -16.8544 H   0  0  0  0  0  0  0  0  0  0  0  0
  -22.2725  -48.8465  -17.2845 H   0  0  0  0  0  0  0  0  0  0  0  0
  -21.0460  -44.9565  -16.3912 H   0  0  0  0  0  0  0  0  0  0  0  0
  -21.9332  -43.6686  -18.8461 H   0  0  0  0  0  0  0  0  0  0  0  0
  -21.2958  -42.3437  -16.7749 H   0  0  0  0  0  0  0  0  0  0  0  0
  -19.6061  -42.8018  -17.0299 H   0  0  0  0  0  0  0  0  0  0  0  0
  -20.4317  -41.8121  -18.2214 H   0  0  0  0  0  0  0  0  0  0  0  0
  -20.8660  -42.1439  -20.4398 H   0  0  0  0  0  0  0  0  0  0  0  0
  -19.2290  -41.8635  -21.0129 H   0  0  0  0  0  0  0  0  0  0  0  0
  -20.3890  -42.7015  -22.0551 H   0  0  0  0  0  0  0  0  0  0  0  0
  -17.0463  -47.5345  -20.0086 H   0  0  0  0  0  0  0  0  0  0  0  0
  -18.0431  -47.7214  -21.4708 H   0  0  0  0  0  0  0  0  0  0  0  0
  -16.6388  -46.6388  -21.4639 H   0  0  0  0  0  0  0  0  0  0  0  0
  -17.0397  -43.0971  -21.5277 H   0  0  0  0  0  0  0  0  0  0  0  0
  -15.6963  -39.1160  -26.3540 H   0  0  0  0  0  0  0  0  0  0  0  0
  -14.0249  -39.7054  -26.2009 H   0  0  0  0  0  0  0  0  0  0  0  0
  -15.0971  -40.4027  -27.4162 H   0  0  0  0  0  0  0  0  0  0  0  0
  -17.4683  -43.7676  -25.1202 H   0  0  0  0  0  0  0  0  0  0  0  0
  -14.6232  -40.0675  -23.6882 H   0  0  0  0  0  0  0  0  0  0  0  0
  -16.5491  -42.2609  -26.8384 H   0  0  0  0  0  0  0  0  0  0  0  0
  5  3  1  0
  4  3  1  0
  3  2  1  0
  2  1  2  0
  6  2  1  0
  7  6  1  0
  7  8  1  0
 13 12  1  0
 12 11  2  0
 15  7  1  0
 15 16  1  0
 15 19  2  0
 16 17  1  0
 17 10  1  0
 17 18  2  0
 18 19  1  0
 19  9  1  0
 20 25  2  0
 20 21  1  0
 21 13  1  0
 21 22  2  0
 22 23  1  0
 23 24  2  0
 24 14  1  0
 24 25  1  0
 12 18  1  0
  3 26  1  0
  4 27  1  0
  4 28  1  0
  4 29  1  0
  5 30  1  0
  5 31  1  0
  5 32  1  0
  6 33  1  0
  7 34  1  6
  8 35  1  0
  8 36  1  0
  8 37  1  0
  9 38  1  0
  9 39  1  0
  9 40  1  0
 10 41  1  0
 10 42  1  0
 10 43  1  0
 13 44  1  0
 14 45  1  0
 14 46  1  0
 14 47  1  0
 20 48  1  0
 23 49  1  0
 25 50  1  0
M  END
>  <smiles>  (120) 
[H]c1nc(N([H])C(=O)c2c(C([H])([H])[H])sc([C@@]([H])(N([H])C(=O)C([H])(C([H])([H])[H])C([H])([H])[H])C([H])([H])[H])c2C([H])([H])[H])c([H])c([H])c1C([H])([H])[H]

>  <error>  (120) 


>  <∆∆G>  (120) 
-52.100914

>  <∆G_bound>  (120) 
286.665654

>  <∆G_unbound>  (120) 
338.766568

>  <comRMSD>  (120) 
0.525646

>  <N_constrained_atoms>  (120) 
25.0

>  <N_unconstrained_atoms>  (120) 
0.0

>  <runtime>  (120) 
42.720261

>  <regarded>  (120) 
['d0264a', 'd0254a']

>  <disregarded>  (120) 
[]

>  <LE>  (120) 
2.084037

>  <outcome>  (120) 
acceptable

>  <percent_hybrid>  (120) 
40.0

$$$$
LIG
     RDKit          3D

 49 51  0  0  0  0  0  0  0  0999 V2000
  -23.3768  -46.3084  -18.1674 O   0  0  0  0  0  0  0  0  0  0  0  0
  -22.7398  -46.0161  -17.2343 C   0  0  0  0  0  0  0  0  0  0  0  0
  -22.5634  -46.9373  -16.0335 C   0  0  0  0  0  0  0  0  0  0  0  0
  -23.4071  -46.4266  -14.8808 C   0  0  0  0  0  0  0  0  0  0  0  0
  -22.9416  -48.3668  -16.4124 C   0  0  0  0  0  0  0  0  0  0  0  0
  -21.8555  -44.7688  -16.9718 N   0  0  0  0  0  0  0  0  0  0  0  0
  -21.5004  -43.6766  -17.8387 C   0  0  1  0  0  0  0  0  0  0  0  0
  -20.8726  -42.5079  -17.0988 C   0  0  0  0  0  0  0  0  0  0  0  0
  -20.3921  -42.2913  -20.6139 C   0  0  0  0  0  0  0  0  0  0  0  0
  -14.8151  -43.2034  -22.7379 N   0  0  0  0  0  0  0  0  0  0  0  0
  -20.5986  -44.2219  -18.9114 C   0  0  0  0  0  0  0  0  0  0  0  0
  -19.6537  -45.6595  -18.7015 S   0  0  0  0  0  0  0  0  0  0  0  0
  -19.2209  -45.5814  -20.3348 C   0  0  0  0  0  0  0  0  0  0  0  0
  -19.7407  -44.5936  -21.0265 N   0  0  0  0  0  0  0  0  0  0  0  0
  -20.2810  -43.6909  -20.1508 C   0  0  0  0  0  0  0  0  0  0  0  0
  -14.5336  -43.4668  -21.3854 C   0  0  0  0  0  0  0  0  0  0  0  0
  -15.0262  -44.5197  -20.5873 C   0  0  0  0  0  0  0  0  0  0  0  0
  -14.7301  -44.6375  -19.2560 N   0  0  0  0  0  0  0  0  0  0  0  0
  -13.8717  -43.7326  -18.7385 C   0  0  0  0  0  0  0  0  0  0  0  0
  -13.2207  -42.7716  -19.4769 C   0  0  0  0  0  0  0  0  0  0  0  0
  -13.5489  -42.6558  -20.8166 C   0  0  0  0  0  0  0  0  0  0  0  0
  -16.4122  -45.6446  -22.3795 C   0  0  0  0  0  0  0  0  0  0  0  0
  -17.6983  -46.1230  -22.3382 C   0  0  0  0  0  0  0  0  0  0  0  0
  -17.9701  -46.2191  -20.9693 C   0  0  0  0  0  0  0  0  0  0  0  0
  -16.7692  -46.2940  -20.2858 C   0  0  0  0  0  0  0  0  0  0  0  0
  -15.9731  -45.4659  -21.0870 N   0  0  0  0  0  0  0  0  0  0  0  0
  -21.5062  -46.9397  -15.7437 H   0  0  0  0  0  0  0  0  0  0  0  0
  -23.1699  -46.9873  -13.9785 H   0  0  0  0  0  0  0  0  0  0  0  0
  -23.2168  -45.3695  -14.6684 H   0  0  0  0  0  0  0  0  0  0  0  0
  -24.4776  -46.5331  -15.0876 H   0  0  0  0  0  0  0  0  0  0  0  0
  -22.8878  -49.0256  -15.5452 H   0  0  0  0  0  0  0  0  0  0  0  0
  -23.9610  -48.4214  -16.8050 H   0  0  0  0  0  0  0  0  0  0  0  0
  -22.2720  -48.7576  -17.1848 H   0  0  0  0  0  0  0  0  0  0  0  0
  -21.3738  -44.8745  -16.0812 H   0  0  0  0  0  0  0  0  0  0  0  0
  -22.4348  -43.3513  -18.3122 H   0  0  0  0  0  0  0  0  0  0  0  0
  -21.4853  -42.2183  -16.2381 H   0  0  0  0  0  0  0  0  0  0  0  0
  -19.8678  -42.7339  -16.7334 H   0  0  0  0  0  0  0  0  0  0  0  0
  -20.7810  -41.6319  -17.7493 H   0  0  0  0  0  0  0  0  0  0  0  0
  -21.1887  -41.7478  -20.1012 H   0  0  0  0  0  0  0  0  0  0  0  0
  -19.4548  -41.7668  -20.3967 H   0  0  0  0  0  0  0  0  0  0  0  0
  -20.5449  -42.2372  -21.6950 H   0  0  0  0  0  0  0  0  0  0  0  0
  -15.7858  -43.3635  -22.9909 H   0  0  0  0  0  0  0  0  0  0  0  0
  -14.1833  -43.7307  -23.3427 H   0  0  0  0  0  0  0  0  0  0  0  0
  -13.7053  -43.7914  -17.6677 H   0  0  0  0  0  0  0  0  0  0  0  0
  -12.4941  -42.1083  -19.0216 H   0  0  0  0  0  0  0  0  0  0  0  0
  -13.0721  -41.8838  -21.4148 H   0  0  0  0  0  0  0  0  0  0  0  0
  -15.8235  -45.3368  -23.2259 H   0  0  0  0  0  0  0  0  0  0  0  0
  -18.3989  -46.1087  -23.1637 H   0  0  0  0  0  0  0  0  0  0  0  0
  -16.5622  -46.3322  -19.2255 H   0  0  0  0  0  0  0  0  0  0  0  0
  5  3  1  0
  4  3  1  0
  3  2  1  0
  2  1  2  0
  6  2  1  0
  7  6  1  0
  7  8  1  0
 11  7  1  0
 11 12  1  0
 11 15  2  0
 12 13  1  0
 13 14  2  0
 14 15  1  0
 15  9  1  0
 16 10  1  0
 16 21  2  0
 16 17  1  0
 17 18  2  0
 17 26  1  0
 18 19  1  0
 19 20  2  0
 20 21  1  0
 22 23  2  0
 22 26  1  0
 23 24  1  0
 24 25  2  0
 25 26  1  0
 24 13  1  0
  3 27  1  0
  4 28  1  0
  4 29  1  0
  4 30  1  0
  5 31  1  0
  5 32  1  0
  5 33  1  0
  6 34  1  0
  7 35  1  6
  8 36  1  0
  8 37  1  0
  8 38  1  0
  9 39  1  0
  9 40  1  0
  9 41  1  0
 10 42  1  0
 10 43  1  0
 19 44  1  0
 20 45  1  0
 21 46  1  0
 22 47  1  0
 23 48  1  0
 25 49  1  0
M  END
>  <smiles>  (121) 
[H]c1nc(-n2c([H])c([H])c(-c3nc(C([H])([H])[H])c([C@@]([H])(N([H])C(=O)C([H])(C([H])([H])[H])C([H])([H])[H])C([H])([H])[H])s3)c2[H])c(N([H])[H])c([H])c1[H]

>  <error>  (121) 


>  <∆∆G>  (121) 
-28.304338

>  <∆G_bound>  (121) 
158.194709

>  <∆G_unbound>  (121) 
186.499048

>  <comRMSD>  (121) 
0.908713

>  <N_constrained_atoms>  (121) 
26.0

>  <N_unconstrained_atoms>  (121) 
0.0

>  <runtime>  (121) 
2.810372

>  <regarded>  (121) 
['d0264a', 'd0472a']

>  <disregarded>  (121) 
[]

>  <LE>  (121) 
1.088628

>  <outcome>  (121) 
acceptable

>  <percent_hybrid>  (121) 
47.0

$$$$

     RDKit          2D

  0  0  0  0  0  0  0  0  0  0999 V2000
M  END
>  <smiles>  (122) 
nan

>  <error>  (122) 
TimeoutError

>  <∆∆G>  (122) 
nan

>  <∆G_bound>  (122) 
nan

>  <∆G_unbound>  (122) 
nan

>  <comRMSD>  (122) 
nan

>  <N_constrained_atoms>  (122) 
nan

>  <N_unconstrained_atoms>  (122) 
nan

>  <runtime>  (122) 
nan

>  <regarded>  (122) 
[]

>  <disregarded>  (122) 
[]

>  <LE>  (122) 
nan

>  <outcome>  (122) 
timeout

>  <percent_hybrid>  (122) 
nan

$$$$
LIG
     RDKit          3D

  0  0  0  0  0  0  0  0  0  0999 V3000
M  V30 BEGIN CTAB
M  V30 COUNTS 60 62 0 0 0
M  V30 BEGIN ATOM
M  V30 1 O -23.164000 -45.938000 -18.049000 0
M  V30 2 C -22.246000 -46.016998 -17.236000 0
M  V30 3 C -22.204000 -47.136002 -16.188999 0
M  V30 4 C -23.259001 -46.889000 -15.112000 0
M  V30 5 C -22.391001 -48.480999 -16.875999 0
M  V30 6 N -21.222000 -45.154999 -17.212000 0
M  V30 7 C -21.018999 -44.181000 -18.270000 0 CFG=1
M  V30 8 C -20.471001 -42.877998 -17.697001 0
M  V30 9 C -20.379999 -43.105999 -21.250999 0
M  V30 10 C -17.607000 -47.167999 -21.084000 0
M  V30 11 C -20.124001 -44.757999 -19.327999 0
M  V30 12 S -19.247999 -46.223999 -19.002001 0
M  V30 13 C -18.566000 -46.140999 -20.593000 0
M  V30 14 C -18.959000 -45.118000 -21.297001 0
M  V30 15 C -19.841000 -44.330002 -20.590000 0
M  V30 16 F -18.671000 -43.808998 -24.667000 0
M  V30 17 N -14.914000 -40.875000 -24.797001 0
M  V30 18 C -15.278000 -40.210999 -26.035999 0
M  V30 19 C -18.740000 -36.407001 -24.548000 0
M  V30 20 C -17.525000 -43.327000 -24.115999 0
M  V30 21 C -16.809000 -42.383999 -24.802999 0
M  V30 22 C -15.659000 -41.882999 -24.202999 0
M  V30 23 C -15.299000 -42.398998 -22.957001 0
M  V30 24 N -16.009001 -43.330002 -22.305000 0
M  V30 25 C -17.125000 -43.785000 -22.886000 0
M  V30 26 C -17.368999 -38.930000 -26.771000 0
M  V30 27 N -18.275000 -37.955002 -26.407000 0
M  V30 28 C -17.968000 -37.487000 -25.233000 0
M  V30 29 S -16.566000 -38.206001 -24.499001 0
M  V30 30 C -16.382999 -39.214001 -25.896000 0
M  V30 31 C -18.042000 -44.451500 -22.091499 0
M  V30 32 H -21.224400 -47.145100 -15.688701 0
M  V30 33 H -22.800341 -46.996384 -14.117969 0
M  V30 34 H -23.663401 -45.871887 -15.221285 0
M  V30 35 H -24.072884 -47.620884 -15.221285 0
M  V30 36 H -22.500528 -49.268772 -16.116119 0
M  V30 37 H -23.293409 -48.449520 -17.504227 0
M  V30 38 H -21.514233 -48.696888 -17.504227 0
M  V30 39 H -20.560917 -45.183292 -16.422653 0
M  V30 40 H -21.983677 -43.943588 -18.742264 0
M  V30 41 H -20.490307 -42.923904 -16.598129 0
M  V30 42 H -19.435837 -42.733383 -18.039818 0
M  V30 43 H -21.091650 -42.037003 -18.039818 0
M  V30 44 H -20.697660 -42.384628 -20.483721 0
M  V30 45 H -19.597904 -42.653469 -21.878328 0
M  V30 46 H -21.241858 -43.377396 -21.878328 0
M  V30 47 H -17.137276 -47.671032 -20.225910 0
M  V30 48 H -18.143948 -47.908951 -21.694473 0
M  V30 49 H -16.831057 -46.682991 -21.694473 0
M  V30 50 H -14.045981 -40.578121 -24.328699 0
M  V30 51 H -14.389636 -39.689297 -26.421532 0
M  V30 52 H -15.642880 -40.993107 -26.718033 0
M  V30 53 H -18.652939 -36.528793 -23.458237 0
M  V30 54 H -18.337093 -35.426186 -24.840683 0
M  V30 55 H -19.798428 -36.470768 -24.840683 0
M  V30 56 H -17.132032 -42.034840 -25.794834 0
M  V30 57 H -14.381091 -42.020233 -22.483734 0
M  V30 58 H -17.447775 -39.453907 -27.735010 0
M  V30 59 H -16.962000 -43.371498 -21.011499 0
M  V30 60 H -16.952000 -43.361500 -21.001501 0
M  V30 END ATOM
M  V30 BEGIN BOND
M  V30 1 1 5 3
M  V30 2 1 4 3
M  V30 3 1 3 2
M  V30 4 2 2 1
M  V30 5 1 6 2
M  V30 6 1 7 6
M  V30 7 1 7 8
M  V30 8 1 11 7
M  V30 9 1 11 12
M  V30 10 2 11 15
M  V30 11 1 12 13
M  V30 12 1 13 10
M  V30 13 2 13 14
M  V30 14 1 14 15
M  V30 15 1 15 9
M  V30 16 1 18 17
M  V30 17 2 20 25
M  V30 18 1 20 16
M  V30 19 1 20 21
M  V30 20 2 21 22
M  V30 21 1 22 17
M  V30 22 1 22 23
M  V30 23 2 23 24
M  V30 24 1 24 25
M  V30 25 1 26 27
M  V30 26 2 26 30
M  V30 27 2 27 28
M  V30 28 1 28 19
M  V30 29 1 28 29
M  V30 30 1 29 30
M  V30 31 1 30 18
M  V30 32 1 31 14
M  V30 33 1 31 25
M  V30 34 1 3 32
M  V30 35 1 4 33
M  V30 36 1 4 34
M  V30 37 1 4 35
M  V30 38 1 5 36
M  V30 39 1 5 37
M  V30 40 1 5 38
M  V30 41 1 6 39
M  V30 42 1 7 40 CFG=3
M  V30 43 1 8 41
M  V30 44 1 8 42
M  V30 45 1 8 43
M  V30 46 1 9 44
M  V30 47 1 9 45
M  V30 48 1 9 46
M  V30 49 1 10 47
M  V30 50 1 10 48
M  V30 51 1 10 49
M  V30 52 1 17 50
M  V30 53 1 18 51
M  V30 54 1 18 52
M  V30 55 1 19 53
M  V30 56 1 19 54
M  V30 57 1 19 55
M  V30 58 1 21 56
M  V30 59 1 23 57
M  V30 60 1 26 58
M  V30 61 1 31 59
M  V30 62 1 31 60
M  V30 END BOND
M  V30 BEGIN COLLECTION
M  V30 MDLV30/STEABS ATOMS=(0)
M  V30 END COLLECTION
M  V30 END CTAB
M  END
>  <smiles>  (123) 
[H]c1nc(C([H])([H])[H])sc1C([H])([H])N([H])c1c([H])nc(C([H])([H])c2c(C([H])([H])[H])sc([C@@]([H])(N([H])C(=O)C([H])(C([H])([H])[H])C([H])([H])[H])C([H])([H])[H])c2C([H])([H])[H])c(F)c1[H]

>  <error>  (123) 


>  <∆∆G>  (123) 
nan

>  <∆G_bound>  (123) 
nan

>  <∆G_unbound>  (123) 
nan

>  <comRMSD>  (123) 
0.0

>  <N_constrained_atoms>  (123) 
30.0

>  <N_unconstrained_atoms>  (123) 
1.0

>  <runtime>  (123) 
2.217768

>  <regarded>  (123) 
['d0264a', 'd0615b']

>  <disregarded>  (123) 
[]

>  <LE>  (123) 
nan

>  <outcome>  (123) 
crashed

>  <percent_hybrid>  (123) 
50.0

$$$$
LIG
     RDKit          3D

  0  0  0  0  0  0  0  0  0  0999 V3000
M  V30 BEGIN CTAB
M  V30 COUNTS 70 71 0 0 0
M  V30 BEGIN ATOM
M  V30 1 O -23.164000 -45.938000 -18.049000 0
M  V30 2 C -22.246000 -46.016998 -17.236000 0
M  V30 3 C -22.204000 -47.136002 -16.188999 0
M  V30 4 C -23.259001 -46.889000 -15.112000 0
M  V30 5 C -22.391001 -48.480999 -16.875999 0
M  V30 6 N -21.222000 -45.154999 -17.212000 0
M  V30 7 C -21.018999 -44.181000 -18.270000 0 CFG=1
M  V30 8 C -20.471001 -42.877998 -17.697001 0
M  V30 9 C -20.379999 -43.105999 -21.250999 0
M  V30 10 C -17.607000 -47.167999 -21.084000 0
M  V30 11 C -20.124001 -44.757999 -19.327999 0
M  V30 12 S -19.247999 -46.223999 -19.002001 0
M  V30 13 C -18.566000 -46.140999 -20.593000 0
M  V30 14 N -18.959000 -45.118000 -21.297001 0
M  V30 15 C -19.841000 -44.330002 -20.590000 0
M  V30 16 N -19.445000 -40.158001 -24.528000 0
M  V30 17 S -18.933001 -39.846001 -25.825001 0 CFG=2
M  V30 18 O -18.877001 -38.480999 -26.240999 0
M  V30 19 C -19.827000 -40.765999 -27.018000 0
M  V30 20 C -16.511999 -41.500999 -27.914000 0
M  V30 21 C -15.906000 -38.516998 -25.243999 0
M  V30 22 O -16.229000 -38.262001 -26.598000 0
M  V30 23 N -17.393000 -40.395000 -25.853001 0
M  V30 24 C -17.198999 -41.683998 -26.573000 0 CFG=2
M  V30 25 C -16.566000 -42.779999 -25.714001 0
M  V30 26 C -15.991000 -42.259998 -24.402000 0
M  V30 27 C -15.366000 -40.882000 -24.551001 0
M  V30 28 C -16.459999 -39.863998 -24.820000 0 CFG=1
M  V30 29 N -20.146250 -42.368999 -22.070250 0
M  V30 30 C -19.912498 -41.632000 -22.889500 0
M  V30 31 C -19.678749 -40.895000 -23.708750 0
M  V30 32 H -21.224400 -47.145100 -15.688701 0
M  V30 33 H -22.800341 -46.996384 -14.117969 0
M  V30 34 H -23.663401 -45.871887 -15.221285 0
M  V30 35 H -24.072884 -47.620884 -15.221285 0
M  V30 36 H -22.500528 -49.268772 -16.116119 0
M  V30 37 H -23.293409 -48.449520 -17.504227 0
M  V30 38 H -21.514233 -48.696888 -17.504227 0
M  V30 39 H -20.560917 -45.183292 -16.422653 0
M  V30 40 H -21.983677 -43.943588 -18.742264 0
M  V30 41 H -20.490307 -42.923904 -16.598129 0
M  V30 42 H -19.435837 -42.733383 -18.039818 0
M  V30 43 H -21.091650 -42.037003 -18.039818 0
M  V30 44 H -21.373592 -43.458611 -21.564747 0
M  V30 45 H -19.931536 -42.453327 -20.487520 0
M  V30 46 H -17.137276 -47.671032 -20.225910 0
M  V30 47 H -18.143948 -47.908951 -21.694473 0
M  V30 48 H -16.831057 -46.682991 -21.694473 0
M  V30 49 H -20.506313 -41.465069 -26.508259 0
M  V30 50 H -20.412142 -40.079388 -27.647423 0
M  V30 51 H -19.123901 -41.331223 -27.647423 0
M  V30 52 H -15.460629 -41.220943 -27.752167 0
M  V30 53 H -16.557558 -42.442596 -28.480846 0
M  V30 54 H -17.019920 -40.706833 -28.480846 0
M  V30 55 H -14.812429 -38.519810 -25.125275 0
M  V30 56 H -16.349152 -37.731411 -24.614344 0
M  V30 57 H -17.005259 -37.649174 -26.642309 0
M  V30 58 H -18.210634 -42.054550 -26.795010 0
M  V30 59 H -16.529486 -43.837841 -26.013391 0
M  V30 60 H -15.597886 -42.607105 -26.206812 0
M  V30 61 H -16.024343 -42.818214 -23.454750 0
M  V30 62 H -15.023324 -42.724831 -24.641865 0
M  V30 63 H -14.291663 -40.658054 -24.475843 0
M  V30 64 H -15.255508 -41.049068 -25.632610 0
M  V30 65 H -17.003857 -39.699589 -23.878094 0
M  V30 66 H -18.996250 -41.218998 -20.920250 0
M  V30 67 H -18.752499 -40.472000 -21.729500 0
M  V30 68 H -18.742500 -40.462002 -21.719500 0
M  V30 69 H -18.498749 -39.715000 -22.528749 0
M  V30 70 H -18.488750 -39.705002 -22.518749 0
M  V30 END ATOM
M  V30 BEGIN BOND
M  V30 1 1 5 3
M  V30 2 1 4 3
M  V30 3 1 3 2
M  V30 4 2 2 1
M  V30 5 1 6 2
M  V30 6 1 7 6
M  V30 7 1 7 8
M  V30 8 1 11 7
M  V30 9 1 11 12
M  V30 10 2 11 15
M  V30 11 1 12 13
M  V30 12 1 13 10
M  V30 13 2 13 14
M  V30 14 1 14 15
M  V30 15 1 15 9
M  V30 16 1 22 21
M  V30 17 1 17 19 CFG=3
M  V30 18 2 18 17
M  V30 19 2 17 16
M  V30 20 1 23 28
M  V30 21 1 23 17
M  V30 22 1 23 24
M  V30 23 1 24 20
M  V30 24 1 24 25
M  V30 25 1 25 26
M  V30 26 1 26 27
M  V30 27 1 27 28
M  V30 28 1 28 21
M  V30 29 1 29 9
M  V30 30 1 30 29
M  V30 31 1 31 30
M  V30 32 1 31 16
M  V30 33 1 3 32
M  V30 34 1 4 33
M  V30 35 1 4 34
M  V30 36 1 4 35
M  V30 37 1 5 36
M  V30 38 1 5 37
M  V30 39 1 5 38
M  V30 40 1 6 39
M  V30 41 1 7 40 CFG=3
M  V30 42 1 8 41
M  V30 43 1 8 42
M  V30 44 1 8 43
M  V30 45 1 9 44
M  V30 46 1 9 45
M  V30 47 1 10 46
M  V30 48 1 10 47
M  V30 49 1 10 48
M  V30 50 1 19 49
M  V30 51 1 19 50
M  V30 52 1 19 51
M  V30 53 1 20 52
M  V30 54 1 20 53
M  V30 55 1 20 54
M  V30 56 1 21 55
M  V30 57 1 21 56
M  V30 58 1 22 57
M  V30 59 1 24 58 CFG=3
M  V30 60 1 25 59
M  V30 61 1 25 60
M  V30 62 1 26 61
M  V30 63 1 26 62
M  V30 64 1 27 63
M  V30 65 1 27 64
M  V30 66 1 28 65 CFG=1
M  V30 67 1 29 66
M  V30 68 1 30 67
M  V30 69 1 30 68
M  V30 70 1 31 69
M  V30 71 1 31 70
M  V30 END BOND
M  V30 BEGIN COLLECTION
M  V30 MDLV30/STEABS ATOMS=(0)
M  V30 END COLLECTION
M  V30 END CTAB
M  END
>  <smiles>  (124) 
[H]OC([H])([H])[C@@]1([H])N([S@](=O)(=NC([H])([H])C([H])([H])N([H])C([H])([H])c2nc(C([H])([H])[H])sc2[C@@]([H])(N([H])C(=O)C([H])(C([H])([H])[H])C([H])([H])[H])C([H])([H])[H])C([H])([H])[H])[C@@]([H])(C([H])([H])[H])C([H])([H])C([H])([H])C1([H])[H]

>  <error>  (124) 


>  <∆∆G>  (124) 
nan

>  <∆G_bound>  (124) 
nan

>  <∆G_unbound>  (124) 
nan

>  <comRMSD>  (124) 
0.0

>  <N_constrained_atoms>  (124) 
28.0

>  <N_unconstrained_atoms>  (124) 
3.0

>  <runtime>  (124) 
2.439888

>  <regarded>  (124) 
['d0264a', 'd0851a']

>  <disregarded>  (124) 
[]

>  <LE>  (124) 
nan

>  <outcome>  (124) 
crashed

>  <percent_hybrid>  (124) 
47.0

$$$$

     RDKit          2D

  0  0  0  0  0  0  0  0  0  0999 V2000
M  END
>  <smiles>  (125) 
nan

>  <error>  (125) 
TimeoutError

>  <∆∆G>  (125) 
nan

>  <∆G_bound>  (125) 
nan

>  <∆G_unbound>  (125) 
nan

>  <comRMSD>  (125) 
nan

>  <N_constrained_atoms>  (125) 
nan

>  <N_unconstrained_atoms>  (125) 
nan

>  <runtime>  (125) 
nan

>  <regarded>  (125) 
[]

>  <disregarded>  (125) 
[]

>  <LE>  (125) 
nan

>  <outcome>  (125) 
timeout

>  <percent_hybrid>  (125) 
nan

$$$$

     RDKit          2D

  0  0  0  0  0  0  0  0  0  0999 V2000
M  END
>  <smiles>  (126) 
nan

>  <error>  (126) 
DistanceError 9.62 Å

>  <∆∆G>  (126) 
nan

>  <∆G_bound>  (126) 
nan

>  <∆G_unbound>  (126) 
nan

>  <comRMSD>  (126) 
nan

>  <N_constrained_atoms>  (126) 
nan

>  <N_unconstrained_atoms>  (126) 
nan

>  <runtime>  (126) 
nan

>  <regarded>  (126) 
[]

>  <disregarded>  (126) 
[]

>  <LE>  (126) 
nan

>  <outcome>  (126) 
too distant

>  <percent_hybrid>  (126) 
nan

$$$$

     RDKit          2D

  0  0  0  0  0  0  0  0  0  0999 V2000
M  END
>  <smiles>  (127) 
nan

>  <error>  (127) 
DistanceError 5.05 Å

>  <∆∆G>  (127) 
nan

>  <∆G_bound>  (127) 
nan

>  <∆G_unbound>  (127) 
nan

>  <comRMSD>  (127) 
nan

>  <N_constrained_atoms>  (127) 
nan

>  <N_unconstrained_atoms>  (127) 
nan

>  <runtime>  (127) 
nan

>  <regarded>  (127) 
[]

>  <disregarded>  (127) 
[]

>  <LE>  (127) 
nan

>  <outcome>  (127) 
too distant

>  <percent_hybrid>  (127) 
nan

$$$$

     RDKit          2D

  0  0  0  0  0  0  0  0  0  0999 V2000
M  END
>  <smiles>  (128) 
nan

>  <error>  (128) 
DistanceError 6.66 Å

>  <∆∆G>  (128) 
nan

>  <∆G_bound>  (128) 
nan

>  <∆G_unbound>  (128) 
nan

>  <comRMSD>  (128) 
nan

>  <N_constrained_atoms>  (128) 
nan

>  <N_unconstrained_atoms>  (128) 
nan

>  <runtime>  (128) 
nan

>  <regarded>  (128) 
[]

>  <disregarded>  (128) 
[]

>  <LE>  (128) 
nan

>  <outcome>  (128) 
too distant

>  <percent_hybrid>  (128) 
nan

$$$$

     RDKit          2D

  0  0  0  0  0  0  0  0  0  0999 V2000
M  END
>  <smiles>  (129) 
nan

>  <error>  (129) 
TimeoutError

>  <∆∆G>  (129) 
nan

>  <∆G_bound>  (129) 
nan

>  <∆G_unbound>  (129) 
nan

>  <comRMSD>  (129) 
nan

>  <N_constrained_atoms>  (129) 
nan

>  <N_unconstrained_atoms>  (129) 
nan

>  <runtime>  (129) 
nan

>  <regarded>  (129) 
[]

>  <disregarded>  (129) 
[]

>  <LE>  (129) 
nan

>  <outcome>  (129) 
timeout

>  <percent_hybrid>  (129) 
nan

$$$$

     RDKit          2D

  0  0  0  0  0  0  0  0  0  0999 V2000
M  END
>  <smiles>  (130) 
nan

>  <error>  (130) 
RecursionError maximum recursion depth exceeded while calling a Python object

>  <∆∆G>  (130) 
nan

>  <∆G_bound>  (130) 
nan

>  <∆G_unbound>  (130) 
nan

>  <comRMSD>  (130) 
nan

>  <N_constrained_atoms>  (130) 
nan

>  <N_unconstrained_atoms>  (130) 
nan

>  <runtime>  (130) 
nan

>  <regarded>  (130) 
[]

>  <disregarded>  (130) 
[]

>  <LE>  (130) 
nan

>  <outcome>  (130) 
crashed

>  <percent_hybrid>  (130) 
nan

$$$$

     RDKit          2D

  0  0  0  0  0  0  0  0  0  0999 V2000
M  END
>  <smiles>  (131) 
nan

>  <error>  (131) 
DistanceError 5.08 Å

>  <∆∆G>  (131) 
nan

>  <∆G_bound>  (131) 
nan

>  <∆G_unbound>  (131) 
nan

>  <comRMSD>  (131) 
nan

>  <N_constrained_atoms>  (131) 
nan

>  <N_unconstrained_atoms>  (131) 
nan

>  <runtime>  (131) 
nan

>  <regarded>  (131) 
[]

>  <disregarded>  (131) 
[]

>  <LE>  (131) 
nan

>  <outcome>  (131) 
too distant

>  <percent_hybrid>  (131) 
nan

$$$$

     RDKit          2D

  0  0  0  0  0  0  0  0  0  0999 V2000
M  END
>  <smiles>  (132) 
nan

>  <error>  (132) 
TimeoutError

>  <∆∆G>  (132) 
nan

>  <∆G_bound>  (132) 
nan

>  <∆G_unbound>  (132) 
nan

>  <comRMSD>  (132) 
nan

>  <N_constrained_atoms>  (132) 
nan

>  <N_unconstrained_atoms>  (132) 
nan

>  <runtime>  (132) 
nan

>  <regarded>  (132) 
[]

>  <disregarded>  (132) 
[]

>  <LE>  (132) 
nan

>  <outcome>  (132) 
timeout

>  <percent_hybrid>  (132) 
nan

$$$$
LIG
     RDKit          3D

 64 66  0  0  0  0  0  0  0  0999 V2000
  -23.8496  -44.8913  -16.8021 O   0  0  0  0  0  0  0  0  0  0  0  0
  -22.8107  -45.4194  -16.7463 C   0  0  0  0  0  0  0  0  0  0  0  0
  -22.5692  -46.7273  -15.9780 C   0  0  0  0  0  0  0  0  0  0  0  0
  -23.6725  -46.9430  -14.9548 C   0  0  0  0  0  0  0  0  0  0  0  0
  -22.5093  -47.9204  -16.9274 C   0  0  0  0  0  0  0  0  0  0  0  0
  -21.4573  -45.0448  -17.4028 N   0  0  0  0  0  0  0  0  0  0  0  0
  -21.0802  -43.8832  -18.1908 C   0  0  1  0  0  0  0  0  0  0  0  0
  -21.4271  -42.6141  -17.4084 C   0  0  0  0  0  0  0  0  0  0  0  0
  -20.0505  -42.0753  -20.4385 C   0  0  0  0  0  0  0  0  0  0  0  0
  -14.7920  -39.2016  -22.4301 O   0  0  0  0  0  0  0  0  0  0  0  0
  -16.5303  -40.3798  -21.6910 O   0  0  0  0  0  0  0  0  0  0  0  0
  -15.3186  -40.2713  -21.7927 C   0  0  0  0  0  0  0  0  0  0  0  0
  -14.2449  -41.2177  -21.3065 C   0  0  0  0  0  0  0  0  0  0  0  0
  -15.9299  -45.7993  -18.4401 O   0  0  0  0  0  0  0  0  0  0  0  0
  -19.5806  -43.8357  -18.5788 C   0  0  1  0  0  0  0  0  0  0  0  0
  -18.7905  -45.4926  -18.6327 S   0  0  0  0  0  0  0  0  0  0  0  0
  -18.5904  -45.4977  -20.4707 C   0  0  2  0  0  0  0  0  0  0  0  0
  -19.4796  -44.4104  -20.9053 N   0  0  0  0  0  0  0  0  0  0  0  0
  -19.2722  -43.2934  -19.9804 C   0  0  1  0  0  0  0  0  0  0  0  0
  -15.6298  -44.6754  -19.1626 C   0  0  0  0  0  0  0  0  0  0  0  0
  -14.7596  -43.7827  -18.5467 C   0  0  0  0  0  0  0  0  0  0  0  0
  -14.3225  -42.6553  -19.2310 C   0  0  0  0  0  0  0  0  0  0  0  0
  -14.7590  -42.4141  -20.5353 C   0  0  0  0  0  0  0  0  0  0  0  0
  -15.6554  -43.3168  -21.1329 C   0  0  0  0  0  0  0  0  0  0  0  0
  -16.1421  -44.4446  -20.4509 C   0  0  0  0  0  0  0  0  0  0  0  0
  -19.0872  -46.8902  -20.8866 C   0  0  0  0  0  0  0  0  0  0  0  0
  -17.1405  -45.3993  -21.0891 C   0  0  2  0  0  0  0  0  0  0  0  0
  -17.2999  -45.2839  -22.6423 C   0  0  0  0  0  0  0  0  0  0  0  0
  -18.4794  -46.1145  -23.1852 C   0  0  0  0  0  0  0  0  0  0  0  0
  -18.7429  -47.3107  -22.3042 C   0  0  0  0  0  0  0  0  0  0  0  0
  -21.6175  -46.6392  -15.4413 H   0  0  0  0  0  0  0  0  0  0  0  0
  -23.5472  -47.9050  -14.4531 H   0  0  0  0  0  0  0  0  0  0  0  0
  -23.6570  -46.1469  -14.2029 H   0  0  0  0  0  0  0  0  0  0  0  0
  -24.6664  -46.9396  -15.4165 H   0  0  0  0  0  0  0  0  0  0  0  0
  -22.0092  -48.7687  -16.4522 H   0  0  0  0  0  0  0  0  0  0  0  0
  -23.5153  -48.2518  -17.2025 H   0  0  0  0  0  0  0  0  0  0  0  0
  -21.9789  -47.6764  -17.8504 H   0  0  0  0  0  0  0  0  0  0  0  0
  -20.7353  -45.6786  -17.0765 H   0  0  0  0  0  0  0  0  0  0  0  0
  -21.7170  -43.9316  -19.0806 H   0  0  0  0  0  0  0  0  0  0  0  0
  -22.5035  -42.5564  -17.2145 H   0  0  0  0  0  0  0  0  0  0  0  0
  -20.9222  -42.5977  -16.4357 H   0  0  0  0  0  0  0  0  0  0  0  0
  -21.1475  -41.7056  -17.9476 H   0  0  0  0  0  0  0  0  0  0  0  0
  -19.7553  -41.1993  -19.8500 H   0  0  0  0  0  0  0  0  0  0  0  0
  -19.8476  -41.8396  -21.4892 H   0  0  0  0  0  0  0  0  0  0  0  0
  -21.1205  -42.1992  -20.3151 H   0  0  0  0  0  0  0  0  0  0  0  0
  -15.5755  -38.6910  -22.7235 H   0  0  0  0  0  0  0  0  0  0  0  0
  -13.6875  -41.5830  -22.1753 H   0  0  0  0  0  0  0  0  0  0  0  0
  -13.5565  -40.6396  -20.6792 H   0  0  0  0  0  0  0  0  0  0  0  0
  -16.8589  -46.0201  -18.6309 H   0  0  0  0  0  0  0  0  0  0  0  0
  -19.0205  -43.2536  -17.8374 H   0  0  0  0  0  0  0  0  0  0  0  0
  -19.2678  -44.0934  -21.8446 H   0  0  0  0  0  0  0  0  0  0  0  0
  -18.2259  -42.9741  -20.0088 H   0  0  0  0  0  0  0  0  0  0  0  0
  -14.4121  -43.9608  -17.5335 H   0  0  0  0  0  0  0  0  0  0  0  0
  -13.6215  -41.9804  -18.7446 H   0  0  0  0  0  0  0  0  0  0  0  0
  -15.9685  -43.1015  -22.1505 H   0  0  0  0  0  0  0  0  0  0  0  0
  -20.1449  -47.0057  -20.6735 H   0  0  0  0  0  0  0  0  0  0  0  0
  -18.5775  -47.6222  -20.2644 H   0  0  0  0  0  0  0  0  0  0  0  0
  -16.6559  -46.3788  -20.9391 H   0  0  0  0  0  0  0  0  0  0  0  0
  -17.4621  -44.2513  -22.9693 H   0  0  0  0  0  0  0  0  0  0  0  0
  -16.3557  -45.5934  -23.0967 H   0  0  0  0  0  0  0  0  0  0  0  0
  -19.3642  -45.4780  -23.2604 H   0  0  0  0  0  0  0  0  0  0  0  0
  -18.3480  -46.4536  -24.2064 H   0  0  0  0  0  0  0  0  0  0  0  0
  -17.8468  -47.9340  -22.2441 H   0  0  0  0  0  0  0  0  0  0  0  0
  -19.4955  -47.9770  -22.7245 H   0  0  0  0  0  0  0  0  0  0  0  0
  5  3  1  0
  4  3  1  0
  3  2  1  0
  2  1  2  0
  6  2  1  0
  7  6  1  0
  7  8  1  0
 13 12  1  0
 11 12  2  0
 12 10  1  0
 15  7  1  0
 15 16  1  0
 15 19  1  0
 17 16  1  1
 17 18  1  0
 18 19  1  0
 19  9  1  0
 20 14  1  0
 20 25  2  0
 20 21  1  0
 21 22  2  0
 22 23  1  0
 23 24  2  0
 23 13  1  0
 24 25  1  0
 25 27  1  0
 26 30  1  0
 27 28  1  0
 28 29  1  0
 29 30  1  0
 17 26  1  0
 17 27  1  0
  3 31  1  0
  4 32  1  0
  4 33  1  0
  4 34  1  0
  5 35  1  0
  5 36  1  0
  5 37  1  0
  6 38  1  0
  7 39  1  6
  8 40  1  0
  8 41  1  0
  8 42  1  0
  9 43  1  0
  9 44  1  0
  9 45  1  0
 10 46  1  0
 13 47  1  0
 13 48  1  0
 14 49  1  0
 15 50  1  1
 18 51  1  0
 19 52  1  1
 21 53  1  0
 22 54  1  0
 24 55  1  0
 26 56  1  0
 26 57  1  0
 27 58  1  6
 28 59  1  0
 28 60  1  0
 29 61  1  0
 29 62  1  0
 30 63  1  0
 30 64  1  0
M  END
>  <smiles>  (133) 
[H]OC(=O)C([H])([H])c1c([H])c([H])c(O[H])c([C@]2([H])C([H])([H])C([H])([H])C([H])([H])C([H])([H])[C@@]23S[C@]([H])([C@@]([H])(N([H])C(=O)C([H])(C([H])([H])[H])C([H])([H])[H])C([H])([H])[H])[C@]([H])(C([H])([H])[H])N3[H])c1[H]

>  <error>  (133) 


>  <∆∆G>  (133) 
-50.413262

>  <∆G_bound>  (133) 
208.440676

>  <∆G_unbound>  (133) 
258.853938

>  <comRMSD>  (133) 
1.082432

>  <N_constrained_atoms>  (133) 
30.0

>  <N_unconstrained_atoms>  (133) 
0.0

>  <runtime>  (133) 
33.796093

>  <regarded>  (133) 
['d0264a', '5hn0-a']

>  <disregarded>  (133) 
[]

>  <LE>  (133) 
1.680442

>  <outcome>  (133) 
too moved

>  <percent_hybrid>  (133) 
47.0

$$$$
LIG
     RDKit          3D

 62 64  0  0  0  0  0  0  0  0999 V2000
  -23.2645  -46.3957  -18.3357 O   0  0  0  0  0  0  0  0  0  0  0  0
  -22.4832  -46.2079  -17.4916 C   0  0  0  0  0  0  0  0  0  0  0  0
  -22.3611  -47.1044  -16.2604 C   0  0  0  0  0  0  0  0  0  0  0  0
  -23.1410  -46.4754  -15.1115 C   0  0  0  0  0  0  0  0  0  0  0  0
  -22.8992  -48.4946  -16.5751 C   0  0  0  0  0  0  0  0  0  0  0  0
  -21.4490  -45.0718  -17.3187 N   0  0  0  0  0  0  0  0  0  0  0  0
  -21.0946  -43.9730  -18.2059 C   0  0  1  0  0  0  0  0  0  0  0  0
  -21.5777  -42.6915  -17.5247 C   0  0  0  0  0  0  0  0  0  0  0  0
  -19.9888  -42.0063  -20.3131 C   0  0  0  0  0  0  0  0  0  0  0  0
  -14.5318  -43.3975  -17.1762 C   0  0  0  0  0  0  0  0  0  0  0  0
  -15.2885  -41.8509  -15.4656 O   0  0  0  0  0  0  0  0  0  0  0  0
  -15.6994  -43.3625  -22.7470 O   0  0  0  0  0  0  0  0  0  0  0  0
  -15.5480  -42.6561  -16.3464 C   0  0  0  0  0  0  0  0  0  0  0  0
  -16.8188  -43.0286  -16.5866 O   0  0  0  0  0  0  0  0  0  0  0  0
  -14.5711  -43.2854  -23.6169 C   0  0  0  0  0  0  0  0  0  0  0  0
  -19.5810  -43.8750  -18.5276 C   0  0  1  0  0  0  0  0  0  0  0  0
  -18.7388  -45.5078  -18.6594 S   0  0  0  0  0  0  0  0  0  0  0  0
  -18.4875  -45.3719  -20.4556 C   0  0  2  0  0  0  0  0  0  0  0  0
  -19.2912  -44.2356  -20.8961 N   0  0  0  0  0  0  0  0  0  0  0  0
  -19.1908  -43.2134  -19.8628 C   0  0  1  0  0  0  0  0  0  0  0  0
  -14.8001  -43.4256  -18.6618 C   0  0  0  0  0  0  0  0  0  0  0  0
  -14.2093  -42.4886  -19.5043 C   0  0  0  0  0  0  0  0  0  0  0  0
  -14.4910  -42.4951  -20.8696 C   0  0  0  0  0  0  0  0  0  0  0  0
  -15.3884  -43.4204  -21.4162 C   0  0  0  0  0  0  0  0  0  0  0  0
  -16.0323  -44.3571  -20.5897 C   0  0  0  0  0  0  0  0  0  0  0  0
  -15.6650  -44.3728  -19.2239 C   0  0  0  0  0  0  0  0  0  0  0  0
  -19.0987  -46.8657  -21.2361 S   0  0  0  0  0  0  0  0  0  0  0  0
  -18.4650  -46.4350  -22.8526 C   0  0  0  0  0  0  0  0  0  0  0  0
  -17.2848  -45.5183  -22.5746 C   0  0  0  0  0  0  0  0  0  0  0  0
  -17.0407  -45.4086  -21.0509 C   0  0  2  0  0  0  0  0  0  0  0  0
  -21.3049  -47.2034  -15.9874 H   0  0  0  0  0  0  0  0  0  0  0  0
  -23.1039  -47.1089  -14.2244 H   0  0  0  0  0  0  0  0  0  0  0  0
  -22.7318  -45.4964  -14.8406 H   0  0  0  0  0  0  0  0  0  0  0  0
  -24.1936  -46.3277  -15.3786 H   0  0  0  0  0  0  0  0  0  0  0  0
  -22.8577  -49.1322  -15.6912 H   0  0  0  0  0  0  0  0  0  0  0  0
  -23.9419  -48.4566  -16.9034 H   0  0  0  0  0  0  0  0  0  0  0  0
  -22.3205  -48.9705  -17.3720 H   0  0  0  0  0  0  0  0  0  0  0  0
  -20.9819  -45.1717  -16.4222 H   0  0  0  0  0  0  0  0  0  0  0  0
  -21.6676  -44.1303  -19.1267 H   0  0  0  0  0  0  0  0  0  0  0  0
  -21.0642  -42.5340  -16.5688 H   0  0  0  0  0  0  0  0  0  0  0  0
  -21.4302  -41.7995  -18.1337 H   0  0  0  0  0  0  0  0  0  0  0  0
  -22.6499  -42.7574  -17.3045 H   0  0  0  0  0  0  0  0  0  0  0  0
  -19.8400  -41.1723  -19.6192 H   0  0  0  0  0  0  0  0  0  0  0  0
  -19.6651  -41.6586  -21.3011 H   0  0  0  0  0  0  0  0  0  0  0  0
  -21.0520  -42.2185  -20.3654 H   0  0  0  0  0  0  0  0  0  0  0  0
  -13.5473  -42.9506  -16.9912 H   0  0  0  0  0  0  0  0  0  0  0  0
  -14.4856  -44.4170  -16.7796 H   0  0  0  0  0  0  0  0  0  0  0  0
  -17.3397  -42.6858  -15.8253 H   0  0  0  0  0  0  0  0  0  0  0  0
  -14.2523  -42.2453  -23.7262 H   0  0  0  0  0  0  0  0  0  0  0  0
  -13.7469  -43.9231  -23.2791 H   0  0  0  0  0  0  0  0  0  0  0  0
  -14.8913  -43.6381  -24.6009 H   0  0  0  0  0  0  0  0  0  0  0  0
  -19.0853  -43.3314  -17.7186 H   0  0  0  0  0  0  0  0  0  0  0  0
  -18.9467  -43.8673  -21.7752 H   0  0  0  0  0  0  0  0  0  0  0  0
  -18.1531  -42.8647  -19.7873 H   0  0  0  0  0  0  0  0  0  0  0  0
  -13.5208  -41.7427  -19.1120 H   0  0  0  0  0  0  0  0  0  0  0  0
  -14.0181  -41.7448  -21.4965 H   0  0  0  0  0  0  0  0  0  0  0  0
  -16.0688  -45.1349  -18.5633 H   0  0  0  0  0  0  0  0  0  0  0  0
  -18.2352  -47.3381  -23.4064 H   0  0  0  0  0  0  0  0  0  0  0  0
  -19.2096  -45.8921  -23.4411 H   0  0  0  0  0  0  0  0  0  0  0  0
  -16.3721  -45.8468  -23.0637 H   0  0  0  0  0  0  0  0  0  0  0  0
  -17.5369  -44.5567  -23.0329 H   0  0  0  0  0  0  0  0  0  0  0  0
  -16.5555  -46.3563  -20.7540 H   0  0  0  0  0  0  0  0  0  0  0  0
  5  3  1  0
  4  3  1  0
  3  2  1  0
  2  1  2  0
  6  2  1  0
  7  6  1  0
  7  8  1  0
 12 15  1  0
 10 13  1  0
 11 13  2  0
 13 14  1  0
 16  7  1  0
 16 17  1  0
 16 20  1  0
 18 17  1  1
 18 19  1  0
 19 20  1  0
 20  9  1  0
 21 26  2  0
 21 10  1  0
 21 22  1  0
 22 23  2  0
 23 24  1  0
 24 25  2  0
 24 12  1  0
 25 30  1  0
 25 26  1  0
 27 28  1  0
 28 29  1  0
 29 30  1  0
 18 27  1  0
 18 30  1  0
  3 31  1  0
  4 32  1  0
  4 33  1  0
  4 34  1  0
  5 35  1  0
  5 36  1  0
  5 37  1  0
  6 38  1  0
  7 39  1  6
  8 40  1  0
  8 41  1  0
  8 42  1  0
  9 43  1  0
  9 44  1  0
  9 45  1  0
 10 46  1  0
 10 47  1  0
 14 48  1  0
 15 49  1  0
 15 50  1  0
 15 51  1  0
 16 52  1  1
 19 53  1  0
 20 54  1  1
 22 55  1  0
 23 56  1  0
 26 57  1  0
 28 58  1  0
 28 59  1  0
 29 60  1  0
 29 61  1  0
 30 62  1  1
M  END
>  <smiles>  (134) 
[H]OC(=O)C([H])([H])c1c([H])c([H])c(OC([H])([H])[H])c([C@]2([H])C([H])([H])C([H])([H])S[C@@]23S[C@]([H])([C@@]([H])(N([H])C(=O)C([H])(C([H])([H])[H])C([H])([H])[H])C([H])([H])[H])[C@]([H])(C([H])([H])[H])N3[H])c1[H]

>  <error>  (134) 


>  <∆∆G>  (134) 
-65.85831

>  <∆G_bound>  (134) 
71.026628

>  <∆G_unbound>  (134) 
136.884938

>  <comRMSD>  (134) 
0.974796

>  <N_constrained_atoms>  (134) 
30.0

>  <N_unconstrained_atoms>  (134) 
0.0

>  <runtime>  (134) 
62.876261

>  <regarded>  (134) 
['d0264a', '5f41-a']

>  <disregarded>  (134) 
[]

>  <LE>  (134) 
2.195277

>  <outcome>  (134) 
acceptable

>  <percent_hybrid>  (134) 
47.0

$$$$
LIG
     RDKit          3D

 62 64  0  0  0  0  0  0  0  0999 V2000
  -23.2033  -46.2517  -18.3858 O   0  0  0  0  0  0  0  0  0  0  0  0
  -22.5280  -45.8089  -17.5036 C   0  0  0  0  0  0  0  0  0  0  0  0
  -22.4573  -46.5497  -16.1536 C   0  0  0  0  0  0  0  0  0  0  0  0
  -23.2525  -45.8019  -15.0875 C   0  0  0  0  0  0  0  0  0  0  0  0
  -22.9815  -47.9803  -16.2978 C   0  0  0  0  0  0  0  0  0  0  0  0
  -21.6893  -44.6453  -17.4595 N   0  0  0  0  0  0  0  0  0  0  0  0
  -21.3169  -43.6833  -18.5092 C   0  0  1  0  0  0  0  0  0  0  0  0
  -22.2068  -42.4566  -18.3209 C   0  0  0  0  0  0  0  0  0  0  0  0
  -19.7355  -41.6381  -20.3916 C   0  0  0  0  0  0  0  0  0  0  0  0
  -13.5276  -42.7687  -17.0483 C   0  0  0  0  0  0  0  0  0  0  0  0
  -15.9694  -43.8796  -22.0696 O   0  0  0  0  0  0  0  0  0  0  0  0
  -15.0032  -40.8408  -16.9216 O   0  0  0  0  0  0  0  0  0  0  0  0
  -13.0898  -40.7941  -15.7435 O   0  0  0  0  0  0  0  0  0  0  0  0
  -13.8280  -41.3789  -16.5259 C   0  0  0  0  0  0  0  0  0  0  0  0
  -15.1546  -43.7919  -23.2407 C   0  0  0  0  0  0  0  0  0  0  0  0
  -19.8077  -43.3265  -18.4215 C   0  0  1  0  0  0  0  0  0  0  0  0
  -18.8466  -44.8462  -18.1304 S   0  0  0  0  0  0  0  0  0  0  0  0
  -18.2990  -45.0277  -19.8543 C   0  0  2  0  0  0  0  0  0  0  0  0
  -18.6835  -43.8110  -20.5754 N   0  0  0  0  0  0  0  0  0  0  0  0
  -19.0337  -42.7478  -19.6277 C   0  0  1  0  0  0  0  0  0  0  0  0
  -14.1317  -43.1044  -18.3921 C   0  0  0  0  0  0  0  0  0  0  0  0
  -13.6811  -42.4586  -19.5437 C   0  0  0  0  0  0  0  0  0  0  0  0
  -14.2751  -42.7223  -20.7773 C   0  0  0  0  0  0  0  0  0  0  0  0
  -15.3043  -43.6636  -20.8905 C   0  0  0  0  0  0  0  0  0  0  0  0
  -15.7419  -44.3663  -19.7545 C   0  0  0  0  0  0  0  0  0  0  0  0
  -15.1572  -44.0515  -18.5073 C   0  0  0  0  0  0  0  0  0  0  0  0
  -18.2227  -46.6713  -21.6838 C   0  0  0  0  0  0  0  0  0  0  0  0
  -19.0558  -46.1840  -20.5158 C   0  0  0  0  0  0  0  0  0  0  0  0
  -16.8013  -45.4552  -19.7779 C   0  0  2  0  0  0  0  0  0  0  0  0
  -16.5551  -46.7725  -20.9905 S   0  0  0  0  0  0  0  0  0  0  0  0
  -21.4050  -46.6095  -15.8488 H   0  0  0  0  0  0  0  0  0  0  0  0
  -23.1823  -46.3126  -14.1225 H   0  0  0  0  0  0  0  0  0  0  0  0
  -22.8823  -44.7812  -14.9481 H   0  0  0  0  0  0  0  0  0  0  0  0
  -24.3110  -45.7307  -15.3617 H   0  0  0  0  0  0  0  0  0  0  0  0
  -22.9399  -48.5121  -15.3444 H   0  0  0  0  0  0  0  0  0  0  0  0
  -24.0215  -47.9915  -16.6390 H   0  0  0  0  0  0  0  0  0  0  0  0
  -22.3878  -48.5417  -17.0272 H   0  0  0  0  0  0  0  0  0  0  0  0
  -21.3296  -44.5315  -16.5150 H   0  0  0  0  0  0  0  0  0  0  0  0
  -21.5483  -44.1500  -19.4735 H   0  0  0  0  0  0  0  0  0  0  0  0
  -22.0288  -41.9852  -17.3476 H   0  0  0  0  0  0  0  0  0  0  0  0
  -22.0520  -41.7021  -19.0924 H   0  0  0  0  0  0  0  0  0  0  0  0
  -23.2651  -42.7414  -18.3527 H   0  0  0  0  0  0  0  0  0  0  0  0
  -20.0152  -40.8202  -19.7201 H   0  0  0  0  0  0  0  0  0  0  0  0
  -19.0736  -41.2160  -21.1570 H   0  0  0  0  0  0  0  0  0  0  0  0
  -20.6298  -41.9998  -20.9026 H   0  0  0  0  0  0  0  0  0  0  0  0
  -12.4388  -42.8739  -17.1308 H   0  0  0  0  0  0  0  0  0  0  0  0
  -13.8666  -43.4831  -16.2891 H   0  0  0  0  0  0  0  0  0  0  0  0
  -15.5121  -41.3999  -17.5396 H   0  0  0  0  0  0  0  0  0  0  0  0
  -15.0065  -42.7463  -23.5279 H   0  0  0  0  0  0  0  0  0  0  0  0
  -14.1950  -44.3034  -23.1097 H   0  0  0  0  0  0  0  0  0  0  0  0
  -15.6935  -44.2827  -24.0551 H   0  0  0  0  0  0  0  0  0  0  0  0
  -19.6496  -42.6785  -17.5506 H   0  0  0  0  0  0  0  0  0  0  0  0
  -17.9229  -43.5221  -21.1976 H   0  0  0  0  0  0  0  0  0  0  0  0
  -18.0952  -42.3188  -19.2449 H   0  0  0  0  0  0  0  0  0  0  0  0
  -12.8667  -41.7363  -19.4949 H   0  0  0  0  0  0  0  0  0  0  0  0
  -13.9155  -42.1725  -21.6421 H   0  0  0  0  0  0  0  0  0  0  0  0
  -15.5044  -44.5626  -17.6097 H   0  0  0  0  0  0  0  0  0  0  0  0
  -18.5565  -47.6469  -22.0466 H   0  0  0  0  0  0  0  0  0  0  0  0
  -18.2317  -45.9630  -22.5178 H   0  0  0  0  0  0  0  0  0  0  0  0
  -20.0444  -45.8699  -20.8607 H   0  0  0  0  0  0  0  0  0  0  0  0
  -19.2304  -47.0064  -19.8189 H   0  0  0  0  0  0  0  0  0  0  0  0
  -16.6472  -46.0374  -18.8581 H   0  0  0  0  0  0  0  0  0  0  0  0
  5  3  1  0
  4  3  1  0
  3  2  1  0
  2  1  2  0
  6  2  1  0
  7  6  1  0
  7  8  1  0
 11 15  1  0
 13 14  2  0
 10 14  1  0
 14 12  1  0
 16  7  1  0
 16 17  1  0
 16 20  1  0
 18 17  1  1
 18 19  1  0
 19 20  1  0
 20  9  1  0
 21 26  2  0
 21 10  1  0
 21 22  1  0
 22 23  2  0
 23 24  1  0
 24 25  2  0
 24 11  1  0
 25 29  1  0
 25 26  1  0
 27 28  1  0
 27 30  1  0
 29 30  1  0
 18 28  1  0
 18 29  1  0
  3 31  1  0
  4 32  1  0
  4 33  1  0
  4 34  1  0
  5 35  1  0
  5 36  1  0
  5 37  1  0
  6 38  1  0
  7 39  1  6
  8 40  1  0
  8 41  1  0
  8 42  1  0
  9 43  1  0
  9 44  1  0
  9 45  1  0
 10 46  1  0
 10 47  1  0
 12 48  1  0
 15 49  1  0
 15 50  1  0
 15 51  1  0
 16 52  1  1
 19 53  1  0
 20 54  1  1
 22 55  1  0
 23 56  1  0
 26 57  1  0
 27 58  1  0
 27 59  1  0
 28 60  1  0
 28 61  1  0
 29 62  1  1
M  END
>  <smiles>  (135) 
[H]OC(=O)C([H])([H])c1c([H])c([H])c(OC([H])([H])[H])c([C@]2([H])SC([H])([H])C([H])([H])[C@@]23S[C@]([H])([C@@]([H])(N([H])C(=O)C([H])(C([H])([H])[H])C([H])([H])[H])C([H])([H])[H])[C@]([H])(C([H])([H])[H])N3[H])c1[H]

>  <error>  (135) 


>  <∆∆G>  (135) 
-83.282406

>  <∆G_bound>  (135) 
79.209945

>  <∆G_unbound>  (135) 
162.492351

>  <comRMSD>  (135) 
1.852523

>  <N_constrained_atoms>  (135) 
30.0

>  <N_unconstrained_atoms>  (135) 
0.0

>  <runtime>  (135) 
83.517514

>  <regarded>  (135) 
['d0264a', '6h80-a']

>  <disregarded>  (135) 
[]

>  <LE>  (135) 
2.77608

>  <outcome>  (135) 
too moved

>  <percent_hybrid>  (135) 
47.0

$$$$
LIG
     RDKit          3D

 70 72  0  0  0  0  0  0  0  0999 V2000
  -23.2066  -46.4183  -18.3740 O   0  0  0  0  0  0  0  0  0  0  0  0
  -22.4647  -46.1889  -17.5055 C   0  0  0  0  0  0  0  0  0  0  0  0
  -22.3533  -47.0682  -16.2592 C   0  0  0  0  0  0  0  0  0  0  0  0
  -23.1509  -46.4368  -15.1236 C   0  0  0  0  0  0  0  0  0  0  0  0
  -22.8778  -48.4677  -16.5624 C   0  0  0  0  0  0  0  0  0  0  0  0
  -21.4767  -45.0159  -17.3160 N   0  0  0  0  0  0  0  0  0  0  0  0
  -21.1242  -43.9163  -18.2144 C   0  0  1  0  0  0  0  0  0  0  0  0
  -21.6096  -42.6456  -17.5179 C   0  0  0  0  0  0  0  0  0  0  0  0
  -19.8714  -41.7200  -19.9937 C   0  0  0  0  0  0  0  0  0  0  0  0
  -13.5637  -41.3885  -21.0658 C   0  0  0  0  0  0  0  0  0  0  0  0
  -15.5313  -40.6078  -22.3283 O   0  0  0  0  0  0  0  0  0  0  0  0
  -15.9748  -42.9122  -14.7140 O   0  0  0  0  0  0  0  0  0  0  0  0
  -17.0428  -42.4033  -16.6096 O   0  0  0  0  0  0  0  0  0  0  0  0
  -19.2179  -46.0602  -24.2294 C   0  0  0  0  0  0  0  0  0  0  0  0
  -19.7604  -46.4701  -25.2270 C   0  0  0  0  0  0  0  0  0  0  0  0
  -20.4664  -46.8584  -26.4643 C   0  0  0  0  0  0  0  0  0  0  0  0
  -13.5037  -39.8950  -22.9087 O   0  0  0  0  0  0  0  0  0  0  0  0
  -14.3278  -40.6302  -22.1287 C   0  0  0  0  0  0  0  0  0  0  0  0
  -14.8670  -43.5384  -16.7084 C   0  0  0  0  0  0  0  0  0  0  0  0
  -16.0636  -42.8809  -16.0607 C   0  0  0  0  0  0  0  0  0  0  0  0
  -21.5838  -46.0000  -26.6721 O   0  0  0  0  0  0  0  0  0  0  0  0
  -19.6069  -43.8721  -18.5205 C   0  0  1  0  0  0  0  0  0  0  0  0
  -18.9192  -45.5292  -18.9585 S   0  0  0  0  0  0  0  0  0  0  0  0
  -18.4096  -45.0381  -20.6395 C   0  0  2  0  0  0  0  0  0  0  0  0
  -18.9068  -43.6738  -20.8617 N   0  0  0  0  0  0  0  0  0  0  0  0
  -19.0597  -42.9468  -19.6190 C   0  0  1  0  0  0  0  0  0  0  0  0
  -14.3585  -42.4360  -20.3143 C   0  0  0  0  0  0  0  0  0  0  0  0
  -14.2424  -42.5326  -18.9254 C   0  0  0  0  0  0  0  0  0  0  0  0
  -14.9266  -43.5230  -18.2177 C   0  0  0  0  0  0  0  0  0  0  0  0
  -15.7225  -44.4375  -18.9235 C   0  0  0  0  0  0  0  0  0  0  0  0
  -15.9103  -44.3367  -20.3143 C   0  0  0  0  0  0  0  0  0  0  0  0
  -15.1760  -43.3517  -20.9925 C   0  0  0  0  0  0  0  0  0  0  0  0
  -19.1509  -45.8831  -21.6743 C   0  0  0  0  0  0  0  0  0  0  0  0
  -18.7421  -45.3308  -23.0369 C   0  0  1  0  0  0  0  0  0  0  0  0
  -16.9539  -45.1153  -22.8466 S   0  0  0  0  0  0  0  0  0  0  0  0
  -16.9113  -45.2548  -21.0066 C   0  0  2  0  0  0  0  0  0  0  0  0
  -21.2988  -47.1540  -15.9745 H   0  0  0  0  0  0  0  0  0  0  0  0
  -23.1100  -47.0590  -14.2281 H   0  0  0  0  0  0  0  0  0  0  0  0
  -22.7594  -45.4485  -14.8608 H   0  0  0  0  0  0  0  0  0  0  0  0
  -24.2035  -46.3086  -15.4004 H   0  0  0  0  0  0  0  0  0  0  0  0
  -22.8383  -49.0960  -15.6718 H   0  0  0  0  0  0  0  0  0  0  0  0
  -23.9187  -48.4416  -16.8986 H   0  0  0  0  0  0  0  0  0  0  0  0
  -22.2899  -48.9479  -17.3499 H   0  0  0  0  0  0  0  0  0  0  0  0
  -21.0404  -45.0839  -16.4005 H   0  0  0  0  0  0  0  0  0  0  0  0
  -21.6938  -44.0692  -19.1382 H   0  0  0  0  0  0  0  0  0  0  0  0
  -22.6230  -42.7864  -17.1214 H   0  0  0  0  0  0  0  0  0  0  0  0
  -20.9678  -42.3838  -16.6692 H   0  0  0  0  0  0  0  0  0  0  0  0
  -21.6681  -41.7868  -18.1851 H   0  0  0  0  0  0  0  0  0  0  0  0
  -19.9186  -41.0218  -19.1523 H   0  0  0  0  0  0  0  0  0  0  0  0
  -19.3997  -41.1673  -20.8163 H   0  0  0  0  0  0  0  0  0  0  0  0
  -20.8845  -41.9716  -20.3113 H   0  0  0  0  0  0  0  0  0  0  0  0
  -12.7115  -41.8931  -21.5315 H   0  0  0  0  0  0  0  0  0  0  0  0
  -13.1764  -40.6400  -20.3643 H   0  0  0  0  0  0  0  0  0  0  0  0
  -16.8845  -42.6830  -14.4166 H   0  0  0  0  0  0  0  0  0  0  0  0
  -20.7999  -47.8971  -26.4639 H   0  0  0  0  0  0  0  0  0  0  0  0
  -19.8149  -46.7454  -27.3277 H   0  0  0  0  0  0  0  0  0  0  0  0
  -14.0833  -39.5677  -23.6306 H   0  0  0  0  0  0  0  0  0  0  0  0
  -13.9616  -43.0241  -16.3656 H   0  0  0  0  0  0  0  0  0  0  0  0
  -14.8072  -44.5764  -16.3637 H   0  0  0  0  0  0  0  0  0  0  0  0
  -22.3416  -46.4014  -26.2007 H   0  0  0  0  0  0  0  0  0  0  0  0
  -19.0946  -43.5754  -17.6046 H   0  0  0  0  0  0  0  0  0  0  0  0
  -18.2431  -43.1659  -21.4556 H   0  0  0  0  0  0  0  0  0  0  0  0
  -18.0706  -42.5921  -19.3007 H   0  0  0  0  0  0  0  0  0  0  0  0
  -13.6158  -41.8202  -18.3911 H   0  0  0  0  0  0  0  0  0  0  0  0
  -16.2336  -45.2146  -18.3649 H   0  0  0  0  0  0  0  0  0  0  0  0
  -15.2379  -43.2614  -22.0752 H   0  0  0  0  0  0  0  0  0  0  0  0
  -20.2129  -45.7320  -21.4965 H   0  0  0  0  0  0  0  0  0  0  0  0
  -18.9349  -46.9565  -21.5828 H   0  0  0  0  0  0  0  0  0  0  0  0
  -19.1526  -44.3218  -23.1691 H   0  0  0  0  0  0  0  0  0  0  0  0
  -16.6119  -46.2903  -20.7966 H   0  0  0  0  0  0  0  0  0  0  0  0
  5  3  1  0
  4  3  1  0
  3  2  1  0
  2  1  2  0
  6  2  1  0
  7  6  1  0
  7  8  1  0
 21 16  1  0
 16 15  1  0
 15 14  3  0
 19 20  1  0
 13 20  2  0
 20 12  1  0
 10 18  1  0
 11 18  2  0
 18 17  1  0
 22  7  1  0
 22 23  1  0
 22 26  1  0
 24 23  1  1
 24 25  1  0
 25 26  1  0
 26  9  1  0
 27 32  2  0
 27 28  1  0
 27 10  1  0
 28 29  2  0
 29 30  1  0
 29 19  1  0
 30 31  2  0
 31 36  1  0
 31 32  1  0
 33 34  1  0
 34 14  1  0
 34 35  1  0
 35 36  1  0
 24 33  1  0
 24 36  1  0
  3 37  1  0
  4 38  1  0
  4 39  1  0
  4 40  1  0
  5 41  1  0
  5 42  1  0
  5 43  1  0
  6 44  1  0
  7 45  1  6
  8 46  1  0
  8 47  1  0
  8 48  1  0
  9 49  1  0
  9 50  1  0
  9 51  1  0
 10 52  1  0
 10 53  1  0
 12 54  1  0
 16 55  1  0
 16 56  1  0
 17 57  1  0
 19 58  1  0
 19 59  1  0
 21 60  1  0
 22 61  1  1
 25 62  1  0
 26 63  1  1
 28 64  1  0
 30 65  1  0
 32 66  1  0
 33 67  1  0
 33 68  1  0
 34 69  1  6
 36 70  1  6
M  END
>  <smiles>  (136) 
[H]OC(=O)C([H])([H])c1c([H])c(C([H])([H])C(=O)O[H])c([H])c([C@]2([H])S[C@@]([H])(C#CC([H])([H])O[H])C([H])([H])[C@@]23S[C@]([H])([C@@]([H])(N([H])C(=O)C([H])(C([H])([H])[H])C([H])([H])[H])C([H])([H])[H])[C@]([H])(C([H])([H])[H])N3[H])c1[H]

>  <error>  (136) 


>  <∆∆G>  (136) 
-197.33774

>  <∆G_bound>  (136) 
168.015593

>  <∆G_unbound>  (136) 
365.353333

>  <comRMSD>  (136) 
1.020523

>  <N_constrained_atoms>  (136) 
36.0

>  <N_unconstrained_atoms>  (136) 
0.0

>  <runtime>  (136) 
29.612739

>  <regarded>  (136) 
['d0264a', '5hmy-a']

>  <disregarded>  (136) 
[]

>  <LE>  (136) 
5.481604

>  <outcome>  (136) 
too moved

>  <percent_hybrid>  (136) 
39.0

$$$$
LIG
     RDKit          3D

  0  0  0  0  0  0  0  0  0  0999 V3000
M  V30 BEGIN CTAB
M  V30 COUNTS 54 56 0 0 0
M  V30 BEGIN ATOM
M  V30 1 O -23.164000 -45.938000 -18.049000 0
M  V30 2 C -22.246000 -46.016998 -17.236000 0
M  V30 3 C -22.204000 -47.136002 -16.188999 0
M  V30 4 C -23.259001 -46.889000 -15.112000 0
M  V30 5 C -22.391001 -48.480999 -16.875999 0
M  V30 6 N -21.222000 -45.154999 -17.212000 0
M  V30 7 C -21.018999 -44.181000 -18.270000 0 CFG=1
M  V30 8 C -20.471001 -42.877998 -17.697001 0
M  V30 9 C -20.379999 -43.105999 -21.250999 0
M  V30 10 C -17.607000 -47.167999 -21.084000 0
M  V30 11 C -20.124001 -44.757999 -19.327999 0
M  V30 12 S -19.247999 -46.223999 -19.002001 0
M  V30 13 C -18.566000 -46.140999 -20.593000 0
M  V30 14 N -18.959000 -45.118000 -21.297001 0
M  V30 15 C -19.841000 -44.330002 -20.590000 0
M  V30 16 C -18.292999 -38.539001 -26.643999 0
M  V30 17 C -17.152000 -39.429001 -27.195000 0
M  V30 18 O -17.379000 -40.272999 -28.011999 0
M  V30 19 O -15.821000 -39.264000 -26.753000 0
M  V30 20 N -16.072001 -44.653999 -21.667000 0
M  V30 21 C -15.751000 -43.828999 -22.466999 0
M  V30 22 O -14.571000 -42.931999 -22.371000 0
M  V30 23 C -14.705000 -41.751999 -23.525999 0
M  V30 24 C -15.849000 -42.087002 -24.396000 0
M  V30 25 S -16.513000 -43.477001 -23.871000 0
M  V30 26 C -15.449000 -40.089001 -25.684000 0
M  V30 27 C -16.188999 -41.264000 -25.438000 0
M  V30 28 C -13.980000 -40.595001 -23.754999 0
M  V30 29 C -14.332000 -39.752998 -24.834999 0
M  V30 30 N -16.839500 -45.910999 -21.375500 0
M  V30 31 H -21.224400 -47.145100 -15.688701 0
M  V30 32 H -22.800341 -46.996384 -14.117969 0
M  V30 33 H -23.663401 -45.871887 -15.221285 0
M  V30 34 H -24.072884 -47.620884 -15.221285 0
M  V30 35 H -22.500528 -49.268772 -16.116119 0
M  V30 36 H -23.293409 -48.449520 -17.504227 0
M  V30 37 H -21.514233 -48.696888 -17.504227 0
M  V30 38 H -20.560917 -45.183292 -16.422653 0
M  V30 39 H -21.983677 -43.943588 -18.742264 0
M  V30 40 H -20.490307 -42.923904 -16.598129 0
M  V30 41 H -19.435837 -42.733383 -18.039818 0
M  V30 42 H -21.091650 -42.037003 -18.039818 0
M  V30 43 H -20.697660 -42.384628 -20.483721 0
M  V30 44 H -19.597904 -42.653469 -21.878328 0
M  V30 45 H -21.241858 -43.377396 -21.878328 0
M  V30 46 H -17.177290 -47.838009 -20.324764 0
M  V30 47 H -17.831579 -47.968567 -21.804178 0
M  V30 48 H -18.272194 -38.555229 -25.544315 0
M  V30 49 H -18.156292 -37.506573 -26.998123 0
M  V30 50 H -19.261084 -38.922939 -26.998123 0
M  V30 51 H -17.041410 -41.520733 -26.084129 0
M  V30 52 H -13.135477 -40.332432 -23.100904 0
M  V30 53 H -13.752116 -38.838520 -25.028555 0
M  V30 54 H -15.809501 -44.881001 -20.345499 0
M  V30 END ATOM
M  V30 BEGIN BOND
M  V30 1 1 5 3
M  V30 2 1 4 3
M  V30 3 1 3 2
M  V30 4 2 2 1
M  V30 5 1 6 2
M  V30 6 1 7 6
M  V30 7 1 7 8
M  V30 8 1 11 7
M  V30 9 1 11 12
M  V30 10 2 11 15
M  V30 11 1 12 13
M  V30 12 1 13 10
M  V30 13 2 13 14
M  V30 14 1 14 15
M  V30 15 1 15 9
M  V30 16 1 19 17
M  V30 17 2 17 18
M  V30 18 1 17 16
M  V30 19 1 21 22
M  V30 20 2 21 20
M  V30 21 1 21 25
M  V30 22 1 22 23
M  V30 23 2 23 28
M  V30 24 1 23 24
M  V30 25 1 24 25
M  V30 26 2 24 27
M  V30 27 2 26 29
M  V30 28 1 26 27
M  V30 29 1 26 19
M  V30 30 1 28 29
M  V30 31 1 30 10
M  V30 32 1 30 20
M  V30 33 1 3 31
M  V30 34 1 4 32
M  V30 35 1 4 33
M  V30 36 1 4 34
M  V30 37 1 5 35
M  V30 38 1 5 36
M  V30 39 1 5 37
M  V30 40 1 6 38
M  V30 41 1 7 39 CFG=3
M  V30 42 1 8 40
M  V30 43 1 8 41
M  V30 44 1 8 42
M  V30 45 1 9 43
M  V30 46 1 9 44
M  V30 47 1 9 45
M  V30 48 1 10 46
M  V30 49 1 10 47
M  V30 50 1 16 48
M  V30 51 1 16 49
M  V30 52 1 16 50
M  V30 53 1 27 51
M  V30 54 1 28 52
M  V30 55 1 29 53
M  V30 56 1 30 54
M  V30 END BOND
M  V30 BEGIN COLLECTION
M  V30 MDLV30/STEABS ATOMS=(0)
M  V30 END COLLECTION
M  V30 END CTAB
M  END
>  <smiles>  (137) 
[H]c1c(OC(=O)C([H])([H])[H])c([H])c2s/c(=N\N([H])C([H])([H])c3nc(C([H])([H])[H])c([C@@]([H])(N([H])C(=O)C([H])(C([H])([H])[H])C([H])([H])[H])C([H])([H])[H])s3)oc2c1[H]

>  <error>  (137) 


>  <∆∆G>  (137) 
nan

>  <∆G_bound>  (137) 
nan

>  <∆G_unbound>  (137) 
nan

>  <comRMSD>  (137) 
0.0

>  <N_constrained_atoms>  (137) 
29.0

>  <N_unconstrained_atoms>  (137) 
1.0

>  <runtime>  (137) 
2.092779

>  <regarded>  (137) 
['d0264a', '6izx-a']

>  <disregarded>  (137) 
[]

>  <LE>  (137) 
nan

>  <outcome>  (137) 
crashed

>  <percent_hybrid>  (137) 
49.0

$$$$

     RDKit          2D

  0  0  0  0  0  0  0  0  0  0999 V2000
M  END
>  <smiles>  (138) 
nan

>  <error>  (138) 
TimeoutError

>  <∆∆G>  (138) 
nan

>  <∆G_bound>  (138) 
nan

>  <∆G_unbound>  (138) 
nan

>  <comRMSD>  (138) 
nan

>  <N_constrained_atoms>  (138) 
nan

>  <N_unconstrained_atoms>  (138) 
nan

>  <runtime>  (138) 
nan

>  <regarded>  (138) 
[]

>  <disregarded>  (138) 
[]

>  <LE>  (138) 
nan

>  <outcome>  (138) 
timeout

>  <percent_hybrid>  (138) 
nan

$$$$
LIG
     RDKit          3D

 64 66  0  0  0  0  0  0  0  0999 V2000
  -23.2108  -46.4680  -18.3335 O   0  0  0  0  0  0  0  0  0  0  0  0
  -22.4904  -46.2237  -17.4515 C   0  0  0  0  0  0  0  0  0  0  0  0
  -22.4111  -47.0747  -16.1866 C   0  0  0  0  0  0  0  0  0  0  0  0
  -23.2199  -46.4096  -15.0821 C   0  0  0  0  0  0  0  0  0  0  0  0
  -22.9330  -48.4768  -16.4771 C   0  0  0  0  0  0  0  0  0  0  0  0
  -21.4233  -45.1168  -17.3084 N   0  0  0  0  0  0  0  0  0  0  0  0
  -21.0832  -44.0097  -18.1938 C   0  0  1  0  0  0  0  0  0  0  0  0
  -21.5462  -42.7253  -17.5085 C   0  0  0  0  0  0  0  0  0  0  0  0
  -19.9611  -42.0756  -20.3103 C   0  0  0  0  0  0  0  0  0  0  0  0
  -13.8034  -41.3099  -21.0721 C   0  0  0  0  0  0  0  0  0  0  0  0
  -13.8359  -39.9380  -23.0042 O   0  0  0  0  0  0  0  0  0  0  0  0
  -15.5245  -42.5004  -14.6162 O   0  0  0  0  0  0  0  0  0  0  0  0
  -16.9575  -42.8975  -16.2796 O   0  0  0  0  0  0  0  0  0  0  0  0
  -14.6216  -40.6133  -22.1349 C   0  0  0  0  0  0  0  0  0  0  0  0
  -15.8347  -40.5828  -22.2594 O   0  0  0  0  0  0  0  0  0  0  0  0
  -14.6582  -43.5227  -16.6270 C   0  0  0  0  0  0  0  0  0  0  0  0
  -15.7195  -42.9008  -15.7553 C   0  0  0  0  0  0  0  0  0  0  0  0
  -19.5711  -43.9497  -18.5254 C   0  0  1  0  0  0  0  0  0  0  0  0
  -18.8054  -45.6302  -18.6707 S   0  0  0  0  0  0  0  0  0  0  0  0
  -18.3874  -45.4312  -20.4307 C   0  0  2  0  0  0  0  0  0  0  0  0
  -19.1609  -44.2613  -20.8893 N   0  0  0  0  0  0  0  0  0  0  0  0
  -19.1427  -43.2594  -19.8337 C   0  0  1  0  0  0  0  0  0  0  0  0
  -14.5299  -42.3630  -20.2608 C   0  0  0  0  0  0  0  0  0  0  0  0
  -14.3178  -42.4423  -18.8791 C   0  0  0  0  0  0  0  0  0  0  0  0
  -14.8909  -43.4650  -18.1192 C   0  0  0  0  0  0  0  0  0  0  0  0
  -15.6774  -44.4242  -18.7688 C   0  0  0  0  0  0  0  0  0  0  0  0
  -15.9572  -44.3507  -20.1457 C   0  0  0  0  0  0  0  0  0  0  0  0
  -15.3442  -43.3231  -20.8779 C   0  0  0  0  0  0  0  0  0  0  0  0
  -18.8448  -46.6421  -21.2491 C   0  0  0  0  0  0  0  0  0  0  0  0
  -18.4836  -46.3425  -22.6972 C   0  0  0  0  0  0  0  0  0  0  0  0
  -16.9264  -45.4030  -22.5882 S   0  0  0  0  0  0  0  0  0  0  0  0
  -16.8570  -45.3997  -20.7666 C   0  0  2  0  0  0  0  0  0  0  0  0
  -21.3636  -47.1630  -15.8780 H   0  0  0  0  0  0  0  0  0  0  0  0
  -23.1520  -46.9846  -14.1577 H   0  0  0  0  0  0  0  0  0  0  0  0
  -22.8559  -45.3983  -14.8727 H   0  0  0  0  0  0  0  0  0  0  0  0
  -24.2775  -46.3268  -15.3569 H   0  0  0  0  0  0  0  0  0  0  0  0
  -22.9387  -49.0827  -15.5702 H   0  0  0  0  0  0  0  0  0  0  0  0
  -23.9565  -48.4525  -16.8622 H   0  0  0  0  0  0  0  0  0  0  0  0
  -22.3124  -48.9793  -17.2255 H   0  0  0  0  0  0  0  0  0  0  0  0
  -21.0323  -45.1414  -16.3703 H   0  0  0  0  0  0  0  0  0  0  0  0
  -21.6653  -44.1633  -19.1096 H   0  0  0  0  0  0  0  0  0  0  0  0
  -22.6111  -42.7905  -17.2551 H   0  0  0  0  0  0  0  0  0  0  0  0
  -21.0038  -42.5583  -16.5707 H   0  0  0  0  0  0  0  0  0  0  0  0
  -21.4198  -41.8398  -18.1318 H   0  0  0  0  0  0  0  0  0  0  0  0
  -19.8674  -41.2401  -19.6091 H   0  0  0  0  0  0  0  0  0  0  0  0
  -19.6091  -41.7114  -21.2828 H   0  0  0  0  0  0  0  0  0  0  0  0
  -21.0131  -42.3259  -20.4082 H   0  0  0  0  0  0  0  0  0  0  0  0
  -12.9480  -41.7994  -21.5508 H   0  0  0  0  0  0  0  0  0  0  0  0
  -13.4212  -40.5254  -20.4083 H   0  0  0  0  0  0  0  0  0  0  0  0
  -14.4508  -39.6269  -23.7034 H   0  0  0  0  0  0  0  0  0  0  0  0
  -17.5535  -42.7501  -15.5086 H   0  0  0  0  0  0  0  0  0  0  0  0
  -13.7059  -43.0300  -16.3955 H   0  0  0  0  0  0  0  0  0  0  0  0
  -14.5556  -44.5684  -16.3157 H   0  0  0  0  0  0  0  0  0  0  0  0
  -19.0525  -43.4483  -17.7037 H   0  0  0  0  0  0  0  0  0  0  0  0
  -18.7064  -43.8842  -21.7258 H   0  0  0  0  0  0  0  0  0  0  0  0
  -18.1229  -42.8797  -19.7034 H   0  0  0  0  0  0  0  0  0  0  0  0
  -13.6802  -41.7042  -18.3943 H   0  0  0  0  0  0  0  0  0  0  0  0
  -16.0817  -45.2414  -18.1804 H   0  0  0  0  0  0  0  0  0  0  0  0
  -15.4849  -43.2532  -21.9547 H   0  0  0  0  0  0  0  0  0  0  0  0
  -19.9040  -46.8440  -21.1217 H   0  0  0  0  0  0  0  0  0  0  0  0
  -18.3215  -47.5521  -20.9278 H   0  0  0  0  0  0  0  0  0  0  0  0
  -18.3924  -47.2550  -23.2870 H   0  0  0  0  0  0  0  0  0  0  0  0
  -19.2119  -45.6952  -23.1905 H   0  0  0  0  0  0  0  0  0  0  0  0
  -16.4041  -46.3657  -20.4985 H   0  0  0  0  0  0  0  0  0  0  0  0
  5  3  1  0
  4  3  1  0
  3  2  1  0
  2  1  2  0
  6  2  1  0
  7  6  1  0
  7  8  1  0
 16 17  1  0
 17 12  2  0
 17 13  1  0
 10 14  1  0
 15 14  2  0
 14 11  1  0
 18  7  1  0
 18 19  1  0
 18 22  1  0
 20 19  1  1
 20 21  1  0
 21 22  1  0
 22  9  1  0
 23 28  2  0
 23 24  1  0
 23 10  1  0
 24 25  2  0
 25 26  1  0
 25 16  1  0
 26 27  2  0
 27 32  1  0
 27 28  1  0
 29 30  1  0
 30 31  1  0
 31 32  1  0
 20 29  1  0
 20 32  1  0
  3 33  1  0
  4 34  1  0
  4 35  1  0
  4 36  1  0
  5 37  1  0
  5 38  1  0
  5 39  1  0
  6 40  1  0
  7 41  1  6
  8 42  1  0
  8 43  1  0
  8 44  1  0
  9 45  1  0
  9 46  1  0
  9 47  1  0
 10 48  1  0
 10 49  1  0
 11 50  1  0
 13 51  1  0
 16 52  1  0
 16 53  1  0
 18 54  1  1
 21 55  1  0
 22 56  1  1
 24 57  1  0
 26 58  1  0
 28 59  1  0
 29 60  1  0
 29 61  1  0
 30 62  1  0
 30 63  1  0
 32 64  1  1
M  END
>  <smiles>  (139) 
[H]OC(=O)C([H])([H])c1c([H])c(C([H])([H])C(=O)O[H])c([H])c([C@]2([H])SC([H])([H])C([H])([H])[C@@]23S[C@]([H])([C@@]([H])(N([H])C(=O)C([H])(C([H])([H])[H])C([H])([H])[H])C([H])([H])[H])[C@]([H])(C([H])([H])[H])N3[H])c1[H]

>  <error>  (139) 


>  <∆∆G>  (139) 
-95.093645

>  <∆G_bound>  (139) 
109.614584

>  <∆G_unbound>  (139) 
204.708229

>  <comRMSD>  (139) 
1.105351

>  <N_constrained_atoms>  (139) 
32.0

>  <N_unconstrained_atoms>  (139) 
0.0

>  <runtime>  (139) 
35.107436

>  <regarded>  (139) 
['d0264a', '5hmx-b']

>  <disregarded>  (139) 
[]

>  <LE>  (139) 
2.971676

>  <outcome>  (139) 
too moved

>  <percent_hybrid>  (139) 
44.0

$$$$

     RDKit          2D

  0  0  0  0  0  0  0  0  0  0999 V2000
M  END
>  <smiles>  (140) 
nan

>  <error>  (140) 
TimeoutError

>  <∆∆G>  (140) 
nan

>  <∆G_bound>  (140) 
nan

>  <∆G_unbound>  (140) 
nan

>  <comRMSD>  (140) 
nan

>  <N_constrained_atoms>  (140) 
nan

>  <N_unconstrained_atoms>  (140) 
nan

>  <runtime>  (140) 
nan

>  <regarded>  (140) 
[]

>  <disregarded>  (140) 
[]

>  <LE>  (140) 
nan

>  <outcome>  (140) 
timeout

>  <percent_hybrid>  (140) 
nan

$$$$

     RDKit          2D

  0  0  0  0  0  0  0  0  0  0999 V2000
M  END
>  <smiles>  (141) 
nan

>  <error>  (141) 
TimeoutError

>  <∆∆G>  (141) 
nan

>  <∆G_bound>  (141) 
nan

>  <∆G_unbound>  (141) 
nan

>  <comRMSD>  (141) 
nan

>  <N_constrained_atoms>  (141) 
nan

>  <N_unconstrained_atoms>  (141) 
nan

>  <runtime>  (141) 
nan

>  <regarded>  (141) 
[]

>  <disregarded>  (141) 
[]

>  <LE>  (141) 
nan

>  <outcome>  (141) 
timeout

>  <percent_hybrid>  (141) 
nan

$$$$

     RDKit          2D

  0  0  0  0  0  0  0  0  0  0999 V2000
M  END
>  <smiles>  (142) 
nan

>  <error>  (142) 
TimeoutError

>  <∆∆G>  (142) 
nan

>  <∆G_bound>  (142) 
nan

>  <∆G_unbound>  (142) 
nan

>  <comRMSD>  (142) 
nan

>  <N_constrained_atoms>  (142) 
nan

>  <N_unconstrained_atoms>  (142) 
nan

>  <runtime>  (142) 
nan

>  <regarded>  (142) 
[]

>  <disregarded>  (142) 
[]

>  <LE>  (142) 
nan

>  <outcome>  (142) 
timeout

>  <percent_hybrid>  (142) 
nan

$$$$
LIG
     RDKit          3D

 62 64  0  0  0  0  0  0  0  0999 V2000
  -23.0318  -46.4880  -18.3980 O   0  0  0  0  0  0  0  0  0  0  0  0
  -22.3903  -46.1807  -17.4756 C   0  0  0  0  0  0  0  0  0  0  0  0
  -22.3332  -47.0222  -16.1996 C   0  0  0  0  0  0  0  0  0  0  0  0
  -23.1659  -46.3637  -15.1068 C   0  0  0  0  0  0  0  0  0  0  0  0
  -22.8544  -48.4289  -16.4863 C   0  0  0  0  0  0  0  0  0  0  0  0
  -21.4805  -44.9515  -17.2535 N   0  0  0  0  0  0  0  0  0  0  0  0
  -21.0930  -43.8815  -18.1679 C   0  0  1  0  0  0  0  0  0  0  0  0
  -21.5415  -42.5726  -17.5195 C   0  0  0  0  0  0  0  0  0  0  0  0
  -19.9574  -42.0127  -20.3463 C   0  0  0  0  0  0  0  0  0  0  0  0
  -14.3754  -43.4167  -16.8952 C   0  0  0  0  0  0  0  0  0  0  0  0
  -15.7654  -43.1240  -22.4001 O   0  0  0  0  0  0  0  0  0  0  0  0
  -15.8781  -41.5351  -16.5752 O   0  0  0  0  0  0  0  0  0  0  0  0
  -14.1784  -41.7996  -15.1254 O   0  0  0  0  0  0  0  0  0  0  0  0
  -14.7775  -42.1760  -16.1246 C   0  0  0  0  0  0  0  0  0  0  0  0
  -14.6707  -43.1904  -23.3214 C   0  0  0  0  0  0  0  0  0  0  0  0
  -19.5757  -43.8290  -18.4950 C   0  0  1  0  0  0  0  0  0  0  0  0
  -18.7699  -45.4864  -18.5741 S   0  0  0  0  0  0  0  0  0  0  0  0
  -18.4194  -45.3822  -20.3648 C   0  0  2  0  0  0  0  0  0  0  0  0
  -19.1810  -44.2249  -20.8596 N   0  0  0  0  0  0  0  0  0  0  0  0
  -19.1504  -43.1901  -19.8363 C   0  0  1  0  0  0  0  0  0  0  0  0
  -14.6975  -43.4050  -18.3725 C   0  0  0  0  0  0  0  0  0  0  0  0
  -14.1225  -42.4459  -19.2042 C   0  0  0  0  0  0  0  0  0  0  0  0
  -14.4694  -42.3869  -20.5501 C   0  0  0  0  0  0  0  0  0  0  0  0
  -15.3816  -43.2962  -21.0963 C   0  0  0  0  0  0  0  0  0  0  0  0
  -15.9609  -44.2992  -20.2954 C   0  0  0  0  0  0  0  0  0  0  0  0
  -15.5772  -44.3403  -18.9333 C   0  0  0  0  0  0  0  0  0  0  0  0
  -18.6090  -46.4998  -22.5370 C   0  0  0  0  0  0  0  0  0  0  0  0
  -18.9399  -46.6413  -21.0639 C   0  0  0  0  0  0  0  0  0  0  0  0
  -16.9061  -45.3940  -20.7649 C   0  0  2  0  0  0  0  0  0  0  0  0
  -17.0215  -45.6531  -22.5493 S   0  0  0  0  0  0  0  0  0  0  0  0
  -21.2890  -47.1028  -15.8783 H   0  0  0  0  0  0  0  0  0  0  0  0
  -23.1406  -46.9575  -14.1914 H   0  0  0  0  0  0  0  0  0  0  0  0
  -22.7913  -45.3640  -14.8634 H   0  0  0  0  0  0  0  0  0  0  0  0
  -24.2119  -46.2551  -15.4148 H   0  0  0  0  0  0  0  0  0  0  0  0
  -22.8628  -49.0323  -15.5776 H   0  0  0  0  0  0  0  0  0  0  0  0
  -23.8787  -48.4062  -16.8715 H   0  0  0  0  0  0  0  0  0  0  0  0
  -22.2338  -48.9357  -17.2312 H   0  0  0  0  0  0  0  0  0  0  0  0
  -21.0035  -45.0392  -16.3602 H   0  0  0  0  0  0  0  0  0  0  0  0
  -21.6656  -44.0499  -19.0870 H   0  0  0  0  0  0  0  0  0  0  0  0
  -21.0184  -42.4006  -16.5715 H   0  0  0  0  0  0  0  0  0  0  0  0
  -21.3781  -41.7021  -18.1552 H   0  0  0  0  0  0  0  0  0  0  0  0
  -22.6136  -42.6071  -17.2916 H   0  0  0  0  0  0  0  0  0  0  0  0
  -19.8448  -41.1546  -19.6758 H   0  0  0  0  0  0  0  0  0  0  0  0
  -19.6106  -41.6877  -21.3343 H   0  0  0  0  0  0  0  0  0  0  0  0
  -21.0137  -42.2499  -20.4243 H   0  0  0  0  0  0  0  0  0  0  0  0
  -13.2908  -43.5399  -16.7897 H   0  0  0  0  0  0  0  0  0  0  0  0
  -14.8528  -44.2719  -16.4044 H   0  0  0  0  0  0  0  0  0  0  0  0
  -16.2713  -41.9317  -17.3754 H   0  0  0  0  0  0  0  0  0  0  0  0
  -14.2290  -42.1972  -23.4387 H   0  0  0  0  0  0  0  0  0  0  0  0
  -13.9141  -43.9227  -23.0170 H   0  0  0  0  0  0  0  0  0  0  0  0
  -15.0686  -43.4959  -24.2940 H   0  0  0  0  0  0  0  0  0  0  0  0
  -19.0623  -43.2891  -17.6904 H   0  0  0  0  0  0  0  0  0  0  0  0
  -18.7298  -43.8878  -21.7162 H   0  0  0  0  0  0  0  0  0  0  0  0
  -18.1249  -42.8178  -19.7239 H   0  0  0  0  0  0  0  0  0  0  0  0
  -13.4094  -41.7208  -18.8135 H   0  0  0  0  0  0  0  0  0  0  0  0
  -14.0358  -41.6055  -21.1690 H   0  0  0  0  0  0  0  0  0  0  0  0
  -15.9662  -45.1291  -18.2932 H   0  0  0  0  0  0  0  0  0  0  0  0
  -18.5758  -47.4660  -23.0443 H   0  0  0  0  0  0  0  0  0  0  0  0
  -19.2949  -45.8449  -23.0736 H   0  0  0  0  0  0  0  0  0  0  0  0
  -20.0016  -46.7953  -20.8932 H   0  0  0  0  0  0  0  0  0  0  0  0
  -18.4339  -47.5328  -20.6746 H   0  0  0  0  0  0  0  0  0  0  0  0
  -16.4568  -46.3284  -20.3954 H   0  0  0  0  0  0  0  0  0  0  0  0
  5  3  1  0
  4  3  1  0
  3  2  1  0
  2  1  2  0
  6  2  1  0
  7  6  1  0
  7  8  1  0
 11 15  1  0
 13 14  2  0
 10 14  1  0
 14 12  1  0
 16  7  1  0
 16 17  1  0
 16 20  1  0
 18 17  1  1
 18 19  1  0
 19 20  1  0
 20  9  1  0
 21 26  2  0
 21 10  1  0
 21 22  1  0
 22 23  2  0
 23 24  1  0
 24 25  2  0
 24 11  1  0
 25 29  1  0
 25 26  1  0
 27 28  1  0
 27 30  1  0
 29 30  1  0
 18 28  1  0
 18 29  1  0
  3 31  1  0
  4 32  1  0
  4 33  1  0
  4 34  1  0
  5 35  1  0
  5 36  1  0
  5 37  1  0
  6 38  1  0
  7 39  1  6
  8 40  1  0
  8 41  1  0
  8 42  1  0
  9 43  1  0
  9 44  1  0
  9 45  1  0
 10 46  1  0
 10 47  1  0
 12 48  1  0
 15 49  1  0
 15 50  1  0
 15 51  1  0
 16 52  1  1
 19 53  1  0
 20 54  1  1
 22 55  1  0
 23 56  1  0
 26 57  1  0
 27 58  1  0
 27 59  1  0
 28 60  1  0
 28 61  1  0
 29 62  1  1
M  END
>  <smiles>  (143) 
[H]OC(=O)C([H])([H])c1c([H])c([H])c(OC([H])([H])[H])c([C@]2([H])SC([H])([H])C([H])([H])[C@@]23S[C@]([H])([C@@]([H])(N([H])C(=O)C([H])(C([H])([H])[H])C([H])([H])[H])C([H])([H])[H])[C@]([H])(C([H])([H])[H])N3[H])c1[H]

>  <error>  (143) 


>  <∆∆G>  (143) 
-88.353831

>  <∆G_bound>  (143) 
94.140126

>  <∆G_unbound>  (143) 
182.493957

>  <comRMSD>  (143) 
1.161503

>  <N_constrained_atoms>  (143) 
30.0

>  <N_unconstrained_atoms>  (143) 
0.0

>  <runtime>  (143) 
68.457623

>  <regarded>  (143) 
['d0264a', '5f3z-a']

>  <disregarded>  (143) 
[]

>  <LE>  (143) 
2.945128

>  <outcome>  (143) 
too moved

>  <percent_hybrid>  (143) 
47.0

$$$$
LIG
     RDKit          3D

 62 64  0  0  0  0  0  0  0  0999 V2000
  -23.1414  -46.4370  -18.3624 O   0  0  0  0  0  0  0  0  0  0  0  0
  -22.4380  -46.1725  -17.4718 C   0  0  0  0  0  0  0  0  0  0  0  0
  -22.3501  -47.0314  -16.2102 C   0  0  0  0  0  0  0  0  0  0  0  0
  -23.1713  -46.3905  -15.0982 C   0  0  0  0  0  0  0  0  0  0  0  0
  -22.8637  -48.4378  -16.5073 C   0  0  0  0  0  0  0  0  0  0  0  0
  -21.4720  -44.9809  -17.2779 N   0  0  0  0  0  0  0  0  0  0  0  0
  -21.0976  -43.9073  -18.1911 C   0  0  1  0  0  0  0  0  0  0  0  0
  -21.5699  -42.6017  -17.5538 C   0  0  0  0  0  0  0  0  0  0  0  0
  -19.9399  -42.0335  -20.3550 C   0  0  0  0  0  0  0  0  0  0  0  0
  -14.4238  -43.5457  -16.7704 C   0  0  0  0  0  0  0  0  0  0  0  0
  -15.7759  -43.1235  -22.2748 O   0  0  0  0  0  0  0  0  0  0  0  0
  -16.0057  -41.7460  -16.3896 O   0  0  0  0  0  0  0  0  0  0  0  0
  -14.2420  -41.9231  -15.0029 O   0  0  0  0  0  0  0  0  0  0  0  0
  -14.8583  -42.3291  -15.9795 C   0  0  0  0  0  0  0  0  0  0  0  0
  -14.6756  -43.1703  -23.1892 C   0  0  0  0  0  0  0  0  0  0  0  0
  -19.5788  -43.8452  -18.4982 C   0  0  1  0  0  0  0  0  0  0  0  0
  -18.7794  -45.5074  -18.5649 S   0  0  0  0  0  0  0  0  0  0  0  0
  -18.4174  -45.4115  -20.3506 C   0  0  2  0  0  0  0  0  0  0  0  0
  -19.1612  -44.2466  -20.8556 N   0  0  0  0  0  0  0  0  0  0  0  0
  -19.1383  -43.2101  -19.8346 C   0  0  1  0  0  0  0  0  0  0  0  0
  -14.7303  -43.5046  -18.2506 C   0  0  0  0  0  0  0  0  0  0  0  0
  -14.1691  -42.5094  -19.0482 C   0  0  0  0  0  0  0  0  0  0  0  0
  -14.5037  -42.4187  -20.3956 C   0  0  0  0  0  0  0  0  0  0  0  0
  -15.3935  -43.3280  -20.9762 C   0  0  0  0  0  0  0  0  0  0  0  0
  -15.9578  -44.3647  -20.2129 C   0  0  0  0  0  0  0  0  0  0  0  0
  -15.5810  -44.4436  -18.8497 C   0  0  0  0  0  0  0  0  0  0  0  0
  -18.5883  -46.5143  -22.5313 C   0  0  0  0  0  0  0  0  0  0  0  0
  -18.9396  -46.6620  -21.0629 C   0  0  0  0  0  0  0  0  0  0  0  0
  -16.9001  -45.4417  -20.7244 C   0  0  2  0  0  0  0  0  0  0  0  0
  -16.9939  -45.6727  -22.5142 S   0  0  0  0  0  0  0  0  0  0  0  0
  -21.3007  -47.1076  -15.9051 H   0  0  0  0  0  0  0  0  0  0  0  0
  -23.1254  -46.9918  -14.1888 H   0  0  0  0  0  0  0  0  0  0  0  0
  -22.8029  -45.3890  -14.8530 H   0  0  0  0  0  0  0  0  0  0  0  0
  -24.2234  -46.2900  -15.3880 H   0  0  0  0  0  0  0  0  0  0  0  0
  -22.8486  -49.0538  -15.6074 H   0  0  0  0  0  0  0  0  0  0  0  0
  -23.8951  -48.4195  -16.8726 H   0  0  0  0  0  0  0  0  0  0  0  0
  -22.2530  -48.9277  -17.2713 H   0  0  0  0  0  0  0  0  0  0  0  0
  -21.0720  -45.0162  -16.3429 H   0  0  0  0  0  0  0  0  0  0  0  0
  -21.6592  -44.0864  -19.1149 H   0  0  0  0  0  0  0  0  0  0  0  0
  -21.0543  -42.4147  -16.6046 H   0  0  0  0  0  0  0  0  0  0  0  0
  -21.4170  -41.7336  -18.1955 H   0  0  0  0  0  0  0  0  0  0  0  0
  -22.6425  -42.6516  -17.3310 H   0  0  0  0  0  0  0  0  0  0  0  0
  -19.8452  -41.1780  -19.6784 H   0  0  0  0  0  0  0  0  0  0  0  0
  -19.5743  -41.7030  -21.3345 H   0  0  0  0  0  0  0  0  0  0  0  0
  -20.9931  -42.2761  -20.4568 H   0  0  0  0  0  0  0  0  0  0  0  0
  -13.3378  -43.6469  -16.6557 H   0  0  0  0  0  0  0  0  0  0  0  0
  -14.8847  -44.4220  -16.3034 H   0  0  0  0  0  0  0  0  0  0  0  0
  -16.4118  -42.1729  -17.1672 H   0  0  0  0  0  0  0  0  0  0  0  0
  -14.2171  -42.1806  -23.2654 H   0  0  0  0  0  0  0  0  0  0  0  0
  -13.9317  -43.9245  -22.9073 H   0  0  0  0  0  0  0  0  0  0  0  0
  -15.0690  -43.4330  -24.1760 H   0  0  0  0  0  0  0  0  0  0  0  0
  -19.0762  -43.3039  -17.6879 H   0  0  0  0  0  0  0  0  0  0  0  0
  -18.6944  -43.9140  -21.7058 H   0  0  0  0  0  0  0  0  0  0  0  0
  -18.1135  -42.8394  -19.7121 H   0  0  0  0  0  0  0  0  0  0  0  0
  -13.4785  -41.7785  -18.6289 H   0  0  0  0  0  0  0  0  0  0  0  0
  -14.0830  -41.6093  -20.9868 H   0  0  0  0  0  0  0  0  0  0  0  0
  -15.9594  -45.2607  -18.2397 H   0  0  0  0  0  0  0  0  0  0  0  0
  -18.5517  -47.4787  -23.0415 H   0  0  0  0  0  0  0  0  0  0  0  0
  -19.2678  -45.8570  -23.0741 H   0  0  0  0  0  0  0  0  0  0  0  0
  -20.0041  -46.8078  -20.9053 H   0  0  0  0  0  0  0  0  0  0  0  0
  -18.4456  -47.5595  -20.6731 H   0  0  0  0  0  0  0  0  0  0  0  0
  -16.4683  -46.3872  -20.3624 H   0  0  0  0  0  0  0  0  0  0  0  0
  5  3  1  0
  4  3  1  0
  3  2  1  0
  2  1  2  0
  6  2  1  0
  7  6  1  0
  7  8  1  0
 11 15  1  0
 13 14  2  0
 10 14  1  0
 14 12  1  0
 16  7  1  0
 16 17  1  0
 16 20  1  0
 18 17  1  1
 18 19  1  0
 19 20  1  0
 20  9  1  0
 21 26  2  0
 21 10  1  0
 21 22  1  0
 22 23  2  0
 23 24  1  0
 24 25  2  0
 24 11  1  0
 25 29  1  0
 25 26  1  0
 27 28  1  0
 27 30  1  0
 29 30  1  0
 18 28  1  0
 18 29  1  0
  3 31  1  0
  4 32  1  0
  4 33  1  0
  4 34  1  0
  5 35  1  0
  5 36  1  0
  5 37  1  0
  6 38  1  0
  7 39  1  6
  8 40  1  0
  8 41  1  0
  8 42  1  0
  9 43  1  0
  9 44  1  0
  9 45  1  0
 10 46  1  0
 10 47  1  0
 12 48  1  0
 15 49  1  0
 15 50  1  0
 15 51  1  0
 16 52  1  1
 19 53  1  0
 20 54  1  1
 22 55  1  0
 23 56  1  0
 26 57  1  0
 27 58  1  0
 27 59  1  0
 28 60  1  0
 28 61  1  0
 29 62  1  1
M  END
>  <smiles>  (144) 
[H]OC(=O)C([H])([H])c1c([H])c([H])c(OC([H])([H])[H])c([C@]2([H])SC([H])([H])C([H])([H])[C@@]23S[C@]([H])([C@@]([H])(N([H])C(=O)C([H])(C([H])([H])[H])C([H])([H])[H])C([H])([H])[H])[C@]([H])(C([H])([H])[H])N3[H])c1[H]

>  <error>  (144) 


>  <∆∆G>  (144) 
-88.682283

>  <∆G_bound>  (144) 
115.84726

>  <∆G_unbound>  (144) 
204.529544

>  <comRMSD>  (144) 
1.161125

>  <N_constrained_atoms>  (144) 
30.0

>  <N_unconstrained_atoms>  (144) 
0.0

>  <runtime>  (144) 
71.475998

>  <regarded>  (144) 
['d0264a', '6h9r-a']

>  <disregarded>  (144) 
[]

>  <LE>  (144) 
2.956076

>  <outcome>  (144) 
too moved

>  <percent_hybrid>  (144) 
47.0

$$$$

     RDKit          2D

  0  0  0  0  0  0  0  0  0  0999 V2000
M  END
>  <smiles>  (145) 
nan

>  <error>  (145) 
TimeoutError

>  <∆∆G>  (145) 
nan

>  <∆G_bound>  (145) 
nan

>  <∆G_unbound>  (145) 
nan

>  <comRMSD>  (145) 
nan

>  <N_constrained_atoms>  (145) 
nan

>  <N_unconstrained_atoms>  (145) 
nan

>  <runtime>  (145) 
nan

>  <regarded>  (145) 
[]

>  <disregarded>  (145) 
[]

>  <LE>  (145) 
nan

>  <outcome>  (145) 
timeout

>  <percent_hybrid>  (145) 
nan

$$$$

     RDKit          2D

  0  0  0  0  0  0  0  0  0  0999 V2000
M  END
>  <smiles>  (146) 
nan

>  <error>  (146) 
DistanceError 6.02 Å

>  <∆∆G>  (146) 
nan

>  <∆G_bound>  (146) 
nan

>  <∆G_unbound>  (146) 
nan

>  <comRMSD>  (146) 
nan

>  <N_constrained_atoms>  (146) 
nan

>  <N_unconstrained_atoms>  (146) 
nan

>  <runtime>  (146) 
nan

>  <regarded>  (146) 
[]

>  <disregarded>  (146) 
[]

>  <LE>  (146) 
nan

>  <outcome>  (146) 
too distant

>  <percent_hybrid>  (146) 
nan

$$$$
LIG
     RDKit          3D

 37 40  0  0  0  0  0  0  0  0999 V2000
  -15.2221  -42.8246  -22.1328 N   0  0  0  0  0  0  0  0  0  0  0  0
  -15.2520  -43.4468  -20.8423 C   0  0  0  0  0  0  0  0  0  0  0  0
  -15.7605  -44.7257  -20.5221 C   0  0  0  0  0  0  0  0  0  0  0  0
  -15.6041  -45.3082  -19.2862 N   0  0  0  0  0  0  0  0  0  0  0  0
  -15.1461  -44.5549  -18.2778 C   0  0  0  0  0  0  0  0  0  0  0  0
  -14.7521  -43.2558  -18.4398 C   0  0  0  0  0  0  0  0  0  0  0  0
  -14.8347  -42.7115  -19.7152 C   0  0  0  0  0  0  0  0  0  0  0  0
  -17.4074  -45.0538  -22.4314 C   0  0  0  0  0  0  0  0  0  0  0  0
  -18.2950  -46.0464  -22.7879 C   0  0  0  0  0  0  0  0  0  0  0  0
  -18.1285  -47.1133  -21.8862 C   0  0  0  0  0  0  0  0  0  0  0  0
  -17.1262  -46.7469  -21.0213 C   0  0  0  0  0  0  0  0  0  0  0  0
  -16.6739  -45.4690  -21.3411 N   0  0  0  0  0  0  0  0  0  0  0  0
  -14.6061  -41.6434  -22.4980 C   0  0  0  0  0  0  0  0  0  0  0  0
  -13.5378  -41.0462  -21.8625 C   0  0  0  0  0  0  0  0  0  0  0  0
  -13.2904  -39.8776  -22.5047 N   0  0  0  0  0  0  0  0  0  0  0  0
  -14.0539  -39.6929  -23.5821 N   0  0  0  0  0  0  0  0  0  0  0  0
  -14.8252  -40.7997  -23.6509 C   0  0  0  0  0  0  0  0  0  0  0  0
  -16.9383  -41.6210  -24.6950 C   0  0  0  0  0  0  0  0  0  0  0  0
  -15.7205  -40.9589  -24.8001 C   0  0  0  0  0  0  0  0  0  0  0  0
  -15.3700  -40.4088  -26.0404 C   0  0  0  0  0  0  0  0  0  0  0  0
  -16.2289  -40.5678  -27.1139 C   0  0  0  0  0  0  0  0  0  0  0  0
  -17.4049  -41.2258  -27.0379 N   0  0  0  0  0  0  0  0  0  0  0  0
  -17.7313  -41.7271  -25.8263 C   0  0  0  0  0  0  0  0  0  0  0  0
  -15.3049  -43.5132  -22.8797 H   0  0  0  0  0  0  0  0  0  0  0  0
  -15.1599  -45.0218  -17.2973 H   0  0  0  0  0  0  0  0  0  0  0  0
  -14.4309  -42.6576  -17.5948 H   0  0  0  0  0  0  0  0  0  0  0  0
  -14.6056  -41.6546  -19.7838 H   0  0  0  0  0  0  0  0  0  0  0  0
  -17.3001  -44.0680  -22.8451 H   0  0  0  0  0  0  0  0  0  0  0  0
  -18.9945  -45.9963  -23.6107 H   0  0  0  0  0  0  0  0  0  0  0  0
  -18.6702  -48.0499  -21.8783 H   0  0  0  0  0  0  0  0  0  0  0  0
  -16.7061  -47.2766  -20.1784 H   0  0  0  0  0  0  0  0  0  0  0  0
  -12.9138  -41.3459  -21.0334 H   0  0  0  0  0  0  0  0  0  0  0  0
  -17.2930  -42.0083  -23.7492 H   0  0  0  0  0  0  0  0  0  0  0  0
  -14.4382  -39.8655  -26.1717 H   0  0  0  0  0  0  0  0  0  0  0  0
  -15.9849  -40.1593  -28.0904 H   0  0  0  0  0  0  0  0  0  0  0  0
  -18.6968  -42.2215  -25.7774 H   0  0  0  0  0  0  0  0  0  0  0  0
  -12.5834  -39.1833  -22.2847 H   0  0  0  0  0  0  0  0  0  0  0  0
  2  1  1  0
  2  7  2  0
  2  3  1  0
  3  4  2  0
  3 12  1  0
  4  5  1  0
  5  6  2  0
  6  7  1  0
  8  9  2  0
  8 12  1  0
  9 10  1  0
 10 11  2  0
 11 12  1  0
 13 14  2  0
 13 17  1  0
 14 15  1  0
 15 16  1  0
 16 17  2  0
 17 19  1  0
 18 23  2  0
 18 19  1  0
 19 20  2  0
 20 21  1  0
 21 22  2  0
 22 23  1  0
  1 13  1  0
  1 24  1  0
  5 25  1  0
  6 26  1  0
  7 27  1  0
  8 28  1  0
  9 29  1  0
 10 30  1  0
 11 31  1  0
 14 32  1  0
 18 33  1  0
 20 34  1  0
 21 35  1  0
 23 36  1  0
 15 37  1  0
M  END
>  <smiles>  (147) 
[H]c1nc(-n2c([H])c([H])c([H])c2[H])c(N([H])c2c(-c3c([H])c([H])nc([H])c3[H])n[nH]c2[H])c([H])c1[H]

>  <error>  (147) 


>  <∆∆G>  (147) 
-44.949228

>  <∆G_bound>  (147) 
350.989717

>  <∆G_unbound>  (147) 
395.938945

>  <comRMSD>  (147) 
0.828328

>  <N_constrained_atoms>  (147) 
23.0

>  <N_unconstrained_atoms>  (147) 
0.0

>  <runtime>  (147) 
1.41909

>  <regarded>  (147) 
['d0472a', 'd0160a']

>  <disregarded>  (147) 
[]

>  <LE>  (147) 
1.954314

>  <outcome>  (147) 
acceptable

>  <percent_hybrid>  (147) 
48.0

$$$$
LIG
     RDKit          3D

 41 44  0  0  0  0  0  0  0  0999 V2000
  -16.2749  -42.8308  -22.4288 N   0  0  0  0  0  0  0  0  0  0  0  0
  -15.2565  -43.3573  -21.5820 C   0  0  0  0  0  0  0  0  0  0  0  0
  -15.3888  -44.5328  -20.8211 C   0  0  0  0  0  0  0  0  0  0  0  0
  -14.4715  -44.8931  -19.8685 N   0  0  0  0  0  0  0  0  0  0  0  0
  -13.3939  -44.0946  -19.7074 C   0  0  0  0  0  0  0  0  0  0  0  0
  -13.1774  -42.9320  -20.4046 C   0  0  0  0  0  0  0  0  0  0  0  0
  -14.1244  -42.5600  -21.3397 C   0  0  0  0  0  0  0  0  0  0  0  0
  -17.5199  -45.4475  -21.9087 C   0  0  0  0  0  0  0  0  0  0  0  0
  -18.1126  -46.6882  -21.9636 C   0  0  0  0  0  0  0  0  0  0  0  0
  -17.3938  -47.5235  -21.0951 C   0  0  0  0  0  0  0  0  0  0  0  0
  -16.4386  -46.7562  -20.4775 C   0  0  0  0  0  0  0  0  0  0  0  0
  -16.4278  -45.4954  -21.0607 N   0  0  0  0  0  0  0  0  0  0  0  0
  -15.4400  -39.7860  -26.1634 C   0  0  0  0  0  0  0  0  0  0  0  0
  -15.7457  -41.0635  -24.0175 C   0  0  0  0  0  0  0  0  0  0  0  0
  -16.0444  -42.3587  -23.6785 C   0  0  0  0  0  0  0  0  0  0  0  0
  -16.1958  -43.0928  -24.8667 C   0  0  0  0  0  0  0  0  0  0  0  0
  -16.0332  -42.2152  -25.9160 C   0  0  0  0  0  0  0  0  0  0  0  0
  -15.7275  -40.9874  -25.3892 N   0  0  0  0  0  0  0  0  0  0  0  0
  -17.6077  -38.7875  -26.9911 C   0  0  0  0  0  0  0  0  0  0  0  0
  -16.5731  -38.8021  -26.0601 C   0  0  0  0  0  0  0  0  0  0  0  0
  -16.6583  -37.8978  -24.9966 C   0  0  0  0  0  0  0  0  0  0  0  0
  -17.7502  -37.0440  -24.8970 C   0  0  0  0  0  0  0  0  0  0  0  0
  -18.7283  -37.1167  -25.8741 C   0  0  0  0  0  0  0  0  0  0  0  0
  -18.6844  -37.9620  -26.9291 N   0  0  0  0  0  0  0  0  0  0  0  0
  -16.7310  -42.1352  -21.8331 H   0  0  0  0  0  0  0  0  0  0  0  0
  -12.6445  -44.4167  -18.9967 H   0  0  0  0  0  0  0  0  0  0  0  0
  -12.2807  -42.3454  -20.2402 H   0  0  0  0  0  0  0  0  0  0  0  0
  -13.9699  -41.6371  -21.8901 H   0  0  0  0  0  0  0  0  0  0  0  0
  -17.7851  -44.5573  -22.4527 H   0  0  0  0  0  0  0  0  0  0  0  0
  -18.9393  -46.9731  -22.5978 H   0  0  0  0  0  0  0  0  0  0  0  0
  -17.5378  -48.5790  -20.9506 H   0  0  0  0  0  0  0  0  0  0  0  0
  -15.6965  -47.0114  -19.7346 H   0  0  0  0  0  0  0  0  0  0  0  0
  -14.5053  -39.3677  -25.7774 H   0  0  0  0  0  0  0  0  0  0  0  0
  -15.2643  -40.0820  -27.2034 H   0  0  0  0  0  0  0  0  0  0  0  0
  -15.5609  -40.1933  -23.4049 H   0  0  0  0  0  0  0  0  0  0  0  0
  -16.4329  -44.1389  -24.9486 H   0  0  0  0  0  0  0  0  0  0  0  0
  -16.0769  -42.3795  -26.9846 H   0  0  0  0  0  0  0  0  0  0  0  0
  -17.6019  -39.4604  -27.8452 H   0  0  0  0  0  0  0  0  0  0  0  0
  -15.8800  -37.8589  -24.2396 H   0  0  0  0  0  0  0  0  0  0  0  0
  -17.8383  -36.3413  -24.0760 H   0  0  0  0  0  0  0  0  0  0  0  0
  -19.6021  -36.4724  -25.8310 H   0  0  0  0  0  0  0  0  0  0  0  0
  2  1  1  0
  2  7  2  0
  2  3  1  0
  3  4  2  0
  3 12  1  0
  4  5  1  0
  5  6  2  0
  6  7  1  0
  8  9  2  0
  8 12  1  0
  9 10  1  0
 10 11  2  0
 11 12  1  0
 14 15  2  0
 14 18  1  0
 15 16  1  0
 16 17  2  0
 17 18  1  0
 18 13  1  0
 19 24  2  0
 19 20  1  0
 20 13  1  0
 20 21  2  0
 21 22  1  0
 22 23  2  0
 23 24  1  0
  1 15  1  0
  1 25  1  0
  5 26  1  0
  6 27  1  0
  7 28  1  0
  8 29  1  0
  9 30  1  0
 10 31  1  0
 11 32  1  0
 13 33  1  0
 13 34  1  0
 14 35  1  0
 16 36  1  0
 17 37  1  0
 19 38  1  0
 21 39  1  0
 22 40  1  0
 23 41  1  0
M  END
>  <smiles>  (148) 
[H]c1nc(-n2c([H])c([H])c([H])c2[H])c(N([H])c2c([H])c([H])n(C([H])([H])c3c([H])nc([H])c([H])c3[H])c2[H])c([H])c1[H]

>  <error>  (148) 


>  <∆∆G>  (148) 
-27.393745

>  <∆G_bound>  (148) 
345.147006

>  <∆G_unbound>  (148) 
372.54075

>  <comRMSD>  (148) 
0.685883

>  <N_constrained_atoms>  (148) 
24.0

>  <N_unconstrained_atoms>  (148) 
0.0

>  <runtime>  (148) 
1.320897

>  <regarded>  (148) 
['d0472a', 'd0191a']

>  <disregarded>  (148) 
[]

>  <LE>  (148) 
1.141406

>  <outcome>  (148) 
acceptable

>  <percent_hybrid>  (148) 
50.0

$$$$
LIG
     RDKit          3D

 54 57  0  0  0  0  0  0  0  0999 V2000
  -15.9441  -43.7535  -22.5150 N   0  0  0  0  0  0  0  0  0  0  0  0
  -15.5519  -39.9866  -26.7050 C   0  0  0  0  0  0  0  0  0  0  0  0
  -15.1347  -43.7944  -21.2845 C   0  0  2  0  0  0  0  0  0  0  0  0
  -16.0145  -44.2745  -20.0404 C   0  0  2  0  0  0  0  0  0  0  0  0
  -15.1389  -44.5296  -18.8377 N   0  0  0  0  0  0  0  0  0  0  0  0
  -13.8063  -43.9156  -18.9286 C   0  0  0  0  0  0  0  0  0  0  0  0
  -13.7956  -42.5256  -19.5200 C   0  0  0  0  0  0  0  0  0  0  0  0
  -14.3740  -42.5083  -20.9256 C   0  0  0  0  0  0  0  0  0  0  0  0
  -17.9437  -45.6353  -21.2690 C   0  0  2  0  0  0  0  0  0  0  0  0
  -18.3256  -47.1138  -21.3077 C   0  0  0  0  0  0  0  0  0  0  0  0
  -17.0472  -47.8544  -20.9352 C   0  0  0  0  0  0  0  0  0  0  0  0
  -15.9812  -46.8067  -20.6609 C   0  0  0  0  0  0  0  0  0  0  0  0
  -16.7931  -45.6048  -20.2434 C   0  0  1  0  0  0  0  0  0  0  0  0
  -17.0557  -43.1747  -19.6447 C   0  0  0  0  0  0  0  0  0  0  0  0
  -18.2496  -43.6285  -18.7839 C   0  0  0  0  0  0  0  0  0  0  0  0
  -19.3442  -44.4507  -19.4850 C   0  0  0  0  0  0  0  0  0  0  0  0
  -19.1242  -44.7257  -20.9675 C   0  0  0  0  0  0  0  0  0  0  0  0
  -16.6625  -42.9612  -24.6417 C   0  0  0  0  0  0  0  0  0  0  0  0
  -15.8240  -42.8186  -23.5366 C   0  0  0  0  0  0  0  0  0  0  0  0
  -14.9753  -41.7890  -23.4538 N   0  0  0  0  0  0  0  0  0  0  0  0
  -14.9151  -40.9128  -24.4761 C   0  0  0  0  0  0  0  0  0  0  0  0
  -15.6791  -41.0056  -25.6242 C   0  0  0  0  0  0  0  0  0  0  0  0
  -16.5898  -42.0510  -25.6931 C   0  0  0  0  0  0  0  0  0  0  0  0
  -15.8685  -44.6613  -22.9708 H   0  0  0  0  0  0  0  0  0  0  0  0
  -16.1914  -39.1248  -26.4911 H   0  0  0  0  0  0  0  0  0  0  0  0
  -14.5151  -39.6464  -26.7933 H   0  0  0  0  0  0  0  0  0  0  0  0
  -15.8412  -40.4064  -27.6745 H   0  0  0  0  0  0  0  0  0  0  0  0
  -14.3693  -44.5599  -21.4685 H   0  0  0  0  0  0  0  0  0  0  0  0
  -15.6065  -44.1384  -18.0176 H   0  0  0  0  0  0  0  0  0  0  0  0
  -13.3837  -43.8472  -17.9206 H   0  0  0  0  0  0  0  0  0  0  0  0
  -13.1438  -44.5666  -19.5102 H   0  0  0  0  0  0  0  0  0  0  0  0
  -14.3602  -41.8417  -18.8747 H   0  0  0  0  0  0  0  0  0  0  0  0
  -12.7704  -42.1360  -19.5390 H   0  0  0  0  0  0  0  0  0  0  0  0
  -13.5366  -42.3778  -21.6218 H   0  0  0  0  0  0  0  0  0  0  0  0
  -15.0144  -41.6227  -21.0127 H   0  0  0  0  0  0  0  0  0  0  0  0
  -19.1228  -47.3369  -20.5926 H   0  0  0  0  0  0  0  0  0  0  0  0
  -18.6827  -47.4071  -22.3006 H   0  0  0  0  0  0  0  0  0  0  0  0
  -17.1765  -48.4166  -20.0151 H   0  0  0  0  0  0  0  0  0  0  0  0
  -16.7662  -48.5873  -21.6868 H   0  0  0  0  0  0  0  0  0  0  0  0
  -15.4255  -46.5557  -21.5543 H   0  0  0  0  0  0  0  0  0  0  0  0
  -15.2760  -47.1350  -19.8920 H   0  0  0  0  0  0  0  0  0  0  0  0
  -17.4331  -42.6668  -20.5395 H   0  0  0  0  0  0  0  0  0  0  0  0
  -16.5510  -42.3773  -19.0846 H   0  0  0  0  0  0  0  0  0  0  0  0
  -17.8936  -44.1661  -17.8991 H   0  0  0  0  0  0  0  0  0  0  0  0
  -18.7279  -42.7226  -18.3874 H   0  0  0  0  0  0  0  0  0  0  0  0
  -19.4907  -45.3955  -18.9463 H   0  0  0  0  0  0  0  0  0  0  0  0
  -20.2940  -43.9104  -19.3776 H   0  0  0  0  0  0  0  0  0  0  0  0
  -20.0393  -45.1591  -21.3829 H   0  0  0  0  0  0  0  0  0  0  0  0
  -19.0024  -43.7746  -21.4990 H   0  0  0  0  0  0  0  0  0  0  0  0
  -17.3758  -43.7756  -24.6809 H   0  0  0  0  0  0  0  0  0  0  0  0
  -14.2055  -40.1027  -24.3382 H   0  0  0  0  0  0  0  0  0  0  0  0
  -17.2379  -42.1639  -26.5540 H   0  0  0  0  0  0  0  0  0  0  0  0
  -17.6039  -45.4113  -22.2816 H   0  0  0  0  0  0  0  0  0  0  0  0
  -17.2101  -45.8917  -19.2645 H   0  0  0  0  0  0  0  0  0  0  0  0
  3  1  1  0
  3  8  1  0
  3  4  1  0
  4  5  1  1
  4 13  1  0
  5  6  1  0
  6  7  1  0
  7  8  1  0
  9 10  1  0
  9 13  1  0
 10 11  1  0
 11 12  1  0
 12 13  1  0
 14 15  1  0
 15 16  1  0
 16 17  1  0
 18 23  2  0
 18 19  1  0
 19 20  2  0
 20 21  1  0
 21 22  2  0
 22  2  1  0
 22 23  1  0
  4 14  1  0
  9 17  1  0
  1 19  1  0
  1 24  1  0
  2 25  1  0
  2 26  1  0
  2 27  1  0
  3 28  1  6
  5 29  1  0
  6 30  1  0
  6 31  1  0
  7 32  1  0
  7 33  1  0
  8 34  1  0
  8 35  1  0
 10 36  1  0
 10 37  1  0
 11 38  1  0
 11 39  1  0
 12 40  1  0
 12 41  1  0
 14 42  1  0
 14 43  1  0
 15 44  1  0
 15 45  1  0
 16 46  1  0
 16 47  1  0
 17 48  1  0
 17 49  1  0
 18 50  1  0
 21 51  1  0
 23 52  1  0
  9 53  1  6
 13 54  1  1
M  END
>  <smiles>  (149) 
[H]c1nc(N([H])[C@@]2([H])C([H])([H])C([H])([H])C([H])([H])N([H])[C@@]23C([H])([H])C([H])([H])C([H])([H])C([H])([H])[C@]2([H])C([H])([H])C([H])([H])C([H])([H])[C@]23[H])c([H])c([H])c1C([H])([H])[H]

>  <error>  (149) 


>  <∆∆G>  (149) 
-52.641906

>  <∆G_bound>  (149) 
145.528959

>  <∆G_unbound>  (149) 
198.170865

>  <comRMSD>  (149) 
1.098733

>  <N_constrained_atoms>  (149) 
23.0

>  <N_unconstrained_atoms>  (149) 
0.0

>  <runtime>  (149) 
2.441864

>  <regarded>  (149) 
['d0472a', 'd0254a']

>  <disregarded>  (149) 
[]

>  <LE>  (149) 
2.288779

>  <outcome>  (149) 
too moved

>  <percent_hybrid>  (149) 
48.0

$$$$
LIG
     RDKit          3D

 49 51  0  0  0  0  0  0  0  0999 V2000
  -14.8151  -43.2034  -22.7379 N   0  0  0  0  0  0  0  0  0  0  0  0
  -23.3768  -46.3084  -18.1674 O   0  0  0  0  0  0  0  0  0  0  0  0
  -22.7398  -46.0161  -17.2343 C   0  0  0  0  0  0  0  0  0  0  0  0
  -22.5634  -46.9373  -16.0335 C   0  0  0  0  0  0  0  0  0  0  0  0
  -23.4071  -46.4266  -14.8808 C   0  0  0  0  0  0  0  0  0  0  0  0
  -22.9416  -48.3668  -16.4124 C   0  0  0  0  0  0  0  0  0  0  0  0
  -21.8555  -44.7688  -16.9718 N   0  0  0  0  0  0  0  0  0  0  0  0
  -21.5004  -43.6766  -17.8387 C   0  0  1  0  0  0  0  0  0  0  0  0
  -20.8726  -42.5079  -17.0988 C   0  0  0  0  0  0  0  0  0  0  0  0
  -20.3921  -42.2913  -20.6139 C   0  0  0  0  0  0  0  0  0  0  0  0
  -14.5336  -43.4668  -21.3854 C   0  0  0  0  0  0  0  0  0  0  0  0
  -15.0262  -44.5197  -20.5873 C   0  0  0  0  0  0  0  0  0  0  0  0
  -14.7301  -44.6375  -19.2560 N   0  0  0  0  0  0  0  0  0  0  0  0
  -13.8717  -43.7326  -18.7385 C   0  0  0  0  0  0  0  0  0  0  0  0
  -13.2207  -42.7716  -19.4769 C   0  0  0  0  0  0  0  0  0  0  0  0
  -13.5489  -42.6558  -20.8166 C   0  0  0  0  0  0  0  0  0  0  0  0
  -16.4122  -45.6446  -22.3795 C   0  0  0  0  0  0  0  0  0  0  0  0
  -17.6983  -46.1230  -22.3382 C   0  0  0  0  0  0  0  0  0  0  0  0
  -17.9701  -46.2191  -20.9693 C   0  0  0  0  0  0  0  0  0  0  0  0
  -16.7692  -46.2940  -20.2858 C   0  0  0  0  0  0  0  0  0  0  0  0
  -15.9731  -45.4659  -21.0870 N   0  0  0  0  0  0  0  0  0  0  0  0
  -20.5986  -44.2219  -18.9114 C   0  0  0  0  0  0  0  0  0  0  0  0
  -19.6537  -45.6595  -18.7015 S   0  0  0  0  0  0  0  0  0  0  0  0
  -19.2209  -45.5814  -20.3348 C   0  0  0  0  0  0  0  0  0  0  0  0
  -19.7407  -44.5936  -21.0265 N   0  0  0  0  0  0  0  0  0  0  0  0
  -20.2810  -43.6909  -20.1508 C   0  0  0  0  0  0  0  0  0  0  0  0
  -15.7858  -43.3635  -22.9909 H   0  0  0  0  0  0  0  0  0  0  0  0
  -14.1833  -43.7307  -23.3427 H   0  0  0  0  0  0  0  0  0  0  0  0
  -21.5062  -46.9397  -15.7437 H   0  0  0  0  0  0  0  0  0  0  0  0
  -23.1699  -46.9873  -13.9785 H   0  0  0  0  0  0  0  0  0  0  0  0
  -23.2168  -45.3695  -14.6684 H   0  0  0  0  0  0  0  0  0  0  0  0
  -24.4776  -46.5331  -15.0876 H   0  0  0  0  0  0  0  0  0  0  0  0
  -22.8878  -49.0256  -15.5452 H   0  0  0  0  0  0  0  0  0  0  0  0
  -23.9610  -48.4214  -16.8050 H   0  0  0  0  0  0  0  0  0  0  0  0
  -22.2721  -48.7576  -17.1848 H   0  0  0  0  0  0  0  0  0  0  0  0
  -21.3738  -44.8745  -16.0812 H   0  0  0  0  0  0  0  0  0  0  0  0
  -22.4348  -43.3513  -18.3122 H   0  0  0  0  0  0  0  0  0  0  0  0
  -21.4853  -42.2183  -16.2381 H   0  0  0  0  0  0  0  0  0  0  0  0
  -19.8679  -42.7339  -16.7334 H   0  0  0  0  0  0  0  0  0  0  0  0
  -20.7810  -41.6319  -17.7493 H   0  0  0  0  0  0  0  0  0  0  0  0
  -21.1887  -41.7478  -20.1012 H   0  0  0  0  0  0  0  0  0  0  0  0
  -19.4548  -41.7668  -20.3967 H   0  0  0  0  0  0  0  0  0  0  0  0
  -20.5449  -42.2372  -21.6950 H   0  0  0  0  0  0  0  0  0  0  0  0
  -13.7053  -43.7914  -17.6677 H   0  0  0  0  0  0  0  0  0  0  0  0
  -12.4941  -42.1083  -19.0216 H   0  0  0  0  0  0  0  0  0  0  0  0
  -13.0721  -41.8838  -21.4148 H   0  0  0  0  0  0  0  0  0  0  0  0
  -15.8235  -45.3368  -23.2259 H   0  0  0  0  0  0  0  0  0  0  0  0
  -18.3989  -46.1087  -23.1637 H   0  0  0  0  0  0  0  0  0  0  0  0
  -16.5622  -46.3322  -19.2255 H   0  0  0  0  0  0  0  0  0  0  0  0
  6  4  1  0
  5  4  1  0
  4  3  1  0
  3  2  2  0
  7  3  1  0
  8  7  1  0
  8  9  1  0
 11  1  1  0
 11 16  2  0
 11 12  1  0
 12 13  2  0
 12 21  1  0
 13 14  1  0
 14 15  2  0
 15 16  1  0
 17 18  2  0
 17 21  1  0
 18 19  1  0
 19 20  2  0
 20 21  1  0
 22  8  1  0
 22 23  1  0
 22 26  2  0
 23 24  1  0
 24 25  2  0
 25 26  1  0
 26 10  1  0
 19 24  1  0
  1 27  1  0
  1 28  1  0
  4 29  1  0
  5 30  1  0
  5 31  1  0
  5 32  1  0
  6 33  1  0
  6 34  1  0
  6 35  1  0
  7 36  1  0
  8 37  1  6
  9 38  1  0
  9 39  1  0
  9 40  1  0
 10 41  1  0
 10 42  1  0
 10 43  1  0
 14 44  1  0
 15 45  1  0
 16 46  1  0
 17 47  1  0
 18 48  1  0
 20 49  1  0
M  END
>  <smiles>  (150) 
[H]c1nc(-n2c([H])c([H])c(-c3nc(C([H])([H])[H])c([C@@]([H])(N([H])C(=O)C([H])(C([H])([H])[H])C([H])([H])[H])C([H])([H])[H])s3)c2[H])c(N([H])[H])c([H])c1[H]

>  <error>  (150) 


>  <∆∆G>  (150) 
-32.446045

>  <∆G_bound>  (150) 
158.194604

>  <∆G_unbound>  (150) 
190.640649

>  <comRMSD>  (150) 
0.908715

>  <N_constrained_atoms>  (150) 
26.0

>  <N_unconstrained_atoms>  (150) 
0.0

>  <runtime>  (150) 
2.76953

>  <regarded>  (150) 
['d0472a', 'd0264a']

>  <disregarded>  (150) 
[]

>  <LE>  (150) 
1.247925

>  <outcome>  (150) 
acceptable

>  <percent_hybrid>  (150) 
47.0

$$$$

     RDKit          2D

  0  0  0  0  0  0  0  0  0  0999 V2000
M  END
>  <smiles>  (151) 
nan

>  <error>  (151) 
FragmensteinError Ideal compound failed. Something is wrong with the SMILES

>  <∆∆G>  (151) 
nan

>  <∆G_bound>  (151) 
nan

>  <∆G_unbound>  (151) 
nan

>  <comRMSD>  (151) 
nan

>  <N_constrained_atoms>  (151) 
nan

>  <N_unconstrained_atoms>  (151) 
nan

>  <runtime>  (151) 
nan

>  <regarded>  (151) 
[]

>  <disregarded>  (151) 
[]

>  <LE>  (151) 
nan

>  <outcome>  (151) 
crashed

>  <percent_hybrid>  (151) 
nan

$$$$
LIG
     RDKit          3D

 52 55  0  0  0  0  0  0  0  0999 V2000
  -17.7825  -44.2384  -25.0387 F   0  0  0  0  0  0  0  0  0  0  0  0
  -15.7070  -40.2197  -23.6675 N   0  0  0  0  0  0  0  0  0  0  0  0
  -15.4142  -39.6934  -25.0153 C   0  0  0  0  0  0  0  0  0  0  0  0
  -19.2010  -36.0059  -25.1594 C   0  0  0  0  0  0  0  0  0  0  0  0
  -15.5151  -43.7364  -22.0721 C   0  0  2  0  0  0  0  0  0  0  0  0
  -15.7679  -44.5955  -20.7723 C   0  0  1  0  0  0  0  0  0  0  0  0
  -15.4387  -43.9376  -19.5165 N   0  0  0  0  0  0  0  0  0  0  0  0
  -14.1369  -43.2861  -19.5696 C   0  0  0  0  0  0  0  0  0  0  0  0
  -13.2589  -43.6657  -20.7632 C   0  0  0  0  0  0  0  0  0  0  0  0
  -13.9613  -43.7862  -22.1438 C   0  0  0  0  0  0  0  0  0  0  0  0
  -18.2678  -44.6465  -20.4750 C   0  0  0  0  0  0  0  0  0  0  0  0
  -19.2431  -45.5875  -20.7081 C   0  0  0  0  0  0  0  0  0  0  0  0
  -18.6061  -46.8185  -20.9736 C   0  0  0  0  0  0  0  0  0  0  0  0
  -17.2537  -46.6076  -20.8499 C   0  0  0  0  0  0  0  0  0  0  0  0
  -17.0585  -45.2593  -20.6280 N   0  0  0  0  0  0  0  0  0  0  0  0
  -16.6206  -43.7070  -24.5376 C   0  0  1  0  0  0  0  0  0  0  0  0
  -16.8692  -42.2372  -24.3932 C   0  0  0  0  0  0  0  0  0  0  0  0
  -15.7207  -41.6682  -23.5874 C   0  0  2  0  0  0  0  0  0  0  0  0
  -15.8807  -42.2180  -22.1236 C   0  0  0  0  0  0  0  0  0  0  0  0
  -16.2688  -44.4395  -23.2460 C   0  0  0  0  0  0  0  0  0  0  0  0
  -17.3003  -38.7736  -26.5688 C   0  0  0  0  0  0  0  0  0  0  0  0
  -18.3106  -37.8226  -26.6079 N   0  0  0  0  0  0  0  0  0  0  0  0
  -18.2536  -37.0942  -25.5113 C   0  0  0  0  0  0  0  0  0  0  0  0
  -16.9736  -37.4557  -24.4328 S   0  0  0  0  0  0  0  0  0  0  0  0
  -16.5115  -38.7711  -25.4337 C   0  0  0  0  0  0  0  0  0  0  0  0
  -15.0427  -39.8258  -23.0045 H   0  0  0  0  0  0  0  0  0  0  0  0
  -14.4634  -39.1543  -24.9755 H   0  0  0  0  0  0  0  0  0  0  0  0
  -15.2703  -40.4812  -25.7641 H   0  0  0  0  0  0  0  0  0  0  0  0
  -19.6639  -36.1851  -24.1837 H   0  0  0  0  0  0  0  0  0  0  0  0
  -18.6904  -35.0379  -25.1358 H   0  0  0  0  0  0  0  0  0  0  0  0
  -20.0026  -35.9444  -25.9026 H   0  0  0  0  0  0  0  0  0  0  0  0
  -15.0908  -45.4604  -20.8402 H   0  0  0  0  0  0  0  0  0  0  0  0
  -15.4836  -44.6083  -18.7540 H   0  0  0  0  0  0  0  0  0  0  0  0
  -14.2973  -42.2026  -19.5700 H   0  0  0  0  0  0  0  0  0  0  0  0
  -13.5898  -43.4946  -18.6423 H   0  0  0  0  0  0  0  0  0  0  0  0
  -12.4463  -42.9341  -20.8379 H   0  0  0  0  0  0  0  0  0  0  0  0
  -12.7842  -44.6274  -20.5388 H   0  0  0  0  0  0  0  0  0  0  0  0
  -13.6393  -44.7211  -22.6135 H   0  0  0  0  0  0  0  0  0  0  0  0
  -13.5676  -43.0064  -22.7881 H   0  0  0  0  0  0  0  0  0  0  0  0
  -18.3385  -43.5887  -20.2561 H   0  0  0  0  0  0  0  0  0  0  0  0
  -20.3023  -45.3797  -20.6965 H   0  0  0  0  0  0  0  0  0  0  0  0
  -19.0847  -47.7507  -21.2370 H   0  0  0  0  0  0  0  0  0  0  0  0
  -16.4241  -47.2831  -20.9986 H   0  0  0  0  0  0  0  0  0  0  0  0
  -15.8346  -43.8760  -25.2800 H   0  0  0  0  0  0  0  0  0  0  0  0
  -16.9607  -41.8125  -25.3984 H   0  0  0  0  0  0  0  0  0  0  0  0
  -17.8370  -42.0512  -23.9098 H   0  0  0  0  0  0  0  0  0  0  0  0
  -14.7714  -42.0080  -24.0138 H   0  0  0  0  0  0  0  0  0  0  0  0
  -15.2359  -41.6344  -21.4592 H   0  0  0  0  0  0  0  0  0  0  0  0
  -16.9074  -42.0652  -21.7688 H   0  0  0  0  0  0  0  0  0  0  0  0
  -17.2495  -44.7796  -22.9132 H   0  0  0  0  0  0  0  0  0  0  0  0
  -15.7227  -45.3502  -23.4836 H   0  0  0  0  0  0  0  0  0  0  0  0
  -17.1999  -39.4669  -27.3954 H   0  0  0  0  0  0  0  0  0  0  0  0
  3  2  1  0
  5 10  1  6
  5  6  1  0
  6  7  1  0
  6 15  1  0
  7  8  1  0
  8  9  1  0
  9 10  1  0
 11 12  2  0
 11 15  1  0
 12 13  1  0
 13 14  2  0
 14 15  1  0
 16 20  1  0
 16  1  1  0
 16 17  1  0
 17 18  1  0
 18  2  1  0
 18 19  1  0
 21 22  1  0
 21 25  2  0
 22 23  2  0
 23  4  1  0
 23 24  1  0
 24 25  1  0
 25  3  1  0
  5 19  1  0
  5 20  1  0
  2 26  1  0
  3 27  1  0
  3 28  1  0
  4 29  1  0
  4 30  1  0
  4 31  1  0
  6 32  1  6
  7 33  1  0
  8 34  1  0
  8 35  1  0
  9 36  1  0
  9 37  1  0
 10 38  1  0
 10 39  1  0
 11 40  1  0
 12 41  1  0
 13 42  1  0
 14 43  1  0
 16 44  1  6
 17 45  1  0
 17 46  1  0
 18 47  1  6
 19 48  1  0
 19 49  1  0
 20 50  1  0
 20 51  1  0
 21 52  1  0
M  END
>  <smiles>  (152) 
[H]c1nc(C([H])([H])[H])sc1C([H])([H])N([H])[C@]1([H])C([H])([H])[C@]([H])(F)C([H])([H])[C@@]2(C([H])([H])C([H])([H])C([H])([H])N([H])[C@@]2([H])n2c([H])c([H])c([H])c2[H])C1([H])[H]

>  <error>  (152) 


>  <∆∆G>  (152) 
-44.735184

>  <∆G_bound>  (152) 
229.489213

>  <∆G_unbound>  (152) 
274.224397

>  <comRMSD>  (152) 
1.1425

>  <N_constrained_atoms>  (152) 
25.0

>  <N_unconstrained_atoms>  (152) 
0.0

>  <runtime>  (152) 
2.472746

>  <regarded>  (152) 
['d0472a', 'd0615b']

>  <disregarded>  (152) 
[]

>  <LE>  (152) 
1.789407

>  <outcome>  (152) 
too moved

>  <percent_hybrid>  (152) 
44.0

$$$$
LIG
     RDKit          3D

  0  0  0  0  0  0  0  0  0  0999 V3000
M  V30 BEGIN CTAB
M  V30 COUNTS 52 54 0 0 0
M  V30 BEGIN ATOM
M  V30 1 N -15.775000 -43.637001 -22.587999 0
M  V30 2 C -15.137000 -44.018002 -21.441999 0
M  V30 3 C -15.566000 -45.134998 -20.691000 0
M  V30 4 N -15.014000 -45.487000 -19.521000 0
M  V30 5 C -13.992000 -44.743000 -19.065001 0
M  V30 6 C -13.483000 -43.651001 -19.735001 0
M  V30 7 C -14.065000 -43.287998 -20.931999 0
M  V30 8 C -17.561001 -45.728001 -22.073000 0
M  V30 9 C -18.333000 -46.838001 -22.233999 0
M  V30 10 C -17.823000 -47.842999 -21.382999 0
M  V30 11 C -16.752001 -47.321999 -20.723000 0
M  V30 12 N -16.582001 -46.016998 -21.143000 0
M  V30 13 O -19.445000 -40.158001 -24.528000 0
M  V30 14 S -18.933001 -39.846001 -25.825001 0
M  V30 15 O -18.877001 -38.480999 -26.240999 0
M  V30 16 C -19.827000 -40.765999 -27.018000 0
M  V30 17 C -16.511999 -41.500999 -27.914000 0
M  V30 18 C -15.906000 -38.516998 -25.243999 0
M  V30 19 O -16.229000 -38.262001 -26.598000 0
M  V30 20 N -17.393000 -40.395000 -25.853001 0
M  V30 21 C -17.198999 -41.683998 -26.573000 0 CFG=2
M  V30 22 C -16.566000 -42.779999 -25.714001 0
M  V30 23 C -15.991000 -42.259998 -24.402000 0 CFG=2
M  V30 24 C -15.366000 -40.882000 -24.551001 0
M  V30 25 C -16.459999 -39.863998 -24.820000 0 CFG=1
M  V30 26 C -15.882999 -42.948502 -23.494999 0
M  V30 27 H -16.550005 -44.308624 -22.683849 0
M  V30 28 H -13.536071 -45.020908 -18.103285 0
M  V30 29 H -12.634304 -43.083469 -19.325581 0
M  V30 30 H -13.681296 -42.418716 -21.486183 0
M  V30 31 H -17.694054 -44.768002 -22.593287 0
M  V30 32 H -19.198395 -46.934559 -22.906136 0
M  V30 33 H -18.219580 -48.863117 -21.273092 0
M  V30 34 H -16.130325 -47.848633 -19.983961 0
M  V30 35 H -20.506313 -41.465069 -26.508259 0
M  V30 36 H -20.412142 -40.079388 -27.647423 0
M  V30 37 H -19.123901 -41.331223 -27.647423 0
M  V30 38 H -15.460629 -41.220943 -27.752167 0
M  V30 39 H -16.557558 -42.442596 -28.480846 0
M  V30 40 H -17.019920 -40.706833 -28.480846 0
M  V30 41 H -14.812429 -38.519810 -25.125275 0
M  V30 42 H -16.349152 -37.731411 -24.614344 0
M  V30 43 H -17.005259 -37.649174 -26.642309 0
M  V30 44 H -18.210634 -42.054550 -26.795010 0
M  V30 45 H -16.529486 -43.837841 -26.013391 0
M  V30 46 H -15.597886 -42.607105 -26.206812 0
M  V30 47 H -16.653191 -42.069740 -23.544500 0
M  V30 48 H -14.291663 -40.658054 -24.475843 0
M  V30 49 H -15.255508 -41.049068 -25.632610 0
M  V30 50 H -17.003857 -39.699589 -23.878094 0
M  V30 51 H -14.882999 -41.948502 -22.494999 0
M  V30 52 H -14.873000 -41.938499 -22.485001 0
M  V30 END ATOM
M  V30 BEGIN BOND
M  V30 1 1 2 1
M  V30 2 2 2 7
M  V30 3 1 2 3
M  V30 4 2 3 4
M  V30 5 1 3 12
M  V30 6 1 4 5
M  V30 7 2 5 6
M  V30 8 1 6 7
M  V30 9 2 8 9
M  V30 10 1 8 12
M  V30 11 1 9 10
M  V30 12 2 10 11
M  V30 13 1 11 12
M  V30 14 1 19 18
M  V30 15 1 16 14
M  V30 16 2 15 14
M  V30 17 2 14 13
M  V30 18 1 20 25
M  V30 19 1 20 14
M  V30 20 1 20 21
M  V30 21 1 21 17
M  V30 22 1 21 22
M  V30 23 1 22 23
M  V30 24 1 23 24
M  V30 25 1 24 25
M  V30 26 1 25 18
M  V30 27 1 26 1
M  V30 28 1 26 23
M  V30 29 1 1 27
M  V30 30 1 5 28
M  V30 31 1 6 29
M  V30 32 1 7 30
M  V30 33 1 8 31
M  V30 34 1 9 32
M  V30 35 1 10 33
M  V30 36 1 11 34
M  V30 37 1 16 35
M  V30 38 1 16 36
M  V30 39 1 16 37
M  V30 40 1 17 38
M  V30 41 1 17 39
M  V30 42 1 17 40
M  V30 43 1 18 41
M  V30 44 1 18 42
M  V30 45 1 19 43
M  V30 46 1 21 44 CFG=3
M  V30 47 1 22 45
M  V30 48 1 22 46
M  V30 49 1 23 47 CFG=1
M  V30 50 1 24 48
M  V30 51 1 24 49
M  V30 52 1 25 50 CFG=1
M  V30 53 1 26 51
M  V30 54 1 26 52
M  V30 END BOND
M  V30 BEGIN COLLECTION
M  V30 MDLV30/STEABS ATOMS=(0)
M  V30 END COLLECTION
M  V30 END CTAB
M  END
>  <smiles>  (153) 
[H]OC([H])([H])[C@@]1([H])N(S(=O)(=O)C([H])([H])[H])[C@@]([H])(C([H])([H])[H])C([H])([H])[C@@]([H])(C([H])([H])N([H])c2c(-n3c([H])c([H])c([H])c3[H])nc([H])c([H])c2[H])C1([H])[H]

>  <error>  (153) 


>  <∆∆G>  (153) 
nan

>  <∆G_bound>  (153) 
nan

>  <∆G_unbound>  (153) 
nan

>  <comRMSD>  (153) 
0.0

>  <N_constrained_atoms>  (153) 
25.0

>  <N_unconstrained_atoms>  (153) 
1.0

>  <runtime>  (153) 
1.541725

>  <regarded>  (153) 
['d0472a', 'd0851a']

>  <disregarded>  (153) 
[]

>  <LE>  (153) 
nan

>  <outcome>  (153) 
crashed

>  <percent_hybrid>  (153) 
48.0

$$$$
LIG
     RDKit          3D

  0  0  0  0  0  0  0  0  0  0999 V3000
M  V30 BEGIN CTAB
M  V30 COUNTS 62 65 0 0 0
M  V30 BEGIN ATOM
M  V30 1 N -15.775000 -43.637001 -22.587999 0
M  V30 2 C -15.137000 -44.018002 -21.441999 0
M  V30 3 C -15.566000 -45.134998 -20.691000 0
M  V30 4 N -15.014000 -45.487000 -19.521000 0
M  V30 5 C -13.992000 -44.743000 -19.065001 0
M  V30 6 C -13.483000 -43.651001 -19.735001 0
M  V30 7 C -14.065000 -43.287998 -20.931999 0
M  V30 8 C -17.561001 -45.728001 -22.073000 0
M  V30 9 C -18.333000 -46.838001 -22.233999 0
M  V30 10 C -17.823000 -47.842999 -21.382999 0
M  V30 11 C -16.752001 -47.321999 -20.723000 0
M  V30 12 N -16.582001 -46.016998 -21.143000 0
M  V30 13 O -19.218000 -37.455002 -26.510000 0
M  V30 14 C -18.440001 -37.272999 -25.589001 0
M  V30 15 C -18.801001 -40.066002 -25.077000 0
M  V30 16 S -16.291000 -41.674000 -23.726000 0
M  V30 17 O -16.832001 -41.215000 -22.487000 0
M  V30 18 O -16.914000 -42.779999 -24.382999 0
M  V30 19 C -14.601000 -42.066002 -23.476999 0
M  V30 20 C -18.129000 -36.304001 -23.285000 0
M  V30 21 C -19.089001 -35.396999 -22.541000 0
M  V30 22 C -19.528999 -34.411999 -23.573999 0
M  V30 23 C -19.582001 -35.196999 -24.878000 0
M  V30 24 N -18.677000 -36.332001 -24.648001 0
M  V30 25 C -17.472000 -39.426998 -24.688999 0 CFG=2
M  V30 26 C -17.184000 -38.118999 -25.462000 0 CFG=1
M  V30 27 C -16.631001 -38.435001 -26.855000 0
M  V30 28 C -15.402000 -39.325001 -26.764999 0
M  V30 29 C -15.742000 -40.634998 -26.099001 0
M  V30 30 N -16.350000 -40.417999 -24.764000 0
M  V30 31 C -15.188000 -42.851501 -23.032499 0
M  V30 32 H -16.653261 -44.027958 -22.957745 0
M  V30 33 H -13.536071 -45.020908 -18.103285 0
M  V30 34 H -12.634304 -43.083469 -19.325581 0
M  V30 35 H -13.681296 -42.418716 -21.486183 0
M  V30 36 H -17.694054 -44.768002 -22.593287 0
M  V30 37 H -19.198395 -46.934559 -22.906136 0
M  V30 38 H -18.219580 -48.863117 -21.273092 0
M  V30 39 H -16.130325 -47.848633 -19.983961 0
M  V30 40 H -19.358402 -40.334011 -24.167343 0
M  V30 41 H -19.390856 -39.353043 -25.671778 0
M  V30 42 H -18.612473 -40.971924 -25.671778 0
M  V30 43 H -13.996697 -42.315361 -24.361668 0
M  V30 44 H -13.801072 -41.455616 -23.032539 0
M  V30 45 H -17.236740 -36.817654 -22.897661 0
M  V30 46 H -18.745884 -37.175060 -23.019085 0
M  V30 47 H -19.391558 -35.451595 -21.484838 0
M  V30 48 H -18.252964 -34.736572 -22.267363 0
M  V30 49 H -19.764292 -33.347851 -23.424904 0
M  V30 50 H -18.478930 -34.151901 -23.773256 0
M  V30 51 H -20.163443 -34.967476 -25.783123 0
M  V30 52 H -18.740808 -34.605370 -25.268347 0
M  V30 53 H -17.554789 -39.120125 -23.635920 0
M  V30 54 H -16.433901 -37.548752 -24.894400 0
M  V30 55 H -17.065676 -38.066658 -27.795946 0
M  V30 56 H -15.989086 -37.543270 -26.802460 0
M  V30 57 H -14.402679 -39.051491 -27.134527 0
M  V30 58 H -15.158585 -38.889721 -25.784552 0
M  V30 59 H -15.562118 -41.623852 -26.546005 0
M  V30 60 H -14.742798 -40.660843 -25.639732 0
M  V30 61 H -14.087999 -41.751503 -21.932499 0
M  V30 62 H -14.078000 -41.741501 -21.922499 0
M  V30 END ATOM
M  V30 BEGIN BOND
M  V30 1 1 2 1
M  V30 2 2 2 7
M  V30 3 1 2 3
M  V30 4 2 3 4
M  V30 5 1 3 12
M  V30 6 1 4 5
M  V30 7 2 5 6
M  V30 8 1 6 7
M  V30 9 2 8 9
M  V30 10 1 8 12
M  V30 11 1 9 10
M  V30 12 2 10 11
M  V30 13 1 11 12
M  V30 14 2 17 16
M  V30 15 1 19 16
M  V30 16 2 18 16
M  V30 17 2 14 13
M  V30 18 1 20 21
M  V30 19 1 20 24
M  V30 20 1 21 22
M  V30 21 1 22 23
M  V30 22 1 23 24
M  V30 23 1 24 14
M  V30 24 1 25 15
M  V30 25 1 25 30
M  V30 26 1 25 26
M  V30 27 1 26 27
M  V30 28 1 26 14
M  V30 29 1 27 28
M  V30 30 1 28 29
M  V30 31 1 29 30
M  V30 32 1 30 16
M  V30 33 1 31 1
M  V30 34 1 31 19
M  V30 35 1 1 32
M  V30 36 1 5 33
M  V30 37 1 6 34
M  V30 38 1 7 35
M  V30 39 1 8 36
M  V30 40 1 9 37
M  V30 41 1 10 38
M  V30 42 1 11 39
M  V30 43 1 15 40
M  V30 44 1 15 41
M  V30 45 1 15 42
M  V30 46 1 19 43
M  V30 47 1 19 44
M  V30 48 1 20 45
M  V30 49 1 20 46
M  V30 50 1 21 47
M  V30 51 1 21 48
M  V30 52 1 22 49
M  V30 53 1 22 50
M  V30 54 1 23 51
M  V30 55 1 23 52
M  V30 56 1 25 53 CFG=1
M  V30 57 1 26 54 CFG=1
M  V30 58 1 27 55
M  V30 59 1 27 56
M  V30 60 1 28 57
M  V30 61 1 28 58
M  V30 62 1 29 59
M  V30 63 1 29 60
M  V30 64 1 31 61
M  V30 65 1 31 62
M  V30 END BOND
M  V30 BEGIN COLLECTION
M  V30 MDLV30/STEABS ATOMS=(0)
M  V30 END COLLECTION
M  V30 END CTAB
M  END
>  <smiles>  (154) 
[H]c1nc(-n2c([H])c([H])c([H])c2[H])c(N([H])C([H])([H])C([H])([H])S(=O)(=O)N2C([H])([H])C([H])([H])C([H])([H])[C@@]([H])(C(=O)N3C([H])([H])C([H])([H])C([H])([H])C3([H])[H])[C@@]2([H])C([H])([H])[H])c([H])c1[H]

>  <error>  (154) 


>  <∆∆G>  (154) 
nan

>  <∆G_bound>  (154) 
nan

>  <∆G_unbound>  (154) 
nan

>  <comRMSD>  (154) 
0.0

>  <N_constrained_atoms>  (154) 
30.0

>  <N_unconstrained_atoms>  (154) 
1.0

>  <runtime>  (154) 
1.902459

>  <regarded>  (154) 
['d0472a', 'd0866a']

>  <disregarded>  (154) 
[]

>  <LE>  (154) 
nan

>  <outcome>  (154) 
crashed

>  <percent_hybrid>  (154) 
40.0

$$$$

     RDKit          2D

  0  0  0  0  0  0  0  0  0  0999 V2000
M  END
>  <smiles>  (155) 
nan

>  <error>  (155) 
DistanceError 5.91 Å

>  <∆∆G>  (155) 
nan

>  <∆G_bound>  (155) 
nan

>  <∆G_unbound>  (155) 
nan

>  <comRMSD>  (155) 
nan

>  <N_constrained_atoms>  (155) 
nan

>  <N_unconstrained_atoms>  (155) 
nan

>  <runtime>  (155) 
nan

>  <regarded>  (155) 
[]

>  <disregarded>  (155) 
[]

>  <LE>  (155) 
nan

>  <outcome>  (155) 
too distant

>  <percent_hybrid>  (155) 
nan

$$$$
LIG
     RDKit          3D

 40 42  0  0  0  0  0  0  0  0999 V2000
  -15.5854  -44.2425  -23.2054 N   0  0  0  0  0  0  0  0  0  0  0  0
  -13.8252  -42.7022  -18.1542 C   0  0  0  0  0  0  0  0  0  0  0  0
  -12.7114  -43.3019  -17.2976 C   0  0  0  0  0  0  0  0  0  0  0  0
  -15.0244  -44.2487  -21.9119 C   0  0  0  0  0  0  0  0  0  0  0  0
  -15.7074  -44.5889  -20.7377 C   0  0  0  0  0  0  0  0  0  0  0  0
  -15.2844  -44.1918  -19.4932 N   0  0  0  0  0  0  0  0  0  0  0  0
  -14.1443  -43.4572  -19.4186 C   0  0  0  0  0  0  0  0  0  0  0  0
  -13.3428  -43.2148  -20.5160 C   0  0  0  0  0  0  0  0  0  0  0  0
  -13.8096  -43.5935  -21.7592 C   0  0  0  0  0  0  0  0  0  0  0  0
  -17.4203  -46.0778  -21.8706 C   0  0  0  0  0  0  0  0  0  0  0  0
  -18.5442  -46.7646  -21.4866 C   0  0  0  0  0  0  0  0  0  0  0  0
  -18.7640  -46.4469  -20.1384 C   0  0  0  0  0  0  0  0  0  0  0  0
  -17.7055  -45.6749  -19.7156 C   0  0  0  0  0  0  0  0  0  0  0  0
  -16.8871  -45.3985  -20.7946 N   0  0  0  0  0  0  0  0  0  0  0  0
  -13.0717  -44.0689  -16.0898 N   0  0  0  0  0  0  0  0  0  0  0  0
  -14.4917  -44.4426  -15.9302 C   0  0  0  0  0  0  0  0  0  0  0  0
  -15.2112  -43.4638  -14.9940 C   0  0  0  0  0  0  0  0  0  0  0  0
  -14.7411  -43.6045  -13.6470 O   0  0  0  0  0  0  0  0  0  0  0  0
  -13.3394  -43.8917  -13.5951 C   0  0  0  0  0  0  0  0  0  0  0  0
  -12.5929  -43.4003  -14.8484 C   0  0  0  0  0  0  0  0  0  0  0  0
  -16.2068  -43.4443  -23.3237 H   0  0  0  0  0  0  0  0  0  0  0  0
  -14.8715  -44.2308  -23.9316 H   0  0  0  0  0  0  0  0  0  0  0  0
  -14.7471  -42.5128  -17.5963 H   0  0  0  0  0  0  0  0  0  0  0  0
  -13.5098  -41.6905  -18.4506 H   0  0  0  0  0  0  0  0  0  0  0  0
  -12.0704  -43.9245  -17.9297 H   0  0  0  0  0  0  0  0  0  0  0  0
  -12.0496  -42.4732  -17.0090 H   0  0  0  0  0  0  0  0  0  0  0  0
  -12.4131  -42.6606  -20.4341 H   0  0  0  0  0  0  0  0  0  0  0  0
  -13.2269  -43.3531  -22.6351 H   0  0  0  0  0  0  0  0  0  0  0  0
  -16.9509  -46.0530  -22.8371 H   0  0  0  0  0  0  0  0  0  0  0  0
  -19.1408  -47.4024  -22.1243 H   0  0  0  0  0  0  0  0  0  0  0  0
  -19.6001  -46.7542  -19.5271 H   0  0  0  0  0  0  0  0  0  0  0  0
  -17.4918  -45.2363  -18.7512 H   0  0  0  0  0  0  0  0  0  0  0  0
  -15.0185  -44.5574  -16.8786 H   0  0  0  0  0  0  0  0  0  0  0  0
  -14.4902  -45.4402  -15.4759 H   0  0  0  0  0  0  0  0  0  0  0  0
  -15.0501  -42.4232  -15.3025 H   0  0  0  0  0  0  0  0  0  0  0  0
  -16.2889  -43.5855  -14.9979 H   0  0  0  0  0  0  0  0  0  0  0  0
  -12.9367  -43.4034  -12.7019 H   0  0  0  0  0  0  0  0  0  0  0  0
  -13.2104  -44.9721  -13.4601 H   0  0  0  0  0  0  0  0  0  0  0  0
  -11.5185  -43.5752  -14.7272 H   0  0  0  0  0  0  0  0  0  0  0  0
  -12.7441  -42.3147  -14.9216 H   0  0  0  0  0  0  0  0  0  0  0  0
  3  2  1  0
  4  1  1  0
  4  9  2  0
  4  5  1  0
  5  6  2  0
  5 14  1  0
  6  7  1  0
  7  8  2  0
  8  9  1  0
 10 11  2  0
 10 14  1  0
 11 12  1  0
 12 13  2  0
 13 14  1  0
 15  3  1  0
 15 20  1  0
 15 16  1  0
 16 17  1  0
 17 18  1  0
 18 19  1  0
 19 20  1  0
  7  2  1  0
  1 21  1  0
  1 22  1  0
  2 23  1  0
  2 24  1  0
  3 25  1  0
  3 26  1  0
  8 27  1  0
  9 28  1  0
 10 29  1  0
 11 30  1  0
 12 31  1  0
 13 32  1  0
 16 33  1  0
 16 34  1  0
 17 35  1  0
 17 36  1  0
 19 37  1  0
 19 38  1  0
 20 39  1  0
 20 40  1  0
M  END
>  <smiles>  (156) 
[H]c1c(C([H])([H])C([H])([H])N2C([H])([H])C([H])([H])OC([H])([H])C2([H])[H])nc(-n2c([H])c([H])c([H])c2[H])c(N([H])[H])c1[H]

>  <error>  (156) 


>  <∆∆G>  (156) 
-293.176306

>  <∆G_bound>  (156) 
90.692806

>  <∆G_unbound>  (156) 
383.869112

>  <comRMSD>  (156) 
1.447346

>  <N_constrained_atoms>  (156) 
20.0

>  <N_unconstrained_atoms>  (156) 
0.0

>  <runtime>  (156) 
1.879103

>  <regarded>  (156) 
['d0472a', 'z0052a']

>  <disregarded>  (156) 
[]

>  <LE>  (156) 
14.658815

>  <outcome>  (156) 
too moved

>  <percent_hybrid>  (156) 
40.0

$$$$
LIG
     RDKit          3D

 39 41  0  0  0  0  0  0  0  0999 V2000
  -15.3133  -43.5727  -22.6184 N   0  0  0  0  0  0  0  0  0  0  0  0
  -15.2429  -43.8608  -21.2281 C   0  0  0  0  0  0  0  0  0  0  0  0
  -15.8511  -44.9528  -20.5996 C   0  0  0  0  0  0  0  0  0  0  0  0
  -15.6589  -45.2512  -19.2819 N   0  0  0  0  0  0  0  0  0  0  0  0
  -15.0375  -44.3227  -18.5297 C   0  0  0  0  0  0  0  0  0  0  0  0
  -14.5106  -43.1497  -19.0291 C   0  0  0  0  0  0  0  0  0  0  0  0
  -14.5886  -42.9263  -20.3983 C   0  0  0  0  0  0  0  0  0  0  0  0
  -17.5567  -45.4248  -22.3999 C   0  0  0  0  0  0  0  0  0  0  0  0
  -18.3774  -46.4748  -22.7255 C   0  0  0  0  0  0  0  0  0  0  0  0
  -18.2080  -47.4523  -21.7315 C   0  0  0  0  0  0  0  0  0  0  0  0
  -17.2807  -46.9775  -20.8331 C   0  0  0  0  0  0  0  0  0  0  0  0
  -16.8239  -45.7479  -21.2753 N   0  0  0  0  0  0  0  0  0  0  0  0
  -14.1764  -41.7346  -21.0059 N   0  0  0  0  0  0  0  0  0  0  0  0
  -13.0986  -41.1925  -20.9765 C   0  0  0  0  0  0  0  0  0  0  0  0
  -11.9567  -41.7635  -20.1306 C   0  0  0  0  0  0  0  0  0  0  0  0
  -12.5912  -39.9047  -21.7012 N   0  0  0  0  0  0  0  0  0  0  0  0
  -13.2869  -38.9634  -22.5215 C   0  0  0  0  0  0  0  0  0  0  0  0
  -13.0248  -37.5220  -22.2861 C   0  0  0  0  0  0  0  0  0  0  0  0
  -11.9232  -37.0299  -21.6358 N   0  0  0  0  0  0  0  0  0  0  0  0
  -12.0985  -35.6835  -21.4898 C   0  0  0  0  0  0  0  0  0  0  0  0
  -13.2708  -35.4007  -22.1429 C   0  0  0  0  0  0  0  0  0  0  0  0
  -13.8050  -36.5360  -22.6828 N   0  0  0  0  0  0  0  0  0  0  0  0
  -15.0571  -44.3827  -23.1806 H   0  0  0  0  0  0  0  0  0  0  0  0
  -14.6992  -42.7781  -22.8140 H   0  0  0  0  0  0  0  0  0  0  0  0
  -15.0241  -44.5294  -17.4624 H   0  0  0  0  0  0  0  0  0  0  0  0
  -14.0838  -42.4139  -18.3604 H   0  0  0  0  0  0  0  0  0  0  0  0
  -17.4550  -44.4682  -22.8902 H   0  0  0  0  0  0  0  0  0  0  0  0
  -19.0167  -46.5265  -23.5963 H   0  0  0  0  0  0  0  0  0  0  0  0
  -18.7103  -48.4039  -21.7066 H   0  0  0  0  0  0  0  0  0  0  0  0
  -16.8798  -47.4123  -19.9297 H   0  0  0  0  0  0  0  0  0  0  0  0
  -11.9884  -42.8520  -20.1188 H   0  0  0  0  0  0  0  0  0  0  0  0
  -10.9869  -41.4594  -20.5315 H   0  0  0  0  0  0  0  0  0  0  0  0
  -12.0409  -41.3783  -19.1105 H   0  0  0  0  0  0  0  0  0  0  0  0
  -11.6568  -39.6893  -21.3860 H   0  0  0  0  0  0  0  0  0  0  0  0
  -13.0931  -39.1836  -23.5720 H   0  0  0  0  0  0  0  0  0  0  0  0
  -14.3636  -39.1249  -22.3868 H   0  0  0  0  0  0  0  0  0  0  0  0
  -11.3942  -35.0700  -20.9494 H   0  0  0  0  0  0  0  0  0  0  0  0
  -13.7572  -34.4410  -22.2611 H   0  0  0  0  0  0  0  0  0  0  0  0
  -11.1579  -37.5661  -21.2544 H   0  0  0  0  0  0  0  0  0  0  0  0
  2  1  1  0
  2  7  2  0
  2  3  1  0
  3  4  2  0
  3 12  1  0
  4  5  1  0
  5  6  2  0
  6  7  1  0
  8  9  2  0
  8 12  1  0
  9 10  1  0
 10 11  2  0
 11 12  1  0
 15 14  1  0
 14 13  2  0
 16 14  1  0
 17 16  1  0
 18 17  1  0
 18 19  1  0
 18 22  2  0
 19 20  1  0
 20 21  2  0
 21 22  1  0
  7 13  1  0
  1 23  1  0
  1 24  1  0
  5 25  1  0
  6 26  1  0
  8 27  1  0
  9 28  1  0
 10 29  1  0
 11 30  1  0
 15 31  1  0
 15 32  1  0
 15 33  1  0
 16 34  1  0
 17 35  1  0
 17 36  1  0
 20 37  1  0
 21 38  1  0
 19 39  1  0
M  END
>  <smiles>  (157) 
[H]c1nc(C([H])([H])N([H])/C(=N/c2c([H])c([H])nc(-n3c([H])c([H])c([H])c3[H])c2N([H])[H])C([H])([H])[H])[nH]c1[H]

>  <error>  (157) 


>  <∆∆G>  (157) 
-22.252599

>  <∆G_bound>  (157) 
118.324338

>  <∆G_unbound>  (157) 
140.576937

>  <comRMSD>  (157) 
0.912561

>  <N_constrained_atoms>  (157) 
22.0

>  <N_unconstrained_atoms>  (157) 
0.0

>  <runtime>  (157) 
2.06733

>  <regarded>  (157) 
['d0472a', 'z0103a']

>  <disregarded>  (157) 
[]

>  <LE>  (157) 
1.011482

>  <outcome>  (157) 
acceptable

>  <percent_hybrid>  (157) 
46.0

$$$$

     RDKit          2D

  0  0  0  0  0  0  0  0  0  0999 V2000
M  END
>  <smiles>  (158) 
nan

>  <error>  (158) 
DistanceError 6.29 Å

>  <∆∆G>  (158) 
nan

>  <∆G_bound>  (158) 
nan

>  <∆G_unbound>  (158) 
nan

>  <comRMSD>  (158) 
nan

>  <N_constrained_atoms>  (158) 
nan

>  <N_unconstrained_atoms>  (158) 
nan

>  <runtime>  (158) 
nan

>  <regarded>  (158) 
[]

>  <disregarded>  (158) 
[]

>  <LE>  (158) 
nan

>  <outcome>  (158) 
too distant

>  <percent_hybrid>  (158) 
nan

$$$$

     RDKit          2D

  0  0  0  0  0  0  0  0  0  0999 V2000
M  END
>  <smiles>  (159) 
nan

>  <error>  (159) 
RecursionError maximum recursion depth exceeded while calling a Python object

>  <∆∆G>  (159) 
nan

>  <∆G_bound>  (159) 
nan

>  <∆G_unbound>  (159) 
nan

>  <comRMSD>  (159) 
nan

>  <N_constrained_atoms>  (159) 
nan

>  <N_unconstrained_atoms>  (159) 
nan

>  <runtime>  (159) 
nan

>  <regarded>  (159) 
[]

>  <disregarded>  (159) 
[]

>  <LE>  (159) 
nan

>  <outcome>  (159) 
crashed

>  <percent_hybrid>  (159) 
nan

$$$$
LIG
     RDKit          3D

 33 35  0  0  0  0  0  0  0  0999 V2000
  -15.4839  -44.0605  -22.8099 N   0  0  0  0  0  0  0  0  0  0  0  0
  -15.7149  -43.9425  -21.4160 C   0  0  0  0  0  0  0  0  0  0  0  0
  -16.5595  -44.7823  -20.6705 C   0  0  0  0  0  0  0  0  0  0  0  0
  -16.5539  -44.8900  -19.3096 N   0  0  0  0  0  0  0  0  0  0  0  0
  -15.7511  -44.0566  -18.6299 C   0  0  0  0  0  0  0  0  0  0  0  0
  -14.8750  -43.1973  -19.2476 C   0  0  0  0  0  0  0  0  0  0  0  0
  -14.7745  -43.2320  -20.6547 C   0  0  0  0  0  0  0  0  0  0  0  0
  -18.1292  -45.4539  -22.5020 C   0  0  0  0  0  0  0  0  0  0  0  0
  -18.6250  -46.6544  -22.9416 C   0  0  0  0  0  0  0  0  0  0  0  0
  -18.3875  -47.5950  -21.9217 C   0  0  0  0  0  0  0  0  0  0  0  0
  -17.6928  -46.9611  -20.9206 C   0  0  0  0  0  0  0  0  0  0  0  0
  -17.4236  -45.6777  -21.3402 N   0  0  0  0  0  0  0  0  0  0  0  0
  -12.4722  -43.5901  -20.4980 N   0  0  0  0  0  0  0  0  0  0  0  0
  -13.4568  -42.8765  -21.2805 C   0  0  0  0  0  0  0  0  0  0  0  0
  -13.1844  -41.4076  -21.2626 C   0  0  0  0  0  0  0  0  0  0  0  0
  -13.9570  -40.3638  -21.7254 C   0  0  0  0  0  0  0  0  0  0  0  0
  -13.1720  -39.2512  -21.6186 N   0  0  0  0  0  0  0  0  0  0  0  0
  -11.9584  -39.6379  -21.1297 C   0  0  0  0  0  0  0  0  0  0  0  0
  -11.9193  -40.9316  -20.9229 N   0  0  0  0  0  0  0  0  0  0  0  0
  -16.2675  -44.3810  -23.3627 H   0  0  0  0  0  0  0  0  0  0  0  0
  -14.7192  -44.7215  -22.9772 H   0  0  0  0  0  0  0  0  0  0  0  0
  -15.8066  -44.1289  -17.5475 H   0  0  0  0  0  0  0  0  0  0  0  0
  -14.1552  -42.6419  -18.6525 H   0  0  0  0  0  0  0  0  0  0  0  0
  -18.2055  -44.4658  -22.9338 H   0  0  0  0  0  0  0  0  0  0  0  0
  -19.1364  -46.8289  -23.8801 H   0  0  0  0  0  0  0  0  0  0  0  0
  -18.6805  -48.6304  -21.9457 H   0  0  0  0  0  0  0  0  0  0  0  0
  -17.2939  -47.3228  -19.9847 H   0  0  0  0  0  0  0  0  0  0  0  0
  -14.9605  -40.3311  -22.1267 H   0  0  0  0  0  0  0  0  0  0  0  0
  -11.1504  -38.9404  -20.9515 H   0  0  0  0  0  0  0  0  0  0  0  0
  -11.7455  -42.9000  -20.2745 H   0  0  0  0  0  0  0  0  0  0  0  0
  -11.9956  -44.2107  -21.1717 H   0  0  0  0  0  0  0  0  0  0  0  0
  -13.3722  -43.1988  -22.3200 H   0  0  0  0  0  0  0  0  0  0  0  0
  -13.4410  -38.3069  -21.8551 H   0  0  0  0  0  0  0  0  0  0  0  0
  2  1  1  0
  2  7  2  0
  2  3  1  0
  3  4  2  0
  3 12  1  0
  4  5  1  0
  5  6  2  0
  6  7  1  0
  8  9  2  0
  8 12  1  0
  9 10  1  0
 10 11  2  0
 11 12  1  0
 14 13  1  0
 15 14  1  0
 15 16  2  0
 15 19  1  0
 16 17  1  0
 17 18  1  0
 18 19  2  0
  7 14  1  0
  1 20  1  0
  1 21  1  0
  5 22  1  0
  6 23  1  0
  8 24  1  0
  9 25  1  0
 10 26  1  0
 11 27  1  0
 16 28  1  0
 18 29  1  0
 13 30  1  0
 13 31  1  0
 14 32  1  0
 17 33  1  0
M  END
>  <smiles>  (160) 
[H]c1nc(C(N)c2c([H])c([H])nc(-n3c([H])c([H])c([H])c3[H])c2N([H])[H])c([H])[nH]1

>  <error>  (160) 


>  <∆∆G>  (160) 
-53.262956

>  <∆G_bound>  (160) 
83.719973

>  <∆G_unbound>  (160) 
136.982929

>  <comRMSD>  (160) 
1.08008

>  <N_constrained_atoms>  (160) 
19.0

>  <N_unconstrained_atoms>  (160) 
0.0

>  <runtime>  (160) 
0.928626

>  <regarded>  (160) 
['d0472a', 'z0875c']

>  <disregarded>  (160) 
[]

>  <LE>  (160) 
2.803313

>  <outcome>  (160) 
too moved

>  <percent_hybrid>  (160) 
37.0

$$$$
LIG
     RDKit          3D

 55 57  0  0  0  0  0  0  0  0999 V2000
  -15.4169  -43.8052  -23.0550 N   0  0  0  0  0  0  0  0  0  0  0  0
  -13.4452  -42.1869  -18.8820 O   0  0  0  0  0  0  0  0  0  0  0  0
  -12.3923  -41.5217  -19.5681 C   0  0  0  0  0  0  0  0  0  0  0  0
  -19.2283  -46.4537  -24.2509 C   0  0  0  0  0  0  0  0  0  0  0  0
  -19.8398  -46.5661  -25.2856 C   0  0  0  0  0  0  0  0  0  0  0  0
  -20.5916  -46.7522  -26.5404 C   0  0  0  0  0  0  0  0  0  0  0  0
  -21.6171  -45.7720  -26.6535 O   0  0  0  0  0  0  0  0  0  0  0  0
  -15.9487  -43.5911  -14.4211 O   0  0  0  0  0  0  0  0  0  0  0  0
  -13.8819  -38.1540  -16.3975 O   0  0  0  0  0  0  0  0  0  0  0  0
  -14.0962  -44.4529  -16.8997 O   0  0  0  0  0  0  0  0  0  0  0  0
  -14.9623  -43.8685  -17.4299 C   0  0  0  0  0  0  0  0  0  0  0  0
  -16.0527  -42.9158  -16.8371 N   0  0  0  0  0  0  0  0  0  0  0  0
  -16.3917  -42.5226  -15.2785 S   0  0  0  0  0  0  0  0  0  0  0  0
  -17.7093  -41.9276  -15.2551 O   0  0  0  0  0  0  0  0  0  0  0  0
  -14.6333  -38.0661  -17.6015 C   0  0  0  0  0  0  0  0  0  0  0  0
  -14.5009  -43.0938  -23.9216 C   0  0  0  0  0  0  0  0  0  0  0  0
  -15.2719  -43.8446  -21.6627 C   0  0  0  0  0  0  0  0  0  0  0  0
  -16.0946  -44.6672  -20.8419 C   0  0  0  0  0  0  0  0  0  0  0  0
  -15.9724  -44.7460  -19.4803 N   0  0  0  0  0  0  0  0  0  0  0  0
  -15.0656  -43.8988  -18.9179 C   0  0  0  0  0  0  0  0  0  0  0  0
  -14.2384  -43.0227  -19.6155 C   0  0  0  0  0  0  0  0  0  0  0  0
  -14.3524  -43.0135  -21.0013 C   0  0  0  0  0  0  0  0  0  0  0  0
  -17.8280  -45.2046  -22.6133 C   0  0  0  0  0  0  0  0  0  0  0  0
  -18.5252  -46.3229  -22.9982 C   0  0  0  0  0  0  0  0  0  0  0  0
  -18.4084  -47.2451  -21.9318 C   0  0  0  0  0  0  0  0  0  0  0  0
  -17.5943  -46.6784  -20.9658 C   0  0  0  0  0  0  0  0  0  0  0  0
  -17.1236  -45.4714  -21.4490 N   0  0  0  0  0  0  0  0  0  0  0  0
  -13.4305  -39.2422  -14.3833 C   0  0  0  0  0  0  0  0  0  0  0  0
  -13.6142  -40.2668  -13.4559 C   0  0  0  0  0  0  0  0  0  0  0  0
  -14.5349  -41.2669  -13.7259 C   0  0  0  0  0  0  0  0  0  0  0  0
  -15.2634  -41.2222  -14.9206 C   0  0  0  0  0  0  0  0  0  0  0  0
  -15.1012  -40.1942  -15.8411 C   0  0  0  0  0  0  0  0  0  0  0  0
  -14.1685  -39.2032  -15.5731 C   0  0  0  0  0  0  0  0  0  0  0  0
  -15.5508  -44.7512  -23.4213 H   0  0  0  0  0  0  0  0  0  0  0  0
  -11.7407  -41.0629  -18.8185 H   0  0  0  0  0  0  0  0  0  0  0  0
  -11.7895  -42.2197  -20.1566 H   0  0  0  0  0  0  0  0  0  0  0  0
  -12.7904  -40.7215  -20.2002 H   0  0  0  0  0  0  0  0  0  0  0  0
  -21.0339  -47.7480  -26.6252 H   0  0  0  0  0  0  0  0  0  0  0  0
  -19.9326  -46.6276  -27.3973 H   0  0  0  0  0  0  0  0  0  0  0  0
  -22.4038  -46.1511  -26.2105 H   0  0  0  0  0  0  0  0  0  0  0  0
  -16.5989  -42.5127  -17.5926 H   0  0  0  0  0  0  0  0  0  0  0  0
  -15.7020  -37.9441  -17.3955 H   0  0  0  0  0  0  0  0  0  0  0  0
  -14.2972  -37.1736  -18.1384 H   0  0  0  0  0  0  0  0  0  0  0  0
  -14.4472  -38.9296  -18.2491 H   0  0  0  0  0  0  0  0  0  0  0  0
  -14.3818  -42.0451  -23.6357 H   0  0  0  0  0  0  0  0  0  0  0  0
  -13.5393  -43.6100  -23.9471 H   0  0  0  0  0  0  0  0  0  0  0  0
  -14.9097  -43.0989  -24.9357 H   0  0  0  0  0  0  0  0  0  0  0  0
  -13.7239  -42.3493  -21.5815 H   0  0  0  0  0  0  0  0  0  0  0  0
  -17.7473  -44.2444  -23.1038 H   0  0  0  0  0  0  0  0  0  0  0  0
  -18.8655  -48.2231  -21.8846 H   0  0  0  0  0  0  0  0  0  0  0  0
  -17.2508  -47.0602  -20.0151 H   0  0  0  0  0  0  0  0  0  0  0  0
  -12.7027  -38.4598  -14.1791 H   0  0  0  0  0  0  0  0  0  0  0  0
  -13.0356  -40.2844  -12.5364 H   0  0  0  0  0  0  0  0  0  0  0  0
  -14.6750  -42.0752  -13.0113 H   0  0  0  0  0  0  0  0  0  0  0  0
  -15.7005  -40.1911  -16.7425 H   0  0  0  0  0  0  0  0  0  0  0  0
  2  3  1  0
  6  7  1  0
  6  5  1  0
  5  4  3  0
 12 11  1  0
 12 13  1  0
 11 10  2  0
  8 13  2  0
 14 13  2  0
 15  9  1  0
 16  1  1  0
 17  1  1  0
 17 22  2  0
 17 18  1  0
 18 19  2  0
 18 27  1  0
 19 20  1  0
 20 21  2  0
 21 22  1  0
 23 24  2  0
 23 27  1  0
 24 25  1  0
 25 26  2  0
 26 27  1  0
 28 33  2  0
 28 29  1  0
 29 30  2  0
 30 31  1  0
 31 13  1  0
 31 32  2  0
 32 33  1  0
 33  9  1  0
  2 21  1  0
 11 20  1  0
  4 24  1  0
  1 34  1  0
  3 35  1  0
  3 36  1  0
  3 37  1  0
  6 38  1  0
  6 39  1  0
  7 40  1  0
 12 41  1  0
 15 42  1  0
 15 43  1  0
 15 44  1  0
 16 45  1  0
 16 46  1  0
 16 47  1  0
 22 48  1  0
 23 49  1  0
 25 50  1  0
 26 51  1  0
 28 52  1  0
 29 53  1  0
 30 54  1  0
 32 55  1  0
M  END
>  <smiles>  (161) 
[H]OC([H])([H])C#Cc1c([H])c([H])n(-c2nc(C(=O)N([H])S(=O)(=O)c3c([H])c([H])c([H])c(OC([H])([H])[H])c3[H])c(OC([H])([H])[H])c([H])c2N([H])C([H])([H])[H])c1[H]

>  <error>  (161) 


>  <∆∆G>  (161) 
-44.203716

>  <∆G_bound>  (161) 
39.287289

>  <∆G_unbound>  (161) 
83.491005

>  <comRMSD>  (161) 
0.852845

>  <N_constrained_atoms>  (161) 
33.0

>  <N_unconstrained_atoms>  (161) 
0.0

>  <runtime>  (161) 
3.171389

>  <regarded>  (161) 
['d0472a', '5i3p-a']

>  <disregarded>  (161) 
[]

>  <LE>  (161) 
1.339507

>  <outcome>  (161) 
equally sized

>  <percent_hybrid>  (161) 
37.0

$$$$
LIG
     RDKit          3D

 29 30  0  0  0  0  0  0  0  0999 V2000
  -14.8771  -43.9564  -22.4761 N   0  0  0  0  0  0  0  0  0  0  0  0
  -13.3118  -40.3446  -22.2954 O   0  0  0  0  0  0  0  0  0  0  0  0
  -15.0466  -40.5608  -20.9224 O   0  0  0  0  0  0  0  0  0  0  0  0
  -13.9836  -41.0047  -21.3259 C   0  0  0  0  0  0  0  0  0  0  0  0
  -13.2305  -42.2125  -20.8265 C   0  0  0  0  0  0  0  0  0  0  0  0
  -16.9673  -45.6475  -18.3394 O   0  0  0  0  0  0  0  0  0  0  0  0
  -14.9602  -44.0938  -21.0711 C   0  0  0  0  0  0  0  0  0  0  0  0
  -15.9324  -44.9106  -20.4391 C   0  0  0  0  0  0  0  0  0  0  0  0
  -15.9822  -44.9868  -19.0349 C   0  0  0  0  0  0  0  0  0  0  0  0
  -15.0930  -44.2639  -18.2528 C   0  0  0  0  0  0  0  0  0  0  0  0
  -14.1851  -43.4049  -18.8579 C   0  0  0  0  0  0  0  0  0  0  0  0
  -14.1404  -43.2769  -20.2551 C   0  0  0  0  0  0  0  0  0  0  0  0
  -17.5605  -45.2264  -22.3071 C   0  0  0  0  0  0  0  0  0  0  0  0
  -18.3930  -46.2310  -22.7380 C   0  0  0  0  0  0  0  0  0  0  0  0
  -18.2535  -47.3063  -21.8399 C   0  0  0  0  0  0  0  0  0  0  0  0
  -17.3104  -46.9392  -20.9086 C   0  0  0  0  0  0  0  0  0  0  0  0
  -16.8710  -45.6596  -21.1957 N   0  0  0  0  0  0  0  0  0  0  0  0
  -15.2117  -44.7784  -22.9758 H   0  0  0  0  0  0  0  0  0  0  0  0
  -13.9209  -43.7847  -22.7888 H   0  0  0  0  0  0  0  0  0  0  0  0
  -13.9283  -39.6183  -22.5260 H   0  0  0  0  0  0  0  0  0  0  0  0
  -12.6446  -42.6441  -21.6359 H   0  0  0  0  0  0  0  0  0  0  0  0
  -12.5103  -41.8656  -20.0760 H   0  0  0  0  0  0  0  0  0  0  0  0
  -17.7767  -45.6087  -18.8852 H   0  0  0  0  0  0  0  0  0  0  0  0
  -15.1646  -44.2987  -17.1682 H   0  0  0  0  0  0  0  0  0  0  0  0
  -13.5445  -42.7891  -18.2289 H   0  0  0  0  0  0  0  0  0  0  0  0
  -17.4168  -44.2267  -22.6974 H   0  0  0  0  0  0  0  0  0  0  0  0
  -19.0217  -46.1894  -23.6178 H   0  0  0  0  0  0  0  0  0  0  0  0
  -18.7593  -48.2594  -21.9038 H   0  0  0  0  0  0  0  0  0  0  0  0
  -16.8884  -47.5014  -20.0883 H   0  0  0  0  0  0  0  0  0  0  0  0
  5  4  1  0
  3  4  2  0
  4  2  1  0
  7  1  1  0
  7 12  2  0
  7  8  1  0
  8  9  2  0
  8 17  1  0
  9 10  1  0
 10 11  2  0
 11 12  1  0
 13 14  2  0
 13 17  1  0
 14 15  1  0
 15 16  2  0
 16 17  1  0
  5 12  1  0
  6  9  1  0
  1 18  1  0
  1 19  1  0
  2 20  1  0
  5 21  1  0
  5 22  1  0
  6 23  1  0
 10 24  1  0
 11 25  1  0
 13 26  1  0
 14 27  1  0
 15 28  1  0
 16 29  1  0
M  END
>  <smiles>  (162) 
[H]OC(=O)C([H])([H])c1c([H])c([H])c(O[H])c(-n2c([H])c([H])c([H])c2[H])c1N([H])[H]

>  <error>  (162) 


>  <∆∆G>  (162) 
-70.452006

>  <∆G_bound>  (162) 
-95.555347

>  <∆G_unbound>  (162) 
-25.103341

>  <comRMSD>  (162) 
0.805907

>  <N_constrained_atoms>  (162) 
17.0

>  <N_unconstrained_atoms>  (162) 
0.0

>  <runtime>  (162) 
1.391452

>  <regarded>  (162) 
['d0472a', '5hn0-a']

>  <disregarded>  (162) 
[]

>  <LE>  (162) 
4.144236

>  <outcome>  (162) 
equally sized

>  <percent_hybrid>  (162) 
30.0

$$$$
LIG
     RDKit          3D

 30 31  0  0  0  0  0  0  0  0999 V2000
  -15.4078  -43.7682  -22.9009 N   0  0  0  0  0  0  0  0  0  0  0  0
  -14.6325  -43.7515  -17.2633 C   0  0  0  0  0  0  0  0  0  0  0  0
  -15.2971  -41.7361  -16.0930 O   0  0  0  0  0  0  0  0  0  0  0  0
  -15.6016  -42.7522  -16.6987 C   0  0  0  0  0  0  0  0  0  0  0  0
  -16.8918  -43.1028  -16.8603 O   0  0  0  0  0  0  0  0  0  0  0  0
  -14.5248  -43.0947  -23.8332 C   0  0  0  0  0  0  0  0  0  0  0  0
  -15.1175  -43.8053  -21.5264 C   0  0  0  0  0  0  0  0  0  0  0  0
  -15.7597  -44.6975  -20.6358 C   0  0  0  0  0  0  0  0  0  0  0  0
  -15.4923  -44.7863  -19.2968 N   0  0  0  0  0  0  0  0  0  0  0  0
  -14.6890  -43.8407  -18.7628 C   0  0  0  0  0  0  0  0  0  0  0  0
  -14.0183  -42.9132  -19.5471 C   0  0  0  0  0  0  0  0  0  0  0  0
  -14.2325  -42.9059  -20.9265 C   0  0  0  0  0  0  0  0  0  0  0  0
  -17.6677  -45.3826  -22.1402 C   0  0  0  0  0  0  0  0  0  0  0  0
  -18.3023  -46.5660  -22.4175 C   0  0  0  0  0  0  0  0  0  0  0  0
  -17.8558  -47.4986  -21.4647 C   0  0  0  0  0  0  0  0  0  0  0  0
  -16.9966  -46.8526  -20.6068 C   0  0  0  0  0  0  0  0  0  0  0  0
  -16.7642  -45.5888  -21.1133 N   0  0  0  0  0  0  0  0  0  0  0  0
  -15.5754  -44.7182  -23.2373 H   0  0  0  0  0  0  0  0  0  0  0  0
  -13.6201  -43.4829  -16.9392 H   0  0  0  0  0  0  0  0  0  0  0  0
  -14.8558  -44.7230  -16.8089 H   0  0  0  0  0  0  0  0  0  0  0  0
  -17.4089  -42.4764  -16.3096 H   0  0  0  0  0  0  0  0  0  0  0  0
  -14.3899  -42.0370  -23.5912 H   0  0  0  0  0  0  0  0  0  0  0  0
  -13.5653  -43.6144  -23.8805 H   0  0  0  0  0  0  0  0  0  0  0  0
  -14.9730  -43.1373  -24.8305 H   0  0  0  0  0  0  0  0  0  0  0  0
  -13.3582  -42.1736  -19.1023 H   0  0  0  0  0  0  0  0  0  0  0  0
  -13.6976  -42.1665  -21.5131 H   0  0  0  0  0  0  0  0  0  0  0  0
  -17.7646  -44.4112  -22.6063 H   0  0  0  0  0  0  0  0  0  0  0  0
  -18.9909  -46.7470  -23.2294 H   0  0  0  0  0  0  0  0  0  0  0  0
  -18.1269  -48.5382  -21.4371 H   0  0  0  0  0  0  0  0  0  0  0  0
  -16.4512  -47.2024  -19.7423 H   0  0  0  0  0  0  0  0  0  0  0  0
  2  4  1  0
  3  4  2  0
  4  5  1  0
  6  1  1  0
  7  1  1  0
  7 12  2  0
  7  8  1  0
  8  9  2  0
  8 17  1  0
  9 10  1  0
 10 11  2  0
 11 12  1  0
 13 14  2  0
 13 17  1  0
 14 15  1  0
 15 16  2  0
 16 17  1  0
  2 10  1  0
  1 18  1  0
  2 19  1  0
  2 20  1  0
  5 21  1  0
  6 22  1  0
  6 23  1  0
  6 24  1  0
 11 25  1  0
 12 26  1  0
 13 27  1  0
 14 28  1  0
 15 29  1  0
 16 30  1  0
M  END
>  <smiles>  (163) 
[H]OC(=O)C([H])([H])c1nc(-n2c([H])c([H])c([H])c2[H])c(N([H])C([H])([H])[H])c([H])c1[H]

>  <error>  (163) 


>  <∆∆G>  (163) 
-35.306833

>  <∆G_bound>  (163) 
-20.485683

>  <∆G_unbound>  (163) 
14.82115

>  <comRMSD>  (163) 
0.881052

>  <N_constrained_atoms>  (163) 
17.0

>  <N_unconstrained_atoms>  (163) 
0.0

>  <runtime>  (163) 
1.430986

>  <regarded>  (163) 
['d0472a', '5f41-a']

>  <disregarded>  (163) 
[]

>  <LE>  (163) 
2.076873

>  <outcome>  (163) 
equally sized

>  <percent_hybrid>  (163) 
30.0

$$$$
LIG
     RDKit          3D

 30 31  0  0  0  0  0  0  0  0999 V2000
  -15.5172  -43.0670  -22.4961 N   0  0  0  0  0  0  0  0  0  0  0  0
  -14.5099  -43.7192  -16.9395 C   0  0  0  0  0  0  0  0  0  0  0  0
  -16.2001  -42.5999  -15.6228 O   0  0  0  0  0  0  0  0  0  0  0  0
  -14.4246  -41.4012  -16.2973 O   0  0  0  0  0  0  0  0  0  0  0  0
  -15.0259  -42.4683  -16.2714 C   0  0  0  0  0  0  0  0  0  0  0  0
  -14.6506  -43.8494  -23.3706 C   0  0  0  0  0  0  0  0  0  0  0  0
  -15.2466  -43.3244  -21.1304 C   0  0  0  0  0  0  0  0  0  0  0  0
  -15.7355  -44.4074  -20.3717 C   0  0  0  0  0  0  0  0  0  0  0  0
  -15.4179  -44.5986  -19.0441 N   0  0  0  0  0  0  0  0  0  0  0  0
  -14.6291  -43.6724  -18.4427 C   0  0  0  0  0  0  0  0  0  0  0  0
  -13.9977  -42.6657  -19.1571 C   0  0  0  0  0  0  0  0  0  0  0  0
  -14.3097  -42.4975  -20.4995 C   0  0  0  0  0  0  0  0  0  0  0  0
  -17.4885  -45.2355  -22.0121 C   0  0  0  0  0  0  0  0  0  0  0  0
  -18.1135  -46.4357  -22.2520 C   0  0  0  0  0  0  0  0  0  0  0  0
  -17.6603  -47.3371  -21.2721 C   0  0  0  0  0  0  0  0  0  0  0  0
  -16.8182  -46.6496  -20.4297 C   0  0  0  0  0  0  0  0  0  0  0  0
  -16.6382  -45.3685  -20.9307 N   0  0  0  0  0  0  0  0  0  0  0  0
  -15.3757  -42.0763  -22.6930 H   0  0  0  0  0  0  0  0  0  0  0  0
  -13.4587  -43.8310  -16.6501 H   0  0  0  0  0  0  0  0  0  0  0  0
  -15.0288  -44.5964  -16.5431 H   0  0  0  0  0  0  0  0  0  0  0  0
  -16.6360  -43.4776  -15.6375 H   0  0  0  0  0  0  0  0  0  0  0  0
  -13.5920  -43.7019  -23.1416 H   0  0  0  0  0  0  0  0  0  0  0  0
  -14.8903  -44.9088  -23.2782 H   0  0  0  0  0  0  0  0  0  0  0  0
  -14.8239  -43.5528  -24.4091 H   0  0  0  0  0  0  0  0  0  0  0  0
  -13.3213  -41.9661  -18.6718 H   0  0  0  0  0  0  0  0  0  0  0  0
  -13.8341  -41.6858  -21.0444 H   0  0  0  0  0  0  0  0  0  0  0  0
  -17.5843  -44.2944  -22.5335 H   0  0  0  0  0  0  0  0  0  0  0  0
  -18.7948  -46.6451  -23.0657 H   0  0  0  0  0  0  0  0  0  0  0  0
  -17.9179  -48.3801  -21.2083 H   0  0  0  0  0  0  0  0  0  0  0  0
  -16.2745  -46.9686  -19.5525 H   0  0  0  0  0  0  0  0  0  0  0  0
  4  5  2  0
  2  5  1  0
  5  3  1  0
  6  1  1  0
  7  1  1  0
  7 12  2  0
  7  8  1  0
  8  9  2  0
  8 17  1  0
  9 10  1  0
 10 11  2  0
 11 12  1  0
 13 14  2  0
 13 17  1  0
 14 15  1  0
 15 16  2  0
 16 17  1  0
  2 10  1  0
  1 18  1  0
  2 19  1  0
  2 20  1  0
  3 21  1  0
  6 22  1  0
  6 23  1  0
  6 24  1  0
 11 25  1  0
 12 26  1  0
 13 27  1  0
 14 28  1  0
 15 29  1  0
 16 30  1  0
M  END
>  <smiles>  (164) 
[H]OC(=O)C([H])([H])c1nc(-n2c([H])c([H])c([H])c2[H])c(N([H])C([H])([H])[H])c([H])c1[H]

>  <error>  (164) 


>  <∆∆G>  (164) 
-133.771118

>  <∆G_bound>  (164) 
23.254762

>  <∆G_unbound>  (164) 
157.02588

>  <comRMSD>  (164) 
1.335532

>  <N_constrained_atoms>  (164) 
17.0

>  <N_unconstrained_atoms>  (164) 
0.0

>  <runtime>  (164) 
1.328192

>  <regarded>  (164) 
['d0472a', '6h80-a']

>  <disregarded>  (164) 
[]

>  <LE>  (164) 
7.868889

>  <outcome>  (164) 
equally sized

>  <percent_hybrid>  (164) 
30.0

$$$$
LIG
     RDKit          3D

 39 40  0  0  0  0  0  0  0  0999 V2000
  -15.0175  -43.8035  -22.9715 N   0  0  0  0  0  0  0  0  0  0  0  0
  -13.4936  -41.8191  -21.4513 C   0  0  0  0  0  0  0  0  0  0  0  0
  -14.4137  -40.1179  -19.9198 O   0  0  0  0  0  0  0  0  0  0  0  0
  -12.8837  -39.5254  -21.4163 O   0  0  0  0  0  0  0  0  0  0  0  0
  -13.6786  -40.4527  -20.8330 C   0  0  0  0  0  0  0  0  0  0  0  0
  -19.1725  -46.3560  -24.2007 C   0  0  0  0  0  0  0  0  0  0  0  0
  -19.8038  -46.4881  -25.2208 C   0  0  0  0  0  0  0  0  0  0  0  0
  -20.5638  -46.7243  -26.4624 C   0  0  0  0  0  0  0  0  0  0  0  0
  -21.6747  -45.8408  -26.5417 O   0  0  0  0  0  0  0  0  0  0  0  0
  -16.1442  -42.8705  -15.5253 O   0  0  0  0  0  0  0  0  0  0  0  0
  -17.3597  -43.1081  -17.3807 O   0  0  0  0  0  0  0  0  0  0  0  0
  -15.0929  -44.0405  -17.2935 C   0  0  0  0  0  0  0  0  0  0  0  0
  -16.3018  -43.2875  -16.8010 C   0  0  0  0  0  0  0  0  0  0  0  0
  -15.0295  -43.8823  -21.5607 C   0  0  0  0  0  0  0  0  0  0  0  0
  -15.8564  -44.7718  -20.8315 C   0  0  0  0  0  0  0  0  0  0  0  0
  -15.7585  -44.9406  -19.4772 N   0  0  0  0  0  0  0  0  0  0  0  0
  -14.9959  -44.0548  -18.7953 C   0  0  0  0  0  0  0  0  0  0  0  0
  -14.2383  -43.0785  -19.4235 C   0  0  0  0  0  0  0  0  0  0  0  0
  -14.2828  -42.9469  -20.8146 C   0  0  0  0  0  0  0  0  0  0  0  0
  -17.5703  -45.2261  -22.6513 C   0  0  0  0  0  0  0  0  0  0  0  0
  -18.4179  -46.2598  -22.9772 C   0  0  0  0  0  0  0  0  0  0  0  0
  -18.3689  -47.1758  -21.9018 C   0  0  0  0  0  0  0  0  0  0  0  0
  -17.4685  -46.6864  -20.9757 C   0  0  0  0  0  0  0  0  0  0  0  0
  -16.8971  -45.5270  -21.4766 N   0  0  0  0  0  0  0  0  0  0  0  0
  -14.1044  -43.5249  -23.3298 H   0  0  0  0  0  0  0  0  0  0  0  0
  -15.2387  -44.6988  -23.4062 H   0  0  0  0  0  0  0  0  0  0  0  0
  -13.7757  -41.6906  -22.4996 H   0  0  0  0  0  0  0  0  0  0  0  0
  -12.4317  -42.0777  -21.3886 H   0  0  0  0  0  0  0  0  0  0  0  0
  -13.1114  -38.7067  -20.9266 H   0  0  0  0  0  0  0  0  0  0  0  0
  -20.9145  -47.7555  -26.5512 H   0  0  0  0  0  0  0  0  0  0  0  0
  -19.9454  -46.5369  -27.3381 H   0  0  0  0  0  0  0  0  0  0  0  0
  -22.4320  -46.2984  -26.1237 H   0  0  0  0  0  0  0  0  0  0  0  0
  -17.0570  -42.6182  -15.2548 H   0  0  0  0  0  0  0  0  0  0  0  0
  -14.1885  -43.5915  -16.8660 H   0  0  0  0  0  0  0  0  0  0  0  0
  -15.1531  -45.0690  -16.9278 H   0  0  0  0  0  0  0  0  0  0  0  0
  -13.6571  -42.3805  -18.8251 H   0  0  0  0  0  0  0  0  0  0  0  0
  -17.3895  -44.2961  -23.1716 H   0  0  0  0  0  0  0  0  0  0  0  0
  -18.9293  -48.0961  -21.8201 H   0  0  0  0  0  0  0  0  0  0  0  0
  -17.1494  -47.0799  -20.0216 H   0  0  0  0  0  0  0  0  0  0  0  0
  2  5  1  0
  3  5  2  0
  5  4  1  0
  9  8  1  0
  8  7  1  0
  7  6  3  0
 12 13  1  0
 11 13  2  0
 13 10  1  0
 14  1  1  0
 14 19  2  0
 14 15  1  0
 15 16  2  0
 15 24  1  0
 16 17  1  0
 17 18  2  0
 18 19  1  0
 20 21  2  0
 20 24  1  0
 21 22  1  0
 22 23  2  0
 23 24  1  0
  2 19  1  0
 12 17  1  0
  6 21  1  0
  1 25  1  0
  1 26  1  0
  2 27  1  0
  2 28  1  0
  4 29  1  0
  8 30  1  0
  8 31  1  0
  9 32  1  0
 10 33  1  0
 12 34  1  0
 12 35  1  0
 18 36  1  0
 20 37  1  0
 22 38  1  0
 23 39  1  0
M  END
>  <smiles>  (165) 
[H]OC(=O)C([H])([H])c1nc(-n2c([H])c([H])c(C#CC([H])([H])O[H])c2[H])c(N([H])[H])c(C([H])([H])C(=O)O[H])c1[H]

>  <error>  (165) 


>  <∆∆G>  (165) 
-163.180922

>  <∆G_bound>  (165) 
-17.330012

>  <∆G_unbound>  (165) 
145.85091

>  <comRMSD>  (165) 
0.856095

>  <N_constrained_atoms>  (165) 
24.0

>  <N_unconstrained_atoms>  (165) 
0.0

>  <runtime>  (165) 
2.204476

>  <regarded>  (165) 
['d0472a', '5hmy-a']

>  <disregarded>  (165) 
[]

>  <LE>  (165) 
6.799205

>  <outcome>  (165) 
acceptable

>  <percent_hybrid>  (165) 
50.0

$$$$
LIG
     RDKit          3D

 41 44  0  0  0  0  0  0  0  0999 V2000
  -17.5408  -38.3959  -27.4448 C   0  0  0  0  0  0  0  0  0  0  0  0
  -16.9226  -39.6451  -26.9350 C   0  0  0  0  0  0  0  0  0  0  0  0
  -17.1637  -40.7671  -27.3584 O   0  0  0  0  0  0  0  0  0  0  0  0
  -16.1089  -39.2723  -25.8795 O   0  0  0  0  0  0  0  0  0  0  0  0
  -15.7068  -43.3271  -21.3742 C   0  0  1  0  0  0  0  0  0  0  0  0
  -15.4057  -44.7623  -20.8188 C   0  0  1  0  0  0  0  0  0  0  0  0
  -14.7612  -44.8441  -19.4751 N   0  0  0  0  0  0  0  0  0  0  0  0
  -13.9838  -43.6421  -19.2027 C   0  0  0  0  0  0  0  0  0  0  0  0
  -14.8849  -42.4099  -19.1516 C   0  0  0  0  0  0  0  0  0  0  0  0
  -16.0359  -42.4177  -20.1789 C   0  0  0  0  0  0  0  0  0  0  0  0
  -17.8566  -45.4268  -20.4542 C   0  0  0  0  0  0  0  0  0  0  0  0
  -18.5962  -46.5283  -20.8257 C   0  0  0  0  0  0  0  0  0  0  0  0
  -17.6871  -47.5328  -21.2002 C   0  0  0  0  0  0  0  0  0  0  0  0
  -16.4292  -47.0313  -20.9846 C   0  0  0  0  0  0  0  0  0  0  0  0
  -16.5391  -45.6897  -20.7256 N   0  0  0  0  0  0  0  0  0  0  0  0
  -14.4857  -42.7429  -21.9365 O   0  0  0  0  0  0  0  0  0  0  0  0
  -14.8600  -41.8732  -22.9293 C   0  0  0  0  0  0  0  0  0  0  0  0
  -16.0893  -42.0828  -23.5376 C   0  0  0  0  0  0  0  0  0  0  0  0
  -16.9932  -43.3130  -22.7055 S   0  0  0  0  0  0  0  0  0  0  0  0
  -15.7081  -40.2351  -24.9545 C   0  0  0  0  0  0  0  0  0  0  0  0
  -16.5315  -41.2832  -24.5665 C   0  0  0  0  0  0  0  0  0  0  0  0
  -14.0673  -40.8009  -23.2778 C   0  0  0  0  0  0  0  0  0  0  0  0
  -14.4978  -39.9759  -24.3083 C   0  0  0  0  0  0  0  0  0  0  0  0
  -18.1928  -38.6727  -28.2659 H   0  0  0  0  0  0  0  0  0  0  0  0
  -18.1468  -37.9284  -26.6646 H   0  0  0  0  0  0  0  0  0  0  0  0
  -16.7621  -37.7128  -27.7888 H   0  0  0  0  0  0  0  0  0  0  0  0
  -14.7148  -45.2108  -21.5427 H   0  0  0  0  0  0  0  0  0  0  0  0
  -14.1246  -45.6373  -19.4969 H   0  0  0  0  0  0  0  0  0  0  0  0
  -13.4781  -43.7387  -18.2363 H   0  0  0  0  0  0  0  0  0  0  0  0
  -13.1869  -43.5224  -19.9463 H   0  0  0  0  0  0  0  0  0  0  0  0
  -15.3210  -42.3088  -18.1497 H   0  0  0  0  0  0  0  0  0  0  0  0
  -14.2651  -41.5180  -19.3063 H   0  0  0  0  0  0  0  0  0  0  0  0
  -16.2144  -41.3808  -20.4913 H   0  0  0  0  0  0  0  0  0  0  0  0
  -16.9518  -42.7434  -19.6756 H   0  0  0  0  0  0  0  0  0  0  0  0
  -18.1924  -44.4664  -20.0917 H   0  0  0  0  0  0  0  0  0  0  0  0
  -19.6738  -46.5985  -20.8069 H   0  0  0  0  0  0  0  0  0  0  0  0
  -17.9140  -48.5231  -21.5678 H   0  0  0  0  0  0  0  0  0  0  0  0
  -15.4607  -47.4744  -21.1154 H   0  0  0  0  0  0  0  0  0  0  0  0
  -17.5097  -41.4472  -25.0017 H   0  0  0  0  0  0  0  0  0  0  0  0
  -13.1416  -40.6010  -22.7504 H   0  0  0  0  0  0  0  0  0  0  0  0
  -13.8947  -39.1305  -24.6098 H   0  0  0  0  0  0  0  0  0  0  0  0
  4  2  1  0
  2  3  2  0
  2  1  1  0
  5 10  1  0
  5  6  1  0
  6  7  1  0
  6 15  1  0
  7  8  1  0
  8  9  1  0
  9 10  1  0
 11 12  2  0
 11 15  1  0
 12 13  1  0
 13 14  2  0
 14 15  1  0
 16 17  1  0
 17 22  2  0
 17 18  1  0
 18 19  1  0
 18 21  2  0
 20 23  2  0
 20 21  1  0
 20  4  1  0
 22 23  1  0
  5 16  1  6
  5 19  1  0
  1 24  1  0
  1 25  1  0
  1 26  1  0
  6 27  1  6
  7 28  1  0
  8 29  1  0
  8 30  1  0
  9 31  1  0
  9 32  1  0
 10 33  1  0
 10 34  1  0
 11 35  1  0
 12 36  1  0
 13 37  1  0
 14 38  1  0
 21 39  1  0
 22 40  1  0
 23 41  1  0
M  END
>  <smiles>  (166) 
[H]c1c([H])c2c(c([H])c1OC(=O)C([H])([H])[H])S[C@@]1(O2)C([H])([H])C([H])([H])C([H])([H])N([H])[C@@]1([H])n1c([H])c([H])c([H])c1[H]

>  <error>  (166) 


>  <∆∆G>  (166) 
-254.878769

>  <∆G_bound>  (166) 
281.278048

>  <∆G_unbound>  (166) 
536.156817

>  <comRMSD>  (166) 
1.053244

>  <N_constrained_atoms>  (166) 
23.0

>  <N_unconstrained_atoms>  (166) 
0.0

>  <runtime>  (166) 
2.606236

>  <regarded>  (166) 
['d0472a', '6izx-a']

>  <disregarded>  (166) 
[]

>  <LE>  (166) 
11.081686

>  <outcome>  (166) 
too moved

>  <percent_hybrid>  (166) 
48.0

$$$$
LIG
     RDKit          3D

 55 58  0  0  0  0  0  0  0  0999 V2000
  -15.5834  -43.3407  -23.0694 N   0  0  0  0  0  0  0  0  0  0  0  0
  -21.7534  -45.8815  -26.6443 O   0  0  0  0  0  0  0  0  0  0  0  0
  -19.2565  -46.4690  -24.3177 C   0  0  0  0  0  0  0  0  0  0  0  0
  -19.8866  -46.5802  -25.3406 C   0  0  0  0  0  0  0  0  0  0  0  0
  -20.6452  -46.7728  -26.5879 C   0  0  0  0  0  0  0  0  0  0  0  0
  -16.5684  -43.5928  -17.3067 O   0  0  0  0  0  0  0  0  0  0  0  0
  -15.4287  -44.0733  -14.4696 O   0  0  0  0  0  0  0  0  0  0  0  0
  -15.4354  -43.7426  -17.5613 C   0  0  0  0  0  0  0  0  0  0  0  0
  -13.0707  -44.8595  -14.6294 O   0  0  0  0  0  0  0  0  0  0  0  0
  -14.1002  -43.9122  -14.9866 S   0  0  0  0  0  0  0  0  0  0  0  0
  -14.1934  -43.8572  -16.6197 N   0  0  0  0  0  0  0  0  0  0  0  0
  -13.3455  -42.0028  -18.9221 C   0  0  0  0  0  0  0  0  0  0  0  0
  -14.4845  -43.0735  -23.9753 C   0  0  0  0  0  0  0  0  0  0  0  0
  -15.2819  -43.6755  -21.7420 C   0  0  0  0  0  0  0  0  0  0  0  0
  -16.0263  -44.6186  -21.0058 C   0  0  0  0  0  0  0  0  0  0  0  0
  -15.8638  -44.7809  -19.6657 N   0  0  0  0  0  0  0  0  0  0  0  0
  -15.0748  -43.8838  -19.0082 C   0  0  0  0  0  0  0  0  0  0  0  0
  -14.2390  -42.9692  -19.6381 C   0  0  0  0  0  0  0  0  0  0  0  0
  -14.3392  -42.9093  -21.0310 C   0  0  0  0  0  0  0  0  0  0  0  0
  -17.6965  -45.2539  -22.8214 C   0  0  0  0  0  0  0  0  0  0  0  0
  -18.5159  -46.3227  -23.0900 C   0  0  0  0  0  0  0  0  0  0  0  0
  -18.4473  -47.1715  -21.9645 C   0  0  0  0  0  0  0  0  0  0  0  0
  -17.5723  -46.5963  -21.0610 C   0  0  0  0  0  0  0  0  0  0  0  0
  -17.0387  -45.4419  -21.6204 N   0  0  0  0  0  0  0  0  0  0  0  0
  -14.5955  -41.4892  -13.8599 C   0  0  0  0  0  0  0  0  0  0  0  0
  -14.2462  -40.2185  -13.4378 C   0  0  0  0  0  0  0  0  0  0  0  0
  -12.9581  -39.7608  -13.6836 C   0  0  0  0  0  0  0  0  0  0  0  0
  -12.0208  -40.5723  -14.3519 C   0  0  0  0  0  0  0  0  0  0  0  0
  -12.3610  -41.8649  -14.8010 C   0  0  0  0  0  0  0  0  0  0  0  0
  -13.6493  -42.2871  -14.5312 C   0  0  0  0  0  0  0  0  0  0  0  0
  -10.7162  -40.1224  -14.5741 C   0  0  0  0  0  0  0  0  0  0  0  0
   -9.7874  -40.9566  -15.1800 C   0  0  0  0  0  0  0  0  0  0  0  0
  -10.2048  -42.2081  -15.5757 C   0  0  0  0  0  0  0  0  0  0  0  0
  -11.4722  -42.6465  -15.4557 N   0  0  0  0  0  0  0  0  0  0  0  0
  -16.2378  -42.5573  -23.0725 H   0  0  0  0  0  0  0  0  0  0  0  0
  -22.5247  -46.3659  -26.2900 H   0  0  0  0  0  0  0  0  0  0  0  0
  -21.0028  -47.7994  -26.7029 H   0  0  0  0  0  0  0  0  0  0  0  0
  -20.0146  -46.5525  -27.4472 H   0  0  0  0  0  0  0  0  0  0  0  0
  -13.3470  -43.8997  -17.1777 H   0  0  0  0  0  0  0  0  0  0  0  0
  -12.4579  -42.5155  -18.5400 H   0  0  0  0  0  0  0  0  0  0  0  0
  -12.9985  -41.2096  -19.5939 H   0  0  0  0  0  0  0  0  0  0  0  0
  -13.8727  -41.5067  -18.1016 H   0  0  0  0  0  0  0  0  0  0  0  0
  -14.0895  -42.0670  -23.8173 H   0  0  0  0  0  0  0  0  0  0  0  0
  -13.6916  -43.8220  -23.8860 H   0  0  0  0  0  0  0  0  0  0  0  0
  -14.8706  -43.1084  -24.9966 H   0  0  0  0  0  0  0  0  0  0  0  0
  -13.7388  -42.1739  -21.5618 H   0  0  0  0  0  0  0  0  0  0  0  0
  -17.5288  -44.3855  -23.4333 H   0  0  0  0  0  0  0  0  0  0  0  0
  -18.9780  -48.1028  -21.8298 H   0  0  0  0  0  0  0  0  0  0  0  0
  -17.2513  -46.9245  -20.0826 H   0  0  0  0  0  0  0  0  0  0  0  0
  -15.6020  -41.8569  -13.6610 H   0  0  0  0  0  0  0  0  0  0  0  0
  -14.9670  -39.5940  -12.9159 H   0  0  0  0  0  0  0  0  0  0  0  0
  -12.6805  -38.7655  -13.3410 H   0  0  0  0  0  0  0  0  0  0  0  0
  -10.4043  -39.1344  -14.2428 H   0  0  0  0  0  0  0  0  0  0  0  0
   -8.7574  -40.6451  -15.3138 H   0  0  0  0  0  0  0  0  0  0  0  0
   -9.5015  -42.9243  -15.9855 H   0  0  0  0  0  0  0  0  0  0  0  0
  2  5  1  0
  5  4  1  0
  4  3  3  0
  6  8  2  0
  8 11  1  0
  7 10  2  0
 11 10  1  0
 10  9  2  0
 13  1  1  0
 14  1  1  0
 14 19  2  0
 14 15  1  0
 15 16  2  0
 15 24  1  0
 16 17  1  0
 17 18  2  0
 18 19  1  0
 20 21  2  0
 20 24  1  0
 21 22  1  0
 22 23  2  0
 23 24  1  0
 25 30  2  0
 25 26  1  0
 26 27  2  0
 27 28  1  0
 28 29  2  0
 28 31  1  0
 29 30  1  0
 29 34  1  0
 30 10  1  0
 31 32  2  0
 32 33  1  0
 33 34  2  0
  8 17  1  0
 12 18  1  0
  3 21  1  0
  1 35  1  0
  2 36  1  0
  5 37  1  0
  5 38  1  0
 11 39  1  0
 12 40  1  0
 12 41  1  0
 12 42  1  0
 13 43  1  0
 13 44  1  0
 13 45  1  0
 19 46  1  0
 20 47  1  0
 22 48  1  0
 23 49  1  0
 25 50  1  0
 26 51  1  0
 27 52  1  0
 31 53  1  0
 32 54  1  0
 33 55  1  0
M  END
>  <smiles>  (167) 
[H]OC([H])([H])C#Cc1c([H])c([H])n(-c2nc(C(=O)N([H])S(=O)(=O)c3c([H])c([H])c([H])c4c([H])c([H])c([H])nc34)c(C([H])([H])[H])c([H])c2N([H])C([H])([H])[H])c1[H]

>  <error>  (167) 


>  <∆∆G>  (167) 
-73.002514

>  <∆G_bound>  (167) 
23.061329

>  <∆G_unbound>  (167) 
96.063843

>  <comRMSD>  (167) 
0.820428

>  <N_constrained_atoms>  (167) 
34.0

>  <N_unconstrained_atoms>  (167) 
0.0

>  <runtime>  (167) 
3.551833

>  <regarded>  (167) 
['d0472a', '5i3q-a']

>  <disregarded>  (167) 
[]

>  <LE>  (167) 
2.147133

>  <outcome>  (167) 
equally sized

>  <percent_hybrid>  (167) 
36.0

$$$$
LIG
     RDKit          3D

 33 34  0  0  0  0  0  0  0  0999 V2000
  -15.0651  -43.5368  -22.6824 N   0  0  0  0  0  0  0  0  0  0  0  0
  -13.5969  -41.4904  -21.2392 C   0  0  0  0  0  0  0  0  0  0  0  0
  -13.5969  -39.8577  -22.9610 O   0  0  0  0  0  0  0  0  0  0  0  0
  -14.3807  -40.7275  -22.2828 C   0  0  0  0  0  0  0  0  0  0  0  0
  -15.5716  -40.8018  -22.5460 O   0  0  0  0  0  0  0  0  0  0  0  0
  -15.5012  -42.2184  -15.4248 O   0  0  0  0  0  0  0  0  0  0  0  0
  -17.0286  -43.1384  -16.7713 O   0  0  0  0  0  0  0  0  0  0  0  0
  -14.7682  -43.8858  -17.0144 C   0  0  0  0  0  0  0  0  0  0  0  0
  -15.7622  -42.9809  -16.3437 C   0  0  0  0  0  0  0  0  0  0  0  0
  -14.9958  -43.6506  -21.2828 C   0  0  0  0  0  0  0  0  0  0  0  0
  -15.6466  -44.6449  -20.5209 C   0  0  0  0  0  0  0  0  0  0  0  0
  -15.4757  -44.7981  -19.1720 N   0  0  0  0  0  0  0  0  0  0  0  0
  -14.8005  -43.8275  -18.5175 C   0  0  0  0  0  0  0  0  0  0  0  0
  -14.2046  -42.7608  -19.1771 C   0  0  0  0  0  0  0  0  0  0  0  0
  -14.3122  -42.6490  -20.5695 C   0  0  0  0  0  0  0  0  0  0  0  0
  -17.4263  -45.2748  -22.1990 C   0  0  0  0  0  0  0  0  0  0  0  0
  -18.1869  -46.3893  -22.4551 C   0  0  0  0  0  0  0  0  0  0  0  0
  -17.8833  -47.3311  -21.4563 C   0  0  0  0  0  0  0  0  0  0  0  0
  -16.9672  -46.7586  -20.6044 C   0  0  0  0  0  0  0  0  0  0  0  0
  -16.6108  -45.5200  -21.1098 N   0  0  0  0  0  0  0  0  0  0  0  0
  -15.6912  -42.7808  -22.9716 H   0  0  0  0  0  0  0  0  0  0  0  0
  -15.2605  -44.4046  -23.1753 H   0  0  0  0  0  0  0  0  0  0  0  0
  -12.6810  -41.8838  -21.6864 H   0  0  0  0  0  0  0  0  0  0  0  0
  -13.3041  -40.7507  -20.4835 H   0  0  0  0  0  0  0  0  0  0  0  0
  -14.1729  -39.5279  -23.6844 H   0  0  0  0  0  0  0  0  0  0  0  0
  -17.5842  -42.6925  -16.0932 H   0  0  0  0  0  0  0  0  0  0  0  0
  -13.7641  -43.6172  -16.6644 H   0  0  0  0  0  0  0  0  0  0  0  0
  -14.9575  -44.9070  -16.6697 H   0  0  0  0  0  0  0  0  0  0  0  0
  -13.6652  -42.0072  -18.6078 H   0  0  0  0  0  0  0  0  0  0  0  0
  -17.4287  -44.3188  -22.7003 H   0  0  0  0  0  0  0  0  0  0  0  0
  -18.8777  -46.5105  -23.2786 H   0  0  0  0  0  0  0  0  0  0  0  0
  -18.2989  -48.3208  -21.3867 H   0  0  0  0  0  0  0  0  0  0  0  0
  -16.4981  -47.1343  -19.7067 H   0  0  0  0  0  0  0  0  0  0  0  0
  2  4  1  0
  5  4  2  0
  4  3  1  0
  8  9  1  0
  9  6  2  0
  9  7  1  0
 10  1  1  0
 10 15  2  0
 10 11  1  0
 11 12  2  0
 11 20  1  0
 12 13  1  0
 13 14  2  0
 14 15  1  0
 16 17  2  0
 16 20  1  0
 17 18  1  0
 18 19  2  0
 19 20  1  0
  2 15  1  0
  8 13  1  0
  1 21  1  0
  1 22  1  0
  2 23  1  0
  2 24  1  0
  3 25  1  0
  7 26  1  0
  8 27  1  0
  8 28  1  0
 14 29  1  0
 16 30  1  0
 17 31  1  0
 18 32  1  0
 19 33  1  0
M  END
>  <smiles>  (168) 
[H]OC(=O)C([H])([H])c1nc(-n2c([H])c([H])c([H])c2[H])c(N([H])[H])c(C([H])([H])C(=O)O[H])c1[H]

>  <error>  (168) 


>  <∆∆G>  (168) 
-83.012569

>  <∆G_bound>  (168) 
-54.555678

>  <∆G_unbound>  (168) 
28.456891

>  <comRMSD>  (168) 
1.144904

>  <N_constrained_atoms>  (168) 
20.0

>  <N_unconstrained_atoms>  (168) 
0.0

>  <runtime>  (168) 
1.394777

>  <regarded>  (168) 
['d0472a', '5hmx-b']

>  <disregarded>  (168) 
[]

>  <LE>  (168) 
4.150628

>  <outcome>  (168) 
too moved

>  <percent_hybrid>  (168) 
40.0

$$$$
LIG
     RDKit          3D

 55 57  0  0  0  0  0  0  0  0999 V2000
  -15.3113  -43.8516  -22.9281 N   0  0  0  0  0  0  0  0  0  0  0  0
  -13.2642  -42.2636  -18.7670 O   0  0  0  0  0  0  0  0  0  0  0  0
  -12.1997  -41.6408  -19.4765 C   0  0  0  0  0  0  0  0  0  0  0  0
  -19.1275  -46.4529  -24.1424 C   0  0  0  0  0  0  0  0  0  0  0  0
  -19.7143  -46.5995  -25.1869 C   0  0  0  0  0  0  0  0  0  0  0  0
  -20.4507  -46.8249  -26.4455 C   0  0  0  0  0  0  0  0  0  0  0  0
  -21.4736  -45.8471  -26.5926 O   0  0  0  0  0  0  0  0  0  0  0  0
  -17.2721  -41.7529  -14.9310 O   0  0  0  0  0  0  0  0  0  0  0  0
  -12.4796  -38.8685  -15.8113 O   0  0  0  0  0  0  0  0  0  0  0  0
  -14.0082  -44.5586  -16.8363 O   0  0  0  0  0  0  0  0  0  0  0  0
  -14.8474  -43.8868  -17.2982 C   0  0  0  0  0  0  0  0  0  0  0  0
  -15.8279  -42.8837  -16.6159 N   0  0  0  0  0  0  0  0  0  0  0  0
  -16.0632  -42.5371  -15.0312 S   0  0  0  0  0  0  0  0  0  0  0  0
  -15.8012  -43.7320  -14.2735 O   0  0  0  0  0  0  0  0  0  0  0  0
  -13.1124  -38.5171  -17.0332 C   0  0  0  0  0  0  0  0  0  0  0  0
  -14.2833  -43.2784  -23.7702 C   0  0  0  0  0  0  0  0  0  0  0  0
  -15.1925  -43.8529  -21.5297 C   0  0  0  0  0  0  0  0  0  0  0  0
  -16.0514  -44.6266  -20.7028 C   0  0  0  0  0  0  0  0  0  0  0  0
  -15.9390  -44.6811  -19.3392 N   0  0  0  0  0  0  0  0  0  0  0  0
  -15.0012  -43.8586  -18.7828 C   0  0  0  0  0  0  0  0  0  0  0  0
  -14.1302  -43.0353  -19.4898 C   0  0  0  0  0  0  0  0  0  0  0  0
  -14.2513  -43.0365  -20.8758 C   0  0  0  0  0  0  0  0  0  0  0  0
  -17.7679  -45.1734  -22.4910 C   0  0  0  0  0  0  0  0  0  0  0  0
  -18.4523  -46.2986  -22.8790 C   0  0  0  0  0  0  0  0  0  0  0  0
  -18.3468  -47.2133  -21.8060 C   0  0  0  0  0  0  0  0  0  0  0  0
  -17.5543  -46.6352  -20.8290 C   0  0  0  0  0  0  0  0  0  0  0  0
  -17.0817  -45.4291  -21.3120 N   0  0  0  0  0  0  0  0  0  0  0  0
  -12.5480  -39.9963  -13.7769 C   0  0  0  0  0  0  0  0  0  0  0  0
  -13.0825  -40.9234  -12.8871 C   0  0  0  0  0  0  0  0  0  0  0  0
  -14.1801  -41.6741  -13.2774 C   0  0  0  0  0  0  0  0  0  0  0  0
  -14.7306  -41.4901  -14.5561 C   0  0  0  0  0  0  0  0  0  0  0  0
  -14.2072  -40.5628  -15.4465 C   0  0  0  0  0  0  0  0  0  0  0  0
  -13.1085  -39.8094  -15.0476 C   0  0  0  0  0  0  0  0  0  0  0  0
  -15.5064  -44.7984  -23.2635 H   0  0  0  0  0  0  0  0  0  0  0  0
  -11.4900  -41.2491  -18.7421 H   0  0  0  0  0  0  0  0  0  0  0  0
  -11.6713  -42.3483  -20.1197 H   0  0  0  0  0  0  0  0  0  0  0  0
  -12.5765  -40.7962  -20.0625 H   0  0  0  0  0  0  0  0  0  0  0  0
  -20.8935  -47.8212  -26.5089 H   0  0  0  0  0  0  0  0  0  0  0  0
  -19.7913  -46.7338  -27.3051 H   0  0  0  0  0  0  0  0  0  0  0  0
  -22.2565  -46.1962  -26.1208 H   0  0  0  0  0  0  0  0  0  0  0  0
  -16.3744  -42.4060  -17.3266 H   0  0  0  0  0  0  0  0  0  0  0  0
  -14.1279  -38.1432  -16.8642 H   0  0  0  0  0  0  0  0  0  0  0  0
  -12.5335  -37.7071  -17.4876 H   0  0  0  0  0  0  0  0  0  0  0  0
  -13.1114  -39.3562  -17.7352 H   0  0  0  0  0  0  0  0  0  0  0  0
  -13.3503  -43.8351  -23.6568 H   0  0  0  0  0  0  0  0  0  0  0  0
  -14.6025  -43.3654  -24.8110 H   0  0  0  0  0  0  0  0  0  0  0  0
  -14.1494  -42.2113  -23.5735 H   0  0  0  0  0  0  0  0  0  0  0  0
  -13.5952  -42.4078  -21.4653 H   0  0  0  0  0  0  0  0  0  0  0  0
  -17.6769  -44.2169  -22.9878 H   0  0  0  0  0  0  0  0  0  0  0  0
  -18.7965  -48.1945  -21.7648 H   0  0  0  0  0  0  0  0  0  0  0  0
  -17.2224  -47.0087  -19.8709 H   0  0  0  0  0  0  0  0  0  0  0  0
  -11.6838  -39.4057  -13.4805 H   0  0  0  0  0  0  0  0  0  0  0  0
  -12.6407  -41.0606  -11.9042 H   0  0  0  0  0  0  0  0  0  0  0  0
  -14.5962  -42.4090  -12.5907 H   0  0  0  0  0  0  0  0  0  0  0  0
  -14.6544  -40.4509  -16.4255 H   0  0  0  0  0  0  0  0  0  0  0  0
  2  3  1  0
  6  7  1  0
  6  5  1  0
  5  4  3  0
 12 11  1  0
 12 13  1  0
 11 10  2  0
  8 13  2  0
 14 13  2  0
 15  9  1  0
 16  1  1  0
 17  1  1  0
 17 22  2  0
 17 18  1  0
 18 19  2  0
 18 27  1  0
 19 20  1  0
 20 21  2  0
 21 22  1  0
 23 24  2  0
 23 27  1  0
 24 25  1  0
 25 26  2  0
 26 27  1  0
 28 33  2  0
 28 29  1  0
 29 30  2  0
 30 31  1  0
 31 13  1  0
 31 32  2  0
 32 33  1  0
 33  9  1  0
  2 21  1  0
 11 20  1  0
  4 24  1  0
  1 34  1  0
  3 35  1  0
  3 36  1  0
  3 37  1  0
  6 38  1  0
  6 39  1  0
  7 40  1  0
 12 41  1  0
 15 42  1  0
 15 43  1  0
 15 44  1  0
 16 45  1  0
 16 46  1  0
 16 47  1  0
 22 48  1  0
 23 49  1  0
 25 50  1  0
 26 51  1  0
 28 52  1  0
 29 53  1  0
 30 54  1  0
 32 55  1  0
M  END
>  <smiles>  (169) 
[H]OC([H])([H])C#Cc1c([H])c([H])n(-c2nc(C(=O)N([H])S(=O)(=O)c3c([H])c([H])c([H])c(OC([H])([H])[H])c3[H])c(OC([H])([H])[H])c([H])c2N([H])C([H])([H])[H])c1[H]

>  <error>  (169) 


>  <∆∆G>  (169) 
-43.521762

>  <∆G_bound>  (169) 
32.449434

>  <∆G_unbound>  (169) 
75.971196

>  <comRMSD>  (169) 
0.755307

>  <N_constrained_atoms>  (169) 
33.0

>  <N_unconstrained_atoms>  (169) 
0.0

>  <runtime>  (169) 
2.108368

>  <regarded>  (169) 
['d0472a', '5k5m-a']

>  <disregarded>  (169) 
[]

>  <LE>  (169) 
1.318841

>  <outcome>  (169) 
equally sized

>  <percent_hybrid>  (169) 
37.0

$$$$
LIG
     RDKit          3D

 43 44  0  0  0  0  0  0  0  0999 V2000
  -15.3750  -43.8434  -23.1206 N   0  0  0  0  0  0  0  0  0  0  0  0
  -19.2291  -46.4120  -24.2365 C   0  0  0  0  0  0  0  0  0  0  0  0
  -19.8408  -46.5385  -25.2696 C   0  0  0  0  0  0  0  0  0  0  0  0
  -20.5868  -46.7501  -26.5240 C   0  0  0  0  0  0  0  0  0  0  0  0
  -21.6750  -45.8382  -26.6170 O   0  0  0  0  0  0  0  0  0  0  0  0
  -15.2730  -41.0479  -15.1849 C   0  0  0  0  0  0  0  0  0  0  0  0
  -14.8240  -43.8166  -17.4996 C   0  0  0  0  0  0  0  0  0  0  0  0
  -13.9435  -44.3459  -16.9386 O   0  0  0  0  0  0  0  0  0  0  0  0
  -15.9541  -42.8853  -16.9569 N   0  0  0  0  0  0  0  0  0  0  0  0
  -16.3251  -42.4449  -15.4203 S   0  0  0  0  0  0  0  0  0  0  0  0
  -15.8483  -43.4513  -14.5043 O   0  0  0  0  0  0  0  0  0  0  0  0
  -17.6829  -41.9488  -15.4441 O   0  0  0  0  0  0  0  0  0  0  0  0
  -12.8926  -42.3709  -19.0991 C   0  0  0  0  0  0  0  0  0  0  0  0
  -14.4977  -43.1029  -24.0025 C   0  0  0  0  0  0  0  0  0  0  0  0
  -15.1948  -43.8791  -21.7345 C   0  0  0  0  0  0  0  0  0  0  0  0
  -16.0522  -44.6198  -20.8772 C   0  0  0  0  0  0  0  0  0  0  0  0
  -15.9142  -44.6628  -19.5140 N   0  0  0  0  0  0  0  0  0  0  0  0
  -14.9102  -43.9087  -18.9888 C   0  0  0  0  0  0  0  0  0  0  0  0
  -13.9944  -43.1683  -19.7316 C   0  0  0  0  0  0  0  0  0  0  0  0
  -14.1630  -43.1620  -21.1157 C   0  0  0  0  0  0  0  0  0  0  0  0
  -17.8150  -45.1516  -22.6219 C   0  0  0  0  0  0  0  0  0  0  0  0
  -18.5251  -46.2687  -22.9858 C   0  0  0  0  0  0  0  0  0  0  0  0
  -18.4176  -47.1736  -21.9028 C   0  0  0  0  0  0  0  0  0  0  0  0
  -17.6019  -46.5951  -20.9447 C   0  0  0  0  0  0  0  0  0  0  0  0
  -17.1140  -45.4042  -21.4526 N   0  0  0  0  0  0  0  0  0  0  0  0
  -15.4942  -44.7934  -23.4803 H   0  0  0  0  0  0  0  0  0  0  0  0
  -20.9647  -47.7713  -26.6189 H   0  0  0  0  0  0  0  0  0  0  0  0
  -19.9463  -46.5728  -27.3855 H   0  0  0  0  0  0  0  0  0  0  0  0
  -22.4404  -46.2715  -26.1923 H   0  0  0  0  0  0  0  0  0  0  0  0
  -15.4509  -40.6516  -14.1826 H   0  0  0  0  0  0  0  0  0  0  0  0
  -14.2316  -41.3628  -15.2769 H   0  0  0  0  0  0  0  0  0  0  0  0
  -15.5154  -40.2870  -15.9294 H   0  0  0  0  0  0  0  0  0  0  0  0
  -16.6061  -42.6661  -17.7093 H   0  0  0  0  0  0  0  0  0  0  0  0
  -12.2411  -43.0189  -18.5050 H   0  0  0  0  0  0  0  0  0  0  0  0
  -12.2641  -41.8864  -19.8543 H   0  0  0  0  0  0  0  0  0  0  0  0
  -13.3074  -41.5841  -18.4609 H   0  0  0  0  0  0  0  0  0  0  0  0
  -14.3625  -42.0659  -23.6816 H   0  0  0  0  0  0  0  0  0  0  0  0
  -13.5390  -43.6170  -24.0952 H   0  0  0  0  0  0  0  0  0  0  0  0
  -14.9563  -43.0680  -24.9946 H   0  0  0  0  0  0  0  0  0  0  0  0
  -13.4492  -42.6021  -21.7136 H   0  0  0  0  0  0  0  0  0  0  0  0
  -17.7163  -44.2031  -23.1315 H   0  0  0  0  0  0  0  0  0  0  0  0
  -18.8832  -48.1467  -21.8370 H   0  0  0  0  0  0  0  0  0  0  0  0
  -17.2626  -46.9619  -19.9865 H   0  0  0  0  0  0  0  0  0  0  0  0
  5  4  1  0
  4  3  1  0
  3  2  3  0
 11 10  2  0
  9  7  1  0
  9 10  1  0
  7  8  2  0
 12 10  2  0
 10  6  1  0
 14  1  1  0
 15  1  1  0
 15 20  2  0
 15 16  1  0
 16 17  2  0
 16 25  1  0
 17 18  1  0
 18 19  2  0
 19 20  1  0
 21 22  2  0
 21 25  1  0
 22 23  1  0
 23 24  2  0
 24 25  1  0
  7 18  1  0
 13 19  1  0
  2 22  1  0
  1 26  1  0
  4 27  1  0
  4 28  1  0
  5 29  1  0
  6 30  1  0
  6 31  1  0
  6 32  1  0
  9 33  1  0
 13 34  1  0
 13 35  1  0
 13 36  1  0
 14 37  1  0
 14 38  1  0
 14 39  1  0
 20 40  1  0
 21 41  1  0
 23 42  1  0
 24 43  1  0
M  END
>  <smiles>  (170) 
[H]OC([H])([H])C#Cc1c([H])c([H])n(-c2nc(C(=O)N([H])S(=O)(=O)C([H])([H])[H])c(C([H])([H])[H])c([H])c2N([H])C([H])([H])[H])c1[H]

>  <error>  (170) 


>  <∆∆G>  (170) 
-121.738712

>  <∆G_bound>  (170) 
-29.059381

>  <∆G_unbound>  (170) 
92.679331

>  <comRMSD>  (170) 
0.862454

>  <N_constrained_atoms>  (170) 
25.0

>  <N_unconstrained_atoms>  (170) 
0.0

>  <runtime>  (170) 
2.41887

>  <regarded>  (170) 
['d0472a', '5hmz-a']

>  <disregarded>  (170) 
[]

>  <LE>  (170) 
4.869548

>  <outcome>  (170) 
equally sized

>  <percent_hybrid>  (170) 
48.0

$$$$
LIG
     RDKit          3D

 33 34  0  0  0  0  0  0  0  0999 V2000
  -14.8562  -43.6374  -22.5484 N   0  0  0  0  0  0  0  0  0  0  0  0
  -14.7843  -43.9393  -16.8695 C   0  0  0  0  0  0  0  0  0  0  0  0
  -15.8087  -43.0563  -14.9368 O   0  0  0  0  0  0  0  0  0  0  0  0
  -15.8518  -43.0516  -16.2874 C   0  0  0  0  0  0  0  0  0  0  0  0
  -16.6941  -42.3992  -16.8791 O   0  0  0  0  0  0  0  0  0  0  0  0
  -14.4430  -40.7244  -22.8974 O   0  0  0  0  0  0  0  0  0  0  0  0
  -14.3912  -39.5975  -20.9703 O   0  0  0  0  0  0  0  0  0  0  0  0
  -14.0620  -40.6528  -21.7394 C   0  0  0  0  0  0  0  0  0  0  0  0
  -13.2509  -41.6900  -21.0176 C   0  0  0  0  0  0  0  0  0  0  0  0
  -14.9310  -43.6331  -21.1385 C   0  0  0  0  0  0  0  0  0  0  0  0
  -15.6062  -44.6421  -20.4127 C   0  0  0  0  0  0  0  0  0  0  0  0
  -15.4765  -44.8182  -19.0574 N   0  0  0  0  0  0  0  0  0  0  0  0
  -14.7508  -43.9036  -18.3759 C   0  0  0  0  0  0  0  0  0  0  0  0
  -14.0322  -42.9037  -19.0089 C   0  0  0  0  0  0  0  0  0  0  0  0
  -14.0924  -42.7759  -20.3989 C   0  0  0  0  0  0  0  0  0  0  0  0
  -17.2571  -45.2710  -22.2323 C   0  0  0  0  0  0  0  0  0  0  0  0
  -18.1331  -46.3057  -22.4552 C   0  0  0  0  0  0  0  0  0  0  0  0
  -18.0020  -47.1937  -21.3746 C   0  0  0  0  0  0  0  0  0  0  0  0
  -17.0684  -46.6670  -20.5114 C   0  0  0  0  0  0  0  0  0  0  0  0
  -16.5728  -45.4893  -21.0513 N   0  0  0  0  0  0  0  0  0  0  0  0
  -14.6701  -42.7279  -22.9738 H   0  0  0  0  0  0  0  0  0  0  0  0
  -14.1382  -44.2952  -22.8677 H   0  0  0  0  0  0  0  0  0  0  0  0
  -13.8108  -43.6300  -16.4715 H   0  0  0  0  0  0  0  0  0  0  0  0
  -14.9686  -44.9666  -16.5434 H   0  0  0  0  0  0  0  0  0  0  0  0
  -16.6731  -42.6672  -14.6723 H   0  0  0  0  0  0  0  0  0  0  0  0
  -14.9987  -39.0728  -21.5332 H   0  0  0  0  0  0  0  0  0  0  0  0
  -12.5344  -42.1358  -21.7055 H   0  0  0  0  0  0  0  0  0  0  0  0
  -12.6323  -41.1775  -20.2697 H   0  0  0  0  0  0  0  0  0  0  0  0
  -13.4391  -42.2080  -18.4199 H   0  0  0  0  0  0  0  0  0  0  0  0
  -17.0878  -44.3836  -22.8242 H   0  0  0  0  0  0  0  0  0  0  0  0
  -18.7797  -46.4106  -23.3163 H   0  0  0  0  0  0  0  0  0  0  0  0
  -18.5482  -48.1126  -21.2563 H   0  0  0  0  0  0  0  0  0  0  0  0
  -16.6984  -47.0249  -19.5620 H   0  0  0  0  0  0  0  0  0  0  0  0
  2  4  1  0
  4  5  2  0
  4  3  1  0
  9  8  1  0
  6  8  2  0
  8  7  1  0
 10  1  1  0
 10 15  2  0
 10 11  1  0
 11 12  2  0
 11 20  1  0
 12 13  1  0
 13 14  2  0
 14 15  1  0
 16 17  2  0
 16 20  1  0
 17 18  1  0
 18 19  2  0
 19 20  1  0
  2 13  1  0
  9 15  1  0
  1 21  1  0
  1 22  1  0
  2 23  1  0
  2 24  1  0
  3 25  1  0
  7 26  1  0
  9 27  1  0
  9 28  1  0
 14 29  1  0
 16 30  1  0
 17 31  1  0
 18 32  1  0
 19 33  1  0
M  END
>  <smiles>  (171) 
[H]OC(=O)C([H])([H])c1nc(-n2c([H])c([H])c([H])c2[H])c(N([H])[H])c(C([H])([H])C(=O)O[H])c1[H]

>  <error>  (171) 


>  <∆∆G>  (171) 
-137.481521

>  <∆G_bound>  (171) 
-87.810474

>  <∆G_unbound>  (171) 
49.671047

>  <comRMSD>  (171) 
1.156082

>  <N_constrained_atoms>  (171) 
20.0

>  <N_unconstrained_atoms>  (171) 
0.0

>  <runtime>  (171) 
1.421698

>  <regarded>  (171) 
['d0472a', '5hmw-b']

>  <disregarded>  (171) 
[]

>  <LE>  (171) 
6.874076

>  <outcome>  (171) 
equally sized

>  <percent_hybrid>  (171) 
40.0

$$$$
LIG
     RDKit          3D

 30 31  0  0  0  0  0  0  0  0999 V2000
  -15.5815  -43.3803  -22.7991 N   0  0  0  0  0  0  0  0  0  0  0  0
  -14.2219  -43.5045  -17.3153 C   0  0  0  0  0  0  0  0  0  0  0  0
  -16.2715  -42.2517  -17.1854 O   0  0  0  0  0  0  0  0  0  0  0  0
  -14.4756  -41.4615  -16.0674 O   0  0  0  0  0  0  0  0  0  0  0  0
  -14.9758  -42.3052  -16.7982 C   0  0  0  0  0  0  0  0  0  0  0  0
  -14.5765  -43.2649  -23.8467 C   0  0  0  0  0  0  0  0  0  0  0  0
  -15.1007  -43.5610  -21.4898 C   0  0  0  0  0  0  0  0  0  0  0  0
  -15.6704  -44.4654  -20.5716 C   0  0  0  0  0  0  0  0  0  0  0  0
  -15.3172  -44.5244  -19.2433 N   0  0  0  0  0  0  0  0  0  0  0  0
  -14.3749  -43.6555  -18.8057 C   0  0  0  0  0  0  0  0  0  0  0  0
  -13.7040  -42.7909  -19.6555 C   0  0  0  0  0  0  0  0  0  0  0  0
  -14.0858  -42.7363  -20.9919 C   0  0  0  0  0  0  0  0  0  0  0  0
  -17.5273  -45.3828  -22.0453 C   0  0  0  0  0  0  0  0  0  0  0  0
  -18.1325  -46.6073  -22.1907 C   0  0  0  0  0  0  0  0  0  0  0  0
  -17.6051  -47.4402  -21.1897 C   0  0  0  0  0  0  0  0  0  0  0  0
  -16.7725  -46.6810  -20.4028 C   0  0  0  0  0  0  0  0  0  0  0  0
  -16.6249  -45.4404  -21.0011 N   0  0  0  0  0  0  0  0  0  0  0  0
  -16.1901  -42.5617  -22.8156 H   0  0  0  0  0  0  0  0  0  0  0  0
  -13.1613  -43.3996  -17.0605 H   0  0  0  0  0  0  0  0  0  0  0  0
  -14.6044  -44.3864  -16.7900 H   0  0  0  0  0  0  0  0  0  0  0  0
  -16.5373  -43.0003  -17.7607 H   0  0  0  0  0  0  0  0  0  0  0  0
  -14.1729  -42.2496  -23.8877 H   0  0  0  0  0  0  0  0  0  0  0  0
  -13.7657  -43.9892  -23.7202 H   0  0  0  0  0  0  0  0  0  0  0  0
  -15.0576  -43.4621  -24.8089 H   0  0  0  0  0  0  0  0  0  0  0  0
  -12.9438  -42.1088  -19.2832 H   0  0  0  0  0  0  0  0  0  0  0  0
  -13.5946  -42.0109  -21.6340 H   0  0  0  0  0  0  0  0  0  0  0  0
  -17.6615  -44.4843  -22.6263 H   0  0  0  0  0  0  0  0  0  0  0  0
  -18.8297  -46.8850  -22.9695 H   0  0  0  0  0  0  0  0  0  0  0  0
  -17.8014  -48.4899  -21.0762 H   0  0  0  0  0  0  0  0  0  0  0  0
  -16.1857  -46.9395  -19.5332 H   0  0  0  0  0  0  0  0  0  0  0  0
  4  5  2  0
  2  5  1  0
  5  3  1  0
  6  1  1  0
  7  1  1  0
  7 12  2  0
  7  8  1  0
  8  9  2  0
  8 17  1  0
  9 10  1  0
 10 11  2  0
 11 12  1  0
 13 14  2  0
 13 17  1  0
 14 15  1  0
 15 16  2  0
 16 17  1  0
  2 10  1  0
  1 18  1  0
  2 19  1  0
  2 20  1  0
  3 21  1  0
  6 22  1  0
  6 23  1  0
  6 24  1  0
 11 25  1  0
 12 26  1  0
 13 27  1  0
 14 28  1  0
 15 29  1  0
 16 30  1  0
M  END
>  <smiles>  (172) 
[H]OC(=O)C([H])([H])c1nc(-n2c([H])c([H])c([H])c2[H])c(N([H])C([H])([H])[H])c([H])c1[H]

>  <error>  (172) 


>  <∆∆G>  (172) 
-132.911489

>  <∆G_bound>  (172) 
-24.278675

>  <∆G_unbound>  (172) 
108.632814

>  <comRMSD>  (172) 
1.148147

>  <N_constrained_atoms>  (172) 
17.0

>  <N_unconstrained_atoms>  (172) 
0.0

>  <runtime>  (172) 
0.937308

>  <regarded>  (172) 
['d0472a', '5f3z-a']

>  <disregarded>  (172) 
[]

>  <LE>  (172) 
7.818323

>  <outcome>  (172) 
equally sized

>  <percent_hybrid>  (172) 
30.0

$$$$
LIG
     RDKit          3D

 30 31  0  0  0  0  0  0  0  0999 V2000
  -15.4369  -43.7621  -22.8679 N   0  0  0  0  0  0  0  0  0  0  0  0
  -14.1860  -43.4468  -17.3294 C   0  0  0  0  0  0  0  0  0  0  0  0
  -16.2128  -42.1543  -17.2093 O   0  0  0  0  0  0  0  0  0  0  0  0
  -14.3913  -41.3715  -16.1301 O   0  0  0  0  0  0  0  0  0  0  0  0
  -14.9141  -42.2221  -16.8370 C   0  0  0  0  0  0  0  0  0  0  0  0
  -14.6611  -43.0807  -23.8863 C   0  0  0  0  0  0  0  0  0  0  0  0
  -15.0362  -43.7445  -21.5236 C   0  0  0  0  0  0  0  0  0  0  0  0
  -15.6219  -44.5702  -20.5363 C   0  0  0  0  0  0  0  0  0  0  0  0
  -15.2809  -44.5601  -19.2055 N   0  0  0  0  0  0  0  0  0  0  0  0
  -14.3610  -43.6503  -18.8106 C   0  0  0  0  0  0  0  0  0  0  0  0
  -13.7144  -42.8110  -19.7036 C   0  0  0  0  0  0  0  0  0  0  0  0
  -14.0687  -42.8536  -21.0510 C   0  0  0  0  0  0  0  0  0  0  0  0
  -17.5901  -45.4309  -21.8681 C   0  0  0  0  0  0  0  0  0  0  0  0
  -18.1418  -46.6719  -22.0719 C   0  0  0  0  0  0  0  0  0  0  0  0
  -17.5140  -47.5479  -21.1660 C   0  0  0  0  0  0  0  0  0  0  0  0
  -16.6742  -46.8052  -20.3699 C   0  0  0  0  0  0  0  0  0  0  0  0
  -16.6015  -45.5358  -20.9083 N   0  0  0  0  0  0  0  0  0  0  0  0
  -15.6274  -44.7200  -23.1683 H   0  0  0  0  0  0  0  0  0  0  0  0
  -13.1197  -43.3476  -17.0964 H   0  0  0  0  0  0  0  0  0  0  0  0
  -14.5679  -44.3068  -16.7683 H   0  0  0  0  0  0  0  0  0  0  0  0
  -16.5030  -42.9074  -17.7656 H   0  0  0  0  0  0  0  0  0  0  0  0
  -14.5626  -42.0096  -23.6869 H   0  0  0  0  0  0  0  0  0  0  0  0
  -13.6794  -43.5478  -23.9951 H   0  0  0  0  0  0  0  0  0  0  0  0
  -15.1797  -43.1792  -24.8453 H   0  0  0  0  0  0  0  0  0  0  0  0
  -12.9758  -42.0884  -19.3651 H   0  0  0  0  0  0  0  0  0  0  0  0
  -13.5606  -42.1666  -21.7199 H   0  0  0  0  0  0  0  0  0  0  0  0
  -17.7992  -44.4839  -22.3485 H   0  0  0  0  0  0  0  0  0  0  0  0
  -18.8803  -46.9301  -22.8187 H   0  0  0  0  0  0  0  0  0  0  0  0
  -17.6546  -48.6133  -21.1164 H   0  0  0  0  0  0  0  0  0  0  0  0
  -16.0279  -47.0887  -19.5516 H   0  0  0  0  0  0  0  0  0  0  0  0
  4  5  2  0
  2  5  1  0
  5  3  1  0
  6  1  1  0
  7  1  1  0
  7 12  2  0
  7  8  1  0
  8  9  2  0
  8 17  1  0
  9 10  1  0
 10 11  2  0
 11 12  1  0
 13 14  2  0
 13 17  1  0
 14 15  1  0
 15 16  2  0
 16 17  1  0
  2 10  1  0
  1 18  1  0
  2 19  1  0
  2 20  1  0
  3 21  1  0
  6 22  1  0
  6 23  1  0
  6 24  1  0
 11 25  1  0
 12 26  1  0
 13 27  1  0
 14 28  1  0
 15 29  1  0
 16 30  1  0
M  END
>  <smiles>  (173) 
[H]OC(=O)C([H])([H])c1nc(-n2c([H])c([H])c([H])c2[H])c(N([H])C([H])([H])[H])c([H])c1[H]

>  <error>  (173) 


>  <∆∆G>  (173) 
-135.764895

>  <∆G_bound>  (173) 
13.158643

>  <∆G_unbound>  (173) 
148.923539

>  <comRMSD>  (173) 
1.201227

>  <N_constrained_atoms>  (173) 
17.0

>  <N_unconstrained_atoms>  (173) 
0.0

>  <runtime>  (173) 
0.938336

>  <regarded>  (173) 
['d0472a', '6h9r-a']

>  <disregarded>  (173) 
[]

>  <LE>  (173) 
7.98617

>  <outcome>  (173) 
equally sized

>  <percent_hybrid>  (173) 
30.0

$$$$
LIG
     RDKit          3D

 30 31  0  0  0  0  0  0  0  0999 V2000
  -15.4185  -43.8039  -22.9072 N   0  0  0  0  0  0  0  0  0  0  0  0
  -14.2498  -41.2975  -16.2442 O   0  0  0  0  0  0  0  0  0  0  0  0
  -16.1299  -42.0778  -17.2198 O   0  0  0  0  0  0  0  0  0  0  0  0
  -14.8192  -42.1620  -16.8959 C   0  0  0  0  0  0  0  0  0  0  0  0
  -14.1391  -43.4190  -17.3752 C   0  0  0  0  0  0  0  0  0  0  0  0
  -14.6286  -43.1538  -23.9384 C   0  0  0  0  0  0  0  0  0  0  0  0
  -15.0181  -43.7616  -21.5619 C   0  0  0  0  0  0  0  0  0  0  0  0
  -15.6046  -44.5702  -20.5605 C   0  0  0  0  0  0  0  0  0  0  0  0
  -15.2595  -44.5451  -19.2310 N   0  0  0  0  0  0  0  0  0  0  0  0
  -14.3331  -43.6349  -18.8522 C   0  0  0  0  0  0  0  0  0  0  0  0
  -13.6876  -42.8093  -19.7592 C   0  0  0  0  0  0  0  0  0  0  0  0
  -14.0478  -42.8668  -21.1046 C   0  0  0  0  0  0  0  0  0  0  0  0
  -17.5819  -45.4390  -21.8740 C   0  0  0  0  0  0  0  0  0  0  0  0
  -18.1398  -46.6800  -22.0603 C   0  0  0  0  0  0  0  0  0  0  0  0
  -17.5048  -47.5495  -21.1532 C   0  0  0  0  0  0  0  0  0  0  0  0
  -16.6587  -46.8018  -20.3690 C   0  0  0  0  0  0  0  0  0  0  0  0
  -16.5879  -45.5369  -20.9180 N   0  0  0  0  0  0  0  0  0  0  0  0
  -15.5974  -44.7706  -23.1846 H   0  0  0  0  0  0  0  0  0  0  0  0
  -16.4581  -42.8449  -17.7340 H   0  0  0  0  0  0  0  0  0  0  0  0
  -13.0682  -43.3541  -17.1514 H   0  0  0  0  0  0  0  0  0  0  0  0
  -14.5454  -44.2575  -16.7988 H   0  0  0  0  0  0  0  0  0  0  0  0
  -13.6476  -43.6271  -24.0268 H   0  0  0  0  0  0  0  0  0  0  0  0
  -15.1428  -43.2740  -24.8969 H   0  0  0  0  0  0  0  0  0  0  0  0
  -14.5273  -42.0785  -23.7652 H   0  0  0  0  0  0  0  0  0  0  0  0
  -12.9412  -42.0888  -19.4335 H   0  0  0  0  0  0  0  0  0  0  0  0
  -13.5381  -42.1925  -21.7845 H   0  0  0  0  0  0  0  0  0  0  0  0
  -17.7889  -44.4947  -22.3605 H   0  0  0  0  0  0  0  0  0  0  0  0
  -18.8870  -46.9442  -22.7954 H   0  0  0  0  0  0  0  0  0  0  0  0
  -17.6448  -48.6142  -21.0926 H   0  0  0  0  0  0  0  0  0  0  0  0
  -16.0062  -47.0789  -19.5533 H   0  0  0  0  0  0  0  0  0  0  0  0
  2  4  2  0
  5  4  1  0
  4  3  1  0
  6  1  1  0
  7  1  1  0
  7 12  2  0
  7  8  1  0
  8  9  2  0
  8 17  1  0
  9 10  1  0
 10 11  2  0
 11 12  1  0
 13 14  2  0
 13 17  1  0
 14 15  1  0
 15 16  2  0
 16 17  1  0
  5 10  1  0
  1 18  1  0
  3 19  1  0
  5 20  1  0
  5 21  1  0
  6 22  1  0
  6 23  1  0
  6 24  1  0
 11 25  1  0
 12 26  1  0
 13 27  1  0
 14 28  1  0
 15 29  1  0
 16 30  1  0
M  END
>  <smiles>  (174) 
[H]OC(=O)C([H])([H])c1nc(-n2c([H])c([H])c([H])c2[H])c(N([H])C([H])([H])[H])c([H])c1[H]

>  <error>  (174) 


>  <∆∆G>  (174) 
-30.139753

>  <∆G_bound>  (174) 
-59.412993

>  <∆G_unbound>  (174) 
-29.27324

>  <comRMSD>  (174) 
1.277756

>  <N_constrained_atoms>  (174) 
17.0

>  <N_unconstrained_atoms>  (174) 
0.0

>  <runtime>  (174) 
1.001157

>  <regarded>  (174) 
['d0472a', '5f3t-a']

>  <disregarded>  (174) 
[]

>  <LE>  (174) 
1.772927

>  <outcome>  (174) 
equally sized

>  <percent_hybrid>  (174) 
30.0

$$$$

     RDKit          2D

  0  0  0  0  0  0  0  0  0  0999 V2000
M  END
>  <smiles>  (175) 
nan

>  <error>  (175) 
DistanceError 7.81 Å

>  <∆∆G>  (175) 
nan

>  <∆G_bound>  (175) 
nan

>  <∆G_unbound>  (175) 
nan

>  <comRMSD>  (175) 
nan

>  <N_constrained_atoms>  (175) 
nan

>  <N_unconstrained_atoms>  (175) 
nan

>  <runtime>  (175) 
nan

>  <regarded>  (175) 
[]

>  <disregarded>  (175) 
[]

>  <LE>  (175) 
nan

>  <outcome>  (175) 
too distant

>  <percent_hybrid>  (175) 
nan

$$$$
LIG
     RDKit          3D

 37 38  0  0  0  0  0  0  0  0999 V2000
  -14.5765  -44.9240  -18.9130 F   0  0  0  0  0  0  0  0  0  0  0  0
  -14.5943  -44.2812  -20.1132 C   0  0  1  0  0  0  0  0  0  0  0  0
  -15.9335  -43.5940  -20.2955 C   0  0  0  0  0  0  0  0  0  0  0  0
  -15.9729  -42.7535  -21.5736 C   0  0  0  0  0  0  0  0  0  0  0  0
  -14.8106  -41.7268  -21.7010 C   0  0  1  0  0  0  0  0  0  0  0  0
  -13.4770  -42.4872  -21.4403 C   0  0  0  0  0  0  0  0  0  0  0  0
  -13.4560  -43.2884  -20.1460 C   0  0  0  0  0  0  0  0  0  0  0  0
  -14.7755  -41.0749  -23.1382 C   0  0  1  0  0  0  0  0  0  0  0  0
  -16.1578  -40.5653  -23.6135 C   0  0  0  0  0  0  0  0  0  0  0  0
  -16.1687  -39.8044  -24.9439 C   0  0  0  0  0  0  0  0  0  0  0  0
  -15.6784  -40.6248  -26.0440 N   0  0  0  0  0  0  0  0  0  0  0  0
  -14.9727  -40.5681  -20.6757 C   0  0  0  0  0  0  0  0  0  0  0  0
  -13.9503  -39.5172  -20.8386 N   0  0  0  0  0  0  0  0  0  0  0  0
  -14.0846  -38.9047  -22.1484 N   0  0  0  0  0  0  0  0  0  0  0  0
  -13.7519  -39.9241  -23.1487 C   0  0  0  0  0  0  0  0  0  0  0  0
  -14.4681  -45.0357  -20.8929 H   0  0  0  0  0  0  0  0  0  0  0  0
  -16.7295  -44.3476  -20.3219 H   0  0  0  0  0  0  0  0  0  0  0  0
  -16.1493  -42.9677  -19.4217 H   0  0  0  0  0  0  0  0  0  0  0  0
  -15.9446  -43.4346  -22.4347 H   0  0  0  0  0  0  0  0  0  0  0  0
  -16.9417  -42.2416  -21.6077 H   0  0  0  0  0  0  0  0  0  0  0  0
  -13.3159  -43.1922  -22.2653 H   0  0  0  0  0  0  0  0  0  0  0  0
  -12.6174  -41.8104  -21.4251 H   0  0  0  0  0  0  0  0  0  0  0  0
  -13.4952  -42.6329  -19.2693 H   0  0  0  0  0  0  0  0  0  0  0  0
  -12.5149  -43.8341  -20.0596 H   0  0  0  0  0  0  0  0  0  0  0  0
  -16.8348  -41.4223  -23.7204 H   0  0  0  0  0  0  0  0  0  0  0  0
  -16.6130  -39.9140  -22.8593 H   0  0  0  0  0  0  0  0  0  0  0  0
  -17.2067  -39.5295  -25.1658 H   0  0  0  0  0  0  0  0  0  0  0  0
  -15.6136  -38.8639  -24.8872 H   0  0  0  0  0  0  0  0  0  0  0  0
  -15.8381  -40.1341  -26.9259 H   0  0  0  0  0  0  0  0  0  0  0  0
  -14.8952  -40.9469  -19.6516 H   0  0  0  0  0  0  0  0  0  0  0  0
  -15.9727  -40.1215  -20.7433 H   0  0  0  0  0  0  0  0  0  0  0  0
  -14.0991  -38.8218  -20.1008 H   0  0  0  0  0  0  0  0  0  0  0  0
  -13.3981  -38.1492  -22.2369 H   0  0  0  0  0  0  0  0  0  0  0  0
  -13.7011  -39.4474  -24.1296 H   0  0  0  0  0  0  0  0  0  0  0  0
  -12.7437  -40.2894  -22.9431 H   0  0  0  0  0  0  0  0  0  0  0  0
  -14.4401  -41.8389  -23.8518 H   0  0  0  0  0  0  0  0  0  0  0  0
  -14.6677  -40.7371  -25.9748 H   0  0  0  0  0  0  0  0  0  0  0  0
  2  7  1  0
  2  1  1  0
  2  3  1  0
  3  4  1  0
  5  4  1  6
  5  8  1  0
  5  6  1  0
  6  7  1  0
  8  9  1  0
  9 10  1  0
 10 11  1  0
 12 13  1  0
 13 14  1  0
 14 15  1  0
  5 12  1  0
  8 15  1  0
  2 16  1  6
  3 17  1  0
  3 18  1  0
  4 19  1  0
  4 20  1  0
  6 21  1  0
  6 22  1  0
  7 23  1  0
  7 24  1  0
  9 25  1  0
  9 26  1  0
 10 27  1  0
 10 28  1  0
 11 29  1  0
 12 30  1  0
 12 31  1  0
 13 32  1  0
 14 33  1  0
 15 34  1  0
 15 35  1  0
  8 36  1  6
 11 37  1  0
M  END
>  <smiles>  (176) 
[H]N([H])C([H])([H])C([H])([H])[C@@]1([H])C([H])([H])N([H])N([H])C([H])([H])[C@]12C([H])([H])C([H])([H])[C@@]([H])(F)C([H])([H])C2([H])[H]

>  <error>  (176) 


>  <∆∆G>  (176) 
-64.936001

>  <∆G_bound>  (176) 
127.241299

>  <∆G_unbound>  (176) 
192.1773

>  <comRMSD>  (176) 
1.21195

>  <N_constrained_atoms>  (176) 
15.0

>  <N_unconstrained_atoms>  (176) 
0.0

>  <runtime>  (176) 
1.277488

>  <regarded>  (176) 
['d0612a', 'd0160a']

>  <disregarded>  (176) 
[]

>  <LE>  (176) 
4.329067

>  <outcome>  (176) 
equally sized

>  <percent_hybrid>  (176) 
27.0

$$$$
LIG
     RDKit          3D

 45 47  0  0  0  0  0  0  0  0999 V2000
  -14.2579  -44.9181  -18.8054 F   0  0  0  0  0  0  0  0  0  0  0  0
  -16.6296  -39.1451  -26.5580 C   0  0  1  0  0  0  0  0  0  0  0  0
  -15.9759  -37.8945  -26.6731 O   0  0  0  0  0  0  0  0  0  0  0  0
  -15.9763  -39.9702  -27.5568 N   0  0  0  0  0  0  0  0  0  0  0  0
  -14.4693  -44.2030  -19.9135 C   0  0  0  0  0  0  0  0  0  0  0  0
  -15.3769  -44.6579  -20.8521 C   0  0  0  0  0  0  0  0  0  0  0  0
  -15.6323  -43.8853  -21.9862 C   0  0  0  0  0  0  0  0  0  0  0  0
  -15.0342  -42.6247  -22.1815 C   0  0  0  0  0  0  0  0  0  0  0  0
  -14.0729  -42.2373  -21.2245 C   0  0  0  0  0  0  0  0  0  0  0  0
  -13.7895  -43.0154  -20.0998 C   0  0  0  0  0  0  0  0  0  0  0  0
  -16.7891  -41.8428  -23.6768 C   0  0  0  0  0  0  0  0  0  0  0  0
  -15.3654  -41.8255  -23.3014 N   0  0  0  0  0  0  0  0  0  0  0  0
  -14.7420  -40.4946  -23.3493 C   0  0  0  0  0  0  0  0  0  0  0  0
  -15.0114  -39.7640  -24.6623 C   0  0  0  0  0  0  0  0  0  0  0  0
  -16.4970  -39.7170  -25.0947 C   0  0  0  0  0  0  0  0  0  0  0  0
  -16.9989  -41.1856  -25.0374 C   0  0  0  0  0  0  0  0  0  0  0  0
  -18.1194  -38.9396  -27.0016 C   0  0  0  0  0  0  0  0  0  0  0  0
  -17.3048  -38.8635  -24.0502 C   0  0  0  0  0  0  0  0  0  0  0  0
  -17.4912  -37.3708  -24.3417 C   0  0  0  0  0  0  0  0  0  0  0  0
  -18.4632  -37.0509  -25.4874 C   0  0  0  0  0  0  0  0  0  0  0  0
  -19.0495  -38.2307  -26.1134 N   0  0  0  0  0  0  0  0  0  0  0  0
  -16.3666  -40.9041  -27.5839 H   0  0  0  0  0  0  0  0  0  0  0  0
  -16.1605  -39.5574  -28.4758 H   0  0  0  0  0  0  0  0  0  0  0  0
  -15.8785  -45.6076  -20.7087 H   0  0  0  0  0  0  0  0  0  0  0  0
  -16.3065  -44.3074  -22.7234 H   0  0  0  0  0  0  0  0  0  0  0  0
  -13.5195  -41.3088  -21.3110 H   0  0  0  0  0  0  0  0  0  0  0  0
  -13.0502  -42.6916  -19.3751 H   0  0  0  0  0  0  0  0  0  0  0  0
  -17.3891  -41.3493  -22.9026 H   0  0  0  0  0  0  0  0  0  0  0  0
  -17.1791  -42.8588  -23.7838 H   0  0  0  0  0  0  0  0  0  0  0  0
  -15.0728  -39.8879  -22.4982 H   0  0  0  0  0  0  0  0  0  0  0  0
  -13.6524  -40.5816  -23.2766 H   0  0  0  0  0  0  0  0  0  0  0  0
  -14.6250  -38.7510  -24.5510 H   0  0  0  0  0  0  0  0  0  0  0  0
  -14.4176  -40.2508  -25.4451 H   0  0  0  0  0  0  0  0  0  0  0  0
  -16.4727  -41.8052  -25.7734 H   0  0  0  0  0  0  0  0  0  0  0  0
  -18.0645  -41.2349  -25.2914 H   0  0  0  0  0  0  0  0  0  0  0  0
  -18.5741  -39.9144  -27.2164 H   0  0  0  0  0  0  0  0  0  0  0  0
  -18.1010  -38.3921  -27.9472 H   0  0  0  0  0  0  0  0  0  0  0  0
  -16.8444  -38.9334  -23.0599 H   0  0  0  0  0  0  0  0  0  0  0  0
  -18.3010  -39.3047  -23.9074 H   0  0  0  0  0  0  0  0  0  0  0  0
  -17.8898  -36.9060  -23.4297 H   0  0  0  0  0  0  0  0  0  0  0  0
  -16.5213  -36.8898  -24.5094 H   0  0  0  0  0  0  0  0  0  0  0  0
  -19.2876  -36.4637  -25.0632 H   0  0  0  0  0  0  0  0  0  0  0  0
  -17.9998  -36.3902  -26.2297 H   0  0  0  0  0  0  0  0  0  0  0  0
  -19.9024  -37.9845  -26.6062 H   0  0  0  0  0  0  0  0  0  0  0  0
  -15.0197  -38.0857  -26.6624 H   0  0  0  0  0  0  0  0  0  0  0  0
  4  2  1  0
  2  3  1  1
  5 10  2  0
  5  1  1  0
  5  6  1  0
  6  7  2  0
  7  8  1  0
  8 12  1  0
  8  9  2  0
  9 10  1  0
 11 16  1  0
 11 12  1  0
 12 13  1  0
 13 14  1  0
 14 15  1  0
 15  2  1  0
 15 16  1  0
 17 21  1  0
 18 19  1  0
 19 20  1  0
 20 21  1  0
 15 18  1  0
  2 17  1  0
  4 22  1  0
  4 23  1  0
  6 24  1  0
  7 25  1  0
  9 26  1  0
 10 27  1  0
 11 28  1  0
 11 29  1  0
 13 30  1  0
 13 31  1  0
 14 32  1  0
 14 33  1  0
 16 34  1  0
 16 35  1  0
 17 36  1  0
 17 37  1  0
 18 38  1  0
 18 39  1  0
 19 40  1  0
 19 41  1  0
 20 42  1  0
 20 43  1  0
 21 44  1  0
  3 45  1  0
M  END
>  <smiles>  (177) 
[H]O[C@]1(N([H])[H])C([H])([H])N([H])C([H])([H])C([H])([H])C([H])([H])C12C([H])([H])C([H])([H])N(c1c([H])c([H])c(F)c([H])c1[H])C([H])([H])C2([H])[H]

>  <error>  (177) 


>  <∆∆G>  (177) 
-49.790509

>  <∆G_bound>  (177) 
168.541924

>  <∆G_unbound>  (177) 
218.332433

>  <comRMSD>  (177) 
0.649322

>  <N_constrained_atoms>  (177) 
21.0

>  <N_unconstrained_atoms>  (177) 
0.0

>  <runtime>  (177) 
1.094758

>  <regarded>  (177) 
['d0612a', 'd0191a']

>  <disregarded>  (177) 
[]

>  <LE>  (177) 
2.370977

>  <outcome>  (177) 
acceptable

>  <percent_hybrid>  (177) 
24.0

$$$$
LIG
     RDKit          3D

 45 47  0  0  0  0  0  0  0  0999 V2000
  -13.0677  -43.8402  -18.6387 F   0  0  0  0  0  0  0  0  0  0  0  0
  -16.6234  -40.6864  -26.2607 C   0  0  0  0  0  0  0  0  0  0  0  0
  -15.4565  -40.7870  -26.3276 O   0  0  0  0  0  0  0  0  0  0  0  0
  -17.6458  -40.8963  -27.2705 N   0  0  0  0  0  0  0  0  0  0  0  0
  -18.9018  -44.5141  -24.3692 O   0  0  0  0  0  0  0  0  0  0  0  0
  -18.2482  -44.4439  -23.3683 C   0  0  0  0  0  0  0  0  0  0  0  0
  -17.3015  -43.4673  -22.9402 N   0  0  0  0  0  0  0  0  0  0  0  0
  -13.7461  -43.2202  -19.6122 C   0  0  0  0  0  0  0  0  0  0  0  0
  -14.6358  -42.2114  -19.2834 C   0  0  0  0  0  0  0  0  0  0  0  0
  -15.3894  -41.6099  -20.2916 C   0  0  0  0  0  0  0  0  0  0  0  0
  -15.2782  -42.0205  -21.6308 C   0  0  0  0  0  0  0  0  0  0  0  0
  -14.3404  -43.0115  -21.9397 C   0  0  0  0  0  0  0  0  0  0  0  0
  -13.5789  -43.6103  -20.9316 C   0  0  0  0  0  0  0  0  0  0  0  0
  -16.7670  -42.3220  -23.6069 C   0  0  2  0  0  0  0  0  0  0  0  0
  -16.1916  -41.5040  -22.5450 N   0  0  0  0  0  0  0  0  0  0  0  0
  -15.8497  -40.1830  -23.0676 C   0  0  0  0  0  0  0  0  0  0  0  0
  -17.0990  -39.6468  -23.8160 C   0  0  0  0  0  0  0  0  0  0  0  0
  -17.4666  -40.2348  -25.1666 N   0  0  0  0  0  0  0  0  0  0  0  0
  -17.8821  -41.4409  -24.2840 C   0  0  0  0  0  0  0  0  0  0  0  0
  -17.1461  -45.7939  -21.6090 O   0  0  0  0  0  0  0  0  0  0  0  0
  -17.3189  -45.8477  -20.1850 C   0  0  0  0  0  0  0  0  0  0  0  0
  -18.8026  -45.7359  -19.9164 C   0  0  0  0  0  0  0  0  0  0  0  0
  -19.2716  -44.9193  -21.0917 C   0  0  0  0  0  0  0  0  0  0  0  0
  -18.4148  -45.4733  -22.2209 C   0  0  1  0  0  0  0  0  0  0  0  0
  -18.5622  -40.6023  -26.8906 H   0  0  0  0  0  0  0  0  0  0  0  0
  -18.5778  -40.8299  -26.8274 H   0  0  0  0  0  0  0  0  0  0  0  0
  -16.8787  -43.7765  -22.0714 H   0  0  0  0  0  0  0  0  0  0  0  0
  -14.7518  -41.9085  -18.2482 H   0  0  0  0  0  0  0  0  0  0  0  0
  -16.1152  -40.8465  -20.0209 H   0  0  0  0  0  0  0  0  0  0  0  0
  -14.1998  -43.3533  -22.9625 H   0  0  0  0  0  0  0  0  0  0  0  0
  -12.8603  -44.3858  -21.1763 H   0  0  0  0  0  0  0  0  0  0  0  0
  -16.0237  -42.6522  -24.3410 H   0  0  0  0  0  0  0  0  0  0  0  0
  -15.6098  -39.4884  -22.2533 H   0  0  0  0  0  0  0  0  0  0  0  0
  -14.9830  -40.2352  -23.7375 H   0  0  0  0  0  0  0  0  0  0  0  0
  -17.9682  -39.4650  -23.1626 H   0  0  0  0  0  0  0  0  0  0  0  0
  -16.8061  -38.6264  -24.1076 H   0  0  0  0  0  0  0  0  0  0  0  0
  -18.3617  -42.1128  -25.0109 H   0  0  0  0  0  0  0  0  0  0  0  0
  -18.7241  -41.2052  -23.6099 H   0  0  0  0  0  0  0  0  0  0  0  0
  -16.8898  -46.7759  -19.7974 H   0  0  0  0  0  0  0  0  0  0  0  0
  -16.7726  -45.0036  -19.7517 H   0  0  0  0  0  0  0  0  0  0  0  0
  -19.2680  -46.7266  -19.9541 H   0  0  0  0  0  0  0  0  0  0  0  0
  -19.0292  -45.2874  -18.9458 H   0  0  0  0  0  0  0  0  0  0  0  0
  -20.3421  -45.0033  -21.2841 H   0  0  0  0  0  0  0  0  0  0  0  0
  -19.0606  -43.8584  -20.9092 H   0  0  0  0  0  0  0  0  0  0  0  0
  -18.8161  -46.4054  -22.6319 H   0  0  0  0  0  0  0  0  0  0  0  0
  4  2  1  0
  3  2  2  0
  7  6  1  0
  6  5  2  0
  8 13  2  0
  8  1  1  0
  8  9  1  0
  9 10  2  0
 10 11  1  0
 11 15  1  0
 11 12  2  0
 12 13  1  0
 14 19  1  0
 14 15  1  0
 15 16  1  0
 16 17  1  0
 17 18  1  0
 18  2  1  0
 18 19  1  0
 20 21  1  0
 20 24  1  0
 21 22  1  0
 22 23  1  0
 23 24  1  0
 24  6  1  0
  7 14  1  0
  4 25  1  0
  4 26  1  0
  7 27  1  0
  9 28  1  0
 10 29  1  0
 12 30  1  0
 13 31  1  0
 14 32  1  1
 16 33  1  0
 16 34  1  0
 17 35  1  0
 17 36  1  0
 19 37  1  0
 19 38  1  0
 21 39  1  0
 21 40  1  0
 22 41  1  0
 22 42  1  0
 23 43  1  0
 23 44  1  0
 24 45  1  6
M  END
>  <smiles>  (178) 
[H]c1c([H])c(N2C([H])([H])C([H])([H])N(C(=O)N([H])[H])C([H])([H])[C@@]2([H])N([H])C(=O)[C@@]2([H])OC([H])([H])C([H])([H])C2([H])[H])c([H])c([H])c1F

>  <error>  (178) 


>  <∆∆G>  (178) 
152.398859

>  <∆G_bound>  (178) 
268.533647

>  <∆G_unbound>  (178) 
116.134788

>  <comRMSD>  (178) 
1.652461

>  <N_constrained_atoms>  (178) 
24.0

>  <N_unconstrained_atoms>  (178) 
0.0

>  <runtime>  (178) 
7.577174

>  <regarded>  (178) 
['d0612a', 'd0254a']

>  <disregarded>  (178) 
[]

>  <LE>  (178) 
-6.349952

>  <outcome>  (178) 
too moved

>  <percent_hybrid>  (178) 
34.0

$$$$

     RDKit          2D

  0  0  0  0  0  0  0  0  0  0999 V2000
M  END
>  <smiles>  (179) 
nan

>  <error>  (179) 
TimeoutError

>  <∆∆G>  (179) 
nan

>  <∆G_bound>  (179) 
nan

>  <∆G_unbound>  (179) 
nan

>  <comRMSD>  (179) 
nan

>  <N_constrained_atoms>  (179) 
nan

>  <N_unconstrained_atoms>  (179) 
nan

>  <runtime>  (179) 
nan

>  <regarded>  (179) 
[]

>  <disregarded>  (179) 
[]

>  <LE>  (179) 
nan

>  <outcome>  (179) 
timeout

>  <percent_hybrid>  (179) 
nan

$$$$
LIG
     RDKit          3D

 46 48  0  0  0  0  0  0  0  0999 V2000
  -14.9529  -44.3785  -18.4852 F   0  0  0  0  0  0  0  0  0  0  0  0
  -16.7384  -40.6987  -27.0237 C   0  0  0  0  0  0  0  0  0  0  0  0
  -15.9232  -40.7322  -27.8659 O   0  0  0  0  0  0  0  0  0  0  0  0
  -18.1774  -40.5245  -27.1135 N   0  0  0  0  0  0  0  0  0  0  0  0
  -14.6086  -44.5591  -19.7880 C   0  0  1  0  0  0  0  0  0  0  0  0
  -15.8678  -44.7646  -20.6532 C   0  0  0  0  0  0  0  0  0  0  0  0
  -15.5005  -44.4007  -22.1097 C   0  0  0  0  0  0  0  0  0  0  0  0
  -15.0836  -42.9139  -22.3245 C   0  0  2  0  0  0  0  0  0  0  0  0
  -14.3644  -42.3736  -21.0541 C   0  0  0  0  0  0  0  0  0  0  0  0
  -13.6671  -43.4496  -20.2396 C   0  0  0  0  0  0  0  0  0  0  0  0
  -17.1539  -42.3815  -23.6419 C   0  0  0  0  0  0  0  0  0  0  0  0
  -16.1627  -41.9463  -22.6586 N   0  0  0  0  0  0  0  0  0  0  0  0
  -15.6209  -40.6755  -23.1896 C   0  0  0  0  0  0  0  0  0  0  0  0
  -15.3648  -40.7459  -24.7137 C   0  0  0  0  0  0  0  0  0  0  0  0
  -16.5999  -40.7489  -25.5808 N   0  0  0  0  0  0  0  0  0  0  0  0
  -16.6711  -42.2051  -25.0948 C   0  0  0  0  0  0  0  0  0  0  0  0
  -17.1270  -44.0365  -20.1487 C   0  0  0  0  0  0  0  0  0  0  0  0
  -18.3106  -44.8127  -20.7337 C   0  0  0  0  0  0  0  0  0  0  0  0
  -17.7940  -46.2181  -21.0243 C   0  0  0  0  0  0  0  0  0  0  0  0
  -16.3533  -46.2266  -20.5292 C   0  0  0  0  0  0  0  0  0  0  0  0
  -18.5934  -40.6629  -26.1787 H   0  0  0  0  0  0  0  0  0  0  0  0
  -18.5665  -40.4287  -26.1607 H   0  0  0  0  0  0  0  0  0  0  0  0
  -14.0246  -45.4806  -19.7923 H   0  0  0  0  0  0  0  0  0  0  0  0
  -14.6307  -45.0117  -22.3911 H   0  0  0  0  0  0  0  0  0  0  0  0
  -16.2640  -44.7293  -22.8162 H   0  0  0  0  0  0  0  0  0  0  0  0
  -14.3615  -42.9312  -23.1520 H   0  0  0  0  0  0  0  0  0  0  0  0
  -13.6163  -41.6252  -21.3422 H   0  0  0  0  0  0  0  0  0  0  0  0
  -15.0764  -41.8584  -20.3956 H   0  0  0  0  0  0  0  0  0  0  0  0
  -13.1744  -43.0008  -19.3699 H   0  0  0  0  0  0  0  0  0  0  0  0
  -12.8791  -43.8871  -20.8621 H   0  0  0  0  0  0  0  0  0  0  0  0
  -18.0491  -41.7581  -23.5058 H   0  0  0  0  0  0  0  0  0  0  0  0
  -17.5144  -43.3978  -23.4827 H   0  0  0  0  0  0  0  0  0  0  0  0
  -16.3585  -39.8859  -22.9928 H   0  0  0  0  0  0  0  0  0  0  0  0
  -14.7089  -40.3571  -22.6765 H   0  0  0  0  0  0  0  0  0  0  0  0
  -14.9236  -39.7695  -24.9686 H   0  0  0  0  0  0  0  0  0  0  0  0
  -14.5588  -41.4269  -25.0318 H   0  0  0  0  0  0  0  0  0  0  0  0
  -15.8178  -42.8416  -25.3860 H   0  0  0  0  0  0  0  0  0  0  0  0
  -17.4774  -42.6502  -25.6996 H   0  0  0  0  0  0  0  0  0  0  0  0
  -17.1776  -42.9775  -20.4076 H   0  0  0  0  0  0  0  0  0  0  0  0
  -17.1891  -44.0924  -19.0543 H   0  0  0  0  0  0  0  0  0  0  0  0
  -19.1509  -44.8302  -20.0316 H   0  0  0  0  0  0  0  0  0  0  0  0
  -18.6700  -44.3446  -21.6557 H   0  0  0  0  0  0  0  0  0  0  0  0
  -18.3956  -46.9846  -20.5274 H   0  0  0  0  0  0  0  0  0  0  0  0
  -17.8352  -46.4187  -22.1009 H   0  0  0  0  0  0  0  0  0  0  0  0
  -16.3381  -46.5443  -19.4779 H   0  0  0  0  0  0  0  0  0  0  0  0
  -15.7368  -46.9344  -21.0865 H   0  0  0  0  0  0  0  0  0  0  0  0
  4  2  1  0
  3  2  2  0
  5 10  1  0
  5  1  1  0
  5  6  1  0
  6  7  1  0
  7  8  1  0
  8 12  1  0
  8  9  1  0
  9 10  1  0
 11 16  1  0
 11 12  1  0
 12 13  1  0
 13 14  1  0
 14 15  1  0
 15  2  1  0
 15 16  1  0
 17 18  1  0
 18 19  1  0
 19 20  1  0
  6 17  1  0
  6 20  1  0
  4 21  1  0
  4 22  1  0
  5 23  1  1
  7 24  1  0
  7 25  1  0
  8 26  1  6
  9 27  1  0
  9 28  1  0
 10 29  1  0
 10 30  1  0
 11 31  1  0
 11 32  1  0
 13 33  1  0
 13 34  1  0
 14 35  1  0
 14 36  1  0
 16 37  1  0
 16 38  1  0
 17 39  1  0
 17 40  1  0
 18 41  1  0
 18 42  1  0
 19 43  1  0
 19 44  1  0
 20 45  1  0
 20 46  1  0
M  END
>  <smiles>  (180) 
[H]N([H])C(=O)N1C([H])([H])C([H])([H])N([C@@]2([H])C([H])([H])C([H])([H])[C@@]([H])(F)C3(C([H])([H])C([H])([H])C([H])([H])C3([H])[H])C2([H])[H])C([H])([H])C1([H])[H]

>  <error>  (180) 


>  <∆∆G>  (180) 
150.405189

>  <∆G_bound>  (180) 
398.185342

>  <∆G_unbound>  (180) 
247.780153

>  <comRMSD>  (180) 
1.544809

>  <N_constrained_atoms>  (180) 
20.0

>  <N_unconstrained_atoms>  (180) 
0.0

>  <runtime>  (180) 
6.572422

>  <regarded>  (180) 
['d0612a', 'd0472a']

>  <disregarded>  (180) 
[]

>  <LE>  (180) 
-7.520259

>  <outcome>  (180) 
too moved

>  <percent_hybrid>  (180) 
20.0

$$$$
LIG
     RDKit          3D

  0  0  0  0  0  0  0  0  0  0999 V3000
M  V30 BEGIN CTAB
M  V30 COUNTS 54 57 0 0 0
M  V30 BEGIN ATOM
M  V30 1 F -13.742000 -44.973000 -19.142000 0
M  V30 2 F -18.671000 -43.808998 -24.667000 0
M  V30 3 C -18.740000 -36.407001 -24.548000 0
M  V30 4 C -14.144000 -44.164001 -20.167999 0 CFG=1
M  V30 5 C -15.241000 -44.532001 -20.906000 0
M  V30 6 C -15.657000 -43.696999 -21.931999 0 CFG=2
M  V30 7 C -14.967000 -42.515999 -22.211000 0 CFG=2
M  V30 8 C -13.855000 -42.192001 -21.429001 0
M  V30 9 C -13.444000 -43.019001 -20.400000 0
M  V30 10 C -16.284000 -42.077000 -24.318001 0 CFG=2
M  V30 11 C -15.370000 -41.667000 -23.252001 0 CFG=1
M  V30 12 C -15.427000 -40.223000 -23.013000 0
M  V30 13 C -15.117000 -39.455002 -24.268000 0
M  V30 14 C -15.997000 -39.874001 -25.365000 0 CFG=2
M  V30 15 C -15.979000 -41.325001 -25.594999 0
M  V30 16 C -17.525000 -43.327000 -24.115999 0 CFG=1
M  V30 17 C -17.125000 -43.785000 -22.886000 0
M  V30 18 C -17.368999 -38.930000 -26.771000 0 CFG=1
M  V30 19 N -18.275000 -37.955002 -26.407000 0
M  V30 20 C -17.968000 -37.487000 -25.233000 0 CFG=2
M  V30 21 S -16.566000 -38.206001 -24.499001 0
M  V30 22 N -16.326000 -39.543999 -27.726999 0
M  V30 23 O -15.329000 -37.941002 -26.474001 0
M  V30 24 C -15.827500 -38.742500 -27.100500 0
M  V30 25 H -18.652939 -36.528793 -23.458237 0
M  V30 26 H -18.337093 -35.426186 -24.840683 0
M  V30 27 H -19.798428 -36.470768 -24.840683 0
M  V30 28 H -15.777649 -45.467316 -20.688761 0
M  V30 29 H -13.298698 -41.265690 -21.635101 0
M  V30 30 H -12.571607 -42.758121 -19.782852 0
M  V30 31 H -16.436596 -39.955349 -22.667925 0
M  V30 32 H -14.677286 -39.964729 -22.250620 0
M  V30 33 H -15.262234 -38.381134 -24.079012 0
M  V30 34 H -14.074337 -39.655060 -24.555805 0
M  V30 35 H -14.983327 -41.619976 -25.957802 0
M  V30 36 H -16.748247 -41.572491 -26.341328 0
M  V30 37 H -17.920717 -44.344707 -22.372618 0
M  V30 38 H -18.358776 -38.739994 -27.211727 0
M  V30 39 H -19.073681 -37.644737 -26.978615 0
M  V30 40 H -17.324739 -36.728790 -25.703463 0
M  V30 41 H -16.045443 -40.523094 -27.573515 0
M  V30 42 H -15.456406 -38.145847 -25.513842 0
M  V30 43 H -14.907500 -37.822502 -26.180500 0
M  V30 44 H -14.897500 -37.812500 -26.170500 0
M  V30 45 H -13.481574 -44.708572 -20.856937 0
M  V30 46 H -15.894237 -43.993984 -20.203278 0
M  V30 47 H -15.417754 -44.770412 -21.908701 0
M  V30 48 H -14.314822 -43.061848 -22.908649 0
M  V30 49 H -14.505596 -41.645794 -20.730160 0
M  V30 50 H -12.788494 -43.561069 -21.097475 0
M  V30 51 H -15.580968 -42.868687 -24.616295 0
M  V30 52 H -14.401982 -41.924667 -23.706476 0
M  V30 53 H -16.953173 -44.131531 -24.601532 0
M  V30 54 H -16.768251 -44.716858 -23.349001 0
M  V30 END ATOM
M  V30 BEGIN BOND
M  V30 1 1 4 9
M  V30 2 1 4 1
M  V30 3 1 4 5
M  V30 4 1 5 6
M  V30 5 1 6 7
M  V30 6 1 7 11
M  V30 7 1 7 8
M  V30 8 1 8 9
M  V30 9 1 10 15
M  V30 10 1 10 11
M  V30 11 1 11 12
M  V30 12 1 12 13
M  V30 13 1 13 14
M  V30 14 1 14 15
M  V30 15 1 16 17
M  V30 16 1 16 2
M  V30 17 1 18 19
M  V30 18 1 19 20
M  V30 19 1 20 3
M  V30 20 1 20 21
M  V30 21 1 6 17
M  V30 22 1 10 16
M  V30 23 1 14 18
M  V30 24 1 14 21 CFG=1
M  V30 25 1 18 22
M  V30 26 1 24 22
M  V30 27 1 24 23
M  V30 28 1 3 25
M  V30 29 1 3 26
M  V30 30 1 3 27
M  V30 31 1 5 28
M  V30 32 1 8 29
M  V30 33 1 9 30
M  V30 34 1 12 31
M  V30 35 1 12 32
M  V30 36 1 13 33
M  V30 37 1 13 34
M  V30 38 1 15 35
M  V30 39 1 15 36
M  V30 40 1 17 37
M  V30 41 1 18 38 CFG=3
M  V30 42 1 19 39
M  V30 43 1 20 40 CFG=3
M  V30 44 1 22 41
M  V30 45 1 23 42
M  V30 46 1 24 43
M  V30 47 1 24 44
M  V30 48 1 4 45 CFG=3
M  V30 49 1 5 46
M  V30 50 1 6 47 CFG=3
M  V30 51 1 7 48 CFG=3
M  V30 52 1 8 49
M  V30 53 1 9 50
M  V30 54 1 10 51 CFG=1
M  V30 55 1 11 52 CFG=3
M  V30 56 1 16 53 CFG=3
M  V30 57 1 17 54
M  V30 END BOND
M  V30 BEGIN COLLECTION
M  V30 MDLV30/STEABS ATOMS=(0)
M  V30 END COLLECTION
M  V30 END CTAB
M  END
>  <smiles>  (181) 
[H]OC([H])([H])N([H])[C@]1([H])N([H])[C@@]([H])(C([H])([H])[H])S[C@]12C([H])([H])C([H])([H])[C@@]1([H])[C@@]3([H])C([H])([H])C([H])([H])[C@@]([H])(F)C([H])([H])[C@@]3([H])C([H])([H])[C@@]([H])(F)[C@]1([H])C2([H])[H]

>  <error>  (181) 


>  <∆∆G>  (181) 
nan

>  <∆G_bound>  (181) 
nan

>  <∆G_unbound>  (181) 
nan

>  <comRMSD>  (181) 
0.0

>  <N_constrained_atoms>  (181) 
23.0

>  <N_unconstrained_atoms>  (181) 
1.0

>  <runtime>  (181) 
1.406837

>  <regarded>  (181) 
['d0612a', 'd0615b']

>  <disregarded>  (181) 
[]

>  <LE>  (181) 
nan

>  <outcome>  (181) 
crashed

>  <percent_hybrid>  (181) 
35.0

$$$$
LIG
     RDKit          3D

 36 37  0  0  0  0  0  0  0  0999 V2000
  -14.5888  -45.4039  -19.6347 F   0  0  0  0  0  0  0  0  0  0  0  0
  -15.1658  -39.4635  -25.1378 C   0  0  0  0  0  0  0  0  0  0  0  0
  -14.2468  -39.8986  -24.5534 O   0  0  0  0  0  0  0  0  0  0  0  0
  -15.3304  -39.1734  -26.5546 N   0  0  0  0  0  0  0  0  0  0  0  0
  -20.0206  -40.0677  -23.8898 O   0  0  0  0  0  0  0  0  0  0  0  0
  -19.2363  -40.0324  -25.1077 S   0  0  0  0  0  0  0  0  0  0  0  0
  -19.3085  -38.8868  -26.0044 O   0  0  0  0  0  0  0  0  0  0  0  0
  -19.7438  -41.4277  -26.0716 C   0  0  0  0  0  0  0  0  0  0  0  0
  -15.1628  -44.4310  -20.3555 C   0  0  0  0  0  0  0  0  0  0  0  0
  -16.5217  -44.1868  -20.2034 C   0  0  0  0  0  0  0  0  0  0  0  0
  -17.1271  -43.1689  -20.9439 C   0  0  0  0  0  0  0  0  0  0  0  0
  -16.3807  -42.3894  -21.8369 C   0  0  0  0  0  0  0  0  0  0  0  0
  -15.0088  -42.6662  -21.9827 C   0  0  0  0  0  0  0  0  0  0  0  0
  -14.3994  -43.6846  -21.2429 C   0  0  0  0  0  0  0  0  0  0  0  0
  -17.1188  -41.6077  -23.9770 C   0  0  0  0  0  0  0  0  0  0  0  0
  -17.0476  -41.3595  -22.5363 N   0  0  0  0  0  0  0  0  0  0  0  0
  -16.4899  -40.0354  -22.2368 C   0  0  0  0  0  0  0  0  0  0  0  0
  -17.0348  -39.0151  -23.2634 C   0  0  0  0  0  0  0  0  0  0  0  0
  -16.4792  -39.0809  -24.6639 N   0  0  0  0  0  0  0  0  0  0  0  0
  -17.4677  -40.3110  -24.7595 C   0  0  2  0  0  0  0  0  0  0  0  0
  -16.3114  -38.9069  -26.7336 H   0  0  0  0  0  0  0  0  0  0  0  0
  -16.2320  -38.6871  -26.6984 H   0  0  0  0  0  0  0  0  0  0  0  0
  -20.7758  -41.2652  -26.3904 H   0  0  0  0  0  0  0  0  0  0  0  0
  -19.0945  -41.4850  -26.9413 H   0  0  0  0  0  0  0  0  0  0  0  0
  -19.6843  -42.3339  -25.4692 H   0  0  0  0  0  0  0  0  0  0  0  0
  -17.1036  -44.7802  -19.5056 H   0  0  0  0  0  0  0  0  0  0  0  0
  -18.1882  -42.9702  -20.8130 H   0  0  0  0  0  0  0  0  0  0  0  0
  -14.3943  -42.0902  -22.6726 H   0  0  0  0  0  0  0  0  0  0  0  0
  -13.3385  -43.8948  -21.3609 H   0  0  0  0  0  0  0  0  0  0  0  0
  -17.8601  -42.3906  -24.1664 H   0  0  0  0  0  0  0  0  0  0  0  0
  -16.1581  -41.9814  -24.3558 H   0  0  0  0  0  0  0  0  0  0  0  0
  -16.8061  -39.7319  -21.2313 H   0  0  0  0  0  0  0  0  0  0  0  0
  -15.3945  -40.0189  -22.2560 H   0  0  0  0  0  0  0  0  0  0  0  0
  -18.1039  -38.7978  -23.1795 H   0  0  0  0  0  0  0  0  0  0  0  0
  -16.5995  -38.0629  -22.9208 H   0  0  0  0  0  0  0  0  0  0  0  0
  -17.2185  -40.6495  -25.7808 H   0  0  0  0  0  0  0  0  0  0  0  0
  4  2  1  0
  3  2  2  0
  8  6  1  0
  7  6  2  0
  6  5  2  0
  9 14  2  0
  9  1  1  0
  9 10  1  0
 10 11  2  0
 11 12  1  0
 12 16  1  0
 12 13  2  0
 13 14  1  0
 15 20  1  0
 15 16  1  0
 16 17  1  0
 17 18  1  0
 18 19  1  0
 19  2  1  0
 19 20  1  0
  6 20  1  0
  4 21  1  0
  4 22  1  0
  8 23  1  0
  8 24  1  0
  8 25  1  0
 10 26  1  0
 11 27  1  0
 13 28  1  0
 14 29  1  0
 15 30  1  0
 15 31  1  0
 17 32  1  0
 17 33  1  0
 18 34  1  0
 18 35  1  0
 20 36  1  6
M  END
>  <smiles>  (182) 
[H]c1c([H])c(N2C([H])([H])C([H])([H])N(C(=O)N([H])[H])[C@]([H])(S(=O)(=O)C([H])([H])[H])C2([H])[H])c([H])c([H])c1F

>  <error>  (182) 


>  <∆∆G>  (182) 
-27.398638

>  <∆G_bound>  (182) 
433.013549

>  <∆G_unbound>  (182) 
460.412187

>  <comRMSD>  (182) 
1.540593

>  <N_constrained_atoms>  (182) 
20.0

>  <N_unconstrained_atoms>  (182) 
0.0

>  <runtime>  (182) 
3.70888

>  <regarded>  (182) 
['d0612a', 'd0851a']

>  <disregarded>  (182) 
[]

>  <LE>  (182) 
1.369932

>  <outcome>  (182) 
too moved

>  <percent_hybrid>  (182) 
20.0

$$$$
LIG
     RDKit          3D

 57 60  0  0  0  0  0  0  0  0999 V2000
  -13.0712  -44.3876  -19.2936 F   0  0  0  0  0  0  0  0  0  0  0  0
  -15.7170  -40.4343  -26.8447 N   0  0  0  0  0  0  0  0  0  0  0  0
  -19.5935  -36.9682  -27.0429 O   0  0  0  0  0  0  0  0  0  0  0  0
  -18.9036  -36.7056  -26.0904 C   0  0  0  0  0  0  0  0  0  0  0  0
  -20.0652  -39.4377  -25.3792 C   0  0  0  0  0  0  0  0  0  0  0  0
  -17.5556  -42.5715  -23.6691 O   0  0  0  0  0  0  0  0  0  0  0  0
  -13.6574  -43.6582  -20.2480 C   0  0  0  0  0  0  0  0  0  0  0  0
  -14.6954  -44.2086  -20.9827 C   0  0  0  0  0  0  0  0  0  0  0  0
  -15.3621  -43.4288  -21.9272 C   0  0  0  0  0  0  0  0  0  0  0  0
  -15.0325  -42.0793  -22.1106 C   0  0  0  0  0  0  0  0  0  0  0  0
  -13.9398  -41.5681  -21.3826 C   0  0  0  0  0  0  0  0  0  0  0  0
  -13.2499  -42.3518  -20.4578 C   0  0  0  0  0  0  0  0  0  0  0  0
  -16.5052  -41.6792  -24.0794 C   0  0  2  0  0  0  0  0  0  0  0  0
  -15.7920  -41.1858  -22.8876 N   0  0  0  0  0  0  0  0  0  0  0  0
  -16.5980  -40.3187  -22.0057 C   0  0  0  0  0  0  0  0  0  0  0  0
  -17.3468  -39.2365  -22.7981 C   0  0  0  0  0  0  0  0  0  0  0  0
  -18.1423  -39.7912  -23.9162 N   0  0  0  0  0  0  0  0  0  0  0  0
  -17.2341  -40.5352  -24.8710 C   0  0  1  0  0  0  0  0  0  0  0  0
  -19.6578  -35.2436  -24.3186 C   0  0  0  0  0  0  0  0  0  0  0  0
  -19.3509  -33.9905  -23.5249 C   0  0  0  0  0  0  0  0  0  0  0  0
  -18.8897  -33.1106  -24.6322 C   0  0  0  0  0  0  0  0  0  0  0  0
  -19.0931  -34.0631  -25.7851 C   0  0  0  0  0  0  0  0  0  0  0  0
  -18.6595  -35.4559  -25.4339 N   0  0  0  0  0  0  0  0  0  0  0  0
  -18.9313  -38.7513  -24.5970 C   0  0  1  0  0  0  0  0  0  0  0  0
  -18.0527  -37.7960  -25.4317 C   0  0  1  0  0  0  0  0  0  0  0  0
  -17.2173  -38.5560  -26.4768 C   0  0  0  0  0  0  0  0  0  0  0  0
  -16.3401  -39.6384  -25.8069 C   0  0  2  0  0  0  0  0  0  0  0  0
  -15.2992  -39.0026  -25.0998 O   0  0  0  0  0  0  0  0  0  0  0  0
  -15.3402  -39.8299  -27.5704 H   0  0  0  0  0  0  0  0  0  0  0  0
  -14.8973  -40.8831  -26.4293 H   0  0  0  0  0  0  0  0  0  0  0  0
  -20.5720  -40.1827  -24.7539 H   0  0  0  0  0  0  0  0  0  0  0  0
  -20.8307  -38.7118  -25.6720 H   0  0  0  0  0  0  0  0  0  0  0  0
  -19.7196  -39.9437  -26.2850 H   0  0  0  0  0  0  0  0  0  0  0  0
  -18.2147  -41.9692  -23.2804 H   0  0  0  0  0  0  0  0  0  0  0  0
  -15.0003  -45.2327  -20.8088 H   0  0  0  0  0  0  0  0  0  0  0  0
  -16.1805  -43.8930  -22.4650 H   0  0  0  0  0  0  0  0  0  0  0  0
  -13.6339  -40.5356  -21.5328 H   0  0  0  0  0  0  0  0  0  0  0  0
  -12.4146  -41.9504  -19.8942 H   0  0  0  0  0  0  0  0  0  0  0  0
  -15.8274  -42.2369  -24.7344 H   0  0  0  0  0  0  0  0  0  0  0  0
  -17.3259  -40.9230  -21.4466 H   0  0  0  0  0  0  0  0  0  0  0  0
  -15.9686  -39.8071  -21.2664 H   0  0  0  0  0  0  0  0  0  0  0  0
  -18.0207  -38.7272  -22.0977 H   0  0  0  0  0  0  0  0  0  0  0  0
  -16.6257  -38.4850  -23.1318 H   0  0  0  0  0  0  0  0  0  0  0  0
  -17.9199  -41.0688  -25.5467 H   0  0  0  0  0  0  0  0  0  0  0  0
  -19.5639  -36.0918  -23.6327 H   0  0  0  0  0  0  0  0  0  0  0  0
  -20.6990  -35.3060  -24.6807 H   0  0  0  0  0  0  0  0  0  0  0  0
  -20.2305  -33.6102  -22.9981 H   0  0  0  0  0  0  0  0  0  0  0  0
  -18.5505  -34.1576  -22.7961 H   0  0  0  0  0  0  0  0  0  0  0  0
  -19.4750  -32.1935  -24.7393 H   0  0  0  0  0  0  0  0  0  0  0  0
  -17.8347  -32.8429  -24.5102 H   0  0  0  0  0  0  0  0  0  0  0  0
  -20.1087  -34.0422  -26.2141 H   0  0  0  0  0  0  0  0  0  0  0  0
  -18.4456  -33.7613  -26.6187 H   0  0  0  0  0  0  0  0  0  0  0  0
  -19.4476  -38.1758  -23.8210 H   0  0  0  0  0  0  0  0  0  0  0  0
  -17.3457  -37.2867  -24.7637 H   0  0  0  0  0  0  0  0  0  0  0  0
  -17.8754  -39.0082  -27.2302 H   0  0  0  0  0  0  0  0  0  0  0  0
  -16.5892  -37.8319  -27.0144 H   0  0  0  0  0  0  0  0  0  0  0  0
  -14.8137  -38.4243  -25.7194 H   0  0  0  0  0  0  0  0  0  0  0  0
  4  3  2  0
  7 12  2  0
  7  1  1  0
  7  8  1  0
  8  9  2  0
  9 10  1  0
 10 14  1  0
 10 11  2  0
 11 12  1  0
 13 18  1  0
 13 14  1  0
 14 15  1  0
 15 16  1  0
 16 17  1  0
 17 18  1  0
 19 20  1  0
 19 23  1  0
 20 21  1  0
 21 22  1  0
 22 23  1  0
 23  4  1  0
 24  5  1  0
 24 25  1  0
 25 26  1  0
 25  4  1  0
 26 27  1  0
 17 24  1  0
 18 27  1  0
 27  2  1  0
 13  6  1  0
 27 28  1  1
  2 29  1  0
  2 30  1  0
  5 31  1  0
  5 32  1  0
  5 33  1  0
  6 34  1  0
  8 35  1  0
  9 36  1  0
 11 37  1  0
 12 38  1  0
 13 39  1  6
 15 40  1  0
 15 41  1  0
 16 42  1  0
 16 43  1  0
 18 44  1  6
 19 45  1  0
 19 46  1  0
 20 47  1  0
 20 48  1  0
 21 49  1  0
 21 50  1  0
 22 51  1  0
 22 52  1  0
 24 53  1  1
 25 54  1  1
 26 55  1  0
 26 56  1  0
 28 57  1  0
M  END
>  <smiles>  (183) 
[H]O[C@]1(N([H])[H])C([H])([H])[C@@]([H])(C(=O)N2C([H])([H])C([H])([H])C([H])([H])C2([H])[H])[C@@]([H])(C([H])([H])[H])N2C([H])([H])C([H])([H])N(c3c([H])c([H])c(F)c([H])c3[H])[C@@]([H])(O[H])[C@@]21[H]

>  <error>  (183) 


>  <∆∆G>  (183) 
-43.954925

>  <∆G_bound>  (183) 
292.482945

>  <∆G_unbound>  (183) 
336.43787

>  <comRMSD>  (183) 
1.406504

>  <N_constrained_atoms>  (183) 
28.0

>  <N_unconstrained_atoms>  (183) 
0.0

>  <runtime>  (183) 
4.053196

>  <regarded>  (183) 
['d0612a', 'd0866a']

>  <disregarded>  (183) 
[]

>  <LE>  (183) 
1.569819

>  <outcome>  (183) 
too moved

>  <percent_hybrid>  (183) 
47.0

$$$$
LIG
     RDKit          3D

 62 66  0  0  0  0  0  0  0  0999 V2000
  -14.3785  -45.2148  -19.8511 F   0  0  0  0  0  0  0  0  0  0  0  0
  -18.2968  -38.3434  -26.1613 C   0  0  0  0  0  0  0  0  0  0  0  0
  -18.0217  -37.2013  -26.1350 O   0  0  0  0  0  0  0  0  0  0  0  0
  -19.0095  -39.1197  -27.1698 N   0  0  0  0  0  0  0  0  0  0  0  0
  -14.9207  -44.3462  -20.7150 C   0  0  0  0  0  0  0  0  0  0  0  0
  -16.1611  -43.8031  -20.4368 C   0  0  0  0  0  0  0  0  0  0  0  0
  -16.7171  -42.8727  -21.3202 C   0  0  0  0  0  0  0  0  0  0  0  0
  -16.0606  -42.4738  -22.5000 C   0  0  0  0  0  0  0  0  0  0  0  0
  -14.8238  -43.0809  -22.7642 C   0  0  0  0  0  0  0  0  0  0  0  0
  -14.2478  -43.9975  -21.8750 C   0  0  0  0  0  0  0  0  0  0  0  0
  -16.4745  -41.5042  -24.7644 C   0  0  0  0  0  0  0  0  0  0  0  0
  -16.5563  -41.4705  -23.3113 N   0  0  0  0  0  0  0  0  0  0  0  0
  -17.6150  -40.5866  -22.8471 C   0  0  0  0  0  0  0  0  0  0  0  0
  -17.6135  -39.2897  -23.7165 C   0  0  2  0  0  0  0  0  0  0  0  0
  -18.1111  -39.3846  -25.1499 N   0  0  0  0  0  0  0  0  0  0  0  0
  -16.7387  -40.0814  -25.3511 C   0  0  0  0  0  0  0  0  0  0  0  0
  -12.5514  -32.1975  -20.9780 O   0  0  0  0  0  0  0  0  0  0  0  0
  -13.2343  -33.1509  -20.6141 C   0  0  0  0  0  0  0  0  0  0  0  0
  -13.6272  -33.3338  -19.2065 C   0  0  0  0  0  0  0  0  0  0  0  0
  -14.5604  -34.3379  -18.9174 C   0  0  0  0  0  0  0  0  0  0  0  0
  -15.0688  -35.1685  -19.9245 N   0  0  0  0  0  0  0  0  0  0  0  0
  -14.2038  -35.3627  -21.0803 C   0  0  1  0  0  0  0  0  0  0  0  0
  -13.7374  -34.0708  -21.4956 N   0  0  0  0  0  0  0  0  0  0  0  0
  -13.1351  -32.4887  -18.2132 C   0  0  0  0  0  0  0  0  0  0  0  0
  -15.0824  -34.4077  -17.6248 C   0  0  0  0  0  0  0  0  0  0  0  0
  -14.6125  -33.5508  -16.6290 C   0  0  0  0  0  0  0  0  0  0  0  0
  -13.6261  -32.6092  -16.9192 C   0  0  0  0  0  0  0  0  0  0  0  0
  -13.0621  -36.3610  -20.7777 C   0  0  0  0  0  0  0  0  0  0  0  0
  -13.4358  -37.6708  -21.4827 C   0  0  0  0  0  0  0  0  0  0  0  0
  -14.9119  -37.5217  -21.8573 C   0  0  1  0  0  0  0  0  0  0  0  0
  -15.0159  -36.0363  -22.1958 C   0  0  0  0  0  0  0  0  0  0  0  0
  -16.7019  -38.1764  -23.4077 N   0  0  0  0  0  0  0  0  0  0  0  0
  -15.3540  -38.4892  -22.9564 C   0  0  0  0  0  0  0  0  0  0  0  0
  -19.1733  -40.0748  -26.8083 H   0  0  0  0  0  0  0  0  0  0  0  0
  -18.9685  -40.1204  -26.9174 H   0  0  0  0  0  0  0  0  0  0  0  0
  -16.6870  -44.0883  -19.5319 H   0  0  0  0  0  0  0  0  0  0  0  0
  -17.6886  -42.4626  -21.0581 H   0  0  0  0  0  0  0  0  0  0  0  0
  -14.2504  -42.8123  -23.6461 H   0  0  0  0  0  0  0  0  0  0  0  0
  -13.2703  -44.4228  -22.0877 H   0  0  0  0  0  0  0  0  0  0  0  0
  -17.2253  -42.2021  -25.1555 H   0  0  0  0  0  0  0  0  0  0  0  0
  -15.4930  -41.8343  -25.1190 H   0  0  0  0  0  0  0  0  0  0  0  0
  -18.5874  -41.0882  -22.9361 H   0  0  0  0  0  0  0  0  0  0  0  0
  -17.4732  -40.2979  -21.7978 H   0  0  0  0  0  0  0  0  0  0  0  0
  -18.5275  -38.8241  -23.3121 H   0  0  0  0  0  0  0  0  0  0  0  0
  -15.8809  -39.4016  -25.2828 H   0  0  0  0  0  0  0  0  0  0  0  0
  -16.7270  -40.2722  -26.4375 H   0  0  0  0  0  0  0  0  0  0  0  0
  -15.4537  -36.0320  -19.5525 H   0  0  0  0  0  0  0  0  0  0  0  0
  -13.4652  -33.9637  -22.4580 H   0  0  0  0  0  0  0  0  0  0  0  0
  -12.3870  -31.7337  -18.4316 H   0  0  0  0  0  0  0  0  0  0  0  0
  -15.8598  -35.1258  -17.3789 H   0  0  0  0  0  0  0  0  0  0  0  0
  -15.0235  -33.6103  -15.6236 H   0  0  0  0  0  0  0  0  0  0  0  0
  -13.2506  -31.9508  -16.1419 H   0  0  0  0  0  0  0  0  0  0  0  0
  -12.0966  -36.0078  -21.1602 H   0  0  0  0  0  0  0  0  0  0  0  0
  -12.9369  -36.5376  -19.7032 H   0  0  0  0  0  0  0  0  0  0  0  0
  -12.8146  -37.7920  -22.3787 H   0  0  0  0  0  0  0  0  0  0  0  0
  -13.2629  -38.5408  -20.8410 H   0  0  0  0  0  0  0  0  0  0  0  0
  -15.5215  -37.7265  -20.9658 H   0  0  0  0  0  0  0  0  0  0  0  0
  -16.0555  -35.6901  -22.2235 H   0  0  0  0  0  0  0  0  0  0  0  0
  -14.5759  -35.8347  -23.1794 H   0  0  0  0  0  0  0  0  0  0  0  0
  -16.7213  -37.4908  -24.1680 H   0  0  0  0  0  0  0  0  0  0  0  0
  -15.2685  -39.4909  -22.5316 H   0  0  0  0  0  0  0  0  0  0  0  0
  -14.6594  -38.4555  -23.7986 H   0  0  0  0  0  0  0  0  0  0  0  0
  4  2  1  0
  3  2  2  0
  5 10  2  0
  5  1  1  0
  5  6  1  0
  6  7  2  0
  7  8  1  0
  8 12  1  0
  8  9  2  0
  9 10  1  0
 11 16  1  0
 11 12  1  0
 12 13  1  0
 13 14  1  0
 14 15  1  0
 15  2  1  0
 15 16  1  0
 18 17  2  0
 18 23  1  0
 18 19  1  0
 19 24  2  0
 19 20  1  0
 20 21  1  0
 20 25  2  0
 22 21  1  1
 22 23  1  0
 22 31  1  0
 22 28  1  0
 24 27  1  0
 25 26  1  0
 26 27  2  0
 28 29  1  0
 29 30  1  0
 30 31  1  0
 32 14  1  0
 33 32  1  0
 33 30  1  0
  4 34  1  0
  4 35  1  0
  6 36  1  0
  7 37  1  0
  9 38  1  0
 10 39  1  0
 11 40  1  0
 11 41  1  0
 13 42  1  0
 13 43  1  0
 14 44  1  6
 16 45  1  0
 16 46  1  0
 21 47  1  0
 23 48  1  0
 24 49  1  0
 25 50  1  0
 26 51  1  0
 27 52  1  0
 28 53  1  0
 28 54  1  0
 29 55  1  0
 29 56  1  0
 30 57  1  1
 31 58  1  0
 31 59  1  0
 32 60  1  0
 33 61  1  0
 33 62  1  0
M  END
>  <smiles>  (184) 
[H]c1c([H])c([H])c2c(c1[H])C(=O)N([H])[C@]1(N2[H])C([H])([H])C([H])([H])[C@]([H])(C([H])([H])N([H])[C@]2([H])N(C(=O)N([H])[H])C([H])([H])C([H])([H])N(c3c([H])c([H])c(F)c([H])c3[H])C2([H])[H])C1([H])[H]

>  <error>  (184) 


>  <∆∆G>  (184) 
144.307039

>  <∆G_bound>  (184) 
423.068143

>  <∆G_unbound>  (184) 
278.761104

>  <comRMSD>  (184) 
1.964382

>  <N_constrained_atoms>  (184) 
31.0

>  <N_unconstrained_atoms>  (184) 
2.0

>  <runtime>  (184) 
15.7744

>  <regarded>  (184) 
['d0612a', 'd1196a']

>  <disregarded>  (184) 
[]

>  <LE>  (184) 
-4.372941

>  <outcome>  (184) 
too moved

>  <percent_hybrid>  (184) 
49.0

$$$$
LIG
     RDKit          3D

 50 52  0  0  0  0  0  0  0  0999 V2000
  -14.0829  -43.6445  -19.2746 O   0  0  0  0  0  0  0  0  0  0  0  0
  -19.0601  -38.9528  -26.3376 C   0  0  0  0  0  0  0  0  0  0  0  0
  -18.9345  -38.3128  -27.3157 O   0  0  0  0  0  0  0  0  0  0  0  0
  -20.2598  -39.4408  -25.6801 N   0  0  0  0  0  0  0  0  0  0  0  0
  -12.7635  -43.3176  -18.8211 C   0  0  0  0  0  0  0  0  0  0  0  0
  -12.7574  -42.6777  -17.4197 C   0  0  0  0  0  0  0  0  0  0  0  0
  -14.4584  -42.9799  -20.4082 C   0  0  0  0  0  0  0  0  0  0  0  0
  -15.0733  -43.7207  -21.4078 C   0  0  0  0  0  0  0  0  0  0  0  0
  -15.5184  -43.0929  -22.5815 C   0  0  0  0  0  0  0  0  0  0  0  0
  -15.3973  -41.7051  -22.7812 C   0  0  0  0  0  0  0  0  0  0  0  0
  -14.7501  -40.9928  -21.7557 C   0  0  0  0  0  0  0  0  0  0  0  0
  -14.3070  -41.6102  -20.5776 C   0  0  0  0  0  0  0  0  0  0  0  0
  -17.0060  -41.6929  -24.6334 C   0  0  0  0  0  0  0  0  0  0  0  0
  -15.8693  -41.0775  -23.9463 N   0  0  0  0  0  0  0  0  0  0  0  0
  -15.8943  -39.6110  -23.9904 C   0  0  0  0  0  0  0  0  0  0  0  0
  -16.5835  -39.1111  -25.2748 C   0  0  0  0  0  0  0  0  0  0  0  0
  -18.0643  -39.4106  -25.3754 N   0  0  0  0  0  0  0  0  0  0  0  0
  -17.5314  -40.7963  -25.7830 C   0  0  0  0  0  0  0  0  0  0  0  0
  -13.1159  -43.6078  -16.3269 N   0  0  0  0  0  0  0  0  0  0  0  0
  -12.5240  -43.1553  -15.0435 C   0  0  0  0  0  0  0  0  0  0  0  0
  -13.1897  -43.8607  -13.8533 C   0  0  0  0  0  0  0  0  0  0  0  0
  -14.5665  -43.4978  -13.7036 O   0  0  0  0  0  0  0  0  0  0  0  0
  -15.1550  -43.0313  -14.9245 C   0  0  0  0  0  0  0  0  0  0  0  0
  -14.5880  -43.7447  -16.1664 C   0  0  0  0  0  0  0  0  0  0  0  0
  -19.9889  -40.0687  -24.9058 H   0  0  0  0  0  0  0  0  0  0  0  0
  -19.9988  -39.8708  -24.7764 H   0  0  0  0  0  0  0  0  0  0  0  0
  -12.2197  -42.6703  -19.5214 H   0  0  0  0  0  0  0  0  0  0  0  0
  -12.2010  -44.2502  -18.7919 H   0  0  0  0  0  0  0  0  0  0  0  0
  -11.7292  -42.3292  -17.2559 H   0  0  0  0  0  0  0  0  0  0  0  0
  -13.4029  -41.7910  -17.3972 H   0  0  0  0  0  0  0  0  0  0  0  0
  -15.1895  -44.7938  -21.2939 H   0  0  0  0  0  0  0  0  0  0  0  0
  -15.9521  -43.7317  -23.3441 H   0  0  0  0  0  0  0  0  0  0  0  0
  -14.5869  -39.9225  -21.8318 H   0  0  0  0  0  0  0  0  0  0  0  0
  -13.8568  -40.9963  -19.8045 H   0  0  0  0  0  0  0  0  0  0  0  0
  -17.8266  -41.8606  -23.9235 H   0  0  0  0  0  0  0  0  0  0  0  0
  -16.7203  -42.6560  -25.0718 H   0  0  0  0  0  0  0  0  0  0  0  0
  -16.4458  -39.2146  -23.1279 H   0  0  0  0  0  0  0  0  0  0  0  0
  -14.8729  -39.2133  -23.9715 H   0  0  0  0  0  0  0  0  0  0  0  0
  -16.5888  -38.0136  -25.1808 H   0  0  0  0  0  0  0  0  0  0  0  0
  -15.9955  -39.2295  -26.2006 H   0  0  0  0  0  0  0  0  0  0  0  0
  -16.9048  -40.8086  -26.6919 H   0  0  0  0  0  0  0  0  0  0  0  0
  -18.4233  -41.3319  -26.1469 H   0  0  0  0  0  0  0  0  0  0  0  0
  -11.4492  -43.3652  -15.0383 H   0  0  0  0  0  0  0  0  0  0  0  0
  -12.6449  -42.0698  -14.9274 H   0  0  0  0  0  0  0  0  0  0  0  0
  -13.1299  -44.9505  -13.9582 H   0  0  0  0  0  0  0  0  0  0  0  0
  -12.6780  -43.5945  -12.9230 H   0  0  0  0  0  0  0  0  0  0  0  0
  -16.2344  -43.1820  -14.8539 H   0  0  0  0  0  0  0  0  0  0  0  0
  -14.9955  -41.9486  -14.9936 H   0  0  0  0  0  0  0  0  0  0  0  0
  -15.1386  -43.4125  -17.0516 H   0  0  0  0  0  0  0  0  0  0  0  0
  -14.7773  -44.8183  -16.0630 H   0  0  0  0  0  0  0  0  0  0  0  0
  4  2  1  0
  3  2  2  0
  6  5  1  0
  5  1  1  0
  7 12  1  0
  7  1  1  0
  7  8  2  0
  8  9  1  0
  9 10  2  0
 10 14  1  0
 10 11  1  0
 11 12  2  0
 13 18  1  0
 13 14  1  0
 14 15  1  0
 15 16  1  0
 16 17  1  0
 17  2  1  0
 17 18  1  0
 19  6  1  0
 19 24  1  0
 19 20  1  0
 20 21  1  0
 21 22  1  0
 22 23  1  0
 23 24  1  0
  4 25  1  0
  4 26  1  0
  5 27  1  0
  5 28  1  0
  6 29  1  0
  6 30  1  0
  8 31  1  0
  9 32  1  0
 11 33  1  0
 12 34  1  0
 13 35  1  0
 13 36  1  0
 15 37  1  0
 15 38  1  0
 16 39  1  0
 16 40  1  0
 18 41  1  0
 18 42  1  0
 20 43  1  0
 20 44  1  0
 21 45  1  0
 21 46  1  0
 23 47  1  0
 23 48  1  0
 24 49  1  0
 24 50  1  0
M  END
>  <smiles>  (185) 
[H]c1c([H])c(N2C([H])([H])C([H])([H])N(C(=O)N([H])[H])C([H])([H])C2([H])[H])c([H])c([H])c1OC([H])([H])C([H])([H])N1C([H])([H])C([H])([H])OC([H])([H])C1([H])[H]

>  <error>  (185) 


>  <∆∆G>  (185) 
178.175095

>  <∆G_bound>  (185) 
369.87514

>  <∆G_unbound>  (185) 
191.700044

>  <comRMSD>  (185) 
2.133535

>  <N_constrained_atoms>  (185) 
24.0

>  <N_unconstrained_atoms>  (185) 
0.0

>  <runtime>  (185) 
7.858725

>  <regarded>  (185) 
['d0612a', 'z0052a']

>  <disregarded>  (185) 
[]

>  <LE>  (185) 
-7.423962

>  <outcome>  (185) 
too moved

>  <percent_hybrid>  (185) 
34.0

$$$$
LIG
     RDKit          3D

 48 50  0  0  0  0  0  0  0  0999 V2000
  -14.5361  -45.1097  -19.2098 F   0  0  0  0  0  0  0  0  0  0  0  0
  -17.5557  -39.6800  -26.5120 C   0  0  0  0  0  0  0  0  0  0  0  0
  -17.8174  -38.5953  -26.8821 O   0  0  0  0  0  0  0  0  0  0  0  0
  -17.6006  -40.9508  -27.2130 N   0  0  0  0  0  0  0  0  0  0  0  0
  -12.9704  -40.8684  -21.1402 C   0  0  2  0  0  0  0  0  0  0  0  0
  -11.8263  -40.9315  -20.1199 C   0  0  0  0  0  0  0  0  0  0  0  0
  -13.5461  -39.5090  -21.0970 N   0  0  0  0  0  0  0  0  0  0  0  0
  -12.7634  -38.6023  -21.9466 C   0  0  0  0  0  0  0  0  0  0  0  0
  -14.7510  -44.0985  -20.0613 C   0  0  0  0  0  0  0  0  0  0  0  0
  -15.8757  -44.1174  -20.8624 C   0  0  0  0  0  0  0  0  0  0  0  0
  -16.0986  -43.0606  -21.7406 C   0  0  0  0  0  0  0  0  0  0  0  0
  -15.2109  -41.9643  -21.8192 C   0  0  0  0  0  0  0  0  0  0  0  0
  -14.0395  -41.9632  -21.0066 C   0  0  0  0  0  0  0  0  0  0  0  0
  -13.8371  -43.0535  -20.1329 C   0  0  0  0  0  0  0  0  0  0  0  0
  -15.0793  -41.2107  -24.0887 C   0  0  0  0  0  0  0  0  0  0  0  0
  -15.4636  -40.8862  -22.7065 N   0  0  0  0  0  0  0  0  0  0  0  0
  -16.8261  -40.3285  -22.6419 C   0  0  0  0  0  0  0  0  0  0  0  0
  -17.0802  -39.4280  -23.8679 C   0  0  0  0  0  0  0  0  0  0  0  0
  -17.1635  -40.1571  -25.1945 N   0  0  0  0  0  0  0  0  0  0  0  0
  -15.6258  -40.1293  -25.0553 C   0  0  0  0  0  0  0  0  0  0  0  0
  -13.3570  -37.2391  -21.9587 C   0  0  0  0  0  0  0  0  0  0  0  0
  -13.5532  -36.4696  -23.0096 N   0  0  0  0  0  0  0  0  0  0  0  0
  -14.0991  -35.3112  -22.5169 C   0  0  0  0  0  0  0  0  0  0  0  0
  -14.2367  -35.3779  -21.1522 C   0  0  0  0  0  0  0  0  0  0  0  0
  -13.7674  -36.6131  -20.8091 N   0  0  0  0  0  0  0  0  0  0  0  0
  -17.1899  -41.6840  -26.6106 H   0  0  0  0  0  0  0  0  0  0  0  0
  -17.4140  -41.7146  -26.5408 H   0  0  0  0  0  0  0  0  0  0  0  0
  -12.5261  -41.0374  -22.1228 H   0  0  0  0  0  0  0  0  0  0  0  0
  -12.1941  -40.8384  -19.0917 H   0  0  0  0  0  0  0  0  0  0  0  0
  -11.2850  -41.8768  -20.2084 H   0  0  0  0  0  0  0  0  0  0  0  0
  -11.0835  -40.1433  -20.2796 H   0  0  0  0  0  0  0  0  0  0  0  0
  -14.4602  -39.5998  -21.5607 H   0  0  0  0  0  0  0  0  0  0  0  0
  -11.7287  -38.5177  -21.5981 H   0  0  0  0  0  0  0  0  0  0  0  0
  -12.7418  -38.9728  -22.9773 H   0  0  0  0  0  0  0  0  0  0  0  0
  -16.5692  -44.9492  -20.8048 H   0  0  0  0  0  0  0  0  0  0  0  0
  -16.9756  -43.1139  -22.3784 H   0  0  0  0  0  0  0  0  0  0  0  0
  -12.9574  -43.1301  -19.5016 H   0  0  0  0  0  0  0  0  0  0  0  0
  -15.4754  -42.1881  -24.3952 H   0  0  0  0  0  0  0  0  0  0  0  0
  -13.9916  -41.2448  -24.1683 H   0  0  0  0  0  0  0  0  0  0  0  0
  -17.6006  -41.1028  -22.6346 H   0  0  0  0  0  0  0  0  0  0  0  0
  -16.9341  -39.7375  -21.7251 H   0  0  0  0  0  0  0  0  0  0  0  0
  -18.1169  -39.0760  -23.7470 H   0  0  0  0  0  0  0  0  0  0  0  0
  -16.5409  -38.4660  -23.8689 H   0  0  0  0  0  0  0  0  0  0  0  0
  -15.1618  -39.1343  -24.9573 H   0  0  0  0  0  0  0  0  0  0  0  0
  -15.2550  -40.4398  -26.0452 H   0  0  0  0  0  0  0  0  0  0  0  0
  -14.3701  -34.4937  -23.1729 H   0  0  0  0  0  0  0  0  0  0  0  0
  -14.6255  -34.6830  -20.4218 H   0  0  0  0  0  0  0  0  0  0  0  0
  -13.7396  -37.0321  -19.8883 H   0  0  0  0  0  0  0  0  0  0  0  0
  4  2  1  0
  3  2  2  0
  6  5  1  0
  7  5  1  0
  8  7  1  0
  9 14  2  0
  9  1  1  0
  9 10  1  0
 10 11  2  0
 11 12  1  0
 12 16  1  0
 12 13  2  0
 13 14  1  0
 15 20  1  0
 15 16  1  0
 16 17  1  0
 17 18  1  0
 18 19  1  0
 19  2  1  0
 19 20  1  0
 21  8  1  0
 21 22  2  0
 21 25  1  0
 22 23  1  0
 23 24  2  0
 24 25  1  0
 13  5  1  0
  4 26  1  0
  4 27  1  0
  5 28  1  6
  6 29  1  0
  6 30  1  0
  6 31  1  0
  7 32  1  0
  8 33  1  0
  8 34  1  0
 10 35  1  0
 11 36  1  0
 14 37  1  0
 15 38  1  0
 15 39  1  0
 17 40  1  0
 17 41  1  0
 18 42  1  0
 18 43  1  0
 20 44  1  0
 20 45  1  0
 23 46  1  0
 24 47  1  0
 25 48  1  0
M  END
>  <smiles>  (186) 
[H]c1nc(C([H])([H])N([H])[C@]([H])(c2c([H])c(F)c([H])c([H])c2N2C([H])([H])C([H])([H])N(C(=O)N([H])[H])C([H])([H])C2([H])[H])C([H])([H])[H])[nH]c1[H]

>  <error>  (186) 


>  <∆∆G>  (186) 
140.549964

>  <∆G_bound>  (186) 
336.38392

>  <∆G_unbound>  (186) 
195.833956

>  <comRMSD>  (186) 
1.455165

>  <N_constrained_atoms>  (186) 
25.0

>  <N_unconstrained_atoms>  (186) 
0.0

>  <runtime>  (186) 
7.13232

>  <regarded>  (186) 
['d0612a', 'z0103a']

>  <disregarded>  (186) 
[]

>  <LE>  (186) 
-5.621999

>  <outcome>  (186) 
too moved

>  <percent_hybrid>  (186) 
36.0

$$$$

     RDKit          2D

  0  0  0  0  0  0  0  0  0  0999 V2000
M  END
>  <smiles>  (187) 
nan

>  <error>  (187) 
DistanceError 7.49 Å

>  <∆∆G>  (187) 
nan

>  <∆G_bound>  (187) 
nan

>  <∆G_unbound>  (187) 
nan

>  <comRMSD>  (187) 
nan

>  <N_constrained_atoms>  (187) 
nan

>  <N_unconstrained_atoms>  (187) 
nan

>  <runtime>  (187) 
nan

>  <regarded>  (187) 
[]

>  <disregarded>  (187) 
[]

>  <LE>  (187) 
nan

>  <outcome>  (187) 
too distant

>  <percent_hybrid>  (187) 
nan

$$$$

     RDKit          2D

  0  0  0  0  0  0  0  0  0  0999 V2000
M  END
>  <smiles>  (188) 
nan

>  <error>  (188) 
RecursionError maximum recursion depth exceeded while calling a Python object

>  <∆∆G>  (188) 
nan

>  <∆G_bound>  (188) 
nan

>  <∆G_unbound>  (188) 
nan

>  <comRMSD>  (188) 
nan

>  <N_constrained_atoms>  (188) 
nan

>  <N_unconstrained_atoms>  (188) 
nan

>  <runtime>  (188) 
nan

>  <regarded>  (188) 
[]

>  <disregarded>  (188) 
[]

>  <LE>  (188) 
nan

>  <outcome>  (188) 
crashed

>  <percent_hybrid>  (188) 
nan

$$$$
LIG
     RDKit          3D

 44 46  0  0  0  0  0  0  0  0999 V2000
  -14.0344  -44.5739  -19.4418 F   0  0  0  0  0  0  0  0  0  0  0  0
  -18.3542  -39.3250  -26.4869 C   0  0  0  0  0  0  0  0  0  0  0  0
  -18.3457  -38.2668  -27.0000 O   0  0  0  0  0  0  0  0  0  0  0  0
  -19.1707  -40.4936  -26.7552 N   0  0  0  0  0  0  0  0  0  0  0  0
  -14.1939  -43.8742  -20.6024 C   0  0  1  0  0  0  0  0  0  0  0  0
  -15.6777  -43.6844  -20.8348 C   0  0  0  0  0  0  0  0  0  0  0  0
  -15.9730  -42.9018  -22.1119 C   0  0  0  0  0  0  0  0  0  0  0  0
  -14.8350  -41.9398  -22.5515 C   0  0  2  0  0  0  0  0  0  0  0  0
  -14.0389  -41.3786  -21.3035 C   0  0  1  0  0  0  0  0  0  0  0  0
  -13.4267  -42.5606  -20.4934 C   0  0  0  0  0  0  0  0  0  0  0  0
  -15.7255  -41.5429  -24.8325 C   0  0  0  0  0  0  0  0  0  0  0  0
  -15.2553  -40.9568  -23.5822 N   0  0  0  0  0  0  0  0  0  0  0  0
  -16.1918  -39.9197  -23.1548 C   0  0  0  0  0  0  0  0  0  0  0  0
  -16.6915  -39.0998  -24.3696 C   0  0  0  0  0  0  0  0  0  0  0  0
  -17.6118  -39.8216  -25.3304 N   0  0  0  0  0  0  0  0  0  0  0  0
  -16.2800  -40.4523  -25.7855 C   0  0  0  0  0  0  0  0  0  0  0  0
  -12.9260  -40.3778  -21.7032 C   0  0  0  0  0  0  0  0  0  0  0  0
  -13.2504  -39.1215  -21.0255 N   0  0  0  0  0  0  0  0  0  0  0  0
  -14.0564  -39.5055  -19.8959 C   0  0  0  0  0  0  0  0  0  0  0  0
  -14.8986  -40.5713  -20.4008 N   0  0  0  0  0  0  0  0  0  0  0  0
  -18.9861  -41.2077  -26.0316 H   0  0  0  0  0  0  0  0  0  0  0  0
  -18.8257  -41.2837  -26.1876 H   0  0  0  0  0  0  0  0  0  0  0  0
  -13.7703  -44.4812  -21.4090 H   0  0  0  0  0  0  0  0  0  0  0  0
  -16.1783  -44.6595  -20.8703 H   0  0  0  0  0  0  0  0  0  0  0  0
  -16.1172  -43.1727  -19.9699 H   0  0  0  0  0  0  0  0  0  0  0  0
  -16.1503  -43.6250  -22.9184 H   0  0  0  0  0  0  0  0  0  0  0  0
  -16.9210  -42.3732  -21.9675 H   0  0  0  0  0  0  0  0  0  0  0  0
  -14.1017  -42.5753  -23.0693 H   0  0  0  0  0  0  0  0  0  0  0  0
  -13.3090  -42.2953  -19.4343 H   0  0  0  0  0  0  0  0  0  0  0  0
  -12.4043  -42.7593  -20.8340 H   0  0  0  0  0  0  0  0  0  0  0  0
  -16.5265  -42.2715  -24.6614 H   0  0  0  0  0  0  0  0  0  0  0  0
  -14.8995  -42.0626  -25.3278 H   0  0  0  0  0  0  0  0  0  0  0  0
  -17.0652  -40.3429  -22.6474 H   0  0  0  0  0  0  0  0  0  0  0  0
  -15.7074  -39.2180  -22.4720 H   0  0  0  0  0  0  0  0  0  0  0  0
  -15.9370  -38.4432  -24.8342 H   0  0  0  0  0  0  0  0  0  0  0  0
  -17.3742  -38.3506  -23.9382 H   0  0  0  0  0  0  0  0  0  0  0  0
  -16.5418  -41.0045  -26.7024 H   0  0  0  0  0  0  0  0  0  0  0  0
  -15.5273  -39.7442  -26.1734 H   0  0  0  0  0  0  0  0  0  0  0  0
  -12.8779  -40.1887  -22.7767 H   0  0  0  0  0  0  0  0  0  0  0  0
  -11.9353  -40.7100  -21.3740 H   0  0  0  0  0  0  0  0  0  0  0  0
  -12.4097  -38.6362  -20.7239 H   0  0  0  0  0  0  0  0  0  0  0  0
  -13.4306  -39.8565  -19.0666 H   0  0  0  0  0  0  0  0  0  0  0  0
  -14.6601  -38.6672  -19.5371 H   0  0  0  0  0  0  0  0  0  0  0  0
  -15.2612  -41.1147  -19.6239 H   0  0  0  0  0  0  0  0  0  0  0  0
  4  2  1  0
  3  2  2  0
  5 10  1  0
  5  1  1  0
  5  6  1  0
  6  7  1  0
  7  8  1  0
  8 12  1  0
  8  9  1  0
  9 10  1  0
 11 16  1  0
 11 12  1  0
 12 13  1  0
 13 14  1  0
 14 15  1  0
 15  2  1  0
 15 16  1  0
 17 18  1  0
 18 19  1  0
 19 20  1  0
  9 17  1  0
  9 20  1  1
  4 21  1  0
  4 22  1  0
  5 23  1  6
  6 24  1  0
  6 25  1  0
  7 26  1  0
  7 27  1  0
  8 28  1  6
 10 29  1  0
 10 30  1  0
 11 31  1  0
 11 32  1  0
 13 33  1  0
 13 34  1  0
 14 35  1  0
 14 36  1  0
 16 37  1  0
 16 38  1  0
 17 39  1  0
 17 40  1  0
 18 41  1  0
 19 42  1  0
 19 43  1  0
 20 44  1  0
M  END
>  <smiles>  (189) 
[H]N([H])C(=O)N1C([H])([H])C([H])([H])N([C@]2([H])C([H])([H])C([H])([H])[C@]([H])(F)C([H])([H])[C@]23N([H])C([H])([H])N([H])C3([H])[H])C([H])([H])C1([H])[H]

>  <error>  (189) 


>  <∆∆G>  (189) 
160.09101

>  <∆G_bound>  (189) 
345.193434

>  <∆G_unbound>  (189) 
185.102425

>  <comRMSD>  (189) 
1.789039

>  <N_constrained_atoms>  (189) 
20.0

>  <N_unconstrained_atoms>  (189) 
0.0

>  <runtime>  (189) 
5.178875

>  <regarded>  (189) 
['d0612a', 'z0875c']

>  <disregarded>  (189) 
[]

>  <LE>  (189) 
-8.00455

>  <outcome>  (189) 
too moved

>  <percent_hybrid>  (189) 
20.0

$$$$
LIG
     RDKit          3D

  0  0  0  0  0  0  0  0  0  0999 V3000
M  V30 BEGIN CTAB
M  V30 COUNTS 83 86 0 0 0
M  V30 BEGIN ATOM
M  V30 1 F -13.742000 -44.973000 -19.142000 0
M  V30 2 C -15.875000 -39.056000 -26.562000 0
M  V30 3 O -15.329000 -37.941002 -26.474001 0
M  V30 4 N -16.326000 -39.543999 -27.726999 0
M  V30 5 N -13.700000 -42.342999 -18.677000 0
M  V30 6 C -12.806000 -41.426998 -19.308001 0
M  V30 7 O -15.526000 -43.800999 -22.937000 0
M  V30 8 C -14.599000 -42.986000 -23.653000 0
M  V30 9 C -19.806000 -46.659000 -24.361000 0
M  V30 10 C -20.364000 -46.747002 -25.410000 0
M  V30 11 C -20.973000 -46.805000 -26.739000 0
M  V30 12 O -21.836000 -45.714001 -26.962999 0
M  V30 13 C -14.144000 -44.164001 -20.167999 0 CFG=1
M  V30 14 C -15.241000 -44.532001 -20.906000 0 CFG=1
M  V30 15 C -15.657000 -43.696999 -21.931999 0 CFG=1
M  V30 16 C -14.967000 -42.515999 -22.211000 0 CFG=2
M  V30 17 C -13.855000 -42.192001 -21.429001 0
M  V30 18 C -13.444000 -43.019001 -20.400000 0 CFG=1
M  V30 19 C -16.284000 -42.077000 -24.318001 0
M  V30 20 N -15.370000 -41.667000 -23.252001 0
M  V30 21 C -15.427000 -40.223000 -23.013000 0
M  V30 22 C -15.117000 -39.455002 -24.268000 0
M  V30 23 N -15.997000 -39.874001 -25.365000 0
M  V30 24 C -15.979000 -41.325001 -25.594999 0
M  V30 25 C -17.962000 -46.611000 -21.172001 0
M  V30 26 C -18.882000 -47.155998 -22.069000 0
M  V30 27 C -19.044001 -46.405998 -23.191000 0 CFG=2
M  V30 28 S -18.073000 -44.980999 -23.138000 0
M  V30 29 O -17.052999 -44.186001 -14.617000 0
M  V30 30 O -14.155000 -38.917000 -16.104000 0
M  V30 31 O -14.914000 -44.259998 -16.524000 0
M  V30 32 C -15.746000 -43.799000 -17.302000 0
M  V30 33 N -16.923000 -43.228001 -16.855000 0
M  V30 34 S -17.231001 -42.933998 -15.286000 0
M  V30 35 O -18.486000 -42.247002 -15.199000 0
M  V30 36 C -14.868000 -38.696999 -17.327000 0
M  V30 37 C -13.884000 -40.118999 -14.076000 0
M  V30 38 C -14.239000 -41.174999 -13.243000 0
M  V30 39 C -15.271000 -42.042999 -13.593000 0
M  V30 40 C -15.959000 -41.827000 -14.779000 0
M  V30 41 C -15.624000 -40.765999 -15.609000 0
M  V30 42 C -14.576000 -39.925999 -15.266000 0
M  V30 43 C -14.723000 -43.070999 -17.989500 0
M  V30 44 H -16.772421 -40.471695 -27.758465 0
M  V30 45 H -16.225939 -38.991077 -28.590229 0
M  V30 46 H -12.256001 -40.863464 -18.539930 0
M  V30 47 H -12.093684 -41.983047 -19.935230 0
M  V30 48 H -13.379197 -40.728409 -19.935230 0
M  V30 49 H -13.969990 -42.432987 -22.939892 0
M  V30 50 H -13.963179 -43.622902 -24.285526 0
M  V30 51 H -15.149234 -42.273853 -24.285526 0
M  V30 52 H -21.547783 -47.738682 -26.827669 0
M  V30 53 H -20.168194 -46.765987 -27.487844 0
M  V30 54 H -22.130182 -45.342098 -26.093950 0
M  V30 55 H -13.481574 -44.708572 -20.856937 0
M  V30 56 H -16.637892 -43.847702 -21.457510 0
M  V30 57 H -14.314822 -43.061848 -22.908649 0
M  V30 58 H -13.298698 -41.265690 -21.635101 0
M  V30 59 H -14.505596 -41.645794 -20.730160 0
M  V30 60 H -12.418550 -43.147911 -20.776609 0
M  V30 61 H -17.081156 -42.826786 -24.206806 0
M  V30 62 H -15.580968 -42.868687 -24.616295 0
M  V30 63 H -15.665157 -39.761349 -22.043383 0
M  V30 64 H -14.358903 -40.224365 -22.750004 0
M  V30 65 H -14.336855 -38.684113 -24.352299 0
M  V30 66 H -14.387477 -40.225117 -24.559071 0
M  V30 67 H -15.771701 -41.800587 -26.564970 0
M  V30 68 H -17.051865 -41.300022 -25.836535 0
M  V30 69 H -18.198402 -46.992664 -20.167786 0
M  V30 70 H -17.291658 -47.466915 -21.339495 0
M  V30 71 H -19.421354 -48.097153 -21.886450 0
M  V30 72 H -19.691999 -46.596592 -21.578114 0
M  V30 73 H -18.176113 -46.903267 -23.648708 0
M  V30 74 H -17.640112 -42.976452 -17.550251 0
M  V30 75 H -15.896447 -38.379665 -17.099855 0
M  V30 76 H -14.362690 -37.912987 -17.910084 0
M  V30 77 H -14.892308 -39.629425 -17.910084 0
M  V30 78 H -13.063022 -39.442741 -13.795520 0
M  V30 79 H -13.698606 -41.326469 -12.296939 0
M  V30 80 H -15.536602 -42.886848 -12.939261 0
M  V30 81 H -16.188845 -40.592186 -16.536760 0
M  V30 82 H -13.413000 -41.760998 -16.679501 0
M  V30 83 H -13.403000 -41.750999 -16.669500 0
M  V30 END ATOM
M  V30 BEGIN BOND
M  V30 1 1 4 2
M  V30 2 2 3 2
M  V30 3 1 5 6
M  V30 4 1 7 8
M  V30 5 1 11 12
M  V30 6 1 11 10
M  V30 7 3 10 9
M  V30 8 1 13 18
M  V30 9 1 13 1
M  V30 10 1 13 14
M  V30 11 1 14 15
M  V30 12 1 15 16
M  V30 13 1 16 20
M  V30 14 1 16 17
M  V30 15 1 17 18
M  V30 16 1 19 24
M  V30 17 1 19 20
M  V30 18 1 20 21
M  V30 19 1 21 22
M  V30 20 1 22 23
M  V30 21 1 23 2
M  V30 22 1 23 24
M  V30 23 1 25 26
M  V30 24 1 26 27
M  V30 25 1 27 9
M  V30 26 1 27 28
M  V30 27 1 14 25
M  V30 28 1 14 28 CFG=3
M  V30 29 1 5 18
M  V30 30 1 7 15
M  V30 31 1 33 32
M  V30 32 1 33 34
M  V30 33 2 32 31
M  V30 34 2 29 34
M  V30 35 2 35 34
M  V30 36 1 36 30
M  V30 37 2 37 42
M  V30 38 1 37 38
M  V30 39 2 38 39
M  V30 40 1 39 40
M  V30 41 1 40 34
M  V30 42 2 40 41
M  V30 43 1 41 42
M  V30 44 1 42 30
M  V30 45 1 43 5
M  V30 46 1 43 32
M  V30 47 1 4 44
M  V30 48 1 4 45
M  V30 49 1 6 46
M  V30 50 1 6 47
M  V30 51 1 6 48
M  V30 52 1 8 49
M  V30 53 1 8 50
M  V30 54 1 8 51
M  V30 55 1 11 52
M  V30 56 1 11 53
M  V30 57 1 12 54
M  V30 58 1 13 55 CFG=3
M  V30 59 1 15 56 CFG=3
M  V30 60 1 16 57 CFG=3
M  V30 61 1 17 58
M  V30 62 1 17 59
M  V30 63 1 18 60 CFG=3
M  V30 64 1 19 61
M  V30 65 1 19 62
M  V30 66 1 21 63
M  V30 67 1 21 64
M  V30 68 1 22 65
M  V30 69 1 22 66
M  V30 70 1 24 67
M  V30 71 1 24 68
M  V30 72 1 25 69
M  V30 73 1 25 70
M  V30 74 1 26 71
M  V30 75 1 26 72
M  V30 76 1 27 73 CFG=1
M  V30 77 1 33 74
M  V30 78 1 36 75
M  V30 79 1 36 76
M  V30 80 1 36 77
M  V30 81 1 37 78
M  V30 82 1 38 79
M  V30 83 1 39 80
M  V30 84 1 41 81
M  V30 85 1 43 82
M  V30 86 1 43 83
M  V30 END BOND
M  V30 BEGIN COLLECTION
M  V30 MDLV30/STEABS ATOMS=(0)
M  V30 END COLLECTION
M  V30 END CTAB
M  END
>  <smiles>  (190) 
[H]OC([H])([H])C#C[C@]1([H])S[C@@]2(C([H])([H])C1([H])[H])[C@]([H])(F)[C@]([H])(N(C([H])([H])[H])C([H])([H])C(=O)N([H])S(=O)(=O)c1c([H])c([H])c([H])c(OC([H])([H])[H])c1[H])C([H])([H])[C@]([H])(N1C([H])([H])C([H])([H])N(C(=O)N([H])[H])C([H])([H])C1([H])[H])[C@@]2([H])OC([H])([H])[H]

>  <error>  (190) 


>  <∆∆G>  (190) 
nan

>  <∆G_bound>  (190) 
nan

>  <∆G_unbound>  (190) 
nan

>  <comRMSD>  (190) 
0.0

>  <N_constrained_atoms>  (190) 
42.0

>  <N_unconstrained_atoms>  (190) 
1.0

>  <runtime>  (190) 
2.879906

>  <regarded>  (190) 
['d0612a', '5i3p-a']

>  <disregarded>  (190) 
[]

>  <LE>  (190) 
nan

>  <outcome>  (190) 
crashed

>  <percent_hybrid>  (190) 
39.0

$$$$
LIG
     RDKit          3D

  0  0  0  0  0  0  0  0  0  0999 V3000
M  V30 BEGIN CTAB
M  V30 COUNTS 55 57 0 0 0
M  V30 BEGIN ATOM
M  V30 1 F -13.742000 -44.973000 -19.142000 0
M  V30 2 C -15.875000 -39.056000 -26.562000 0
M  V30 3 O -15.329000 -37.941002 -26.474001 0
M  V30 4 N -16.326000 -39.543999 -27.726999 0
M  V30 5 O -12.915000 -39.988998 -21.322001 0
M  V30 6 O -15.092000 -40.324001 -21.309999 0
M  V30 7 C -13.912000 -40.751999 -21.268000 0
M  V30 8 C -14.144000 -44.164001 -20.167999 0 CFG=1
M  V30 9 C -15.241000 -44.532001 -20.906000 0 CFG=1
M  V30 10 C -15.657000 -43.696999 -21.931999 0
M  V30 11 C -14.967000 -42.515999 -22.211000 0 CFG=2
M  V30 12 C -13.855000 -42.192001 -21.429001 0 CFG=2
M  V30 13 C -13.444000 -43.019001 -20.400000 0
M  V30 14 C -16.284000 -42.077000 -24.318001 0
M  V30 15 N -15.370000 -41.667000 -23.252001 0
M  V30 16 C -15.427000 -40.223000 -23.013000 0
M  V30 17 C -15.117000 -39.455002 -24.268000 0
M  V30 18 N -15.997000 -39.874001 -25.365000 0
M  V30 19 C -15.979000 -41.325001 -25.594999 0
M  V30 20 C -18.603001 -47.646999 -22.007000 0
M  V30 21 C -17.684000 -46.908001 -21.254000 0 CFG=2
M  V30 22 C -18.075001 -44.958000 -22.642000 0
M  V30 23 C -18.973000 -45.709000 -23.403000 0
M  V30 24 C -19.254999 -47.042999 -23.087000 0
M  V30 25 O -17.378000 -45.675999 -18.625999 0
M  V30 26 N -17.531000 -46.292000 -19.939999 0
M  V30 27 H -16.772421 -40.471695 -27.758465 0
M  V30 28 H -16.225939 -38.991077 -28.590229 0
M  V30 29 H -12.000419 -40.366268 -21.285824 0
M  V30 30 H -13.481574 -44.708572 -20.856937 0
M  V30 31 H -15.638480 -44.297451 -22.853474 0
M  V30 32 H -16.631817 -43.334049 -21.574230 0
M  V30 33 H -14.314822 -43.061848 -22.908649 0
M  V30 34 H -12.923436 -42.474495 -21.941238 0
M  V30 35 H -13.475540 -42.425785 -19.474201 0
M  V30 36 H -12.450713 -43.369881 -20.716646 0
M  V30 37 H -17.318262 -41.863483 -24.010246 0
M  V30 38 H -16.157743 -43.154392 -24.500452 0
M  V30 39 H -16.436596 -39.955349 -22.667925 0
M  V30 40 H -14.677286 -39.964729 -22.250620 0
M  V30 41 H -15.262234 -38.381134 -24.079012 0
M  V30 42 H -14.074337 -39.655060 -24.555805 0
M  V30 43 H -14.983327 -41.619976 -25.957802 0
M  V30 44 H -16.748247 -41.572491 -26.341328 0
M  V30 45 H -19.384525 -47.988163 -21.312141 0
M  V30 46 H -17.983055 -48.422039 -22.481321 0
M  V30 47 H -17.915548 -47.752029 -21.920336 0
M  V30 48 H -17.934420 -44.132477 -23.355265 0
M  V30 49 H -18.515587 -45.410969 -21.741610 0
M  V30 50 H -19.932554 -45.172077 -23.371901 0
M  V30 51 H -18.452803 -45.797012 -24.368219 0
M  V30 52 H -19.016994 -47.640518 -23.979372 0
M  V30 53 H -20.308420 -47.016884 -22.771370 0
M  V30 54 H -17.545998 -46.352379 -17.922873 0
M  V30 55 H -16.490999 -45.251999 -18.900000 0
M  V30 END ATOM
M  V30 BEGIN BOND
M  V30 1 1 4 2
M  V30 2 2 3 2
M  V30 3 2 6 7
M  V30 4 1 7 5
M  V30 5 1 8 13
M  V30 6 1 8 1
M  V30 7 1 8 9
M  V30 8 1 9 10 CFG=1
M  V30 9 1 10 11
M  V30 10 1 11 15
M  V30 11 1 11 12
M  V30 12 1 12 13
M  V30 13 1 14 19
M  V30 14 1 14 15
M  V30 15 1 15 16
M  V30 16 1 16 17
M  V30 17 1 17 18
M  V30 18 1 18 2
M  V30 19 1 18 19
M  V30 20 1 20 24
M  V30 21 1 20 21
M  V30 22 1 22 23
M  V30 23 1 23 24
M  V30 24 1 9 21
M  V30 25 1 9 22
M  V30 26 1 12 7
M  V30 27 1 26 21
M  V30 28 1 26 25
M  V30 29 1 4 27
M  V30 30 1 4 28
M  V30 31 1 5 29
M  V30 32 1 8 30 CFG=3
M  V30 33 1 10 31
M  V30 34 1 10 32
M  V30 35 1 11 33 CFG=3
M  V30 36 1 12 34 CFG=3
M  V30 37 1 13 35
M  V30 38 1 13 36
M  V30 39 1 14 37
M  V30 40 1 14 38
M  V30 41 1 16 39
M  V30 42 1 16 40
M  V30 43 1 17 41
M  V30 44 1 17 42
M  V30 45 1 19 43
M  V30 46 1 19 44
M  V30 47 1 20 45
M  V30 48 1 20 46
M  V30 49 1 21 47 CFG=1
M  V30 50 1 22 48
M  V30 51 1 22 49
M  V30 52 1 23 50
M  V30 53 1 23 51
M  V30 54 1 24 52
M  V30 55 1 24 53
M  V30 56 1 25 54
M  V30 57 1 26 55
M  V30 END BOND
M  V30 BEGIN COLLECTION
M  V30 MDLV30/STEABS ATOMS=(0)
M  V30 END COLLECTION
M  V30 END CTAB
M  END
>  <smiles>  (191) 
[H]OC(=O)[C@@]1([H])C([H])([H])[C@@]([H])(F)[C@]2(C([H])([H])C([H])([H])C([H])([H])C([H])([H])[C@]2([H])N([H])O[H])C([H])([H])[C@@]1([H])N1C([H])([H])C([H])([H])N(C(=O)N([H])[H])C([H])([H])C1([H])[H]

>  <error>  (191) 


>  <∆∆G>  (191) 
nan

>  <∆G_bound>  (191) 
nan

>  <∆G_unbound>  (191) 
nan

>  <comRMSD>  (191) 
0.0

>  <N_constrained_atoms>  (191) 
25.0

>  <N_unconstrained_atoms>  (191) 
1.0

>  <runtime>  (191) 
2.017921

>  <regarded>  (191) 
['d0612a', '5hn0-a']

>  <disregarded>  (191) 
[]

>  <LE>  (191) 
nan

>  <outcome>  (191) 
crashed

>  <percent_hybrid>  (191) 
36.0

$$$$
LIG
     RDKit          3D

 54 56  0  0  0  0  0  0  0  0999 V2000
  -15.5603  -42.5504  -19.1609 F   0  0  0  0  0  0  0  0  0  0  0  0
  -19.4336  -38.4854  -25.8678 C   0  0  0  0  0  0  0  0  0  0  0  0
  -19.3628  -38.3270  -27.0317 O   0  0  0  0  0  0  0  0  0  0  0  0
  -20.4349  -38.0357  -24.9154 N   0  0  0  0  0  0  0  0  0  0  0  0
  -15.9240  -45.4220  -19.9780 C   0  0  0  0  0  0  0  0  0  0  0  0
  -17.1890  -46.4107  -18.2180 O   0  0  0  0  0  0  0  0  0  0  0  0
  -16.7101  -45.3877  -18.6950 C   0  0  0  0  0  0  0  0  0  0  0  0
  -16.8250  -44.2412  -18.0224 O   0  0  0  0  0  0  0  0  0  0  0  0
  -14.1927  -43.1102  -23.0336 O   0  0  0  0  0  0  0  0  0  0  0  0
  -14.3132  -43.0302  -24.4353 C   0  0  0  0  0  0  0  0  0  0  0  0
  -14.7397  -43.1805  -20.0517 C   0  0  1  0  0  0  0  0  0  0  0  0
  -15.5988  -44.1812  -20.8265 C   0  0  2  0  0  0  0  0  0  0  0  0
  -16.7514  -43.4913  -21.7118 C   0  0  1  0  0  0  0  0  0  0  0  0
  -16.2606  -42.0170  -22.2242 C   0  0  1  0  0  0  0  0  0  0  0  0
  -14.6977  -42.0023  -22.2993 C   0  0  1  0  0  0  0  0  0  0  0  0
  -14.0827  -42.1128  -20.9042 C   0  0  0  0  0  0  0  0  0  0  0  0
  -18.3286  -41.3128  -23.4990 C   0  0  0  0  0  0  0  0  0  0  0  0
  -16.8756  -41.4745  -23.4906 N   0  0  0  0  0  0  0  0  0  0  0  0
  -16.3384  -40.1714  -23.9270 C   0  0  0  0  0  0  0  0  0  0  0  0
  -17.1046  -39.6529  -25.1675 C   0  0  0  0  0  0  0  0  0  0  0  0
  -18.4938  -39.1162  -24.9390 N   0  0  0  0  0  0  0  0  0  0  0  0
  -18.8124  -40.6127  -24.8010 C   0  0  0  0  0  0  0  0  0  0  0  0
  -17.0410  -44.4221  -22.9172 C   0  0  0  0  0  0  0  0  0  0  0  0
  -18.5148  -45.4092  -22.5761 S   0  0  0  0  0  0  0  0  0  0  0  0
  -18.9431  -44.6056  -21.0307 C   0  0  0  0  0  0  0  0  0  0  0  0
  -18.0979  -43.3439  -20.9536 C   0  0  0  0  0  0  0  0  0  0  0  0
  -20.1144  -38.2575  -23.9581 H   0  0  0  0  0  0  0  0  0  0  0  0
  -20.2371  -38.4564  -23.9938 H   0  0  0  0  0  0  0  0  0  0  0  0
  -14.9655  -45.8764  -19.6895 H   0  0  0  0  0  0  0  0  0  0  0  0
  -16.4109  -46.1629  -20.6219 H   0  0  0  0  0  0  0  0  0  0  0  0
  -16.3791  -43.4443  -18.3787 H   0  0  0  0  0  0  0  0  0  0  0  0
  -15.3116  -43.3055  -24.7745 H   0  0  0  0  0  0  0  0  0  0  0  0
  -14.0499  -42.0418  -24.8144 H   0  0  0  0  0  0  0  0  0  0  0  0
  -13.6049  -43.7562  -24.8327 H   0  0  0  0  0  0  0  0  0  0  0  0
  -13.9738  -43.6907  -19.4569 H   0  0  0  0  0  0  0  0  0  0  0  0
  -14.8980  -44.6221  -21.5480 H   0  0  0  0  0  0  0  0  0  0  0  0
  -16.5328  -41.3041  -21.4313 H   0  0  0  0  0  0  0  0  0  0  0  0
  -14.2880  -41.0785  -22.7156 H   0  0  0  0  0  0  0  0  0  0  0  0
  -14.1525  -41.1464  -20.3909 H   0  0  0  0  0  0  0  0  0  0  0  0
  -13.0164  -42.3521  -21.0073 H   0  0  0  0  0  0  0  0  0  0  0  0
  -18.6604  -40.7145  -22.6410 H   0  0  0  0  0  0  0  0  0  0  0  0
  -18.8289  -42.2834  -23.4656 H   0  0  0  0  0  0  0  0  0  0  0  0
  -16.4039  -39.4325  -23.1182 H   0  0  0  0  0  0  0  0  0  0  0  0
  -15.2939  -40.2519  -24.2338 H   0  0  0  0  0  0  0  0  0  0  0  0
  -16.5672  -38.7380  -25.4641 H   0  0  0  0  0  0  0  0  0  0  0  0
  -16.9836  -40.2666  -26.0771 H   0  0  0  0  0  0  0  0  0  0  0  0
  -18.6462  -41.2009  -25.7211 H   0  0  0  0  0  0  0  0  0  0  0  0
  -19.9112  -40.6450  -24.7255 H   0  0  0  0  0  0  0  0  0  0  0  0
  -17.2553  -43.8895  -23.8434 H   0  0  0  0  0  0  0  0  0  0  0  0
  -16.2093  -45.0965  -23.1354 H   0  0  0  0  0  0  0  0  0  0  0  0
  -20.0103  -44.3629  -21.0148 H   0  0  0  0  0  0  0  0  0  0  0  0
  -18.7598  -45.2908  -20.2044 H   0  0  0  0  0  0  0  0  0  0  0  0
  -18.7003  -42.5297  -21.3579 H   0  0  0  0  0  0  0  0  0  0  0  0
  -17.9429  -43.0453  -19.9141 H   0  0  0  0  0  0  0  0  0  0  0  0
  4  2  1  0
  3  2  2  0
  5  7  1  0
  6  7  2  0
  7  8  1  0
  9 10  1  0
 11 16  1  0
 11  1  1  0
 11 12  1  0
 12 13  1  0
 13 14  1  0
 14 18  1  0
 14 15  1  0
 15 16  1  0
 17 22  1  0
 17 18  1  0
 18 19  1  0
 19 20  1  0
 20 21  1  0
 21  2  1  0
 21 22  1  0
 23 24  1  0
 24 25  1  0
 25 26  1  0
 13 23  1  1
 13 26  1  0
  5 12  1  0
  9 15  1  0
  4 27  1  0
  4 28  1  0
  5 29  1  0
  5 30  1  0
  8 31  1  0
 10 32  1  0
 10 33  1  0
 10 34  1  0
 11 35  1  1
 12 36  1  6
 14 37  1  6
 15 38  1  6
 16 39  1  0
 16 40  1  0
 17 41  1  0
 17 42  1  0
 19 43  1  0
 19 44  1  0
 20 45  1  0
 20 46  1  0
 22 47  1  0
 22 48  1  0
 23 49  1  0
 23 50  1  0
 25 51  1  0
 25 52  1  0
 26 53  1  0
 26 54  1  0
M  END
>  <smiles>  (192) 
[H]OC(=O)C([H])([H])[C@@]1([H])[C@@]2(C([H])([H])SC([H])([H])C2([H])[H])[C@@]([H])(N2C([H])([H])C([H])([H])N(C(=O)N([H])[H])C([H])([H])C2([H])[H])[C@]([H])(OC([H])([H])[H])C([H])([H])[C@@]1([H])F

>  <error>  (192) 


>  <∆∆G>  (192) 
41.802583

>  <∆G_bound>  (192) 
305.124629

>  <∆G_unbound>  (192) 
263.322046

>  <comRMSD>  (192) 
2.548718

>  <N_constrained_atoms>  (192) 
26.0

>  <N_unconstrained_atoms>  (192) 
0.0

>  <runtime>  (192) 
10.233857

>  <regarded>  (192) 
['d0612a', '5f41-a']

>  <disregarded>  (192) 
[]

>  <LE>  (192) 
-1.607792

>  <outcome>  (192) 
too moved

>  <percent_hybrid>  (192) 
39.0

$$$$
LIG
     RDKit          3D

 53 55  0  0  0  0  0  0  0  0999 V2000
  -14.7670  -45.0142  -19.7286 F   0  0  0  0  0  0  0  0  0  0  0  0
  -19.9360  -40.5923  -23.7484 C   0  0  0  0  0  0  0  0  0  0  0  0
  -19.5779  -41.6377  -24.1500 O   0  0  0  0  0  0  0  0  0  0  0  0
  -21.2703  -40.1172  -23.4171 N   0  0  0  0  0  0  0  0  0  0  0  0
  -13.4161  -42.8297  -18.9740 C   0  0  0  0  0  0  0  0  0  0  0  0
  -15.2830  -42.3943  -17.5530 O   0  0  0  0  0  0  0  0  0  0  0  0
  -14.1012  -44.2364  -17.1138 O   0  0  0  0  0  0  0  0  0  0  0  0
  -14.2824  -43.2515  -17.8158 C   0  0  0  0  0  0  0  0  0  0  0  0
  -15.2723  -43.3236  -23.8248 C   0  0  0  0  0  0  0  0  0  0  0  0
  -14.6986  -44.1545  -20.7828 C   0  0  1  0  0  0  0  0  0  0  0  0
  -16.0790  -44.0715  -21.4750 C   0  0  1  0  0  0  0  0  0  0  0  0
  -16.0767  -42.9447  -22.5586 C   0  0  1  0  0  0  0  0  0  0  0  0
  -15.5380  -41.5660  -22.0377 C   0  0  2  0  0  0  0  0  0  0  0  0
  -15.0186  -41.6064  -20.5810 C   0  0  0  0  0  0  0  0  0  0  0  0
  -14.0834  -42.8070  -20.3570 C   0  0  1  0  0  0  0  0  0  0  0  0
  -17.7294  -40.4844  -21.6019 C   0  0  0  0  0  0  0  0  0  0  0  0
  -16.4308  -40.4046  -22.2654 N   0  0  0  0  0  0  0  0  0  0  0  0
  -16.6697  -40.1201  -23.6818 C   0  0  0  0  0  0  0  0  0  0  0  0
  -17.7392  -39.0100  -23.8351 C   0  0  0  0  0  0  0  0  0  0  0  0
  -19.1830  -39.3571  -23.5196 N   0  0  0  0  0  0  0  0  0  0  0  0
  -18.6445  -39.3237  -22.0741 C   0  0  0  0  0  0  0  0  0  0  0  0
  -18.6241  -45.0374  -20.9999 C   0  0  0  0  0  0  0  0  0  0  0  0
  -17.9678  -45.4833  -22.2856 C   0  0  0  0  0  0  0  0  0  0  0  0
  -16.4705  -45.4526  -22.0276 C   0  0  0  0  0  0  0  0  0  0  0  0
  -17.4813  -43.8306  -20.2661 S   0  0  0  0  0  0  0  0  0  0  0  0
  -21.1977  -39.1804  -22.9816 H   0  0  0  0  0  0  0  0  0  0  0  0
  -21.2259  -39.1037  -23.2041 H   0  0  0  0  0  0  0  0  0  0  0  0
  -12.9836  -41.8510  -18.7341 H   0  0  0  0  0  0  0  0  0  0  0  0
  -12.5732  -43.5315  -19.0049 H   0  0  0  0  0  0  0  0  0  0  0  0
  -15.7661  -42.7972  -16.7995 H   0  0  0  0  0  0  0  0  0  0  0  0
  -14.2583  -43.6535  -23.5801 H   0  0  0  0  0  0  0  0  0  0  0  0
  -15.7712  -44.1165  -24.3870 H   0  0  0  0  0  0  0  0  0  0  0  0
  -15.1855  -42.4771  -24.5142 H   0  0  0  0  0  0  0  0  0  0  0  0
  -13.9915  -44.6155  -21.4815 H   0  0  0  0  0  0  0  0  0  0  0  0
  -17.1042  -42.8243  -22.9193 H   0  0  0  0  0  0  0  0  0  0  0  0
  -14.6324  -41.3305  -22.6172 H   0  0  0  0  0  0  0  0  0  0  0  0
  -14.4647  -40.6797  -20.3776 H   0  0  0  0  0  0  0  0  0  0  0  0
  -15.8415  -41.6174  -19.8643 H   0  0  0  0  0  0  0  0  0  0  0  0
  -13.2529  -42.6335  -21.0599 H   0  0  0  0  0  0  0  0  0  0  0  0
  -18.2460  -41.4270  -21.7950 H   0  0  0  0  0  0  0  0  0  0  0  0
  -17.6025  -40.3903  -20.5182 H   0  0  0  0  0  0  0  0  0  0  0  0
  -15.7380  -39.7764  -24.1462 H   0  0  0  0  0  0  0  0  0  0  0  0
  -17.0073  -41.0029  -24.2339 H   0  0  0  0  0  0  0  0  0  0  0  0
  -17.4218  -38.0190  -23.4705 H   0  0  0  0  0  0  0  0  0  0  0  0
  -17.7942  -38.8482  -24.9229 H   0  0  0  0  0  0  0  0  0  0  0  0
  -18.2881  -38.3269  -21.7632 H   0  0  0  0  0  0  0  0  0  0  0  0
  -19.5529  -39.4364  -21.4617 H   0  0  0  0  0  0  0  0  0  0  0  0
  -19.6074  -44.5922  -21.1743 H   0  0  0  0  0  0  0  0  0  0  0  0
  -18.7381  -45.8750  -20.3046 H   0  0  0  0  0  0  0  0  0  0  0  0
  -18.3031  -46.4867  -22.5685 H   0  0  0  0  0  0  0  0  0  0  0  0
  -18.2369  -44.8148  -23.1116 H   0  0  0  0  0  0  0  0  0  0  0  0
  -16.2067  -46.2519  -21.3209 H   0  0  0  0  0  0  0  0  0  0  0  0
  -15.9279  -45.6601  -22.9451 H   0  0  0  0  0  0  0  0  0  0  0  0
  4  2  1  0
  3  2  2  0
  7  8  2  0
  5  8  1  0
  8  6  1  0
 10 15  1  0
 10  1  1  0
 10 11  1  0
 11 12  1  0
 12 13  1  0
 13 17  1  0
 13 14  1  0
 14 15  1  0
 16 21  1  0
 16 17  1  0
 17 18  1  0
 18 19  1  0
 19 20  1  0
 20  2  1  0
 20 21  1  0
 22 23  1  0
 22 25  1  0
 23 24  1  0
 11 24  1  0
 11 25  1  6
 12  9  1  0
  5 15  1  0
  4 26  1  0
  4 27  1  0
  5 28  1  0
  5 29  1  0
  6 30  1  0
  9 31  1  0
  9 32  1  0
  9 33  1  0
 10 34  1  6
 12 35  1  6
 13 36  1  6
 14 37  1  0
 14 38  1  0
 15 39  1  6
 16 40  1  0
 16 41  1  0
 18 42  1  0
 18 43  1  0
 19 44  1  0
 19 45  1  0
 21 46  1  0
 21 47  1  0
 22 48  1  0
 22 49  1  0
 23 50  1  0
 23 51  1  0
 24 52  1  0
 24 53  1  0
M  END
>  <smiles>  (193) 
[H]OC(=O)C([H])([H])[C@]1([H])C([H])([H])[C@]([H])(N2C([H])([H])C([H])([H])N(C(=O)N([H])[H])C([H])([H])C2([H])[H])[C@@]([H])(C([H])([H])[H])[C@@]2(SC([H])([H])C([H])([H])C2([H])[H])[C@]1([H])F

>  <error>  (193) 


>  <∆∆G>  (193) 
-68.60195

>  <∆G_bound>  (193) 
294.73124

>  <∆G_unbound>  (193) 
363.33319

>  <comRMSD>  (193) 
3.044347

>  <N_constrained_atoms>  (193) 
25.0

>  <N_unconstrained_atoms>  (193) 
0.0

>  <runtime>  (193) 
17.992496

>  <regarded>  (193) 
['d0612a', '6h80-a']

>  <disregarded>  (193) 
[]

>  <LE>  (193) 
2.744078

>  <outcome>  (193) 
too moved

>  <percent_hybrid>  (193) 
36.0

$$$$
LIG
     RDKit          3D

  0  0  0  0  0  0  0  0  0  0999 V3000
M  V30 BEGIN CTAB
M  V30 COUNTS 63 65 0 0 0
M  V30 BEGIN ATOM
M  V30 1 O -13.742000 -44.973000 -19.142000 0
M  V30 2 C -15.875000 -39.056000 -26.562000 0
M  V30 3 O -15.329000 -37.941002 -26.474001 0
M  V30 4 N -16.326000 -39.543999 -27.726999 0
M  V30 5 O -15.174000 -40.219002 -21.278999 0
M  V30 6 O -13.298000 -39.838001 -20.284000 0
M  V30 7 C -14.091000 -40.618999 -20.823999 0
M  V30 8 C -19.658001 -46.481998 -24.120001 0
M  V30 9 C -20.148001 -46.591999 -25.188000 0
M  V30 10 C -20.650999 -46.667999 -26.565001 0
M  V30 11 O -22.000000 -46.228001 -26.608000 0
M  V30 12 C -14.144000 -44.164001 -20.167999 0 CFG=1
M  V30 13 C -15.241000 -44.532001 -20.906000 0 CFG=1
M  V30 14 C -15.657000 -43.696999 -21.931999 0
M  V30 15 C -14.967000 -42.515999 -22.211000 0 CFG=2
M  V30 16 C -13.855000 -42.192001 -21.429001 0 CFG=2
M  V30 17 C -13.444000 -43.019001 -20.400000 0
M  V30 18 C -16.284000 -42.077000 -24.318001 0
M  V30 19 N -15.370000 -41.667000 -23.252001 0
M  V30 20 C -15.427000 -40.223000 -23.013000 0
M  V30 21 C -15.117000 -39.455002 -24.268000 0
M  V30 22 N -15.997000 -39.874001 -25.365000 0
M  V30 23 C -15.979000 -41.325001 -25.594999 0
M  V30 24 C -18.764000 -47.269001 -22.021999 0
M  V30 25 C -18.990999 -46.293999 -22.979000 0 CFG=1
M  V30 26 S -18.068001 -44.875999 -22.716999 0
M  V30 27 C -17.916000 -46.797001 -21.004000 0
M  V30 28 O -16.215000 -43.769001 -14.703000 0
M  V30 29 O -17.056999 -42.785999 -16.427999 0
M  V30 30 C -15.292000 -44.382999 -16.797001 0
M  V30 31 C -16.254000 -43.592999 -15.932000 0
M  V30 32 C -14.517000 -44.678001 -17.969501 0
M  V30 33 H -16.772421 -40.471695 -27.758465 0
M  V30 34 H -16.225939 -38.991077 -28.590229 0
M  V30 35 H -12.438236 -40.174171 -19.926374 0
M  V30 36 H -20.594587 -47.708389 -26.917709 0
M  V30 37 H -20.037603 -46.024002 -27.212315 0
M  V30 38 H -22.340464 -46.116951 -25.685041 0
M  V30 39 H -13.481574 -44.708572 -20.856937 0
M  V30 40 H -16.538691 -43.967705 -22.531450 0
M  V30 41 H -16.303133 -43.153015 -21.227303 0
M  V30 42 H -14.314822 -43.061848 -22.908649 0
M  V30 43 H -13.021275 -42.315475 -22.135864 0
M  V30 44 H -12.571607 -42.758121 -19.782852 0
M  V30 45 H -12.788494 -43.561069 -21.097475 0
M  V30 46 H -17.081156 -42.826786 -24.206806 0
M  V30 47 H -15.580968 -42.868687 -24.616295 0
M  V30 48 H -15.665157 -39.761349 -22.043383 0
M  V30 49 H -14.358903 -40.224365 -22.750004 0
M  V30 50 H -14.336855 -38.684113 -24.352299 0
M  V30 51 H -14.387477 -40.225117 -24.559071 0
M  V30 52 H -15.771701 -41.800587 -26.564970 0
M  V30 53 H -17.051865 -41.300022 -25.836535 0
M  V30 54 H -19.191746 -48.281925 -22.053932 0
M  V30 55 H -17.888803 -47.620747 -22.587955 0
M  V30 56 H -20.085850 -46.204529 -22.921585 0
M  V30 57 H -18.142002 -47.235516 -20.020826 0
M  V30 58 H -17.213240 -47.618114 -21.208689 0
M  V30 59 H -16.830574 -43.267826 -14.111398 0
M  V30 60 H -14.457379 -44.401531 -16.080715 0
M  V30 61 H -16.168295 -44.777603 -17.332159 0
M  V30 62 H -13.407000 -43.568001 -16.859501 0
M  V30 63 H -13.396999 -43.557999 -16.849501 0
M  V30 END ATOM
M  V30 BEGIN BOND
M  V30 1 1 4 2
M  V30 2 2 3 2
M  V30 3 2 5 7
M  V30 4 1 7 6
M  V30 5 1 11 10
M  V30 6 1 10 9
M  V30 7 3 9 8
M  V30 8 1 12 17
M  V30 9 1 12 1
M  V30 10 1 12 13
M  V30 11 1 13 14
M  V30 12 1 14 15
M  V30 13 1 15 19
M  V30 14 1 15 16
M  V30 15 1 16 17
M  V30 16 1 18 23
M  V30 17 1 18 19
M  V30 18 1 19 20
M  V30 19 1 20 21
M  V30 20 1 21 22
M  V30 21 1 22 2
M  V30 22 1 22 23
M  V30 23 1 24 25
M  V30 24 1 24 27
M  V30 25 1 25 8
M  V30 26 1 25 26
M  V30 27 1 13 26 CFG=1
M  V30 28 1 13 27
M  V30 29 1 16 7
M  V30 30 1 30 31
M  V30 31 2 29 31
M  V30 32 1 31 28
M  V30 33 1 32 1
M  V30 34 1 32 30
M  V30 35 1 4 33
M  V30 36 1 4 34
M  V30 37 1 6 35
M  V30 38 1 10 36
M  V30 39 1 10 37
M  V30 40 1 11 38
M  V30 41 1 12 39 CFG=3
M  V30 42 1 14 40
M  V30 43 1 14 41
M  V30 44 1 15 42 CFG=3
M  V30 45 1 16 43 CFG=3
M  V30 46 1 17 44
M  V30 47 1 17 45
M  V30 48 1 18 46
M  V30 49 1 18 47
M  V30 50 1 20 48
M  V30 51 1 20 49
M  V30 52 1 21 50
M  V30 53 1 21 51
M  V30 54 1 23 52
M  V30 55 1 23 53
M  V30 56 1 24 54
M  V30 57 1 24 55
M  V30 58 1 25 56 CFG=1
M  V30 59 1 27 57
M  V30 60 1 27 58
M  V30 61 1 28 59
M  V30 62 1 30 60
M  V30 63 1 30 61
M  V30 64 1 32 62
M  V30 65 1 32 63
M  V30 END BOND
M  V30 BEGIN COLLECTION
M  V30 MDLV30/STEABS ATOMS=(0)
M  V30 END COLLECTION
M  V30 END CTAB
M  END
>  <smiles>  (194) 
[H]OC(=O)C([H])([H])C([H])([H])O[C@]1([H])C([H])([H])[C@]([H])(C(=O)O[H])[C@]([H])(N2C([H])([H])C([H])([H])N(C(=O)N([H])[H])C([H])([H])C2([H])[H])C([H])([H])[C@]12S[C@@]([H])(C#CC([H])([H])O[H])C([H])([H])C2([H])[H]

>  <error>  (194) 


>  <∆∆G>  (194) 
nan

>  <∆G_bound>  (194) 
nan

>  <∆G_unbound>  (194) 
nan

>  <comRMSD>  (194) 
0.0

>  <N_constrained_atoms>  (194) 
31.0

>  <N_unconstrained_atoms>  (194) 
1.0

>  <runtime>  (194) 
2.226066

>  <regarded>  (194) 
['d0612a', '5hmy-a']

>  <disregarded>  (194) 
[]

>  <LE>  (194) 
nan

>  <outcome>  (194) 
crashed

>  <percent_hybrid>  (194) 
49.0

$$$$
LIG
     RDKit          3D

 36 38  0  0  0  0  0  0  0  0999 V2000
  -14.2912  -44.4158  -18.9854 F   0  0  0  0  0  0  0  0  0  0  0  0
  -15.5702  -39.7975  -26.4415 C   0  0  0  0  0  0  0  0  0  0  0  0
  -14.5506  -39.6412  -26.9836 O   0  0  0  0  0  0  0  0  0  0  0  0
  -16.8987  -39.7658  -27.1947 C   0  0  0  0  0  0  0  0  0  0  0  0
  -17.7369  -38.5493  -26.9471 C   0  0  0  0  0  0  0  0  0  0  0  0
  -17.2678  -40.7301  -27.8521 O   0  0  0  0  0  0  0  0  0  0  0  0
  -13.6420  -44.2243  -20.1718 C   0  0  1  0  0  0  0  0  0  0  0  0
  -14.5832  -44.6033  -21.3180 C   0  0  0  0  0  0  0  0  0  0  0  0
  -15.4061  -43.4797  -21.8287 C   0  0  0  0  0  0  0  0  0  0  0  0
  -15.2685  -42.1989  -21.4529 C   0  0  0  0  0  0  0  0  0  0  0  0
  -14.2801  -41.7845  -20.4008 C   0  0  0  0  0  0  0  0  0  0  0  0
  -13.1443  -42.7903  -20.2358 C   0  0  0  0  0  0  0  0  0  0  0  0
  -16.6830  -41.8844  -23.3561 C   0  0  1  0  0  0  0  0  0  0  0  0
  -16.0646  -41.2916  -22.1560 N   0  0  0  0  0  0  0  0  0  0  0  0
  -15.6936  -39.9128  -22.4208 C   0  0  0  0  0  0  0  0  0  0  0  0
  -14.9775  -39.8927  -23.7820 C   0  0  0  0  0  0  0  0  0  0  0  0
  -15.8762  -39.9697  -24.9946 N   0  0  0  0  0  0  0  0  0  0  0  0
  -15.8512  -41.4545  -24.5938 C   0  0  0  0  0  0  0  0  0  0  0  0
  -16.5540  -43.6988  -23.1208 S   0  0  0  0  0  0  0  0  0  0  0  0
  -17.9763  -38.4605  -25.8848 H   0  0  0  0  0  0  0  0  0  0  0  0
  -17.2026  -37.6609  -27.2891 H   0  0  0  0  0  0  0  0  0  0  0  0
  -18.6713  -38.6501  -27.4979 H   0  0  0  0  0  0  0  0  0  0  0  0
  -12.7851  -44.9013  -20.1537 H   0  0  0  0  0  0  0  0  0  0  0  0
  -13.9761  -44.9369  -22.1669 H   0  0  0  0  0  0  0  0  0  0  0  0
  -15.2286  -45.4306  -21.0020 H   0  0  0  0  0  0  0  0  0  0  0  0
  -13.8199  -40.8208  -20.6362 H   0  0  0  0  0  0  0  0  0  0  0  0
  -14.8127  -41.6625  -19.4498 H   0  0  0  0  0  0  0  0  0  0  0  0
  -12.5829  -42.5506  -19.3255 H   0  0  0  0  0  0  0  0  0  0  0  0
  -12.4564  -42.6805  -21.0803 H   0  0  0  0  0  0  0  0  0  0  0  0
  -17.7308  -41.5785  -23.4462 H   0  0  0  0  0  0  0  0  0  0  0  0
  -16.5993  -39.2952  -22.4640 H   0  0  0  0  0  0  0  0  0  0  0  0
  -15.0611  -39.4846  -21.6391 H   0  0  0  0  0  0  0  0  0  0  0  0
  -14.6070  -38.8601  -23.8716 H   0  0  0  0  0  0  0  0  0  0  0  0
  -14.0257  -40.4473  -23.8300 H   0  0  0  0  0  0  0  0  0  0  0  0
  -14.8558  -41.9274  -24.6927 H   0  0  0  0  0  0  0  0  0  0  0  0
  -16.3773  -41.9313  -25.4385 H   0  0  0  0  0  0  0  0  0  0  0  0
  4  2  1  0
  3  2  2  0
  5  4  1  0
  6  4  2  0
  7 12  1  0
  7  1  1  0
  7  8  1  0
  8  9  1  0
  9 10  2  0
 10 14  1  0
 10 11  1  0
 11 12  1  0
 13 18  1  0
 13 14  1  0
 14 15  1  0
 15 16  1  0
 16 17  1  0
 17  2  1  0
 17 18  1  0
  9 19  1  0
 13 19  1  0
  5 20  1  0
  5 21  1  0
  5 22  1  0
  7 23  1  1
  8 24  1  0
  8 25  1  0
 11 26  1  0
 11 27  1  0
 12 28  1  0
 12 29  1  0
 13 30  1  6
 15 31  1  0
 15 32  1  0
 16 33  1  0
 16 34  1  0
 18 35  1  0
 18 36  1  0
M  END
>  <smiles>  (195) 
[H]C([H])([H])C(=O)C(=O)N1C([H])([H])C([H])([H])N2C3=C(S[C@]2([H])C1([H])[H])C([H])([H])[C@]([H])(F)C([H])([H])C3([H])[H]

>  <error>  (195) 


>  <∆∆G>  (195) 
12.126013

>  <∆G_bound>  (195) 
299.02837

>  <∆G_unbound>  (195) 
286.902358

>  <comRMSD>  (195) 
0.900387

>  <N_constrained_atoms>  (195) 
19.0

>  <N_unconstrained_atoms>  (195) 
0.0

>  <runtime>  (195) 
1.490717

>  <regarded>  (195) 
['d0612a', '6izx-a']

>  <disregarded>  (195) 
[]

>  <LE>  (195) 
-0.638211

>  <outcome>  (195) 
too contorted

>  <percent_hybrid>  (195) 
16.0

$$$$
LIG
     RDKit          3D

 78 82  0  0  0  0  0  0  0  0999 V2000
  -15.3135  -44.9761  -20.1701 F   0  0  0  0  0  0  0  0  0  0  0  0
  -19.1532  -38.1288  -23.6557 C   0  0  0  0  0  0  0  0  0  0  0  0
  -19.8459  -38.5551  -24.5040 O   0  0  0  0  0  0  0  0  0  0  0  0
  -19.4078  -37.1022  -22.6592 N   0  0  0  0  0  0  0  0  0  0  0  0
  -15.8141  -41.8373  -19.0678 O   0  0  0  0  0  0  0  0  0  0  0  0
  -16.3460  -43.4173  -16.4493 O   0  0  0  0  0  0  0  0  0  0  0  0
  -14.8865  -42.5934  -19.0026 C   0  0  0  0  0  0  0  0  0  0  0  0
  -14.2889  -44.7222  -15.8169 O   0  0  0  0  0  0  0  0  0  0  0  0
  -14.9078  -43.5233  -16.3453 S   0  0  0  0  0  0  0  0  0  0  0  0
  -14.3577  -43.3544  -17.8733 N   0  0  0  0  0  0  0  0  0  0  0  0
  -13.1513  -40.6003  -20.3076 C   0  0  0  0  0  0  0  0  0  0  0  0
  -14.8430  -43.0063  -24.1740 C   0  0  0  0  0  0  0  0  0  0  0  0
  -22.1075  -45.6923  -25.8904 O   0  0  0  0  0  0  0  0  0  0  0  0
  -19.2124  -44.8597  -24.1887 C   0  0  0  0  0  0  0  0  0  0  0  0
  -19.9367  -45.3967  -24.9911 C   0  0  0  0  0  0  0  0  0  0  0  0
  -20.7467  -46.0428  -26.0441 C   0  0  0  0  0  0  0  0  0  0  0  0
  -14.9103  -44.0217  -21.0579 C   0  0  1  0  0  0  0  0  0  0  0  0
  -16.0827  -43.5419  -21.9409 C   0  0  2  0  0  0  0  0  0  0  0  0
  -15.5740  -42.4292  -22.9324 C   0  0  1  0  0  0  0  0  0  0  0  0
  -14.6451  -41.3161  -22.3271 C   0  0  2  0  0  0  0  0  0  0  0  0
  -13.7179  -41.7540  -21.1479 C   0  0  2  0  0  0  0  0  0  0  0  0
  -14.1436  -42.9478  -20.2912 C   0  0  1  0  0  0  0  0  0  0  0  0
  -16.3690  -39.6569  -21.4935 C   0  0  0  0  0  0  0  0  0  0  0  0
  -15.1693  -39.9358  -22.2604 N   0  0  0  0  0  0  0  0  0  0  0  0
  -15.2970  -39.2491  -23.5508 C   0  0  0  0  0  0  0  0  0  0  0  0
  -16.7395  -39.2405  -24.0913 C   0  0  0  0  0  0  0  0  0  0  0  0
  -17.7552  -38.4089  -23.3503 N   0  0  0  0  0  0  0  0  0  0  0  0
  -17.6570  -39.5732  -22.3510 C   0  0  0  0  0  0  0  0  0  0  0  0
  -15.2791  -41.2534  -14.9000 C   0  0  0  0  0  0  0  0  0  0  0  0
  -14.8678  -40.1633  -14.1484 C   0  0  0  0  0  0  0  0  0  0  0  0
  -13.5095  -39.9489  -13.9538 C   0  0  0  0  0  0  0  0  0  0  0  0
  -12.5592  -40.8258  -14.5052 C   0  0  0  0  0  0  0  0  0  0  0  0
  -12.9509  -41.9446  -15.2815 C   0  0  0  0  0  0  0  0  0  0  0  0
  -14.3241  -42.1207  -15.4604 C   0  0  0  0  0  0  0  0  0  0  0  0
  -11.1959  -40.6050  -14.2770 C   0  0  0  0  0  0  0  0  0  0  0  0
  -10.2554  -41.4853  -14.7859 C   0  0  0  0  0  0  0  0  0  0  0  0
  -10.7138  -42.5537  -15.5244 C   0  0  0  0  0  0  0  0  0  0  0  0
  -12.0186  -42.7816  -15.8046 N   0  0  0  0  0  0  0  0  0  0  0  0
  -18.2301  -44.0965  -23.4011 C   0  0  1  0  0  0  0  0  0  0  0  0
  -18.6696  -43.5185  -22.0703 C   0  0  0  0  0  0  0  0  0  0  0  0
  -17.4058  -43.1924  -21.2076 C   0  0  0  0  0  0  0  0  0  0  0  0
  -16.7798  -44.9937  -22.8385 S   0  0  0  0  0  0  0  0  0  0  0  0
  -18.5311  -36.9016  -22.1488 H   0  0  0  0  0  0  0  0  0  0  0  0
  -18.6130  -37.0665  -22.0001 H   0  0  0  0  0  0  0  0  0  0  0  0
  -13.5088  -43.8308  -18.1614 H   0  0  0  0  0  0  0  0  0  0  0  0
  -13.9296  -40.0745  -19.7469 H   0  0  0  0  0  0  0  0  0  0  0  0
  -12.4110  -40.9708  -19.5896 H   0  0  0  0  0  0  0  0  0  0  0  0
  -12.6441  -39.8701  -20.9479 H   0  0  0  0  0  0  0  0  0  0  0  0
  -13.9782  -43.6119  -23.8870 H   0  0  0  0  0  0  0  0  0  0  0  0
  -15.5019  -43.6134  -24.8003 H   0  0  0  0  0  0  0  0  0  0  0  0
  -14.4918  -42.2017  -24.8299 H   0  0  0  0  0  0  0  0  0  0  0  0
  -22.6530  -46.3643  -26.3429 H   0  0  0  0  0  0  0  0  0  0  0  0
  -20.6231  -47.1271  -26.0211 H   0  0  0  0  0  0  0  0  0  0  0  0
  -20.4411  -45.7140  -27.0374 H   0  0  0  0  0  0  0  0  0  0  0  0
  -14.1795  -44.5187  -21.7090 H   0  0  0  0  0  0  0  0  0  0  0  0
  -16.4507  -41.9304  -23.3429 H   0  0  0  0  0  0  0  0  0  0  0  0
  -13.8682  -41.1702  -23.0901 H   0  0  0  0  0  0  0  0  0  0  0  0
  -12.8242  -42.1434  -21.6601 H   0  0  0  0  0  0  0  0  0  0  0  0
  -13.2006  -43.4220  -19.9813 H   0  0  0  0  0  0  0  0  0  0  0  0
  -16.2308  -38.6768  -21.0168 H   0  0  0  0  0  0  0  0  0  0  0  0
  -16.5008  -40.3494  -20.6693 H   0  0  0  0  0  0  0  0  0  0  0  0
  -14.9840  -38.2083  -23.3979 H   0  0  0  0  0  0  0  0  0  0  0  0
  -14.6187  -39.6527  -24.3113 H   0  0  0  0  0  0  0  0  0  0  0  0
  -16.6683  -38.6855  -25.0407 H   0  0  0  0  0  0  0  0  0  0  0  0
  -17.1186  -40.2071  -24.4594 H   0  0  0  0  0  0  0  0  0  0  0  0
  -18.0175  -40.5321  -22.7548 H   0  0  0  0  0  0  0  0  0  0  0  0
  -18.4452  -39.3542  -21.6127 H   0  0  0  0  0  0  0  0  0  0  0  0
  -16.3452  -41.4337  -15.0372 H   0  0  0  0  0  0  0  0  0  0  0  0
  -15.6019  -39.4918  -13.7096 H   0  0  0  0  0  0  0  0  0  0  0  0
  -13.1946  -39.0957  -13.3556 H   0  0  0  0  0  0  0  0  0  0  0  0
  -10.8605  -39.7581  -13.6825 H   0  0  0  0  0  0  0  0  0  0  0  0
   -9.1966  -41.3499  -14.5967 H   0  0  0  0  0  0  0  0  0  0  0  0
  -10.0172  -43.2914  -15.9108 H   0  0  0  0  0  0  0  0  0  0  0  0
  -17.8998  -43.2854  -24.0576 H   0  0  0  0  0  0  0  0  0  0  0  0
  -19.2702  -42.6138  -22.2236 H   0  0  0  0  0  0  0  0  0  0  0  0
  -19.3155  -44.2166  -21.5196 H   0  0  0  0  0  0  0  0  0  0  0  0
  -17.4482  -42.1442  -20.9224 H   0  0  0  0  0  0  0  0  0  0  0  0
  -17.4848  -43.7564  -20.2676 H   0  0  0  0  0  0  0  0  0  0  0  0
  4  2  1  0
  3  2  2  0
  5  7  2  0
  7 10  1  0
  6  9  2  0
 10  9  1  0
  9  8  2  0
 13 16  1  0
 16 15  1  0
 15 14  3  0
 17 22  1  0
 17  1  1  0
 17 18  1  0
 18 19  1  0
 19 20  1  0
 20 24  1  0
 20 21  1  0
 21 22  1  0
 23 28  1  0
 23 24  1  0
 24 25  1  0
 25 26  1  0
 26 27  1  0
 27  2  1  0
 27 28  1  0
 29 34  2  0
 29 30  1  0
 30 31  2  0
 31 32  1  0
 32 33  2  0
 32 35  1  0
 33 34  1  0
 33 38  1  0
 34  9  1  0
 35 36  2  0
 36 37  1  0
 37 38  2  0
 39 14  1  0
 39 40  1  0
 39 42  1  0
 40 41  1  0
 18 41  1  0
 18 42  1  6
 19 12  1  0
  7 22  1  0
 11 21  1  0
  4 43  1  0
  4 44  1  0
 10 45  1  0
 11 46  1  0
 11 47  1  0
 11 48  1  0
 12 49  1  0
 12 50  1  0
 12 51  1  0
 13 52  1  0
 16 53  1  0
 16 54  1  0
 17 55  1  6
 19 56  1  6
 20 57  1  6
 21 58  1  6
 22 59  1  1
 23 60  1  0
 23 61  1  0
 25 62  1  0
 25 63  1  0
 26 64  1  0
 26 65  1  0
 28 66  1  0
 28 67  1  0
 29 68  1  0
 30 69  1  0
 31 70  1  0
 35 71  1  0
 36 72  1  0
 37 73  1  0
 39 74  1  6
 40 75  1  0
 40 76  1  0
 41 77  1  0
 41 78  1  0
M  END
>  <smiles>  (196) 
[H]OC([H])([H])C#C[C@]1([H])S[C@@]2(C([H])([H])C1([H])[H])[C@]([H])(F)[C@]([H])(C(=O)N([H])S(=O)(=O)c1c([H])c([H])c([H])c3c([H])c([H])c([H])nc13)[C@]([H])(C([H])([H])[H])[C@]([H])(N1C([H])([H])C([H])([H])N(C(=O)N([H])[H])C([H])([H])C1([H])[H])[C@@]2([H])C([H])([H])[H]

>  <error>  (196) 


>  <∆∆G>  (196) 
107.382965

>  <∆G_bound>  (196) 
330.340102

>  <∆G_unbound>  (196) 
222.957137

>  <comRMSD>  (196) 
2.337713

>  <N_constrained_atoms>  (196) 
42.0

>  <N_unconstrained_atoms>  (196) 
0.0

>  <runtime>  (196) 
53.644367

>  <regarded>  (196) 
['d0612a', '5i3q-a']

>  <disregarded>  (196) 
[]

>  <LE>  (196) 
-2.556737

>  <outcome>  (196) 
too moved

>  <percent_hybrid>  (196) 
39.0

$$$$
LIG
     RDKit          3D

  0  0  0  0  0  0  0  0  0  0999 V3000
M  V30 BEGIN CTAB
M  V30 COUNTS 57 59 0 0 0
M  V30 BEGIN ATOM
M  V30 1 O -13.742000 -44.973000 -19.142000 0
M  V30 2 C -15.875000 -39.056000 -26.562000 0
M  V30 3 O -15.329000 -37.941002 -26.474001 0
M  V30 4 N -16.326000 -39.543999 -27.726999 0
M  V30 5 O -12.997000 -40.158001 -20.322001 0
M  V30 6 C -14.011000 -40.783001 -20.846001 0
M  V30 7 O -15.075000 -40.254002 -21.090000 0
M  V30 8 C -14.144000 -44.164001 -20.167999 0 CFG=1
M  V30 9 C -15.241000 -44.532001 -20.906000 0 CFG=1
M  V30 10 C -15.657000 -43.696999 -21.931999 0
M  V30 11 C -14.967000 -42.515999 -22.211000 0 CFG=2
M  V30 12 C -13.855000 -42.192001 -21.429001 0 CFG=2
M  V30 13 C -13.444000 -43.019001 -20.400000 0
M  V30 14 C -16.284000 -42.077000 -24.318001 0
M  V30 15 N -15.370000 -41.667000 -23.252001 0
M  V30 16 C -15.427000 -40.223000 -23.013000 0
M  V30 17 C -15.117000 -39.455002 -24.268000 0
M  V30 18 N -15.997000 -39.874001 -25.365000 0
M  V30 19 C -15.979000 -41.325001 -25.594999 0
M  V30 20 C -18.871000 -47.212002 -22.100000 0
M  V30 21 C -19.099001 -46.270000 -23.020000 0
M  V30 22 S -18.201000 -44.870998 -22.716999 0
M  V30 23 C -17.933001 -46.814999 -21.103001 0
M  V30 24 O -16.903999 -43.681999 -15.132000 0
M  V30 25 O -16.912001 -42.365002 -16.922001 0
M  V30 26 C -15.465000 -44.282001 -16.898001 0
M  V30 27 C -16.490999 -43.341000 -16.322001 0
M  V30 28 C -14.603500 -44.627502 -18.020000 0
M  V30 29 H -16.772421 -40.471695 -27.758465 0
M  V30 30 H -16.225939 -38.991077 -28.590229 0
M  V30 31 H -12.152991 -40.644489 -20.145710 0
M  V30 32 H -13.481574 -44.708572 -20.856937 0
M  V30 33 H -16.538691 -43.967705 -22.531450 0
M  V30 34 H -16.303133 -43.153015 -21.227303 0
M  V30 35 H -14.314822 -43.061848 -22.908649 0
M  V30 36 H -13.058702 -42.310417 -22.178593 0
M  V30 37 H -12.571607 -42.758121 -19.782852 0
M  V30 38 H -12.788494 -43.561069 -21.097475 0
M  V30 39 H -17.081156 -42.826786 -24.206806 0
M  V30 40 H -15.580968 -42.868687 -24.616295 0
M  V30 41 H -15.665157 -39.761349 -22.043383 0
M  V30 42 H -14.358903 -40.224365 -22.750004 0
M  V30 43 H -14.336855 -38.684113 -24.352299 0
M  V30 44 H -14.387477 -40.225117 -24.559071 0
M  V30 45 H -15.771701 -41.800587 -26.564970 0
M  V30 46 H -17.051865 -41.300022 -25.836535 0
M  V30 47 H -19.359509 -48.197517 -22.111071 0
M  V30 48 H -18.050001 -47.612076 -22.713108 0
M  V30 49 H -19.786695 -46.390476 -23.870037 0
M  V30 50 H -19.923359 -45.873119 -22.409328 0
M  V30 51 H -18.084949 -47.354824 -20.156693 0
M  V30 52 H -17.241581 -47.601170 -21.440453 0
M  V30 53 H -17.586927 -41.777065 -16.499029 0
M  V30 54 H -14.705674 -44.222366 -16.104359 0
M  V30 55 H -16.274296 -44.876621 -17.346855 0
M  V30 56 H -13.553500 -43.577499 -16.970001 0
M  V30 57 H -13.543500 -43.567501 -16.960001 0
M  V30 END ATOM
M  V30 BEGIN BOND
M  V30 1 1 4 2
M  V30 2 2 3 2
M  V30 3 2 7 6
M  V30 4 1 6 5
M  V30 5 1 8 13
M  V30 6 1 8 1
M  V30 7 1 8 9
M  V30 8 1 9 10
M  V30 9 1 10 11
M  V30 10 1 11 15
M  V30 11 1 11 12
M  V30 12 1 12 13
M  V30 13 1 14 19
M  V30 14 1 14 15
M  V30 15 1 15 16
M  V30 16 1 16 17
M  V30 17 1 17 18
M  V30 18 1 18 2
M  V30 19 1 18 19
M  V30 20 1 20 21
M  V30 21 1 20 23
M  V30 22 1 21 22
M  V30 23 1 9 22 CFG=1
M  V30 24 1 9 23
M  V30 25 1 12 6
M  V30 26 1 26 27
M  V30 27 2 27 24
M  V30 28 1 27 25
M  V30 29 1 28 1
M  V30 30 1 28 26
M  V30 31 1 4 29
M  V30 32 1 4 30
M  V30 33 1 5 31
M  V30 34 1 8 32 CFG=3
M  V30 35 1 10 33
M  V30 36 1 10 34
M  V30 37 1 11 35 CFG=3
M  V30 38 1 12 36 CFG=3
M  V30 39 1 13 37
M  V30 40 1 13 38
M  V30 41 1 14 39
M  V30 42 1 14 40
M  V30 43 1 16 41
M  V30 44 1 16 42
M  V30 45 1 17 43
M  V30 46 1 17 44
M  V30 47 1 19 45
M  V30 48 1 19 46
M  V30 49 1 20 47
M  V30 50 1 20 48
M  V30 51 1 21 49
M  V30 52 1 21 50
M  V30 53 1 23 51
M  V30 54 1 23 52
M  V30 55 1 25 53
M  V30 56 1 26 54
M  V30 57 1 26 55
M  V30 58 1 28 56
M  V30 59 1 28 57
M  V30 END BOND
M  V30 BEGIN COLLECTION
M  V30 MDLV30/STEABS ATOMS=(0)
M  V30 END COLLECTION
M  V30 END CTAB
M  END
>  <smiles>  (197) 
[H]OC(=O)C([H])([H])C([H])([H])O[C@]1([H])C([H])([H])[C@]([H])(C(=O)O[H])[C@]([H])(N2C([H])([H])C([H])([H])N(C(=O)N([H])[H])C([H])([H])C2([H])[H])C([H])([H])[C@]12SC([H])([H])C([H])([H])C2([H])[H]

>  <error>  (197) 


>  <∆∆G>  (197) 
nan

>  <∆G_bound>  (197) 
nan

>  <∆G_unbound>  (197) 
nan

>  <comRMSD>  (197) 
0.0

>  <N_constrained_atoms>  (197) 
27.0

>  <N_unconstrained_atoms>  (197) 
1.0

>  <runtime>  (197) 
1.962481

>  <regarded>  (197) 
['d0612a', '5hmx-b']

>  <disregarded>  (197) 
[]

>  <LE>  (197) 
nan

>  <outcome>  (197) 
crashed

>  <percent_hybrid>  (197) 
41.0

$$$$
LIG
     RDKit          3D

  0  0  0  0  0  0  0  0  0  0999 V3000
M  V30 BEGIN CTAB
M  V30 COUNTS 83 86 0 0 0
M  V30 BEGIN ATOM
M  V30 1 O -13.742000 -44.973000 -19.142000 0
M  V30 2 C -15.875000 -39.056000 -26.562000 0
M  V30 3 O -15.329000 -37.941002 -26.474001 0
M  V30 4 N -16.326000 -39.543999 -27.726999 0
M  V30 5 O -13.059000 -42.610001 -18.479000 0
M  V30 6 C -12.190000 -41.643002 -19.082001 0
M  V30 7 O -14.855000 -43.950001 -22.778999 0
M  V30 8 C -13.814000 -43.257999 -23.455000 0
M  V30 9 C -19.211000 -46.504002 -24.429001 0
M  V30 10 C -19.791000 -46.613998 -25.464001 0
M  V30 11 C -20.584000 -46.872002 -26.666000 0
M  V30 12 O -21.716999 -46.032001 -26.728001 0
M  V30 13 C -14.144000 -44.164001 -20.167999 0 CFG=1
M  V30 14 C -15.241000 -44.532001 -20.906000 0 CFG=2
M  V30 15 C -15.657000 -43.696999 -21.931999 0 CFG=1
M  V30 16 C -14.967000 -42.515999 -22.211000 0 CFG=2
M  V30 17 C -13.855000 -42.192001 -21.429001 0
M  V30 18 C -13.444000 -43.019001 -20.400000 0 CFG=1
M  V30 19 C -16.284000 -42.077000 -24.318001 0
M  V30 20 N -15.370000 -41.667000 -23.252001 0
M  V30 21 C -15.427000 -40.223000 -23.013000 0
M  V30 22 C -15.117000 -39.455002 -24.268000 0
M  V30 23 N -15.997000 -39.874001 -25.365000 0
M  V30 24 C -15.979000 -41.325001 -25.594999 0
M  V30 25 C -17.482000 -46.637001 -21.159000 0
M  V30 26 C -18.358999 -47.137001 -22.125999 0
M  V30 27 C -18.469000 -46.320000 -23.235001 0 CFG=2
M  V30 28 S -17.472000 -44.923000 -23.080999 0
M  V30 29 O -17.714001 -42.296001 -15.013000 0
M  V30 30 O -12.865000 -39.470001 -15.427000 0
M  V30 31 O -14.229000 -44.429001 -16.355000 0
M  V30 32 C -15.110000 -44.029999 -17.115999 0
M  V30 33 N -16.246000 -43.403999 -16.635000 0
M  V30 34 S -16.552000 -43.130001 -15.039000 0
M  V30 35 O -16.562000 -44.383999 -14.350000 0
M  V30 36 C -13.292000 -39.081001 -16.736000 0
M  V30 37 C -13.047000 -40.689999 -13.506000 0
M  V30 38 C -13.619000 -41.672001 -12.707000 0
M  V30 39 C -14.700000 -42.417000 -13.158000 0
M  V30 40 C -15.198000 -42.176998 -14.430000 0
M  V30 41 C -14.650000 -41.188000 -15.231000 0
M  V30 42 C -13.567000 -40.449001 -14.768000 0
M  V30 43 C -14.426000 -44.501499 -18.129000 0
M  V30 44 H -16.772421 -40.471695 -27.758465 0
M  V30 45 H -16.225939 -38.991077 -28.590229 0
M  V30 46 H -11.675996 -41.071033 -18.295456 0
M  V30 47 H -11.445468 -42.158207 -19.706690 0
M  V30 48 H -12.781532 -40.957542 -19.706690 0
M  V30 49 H -13.134567 -42.806347 -22.717176 0
M  V30 50 H -13.253617 -43.963966 -24.085541 0
M  V30 51 H -14.248032 -42.468040 -24.085541 0
M  V30 52 H -20.916389 -47.920540 -26.656790 0
M  V30 53 H -19.954803 -46.668625 -27.545063 0
M  V30 54 H -22.014759 -45.811245 -25.810011 0
M  V30 55 H -13.481574 -44.708572 -20.856937 0
M  V30 56 H -16.749456 -43.720764 -21.805620 0
M  V30 57 H -14.314822 -43.061848 -22.908649 0
M  V30 58 H -13.298698 -41.265690 -21.635101 0
M  V30 59 H -14.505596 -41.645794 -20.730160 0
M  V30 60 H -12.511895 -42.961414 -20.981260 0
M  V30 61 H -17.081156 -42.826786 -24.206806 0
M  V30 62 H -15.580968 -42.868687 -24.616295 0
M  V30 63 H -15.665157 -39.761349 -22.043383 0
M  V30 64 H -14.358903 -40.224365 -22.750004 0
M  V30 65 H -14.336855 -38.684113 -24.352299 0
M  V30 66 H -14.387477 -40.225117 -24.559071 0
M  V30 67 H -15.771701 -41.800587 -26.564970 0
M  V30 68 H -17.051865 -41.300022 -25.836535 0
M  V30 69 H -17.638159 -47.148766 -20.197903 0
M  V30 70 H -16.737442 -47.395653 -21.441992 0
M  V30 71 H -18.906128 -48.084839 -22.015305 0
M  V30 72 H -19.191874 -46.600418 -21.648088 0
M  V30 73 H -17.606295 -46.825779 -23.693178 0
M  V30 74 H -16.947315 -43.088100 -17.320030 0
M  V30 75 H -14.102827 -38.342331 -16.652767 0
M  V30 76 H -12.445873 -38.636864 -17.280804 0
M  V30 77 H -13.655581 -39.964741 -17.280804 0
M  V30 78 H -12.188149 -40.108269 -13.139984 0
M  V30 79 H -13.209904 -41.861725 -11.703683 0
M  V30 80 H -15.154731 -43.186031 -12.516273 0
M  V30 81 H -15.069595 -40.988525 -16.228071 0
M  V30 82 H -13.115999 -43.191498 -16.819000 0
M  V30 83 H -13.106000 -43.181499 -16.809000 0
M  V30 END ATOM
M  V30 BEGIN BOND
M  V30 1 1 4 2
M  V30 2 2 3 2
M  V30 3 1 5 6
M  V30 4 1 7 8
M  V30 5 1 11 12
M  V30 6 1 11 10
M  V30 7 3 10 9
M  V30 8 1 13 18
M  V30 9 1 13 1
M  V30 10 1 13 14
M  V30 11 1 14 15
M  V30 12 1 15 16
M  V30 13 1 16 20
M  V30 14 1 16 17
M  V30 15 1 17 18
M  V30 16 1 19 24
M  V30 17 1 19 20
M  V30 18 1 20 21
M  V30 19 1 21 22
M  V30 20 1 22 23
M  V30 21 1 23 2
M  V30 22 1 23 24
M  V30 23 1 25 26
M  V30 24 1 26 27
M  V30 25 1 27 9
M  V30 26 1 27 28
M  V30 27 1 14 25
M  V30 28 1 14 28 CFG=3
M  V30 29 1 5 18
M  V30 30 1 7 15
M  V30 31 1 33 32
M  V30 32 1 33 34
M  V30 33 2 32 31
M  V30 34 2 29 34
M  V30 35 2 35 34
M  V30 36 1 36 30
M  V30 37 2 37 42
M  V30 38 1 37 38
M  V30 39 2 38 39
M  V30 40 1 39 40
M  V30 41 1 40 34
M  V30 42 2 40 41
M  V30 43 1 41 42
M  V30 44 1 42 30
M  V30 45 1 43 1
M  V30 46 1 43 32
M  V30 47 1 4 44
M  V30 48 1 4 45
M  V30 49 1 6 46
M  V30 50 1 6 47
M  V30 51 1 6 48
M  V30 52 1 8 49
M  V30 53 1 8 50
M  V30 54 1 8 51
M  V30 55 1 11 52
M  V30 56 1 11 53
M  V30 57 1 12 54
M  V30 58 1 13 55 CFG=3
M  V30 59 1 15 56 CFG=3
M  V30 60 1 16 57 CFG=3
M  V30 61 1 17 58
M  V30 62 1 17 59
M  V30 63 1 18 60 CFG=3
M  V30 64 1 19 61
M  V30 65 1 19 62
M  V30 66 1 21 63
M  V30 67 1 21 64
M  V30 68 1 22 65
M  V30 69 1 22 66
M  V30 70 1 24 67
M  V30 71 1 24 68
M  V30 72 1 25 69
M  V30 73 1 25 70
M  V30 74 1 26 71
M  V30 75 1 26 72
M  V30 76 1 27 73 CFG=1
M  V30 77 1 33 74
M  V30 78 1 36 75
M  V30 79 1 36 76
M  V30 80 1 36 77
M  V30 81 1 37 78
M  V30 82 1 38 79
M  V30 83 1 39 80
M  V30 84 1 41 81
M  V30 85 1 43 82
M  V30 86 1 43 83
M  V30 END BOND
M  V30 BEGIN COLLECTION
M  V30 MDLV30/STEABS ATOMS=(0)
M  V30 END COLLECTION
M  V30 END CTAB
M  END
>  <smiles>  (198) 
[H]OC([H])([H])C#C[C@]1([H])S[C@]2(C([H])([H])C1([H])[H])[C@]([H])(OC([H])([H])[H])[C@@]([H])(N1C([H])([H])C([H])([H])N(C(=O)N([H])[H])C([H])([H])C1([H])[H])C([H])([H])[C@@]([H])(OC([H])([H])[H])[C@@]2([H])OC([H])([H])C(=O)N([H])S(=O)(=O)c1c([H])c([H])c([H])c(OC([H])([H])[H])c1[H]

>  <error>  (198) 


>  <∆∆G>  (198) 
nan

>  <∆G_bound>  (198) 
nan

>  <∆G_unbound>  (198) 
nan

>  <comRMSD>  (198) 
0.0

>  <N_constrained_atoms>  (198) 
42.0

>  <N_unconstrained_atoms>  (198) 
1.0

>  <runtime>  (198) 
3.077204

>  <regarded>  (198) 
['d0612a', '5k5m-a']

>  <disregarded>  (198) 
[]

>  <LE>  (198) 
nan

>  <outcome>  (198) 
crashed

>  <percent_hybrid>  (198) 
39.0

$$$$

     RDKit          2D

  0  0  0  0  0  0  0  0  0  0999 V2000
M  END
>  <smiles>  (199) 
nan

>  <error>  (199) 
TimeoutError

>  <∆∆G>  (199) 
nan

>  <∆G_bound>  (199) 
nan

>  <∆G_unbound>  (199) 
nan

>  <comRMSD>  (199) 
nan

>  <N_constrained_atoms>  (199) 
nan

>  <N_unconstrained_atoms>  (199) 
nan

>  <runtime>  (199) 
nan

>  <regarded>  (199) 
[]

>  <disregarded>  (199) 
[]

>  <LE>  (199) 
nan

>  <outcome>  (199) 
timeout

>  <percent_hybrid>  (199) 
nan

$$$$
LIG
     RDKit          3D

  0  0  0  0  0  0  0  0  0  0999 V3000
M  V30 BEGIN CTAB
M  V30 COUNTS 62 64 0 0 0
M  V30 BEGIN ATOM
M  V30 1 O -13.742000 -44.973000 -19.142000 0
M  V30 2 C -15.875000 -39.056000 -26.562000 0
M  V30 3 O -15.329000 -37.941002 -26.474001 0
M  V30 4 N -16.326000 -39.543999 -27.726999 0
M  V30 5 O -15.054000 -40.509998 -21.433001 0
M  V30 6 O -13.165000 -40.166000 -20.434000 0
M  V30 7 C -13.969000 -40.924999 -20.995001 0
M  V30 8 C -14.144000 -44.164001 -20.167999 0 CFG=1
M  V30 9 C -15.241000 -44.532001 -20.906000 0
M  V30 10 C -15.657000 -43.696999 -21.931999 0
M  V30 11 C -14.967000 -42.515999 -22.211000 0 CFG=2
M  V30 12 C -13.855000 -42.192001 -21.429001 0 CFG=2
M  V30 13 C -13.444000 -43.019001 -20.400000 0
M  V30 14 C -16.284000 -42.077000 -24.318001 0
M  V30 15 N -15.370000 -41.667000 -23.252001 0
M  V30 16 C -15.427000 -40.223000 -23.013000 0
M  V30 17 C -15.117000 -39.455002 -24.268000 0
M  V30 18 N -15.997000 -39.874001 -25.365000 0
M  V30 19 C -15.979000 -41.325001 -25.594999 0
M  V30 20 C -18.702999 -47.500000 -22.153999 0
M  V30 21 C -17.832001 -46.813999 -21.304001 0
M  V30 22 C -18.084999 -44.828999 -22.653999 0
M  V30 23 C -18.951000 -45.514999 -23.506001 0
M  V30 24 C -19.274000 -46.852001 -23.253000 0
M  V30 25 C -15.477000 -44.540001 -16.980000 0
M  V30 26 O -17.010000 -42.716000 -16.606001 0
M  V30 27 C -16.496000 -43.761002 -16.164000 0
M  V30 28 O -16.778999 -44.183998 -15.025000 0
M  V30 29 C -14.609500 -44.756500 -18.061001 0
M  V30 30 H -16.772421 -40.471695 -27.758465 0
M  V30 31 H -16.225939 -38.991077 -28.590229 0
M  V30 32 H -12.305711 -40.519897 -20.092710 0
M  V30 33 H -13.481574 -44.708572 -20.856937 0
M  V30 34 H -16.538691 -43.967705 -22.531450 0
M  V30 35 H -16.303133 -43.153015 -21.227303 0
M  V30 36 H -14.314822 -43.061848 -22.908649 0
M  V30 37 H -13.033868 -42.350609 -22.143555 0
M  V30 38 H -12.571607 -42.758121 -19.782852 0
M  V30 39 H -12.788494 -43.561069 -21.097475 0
M  V30 40 H -17.081156 -42.826786 -24.206806 0
M  V30 41 H -15.580968 -42.868687 -24.616295 0
M  V30 42 H -15.665157 -39.761349 -22.043383 0
M  V30 43 H -14.358903 -40.224365 -22.750004 0
M  V30 44 H -14.336855 -38.684113 -24.352299 0
M  V30 45 H -14.387477 -40.225117 -24.559071 0
M  V30 46 H -15.771701 -41.800587 -26.564970 0
M  V30 47 H -17.051865 -41.300022 -25.836535 0
M  V30 48 H -18.940735 -48.555840 -21.957317 0
M  V30 49 H -17.851238 -47.808060 -22.778181 0
M  V30 50 H -18.082920 -47.154377 -20.288530 0
M  V30 51 H -17.099577 -47.629490 -21.396368 0
M  V30 52 H -18.616587 -43.888683 -22.446110 0
M  V30 53 H -18.570709 -45.295834 -21.784430 0
M  V30 54 H -19.381012 -45.002758 -24.379328 0
M  V30 55 H -18.094784 -45.837410 -24.116693 0
M  V30 56 H -19.971224 -47.388878 -23.913031 0
M  V30 57 H -20.117260 -46.529381 -22.624647 0
M  V30 58 H -14.734324 -44.673824 -16.179672 0
M  V30 59 H -16.303442 -44.853531 -17.634745 0
M  V30 60 H -17.672047 -42.221134 -16.061113 0
M  V30 61 H -13.509500 -43.656502 -16.961000 0
M  V30 62 H -13.499500 -43.646500 -16.951000 0
M  V30 END ATOM
M  V30 BEGIN BOND
M  V30 1 1 4 2
M  V30 2 2 3 2
M  V30 3 2 5 7
M  V30 4 1 7 6
M  V30 5 1 8 13
M  V30 6 1 8 1
M  V30 7 1 8 9
M  V30 8 1 9 10
M  V30 9 1 10 11
M  V30 10 1 11 15
M  V30 11 1 11 12
M  V30 12 1 12 13
M  V30 13 1 14 19
M  V30 14 1 14 15
M  V30 15 1 15 16
M  V30 16 1 16 17
M  V30 17 1 17 18
M  V30 18 1 18 2
M  V30 19 1 18 19
M  V30 20 1 20 24
M  V30 21 1 20 21
M  V30 22 1 22 23
M  V30 23 1 23 24
M  V30 24 1 9 21
M  V30 25 1 9 22
M  V30 26 1 12 7
M  V30 27 1 25 27
M  V30 28 2 27 28
M  V30 29 1 27 26
M  V30 30 1 29 1
M  V30 31 1 29 25
M  V30 32 1 4 30
M  V30 33 1 4 31
M  V30 34 1 6 32
M  V30 35 1 8 33 CFG=3
M  V30 36 1 10 34
M  V30 37 1 10 35
M  V30 38 1 11 36 CFG=3
M  V30 39 1 12 37 CFG=3
M  V30 40 1 13 38
M  V30 41 1 13 39
M  V30 42 1 14 40
M  V30 43 1 14 41
M  V30 44 1 16 42
M  V30 45 1 16 43
M  V30 46 1 17 44
M  V30 47 1 17 45
M  V30 48 1 19 46
M  V30 49 1 19 47
M  V30 50 1 20 48
M  V30 51 1 20 49
M  V30 52 1 21 50
M  V30 53 1 21 51
M  V30 54 1 22 52
M  V30 55 1 22 53
M  V30 56 1 23 54
M  V30 57 1 23 55
M  V30 58 1 24 56
M  V30 59 1 24 57
M  V30 60 1 25 58
M  V30 61 1 25 59
M  V30 62 1 26 60
M  V30 63 1 29 61
M  V30 64 1 29 62
M  V30 END BOND
M  V30 BEGIN COLLECTION
M  V30 MDLV30/STEABS ATOMS=(0)
M  V30 END COLLECTION
M  V30 END CTAB
M  END
>  <smiles>  (200) 
[H]OC(=O)C([H])([H])C([H])([H])O[C@@]1([H])C2(C([H])([H])C([H])([H])C([H])([H])C([H])([H])C2([H])[H])C([H])([H])[C@@]([H])(N2C([H])([H])C([H])([H])N(C(=O)N([H])[H])C([H])([H])C2([H])[H])[C@@]([H])(C(=O)O[H])C1([H])[H]

>  <error>  (200) 


>  <∆∆G>  (200) 
nan

>  <∆G_bound>  (200) 
nan

>  <∆G_unbound>  (200) 
nan

>  <comRMSD>  (200) 
0.0

>  <N_constrained_atoms>  (200) 
28.0

>  <N_unconstrained_atoms>  (200) 
1.0

>  <runtime>  (200) 
1.808335

>  <regarded>  (200) 
['d0612a', '5hmw-b']

>  <disregarded>  (200) 
[]

>  <LE>  (200) 
nan

>  <outcome>  (200) 
crashed

>  <percent_hybrid>  (200) 
43.0

$$$$
LIG
     RDKit          3D

 53 55  0  0  0  0  0  0  0  0999 V2000
  -14.7892  -43.9083  -19.2480 F   0  0  0  0  0  0  0  0  0  0  0  0
  -18.8988  -37.8799  -25.8997 C   0  0  0  0  0  0  0  0  0  0  0  0
  -19.0595  -37.8639  -27.0653 O   0  0  0  0  0  0  0  0  0  0  0  0
  -19.6207  -37.1963  -24.8404 N   0  0  0  0  0  0  0  0  0  0  0  0
  -14.5928  -41.2719  -18.9290 C   0  0  0  0  0  0  0  0  0  0  0  0
  -16.6738  -40.2349  -18.3631 O   0  0  0  0  0  0  0  0  0  0  0  0
  -16.2764  -42.2853  -17.5132 O   0  0  0  0  0  0  0  0  0  0  0  0
  -15.9156  -41.3444  -18.2006 C   0  0  0  0  0  0  0  0  0  0  0  0
  -15.0630  -43.8739  -23.7172 C   0  0  0  0  0  0  0  0  0  0  0  0
  -14.7886  -43.3349  -20.4806 C   0  0  1  0  0  0  0  0  0  0  0  0
  -16.0070  -43.7967  -21.3062 C   0  0  1  0  0  0  0  0  0  0  0  0
  -15.9648  -43.1350  -22.7216 C   0  0  1  0  0  0  0  0  0  0  0  0
  -15.5178  -41.6325  -22.7280 C   0  0  2  0  0  0  0  0  0  0  0  0
  -15.4808  -40.9903  -21.3324 C   0  0  0  0  0  0  0  0  0  0  0  0
  -14.5916  -41.8070  -20.3685 C   0  0  1  0  0  0  0  0  0  0  0  0
  -17.6572  -40.5556  -23.4318 C   0  0  0  0  0  0  0  0  0  0  0  0
  -16.2937  -40.9342  -23.7624 N   0  0  0  0  0  0  0  0  0  0  0  0
  -15.6570  -39.7925  -24.4057 C   0  0  0  0  0  0  0  0  0  0  0  0
  -16.6072  -39.2779  -25.5206 C   0  0  0  0  0  0  0  0  0  0  0  0
  -17.8600  -38.5259  -25.0958 N   0  0  0  0  0  0  0  0  0  0  0  0
  -18.3098  -39.9403  -24.6932 C   0  0  0  0  0  0  0  0  0  0  0  0
  -18.4484  -44.9981  -20.8738 C   0  0  0  0  0  0  0  0  0  0  0  0
  -17.4781  -45.7532  -21.7566 C   0  0  0  0  0  0  0  0  0  0  0  0
  -16.0874  -45.3374  -21.3018 C   0  0  0  0  0  0  0  0  0  0  0  0
  -17.6613  -43.3926  -20.5539 S   0  0  0  0  0  0  0  0  0  0  0  0
  -19.1304  -37.3505  -23.9433 H   0  0  0  0  0  0  0  0  0  0  0  0
  -19.2787  -37.5340  -23.9263 H   0  0  0  0  0  0  0  0  0  0  0  0
  -14.2431  -40.2318  -18.9148 H   0  0  0  0  0  0  0  0  0  0  0  0
  -13.8594  -41.8200  -18.3236 H   0  0  0  0  0  0  0  0  0  0  0  0
  -16.2513  -39.5379  -18.8952 H   0  0  0  0  0  0  0  0  0  0  0  0
  -14.0382  -43.9745  -23.3468 H   0  0  0  0  0  0  0  0  0  0  0  0
  -15.4646  -44.8660  -23.9071 H   0  0  0  0  0  0  0  0  0  0  0  0
  -15.0281  -43.3579  -24.6825 H   0  0  0  0  0  0  0  0  0  0  0  0
  -13.8921  -43.7370  -20.9709 H   0  0  0  0  0  0  0  0  0  0  0  0
  -16.9682  -43.2197  -23.1609 H   0  0  0  0  0  0  0  0  0  0  0  0
  -14.4714  -41.6210  -23.0678 H   0  0  0  0  0  0  0  0  0  0  0  0
  -15.0769  -39.9723  -21.4061 H   0  0  0  0  0  0  0  0  0  0  0  0
  -16.4907  -40.8793  -20.9308 H   0  0  0  0  0  0  0  0  0  0  0  0
  -13.5622  -41.6326  -20.7199 H   0  0  0  0  0  0  0  0  0  0  0  0
  -17.6912  -39.8229  -22.6164 H   0  0  0  0  0  0  0  0  0  0  0  0
  -18.2493  -41.4248  -23.1297 H   0  0  0  0  0  0  0  0  0  0  0  0
  -15.4498  -38.9887  -23.6890 H   0  0  0  0  0  0  0  0  0  0  0  0
  -14.7100  -40.0961  -24.8654 H   0  0  0  0  0  0  0  0  0  0  0  0
  -16.0395  -38.4800  -26.0241 H   0  0  0  0  0  0  0  0  0  0  0  0
  -16.7626  -39.9836  -26.3550 H   0  0  0  0  0  0  0  0  0  0  0  0
  -18.4108  -40.6398  -25.5422 H   0  0  0  0  0  0  0  0  0  0  0  0
  -19.3650  -39.8087  -24.4045 H   0  0  0  0  0  0  0  0  0  0  0  0
  -19.4232  -44.8699  -21.3520 H   0  0  0  0  0  0  0  0  0  0  0  0
  -18.5926  -45.5116  -19.9180 H   0  0  0  0  0  0  0  0  0  0  0  0
  -17.6232  -46.8342  -21.6592 H   0  0  0  0  0  0  0  0  0  0  0  0
  -17.6392  -45.5017  -22.8109 H   0  0  0  0  0  0  0  0  0  0  0  0
  -15.9109  -45.7369  -20.2928 H   0  0  0  0  0  0  0  0  0  0  0  0
  -15.3128  -45.7775  -21.9275 H   0  0  0  0  0  0  0  0  0  0  0  0
  4  2  1  0
  3  2  2  0
  7  8  2  0
  5  8  1  0
  8  6  1  0
 10 15  1  0
 10  1  1  0
 10 11  1  0
 11 12  1  0
 12 13  1  0
 13 17  1  0
 13 14  1  0
 14 15  1  0
 16 21  1  0
 16 17  1  0
 17 18  1  0
 18 19  1  0
 19 20  1  0
 20  2  1  0
 20 21  1  0
 22 23  1  0
 22 25  1  0
 23 24  1  0
 11 24  1  0
 11 25  1  6
 12  9  1  0
  5 15  1  0
  4 26  1  0
  4 27  1  0
  5 28  1  0
  5 29  1  0
  6 30  1  0
  9 31  1  0
  9 32  1  0
  9 33  1  0
 10 34  1  6
 12 35  1  6
 13 36  1  6
 14 37  1  0
 14 38  1  0
 15 39  1  6
 16 40  1  0
 16 41  1  0
 18 42  1  0
 18 43  1  0
 19 44  1  0
 19 45  1  0
 21 46  1  0
 21 47  1  0
 22 48  1  0
 22 49  1  0
 23 50  1  0
 23 51  1  0
 24 52  1  0
 24 53  1  0
M  END
>  <smiles>  (201) 
[H]OC(=O)C([H])([H])[C@]1([H])C([H])([H])[C@]([H])(N2C([H])([H])C([H])([H])N(C(=O)N([H])[H])C([H])([H])C2([H])[H])[C@@]([H])(C([H])([H])[H])[C@@]2(SC([H])([H])C([H])([H])C2([H])[H])[C@]1([H])F

>  <error>  (201) 


>  <∆∆G>  (201) 
-58.357588

>  <∆G_bound>  (201) 
296.764288

>  <∆G_unbound>  (201) 
355.121876

>  <comRMSD>  (201) 
2.446265

>  <N_constrained_atoms>  (201) 
25.0

>  <N_unconstrained_atoms>  (201) 
0.0

>  <runtime>  (201) 
7.97856

>  <regarded>  (201) 
['d0612a', '5f3z-a']

>  <disregarded>  (201) 
[]

>  <LE>  (201) 
2.334304

>  <outcome>  (201) 
too moved

>  <percent_hybrid>  (201) 
36.0

$$$$
LIG
     RDKit          3D

  0  0  0  0  0  0  0  0  0  0999 V3000
M  V30 BEGIN CTAB
M  V30 COUNTS 57 59 0 0 0
M  V30 BEGIN ATOM
M  V30 1 O -13.742000 -44.973000 -19.142000 0
M  V30 2 C -15.875000 -39.056000 -26.562000 0
M  V30 3 O -15.329000 -37.941002 -26.474001 0
M  V30 4 N -16.326000 -39.543999 -27.726999 0
M  V30 5 C -14.680000 -43.063000 -23.400999 0
M  V30 6 C -14.144000 -44.164001 -20.167999 0 CFG=1
M  V30 7 C -15.241000 -44.532001 -20.906000 0 CFG=1
M  V30 8 C -15.657000 -43.696999 -21.931999 0 CFG=1
M  V30 9 C -14.967000 -42.515999 -22.211000 0 CFG=2
M  V30 10 C -13.855000 -42.192001 -21.429001 0
M  V30 11 C -13.444000 -43.019001 -20.400000 0
M  V30 12 C -16.284000 -42.077000 -24.318001 0
M  V30 13 N -15.370000 -41.667000 -23.252001 0
M  V30 14 C -15.427000 -40.223000 -23.013000 0
M  V30 15 C -15.117000 -39.455002 -24.268000 0
M  V30 16 N -15.997000 -39.874001 -25.365000 0
M  V30 17 C -15.979000 -41.325001 -25.594999 0
M  V30 18 C -19.268999 -46.298000 -23.153999 0
M  V30 19 C -19.041000 -47.146000 -22.066999 0
M  V30 20 C -18.048000 -46.724998 -21.127001 0
M  V30 21 S -18.218000 -44.983002 -22.896000 0
M  V30 22 C -15.252000 -44.404999 -17.011999 0
M  V30 23 O -16.296000 -42.285999 -17.075001 0
M  V30 24 O -17.195999 -43.696999 -15.687000 0
M  V30 25 C -16.305000 -43.417999 -16.535000 0
M  V30 26 C -14.497000 -44.688999 -18.077000 0
M  V30 27 H -16.772421 -40.471695 -27.758465 0
M  V30 28 H -16.225939 -38.991077 -28.590229 0
M  V30 29 H -13.807205 -42.496620 -23.044004 0
M  V30 30 H -14.340854 -43.913597 -24.010475 0
M  V30 31 H -15.318672 -42.406769 -24.010475 0
M  V30 32 H -13.481574 -44.708572 -20.856937 0
M  V30 33 H -16.648804 -44.135857 -21.748344 0
M  V30 34 H -14.314822 -43.061848 -22.908649 0
M  V30 35 H -13.298698 -41.265690 -21.635101 0
M  V30 36 H -14.505596 -41.645794 -20.730160 0
M  V30 37 H -12.571607 -42.758121 -19.782852 0
M  V30 38 H -12.788494 -43.561069 -21.097475 0
M  V30 39 H -17.081156 -42.826786 -24.206806 0
M  V30 40 H -15.580968 -42.868687 -24.616295 0
M  V30 41 H -15.665157 -39.761349 -22.043383 0
M  V30 42 H -14.358903 -40.224365 -22.750004 0
M  V30 43 H -14.336855 -38.684113 -24.352299 0
M  V30 44 H -14.387477 -40.225117 -24.559071 0
M  V30 45 H -15.771701 -41.800587 -26.564970 0
M  V30 46 H -17.051865 -41.300022 -25.836535 0
M  V30 47 H -19.969831 -46.446461 -23.988741 0
M  V30 48 H -20.055822 -45.780697 -22.585400 0
M  V30 49 H -19.595686 -48.087475 -21.940722 0
M  V30 50 H -18.269756 -47.677727 -22.643583 0
M  V30 51 H -18.197083 -47.241405 -20.167261 0
M  V30 52 H -17.386646 -47.537800 -21.461613 0
M  V30 53 H -14.483165 -44.285145 -16.234486 0
M  V30 54 H -16.017403 -45.136105 -17.311409 0
M  V30 55 H -15.599265 -42.060955 -17.741346 0
M  V30 56 H -13.447000 -43.639000 -17.027000 0
M  V30 57 H -13.436999 -43.628998 -17.017000 0
M  V30 END ATOM
M  V30 BEGIN BOND
M  V30 1 1 4 2
M  V30 2 2 3 2
M  V30 3 1 6 11
M  V30 4 1 6 1
M  V30 5 1 6 7
M  V30 6 1 7 8
M  V30 7 1 8 9
M  V30 8 1 9 13
M  V30 9 1 9 10
M  V30 10 1 10 11
M  V30 11 1 12 17
M  V30 12 1 12 13
M  V30 13 1 13 14
M  V30 14 1 14 15
M  V30 15 1 15 16
M  V30 16 1 16 2
M  V30 17 1 16 17
M  V30 18 1 18 19
M  V30 19 1 18 21
M  V30 20 1 19 20
M  V30 21 1 7 20
M  V30 22 1 7 21 CFG=3
M  V30 23 1 8 5
M  V30 24 2 24 25
M  V30 25 1 22 25
M  V30 26 1 25 23
M  V30 27 1 26 1
M  V30 28 1 26 22
M  V30 29 1 4 27
M  V30 30 1 4 28
M  V30 31 1 5 29
M  V30 32 1 5 30
M  V30 33 1 5 31
M  V30 34 1 6 32 CFG=3
M  V30 35 1 8 33 CFG=3
M  V30 36 1 9 34 CFG=3
M  V30 37 1 10 35
M  V30 38 1 10 36
M  V30 39 1 11 37
M  V30 40 1 11 38
M  V30 41 1 12 39
M  V30 42 1 12 40
M  V30 43 1 14 41
M  V30 44 1 14 42
M  V30 45 1 15 43
M  V30 46 1 15 44
M  V30 47 1 17 45
M  V30 48 1 17 46
M  V30 49 1 18 47
M  V30 50 1 18 48
M  V30 51 1 19 49
M  V30 52 1 19 50
M  V30 53 1 20 51
M  V30 54 1 20 52
M  V30 55 1 22 53
M  V30 56 1 22 54
M  V30 57 1 23 55
M  V30 58 1 26 56
M  V30 59 1 26 57
M  V30 END BOND
M  V30 BEGIN COLLECTION
M  V30 MDLV30/STEABS ATOMS=(0)
M  V30 END COLLECTION
M  V30 END CTAB
M  END
>  <smiles>  (202) 
[H]OC(=O)C([H])([H])C([H])([H])O[C@]1([H])C([H])([H])C([H])([H])[C@]([H])(N2C([H])([H])C([H])([H])N(C(=O)N([H])[H])C([H])([H])C2([H])[H])[C@@]([H])(C([H])([H])[H])[C@@]12SC([H])([H])C([H])([H])C2([H])[H]

>  <error>  (202) 


>  <∆∆G>  (202) 
nan

>  <∆G_bound>  (202) 
nan

>  <∆G_unbound>  (202) 
nan

>  <comRMSD>  (202) 
0.0

>  <N_constrained_atoms>  (202) 
25.0

>  <N_unconstrained_atoms>  (202) 
1.0

>  <runtime>  (202) 
1.690717

>  <regarded>  (202) 
['d0612a', '6h9r-a']

>  <disregarded>  (202) 
[]

>  <LE>  (202) 
nan

>  <outcome>  (202) 
crashed

>  <percent_hybrid>  (202) 
36.0

$$$$
LIG
     RDKit          3D

 59 61  0  0  0  0  0  0  0  0999 V2000
  -15.9952  -44.4946  -18.4039 F   0  0  0  0  0  0  0  0  0  0  0  0
  -18.3998  -38.5962  -25.9301 C   0  0  0  0  0  0  0  0  0  0  0  0
  -17.8021  -37.5909  -26.0386 O   0  0  0  0  0  0  0  0  0  0  0  0
  -19.3009  -39.2632  -26.8609 N   0  0  0  0  0  0  0  0  0  0  0  0
  -18.2235  -42.8023  -17.7403 O   0  0  0  0  0  0  0  0  0  0  0  0
  -17.0088  -42.4746  -15.8910 O   0  0  0  0  0  0  0  0  0  0  0  0
  -17.1784  -42.4393  -17.2285 C   0  0  0  0  0  0  0  0  0  0  0  0
  -15.9548  -41.8877  -17.9337 C   0  0  0  0  0  0  0  0  0  0  0  0
  -14.8679  -43.6906  -22.2278 O   0  0  0  0  0  0  0  0  0  0  0  0
  -14.5040  -43.5799  -23.5958 C   0  0  0  0  0  0  0  0  0  0  0  0
  -15.7116  -43.8532  -19.5725 C   0  0  1  0  0  0  0  0  0  0  0  0
  -16.5838  -44.4433  -20.7053 C   0  0  0  0  0  0  0  0  0  0  0  0
  -16.2826  -43.5905  -21.9780 C   0  0  1  0  0  0  0  0  0  0  0  0
  -16.6567  -42.0620  -21.8651 C   0  0  2  0  0  0  0  0  0  0  0  0
  -16.7134  -41.6012  -20.3739 C   0  0  0  0  0  0  0  0  0  0  0  0
  -15.7645  -42.3261  -19.4030 C   0  0  1  0  0  0  0  0  0  0  0  0
  -17.7728  -41.8953  -24.0834 C   0  0  0  0  0  0  0  0  0  0  0  0
  -17.9084  -41.7570  -22.6226 N   0  0  0  0  0  0  0  0  0  0  0  0
  -18.5205  -40.4443  -22.3822 C   0  0  0  0  0  0  0  0  0  0  0  0
  -18.0431  -39.3576  -23.3642 C   0  0  0  0  0  0  0  0  0  0  0  0
  -18.5347  -39.4976  -24.7854 N   0  0  0  0  0  0  0  0  0  0  0  0
  -17.4367  -40.5727  -24.8258 C   0  0  0  0  0  0  0  0  0  0  0  0
  -18.9551  -45.1949  -21.4091 C   0  0  0  0  0  0  0  0  0  0  0  0
  -18.0963  -44.4685  -20.3690 C   0  0  0  0  0  0  0  0  0  0  0  0
  -16.1080  -45.9247  -20.8965 C   0  0  0  0  0  0  0  0  0  0  0  0
  -17.2234  -46.9630  -20.9980 C   0  0  0  0  0  0  0  0  0  0  0  0
  -18.3319  -46.4896  -21.9150 C   0  0  0  0  0  0  0  0  0  0  0  0
  -19.5568  -40.1884  -26.4794 H   0  0  0  0  0  0  0  0  0  0  0  0
  -19.7398  -40.0705  -26.3870 H   0  0  0  0  0  0  0  0  0  0  0  0
  -17.7995  -42.9390  -15.5190 H   0  0  0  0  0  0  0  0  0  0  0  0
  -15.9960  -40.7946  -17.8674 H   0  0  0  0  0  0  0  0  0  0  0  0
  -15.0734  -42.2206  -17.3703 H   0  0  0  0  0  0  0  0  0  0  0  0
  -14.5524  -42.5376  -23.9211 H   0  0  0  0  0  0  0  0  0  0  0  0
  -13.4778  -43.9361  -23.7046 H   0  0  0  0  0  0  0  0  0  0  0  0
  -15.1485  -44.1968  -24.2264 H   0  0  0  0  0  0  0  0  0  0  0  0
  -14.6593  -44.1034  -19.7652 H   0  0  0  0  0  0  0  0  0  0  0  0
  -16.8049  -44.0657  -22.8152 H   0  0  0  0  0  0  0  0  0  0  0  0
  -15.8507  -41.4711  -22.3209 H   0  0  0  0  0  0  0  0  0  0  0  0
  -16.4740  -40.5288  -20.3392 H   0  0  0  0  0  0  0  0  0  0  0  0
  -17.7345  -41.6679  -19.9889 H   0  0  0  0  0  0  0  0  0  0  0  0
  -14.7642  -41.9630  -19.6858 H   0  0  0  0  0  0  0  0  0  0  0  0
  -18.7381  -42.2559  -24.4638 H   0  0  0  0  0  0  0  0  0  0  0  0
  -17.0455  -42.6563  -24.3748 H   0  0  0  0  0  0  0  0  0  0  0  0
  -19.6042  -40.5669  -22.5167 H   0  0  0  0  0  0  0  0  0  0  0  0
  -18.4084  -40.0858  -21.3564 H   0  0  0  0  0  0  0  0  0  0  0  0
  -18.5686  -38.4432  -23.0463 H   0  0  0  0  0  0  0  0  0  0  0  0
  -16.9930  -39.0420  -23.2445 H   0  0  0  0  0  0  0  0  0  0  0  0
  -16.4115  -40.1994  -24.6596 H   0  0  0  0  0  0  0  0  0  0  0  0
  -17.3870  -40.8662  -25.8867 H   0  0  0  0  0  0  0  0  0  0  0  0
  -19.1646  -44.5366  -22.2602 H   0  0  0  0  0  0  0  0  0  0  0  0
  -19.9268  -45.4110  -20.9508 H   0  0  0  0  0  0  0  0  0  0  0  0
  -18.5265  -43.4770  -20.2413 H   0  0  0  0  0  0  0  0  0  0  0  0
  -18.2353  -44.9675  -19.4002 H   0  0  0  0  0  0  0  0  0  0  0  0
  -15.4530  -46.2400  -20.0742 H   0  0  0  0  0  0  0  0  0  0  0  0
  -15.4949  -45.9876  -21.7965 H   0  0  0  0  0  0  0  0  0  0  0  0
  -16.8168  -47.9152  -21.3512 H   0  0  0  0  0  0  0  0  0  0  0  0
  -17.6275  -47.1571  -19.9994 H   0  0  0  0  0  0  0  0  0  0  0  0
  -19.0945  -47.2691  -22.0039 H   0  0  0  0  0  0  0  0  0  0  0  0
  -17.9337  -46.3286  -22.9229 H   0  0  0  0  0  0  0  0  0  0  0  0
  4  2  1  0
  3  2  2  0
  5  7  2  0
  8  7  1  0
  7  6  1  0
  9 10  1  0
 11 16  1  0
 11  1  1  0
 11 12  1  0
 12 13  1  0
 13 14  1  0
 14 18  1  0
 14 15  1  0
 15 16  1  0
 17 22  1  0
 17 18  1  0
 18 19  1  0
 19 20  1  0
 20 21  1  0
 21  2  1  0
 21 22  1  0
 23 27  1  0
 23 24  1  0
 25 26  1  0
 26 27  1  0
 12 24  1  0
 12 25  1  0
  8 16  1  0
  9 13  1  0
  4 28  1  0
  4 29  1  0
  6 30  1  0
  8 31  1  0
  8 32  1  0
 10 33  1  0
 10 34  1  0
 10 35  1  0
 11 36  1  6
 13 37  1  6
 14 38  1  6
 15 39  1  0
 15 40  1  0
 16 41  1  6
 17 42  1  0
 17 43  1  0
 19 44  1  0
 19 45  1  0
 20 46  1  0
 20 47  1  0
 22 48  1  0
 22 49  1  0
 23 50  1  0
 23 51  1  0
 24 52  1  0
 24 53  1  0
 25 54  1  0
 25 55  1  0
 26 56  1  0
 26 57  1  0
 27 58  1  0
 27 59  1  0
M  END
>  <smiles>  (203) 
[H]OC(=O)C([H])([H])[C@]1([H])C([H])([H])[C@]([H])(N2C([H])([H])C([H])([H])N(C(=O)N([H])[H])C([H])([H])C2([H])[H])[C@@]([H])(OC([H])([H])[H])C2(C([H])([H])C([H])([H])C([H])([H])C([H])([H])C2([H])[H])[C@]1([H])F

>  <error>  (203) 


>  <∆∆G>  (203) 
97.489204

>  <∆G_bound>  (203) 
317.331535

>  <∆G_unbound>  (203) 
219.842331

>  <comRMSD>  (203) 
2.222786

>  <N_constrained_atoms>  (203) 
27.0

>  <N_unconstrained_atoms>  (203) 
0.0

>  <runtime>  (203) 
52.872709

>  <regarded>  (203) 
['d0612a', '5f3t-a']

>  <disregarded>  (203) 
[]

>  <LE>  (203) 
-3.610711

>  <outcome>  (203) 
too moved

>  <percent_hybrid>  (203) 
41.0

$$$$

     RDKit          2D

  0  0  0  0  0  0  0  0  0  0999 V2000
M  END
>  <smiles>  (204) 
nan

>  <error>  (204) 
DistanceError 6.48 Å

>  <∆∆G>  (204) 
nan

>  <∆G_bound>  (204) 
nan

>  <∆G_unbound>  (204) 
nan

>  <comRMSD>  (204) 
nan

>  <N_constrained_atoms>  (204) 
nan

>  <N_unconstrained_atoms>  (204) 
nan

>  <runtime>  (204) 
nan

>  <regarded>  (204) 
[]

>  <disregarded>  (204) 
[]

>  <LE>  (204) 
nan

>  <outcome>  (204) 
too distant

>  <percent_hybrid>  (204) 
nan

$$$$
LIG
     RDKit          3D

 45 45  0  0  0  0  0  0  0  0999 V2000
  -18.6446  -36.4493  -24.0157 C   0  0  0  0  0  0  0  0  0  0  0  0
  -17.4780  -41.8763  -24.2657 C   0  0  0  0  0  0  0  0  0  0  0  0
  -16.0777  -42.0955  -23.7293 C   0  0  0  0  0  0  0  0  0  0  0  0
  -15.6590  -41.0648  -22.7033 C   0  0  0  0  0  0  0  0  0  0  0  0
  -17.8896  -38.7370  -26.7672 C   0  0  0  0  0  0  0  0  0  0  0  0
  -18.7492  -37.7954  -26.0480 N   0  0  0  0  0  0  0  0  0  0  0  0
  -17.8563  -37.0428  -25.1688 C   0  0  2  0  0  0  0  0  0  0  0  0
  -16.5687  -38.1744  -24.5916 S   0  0  0  0  0  0  0  0  0  0  0  0
  -17.0244  -39.5382  -25.7445 C   0  0  1  0  0  0  0  0  0  0  0  0
  -11.9746  -40.0079  -21.0651 C   0  0  0  0  0  0  0  0  0  0  0  0
  -12.4894  -39.2476  -22.2045 N   0  0  0  0  0  0  0  0  0  0  0  0
  -13.9199  -39.3834  -22.2690 N   0  0  0  0  0  0  0  0  0  0  0  0
  -14.2445  -40.5979  -23.0087 C   0  0  0  0  0  0  0  0  0  0  0  0
  -17.9080  -40.5710  -24.9808 C   0  0  0  0  0  0  0  0  0  0  0  0
  -15.7890  -40.0576  -26.4939 C   0  0  0  0  0  0  0  0  0  0  0  0
  -16.0464  -40.9517  -27.6089 N   0  0  0  0  0  0  0  0  0  0  0  0
  -16.3380  -42.3007  -27.2165 C   0  0  0  0  0  0  0  0  0  0  0  0
  -19.1482  -37.2205  -23.4207 H   0  0  0  0  0  0  0  0  0  0  0  0
  -17.9934  -35.8761  -23.3463 H   0  0  0  0  0  0  0  0  0  0  0  0
  -19.4150  -35.7631  -24.3860 H   0  0  0  0  0  0  0  0  0  0  0  0
  -17.7238  -42.7328  -24.9031 H   0  0  0  0  0  0  0  0  0  0  0  0
  -18.1691  -42.0014  -23.4184 H   0  0  0  0  0  0  0  0  0  0  0  0
  -15.3526  -42.1721  -24.5370 H   0  0  0  0  0  0  0  0  0  0  0  0
  -16.0532  -43.0831  -23.2484 H   0  0  0  0  0  0  0  0  0  0  0  0
  -16.3553  -40.2236  -22.6727 H   0  0  0  0  0  0  0  0  0  0  0  0
  -15.6912  -41.5063  -21.6986 H   0  0  0  0  0  0  0  0  0  0  0  0
  -18.5123  -39.4086  -27.3697 H   0  0  0  0  0  0  0  0  0  0  0  0
  -17.2620  -38.1796  -27.4768 H   0  0  0  0  0  0  0  0  0  0  0  0
  -19.2071  -37.1455  -26.6767 H   0  0  0  0  0  0  0  0  0  0  0  0
  -17.3679  -36.2393  -25.7323 H   0  0  0  0  0  0  0  0  0  0  0  0
  -12.1381  -41.0851  -21.1638 H   0  0  0  0  0  0  0  0  0  0  0  0
  -10.8929  -39.8545  -20.9956 H   0  0  0  0  0  0  0  0  0  0  0  0
  -12.4140  -39.6660  -20.1214 H   0  0  0  0  0  0  0  0  0  0  0  0
  -12.2191  -38.2658  -22.0871 H   0  0  0  0  0  0  0  0  0  0  0  0
  -14.3648  -39.3987  -21.3479 H   0  0  0  0  0  0  0  0  0  0  0  0
  -14.0971  -40.3881  -24.0669 H   0  0  0  0  0  0  0  0  0  0  0  0
  -13.5903  -41.4305  -22.7398 H   0  0  0  0  0  0  0  0  0  0  0  0
  -18.6742  -40.9102  -25.6953 H   0  0  0  0  0  0  0  0  0  0  0  0
  -18.5129  -40.0208  -24.2430 H   0  0  0  0  0  0  0  0  0  0  0  0
  -15.0691  -40.5196  -25.8235 H   0  0  0  0  0  0  0  0  0  0  0  0
  -15.2428  -39.2016  -26.9099 H   0  0  0  0  0  0  0  0  0  0  0  0
  -16.6389  -40.5488  -28.3259 H   0  0  0  0  0  0  0  0  0  0  0  0
  -15.6691  -42.6837  -26.4520 H   0  0  0  0  0  0  0  0  0  0  0  0
  -17.3650  -42.4145  -26.8838 H   0  0  0  0  0  0  0  0  0  0  0  0
  -16.1893  -42.9382  -28.0831 H   0  0  0  0  0  0  0  0  0  0  0  0
  2  3  1  0
  3  4  1  0
  5  6  1  0
  5  9  1  0
  6  7  1  0
  7  1  1  0
  7  8  1  0
  8  9  1  0
 10 11  1  0
 11 12  1  0
 12 13  1  0
 15 16  1  0
 16 17  1  0
  2 14  1  0
  4 13  1  0
  9 14  1  1
  9 15  1  0
  1 18  1  0
  1 19  1  0
  1 20  1  0
  2 21  1  0
  2 22  1  0
  3 23  1  0
  3 24  1  0
  4 25  1  0
  4 26  1  0
  5 27  1  0
  5 28  1  0
  6 29  1  0
  7 30  1  6
 10 31  1  0
 10 32  1  0
 10 33  1  0
 11 34  1  0
 12 35  1  0
 13 36  1  0
 13 37  1  0
 14 38  1  0
 14 39  1  0
 15 40  1  0
 15 41  1  0
 16 42  1  0
 17 43  1  0
 17 44  1  0
 17 45  1  0
M  END
>  <smiles>  (205) 
[H]N(N([H])C([H])([H])C([H])([H])C([H])([H])C([H])([H])C([H])([H])[C@]1(C([H])([H])N([H])C([H])([H])[H])S[C@]([H])(C([H])([H])[H])N([H])C1([H])[H])C([H])([H])[H]

>  <error>  (205) 


>  <∆∆G>  (205) 
-11.473995

>  <∆G_bound>  (205) 
360.846839

>  <∆G_unbound>  (205) 
372.320834

>  <comRMSD>  (205) 
1.15715

>  <N_constrained_atoms>  (205) 
17.0

>  <N_unconstrained_atoms>  (205) 
0.0

>  <runtime>  (205) 
4.719404

>  <regarded>  (205) 
['d0615b', 'd0160a']

>  <disregarded>  (205) 
[]

>  <LE>  (205) 
0.674941

>  <outcome>  (205) 
too moved

>  <percent_hybrid>  (205) 
48.0

$$$$
LIG
     RDKit          3D

 25 26  0  0  0  0  0  0  0  0999 V2000
  -18.6746  -43.9880  -24.9042 F   0  0  0  0  0  0  0  0  0  0  0  0
  -14.9926  -40.8722  -24.9318 N   0  0  0  0  0  0  0  0  0  0  0  0
  -15.3544  -40.1509  -26.1502 C   0  0  0  0  0  0  0  0  0  0  0  0
  -18.8990  -36.4304  -24.7560 C   0  0  0  0  0  0  0  0  0  0  0  0
  -17.6239  -43.4135  -24.3029 C   0  0  0  0  0  0  0  0  0  0  0  0
  -16.8920  -42.4346  -24.9671 C   0  0  0  0  0  0  0  0  0  0  0  0
  -15.8109  -41.8231  -24.3337 C   0  0  0  0  0  0  0  0  0  0  0  0
  -15.4940  -42.3195  -23.0593 C   0  0  0  0  0  0  0  0  0  0  0  0
  -16.1917  -43.2684  -22.3824 N   0  0  0  0  0  0  0  0  0  0  0  0
  -17.2513  -43.7946  -23.0280 C   0  0  0  0  0  0  0  0  0  0  0  0
  -17.4637  -38.9064  -27.0067 C   0  0  0  0  0  0  0  0  0  0  0  0
  -18.4006  -37.9478  -26.6621 N   0  0  0  0  0  0  0  0  0  0  0  0
  -18.1209  -37.4866  -25.4594 C   0  0  0  0  0  0  0  0  0  0  0  0
  -16.7484  -38.1821  -24.6921 S   0  0  0  0  0  0  0  0  0  0  0  0
  -16.4970  -39.1846  -26.0598 C   0  0  0  0  0  0  0  0  0  0  0  0
  -14.5060  -40.2790  -24.2663 H   0  0  0  0  0  0  0  0  0  0  0  0
  -14.4689  -39.5873  -26.4703 H   0  0  0  0  0  0  0  0  0  0  0  0
  -15.5413  -40.8697  -26.9581 H   0  0  0  0  0  0  0  0  0  0  0  0
  -19.3239  -36.8156  -23.8237 H   0  0  0  0  0  0  0  0  0  0  0  0
  -18.2662  -35.5673  -24.5262 H   0  0  0  0  0  0  0  0  0  0  0  0
  -19.7252  -36.0835  -25.3852 H   0  0  0  0  0  0  0  0  0  0  0  0
  -17.1908  -42.1698  -25.9731 H   0  0  0  0  0  0  0  0  0  0  0  0
  -14.6251  -41.9458  -22.5223 H   0  0  0  0  0  0  0  0  0  0  0  0
  -17.8039  -44.5569  -22.4898 H   0  0  0  0  0  0  0  0  0  0  0  0
  -17.5265  -39.3762  -27.9806 H   0  0  0  0  0  0  0  0  0  0  0  0
  3  2  1  0
  5 10  2  0
  5  1  1  0
  5  6  1  0
  6  7  2  0
  7  2  1  0
  7  8  1  0
  8  9  2  0
  9 10  1  0
 11 12  1  0
 11 15  2  0
 12 13  2  0
 13  4  1  0
 13 14  1  0
 14 15  1  0
 15  3  1  0
  2 16  1  0
  3 17  1  0
  3 18  1  0
  4 19  1  0
  4 20  1  0
  4 21  1  0
  6 22  1  0
  8 23  1  0
 10 24  1  0
 11 25  1  0
M  END
>  <smiles>  (206) 
[H]c1nc(C([H])([H])[H])sc1C([H])([H])N([H])c1c([H])nc([H])c(F)c1[H]

>  <error>  (206) 


>  <∆∆G>  (206) 
-66.200207

>  <∆G_bound>  (206) 
329.275207

>  <∆G_unbound>  (206) 
395.475414

>  <comRMSD>  (206) 
0.231409

>  <N_constrained_atoms>  (206) 
15.0

>  <N_unconstrained_atoms>  (206) 
0.0

>  <runtime>  (206) 
0.607261

>  <regarded>  (206) 
['d0615b', 'd0191a']

>  <disregarded>  (206) 
[]

>  <LE>  (206) 
4.413347

>  <outcome>  (206) 
equally sized

>  <percent_hybrid>  (206) 
0.0

$$$$
LIG
     RDKit          3D

 39 41  0  0  0  0  0  0  0  0999 V2000
  -17.9504  -44.2481  -23.1631 N   0  0  0  0  0  0  0  0  0  0  0  0
  -14.9527  -40.9812  -25.3466 N   0  0  0  0  0  0  0  0  0  0  0  0
  -15.7295  -40.5055  -26.4906 C   0  0  0  0  0  0  0  0  0  0  0  0
  -18.6413  -36.3391  -24.8425 C   0  0  0  0  0  0  0  0  0  0  0  0
  -17.2917  -45.0773  -22.3944 C   0  0  0  0  0  0  0  0  0  0  0  0
  -17.2297  -43.0335  -23.2462 C   0  0  0  0  0  0  0  0  0  0  0  0
  -16.5497  -42.5925  -24.3790 C   0  0  0  0  0  0  0  0  0  0  0  0
  -15.6583  -41.5165  -24.2645 C   0  0  0  0  0  0  0  0  0  0  0  0
  -15.4760  -40.9687  -22.9888 C   0  0  0  0  0  0  0  0  0  0  0  0
  -16.1684  -41.3137  -21.8890 N   0  0  0  0  0  0  0  0  0  0  0  0
  -17.0535  -42.3061  -22.0620 C   0  0  0  0  0  0  0  0  0  0  0  0
  -17.7948  -39.0696  -27.0934 C   0  0  0  0  0  0  0  0  0  0  0  0
  -18.5644  -37.9899  -26.7008 N   0  0  0  0  0  0  0  0  0  0  0  0
  -18.0608  -37.4876  -25.5915 C   0  0  0  0  0  0  0  0  0  0  0  0
  -16.6317  -38.2462  -25.0135 S   0  0  0  0  0  0  0  0  0  0  0  0
  -16.7149  -39.3862  -26.2911 C   0  0  0  0  0  0  0  0  0  0  0  0
  -16.7861  -46.7702  -20.8688 O   0  0  0  0  0  0  0  0  0  0  0  0
  -16.9025  -46.2287  -19.5438 C   0  0  0  0  0  0  0  0  0  0  0  0
  -18.1941  -45.4434  -19.4736 C   0  0  0  0  0  0  0  0  0  0  0  0
  -18.9606  -45.9004  -20.6934 C   0  0  0  0  0  0  0  0  0  0  0  0
  -17.8726  -46.2743  -21.6804 C   0  0  1  0  0  0  0  0  0  0  0  0
  -14.2840  -40.2665  -25.0667 H   0  0  0  0  0  0  0  0  0  0  0  0
  -15.0080  -40.1693  -27.2447 H   0  0  0  0  0  0  0  0  0  0  0  0
  -16.2480  -41.3569  -26.9508 H   0  0  0  0  0  0  0  0  0  0  0  0
  -18.9330  -36.6414  -23.8318 H   0  0  0  0  0  0  0  0  0  0  0  0
  -17.9226  -35.5165  -24.7721 H   0  0  0  0  0  0  0  0  0  0  0  0
  -19.5337  -35.9633  -25.3535 H   0  0  0  0  0  0  0  0  0  0  0  0
  -16.2258  -44.8761  -22.1499 H   0  0  0  0  0  0  0  0  0  0  0  0
  -16.6574  -43.1264  -25.3161 H   0  0  0  0  0  0  0  0  0  0  0  0
  -14.7637  -40.1640  -22.8278 H   0  0  0  0  0  0  0  0  0  0  0  0
  -17.6022  -42.5752  -21.1638 H   0  0  0  0  0  0  0  0  0  0  0  0
  -18.0689  -39.6070  -27.9915 H   0  0  0  0  0  0  0  0  0  0  0  0
  -16.8868  -47.0596  -18.8344 H   0  0  0  0  0  0  0  0  0  0  0  0
  -16.0321  -45.5974  -19.3387 H   0  0  0  0  0  0  0  0  0  0  0  0
  -18.7368  -45.6070  -18.5380 H   0  0  0  0  0  0  0  0  0  0  0  0
  -17.9792  -44.3713  -19.5405 H   0  0  0  0  0  0  0  0  0  0  0  0
  -19.5352  -46.7964  -20.4328 H   0  0  0  0  0  0  0  0  0  0  0  0
  -19.6576  -45.1426  -21.0621 H   0  0  0  0  0  0  0  0  0  0  0  0
  -18.1829  -47.0262  -22.4095 H   0  0  0  0  0  0  0  0  0  0  0  0
  3  2  1  0
  5  1  2  0
  6 11  1  0
  6  1  1  0
  6  7  2  0
  7  8  1  0
  8  2  1  0
  8  9  2  0
  9 10  1  0
 10 11  2  0
 12 13  1  0
 12 16  2  0
 13 14  2  0
 14  4  1  0
 14 15  1  0
 15 16  1  0
 16  3  1  0
 17 18  1  0
 17 21  1  0
 18 19  1  0
 19 20  1  0
 20 21  1  0
 21  5  1  0
  2 22  1  0
  3 23  1  0
  3 24  1  0
  4 25  1  0
  4 26  1  0
  4 27  1  0
  5 28  1  0
  7 29  1  0
  9 30  1  0
 11 31  1  0
 12 32  1  0
 18 33  1  0
 18 34  1  0
 19 35  1  0
 19 36  1  0
 20 37  1  0
 20 38  1  0
 21 39  1  6
M  END
>  <smiles>  (207) 
[H]/C(=N\c1c([H])nc([H])c(N([H])C([H])([H])c2sc(C([H])([H])[H])nc2[H])c1[H])[C@@]1([H])OC([H])([H])C([H])([H])C1([H])[H]

>  <error>  (207) 


>  <∆∆G>  (207) 
-37.247267

>  <∆G_bound>  (207) 
227.863477

>  <∆G_unbound>  (207) 
265.110743

>  <comRMSD>  (207) 
0.982021

>  <N_constrained_atoms>  (207) 
21.0

>  <N_unconstrained_atoms>  (207) 
0.0

>  <runtime>  (207) 
1.221198

>  <regarded>  (207) 
['d0615b', 'd0254a']

>  <disregarded>  (207) 
[]

>  <LE>  (207) 
1.773679

>  <outcome>  (207) 
acceptable

>  <percent_hybrid>  (207) 
29.0

$$$$
LIG
     RDKit          3D

  0  0  0  0  0  0  0  0  0  0999 V3000
M  V30 BEGIN CTAB
M  V30 COUNTS 59 61 0 0 0
M  V30 BEGIN ATOM
M  V30 1 F -18.671000 -43.808998 -24.667000 0
M  V30 2 N -14.914000 -40.875000 -24.797001 0
M  V30 3 C -15.278000 -40.210999 -26.035999 0
M  V30 4 C -18.740000 -36.407001 -24.548000 0
M  V30 5 C -17.525000 -43.327000 -24.115999 0
M  V30 6 C -16.809000 -42.383999 -24.802999 0
M  V30 7 C -15.659000 -41.882999 -24.202999 0
M  V30 8 C -15.299000 -42.398998 -22.957001 0
M  V30 9 N -16.009001 -43.330002 -22.305000 0
M  V30 10 C -17.125000 -43.785000 -22.886000 0
M  V30 11 C -17.368999 -38.930000 -26.771000 0
M  V30 12 N -18.275000 -37.955002 -26.407000 0
M  V30 13 C -17.968000 -37.487000 -25.233000 0
M  V30 14 S -16.566000 -38.206001 -24.499001 0
M  V30 15 C -16.382999 -39.214001 -25.896000 0
M  V30 16 O -23.164000 -45.938000 -18.049000 0
M  V30 17 C -22.246000 -46.016998 -17.236000 0
M  V30 18 C -22.204000 -47.136002 -16.188999 0
M  V30 19 C -23.259001 -46.889000 -15.112000 0
M  V30 20 C -22.391001 -48.480999 -16.875999 0
M  V30 21 N -21.222000 -45.154999 -17.212000 0
M  V30 22 C -21.018999 -44.181000 -18.270000 0 CFG=1
M  V30 23 C -20.471001 -42.877998 -17.697001 0
M  V30 24 C -20.379999 -43.105999 -21.250999 0
M  V30 25 C -17.607000 -47.167999 -21.084000 0
M  V30 26 C -20.124001 -44.757999 -19.327999 0
M  V30 27 S -19.247999 -46.223999 -19.002001 0
M  V30 28 C -18.566000 -46.140999 -20.593000 0
M  V30 29 C -18.959000 -45.118000 -21.297001 0
M  V30 30 C -19.841000 -44.330002 -20.590000 0
M  V30 31 N -18.042000 -44.451500 -22.091499 0
M  V30 32 H -14.045981 -40.578121 -24.328699 0
M  V30 33 H -14.389636 -39.689297 -26.421532 0
M  V30 34 H -15.642880 -40.993107 -26.718033 0
M  V30 35 H -18.652939 -36.528793 -23.458237 0
M  V30 36 H -18.337093 -35.426186 -24.840683 0
M  V30 37 H -19.798428 -36.470768 -24.840683 0
M  V30 38 H -17.132032 -42.034840 -25.794834 0
M  V30 39 H -14.381091 -42.020233 -22.483734 0
M  V30 40 H -17.447775 -39.453907 -27.735010 0
M  V30 41 H -21.224400 -47.145100 -15.688701 0
M  V30 42 H -22.800341 -46.996384 -14.117969 0
M  V30 43 H -23.663401 -45.871887 -15.221285 0
M  V30 44 H -24.072884 -47.620884 -15.221285 0
M  V30 45 H -22.500528 -49.268772 -16.116119 0
M  V30 46 H -23.293409 -48.449520 -17.504227 0
M  V30 47 H -21.514233 -48.696888 -17.504227 0
M  V30 48 H -20.560917 -45.183292 -16.422653 0
M  V30 49 H -21.983677 -43.943588 -18.742264 0
M  V30 50 H -20.490307 -42.923904 -16.598129 0
M  V30 51 H -19.435837 -42.733383 -18.039818 0
M  V30 52 H -21.091650 -42.037003 -18.039818 0
M  V30 53 H -20.697660 -42.384628 -20.483721 0
M  V30 54 H -19.597904 -42.653469 -21.878328 0
M  V30 55 H -21.241858 -43.377396 -21.878328 0
M  V30 56 H -17.137276 -47.671032 -20.225910 0
M  V30 57 H -18.143948 -47.908951 -21.694473 0
M  V30 58 H -16.831057 -46.682991 -21.694473 0
M  V30 59 H -16.962000 -43.371498 -21.011499 0
M  V30 END ATOM
M  V30 BEGIN BOND
M  V30 1 1 3 2
M  V30 2 2 5 10
M  V30 3 1 5 1
M  V30 4 1 5 6
M  V30 5 2 6 7
M  V30 6 1 7 2
M  V30 7 1 7 8
M  V30 8 2 8 9
M  V30 9 1 9 10
M  V30 10 1 11 12
M  V30 11 2 11 15
M  V30 12 2 12 13
M  V30 13 1 13 4
M  V30 14 1 13 14
M  V30 15 1 14 15
M  V30 16 1 15 3
M  V30 17 1 20 18
M  V30 18 1 19 18
M  V30 19 1 18 17
M  V30 20 2 17 16
M  V30 21 1 21 17
M  V30 22 1 22 21
M  V30 23 1 22 23
M  V30 24 1 26 22
M  V30 25 1 26 27
M  V30 26 2 26 30
M  V30 27 1 27 28
M  V30 28 1 28 25
M  V30 29 2 28 29
M  V30 30 1 29 30
M  V30 31 1 30 24
M  V30 32 1 31 10
M  V30 33 1 31 29
M  V30 34 1 2 32
M  V30 35 1 3 33
M  V30 36 1 3 34
M  V30 37 1 4 35
M  V30 38 1 4 36
M  V30 39 1 4 37
M  V30 40 1 6 38
M  V30 41 1 8 39
M  V30 42 1 11 40
M  V30 43 1 18 41
M  V30 44 1 19 42
M  V30 45 1 19 43
M  V30 46 1 19 44
M  V30 47 1 20 45
M  V30 48 1 20 46
M  V30 49 1 20 47
M  V30 50 1 21 48
M  V30 51 1 22 49 CFG=3
M  V30 52 1 23 50
M  V30 53 1 23 51
M  V30 54 1 23 52
M  V30 55 1 24 53
M  V30 56 1 24 54
M  V30 57 1 24 55
M  V30 58 1 25 56
M  V30 59 1 25 57
M  V30 60 1 25 58
M  V30 61 1 31 59
M  V30 END BOND
M  V30 BEGIN COLLECTION
M  V30 MDLV30/STEABS ATOMS=(0)
M  V30 END COLLECTION
M  V30 END CTAB
M  END
>  <smiles>  (208) 
[H]c1nc(C([H])([H])[H])sc1C([H])([H])N([H])c1c([H])nc(N([H])c2c(C([H])([H])[H])sc([C@@]([H])(N([H])C(=O)C([H])(C([H])([H])[H])C([H])([H])[H])C([H])([H])[H])c2C([H])([H])[H])c(F)c1[H]

>  <error>  (208) 


>  <∆∆G>  (208) 
nan

>  <∆G_bound>  (208) 
nan

>  <∆G_unbound>  (208) 
nan

>  <comRMSD>  (208) 
0.0

>  <N_constrained_atoms>  (208) 
30.0

>  <N_unconstrained_atoms>  (208) 
1.0

>  <runtime>  (208) 
2.08253

>  <regarded>  (208) 
['d0615b', 'd0264a']

>  <disregarded>  (208) 
[]

>  <LE>  (208) 
nan

>  <outcome>  (208) 
crashed

>  <percent_hybrid>  (208) 
50.0

$$$$
LIG
     RDKit          3D

 52 55  0  0  0  0  0  0  0  0999 V2000
  -17.8164  -44.2071  -23.9922 F   0  0  0  0  0  0  0  0  0  0  0  0
  -15.8340  -40.1570  -23.8119 N   0  0  0  0  0  0  0  0  0  0  0  0
  -15.4726  -39.5955  -25.1208 C   0  0  0  0  0  0  0  0  0  0  0  0
  -19.2568  -35.9199  -25.1855 C   0  0  0  0  0  0  0  0  0  0  0  0
  -16.6002  -43.7761  -24.4127 C   0  0  1  0  0  0  0  0  0  0  0  0
  -16.6653  -42.2862  -24.6188 C   0  0  0  0  0  0  0  0  0  0  0  0
  -15.6766  -41.5892  -23.6952 C   0  0  2  0  0  0  0  0  0  0  0  0
  -15.9402  -42.1289  -22.2501 C   0  0  0  0  0  0  0  0  0  0  0  0
  -15.3149  -43.5484  -22.1166 C   0  0  2  0  0  0  0  0  0  0  0  0
  -15.4757  -44.2655  -23.4875 C   0  0  0  0  0  0  0  0  0  0  0  0
  -17.3749  -38.6722  -26.6463 C   0  0  0  0  0  0  0  0  0  0  0  0
  -18.3899  -37.7261  -26.6615 N   0  0  0  0  0  0  0  0  0  0  0  0
  -18.3058  -36.9936  -25.5689 C   0  0  0  0  0  0  0  0  0  0  0  0
  -16.9844  -37.3318  -24.5339 S   0  0  0  0  0  0  0  0  0  0  0  0
  -16.5556  -38.6580  -25.5341 C   0  0  0  0  0  0  0  0  0  0  0  0
  -15.7482  -44.5194  -20.9707 C   0  0  1  0  0  0  0  0  0  0  0  0
  -15.6082  -43.9504  -19.6247 N   0  0  0  0  0  0  0  0  0  0  0  0
  -14.1894  -43.7763  -19.3257 C   0  0  0  0  0  0  0  0  0  0  0  0
  -13.5181  -42.8787  -20.3520 C   0  0  0  0  0  0  0  0  0  0  0  0
  -13.7978  -43.3306  -21.7932 C   0  0  0  0  0  0  0  0  0  0  0  0
  -18.2641  -44.5810  -20.9781 C   0  0  0  0  0  0  0  0  0  0  0  0
  -19.2162  -45.5612  -21.1170 C   0  0  0  0  0  0  0  0  0  0  0  0
  -18.5541  -46.7990  -21.2570 C   0  0  0  0  0  0  0  0  0  0  0  0
  -17.2088  -46.5421  -21.1520 C   0  0  0  0  0  0  0  0  0  0  0  0
  -17.0424  -45.1768  -21.0508 N   0  0  0  0  0  0  0  0  0  0  0  0
  -15.3301  -39.6631  -23.0784 H   0  0  0  0  0  0  0  0  0  0  0  0
  -14.5162  -39.0765  -25.0251 H   0  0  0  0  0  0  0  0  0  0  0  0
  -15.3175  -40.3500  -25.8985 H   0  0  0  0  0  0  0  0  0  0  0  0
  -19.6721  -36.0963  -24.1881 H   0  0  0  0  0  0  0  0  0  0  0  0
  -18.7641  -34.9424  -25.1950 H   0  0  0  0  0  0  0  0  0  0  0  0
  -20.0922  -35.8815  -25.8920 H   0  0  0  0  0  0  0  0  0  0  0  0
  -16.4442  -44.2122  -25.3970 H   0  0  0  0  0  0  0  0  0  0  0  0
  -16.4434  -42.0765  -25.6710 H   0  0  0  0  0  0  0  0  0  0  0  0
  -17.6891  -41.9300  -24.4442 H   0  0  0  0  0  0  0  0  0  0  0  0
  -14.6495  -41.8218  -23.9987 H   0  0  0  0  0  0  0  0  0  0  0  0
  -15.5271  -41.4376  -21.5091 H   0  0  0  0  0  0  0  0  0  0  0  0
  -17.0187  -42.1588  -22.0606 H   0  0  0  0  0  0  0  0  0  0  0  0
  -15.6043  -45.3348  -23.3270 H   0  0  0  0  0  0  0  0  0  0  0  0
  -14.5365  -44.1513  -24.0444 H   0  0  0  0  0  0  0  0  0  0  0  0
  -17.3000  -39.3764  -27.4662 H   0  0  0  0  0  0  0  0  0  0  0  0
  -15.0561  -45.3734  -21.0193 H   0  0  0  0  0  0  0  0  0  0  0  0
  -16.0330  -44.5806  -18.9463 H   0  0  0  0  0  0  0  0  0  0  0  0
  -14.0767  -43.3445  -18.3258 H   0  0  0  0  0  0  0  0  0  0  0  0
  -13.6896  -44.7477  -19.3202 H   0  0  0  0  0  0  0  0  0  0  0  0
  -13.8544  -41.8454  -20.2099 H   0  0  0  0  0  0  0  0  0  0  0  0
  -12.4360  -42.8701  -20.1800 H   0  0  0  0  0  0  0  0  0  0  0  0
  -13.3844  -42.5734  -22.4517 H   0  0  0  0  0  0  0  0  0  0  0  0
  -13.2500  -44.2602  -21.9853 H   0  0  0  0  0  0  0  0  0  0  0  0
  -18.3682  -43.5143  -20.8337 H   0  0  0  0  0  0  0  0  0  0  0  0
  -20.2779  -45.3709  -21.1071 H   0  0  0  0  0  0  0  0  0  0  0  0
  -19.0105  -47.7673  -21.4055 H   0  0  0  0  0  0  0  0  0  0  0  0
  -16.3636  -47.2127  -21.1885 H   0  0  0  0  0  0  0  0  0  0  0  0
  3  2  1  0
  5 10  1  0
  5  1  1  0
  5  6  1  0
  6  7  1  0
  7  2  1  0
  7  8  1  0
  9  8  1  6
  9 10  1  0
 11 12  1  0
 11 15  2  0
 12 13  2  0
 13  4  1  0
 13 14  1  0
 14 15  1  0
 15  3  1  0
 16 17  1  0
 16 25  1  0
 17 18  1  0
 18 19  1  0
 19 20  1  0
 21 22  2  0
 21 25  1  0
 22 23  1  0
 23 24  2  0
 24 25  1  0
  9 20  1  0
  9 16  1  0
  2 26  1  0
  3 27  1  0
  3 28  1  0
  4 29  1  0
  4 30  1  0
  4 31  1  0
  5 32  1  6
  6 33  1  0
  6 34  1  0
  7 35  1  6
  8 36  1  0
  8 37  1  0
 10 38  1  0
 10 39  1  0
 11 40  1  0
 16 41  1  1
 17 42  1  0
 18 43  1  0
 18 44  1  0
 19 45  1  0
 19 46  1  0
 20 47  1  0
 20 48  1  0
 21 49  1  0
 22 50  1  0
 23 51  1  0
 24 52  1  0
M  END
>  <smiles>  (209) 
[H]c1nc(C([H])([H])[H])sc1C([H])([H])N([H])[C@]1([H])C([H])([H])[C@]([H])(F)C([H])([H])[C@@]2(C([H])([H])C([H])([H])C([H])([H])N([H])[C@@]2([H])n2c([H])c([H])c([H])c2[H])C1([H])[H]

>  <error>  (209) 


>  <∆∆G>  (209) 
-60.253477

>  <∆G_bound>  (209) 
215.438757

>  <∆G_unbound>  (209) 
275.692234

>  <comRMSD>  (209) 
1.106959

>  <N_constrained_atoms>  (209) 
25.0

>  <N_unconstrained_atoms>  (209) 
0.0

>  <runtime>  (209) 
2.157053

>  <regarded>  (209) 
['d0615b', 'd0472a']

>  <disregarded>  (209) 
[]

>  <LE>  (209) 
2.410139

>  <outcome>  (209) 
too moved

>  <percent_hybrid>  (209) 
40.0

$$$$

     RDKit          2D

  0  0  0  0  0  0  0  0  0  0999 V2000
M  END
>  <smiles>  (210) 
nan

>  <error>  (210) 
FragmensteinError Ideal compound failed. Something is wrong with the SMILES

>  <∆∆G>  (210) 
nan

>  <∆G_bound>  (210) 
nan

>  <∆G_unbound>  (210) 
nan

>  <comRMSD>  (210) 
nan

>  <N_constrained_atoms>  (210) 
nan

>  <N_unconstrained_atoms>  (210) 
nan

>  <runtime>  (210) 
nan

>  <regarded>  (210) 
[]

>  <disregarded>  (210) 
[]

>  <LE>  (210) 
nan

>  <outcome>  (210) 
crashed

>  <percent_hybrid>  (210) 
nan

$$$$

     RDKit          2D

  0  0  0  0  0  0  0  0  0  0999 V2000
M  END
>  <smiles>  (211) 
nan

>  <error>  (211) 
FragmensteinError Ideal compound failed. Something is wrong with the SMILES

>  <∆∆G>  (211) 
nan

>  <∆G_bound>  (211) 
nan

>  <∆G_unbound>  (211) 
nan

>  <comRMSD>  (211) 
nan

>  <N_constrained_atoms>  (211) 
nan

>  <N_unconstrained_atoms>  (211) 
nan

>  <runtime>  (211) 
nan

>  <regarded>  (211) 
[]

>  <disregarded>  (211) 
[]

>  <LE>  (211) 
nan

>  <outcome>  (211) 
crashed

>  <percent_hybrid>  (211) 
nan

$$$$
LIG
     RDKit          3D

  0  0  0  0  0  0  0  0  0  0999 V3000
M  V30 BEGIN CTAB
M  V30 COUNTS 43 45 0 0 0
M  V30 BEGIN ATOM
M  V30 1 F -18.671000 -43.808998 -24.667000 0
M  V30 2 N -14.914000 -40.875000 -24.797001 0
M  V30 3 C -15.278000 -40.210999 -26.035999 0
M  V30 4 C -18.801001 -40.066002 -25.077000 0
M  V30 5 C -17.525000 -43.327000 -24.115999 0
M  V30 6 C -16.809000 -42.383999 -24.802999 0
M  V30 7 C -15.659000 -41.882999 -24.202999 0
M  V30 8 C -15.299000 -42.398998 -22.957001 0
M  V30 9 N -16.009001 -43.330002 -22.305000 0
M  V30 10 C -17.125000 -43.785000 -22.886000 0
M  V30 11 C -17.368999 -38.930000 -26.771000 0 CFG=1
M  V30 12 N -18.275000 -37.955002 -26.407000 0
M  V30 13 C -17.968000 -37.487000 -25.233000 0
M  V30 14 S -16.566000 -38.206001 -24.499001 0
M  V30 15 C -16.382999 -39.214001 -25.896000 0 CFG=1
M  V30 16 C -18.129000 -36.304001 -23.285000 0
M  V30 17 C -19.089001 -35.396999 -22.541000 0
M  V30 18 C -19.528999 -34.411999 -23.573999 0
M  V30 19 C -19.582001 -35.196999 -24.878000 0
M  V30 20 O -19.218000 -37.455002 -26.510000 0
M  V30 21 O -16.832001 -41.215000 -22.487000 0
M  V30 22 N -16.065500 -41.806999 -22.722000 0
M  V30 23 H -14.045981 -40.578121 -24.328699 0
M  V30 24 H -14.389636 -39.689297 -26.421532 0
M  V30 25 H -15.642880 -40.993107 -26.718033 0
M  V30 26 H -18.459414 -39.795021 -24.067104 0
M  V30 27 H -19.846014 -39.748573 -25.208092 0
M  V30 28 H -18.729643 -41.155830 -25.208092 0
M  V30 29 H -17.132032 -42.034840 -25.794834 0
M  V30 30 H -17.733498 -44.540707 -22.367695 0
M  V30 31 H -17.039551 -38.956463 -27.820173 0
M  V30 32 H -15.746675 -38.448883 -26.364710 0
M  V30 33 H -17.210314 -36.435505 -22.694473 0
M  V30 34 H -18.572840 -37.180130 -22.789619 0
M  V30 35 H -19.391558 -35.451595 -21.484838 0
M  V30 36 H -18.252964 -34.736572 -22.267363 0
M  V30 37 H -19.764292 -33.347851 -23.424904 0
M  V30 38 H -18.478930 -34.151901 -23.773256 0
M  V30 39 H -20.252802 -34.870121 -25.686193 0
M  V30 40 H -18.779331 -34.567467 -25.289598 0
M  V30 41 H -19.726065 -37.185616 -25.704147 0
M  V30 42 H -17.052710 -41.044537 -21.537088 0
M  V30 43 H -15.145500 -40.887001 -21.802000 0
M  V30 END ATOM
M  V30 BEGIN BOND
M  V30 1 1 3 2
M  V30 2 2 5 10
M  V30 3 1 5 1
M  V30 4 1 5 6
M  V30 5 2 6 7
M  V30 6 1 7 2
M  V30 7 1 7 8
M  V30 8 2 8 9
M  V30 9 1 9 10
M  V30 10 1 11 12
M  V30 11 1 11 15
M  V30 12 1 12 13
M  V30 13 1 13 14
M  V30 14 1 14 15
M  V30 15 1 15 3
M  V30 16 1 16 17
M  V30 17 1 17 18
M  V30 18 1 18 19
M  V30 19 1 13 16
M  V30 20 1 13 19
M  V30 21 1 4 11
M  V30 22 1 12 20
M  V30 23 1 22 8
M  V30 24 1 22 21
M  V30 25 1 2 23
M  V30 26 1 3 24
M  V30 27 1 3 25
M  V30 28 1 4 26
M  V30 29 1 4 27
M  V30 30 1 4 28
M  V30 31 1 6 29
M  V30 32 1 10 30
M  V30 33 1 11 31 CFG=3
M  V30 34 1 15 32 CFG=3
M  V30 35 1 16 33
M  V30 36 1 16 34
M  V30 37 1 17 35
M  V30 38 1 17 36
M  V30 39 1 18 37
M  V30 40 1 18 38
M  V30 41 1 19 39
M  V30 42 1 19 40
M  V30 43 1 20 41
M  V30 44 1 21 42
M  V30 45 1 22 43
M  V30 END BOND
M  V30 BEGIN COLLECTION
M  V30 MDLV30/STEABS ATOMS=(0)
M  V30 END COLLECTION
M  V30 END CTAB
M  END
>  <smiles>  (212) 
[H]ON([H])c1nc([H])c(F)c([H])c1N([H])C([H])([H])[C@]1([H])SC2(N(O[H])[C@]1([H])C([H])([H])[H])C([H])([H])C([H])([H])C([H])([H])C2([H])[H]

>  <error>  (212) 


>  <∆∆G>  (212) 
nan

>  <∆G_bound>  (212) 
nan

>  <∆G_unbound>  (212) 
nan

>  <comRMSD>  (212) 
0.0

>  <N_constrained_atoms>  (212) 
21.0

>  <N_unconstrained_atoms>  (212) 
1.0

>  <runtime>  (212) 
1.127486

>  <regarded>  (212) 
['d0615b', 'd0866a']

>  <disregarded>  (212) 
[]

>  <LE>  (212) 
nan

>  <outcome>  (212) 
crashed

>  <percent_hybrid>  (212) 
34.0

$$$$
LIG
     RDKit          3D

  0  0  0  0  0  0  0  0  0  0999 V3000
M  V30 BEGIN CTAB
M  V30 COUNTS 61 65 0 0 0
M  V30 BEGIN ATOM
M  V30 1 F -18.671000 -43.808998 -24.667000 0
M  V30 2 N -14.914000 -40.875000 -24.797001 0
M  V30 3 C -15.278000 -40.210999 -26.035999 0
M  V30 4 C -18.740000 -36.407001 -24.548000 0
M  V30 5 C -17.525000 -43.327000 -24.115999 0
M  V30 6 C -16.809000 -42.383999 -24.802999 0
M  V30 7 C -15.659000 -41.882999 -24.202999 0
M  V30 8 C -15.299000 -42.398998 -22.957001 0
M  V30 9 N -16.009001 -43.330002 -22.305000 0
M  V30 10 C -17.125000 -43.785000 -22.886000 0
M  V30 11 C -17.368999 -38.930000 -26.771000 0
M  V30 12 N -18.275000 -37.955002 -26.407000 0
M  V30 13 C -17.968000 -37.487000 -25.233000 0
M  V30 14 S -16.566000 -38.206001 -24.499001 0
M  V30 15 C -16.382999 -39.214001 -25.896000 0
M  V30 16 O -11.370000 -32.450001 -20.969999 0
M  V30 17 C -11.950000 -33.465000 -20.601000 0
M  V30 18 C -13.292000 -33.436001 -19.997999 0
M  V30 19 C -13.877000 -34.640999 -19.552999 0
M  V30 20 N -13.139000 -35.812000 -19.618000 0
M  V30 21 C -12.110000 -35.952000 -20.645000 0 CFG=1
M  V30 22 N -11.382000 -34.679001 -20.705000 0
M  V30 23 C -13.994000 -32.241001 -19.871000 0
M  V30 24 C -15.168000 -34.624001 -19.025000 0
M  V30 25 C -15.853000 -33.424000 -18.921000 0
M  V30 26 C -15.268000 -32.243000 -19.333000 0
M  V30 27 C -11.190000 -37.138000 -20.316999 0
M  V30 28 C -11.152000 -37.980999 -21.587999 0
M  V30 29 C -12.451000 -37.754002 -22.233000 0 CFG=1
M  V30 30 C -12.749000 -36.279999 -22.002001 0
M  V30 31 C -14.298250 -40.094749 -24.156000 0
M  V30 32 C -13.682500 -39.314499 -23.514999 0
M  V30 33 C -13.066750 -38.534252 -22.874001 0
M  V30 34 H -14.389636 -39.689297 -26.421532 0
M  V30 35 H -15.642880 -40.993107 -26.718033 0
M  V30 36 H -18.652939 -36.528793 -23.458237 0
M  V30 37 H -18.337093 -35.426186 -24.840683 0
M  V30 38 H -19.798428 -36.470768 -24.840683 0
M  V30 39 H -17.132032 -42.034840 -25.794834 0
M  V30 40 H -14.381091 -42.020233 -22.483734 0
M  V30 41 H -17.733498 -44.540707 -22.367695 0
M  V30 42 H -17.447775 -39.453907 -27.735010 0
M  V30 43 H -13.314224 -36.575504 -18.949228 0
M  V30 44 H -10.361188 -34.718678 -20.836409 0
M  V30 45 H -13.535987 -31.295929 -20.198202 0
M  V30 46 H -15.640623 -35.559937 -18.692352 0
M  V30 47 H -16.871866 -33.412075 -18.506548 0
M  V30 48 H -15.819530 -31.296577 -19.232512 0
M  V30 49 H -10.669828 -37.336834 -19.368376 0
M  V30 50 H -12.057853 -37.712925 -19.961624 0
M  V30 51 H -10.330162 -38.619820 -21.943655 0
M  V30 52 H -11.575160 -38.832932 -21.035601 0
M  V30 53 H -12.962158 -38.004837 -21.291830 0
M  V30 54 H -13.302277 -35.597340 -22.663710 0
M  V30 55 H -11.810613 -36.010841 -22.508938 0
M  V30 56 H -13.248250 -39.044750 -23.106001 0
M  V30 57 H -13.238250 -39.034752 -23.096001 0
M  V30 58 H -12.612500 -38.244499 -22.445000 0
M  V30 59 H -12.602500 -38.234501 -22.434999 0
M  V30 60 H -11.976750 -37.444252 -21.784000 0
M  V30 61 H -11.966750 -37.434250 -21.774000 0
M  V30 END ATOM
M  V30 BEGIN BOND
M  V30 1 1 3 2
M  V30 2 2 5 10
M  V30 3 1 5 1
M  V30 4 1 5 6
M  V30 5 2 6 7
M  V30 6 1 7 2
M  V30 7 1 7 8
M  V30 8 2 8 9
M  V30 9 1 9 10
M  V30 10 1 11 12
M  V30 11 2 11 15
M  V30 12 2 12 13
M  V30 13 1 13 4
M  V30 14 1 13 14
M  V30 15 1 14 15
M  V30 16 1 15 3
M  V30 17 2 17 16
M  V30 18 1 17 22
M  V30 19 1 17 18
M  V30 20 2 18 23
M  V30 21 1 18 19
M  V30 22 1 19 20
M  V30 23 2 19 24
M  V30 24 1 21 20 CFG=1
M  V30 25 1 21 22
M  V30 26 1 21 30
M  V30 27 1 21 27
M  V30 28 1 23 26
M  V30 29 1 24 25
M  V30 30 2 25 26
M  V30 31 1 27 28
M  V30 32 1 28 29
M  V30 33 1 29 30
M  V30 34 1 31 2
M  V30 35 1 32 31
M  V30 36 1 33 32
M  V30 37 1 33 29
M  V30 38 1 3 34
M  V30 39 1 3 35
M  V30 40 1 4 36
M  V30 41 1 4 37
M  V30 42 1 4 38
M  V30 43 1 6 39
M  V30 44 1 8 40
M  V30 45 1 10 41
M  V30 46 1 11 42
M  V30 47 1 20 43
M  V30 48 1 22 44
M  V30 49 1 23 45
M  V30 50 1 24 46
M  V30 51 1 25 47
M  V30 52 1 26 48
M  V30 53 1 27 49
M  V30 54 1 27 50
M  V30 55 1 28 51
M  V30 56 1 28 52
M  V30 57 1 29 53 CFG=1
M  V30 58 1 30 54
M  V30 59 1 30 55
M  V30 60 1 31 56
M  V30 61 1 31 57
M  V30 62 1 32 58
M  V30 63 1 32 59
M  V30 64 1 33 60
M  V30 65 1 33 61
M  V30 END BOND
M  V30 BEGIN COLLECTION
M  V30 MDLV30/STEABS ATOMS=(0)
M  V30 END COLLECTION
M  V30 END CTAB
M  END
>  <smiles>  (213) 
[H]c1nc(C([H])([H])[H])sc1C([H])([H])N(c1c([H])nc([H])c(F)c1[H])C([H])([H])C([H])([H])C([H])([H])[C@@]1([H])C([H])([H])C([H])([H])[C@@]2(N([H])C(=O)c3c([H])c([H])c([H])c([H])c3N2[H])C1([H])[H]

>  <error>  (213) 


>  <∆∆G>  (213) 
nan

>  <∆G_bound>  (213) 
nan

>  <∆G_unbound>  (213) 
nan

>  <comRMSD>  (213) 
0.0

>  <N_constrained_atoms>  (213) 
30.0

>  <N_unconstrained_atoms>  (213) 
3.0

>  <runtime>  (213) 
1.906914

>  <regarded>  (213) 
['d0615b', 'd1196a']

>  <disregarded>  (213) 
[]

>  <LE>  (213) 
nan

>  <outcome>  (213) 
crashed

>  <percent_hybrid>  (213) 
50.0

$$$$
LIG
     RDKit          3D

 52 54  0  0  0  0  0  0  0  0999 V2000
  -18.5543  -44.0355  -24.8215 F   0  0  0  0  0  0  0  0  0  0  0  0
  -14.9787  -40.8081  -24.9957 N   0  0  0  0  0  0  0  0  0  0  0  0
  -15.3953  -40.1337  -26.2225 C   0  0  0  0  0  0  0  0  0  0  0  0
  -18.9134  -36.4081  -24.7757 C   0  0  0  0  0  0  0  0  0  0  0  0
  -17.5394  -43.3941  -24.2237 C   0  0  0  0  0  0  0  0  0  0  0  0
  -16.8209  -42.4410  -24.9440 C   0  0  0  0  0  0  0  0  0  0  0  0
  -15.7793  -41.7378  -24.3397 C   0  0  0  0  0  0  0  0  0  0  0  0
  -15.4422  -42.0826  -23.0203 C   0  0  0  0  0  0  0  0  0  0  0  0
  -16.1601  -43.0434  -22.2868 C   0  0  0  0  0  0  0  0  0  0  0  0
  -17.2241  -43.7000  -22.9043 C   0  0  0  0  0  0  0  0  0  0  0  0
  -17.5292  -38.9039  -27.0365 C   0  0  0  0  0  0  0  0  0  0  0  0
  -18.4562  -37.9396  -26.6812 N   0  0  0  0  0  0  0  0  0  0  0  0
  -18.1490  -37.4673  -25.4895 C   0  0  0  0  0  0  0  0  0  0  0  0
  -16.7553  -38.1502  -24.7505 S   0  0  0  0  0  0  0  0  0  0  0  0
  -16.5371  -39.1684  -26.1130 C   0  0  0  0  0  0  0  0  0  0  0  0
  -13.9724  -44.2665  -19.4511 O   0  0  0  0  0  0  0  0  0  0  0  0
  -13.2137  -43.0943  -19.1091 C   0  0  0  0  0  0  0  0  0  0  0  0
  -12.6387  -43.1938  -17.6888 C   0  0  0  0  0  0  0  0  0  0  0  0
  -13.5641  -43.0448  -16.5620 N   0  0  0  0  0  0  0  0  0  0  0  0
  -14.9183  -43.5824  -16.7274 C   0  0  0  0  0  0  0  0  0  0  0  0
  -15.7576  -43.1123  -15.5334 C   0  0  0  0  0  0  0  0  0  0  0  0
  -15.2471  -43.6547  -14.3111 O   0  0  0  0  0  0  0  0  0  0  0  0
  -13.9293  -43.1540  -14.0896 C   0  0  0  0  0  0  0  0  0  0  0  0
  -13.0167  -43.5084  -15.2717 C   0  0  0  0  0  0  0  0  0  0  0  0
  -15.7638  -43.3414  -20.8639 C   0  0  0  0  0  0  0  0  0  0  0  0
  -14.4898  -44.1876  -20.7856 C   0  0  0  0  0  0  0  0  0  0  0  0
  -14.5220  -40.1624  -24.3589 H   0  0  0  0  0  0  0  0  0  0  0  0
  -14.5269  -39.5755  -26.5945 H   0  0  0  0  0  0  0  0  0  0  0  0
  -15.6091  -40.8777  -27.0002 H   0  0  0  0  0  0  0  0  0  0  0  0
  -19.3134  -36.7870  -23.8299 H   0  0  0  0  0  0  0  0  0  0  0  0
  -18.2785  -35.5408  -24.5689 H   0  0  0  0  0  0  0  0  0  0  0  0
  -19.7563  -36.0696  -25.3870 H   0  0  0  0  0  0  0  0  0  0  0  0
  -17.1012  -42.2689  -25.9756 H   0  0  0  0  0  0  0  0  0  0  0  0
  -14.5986  -41.5835  -22.5451 H   0  0  0  0  0  0  0  0  0  0  0  0
  -17.8079  -44.4500  -22.3797 H   0  0  0  0  0  0  0  0  0  0  0  0
  -17.6173  -39.3877  -28.0012 H   0  0  0  0  0  0  0  0  0  0  0  0
  -12.3833  -42.9970  -19.8177 H   0  0  0  0  0  0  0  0  0  0  0  0
  -13.8299  -42.1933  -19.1931 H   0  0  0  0  0  0  0  0  0  0  0  0
  -12.0842  -44.1174  -17.6461 H   0  0  0  0  0  0  0  0  0  0  0  0
  -11.8952  -42.3934  -17.5851 H   0  0  0  0  0  0  0  0  0  0  0  0
  -15.3949  -43.1845  -17.6280 H   0  0  0  0  0  0  0  0  0  0  0  0
  -14.9058  -44.6758  -16.7838 H   0  0  0  0  0  0  0  0  0  0  0  0
  -15.7634  -42.0156  -15.4656 H   0  0  0  0  0  0  0  0  0  0  0  0
  -16.7978  -43.3962  -15.6682 H   0  0  0  0  0  0  0  0  0  0  0  0
  -13.9706  -42.0699  -13.9294 H   0  0  0  0  0  0  0  0  0  0  0  0
  -13.5469  -43.6117  -13.1717 H   0  0  0  0  0  0  0  0  0  0  0  0
  -12.9391  -44.5998  -15.2848 H   0  0  0  0  0  0  0  0  0  0  0  0
  -12.0230  -43.0816  -15.0980 H   0  0  0  0  0  0  0  0  0  0  0  0
  -15.6508  -42.3923  -20.3283 H   0  0  0  0  0  0  0  0  0  0  0  0
  -16.5749  -43.8608  -20.3374 H   0  0  0  0  0  0  0  0  0  0  0  0
  -14.7478  -45.2059  -21.0908 H   0  0  0  0  0  0  0  0  0  0  0  0
  -13.7059  -43.8394  -21.4689 H   0  0  0  0  0  0  0  0  0  0  0  0
  3  2  1  0
  5 10  2  0
  5  1  1  0
  5  6  1  0
  6  7  2  0
  7  2  1  0
  7  8  1  0
  8  9  2  0
  9 10  1  0
 11 12  1  0
 11 15  2  0
 12 13  2  0
 13  4  1  0
 13 14  1  0
 14 15  1  0
 15  3  1  0
 17 16  1  0
 18 17  1  0
 19 18  1  0
 19 24  1  0
 19 20  1  0
 20 21  1  0
 21 22  1  0
 22 23  1  0
 23 24  1  0
 25  9  1  0
 26 25  1  0
 26 16  1  0
  2 27  1  0
  3 28  1  0
  3 29  1  0
  4 30  1  0
  4 31  1  0
  4 32  1  0
  6 33  1  0
  8 34  1  0
 10 35  1  0
 11 36  1  0
 17 37  1  0
 17 38  1  0
 18 39  1  0
 18 40  1  0
 20 41  1  0
 20 42  1  0
 21 43  1  0
 21 44  1  0
 23 45  1  0
 23 46  1  0
 24 47  1  0
 24 48  1  0
 25 49  1  0
 25 50  1  0
 26 51  1  0
 26 52  1  0
M  END
>  <smiles>  (214) 
[H]c1nc(C([H])([H])[H])sc1C([H])([H])N([H])c1c([H])c(F)c([H])c(C([H])([H])C([H])([H])OC([H])([H])C([H])([H])N2C([H])([H])C([H])([H])OC([H])([H])C2([H])[H])c1[H]

>  <error>  (214) 


>  <∆∆G>  (214) 
-99.067991

>  <∆G_bound>  (214) 
244.172189

>  <∆G_unbound>  (214) 
343.24018

>  <comRMSD>  (214) 
1.108183

>  <N_constrained_atoms>  (214) 
24.0

>  <N_unconstrained_atoms>  (214) 
2.0

>  <runtime>  (214) 
2.934389

>  <regarded>  (214) 
['d0615b', 'z0052a']

>  <disregarded>  (214) 
[]

>  <LE>  (214) 
3.810307

>  <outcome>  (214) 
too moved

>  <percent_hybrid>  (214) 
38.0

$$$$
LIG
     RDKit          3D

  0  0  0  0  0  0  0  0  0  0999 V3000
M  V30 BEGIN CTAB
M  V30 COUNTS 45 47 0 0 0
M  V30 BEGIN ATOM
M  V30 1 F -18.671000 -43.808998 -24.667000 0
M  V30 2 N -14.914000 -40.875000 -24.797001 0
M  V30 3 C -15.278000 -40.210999 -26.035999 0
M  V30 4 C -18.740000 -36.407001 -24.548000 0
M  V30 5 C -17.525000 -43.327000 -24.115999 0
M  V30 6 C -16.809000 -42.383999 -24.802999 0
M  V30 7 C -15.659000 -41.882999 -24.202999 0
M  V30 8 C -15.299000 -42.398998 -22.957001 0
M  V30 9 N -16.009001 -43.330002 -22.305000 0
M  V30 10 C -17.125000 -43.785000 -22.886000 0
M  V30 11 C -17.368999 -38.930000 -26.771000 0
M  V30 12 N -18.275000 -37.955002 -26.407000 0
M  V30 13 C -17.968000 -37.487000 -25.233000 0
M  V30 14 S -16.566000 -38.206001 -24.499001 0
M  V30 15 C -16.382999 -39.214001 -25.896000 0
M  V30 16 O -13.266000 -42.196999 -21.974001 0
M  V30 17 C -12.944000 -41.021999 -21.833000 0
M  V30 18 C -11.629000 -40.624001 -21.225000 0
M  V30 19 N -13.726000 -40.034000 -22.247999 0
M  V30 20 C -13.348000 -39.222000 -23.382000 0 CFG=2
M  V30 21 C -12.966000 -37.907001 -22.924999 0
M  V30 22 N -11.741000 -37.458000 -22.879000 0
M  V30 23 C -11.837000 -36.210999 -22.299000 0
M  V30 24 C -13.101000 -35.942001 -22.018000 0
M  V30 25 N -13.818000 -37.035000 -22.421000 0
M  V30 26 C -14.131000 -40.048500 -24.089500 0
M  V30 27 H -14.389636 -39.689297 -26.421532 0
M  V30 28 H -15.642880 -40.993107 -26.718033 0
M  V30 29 H -18.652939 -36.528793 -23.458237 0
M  V30 30 H -18.337093 -35.426186 -24.840683 0
M  V30 31 H -19.798428 -36.470768 -24.840683 0
M  V30 32 H -17.132032 -42.034840 -25.794834 0
M  V30 33 H -14.381091 -42.020233 -22.483734 0
M  V30 34 H -17.733498 -44.540707 -22.367695 0
M  V30 35 H -17.447775 -39.453907 -27.735010 0
M  V30 36 H -11.709771 -40.648445 -20.128242 0
M  V30 37 H -10.847049 -41.325714 -21.550806 0
M  V30 38 H -11.367404 -39.606445 -21.550806 0
M  V30 39 H -14.611291 -39.843807 -21.757097 0
M  V30 40 H -12.604014 -38.879398 -24.116241 0
M  V30 41 H -10.988646 -35.539764 -22.099646 0
M  V30 42 H -13.495500 -35.025738 -21.554501 0
M  V30 43 H -13.210999 -39.128502 -23.169500 0
M  V30 44 H -13.200999 -39.118500 -23.159500 0
M  V30 45 H -14.838100 -37.155346 -22.344767 0
M  V30 END ATOM
M  V30 BEGIN BOND
M  V30 1 1 3 2
M  V30 2 2 5 10
M  V30 3 1 5 1
M  V30 4 1 5 6
M  V30 5 2 6 7
M  V30 6 1 7 2
M  V30 7 1 7 8
M  V30 8 2 8 9
M  V30 9 1 9 10
M  V30 10 1 11 12
M  V30 11 2 11 15
M  V30 12 2 12 13
M  V30 13 1 13 4
M  V30 14 1 13 14
M  V30 15 1 14 15
M  V30 16 1 15 3
M  V30 17 1 18 17
M  V30 18 2 17 16
M  V30 19 1 19 17
M  V30 20 1 20 19
M  V30 21 1 21 20
M  V30 22 2 21 22
M  V30 23 1 21 25
M  V30 24 1 22 23
M  V30 25 2 23 24
M  V30 26 1 24 25
M  V30 27 1 26 2
M  V30 28 1 26 20
M  V30 29 1 3 27
M  V30 30 1 3 28
M  V30 31 1 4 29
M  V30 32 1 4 30
M  V30 33 1 4 31
M  V30 34 1 6 32
M  V30 35 1 8 33
M  V30 36 1 10 34
M  V30 37 1 11 35
M  V30 38 1 18 36
M  V30 39 1 18 37
M  V30 40 1 18 38
M  V30 41 1 19 39
M  V30 42 1 20 40 CFG=3
M  V30 43 1 23 41
M  V30 44 1 24 42
M  V30 45 1 26 43
M  V30 46 1 26 44
M  V30 47 1 25 45
M  V30 END BOND
M  V30 BEGIN COLLECTION
M  V30 MDLV30/STEABS ATOMS=(0)
M  V30 END COLLECTION
M  V30 END CTAB
M  END
>  <smiles>  (215) 
[H]c1nc([C@@]([H])(N([H])C(=O)C([H])([H])[H])C([H])([H])N(c2c([H])nc([H])c(F)c2[H])C([H])([H])c2sc(C([H])([H])[H])nc2[H])[nH]c1[H]

>  <error>  (215) 


>  <∆∆G>  (215) 
nan

>  <∆G_bound>  (215) 
nan

>  <∆G_unbound>  (215) 
nan

>  <comRMSD>  (215) 
0.0

>  <N_constrained_atoms>  (215) 
25.0

>  <N_unconstrained_atoms>  (215) 
1.0

>  <runtime>  (215) 
1.220038

>  <regarded>  (215) 
['d0615b', 'z0103a']

>  <disregarded>  (215) 
[]

>  <LE>  (215) 
nan

>  <outcome>  (215) 
crashed

>  <percent_hybrid>  (215) 
40.0

$$$$

     RDKit          2D

  0  0  0  0  0  0  0  0  0  0999 V2000
M  END
>  <smiles>  (216) 
nan

>  <error>  (216) 
DistanceError 6.36 Å

>  <∆∆G>  (216) 
nan

>  <∆G_bound>  (216) 
nan

>  <∆G_unbound>  (216) 
nan

>  <comRMSD>  (216) 
nan

>  <N_constrained_atoms>  (216) 
nan

>  <N_unconstrained_atoms>  (216) 
nan

>  <runtime>  (216) 
nan

>  <regarded>  (216) 
[]

>  <disregarded>  (216) 
[]

>  <LE>  (216) 
nan

>  <outcome>  (216) 
too distant

>  <percent_hybrid>  (216) 
nan

$$$$

     RDKit          2D

  0  0  0  0  0  0  0  0  0  0999 V2000
M  END
>  <smiles>  (217) 
nan

>  <error>  (217) 
RecursionError maximum recursion depth exceeded while calling a Python object

>  <∆∆G>  (217) 
nan

>  <∆G_bound>  (217) 
nan

>  <∆G_unbound>  (217) 
nan

>  <comRMSD>  (217) 
nan

>  <N_constrained_atoms>  (217) 
nan

>  <N_unconstrained_atoms>  (217) 
nan

>  <runtime>  (217) 
nan

>  <regarded>  (217) 
[]

>  <disregarded>  (217) 
[]

>  <LE>  (217) 
nan

>  <outcome>  (217) 
crashed

>  <percent_hybrid>  (217) 
nan

$$$$
LIG
     RDKit          3D

  0  0  0  0  0  0  0  0  0  0999 V3000
M  V30 BEGIN CTAB
M  V30 COUNTS 35 37 0 0 0
M  V30 BEGIN ATOM
M  V30 1 F -18.671000 -43.808998 -24.667000 0
M  V30 2 N -14.914000 -40.875000 -24.797001 0
M  V30 3 C -15.278000 -40.210999 -26.035999 0
M  V30 4 C -18.740000 -36.407001 -24.548000 0
M  V30 5 C -17.525000 -43.327000 -24.115999 0
M  V30 6 C -16.809000 -42.383999 -24.802999 0
M  V30 7 C -15.659000 -41.882999 -24.202999 0
M  V30 8 C -15.299000 -42.398998 -22.957001 0
M  V30 9 N -16.009001 -43.330002 -22.305000 0
M  V30 10 C -17.125000 -43.785000 -22.886000 0
M  V30 11 C -17.368999 -38.930000 -26.771000 0
M  V30 12 N -18.275000 -37.955002 -26.407000 0
M  V30 13 C -17.968000 -37.487000 -25.233000 0
M  V30 14 S -16.566000 -38.206001 -24.499001 0
M  V30 15 C -16.382999 -39.214001 -25.896000 0
M  V30 16 N -13.297000 -44.498001 -20.850000 0
M  V30 17 C -12.948000 -43.432999 -21.100000 0
M  V30 18 C -12.567000 -42.085999 -21.440001 0
M  V30 19 C -13.246000 -41.202000 -22.230000 0
M  V30 20 N -12.548000 -40.040001 -22.191999 0
M  V30 21 C -11.474000 -40.242001 -21.403000 0
M  V30 22 N -11.428000 -41.477001 -20.927000 0
M  V30 23 N -14.272500 -41.800499 -22.593500 0
M  V30 24 H -14.045981 -40.578121 -24.328699 0
M  V30 25 H -14.389636 -39.689297 -26.421532 0
M  V30 26 H -15.642880 -40.993107 -26.718033 0
M  V30 27 H -18.652939 -36.528793 -23.458237 0
M  V30 28 H -18.337093 -35.426186 -24.840683 0
M  V30 29 H -19.798428 -36.470768 -24.840683 0
M  V30 30 H -17.132032 -42.034840 -25.794834 0
M  V30 31 H -17.733498 -44.540707 -22.367695 0
M  V30 32 H -17.447775 -39.453907 -27.735010 0
M  V30 33 H -10.722527 -39.470219 -21.180201 0
M  V30 34 H -13.442500 -40.970497 -21.763500 0
M  V30 35 H -12.793221 -39.164780 -22.676517 0
M  V30 END ATOM
M  V30 BEGIN BOND
M  V30 1 1 3 2
M  V30 2 2 5 10
M  V30 3 1 5 1
M  V30 4 1 5 6
M  V30 5 2 6 7
M  V30 6 1 7 2
M  V30 7 1 7 8
M  V30 8 2 8 9
M  V30 9 1 9 10
M  V30 10 1 11 12
M  V30 11 2 11 15
M  V30 12 2 12 13
M  V30 13 1 13 4
M  V30 14 1 13 14
M  V30 15 1 14 15
M  V30 16 1 15 3
M  V30 17 3 17 16
M  V30 18 1 18 17
M  V30 19 2 18 19
M  V30 20 1 18 22
M  V30 21 1 19 20
M  V30 22 1 20 21
M  V30 23 2 21 22
M  V30 24 1 23 8
M  V30 25 1 23 19
M  V30 26 1 2 24
M  V30 27 1 3 25
M  V30 28 1 3 26
M  V30 29 1 4 27
M  V30 30 1 4 28
M  V30 31 1 4 29
M  V30 32 1 6 30
M  V30 33 1 10 31
M  V30 34 1 11 32
M  V30 35 1 21 33
M  V30 36 1 23 34
M  V30 37 1 20 35
M  V30 END BOND
M  V30 BEGIN COLLECTION
M  V30 MDLV30/STEABS ATOMS=(0)
M  V30 END COLLECTION
M  V30 END CTAB
M  END
>  <smiles>  (218) 
[H]c1nc(C#N)c(N([H])c2nc([H])c(F)c([H])c2N([H])C([H])([H])c2sc(C([H])([H])[H])nc2[H])[nH]1

>  <error>  (218) 


>  <∆∆G>  (218) 
nan

>  <∆G_bound>  (218) 
nan

>  <∆G_unbound>  (218) 
nan

>  <comRMSD>  (218) 
0.0

>  <N_constrained_atoms>  (218) 
22.0

>  <N_unconstrained_atoms>  (218) 
1.0

>  <runtime>  (218) 
1.08069

>  <regarded>  (218) 
['d0615b', 'z0875c']

>  <disregarded>  (218) 
[]

>  <LE>  (218) 
nan

>  <outcome>  (218) 
crashed

>  <percent_hybrid>  (218) 
32.0

$$$$
LIG
     RDKit          3D

 86 90  0  0  0  0  0  0  0  0999 V2000
  -19.2061  -41.3667  -22.7001 F   0  0  0  0  0  0  0  0  0  0  0  0
  -15.0236  -40.6922  -24.9278 N   0  0  0  0  0  0  0  0  0  0  0  0
  -15.4259  -40.1196  -26.2225 C   0  0  0  0  0  0  0  0  0  0  0  0
  -18.7993  -36.1872  -24.9904 C   0  0  0  0  0  0  0  0  0  0  0  0
  -13.8724  -42.2161  -18.6104 O   0  0  0  0  0  0  0  0  0  0  0  0
  -15.9310  -43.5665  -14.2601 O   0  0  0  0  0  0  0  0  0  0  0  0
  -13.9293  -38.1941  -16.4183 O   0  0  0  0  0  0  0  0  0  0  0  0
  -19.4027  -46.6695  -24.5223 C   0  0  0  0  0  0  0  0  0  0  0  0
  -20.0231  -46.7439  -25.5497 C   0  0  0  0  0  0  0  0  0  0  0  0
  -20.7891  -46.8079  -26.7930 C   0  0  0  0  0  0  0  0  0  0  0  0
  -14.8677  -44.5471  -17.0954 O   0  0  0  0  0  0  0  0  0  0  0  0
  -15.6473  -43.7337  -17.4285 C   0  0  0  0  0  0  0  0  0  0  0  0
  -16.5020  -42.7331  -16.5707 N   0  0  0  0  0  0  0  0  0  0  0  0
  -16.4935  -42.4374  -14.9543 S   0  0  0  0  0  0  0  0  0  0  0  0
  -17.7549  -41.8095  -14.6303 O   0  0  0  0  0  0  0  0  0  0  0  0
  -14.9650  -37.8891  -17.3434 C   0  0  0  0  0  0  0  0  0  0  0  0
  -12.9880  -41.1364  -18.8821 C   0  0  0  0  0  0  0  0  0  0  0  0
  -21.8275  -45.8368  -26.7834 O   0  0  0  0  0  0  0  0  0  0  0  0
  -17.9944  -41.9067  -22.9667 C   0  0  1  0  0  0  0  0  0  0  0  0
  -17.1665  -40.9528  -23.7635 C   0  0  0  0  0  0  0  0  0  0  0  0
  -15.9497  -41.6747  -24.3142 C   0  0  2  0  0  0  0  0  0  0  0  0
  -15.1676  -42.4898  -23.2176 C   0  0  1  0  0  0  0  0  0  0  0  0
  -15.8611  -42.8684  -21.7985 C   0  0  2  0  0  0  0  0  0  0  0  0
  -17.2851  -42.2461  -21.6576 C   0  0  0  0  0  0  0  0  0  0  0  0
  -17.5895  -38.9439  -27.0358 C   0  0  0  0  0  0  0  0  0  0  0  0
  -18.4866  -37.9323  -26.7350 N   0  0  0  0  0  0  0  0  0  0  0  0
  -18.0671  -37.2963  -25.6597 C   0  0  0  0  0  0  0  0  0  0  0  0
  -16.5603  -37.8169  -25.0241 S   0  0  0  0  0  0  0  0  0  0  0  0
  -16.5117  -39.0866  -26.1807 C   0  0  0  0  0  0  0  0  0  0  0  0
  -14.8645  -42.1537  -20.8148 C   0  0  0  0  0  0  0  0  0  0  0  0
  -15.1216  -42.2088  -19.3174 C   0  0  1  0  0  0  0  0  0  0  0  0
  -15.9205  -43.4480  -18.9152 C   0  0  1  0  0  0  0  0  0  0  0  0
  -15.5471  -44.6321  -19.8041 C   0  0  0  0  0  0  0  0  0  0  0  0
  -15.8498  -44.4309  -21.3240 C   0  0  1  0  0  0  0  0  0  0  0  0
  -13.2680  -39.3210  -14.4849 C   0  0  0  0  0  0  0  0  0  0  0  0
  -13.3818  -40.3399  -13.5406 C   0  0  0  0  0  0  0  0  0  0  0  0
  -14.3865  -41.2838  -13.6804 C   0  0  0  0  0  0  0  0  0  0  0  0
  -15.2706  -41.1879  -14.7612 C   0  0  0  0  0  0  0  0  0  0  0  0
  -15.1820  -40.1585  -15.6919 C   0  0  0  0  0  0  0  0  0  0  0  0
  -14.1651  -39.2248  -15.5554 C   0  0  0  0  0  0  0  0  0  0  0  0
  -17.5703  -46.4865  -21.2769 C   0  0  0  0  0  0  0  0  0  0  0  0
  -18.5230  -47.1034  -22.1718 C   0  0  0  0  0  0  0  0  0  0  0  0
  -18.6585  -46.3905  -23.3371 C   0  0  0  0  0  0  0  0  0  0  0  0
  -17.7569  -44.9843  -23.2694 S   0  0  0  0  0  0  0  0  0  0  0  0
  -17.0191  -45.3163  -21.7879 C   0  0  0  0  0  0  0  0  0  0  0  0
  -14.4050  -43.6374  -23.8634 C   0  0  0  0  0  0  0  0  0  0  0  0
  -14.1166  -41.1387  -25.0857 H   0  0  0  0  0  0  0  0  0  0  0  0
  -14.5405  -39.6379  -26.6562 H   0  0  0  0  0  0  0  0  0  0  0  0
  -15.6972  -40.9277  -26.9133 H   0  0  0  0  0  0  0  0  0  0  0  0
  -19.0699  -36.4620  -23.9660 H   0  0  0  0  0  0  0  0  0  0  0  0
  -18.1912  -35.2774  -24.9636 H   0  0  0  0  0  0  0  0  0  0  0  0
  -19.7222  -35.9583  -25.5331 H   0  0  0  0  0  0  0  0  0  0  0  0
  -21.2194  -47.7974  -26.9677 H   0  0  0  0  0  0  0  0  0  0  0  0
  -20.1319  -46.5594  -27.6231 H   0  0  0  0  0  0  0  0  0  0  0  0
  -17.0136  -42.1116  -17.1848 H   0  0  0  0  0  0  0  0  0  0  0  0
  -15.9086  -37.6782  -16.8286 H   0  0  0  0  0  0  0  0  0  0  0  0
  -14.6728  -36.9829  -17.8830 H   0  0  0  0  0  0  0  0  0  0  0  0
  -15.0909  -38.6859  -18.0820 H   0  0  0  0  0  0  0  0  0  0  0  0
  -12.2297  -41.1131  -18.0946 H   0  0  0  0  0  0  0  0  0  0  0  0
  -12.4762  -41.2834  -19.8368 H   0  0  0  0  0  0  0  0  0  0  0  0
  -13.5206  -40.1832  -18.8833 H   0  0  0  0  0  0  0  0  0  0  0  0
  -22.6248  -46.2861  -26.4292 H   0  0  0  0  0  0  0  0  0  0  0  0
  -18.2351  -42.7247  -23.6219 H   0  0  0  0  0  0  0  0  0  0  0  0
  -17.8051  -40.5733  -24.5648 H   0  0  0  0  0  0  0  0  0  0  0  0
  -16.8846  -40.0983  -23.1371 H   0  0  0  0  0  0  0  0  0  0  0  0
  -16.2780  -42.3837  -25.0866 H   0  0  0  0  0  0  0  0  0  0  0  0
  -14.3491  -41.8002  -22.9622 H   0  0  0  0  0  0  0  0  0  0  0  0
  -17.2216  -41.3141  -21.0787 H   0  0  0  0  0  0  0  0  0  0  0  0
  -17.9475  -42.8754  -21.0529 H   0  0  0  0  0  0  0  0  0  0  0  0
  -17.7795  -39.5737  -27.8956 H   0  0  0  0  0  0  0  0  0  0  0  0
  -14.7886  -41.0877  -21.0775 H   0  0  0  0  0  0  0  0  0  0  0  0
  -13.8665  -42.5780  -21.0047 H   0  0  0  0  0  0  0  0  0  0  0  0
  -15.6747  -41.3160  -18.9992 H   0  0  0  0  0  0  0  0  0  0  0  0
  -16.9956  -43.2704  -19.0319 H   0  0  0  0  0  0  0  0  0  0  0  0
  -14.4638  -44.8019  -19.7090 H   0  0  0  0  0  0  0  0  0  0  0  0
  -15.9967  -45.5428  -19.3990 H   0  0  0  0  0  0  0  0  0  0  0  0
  -14.9867  -44.9054  -21.8054 H   0  0  0  0  0  0  0  0  0  0  0  0
  -12.4713  -38.5866  -14.3862 H   0  0  0  0  0  0  0  0  0  0  0  0
  -12.6811  -40.3999  -12.7122 H   0  0  0  0  0  0  0  0  0  0  0  0
  -14.4698  -42.0908  -12.9554 H   0  0  0  0  0  0  0  0  0  0  0  0
  -15.8944  -40.1074  -16.5035 H   0  0  0  0  0  0  0  0  0  0  0  0
  -17.2761  -46.9542  -20.3459 H   0  0  0  0  0  0  0  0  0  0  0  0
  -19.0200  -48.0462  -21.9815 H   0  0  0  0  0  0  0  0  0  0  0  0
  -13.6603  -44.0634  -23.1847 H   0  0  0  0  0  0  0  0  0  0  0  0
  -15.0907  -44.4178  -24.1849 H   0  0  0  0  0  0  0  0  0  0  0  0
  -13.8546  -43.3010  -24.7432 H   0  0  0  0  0  0  0  0  0  0  0  0
  3  2  1  0
 10 18  1  0
 10  9  1  0
  9  8  3  0
 13 12  1  0
 13 14  1  0
 12 11  2  0
  6 14  2  0
 15 14  2  0
  5 17  1  0
 16  7  1  0
 19 24  1  0
 19  1  1  0
 19 20  1  0
 20 21  1  0
 21  2  1  0
 21 22  1  0
 22 23  1  0
 23 24  1  6
 25 26  1  0
 25 29  2  0
 26 27  2  0
 27  4  1  0
 27 28  1  0
 28 29  1  0
 29  3  1  0
 30 31  1  0
 31 32  1  0
 31  5  1  0
 32 33  1  0
 32 12  1  0
 33 34  1  0
 34 45  1  0
 35 40  2  0
 35 36  1  0
 36 37  2  0
 37 38  1  0
 38 14  1  0
 38 39  2  0
 39 40  1  0
 40  7  1  0
 41 42  1  0
 41 45  2  0
 42 43  2  0
 43  8  1  0
 43 44  1  0
 44 45  1  0
 23 34  1  0
 23 30  1  0
 22 46  1  0
  2 47  1  0
  3 48  1  0
  3 49  1  0
  4 50  1  0
  4 51  1  0
  4 52  1  0
 10 53  1  0
 10 54  1  0
 13 55  1  0
 16 56  1  0
 16 57  1  0
 16 58  1  0
 17 59  1  0
 17 60  1  0
 17 61  1  0
 18 62  1  0
 19 63  1  6
 20 64  1  0
 20 65  1  0
 21 66  1  6
 22 67  1  1
 24 68  1  0
 24 69  1  0
 25 70  1  0
 30 71  1  0
 30 72  1  0
 31 73  1  1
 32 74  1  6
 33 75  1  0
 33 76  1  0
 34 77  1  6
 35 78  1  0
 36 79  1  0
 37 80  1  0
 39 81  1  0
 41 82  1  0
 42 83  1  0
 46 84  1  0
 46 85  1  0
 46 86  1  0
M  END
>  <smiles>  (219) 
[H]OC([H])([H])C#Cc1sc([C@]2([H])C([H])([H])[C@]([H])(C(=O)N([H])S(=O)(=O)c3c([H])c([H])c([H])c(OC([H])([H])[H])c3[H])[C@@]([H])(OC([H])([H])[H])C([H])([H])[C@]23C([H])([H])[C@@]([H])(F)C([H])([H])[C@@]([H])(N([H])C([H])([H])c2sc(C([H])([H])[H])nc2[H])[C@]3([H])C([H])([H])[H])c([H])c1[H]

>  <error>  (219) 


>  <∆∆G>  (219) 
-471.920964

>  <∆G_bound>  (219) 
196.002905

>  <∆G_unbound>  (219) 
667.923868

>  <comRMSD>  (219) 
0.941666

>  <N_constrained_atoms>  (219) 
46.0

>  <N_unconstrained_atoms>  (219) 
0.0

>  <runtime>  (219) 
125.556252

>  <regarded>  (219) 
['d0615b', '5i3p-a']

>  <disregarded>  (219) 
[]

>  <LE>  (219) 
10.259151

>  <outcome>  (219) 
acceptable

>  <percent_hybrid>  (219) 
33.0

$$$$
LIG
     RDKit          3D

 60 64  0  0  0  0  0  0  0  0999 V2000
  -18.9823  -43.0084  -23.9981 F   0  0  0  0  0  0  0  0  0  0  0  0
  -14.8136  -40.5717  -24.4090 N   0  0  0  0  0  0  0  0  0  0  0  0
  -15.0553  -39.9693  -25.7352 C   0  0  0  0  0  0  0  0  0  0  0  0
  -18.9007  -36.3917  -24.8160 C   0  0  0  0  0  0  0  0  0  0  0  0
  -20.2972  -43.8107  -20.9834 O   0  0  0  0  0  0  0  0  0  0  0  0
  -18.7177  -44.1618  -19.4395 O   0  0  0  0  0  0  0  0  0  0  0  0
  -19.1284  -43.5137  -20.3878 C   0  0  0  0  0  0  0  0  0  0  0  0
  -18.4888  -42.2954  -20.9907 C   0  0  0  0  0  0  0  0  0  0  0  0
  -16.2846  -44.9791  -18.8078 O   0  0  0  0  0  0  0  0  0  0  0  0
  -17.6611  -43.1317  -24.2538 C   0  0  1  0  0  0  0  0  0  0  0  0
  -17.0174  -41.7681  -24.3709 C   0  0  0  0  0  0  0  0  0  0  0  0
  -15.4914  -41.8554  -24.1798 C   0  0  2  0  0  0  0  0  0  0  0  0
  -15.0645  -42.4500  -22.7695 C   0  0  0  0  0  0  0  0  0  0  0  0
  -16.2028  -43.2703  -22.0346 C   0  0  2  0  0  0  0  0  0  0  0  0
  -17.1214  -38.8391  -26.8413 C   0  0  0  0  0  0  0  0  0  0  0  0
  -18.1431  -37.9300  -26.6164 N   0  0  0  0  0  0  0  0  0  0  0  0
  -18.0001  -37.4156  -25.4119 C   0  0  0  0  0  0  0  0  0  0  0  0
  -16.6622  -37.9933  -24.5037 S   0  0  0  0  0  0  0  0  0  0  0  0
  -16.2383  -39.0432  -25.7948 C   0  0  0  0  0  0  0  0  0  0  0  0
  -15.3482  -44.4030  -19.7310 C   0  0  2  0  0  0  0  0  0  0  0  0
  -15.1001  -42.9561  -19.3686 C   0  0  0  0  0  0  0  0  0  0  0  0
  -16.3167  -42.0977  -19.6659 C   0  0  0  0  0  0  0  0  0  0  0  0
  -16.9479  -42.2629  -21.0805 C   0  0  2  0  0  0  0  0  0  0  0  0
  -15.7055  -44.5492  -21.2246 C   0  0  1  0  0  0  0  0  0  0  0  0
  -17.8969  -47.6475  -21.5580 C   0  0  0  0  0  0  0  0  0  0  0  0
  -16.9594  -46.8097  -20.9766 C   0  0  0  0  0  0  0  0  0  0  0  0
  -16.7846  -45.5635  -21.5334 C   0  0  0  0  0  0  0  0  0  0  0  0
  -17.5586  -45.1676  -22.6284 C   0  0  0  0  0  0  0  0  0  0  0  0
  -18.5503  -45.9656  -23.1598 C   0  0  0  0  0  0  0  0  0  0  0  0
  -18.6969  -47.2342  -22.6240 C   0  0  0  0  0  0  0  0  0  0  0  0
  -13.8059  -40.7317  -24.3363 H   0  0  0  0  0  0  0  0  0  0  0  0
  -14.1709  -39.3826  -26.0041 H   0  0  0  0  0  0  0  0  0  0  0  0
  -15.1367  -40.7462  -26.5051 H   0  0  0  0  0  0  0  0  0  0  0  0
  -19.3808  -36.7750  -23.9101 H   0  0  0  0  0  0  0  0  0  0  0  0
  -18.3458  -35.4823  -24.5645 H   0  0  0  0  0  0  0  0  0  0  0  0
  -19.6888  -36.1189  -25.5254 H   0  0  0  0  0  0  0  0  0  0  0  0
  -20.6129  -44.6304  -20.5505 H   0  0  0  0  0  0  0  0  0  0  0  0
  -18.9141  -42.1301  -21.9816 H   0  0  0  0  0  0  0  0  0  0  0  0
  -18.8313  -41.4439  -20.3872 H   0  0  0  0  0  0  0  0  0  0  0  0
  -17.1823  -44.6544  -19.0420 H   0  0  0  0  0  0  0  0  0  0  0  0
  -17.5983  -43.6399  -25.2226 H   0  0  0  0  0  0  0  0  0  0  0  0
  -17.2813  -41.3958  -25.3649 H   0  0  0  0  0  0  0  0  0  0  0  0
  -17.4665  -41.0677  -23.6597 H   0  0  0  0  0  0  0  0  0  0  0  0
  -15.1072  -42.5581  -24.9333 H   0  0  0  0  0  0  0  0  0  0  0  0
  -14.1929  -43.0964  -22.9389 H   0  0  0  0  0  0  0  0  0  0  0  0
  -14.6960  -41.6483  -22.1167 H   0  0  0  0  0  0  0  0  0  0  0  0
  -16.1248  -44.4099  -23.8214 H   0  0  0  0  0  0  0  0  0  0  0  0
  -17.0668  -39.3395  -27.8011 H   0  0  0  0  0  0  0  0  0  0  0  0
  -14.4183  -44.9572  -19.5582 H   0  0  0  0  0  0  0  0  0  0  0  0
  -14.8605  -42.8685  -18.3020 H   0  0  0  0  0  0  0  0  0  0  0  0
  -14.2337  -42.5753  -19.9219 H   0  0  0  0  0  0  0  0  0  0  0  0
  -17.0682  -42.2791  -18.8883 H   0  0  0  0  0  0  0  0  0  0  0  0
  -16.0310  -41.0454  -19.5330 H   0  0  0  0  0  0  0  0  0  0  0  0
  -16.7907  -41.2721  -21.5338 H   0  0  0  0  0  0  0  0  0  0  0  0
  -14.7962  -44.9032  -21.7320 H   0  0  0  0  0  0  0  0  0  0  0  0
  -17.9287  -48.6785  -21.2531 H   0  0  0  0  0  0  0  0  0  0  0  0
  -16.3331  -47.1605  -20.1656 H   0  0  0  0  0  0  0  0  0  0  0  0
  -16.9411  -43.9616  -23.2222 C   0  0  1  0  0  0  0  0  0  0  0  0
  -19.1164  -45.6677  -24.0350 H   0  0  0  0  0  0  0  0  0  0  0  0
  -19.3635  -47.9555  -23.0855 H   0  0  0  0  0  0  0  0  0  0  0  0
  3  2  1  0
  8  7  1  0
  6  7  2  0
  7  5  1  0
 10  1  1  0
 10 11  1  0
 11 12  1  0
 12  2  1  0
 12 13  1  0
 14 13  1  6
 15 16  1  0
 15 19  2  0
 16 17  2  0
 17  4  1  0
 17 18  1  0
 18 19  1  0
 19  3  1  0
 20  9  1  0
 20 24  1  0
 20 21  1  0
 21 22  1  0
 22 23  1  0
 23  8  1  0
 24 27  1  0
 25 30  2  0
 25 26  1  0
 26 27  2  0
 27 28  1  0
 28 29  2  0
 29 30  1  0
 14 23  1  0
 14 24  1  0
  2 31  1  0
  3 32  1  0
  3 33  1  0
  4 34  1  0
  4 35  1  0
  4 36  1  0
  5 37  1  0
  8 38  1  0
  8 39  1  0
  9 40  1  0
 10 41  1  6
 11 42  1  0
 11 43  1  0
 12 44  1  6
 13 45  1  0
 13 46  1  0
 15 48  1  0
 20 49  1  6
 21 50  1  0
 21 51  1  0
 22 52  1  0
 22 53  1  0
 23 54  1  6
 24 55  1  6
 25 56  1  0
 26 57  1  0
 28 58  1  0
 29 59  1  0
 30 60  1  0
 58 10  1  0
 58 14  1  0
 58 47  1  1
M  END
>  <smiles>  (220) 
[H]OC(=O)C([H])([H])[C@@]1([H])C([H])([H])C([H])([H])[C@@]([H])(O[H])[C@@]2([H])c3c([H])c([H])c([H])c([H])c3[C@@]3([H])[C@@]12C([H])([H])[C@]([H])(N([H])C([H])([H])c1sc(C([H])([H])[H])nc1[H])C([H])([H])[C@]3([H])F

>  <error>  (220) 


>  <∆∆G>  (220) 
-116.742256

>  <∆G_bound>  (220) 
211.154258

>  <∆G_unbound>  (220) 
327.896514

>  <comRMSD>  (220) 
2.468219

>  <N_constrained_atoms>  (220) 
30.0

>  <N_unconstrained_atoms>  (220) 
1.0

>  <runtime>  (220) 
5.763731

>  <regarded>  (220) 
['d0615b', '5hn0-a']

>  <disregarded>  (220) 
[]

>  <LE>  (220) 
3.765879

>  <outcome>  (220) 
too moved

>  <percent_hybrid>  (220) 
47.0

$$$$
LIG
     RDKit          3D

 58 61  0  0  0  0  0  0  0  0999 V2000
  -17.7434  -44.2574  -24.1405 F   0  0  0  0  0  0  0  0  0  0  0  0
  -15.6677  -40.1245  -23.9737 N   0  0  0  0  0  0  0  0  0  0  0  0
  -15.4393  -39.6330  -25.3369 C   0  0  0  0  0  0  0  0  0  0  0  0
  -19.2523  -35.9790  -25.1866 C   0  0  0  0  0  0  0  0  0  0  0  0
  -14.2513  -42.7135  -17.7978 C   0  0  0  0  0  0  0  0  0  0  0  0
  -16.0709  -41.2803  -17.0372 O   0  0  0  0  0  0  0  0  0  0  0  0
  -15.3791  -42.2737  -16.8998 C   0  0  0  0  0  0  0  0  0  0  0  0
  -15.5812  -43.1441  -15.8922 O   0  0  0  0  0  0  0  0  0  0  0  0
  -16.5113  -43.7580  -24.4143 C   0  0  1  0  0  0  0  0  0  0  0  0
  -16.6409  -42.2693  -24.5996 C   0  0  0  0  0  0  0  0  0  0  0  0
  -15.5643  -41.5556  -23.7966 C   0  0  2  0  0  0  0  0  0  0  0  0
  -15.7895  -41.9624  -22.3085 C   0  0  0  0  0  0  0  0  0  0  0  0
  -15.3090  -43.4226  -22.0634 C   0  0  1  0  0  0  0  0  0  0  0  0
  -15.4456  -44.2173  -23.4018 C   0  0  0  0  0  0  0  0  0  0  0  0
  -17.4211  -38.7069  -26.7574 C   0  0  0  0  0  0  0  0  0  0  0  0
  -18.4428  -37.7681  -26.7168 N   0  0  0  0  0  0  0  0  0  0  0  0
  -18.3143  -37.0450  -25.6220 C   0  0  0  0  0  0  0  0  0  0  0  0
  -16.9468  -37.3861  -24.6505 S   0  0  0  0  0  0  0  0  0  0  0  0
  -16.5515  -38.6994  -25.6840 C   0  0  0  0  0  0  0  0  0  0  0  0
  -14.6449  -42.7083  -19.2837 C   0  0  1  0  0  0  0  0  0  0  0  0
  -13.4925  -43.2371  -20.1455 C   0  0  0  0  0  0  0  0  0  0  0  0
  -13.7953  -43.3186  -21.6584 C   0  0  0  0  0  0  0  0  0  0  0  0
  -15.9269  -44.2302  -20.8854 C   0  0  1  0  0  0  0  0  0  0  0  0
  -15.9372  -43.4930  -19.5427 C   0  0  0  0  0  0  0  0  0  0  0  0
  -17.3800  -46.2826  -21.1053 C   0  0  0  0  0  0  0  0  0  0  0  0
  -18.9781  -46.7619  -21.3517 S   0  0  0  0  0  0  0  0  0  0  0  0
  -19.5041  -45.1422  -21.4918 C   0  0  0  0  0  0  0  0  0  0  0  0
  -18.4703  -44.2517  -21.3718 C   0  0  0  0  0  0  0  0  0  0  0  0
  -17.2324  -44.9076  -21.1325 C   0  0  0  0  0  0  0  0  0  0  0  0
  -15.0638  -39.6213  -23.3274 H   0  0  0  0  0  0  0  0  0  0  0  0
  -14.4743  -39.1241  -25.3734 H   0  0  0  0  0  0  0  0  0  0  0  0
  -15.3710  -40.4284  -26.0859 H   0  0  0  0  0  0  0  0  0  0  0  0
  -19.6367  -36.1776  -24.1810 H   0  0  0  0  0  0  0  0  0  0  0  0
  -18.7596  -35.0015  -25.1900 H   0  0  0  0  0  0  0  0  0  0  0  0
  -20.1088  -35.9252  -25.8665 H   0  0  0  0  0  0  0  0  0  0  0  0
  -13.3988  -42.0493  -17.6164 H   0  0  0  0  0  0  0  0  0  0  0  0
  -13.9395  -43.7216  -17.5037 H   0  0  0  0  0  0  0  0  0  0  0  0
  -16.3858  -42.8342  -15.4187 H   0  0  0  0  0  0  0  0  0  0  0  0
  -16.2288  -44.1679  -25.3846 H   0  0  0  0  0  0  0  0  0  0  0  0
  -16.5742  -42.0547  -25.6714 H   0  0  0  0  0  0  0  0  0  0  0  0
  -17.6426  -41.9382  -24.2944 H   0  0  0  0  0  0  0  0  0  0  0  0
  -14.5610  -41.8572  -24.1211 H   0  0  0  0  0  0  0  0  0  0  0  0
  -15.2560  -41.2599  -21.6586 H   0  0  0  0  0  0  0  0  0  0  0  0
  -16.8492  -41.8563  -22.0507 H   0  0  0  0  0  0  0  0  0  0  0  0
  -15.5807  -45.2806  -23.1979 H   0  0  0  0  0  0  0  0  0  0  0  0
  -14.4836  -44.1426  -23.9277 H   0  0  0  0  0  0  0  0  0  0  0  0
  -17.3768  -39.4004  -27.5886 H   0  0  0  0  0  0  0  0  0  0  0  0
  -14.8244  -41.6626  -19.5630 H   0  0  0  0  0  0  0  0  0  0  0  0
  -12.5976  -42.6196  -19.9974 H   0  0  0  0  0  0  0  0  0  0  0  0
  -13.2168  -44.2418  -19.7973 H   0  0  0  0  0  0  0  0  0  0  0  0
  -13.3452  -42.4430  -22.1342 H   0  0  0  0  0  0  0  0  0  0  0  0
  -13.2531  -44.1871  -22.0500 H   0  0  0  0  0  0  0  0  0  0  0  0
  -15.2331  -45.0758  -20.7310 H   0  0  0  0  0  0  0  0  0  0  0  0
  -16.1041  -44.2310  -18.7457 H   0  0  0  0  0  0  0  0  0  0  0  0
  -16.7861  -42.7989  -19.4870 H   0  0  0  0  0  0  0  0  0  0  0  0
  -16.6177  -47.0322  -20.9422 H   0  0  0  0  0  0  0  0  0  0  0  0
  -20.5448  -44.8902  -21.6323 H   0  0  0  0  0  0  0  0  0  0  0  0
  -18.6135  -43.1802  -21.4242 H   0  0  0  0  0  0  0  0  0  0  0  0
  3  2  1  0
  5  7  1  0
  6  7  2  0
  7  8  1  0
  9 14  1  0
  9  1  1  0
  9 10  1  0
 10 11  1  0
 11  2  1  0
 11 12  1  0
 13 12  1  6
 13 14  1  0
 15 16  1  0
 15 19  2  0
 16 17  2  0
 17  4  1  0
 17 18  1  0
 18 19  1  0
 19  3  1  0
 20 24  1  0
 20  5  1  0
 20 21  1  0
 21 22  1  0
 23 29  1  0
 23 24  1  0
 25 26  1  0
 25 29  2  0
 26 27  1  0
 27 28  2  0
 28 29  1  0
 13 22  1  0
 13 23  1  0
  2 30  1  0
  3 31  1  0
  3 32  1  0
  4 33  1  0
  4 34  1  0
  4 35  1  0
  5 36  1  0
  5 37  1  0
  8 38  1  0
  9 39  1  6
 10 40  1  0
 10 41  1  0
 11 42  1  6
 12 43  1  0
 12 44  1  0
 14 45  1  0
 14 46  1  0
 15 47  1  0
 20 48  1  6
 21 49  1  0
 21 50  1  0
 22 51  1  0
 22 52  1  0
 23 53  1  1
 24 54  1  0
 24 55  1  0
 25 56  1  0
 27 57  1  0
 28 58  1  0
M  END
>  <smiles>  (221) 
[H]OC(=O)C([H])([H])[C@@]1([H])C([H])([H])C([H])([H])[C@@]2(C([H])([H])[C@@]([H])(F)C([H])([H])[C@@]([H])(N([H])C([H])([H])c3sc(C([H])([H])[H])nc3[H])C2([H])[H])[C@]([H])(c2c([H])sc([H])c2[H])C1([H])[H]

>  <error>  (221) 


>  <∆∆G>  (221) 
-134.694135

>  <∆G_bound>  (221) 
136.618508

>  <∆G_unbound>  (221) 
271.312642

>  <comRMSD>  (221) 
1.2887

>  <N_constrained_atoms>  (221) 
29.0

>  <N_unconstrained_atoms>  (221) 
0.0

>  <runtime>  (221) 
4.095705

>  <regarded>  (221) 
['d0615b', '5f41-a']

>  <disregarded>  (221) 
[]

>  <LE>  (221) 
4.644625

>  <outcome>  (221) 
too moved

>  <percent_hybrid>  (221) 
49.0

$$$$
LIG
     RDKit          3D

 58 61  0  0  0  0  0  0  0  0999 V2000
  -17.7760  -44.3055  -24.1789 F   0  0  0  0  0  0  0  0  0  0  0  0
  -15.5079  -40.1725  -23.9929 N   0  0  0  0  0  0  0  0  0  0  0  0
  -15.3843  -39.7240  -25.3844 C   0  0  0  0  0  0  0  0  0  0  0  0
  -19.2120  -36.0723  -25.1637 C   0  0  0  0  0  0  0  0  0  0  0  0
  -14.2895  -42.6836  -17.7202 C   0  0  0  0  0  0  0  0  0  0  0  0
  -16.0099  -41.9162  -16.2220 O   0  0  0  0  0  0  0  0  0  0  0  0
  -14.7224  -40.3667  -17.2250 O   0  0  0  0  0  0  0  0  0  0  0  0
  -15.0074  -41.5410  -17.0402 C   0  0  0  0  0  0  0  0  0  0  0  0
  -16.5398  -43.7699  -24.3481 C   0  0  1  0  0  0  0  0  0  0  0  0
  -16.6785  -42.2750  -24.4733 C   0  0  0  0  0  0  0  0  0  0  0  0
  -15.4988  -41.6061  -23.7841 C   0  0  2  0  0  0  0  0  0  0  0  0
  -15.6435  -41.9467  -22.2710 C   0  0  0  0  0  0  0  0  0  0  0  0
  -15.3320  -43.4498  -21.9852 C   0  0  1  0  0  0  0  0  0  0  0  0
  -15.5263  -44.2717  -23.3005 C   0  0  0  0  0  0  0  0  0  0  0  0
  -17.3849  -38.7822  -26.7730 C   0  0  0  0  0  0  0  0  0  0  0  0
  -18.4064  -37.8431  -26.7178 N   0  0  0  0  0  0  0  0  0  0  0  0
  -18.2806  -37.1407  -25.6095 C   0  0  0  0  0  0  0  0  0  0  0  0
  -16.9240  -37.5116  -24.6339 S   0  0  0  0  0  0  0  0  0  0  0  0
  -16.5173  -38.7988  -25.6974 C   0  0  0  0  0  0  0  0  0  0  0  0
  -14.6244  -42.7272  -19.2197 C   0  0  1  0  0  0  0  0  0  0  0  0
  -13.5363  -43.4384  -20.0285 C   0  0  0  0  0  0  0  0  0  0  0  0
  -13.8176  -43.5068  -21.5498 C   0  0  0  0  0  0  0  0  0  0  0  0
  -16.0559  -44.1392  -20.7905 C   0  0  1  0  0  0  0  0  0  0  0  0
  -16.0003  -43.3575  -19.4689 C   0  0  0  0  0  0  0  0  0  0  0  0
  -19.8047  -45.0162  -21.3554 C   0  0  0  0  0  0  0  0  0  0  0  0
  -19.1541  -46.2175  -21.1864 C   0  0  0  0  0  0  0  0  0  0  0  0
  -17.7650  -46.0339  -21.0178 C   0  0  0  0  0  0  0  0  0  0  0  0
  -17.4183  -44.6962  -21.0397 C   0  0  0  0  0  0  0  0  0  0  0  0
  -18.7548  -43.6860  -21.3316 S   0  0  0  0  0  0  0  0  0  0  0  0
  -14.8015  -39.7105  -23.4245 H   0  0  0  0  0  0  0  0  0  0  0  0
  -14.4293  -39.2079  -25.5089 H   0  0  0  0  0  0  0  0  0  0  0  0
  -15.3580  -40.5495  -26.1039 H   0  0  0  0  0  0  0  0  0  0  0  0
  -19.6198  -36.2934  -24.1722 H   0  0  0  0  0  0  0  0  0  0  0  0
  -18.7051  -35.1026  -25.1293 H   0  0  0  0  0  0  0  0  0  0  0  0
  -20.0529  -35.9866  -25.8595 H   0  0  0  0  0  0  0  0  0  0  0  0
  -13.2176  -42.5082  -17.5647 H   0  0  0  0  0  0  0  0  0  0  0  0
  -14.5126  -43.6344  -17.2241 H   0  0  0  0  0  0  0  0  0  0  0  0
  -16.1789  -42.8733  -16.1319 H   0  0  0  0  0  0  0  0  0  0  0  0
  -16.1911  -44.1317  -25.3185 H   0  0  0  0  0  0  0  0  0  0  0  0
  -16.7467  -42.0298  -25.5385 H   0  0  0  0  0  0  0  0  0  0  0  0
  -17.6306  -41.9429  -24.0395 H   0  0  0  0  0  0  0  0  0  0  0  0
  -14.5433  -41.9895  -24.1631 H   0  0  0  0  0  0  0  0  0  0  0  0
  -14.9755  -41.2939  -21.6970 H   0  0  0  0  0  0  0  0  0  0  0  0
  -16.6542  -41.6924  -21.9323 H   0  0  0  0  0  0  0  0  0  0  0  0
  -15.7314  -45.3196  -23.0704 H   0  0  0  0  0  0  0  0  0  0  0  0
  -14.5560  -44.2725  -23.8157 H   0  0  0  0  0  0  0  0  0  0  0  0
  -17.3340  -39.4533  -27.6220 H   0  0  0  0  0  0  0  0  0  0  0  0
  -14.6608  -41.6912  -19.5791 H   0  0  0  0  0  0  0  0  0  0  0  0
  -12.5688  -42.9449  -19.8747 H   0  0  0  0  0  0  0  0  0  0  0  0
  -13.4135  -44.4604  -19.6488 H   0  0  0  0  0  0  0  0  0  0  0  0
  -13.2646  -42.6966  -22.0345 H   0  0  0  0  0  0  0  0  0  0  0  0
  -13.3615  -44.4319  -21.9198 H   0  0  0  0  0  0  0  0  0  0  0  0
  -15.4641  -45.0514  -20.5945 H   0  0  0  0  0  0  0  0  0  0  0  0
  -16.2672  -44.0391  -18.6497 H   0  0  0  0  0  0  0  0  0  0  0  0
  -16.7533  -42.5597  -19.4443 H   0  0  0  0  0  0  0  0  0  0  0  0
  -20.8578  -44.8215  -21.4856 H   0  0  0  0  0  0  0  0  0  0  0  0
  -19.6393  -47.1839  -21.1718 H   0  0  0  0  0  0  0  0  0  0  0  0
  -17.0602  -46.8420  -20.8622 H   0  0  0  0  0  0  0  0  0  0  0  0
  3  2  1  0
  7  8  2  0
  5  8  1  0
  8  6  1  0
  9 14  1  0
  9  1  1  0
  9 10  1  0
 10 11  1  0
 11  2  1  0
 11 12  1  0
 13 12  1  1
 13 14  1  0
 15 16  1  0
 15 19  2  0
 16 17  2  0
 17  4  1  0
 17 18  1  0
 18 19  1  0
 19  3  1  0
 20 24  1  0
 20  5  1  0
 20 21  1  0
 21 22  1  0
 23 28  1  0
 23 24  1  0
 25 26  2  0
 25 29  1  0
 26 27  1  0
 27 28  2  0
 28 29  1  0
 13 22  1  0
 13 23  1  0
  2 30  1  0
  3 31  1  0
  3 32  1  0
  4 33  1  0
  4 34  1  0
  4 35  1  0
  5 36  1  0
  5 37  1  0
  6 38  1  0
  9 39  1  6
 10 40  1  0
 10 41  1  0
 11 42  1  6
 12 43  1  0
 12 44  1  0
 14 45  1  0
 14 46  1  0
 15 47  1  0
 20 48  1  6
 21 49  1  0
 21 50  1  0
 22 51  1  0
 22 52  1  0
 23 53  1  1
 24 54  1  0
 24 55  1  0
 25 56  1  0
 26 57  1  0
 27 58  1  0
M  END
>  <smiles>  (222) 
[H]OC(=O)C([H])([H])[C@@]1([H])C([H])([H])C([H])([H])[C@]2(C([H])([H])[C@@]([H])(F)C([H])([H])[C@@]([H])(N([H])C([H])([H])c3sc(C([H])([H])[H])nc3[H])C2([H])[H])[C@]([H])(c2sc([H])c([H])c2[H])C1([H])[H]

>  <error>  (222) 


>  <∆∆G>  (222) 
-209.24677

>  <∆G_bound>  (222) 
158.893795

>  <∆G_unbound>  (222) 
368.140564

>  <comRMSD>  (222) 
1.489421

>  <N_constrained_atoms>  (222) 
29.0

>  <N_unconstrained_atoms>  (222) 
0.0

>  <runtime>  (222) 
3.517645

>  <regarded>  (222) 
['d0615b', '6h80-a']

>  <disregarded>  (222) 
[]

>  <LE>  (222) 
7.215406

>  <outcome>  (222) 
too moved

>  <percent_hybrid>  (222) 
49.0

$$$$

     RDKit          2D

  0  0  0  0  0  0  0  0  0  0999 V2000
M  END
>  <smiles>  (223) 
nan

>  <error>  (223) 
RuntimeError No sub-structure match found between the reference and probe mol

>  <∆∆G>  (223) 
nan

>  <∆G_bound>  (223) 
nan

>  <∆G_unbound>  (223) 
nan

>  <comRMSD>  (223) 
nan

>  <N_constrained_atoms>  (223) 
nan

>  <N_unconstrained_atoms>  (223) 
nan

>  <runtime>  (223) 
nan

>  <regarded>  (223) 
[]

>  <disregarded>  (223) 
[]

>  <LE>  (223) 
nan

>  <outcome>  (223) 
crashed

>  <percent_hybrid>  (223) 
nan

$$$$
LIG
     RDKit          3D

 44 46  0  0  0  0  0  0  0  0999 V2000
  -18.6172  -44.6880  -24.0843 F   0  0  0  0  0  0  0  0  0  0  0  0
  -19.1775  -36.9960  -24.4893 C   0  0  0  0  0  0  0  0  0  0  0  0
  -16.9932  -40.1415  -27.3424 O   0  0  0  0  0  0  0  0  0  0  0  0
  -15.4296  -44.0572  -21.0768 O   0  0  0  0  0  0  0  0  0  0  0  0
  -17.4986  -43.9599  -23.7946 C   0  0  1  0  0  0  0  0  0  0  0  0
  -17.5839  -42.6757  -24.5985 C   0  0  2  0  0  0  0  0  0  0  0  0
  -18.7095  -41.6918  -24.2596 C   0  0  0  0  0  0  0  0  0  0  0  0
  -15.6640  -41.9139  -22.3633 C   0  0  2  0  0  0  0  0  0  0  0  0
  -16.0785  -43.3134  -21.8164 C   0  0  0  0  0  0  0  0  0  0  0  0
  -17.4443  -43.7766  -22.2891 C   0  0  0  0  0  0  0  0  0  0  0  0
  -16.9561  -38.8489  -26.7795 C   0  0  1  0  0  0  0  0  0  0  0  0
  -18.2293  -38.5744  -26.1272 N   0  0  0  0  0  0  0  0  0  0  0  0
  -18.1023  -37.2545  -25.5286 C   0  0  2  0  0  0  0  0  0  0  0  0
  -16.4612  -37.1973  -24.7777 S   0  0  0  0  0  0  0  0  0  0  0  0
  -15.8306  -38.6262  -25.7390 C   0  0  1  0  0  0  0  0  0  0  0  0
  -19.1651  -41.9235  -25.6870 C   0  0  0  0  0  0  0  0  0  0  0  0
  -14.0843  -40.7740  -22.8551 C   0  0  2  0  0  0  0  0  0  0  0  0
  -14.4800  -39.5289  -23.6562 C   0  0  0  0  0  0  0  0  0  0  0  0
  -15.4766  -39.7958  -24.8098 C   0  0  0  0  0  0  0  0  0  0  0  0
  -19.1610  -37.7410  -23.6849 H   0  0  0  0  0  0  0  0  0  0  0  0
  -19.0644  -36.0039  -24.0380 H   0  0  0  0  0  0  0  0  0  0  0  0
  -20.1717  -37.0332  -24.9494 H   0  0  0  0  0  0  0  0  0  0  0  0
  -16.1322  -40.2857  -27.7749 H   0  0  0  0  0  0  0  0  0  0  0  0
  -16.6239  -44.5229  -24.1212 H   0  0  0  0  0  0  0  0  0  0  0  0
  -16.6059  -42.2295  -24.7522 H   0  0  0  0  0  0  0  0  0  0  0  0
  -18.1989  -43.0762  -21.9187 H   0  0  0  0  0  0  0  0  0  0  0  0
  -17.6624  -44.7372  -21.8062 H   0  0  0  0  0  0  0  0  0  0  0  0
  -16.8234  -38.1455  -27.6122 H   0  0  0  0  0  0  0  0  0  0  0  0
  -18.9718  -38.6114  -26.8139 H   0  0  0  0  0  0  0  0  0  0  0  0
  -18.1540  -36.4803  -26.3030 H   0  0  0  0  0  0  0  0  0  0  0  0
  -19.0865  -41.0864  -26.3775 H   0  0  0  0  0  0  0  0  0  0  0  0
  -18.1395  -42.9100  -25.9088 O   0  0  0  0  0  0  0  0  0  0  0  0
  -14.6479  -41.9779  -23.3784 O   0  0  0  0  0  0  0  0  0  0  0  0
  -14.8243  -41.0105  -21.6352 O   0  0  0  0  0  0  0  0  0  0  0  0
  -14.8745  -38.7756  -22.9662 H   0  0  0  0  0  0  0  0  0  0  0  0
  -13.5714  -39.1018  -24.0887 H   0  0  0  0  0  0  0  0  0  0  0  0
  -15.0891  -40.6105  -25.4336 H   0  0  0  0  0  0  0  0  0  0  0  0
  -16.4078  -40.1374  -24.3682 H   0  0  0  0  0  0  0  0  0  0  0  0
  -18.4226  -40.6662  -24.0291 H   0  0  0  0  0  0  0  0  0  0  0  0
  -19.4390  -42.0300  -23.5180 H   0  0  0  0  0  0  0  0  0  0  0  0
  -16.5510  -41.3517  -22.6648 H   0  0  0  0  0  0  0  0  0  0  0  0
  -14.9436  -38.3793  -26.3181 H   0  0  0  0  0  0  0  0  0  0  0  0
  -20.1653  -42.3596  -25.7763 H   0  0  0  0  0  0  0  0  0  0  0  0
  -13.0157  -40.8371  -22.6439 H   0  0  0  0  0  0  0  0  0  0  0  0
  5 10  1  0
  5  1  1  0
  5  6  1  0
  6  7  1  0
  8  9  1  0
  9 10  1  0
 11 12  1  0
 11 15  1  0
 12 13  1  0
 13  2  1  0
 13 14  1  0
 14 15  1  0
 17 18  1  0
 18 19  1  0
  7 16  1  0
 15 19  1  0
 11  3  1  0
  4  9  2  0
  2 20  1  0
  2 21  1  0
  2 22  1  0
  3 23  1  0
  5 24  1  6
  6 25  1  6
 10 26  1  0
 10 27  1  0
 11 28  1  6
 12 29  1  0
 13 30  1  6
 16 31  1  0
 16 32  1  0
 17 33  1  0
 17 34  1  0
 18 35  1  0
 18 36  1  0
 19 37  1  0
 19 38  1  0
 32  6  1  0
 33  8  1  0
 34  8  1  0
  7 39  1  0
  7 40  1  0
  8 41  1  6
 15 42  1  1
 16 43  1  0
 17 44  1  6
M  END
>  <smiles>  (224) 
[H]O[C@@]1([H])N([H])[C@@]([H])(C([H])([H])[H])S[C@]1([H])C([H])([H])C([H])([H])[C@]1([H])O[C@]([H])(C(=O)C([H])([H])[C@@]([H])(F)[C@@]2([H])OC([H])([H])C2([H])[H])O1

>  <error>  (224) 


>  <∆∆G>  (224) 
-40.75148

>  <∆G_bound>  (224) 
283.247965

>  <∆G_unbound>  (224) 
323.999446

>  <comRMSD>  (224) 
1.294239

>  <N_constrained_atoms>  (224) 
19.0

>  <N_unconstrained_atoms>  (224) 
3.0

>  <runtime>  (224) 
1.603153

>  <regarded>  (224) 
['d0615b', '6izx-a']

>  <disregarded>  (224) 
[]

>  <LE>  (224) 
1.85234

>  <outcome>  (224) 
too moved

>  <percent_hybrid>  (224) 
32.0

$$$$

     RDKit          2D

  0  0  0  0  0  0  0  0  0  0999 V2000
M  END
>  <smiles>  (225) 
nan

>  <error>  (225) 
RuntimeError No sub-structure match found between the reference and probe mol

>  <∆∆G>  (225) 
nan

>  <∆G_bound>  (225) 
nan

>  <∆G_unbound>  (225) 
nan

>  <comRMSD>  (225) 
nan

>  <N_constrained_atoms>  (225) 
nan

>  <N_unconstrained_atoms>  (225) 
nan

>  <runtime>  (225) 
nan

>  <regarded>  (225) 
[]

>  <disregarded>  (225) 
[]

>  <LE>  (225) 
nan

>  <outcome>  (225) 
crashed

>  <percent_hybrid>  (225) 
nan

$$$$
LIG
     RDKit          3D

 64 67  0  0  0  0  0  0  0  0999 V2000
  -18.9668  -42.7476  -23.8104 F   0  0  0  0  0  0  0  0  0  0  0  0
  -15.0325  -40.9752  -24.5582 N   0  0  0  0  0  0  0  0  0  0  0  0
  -15.2500  -40.2993  -25.8623 C   0  0  0  0  0  0  0  0  0  0  0  0
  -18.9545  -36.5649  -24.9576 C   0  0  0  0  0  0  0  0  0  0  0  0
  -14.1737  -40.6337  -21.5305 C   0  0  0  0  0  0  0  0  0  0  0  0
  -14.3622  -38.4746  -22.4720 O   0  0  0  0  0  0  0  0  0  0  0  0
  -18.4783  -44.1465  -17.6085 O   0  0  0  0  0  0  0  0  0  0  0  0
  -18.9386  -42.0180  -17.0268 O   0  0  0  0  0  0  0  0  0  0  0  0
  -15.0393  -39.4347  -21.8012 C   0  0  0  0  0  0  0  0  0  0  0  0
  -16.1852  -39.2334  -21.4398 O   0  0  0  0  0  0  0  0  0  0  0  0
  -16.6643  -42.5663  -17.5786 C   0  0  0  0  0  0  0  0  0  0  0  0
  -18.0948  -43.0030  -17.3911 C   0  0  0  0  0  0  0  0  0  0  0  0
  -17.6549  -43.0322  -23.5947 C   0  0  1  0  0  0  0  0  0  0  0  0
  -16.8845  -42.6324  -24.8314 C   0  0  0  0  0  0  0  0  0  0  0  0
  -15.4020  -42.4045  -24.5397 C   0  0  2  0  0  0  0  0  0  0  0  0
  -14.9607  -43.1728  -23.2414 C   0  0  0  0  0  0  0  0  0  0  0  0
  -15.7364  -42.8722  -21.8965 C   0  0  2  0  0  0  0  0  0  0  0  0
  -17.1267  -42.3207  -22.3324 C   0  0  0  0  0  0  0  0  0  0  0  0
  -17.3070  -39.1316  -26.9521 C   0  0  0  0  0  0  0  0  0  0  0  0
  -18.2818  -38.1655  -26.7414 N   0  0  0  0  0  0  0  0  0  0  0  0
  -18.1106  -37.6413  -25.5457 C   0  0  0  0  0  0  0  0  0  0  0  0
  -16.7956  -38.2668  -24.6435 S   0  0  0  0  0  0  0  0  0  0  0  0
  -16.4224  -39.3572  -25.9100 C   0  0  0  0  0  0  0  0  0  0  0  0
  -14.8488  -41.9016  -20.9741 C   0  0  2  0  0  0  0  0  0  0  0  0
  -15.4413  -41.5995  -19.5760 C   0  0  0  0  0  0  0  0  0  0  0  0
  -16.3531  -42.6999  -19.0679 C   0  0  1  0  0  0  0  0  0  0  0  0
  -15.7446  -44.0346  -19.4503 C   0  0  0  0  0  0  0  0  0  0  0  0
  -15.8145  -44.2322  -20.9976 C   0  0  1  0  0  0  0  0  0  0  0  0
  -17.8365  -47.4028  -21.4323 C   0  0  0  0  0  0  0  0  0  0  0  0
  -18.9450  -46.6316  -21.2273 C   0  0  0  0  0  0  0  0  0  0  0  0
  -18.5782  -44.9852  -21.0591 S   0  0  0  0  0  0  0  0  0  0  0  0
  -16.8968  -45.2710  -21.2296 C   0  0  0  0  0  0  0  0  0  0  0  0
  -16.6636  -46.6297  -21.3113 C   0  0  0  0  0  0  0  0  0  0  0  0
  -14.0197  -40.9382  -24.4175 H   0  0  0  0  0  0  0  0  0  0  0  0
  -14.3559  -39.7012  -26.0810 H   0  0  0  0  0  0  0  0  0  0  0  0
  -15.3228  -41.0278  -26.6789 H   0  0  0  0  0  0  0  0  0  0  0  0
  -19.4387  -36.9078  -24.0378 H   0  0  0  0  0  0  0  0  0  0  0  0
  -18.3542  -35.6777  -24.7320 H   0  0  0  0  0  0  0  0  0  0  0  0
  -19.7391  -36.2697  -25.6619 H   0  0  0  0  0  0  0  0  0  0  0  0
  -13.5917  -40.8750  -22.4196 H   0  0  0  0  0  0  0  0  0  0  0  0
  -13.4372  -40.2947  -20.7875 H   0  0  0  0  0  0  0  0  0  0  0  0
  -15.0728  -37.8229  -22.6555 H   0  0  0  0  0  0  0  0  0  0  0  0
  -18.5174  -41.1545  -16.8630 H   0  0  0  0  0  0  0  0  0  0  0  0
  -16.5485  -41.5316  -17.2388 H   0  0  0  0  0  0  0  0  0  0  0  0
  -16.0164  -43.1862  -16.9503 H   0  0  0  0  0  0  0  0  0  0  0  0
  -17.5924  -44.1173  -23.5065 H   0  0  0  0  0  0  0  0  0  0  0  0
  -16.9860  -43.4299  -25.5773 H   0  0  0  0  0  0  0  0  0  0  0  0
  -17.3733  -41.7723  -25.2954 H   0  0  0  0  0  0  0  0  0  0  0  0
  -14.8377  -42.8698  -25.3474 H   0  0  0  0  0  0  0  0  0  0  0  0
  -15.0895  -44.2402  -23.4734 H   0  0  0  0  0  0  0  0  0  0  0  0
  -13.8835  -43.0596  -23.0894 H   0  0  0  0  0  0  0  0  0  0  0  0
  -17.0525  -41.2545  -22.5658 H   0  0  0  0  0  0  0  0  0  0  0  0
  -17.8717  -42.3582  -21.5385 H   0  0  0  0  0  0  0  0  0  0  0  0
  -17.2779  -39.6434  -27.9065 H   0  0  0  0  0  0  0  0  0  0  0  0
  -13.9638  -42.5261  -20.7576 H   0  0  0  0  0  0  0  0  0  0  0  0
  -14.6103  -41.4457  -18.8737 H   0  0  0  0  0  0  0  0  0  0  0  0
  -16.0120  -40.6669  -19.5696 H   0  0  0  0  0  0  0  0  0  0  0  0
  -17.3062  -42.5887  -19.5919 H   0  0  0  0  0  0  0  0  0  0  0  0
  -14.6940  -44.0654  -19.1285 H   0  0  0  0  0  0  0  0  0  0  0  0
  -16.2285  -44.8574  -18.9094 H   0  0  0  0  0  0  0  0  0  0  0  0
  -14.8731  -44.7566  -21.2316 H   0  0  0  0  0  0  0  0  0  0  0  0
  -17.8607  -48.4749  -21.5687 H   0  0  0  0  0  0  0  0  0  0  0  0
  -19.9517  -46.9812  -21.1154 H   0  0  0  0  0  0  0  0  0  0  0  0
  -15.6692  -47.0454  -21.2807 H   0  0  0  0  0  0  0  0  0  0  0  0
  3  2  1  0
 11 12  1  0
 12  7  2  0
 12  8  1  0
  5  9  1  0
 10  9  2  0
  9  6  1  0
 13 18  1  0
 13  1  1  0
 13 14  1  0
 14 15  1  0
 15  2  1  0
 15 16  1  0
 17 16  1  6
 17 18  1  0
 19 20  1  0
 19 23  2  0
 20 21  2  0
 21  4  1  0
 21 22  1  0
 22 23  1  0
 23  3  1  0
 24 25  1  0
 24  5  1  0
 25 26  1  0
 26 27  1  0
 26 11  1  0
 27 28  1  0
 28 32  1  0
 29 30  2  0
 29 33  1  0
 30 31  1  0
 31 32  1  0
 32 33  2  0
 17 24  1  0
 17 28  1  0
  2 34  1  0
  3 35  1  0
  3 36  1  0
  4 37  1  0
  4 38  1  0
  4 39  1  0
  5 40  1  0
  5 41  1  0
  6 42  1  0
  8 43  1  0
 11 44  1  0
 11 45  1  0
 13 46  1  1
 14 47  1  0
 14 48  1  0
 15 49  1  6
 16 50  1  0
 16 51  1  0
 18 52  1  0
 18 53  1  0
 19 54  1  0
 24 55  1  1
 25 56  1  0
 25 57  1  0
 26 58  1  1
 27 59  1  0
 27 60  1  0
 28 61  1  6
 29 62  1  0
 30 63  1  0
 33 64  1  0
M  END
>  <smiles>  (226) 
[H]OC(=O)C([H])([H])[C@]1([H])C([H])([H])[C@]([H])(C([H])([H])C(=O)O[H])[C@]2(C([H])([H])[C@@]([H])(F)C([H])([H])[C@@]([H])(N([H])C([H])([H])c3sc(C([H])([H])[H])nc3[H])C2([H])[H])[C@]([H])(c2sc([H])c([H])c2[H])C1([H])[H]

>  <error>  (226) 


>  <∆∆G>  (226) 
-113.91906

>  <∆G_bound>  (226) 
136.996697

>  <∆G_unbound>  (226) 
250.915756

>  <comRMSD>  (226) 
1.449454

>  <N_constrained_atoms>  (226) 
33.0

>  <N_unconstrained_atoms>  (226) 
0.0

>  <runtime>  (226) 
5.255279

>  <regarded>  (226) 
['d0615b', '5hmx-b']

>  <disregarded>  (226) 
[]

>  <LE>  (226) 
3.452093

>  <outcome>  (226) 
too moved

>  <percent_hybrid>  (226) 
46.0

$$$$
LIG
     RDKit          3D

 86 90  0  0  0  0  0  0  0  0999 V2000
  -19.3899  -42.9597  -22.1587 F   0  0  0  0  0  0  0  0  0  0  0  0
  -15.8606  -40.5251  -24.3938 N   0  0  0  0  0  0  0  0  0  0  0  0
  -15.7172  -39.9031  -25.7147 C   0  0  0  0  0  0  0  0  0  0  0  0
  -19.2522  -36.0180  -25.1229 C   0  0  0  0  0  0  0  0  0  0  0  0
  -12.7932  -42.6808  -18.3658 O   0  0  0  0  0  0  0  0  0  0  0  0
  -17.3735  -41.4458  -14.7317 O   0  0  0  0  0  0  0  0  0  0  0  0
  -12.4186  -38.8228  -15.5865 O   0  0  0  0  0  0  0  0  0  0  0  0
  -19.3437  -45.7137  -24.3941 C   0  0  0  0  0  0  0  0  0  0  0  0
  -20.0146  -46.0054  -25.3537 C   0  0  0  0  0  0  0  0  0  0  0  0
  -20.7578  -46.4530  -26.5468 C   0  0  0  0  0  0  0  0  0  0  0  0
  -14.3669  -44.4760  -16.6274 O   0  0  0  0  0  0  0  0  0  0  0  0
  -15.0264  -43.6272  -17.0863 C   0  0  0  0  0  0  0  0  0  0  0  0
  -15.8702  -42.5249  -16.3944 N   0  0  0  0  0  0  0  0  0  0  0  0
  -16.1899  -42.2684  -14.8082 S   0  0  0  0  0  0  0  0  0  0  0  0
  -16.0100  -43.5039  -14.0961 O   0  0  0  0  0  0  0  0  0  0  0  0
  -13.0600  -38.4130  -16.7865 C   0  0  0  0  0  0  0  0  0  0  0  0
  -12.0801  -41.6122  -18.9872 C   0  0  0  0  0  0  0  0  0  0  0  0
  -14.5047  -44.6673  -22.4234 O   0  0  0  0  0  0  0  0  0  0  0  0
  -13.4060  -44.1952  -23.1748 C   0  0  0  0  0  0  0  0  0  0  0  0
  -21.9247  -45.6666  -26.7199 O   0  0  0  0  0  0  0  0  0  0  0  0
  -18.4651  -43.0196  -23.1361 C   0  0  1  0  0  0  0  0  0  0  0  0
  -17.6919  -41.6967  -23.1795 C   0  0  0  0  0  0  0  0  0  0  0  0
  -16.7652  -41.6936  -24.3942 C   0  0  2  0  0  0  0  0  0  0  0  0
  -15.9081  -42.9382  -24.2780 C   0  0  0  0  0  0  0  0  0  0  0  0
  -16.5679  -44.2191  -24.0627 N   0  0  0  0  0  0  0  0  0  0  0  0
  -17.5862  -44.2917  -22.9983 C   0  0  2  0  0  0  0  0  0  0  0  0
  -17.7266  -38.7862  -26.9344 C   0  0  0  0  0  0  0  0  0  0  0  0
  -18.6680  -37.7790  -26.7845 N   0  0  0  0  0  0  0  0  0  0  0  0
  -18.4301  -37.1336  -25.6592 C   0  0  0  0  0  0  0  0  0  0  0  0
  -17.0562  -37.6459  -24.7745 S   0  0  0  0  0  0  0  0  0  0  0  0
  -16.8037  -38.9038  -25.9163 C   0  0  0  0  0  0  0  0  0  0  0  0
  -14.6752  -44.0550  -21.2084 C   0  0  0  0  0  0  0  0  0  0  0  0
  -13.6117  -43.5426  -20.4616 C   0  0  0  0  0  0  0  0  0  0  0  0
  -13.8013  -43.1801  -19.1421 C   0  0  0  0  0  0  0  0  0  0  0  0
  -15.0299  -43.4562  -18.5510 C   0  0  0  0  0  0  0  0  0  0  0  0
  -16.1326  -43.8613  -19.3192 C   0  0  0  0  0  0  0  0  0  0  0  0
  -15.9778  -44.1194  -20.6947 C   0  0  0  0  0  0  0  0  0  0  0  0
  -12.4819  -40.0127  -13.5813 C   0  0  0  0  0  0  0  0  0  0  0  0
  -13.0457  -40.9349  -12.7005 C   0  0  0  0  0  0  0  0  0  0  0  0
  -14.2167  -41.5868  -13.0577 C   0  0  0  0  0  0  0  0  0  0  0  0
  -14.8153  -41.2958  -14.2898 C   0  0  0  0  0  0  0  0  0  0  0  0
  -14.2688  -40.3616  -15.1642 C   0  0  0  0  0  0  0  0  0  0  0  0
  -13.0878  -39.7244  -14.8100 C   0  0  0  0  0  0  0  0  0  0  0  0
  -18.2909  -45.2101  -20.7883 C   0  0  0  0  0  0  0  0  0  0  0  0
  -19.2032  -45.7645  -21.8597 C   0  0  0  0  0  0  0  0  0  0  0  0
  -18.4772  -45.5858  -23.1990 C   0  0  1  0  0  0  0  0  0  0  0  0
  -17.0447  -44.7704  -21.5512 C   0  0  1  0  0  0  0  0  0  0  0  0
  -14.9316  -40.7858  -24.0686 H   0  0  0  0  0  0  0  0  0  0  0  0
  -14.7536  -39.3818  -25.7536 H   0  0  0  0  0  0  0  0  0  0  0  0
  -15.6923  -40.6509  -26.5164 H   0  0  0  0  0  0  0  0  0  0  0  0
  -19.6387  -36.2578  -24.1272 H   0  0  0  0  0  0  0  0  0  0  0  0
  -18.6662  -35.0954  -25.0620 H   0  0  0  0  0  0  0  0  0  0  0  0
  -20.1089  -35.8282  -25.7777 H   0  0  0  0  0  0  0  0  0  0  0  0
  -21.0268  -47.5108  -26.5072 H   0  0  0  0  0  0  0  0  0  0  0  0
  -20.1488  -46.3242  -27.4407 H   0  0  0  0  0  0  0  0  0  0  0  0
  -16.3861  -42.0025  -17.0953 H   0  0  0  0  0  0  0  0  0  0  0  0
  -14.0251  -37.9388  -16.5786 H   0  0  0  0  0  0  0  0  0  0  0  0
  -12.4211  -37.6661  -17.2677 H   0  0  0  0  0  0  0  0  0  0  0  0
  -13.1722  -39.2488  -17.4828 H   0  0  0  0  0  0  0  0  0  0  0  0
  -11.4168  -41.1718  -18.2369 H   0  0  0  0  0  0  0  0  0  0  0  0
  -11.4659  -41.9589  -19.8218 H   0  0  0  0  0  0  0  0  0  0  0  0
  -12.7680  -40.8312  -19.3302 H   0  0  0  0  0  0  0  0  0  0  0  0
  -12.5712  -44.8564  -23.0417 H   0  0  0  0  0  0  0  0  0  0  0  0
  -13.2089  -43.1702  -22.8963 H   0  0  0  0  0  0  0  0  0  0  0  0
  -13.6318  -44.2046  -24.2410 H   0  0  0  0  0  0  0  0  0  0  0  0
  -22.6764  -46.1904  -26.3705 H   0  0  0  0  0  0  0  0  0  0  0  0
  -19.0362  -43.0775  -24.0717 H   0  0  0  0  0  0  0  0  0  0  0  0
  -18.3984  -40.8597  -23.2342 H   0  0  0  0  0  0  0  0  0  0  0  0
  -17.1362  -41.5665  -22.2422 H   0  0  0  0  0  0  0  0  0  0  0  0
  -17.3747  -41.7382  -25.3061 H   0  0  0  0  0  0  0  0  0  0  0  0
  -15.2873  -43.0243  -25.1753 H   0  0  0  0  0  0  0  0  0  0  0  0
  -15.2505  -42.7312  -23.4397 H   0  0  0  0  0  0  0  0  0  0  0  0
  -15.8312  -44.8934  -23.8243 H   0  0  0  0  0  0  0  0  0  0  0  0
  -17.7718  -39.4247  -27.8082 H   0  0  0  0  0  0  0  0  0  0  0  0
  -12.6038  -43.5427  -20.8600 H   0  0  0  0  0  0  0  0  0  0  0  0
  -17.0681  -44.0751  -18.8091 H   0  0  0  0  0  0  0  0  0  0  0  0
  -11.5545  -39.5125  -13.3106 H   0  0  0  0  0  0  0  0  0  0  0  0
  -12.5610  -41.1540  -11.7529 H   0  0  0  0  0  0  0  0  0  0  0  0
  -14.6424  -42.3335  -12.3906 H   0  0  0  0  0  0  0  0  0  0  0  0
  -14.7587  -40.1682  -16.1095 H   0  0  0  0  0  0  0  0  0  0  0  0
  -18.7787  -44.3721  -20.2773 H   0  0  0  0  0  0  0  0  0  0  0  0
  -18.0665  -45.9713  -20.0316 H   0  0  0  0  0  0  0  0  0  0  0  0
  -19.4142  -46.8205  -21.6615 H   0  0  0  0  0  0  0  0  0  0  0  0
  -20.1371  -45.1957  -21.8197 H   0  0  0  0  0  0  0  0  0  0  0  0
  -17.8049  -46.4504  -23.2669 H   0  0  0  0  0  0  0  0  0  0  0  0
  -16.5499  -45.7405  -21.7518 H   0  0  0  0  0  0  0  0  0  0  0  0
  3  2  1  0
 10 20  1  0
 10  9  1  0
  9  8  3  0
 18 19  1  0
 13 12  1  0
 13 14  1  0
 12 11  2  0
  6 14  2  0
 15 14  2  0
  5 17  1  0
 16  7  1  0
 21 26  1  0
 21  1  1  0
 21 22  1  0
 22 23  1  0
 23  2  1  0
 23 24  1  0
 24 25  1  0
 26 25  1  6
 27 28  1  0
 27 31  2  0
 28 29  2  0
 29  4  1  0
 29 30  1  0
 30 31  1  0
 31  3  1  0
 32 37  2  0
 32 18  1  0
 32 33  1  0
 33 34  2  0
 34 35  1  0
 34  5  1  0
 35 36  2  0
 35 12  1  0
 36 37  1  0
 37 47  1  0
 38 43  2  0
 38 39  1  0
 39 40  2  0
 40 41  1  0
 41 14  1  0
 41 42  2  0
 42 43  1  0
 43  7  1  0
 44 45  1  0
 44 47  1  0
 45 46  1  0
 46  8  1  0
 26 46  1  0
 26 47  1  0
  2 48  1  0
  3 49  1  0
  3 50  1  0
  4 51  1  0
  4 52  1  0
  4 53  1  0
 10 54  1  0
 10 55  1  0
 13 56  1  0
 16 57  1  0
 16 58  1  0
 16 59  1  0
 17 60  1  0
 17 61  1  0
 17 62  1  0
 19 63  1  0
 19 64  1  0
 19 65  1  0
 20 66  1  0
 21 67  1  6
 22 68  1  0
 22 69  1  0
 23 70  1  6
 24 71  1  0
 24 72  1  0
 25 73  1  0
 27 74  1  0
 33 75  1  0
 36 76  1  0
 38 77  1  0
 39 78  1  0
 40 79  1  0
 42 80  1  0
 44 81  1  0
 44 82  1  0
 45 83  1  0
 45 84  1  0
 46 85  1  6
 47 86  1  6
M  END
>  <smiles>  (227) 
[H]OC([H])([H])C#C[C@]1([H])C([H])([H])C([H])([H])[C@]([H])(c2c([H])c(C(=O)N([H])S(=O)(=O)c3c([H])c([H])c([H])c(OC([H])([H])[H])c3[H])c(OC([H])([H])[H])c([H])c2OC([H])([H])[H])[C@@]12N([H])C([H])([H])[C@]([H])(N([H])C([H])([H])c1sc(C([H])([H])[H])nc1[H])C([H])([H])[C@]2([H])F

>  <error>  (227) 


>  <∆∆G>  (227) 
-100.38155

>  <∆G_bound>  (227) 
282.569185

>  <∆G_unbound>  (227) 
382.950735

>  <comRMSD>  (227) 
1.01393

>  <N_constrained_atoms>  (227) 
47.0

>  <N_unconstrained_atoms>  (227) 
0.0

>  <runtime>  (227) 
147.899689

>  <regarded>  (227) 
['d0615b', '5k5m-a']

>  <disregarded>  (227) 
[]

>  <LE>  (227) 
2.135778

>  <outcome>  (227) 
too moved

>  <percent_hybrid>  (227) 
32.0

$$$$

     RDKit          2D

  0  0  0  0  0  0  0  0  0  0999 V2000
M  END
>  <smiles>  (228) 
nan

>  <error>  (228) 
RuntimeError No sub-structure match found between the reference and probe mol

>  <∆∆G>  (228) 
nan

>  <∆G_bound>  (228) 
nan

>  <∆G_unbound>  (228) 
nan

>  <comRMSD>  (228) 
nan

>  <N_constrained_atoms>  (228) 
nan

>  <N_unconstrained_atoms>  (228) 
nan

>  <runtime>  (228) 
nan

>  <regarded>  (228) 
[]

>  <disregarded>  (228) 
[]

>  <LE>  (228) 
nan

>  <outcome>  (228) 
crashed

>  <percent_hybrid>  (228) 
nan

$$$$

     RDKit          2D

  0  0  0  0  0  0  0  0  0  0999 V2000
M  END
>  <smiles>  (229) 
nan

>  <error>  (229) 
RuntimeError No sub-structure match found between the reference and probe mol

>  <∆∆G>  (229) 
nan

>  <∆G_bound>  (229) 
nan

>  <∆G_unbound>  (229) 
nan

>  <comRMSD>  (229) 
nan

>  <N_constrained_atoms>  (229) 
nan

>  <N_unconstrained_atoms>  (229) 
nan

>  <runtime>  (229) 
nan

>  <regarded>  (229) 
[]

>  <disregarded>  (229) 
[]

>  <LE>  (229) 
nan

>  <outcome>  (229) 
crashed

>  <percent_hybrid>  (229) 
nan

$$$$
LIG
     RDKit          3D

 61 64  0  0  0  0  0  0  0  0999 V2000
  -18.7251  -43.1864  -24.6166 F   0  0  0  0  0  0  0  0  0  0  0  0
  -15.3917  -40.7135  -24.2419 N   0  0  0  0  0  0  0  0  0  0  0  0
  -15.3124  -40.0353  -25.5478 C   0  0  0  0  0  0  0  0  0  0  0  0
  -18.9766  -36.2371  -24.9092 C   0  0  0  0  0  0  0  0  0  0  0  0
  -15.0369  -43.4394  -17.7778 C   0  0  0  0  0  0  0  0  0  0  0  0
  -15.2906  -42.4389  -15.6173 O   0  0  0  0  0  0  0  0  0  0  0  0
  -13.3677  -42.0530  -16.7339 O   0  0  0  0  0  0  0  0  0  0  0  0
  -14.4689  -42.5776  -16.6794 C   0  0  0  0  0  0  0  0  0  0  0  0
  -17.5063  -43.2876  -24.0160 C   0  0  1  0  0  0  0  0  0  0  0  0
  -16.4420  -42.8185  -24.9901 C   0  0  0  0  0  0  0  0  0  0  0  0
  -15.2283  -42.1689  -24.3068 C   0  0  2  0  0  0  0  0  0  0  0  0
  -14.9662  -42.7900  -22.8813 C   0  0  1  0  0  0  0  0  0  0  0  0
  -16.2103  -42.7522  -21.8717 C   0  0  0  0  0  0  0  0  0  0  0  0
  -17.5023  -42.5070  -22.7051 C   0  0  0  0  0  0  0  0  0  0  0  0
  -17.2919  -38.8719  -26.7748 C   0  0  0  0  0  0  0  0  0  0  0  0
  -18.2626  -37.8934  -26.6210 N   0  0  0  0  0  0  0  0  0  0  0  0
  -18.1138  -37.3253  -25.4415 C   0  0  0  0  0  0  0  0  0  0  0  0
  -16.8152  -37.9105  -24.4839 S   0  0  0  0  0  0  0  0  0  0  0  0
  -16.4348  -39.0559  -25.7049 C   0  0  0  0  0  0  0  0  0  0  0  0
  -15.9550  -42.6457  -18.7145 C   0  0  1  0  0  0  0  0  0  0  0  0
  -15.1568  -41.7737  -19.6998 C   0  0  0  0  0  0  0  0  0  0  0  0
  -15.9853  -41.4807  -20.9611 C   0  0  0  0  0  0  0  0  0  0  0  0
  -16.3333  -43.9875  -20.8513 C   0  0  1  0  0  0  0  0  0  0  0  0
  -16.9132  -43.5688  -19.4761 C   0  0  0  0  0  0  0  0  0  0  0  0
  -18.6185  -47.0823  -21.8216 C   0  0  0  0  0  0  0  0  0  0  0  0
  -17.4326  -47.5778  -21.3497 C   0  0  0  0  0  0  0  0  0  0  0  0
  -16.5282  -46.5448  -21.0105 C   0  0  0  0  0  0  0  0  0  0  0  0
  -17.0370  -45.2780  -21.2335 C   0  0  0  0  0  0  0  0  0  0  0  0
  -18.6850  -45.3900  -21.6928 S   0  0  0  0  0  0  0  0  0  0  0  0
  -14.3784  -44.1764  -23.0851 C   0  0  0  0  0  0  0  0  0  0  0  0
  -14.6805  -40.3068  -23.6371 H   0  0  0  0  0  0  0  0  0  0  0  0
  -14.3543  -39.5092  -25.6207 H   0  0  0  0  0  0  0  0  0  0  0  0
  -15.3280  -40.7411  -26.3870 H   0  0  0  0  0  0  0  0  0  0  0  0
  -19.4788  -36.5517  -23.9889 H   0  0  0  0  0  0  0  0  0  0  0  0
  -18.3879  -35.3380  -24.7010 H   0  0  0  0  0  0  0  0  0  0  0  0
  -19.7480  -35.9714  -25.6394 H   0  0  0  0  0  0  0  0  0  0  0  0
  -14.2040  -43.8932  -18.3269 H   0  0  0  0  0  0  0  0  0  0  0  0
  -15.5654  -44.2733  -17.3022 H   0  0  0  0  0  0  0  0  0  0  0  0
  -16.1453  -42.9132  -15.6719 H   0  0  0  0  0  0  0  0  0  0  0  0
  -17.3489  -44.3507  -23.8426 H   0  0  0  0  0  0  0  0  0  0  0  0
  -16.0942  -43.6875  -25.5609 H   0  0  0  0  0  0  0  0  0  0  0  0
  -16.9012  -42.1691  -25.7437 H   0  0  0  0  0  0  0  0  0  0  0  0
  -14.3388  -42.3555  -24.9206 H   0  0  0  0  0  0  0  0  0  0  0  0
  -14.1446  -42.2125  -22.4340 H   0  0  0  0  0  0  0  0  0  0  0  0
  -17.6046  -41.4409  -22.9500 H   0  0  0  0  0  0  0  0  0  0  0  0
  -18.4029  -42.7050  -22.1173 H   0  0  0  0  0  0  0  0  0  0  0  0
  -17.2562  -39.4342  -27.7005 H   0  0  0  0  0  0  0  0  0  0  0  0
  -16.5780  -41.9813  -18.0997 H   0  0  0  0  0  0  0  0  0  0  0  0
  -14.8941  -40.8290  -19.2086 H   0  0  0  0  0  0  0  0  0  0  0  0
  -14.2098  -42.2488  -19.9823 H   0  0  0  0  0  0  0  0  0  0  0  0
  -16.9549  -41.0683  -20.6490 H   0  0  0  0  0  0  0  0  0  0  0  0
  -15.5008  -40.6750  -21.5227 H   0  0  0  0  0  0  0  0  0  0  0  0
  -15.3014  -44.2913  -20.6273 H   0  0  0  0  0  0  0  0  0  0  0  0
  -17.1596  -44.4395  -18.8542 H   0  0  0  0  0  0  0  0  0  0  0  0
  -17.8686  -43.0489  -19.6324 H   0  0  0  0  0  0  0  0  0  0  0  0
  -19.4489  -47.6729  -22.1716 H   0  0  0  0  0  0  0  0  0  0  0  0
  -17.2081  -48.6362  -21.2895 H   0  0  0  0  0  0  0  0  0  0  0  0
  -15.5362  -46.7234  -20.6189 H   0  0  0  0  0  0  0  0  0  0  0  0
  -13.9056  -44.5460  -22.1719 H   0  0  0  0  0  0  0  0  0  0  0  0
  -15.1413  -44.8908  -23.3966 H   0  0  0  0  0  0  0  0  0  0  0  0
  -13.5894  -44.1610  -23.8442 H   0  0  0  0  0  0  0  0  0  0  0  0
  3  2  1  0
  7  8  2  0
  5  8  1  0
  8  6  1  0
  9 14  1  0
  9  1  1  0
  9 10  1  0
 10 11  1  0
 11  2  1  0
 11 12  1  0
 12 13  1  0
 13 14  1  0
 15 16  1  0
 15 19  2  0
 16 17  2  0
 17  4  1  0
 17 18  1  0
 18 19  1  0
 19  3  1  0
 20 24  1  0
 20  5  1  0
 20 21  1  0
 21 22  1  0
 23 28  1  0
 23 24  1  0
 25 26  2  0
 25 29  1  0
 26 27  1  0
 27 28  2  0
 28 29  1  0
 13 22  1  0
 13 23  1  0
 12 30  1  0
  2 31  1  0
  3 32  1  0
  3 33  1  0
  4 34  1  0
  4 35  1  0
  4 36  1  0
  5 37  1  0
  5 38  1  0
  6 39  1  0
  9 40  1  1
 10 41  1  0
 10 42  1  0
 11 43  1  6
 12 44  1  1
 14 45  1  0
 14 46  1  0
 15 47  1  0
 20 48  1  1
 21 49  1  0
 21 50  1  0
 22 51  1  0
 22 52  1  0
 23 53  1  1
 24 54  1  0
 24 55  1  0
 25 56  1  0
 26 57  1  0
 27 58  1  0
 30 59  1  0
 30 60  1  0
 30 61  1  0
M  END
>  <smiles>  (230) 
[H]OC(=O)C([H])([H])[C@@]1([H])C([H])([H])C([H])([H])C2(C([H])([H])[C@@]([H])(F)C([H])([H])[C@@]([H])(N([H])C([H])([H])c3sc(C([H])([H])[H])nc3[H])[C@]2([H])C([H])([H])[H])[C@]([H])(c2sc([H])c([H])c2[H])C1([H])[H]

>  <error>  (230) 


>  <∆∆G>  (230) 
-85.743739

>  <∆G_bound>  (230) 
119.954745

>  <∆G_unbound>  (230) 
205.698484

>  <comRMSD>  (230) 
1.377327

>  <N_constrained_atoms>  (230) 
30.0

>  <N_unconstrained_atoms>  (230) 
0.0

>  <runtime>  (230) 
3.673141

>  <regarded>  (230) 
['d0615b', '5f3z-a']

>  <disregarded>  (230) 
[]

>  <LE>  (230) 
2.858125

>  <outcome>  (230) 
too moved

>  <percent_hybrid>  (230) 
50.0

$$$$
LIG
     RDKit          3D

 58 61  0  0  0  0  0  0  0  0999 V2000
  -19.1890  -42.7916  -24.1278 F   0  0  0  0  0  0  0  0  0  0  0  0
  -15.0708  -41.0952  -24.3306 N   0  0  0  0  0  0  0  0  0  0  0  0
  -15.0995  -40.2693  -25.5611 C   0  0  0  0  0  0  0  0  0  0  0  0
  -18.8317  -36.5614  -24.7119 C   0  0  0  0  0  0  0  0  0  0  0  0
  -16.3037  -42.2794  -17.5603 C   0  0  0  0  0  0  0  0  0  0  0  0
  -17.7364  -41.5092  -15.8058 O   0  0  0  0  0  0  0  0  0  0  0  0
  -18.6821  -42.7508  -17.4341 O   0  0  0  0  0  0  0  0  0  0  0  0
  -17.6929  -42.2174  -16.9550 C   0  0  0  0  0  0  0  0  0  0  0  0
  -17.8960  -43.0869  -23.8353 C   0  0  1  0  0  0  0  0  0  0  0  0
  -17.0170  -42.5375  -24.9349 C   0  0  0  0  0  0  0  0  0  0  0  0
  -15.5447  -42.4808  -24.5180 C   0  0  2  0  0  0  0  0  0  0  0  0
  -15.2868  -43.4057  -23.2747 C   0  0  0  0  0  0  0  0  0  0  0  0
  -16.1045  -43.0357  -21.9843 C   0  0  2  0  0  0  0  0  0  0  0  0
  -17.5065  -42.5282  -22.4567 C   0  0  0  0  0  0  0  0  0  0  0  0
  -17.0633  -39.0221  -26.7299 C   0  0  0  0  0  0  0  0  0  0  0  0
  -18.0498  -38.0708  -26.5243 N   0  0  0  0  0  0  0  0  0  0  0  0
  -17.9555  -37.6157  -25.2917 C   0  0  0  0  0  0  0  0  0  0  0  0
  -16.7132  -38.3112  -24.3284 S   0  0  0  0  0  0  0  0  0  0  0  0
  -16.2549  -39.3137  -25.6440 C   0  0  0  0  0  0  0  0  0  0  0  0
  -16.3602  -42.4219  -19.0908 C   0  0  1  0  0  0  0  0  0  0  0  0
  -15.0580  -42.0247  -19.7629 C   0  0  0  0  0  0  0  0  0  0  0  0
  -15.2833  -41.8837  -21.2743 C   0  0  0  0  0  0  0  0  0  0  0  0
  -16.2155  -44.2300  -20.9462 C   0  0  1  0  0  0  0  0  0  0  0  0
  -16.7402  -43.8302  -19.5366 C   0  0  0  0  0  0  0  0  0  0  0  0
  -18.5665  -47.2764  -21.9198 C   0  0  0  0  0  0  0  0  0  0  0  0
  -17.4248  -47.7935  -21.3668 C   0  0  0  0  0  0  0  0  0  0  0  0
  -16.5101  -46.7833  -20.9881 C   0  0  0  0  0  0  0  0  0  0  0  0
  -16.9507  -45.5114  -21.3016 C   0  0  0  0  0  0  0  0  0  0  0  0
  -18.5744  -45.5840  -21.8408 S   0  0  0  0  0  0  0  0  0  0  0  0
  -14.0951  -41.1451  -24.0351 H   0  0  0  0  0  0  0  0  0  0  0  0
  -14.1867  -39.6624  -25.5766 H   0  0  0  0  0  0  0  0  0  0  0  0
  -15.0580  -40.8936  -26.4608 H   0  0  0  0  0  0  0  0  0  0  0  0
  -19.3891  -36.9476  -23.8527 H   0  0  0  0  0  0  0  0  0  0  0  0
  -18.2418  -35.6969  -24.3910 H   0  0  0  0  0  0  0  0  0  0  0  0
  -19.5564  -36.2163  -25.4565 H   0  0  0  0  0  0  0  0  0  0  0  0
  -15.7922  -41.3402  -17.3178 H   0  0  0  0  0  0  0  0  0  0  0  0
  -15.7500  -43.1004  -17.0934 H   0  0  0  0  0  0  0  0  0  0  0  0
  -16.8699  -41.2053  -15.4813 H   0  0  0  0  0  0  0  0  0  0  0  0
  -17.8184  -44.1714  -23.8811 H   0  0  0  0  0  0  0  0  0  0  0  0
  -17.1185  -43.1748  -25.8216 H   0  0  0  0  0  0  0  0  0  0  0  0
  -17.4216  -41.5754  -25.2528 H   0  0  0  0  0  0  0  0  0  0  0  0
  -14.9514  -42.9093  -25.3276 H   0  0  0  0  0  0  0  0  0  0  0  0
  -15.5364  -44.4330  -23.5726 H   0  0  0  0  0  0  0  0  0  0  0  0
  -14.2112  -43.4404  -23.0572 H   0  0  0  0  0  0  0  0  0  0  0  0
  -17.5167  -41.4336  -22.5379 H   0  0  0  0  0  0  0  0  0  0  0  0
  -18.2850  -42.7405  -21.7174 H   0  0  0  0  0  0  0  0  0  0  0  0
  -16.9718  -39.4771  -27.7094 H   0  0  0  0  0  0  0  0  0  0  0  0
  -17.1380  -41.7343  -19.4545 H   0  0  0  0  0  0  0  0  0  0  0  0
  -14.6978  -41.0639  -19.3759 H   0  0  0  0  0  0  0  0  0  0  0  0
  -14.2691  -42.7586  -19.5567 H   0  0  0  0  0  0  0  0  0  0  0  0
  -15.7716  -40.9174  -21.4528 H   0  0  0  0  0  0  0  0  0  0  0  0
  -14.2845  -41.7814  -21.7161 H   0  0  0  0  0  0  0  0  0  0  0  0
  -15.1693  -44.5449  -20.7947 H   0  0  0  0  0  0  0  0  0  0  0  0
  -16.3652  -44.5670  -18.8119 H   0  0  0  0  0  0  0  0  0  0  0  0
  -17.8331  -43.9139  -19.4977 H   0  0  0  0  0  0  0  0  0  0  0  0
  -19.3973  -47.8430  -22.3093 H   0  0  0  0  0  0  0  0  0  0  0  0
  -17.2297  -48.8543  -21.2772 H   0  0  0  0  0  0  0  0  0  0  0  0
  -15.5545  -46.9843  -20.5242 H   0  0  0  0  0  0  0  0  0  0  0  0
  3  2  1  0
  7  8  2  0
  5  8  1  0
  8  6  1  0
  9 14  1  0
  9  1  1  0
  9 10  1  0
 10 11  1  0
 11  2  1  0
 11 12  1  0
 13 12  1  6
 13 14  1  0
 15 16  1  0
 15 19  2  0
 16 17  2  0
 17  4  1  0
 17 18  1  0
 18 19  1  0
 19  3  1  0
 20 24  1  0
 20  5  1  0
 20 21  1  0
 21 22  1  0
 23 28  1  0
 23 24  1  0
 25 26  2  0
 25 29  1  0
 26 27  1  0
 27 28  2  0
 28 29  1  0
 13 22  1  0
 13 23  1  0
  2 30  1  0
  3 31  1  0
  3 32  1  0
  4 33  1  0
  4 34  1  0
  4 35  1  0
  5 36  1  0
  5 37  1  0
  6 38  1  0
  9 39  1  1
 10 40  1  0
 10 41  1  0
 11 42  1  6
 12 43  1  0
 12 44  1  0
 14 45  1  0
 14 46  1  0
 15 47  1  0
 20 48  1  6
 21 49  1  0
 21 50  1  0
 22 51  1  0
 22 52  1  0
 23 53  1  1
 24 54  1  0
 24 55  1  0
 25 56  1  0
 26 57  1  0
 27 58  1  0
M  END
>  <smiles>  (231) 
[H]OC(=O)C([H])([H])[C@@]1([H])C([H])([H])C([H])([H])[C@]2(C([H])([H])[C@@]([H])(F)C([H])([H])[C@@]([H])(N([H])C([H])([H])c3sc(C([H])([H])[H])nc3[H])C2([H])[H])[C@]([H])(c2sc([H])c([H])c2[H])C1([H])[H]

>  <error>  (231) 


>  <∆∆G>  (231) 
-208.344058

>  <∆G_bound>  (231) 
151.694165

>  <∆G_unbound>  (231) 
360.038223

>  <comRMSD>  (231) 
1.310056

>  <N_constrained_atoms>  (231) 
29.0

>  <N_unconstrained_atoms>  (231) 
0.0

>  <runtime>  (231) 
3.764781

>  <regarded>  (231) 
['d0615b', '6h9r-a']

>  <disregarded>  (231) 
[]

>  <LE>  (231) 
7.184278

>  <outcome>  (231) 
too moved

>  <percent_hybrid>  (231) 
49.0

$$$$
LIG
     RDKit          3D

 64 67  0  0  0  0  0  0  0  0999 V2000
  -18.7364  -42.9807  -24.1563 F   0  0  0  0  0  0  0  0  0  0  0  0
  -15.3305  -40.6899  -24.2859 N   0  0  0  0  0  0  0  0  0  0  0  0
  -15.3402  -40.0489  -25.6131 C   0  0  0  0  0  0  0  0  0  0  0  0
  -18.9855  -36.2478  -24.8762 C   0  0  0  0  0  0  0  0  0  0  0  0
  -18.0392  -40.4325  -17.3688 O   0  0  0  0  0  0  0  0  0  0  0  0
  -18.5502  -41.9379  -15.7870 O   0  0  0  0  0  0  0  0  0  0  0  0
  -17.8376  -41.5235  -16.8544 C   0  0  0  0  0  0  0  0  0  0  0  0
  -16.7720  -42.4924  -17.3256 C   0  0  0  0  0  0  0  0  0  0  0  0
  -17.4614  -43.1698  -23.7129 C   0  0  1  0  0  0  0  0  0  0  0  0
  -16.5032  -42.8021  -24.8354 C   0  0  0  0  0  0  0  0  0  0  0  0
  -15.2038  -42.1504  -24.3373 C   0  0  2  0  0  0  0  0  0  0  0  0
  -14.7586  -42.7534  -22.9539 C   0  0  1  0  0  0  0  0  0  0  0  0
  -15.8523  -42.7268  -21.7694 C   0  0  2  0  0  0  0  0  0  0  0  0
  -17.2103  -42.3555  -22.4408 C   0  0  0  0  0  0  0  0  0  0  0  0
  -17.3317  -38.8643  -26.7931 C   0  0  0  0  0  0  0  0  0  0  0  0
  -18.2965  -37.8842  -26.6176 N   0  0  0  0  0  0  0  0  0  0  0  0
  -18.1329  -37.3325  -25.4320 C   0  0  0  0  0  0  0  0  0  0  0  0
  -16.8258  -37.9345  -24.4964 S   0  0  0  0  0  0  0  0  0  0  0  0
  -16.4633  -39.0653  -25.7353 C   0  0  0  0  0  0  0  0  0  0  0  0
  -15.3960  -41.5691  -20.8303 C   0  0  0  0  0  0  0  0  0  0  0  0
  -16.2318  -41.3487  -19.5678 C   0  0  0  0  0  0  0  0  0  0  0  0
  -16.7145  -42.6233  -18.8653 C   0  0  1  0  0  0  0  0  0  0  0  0
  -15.8420  -43.7952  -19.2937 C   0  0  0  0  0  0  0  0  0  0  0  0
  -15.8890  -44.0533  -20.8288 C   0  0  1  0  0  0  0  0  0  0  0  0
  -19.2529  -45.8353  -21.2623 C   0  0  0  0  0  0  0  0  0  0  0  0
  -18.3192  -44.8470  -21.0115 C   0  0  0  0  0  0  0  0  0  0  0  0
  -16.9554  -45.1166  -21.0580 C   0  0  0  0  0  0  0  0  0  0  0  0
  -16.5761  -46.4564  -21.1986 C   0  0  0  0  0  0  0  0  0  0  0  0
  -17.5146  -47.4610  -21.4194 C   0  0  0  0  0  0  0  0  0  0  0  0
  -18.8530  -47.1385  -21.5049 C   0  0  0  0  0  0  0  0  0  0  0  0
  -14.1884  -44.1319  -23.2415 C   0  0  0  0  0  0  0  0  0  0  0  0
  -14.5622  -40.2892  -23.7512 H   0  0  0  0  0  0  0  0  0  0  0  0
  -14.3860  -39.5335  -25.7701 H   0  0  0  0  0  0  0  0  0  0  0  0
  -15.4204  -40.7824  -26.4251 H   0  0  0  0  0  0  0  0  0  0  0  0
  -19.4800  -36.5731  -23.9554 H   0  0  0  0  0  0  0  0  0  0  0  0
  -18.3907  -35.3543  -24.6614 H   0  0  0  0  0  0  0  0  0  0  0  0
  -19.7628  -35.9686  -25.5950 H   0  0  0  0  0  0  0  0  0  0  0  0
  -18.3914  -42.8363  -15.4121 H   0  0  0  0  0  0  0  0  0  0  0  0
  -15.8088  -42.1704  -16.9153 H   0  0  0  0  0  0  0  0  0  0  0  0
  -16.9950  -43.4773  -16.9048 H   0  0  0  0  0  0  0  0  0  0  0  0
  -17.3733  -44.2403  -23.5216 H   0  0  0  0  0  0  0  0  0  0  0  0
  -16.2466  -43.7181  -25.3812 H   0  0  0  0  0  0  0  0  0  0  0  0
  -17.0219  -42.1808  -25.5745 H   0  0  0  0  0  0  0  0  0  0  0  0
  -14.4081  -42.3611  -25.0606 H   0  0  0  0  0  0  0  0  0  0  0  0
  -13.8952  -42.1600  -22.6253 H   0  0  0  0  0  0  0  0  0  0  0  0
  -17.2211  -41.2913  -22.7104 H   0  0  0  0  0  0  0  0  0  0  0  0
  -18.0509  -42.3983  -21.7533 H   0  0  0  0  0  0  0  0  0  0  0  0
  -17.3067  -39.4142  -27.7265 H   0  0  0  0  0  0  0  0  0  0  0  0
  -15.3552  -40.6209  -21.3815 H   0  0  0  0  0  0  0  0  0  0  0  0
  -14.3625  -41.7624  -20.5081 H   0  0  0  0  0  0  0  0  0  0  0  0
  -15.6414  -40.7309  -18.8793 H   0  0  0  0  0  0  0  0  0  0  0  0
  -17.1083  -40.7439  -19.8333 H   0  0  0  0  0  0  0  0  0  0  0  0
  -17.7426  -42.8057  -19.1923 H   0  0  0  0  0  0  0  0  0  0  0  0
  -14.8026  -43.5847  -19.0033 H   0  0  0  0  0  0  0  0  0  0  0  0
  -16.1184  -44.6997  -18.7352 H   0  0  0  0  0  0  0  0  0  0  0  0
  -14.9347  -44.5618  -20.9845 H   0  0  0  0  0  0  0  0  0  0  0  0
  -20.2963  -45.5529  -21.2236 H   0  0  0  0  0  0  0  0  0  0  0  0
  -18.7151  -43.8729  -20.7582 H   0  0  0  0  0  0  0  0  0  0  0  0
  -15.5278  -46.7266  -21.1472 H   0  0  0  0  0  0  0  0  0  0  0  0
  -17.2019  -48.4931  -21.5518 H   0  0  0  0  0  0  0  0  0  0  0  0
  -19.5744  -47.9190  -21.7103 H   0  0  0  0  0  0  0  0  0  0  0  0
  -13.5440  -44.4732  -22.4274 H   0  0  0  0  0  0  0  0  0  0  0  0
  -14.9883  -44.8577  -23.3981 H   0  0  0  0  0  0  0  0  0  0  0  0
  -13.5485  -44.1208  -24.1296 H   0  0  0  0  0  0  0  0  0  0  0  0
  3  2  1  0
  5  7  2  0
  8  7  1  0
  7  6  1  0
  9 14  1  0
  9  1  1  0
  9 10  1  0
 10 11  1  0
 11  2  1  0
 11 12  1  0
 12 13  1  0
 13 14  1  6
 15 16  1  0
 15 19  2  0
 16 17  2  0
 17  4  1  0
 17 18  1  0
 18 19  1  0
 19  3  1  0
 20 21  1  0
 21 22  1  0
 22 23  1  0
 22  8  1  0
 23 24  1  0
 24 27  1  0
 25 30  2  0
 25 26  1  0
 26 27  2  0
 27 28  1  0
 28 29  2  0
 29 30  1  0
 13 24  1  0
 13 20  1  0
 12 31  1  0
  2 32  1  0
  3 33  1  0
  3 34  1  0
  4 35  1  0
  4 36  1  0
  4 37  1  0
  6 38  1  0
  8 39  1  0
  8 40  1  0
  9 41  1  1
 10 42  1  0
 10 43  1  0
 11 44  1  6
 12 45  1  1
 14 46  1  0
 14 47  1  0
 15 48  1  0
 20 49  1  0
 20 50  1  0
 21 51  1  0
 21 52  1  0
 22 53  1  6
 23 54  1  0
 23 55  1  0
 24 56  1  6
 25 57  1  0
 26 58  1  0
 28 59  1  0
 29 60  1  0
 30 61  1  0
 31 62  1  0
 31 63  1  0
 31 64  1  0
M  END
>  <smiles>  (232) 
[H]OC(=O)C([H])([H])[C@@]1([H])C([H])([H])C([H])([H])[C@]2(C([H])([H])[C@@]([H])(F)C([H])([H])[C@@]([H])(N([H])C([H])([H])c3sc(C([H])([H])[H])nc3[H])[C@]2([H])C([H])([H])[H])[C@]([H])(c2c([H])c([H])c([H])c([H])c2[H])C1([H])[H]

>  <error>  (232) 


>  <∆∆G>  (232) 
-79.617092

>  <∆G_bound>  (232) 
106.859159

>  <∆G_unbound>  (232) 
186.476252

>  <comRMSD>  (232) 
1.532804

>  <N_constrained_atoms>  (232) 
31.0

>  <N_unconstrained_atoms>  (232) 
0.0

>  <runtime>  (232) 
5.618591

>  <regarded>  (232) 
['d0615b', '5f3t-a']

>  <disregarded>  (232) 
[]

>  <LE>  (232) 
2.568293

>  <outcome>  (232) 
too moved

>  <percent_hybrid>  (232) 
49.0

$$$$

     RDKit          2D

  0  0  0  0  0  0  0  0  0  0999 V2000
M  END
>  <smiles>  (233) 
nan

>  <error>  (233) 
DistanceError 5.86 Å

>  <∆∆G>  (233) 
nan

>  <∆G_bound>  (233) 
nan

>  <∆G_unbound>  (233) 
nan

>  <comRMSD>  (233) 
nan

>  <N_constrained_atoms>  (233) 
nan

>  <N_unconstrained_atoms>  (233) 
nan

>  <runtime>  (233) 
nan

>  <regarded>  (233) 
[]

>  <disregarded>  (233) 
[]

>  <LE>  (233) 
nan

>  <outcome>  (233) 
too distant

>  <percent_hybrid>  (233) 
nan

$$$$
LIG
     RDKit          3D

 41 42  0  0  0  0  0  0  0  0999 V2000
  -19.6585  -39.3503  -24.3989 O   0  0  0  0  0  0  0  0  0  0  0  0
  -19.0874  -39.7364  -25.6723 S   0  0  0  0  0  0  0  0  0  0  0  0
  -18.9054  -38.7604  -26.7266 O   0  0  0  0  0  0  0  0  0  0  0  0
  -20.1373  -41.0135  -26.3293 C   0  0  0  0  0  0  0  0  0  0  0  0
  -16.3649  -40.8692  -27.4865 C   0  0  0  0  0  0  0  0  0  0  0  0
  -16.3751  -38.3172  -24.9269 C   0  0  0  0  0  0  0  0  0  0  0  0
  -15.6869  -38.3007  -26.1676 O   0  0  0  0  0  0  0  0  0  0  0  0
  -15.5029  -42.5129  -22.1288 C   0  0  0  0  0  0  0  0  0  0  0  0
  -17.6231  -40.5139  -25.3238 N   0  0  0  0  0  0  0  0  0  0  0  0
  -17.0556  -41.4819  -26.2759 C   0  0  2  0  0  0  0  0  0  0  0  0
  -16.1904  -42.4579  -25.5003 C   0  0  0  0  0  0  0  0  0  0  0  0
  -14.9871  -41.7463  -24.9243 C   0  0  0  0  0  0  0  0  0  0  0  0
  -15.3369  -40.5861  -23.9788 C   0  0  1  0  0  0  0  0  0  0  0  0
  -16.6480  -39.7586  -24.4135 C   0  0  1  0  0  0  0  0  0  0  0  0
  -15.4098  -41.0258  -22.4695 C   0  0  2  0  0  0  0  0  0  0  0  0
  -14.1641  -40.4197  -21.8212 C   0  0  0  0  0  0  0  0  0  0  0  0
  -13.9039  -39.2499  -22.6556 N   0  0  0  0  0  0  0  0  0  0  0  0
  -14.0947  -39.7589  -23.9699 N   0  0  0  0  0  0  0  0  0  0  0  0
  -20.1021  -41.8839  -25.6721 H   0  0  0  0  0  0  0  0  0  0  0  0
  -21.1573  -40.6214  -26.3555 H   0  0  0  0  0  0  0  0  0  0  0  0
  -19.8257  -41.2518  -27.3441 H   0  0  0  0  0  0  0  0  0  0  0  0
  -15.4594  -40.3172  -27.2398 H   0  0  0  0  0  0  0  0  0  0  0  0
  -16.0505  -41.6557  -28.1794 H   0  0  0  0  0  0  0  0  0  0  0  0
  -17.0283  -40.1853  -28.0234 H   0  0  0  0  0  0  0  0  0  0  0  0
  -15.7944  -37.7568  -24.1858 H   0  0  0  0  0  0  0  0  0  0  0  0
  -17.2987  -37.7464  -25.0503 H   0  0  0  0  0  0  0  0  0  0  0  0
  -15.0611  -37.5460  -26.1498 H   0  0  0  0  0  0  0  0  0  0  0  0
  -15.5687  -42.6410  -21.0419 H   0  0  0  0  0  0  0  0  0  0  0  0
  -16.4035  -42.9603  -22.5558 H   0  0  0  0  0  0  0  0  0  0  0  0
  -14.6288  -43.0812  -22.4590 H   0  0  0  0  0  0  0  0  0  0  0  0
  -17.8765  -42.0963  -26.6457 H   0  0  0  0  0  0  0  0  0  0  0  0
  -16.7782  -42.9309  -24.7071 H   0  0  0  0  0  0  0  0  0  0  0  0
  -15.8686  -43.2654  -26.1625 H   0  0  0  0  0  0  0  0  0  0  0  0
  -14.3165  -42.4744  -24.4571 H   0  0  0  0  0  0  0  0  0  0  0  0
  -14.4014  -41.3501  -25.7573 H   0  0  0  0  0  0  0  0  0  0  0  0
  -17.2227  -39.5984  -23.4919 H   0  0  0  0  0  0  0  0  0  0  0  0
  -16.2723  -40.5420  -21.9925 H   0  0  0  0  0  0  0  0  0  0  0  0
  -14.3440  -40.1322  -20.7806 H   0  0  0  0  0  0  0  0  0  0  0  0
  -13.3105  -41.1089  -21.8462 H   0  0  0  0  0  0  0  0  0  0  0  0
  -12.9361  -38.9526  -22.4917 H   0  0  0  0  0  0  0  0  0  0  0  0
  -14.0897  -39.0852  -24.7431 H   0  0  0  0  0  0  0  0  0  0  0  0
  7  6  1  0
  4  2  1  0
  3  2  2  0
  2  1  2  0
  9 14  1  0
  9  2  1  0
  9 10  1  0
 10  5  1  0
 10 11  1  0
 11 12  1  0
 12 13  1  0
 13 14  1  0
 14  6  1  0
 15  8  1  0
 15 16  1  0
 16 17  1  0
 17 18  1  0
 13 15  1  0
 13 18  1  1
  4 19  1  0
  4 20  1  0
  4 21  1  0
  5 22  1  0
  5 23  1  0
  5 24  1  0
  6 25  1  0
  6 26  1  0
  7 27  1  0
  8 28  1  0
  8 29  1  0
  8 30  1  0
 10 31  1  6
 11 32  1  0
 11 33  1  0
 12 34  1  0
 12 35  1  0
 14 36  1  1
 15 37  1  6
 16 38  1  0
 16 39  1  0
 17 40  1  0
 18 41  1  0
M  END
>  <smiles>  (234) 
[H]OC([H])([H])[C@@]1([H])N(S(=O)(=O)C([H])([H])[H])[C@@]([H])(C([H])([H])[H])C([H])([H])C([H])([H])[C@@]12N([H])N([H])C([H])([H])[C@@]2([H])C([H])([H])[H]

>  <error>  (234) 


>  <∆∆G>  (234) 
-63.029784

>  <∆G_bound>  (234) 
372.4192

>  <∆G_unbound>  (234) 
435.448984

>  <comRMSD>  (234) 
0.721583

>  <N_constrained_atoms>  (234) 
18.0

>  <N_unconstrained_atoms>  (234) 
0.0

>  <runtime>  (234) 
1.33762

>  <regarded>  (234) 
['d0851a', 'd0160a']

>  <disregarded>  (234) 
[]

>  <LE>  (234) 
3.501655

>  <outcome>  (234) 
acceptable

>  <percent_hybrid>  (234) 
28.0

$$$$

     RDKit          2D

  0  0  0  0  0  0  0  0  0  0999 V2000
M  END
>  <smiles>  (235) 
nan

>  <error>  (235) 
FragmensteinError Ideal compound failed. Something is wrong with the SMILES

>  <∆∆G>  (235) 
nan

>  <∆G_bound>  (235) 
nan

>  <∆G_unbound>  (235) 
nan

>  <comRMSD>  (235) 
nan

>  <N_constrained_atoms>  (235) 
nan

>  <N_unconstrained_atoms>  (235) 
nan

>  <runtime>  (235) 
nan

>  <regarded>  (235) 
[]

>  <disregarded>  (235) 
[]

>  <LE>  (235) 
nan

>  <outcome>  (235) 
crashed

>  <percent_hybrid>  (235) 
nan

$$$$
LIG
     RDKit          3D

 48 49  0  0  0  0  0  0  0  0999 V2000
  -19.9644  -39.3947  -24.5657 O   0  0  0  0  0  0  0  0  0  0  0  0
  -19.3227  -39.7781  -25.8042 S   0  0  0  0  0  0  0  0  0  0  0  0
  -18.9748  -38.7740  -26.7928 O   0  0  0  0  0  0  0  0  0  0  0  0
  -20.3674  -40.9880  -26.5838 C   0  0  0  0  0  0  0  0  0  0  0  0
  -16.4237  -40.8585  -27.3970 C   0  0  0  0  0  0  0  0  0  0  0  0
  -16.8291  -38.4874  -24.5276 C   0  0  0  0  0  0  0  0  0  0  0  0
  -16.3638  -38.1931  -25.8410 O   0  0  0  0  0  0  0  0  0  0  0  0
  -18.8698  -43.0973  -23.1334 O   0  0  0  0  0  0  0  0  0  0  0  0
  -17.8476  -43.5022  -22.7346 C   0  0  0  0  0  0  0  0  0  0  0  0
  -16.3919  -43.1698  -23.1726 N   0  0  0  0  0  0  0  0  0  0  0  0
  -14.5108  -40.2804  -24.5165 C   0  0  0  0  0  0  0  0  0  0  0  0
  -17.9149  -40.6028  -25.3910 N   0  0  0  0  0  0  0  0  0  0  0  0
  -17.2645  -41.5254  -26.3181 C   0  0  2  0  0  0  0  0  0  0  0  0
  -16.5923  -42.6763  -25.5810 C   0  0  0  0  0  0  0  0  0  0  0  0
  -15.8966  -42.3343  -24.2664 C   0  0  1  0  0  0  0  0  0  0  0  0
  -15.8214  -40.8289  -23.9481 C   0  0  2  0  0  0  0  0  0  0  0  0
  -17.0829  -40.0049  -24.3008 C   0  0  1  0  0  0  0  0  0  0  0  0
  -16.4681  -44.7221  -20.9723 O   0  0  0  0  0  0  0  0  0  0  0  0
  -16.7284  -44.8865  -19.5689 C   0  0  0  0  0  0  0  0  0  0  0  0
  -18.1752  -45.3069  -19.4450 C   0  0  0  0  0  0  0  0  0  0  0  0
  -18.8091  -44.5628  -20.5940 C   0  0  0  0  0  0  0  0  0  0  0  0
  -17.7267  -44.6313  -21.6606 C   0  0  1  0  0  0  0  0  0  0  0  0
  -20.4000  -41.8868  -25.9658 H   0  0  0  0  0  0  0  0  0  0  0  0
  -21.3707  -40.5605  -26.6551 H   0  0  0  0  0  0  0  0  0  0  0  0
  -19.9998  -41.1917  -27.5869 H   0  0  0  0  0  0  0  0  0  0  0  0
  -15.6174  -40.2428  -27.0118 H   0  0  0  0  0  0  0  0  0  0  0  0
  -15.9742  -41.6065  -28.0566 H   0  0  0  0  0  0  0  0  0  0  0  0
  -17.0397  -40.1995  -28.0177 H   0  0  0  0  0  0  0  0  0  0  0  0
  -16.1118  -38.0962  -23.7989 H   0  0  0  0  0  0  0  0  0  0  0  0
  -17.7456  -37.9093  -24.3669 H   0  0  0  0  0  0  0  0  0  0  0  0
  -17.1384  -38.2660  -26.4343 H   0  0  0  0  0  0  0  0  0  0  0  0
  -15.7374  -43.7696  -22.6661 H   0  0  0  0  0  0  0  0  0  0  0  0
  -13.6975  -40.7170  -23.9292 H   0  0  0  0  0  0  0  0  0  0  0  0
  -14.3384  -40.5541  -25.5547 H   0  0  0  0  0  0  0  0  0  0  0  0
  -14.3930  -39.2034  -24.4017 H   0  0  0  0  0  0  0  0  0  0  0  0
  -18.0722  -42.0258  -26.8425 H   0  0  0  0  0  0  0  0  0  0  0  0
  -17.3554  -43.4438  -25.3966 H   0  0  0  0  0  0  0  0  0  0  0  0
  -15.8829  -43.1664  -26.2537 H   0  0  0  0  0  0  0  0  0  0  0  0
  -14.8654  -42.7026  -24.3636 H   0  0  0  0  0  0  0  0  0  0  0  0
  -15.7013  -40.7270  -22.8583 H   0  0  0  0  0  0  0  0  0  0  0  0
  -17.7075  -40.0777  -23.3975 H   0  0  0  0  0  0  0  0  0  0  0  0
  -16.0373  -45.6236  -19.1505 H   0  0  0  0  0  0  0  0  0  0  0  0
  -16.5512  -43.9222  -19.0806 H   0  0  0  0  0  0  0  0  0  0  0  0
  -18.2669  -46.3860  -19.6120 H   0  0  0  0  0  0  0  0  0  0  0  0
  -18.6113  -45.0684  -18.4720 H   0  0  0  0  0  0  0  0  0  0  0  0
  -19.7558  -45.0013  -20.9228 H   0  0  0  0  0  0  0  0  0  0  0  0
  -19.0042  -43.5223  -20.3071 H   0  0  0  0  0  0  0  0  0  0  0  0
  -17.8298  -45.5725  -22.2174 H   0  0  0  0  0  0  0  0  0  0  0  0
  7  6  1  0
  4  2  1  0
  3  2  2  0
  2  1  2  0
 10  9  1  0
  9  8  2  0
 12 17  1  0
 12  2  1  0
 12 13  1  0
 13  5  1  0
 13 14  1  0
 14 15  1  0
 15 16  1  0
 16 17  1  0
 17  6  1  0
 18 19  1  0
 18 22  1  0
 19 20  1  0
 20 21  1  0
 21 22  1  0
 22  9  1  0
 10 15  1  0
 11 16  1  0
  4 23  1  0
  4 24  1  0
  4 25  1  0
  5 26  1  0
  5 27  1  0
  5 28  1  0
  6 29  1  0
  6 30  1  0
  7 31  1  0
 10 32  1  0
 11 33  1  0
 11 34  1  0
 11 35  1  0
 13 36  1  6
 14 37  1  0
 14 38  1  0
 15 39  1  6
 16 40  1  1
 17 41  1  1
 19 42  1  0
 19 43  1  0
 20 44  1  0
 20 45  1  0
 21 46  1  0
 21 47  1  0
 22 48  1  6
M  END
>  <smiles>  (236) 
[H]OC([H])([H])[C@@]1([H])N(S(=O)(=O)C([H])([H])[H])[C@@]([H])(C([H])([H])[H])C([H])([H])[C@]([H])(N([H])C(=O)[C@@]2([H])OC([H])([H])C([H])([H])C2([H])[H])[C@@]1([H])C([H])([H])[H]

>  <error>  (236) 


>  <∆∆G>  (236) 
-55.770383

>  <∆G_bound>  (236) 
159.622011

>  <∆G_unbound>  (236) 
215.392395

>  <comRMSD>  (236) 
1.018313

>  <N_constrained_atoms>  (236) 
22.0

>  <N_unconstrained_atoms>  (236) 
0.0

>  <runtime>  (236) 
3.234844

>  <regarded>  (236) 
['d0851a', 'd0254a']

>  <disregarded>  (236) 
[]

>  <LE>  (236) 
2.535017

>  <outcome>  (236) 
too moved

>  <percent_hybrid>  (236) 
41.0

$$$$
LIG
     RDKit          3D

  0  0  0  0  0  0  0  0  0  0999 V3000
M  V30 BEGIN CTAB
M  V30 COUNTS 71 72 0 0 0
M  V30 BEGIN ATOM
M  V30 1 N -19.445000 -40.158001 -24.528000 0
M  V30 2 S -18.933001 -39.846001 -25.825001 0 CFG=2
M  V30 3 O -18.877001 -38.480999 -26.240999 0
M  V30 4 C -19.827000 -40.765999 -27.018000 0
M  V30 5 C -16.511999 -41.500999 -27.914000 0
M  V30 6 C -15.906000 -38.516998 -25.243999 0
M  V30 7 O -16.229000 -38.262001 -26.598000 0
M  V30 8 N -17.393000 -40.395000 -25.853001 0
M  V30 9 C -17.198999 -41.683998 -26.573000 0 CFG=2
M  V30 10 C -16.566000 -42.779999 -25.714001 0
M  V30 11 C -15.991000 -42.259998 -24.402000 0
M  V30 12 C -15.366000 -40.882000 -24.551001 0
M  V30 13 C -16.459999 -39.863998 -24.820000 0 CFG=1
M  V30 14 O -23.164000 -45.938000 -18.049000 0
M  V30 15 C -22.246000 -46.016998 -17.236000 0
M  V30 16 C -22.204000 -47.136002 -16.188999 0
M  V30 17 C -23.259001 -46.889000 -15.112000 0
M  V30 18 C -22.391001 -48.480999 -16.875999 0
M  V30 19 N -21.222000 -45.154999 -17.212000 0
M  V30 20 C -21.018999 -44.181000 -18.270000 0 CFG=1
M  V30 21 C -20.471001 -42.877998 -17.697001 0
M  V30 22 C -20.379999 -43.105999 -21.250999 0
M  V30 23 C -17.607000 -47.167999 -21.084000 0
M  V30 24 C -20.124001 -44.757999 -19.327999 0
M  V30 25 S -19.247999 -46.223999 -19.002001 0
M  V30 26 C -18.566000 -46.140999 -20.593000 0
M  V30 27 N -18.959000 -45.118000 -21.297001 0
M  V30 28 C -19.841000 -44.330002 -20.590000 0
M  V30 29 C -19.678749 -40.895000 -23.708750 0
M  V30 30 C -19.912498 -41.632000 -22.889500 0
M  V30 31 C -20.146250 -42.368999 -22.070250 0
M  V30 32 H -20.506313 -41.465069 -26.508259 0
M  V30 33 H -20.412142 -40.079388 -27.647423 0
M  V30 34 H -19.123901 -41.331223 -27.647423 0
M  V30 35 H -15.460629 -41.220943 -27.752167 0
M  V30 36 H -16.557558 -42.442596 -28.480846 0
M  V30 37 H -17.019920 -40.706833 -28.480846 0
M  V30 38 H -14.812429 -38.519810 -25.125275 0
M  V30 39 H -16.349152 -37.731411 -24.614344 0
M  V30 40 H -17.005259 -37.649174 -26.642309 0
M  V30 41 H -18.210634 -42.054550 -26.795010 0
M  V30 42 H -16.529486 -43.837841 -26.013391 0
M  V30 43 H -15.597886 -42.607105 -26.206812 0
M  V30 44 H -16.024343 -42.818214 -23.454750 0
M  V30 45 H -15.023324 -42.724831 -24.641865 0
M  V30 46 H -14.291663 -40.658054 -24.475843 0
M  V30 47 H -15.255508 -41.049068 -25.632610 0
M  V30 48 H -17.003857 -39.699589 -23.878094 0
M  V30 49 H -21.224400 -47.145100 -15.688701 0
M  V30 50 H -22.800341 -46.996384 -14.117969 0
M  V30 51 H -23.663401 -45.871887 -15.221285 0
M  V30 52 H -24.072884 -47.620884 -15.221285 0
M  V30 53 H -22.500528 -49.268772 -16.116119 0
M  V30 54 H -23.293409 -48.449520 -17.504227 0
M  V30 55 H -21.514233 -48.696888 -17.504227 0
M  V30 56 H -20.560917 -45.183292 -16.422653 0
M  V30 57 H -21.983677 -43.943588 -18.742264 0
M  V30 58 H -20.490307 -42.923904 -16.598129 0
M  V30 59 H -19.435837 -42.733383 -18.039818 0
M  V30 60 H -21.091650 -42.037003 -18.039818 0
M  V30 61 H -21.373592 -43.458611 -21.564747 0
M  V30 62 H -19.931536 -42.453327 -20.487520 0
M  V30 63 H -17.137276 -47.671032 -20.225910 0
M  V30 64 H -18.143948 -47.908951 -21.694473 0
M  V30 65 H -16.831057 -46.682991 -21.694473 0
M  V30 66 H -18.528749 -39.744999 -22.558750 0
M  V30 67 H -18.518749 -39.735001 -22.548750 0
M  V30 68 H -18.742500 -40.462002 -21.719500 0
M  V30 69 H -18.732500 -40.452000 -21.709499 0
M  V30 70 H -18.956249 -41.179001 -20.880249 0
M  V30 71 H -18.946249 -41.168999 -20.870249 0
M  V30 END ATOM
M  V30 BEGIN BOND
M  V30 1 1 7 6
M  V30 2 1 2 4 CFG=3
M  V30 3 2 3 2
M  V30 4 2 2 1
M  V30 5 1 8 13
M  V30 6 1 8 2
M  V30 7 1 8 9
M  V30 8 1 9 5
M  V30 9 1 9 10
M  V30 10 1 10 11
M  V30 11 1 11 12
M  V30 12 1 12 13
M  V30 13 1 13 6
M  V30 14 1 18 16
M  V30 15 1 17 16
M  V30 16 1 16 15
M  V30 17 2 15 14
M  V30 18 1 19 15
M  V30 19 1 20 19
M  V30 20 1 20 21
M  V30 21 1 24 20
M  V30 22 1 24 25
M  V30 23 2 24 28
M  V30 24 1 25 26
M  V30 25 1 26 23
M  V30 26 2 26 27
M  V30 27 1 27 28
M  V30 28 1 28 22
M  V30 29 1 29 1
M  V30 30 1 30 29
M  V30 31 1 31 30
M  V30 32 1 31 22
M  V30 33 1 4 32
M  V30 34 1 4 33
M  V30 35 1 4 34
M  V30 36 1 5 35
M  V30 37 1 5 36
M  V30 38 1 5 37
M  V30 39 1 6 38
M  V30 40 1 6 39
M  V30 41 1 7 40
M  V30 42 1 9 41 CFG=3
M  V30 43 1 10 42
M  V30 44 1 10 43
M  V30 45 1 11 44
M  V30 46 1 11 45
M  V30 47 1 12 46
M  V30 48 1 12 47
M  V30 49 1 13 48 CFG=1
M  V30 50 1 16 49
M  V30 51 1 17 50
M  V30 52 1 17 51
M  V30 53 1 17 52
M  V30 54 1 18 53
M  V30 55 1 18 54
M  V30 56 1 18 55
M  V30 57 1 19 56
M  V30 58 1 20 57 CFG=3
M  V30 59 1 21 58
M  V30 60 1 21 59
M  V30 61 1 21 60
M  V30 62 1 22 61
M  V30 63 1 22 62
M  V30 64 1 23 63
M  V30 65 1 23 64
M  V30 66 1 23 65
M  V30 67 1 29 66
M  V30 68 1 29 67
M  V30 69 1 30 68
M  V30 70 1 30 69
M  V30 71 1 31 70
M  V30 72 1 31 71
M  V30 END BOND
M  V30 BEGIN COLLECTION
M  V30 MDLV30/STEABS ATOMS=(0)
M  V30 END COLLECTION
M  V30 END CTAB
M  END
>  <smiles>  (237) 
[H]OC([H])([H])[C@@]1([H])N([S@](=O)(=NC([H])([H])C([H])([H])C([H])([H])C([H])([H])c2nc(C([H])([H])[H])sc2[C@@]([H])(N([H])C(=O)C([H])(C([H])([H])[H])C([H])([H])[H])C([H])([H])[H])C([H])([H])[H])[C@@]([H])(C([H])([H])[H])C([H])([H])C([H])([H])C1([H])[H]

>  <error>  (237) 


>  <∆∆G>  (237) 
nan

>  <∆G_bound>  (237) 
nan

>  <∆G_unbound>  (237) 
nan

>  <comRMSD>  (237) 
0.0

>  <N_constrained_atoms>  (237) 
28.0

>  <N_unconstrained_atoms>  (237) 
3.0

>  <runtime>  (237) 
2.367373

>  <regarded>  (237) 
['d0851a', 'd0264a']

>  <disregarded>  (237) 
[]

>  <LE>  (237) 
nan

>  <outcome>  (237) 
crashed

>  <percent_hybrid>  (237) 
47.0

$$$$
LIG
     RDKit          3D

  0  0  0  0  0  0  0  0  0  0999 V3000
M  V30 BEGIN CTAB
M  V30 COUNTS 51 53 0 0 0
M  V30 BEGIN ATOM
M  V30 1 O -19.445000 -40.158001 -24.528000 0
M  V30 2 S -18.933001 -39.846001 -25.825001 0
M  V30 3 O -18.877001 -38.480999 -26.240999 0
M  V30 4 C -19.827000 -40.765999 -27.018000 0
M  V30 5 C -16.511999 -41.500999 -27.914000 0
M  V30 6 C -15.906000 -38.516998 -25.243999 0
M  V30 7 O -16.229000 -38.262001 -26.598000 0
M  V30 8 N -17.393000 -40.395000 -25.853001 0
M  V30 9 C -17.198999 -41.683998 -26.573000 0 CFG=2
M  V30 10 C -16.566000 -42.779999 -25.714001 0
M  V30 11 C -15.991000 -42.259998 -24.402000 0 CFG=2
M  V30 12 C -15.366000 -40.882000 -24.551001 0
M  V30 13 C -16.459999 -39.863998 -24.820000 0 CFG=1
M  V30 14 N -15.775000 -43.637001 -22.587999 0
M  V30 15 C -15.137000 -44.018002 -21.441999 0
M  V30 16 C -15.566000 -45.134998 -20.691000 0
M  V30 17 N -15.014000 -45.487000 -19.521000 0
M  V30 18 C -13.992000 -44.743000 -19.065001 0
M  V30 19 C -13.483000 -43.651001 -19.735001 0
M  V30 20 C -14.065000 -43.287998 -20.931999 0
M  V30 21 C -17.561001 -45.728001 -22.073000 0
M  V30 22 C -18.333000 -46.838001 -22.233999 0
M  V30 23 C -17.823000 -47.842999 -21.382999 0
M  V30 24 C -16.752001 -47.321999 -20.723000 0
M  V30 25 N -16.582001 -46.016998 -21.143000 0
M  V30 26 N -15.882999 -42.948502 -23.494999 0
M  V30 27 H -20.506313 -41.465069 -26.508259 0
M  V30 28 H -20.412142 -40.079388 -27.647423 0
M  V30 29 H -19.123901 -41.331223 -27.647423 0
M  V30 30 H -15.460629 -41.220943 -27.752167 0
M  V30 31 H -16.557558 -42.442596 -28.480846 0
M  V30 32 H -17.019920 -40.706833 -28.480846 0
M  V30 33 H -14.812429 -38.519810 -25.125275 0
M  V30 34 H -16.349152 -37.731411 -24.614344 0
M  V30 35 H -17.005259 -37.649174 -26.642309 0
M  V30 36 H -18.210634 -42.054550 -26.795010 0
M  V30 37 H -16.529486 -43.837841 -26.013391 0
M  V30 38 H -15.597886 -42.607105 -26.206812 0
M  V30 39 H -16.653191 -42.069740 -23.544500 0
M  V30 40 H -14.291663 -40.658054 -24.475843 0
M  V30 41 H -15.255508 -41.049068 -25.632610 0
M  V30 42 H -17.003857 -39.699589 -23.878094 0
M  V30 43 H -16.550005 -44.308624 -22.683849 0
M  V30 44 H -13.536071 -45.020908 -18.103285 0
M  V30 45 H -12.634304 -43.083469 -19.325581 0
M  V30 46 H -13.681296 -42.418716 -21.486183 0
M  V30 47 H -17.694054 -44.768002 -22.593287 0
M  V30 48 H -19.198395 -46.934559 -22.906136 0
M  V30 49 H -18.219580 -48.863117 -21.273092 0
M  V30 50 H -16.130325 -47.848633 -19.983961 0
M  V30 51 H -14.882999 -41.948502 -22.494999 0
M  V30 END ATOM
M  V30 BEGIN BOND
M  V30 1 1 7 6
M  V30 2 1 4 2
M  V30 3 2 3 2
M  V30 4 2 2 1
M  V30 5 1 8 13
M  V30 6 1 8 2
M  V30 7 1 8 9
M  V30 8 1 9 5
M  V30 9 1 9 10
M  V30 10 1 10 11
M  V30 11 1 11 12
M  V30 12 1 12 13
M  V30 13 1 13 6
M  V30 14 1 15 14
M  V30 15 2 15 20
M  V30 16 1 15 16
M  V30 17 2 16 17
M  V30 18 1 16 25
M  V30 19 1 17 18
M  V30 20 2 18 19
M  V30 21 1 19 20
M  V30 22 2 21 22
M  V30 23 1 21 25
M  V30 24 1 22 23
M  V30 25 2 23 24
M  V30 26 1 24 25
M  V30 27 1 26 11
M  V30 28 1 26 14
M  V30 29 1 4 27
M  V30 30 1 4 28
M  V30 31 1 4 29
M  V30 32 1 5 30
M  V30 33 1 5 31
M  V30 34 1 5 32
M  V30 35 1 6 33
M  V30 36 1 6 34
M  V30 37 1 7 35
M  V30 38 1 9 36 CFG=3
M  V30 39 1 10 37
M  V30 40 1 10 38
M  V30 41 1 11 39 CFG=1
M  V30 42 1 12 40
M  V30 43 1 12 41
M  V30 44 1 13 42 CFG=1
M  V30 45 1 14 43
M  V30 46 1 18 44
M  V30 47 1 19 45
M  V30 48 1 20 46
M  V30 49 1 21 47
M  V30 50 1 22 48
M  V30 51 1 23 49
M  V30 52 1 24 50
M  V30 53 1 26 51
M  V30 END BOND
M  V30 BEGIN COLLECTION
M  V30 MDLV30/STEABS ATOMS=(0)
M  V30 END COLLECTION
M  V30 END CTAB
M  END
>  <smiles>  (238) 
[H]OC([H])([H])[C@@]1([H])N(S(=O)(=O)C([H])([H])[H])[C@@]([H])(C([H])([H])[H])C([H])([H])[C@@]([H])(N([H])N([H])c2c(-n3c([H])c([H])c([H])c3[H])nc([H])c([H])c2[H])C1([H])[H]

>  <error>  (238) 


>  <∆∆G>  (238) 
nan

>  <∆G_bound>  (238) 
nan

>  <∆G_unbound>  (238) 
nan

>  <comRMSD>  (238) 
0.0

>  <N_constrained_atoms>  (238) 
25.0

>  <N_unconstrained_atoms>  (238) 
1.0

>  <runtime>  (238) 
1.520527

>  <regarded>  (238) 
['d0851a', 'd0472a']

>  <disregarded>  (238) 
[]

>  <LE>  (238) 
nan

>  <outcome>  (238) 
crashed

>  <percent_hybrid>  (238) 
48.0

$$$$
LIG
     RDKit          3D

 43 44  0  0  0  0  0  0  0  0999 V2000
  -19.6776  -39.4270  -24.3657 O   0  0  0  0  0  0  0  0  0  0  0  0
  -19.0279  -39.8814  -25.5758 S   0  0  0  0  0  0  0  0  0  0  0  0
  -18.5976  -38.9290  -26.5805 O   0  0  0  0  0  0  0  0  0  0  0  0
  -20.1353  -41.0302  -26.3618 C   0  0  0  0  0  0  0  0  0  0  0  0
  -16.2135  -41.3556  -27.0382 C   0  0  0  0  0  0  0  0  0  0  0  0
  -16.3103  -38.7146  -24.5469 C   0  0  0  0  0  0  0  0  0  0  0  0
  -15.9506  -38.6311  -25.9193 O   0  0  0  0  0  0  0  0  0  0  0  0
  -14.4945  -43.8722  -19.7884 F   0  0  0  0  0  0  0  0  0  0  0  0
  -17.6987  -40.7958  -25.0839 N   0  0  0  0  0  0  0  0  0  0  0  0
  -17.1250  -41.8594  -25.9263 C   0  0  2  0  0  0  0  0  0  0  0  0
  -16.4936  -42.9647  -25.0524 C   0  0  0  0  0  0  0  0  0  0  0  0
  -15.8703  -42.5444  -23.6784 C   0  0  1  0  0  0  0  0  0  0  0  0
  -15.5425  -41.0343  -23.7613 C   0  0  0  0  0  0  0  0  0  0  0  0
  -16.7537  -40.1359  -24.1102 C   0  0  1  0  0  0  0  0  0  0  0  0
  -15.0182  -43.8613  -21.0443 C   0  0  1  0  0  0  0  0  0  0  0  0
  -16.2338  -42.9493  -21.1054 C   0  0  0  0  0  0  0  0  0  0  0  0
  -16.8502  -42.9055  -22.5149 C   0  0  0  0  0  0  0  0  0  0  0  0
  -14.5724  -43.3763  -23.4542 C   0  0  0  0  0  0  0  0  0  0  0  0
  -13.9895  -43.3620  -22.0371 C   0  0  0  0  0  0  0  0  0  0  0  0
  -20.2700  -41.8997  -25.7164 H   0  0  0  0  0  0  0  0  0  0  0  0
  -21.0950  -40.5251  -26.4963 H   0  0  0  0  0  0  0  0  0  0  0  0
  -19.7385  -41.3004  -27.3368 H   0  0  0  0  0  0  0  0  0  0  0  0
  -15.2746  -40.9503  -26.6563 H   0  0  0  0  0  0  0  0  0  0  0  0
  -15.9589  -42.1774  -27.7140 H   0  0  0  0  0  0  0  0  0  0  0  0
  -16.6981  -40.5801  -27.6382 H   0  0  0  0  0  0  0  0  0  0  0  0
  -15.4525  -38.3889  -23.9492 H   0  0  0  0  0  0  0  0  0  0  0  0
  -17.1108  -37.9889  -24.3648 H   0  0  0  0  0  0  0  0  0  0  0  0
  -16.7863  -38.5697  -26.4258 H   0  0  0  0  0  0  0  0  0  0  0  0
  -17.9530  -42.3596  -26.4305 H   0  0  0  0  0  0  0  0  0  0  0  0
  -17.2692  -43.7198  -24.8658 H   0  0  0  0  0  0  0  0  0  0  0  0
  -15.7476  -43.4899  -25.6577 H   0  0  0  0  0  0  0  0  0  0  0  0
  -15.1148  -40.6879  -22.8119 H   0  0  0  0  0  0  0  0  0  0  0  0
  -14.7505  -40.8821  -24.5052 H   0  0  0  0  0  0  0  0  0  0  0  0
  -17.3114  -40.0182  -23.1709 H   0  0  0  0  0  0  0  0  0  0  0  0
  -15.3071  -44.8927  -21.2764 H   0  0  0  0  0  0  0  0  0  0  0  0
  -16.9845  -43.2967  -20.3858 H   0  0  0  0  0  0  0  0  0  0  0  0
  -15.9578  -41.9371  -20.7858 H   0  0  0  0  0  0  0  0  0  0  0  0
  -17.7088  -42.2251  -22.5091 H   0  0  0  0  0  0  0  0  0  0  0  0
  -17.2668  -43.9051  -22.7019 H   0  0  0  0  0  0  0  0  0  0  0  0
  -13.8141  -43.0737  -24.1813 H   0  0  0  0  0  0  0  0  0  0  0  0
  -14.8019  -44.4230  -23.6900 H   0  0  0  0  0  0  0  0  0  0  0  0
  -13.6387  -42.3605  -21.7645 H   0  0  0  0  0  0  0  0  0  0  0  0
  -13.1209  -44.0217  -21.9923 H   0  0  0  0  0  0  0  0  0  0  0  0
  7  6  1  0
  4  2  1  0
  3  2  2  0
  2  1  2  0
  9 14  1  0
  9  2  1  0
  9 10  1  0
 10  5  1  0
 10 11  1  0
 12 11  1  1
 12 13  1  0
 13 14  1  0
 14  6  1  0
 15 19  1  0
 15  8  1  0
 15 16  1  0
 16 17  1  0
 18 19  1  0
 12 17  1  0
 12 18  1  0
  4 20  1  0
  4 21  1  0
  4 22  1  0
  5 23  1  0
  5 24  1  0
  5 25  1  0
  6 26  1  0
  6 27  1  0
  7 28  1  0
 10 29  1  6
 11 30  1  0
 11 31  1  0
 13 32  1  0
 13 33  1  0
 14 34  1  1
 15 35  1  6
 16 36  1  0
 16 37  1  0
 17 38  1  0
 17 39  1  0
 18 40  1  0
 18 41  1  0
 19 42  1  0
 19 43  1  0
M  END
>  <smiles>  (239) 
[H]OC([H])([H])[C@@]1([H])N(S(=O)(=O)C([H])([H])[H])[C@@]([H])(C([H])([H])[H])C([H])([H])[C@]2(C([H])([H])C([H])([H])[C@@]([H])(F)C([H])([H])C2([H])[H])C1([H])[H]

>  <error>  (239) 


>  <∆∆G>  (239) 
-84.972379

>  <∆G_bound>  (239) 
176.989975

>  <∆G_unbound>  (239) 
261.962353

>  <comRMSD>  (239) 
1.181185

>  <N_constrained_atoms>  (239) 
19.0

>  <N_unconstrained_atoms>  (239) 
0.0

>  <runtime>  (239) 
2.735003

>  <regarded>  (239) 
['d0851a', 'd0612a']

>  <disregarded>  (239) 
[]

>  <LE>  (239) 
4.47223

>  <outcome>  (239) 
too moved

>  <percent_hybrid>  (239) 
32.0

$$$$

     RDKit          2D

  0  0  0  0  0  0  0  0  0  0999 V2000
M  END
>  <smiles>  (240) 
nan

>  <error>  (240) 
FragmensteinError Ideal compound failed. Something is wrong with the SMILES

>  <∆∆G>  (240) 
nan

>  <∆G_bound>  (240) 
nan

>  <∆G_unbound>  (240) 
nan

>  <comRMSD>  (240) 
nan

>  <N_constrained_atoms>  (240) 
nan

>  <N_unconstrained_atoms>  (240) 
nan

>  <runtime>  (240) 
nan

>  <regarded>  (240) 
[]

>  <disregarded>  (240) 
[]

>  <LE>  (240) 
nan

>  <outcome>  (240) 
crashed

>  <percent_hybrid>  (240) 
nan

$$$$

     RDKit          2D

  0  0  0  0  0  0  0  0  0  0999 V2000
M  END
>  <smiles>  (241) 
nan

>  <error>  (241) 
FragmensteinError Ideal compound failed. Something is wrong with the SMILES

>  <∆∆G>  (241) 
nan

>  <∆G_bound>  (241) 
nan

>  <∆G_unbound>  (241) 
nan

>  <comRMSD>  (241) 
nan

>  <N_constrained_atoms>  (241) 
nan

>  <N_unconstrained_atoms>  (241) 
nan

>  <runtime>  (241) 
nan

>  <regarded>  (241) 
[]

>  <disregarded>  (241) 
[]

>  <LE>  (241) 
nan

>  <outcome>  (241) 
crashed

>  <percent_hybrid>  (241) 
nan

$$$$
LIG
     RDKit          3D

  0  0  0  0  0  0  0  0  0  0999 V3000
M  V30 BEGIN CTAB
M  V30 COUNTS 65 68 0 0 0
M  V30 BEGIN ATOM
M  V30 1 O -19.445000 -40.158001 -24.528000 0
M  V30 2 S -18.933001 -39.846001 -25.825001 0
M  V30 3 O -18.877001 -38.480999 -26.240999 0
M  V30 4 C -19.827000 -40.765999 -27.018000 0
M  V30 5 C -16.511999 -41.500999 -27.914000 0
M  V30 6 C -15.906000 -38.516998 -25.243999 0 CFG=1
M  V30 7 O -16.229000 -38.262001 -26.598000 0
M  V30 8 N -17.393000 -40.395000 -25.853001 0
M  V30 9 C -17.198999 -41.683998 -26.573000 0 CFG=2
M  V30 10 C -16.566000 -42.779999 -25.714001 0
M  V30 11 C -15.991000 -42.259998 -24.402000 0
M  V30 12 C -15.366000 -40.882000 -24.551001 0
M  V30 13 C -16.459999 -39.863998 -24.820000 0 CFG=1
M  V30 14 O -11.370000 -32.450001 -20.969999 0
M  V30 15 C -11.950000 -33.465000 -20.601000 0
M  V30 16 C -13.292000 -33.436001 -19.997999 0
M  V30 17 C -13.877000 -34.640999 -19.552999 0
M  V30 18 N -13.139000 -35.812000 -19.618000 0
M  V30 19 C -12.110000 -35.952000 -20.645000 0 CFG=1
M  V30 20 N -11.382000 -34.679001 -20.705000 0
M  V30 21 C -13.994000 -32.241001 -19.871000 0
M  V30 22 C -15.168000 -34.624001 -19.025000 0
M  V30 23 C -15.853000 -33.424000 -18.921000 0
M  V30 24 C -15.268000 -32.243000 -19.333000 0
M  V30 25 C -11.190000 -37.138000 -20.316999 0
M  V30 26 C -11.152000 -37.980999 -21.587999 0
M  V30 27 C -12.451000 -37.754002 -22.233000 0 CFG=1
M  V30 28 C -12.749000 -36.279999 -22.002001 0
M  V30 29 N -15.042250 -38.326248 -24.491249 0
M  V30 30 C -14.178500 -38.135498 -23.738499 0
M  V30 31 C -13.314751 -37.944752 -22.985750 0
M  V30 32 H -20.506313 -41.465069 -26.508259 0
M  V30 33 H -20.412142 -40.079388 -27.647423 0
M  V30 34 H -19.123901 -41.331223 -27.647423 0
M  V30 35 H -15.460629 -41.220943 -27.752167 0
M  V30 36 H -16.557558 -42.442596 -28.480846 0
M  V30 37 H -17.019920 -40.706833 -28.480846 0
M  V30 38 H -16.198587 -37.458149 -25.187138 0
M  V30 39 H -17.005259 -37.649174 -26.642309 0
M  V30 40 H -18.210634 -42.054550 -26.795010 0
M  V30 41 H -16.529486 -43.837841 -26.013391 0
M  V30 42 H -15.597886 -42.607105 -26.206812 0
M  V30 43 H -16.024343 -42.818214 -23.454750 0
M  V30 44 H -15.023324 -42.724831 -24.641865 0
M  V30 45 H -14.291663 -40.658054 -24.475843 0
M  V30 46 H -15.255508 -41.049068 -25.632610 0
M  V30 47 H -17.003857 -39.699589 -23.878094 0
M  V30 48 H -13.314224 -36.575504 -18.949228 0
M  V30 49 H -10.361188 -34.718678 -20.836409 0
M  V30 50 H -13.535987 -31.295929 -20.198202 0
M  V30 51 H -15.640623 -35.559937 -18.692352 0
M  V30 52 H -16.871866 -33.412075 -18.506548 0
M  V30 53 H -15.819530 -31.296577 -19.232512 0
M  V30 54 H -10.669828 -37.336834 -19.368376 0
M  V30 55 H -12.057853 -37.712925 -19.961624 0
M  V30 56 H -10.330162 -38.619820 -21.943655 0
M  V30 57 H -11.575160 -38.832932 -21.035601 0
M  V30 58 H -12.359227 -38.845993 -22.137440 0
M  V30 59 H -13.302277 -35.597340 -22.663710 0
M  V30 60 H -11.810613 -36.010841 -22.508938 0
M  V30 61 H -13.942250 -37.226250 -23.391249 0
M  V30 62 H -13.068501 -37.025501 -22.628500 0
M  V30 63 H -13.058500 -37.015499 -22.618500 0
M  V30 64 H -12.184751 -36.814751 -21.855749 0
M  V30 65 H -12.174750 -36.804752 -21.845749 0
M  V30 END ATOM
M  V30 BEGIN BOND
M  V30 1 1 7 6
M  V30 2 1 4 2
M  V30 3 2 3 2
M  V30 4 2 2 1
M  V30 5 1 8 13
M  V30 6 1 8 2
M  V30 7 1 8 9
M  V30 8 1 9 5
M  V30 9 1 9 10
M  V30 10 1 10 11
M  V30 11 1 11 12
M  V30 12 1 12 13
M  V30 13 1 13 6
M  V30 14 2 15 14
M  V30 15 1 15 20
M  V30 16 1 15 16
M  V30 17 2 16 21
M  V30 18 1 16 17
M  V30 19 1 17 18
M  V30 20 2 17 22
M  V30 21 1 19 18 CFG=1
M  V30 22 1 19 20
M  V30 23 1 19 28
M  V30 24 1 19 25
M  V30 25 1 21 24
M  V30 26 1 22 23
M  V30 27 2 23 24
M  V30 28 1 25 26
M  V30 29 1 26 27
M  V30 30 1 27 28
M  V30 31 1 29 6
M  V30 32 1 30 29
M  V30 33 1 31 30
M  V30 34 1 31 27
M  V30 35 1 4 32
M  V30 36 1 4 33
M  V30 37 1 4 34
M  V30 38 1 5 35
M  V30 39 1 5 36
M  V30 40 1 5 37
M  V30 41 1 6 38 CFG=1
M  V30 42 1 7 39
M  V30 43 1 9 40 CFG=3
M  V30 44 1 10 41
M  V30 45 1 10 42
M  V30 46 1 11 43
M  V30 47 1 11 44
M  V30 48 1 12 45
M  V30 49 1 12 46
M  V30 50 1 13 47 CFG=1
M  V30 51 1 18 48
M  V30 52 1 20 49
M  V30 53 1 21 50
M  V30 54 1 22 51
M  V30 55 1 23 52
M  V30 56 1 24 53
M  V30 57 1 25 54
M  V30 58 1 25 55
M  V30 59 1 26 56
M  V30 60 1 26 57
M  V30 61 1 27 58 CFG=1
M  V30 62 1 28 59
M  V30 63 1 28 60
M  V30 64 1 29 61
M  V30 65 1 30 62
M  V30 66 1 30 63
M  V30 67 1 31 64
M  V30 68 1 31 65
M  V30 END BOND
M  V30 BEGIN COLLECTION
M  V30 MDLV30/STEABS ATOMS=(0)
M  V30 END COLLECTION
M  V30 END CTAB
M  END
>  <smiles>  (242) 
[H]O[C@]([H])(N([H])C([H])([H])C([H])([H])[C@@]1([H])C([H])([H])C([H])([H])[C@@]2(N([H])C(=O)c3c([H])c([H])c([H])c([H])c3N2[H])C1([H])[H])[C@@]1([H])N(S(=O)(=O)C([H])([H])[H])[C@@]([H])(C([H])([H])[H])C([H])([H])C([H])([H])C1([H])[H]

>  <error>  (242) 


>  <∆∆G>  (242) 
nan

>  <∆G_bound>  (242) 
nan

>  <∆G_unbound>  (242) 
nan

>  <comRMSD>  (242) 
0.0

>  <N_constrained_atoms>  (242) 
28.0

>  <N_unconstrained_atoms>  (242) 
3.0

>  <runtime>  (242) 
1.924045

>  <regarded>  (242) 
['d0851a', 'd1196a']

>  <disregarded>  (242) 
[]

>  <LE>  (242) 
nan

>  <outcome>  (242) 
crashed

>  <percent_hybrid>  (242) 
47.0

$$$$

     RDKit          2D

  0  0  0  0  0  0  0  0  0  0999 V2000
M  END
>  <smiles>  (243) 
nan

>  <error>  (243) 
DistanceError 6.15 Å

>  <∆∆G>  (243) 
nan

>  <∆G_bound>  (243) 
nan

>  <∆G_unbound>  (243) 
nan

>  <comRMSD>  (243) 
nan

>  <N_constrained_atoms>  (243) 
nan

>  <N_unconstrained_atoms>  (243) 
nan

>  <runtime>  (243) 
nan

>  <regarded>  (243) 
[]

>  <disregarded>  (243) 
[]

>  <LE>  (243) 
nan

>  <outcome>  (243) 
too distant

>  <percent_hybrid>  (243) 
nan

$$$$
LIG
     RDKit          3D

  0  0  0  0  0  0  0  0  0  0999 V3000
M  V30 BEGIN CTAB
M  V30 COUNTS 49 50 0 0 0
M  V30 BEGIN ATOM
M  V30 1 O -19.445000 -40.158001 -24.528000 0
M  V30 2 S -18.933001 -39.846001 -25.825001 0
M  V30 3 O -18.877001 -38.480999 -26.240999 0
M  V30 4 C -19.827000 -40.765999 -27.018000 0
M  V30 5 C -16.511999 -41.500999 -27.914000 0
M  V30 6 C -15.906000 -38.516998 -25.243999 0
M  V30 7 O -16.229000 -38.262001 -26.598000 0
M  V30 8 N -17.393000 -40.395000 -25.853001 0
M  V30 9 C -17.198999 -41.683998 -26.573000 0 CFG=2
M  V30 10 C -16.566000 -42.779999 -25.714001 0
M  V30 11 C -15.991000 -42.259998 -24.402000 0
M  V30 12 C -15.366000 -40.882000 -24.551001 0 CFG=1
M  V30 13 C -16.459999 -39.863998 -24.820000 0 CFG=1
M  V30 14 O -13.266000 -42.196999 -21.974001 0
M  V30 15 C -12.944000 -41.021999 -21.833000 0
M  V30 16 C -11.629000 -40.624001 -21.225000 0
M  V30 17 N -13.726000 -40.034000 -22.247999 0
M  V30 18 C -13.348000 -39.222000 -23.382000 0 CFG=2
M  V30 19 C -12.966000 -37.907001 -22.924999 0
M  V30 20 N -11.741000 -37.458000 -22.879000 0
M  V30 21 C -11.837000 -36.210999 -22.299000 0
M  V30 22 C -13.101000 -35.942001 -22.018000 0
M  V30 23 N -13.818000 -37.035000 -22.421000 0
M  V30 24 N -14.357000 -40.052002 -23.966499 0
M  V30 25 H -20.506313 -41.465069 -26.508259 0
M  V30 26 H -20.412142 -40.079388 -27.647423 0
M  V30 27 H -19.123901 -41.331223 -27.647423 0
M  V30 28 H -15.460629 -41.220943 -27.752167 0
M  V30 29 H -16.557558 -42.442596 -28.480846 0
M  V30 30 H -17.019920 -40.706833 -28.480846 0
M  V30 31 H -14.812429 -38.519810 -25.125275 0
M  V30 32 H -16.349152 -37.731411 -24.614344 0
M  V30 33 H -17.005259 -37.649174 -26.642309 0
M  V30 34 H -18.210634 -42.054550 -26.795010 0
M  V30 35 H -17.335379 -43.531914 -25.484476 0
M  V30 36 H -15.730892 -43.204590 -26.290470 0
M  V30 37 H -16.800354 -42.202751 -23.659256 0
M  V30 38 H -15.200456 -42.954960 -24.082518 0
M  V30 39 H -14.631975 -41.473911 -25.117434 0
M  V30 40 H -17.003857 -39.699589 -23.878094 0
M  V30 41 H -11.709771 -40.648445 -20.128242 0
M  V30 42 H -10.847049 -41.325714 -21.550806 0
M  V30 43 H -11.367404 -39.606445 -21.550806 0
M  V30 44 H -14.611291 -39.843807 -21.757097 0
M  V30 45 H -12.585799 -38.971275 -24.134455 0
M  V30 46 H -10.988646 -35.539764 -22.099646 0
M  V30 47 H -13.495500 -35.025738 -21.554501 0
M  V30 48 H -13.387000 -39.082001 -22.996500 0
M  V30 49 H -10.887267 -37.932812 -23.205488 0
M  V30 END ATOM
M  V30 BEGIN BOND
M  V30 1 1 7 6
M  V30 2 1 4 2
M  V30 3 2 3 2
M  V30 4 2 2 1
M  V30 5 1 8 13
M  V30 6 1 8 2
M  V30 7 1 8 9
M  V30 8 1 9 5
M  V30 9 1 9 10
M  V30 10 1 10 11
M  V30 11 1 11 12
M  V30 12 1 12 13
M  V30 13 1 13 6
M  V30 14 1 16 15
M  V30 15 2 15 14
M  V30 16 1 17 15
M  V30 17 1 18 17
M  V30 18 1 19 18
M  V30 19 1 19 20
M  V30 20 2 19 23
M  V30 21 1 20 21
M  V30 22 2 21 22
M  V30 23 1 22 23
M  V30 24 1 24 12
M  V30 25 1 24 18
M  V30 26 1 4 25
M  V30 27 1 4 26
M  V30 28 1 4 27
M  V30 29 1 5 28
M  V30 30 1 5 29
M  V30 31 1 5 30
M  V30 32 1 6 31
M  V30 33 1 6 32
M  V30 34 1 7 33
M  V30 35 1 9 34 CFG=3
M  V30 36 1 10 35
M  V30 37 1 10 36
M  V30 38 1 11 37
M  V30 39 1 11 38
M  V30 40 1 12 39 CFG=3
M  V30 41 1 13 40 CFG=1
M  V30 42 1 16 41
M  V30 43 1 16 42
M  V30 44 1 16 43
M  V30 45 1 17 44
M  V30 46 1 18 45 CFG=3
M  V30 47 1 21 46
M  V30 48 1 22 47
M  V30 49 1 24 48
M  V30 50 1 20 49
M  V30 END BOND
M  V30 BEGIN COLLECTION
M  V30 MDLV30/STEABS ATOMS=(0)
M  V30 END COLLECTION
M  V30 END CTAB
M  END
>  <smiles>  (244) 
[H]OC([H])([H])[C@@]1([H])N(S(=O)(=O)C([H])([H])[H])[C@@]([H])(C([H])([H])[H])C([H])([H])C([H])([H])[C@]1([H])N([H])[C@@]([H])(c1nc([H])c([H])[nH]1)N([H])C(=O)C([H])([H])[H]

>  <error>  (244) 


>  <∆∆G>  (244) 
nan

>  <∆G_bound>  (244) 
nan

>  <∆G_unbound>  (244) 
nan

>  <comRMSD>  (244) 
0.0

>  <N_constrained_atoms>  (244) 
23.0

>  <N_unconstrained_atoms>  (244) 
1.0

>  <runtime>  (244) 
1.222749

>  <regarded>  (244) 
['d0851a', 'z0103a']

>  <disregarded>  (244) 
[]

>  <LE>  (244) 
nan

>  <outcome>  (244) 
crashed

>  <percent_hybrid>  (244) 
44.0

$$$$

     RDKit          2D

  0  0  0  0  0  0  0  0  0  0999 V2000
M  END
>  <smiles>  (245) 
nan

>  <error>  (245) 
DistanceError 5.13 Å

>  <∆∆G>  (245) 
nan

>  <∆G_bound>  (245) 
nan

>  <∆G_unbound>  (245) 
nan

>  <comRMSD>  (245) 
nan

>  <N_constrained_atoms>  (245) 
nan

>  <N_unconstrained_atoms>  (245) 
nan

>  <runtime>  (245) 
nan

>  <regarded>  (245) 
[]

>  <disregarded>  (245) 
[]

>  <LE>  (245) 
nan

>  <outcome>  (245) 
too distant

>  <percent_hybrid>  (245) 
nan

$$$$

     RDKit          2D

  0  0  0  0  0  0  0  0  0  0999 V2000
M  END
>  <smiles>  (246) 
nan

>  <error>  (246) 
RecursionError maximum recursion depth exceeded while calling a Python object

>  <∆∆G>  (246) 
nan

>  <∆G_bound>  (246) 
nan

>  <∆G_unbound>  (246) 
nan

>  <comRMSD>  (246) 
nan

>  <N_constrained_atoms>  (246) 
nan

>  <N_unconstrained_atoms>  (246) 
nan

>  <runtime>  (246) 
nan

>  <regarded>  (246) 
[]

>  <disregarded>  (246) 
[]

>  <LE>  (246) 
nan

>  <outcome>  (246) 
crashed

>  <percent_hybrid>  (246) 
nan

$$$$
LIG
     RDKit          3D

 43 44  0  0  0  0  0  0  0  0999 V2000
  -20.0006  -39.2212  -24.6996 O   0  0  0  0  0  0  0  0  0  0  0  0
  -19.3448  -39.6440  -25.9175 S   0  0  0  0  0  0  0  0  0  0  0  0
  -18.9593  -38.6738  -26.9243 O   0  0  0  0  0  0  0  0  0  0  0  0
  -20.3907  -40.8608  -26.6860 C   0  0  0  0  0  0  0  0  0  0  0  0
  -16.3782  -40.9778  -27.3325 C   0  0  0  0  0  0  0  0  0  0  0  0
  -16.7289  -38.3329  -24.8095 C   0  0  0  0  0  0  0  0  0  0  0  0
  -16.2798  -38.2289  -26.1551 O   0  0  0  0  0  0  0  0  0  0  0  0
  -17.9693  -40.4672  -25.4389 N   0  0  0  0  0  0  0  0  0  0  0  0
  -17.3349  -41.5085  -26.2694 C   0  0  2  0  0  0  0  0  0  0  0  0
  -16.7204  -42.6014  -25.3908 C   0  0  0  0  0  0  0  0  0  0  0  0
  -16.2071  -42.1127  -24.0443 C   0  0  0  0  0  0  0  0  0  0  0  0
  -15.8493  -40.6228  -24.0785 C   0  0  1  0  0  0  0  0  0  0  0  0
  -17.1050  -39.7815  -24.4083 C   0  0  1  0  0  0  0  0  0  0  0  0
  -13.9407  -44.0209  -20.9096 N   0  0  0  0  0  0  0  0  0  0  0  0
  -13.4127  -42.9836  -20.9108 C   0  0  0  0  0  0  0  0  0  0  0  0
  -12.8219  -41.6721  -20.8738 C   0  0  0  0  0  0  0  0  0  0  0  0
  -13.0295  -40.5946  -21.7182 C   0  0  0  0  0  0  0  0  0  0  0  0
  -12.2099  -39.6044  -21.2314 N   0  0  0  0  0  0  0  0  0  0  0  0
  -11.5279  -40.1154  -20.1684 C   0  0  0  0  0  0  0  0  0  0  0  0
  -11.8863  -41.3513  -19.9186 N   0  0  0  0  0  0  0  0  0  0  0  0
  -15.2140  -40.2899  -22.7803 N   0  0  0  0  0  0  0  0  0  0  0  0
  -13.7817  -40.4333  -22.9683 C   0  0  0  0  0  0  0  0  0  0  0  0
  -20.4682  -41.7327  -26.0344 H   0  0  0  0  0  0  0  0  0  0  0  0
  -21.3795  -40.4128  -26.8123 H   0  0  0  0  0  0  0  0  0  0  0  0
  -19.9909  -41.1141  -27.6650 H   0  0  0  0  0  0  0  0  0  0  0  0
  -15.4850  -40.5086  -26.9182 H   0  0  0  0  0  0  0  0  0  0  0  0
  -16.0269  -41.7951  -27.9704 H   0  0  0  0  0  0  0  0  0  0  0  0
  -16.8709  -40.2423  -27.9758 H   0  0  0  0  0  0  0  0  0  0  0  0
  -15.9397  -37.9390  -24.1621 H   0  0  0  0  0  0  0  0  0  0  0  0
  -17.5871  -37.6626  -24.6898 H   0  0  0  0  0  0  0  0  0  0  0  0
  -17.0803  -38.2598  -26.7185 H   0  0  0  0  0  0  0  0  0  0  0  0
  -18.1360  -42.0195  -26.7940 H   0  0  0  0  0  0  0  0  0  0  0  0
  -17.4742  -43.3758  -25.1953 H   0  0  0  0  0  0  0  0  0  0  0  0
  -15.9167  -43.1103  -25.9333 H   0  0  0  0  0  0  0  0  0  0  0  0
  -16.9804  -42.2839  -23.2824 H   0  0  0  0  0  0  0  0  0  0  0  0
  -15.3535  -42.7360  -23.7517 H   0  0  0  0  0  0  0  0  0  0  0  0
  -15.1281  -40.4484  -24.8853 H   0  0  0  0  0  0  0  0  0  0  0  0
  -17.7006  -39.7304  -23.4857 H   0  0  0  0  0  0  0  0  0  0  0  0
  -10.7930  -39.5456  -19.6141 H   0  0  0  0  0  0  0  0  0  0  0  0
  -15.4206  -39.3374  -22.4907 H   0  0  0  0  0  0  0  0  0  0  0  0
  -13.6023  -41.3178  -23.5771 H   0  0  0  0  0  0  0  0  0  0  0  0
  -13.4088  -39.5678  -23.5292 H   0  0  0  0  0  0  0  0  0  0  0  0
  -12.0894  -38.6727  -21.6070 H   0  0  0  0  0  0  0  0  0  0  0  0
  7  6  1  0
  4  2  1  0
  3  2  2  0
  2  1  2  0
  8 13  1  0
  8  2  1  0
  8  9  1  0
  9  5  1  0
  9 10  1  0
 10 11  1  0
 11 12  1  0
 12 13  1  0
 13  6  1  0
 15 14  3  0
 16 15  1  0
 16 17  2  0
 16 20  1  0
 17 18  1  0
 18 19  1  0
 19 20  2  0
 21 12  1  0
 22 21  1  0
 22 17  1  0
  4 23  1  0
  4 24  1  0
  4 25  1  0
  5 26  1  0
  5 27  1  0
  5 28  1  0
  6 29  1  0
  6 30  1  0
  7 31  1  0
  9 32  1  6
 10 33  1  0
 10 34  1  0
 11 35  1  0
 11 36  1  0
 12 37  1  6
 13 38  1  1
 19 39  1  0
 21 40  1  0
 22 41  1  0
 22 42  1  0
 18 43  1  0
M  END
>  <smiles>  (247) 
[H]OC([H])([H])[C@@]1([H])N(S(=O)(=O)C([H])([H])[H])[C@@]([H])(C([H])([H])[H])C([H])([H])C([H])([H])[C@]1([H])N([H])C([H])([H])c1[nH]c([H])nc1C#N

>  <error>  (247) 


>  <∆∆G>  (247) 
-68.777594

>  <∆G_bound>  (247) 
171.520743

>  <∆G_unbound>  (247) 
240.298337

>  <comRMSD>  (247) 
0.79315

>  <N_constrained_atoms>  (247) 
20.0

>  <N_unconstrained_atoms>  (247) 
2.0

>  <runtime>  (247) 
1.179842

>  <regarded>  (247) 
['d0851a', 'z0875c']

>  <disregarded>  (247) 
[]

>  <LE>  (247) 
3.126254

>  <outcome>  (247) 
acceptable

>  <percent_hybrid>  (247) 
35.0

$$$$
LIG
     RDKit          3D

 82 85  0  0  0  0  0  0  0  0999 V2000
  -19.7656  -39.2318  -24.6193 O   0  0  0  0  0  0  0  0  0  0  0  0
  -19.1882  -39.6639  -25.8740 S   0  0  0  0  0  0  0  0  0  0  0  0
  -18.9241  -38.7055  -26.9308 O   0  0  0  0  0  0  0  0  0  0  0  0
  -20.2450  -40.9369  -26.5302 C   0  0  0  0  0  0  0  0  0  0  0  0
  -16.2959  -40.9855  -27.4597 C   0  0  0  0  0  0  0  0  0  0  0  0
  -16.5091  -38.2311  -25.0551 C   0  0  0  0  0  0  0  0  0  0  0  0
  -16.1851  -38.1535  -26.4358 O   0  0  0  0  0  0  0  0  0  0  0  0
  -17.7437  -40.4188  -25.4881 N   0  0  0  0  0  0  0  0  0  0  0  0
  -17.1627  -41.4933  -26.3130 C   0  0  2  0  0  0  0  0  0  0  0  0
  -16.4501  -42.5219  -25.4277 C   0  0  0  0  0  0  0  0  0  0  0  0
  -15.8714  -41.9416  -24.1309 C   0  0  2  0  0  0  0  0  0  0  0  0
  -15.5148  -40.4679  -24.3266 C   0  0  0  0  0  0  0  0  0  0  0  0
  -16.8019  -39.6684  -24.5878 C   0  0  1  0  0  0  0  0  0  0  0  0
  -13.3769  -42.3361  -18.6267 O   0  0  0  0  0  0  0  0  0  0  0  0
  -16.0598  -43.4652  -14.2064 O   0  0  0  0  0  0  0  0  0  0  0  0
  -13.8484  -38.1807  -16.4214 O   0  0  0  0  0  0  0  0  0  0  0  0
  -19.4743  -46.2221  -24.5442 C   0  0  0  0  0  0  0  0  0  0  0  0
  -20.1094  -46.3876  -25.5519 C   0  0  0  0  0  0  0  0  0  0  0  0
  -20.8641  -46.6295  -26.7806 C   0  0  0  0  0  0  0  0  0  0  0  0
  -14.4227  -44.4958  -16.7531 O   0  0  0  0  0  0  0  0  0  0  0  0
  -15.2040  -43.7888  -17.2613 C   0  0  0  0  0  0  0  0  0  0  0  0
  -16.2445  -42.8151  -16.6308 N   0  0  0  0  0  0  0  0  0  0  0  0
  -16.4982  -42.3947  -15.0629 S   0  0  0  0  0  0  0  0  0  0  0  0
  -17.7956  -41.7604  -14.9912 O   0  0  0  0  0  0  0  0  0  0  0  0
  -14.6292  -38.1062  -17.6073 C   0  0  0  0  0  0  0  0  0  0  0  0
  -12.3964  -41.5446  -19.2874 C   0  0  0  0  0  0  0  0  0  0  0  0
  -15.1576  -43.9007  -22.8857 O   0  0  0  0  0  0  0  0  0  0  0  0
  -14.6856  -42.7650  -23.6225 C   0  0  0  0  0  0  0  0  0  0  0  0
  -21.9455  -45.7127  -26.8811 O   0  0  0  0  0  0  0  0  0  0  0  0
  -15.2036  -43.7878  -21.5149 C   0  0  0  0  0  0  0  0  0  0  0  0
  -14.2030  -43.1206  -20.7930 C   0  0  0  0  0  0  0  0  0  0  0  0
  -14.2558  -43.0368  -19.4046 C   0  0  0  0  0  0  0  0  0  0  0  0
  -15.2752  -43.7155  -18.7330 C   0  0  0  0  0  0  0  0  0  0  0  0
  -16.2615  -44.4282  -19.4242 C   0  0  0  0  0  0  0  0  0  0  0  0
  -16.2435  -44.4594  -20.8278 C   0  0  0  0  0  0  0  0  0  0  0  0
  -13.3540  -39.2357  -14.4000 C   0  0  0  0  0  0  0  0  0  0  0  0
  -13.5405  -40.2258  -13.4361 C   0  0  0  0  0  0  0  0  0  0  0  0
  -14.5210  -41.1850  -13.6317 C   0  0  0  0  0  0  0  0  0  0  0  0
  -15.3073  -41.1321  -14.7881 C   0  0  0  0  0  0  0  0  0  0  0  0
  -15.1414  -40.1376  -15.7449 C   0  0  0  0  0  0  0  0  0  0  0  0
  -14.1472  -39.1902  -15.5533 C   0  0  0  0  0  0  0  0  0  0  0  0
  -17.6270  -46.5695  -21.3525 C   0  0  0  0  0  0  0  0  0  0  0  0
  -18.5052  -47.0265  -22.3822 C   0  0  0  0  0  0  0  0  0  0  0  0
  -18.7667  -46.0440  -23.3135 C   0  0  0  0  0  0  0  0  0  0  0  0
  -18.2026  -44.5339  -22.7766 S   0  0  0  0  0  0  0  0  0  0  0  0
  -17.2575  -45.2503  -21.5381 C   0  0  0  0  0  0  0  0  0  0  0  0
  -20.2370  -41.7953  -25.8564 H   0  0  0  0  0  0  0  0  0  0  0  0
  -21.2573  -40.5286  -26.5849 H   0  0  0  0  0  0  0  0  0  0  0  0
  -19.9155  -41.1972  -27.5331 H   0  0  0  0  0  0  0  0  0  0  0  0
  -15.3833  -40.4897  -27.1265 H   0  0  0  0  0  0  0  0  0  0  0  0
  -15.9819  -41.8195  -28.0943 H   0  0  0  0  0  0  0  0  0  0  0  0
  -16.8453  -40.2770  -28.0869 H   0  0  0  0  0  0  0  0  0  0  0  0
  -15.6815  -37.8100  -24.4774 H   0  0  0  0  0  0  0  0  0  0  0  0
  -17.3725  -37.5805  -24.8777 H   0  0  0  0  0  0  0  0  0  0  0  0
  -17.0242  -38.2759  -26.9242 H   0  0  0  0  0  0  0  0  0  0  0  0
  -17.9851  -42.0497  -26.7556 H   0  0  0  0  0  0  0  0  0  0  0  0
  -17.1646  -43.3082  -25.1644 H   0  0  0  0  0  0  0  0  0  0  0  0
  -15.6837  -43.0312  -26.0147 H   0  0  0  0  0  0  0  0  0  0  0  0
  -16.6593  -41.9784  -23.3669 H   0  0  0  0  0  0  0  0  0  0  0  0
  -15.0378  -40.0696  -23.4216 H   0  0  0  0  0  0  0  0  0  0  0  0
  -14.7796  -40.3474  -25.1279 H   0  0  0  0  0  0  0  0  0  0  0  0
  -17.3042  -39.5933  -23.6125 H   0  0  0  0  0  0  0  0  0  0  0  0
  -21.2439  -47.6527  -26.8470 H   0  0  0  0  0  0  0  0  0  0  0  0
  -20.2133  -46.4530  -27.6345 H   0  0  0  0  0  0  0  0  0  0  0  0
  -16.8222  -42.4150  -17.3628 H   0  0  0  0  0  0  0  0  0  0  0  0
  -15.6840  -37.9221  -17.3773 H   0  0  0  0  0  0  0  0  0  0  0  0
  -14.2657  -37.2553  -18.1918 H   0  0  0  0  0  0  0  0  0  0  0  0
  -14.5054  -39.0046  -18.2215 H   0  0  0  0  0  0  0  0  0  0  0  0
  -11.8055  -41.0351  -18.5203 H   0  0  0  0  0  0  0  0  0  0  0  0
  -11.7164  -42.1654  -19.8768 H   0  0  0  0  0  0  0  0  0  0  0  0
  -12.8672  -40.7779  -19.9117 H   0  0  0  0  0  0  0  0  0  0  0  0
  -14.0284  -42.1169  -23.0435 H   0  0  0  0  0  0  0  0  0  0  0  0
  -14.0841  -43.1469  -24.4536 H   0  0  0  0  0  0  0  0  0  0  0  0
  -22.7302  -46.1767  -26.5147 H   0  0  0  0  0  0  0  0  0  0  0  0
  -13.3396  -42.7248  -21.3144 H   0  0  0  0  0  0  0  0  0  0  0  0
  -17.0250  -44.9726  -18.8742 H   0  0  0  0  0  0  0  0  0  0  0  0
  -12.5782  -38.4870  -14.2545 H   0  0  0  0  0  0  0  0  0  0  0  0
  -12.9162  -40.2494  -12.5471 H   0  0  0  0  0  0  0  0  0  0  0  0
  -14.6609  -41.9691  -12.8908 H   0  0  0  0  0  0  0  0  0  0  0  0
  -15.7839  -40.1273  -16.6159 H   0  0  0  0  0  0  0  0  0  0  0  0
  -17.2166  -47.2152  -20.5853 H   0  0  0  0  0  0  0  0  0  0  0  0
  -18.8511  -48.0493  -22.4737 H   0  0  0  0  0  0  0  0  0  0  0  0
  7  6  1  0
  4  2  1  0
  3  2  2  0
  2  1  2  0
  8 13  1  0
  8  2  1  0
  8  9  1  0
  9  5  1  0
  9 10  1  0
 10 11  1  0
 11 12  1  0
 12 13  1  0
 13  6  1  0
 19 29  1  0
 19 18  1  0
 18 17  3  0
 27 28  1  0
 22 21  1  0
 22 23  1  0
 21 20  2  0
 15 23  2  0
 24 23  2  0
 14 26  1  0
 25 16  1  0
 30 35  1  0
 30 27  1  0
 30 31  2  0
 31 32  1  0
 32 33  2  0
 32 14  1  0
 33 34  1  0
 33 21  1  0
 34 35  2  0
 35 46  1  0
 36 41  2  0
 36 37  1  0
 37 38  2  0
 38 39  1  0
 39 23  1  0
 39 40  2  0
 40 41  1  0
 41 16  1  0
 42 43  1  0
 42 46  2  0
 43 44  2  0
 44 17  1  0
 44 45  1  0
 45 46  1  0
 11 28  1  0
  4 47  1  0
  4 48  1  0
  4 49  1  0
  5 50  1  0
  5 51  1  0
  5 52  1  0
  6 53  1  0
  6 54  1  0
  7 55  1  0
  9 56  1  6
 10 57  1  0
 10 58  1  0
 11 59  1  1
 12 60  1  0
 12 61  1  0
 13 62  1  1
 19 63  1  0
 19 64  1  0
 22 65  1  0
 25 66  1  0
 25 67  1  0
 25 68  1  0
 26 69  1  0
 26 70  1  0
 26 71  1  0
 28 72  1  0
 28 73  1  0
 29 74  1  0
 31 75  1  0
 34 76  1  0
 36 77  1  0
 37 78  1  0
 38 79  1  0
 40 80  1  0
 42 81  1  0
 43 82  1  0
M  END
>  <smiles>  (248) 
[H]OC([H])([H])C#Cc1sc(-c2c([H])c(C(=O)N([H])S(=O)(=O)c3c([H])c([H])c([H])c(OC([H])([H])[H])c3[H])c(OC([H])([H])[H])c([H])c2OC([H])([H])[C@]2([H])C([H])([H])[C@]([H])(C([H])([H])[H])N(S(=O)(=O)C([H])([H])[H])[C@]([H])(C([H])([H])O[H])C2([H])[H])c([H])c1[H]

>  <error>  (248) 


>  <∆∆G>  (248) 
-117.073268

>  <∆G_bound>  (248) 
162.304682

>  <∆G_unbound>  (248) 
279.37795

>  <comRMSD>  (248) 
0.643691

>  <N_constrained_atoms>  (248) 
46.0

>  <N_unconstrained_atoms>  (248) 
0.0

>  <runtime>  (248) 
156.029021

>  <regarded>  (248) 
['d0851a', '5i3p-a']

>  <disregarded>  (248) 
[]

>  <LE>  (248) 
2.545071

>  <outcome>  (248) 
acceptable

>  <percent_hybrid>  (248) 
29.0

$$$$
LIG
     RDKit          3D

 63 65  0  0  0  0  0  0  0  0999 V2000
  -19.8419  -39.2442  -24.6059 O   0  0  0  0  0  0  0  0  0  0  0  0
  -19.2310  -39.6222  -25.8613 S   0  0  0  0  0  0  0  0  0  0  0  0
  -19.0191  -38.6410  -26.9087 O   0  0  0  0  0  0  0  0  0  0  0  0
  -20.2077  -40.9441  -26.5406 C   0  0  0  0  0  0  0  0  0  0  0  0
  -16.4738  -40.7227  -27.6138 C   0  0  0  0  0  0  0  0  0  0  0  0
  -16.6221  -38.0101  -25.1809 C   0  0  0  0  0  0  0  0  0  0  0  0
  -16.3168  -37.9632  -26.5631 O   0  0  0  0  0  0  0  0  0  0  0  0
  -17.7438  -40.3083  -25.4729 N   0  0  0  0  0  0  0  0  0  0  0  0
  -17.1128  -41.3076  -26.3604 C   0  0  2  0  0  0  0  0  0  0  0  0
  -16.1431  -42.1464  -25.5486 C   0  0  0  0  0  0  0  0  0  0  0  0
  -15.0034  -41.2752  -25.0680 C   0  0  0  0  0  0  0  0  0  0  0  0
  -15.4819  -40.1035  -24.2052 C   0  0  1  0  0  0  0  0  0  0  0  0
  -16.8273  -39.4389  -24.6298 C   0  0  1  0  0  0  0  0  0  0  0  0
  -12.8983  -41.0514  -21.8961 O   0  0  0  0  0  0  0  0  0  0  0  0
  -14.8220  -40.6107  -20.6675 N   0  0  0  0  0  0  0  0  0  0  0  0
  -13.7086  -41.2372  -20.8389 C   0  0  0  0  0  0  0  0  0  0  0  0
  -13.2062  -42.3165  -19.9237 C   0  0  0  0  0  0  0  0  0  0  0  0
  -17.6607  -45.3998  -18.2824 O   0  0  0  0  0  0  0  0  0  0  0  0
  -16.5635  -44.7261  -18.7592 C   0  0  0  0  0  0  0  0  0  0  0  0
  -15.7961  -44.0637  -17.8031 C   0  0  0  0  0  0  0  0  0  0  0  0
  -14.6880  -43.3239  -18.1835 C   0  0  0  0  0  0  0  0  0  0  0  0
  -14.3372  -43.2396  -19.5277 C   0  0  0  0  0  0  0  0  0  0  0  0
  -15.1016  -43.9355  -20.4900 C   0  0  0  0  0  0  0  0  0  0  0  0
  -16.2455  -44.6739  -20.1273 C   0  0  0  0  0  0  0  0  0  0  0  0
  -18.2322  -47.2736  -22.0312 C   0  0  0  0  0  0  0  0  0  0  0  0
  -17.4227  -46.6773  -21.0685 C   0  0  0  0  0  0  0  0  0  0  0  0
  -17.0843  -45.3179  -21.1550 C   0  0  0  0  0  0  0  0  0  0  0  0
  -17.6001  -44.5744  -22.2306 C   0  0  0  0  0  0  0  0  0  0  0  0
  -18.3965  -45.1744  -23.2051 C   0  0  0  0  0  0  0  0  0  0  0  0
  -18.6804  -46.5323  -23.1190 C   0  0  0  0  0  0  0  0  0  0  0  0
  -15.5548  -40.6813  -22.8628 N   0  0  0  0  0  0  0  0  0  0  0  0
  -15.3051  -39.7856  -21.7525 C   0  0  0  0  0  0  0  0  0  0  0  0
  -20.1663  -41.8048  -25.8713 H   0  0  0  0  0  0  0  0  0  0  0  0
  -21.2390  -40.5894  -26.6116 H   0  0  0  0  0  0  0  0  0  0  0  0
  -19.8463  -41.1795  -27.5383 H   0  0  0  0  0  0  0  0  0  0  0  0
  -15.6447  -40.0479  -27.4032 H   0  0  0  0  0  0  0  0  0  0  0  0
  -16.0619  -41.5200  -28.2402 H   0  0  0  0  0  0  0  0  0  0  0  0
  -17.2010  -40.1599  -28.2048 H   0  0  0  0  0  0  0  0  0  0  0  0
  -15.8307  -37.4951  -24.6290 H   0  0  0  0  0  0  0  0  0  0  0  0
  -17.5246  -37.4081  -25.0223 H   0  0  0  0  0  0  0  0  0  0  0  0
  -17.1622  -38.1013  -27.0362 H   0  0  0  0  0  0  0  0  0  0  0  0
  -17.8887  -42.0107  -26.6663 H   0  0  0  0  0  0  0  0  0  0  0  0
  -16.6567  -42.6051  -24.6952 H   0  0  0  0  0  0  0  0  0  0  0  0
  -15.7643  -42.9694  -26.1593 H   0  0  0  0  0  0  0  0  0  0  0  0
  -14.2798  -41.9016  -24.5303 H   0  0  0  0  0  0  0  0  0  0  0  0
  -14.4412  -40.8710  -25.9143 H   0  0  0  0  0  0  0  0  0  0  0  0
  -14.6748  -39.3607  -24.2101 H   0  0  0  0  0  0  0  0  0  0  0  0
  -17.3810  -39.2783  -23.6923 H   0  0  0  0  0  0  0  0  0  0  0  0
  -13.4158  -40.6891  -22.6320 H   0  0  0  0  0  0  0  0  0  0  0  0
  -12.4306  -42.9065  -20.4224 H   0  0  0  0  0  0  0  0  0  0  0  0
  -12.7469  -41.8364  -19.0526 H   0  0  0  0  0  0  0  0  0  0  0  0
  -18.3107  -45.4302  -19.0092 H   0  0  0  0  0  0  0  0  0  0  0  0
  -16.0815  -44.0642  -16.7562 H   0  0  0  0  0  0  0  0  0  0  0  0
  -14.1280  -42.7787  -17.4264 H   0  0  0  0  0  0  0  0  0  0  0  0
  -14.8132  -43.8641  -21.5393 H   0  0  0  0  0  0  0  0  0  0  0  0
  -18.4651  -48.3322  -21.9708 H   0  0  0  0  0  0  0  0  0  0  0  0
  -17.0417  -47.2875  -20.2533 H   0  0  0  0  0  0  0  0  0  0  0  0
  -17.3733  -43.5133  -22.3115 H   0  0  0  0  0  0  0  0  0  0  0  0
  -18.7657  -44.5885  -24.0402 H   0  0  0  0  0  0  0  0  0  0  0  0
  -19.2354  -47.0296  -23.9105 H   0  0  0  0  0  0  0  0  0  0  0  0
  -16.4300  -41.1760  -22.6987 H   0  0  0  0  0  0  0  0  0  0  0  0
  -14.5810  -38.9949  -21.9852 H   0  0  0  0  0  0  0  0  0  0  0  0
  -16.2324  -39.2866  -21.4524 H   0  0  0  0  0  0  0  0  0  0  0  0
  7  6  1  0
  4  2  1  0
  3  2  2  0
  2  1  2  0
  8 13  1  0
  8  2  1  0
  8  9  1  0
  9  5  1  0
  9 10  1  0
 10 11  1  0
 11 12  1  0
 12 13  1  0
 13  6  1  0
 17 16  1  0
 15 16  2  0
 16 14  1  0
 19 18  1  0
 19 24  2  0
 19 20  1  0
 20 21  2  0
 21 22  1  0
 22 23  2  0
 22 17  1  0
 23 24  1  0
 24 27  1  0
 25 30  2  0
 25 26  1  0
 26 27  2  0
 27 28  1  0
 28 29  2  0
 29 30  1  0
 31 12  1  0
 32 31  1  0
 32 15  1  0
  4 33  1  0
  4 34  1  0
  4 35  1  0
  5 36  1  0
  5 37  1  0
  5 38  1  0
  6 39  1  0
  6 40  1  0
  7 41  1  0
  9 42  1  6
 10 43  1  0
 10 44  1  0
 11 45  1  0
 11 46  1  0
 12 47  1  1
 13 48  1  1
 14 49  1  0
 17 50  1  0
 17 51  1  0
 18 52  1  0
 20 53  1  0
 21 54  1  0
 23 55  1  0
 25 56  1  0
 26 57  1  0
 28 58  1  0
 29 59  1  0
 30 60  1  0
 31 61  1  0
 32 62  1  0
 32 63  1  0
M  END
>  <smiles>  (249) 
[H]O/C(=N/C([H])([H])N([H])[C@@]1([H])C([H])([H])C([H])([H])[C@]([H])(C([H])([H])[H])N(S(=O)(=O)C([H])([H])[H])[C@]1([H])C([H])([H])O[H])C([H])([H])c1c([H])c([H])c(O[H])c(-c2c([H])c([H])c([H])c([H])c2[H])c1[H]

>  <error>  (249) 


>  <∆∆G>  (249) 
-72.870829

>  <∆G_bound>  (249) 
222.837707

>  <∆G_unbound>  (249) 
295.708536

>  <comRMSD>  (249) 
0.804957

>  <N_constrained_atoms>  (249) 
30.0

>  <N_unconstrained_atoms>  (249) 
2.0

>  <runtime>  (249) 
3.99914

>  <regarded>  (249) 
['d0851a', '5hn0-a']

>  <disregarded>  (249) 
[]

>  <LE>  (249) 
2.277213

>  <outcome>  (249) 
acceptable

>  <percent_hybrid>  (249) 
44.0

$$$$
LIG
     RDKit          3D

 57 59  0  0  0  0  0  0  0  0999 V2000
  -19.7582  -39.2483  -24.6166 O   0  0  0  0  0  0  0  0  0  0  0  0
  -19.1636  -39.6791  -25.8632 S   0  0  0  0  0  0  0  0  0  0  0  0
  -18.8740  -38.7217  -26.9134 O   0  0  0  0  0  0  0  0  0  0  0  0
  -20.2290  -40.9310  -26.5426 C   0  0  0  0  0  0  0  0  0  0  0  0
  -16.2808  -41.0514  -27.4170 C   0  0  0  0  0  0  0  0  0  0  0  0
  -16.4806  -38.2805  -25.0310 C   0  0  0  0  0  0  0  0  0  0  0  0
  -16.1529  -38.2158  -26.4121 O   0  0  0  0  0  0  0  0  0  0  0  0
  -17.7376  -40.4616  -25.4566 N   0  0  0  0  0  0  0  0  0  0  0  0
  -17.1597  -41.5445  -26.2731 C   0  0  2  0  0  0  0  0  0  0  0  0
  -16.4699  -42.5788  -25.3722 C   0  0  0  0  0  0  0  0  0  0  0  0
  -15.8562  -41.9920  -24.0931 C   0  0  2  0  0  0  0  0  0  0  0  0
  -15.5029  -40.5188  -24.2968 C   0  0  0  0  0  0  0  0  0  0  0  0
  -16.7872  -39.7138  -24.5573 C   0  0  1  0  0  0  0  0  0  0  0  0
  -15.0530  -43.6459  -17.2036 C   0  0  0  0  0  0  0  0  0  0  0  0
  -15.9109  -41.8153  -15.8604 O   0  0  0  0  0  0  0  0  0  0  0  0
  -15.1169  -43.9772  -22.9072 O   0  0  0  0  0  0  0  0  0  0  0  0
  -16.1149  -42.7565  -16.6112 C   0  0  0  0  0  0  0  0  0  0  0  0
  -17.3725  -43.1443  -16.9014 O   0  0  0  0  0  0  0  0  0  0  0  0
  -14.6572  -42.8129  -23.6062 C   0  0  0  0  0  0  0  0  0  0  0  0
  -15.0605  -43.7609  -18.7079 C   0  0  0  0  0  0  0  0  0  0  0  0
  -13.9924  -43.2554  -19.4537 C   0  0  0  0  0  0  0  0  0  0  0  0
  -13.9880  -43.3477  -20.8476 C   0  0  0  0  0  0  0  0  0  0  0  0
  -15.0666  -43.9109  -21.5339 C   0  0  0  0  0  0  0  0  0  0  0  0
  -16.0996  -44.5105  -20.7919 C   0  0  0  0  0  0  0  0  0  0  0  0
  -16.0957  -44.4160  -19.3882 C   0  0  0  0  0  0  0  0  0  0  0  0
  -17.4297  -46.5739  -21.0786 C   0  0  0  0  0  0  0  0  0  0  0  0
  -18.6044  -47.2902  -22.0803 S   0  0  0  0  0  0  0  0  0  0  0  0
  -18.7087  -45.8935  -23.0577 C   0  0  0  0  0  0  0  0  0  0  0  0
  -17.9554  -44.8634  -22.5540 C   0  0  0  0  0  0  0  0  0  0  0  0
  -17.1549  -45.2712  -21.4463 C   0  0  0  0  0  0  0  0  0  0  0  0
  -20.2474  -41.7921  -25.8726 H   0  0  0  0  0  0  0  0  0  0  0  0
  -21.2333  -40.5059  -26.6137 H   0  0  0  0  0  0  0  0  0  0  0  0
  -19.8862  -41.1925  -27.5404 H   0  0  0  0  0  0  0  0  0  0  0  0
  -15.3615  -40.5694  -27.0830 H   0  0  0  0  0  0  0  0  0  0  0  0
  -15.9791  -41.8918  -28.0490 H   0  0  0  0  0  0  0  0  0  0  0  0
  -16.8162  -40.3347  -28.0472 H   0  0  0  0  0  0  0  0  0  0  0  0
  -15.6490  -37.8653  -24.4547 H   0  0  0  0  0  0  0  0  0  0  0  0
  -17.3372  -37.6200  -24.8577 H   0  0  0  0  0  0  0  0  0  0  0  0
  -16.9961  -38.3003  -26.9013 H   0  0  0  0  0  0  0  0  0  0  0  0
  -17.9839  -42.0937  -26.7222 H   0  0  0  0  0  0  0  0  0  0  0  0
  -17.2097  -43.3325  -25.0769 H   0  0  0  0  0  0  0  0  0  0  0  0
  -15.7293  -43.1297  -25.9561 H   0  0  0  0  0  0  0  0  0  0  0  0
  -16.6249  -42.0283  -23.3093 H   0  0  0  0  0  0  0  0  0  0  0  0
  -15.0217  -40.1181  -23.3950 H   0  0  0  0  0  0  0  0  0  0  0  0
  -14.7686  -40.4022  -25.0992 H   0  0  0  0  0  0  0  0  0  0  0  0
  -17.2890  -39.6321  -23.5824 H   0  0  0  0  0  0  0  0  0  0  0  0
  -14.0834  -43.2565  -16.8675 H   0  0  0  0  0  0  0  0  0  0  0  0
  -15.1392  -44.6423  -16.7581 H   0  0  0  0  0  0  0  0  0  0  0  0
  -17.9297  -42.6367  -16.2682 H   0  0  0  0  0  0  0  0  0  0  0  0
  -14.0216  -42.1693  -22.9955 H   0  0  0  0  0  0  0  0  0  0  0  0
  -14.0452  -43.1553  -24.4466 H   0  0  0  0  0  0  0  0  0  0  0  0
  -13.1348  -42.7957  -18.9637 H   0  0  0  0  0  0  0  0  0  0  0  0
  -13.0992  -43.0088  -21.3736 H   0  0  0  0  0  0  0  0  0  0  0  0
  -16.9190  -44.8496  -18.8240 H   0  0  0  0  0  0  0  0  0  0  0  0
  -16.9759  -47.1617  -20.2926 H   0  0  0  0  0  0  0  0  0  0  0  0
  -19.3280  -45.8850  -23.9419 H   0  0  0  0  0  0  0  0  0  0  0  0
  -17.9212  -43.8823  -23.0014 H   0  0  0  0  0  0  0  0  0  0  0  0
  7  6  1  0
  4  2  1  0
  3  2  2  0
  2  1  2  0
  8 13  1  0
  8  2  1  0
  8  9  1  0
  9  5  1  0
  9 10  1  0
 10 11  1  0
 11 12  1  0
 12 13  1  0
 13  6  1  0
 16 19  1  0
 14 17  1  0
 15 17  2  0
 17 18  1  0
 20 25  2  0
 20 14  1  0
 20 21  1  0
 21 22  2  0
 22 23  1  0
 23 24  2  0
 23 16  1  0
 24 30  1  0
 24 25  1  0
 26 27  1  0
 26 30  2  0
 27 28  1  0
 28 29  2  0
 29 30  1  0
 11 19  1  0
  4 31  1  0
  4 32  1  0
  4 33  1  0
  5 34  1  0
  5 35  1  0
  5 36  1  0
  6 37  1  0
  6 38  1  0
  7 39  1  0
  9 40  1  6
 10 41  1  0
 10 42  1  0
 11 43  1  1
 12 44  1  0
 12 45  1  0
 13 46  1  1
 14 47  1  0
 14 48  1  0
 18 49  1  0
 19 50  1  0
 19 51  1  0
 21 52  1  0
 22 53  1  0
 25 54  1  0
 26 55  1  0
 28 56  1  0
 29 57  1  0
M  END
>  <smiles>  (250) 
[H]OC(=O)C([H])([H])c1c([H])c([H])c(OC([H])([H])[C@]2([H])C([H])([H])[C@]([H])(C([H])([H])[H])N(S(=O)(=O)C([H])([H])[H])[C@]([H])(C([H])([H])O[H])C2([H])[H])c(-c2c([H])sc([H])c2[H])c1[H]

>  <error>  (250) 


>  <∆∆G>  (250) 
-216.069777

>  <∆G_bound>  (250) 
109.203937

>  <∆G_unbound>  (250) 
325.273714

>  <comRMSD>  (250) 
0.691645

>  <N_constrained_atoms>  (250) 
30.0

>  <N_unconstrained_atoms>  (250) 
0.0

>  <runtime>  (250) 
2.305545

>  <regarded>  (250) 
['d0851a', '5f41-a']

>  <disregarded>  (250) 
[]

>  <LE>  (250) 
7.202326

>  <outcome>  (250) 
acceptable

>  <percent_hybrid>  (250) 
44.0

$$$$
LIG
     RDKit          3D

 57 59  0  0  0  0  0  0  0  0999 V2000
  -19.7486  -39.2601  -24.6042 O   0  0  0  0  0  0  0  0  0  0  0  0
  -19.1511  -39.7021  -25.8458 S   0  0  0  0  0  0  0  0  0  0  0  0
  -18.8595  -38.7514  -26.9017 O   0  0  0  0  0  0  0  0  0  0  0  0
  -20.2158  -40.9580  -26.5178 C   0  0  0  0  0  0  0  0  0  0  0  0
  -16.2679  -41.0798  -27.3867 C   0  0  0  0  0  0  0  0  0  0  0  0
  -16.4687  -38.3024  -25.0087 C   0  0  0  0  0  0  0  0  0  0  0  0
  -16.1387  -38.2434  -26.3894 O   0  0  0  0  0  0  0  0  0  0  0  0
  -17.7262  -40.4819  -25.4317 N   0  0  0  0  0  0  0  0  0  0  0  0
  -17.1442  -41.5704  -26.2396 C   0  0  2  0  0  0  0  0  0  0  0  0
  -16.4461  -42.5970  -25.3334 C   0  0  0  0  0  0  0  0  0  0  0  0
  -15.8634  -42.0106  -24.0387 C   0  0  2  0  0  0  0  0  0  0  0  0
  -15.5036  -40.5392  -24.2487 C   0  0  0  0  0  0  0  0  0  0  0  0
  -16.7825  -39.7324  -24.5287 C   0  0  1  0  0  0  0  0  0  0  0  0
  -15.1724  -43.7637  -17.1198 C   0  0  0  0  0  0  0  0  0  0  0  0
  -15.1338  -43.9999  -22.8299 O   0  0  0  0  0  0  0  0  0  0  0  0
  -14.0139  -41.8547  -16.2361 O   0  0  0  0  0  0  0  0  0  0  0  0
  -12.9890  -43.8642  -16.1093 O   0  0  0  0  0  0  0  0  0  0  0  0
  -13.9599  -43.1905  -16.4291 C   0  0  0  0  0  0  0  0  0  0  0  0
  -14.6726  -42.8272  -23.5171 C   0  0  0  0  0  0  0  0  0  0  0  0
  -15.1128  -43.8173  -18.6272 C   0  0  0  0  0  0  0  0  0  0  0  0
  -14.0295  -43.3312  -19.3626 C   0  0  0  0  0  0  0  0  0  0  0  0
  -14.0261  -43.4029  -20.7574 C   0  0  0  0  0  0  0  0  0  0  0  0
  -15.1126  -43.9364  -21.4560 C   0  0  0  0  0  0  0  0  0  0  0  0
  -16.1690  -44.5217  -20.7323 C   0  0  0  0  0  0  0  0  0  0  0  0
  -16.1673  -44.4303  -19.3265 C   0  0  0  0  0  0  0  0  0  0  0  0
  -18.7345  -46.2409  -23.0658 C   0  0  0  0  0  0  0  0  0  0  0  0
  -18.4496  -47.1674  -22.0904 C   0  0  0  0  0  0  0  0  0  0  0  0
  -17.5538  -46.6430  -21.1184 C   0  0  0  0  0  0  0  0  0  0  0  0
  -17.2064  -45.3297  -21.3835 C   0  0  0  0  0  0  0  0  0  0  0  0
  -18.1686  -44.6917  -22.6471 S   0  0  0  0  0  0  0  0  0  0  0  0
  -21.2203  -40.5338  -26.5918 H   0  0  0  0  0  0  0  0  0  0  0  0
  -19.8724  -41.2251  -27.5137 H   0  0  0  0  0  0  0  0  0  0  0  0
  -20.2340  -41.8152  -25.8428 H   0  0  0  0  0  0  0  0  0  0  0  0
  -15.3470  -40.6000  -27.0526 H   0  0  0  0  0  0  0  0  0  0  0  0
  -15.9705  -41.9215  -28.0190 H   0  0  0  0  0  0  0  0  0  0  0  0
  -16.8024  -40.3623  -28.0166 H   0  0  0  0  0  0  0  0  0  0  0  0
  -15.6365  -37.8878  -24.4326 H   0  0  0  0  0  0  0  0  0  0  0  0
  -17.3233  -37.6381  -24.8398 H   0  0  0  0  0  0  0  0  0  0  0  0
  -16.9806  -38.3332  -26.8798 H   0  0  0  0  0  0  0  0  0  0  0  0
  -17.9659  -42.1253  -26.6879 H   0  0  0  0  0  0  0  0  0  0  0  0
  -17.1748  -43.3674  -25.0592 H   0  0  0  0  0  0  0  0  0  0  0  0
  -15.6838  -43.1272  -25.9078 H   0  0  0  0  0  0  0  0  0  0  0  0
  -16.6509  -42.0446  -23.2737 H   0  0  0  0  0  0  0  0  0  0  0  0
  -15.0299  -40.1331  -23.3455 H   0  0  0  0  0  0  0  0  0  0  0  0
  -14.7625  -40.4310  -25.0464 H   0  0  0  0  0  0  0  0  0  0  0  0
  -17.2928  -39.6428  -23.5589 H   0  0  0  0  0  0  0  0  0  0  0  0
  -15.2694  -44.7881  -16.7465 H   0  0  0  0  0  0  0  0  0  0  0  0
  -16.0649  -43.2173  -16.7939 H   0  0  0  0  0  0  0  0  0  0  0  0
  -14.8310  -41.4360  -16.5703 H   0  0  0  0  0  0  0  0  0  0  0  0
  -14.0525  -42.1819  -22.8908 H   0  0  0  0  0  0  0  0  0  0  0  0
  -14.0400  -43.1647  -24.3447 H   0  0  0  0  0  0  0  0  0  0  0  0
  -13.1452  -42.9140  -18.8808 H   0  0  0  0  0  0  0  0  0  0  0  0
  -13.1254  -43.0853  -21.2790 H   0  0  0  0  0  0  0  0  0  0  0  0
  -16.9989  -44.8609  -18.7713 H   0  0  0  0  0  0  0  0  0  0  0  0
  -19.2919  -46.3942  -23.9782 H   0  0  0  0  0  0  0  0  0  0  0  0
  -18.7865  -48.1955  -22.1280 H   0  0  0  0  0  0  0  0  0  0  0  0
  -17.1096  -47.2363  -20.3285 H   0  0  0  0  0  0  0  0  0  0  0  0
  7  6  1  0
  4  2  1  0
  3  2  2  0
  2  1  2  0
  8 13  1  0
  8  2  1  0
  8  9  1  0
  9  5  1  0
  9 10  1  0
 10 11  1  0
 11 12  1  0
 12 13  1  0
 13  6  1  0
 15 19  1  0
 17 18  2  0
 14 18  1  0
 18 16  1  0
 20 25  2  0
 20 14  1  0
 20 21  1  0
 21 22  2  0
 22 23  1  0
 23 24  2  0
 23 15  1  0
 24 29  1  0
 24 25  1  0
 26 27  2  0
 26 30  1  0
 27 28  1  0
 28 29  2  0
 29 30  1  0
 11 19  1  0
  4 31  1  0
  4 32  1  0
  4 33  1  0
  5 34  1  0
  5 35  1  0
  5 36  1  0
  6 37  1  0
  6 38  1  0
  7 39  1  0
  9 40  1  6
 10 41  1  0
 10 42  1  0
 11 43  1  1
 12 44  1  0
 12 45  1  0
 13 46  1  1
 14 47  1  0
 14 48  1  0
 16 49  1  0
 19 50  1  0
 19 51  1  0
 21 52  1  0
 22 53  1  0
 25 54  1  0
 26 55  1  0
 27 56  1  0
 28 57  1  0
M  END
>  <smiles>  (251) 
[H]OC(=O)C([H])([H])c1c([H])c([H])c(OC([H])([H])[C@]2([H])C([H])([H])[C@]([H])(C([H])([H])[H])N(S(=O)(=O)C([H])([H])[H])[C@]([H])(C([H])([H])O[H])C2([H])[H])c(-c2sc([H])c([H])c2[H])c1[H]

>  <error>  (251) 


>  <∆∆G>  (251) 
-79.32882

>  <∆G_bound>  (251) 
133.92555

>  <∆G_unbound>  (251) 
213.254369

>  <comRMSD>  (251) 
1.132701

>  <N_constrained_atoms>  (251) 
30.0

>  <N_unconstrained_atoms>  (251) 
0.0

>  <runtime>  (251) 
5.870708

>  <regarded>  (251) 
['d0851a', '6h80-a']

>  <disregarded>  (251) 
[]

>  <LE>  (251) 
2.644294

>  <outcome>  (251) 
too moved

>  <percent_hybrid>  (251) 
44.0

$$$$
LIG
     RDKit          3D

 71 73  0  0  0  0  0  0  0  0999 V2000
  -19.9035  -39.2430  -24.6698 O   0  0  0  0  0  0  0  0  0  0  0  0
  -19.2722  -39.6614  -25.9024 S   0  0  0  0  0  0  0  0  0  0  0  0
  -19.0073  -38.6984  -26.9553 O   0  0  0  0  0  0  0  0  0  0  0  0
  -20.2683  -40.9688  -26.5812 C   0  0  0  0  0  0  0  0  0  0  0  0
  -16.3024  -40.8136  -27.4362 C   0  0  0  0  0  0  0  0  0  0  0  0
  -16.6938  -38.1400  -24.9680 C   0  0  0  0  0  0  0  0  0  0  0  0
  -16.3385  -38.0370  -26.3419 O   0  0  0  0  0  0  0  0  0  0  0  0
  -17.8175  -40.3724  -25.4766 N   0  0  0  0  0  0  0  0  0  0  0  0
  -17.1547  -41.3864  -26.3133 C   0  0  2  0  0  0  0  0  0  0  0  0
  -16.3903  -42.3863  -25.4510 C   0  0  0  0  0  0  0  0  0  0  0  0
  -15.8720  -41.8368  -24.1312 C   0  0  0  0  0  0  0  0  0  0  0  0
  -15.6279  -40.3263  -24.1588 C   0  0  1  0  0  0  0  0  0  0  0  0
  -16.9529  -39.5956  -24.5132 C   0  0  1  0  0  0  0  0  0  0  0  0
  -13.0815  -42.3164  -20.7613 C   0  0  0  0  0  0  0  0  0  0  0  0
  -13.2898  -39.8519  -21.3362 N   0  0  0  0  0  0  0  0  0  0  0  0
  -17.7447  -42.2302  -15.2873 O   0  0  0  0  0  0  0  0  0  0  0  0
  -18.5717  -42.9532  -17.2358 O   0  0  0  0  0  0  0  0  0  0  0  0
  -19.3081  -46.2381  -24.3629 C   0  0  0  0  0  0  0  0  0  0  0  0
  -19.9349  -46.4212  -25.3754 C   0  0  0  0  0  0  0  0  0  0  0  0
  -20.6914  -46.6912  -26.6058 C   0  0  0  0  0  0  0  0  0  0  0  0
  -12.5582  -40.4538  -19.3279 O   0  0  0  0  0  0  0  0  0  0  0  0
  -12.9996  -40.8170  -20.5438 C   0  0  0  0  0  0  0  0  0  0  0  0
  -16.1452  -42.9093  -16.8785 C   0  0  0  0  0  0  0  0  0  0  0  0
  -17.5962  -42.6921  -16.5494 C   0  0  0  0  0  0  0  0  0  0  0  0
  -21.8122  -45.8221  -26.6925 O   0  0  0  0  0  0  0  0  0  0  0  0
  -14.3276  -42.9635  -20.1985 C   0  0  0  0  0  0  0  0  0  0  0  0
  -14.6666  -42.7523  -18.8617 C   0  0  0  0  0  0  0  0  0  0  0  0
  -15.8254  -43.2995  -18.3039 C   0  0  0  0  0  0  0  0  0  0  0  0
  -16.6054  -44.1678  -19.0862 C   0  0  0  0  0  0  0  0  0  0  0  0
  -16.2912  -44.4067  -20.4332 C   0  0  0  0  0  0  0  0  0  0  0  0
  -15.1410  -43.8053  -20.9741 C   0  0  0  0  0  0  0  0  0  0  0  0
  -18.4249  -47.0075  -22.1478 C   0  0  0  0  0  0  0  0  0  0  0  0
  -18.6027  -46.0516  -23.1262 C   0  0  0  0  0  0  0  0  0  0  0  0
  -17.8844  -44.5766  -22.6758 S   0  0  0  0  0  0  0  0  0  0  0  0
  -17.1734  -45.2413  -21.2632 C   0  0  0  0  0  0  0  0  0  0  0  0
  -17.5971  -46.5432  -21.0757 C   0  0  0  0  0  0  0  0  0  0  0  0
  -15.1483  -39.9247  -22.8159 N   0  0  0  0  0  0  0  0  0  0  0  0
  -13.7204  -40.1055  -22.6881 C   0  0  0  0  0  0  0  0  0  0  0  0
  -20.2407  -41.8293  -25.9108 H   0  0  0  0  0  0  0  0  0  0  0  0
  -21.2940  -40.5985  -26.6540 H   0  0  0  0  0  0  0  0  0  0  0  0
  -19.9102  -41.2113  -27.5781 H   0  0  0  0  0  0  0  0  0  0  0  0
  -15.4172  -40.2911  -27.0665 H   0  0  0  0  0  0  0  0  0  0  0  0
  -15.9449  -41.6162  -28.0883 H   0  0  0  0  0  0  0  0  0  0  0  0
  -16.8748  -40.1180  -28.0562 H   0  0  0  0  0  0  0  0  0  0  0  0
  -15.8970  -37.6783  -24.3777 H   0  0  0  0  0  0  0  0  0  0  0  0
  -17.5862  -37.5240  -24.8106 H   0  0  0  0  0  0  0  0  0  0  0  0
  -17.1621  -38.1777  -26.8512 H   0  0  0  0  0  0  0  0  0  0  0  0
  -17.9367  -41.9822  -26.7792 H   0  0  0  0  0  0  0  0  0  0  0  0
  -17.0414  -43.2411  -25.2346 H   0  0  0  0  0  0  0  0  0  0  0  0
  -15.5605  -42.8061  -26.0214 H   0  0  0  0  0  0  0  0  0  0  0  0
  -16.6080  -42.0483  -23.3471 H   0  0  0  0  0  0  0  0  0  0  0  0
  -14.9674  -42.3925  -23.8622 H   0  0  0  0  0  0  0  0  0  0  0  0
  -14.8728  -40.0824  -24.9160 H   0  0  0  0  0  0  0  0  0  0  0  0
  -17.5312  -39.5439  -23.5783 H   0  0  0  0  0  0  0  0  0  0  0  0
  -12.9784  -42.5715  -21.8131 H   0  0  0  0  0  0  0  0  0  0  0  0
  -12.2142  -42.7682  -20.2653 H   0  0  0  0  0  0  0  0  0  0  0  0
  -18.6405  -42.5643  -15.0380 H   0  0  0  0  0  0  0  0  0  0  0  0
  -21.0283  -47.7288  -26.6736 H   0  0  0  0  0  0  0  0  0  0  0  0
  -20.0678  -46.4975  -27.4768 H   0  0  0  0  0  0  0  0  0  0  0  0
  -12.5622  -39.4821  -19.3117 H   0  0  0  0  0  0  0  0  0  0  0  0
  -15.6358  -41.9665  -16.6401 H   0  0  0  0  0  0  0  0  0  0  0  0
  -15.7472  -43.6853  -16.2168 H   0  0  0  0  0  0  0  0  0  0  0  0
  -22.5852  -46.3177  -26.3480 H   0  0  0  0  0  0  0  0  0  0  0  0
  -14.0307  -42.1172  -18.2458 H   0  0  0  0  0  0  0  0  0  0  0  0
  -17.5089  -44.6127  -18.6756 H   0  0  0  0  0  0  0  0  0  0  0  0
  -14.8722  -43.9944  -22.0121 H   0  0  0  0  0  0  0  0  0  0  0  0
  -18.8292  -48.0110  -22.2109 H   0  0  0  0  0  0  0  0  0  0  0  0
  -17.3002  -47.1556  -20.2337 H   0  0  0  0  0  0  0  0  0  0  0  0
  -15.3440  -38.9482  -22.6136 H   0  0  0  0  0  0  0  0  0  0  0  0
  -13.4312  -41.0856  -23.0444 H   0  0  0  0  0  0  0  0  0  0  0  0
  -13.2124  -39.3812  -23.3337 H   0  0  0  0  0  0  0  0  0  0  0  0
  7  6  1  0
  4  2  1  0
  3  2  2  0
  2  1  2  0
  8 13  1  0
  8  2  1  0
  8  9  1  0
  9  5  1  0
  9 10  1  0
 10 11  1  0
 11 12  1  0
 12 13  1  0
 13  6  1  0
 25 20  1  0
 20 19  1  0
 19 18  3  0
 23 24  1  0
 17 24  2  0
 24 16  1  0
 14 22  1  0
 15 22  2  0
 22 21  1  0
 26 31  1  0
 26 27  2  0
 26 14  1  0
 27 28  1  0
 28 29  2  0
 28 23  1  0
 29 30  1  0
 30 35  1  0
 30 31  2  0
 32 33  2  0
 32 36  1  0
 33 18  1  0
 33 34  1  0
 34 35  1  0
 35 36  2  0
 37 12  1  0
 38 37  1  0
 38 15  1  0
  4 39  1  0
  4 40  1  0
  4 41  1  0
  5 42  1  0
  5 43  1  0
  5 44  1  0
  6 45  1  0
  6 46  1  0
  7 47  1  0
  9 48  1  6
 10 49  1  0
 10 50  1  0
 11 51  1  0
 11 52  1  0
 12 53  1  6
 13 54  1  1
 14 55  1  0
 14 56  1  0
 16 57  1  0
 20 58  1  0
 20 59  1  0
 21 60  1  0
 23 61  1  0
 23 62  1  0
 25 63  1  0
 27 64  1  0
 29 65  1  0
 31 66  1  0
 32 67  1  0
 36 68  1  0
 37 69  1  0
 38 70  1  0
 38 71  1  0
M  END
>  <smiles>  (252) 
[H]OC(=O)C([H])([H])c1c([H])c(-c2sc(C#CC([H])([H])O[H])c([H])c2[H])c([H])c(C([H])([H])/C(=N\C([H])([H])N([H])[C@@]2([H])C([H])([H])C([H])([H])[C@]([H])(C([H])([H])[H])N(S(=O)(=O)C([H])([H])[H])[C@]2([H])C([H])([H])O[H])O[H])c1[H]

>  <error>  (252) 


>  <∆∆G>  (252) 
-87.818153

>  <∆G_bound>  (252) 
193.605745

>  <∆G_unbound>  (252) 
281.423899

>  <comRMSD>  (252) 
0.920928

>  <N_constrained_atoms>  (252) 
36.0

>  <N_unconstrained_atoms>  (252) 
2.0

>  <runtime>  (252) 
5.398558

>  <regarded>  (252) 
['d0851a', '5hmy-a']

>  <disregarded>  (252) 
[]

>  <LE>  (252) 
2.311004

>  <outcome>  (252) 
acceptable

>  <percent_hybrid>  (252) 
37.0

$$$$
LIG
     RDKit          3D

 31 33  0  0  0  0  0  0  0  0999 V2000
  -20.9736  -39.1489  -24.8561 O   0  0  0  0  0  0  0  0  0  0  0  0
  -19.9412  -39.7422  -25.6641 S   0  0  2  0  0  0  0  0  0  0  0  0
  -18.8558  -39.0489  -26.5284 N   0  0  0  0  0  0  0  0  0  0  0  0
  -20.5839  -41.1248  -26.5526 C   0  0  0  0  0  0  0  0  0  0  0  0
  -16.8037  -40.1726  -27.0086 C   0  0  0  0  0  0  0  0  0  0  0  0
  -17.5440  -39.5848  -26.0709 C   0  0  0  0  0  0  0  0  0  0  0  0
  -16.8112  -44.6226  -22.1710 O   0  0  0  0  0  0  0  0  0  0  0  0
  -18.9063  -40.3452  -24.4144 N   0  0  0  0  0  0  0  0  0  0  0  0
  -15.7192  -41.1607  -26.8248 C   0  0  0  0  0  0  0  0  0  0  0  0
  -15.0076  -41.2635  -25.4843 C   0  0  0  0  0  0  0  0  0  0  0  0
  -15.7778  -41.6378  -24.2247 C   0  0  2  0  0  0  0  0  0  0  0  0
  -16.5152  -40.4084  -23.7005 C   0  0  0  0  0  0  0  0  0  0  0  0
  -17.5720  -39.7316  -24.5681 C   0  0  1  0  0  0  0  0  0  0  0  0
  -16.3333  -43.6437  -22.7205 C   0  0  0  0  0  0  0  0  0  0  0  0
  -15.4119  -42.8327  -22.1323 O   0  0  0  0  0  0  0  0  0  0  0  0
  -14.7553  -42.1075  -23.1632 C   0  0  0  0  0  0  0  0  0  0  0  0
  -16.8146  -43.1286  -24.3419 S   0  0  0  0  0  0  0  0  0  0  0  0
  -21.1496  -41.7548  -25.8644 H   0  0  0  0  0  0  0  0  0  0  0  0
  -21.2389  -40.7544  -27.3436 H   0  0  0  0  0  0  0  0  0  0  0  0
  -19.7522  -41.6813  -26.9768 H   0  0  0  0  0  0  0  0  0  0  0  0
  -17.0712  -39.9788  -28.0476 H   0  0  0  0  0  0  0  0  0  0  0  0
  -19.3348  -39.9703  -23.5720 H   0  0  0  0  0  0  0  0  0  0  0  0
  -16.0823  -42.1460  -27.1383 H   0  0  0  0  0  0  0  0  0  0  0  0
  -14.9624  -40.8664  -27.5562 H   0  0  0  0  0  0  0  0  0  0  0  0
  -14.2102  -41.9974  -25.5876 H   0  0  0  0  0  0  0  0  0  0  0  0
  -14.4804  -40.3140  -25.3109 H   0  0  0  0  0  0  0  0  0  0  0  0
  -16.9543  -40.6226  -22.7147 H   0  0  0  0  0  0  0  0  0  0  0  0
  -15.7589  -39.6372  -23.4855 H   0  0  0  0  0  0  0  0  0  0  0  0
  -17.6474  -38.7064  -24.1717 H   0  0  0  0  0  0  0  0  0  0  0  0
  -14.2236  -41.2623  -22.7114 H   0  0  0  0  0  0  0  0  0  0  0  0
  -13.9970  -42.7773  -23.5857 H   0  0  0  0  0  0  0  0  0  0  0  0
  2  4  1  6
  3  2  2  0
  2  1  2  0
  6  3  1  0
  6  5  2  0
  8 13  1  0
  8  2  1  0
  9  5  1  0
  9 10  1  0
 10 11  1  0
 11 12  1  0
 12 13  1  0
 14 15  1  0
 14  7  2  0
 14 17  1  0
 15 16  1  0
 11 16  1  0
 11 17  1  6
  6 13  1  0
  4 18  1  0
  4 19  1  0
  4 20  1  0
  5 21  1  0
  8 22  1  0
  9 23  1  0
  9 24  1  0
 10 25  1  0
 10 26  1  0
 12 27  1  0
 12 28  1  0
 13 29  1  1
 16 30  1  0
 16 31  1  0
M  END
>  <smiles>  (253) 
[H]C1=C2N=[S@@](=O)(C([H])([H])[H])N([H])[C@@]2([H])C([H])([H])[C@@]2(SC(=O)OC2([H])[H])C([H])([H])C1([H])[H]

>  <error>  (253) 


>  <∆∆G>  (253) 
-70.047432

>  <∆G_bound>  (253) 
109.673165

>  <∆G_unbound>  (253) 
179.720597

>  <comRMSD>  (253) 
1.29202

>  <N_constrained_atoms>  (253) 
17.0

>  <N_unconstrained_atoms>  (253) 
0.0

>  <runtime>  (253) 
0.818473

>  <regarded>  (253) 
['d0851a', '6izx-a']

>  <disregarded>  (253) 
[]

>  <LE>  (253) 
4.120437

>  <outcome>  (253) 
too moved

>  <percent_hybrid>  (253) 
36.0

$$$$
LIG
     RDKit          3D

  0  0  0  0  0  0  0  0  0  0999 V3000
M  V30 BEGIN CTAB
M  V30 COUNTS 84 88 0 0 0
M  V30 BEGIN ATOM
M  V30 1 O -19.445000 -40.158001 -24.528000 0
M  V30 2 S -18.933001 -39.846001 -25.825001 0
M  V30 3 O -18.877001 -38.480999 -26.240999 0
M  V30 4 C -19.827000 -40.765999 -27.018000 0
M  V30 5 C -16.511999 -41.500999 -27.914000 0
M  V30 6 C -15.906000 -38.516998 -25.243999 0
M  V30 7 O -16.229000 -38.262001 -26.598000 0
M  V30 8 N -17.393000 -40.395000 -25.853001 0
M  V30 9 C -17.198999 -41.683998 -26.573000 0 CFG=2
M  V30 10 C -16.566000 -42.779999 -25.714001 0
M  V30 11 C -15.991000 -42.259998 -24.402000 0 CFG=2
M  V30 12 C -15.366000 -40.882000 -24.551001 0
M  V30 13 C -16.459999 -39.863998 -24.820000 0 CFG=1
M  V30 14 O -22.292000 -46.169998 -26.733999 0
M  V30 15 O -16.690001 -43.313000 -16.674999 0
M  V30 16 O -16.066999 -44.730999 -14.459000 0
M  V30 17 C -19.778999 -46.601002 -24.382000 0
M  V30 18 C -20.374001 -46.664001 -25.413000 0
M  V30 19 C -21.059999 -46.842999 -26.695000 0
M  V30 20 C -15.694000 -43.786999 -17.224001 0
M  V30 21 O -13.724000 -45.530998 -14.552000 0
M  V30 22 S -14.712000 -44.549999 -14.881000 0
M  V30 23 N -14.678000 -44.380001 -16.497999 0
M  V30 24 C -13.494000 -42.282001 -18.618000 0
M  V30 25 O -15.445000 -43.889000 -22.853001 0
M  V30 26 C -14.516000 -43.067001 -23.573999 0
M  V30 27 C -15.451000 -43.814999 -21.486000 0
M  V30 28 C -14.506000 -43.106998 -20.750000 0
M  V30 29 C -14.535000 -43.085999 -19.358000 0
M  V30 30 C -15.547000 -43.814999 -18.707001 0
M  V30 31 C -16.469999 -44.549000 -19.452999 0
M  V30 32 C -16.441999 -44.568001 -20.841000 0
M  V30 33 C -19.000000 -46.375000 -23.219000 0
M  V30 34 C -18.827999 -47.167000 -22.125999 0
M  V30 35 C -17.954000 -46.608002 -21.172001 0
M  V30 36 C -17.424000 -45.404999 -21.561001 0
M  V30 37 S -18.046000 -44.942001 -23.110001 0
M  V30 38 C -15.037000 -42.195999 -13.611000 0
M  V30 39 C -14.680000 -40.923000 -13.192000 0
M  V30 40 C -13.492000 -40.373001 -13.576000 0
M  V30 41 C -12.555000 -41.122002 -14.337000 0
M  V30 42 C -12.901000 -42.432999 -14.756000 0
M  V30 43 C -14.158000 -42.956001 -14.334000 0
M  V30 44 C -11.302000 -40.623001 -14.771000 0
M  V30 45 C -10.470000 -41.411999 -15.512000 0
M  V30 46 C -10.905000 -42.681000 -15.882000 0
M  V30 47 N -12.062000 -43.212002 -15.506000 0
M  V30 48 N -15.253500 -42.663498 -23.987999 0
M  V30 49 H -20.506313 -41.465069 -26.508259 0
M  V30 50 H -20.412142 -40.079388 -27.647423 0
M  V30 51 H -19.123901 -41.331223 -27.647423 0
M  V30 52 H -15.460629 -41.220943 -27.752167 0
M  V30 53 H -16.557558 -42.442596 -28.480846 0
M  V30 54 H -17.019920 -40.706833 -28.480846 0
M  V30 55 H -14.812429 -38.519810 -25.125275 0
M  V30 56 H -16.349152 -37.731411 -24.614344 0
M  V30 57 H -17.005259 -37.649174 -26.642309 0
M  V30 58 H -18.210634 -42.054550 -26.795010 0
M  V30 59 H -16.529486 -43.837841 -26.013391 0
M  V30 60 H -15.597886 -42.607105 -26.206812 0
M  V30 61 H -16.912861 -42.411068 -23.821180 0
M  V30 62 H -14.291663 -40.658054 -24.475843 0
M  V30 63 H -15.255508 -41.049068 -25.632610 0
M  V30 64 H -17.003857 -39.699589 -23.878094 0
M  V30 65 H -22.604239 -45.999432 -25.810141 0
M  V30 66 H -21.237249 -47.916702 -26.855434 0
M  V30 67 H -20.419096 -46.421791 -27.483559 0
M  V30 68 H -13.855821 -44.732903 -17.008276 0
M  V30 69 H -13.643543 -42.397499 -17.534349 0
M  V30 70 H -12.490864 -42.642075 -18.890146 0
M  V30 71 H -13.588849 -41.220428 -18.890146 0
M  V30 72 H -13.917592 -42.391712 -22.944801 0
M  V30 73 H -13.692734 -43.502975 -24.158943 0
M  V30 74 H -13.718216 -42.551319 -21.279734 0
M  V30 75 H -17.241945 -45.129215 -18.926264 0
M  V30 76 H -19.320179 -48.142643 -21.999998 0
M  V30 77 H -17.720352 -47.089180 -20.210815 0
M  V30 78 H -16.030624 -42.596390 -13.361202 0
M  V30 79 H -15.360963 -40.351559 -12.544124 0
M  V30 80 H -13.256704 -39.336460 -13.292766 0
M  V30 81 H -10.999044 -39.598141 -14.510468 0
M  V30 82 H -9.474676 -41.051456 -15.810899 0
M  V30 83 H -10.248018 -43.282570 -16.527361 0
M  V30 84 H -13.923500 -41.333500 -22.657999 0
M  V30 END ATOM
M  V30 BEGIN BOND
M  V30 1 1 7 6
M  V30 2 1 4 2
M  V30 3 2 3 2
M  V30 4 2 2 1
M  V30 5 1 8 13
M  V30 6 1 8 2
M  V30 7 1 8 9
M  V30 8 1 9 5
M  V30 9 1 9 10
M  V30 10 1 10 11
M  V30 11 1 11 12
M  V30 12 1 12 13
M  V30 13 1 13 6
M  V30 14 1 14 19
M  V30 15 1 19 18
M  V30 16 3 18 17
M  V30 17 1 25 26
M  V30 18 2 15 20
M  V30 19 1 20 23
M  V30 20 2 16 22
M  V30 21 1 23 22
M  V30 22 2 22 21
M  V30 23 1 27 32
M  V30 24 1 27 25
M  V30 25 2 27 28
M  V30 26 1 28 29
M  V30 27 2 29 30
M  V30 28 1 29 24
M  V30 29 1 30 31
M  V30 30 1 30 20
M  V30 31 2 31 32
M  V30 32 1 32 36
M  V30 33 1 33 17
M  V30 34 2 33 34
M  V30 35 1 33 37
M  V30 36 1 34 35
M  V30 37 2 35 36
M  V30 38 1 36 37
M  V30 39 2 38 43
M  V30 40 1 38 39
M  V30 41 2 39 40
M  V30 42 1 40 41
M  V30 43 2 41 42
M  V30 44 1 41 44
M  V30 45 1 42 43
M  V30 46 1 42 47
M  V30 47 1 43 22
M  V30 48 2 44 45
M  V30 49 1 45 46
M  V30 50 2 46 47
M  V30 51 1 48 11
M  V30 52 1 48 26
M  V30 53 1 4 49
M  V30 54 1 4 50
M  V30 55 1 4 51
M  V30 56 1 5 52
M  V30 57 1 5 53
M  V30 58 1 5 54
M  V30 59 1 6 55
M  V30 60 1 6 56
M  V30 61 1 7 57
M  V30 62 1 9 58 CFG=3
M  V30 63 1 10 59
M  V30 64 1 10 60
M  V30 65 1 11 61 CFG=1
M  V30 66 1 12 62
M  V30 67 1 12 63
M  V30 68 1 13 64 CFG=1
M  V30 69 1 14 65
M  V30 70 1 19 66
M  V30 71 1 19 67
M  V30 72 1 23 68
M  V30 73 1 24 69
M  V30 74 1 24 70
M  V30 75 1 24 71
M  V30 76 1 26 72
M  V30 77 1 26 73
M  V30 78 1 28 74
M  V30 79 1 31 75
M  V30 80 1 34 76
M  V30 81 1 35 77
M  V30 82 1 38 78
M  V30 83 1 39 79
M  V30 84 1 40 80
M  V30 85 1 44 81
M  V30 86 1 45 82
M  V30 87 1 46 83
M  V30 88 1 48 84
M  V30 END BOND
M  V30 BEGIN COLLECTION
M  V30 MDLV30/STEABS ATOMS=(0)
M  V30 END COLLECTION
M  V30 END CTAB
M  END
>  <smiles>  (254) 
[H]OC([H])([H])C#Cc1sc(-c2c([H])c(C(=O)N([H])S(=O)(=O)c3c([H])c([H])c([H])c4c([H])c([H])c([H])nc34)c(C([H])([H])[H])c([H])c2OC([H])([H])N([H])[C@]2([H])C([H])([H])[C@]([H])(C([H])([H])[H])N(S(=O)(=O)C([H])([H])[H])[C@]([H])(C([H])([H])O[H])C2([H])[H])c([H])c1[H]

>  <error>  (254) 


>  <∆∆G>  (254) 
nan

>  <∆G_bound>  (254) 
nan

>  <∆G_unbound>  (254) 
nan

>  <comRMSD>  (254) 
0.0

>  <N_constrained_atoms>  (254) 
47.0

>  <N_unconstrained_atoms>  (254) 
1.0

>  <runtime>  (254) 
2.945942

>  <regarded>  (254) 
['d0851a', '5i3q-a']

>  <disregarded>  (254) 
[]

>  <LE>  (254) 
nan

>  <outcome>  (254) 
crashed

>  <percent_hybrid>  (254) 
28.0

$$$$
LIG
     RDKit          3D

 65 67  0  0  0  0  0  0  0  0999 V2000
  -19.7865  -40.6953  -24.5384 O   0  0  0  0  0  0  0  0  0  0  0  0
  -19.2665  -39.8703  -25.6058 S   0  0  0  0  0  0  0  0  0  0  0  0
  -19.3565  -38.4237  -25.5527 O   0  0  0  0  0  0  0  0  0  0  0  0
  -20.0403  -40.3757  -27.1241 C   0  0  0  0  0  0  0  0  0  0  0  0
  -16.1662  -41.3448  -27.4090 C   0  0  0  0  0  0  0  0  0  0  0  0
  -16.0253  -38.3779  -25.5615 C   0  0  0  0  0  0  0  0  0  0  0  0
  -16.9103  -37.6497  -26.4165 O   0  0  0  0  0  0  0  0  0  0  0  0
  -17.6414  -40.2396  -25.8232 N   0  0  0  0  0  0  0  0  0  0  0  0
  -17.2296  -41.5491  -26.3324 C   0  0  2  0  0  0  0  0  0  0  0  0
  -16.8266  -42.5302  -25.2492 C   0  0  0  0  0  0  0  0  0  0  0  0
  -16.3467  -41.8824  -23.9630 C   0  0  0  0  0  0  0  0  0  0  0  0
  -15.6540  -40.5365  -24.2218 C   0  0  1  0  0  0  0  0  0  0  0  0
  -16.6980  -39.5679  -24.8575 C   0  0  1  0  0  0  0  0  0  0  0  0
  -12.9672  -42.5957  -20.3454 C   0  0  0  0  0  0  0  0  0  0  0  0
  -12.1478  -40.5142  -19.4781 O   0  0  0  0  0  0  0  0  0  0  0  0
  -17.9521  -40.6744  -16.8828 O   0  0  0  0  0  0  0  0  0  0  0  0
  -18.9198  -42.6346  -17.3242 O   0  0  0  0  0  0  0  0  0  0  0  0
  -12.9347  -41.0811  -20.4052 C   0  0  0  0  0  0  0  0  0  0  0  0
  -13.5438  -40.2706  -21.1995 N   0  0  0  0  0  0  0  0  0  0  0  0
  -16.5717  -42.6792  -16.8580 C   0  0  0  0  0  0  0  0  0  0  0  0
  -17.8407  -41.8828  -17.0178 C   0  0  0  0  0  0  0  0  0  0  0  0
  -14.2765  -43.1725  -19.8545 C   0  0  0  0  0  0  0  0  0  0  0  0
  -14.7758  -42.7748  -18.6100 C   0  0  0  0  0  0  0  0  0  0  0  0
  -16.0137  -43.2329  -18.1481 C   0  0  0  0  0  0  0  0  0  0  0  0
  -16.7315  -44.1510  -18.9286 C   0  0  0  0  0  0  0  0  0  0  0  0
  -16.2573  -44.5577  -20.1821 C   0  0  0  0  0  0  0  0  0  0  0  0
  -15.0191  -44.0777  -20.6323 C   0  0  0  0  0  0  0  0  0  0  0  0
  -18.3171  -47.2142  -21.8560 C   0  0  0  0  0  0  0  0  0  0  0  0
  -18.5184  -46.2700  -22.8347 C   0  0  0  0  0  0  0  0  0  0  0  0
  -17.7913  -44.7838  -22.4416 S   0  0  0  0  0  0  0  0  0  0  0  0
  -17.0903  -45.4207  -21.0171 C   0  0  0  0  0  0  0  0  0  0  0  0
  -17.4827  -46.7272  -20.8094 C   0  0  0  0  0  0  0  0  0  0  0  0
  -15.0528  -39.9285  -23.0154 N   0  0  0  0  0  0  0  0  0  0  0  0
  -14.4314  -40.9113  -22.1484 C   0  0  0  0  0  0  0  0  0  0  0  0
  -20.1507  -41.4590  -27.1419 H   0  0  0  0  0  0  0  0  0  0  0  0
  -21.0301  -39.9148  -27.1634 H   0  0  0  0  0  0  0  0  0  0  0  0
  -19.4344  -40.0119  -27.9521 H   0  0  0  0  0  0  0  0  0  0  0  0
  -15.2234  -40.9753  -27.0037 H   0  0  0  0  0  0  0  0  0  0  0  0
  -15.9626  -42.2875  -27.9217 H   0  0  0  0  0  0  0  0  0  0  0  0
  -16.4945  -40.6117  -28.1543 H   0  0  0  0  0  0  0  0  0  0  0  0
  -15.1955  -38.7177  -26.1866 H   0  0  0  0  0  0  0  0  0  0  0  0
  -15.6492  -37.6826  -24.8073 H   0  0  0  0  0  0  0  0  0  0  0  0
  -17.7726  -37.6060  -25.9527 H   0  0  0  0  0  0  0  0  0  0  0  0
  -18.0822  -42.0073  -26.8218 H   0  0  0  0  0  0  0  0  0  0  0  0
  -17.6882  -43.1650  -25.0099 H   0  0  0  0  0  0  0  0  0  0  0  0
  -16.0590  -43.2157  -25.6290 H   0  0  0  0  0  0  0  0  0  0  0  0
  -17.1984  -41.7268  -23.2879 H   0  0  0  0  0  0  0  0  0  0  0  0
  -15.6870  -42.6078  -23.4774 H   0  0  0  0  0  0  0  0  0  0  0  0
  -14.8297  -40.7161  -24.9217 H   0  0  0  0  0  0  0  0  0  0  0  0
  -17.3089  -39.1642  -24.0368 H   0  0  0  0  0  0  0  0  0  0  0  0
  -12.7307  -42.9823  -21.3393 H   0  0  0  0  0  0  0  0  0  0  0  0
  -12.1728  -42.9404  -19.6756 H   0  0  0  0  0  0  0  0  0  0  0  0
  -12.2095  -39.5526  -19.6071 H   0  0  0  0  0  0  0  0  0  0  0  0
  -19.6504  -41.9796  -17.3424 H   0  0  0  0  0  0  0  0  0  0  0  0
  -15.8381  -42.0185  -16.3785 H   0  0  0  0  0  0  0  0  0  0  0  0
  -16.7373  -43.4814  -16.1421 H   0  0  0  0  0  0  0  0  0  0  0  0
  -14.2092  -42.0586  -18.0136 H   0  0  0  0  0  0  0  0  0  0  0  0
  -17.7077  -44.4974  -18.5937 H   0  0  0  0  0  0  0  0  0  0  0  0
  -14.6402  -44.3867  -21.6063 H   0  0  0  0  0  0  0  0  0  0  0  0
  -18.7178  -48.2172  -21.9190 H   0  0  0  0  0  0  0  0  0  0  0  0
  -19.0625  -46.3874  -23.7607 H   0  0  0  0  0  0  0  0  0  0  0  0
  -17.1718  -47.3114  -19.9550 H   0  0  0  0  0  0  0  0  0  0  0  0
  -14.3254  -39.2673  -23.2787 H   0  0  0  0  0  0  0  0  0  0  0  0
  -15.2350  -41.4177  -21.6082 H   0  0  0  0  0  0  0  0  0  0  0  0
  -13.8620  -41.6239  -22.7520 H   0  0  0  0  0  0  0  0  0  0  0  0
  7  6  1  0
  4  2  1  0
  3  2  2  0
  2  1  2  0
  8 13  1  0
  8  2  1  0
  8  9  1  0
  9  5  1  0
  9 10  1  0
 10 11  1  0
 11 12  1  0
 12 13  1  0
 13  6  1  0
 20 21  1  0
 21 16  2  0
 21 17  1  0
 14 18  1  0
 19 18  2  0
 18 15  1  0
 22 27  1  0
 22 23  2  0
 22 14  1  0
 23 24  1  0
 24 25  2  0
 24 20  1  0
 25 26  1  0
 26 31  1  0
 26 27  2  0
 28 29  2  0
 28 32  1  0
 29 30  1  0
 30 31  1  0
 31 32  2  0
 33 12  1  0
 34 33  1  0
 34 19  1  0
  4 35  1  0
  4 36  1  0
  4 37  1  0
  5 38  1  0
  5 39  1  0
  5 40  1  0
  6 41  1  0
  6 42  1  0
  7 43  1  0
  9 44  1  6
 10 45  1  0
 10 46  1  0
 11 47  1  0
 11 48  1  0
 12 49  1  6
 13 50  1  1
 14 51  1  0
 14 52  1  0
 15 53  1  0
 17 54  1  0
 20 55  1  0
 20 56  1  0
 23 57  1  0
 25 58  1  0
 27 59  1  0
 28 60  1  0
 29 61  1  0
 32 62  1  0
 33 63  1  0
 34 64  1  0
 34 65  1  0
M  END
>  <smiles>  (255) 
[H]OC(=O)C([H])([H])c1c([H])c(-c2sc([H])c([H])c2[H])c([H])c(C([H])([H])/C(=N\C([H])([H])N([H])[C@@]2([H])C([H])([H])C([H])([H])[C@]([H])(C([H])([H])[H])N(S(=O)(=O)C([H])([H])[H])[C@]2([H])C([H])([H])O[H])O[H])c1[H]

>  <error>  (255) 


>  <∆∆G>  (255) 
-112.009243

>  <∆G_bound>  (255) 
96.398528

>  <∆G_unbound>  (255) 
208.407771

>  <comRMSD>  (255) 
1.150058

>  <N_constrained_atoms>  (255) 
32.0

>  <N_unconstrained_atoms>  (255) 
2.0

>  <runtime>  (255) 
4.009692

>  <regarded>  (255) 
['d0851a', '5hmx-b']

>  <disregarded>  (255) 
[]

>  <LE>  (255) 
3.294389

>  <outcome>  (255) 
too moved

>  <percent_hybrid>  (255) 
41.0

$$$$
LIG
     RDKit          3D

  0  0  0  0  0  0  0  0  0  0999 V3000
M  V30 BEGIN CTAB
M  V30 COUNTS 84 87 0 0 0
M  V30 BEGIN ATOM
M  V30 1 O -19.445000 -40.158001 -24.528000 0
M  V30 2 S -18.933001 -39.846001 -25.825001 0
M  V30 3 O -18.877001 -38.480999 -26.240999 0
M  V30 4 C -19.827000 -40.765999 -27.018000 0
M  V30 5 C -16.511999 -41.500999 -27.914000 0
M  V30 6 C -15.906000 -38.516998 -25.243999 0
M  V30 7 O -16.229000 -38.262001 -26.598000 0
M  V30 8 N -17.393000 -40.395000 -25.853001 0
M  V30 9 C -17.198999 -41.683998 -26.573000 0 CFG=2
M  V30 10 C -16.566000 -42.779999 -25.714001 0
M  V30 11 C -15.991000 -42.259998 -24.402000 0 CFG=2
M  V30 12 C -15.366000 -40.882000 -24.551001 0
M  V30 13 C -16.459999 -39.863998 -24.820000 0 CFG=1
M  V30 14 O -13.059000 -42.610001 -18.479000 0
M  V30 15 O -17.714001 -42.296001 -15.013000 0
M  V30 16 O -12.865000 -39.470001 -15.427000 0
M  V30 17 C -19.211000 -46.504002 -24.429001 0
M  V30 18 C -19.791000 -46.613998 -25.464001 0
M  V30 19 C -20.584000 -46.872002 -26.666000 0
M  V30 20 O -14.229000 -44.429001 -16.355000 0
M  V30 21 C -15.110000 -44.029999 -17.115999 0
M  V30 22 N -16.246000 -43.403999 -16.635000 0
M  V30 23 S -16.552000 -43.130001 -15.039000 0
M  V30 24 O -16.562000 -44.383999 -14.350000 0
M  V30 25 C -13.292000 -39.081001 -16.736000 0
M  V30 26 C -12.190000 -41.643002 -19.082001 0
M  V30 27 O -14.855000 -43.950001 -22.778999 0
M  V30 28 C -13.814000 -43.257999 -23.455000 0
M  V30 29 O -21.716999 -46.032001 -26.728001 0
M  V30 30 C -14.858000 -43.925999 -21.408001 0
M  V30 31 C -13.929000 -43.228001 -20.659000 0
M  V30 32 C -13.952000 -43.272999 -19.278000 0
M  V30 33 C -14.929000 -44.015999 -18.607000 0
M  V30 34 C -15.863000 -44.723999 -19.375999 0
M  V30 35 C -15.855000 -44.689999 -20.777000 0
M  V30 36 C -13.047000 -40.689999 -13.506000 0
M  V30 37 C -13.619000 -41.672001 -12.707000 0
M  V30 38 C -14.700000 -42.417000 -13.158000 0
M  V30 39 C -15.198000 -42.176998 -14.430000 0
M  V30 40 C -14.650000 -41.188000 -15.231000 0
M  V30 41 C -13.567000 -40.449001 -14.768000 0
M  V30 42 C -17.482000 -46.637001 -21.159000 0
M  V30 43 C -18.358999 -47.137001 -22.125999 0
M  V30 44 C -18.469000 -46.320000 -23.235001 0
M  V30 45 S -17.472000 -44.923000 -23.080999 0
M  V30 46 C -16.886000 -45.438000 -21.525999 0
M  V30 47 N -14.902500 -42.758999 -23.928501 0
M  V30 48 H -20.506313 -41.465069 -26.508259 0
M  V30 49 H -20.412142 -40.079388 -27.647423 0
M  V30 50 H -19.123901 -41.331223 -27.647423 0
M  V30 51 H -15.460629 -41.220943 -27.752167 0
M  V30 52 H -16.557558 -42.442596 -28.480846 0
M  V30 53 H -17.019920 -40.706833 -28.480846 0
M  V30 54 H -14.812429 -38.519810 -25.125275 0
M  V30 55 H -16.349152 -37.731411 -24.614344 0
M  V30 56 H -17.005259 -37.649174 -26.642309 0
M  V30 57 H -18.210634 -42.054550 -26.795010 0
M  V30 58 H -16.529486 -43.837841 -26.013391 0
M  V30 59 H -15.597886 -42.607105 -26.206812 0
M  V30 60 H -16.891226 -42.441837 -23.796585 0
M  V30 61 H -14.291663 -40.658054 -24.475843 0
M  V30 62 H -15.255508 -41.049068 -25.632610 0
M  V30 63 H -17.003857 -39.699589 -23.878094 0
M  V30 64 H -20.916389 -47.920540 -26.656790 0
M  V30 65 H -19.954803 -46.668625 -27.545063 0
M  V30 66 H -16.947315 -43.088100 -17.320030 0
M  V30 67 H -14.102827 -38.342331 -16.652767 0
M  V30 68 H -12.445873 -38.636864 -17.280804 0
M  V30 69 H -13.655581 -39.964741 -17.280804 0
M  V30 70 H -11.675996 -41.071033 -18.295456 0
M  V30 71 H -11.445468 -42.158207 -19.706690 0
M  V30 72 H -12.781532 -40.957542 -19.706690 0
M  V30 73 H -13.176738 -42.594337 -22.852131 0
M  V30 74 H -12.966917 -43.685474 -24.011520 0
M  V30 75 H -22.014759 -45.811245 -25.810011 0
M  V30 76 H -13.160841 -42.628475 -21.169395 0
M  V30 77 H -16.627356 -45.326077 -18.862907 0
M  V30 78 H -12.188149 -40.108269 -13.139984 0
M  V30 79 H -13.209904 -41.861725 -11.703683 0
M  V30 80 H -15.154731 -43.186031 -12.516273 0
M  V30 81 H -15.069595 -40.988525 -16.228071 0
M  V30 82 H -17.283876 -47.143093 -20.202644 0
M  V30 83 H -18.906128 -48.084839 -22.015305 0
M  V30 84 H -13.572500 -41.428997 -22.598499 0
M  V30 END ATOM
M  V30 BEGIN BOND
M  V30 1 1 7 6
M  V30 2 1 4 2
M  V30 3 2 3 2
M  V30 4 2 2 1
M  V30 5 1 8 13
M  V30 6 1 8 2
M  V30 7 1 8 9
M  V30 8 1 9 5
M  V30 9 1 9 10
M  V30 10 1 10 11
M  V30 11 1 11 12
M  V30 12 1 12 13
M  V30 13 1 13 6
M  V30 14 1 19 29
M  V30 15 1 19 18
M  V30 16 3 18 17
M  V30 17 1 27 28
M  V30 18 1 22 21
M  V30 19 1 22 23
M  V30 20 2 21 20
M  V30 21 2 15 23
M  V30 22 2 24 23
M  V30 23 1 14 26
M  V30 24 1 25 16
M  V30 25 1 30 35
M  V30 26 1 30 27
M  V30 27 2 30 31
M  V30 28 1 31 32
M  V30 29 2 32 33
M  V30 30 1 32 14
M  V30 31 1 33 34
M  V30 32 1 33 21
M  V30 33 2 34 35
M  V30 34 1 35 46
M  V30 35 2 36 41
M  V30 36 1 36 37
M  V30 37 2 37 38
M  V30 38 1 38 39
M  V30 39 1 39 23
M  V30 40 2 39 40
M  V30 41 1 40 41
M  V30 42 1 41 16
M  V30 43 1 42 43
M  V30 44 2 42 46
M  V30 45 2 43 44
M  V30 46 1 44 17
M  V30 47 1 44 45
M  V30 48 1 45 46
M  V30 49 1 47 11
M  V30 50 1 47 28
M  V30 51 1 4 48
M  V30 52 1 4 49
M  V30 53 1 4 50
M  V30 54 1 5 51
M  V30 55 1 5 52
M  V30 56 1 5 53
M  V30 57 1 6 54
M  V30 58 1 6 55
M  V30 59 1 7 56
M  V30 60 1 9 57 CFG=3
M  V30 61 1 10 58
M  V30 62 1 10 59
M  V30 63 1 11 60 CFG=1
M  V30 64 1 12 61
M  V30 65 1 12 62
M  V30 66 1 13 63 CFG=1
M  V30 67 1 19 64
M  V30 68 1 19 65
M  V30 69 1 22 66
M  V30 70 1 25 67
M  V30 71 1 25 68
M  V30 72 1 25 69
M  V30 73 1 26 70
M  V30 74 1 26 71
M  V30 75 1 26 72
M  V30 76 1 28 73
M  V30 77 1 28 74
M  V30 78 1 29 75
M  V30 79 1 31 76
M  V30 80 1 34 77
M  V30 81 1 36 78
M  V30 82 1 37 79
M  V30 83 1 38 80
M  V30 84 1 40 81
M  V30 85 1 42 82
M  V30 86 1 43 83
M  V30 87 1 47 84
M  V30 END BOND
M  V30 BEGIN COLLECTION
M  V30 MDLV30/STEABS ATOMS=(0)
M  V30 END COLLECTION
M  V30 END CTAB
M  END
>  <smiles>  (256) 
[H]OC([H])([H])C#Cc1sc(-c2c([H])c(C(=O)N([H])S(=O)(=O)c3c([H])c([H])c([H])c(OC([H])([H])[H])c3[H])c(OC([H])([H])[H])c([H])c2OC([H])([H])N([H])[C@]2([H])C([H])([H])[C@]([H])(C([H])([H])[H])N(S(=O)(=O)C([H])([H])[H])[C@]([H])(C([H])([H])O[H])C2([H])[H])c([H])c1[H]

>  <error>  (256) 


>  <∆∆G>  (256) 
nan

>  <∆G_bound>  (256) 
nan

>  <∆G_unbound>  (256) 
nan

>  <comRMSD>  (256) 
0.0

>  <N_constrained_atoms>  (256) 
46.0

>  <N_unconstrained_atoms>  (256) 
1.0

>  <runtime>  (256) 
2.978386

>  <regarded>  (256) 
['d0851a', '5k5m-a']

>  <disregarded>  (256) 
[]

>  <LE>  (256) 
nan

>  <outcome>  (256) 
crashed

>  <percent_hybrid>  (256) 
29.0

$$$$
LIG
     RDKit          3D

  0  0  0  0  0  0  0  0  0  0999 V3000
M  V30 BEGIN CTAB
M  V30 COUNTS 72 74 0 0 0
M  V30 BEGIN ATOM
M  V30 1 O -19.445000 -40.158001 -24.528000 0
M  V30 2 S -18.933001 -39.846001 -25.825001 0
M  V30 3 O -18.877001 -38.480999 -26.240999 0
M  V30 4 C -19.827000 -40.765999 -27.018000 0
M  V30 5 C -16.511999 -41.500999 -27.914000 0
M  V30 6 C -15.906000 -38.516998 -25.243999 0
M  V30 7 O -16.229000 -38.262001 -26.598000 0
M  V30 8 N -17.393000 -40.395000 -25.853001 0
M  V30 9 C -17.198999 -41.683998 -26.573000 0 CFG=2
M  V30 10 C -16.566000 -42.779999 -25.714001 0
M  V30 11 C -15.991000 -42.259998 -24.402000 0 CFG=2
M  V30 12 C -15.366000 -40.882000 -24.551001 0
M  V30 13 C -16.459999 -39.863998 -24.820000 0 CFG=1
M  V30 14 C -19.818001 -46.580002 -24.270000 0
M  V30 15 C -15.760000 -42.192001 -14.503000 0
M  V30 16 C -20.392000 -46.660000 -25.309999 0
M  V30 17 C -20.905001 -46.700001 -26.679001 0
M  V30 18 C -15.534000 -43.762001 -17.311001 0
M  V30 19 C -13.321000 -42.277000 -18.820999 0
M  V30 20 O -15.426000 -43.787998 -22.948000 0
M  V30 21 C -14.415000 -43.044998 -23.643000 0
M  V30 22 O -14.665000 -44.292999 -16.621000 0
M  V30 23 N -16.653000 -43.152000 -16.789000 0
M  V30 24 S -17.031000 -43.102001 -15.230000 0
M  V30 25 O -16.983999 -44.417999 -14.750000 0
M  V30 26 O -18.233000 -42.353001 -15.150000 0
M  V30 27 O -22.167000 -46.080002 -26.768999 0
M  V30 28 C -16.385000 -44.480000 -19.483999 0
M  V30 29 C -15.409000 -43.759998 -18.796000 0
M  V30 30 C -14.430000 -43.042999 -19.507999 0
M  V30 31 C -14.493000 -43.049999 -20.900000 0
M  V30 32 C -15.471000 -43.773998 -21.576000 0
M  V30 33 C -16.426001 -44.507999 -20.872999 0
M  V30 34 C -19.028000 -46.348000 -23.115999 0
M  V30 35 C -18.854000 -47.084000 -22.014999 0
M  V30 36 C -17.948000 -46.509998 -21.113001 0
M  V30 37 C -17.434999 -45.320000 -21.558001 0
M  V30 38 S -18.084999 -44.922001 -23.068001 0
M  V30 39 N -15.203000 -42.652496 -24.022499 0
M  V30 40 H -20.506313 -41.465069 -26.508259 0
M  V30 41 H -20.412142 -40.079388 -27.647423 0
M  V30 42 H -19.123901 -41.331223 -27.647423 0
M  V30 43 H -15.460629 -41.220943 -27.752167 0
M  V30 44 H -16.557558 -42.442596 -28.480846 0
M  V30 45 H -17.019920 -40.706833 -28.480846 0
M  V30 46 H -14.812429 -38.519810 -25.125275 0
M  V30 47 H -16.349152 -37.731411 -24.614344 0
M  V30 48 H -17.005259 -37.649174 -26.642309 0
M  V30 49 H -18.210634 -42.054550 -26.795010 0
M  V30 50 H -16.529486 -43.837841 -26.013391 0
M  V30 51 H -15.597886 -42.607105 -26.206812 0
M  V30 52 H -16.899490 -42.425266 -23.804228 0
M  V30 53 H -14.291663 -40.658054 -24.475843 0
M  V30 54 H -15.255508 -41.049068 -25.632610 0
M  V30 55 H -17.003857 -39.699589 -23.878094 0
M  V30 56 H -15.845274 -42.253056 -13.408011 0
M  V30 57 H -14.789023 -42.601425 -14.818560 0
M  V30 58 H -15.834725 -41.140888 -14.818560 0
M  V30 59 H -20.997185 -47.748981 -26.997023 0
M  V30 60 H -20.203392 -46.157421 -27.329655 0
M  V30 61 H -13.439723 -42.359005 -17.730503 0
M  V30 62 H -12.348014 -42.696510 -19.116480 0
M  V30 63 H -13.368885 -41.218513 -19.116480 0
M  V30 64 H -13.788666 -42.382080 -23.027983 0
M  V30 65 H -13.577234 -43.477287 -24.209810 0
M  V30 66 H -17.296339 -42.692879 -17.449469 0
M  V30 67 H -22.516090 -45.908501 -25.858603 0
M  V30 68 H -17.140970 -45.039505 -18.913506 0
M  V30 69 H -13.755346 -42.472004 -21.476011 0
M  V30 70 H -19.367716 -48.039921 -21.835253 0
M  V30 71 H -17.677311 -46.966576 -20.149536 0
M  V30 72 H -13.993000 -41.442497 -22.812500 0
M  V30 END ATOM
M  V30 BEGIN BOND
M  V30 1 1 7 6
M  V30 2 1 4 2
M  V30 3 2 3 2
M  V30 4 2 2 1
M  V30 5 1 8 13
M  V30 6 1 8 2
M  V30 7 1 8 9
M  V30 8 1 9 5
M  V30 9 1 9 10
M  V30 10 1 10 11
M  V30 11 1 11 12
M  V30 12 1 12 13
M  V30 13 1 13 6
M  V30 14 1 27 17
M  V30 15 1 17 16
M  V30 16 3 16 14
M  V30 17 1 20 21
M  V30 18 2 25 24
M  V30 19 1 23 18
M  V30 20 1 23 24
M  V30 21 2 18 22
M  V30 22 2 26 24
M  V30 23 1 24 15
M  V30 24 2 28 33
M  V30 25 1 28 29
M  V30 26 1 29 18
M  V30 27 2 29 30
M  V30 28 1 30 31
M  V30 29 1 30 19
M  V30 30 2 31 32
M  V30 31 1 32 33
M  V30 32 1 32 20
M  V30 33 1 33 37
M  V30 34 1 34 14
M  V30 35 2 34 35
M  V30 36 1 34 38
M  V30 37 1 35 36
M  V30 38 2 36 37
M  V30 39 1 37 38
M  V30 40 1 39 11
M  V30 41 1 39 21
M  V30 42 1 4 40
M  V30 43 1 4 41
M  V30 44 1 4 42
M  V30 45 1 5 43
M  V30 46 1 5 44
M  V30 47 1 5 45
M  V30 48 1 6 46
M  V30 49 1 6 47
M  V30 50 1 7 48
M  V30 51 1 9 49 CFG=3
M  V30 52 1 10 50
M  V30 53 1 10 51
M  V30 54 1 11 52 CFG=1
M  V30 55 1 12 53
M  V30 56 1 12 54
M  V30 57 1 13 55 CFG=1
M  V30 58 1 15 56
M  V30 59 1 15 57
M  V30 60 1 15 58
M  V30 61 1 17 59
M  V30 62 1 17 60
M  V30 63 1 19 61
M  V30 64 1 19 62
M  V30 65 1 19 63
M  V30 66 1 21 64
M  V30 67 1 21 65
M  V30 68 1 23 66
M  V30 69 1 27 67
M  V30 70 1 28 68
M  V30 71 1 31 69
M  V30 72 1 35 70
M  V30 73 1 36 71
M  V30 74 1 39 72
M  V30 END BOND
M  V30 BEGIN COLLECTION
M  V30 MDLV30/STEABS ATOMS=(0)
M  V30 END COLLECTION
M  V30 END CTAB
M  END
>  <smiles>  (257) 
[H]OC([H])([H])C#Cc1sc(-c2c([H])c(C(=O)N([H])S(=O)(=O)C([H])([H])[H])c(C([H])([H])[H])c([H])c2OC([H])([H])N([H])[C@]2([H])C([H])([H])[C@]([H])(C([H])([H])[H])N(S(=O)(=O)C([H])([H])[H])[C@]([H])(C([H])([H])O[H])C2([H])[H])c([H])c1[H]

>  <error>  (257) 


>  <∆∆G>  (257) 
nan

>  <∆G_bound>  (257) 
nan

>  <∆G_unbound>  (257) 
nan

>  <comRMSD>  (257) 
0.0

>  <N_constrained_atoms>  (257) 
38.0

>  <N_unconstrained_atoms>  (257) 
1.0

>  <runtime>  (257) 
2.363301

>  <regarded>  (257) 
['d0851a', '5hmz-a']

>  <disregarded>  (257) 
[]

>  <LE>  (257) 
nan

>  <outcome>  (257) 
crashed

>  <percent_hybrid>  (257) 
35.0

$$$$
LIG
     RDKit          3D

  0  0  0  0  0  0  0  0  0  0999 V3000
M  V30 BEGIN CTAB
M  V30 COUNTS 68 70 0 0 0
M  V30 BEGIN ATOM
M  V30 1 O -19.445000 -40.158001 -24.528000 0
M  V30 2 S -18.933001 -39.846001 -25.825001 0
M  V30 3 O -18.877001 -38.480999 -26.240999 0
M  V30 4 C -19.827000 -40.765999 -27.018000 0
M  V30 5 C -16.511999 -41.500999 -27.914000 0
M  V30 6 C -15.906000 -38.516998 -25.243999 0
M  V30 7 O -16.229000 -38.262001 -26.598000 0
M  V30 8 N -17.393000 -40.395000 -25.853001 0
M  V30 9 C -17.198999 -41.683998 -26.573000 0 CFG=2
M  V30 10 C -16.566000 -42.779999 -25.714001 0
M  V30 11 C -15.991000 -42.259998 -24.402000 0
M  V30 12 C -15.366000 -40.882000 -24.551001 0 CFG=1
M  V30 13 C -16.459999 -39.863998 -24.820000 0 CFG=1
M  V30 14 C -15.477000 -44.540001 -16.980000 0
M  V30 15 O -17.010000 -42.716000 -16.606001 0
M  V30 16 N -15.054000 -40.509998 -21.433001 0
M  V30 17 O -13.165000 -40.166000 -20.434000 0
M  V30 18 C -13.969000 -40.924999 -20.995001 0
M  V30 19 C -13.607000 -42.386002 -21.129000 0
M  V30 20 C -16.496000 -43.761002 -16.164000 0
M  V30 21 O -16.778999 -44.183998 -15.025000 0
M  V30 22 C -15.554000 -44.304001 -18.476999 0
M  V30 23 C -14.594000 -43.481998 -19.080999 0
M  V30 24 C -14.629000 -43.272999 -20.458000 0
M  V30 25 C -15.579000 -43.944000 -21.237000 0
M  V30 26 C -16.555000 -44.757999 -20.648001 0
M  V30 27 C -16.523001 -44.955002 -19.259001 0
M  V30 28 C -18.702999 -47.500000 -22.153999 0
M  V30 29 C -17.832001 -46.813999 -21.304001 0
M  V30 30 C -17.535000 -45.466000 -21.531000 0
M  V30 31 C -18.084999 -44.828999 -22.653999 0
M  V30 32 C -18.951000 -45.514999 -23.506001 0
M  V30 33 C -19.274000 -46.852001 -23.253000 0
M  V30 34 N -15.262000 -40.757999 -23.511667 0
M  V30 35 C -15.158000 -40.633999 -22.472334 0
M  V30 36 H -20.506313 -41.465069 -26.508259 0
M  V30 37 H -20.412142 -40.079388 -27.647423 0
M  V30 38 H -19.123901 -41.331223 -27.647423 0
M  V30 39 H -15.460629 -41.220943 -27.752167 0
M  V30 40 H -16.557558 -42.442596 -28.480846 0
M  V30 41 H -17.019920 -40.706833 -28.480846 0
M  V30 42 H -14.812429 -38.519810 -25.125275 0
M  V30 43 H -16.349152 -37.731411 -24.614344 0
M  V30 44 H -17.005259 -37.649174 -26.642309 0
M  V30 45 H -18.210634 -42.054550 -26.795010 0
M  V30 46 H -16.529486 -43.837841 -26.013391 0
M  V30 47 H -15.597886 -42.607105 -26.206812 0
M  V30 48 H -16.024343 -42.818214 -23.454750 0
M  V30 49 H -15.023324 -42.724831 -24.641865 0
M  V30 50 H -14.543300 -40.788002 -25.275106 0
M  V30 51 H -17.003857 -39.699589 -23.878094 0
M  V30 52 H -14.471663 -44.252506 -16.638466 0
M  V30 53 H -15.698196 -45.605629 -16.820292 0
M  V30 54 H -17.672047 -42.221134 -16.061113 0
M  V30 55 H -13.379087 -39.204624 -20.333879 0
M  V30 56 H -13.554997 -42.644939 -22.196823 0
M  V30 57 H -12.635282 -42.547256 -20.639347 0
M  V30 58 H -13.814822 -43.002937 -18.469948 0
M  V30 59 H -15.558703 -43.830040 -22.330893 0
M  V30 60 H -17.257669 -45.620121 -18.781635 0
M  V30 61 H -18.940735 -48.555840 -21.957317 0
M  V30 62 H -17.376627 -47.337437 -20.450392 0
M  V30 63 H -17.831081 -43.779579 -22.864347 0
M  V30 64 H -19.381012 -45.002758 -24.379328 0
M  V30 65 H -19.971224 -47.388878 -23.913031 0
M  V30 66 H -14.112000 -39.607998 -22.361668 0
M  V30 67 H -13.998000 -39.473999 -21.312334 0
M  V30 68 H -13.988000 -39.464001 -21.302334 0
M  V30 END ATOM
M  V30 BEGIN BOND
M  V30 1 1 7 6
M  V30 2 1 4 2
M  V30 3 2 3 2
M  V30 4 2 2 1
M  V30 5 1 8 13
M  V30 6 1 8 2
M  V30 7 1 8 9
M  V30 8 1 9 5
M  V30 9 1 9 10
M  V30 10 1 10 11
M  V30 11 1 11 12
M  V30 12 1 12 13
M  V30 13 1 13 6
M  V30 14 1 14 20
M  V30 15 2 20 21
M  V30 16 1 20 15
M  V30 17 1 19 18
M  V30 18 2 16 18
M  V30 19 1 18 17
M  V30 20 2 22 27
M  V30 21 1 22 14
M  V30 22 1 22 23
M  V30 23 2 23 24
M  V30 24 1 24 25
M  V30 25 1 24 19
M  V30 26 2 25 26
M  V30 27 1 26 30
M  V30 28 1 26 27
M  V30 29 2 28 33
M  V30 30 1 28 29
M  V30 31 2 29 30
M  V30 32 1 30 31
M  V30 33 2 31 32
M  V30 34 1 32 33
M  V30 35 1 34 12
M  V30 36 1 35 34
M  V30 37 1 35 16
M  V30 38 1 4 36
M  V30 39 1 4 37
M  V30 40 1 4 38
M  V30 41 1 5 39
M  V30 42 1 5 40
M  V30 43 1 5 41
M  V30 44 1 6 42
M  V30 45 1 6 43
M  V30 46 1 7 44
M  V30 47 1 9 45 CFG=3
M  V30 48 1 10 46
M  V30 49 1 10 47
M  V30 50 1 11 48
M  V30 51 1 11 49
M  V30 52 1 12 50 CFG=3
M  V30 53 1 13 51 CFG=1
M  V30 54 1 14 52
M  V30 55 1 14 53
M  V30 56 1 15 54
M  V30 57 1 17 55
M  V30 58 1 19 56
M  V30 59 1 19 57
M  V30 60 1 23 58
M  V30 61 1 25 59
M  V30 62 1 27 60
M  V30 63 1 28 61
M  V30 64 1 29 62
M  V30 65 1 31 63
M  V30 66 1 32 64
M  V30 67 1 33 65
M  V30 68 1 34 66
M  V30 69 1 35 67
M  V30 70 1 35 68
M  V30 END BOND
M  V30 BEGIN COLLECTION
M  V30 MDLV30/STEABS ATOMS=(0)
M  V30 END COLLECTION
M  V30 END CTAB
M  END
>  <smiles>  (258) 
[H]OC(=O)C([H])([H])c1c([H])c(-c2c([H])c([H])c([H])c([H])c2[H])c([H])c(C([H])([H])/C(=N\C([H])([H])N([H])[C@@]2([H])C([H])([H])C([H])([H])[C@]([H])(C([H])([H])[H])N(S(=O)(=O)C([H])([H])[H])[C@]2([H])C([H])([H])O[H])O[H])c1[H]

>  <error>  (258) 


>  <∆∆G>  (258) 
nan

>  <∆G_bound>  (258) 
nan

>  <∆G_unbound>  (258) 
nan

>  <comRMSD>  (258) 
0.0

>  <N_constrained_atoms>  (258) 
33.0

>  <N_unconstrained_atoms>  (258) 
2.0

>  <runtime>  (258) 
2.169176

>  <regarded>  (258) 
['d0851a', '5hmw-b']

>  <disregarded>  (258) 
[]

>  <LE>  (258) 
nan

>  <outcome>  (258) 
crashed

>  <percent_hybrid>  (258) 
40.0

$$$$
LIG
     RDKit          3D

  0  0  0  0  0  0  0  0  0  0999 V3000
M  V30 BEGIN CTAB
M  V30 COUNTS 59 61 0 0 0
M  V30 BEGIN ATOM
M  V30 1 O -19.445000 -40.158001 -24.528000 0
M  V30 2 S -18.933001 -39.846001 -25.825001 0
M  V30 3 O -18.877001 -38.480999 -26.240999 0
M  V30 4 C -19.827000 -40.765999 -27.018000 0
M  V30 5 C -16.511999 -41.500999 -27.914000 0
M  V30 6 C -15.906000 -38.516998 -25.243999 0
M  V30 7 O -16.229000 -38.262001 -26.598000 0
M  V30 8 N -17.393000 -40.395000 -25.853001 0
M  V30 9 C -17.198999 -41.683998 -26.573000 0 CFG=2
M  V30 10 C -16.566000 -42.779999 -25.714001 0
M  V30 11 C -15.991000 -42.259998 -24.402000 0 CFG=2
M  V30 12 C -15.366000 -40.882000 -24.551001 0
M  V30 13 C -16.459999 -39.863998 -24.820000 0 CFG=1
M  V30 14 C -15.214000 -44.195999 -17.205000 0
M  V30 15 O -15.494000 -43.783001 -22.902000 0
M  V30 16 O -16.777000 -42.421001 -17.035999 0
M  V30 17 O -16.753000 -43.901001 -15.424000 0
M  V30 18 C -16.329000 -43.459000 -16.510000 0
M  V30 19 C -14.517000 -43.076000 -23.669001 0
M  V30 20 C -15.306000 -44.067001 -18.719000 0
M  V30 21 C -14.378000 -43.289001 -19.424000 0
M  V30 22 C -14.418000 -43.181999 -20.811001 0
M  V30 23 C -15.437000 -43.837002 -21.528000 0
M  V30 24 C -16.427999 -44.655998 -20.771000 0
M  V30 25 C -16.327000 -44.730000 -19.385000 0
M  V30 26 C -19.254999 -46.200001 -23.139999 0
M  V30 27 C -19.083000 -47.027000 -22.037001 0
M  V30 28 C -18.115999 -46.647999 -21.094999 0
M  V30 29 C -17.504000 -45.448002 -21.427000 0
M  V30 30 S -18.162001 -44.875000 -22.916000 0
M  V30 31 N -15.254000 -42.667999 -24.035500 0
M  V30 32 H -20.506313 -41.465069 -26.508259 0
M  V30 33 H -20.412142 -40.079388 -27.647423 0
M  V30 34 H -19.123901 -41.331223 -27.647423 0
M  V30 35 H -15.460629 -41.220943 -27.752167 0
M  V30 36 H -16.557558 -42.442596 -28.480846 0
M  V30 37 H -17.019920 -40.706833 -28.480846 0
M  V30 38 H -14.812429 -38.519810 -25.125275 0
M  V30 39 H -16.349152 -37.731411 -24.614344 0
M  V30 40 H -17.005259 -37.649174 -26.642309 0
M  V30 41 H -18.210634 -42.054550 -26.795010 0
M  V30 42 H -16.529486 -43.837841 -26.013391 0
M  V30 43 H -15.597886 -42.607105 -26.206812 0
M  V30 44 H -16.898382 -42.391304 -23.794203 0
M  V30 45 H -14.291663 -40.658054 -24.475843 0
M  V30 46 H -15.255508 -41.049068 -25.632610 0
M  V30 47 H -17.003857 -39.699589 -23.878094 0
M  V30 48 H -14.251321 -43.781971 -16.870588 0
M  V30 49 H -15.297673 -45.262238 -16.947838 0
M  V30 50 H -16.410524 -42.106056 -17.900063 0
M  V30 51 H -13.847925 -42.418690 -23.094299 0
M  V30 52 H -13.730159 -43.566441 -24.260904 0
M  V30 53 H -13.598079 -42.749119 -18.866999 0
M  V30 54 H -13.658869 -42.589901 -21.343107 0
M  V30 55 H -17.060936 -45.317593 -18.813972 0
M  V30 56 H -19.944296 -46.354939 -23.983126 0
M  V30 57 H -19.680742 -47.941364 -21.907997 0
M  V30 58 H -17.871052 -47.234116 -20.196964 0
M  V30 59 H -14.174000 -41.587997 -22.955500 0
M  V30 END ATOM
M  V30 BEGIN BOND
M  V30 1 1 7 6
M  V30 2 1 4 2
M  V30 3 2 3 2
M  V30 4 2 2 1
M  V30 5 1 8 13
M  V30 6 1 8 2
M  V30 7 1 8 9
M  V30 8 1 9 5
M  V30 9 1 9 10
M  V30 10 1 10 11
M  V30 11 1 11 12
M  V30 12 1 12 13
M  V30 13 1 13 6
M  V30 14 1 15 19
M  V30 15 2 17 18
M  V30 16 1 14 18
M  V30 17 1 18 16
M  V30 18 2 20 25
M  V30 19 1 20 14
M  V30 20 1 20 21
M  V30 21 2 21 22
M  V30 22 1 22 23
M  V30 23 2 23 24
M  V30 24 1 23 15
M  V30 25 1 24 29
M  V30 26 1 24 25
M  V30 27 2 26 27
M  V30 28 1 26 30
M  V30 29 1 27 28
M  V30 30 2 28 29
M  V30 31 1 29 30
M  V30 32 1 31 11
M  V30 33 1 31 19
M  V30 34 1 4 32
M  V30 35 1 4 33
M  V30 36 1 4 34
M  V30 37 1 5 35
M  V30 38 1 5 36
M  V30 39 1 5 37
M  V30 40 1 6 38
M  V30 41 1 6 39
M  V30 42 1 7 40
M  V30 43 1 9 41 CFG=3
M  V30 44 1 10 42
M  V30 45 1 10 43
M  V30 46 1 11 44 CFG=1
M  V30 47 1 12 45
M  V30 48 1 12 46
M  V30 49 1 13 47 CFG=1
M  V30 50 1 14 48
M  V30 51 1 14 49
M  V30 52 1 16 50
M  V30 53 1 19 51
M  V30 54 1 19 52
M  V30 55 1 21 53
M  V30 56 1 22 54
M  V30 57 1 25 55
M  V30 58 1 26 56
M  V30 59 1 27 57
M  V30 60 1 28 58
M  V30 61 1 31 59
M  V30 END BOND
M  V30 BEGIN COLLECTION
M  V30 MDLV30/STEABS ATOMS=(0)
M  V30 END COLLECTION
M  V30 END CTAB
M  END
>  <smiles>  (259) 
[H]OC(=O)C([H])([H])c1c([H])c([H])c(OC([H])([H])N([H])[C@]2([H])C([H])([H])[C@]([H])(C([H])([H])[H])N(S(=O)(=O)C([H])([H])[H])[C@]([H])(C([H])([H])O[H])C2([H])[H])c(-c2sc([H])c([H])c2[H])c1[H]

>  <error>  (259) 


>  <∆∆G>  (259) 
nan

>  <∆G_bound>  (259) 
nan

>  <∆G_unbound>  (259) 
nan

>  <comRMSD>  (259) 
0.0

>  <N_constrained_atoms>  (259) 
30.0

>  <N_unconstrained_atoms>  (259) 
1.0

>  <runtime>  (259) 
1.941185

>  <regarded>  (259) 
['d0851a', '5f3z-a']

>  <disregarded>  (259) 
[]

>  <LE>  (259) 
nan

>  <outcome>  (259) 
crashed

>  <percent_hybrid>  (259) 
44.0

$$$$
LIG
     RDKit          3D

  0  0  0  0  0  0  0  0  0  0999 V3000
M  V30 BEGIN CTAB
M  V30 COUNTS 59 61 0 0 0
M  V30 BEGIN ATOM
M  V30 1 O -19.445000 -40.158001 -24.528000 0
M  V30 2 S -18.933001 -39.846001 -25.825001 0
M  V30 3 O -18.877001 -38.480999 -26.240999 0
M  V30 4 C -19.827000 -40.765999 -27.018000 0
M  V30 5 C -16.511999 -41.500999 -27.914000 0
M  V30 6 C -15.906000 -38.516998 -25.243999 0
M  V30 7 O -16.229000 -38.262001 -26.598000 0
M  V30 8 N -17.393000 -40.395000 -25.853001 0
M  V30 9 C -17.198999 -41.683998 -26.573000 0 CFG=2
M  V30 10 C -16.566000 -42.779999 -25.714001 0
M  V30 11 C -15.991000 -42.259998 -24.402000 0 CFG=2
M  V30 12 C -15.366000 -40.882000 -24.551001 0
M  V30 13 C -16.459999 -39.863998 -24.820000 0 CFG=1
M  V30 14 C -15.252000 -44.404999 -17.011999 0
M  V30 15 O -15.579000 -43.901001 -22.724001 0
M  V30 16 O -16.296000 -42.285999 -17.075001 0
M  V30 17 O -17.195999 -43.696999 -15.687000 0
M  V30 18 C -16.305000 -43.417999 -16.535000 0
M  V30 19 C -14.680000 -43.063000 -23.400999 0
M  V30 20 C -15.307000 -44.250999 -18.534000 0
M  V30 21 C -14.393000 -43.445000 -19.209999 0
M  V30 22 C -14.463000 -43.299999 -20.600000 0
M  V30 23 C -15.472000 -43.971001 -21.318001 0
M  V30 24 C -16.393000 -44.764000 -20.646999 0
M  V30 25 C -16.316000 -44.900002 -19.266001 0
M  V30 26 C -19.268999 -46.298000 -23.153999 0
M  V30 27 C -19.041000 -47.146000 -22.066999 0
M  V30 28 C -18.048000 -46.724998 -21.127001 0
M  V30 29 C -17.474001 -45.493999 -21.451000 0
M  V30 30 S -18.218000 -44.983002 -22.896000 0
M  V30 31 N -15.335501 -42.661499 -23.901501 0
M  V30 32 H -20.506313 -41.465069 -26.508259 0
M  V30 33 H -20.412142 -40.079388 -27.647423 0
M  V30 34 H -19.123901 -41.331223 -27.647423 0
M  V30 35 H -15.460629 -41.220943 -27.752167 0
M  V30 36 H -16.557558 -42.442596 -28.480846 0
M  V30 37 H -17.019920 -40.706833 -28.480846 0
M  V30 38 H -14.812429 -38.519810 -25.125275 0
M  V30 39 H -16.349152 -37.731411 -24.614344 0
M  V30 40 H -17.005259 -37.649174 -26.642309 0
M  V30 41 H -18.210634 -42.054550 -26.795010 0
M  V30 42 H -16.529486 -43.837841 -26.013391 0
M  V30 43 H -15.597886 -42.607105 -26.206812 0
M  V30 44 H -16.943407 -42.422115 -23.876036 0
M  V30 45 H -14.291663 -40.658054 -24.475843 0
M  V30 46 H -15.255508 -41.049068 -25.632610 0
M  V30 47 H -17.003857 -39.699589 -23.878094 0
M  V30 48 H -14.257314 -44.141945 -16.622892 0
M  V30 49 H -15.434840 -45.434952 -16.671757 0
M  V30 50 H -15.599265 -42.060955 -17.741346 0
M  V30 51 H -14.153175 -42.363773 -22.735010 0
M  V30 52 H -13.830836 -43.524338 -23.926439 0
M  V30 53 H -13.609434 -42.918015 -18.645807 0
M  V30 54 H -13.735208 -42.666489 -21.128189 0
M  V30 55 H -17.053814 -45.523232 -18.739487 0
M  V30 56 H -19.969831 -46.446461 -23.988741 0
M  V30 57 H -19.595686 -48.087475 -21.940722 0
M  V30 58 H -17.765636 -47.310997 -20.239941 0
M  V30 59 H -14.255500 -41.581497 -22.821499 0
M  V30 END ATOM
M  V30 BEGIN BOND
M  V30 1 1 7 6
M  V30 2 1 4 2
M  V30 3 2 3 2
M  V30 4 2 2 1
M  V30 5 1 8 13
M  V30 6 1 8 2
M  V30 7 1 8 9
M  V30 8 1 9 5
M  V30 9 1 9 10
M  V30 10 1 10 11
M  V30 11 1 11 12
M  V30 12 1 12 13
M  V30 13 1 13 6
M  V30 14 1 15 19
M  V30 15 2 17 18
M  V30 16 1 14 18
M  V30 17 1 18 16
M  V30 18 2 20 25
M  V30 19 1 20 14
M  V30 20 1 20 21
M  V30 21 2 21 22
M  V30 22 1 22 23
M  V30 23 2 23 24
M  V30 24 1 23 15
M  V30 25 1 24 29
M  V30 26 1 24 25
M  V30 27 2 26 27
M  V30 28 1 26 30
M  V30 29 1 27 28
M  V30 30 2 28 29
M  V30 31 1 29 30
M  V30 32 1 31 11
M  V30 33 1 31 19
M  V30 34 1 4 32
M  V30 35 1 4 33
M  V30 36 1 4 34
M  V30 37 1 5 35
M  V30 38 1 5 36
M  V30 39 1 5 37
M  V30 40 1 6 38
M  V30 41 1 6 39
M  V30 42 1 7 40
M  V30 43 1 9 41 CFG=3
M  V30 44 1 10 42
M  V30 45 1 10 43
M  V30 46 1 11 44 CFG=1
M  V30 47 1 12 45
M  V30 48 1 12 46
M  V30 49 1 13 47 CFG=1
M  V30 50 1 14 48
M  V30 51 1 14 49
M  V30 52 1 16 50
M  V30 53 1 19 51
M  V30 54 1 19 52
M  V30 55 1 21 53
M  V30 56 1 22 54
M  V30 57 1 25 55
M  V30 58 1 26 56
M  V30 59 1 27 57
M  V30 60 1 28 58
M  V30 61 1 31 59
M  V30 END BOND
M  V30 BEGIN COLLECTION
M  V30 MDLV30/STEABS ATOMS=(0)
M  V30 END COLLECTION
M  V30 END CTAB
M  END
>  <smiles>  (260) 
[H]OC(=O)C([H])([H])c1c([H])c([H])c(OC([H])([H])N([H])[C@]2([H])C([H])([H])[C@]([H])(C([H])([H])[H])N(S(=O)(=O)C([H])([H])[H])[C@]([H])(C([H])([H])O[H])C2([H])[H])c(-c2sc([H])c([H])c2[H])c1[H]

>  <error>  (260) 


>  <∆∆G>  (260) 
nan

>  <∆G_bound>  (260) 
nan

>  <∆G_unbound>  (260) 
nan

>  <comRMSD>  (260) 
0.0

>  <N_constrained_atoms>  (260) 
30.0

>  <N_unconstrained_atoms>  (260) 
1.0

>  <runtime>  (260) 
2.002546

>  <regarded>  (260) 
['d0851a', '6h9r-a']

>  <disregarded>  (260) 
[]

>  <LE>  (260) 
nan

>  <outcome>  (260) 
crashed

>  <percent_hybrid>  (260) 
44.0

$$$$
LIG
     RDKit          3D

  0  0  0  0  0  0  0  0  0  0999 V3000
M  V30 BEGIN CTAB
M  V30 COUNTS 62 64 0 0 0
M  V30 BEGIN ATOM
M  V30 1 O -19.445000 -40.158001 -24.528000 0
M  V30 2 S -18.933001 -39.846001 -25.825001 0
M  V30 3 O -18.877001 -38.480999 -26.240999 0
M  V30 4 C -19.827000 -40.765999 -27.018000 0
M  V30 5 C -16.511999 -41.500999 -27.914000 0
M  V30 6 C -15.906000 -38.516998 -25.243999 0
M  V30 7 O -16.229000 -38.262001 -26.598000 0
M  V30 8 N -17.393000 -40.395000 -25.853001 0
M  V30 9 C -17.198999 -41.683998 -26.573000 0 CFG=2
M  V30 10 C -16.566000 -42.779999 -25.714001 0
M  V30 11 C -15.991000 -42.259998 -24.402000 0 CFG=2
M  V30 12 C -15.366000 -40.882000 -24.551001 0
M  V30 13 C -16.459999 -39.863998 -24.820000 0 CFG=1
M  V30 14 O -16.907000 -44.019001 -15.496000 0
M  V30 15 O -16.811001 -42.425999 -17.010000 0
M  V30 16 C -16.437000 -43.527000 -16.546000 0
M  V30 17 C -15.354000 -44.278999 -17.271999 0
M  V30 18 O -15.603000 -43.844002 -22.983999 0
M  V30 19 C -14.536000 -43.268002 -23.743000 0
M  V30 20 C -15.548000 -43.933998 -21.607000 0
M  V30 21 C -14.598000 -43.216999 -20.856001 0
M  V30 22 C -14.567000 -43.341000 -19.464001 0
M  V30 23 C -15.475000 -44.154999 -18.780001 0
M  V30 24 C -16.433001 -44.903000 -19.485001 0
M  V30 25 C -16.520000 -44.813999 -20.886000 0
M  V30 26 C -19.094999 -45.862999 -23.488001 0
M  V30 27 C -18.218000 -45.069000 -22.740999 0
M  V30 28 C -17.518000 -45.618999 -21.659000 0
M  V30 29 C -17.726999 -46.964001 -21.326000 0
M  V30 30 C -18.639999 -47.737999 -22.048000 0
M  V30 31 C -19.325001 -47.188999 -23.134001 0
M  V30 32 N -15.263500 -42.764000 -24.072500 0
M  V30 33 H -20.506313 -41.465069 -26.508259 0
M  V30 34 H -20.412142 -40.079388 -27.647423 0
M  V30 35 H -19.123901 -41.331223 -27.647423 0
M  V30 36 H -15.460629 -41.220943 -27.752167 0
M  V30 37 H -16.557558 -42.442596 -28.480846 0
M  V30 38 H -17.019920 -40.706833 -28.480846 0
M  V30 39 H -14.812429 -38.519810 -25.125275 0
M  V30 40 H -16.349152 -37.731411 -24.614344 0
M  V30 41 H -17.005259 -37.649174 -26.642309 0
M  V30 42 H -18.210634 -42.054550 -26.795010 0
M  V30 43 H -16.529486 -43.837841 -26.013391 0
M  V30 44 H -15.597886 -42.607105 -26.206812 0
M  V30 45 H -16.866932 -42.294216 -23.737490 0
M  V30 46 H -14.291663 -40.658054 -24.475843 0
M  V30 47 H -15.255508 -41.049068 -25.632610 0
M  V30 48 H -17.003857 -39.699589 -23.878094 0
M  V30 49 H -16.408537 -42.078323 -17.845013 0
M  V30 50 H -14.377348 -43.879055 -16.961843 0
M  V30 51 H -15.453846 -45.343597 -17.013807 0
M  V30 52 H -13.777590 -42.712082 -23.172239 0
M  V30 53 H -13.812328 -43.825050 -24.356184 0
M  V30 54 H -13.879010 -42.558228 -21.364994 0
M  V30 55 H -13.809538 -42.784428 -18.892620 0
M  V30 56 H -17.120651 -45.563671 -18.936686 0
M  V30 57 H -19.607077 -45.435417 -24.362616 0
M  V30 58 H -18.077675 -44.010124 -23.003855 0
M  V30 59 H -17.169151 -47.413506 -20.491283 0
M  V30 60 H -18.819672 -48.784157 -21.759430 0
M  V30 61 H -20.040258 -47.799461 -23.704741 0
M  V30 62 H -14.153501 -41.653999 -22.962500 0
M  V30 END ATOM
M  V30 BEGIN BOND
M  V30 1 1 7 6
M  V30 2 1 4 2
M  V30 3 2 3 2
M  V30 4 2 2 1
M  V30 5 1 8 13
M  V30 6 1 8 2
M  V30 7 1 8 9
M  V30 8 1 9 5
M  V30 9 1 9 10
M  V30 10 1 10 11
M  V30 11 1 11 12
M  V30 12 1 12 13
M  V30 13 1 13 6
M  V30 14 1 18 19
M  V30 15 2 14 16
M  V30 16 1 17 16
M  V30 17 1 16 15
M  V30 18 1 20 25
M  V30 19 1 20 18
M  V30 20 2 20 21
M  V30 21 1 21 22
M  V30 22 2 22 23
M  V30 23 1 23 24
M  V30 24 1 23 17
M  V30 25 2 24 25
M  V30 26 1 25 28
M  V30 27 2 26 31
M  V30 28 1 26 27
M  V30 29 2 27 28
M  V30 30 1 28 29
M  V30 31 2 29 30
M  V30 32 1 30 31
M  V30 33 1 32 11
M  V30 34 1 32 19
M  V30 35 1 4 33
M  V30 36 1 4 34
M  V30 37 1 4 35
M  V30 38 1 5 36
M  V30 39 1 5 37
M  V30 40 1 5 38
M  V30 41 1 6 39
M  V30 42 1 6 40
M  V30 43 1 7 41
M  V30 44 1 9 42 CFG=3
M  V30 45 1 10 43
M  V30 46 1 10 44
M  V30 47 1 11 45 CFG=1
M  V30 48 1 12 46
M  V30 49 1 12 47
M  V30 50 1 13 48 CFG=1
M  V30 51 1 15 49
M  V30 52 1 17 50
M  V30 53 1 17 51
M  V30 54 1 19 52
M  V30 55 1 19 53
M  V30 56 1 21 54
M  V30 57 1 22 55
M  V30 58 1 24 56
M  V30 59 1 26 57
M  V30 60 1 27 58
M  V30 61 1 29 59
M  V30 62 1 30 60
M  V30 63 1 31 61
M  V30 64 1 32 62
M  V30 END BOND
M  V30 BEGIN COLLECTION
M  V30 MDLV30/STEABS ATOMS=(0)
M  V30 END COLLECTION
M  V30 END CTAB
M  END
>  <smiles>  (261) 
[H]OC(=O)C([H])([H])c1c([H])c([H])c(OC([H])([H])N([H])[C@]2([H])C([H])([H])[C@]([H])(C([H])([H])[H])N(S(=O)(=O)C([H])([H])[H])[C@]([H])(C([H])([H])O[H])C2([H])[H])c(-c2c([H])c([H])c([H])c([H])c2[H])c1[H]

>  <error>  (261) 


>  <∆∆G>  (261) 
nan

>  <∆G_bound>  (261) 
nan

>  <∆G_unbound>  (261) 
nan

>  <comRMSD>  (261) 
0.0

>  <N_constrained_atoms>  (261) 
31.0

>  <N_unconstrained_atoms>  (261) 
1.0

>  <runtime>  (261) 
2.11923

>  <regarded>  (261) 
['d0851a', '5f3t-a']

>  <disregarded>  (261) 
[]

>  <LE>  (261) 
nan

>  <outcome>  (261) 
crashed

>  <percent_hybrid>  (261) 
42.0

$$$$

     RDKit          2D

  0  0  0  0  0  0  0  0  0  0999 V2000
M  END
>  <smiles>  (262) 
nan

>  <error>  (262) 
DistanceError 6.68 Å

>  <∆∆G>  (262) 
nan

>  <∆G_bound>  (262) 
nan

>  <∆G_unbound>  (262) 
nan

>  <comRMSD>  (262) 
nan

>  <N_constrained_atoms>  (262) 
nan

>  <N_unconstrained_atoms>  (262) 
nan

>  <runtime>  (262) 
nan

>  <regarded>  (262) 
[]

>  <disregarded>  (262) 
[]

>  <LE>  (262) 
nan

>  <outcome>  (262) 
too distant

>  <percent_hybrid>  (262) 
nan

$$$$
LIG
     RDKit          3D

 43 45  0  0  0  0  0  0  0  0999 V2000
  -19.1297  -37.4176  -26.0854 O   0  0  0  0  0  0  0  0  0  0  0  0
  -18.0981  -37.1411  -25.5836 C   0  0  0  0  0  0  0  0  0  0  0  0
  -18.4009  -39.9885  -24.4610 C   0  0  0  0  0  0  0  0  0  0  0  0
  -17.9429  -35.7112  -23.5251 C   0  0  0  0  0  0  0  0  0  0  0  0
  -19.4005  -35.4159  -23.2559 C   0  0  0  0  0  0  0  0  0  0  0  0
  -19.6318  -34.4502  -24.3589 C   0  0  0  0  0  0  0  0  0  0  0  0
  -18.2493  -34.4587  -24.9796 C   0  0  0  0  0  0  0  0  0  0  0  0
  -17.6075  -35.8183  -24.9984 N   0  0  0  0  0  0  0  0  0  0  0  0
  -17.0940  -39.1761  -24.3210 C   0  0  2  0  0  0  0  0  0  0  0  0
  -16.9261  -38.1428  -25.4715 C   0  0  1  0  0  0  0  0  0  0  0  0
  -16.7054  -38.8439  -26.8202 C   0  0  0  0  0  0  0  0  0  0  0  0
  -15.5549  -39.8494  -26.7741 C   0  0  0  0  0  0  0  0  0  0  0  0
  -15.6248  -40.8112  -25.5856 C   0  0  0  0  0  0  0  0  0  0  0  0
  -15.8238  -40.0873  -24.2327 C   0  0  2  0  0  0  0  0  0  0  0  0
  -15.8827  -41.0899  -23.0660 C   0  0  0  0  0  0  0  0  0  0  0  0
  -14.5147  -41.0292  -22.4278 C   0  0  0  0  0  0  0  0  0  0  0  0
  -14.1526  -39.6325  -22.6073 N   0  0  0  0  0  0  0  0  0  0  0  0
  -14.6143  -39.2639  -23.9243 N   0  0  0  0  0  0  0  0  0  0  0  0
  -18.4916  -40.7349  -23.6661 H   0  0  0  0  0  0  0  0  0  0  0  0
  -19.2748  -39.3359  -24.3704 H   0  0  0  0  0  0  0  0  0  0  0  0
  -18.4738  -40.5158  -25.4155 H   0  0  0  0  0  0  0  0  0  0  0  0
  -17.7107  -36.6738  -23.0623 H   0  0  0  0  0  0  0  0  0  0  0  0
  -17.2537  -35.0122  -23.0191 H   0  0  0  0  0  0  0  0  0  0  0  0
  -20.0266  -36.3072  -23.3686 H   0  0  0  0  0  0  0  0  0  0  0  0
  -19.5622  -34.9948  -22.2599 H   0  0  0  0  0  0  0  0  0  0  0  0
  -20.3909  -34.8203  -25.0563 H   0  0  0  0  0  0  0  0  0  0  0  0
  -19.9254  -33.4529  -24.0195 H   0  0  0  0  0  0  0  0  0  0  0  0
  -18.3596  -34.1860  -26.0379 H   0  0  0  0  0  0  0  0  0  0  0  0
  -17.5651  -33.6981  -24.5676 H   0  0  0  0  0  0  0  0  0  0  0  0
  -17.1743  -38.6363  -23.3713 H   0  0  0  0  0  0  0  0  0  0  0  0
  -16.0255  -37.5506  -25.2705 H   0  0  0  0  0  0  0  0  0  0  0  0
  -17.6188  -39.3550  -27.1473 H   0  0  0  0  0  0  0  0  0  0  0  0
  -16.4966  -38.0918  -27.5904 H   0  0  0  0  0  0  0  0  0  0  0  0
  -15.5454  -40.4291  -27.7044 H   0  0  0  0  0  0  0  0  0  0  0  0
  -14.6049  -39.3050  -26.7401 H   0  0  0  0  0  0  0  0  0  0  0  0
  -16.4417  -41.5239  -25.7539 H   0  0  0  0  0  0  0  0  0  0  0  0
  -14.7098  -41.4153  -25.5592 H   0  0  0  0  0  0  0  0  0  0  0  0
  -16.1304  -42.1081  -23.3841 H   0  0  0  0  0  0  0  0  0  0  0  0
  -16.6249  -40.7791  -22.3195 H   0  0  0  0  0  0  0  0  0  0  0  0
  -14.5370  -41.3130  -21.3719 H   0  0  0  0  0  0  0  0  0  0  0  0
  -13.8232  -41.6904  -22.9527 H   0  0  0  0  0  0  0  0  0  0  0  0
  -13.1481  -39.4992  -22.4702 H   0  0  0  0  0  0  0  0  0  0  0  0
  -13.9013  -39.4424  -24.6409 H   0  0  0  0  0  0  0  0  0  0  0  0
  2  1  2  0
  4  5  1  0
  4  8  1  0
  5  6  1  0
  6  7  1  0
  7  8  1  0
  8  2  1  0
  9  3  1  0
  9 14  1  0
  9 10  1  0
 10 11  1  0
 10  2  1  0
 11 12  1  0
 12 13  1  0
 13 14  1  0
 15 16  1  0
 16 17  1  0
 17 18  1  0
 14 15  1  0
 14 18  1  6
  3 19  1  0
  3 20  1  0
  3 21  1  0
  4 22  1  0
  4 23  1  0
  5 24  1  0
  5 25  1  0
  6 26  1  0
  6 27  1  0
  7 28  1  0
  7 29  1  0
  9 30  1  1
 10 31  1  1
 11 32  1  0
 11 33  1  0
 12 34  1  0
 12 35  1  0
 13 36  1  0
 13 37  1  0
 15 38  1  0
 15 39  1  0
 16 40  1  0
 16 41  1  0
 17 42  1  0
 18 43  1  0
M  END
>  <smiles>  (263) 
[H]N1N([H])[C@@]2(C([H])([H])C1([H])[H])C([H])([H])C([H])([H])C([H])([H])[C@@]([H])(C(=O)N1C([H])([H])C([H])([H])C([H])([H])C1([H])[H])[C@@]2([H])C([H])([H])[H]

>  <error>  (263) 


>  <∆∆G>  (263) 
-1.844589

>  <∆G_bound>  (263) 
307.778793

>  <∆G_unbound>  (263) 
309.623382

>  <comRMSD>  (263) 
0.872069

>  <N_constrained_atoms>  (263) 
18.0

>  <N_unconstrained_atoms>  (263) 
0.0

>  <runtime>  (263) 
2.236819

>  <regarded>  (263) 
['d0866a', 'd0160a']

>  <disregarded>  (263) 
[]

>  <LE>  (263) 
0.102477

>  <outcome>  (263) 
equally sized

>  <percent_hybrid>  (263) 
23.0

$$$$
LIG
     RDKit          3D

 51 52  0  0  0  0  0  0  0  0999 V2000
  -20.0535  -37.2871  -25.0016 O   0  0  0  0  0  0  0  0  0  0  0  0
  -18.9083  -37.0164  -24.9759 C   0  0  0  0  0  0  0  0  0  0  0  0
  -19.2289  -40.1400  -25.7866 C   0  0  0  0  0  0  0  0  0  0  0  0
  -17.6030  -41.6260  -23.2733 S   0  0  1  0  0  0  0  0  0  0  0  0
  -16.6327  -41.2965  -22.0211 O   0  0  0  0  0  0  0  0  0  0  0  0
  -17.9531  -35.3750  -23.3407 C   0  0  0  0  0  0  0  0  0  0  0  0
  -19.2008  -34.9791  -22.5816 C   0  0  0  0  0  0  0  0  0  0  0  0
  -19.8353  -34.1379  -23.6279 C   0  0  0  0  0  0  0  0  0  0  0  0
  -18.7895  -34.2821  -24.7126 C   0  0  0  0  0  0  0  0  0  0  0  0
  -18.2184  -35.6702  -24.8014 N   0  0  0  0  0  0  0  0  0  0  0  0
  -18.2406  -39.4848  -24.8151 C   0  0  2  0  0  0  0  0  0  0  0  0
  -17.7807  -38.0539  -25.2175 C   0  0  1  0  0  0  0  0  0  0  0  0
  -17.2626  -37.8891  -26.6524 C   0  0  0  0  0  0  0  0  0  0  0  0
  -15.8506  -38.3934  -26.8573 C   0  0  0  0  0  0  0  0  0  0  0  0
  -16.4160  -41.2355  -25.6015 C   0  0  0  0  0  0  0  0  0  0  0  0
  -17.0595  -40.4149  -24.4641 C   0  0  2  0  0  0  0  0  0  0  0  0
  -14.4054  -42.7587  -23.5696 C   0  0  0  0  0  0  0  0  0  0  0  0
  -15.6478  -43.5931  -23.3586 C   0  0  0  0  0  0  0  0  0  0  0  0
  -16.9221  -43.0825  -24.0076 C   0  0  2  0  0  0  0  0  0  0  0  0
  -16.8125  -42.7082  -25.4826 C   0  0  0  0  0  0  0  0  0  0  0  0
  -18.7931  -40.3319  -26.7704 H   0  0  0  0  0  0  0  0  0  0  0  0
  -19.5869  -41.0973  -25.3932 H   0  0  0  0  0  0  0  0  0  0  0  0
  -20.1144  -39.5192  -25.9460 H   0  0  0  0  0  0  0  0  0  0  0  0
  -17.1167  -34.6639  -23.2249 H   0  0  0  0  0  0  0  0  0  0  0  0
  -17.5737  -36.3024  -22.8904 H   0  0  0  0  0  0  0  0  0  0  0  0
  -19.8235  -35.8453  -22.3345 H   0  0  0  0  0  0  0  0  0  0  0  0
  -18.9705  -34.4372  -21.6601 H   0  0  0  0  0  0  0  0  0  0  0  0
  -20.8013  -34.5512  -23.9365 H   0  0  0  0  0  0  0  0  0  0  0  0
  -19.9798  -33.0958  -23.3291 H   0  0  0  0  0  0  0  0  0  0  0  0
  -19.2887  -34.1221  -25.6779 H   0  0  0  0  0  0  0  0  0  0  0  0
  -17.9946  -33.5181  -24.6829 H   0  0  0  0  0  0  0  0  0  0  0  0
  -18.8052  -39.3447  -23.8804 H   0  0  0  0  0  0  0  0  0  0  0  0
  -16.9724  -37.7733  -24.5285 H   0  0  0  0  0  0  0  0  0  0  0  0
  -17.9394  -38.3533  -27.3770 H   0  0  0  0  0  0  0  0  0  0  0  0
  -17.2604  -36.8238  -26.9131 H   0  0  0  0  0  0  0  0  0  0  0  0
  -15.3505  -38.6704  -25.9279 H   0  0  0  0  0  0  0  0  0  0  0  0
  -15.2642  -37.5980  -27.3241 H   0  0  0  0  0  0  0  0  0  0  0  0
  -15.8454  -39.2480  -27.5357 H   0  0  0  0  0  0  0  0  0  0  0  0
  -16.6958  -40.8852  -26.5945 H   0  0  0  0  0  0  0  0  0  0  0  0
  -13.6194  -43.1797  -22.9355 H   0  0  0  0  0  0  0  0  0  0  0  0
  -14.0647  -42.8145  -24.6060 H   0  0  0  0  0  0  0  0  0  0  0  0
  -14.5284  -41.7112  -23.2894 H   0  0  0  0  0  0  0  0  0  0  0  0
  -15.4429  -44.5980  -23.7430 H   0  0  0  0  0  0  0  0  0  0  0  0
  -15.8124  -43.7199  -22.2816 H   0  0  0  0  0  0  0  0  0  0  0  0
  -16.1212  -43.3557  -26.0276 H   0  0  0  0  0  0  0  0  0  0  0  0
  -18.9243  -41.6332  -22.9778 H   0  0  0  0  0  0  0  0  0  0  0  0
  -16.8206  -41.7757  -21.1775 H   0  0  0  0  0  0  0  0  0  0  0  0
  -15.3272  -41.1383  -25.5426 H   0  0  0  0  0  0  0  0  0  0  0  0
  -16.2789  -39.8317  -23.9617 H   0  0  0  0  0  0  0  0  0  0  0  0
  -17.6916  -43.8552  -23.8917 H   0  0  0  0  0  0  0  0  0  0  0  0
  -17.7976  -42.8327  -25.9469 H   0  0  0  0  0  0  0  0  0  0  0  0
  5  4  1  0
  2  1  2  0
  6  7  1  0
  6 10  1  0
  7  8  1  0
  8  9  1  0
  9 10  1  0
 10  2  1  0
 11  3  1  0
 11 16  1  0
 11 12  1  0
 12 13  1  0
 12  2  1  0
 13 14  1  0
 15 16  1  0
 16  4  1  0
 17 18  1  0
 18 19  1  0
 19 20  1  0
 15 20  1  0
 19  4  1  0
  3 21  1  0
  3 22  1  0
  3 23  1  0
  6 24  1  0
  6 25  1  0
  7 26  1  0
  7 27  1  0
  8 28  1  0
  8 29  1  0
  9 30  1  0
  9 31  1  0
 11 32  1  1
 12 33  1  1
 13 34  1  0
 13 35  1  0
 14 36  1  0
 14 37  1  0
 14 38  1  0
 15 39  1  0
 17 40  1  0
 17 41  1  0
 17 42  1  0
 18 43  1  0
 18 44  1  0
 20 45  1  0
  4 46  1  6
  5 47  1  0
 15 48  1  0
 16 49  1  1
 19 50  1  6
 20 51  1  0
M  END
>  <smiles>  (264) 
[H]C1C([H])[C@@H]([C@]([H])(C([H])([H])[H])[C@]([H])(C(=O)N2C([H])([H])C([H])([H])C([H])([H])C2([H])[H])C([H])([H])C([H])([H])[H])[S@@H](O)[C@@H]1C([H])([H])C([H])([H])[H]

>  <error>  (264) 


>  <∆∆G>  (264) 
-44.410731

>  <∆G_bound>  (264) 
272.718272

>  <∆G_unbound>  (264) 
317.129003

>  <comRMSD>  (264) 
0.972968

>  <N_constrained_atoms>  (264) 
20.0

>  <N_unconstrained_atoms>  (264) 
0.0

>  <runtime>  (264) 
49.005441

>  <regarded>  (264) 
['d0866a', 'd0191a']

>  <disregarded>  (264) 
[]

>  <LE>  (264) 
2.220537

>  <outcome>  (264) 
acceptable

>  <percent_hybrid>  (264) 
20.0

$$$$
LIG
     RDKit          3D

 63 66  0  0  0  0  0  0  0  0999 V2000
  -19.0737  -37.1618  -26.2619 O   0  0  0  0  0  0  0  0  0  0  0  0
  -18.0965  -37.0596  -25.6072 C   0  0  0  0  0  0  0  0  0  0  0  0
  -18.7552  -39.8309  -24.6050 C   0  0  0  0  0  0  0  0  0  0  0  0
  -16.8440  -40.7705  -22.2079 O   0  0  0  0  0  0  0  0  0  0  0  0
  -18.8701  -45.2376  -23.2689 O   0  0  0  0  0  0  0  0  0  0  0  0
  -17.9455  -44.8971  -22.6436 C   0  0  0  0  0  0  0  0  0  0  0  0
  -17.0449  -43.6459  -22.7849 N   0  0  0  0  0  0  0  0  0  0  0  0
  -18.0851  -35.9053  -23.3759 C   0  0  0  0  0  0  0  0  0  0  0  0
  -19.5285  -35.4745  -23.2444 C   0  0  0  0  0  0  0  0  0  0  0  0
  -19.5233  -34.3773  -24.2427 C   0  0  0  0  0  0  0  0  0  0  0  0
  -18.0771  -34.4648  -24.6824 C   0  0  0  0  0  0  0  0  0  0  0  0
  -17.5674  -35.8752  -24.8001 N   0  0  0  0  0  0  0  0  0  0  0  0
  -17.3242  -39.2813  -24.4803 C   0  0  2  0  0  0  0  0  0  0  0  0
  -17.0291  -38.1752  -25.5259 C   0  0  1  0  0  0  0  0  0  0  0  0
  -16.8349  -38.7901  -26.9120 C   0  0  0  0  0  0  0  0  0  0  0  0
  -15.6812  -39.7751  -26.8695 C   0  0  0  0  0  0  0  0  0  0  0  0
  -15.7965  -40.8275  -25.7628 C   0  0  1  0  0  0  0  0  0  0  0  0
  -16.2381  -40.2921  -24.4654 N   0  0  0  0  0  0  0  0  0  0  0  0
  -16.4243  -44.9452  -20.6502 O   0  0  0  0  0  0  0  0  0  0  0  0
  -16.8901  -44.6966  -19.3176 C   0  0  0  0  0  0  0  0  0  0  0  0
  -17.9562  -45.7284  -19.0564 C   0  0  0  0  0  0  0  0  0  0  0  0
  -18.6168  -45.8470  -20.4042 C   0  0  0  0  0  0  0  0  0  0  0  0
  -17.4586  -45.6454  -21.3742 C   0  0  1  0  0  0  0  0  0  0  0  0
  -16.6006  -43.1427  -25.1405 C   0  0  0  0  0  0  0  0  0  0  0  0
  -17.0383  -42.5951  -23.7922 C   0  0  2  0  0  0  0  0  0  0  0  0
  -16.2507  -41.3046  -23.3948 C   0  0  2  0  0  0  0  0  0  0  0  0
  -14.7917  -41.6210  -23.0221 C   0  0  0  0  0  0  0  0  0  0  0  0
  -16.6028  -42.0540  -26.2073 C   0  0  0  0  0  0  0  0  0  0  0  0
  -19.0045  -40.4947  -23.7743 H   0  0  0  0  0  0  0  0  0  0  0  0
  -19.4912  -39.0227  -24.5434 H   0  0  0  0  0  0  0  0  0  0  0  0
  -18.9307  -40.3596  -25.5429 H   0  0  0  0  0  0  0  0  0  0  0  0
  -17.0667  -41.5289  -21.6435 H   0  0  0  0  0  0  0  0  0  0  0  0
  -16.3743  -43.6198  -22.0153 H   0  0  0  0  0  0  0  0  0  0  0  0
  -17.4014  -35.3576  -22.7038 H   0  0  0  0  0  0  0  0  0  0  0  0
  -18.0222  -36.9370  -23.0206 H   0  0  0  0  0  0  0  0  0  0  0  0
  -20.2214  -36.2718  -23.5332 H   0  0  0  0  0  0  0  0  0  0  0  0
  -19.7723  -35.1469  -22.2300 H   0  0  0  0  0  0  0  0  0  0  0  0
  -20.2112  -34.5894  -25.0681 H   0  0  0  0  0  0  0  0  0  0  0  0
  -19.7701  -33.3974  -23.8246 H   0  0  0  0  0  0  0  0  0  0  0  0
  -18.0160  -34.0593  -25.7015 H   0  0  0  0  0  0  0  0  0  0  0  0
  -17.3874  -33.8376  -24.0931 H   0  0  0  0  0  0  0  0  0  0  0  0
  -17.2791  -38.7842  -23.5068 H   0  0  0  0  0  0  0  0  0  0  0  0
  -16.0809  -37.6951  -25.2456 H   0  0  0  0  0  0  0  0  0  0  0  0
  -17.7465  -39.2882  -27.2623 H   0  0  0  0  0  0  0  0  0  0  0  0
  -16.6138  -38.0016  -27.6405 H   0  0  0  0  0  0  0  0  0  0  0  0
  -15.5812  -40.2635  -27.8456 H   0  0  0  0  0  0  0  0  0  0  0  0
  -14.7542  -39.2104  -26.7063 H   0  0  0  0  0  0  0  0  0  0  0  0
  -14.7661  -41.1820  -25.6348 H   0  0  0  0  0  0  0  0  0  0  0  0
  -16.0539  -44.7623  -18.6162 H   0  0  0  0  0  0  0  0  0  0  0  0
  -17.2986  -43.6807  -19.2852 H   0  0  0  0  0  0  0  0  0  0  0  0
  -17.4775  -46.6758  -18.7910 H   0  0  0  0  0  0  0  0  0  0  0  0
  -18.6467  -45.4477  -18.2583 H   0  0  0  0  0  0  0  0  0  0  0  0
  -19.1207  -46.8067  -20.5516 H   0  0  0  0  0  0  0  0  0  0  0  0
  -19.3726  -45.0599  -20.5189 H   0  0  0  0  0  0  0  0  0  0  0  0
  -17.0366  -46.6044  -21.6917 H   0  0  0  0  0  0  0  0  0  0  0  0
  -17.2883  -43.9351  -25.4372 H   0  0  0  0  0  0  0  0  0  0  0  0
  -15.6076  -43.6007  -25.0690 H   0  0  0  0  0  0  0  0  0  0  0  0
  -18.1005  -42.3500  -23.8842 H   0  0  0  0  0  0  0  0  0  0  0  0
  -14.7351  -42.1795  -22.0806 H   0  0  0  0  0  0  0  0  0  0  0  0
  -14.2677  -42.2015  -23.7849 H   0  0  0  0  0  0  0  0  0  0  0  0
  -14.2271  -40.6971  -22.8438 H   0  0  0  0  0  0  0  0  0  0  0  0
  -16.1752  -42.4671  -27.1285 H   0  0  0  0  0  0  0  0  0  0  0  0
  -17.6331  -41.7788  -26.4478 H   0  0  0  0  0  0  0  0  0  0  0  0
  2  1  2  0
  7  6  1  0
  6  5  2  0
  8  9  1  0
  8 12  1  0
  9 10  1  0
 10 11  1  0
 11 12  1  0
 12  2  1  0
 13  3  1  0
 13 18  1  0
 13 14  1  0
 14 15  1  0
 14  2  1  0
 15 16  1  0
 16 17  1  0
 17 18  1  0
 19 20  1  0
 19 23  1  0
 20 21  1  0
 21 22  1  0
 22 23  1  0
 23  6  1  0
 24 28  1  0
 24 25  1  0
 25  7  1  0
 25 26  1  0
 26 27  1  0
 17 28  1  0
 26  4  1  6
 26 18  1  0
  3 29  1  0
  3 30  1  0
  3 31  1  0
  4 32  1  0
  7 33  1  0
  8 34  1  0
  8 35  1  0
  9 36  1  0
  9 37  1  0
 10 38  1  0
 10 39  1  0
 11 40  1  0
 11 41  1  0
 13 42  1  1
 14 43  1  1
 15 44  1  0
 15 45  1  0
 16 46  1  0
 16 47  1  0
 17 48  1  1
 20 49  1  0
 20 50  1  0
 21 51  1  0
 21 52  1  0
 22 53  1  0
 22 54  1  0
 23 55  1  6
 24 56  1  0
 24 57  1  0
 25 58  1  6
 27 59  1  0
 27 60  1  0
 27 61  1  0
 28 62  1  0
 28 63  1  0
M  END
>  <smiles>  (265) 
[H]O[C@@]1(C([H])([H])[H])N2[C@]([H])(C([H])([H])C([H])([H])[C@@]([H])(C(=O)N3C([H])([H])C([H])([H])C([H])([H])C3([H])[H])[C@@]2([H])C([H])([H])[H])C([H])([H])C([H])([H])[C@@]1([H])N([H])C(=O)[C@@]1([H])OC([H])([H])C([H])([H])C1([H])[H]

>  <error>  (265) 


>  <∆∆G>  (265) 
-6.804523

>  <∆G_bound>  (265) 
120.689633

>  <∆G_unbound>  (265) 
127.494156

>  <comRMSD>  (265) 
0.760365

>  <N_constrained_atoms>  (265) 
28.0

>  <N_unconstrained_atoms>  (265) 
0.0

>  <runtime>  (265) 
95.257397

>  <regarded>  (265) 
['d0866a', 'd0254a']

>  <disregarded>  (265) 
[]

>  <LE>  (265) 
0.243019

>  <outcome>  (265) 
acceptable

>  <percent_hybrid>  (265) 
47.0

$$$$

     RDKit          2D

  0  0  0  0  0  0  0  0  0  0999 V2000
M  END
>  <smiles>  (266) 
nan

>  <error>  (266) 
TimeoutError

>  <∆∆G>  (266) 
nan

>  <∆G_bound>  (266) 
nan

>  <∆G_unbound>  (266) 
nan

>  <comRMSD>  (266) 
nan

>  <N_constrained_atoms>  (266) 
nan

>  <N_unconstrained_atoms>  (266) 
nan

>  <runtime>  (266) 
nan

>  <regarded>  (266) 
[]

>  <disregarded>  (266) 
[]

>  <LE>  (266) 
nan

>  <outcome>  (266) 
timeout

>  <percent_hybrid>  (266) 
nan

$$$$
LIG
     RDKit          3D

  0  0  0  0  0  0  0  0  0  0999 V3000
M  V30 BEGIN CTAB
M  V30 COUNTS 61 64 0 0 0
M  V30 BEGIN ATOM
M  V30 1 O -19.218000 -37.455002 -26.510000 0
M  V30 2 C -18.440001 -37.272999 -25.589001 0
M  V30 3 C -18.801001 -40.066002 -25.077000 0
M  V30 4 S -16.291000 -41.674000 -23.726000 0
M  V30 5 O -16.832001 -41.215000 -22.487000 0
M  V30 6 O -16.914000 -42.779999 -24.382999 0
M  V30 7 C -14.601000 -42.066002 -23.476999 0
M  V30 8 C -18.129000 -36.304001 -23.285000 0
M  V30 9 C -19.089001 -35.396999 -22.541000 0
M  V30 10 C -19.528999 -34.411999 -23.573999 0
M  V30 11 C -19.582001 -35.196999 -24.878000 0
M  V30 12 N -18.677000 -36.332001 -24.648001 0
M  V30 13 C -17.472000 -39.426998 -24.688999 0 CFG=2
M  V30 14 C -17.184000 -38.118999 -25.462000 0 CFG=1
M  V30 15 C -16.631001 -38.435001 -26.855000 0
M  V30 16 C -15.402000 -39.325001 -26.764999 0
M  V30 17 C -15.742000 -40.634998 -26.099001 0
M  V30 18 N -16.350000 -40.417999 -24.764000 0
M  V30 19 N -15.775000 -43.637001 -22.587999 0
M  V30 20 C -15.137000 -44.018002 -21.441999 0
M  V30 21 C -15.566000 -45.134998 -20.691000 0
M  V30 22 N -15.014000 -45.487000 -19.521000 0
M  V30 23 C -13.992000 -44.743000 -19.065001 0
M  V30 24 C -13.483000 -43.651001 -19.735001 0
M  V30 25 C -14.065000 -43.287998 -20.931999 0
M  V30 26 C -17.561001 -45.728001 -22.073000 0
M  V30 27 C -18.333000 -46.838001 -22.233999 0
M  V30 28 C -17.823000 -47.842999 -21.382999 0
M  V30 29 C -16.752001 -47.321999 -20.723000 0
M  V30 30 N -16.582001 -46.016998 -21.143000 0
M  V30 31 N -15.188000 -42.851501 -23.032499 0
M  V30 32 H -19.358402 -40.334011 -24.167343 0
M  V30 33 H -19.390856 -39.353043 -25.671778 0
M  V30 34 H -18.612473 -40.971924 -25.671778 0
M  V30 35 H -13.996697 -42.315361 -24.361668 0
M  V30 36 H -13.801072 -41.455616 -23.032539 0
M  V30 37 H -17.236740 -36.817654 -22.897661 0
M  V30 38 H -18.745884 -37.175060 -23.019085 0
M  V30 39 H -19.391558 -35.451595 -21.484838 0
M  V30 40 H -18.252964 -34.736572 -22.267363 0
M  V30 41 H -19.764292 -33.347851 -23.424904 0
M  V30 42 H -18.478930 -34.151901 -23.773256 0
M  V30 43 H -20.163443 -34.967476 -25.783123 0
M  V30 44 H -18.740808 -34.605370 -25.268347 0
M  V30 45 H -17.554789 -39.120125 -23.635920 0
M  V30 46 H -16.433901 -37.548752 -24.894400 0
M  V30 47 H -17.065676 -38.066658 -27.795946 0
M  V30 48 H -15.989086 -37.543270 -26.802460 0
M  V30 49 H -14.402679 -39.051491 -27.134527 0
M  V30 50 H -15.158585 -38.889721 -25.784552 0
M  V30 51 H -15.562118 -41.623852 -26.546005 0
M  V30 52 H -14.742798 -40.660843 -25.639732 0
M  V30 53 H -16.653261 -44.027958 -22.957745 0
M  V30 54 H -13.536071 -45.020908 -18.103285 0
M  V30 55 H -12.634304 -43.083469 -19.325581 0
M  V30 56 H -13.681296 -42.418716 -21.486183 0
M  V30 57 H -17.694054 -44.768002 -22.593287 0
M  V30 58 H -19.198395 -46.934559 -22.906136 0
M  V30 59 H -18.219580 -48.863117 -21.273092 0
M  V30 60 H -16.130325 -47.848633 -19.983961 0
M  V30 61 H -14.087999 -41.751503 -21.932499 0
M  V30 END ATOM
M  V30 BEGIN BOND
M  V30 1 2 5 4
M  V30 2 1 7 4
M  V30 3 2 6 4
M  V30 4 2 2 1
M  V30 5 1 8 9
M  V30 6 1 8 12
M  V30 7 1 9 10
M  V30 8 1 10 11
M  V30 9 1 11 12
M  V30 10 1 12 2
M  V30 11 1 13 3
M  V30 12 1 13 18
M  V30 13 1 13 14
M  V30 14 1 14 15
M  V30 15 1 14 2
M  V30 16 1 15 16
M  V30 17 1 16 17
M  V30 18 1 17 18
M  V30 19 1 18 4
M  V30 20 1 20 19
M  V30 21 2 20 25
M  V30 22 1 20 21
M  V30 23 2 21 22
M  V30 24 1 21 30
M  V30 25 1 22 23
M  V30 26 2 23 24
M  V30 27 1 24 25
M  V30 28 2 26 27
M  V30 29 1 26 30
M  V30 30 1 27 28
M  V30 31 2 28 29
M  V30 32 1 29 30
M  V30 33 1 31 7
M  V30 34 1 31 19
M  V30 35 1 3 32
M  V30 36 1 3 33
M  V30 37 1 3 34
M  V30 38 1 7 35
M  V30 39 1 7 36
M  V30 40 1 8 37
M  V30 41 1 8 38
M  V30 42 1 9 39
M  V30 43 1 9 40
M  V30 44 1 10 41
M  V30 45 1 10 42
M  V30 46 1 11 43
M  V30 47 1 11 44
M  V30 48 1 13 45 CFG=1
M  V30 49 1 14 46 CFG=1
M  V30 50 1 15 47
M  V30 51 1 15 48
M  V30 52 1 16 49
M  V30 53 1 16 50
M  V30 54 1 17 51
M  V30 55 1 17 52
M  V30 56 1 19 53
M  V30 57 1 23 54
M  V30 58 1 24 55
M  V30 59 1 25 56
M  V30 60 1 26 57
M  V30 61 1 27 58
M  V30 62 1 28 59
M  V30 63 1 29 60
M  V30 64 1 31 61
M  V30 END BOND
M  V30 BEGIN COLLECTION
M  V30 MDLV30/STEABS ATOMS=(0)
M  V30 END COLLECTION
M  V30 END CTAB
M  END
>  <smiles>  (267) 
[H]c1nc(-n2c([H])c([H])c([H])c2[H])c(N([H])N([H])C([H])([H])S(=O)(=O)N2C([H])([H])C([H])([H])C([H])([H])[C@@]([H])(C(=O)N3C([H])([H])C([H])([H])C([H])([H])C3([H])[H])[C@@]2([H])C([H])([H])[H])c([H])c1[H]

>  <error>  (267) 


>  <∆∆G>  (267) 
nan

>  <∆G_bound>  (267) 
nan

>  <∆G_unbound>  (267) 
nan

>  <comRMSD>  (267) 
0.0

>  <N_constrained_atoms>  (267) 
30.0

>  <N_unconstrained_atoms>  (267) 
1.0

>  <runtime>  (267) 
1.940823

>  <regarded>  (267) 
['d0866a', 'd0472a']

>  <disregarded>  (267) 
[]

>  <LE>  (267) 
nan

>  <outcome>  (267) 
crashed

>  <percent_hybrid>  (267) 
40.0

$$$$
LIG
     RDKit          3D

 62 65  0  0  0  0  0  0  0  0999 V2000
  -19.8857  -37.3462  -27.0423 O   0  0  0  0  0  0  0  0  0  0  0  0
  -19.1650  -37.0231  -26.1650 C   0  0  0  0  0  0  0  0  0  0  0  0
  -18.9521  -39.4059  -24.1059 C   0  0  0  0  0  0  0  0  0  0  0  0
  -17.4027  -42.0601  -24.6875 O   0  0  0  0  0  0  0  0  0  0  0  0
  -17.2268  -41.4788  -22.3282 O   0  0  0  0  0  0  0  0  0  0  0  0
  -13.7630  -40.0120  -22.9164 C   0  0  0  0  0  0  0  0  0  0  0  0
  -14.5062  -45.7729  -19.5004 F   0  0  0  0  0  0  0  0  0  0  0  0
  -16.1460  -40.7205  -27.5455 N   0  0  0  0  0  0  0  0  0  0  0  0
  -20.0158  -35.9900  -24.0332 C   0  0  0  0  0  0  0  0  0  0  0  0
  -19.8763  -34.8220  -23.0828 C   0  0  0  0  0  0  0  0  0  0  0  0
  -19.9114  -33.7212  -24.0816 C   0  0  0  0  0  0  0  0  0  0  0  0
  -20.0425  -34.5495  -25.3408 C   0  0  0  0  0  0  0  0  0  0  0  0
  -19.1780  -35.7747  -25.2851 N   0  0  0  0  0  0  0  0  0  0  0  0
  -17.8049  -38.4247  -24.3994 C   0  0  2  0  0  0  0  0  0  0  0  0
  -17.9071  -37.8569  -25.8088 C   0  0  1  0  0  0  0  0  0  0  0  0
  -17.6648  -38.9988  -26.8108 C   0  0  0  0  0  0  0  0  0  0  0  0
  -16.3049  -39.6725  -26.5649 C   0  0  1  0  0  0  0  0  0  0  0  0
  -15.9730  -40.0396  -25.0634 C   0  0  1  0  0  0  0  0  0  0  0  0
  -16.4444  -38.9467  -24.1849 N   0  0  0  0  0  0  0  0  0  0  0  0
  -14.7106  -44.8240  -20.4204 C   0  0  0  0  0  0  0  0  0  0  0  0
  -15.7245  -44.9770  -21.3562 C   0  0  0  0  0  0  0  0  0  0  0  0
  -15.9902  -43.9509  -22.2648 C   0  0  0  0  0  0  0  0  0  0  0  0
  -15.2767  -42.7400  -22.2070 C   0  0  0  0  0  0  0  0  0  0  0  0
  -14.1887  -42.6744  -21.3068 C   0  0  0  0  0  0  0  0  0  0  0  0
  -13.9012  -43.7086  -20.4228 C   0  0  0  0  0  0  0  0  0  0  0  0
  -16.1147  -41.4860  -24.4522 C   0  0  1  0  0  0  0  0  0  0  0  0
  -15.8665  -41.4889  -22.8841 C   0  0  1  0  0  0  0  0  0  0  0  0
  -15.1929  -40.1771  -22.4031 C   0  0  2  0  0  0  0  0  0  0  0  0
  -16.0641  -38.9900  -22.7877 C   0  0  0  0  0  0  0  0  0  0  0  0
  -15.3426  -38.6840  -26.9423 O   0  0  0  0  0  0  0  0  0  0  0  0
  -18.9294  -39.7440  -23.0669 H   0  0  0  0  0  0  0  0  0  0  0  0
  -19.9258  -38.9276  -24.2528 H   0  0  0  0  0  0  0  0  0  0  0  0
  -18.9527  -40.2800  -24.7545 H   0  0  0  0  0  0  0  0  0  0  0  0
  -17.8815  -41.9283  -23.8417 H   0  0  0  0  0  0  0  0  0  0  0  0
  -17.1516  -41.7270  -21.3876 H   0  0  0  0  0  0  0  0  0  0  0  0
  -13.4755  -40.8474  -23.5486 H   0  0  0  0  0  0  0  0  0  0  0  0
  -13.6193  -39.0845  -23.4805 H   0  0  0  0  0  0  0  0  0  0  0  0
  -13.0531  -39.9504  -22.0846 H   0  0  0  0  0  0  0  0  0  0  0  0
  -16.1431  -40.2440  -28.4525 H   0  0  0  0  0  0  0  0  0  0  0  0
  -15.1918  -41.0646  -27.4631 H   0  0  0  0  0  0  0  0  0  0  0  0
  -19.6706  -36.8739  -23.5036 H   0  0  0  0  0  0  0  0  0  0  0  0
  -21.0598  -36.2588  -24.2785 H   0  0  0  0  0  0  0  0  0  0  0  0
  -20.6888  -34.7797  -22.3523 H   0  0  0  0  0  0  0  0  0  0  0  0
  -18.9196  -34.8439  -22.5502 H   0  0  0  0  0  0  0  0  0  0  0  0
  -20.7514  -33.0340  -23.9502 H   0  0  0  0  0  0  0  0  0  0  0  0
  -18.9799  -33.1453  -24.0683 H   0  0  0  0  0  0  0  0  0  0  0  0
  -21.0766  -34.7749  -25.6530 H   0  0  0  0  0  0  0  0  0  0  0  0
  -19.6462  -33.9647  -26.1813 H   0  0  0  0  0  0  0  0  0  0  0  0
  -17.8885  -37.5846  -23.7065 H   0  0  0  0  0  0  0  0  0  0  0  0
  -17.0923  -37.1274  -25.9399 H   0  0  0  0  0  0  0  0  0  0  0  0
  -18.4791  -39.7323  -26.7766 H   0  0  0  0  0  0  0  0  0  0  0  0
  -17.6899  -38.5718  -27.8219 H   0  0  0  0  0  0  0  0  0  0  0  0
  -14.8827  -39.9233  -25.0683 H   0  0  0  0  0  0  0  0  0  0  0  0
  -16.3250  -45.8810  -21.3599 H   0  0  0  0  0  0  0  0  0  0  0  0
  -16.8252  -44.0658  -22.9548 H   0  0  0  0  0  0  0  0  0  0  0  0
  -13.5584  -41.8014  -21.2048 H   0  0  0  0  0  0  0  0  0  0  0  0
  -13.0724  -43.6342  -19.7259 H   0  0  0  0  0  0  0  0  0  0  0  0
  -15.3727  -42.1311  -24.9380 H   0  0  0  0  0  0  0  0  0  0  0  0
  -15.1646  -40.1619  -21.3040 H   0  0  0  0  0  0  0  0  0  0  0  0
  -16.9472  -38.9957  -22.1354 H   0  0  0  0  0  0  0  0  0  0  0  0
  -15.5429  -38.0558  -22.5416 H   0  0  0  0  0  0  0  0  0  0  0  0
  -15.1665  -38.0989  -26.1797 H   0  0  0  0  0  0  0  0  0  0  0  0
  2  1  2  0
  9 10  1  0
  9 13  1  0
 10 11  1  0
 11 12  1  0
 12 13  1  0
 13  2  1  0
 14  3  1  0
 14 19  1  0
 14 15  1  0
 15 16  1  0
 15  2  1  0
 16 17  1  0
 17 18  1  0
 18 19  1  0
 20 25  2  0
 20  7  1  0
 20 21  1  0
 21 22  2  0
 22 23  1  0
 23 27  1  0
 23 24  2  0
 24 25  1  0
 26 27  1  0
 27 28  1  0
 28 29  1  0
 19 29  1  0
 18 26  1  0
 26  4  1  0
 27  5  1  6
  6 28  1  0
 17  8  1  0
 17 30  1  6
  3 31  1  0
  3 32  1  0
  3 33  1  0
  4 34  1  0
  5 35  1  0
  6 36  1  0
  6 37  1  0
  6 38  1  0
  8 39  1  0
  8 40  1  0
  9 41  1  0
  9 42  1  0
 10 43  1  0
 10 44  1  0
 11 45  1  0
 11 46  1  0
 12 47  1  0
 12 48  1  0
 14 49  1  1
 15 50  1  1
 16 51  1  0
 16 52  1  0
 18 53  1  1
 21 54  1  0
 22 55  1  0
 24 56  1  0
 25 57  1  0
 26 58  1  6
 28 59  1  1
 29 60  1  0
 29 61  1  0
 30 62  1  0
M  END
>  <smiles>  (268) 
[H]O[C@]1([H])[C@](O[H])(c2c([H])c([H])c(F)c([H])c2[H])[C@@]([H])(C([H])([H])[H])C([H])([H])N2[C@@]1([H])[C@@](O[H])(N([H])[H])C([H])([H])[C@@]([H])(C(=O)N1C([H])([H])C([H])([H])C([H])([H])C1([H])[H])[C@@]2([H])C([H])([H])[H]

>  <error>  (268) 


>  <∆∆G>  (268) 
-38.956307

>  <∆G_bound>  (268) 
294.574359

>  <∆G_unbound>  (268) 
333.530666

>  <comRMSD>  (268) 
1.260448

>  <N_constrained_atoms>  (268) 
30.0

>  <N_unconstrained_atoms>  (268) 
0.0

>  <runtime>  (268) 
7.228217

>  <regarded>  (268) 
['d0866a', 'd0612a']

>  <disregarded>  (268) 
[]

>  <LE>  (268) 
1.298544

>  <outcome>  (268) 
too moved

>  <percent_hybrid>  (268) 
44.0

$$$$
LIG
     RDKit          3D

 50 52  0  0  0  0  0  0  0  0999 V2000
  -18.8789  -36.7893  -26.3293 O   0  0  0  0  0  0  0  0  0  0  0  0
  -17.9545  -36.8112  -25.5952 C   0  0  0  0  0  0  0  0  0  0  0  0
  -18.9300  -39.5870  -24.9864 C   0  0  0  0  0  0  0  0  0  0  0  0
  -17.1402  -40.8036  -22.4441 O   0  0  0  0  0  0  0  0  0  0  0  0
  -18.3380  -44.6112  -24.4475 F   0  0  0  0  0  0  0  0  0  0  0  0
  -18.0574  -35.8617  -23.2728 C   0  0  0  0  0  0  0  0  0  0  0  0
  -19.4798  -35.3520  -23.2172 C   0  0  0  0  0  0  0  0  0  0  0  0
  -19.3273  -34.1754  -24.1083 C   0  0  0  0  0  0  0  0  0  0  0  0
  -17.8550  -34.3164  -24.4354 C   0  0  0  0  0  0  0  0  0  0  0  0
  -17.4235  -35.7416  -24.6443 N   0  0  0  0  0  0  0  0  0  0  0  0
  -17.4836  -39.1808  -24.6503 C   0  0  2  0  0  0  0  0  0  0  0  0
  -16.9762  -38.0059  -25.5316 C   0  0  1  0  0  0  0  0  0  0  0  0
  -16.6675  -38.4772  -26.9565 C   0  0  0  0  0  0  0  0  0  0  0  0
  -15.7074  -39.6563  -26.9298 C   0  0  0  0  0  0  0  0  0  0  0  0
  -16.2016  -40.7743  -26.0284 C   0  0  0  0  0  0  0  0  0  0  0  0
  -16.4961  -40.2973  -24.6745 N   0  0  0  0  0  0  0  0  0  0  0  0
  -17.2837  -43.7871  -24.1911 C   0  0  1  0  0  0  0  0  0  0  0  0
  -17.8153  -42.3807  -24.0949 C   0  0  0  0  0  0  0  0  0  0  0  0
  -16.7136  -41.3730  -23.6961 C   0  0  2  0  0  0  0  0  0  0  0  0
  -15.3707  -42.1197  -23.3387 C   0  0  0  0  0  0  0  0  0  0  0  0
  -15.6371  -43.1960  -22.3577 N   0  0  0  0  0  0  0  0  0  0  0  0
  -16.5779  -44.1968  -22.8923 C   0  0  0  0  0  0  0  0  0  0  0  0
  -19.3284  -40.2970  -24.2581 H   0  0  0  0  0  0  0  0  0  0  0  0
  -19.6067  -38.7292  -24.9312 H   0  0  0  0  0  0  0  0  0  0  0  0
  -19.0220  -40.0194  -25.9869 H   0  0  0  0  0  0  0  0  0  0  0  0
  -16.8711  -41.4603  -21.7699 H   0  0  0  0  0  0  0  0  0  0  0  0
  -18.0813  -36.9223  -23.0096 H   0  0  0  0  0  0  0  0  0  0  0  0
  -17.4023  -35.4190  -22.5019 H   0  0  0  0  0  0  0  0  0  0  0  0
  -20.1903  -36.0752  -23.6312 H   0  0  0  0  0  0  0  0  0  0  0  0
  -19.7893  -35.0976  -22.1999 H   0  0  0  0  0  0  0  0  0  0  0  0
  -19.9521  -34.2718  -25.0026 H   0  0  0  0  0  0  0  0  0  0  0  0
  -19.5539  -33.2214  -23.6241 H   0  0  0  0  0  0  0  0  0  0  0  0
  -17.6828  -33.8267  -25.4034 H   0  0  0  0  0  0  0  0  0  0  0  0
  -17.1834  -33.7907  -23.7360 H   0  0  0  0  0  0  0  0  0  0  0  0
  -17.5018  -38.7953  -23.6273 H   0  0  0  0  0  0  0  0  0  0  0  0
  -16.0344  -37.6459  -25.0955 H   0  0  0  0  0  0  0  0  0  0  0  0
  -17.5875  -38.7671  -27.4795 H   0  0  0  0  0  0  0  0  0  0  0  0
  -16.2302  -37.6551  -27.5354 H   0  0  0  0  0  0  0  0  0  0  0  0
  -15.5954  -40.0614  -27.9409 H   0  0  0  0  0  0  0  0  0  0  0  0
  -14.7173  -39.3234  -26.5962 H   0  0  0  0  0  0  0  0  0  0  0  0
  -17.0779  -41.2326  -26.4993 H   0  0  0  0  0  0  0  0  0  0  0  0
  -15.4225  -41.5419  -26.0138 H   0  0  0  0  0  0  0  0  0  0  0  0
  -16.5973  -43.8714  -25.0410 H   0  0  0  0  0  0  0  0  0  0  0  0
  -18.2898  -42.1575  -25.0543 H   0  0  0  0  0  0  0  0  0  0  0  0
  -18.6426  -42.3626  -23.3719 H   0  0  0  0  0  0  0  0  0  0  0  0
  -14.8652  -42.5387  -24.2150 H   0  0  0  0  0  0  0  0  0  0  0  0
  -14.6768  -41.4110  -22.8698 H   0  0  0  0  0  0  0  0  0  0  0  0
  -14.7514  -43.6533  -22.1196 H   0  0  0  0  0  0  0  0  0  0  0  0
  -17.3253  -44.4159  -22.1213 H   0  0  0  0  0  0  0  0  0  0  0  0
  -16.0432  -45.1370  -23.0634 H   0  0  0  0  0  0  0  0  0  0  0  0
  2  1  2  0
  6  7  1  0
  6 10  1  0
  7  8  1  0
  8  9  1  0
  9 10  1  0
 10  2  1  0
 11  3  1  0
 11 16  1  0
 11 12  1  0
 12 13  1  0
 12  2  1  0
 13 14  1  0
 14 15  1  0
 15 16  1  0
 17 22  1  0
 17  5  1  0
 17 18  1  0
 18 19  1  0
 19 20  1  0
 20 21  1  0
 21 22  1  0
 19  4  1  1
 19 16  1  0
  3 23  1  0
  3 24  1  0
  3 25  1  0
  4 26  1  0
  6 27  1  0
  6 28  1  0
  7 29  1  0
  7 30  1  0
  8 31  1  0
  8 32  1  0
  9 33  1  0
  9 34  1  0
 11 35  1  1
 12 36  1  1
 13 37  1  0
 13 38  1  0
 14 39  1  0
 14 40  1  0
 15 41  1  0
 15 42  1  0
 17 43  1  6
 18 44  1  0
 18 45  1  0
 20 46  1  0
 20 47  1  0
 21 48  1  0
 22 49  1  0
 22 50  1  0
M  END
>  <smiles>  (269) 
[H]O[C@@]1(N2C([H])([H])C([H])([H])C([H])([H])[C@@]([H])(C(=O)N3C([H])([H])C([H])([H])C([H])([H])C3([H])[H])[C@@]2([H])C([H])([H])[H])C([H])([H])N([H])C([H])([H])[C@@]([H])(F)C1([H])[H]

>  <error>  (269) 


>  <∆∆G>  (269) 
-24.042433

>  <∆G_bound>  (269) 
276.407408

>  <∆G_unbound>  (269) 
300.449842

>  <comRMSD>  (269) 
0.807741

>  <N_constrained_atoms>  (269) 
22.0

>  <N_unconstrained_atoms>  (269) 
0.0

>  <runtime>  (269) 
2.747597

>  <regarded>  (269) 
['d0866a', 'd0615b']

>  <disregarded>  (269) 
[]

>  <LE>  (269) 
1.092838

>  <outcome>  (269) 
acceptable

>  <percent_hybrid>  (269) 
32.0

$$$$
LIG
     RDKit          3D

 45 46  0  0  0  0  0  0  0  0999 V2000
  -19.0095  -37.3720  -26.2526 O   0  0  0  0  0  0  0  0  0  0  0  0
  -18.0950  -37.2150  -25.5262 C   0  0  0  0  0  0  0  0  0  0  0  0
  -18.9647  -39.9932  -25.0255 C   0  0  0  0  0  0  0  0  0  0  0  0
  -16.6834  -41.9655  -23.6839 S   0  0  0  0  0  0  0  0  0  0  0  0
  -17.2773  -41.4519  -22.4695 O   0  0  0  0  0  0  0  0  0  0  0  0
  -17.3065  -43.0345  -24.4331 O   0  0  0  0  0  0  0  0  0  0  0  0
  -15.0067  -42.4371  -23.2856 C   0  0  0  0  0  0  0  0  0  0  0  0
  -19.8324  -39.9669  -24.1439 O   0  0  0  0  0  0  0  0  0  0  0  0
  -19.3532  -40.4625  -26.4015 C   0  0  0  0  0  0  0  0  0  0  0  0
  -16.3157  -41.5058  -27.0993 C   0  0  0  0  0  0  0  0  0  0  0  0
  -18.3201  -36.0535  -23.3120 C   0  0  0  0  0  0  0  0  0  0  0  0
  -19.7866  -35.6945  -23.2919 C   0  0  0  0  0  0  0  0  0  0  0  0
  -19.7607  -34.6006  -24.2936 C   0  0  0  0  0  0  0  0  0  0  0  0
  -18.2853  -34.6198  -24.6281 C   0  0  0  0  0  0  0  0  0  0  0  0
  -17.6943  -36.0028  -24.6929 N   0  0  0  0  0  0  0  0  0  0  0  0
  -17.5237  -39.5815  -24.7066 C   0  0  2  0  0  0  0  0  0  0  0  0
  -17.0003  -38.2635  -25.3057 C   0  0  1  0  0  0  0  0  0  0  0  0
  -16.1878  -38.4443  -26.5869 C   0  0  0  0  0  0  0  0  0  0  0  0
  -15.0809  -39.4631  -26.3305 C   0  0  0  0  0  0  0  0  0  0  0  0
  -15.6309  -40.8212  -25.9358 C   0  0  1  0  0  0  0  0  0  0  0  0
  -16.4823  -40.6628  -24.7363 N   0  0  0  0  0  0  0  0  0  0  0  0
  -15.0528  -43.1440  -22.4535 H   0  0  0  0  0  0  0  0  0  0  0  0
  -14.5461  -42.9274  -24.1437 H   0  0  0  0  0  0  0  0  0  0  0  0
  -14.4516  -41.5487  -22.9794 H   0  0  0  0  0  0  0  0  0  0  0  0
  -20.4420  -40.4127  -26.5032 H   0  0  0  0  0  0  0  0  0  0  0  0
  -18.9275  -39.8191  -27.1710 H   0  0  0  0  0  0  0  0  0  0  0  0
  -19.0453  -41.5001  -26.5291 H   0  0  0  0  0  0  0  0  0  0  0  0
  -16.7581  -42.4611  -26.8122 H   0  0  0  0  0  0  0  0  0  0  0  0
  -17.0839  -40.8702  -27.5265 H   0  0  0  0  0  0  0  0  0  0  0  0
  -15.6100  -41.7011  -27.9070 H   0  0  0  0  0  0  0  0  0  0  0  0
  -18.2237  -37.0885  -22.9584 H   0  0  0  0  0  0  0  0  0  0  0  0
  -17.7164  -35.4728  -22.5928 H   0  0  0  0  0  0  0  0  0  0  0  0
  -20.4155  -36.5258  -23.6275 H   0  0  0  0  0  0  0  0  0  0  0  0
  -20.1229  -35.3777  -22.3009 H   0  0  0  0  0  0  0  0  0  0  0  0
  -20.3767  -34.8474  -25.1650 H   0  0  0  0  0  0  0  0  0  0  0  0
  -20.0834  -33.6326  -23.9002 H   0  0  0  0  0  0  0  0  0  0  0  0
  -18.1700  -34.2183  -25.6441 H   0  0  0  0  0  0  0  0  0  0  0  0
  -17.6724  -33.9554  -23.9961 H   0  0  0  0  0  0  0  0  0  0  0  0
  -17.5998  -39.3214  -23.6376 H   0  0  0  0  0  0  0  0  0  0  0  0
  -16.2891  -37.8594  -24.5681 H   0  0  0  0  0  0  0  0  0  0  0  0
  -16.8256  -38.7430  -27.4242 H   0  0  0  0  0  0  0  0  0  0  0  0
  -15.7464  -37.4858  -26.8846 H   0  0  0  0  0  0  0  0  0  0  0  0
  -14.4263  -39.5735  -27.1948 H   0  0  0  0  0  0  0  0  0  0  0  0
  -14.4462  -39.1146  -25.5090 H   0  0  0  0  0  0  0  0  0  0  0  0
  -14.7627  -41.4274  -25.6668 H   0  0  0  0  0  0  0  0  0  0  0  0
  5  4  2  0
  7  4  1  0
  6  4  2  0
  2  1  2  0
  8  3  2  0
  9  3  1  0
 11 12  1  0
 11 15  1  0
 12 13  1  0
 13 14  1  0
 14 15  1  0
 15  2  1  0
 16  3  1  0
 16 21  1  0
 16 17  1  0
 17 18  1  0
 17  2  1  0
 18 19  1  0
 19 20  1  0
 20 21  1  0
 21  4  1  0
 10 20  1  0
  7 22  1  0
  7 23  1  0
  7 24  1  0
  9 25  1  0
  9 26  1  0
  9 27  1  0
 10 28  1  0
 10 29  1  0
 10 30  1  0
 11 31  1  0
 11 32  1  0
 12 33  1  0
 12 34  1  0
 13 35  1  0
 13 36  1  0
 14 37  1  0
 14 38  1  0
 16 39  1  1
 17 40  1  1
 18 41  1  0
 18 42  1  0
 19 43  1  0
 19 44  1  0
 20 45  1  1
M  END
>  <smiles>  (270) 
[H]C([H])([H])C(=O)[C@@]1([H])N(S(=O)(=O)C([H])([H])[H])[C@@]([H])(C([H])([H])[H])C([H])([H])C([H])([H])[C@@]1([H])C(=O)N1C([H])([H])C([H])([H])C([H])([H])C1([H])[H]

>  <error>  (270) 


>  <∆∆G>  (270) 
-192.739498

>  <∆G_bound>  (270) 
255.916178

>  <∆G_unbound>  (270) 
448.655675

>  <comRMSD>  (270) 
0.651118

>  <N_constrained_atoms>  (270) 
21.0

>  <N_unconstrained_atoms>  (270) 
0.0

>  <runtime>  (270) 
14.804371

>  <regarded>  (270) 
['d0866a', 'd0851a']

>  <disregarded>  (270) 
[]

>  <LE>  (270) 
9.178071

>  <outcome>  (270) 
acceptable

>  <percent_hybrid>  (270) 
15.0

$$$$
LIG
     RDKit          3D

  0  0  0  0  0  0  0  0  0  0999 V3000
M  V30 BEGIN CTAB
M  V30 COUNTS 75 79 0 0 0
M  V30 BEGIN ATOM
M  V30 1 O -19.218000 -37.455002 -26.510000 0
M  V30 2 C -18.440001 -37.272999 -25.589001 0
M  V30 3 C -18.801001 -40.066002 -25.077000 0
M  V30 4 S -16.291000 -41.674000 -23.726000 0
M  V30 5 O -16.832001 -41.215000 -22.487000 0
M  V30 6 O -16.914000 -42.779999 -24.382999 0
M  V30 7 C -14.601000 -42.066002 -23.476999 0
M  V30 8 C -18.129000 -36.304001 -23.285000 0
M  V30 9 C -19.089001 -35.396999 -22.541000 0
M  V30 10 C -19.528999 -34.411999 -23.573999 0
M  V30 11 C -19.582001 -35.196999 -24.878000 0
M  V30 12 N -18.677000 -36.332001 -24.648001 0
M  V30 13 C -17.472000 -39.426998 -24.688999 0 CFG=2
M  V30 14 C -17.184000 -38.118999 -25.462000 0 CFG=1
M  V30 15 C -16.631001 -38.435001 -26.855000 0
M  V30 16 C -15.402000 -39.325001 -26.764999 0
M  V30 17 C -15.742000 -40.634998 -26.099001 0
M  V30 18 N -16.350000 -40.417999 -24.764000 0
M  V30 19 O -11.370000 -32.450001 -20.969999 0
M  V30 20 C -11.950000 -33.465000 -20.601000 0
M  V30 21 C -13.292000 -33.436001 -19.997999 0
M  V30 22 C -13.877000 -34.640999 -19.552999 0
M  V30 23 N -13.139000 -35.812000 -19.618000 0
M  V30 24 C -12.110000 -35.952000 -20.645000 0 CFG=1
M  V30 25 N -11.382000 -34.679001 -20.705000 0
M  V30 26 C -13.994000 -32.241001 -19.871000 0
M  V30 27 C -15.168000 -34.624001 -19.025000 0
M  V30 28 C -15.853000 -33.424000 -18.921000 0
M  V30 29 C -15.268000 -32.243000 -19.333000 0
M  V30 30 C -11.190000 -37.138000 -20.316999 0
M  V30 31 C -11.152000 -37.980999 -21.587999 0
M  V30 32 C -12.451000 -37.754002 -22.233000 0 CFG=2
M  V30 33 C -12.749000 -36.279999 -22.002001 0
M  V30 34 N -14.063499 -40.988003 -23.166000 0
M  V30 35 C -13.526000 -39.910004 -22.855000 0
M  V30 36 C -12.988501 -38.832001 -22.543999 0
M  V30 37 H -19.358402 -40.334011 -24.167343 0
M  V30 38 H -19.390856 -39.353043 -25.671778 0
M  V30 39 H -18.612473 -40.971924 -25.671778 0
M  V30 40 H -14.489917 -42.801506 -22.666632 0
M  V30 41 H -14.143929 -42.512802 -24.372240 0
M  V30 42 H -17.236740 -36.817654 -22.897661 0
M  V30 43 H -18.745884 -37.175060 -23.019085 0
M  V30 44 H -19.391558 -35.451595 -21.484838 0
M  V30 45 H -18.252964 -34.736572 -22.267363 0
M  V30 46 H -19.764292 -33.347851 -23.424904 0
M  V30 47 H -18.478930 -34.151901 -23.773256 0
M  V30 48 H -20.163443 -34.967476 -25.783123 0
M  V30 49 H -18.740808 -34.605370 -25.268347 0
M  V30 50 H -17.554789 -39.120125 -23.635920 0
M  V30 51 H -16.433901 -37.548752 -24.894400 0
M  V30 52 H -17.065676 -38.066658 -27.795946 0
M  V30 53 H -15.989086 -37.543270 -26.802460 0
M  V30 54 H -14.402679 -39.051491 -27.134527 0
M  V30 55 H -15.158585 -38.889721 -25.784552 0
M  V30 56 H -15.562118 -41.623852 -26.546005 0
M  V30 57 H -14.742798 -40.660843 -25.639732 0
M  V30 58 H -13.314224 -36.575504 -18.949228 0
M  V30 59 H -10.361188 -34.718678 -20.836409 0
M  V30 60 H -13.535987 -31.295929 -20.198202 0
M  V30 61 H -15.640623 -35.559937 -18.692352 0
M  V30 62 H -16.871866 -33.412075 -18.506548 0
M  V30 63 H -15.819530 -31.296577 -19.232512 0
M  V30 64 H -10.669828 -37.336834 -19.368376 0
M  V30 65 H -12.057853 -37.712925 -19.961624 0
M  V30 66 H -10.330162 -38.619820 -21.943655 0
M  V30 67 H -11.575160 -38.832932 -21.035601 0
M  V30 68 H -13.107838 -37.620228 -23.105164 0
M  V30 69 H -13.302277 -35.597340 -22.663710 0
M  V30 70 H -11.810613 -36.010841 -22.508938 0
M  V30 71 H -12.863500 -39.788002 -21.966000 0
M  V30 72 H -12.316000 -38.700001 -21.645000 0
M  V30 73 H -12.306000 -38.690002 -21.635000 0
M  V30 74 H -11.758500 -37.602001 -21.313999 0
M  V30 75 H -11.748500 -37.592003 -21.303999 0
M  V30 END ATOM
M  V30 BEGIN BOND
M  V30 1 2 5 4
M  V30 2 1 7 4
M  V30 3 2 6 4
M  V30 4 2 2 1
M  V30 5 1 8 9
M  V30 6 1 8 12
M  V30 7 1 9 10
M  V30 8 1 10 11
M  V30 9 1 11 12
M  V30 10 1 12 2
M  V30 11 1 13 3
M  V30 12 1 13 18
M  V30 13 1 13 14
M  V30 14 1 14 15
M  V30 15 1 14 2
M  V30 16 1 15 16
M  V30 17 1 16 17
M  V30 18 1 17 18
M  V30 19 1 18 4
M  V30 20 2 20 19
M  V30 21 1 20 25
M  V30 22 1 20 21
M  V30 23 2 21 26
M  V30 24 1 21 22
M  V30 25 1 22 23
M  V30 26 2 22 27
M  V30 27 1 24 23 CFG=1
M  V30 28 1 24 25
M  V30 29 1 24 33
M  V30 30 1 24 30
M  V30 31 1 26 29
M  V30 32 1 27 28
M  V30 33 2 28 29
M  V30 34 1 30 31
M  V30 35 1 31 32
M  V30 36 1 32 33
M  V30 37 1 34 7
M  V30 38 1 35 34
M  V30 39 1 36 35
M  V30 40 1 36 32
M  V30 41 1 3 37
M  V30 42 1 3 38
M  V30 43 1 3 39
M  V30 44 1 7 40
M  V30 45 1 7 41
M  V30 46 1 8 42
M  V30 47 1 8 43
M  V30 48 1 9 44
M  V30 49 1 9 45
M  V30 50 1 10 46
M  V30 51 1 10 47
M  V30 52 1 11 48
M  V30 53 1 11 49
M  V30 54 1 13 50 CFG=1
M  V30 55 1 14 51 CFG=1
M  V30 56 1 15 52
M  V30 57 1 15 53
M  V30 58 1 16 54
M  V30 59 1 16 55
M  V30 60 1 17 56
M  V30 61 1 17 57
M  V30 62 1 23 58
M  V30 63 1 25 59
M  V30 64 1 26 60
M  V30 65 1 27 61
M  V30 66 1 28 62
M  V30 67 1 29 63
M  V30 68 1 30 64
M  V30 69 1 30 65
M  V30 70 1 31 66
M  V30 71 1 31 67
M  V30 72 1 32 68 CFG=3
M  V30 73 1 33 69
M  V30 74 1 33 70
M  V30 75 1 34 71
M  V30 76 1 35 72
M  V30 77 1 35 73
M  V30 78 1 36 74
M  V30 79 1 36 75
M  V30 END BOND
M  V30 BEGIN COLLECTION
M  V30 MDLV30/STEABS ATOMS=(0)
M  V30 END COLLECTION
M  V30 END CTAB
M  END
>  <smiles>  (271) 
[H]c1c([H])c([H])c2c(c1[H])C(=O)N([H])[C@]1(N2[H])C([H])([H])C([H])([H])[C@@]([H])(C([H])([H])C([H])([H])N([H])C([H])([H])S(=O)(=O)N2C([H])([H])C([H])([H])C([H])([H])[C@@]([H])(C(=O)N3C([H])([H])C([H])([H])C([H])([H])C3([H])[H])[C@@]2([H])C([H])([H])[H])C1([H])[H]

>  <error>  (271) 


>  <∆∆G>  (271) 
nan

>  <∆G_bound>  (271) 
nan

>  <∆G_unbound>  (271) 
nan

>  <comRMSD>  (271) 
0.0

>  <N_constrained_atoms>  (271) 
33.0

>  <N_unconstrained_atoms>  (271) 
3.0

>  <runtime>  (271) 
2.12934

>  <regarded>  (271) 
['d0866a', 'd1196a']

>  <disregarded>  (271) 
[]

>  <LE>  (271) 
nan

>  <outcome>  (271) 
crashed

>  <percent_hybrid>  (271) 
46.0

$$$$

     RDKit          2D

  0  0  0  0  0  0  0  0  0  0999 V2000
M  END
>  <smiles>  (272) 
nan

>  <error>  (272) 
DistanceError 5.04 Å

>  <∆∆G>  (272) 
nan

>  <∆G_bound>  (272) 
nan

>  <∆G_unbound>  (272) 
nan

>  <comRMSD>  (272) 
nan

>  <N_constrained_atoms>  (272) 
nan

>  <N_unconstrained_atoms>  (272) 
nan

>  <runtime>  (272) 
nan

>  <regarded>  (272) 
[]

>  <disregarded>  (272) 
[]

>  <LE>  (272) 
nan

>  <outcome>  (272) 
too distant

>  <percent_hybrid>  (272) 
nan

$$$$
LIG
     RDKit          3D

  0  0  0  0  0  0  0  0  0  0999 V3000
M  V30 BEGIN CTAB
M  V30 COUNTS 60 62 0 0 0
M  V30 BEGIN ATOM
M  V30 1 O -19.218000 -37.455002 -26.510000 0
M  V30 2 C -18.440001 -37.272999 -25.589001 0
M  V30 3 C -18.801001 -40.066002 -25.077000 0
M  V30 4 S -16.291000 -41.674000 -23.726000 0
M  V30 5 O -16.832001 -41.215000 -22.487000 0
M  V30 6 O -16.914000 -42.779999 -24.382999 0
M  V30 7 C -14.601000 -42.066002 -23.476999 0
M  V30 8 C -18.129000 -36.304001 -23.285000 0
M  V30 9 C -19.089001 -35.396999 -22.541000 0
M  V30 10 C -19.528999 -34.411999 -23.573999 0
M  V30 11 C -19.582001 -35.196999 -24.878000 0
M  V30 12 N -18.677000 -36.332001 -24.648001 0
M  V30 13 C -17.472000 -39.426998 -24.688999 0 CFG=2
M  V30 14 C -17.184000 -38.118999 -25.462000 0 CFG=1
M  V30 15 C -16.631001 -38.435001 -26.855000 0
M  V30 16 C -15.402000 -39.325001 -26.764999 0
M  V30 17 C -15.742000 -40.634998 -26.099001 0
M  V30 18 N -16.350000 -40.417999 -24.764000 0
M  V30 19 N -13.266000 -42.196999 -21.974001 0
M  V30 20 C -12.944000 -41.021999 -21.833000 0
M  V30 21 C -11.629000 -40.624001 -21.225000 0
M  V30 22 N -13.726000 -40.034000 -22.247999 0
M  V30 23 C -13.348000 -39.222000 -23.382000 0
M  V30 24 C -12.966000 -37.907001 -22.924999 0
M  V30 25 N -11.741000 -37.458000 -22.879000 0
M  V30 26 C -11.837000 -36.210999 -22.299000 0
M  V30 27 C -13.101000 -35.942001 -22.018000 0
M  V30 28 N -13.818000 -37.035000 -22.421000 0
M  V30 29 N -13.933500 -42.131500 -22.725500 0
M  V30 30 H -19.358402 -40.334011 -24.167343 0
M  V30 31 H -19.390856 -39.353043 -25.671778 0
M  V30 32 H -18.612473 -40.971924 -25.671778 0
M  V30 33 H -14.542475 -43.074615 -23.912054 0
M  V30 34 H -14.269724 -41.054607 -23.755093 0
M  V30 35 H -17.236740 -36.817654 -22.897661 0
M  V30 36 H -18.745884 -37.175060 -23.019085 0
M  V30 37 H -19.391558 -35.451595 -21.484838 0
M  V30 38 H -18.252964 -34.736572 -22.267363 0
M  V30 39 H -19.764292 -33.347851 -23.424904 0
M  V30 40 H -18.478930 -34.151901 -23.773256 0
M  V30 41 H -20.163443 -34.967476 -25.783123 0
M  V30 42 H -18.740808 -34.605370 -25.268347 0
M  V30 43 H -17.554789 -39.120125 -23.635920 0
M  V30 44 H -16.433901 -37.548752 -24.894400 0
M  V30 45 H -17.065676 -38.066658 -27.795946 0
M  V30 46 H -15.989086 -37.543270 -26.802460 0
M  V30 47 H -14.402679 -39.051491 -27.134527 0
M  V30 48 H -15.158585 -38.889721 -25.784552 0
M  V30 49 H -15.562118 -41.623852 -26.546005 0
M  V30 50 H -14.742798 -40.660843 -25.639732 0
M  V30 51 H -11.709771 -40.648445 -20.128242 0
M  V30 52 H -10.847049 -41.325714 -21.550806 0
M  V30 53 H -11.367404 -39.606445 -21.550806 0
M  V30 54 H -14.611291 -39.843807 -21.757097 0
M  V30 55 H -12.499456 -39.690483 -23.902094 0
M  V30 56 H -14.199591 -39.137444 -24.073118 0
M  V30 57 H -10.988646 -35.539764 -22.099646 0
M  V30 58 H -13.495500 -35.025738 -21.554501 0
M  V30 59 H -12.853499 -41.051498 -21.645500 0
M  V30 60 H -10.887267 -37.932812 -23.205488 0
M  V30 END ATOM
M  V30 BEGIN BOND
M  V30 1 2 5 4
M  V30 2 1 7 4
M  V30 3 2 6 4
M  V30 4 2 2 1
M  V30 5 1 8 9
M  V30 6 1 8 12
M  V30 7 1 9 10
M  V30 8 1 10 11
M  V30 9 1 11 12
M  V30 10 1 12 2
M  V30 11 1 13 3
M  V30 12 1 13 18
M  V30 13 1 13 14
M  V30 14 1 14 15
M  V30 15 1 14 2
M  V30 16 1 15 16
M  V30 17 1 16 17
M  V30 18 1 17 18
M  V30 19 1 18 4
M  V30 20 1 21 20
M  V30 21 2 20 19
M  V30 22 1 22 20
M  V30 23 1 23 22
M  V30 24 1 24 23
M  V30 25 1 24 25
M  V30 26 2 24 28
M  V30 27 1 25 26
M  V30 28 2 26 27
M  V30 29 1 27 28
M  V30 30 1 29 7
M  V30 31 1 29 19
M  V30 32 1 3 30
M  V30 33 1 3 31
M  V30 34 1 3 32
M  V30 35 1 7 33
M  V30 36 1 7 34
M  V30 37 1 8 35
M  V30 38 1 8 36
M  V30 39 1 9 37
M  V30 40 1 9 38
M  V30 41 1 10 39
M  V30 42 1 10 40
M  V30 43 1 11 41
M  V30 44 1 11 42
M  V30 45 1 13 43 CFG=1
M  V30 46 1 14 44 CFG=1
M  V30 47 1 15 45
M  V30 48 1 15 46
M  V30 49 1 16 47
M  V30 50 1 16 48
M  V30 51 1 17 49
M  V30 52 1 17 50
M  V30 53 1 21 51
M  V30 54 1 21 52
M  V30 55 1 21 53
M  V30 56 1 22 54
M  V30 57 1 23 55
M  V30 58 1 23 56
M  V30 59 1 26 57
M  V30 60 1 27 58
M  V30 61 1 29 59
M  V30 62 1 25 60
M  V30 END BOND
M  V30 BEGIN COLLECTION
M  V30 MDLV30/STEABS ATOMS=(0)
M  V30 END COLLECTION
M  V30 END CTAB
M  END
>  <smiles>  (273) 
[H]c1nc(C([H])([H])N([H])/C(=N\N([H])C([H])([H])S(=O)(=O)N2C([H])([H])C([H])([H])C([H])([H])[C@@]([H])(C(=O)N3C([H])([H])C([H])([H])C([H])([H])C3([H])[H])[C@@]2([H])C([H])([H])[H])C([H])([H])[H])[nH]c1[H]

>  <error>  (273) 


>  <∆∆G>  (273) 
nan

>  <∆G_bound>  (273) 
nan

>  <∆G_unbound>  (273) 
nan

>  <comRMSD>  (273) 
0.0

>  <N_constrained_atoms>  (273) 
28.0

>  <N_unconstrained_atoms>  (273) 
1.0

>  <runtime>  (273) 
1.58461

>  <regarded>  (273) 
['d0866a', 'z0103a']

>  <disregarded>  (273) 
[]

>  <LE>  (273) 
nan

>  <outcome>  (273) 
crashed

>  <percent_hybrid>  (273) 
36.0

$$$$

     RDKit          2D

  0  0  0  0  0  0  0  0  0  0999 V2000
M  END
>  <smiles>  (274) 
nan

>  <error>  (274) 
DistanceError 5.97 Å

>  <∆∆G>  (274) 
nan

>  <∆G_bound>  (274) 
nan

>  <∆G_unbound>  (274) 
nan

>  <comRMSD>  (274) 
nan

>  <N_constrained_atoms>  (274) 
nan

>  <N_unconstrained_atoms>  (274) 
nan

>  <runtime>  (274) 
nan

>  <regarded>  (274) 
[]

>  <disregarded>  (274) 
[]

>  <LE>  (274) 
nan

>  <outcome>  (274) 
too distant

>  <percent_hybrid>  (274) 
nan

$$$$

     RDKit          2D

  0  0  0  0  0  0  0  0  0  0999 V2000
M  END
>  <smiles>  (275) 
nan

>  <error>  (275) 
RecursionError maximum recursion depth exceeded while calling a Python object

>  <∆∆G>  (275) 
nan

>  <∆G_bound>  (275) 
nan

>  <∆G_unbound>  (275) 
nan

>  <comRMSD>  (275) 
nan

>  <N_constrained_atoms>  (275) 
nan

>  <N_unconstrained_atoms>  (275) 
nan

>  <runtime>  (275) 
nan

>  <regarded>  (275) 
[]

>  <disregarded>  (275) 
[]

>  <LE>  (275) 
nan

>  <outcome>  (275) 
crashed

>  <percent_hybrid>  (275) 
nan

$$$$
LIG
     RDKit          3D

  0  0  0  0  0  0  0  0  0  0999 V3000
M  V30 BEGIN CTAB
M  V30 COUNTS 50 52 0 0 0
M  V30 BEGIN ATOM
M  V30 1 O -19.218000 -37.455002 -26.510000 0
M  V30 2 C -18.440001 -37.272999 -25.589001 0
M  V30 3 C -18.801001 -40.066002 -25.077000 0
M  V30 4 S -16.291000 -41.674000 -23.726000 0
M  V30 5 O -16.832001 -41.215000 -22.487000 0
M  V30 6 O -16.914000 -42.779999 -24.382999 0
M  V30 7 C -14.601000 -42.066002 -23.476999 0
M  V30 8 C -18.129000 -36.304001 -23.285000 0
M  V30 9 C -19.089001 -35.396999 -22.541000 0
M  V30 10 C -19.528999 -34.411999 -23.573999 0
M  V30 11 C -19.582001 -35.196999 -24.878000 0
M  V30 12 N -18.677000 -36.332001 -24.648001 0
M  V30 13 C -17.472000 -39.426998 -24.688999 0 CFG=2
M  V30 14 C -17.184000 -38.118999 -25.462000 0 CFG=1
M  V30 15 C -16.631001 -38.435001 -26.855000 0
M  V30 16 C -15.402000 -39.325001 -26.764999 0
M  V30 17 C -15.742000 -40.634998 -26.099001 0
M  V30 18 N -16.350000 -40.417999 -24.764000 0
M  V30 19 N -13.297000 -44.498001 -20.850000 0
M  V30 20 C -12.948000 -43.432999 -21.100000 0
M  V30 21 C -12.567000 -42.085999 -21.440001 0
M  V30 22 C -13.246000 -41.202000 -22.230000 0
M  V30 23 N -12.548000 -40.040001 -22.191999 0
M  V30 24 C -11.474000 -40.242001 -21.403000 0
M  V30 25 N -11.428000 -41.477001 -20.927000 0
M  V30 26 N -13.923500 -41.634003 -22.853500 0
M  V30 27 H -19.358402 -40.334011 -24.167343 0
M  V30 28 H -19.390856 -39.353043 -25.671778 0
M  V30 29 H -18.612473 -40.971924 -25.671778 0
M  V30 30 H -14.609019 -43.124496 -23.177795 0
M  V30 31 H -14.211472 -41.665707 -24.424644 0
M  V30 32 H -17.110168 -35.889343 -23.278488 0
M  V30 33 H -18.045275 -37.303970 -22.834385 0
M  V30 34 H -19.946302 -35.967758 -22.154648 0
M  V30 35 H -18.625710 -34.915722 -21.667082 0
M  V30 36 H -20.522223 -34.009979 -23.325226 0
M  V30 37 H -18.845905 -33.552284 -23.639366 0
M  V30 38 H -20.604527 -35.547546 -25.081858 0
M  V30 39 H -19.288511 -34.591660 -25.748306 0
M  V30 40 H -17.554789 -39.120125 -23.635920 0
M  V30 41 H -16.433901 -37.548752 -24.894400 0
M  V30 42 H -17.406082 -38.950432 -27.441156 0
M  V30 43 H -16.344500 -37.490452 -27.340534 0
M  V30 44 H -15.023789 -39.522495 -27.778879 0
M  V30 45 H -14.635620 -38.811352 -26.165979 0
M  V30 46 H -16.453987 -41.184811 -26.732071 0
M  V30 47 H -14.813306 -41.209915 -25.968628 0
M  V30 48 H -10.722527 -39.470219 -21.180201 0
M  V30 49 H -12.943501 -40.653999 -21.873499 0
M  V30 50 H -10.710724 -41.892029 -20.315310 0
M  V30 END ATOM
M  V30 BEGIN BOND
M  V30 1 2 5 4
M  V30 2 1 7 4
M  V30 3 2 6 4
M  V30 4 2 2 1
M  V30 5 1 8 9
M  V30 6 1 8 12
M  V30 7 1 9 10
M  V30 8 1 10 11
M  V30 9 1 11 12
M  V30 10 1 12 2
M  V30 11 1 13 3
M  V30 12 1 13 18
M  V30 13 1 13 14
M  V30 14 1 14 15
M  V30 15 1 14 2
M  V30 16 1 15 16
M  V30 17 1 16 17
M  V30 18 1 17 18
M  V30 19 1 18 4
M  V30 20 3 20 19
M  V30 21 1 21 20
M  V30 22 2 21 22
M  V30 23 1 21 25
M  V30 24 1 22 23
M  V30 25 2 23 24
M  V30 26 1 24 25
M  V30 27 1 26 7
M  V30 28 1 26 22
M  V30 29 1 3 27
M  V30 30 1 3 28
M  V30 31 1 3 29
M  V30 32 1 7 30
M  V30 33 1 7 31
M  V30 34 1 8 32
M  V30 35 1 8 33
M  V30 36 1 9 34
M  V30 37 1 9 35
M  V30 38 1 10 36
M  V30 39 1 10 37
M  V30 40 1 11 38
M  V30 41 1 11 39
M  V30 42 1 13 40 CFG=1
M  V30 43 1 14 41 CFG=1
M  V30 44 1 15 42
M  V30 45 1 15 43
M  V30 46 1 16 44
M  V30 47 1 16 45
M  V30 48 1 17 46
M  V30 49 1 17 47
M  V30 50 1 24 48
M  V30 51 1 26 49
M  V30 52 1 25 50
M  V30 END BOND
M  V30 BEGIN COLLECTION
M  V30 MDLV30/STEABS ATOMS=(0)
M  V30 END COLLECTION
M  V30 END CTAB
M  END
>  <smiles>  (276) 
[H]c1nc(N([H])C([H])([H])S(=O)(=O)N2C([H])([H])C([H])([H])C([H])([H])[C@@]([H])(C(=O)N3C([H])([H])C([H])([H])C([H])([H])C3([H])[H])[C@@]2([H])C([H])([H])[H])c(C#N)[nH]1

>  <error>  (276) 


>  <∆∆G>  (276) 
nan

>  <∆G_bound>  (276) 
nan

>  <∆G_unbound>  (276) 
nan

>  <comRMSD>  (276) 
0.0

>  <N_constrained_atoms>  (276) 
25.0

>  <N_unconstrained_atoms>  (276) 
1.0

>  <runtime>  (276) 
1.400534

>  <regarded>  (276) 
['d0866a', 'z0875c']

>  <disregarded>  (276) 
[]

>  <LE>  (276) 
nan

>  <outcome>  (276) 
crashed

>  <percent_hybrid>  (276) 
28.0

$$$$

     RDKit          2D

  0  0  0  0  0  0  0  0  0  0999 V2000
M  END
>  <smiles>  (277) 
nan

>  <error>  (277) 
TimeoutError

>  <∆∆G>  (277) 
nan

>  <∆G_bound>  (277) 
nan

>  <∆G_unbound>  (277) 
nan

>  <comRMSD>  (277) 
nan

>  <N_constrained_atoms>  (277) 
nan

>  <N_unconstrained_atoms>  (277) 
nan

>  <runtime>  (277) 
nan

>  <regarded>  (277) 
[]

>  <disregarded>  (277) 
[]

>  <LE>  (277) 
nan

>  <outcome>  (277) 
timeout

>  <percent_hybrid>  (277) 
nan

$$$$
LIG
     RDKit          3D

  0  0  0  0  0  0  0  0  0  0999 V3000
M  V30 BEGIN CTAB
M  V30 COUNTS 72 75 0 0 0
M  V30 BEGIN ATOM
M  V30 1 O -19.218000 -37.455002 -26.510000 0
M  V30 2 C -18.440001 -37.272999 -25.589001 0
M  V30 3 C -18.801001 -40.066002 -25.077000 0
M  V30 4 S -16.291000 -41.674000 -23.726000 0 CFG=2
M  V30 5 N -16.832001 -41.215000 -22.487000 0
M  V30 6 O -16.914000 -42.779999 -24.382999 0
M  V30 7 C -14.601000 -42.066002 -23.476999 0
M  V30 8 C -18.129000 -36.304001 -23.285000 0
M  V30 9 C -19.089001 -35.396999 -22.541000 0
M  V30 10 C -19.528999 -34.411999 -23.573999 0
M  V30 11 C -19.582001 -35.196999 -24.878000 0
M  V30 12 N -18.677000 -36.332001 -24.648001 0
M  V30 13 C -17.472000 -39.426998 -24.688999 0 CFG=2
M  V30 14 C -17.184000 -38.118999 -25.462000 0 CFG=1
M  V30 15 C -16.631001 -38.435001 -26.855000 0
M  V30 16 C -15.402000 -39.325001 -26.764999 0
M  V30 17 C -15.742000 -40.634998 -26.099001 0
M  V30 18 N -16.350000 -40.417999 -24.764000 0
M  V30 19 O -12.915000 -39.988998 -21.322001 0
M  V30 20 N -15.092000 -40.324001 -21.309999 0
M  V30 21 C -13.912000 -40.751999 -21.268000 0
M  V30 22 C -13.628000 -42.243999 -21.202999 0
M  V30 23 O -17.378000 -45.675999 -18.625999 0
M  V30 24 C -16.489000 -44.841000 -19.246000 0
M  V30 25 C -15.599000 -44.064999 -18.492001 0
M  V30 26 C -14.680000 -43.231998 -19.141001 0
M  V30 27 C -14.654000 -43.130001 -20.540001 0
M  V30 28 C -15.497000 -43.917999 -21.339001 0
M  V30 29 C -16.443001 -44.769001 -20.743000 0
M  V30 30 C -18.603001 -47.646999 -22.007000 0
M  V30 31 C -17.684000 -46.908001 -21.254000 0
M  V30 32 C -17.409000 -45.562000 -21.568001 0
M  V30 33 C -18.075001 -44.958000 -22.642000 0
M  V30 34 C -18.973000 -45.709000 -23.403000 0
M  V30 35 C -19.254999 -47.042999 -23.087000 0
M  V30 36 C -15.962000 -40.769501 -21.898499 0
M  V30 37 H -19.358402 -40.334011 -24.167343 0
M  V30 38 H -19.390856 -39.353043 -25.671778 0
M  V30 39 H -18.612473 -40.971924 -25.671778 0
M  V30 40 H -14.390973 -42.114719 -22.398336 0
M  V30 41 H -14.378613 -43.039574 -23.938192 0
M  V30 42 H -13.972732 -41.289742 -23.938192 0
M  V30 43 H -17.236740 -36.817654 -22.897661 0
M  V30 44 H -18.745884 -37.175060 -23.019085 0
M  V30 45 H -19.391558 -35.451595 -21.484838 0
M  V30 46 H -18.252964 -34.736572 -22.267363 0
M  V30 47 H -19.764292 -33.347851 -23.424904 0
M  V30 48 H -18.478930 -34.151901 -23.773256 0
M  V30 49 H -20.163443 -34.967476 -25.783123 0
M  V30 50 H -18.740808 -34.605370 -25.268347 0
M  V30 51 H -17.554789 -39.120125 -23.635920 0
M  V30 52 H -16.433901 -37.548752 -24.894400 0
M  V30 53 H -17.065676 -38.066658 -27.795946 0
M  V30 54 H -15.989086 -37.543270 -26.802460 0
M  V30 55 H -14.402679 -39.051491 -27.134527 0
M  V30 56 H -15.158585 -38.889721 -25.784552 0
M  V30 57 H -15.562118 -41.623852 -26.546005 0
M  V30 58 H -14.742798 -40.660843 -25.639732 0
M  V30 59 H -13.043917 -39.008404 -21.365770 0
M  V30 60 H -13.507092 -42.599754 -22.236835 0
M  V30 61 H -12.736978 -42.327503 -20.563385 0
M  V30 62 H -17.416443 -45.712105 -17.637405 0
M  V30 63 H -15.622280 -44.110146 -17.393173 0
M  V30 64 H -13.965465 -42.646942 -18.543381 0
M  V30 65 H -15.416857 -43.869213 -22.434992 0
M  V30 66 H -18.811413 -48.696358 -21.751242 0
M  V30 67 H -17.169569 -47.383751 -20.406048 0
M  V30 68 H -17.892073 -43.900646 -22.883947 0
M  V30 69 H -19.468428 -45.243206 -24.267632 0
M  V30 70 H -19.983591 -47.611877 -23.683266 0
M  V30 71 H -14.762000 -39.569500 -20.698500 0
M  V30 72 H -14.752001 -39.559502 -20.688499 0
M  V30 END ATOM
M  V30 BEGIN BOND
M  V30 1 2 5 4
M  V30 2 1 4 7 CFG=1
M  V30 3 2 6 4
M  V30 4 2 2 1
M  V30 5 1 8 9
M  V30 6 1 8 12
M  V30 7 1 9 10
M  V30 8 1 10 11
M  V30 9 1 11 12
M  V30 10 1 12 2
M  V30 11 1 13 3
M  V30 12 1 13 18
M  V30 13 1 13 14
M  V30 14 1 14 15
M  V30 15 1 14 2
M  V30 16 1 15 16
M  V30 17 1 16 17
M  V30 18 1 17 18
M  V30 19 1 18 4
M  V30 20 1 22 21
M  V30 21 2 20 21
M  V30 22 1 21 19
M  V30 23 1 24 23
M  V30 24 2 24 29
M  V30 25 1 24 25
M  V30 26 2 25 26
M  V30 27 1 26 27
M  V30 28 2 27 28
M  V30 29 1 27 22
M  V30 30 1 28 29
M  V30 31 1 29 32
M  V30 32 2 30 35
M  V30 33 1 30 31
M  V30 34 2 31 32
M  V30 35 1 32 33
M  V30 36 2 33 34
M  V30 37 1 34 35
M  V30 38 1 36 5
M  V30 39 1 36 20
M  V30 40 1 3 37
M  V30 41 1 3 38
M  V30 42 1 3 39
M  V30 43 1 7 40
M  V30 44 1 7 41
M  V30 45 1 7 42
M  V30 46 1 8 43
M  V30 47 1 8 44
M  V30 48 1 9 45
M  V30 49 1 9 46
M  V30 50 1 10 47
M  V30 51 1 10 48
M  V30 52 1 11 49
M  V30 53 1 11 50
M  V30 54 1 13 51 CFG=1
M  V30 55 1 14 52 CFG=1
M  V30 56 1 15 53
M  V30 57 1 15 54
M  V30 58 1 16 55
M  V30 59 1 16 56
M  V30 60 1 17 57
M  V30 61 1 17 58
M  V30 62 1 19 59
M  V30 63 1 22 60
M  V30 64 1 22 61
M  V30 65 1 23 62
M  V30 66 1 25 63
M  V30 67 1 26 64
M  V30 68 1 28 65
M  V30 69 1 30 66
M  V30 70 1 31 67
M  V30 71 1 33 68
M  V30 72 1 34 69
M  V30 73 1 35 70
M  V30 74 1 36 71
M  V30 75 1 36 72
M  V30 END BOND
M  V30 BEGIN COLLECTION
M  V30 MDLV30/STEABS ATOMS=(0)
M  V30 END COLLECTION
M  V30 END CTAB
M  END
>  <smiles>  (278) 
[H]O/C(=N/C([H])([H])N=[S@@](=O)(N1C([H])([H])C([H])([H])C([H])([H])[C@@]([H])(C(=O)N2C([H])([H])C([H])([H])C([H])([H])C2([H])[H])[C@@]1([H])C([H])([H])[H])C([H])([H])[H])C([H])([H])c1c([H])c([H])c(O[H])c(-c2c([H])c([H])c([H])c([H])c2[H])c1[H]

>  <error>  (278) 


>  <∆∆G>  (278) 
nan

>  <∆G_bound>  (278) 
nan

>  <∆G_unbound>  (278) 
nan

>  <comRMSD>  (278) 
0.0

>  <N_constrained_atoms>  (278) 
35.0

>  <N_unconstrained_atoms>  (278) 
1.0

>  <runtime>  (278) 
2.903532

>  <regarded>  (278) 
['d0866a', '5hn0-a']

>  <disregarded>  (278) 
[]

>  <LE>  (278) 
nan

>  <outcome>  (278) 
crashed

>  <percent_hybrid>  (278) 
49.0

$$$$
LIG
     RDKit          3D

 64 67  0  0  0  0  0  0  0  0999 V2000
  -19.3136  -37.7911  -26.9637 O   0  0  0  0  0  0  0  0  0  0  0  0
  -18.5436  -37.6202  -26.0508 C   0  0  0  0  0  0  0  0  0  0  0  0
  -19.1343  -40.5472  -25.4703 C   0  0  0  0  0  0  0  0  0  0  0  0
  -16.8954  -42.1305  -23.7055 S   0  0  0  0  0  0  0  0  0  0  0  0
  -17.4721  -41.5133  -22.5260 O   0  0  0  0  0  0  0  0  0  0  0  0
  -17.5912  -43.1943  -24.4033 O   0  0  0  0  0  0  0  0  0  0  0  0
  -15.1792  -42.6443  -23.3272 C   0  0  0  0  0  0  0  0  0  0  0  0
  -14.2839  -42.8758  -16.9810 C   0  0  0  0  0  0  0  0  0  0  0  0
  -16.4887  -41.9139  -16.5175 O   0  0  0  0  0  0  0  0  0  0  0  0
  -15.0734  -43.8534  -22.5453 O   0  0  0  0  0  0  0  0  0  0  0  0
  -15.5326  -42.5909  -16.1786 C   0  0  0  0  0  0  0  0  0  0  0  0
  -15.5067  -43.1909  -14.9703 O   0  0  0  0  0  0  0  0  0  0  0  0
  -19.2570  -36.7423  -23.9168 C   0  0  0  0  0  0  0  0  0  0  0  0
  -19.0417  -35.6532  -22.8856 C   0  0  0  0  0  0  0  0  0  0  0  0
  -18.8917  -34.4847  -23.7937 C   0  0  0  0  0  0  0  0  0  0  0  0
  -19.0926  -35.1911  -25.1112 C   0  0  0  0  0  0  0  0  0  0  0  0
  -18.4052  -36.5223  -25.1471 N   0  0  0  0  0  0  0  0  0  0  0  0
  -17.8558  -39.8779  -24.9565 C   0  0  2  0  0  0  0  0  0  0  0  0
  -17.4162  -38.6507  -25.7895 C   0  0  1  0  0  0  0  0  0  0  0  0
  -16.8256  -39.0705  -27.1429 C   0  0  0  0  0  0  0  0  0  0  0  0
  -15.7179  -40.0976  -26.9712 C   0  0  0  0  0  0  0  0  0  0  0  0
  -16.1914  -41.3009  -26.1774 C   0  0  0  0  0  0  0  0  0  0  0  0
  -16.6959  -40.8594  -24.8508 N   0  0  0  0  0  0  0  0  0  0  0  0
  -14.5117  -43.1387  -18.4545 C   0  0  0  0  0  0  0  0  0  0  0  0
  -13.5180  -42.8002  -19.3843 C   0  0  0  0  0  0  0  0  0  0  0  0
  -13.7031  -43.0379  -20.7507 C   0  0  0  0  0  0  0  0  0  0  0  0
  -14.8861  -43.6133  -21.2111 C   0  0  0  0  0  0  0  0  0  0  0  0
  -15.8467  -44.0393  -20.2894 C   0  0  0  0  0  0  0  0  0  0  0  0
  -15.6611  -43.7924  -18.9210 C   0  0  0  0  0  0  0  0  0  0  0  0
  -17.0350  -46.0675  -21.0322 C   0  0  0  0  0  0  0  0  0  0  0  0
  -18.5824  -46.6370  -21.4702 S   0  0  0  0  0  0  0  0  0  0  0  0
  -19.2833  -45.0968  -21.2197 C   0  0  0  0  0  0  0  0  0  0  0  0
  -18.3578  -44.1701  -20.8027 C   0  0  0  0  0  0  0  0  0  0  0  0
  -17.0503  -44.7270  -20.7090 C   0  0  0  0  0  0  0  0  0  0  0  0
  -19.4247  -41.3968  -24.8460 H   0  0  0  0  0  0  0  0  0  0  0  0
  -19.9776  -39.8497  -25.4460 H   0  0  0  0  0  0  0  0  0  0  0  0
  -19.0315  -40.9118  -26.4963 H   0  0  0  0  0  0  0  0  0  0  0  0
  -14.6931  -42.8688  -24.2779 H   0  0  0  0  0  0  0  0  0  0  0  0
  -14.6796  -41.7828  -22.8705 H   0  0  0  0  0  0  0  0  0  0  0  0
  -13.6195  -42.0145  -16.8454 H   0  0  0  0  0  0  0  0  0  0  0  0
  -13.7830  -43.7557  -16.5610 H   0  0  0  0  0  0  0  0  0  0  0  0
  -16.4158  -43.0624  -14.6127 H   0  0  0  0  0  0  0  0  0  0  0  0
  -18.9465  -37.6900  -23.4665 H   0  0  0  0  0  0  0  0  0  0  0  0
  -20.3170  -36.9092  -24.1780 H   0  0  0  0  0  0  0  0  0  0  0  0
  -19.8843  -35.5679  -22.1939 H   0  0  0  0  0  0  0  0  0  0  0  0
  -18.1274  -35.8207  -22.3062 H   0  0  0  0  0  0  0  0  0  0  0  0
  -19.6310  -33.6970  -23.6253 H   0  0  0  0  0  0  0  0  0  0  0  0
  -17.8893  -34.0504  -23.7157 H   0  0  0  0  0  0  0  0  0  0  0  0
  -20.1446  -35.2645  -25.4366 H   0  0  0  0  0  0  0  0  0  0  0  0
  -18.6179  -34.6028  -25.9080 H   0  0  0  0  0  0  0  0  0  0  0  0
  -18.0539  -39.5227  -23.9406 H   0  0  0  0  0  0  0  0  0  0  0  0
  -16.6116  -38.1436  -25.2367 H   0  0  0  0  0  0  0  0  0  0  0  0
  -17.6027  -39.4864  -27.7961 H   0  0  0  0  0  0  0  0  0  0  0  0
  -16.4302  -38.1864  -27.6565 H   0  0  0  0  0  0  0  0  0  0  0  0
  -15.3794  -40.4324  -27.9556 H   0  0  0  0  0  0  0  0  0  0  0  0
  -14.8605  -39.6332  -26.4688 H   0  0  0  0  0  0  0  0  0  0  0  0
  -16.9678  -41.8444  -26.7236 H   0  0  0  0  0  0  0  0  0  0  0  0
  -15.3455  -41.9770  -26.0549 H   0  0  0  0  0  0  0  0  0  0  0  0
  -12.5795  -42.3544  -19.0570 H   0  0  0  0  0  0  0  0  0  0  0  0
  -12.9026  -42.7979  -21.4446 H   0  0  0  0  0  0  0  0  0  0  0  0
  -16.4365  -44.1057  -18.2246 H   0  0  0  0  0  0  0  0  0  0  0  0
  -16.1929  -46.7444  -21.0394 H   0  0  0  0  0  0  0  0  0  0  0  0
  -20.3383  -44.9319  -21.3822 H   0  0  0  0  0  0  0  0  0  0  0  0
  -18.6046  -43.1363  -20.5904 H   0  0  0  0  0  0  0  0  0  0  0  0
  5  4  2  0
  7  4  1  0
  6  4  2  0
  2  1  2  0
  8 11  1  0
  9 11  2  0
 11 12  1  0
 10  7  1  0
 13 14  1  0
 13 17  1  0
 14 15  1  0
 15 16  1  0
 16 17  1  0
 17  2  1  0
 18  3  1  0
 18 23  1  0
 18 19  1  0
 19 20  1  0
 19  2  1  0
 20 21  1  0
 21 22  1  0
 22 23  1  0
 23  4  1  0
 24 29  2  0
 24  8  1  0
 24 25  1  0
 25 26  2  0
 26 27  1  0
 27 28  2  0
 27 10  1  0
 28 34  1  0
 28 29  1  0
 30 31  1  0
 30 34  2  0
 31 32  1  0
 32 33  2  0
 33 34  1  0
  3 35  1  0
  3 36  1  0
  3 37  1  0
  7 38  1  0
  7 39  1  0
  8 40  1  0
  8 41  1  0
 12 42  1  0
 13 43  1  0
 13 44  1  0
 14 45  1  0
 14 46  1  0
 15 47  1  0
 15 48  1  0
 16 49  1  0
 16 50  1  0
 18 51  1  1
 19 52  1  1
 20 53  1  0
 20 54  1  0
 21 55  1  0
 21 56  1  0
 22 57  1  0
 22 58  1  0
 25 59  1  0
 26 60  1  0
 29 61  1  0
 30 62  1  0
 32 63  1  0
 33 64  1  0
M  END
>  <smiles>  (279) 
[H]OC(=O)C([H])([H])c1c([H])c([H])c(OC([H])([H])S(=O)(=O)N2C([H])([H])C([H])([H])C([H])([H])[C@@]([H])(C(=O)N3C([H])([H])C([H])([H])C([H])([H])C3([H])[H])[C@@]2([H])C([H])([H])[H])c(-c2c([H])sc([H])c2[H])c1[H]

>  <error>  (279) 


>  <∆∆G>  (279) 
-76.159221

>  <∆G_bound>  (279) 
80.615075

>  <∆G_unbound>  (279) 
156.774296

>  <comRMSD>  (279) 
1.203992

>  <N_constrained_atoms>  (279) 
34.0

>  <N_unconstrained_atoms>  (279) 
0.0

>  <runtime>  (279) 
13.063822

>  <regarded>  (279) 
['d0866a', '5f41-a']

>  <disregarded>  (279) 
[]

>  <LE>  (279) 
2.239977

>  <outcome>  (279) 
too moved

>  <percent_hybrid>  (279) 
48.0

$$$$
LIG
     RDKit          3D

 64 67  0  0  0  0  0  0  0  0999 V2000
  -18.8234  -37.0243  -26.2002 O   0  0  0  0  0  0  0  0  0  0  0  0
  -17.8843  -37.0332  -25.4861 C   0  0  0  0  0  0  0  0  0  0  0  0
  -18.7849  -39.9038  -25.0663 C   0  0  0  0  0  0  0  0  0  0  0  0
  -16.6686  -41.8696  -23.6871 S   0  0  0  0  0  0  0  0  0  0  0  0
  -17.1144  -41.3225  -22.4190 O   0  0  0  0  0  0  0  0  0  0  0  0
  -17.5237  -42.7324  -24.4782 O   0  0  0  0  0  0  0  0  0  0  0  0
  -15.0518  -42.6816  -23.4364 C   0  0  0  0  0  0  0  0  0  0  0  0
  -15.4762  -43.1908  -17.0749 C   0  0  0  0  0  0  0  0  0  0  0  0
  -15.1146  -43.9377  -22.7099 O   0  0  0  0  0  0  0  0  0  0  0  0
  -16.0749  -40.8778  -17.4230 O   0  0  0  0  0  0  0  0  0  0  0  0
  -14.6149  -41.3495  -15.7706 O   0  0  0  0  0  0  0  0  0  0  0  0
  -15.3277  -41.7342  -16.6873 C   0  0  0  0  0  0  0  0  0  0  0  0
  -17.9542  -36.0916  -23.1604 C   0  0  0  0  0  0  0  0  0  0  0  0
  -19.3834  -35.6021  -23.0763 C   0  0  0  0  0  0  0  0  0  0  0  0
  -19.2677  -34.4213  -23.9678 C   0  0  0  0  0  0  0  0  0  0  0  0
  -17.8005  -34.5400  -24.3229 C   0  0  0  0  0  0  0  0  0  0  0  0
  -17.3510  -35.9585  -24.5446 N   0  0  0  0  0  0  0  0  0  0  0  0
  -17.3901  -39.4182  -24.6469 C   0  0  2  0  0  0  0  0  0  0  0  0
  -16.8807  -38.2030  -25.4523 C   0  0  1  0  0  0  0  0  0  0  0  0
  -16.5279  -38.5956  -26.8917 C   0  0  0  0  0  0  0  0  0  0  0  0
  -15.5381  -39.7515  -26.9071 C   0  0  0  0  0  0  0  0  0  0  0  0
  -16.0261  -40.9343  -26.1026 C   0  0  0  0  0  0  0  0  0  0  0  0
  -16.3436  -40.5279  -24.7054 N   0  0  0  0  0  0  0  0  0  0  0  0
  -15.3383  -43.4594  -18.5560 C   0  0  0  0  0  0  0  0  0  0  0  0
  -14.2643  -42.9299  -19.2796 C   0  0  0  0  0  0  0  0  0  0  0  0
  -14.1897  -43.0976  -20.6623 C   0  0  0  0  0  0  0  0  0  0  0  0
  -15.1852  -43.7990  -21.3467 C   0  0  0  0  0  0  0  0  0  0  0  0
  -16.1969  -44.4583  -20.6195 C   0  0  0  0  0  0  0  0  0  0  0  0
  -16.2718  -44.2611  -19.2280 C   0  0  0  0  0  0  0  0  0  0  0  0
  -18.6373  -46.5073  -22.8292 C   0  0  0  0  0  0  0  0  0  0  0  0
  -18.2081  -47.3740  -21.8549 C   0  0  0  0  0  0  0  0  0  0  0  0
  -17.3254  -46.7404  -20.9360 C   0  0  0  0  0  0  0  0  0  0  0  0
  -17.1331  -45.4036  -21.2358 C   0  0  0  0  0  0  0  0  0  0  0  0
  -18.2090  -44.9063  -22.4633 S   0  0  0  0  0  0  0  0  0  0  0  0
  -19.1314  -40.7316  -24.4416 H   0  0  0  0  0  0  0  0  0  0  0  0
  -19.5300  -39.1118  -24.9452 H   0  0  0  0  0  0  0  0  0  0  0  0
  -18.8168  -40.2394  -26.1066 H   0  0  0  0  0  0  0  0  0  0  0  0
  -14.6681  -42.9349  -24.4269 H   0  0  0  0  0  0  0  0  0  0  0  0
  -14.3805  -41.9501  -22.9787 H   0  0  0  0  0  0  0  0  0  0  0  0
  -14.7163  -43.7757  -16.5437 H   0  0  0  0  0  0  0  0  0  0  0  0
  -16.4578  -43.5119  -16.7118 H   0  0  0  0  0  0  0  0  0  0  0  0
  -16.5844  -41.3120  -18.1368 H   0  0  0  0  0  0  0  0  0  0  0  0
  -17.9541  -37.1561  -22.9048 H   0  0  0  0  0  0  0  0  0  0  0  0
  -17.2904  -35.6419  -22.4014 H   0  0  0  0  0  0  0  0  0  0  0  0
  -20.0910  -36.3354  -23.4772 H   0  0  0  0  0  0  0  0  0  0  0  0
  -19.6763  -35.3545  -22.0523 H   0  0  0  0  0  0  0  0  0  0  0  0
  -19.9084  -34.5262  -24.8499 H   0  0  0  0  0  0  0  0  0  0  0  0
  -19.4994  -33.4720  -23.4770 H   0  0  0  0  0  0  0  0  0  0  0  0
  -17.6539  -34.0454  -25.2927 H   0  0  0  0  0  0  0  0  0  0  0  0
  -17.1234  -34.0060  -23.6351 H   0  0  0  0  0  0  0  0  0  0  0  0
  -17.4518  -39.1064  -23.5990 H   0  0  0  0  0  0  0  0  0  0  0  0
  -15.9554  -37.8532  -24.9755 H   0  0  0  0  0  0  0  0  0  0  0  0
  -17.4277  -38.8774  -27.4527 H   0  0  0  0  0  0  0  0  0  0  0  0
  -16.0993  -37.7337  -27.4173 H   0  0  0  0  0  0  0  0  0  0  0  0
  -15.3890  -40.0960  -27.9339 H   0  0  0  0  0  0  0  0  0  0  0  0
  -14.5688  -39.4140  -26.5223 H   0  0  0  0  0  0  0  0  0  0  0  0
  -16.9032  -41.3753  -26.5881 H   0  0  0  0  0  0  0  0  0  0  0  0
  -15.2385  -41.6895  -26.0986 H   0  0  0  0  0  0  0  0  0  0  0  0
  -13.4764  -42.3647  -18.7813 H   0  0  0  0  0  0  0  0  0  0  0  0
  -13.3249  -42.7014  -21.1900 H   0  0  0  0  0  0  0  0  0  0  0  0
  -17.0827  -44.7303  -18.6737 H   0  0  0  0  0  0  0  0  0  0  0  0
  -19.2067  -46.7427  -23.7163 H   0  0  0  0  0  0  0  0  0  0  0  0
  -18.4273  -48.4316  -21.8739 H   0  0  0  0  0  0  0  0  0  0  0  0
  -16.7920  -47.2667  -20.1544 H   0  0  0  0  0  0  0  0  0  0  0  0
  5  4  2  0
  7  4  1  0
  6  4  2  0
  2  1  2  0
 11 12  2  0
  8 12  1  0
 12 10  1  0
  9  7  1  0
 13 14  1  0
 13 17  1  0
 14 15  1  0
 15 16  1  0
 16 17  1  0
 17  2  1  0
 18  3  1  0
 18 23  1  0
 18 19  1  0
 19 20  1  0
 19  2  1  0
 20 21  1  0
 21 22  1  0
 22 23  1  0
 23  4  1  0
 24 29  2  0
 24  8  1  0
 24 25  1  0
 25 26  2  0
 26 27  1  0
 27 28  2  0
 27  9  1  0
 28 33  1  0
 28 29  1  0
 30 31  2  0
 30 34  1  0
 31 32  1  0
 32 33  2  0
 33 34  1  0
  3 35  1  0
  3 36  1  0
  3 37  1  0
  7 38  1  0
  7 39  1  0
  8 40  1  0
  8 41  1  0
 10 42  1  0
 13 43  1  0
 13 44  1  0
 14 45  1  0
 14 46  1  0
 15 47  1  0
 15 48  1  0
 16 49  1  0
 16 50  1  0
 18 51  1  1
 19 52  1  1
 20 53  1  0
 20 54  1  0
 21 55  1  0
 21 56  1  0
 22 57  1  0
 22 58  1  0
 25 59  1  0
 26 60  1  0
 29 61  1  0
 30 62  1  0
 31 63  1  0
 32 64  1  0
M  END
>  <smiles>  (280) 
[H]OC(=O)C([H])([H])c1c([H])c([H])c(OC([H])([H])S(=O)(=O)N2C([H])([H])C([H])([H])C([H])([H])[C@@]([H])(C(=O)N3C([H])([H])C([H])([H])C([H])([H])C3([H])[H])[C@@]2([H])C([H])([H])[H])c(-c2sc([H])c([H])c2[H])c1[H]

>  <error>  (280) 


>  <∆∆G>  (280) 
-58.562803

>  <∆G_bound>  (280) 
118.736029

>  <∆G_unbound>  (280) 
177.298832

>  <comRMSD>  (280) 
1.006651

>  <N_constrained_atoms>  (280) 
34.0

>  <N_unconstrained_atoms>  (280) 
0.0

>  <runtime>  (280) 
11.876275

>  <regarded>  (280) 
['d0866a', '6h80-a']

>  <disregarded>  (280) 
[]

>  <LE>  (280) 
1.722435

>  <outcome>  (280) 
too moved

>  <percent_hybrid>  (280) 
48.0

$$$$
LIG
     RDKit          3D

  0  0  0  0  0  0  0  0  0  0999 V3000
M  V30 BEGIN CTAB
M  V30 COUNTS 80 83 0 0 0
M  V30 BEGIN ATOM
M  V30 1 O -19.218000 -37.455002 -26.510000 0
M  V30 2 C -18.440001 -37.272999 -25.589001 0
M  V30 3 C -18.801001 -40.066002 -25.077000 0
M  V30 4 S -16.291000 -41.674000 -23.726000 0 CFG=2
M  V30 5 N -16.832001 -41.215000 -22.487000 0
M  V30 6 O -16.914000 -42.779999 -24.382999 0
M  V30 7 C -14.601000 -42.066002 -23.476999 0
M  V30 8 C -18.129000 -36.304001 -23.285000 0
M  V30 9 C -19.089001 -35.396999 -22.541000 0
M  V30 10 C -19.528999 -34.411999 -23.573999 0
M  V30 11 C -19.582001 -35.196999 -24.878000 0
M  V30 12 N -18.677000 -36.332001 -24.648001 0
M  V30 13 C -17.472000 -39.426998 -24.688999 0 CFG=2
M  V30 14 C -17.184000 -38.118999 -25.462000 0 CFG=1
M  V30 15 C -16.631001 -38.435001 -26.855000 0
M  V30 16 C -15.402000 -39.325001 -26.764999 0
M  V30 17 C -15.742000 -40.634998 -26.099001 0
M  V30 18 N -16.350000 -40.417999 -24.764000 0
M  V30 19 C -13.690000 -42.074001 -20.951000 0
M  V30 20 N -15.174000 -40.219002 -21.278999 0
M  V30 21 O -16.215000 -43.769001 -14.703000 0
M  V30 22 O -17.056999 -42.785999 -16.427999 0
M  V30 23 C -19.658001 -46.481998 -24.120001 0
M  V30 24 C -20.148001 -46.591999 -25.188000 0
M  V30 25 C -20.650999 -46.667999 -26.565001 0
M  V30 26 O -13.298000 -39.838001 -20.284000 0
M  V30 27 C -14.091000 -40.618999 -20.823999 0
M  V30 28 C -15.292000 -44.382999 -16.797001 0
M  V30 29 C -16.254000 -43.592999 -15.932000 0
M  V30 30 O -22.000000 -46.228001 -26.608000 0
M  V30 31 C -14.653000 -43.035000 -20.296000 0
M  V30 32 C -14.571000 -43.235001 -18.920000 0
M  V30 33 C -15.446000 -44.119999 -18.285999 0
M  V30 34 C -16.372999 -44.848999 -19.045000 0
M  V30 35 C -16.485001 -44.644001 -20.429001 0
M  V30 36 C -15.578000 -43.769001 -21.061001 0
M  V30 37 C -18.764000 -47.269001 -22.021999 0
M  V30 38 C -18.990999 -46.293999 -22.979000 0
M  V30 39 S -18.068001 -44.875999 -22.716999 0
M  V30 40 C -17.452000 -45.486000 -21.207001 0
M  V30 41 C -17.916000 -46.797001 -21.004000 0
M  V30 42 C -16.003000 -40.717003 -21.882999 0
M  V30 43 H -19.358402 -40.334011 -24.167343 0
M  V30 44 H -19.390856 -39.353043 -25.671778 0
M  V30 45 H -18.612473 -40.971924 -25.671778 0
M  V30 46 H -14.390973 -42.114719 -22.398336 0
M  V30 47 H -14.378613 -43.039574 -23.938192 0
M  V30 48 H -13.972732 -41.289742 -23.938192 0
M  V30 49 H -17.236740 -36.817654 -22.897661 0
M  V30 50 H -18.745884 -37.175060 -23.019085 0
M  V30 51 H -19.391558 -35.451595 -21.484838 0
M  V30 52 H -18.252964 -34.736572 -22.267363 0
M  V30 53 H -19.764292 -33.347851 -23.424904 0
M  V30 54 H -18.478930 -34.151901 -23.773256 0
M  V30 55 H -20.163443 -34.967476 -25.783123 0
M  V30 56 H -18.740808 -34.605370 -25.268347 0
M  V30 57 H -17.554789 -39.120125 -23.635920 0
M  V30 58 H -16.433901 -37.548752 -24.894400 0
M  V30 59 H -17.065676 -38.066658 -27.795946 0
M  V30 60 H -15.989086 -37.543270 -26.802460 0
M  V30 61 H -14.402679 -39.051491 -27.134527 0
M  V30 62 H -15.158585 -38.889721 -25.784552 0
M  V30 63 H -15.562118 -41.623852 -26.546005 0
M  V30 64 H -14.742798 -40.660843 -25.639732 0
M  V30 65 H -13.626083 -42.323261 -22.020479 0
M  V30 66 H -12.726419 -42.185387 -20.432245 0
M  V30 67 H -16.830574 -43.267826 -14.111398 0
M  V30 68 H -20.594587 -47.708389 -26.917709 0
M  V30 69 H -20.037603 -46.024002 -27.212315 0
M  V30 70 H -13.533735 -38.881340 -20.187431 0
M  V30 71 H -14.265276 -44.119606 -16.502956 0
M  V30 72 H -15.517102 -45.447525 -16.635399 0
M  V30 73 H -22.340464 -46.116951 -25.685041 0
M  V30 74 H -13.815212 -42.694588 -18.331154 0
M  V30 75 H -17.019114 -45.589241 -18.550451 0
M  V30 76 H -15.593563 -43.659832 -22.155460 0
M  V30 77 H -19.191746 -48.281925 -22.053932 0
M  V30 78 H -17.640356 -47.400517 -20.126623 0
M  V30 79 H -14.723001 -39.437000 -20.602999 0
M  V30 80 H -14.713000 -39.427002 -20.592999 0
M  V30 END ATOM
M  V30 BEGIN BOND
M  V30 1 2 5 4
M  V30 2 1 4 7 CFG=1
M  V30 3 2 6 4
M  V30 4 2 2 1
M  V30 5 1 8 9
M  V30 6 1 8 12
M  V30 7 1 9 10
M  V30 8 1 10 11
M  V30 9 1 11 12
M  V30 10 1 12 2
M  V30 11 1 13 3
M  V30 12 1 13 18
M  V30 13 1 13 14
M  V30 14 1 14 15
M  V30 15 1 14 2
M  V30 16 1 15 16
M  V30 17 1 16 17
M  V30 18 1 17 18
M  V30 19 1 18 4
M  V30 20 1 30 25
M  V30 21 1 25 24
M  V30 22 3 24 23
M  V30 23 1 28 29
M  V30 24 2 22 29
M  V30 25 1 29 21
M  V30 26 1 19 27
M  V30 27 2 20 27
M  V30 28 1 27 26
M  V30 29 1 31 36
M  V30 30 2 31 32
M  V30 31 1 31 19
M  V30 32 1 32 33
M  V30 33 2 33 34
M  V30 34 1 33 28
M  V30 35 1 34 35
M  V30 36 1 35 40
M  V30 37 2 35 36
M  V30 38 2 37 38
M  V30 39 1 37 41
M  V30 40 1 38 23
M  V30 41 1 38 39
M  V30 42 1 39 40
M  V30 43 2 40 41
M  V30 44 1 42 5
M  V30 45 1 42 20
M  V30 46 1 3 43
M  V30 47 1 3 44
M  V30 48 1 3 45
M  V30 49 1 7 46
M  V30 50 1 7 47
M  V30 51 1 7 48
M  V30 52 1 8 49
M  V30 53 1 8 50
M  V30 54 1 9 51
M  V30 55 1 9 52
M  V30 56 1 10 53
M  V30 57 1 10 54
M  V30 58 1 11 55
M  V30 59 1 11 56
M  V30 60 1 13 57 CFG=1
M  V30 61 1 14 58 CFG=1
M  V30 62 1 15 59
M  V30 63 1 15 60
M  V30 64 1 16 61
M  V30 65 1 16 62
M  V30 66 1 17 63
M  V30 67 1 17 64
M  V30 68 1 19 65
M  V30 69 1 19 66
M  V30 70 1 21 67
M  V30 71 1 25 68
M  V30 72 1 25 69
M  V30 73 1 26 70
M  V30 74 1 28 71
M  V30 75 1 28 72
M  V30 76 1 30 73
M  V30 77 1 32 74
M  V30 78 1 34 75
M  V30 79 1 36 76
M  V30 80 1 37 77
M  V30 81 1 41 78
M  V30 82 1 42 79
M  V30 83 1 42 80
M  V30 END BOND
M  V30 BEGIN COLLECTION
M  V30 MDLV30/STEABS ATOMS=(0)
M  V30 END COLLECTION
M  V30 END CTAB
M  END
>  <smiles>  (281) 
[H]OC(=O)C([H])([H])c1c([H])c(-c2sc(C#CC([H])([H])O[H])c([H])c2[H])c([H])c(C([H])([H])/C(=N\C([H])([H])N=[S@@](=O)(N2C([H])([H])C([H])([H])C([H])([H])[C@@]([H])(C(=O)N3C([H])([H])C([H])([H])C([H])([H])C3([H])[H])[C@@]2([H])C([H])([H])[H])C([H])([H])[H])O[H])c1[H]

>  <error>  (281) 


>  <∆∆G>  (281) 
nan

>  <∆G_bound>  (281) 
nan

>  <∆G_unbound>  (281) 
nan

>  <comRMSD>  (281) 
0.0

>  <N_constrained_atoms>  (281) 
41.0

>  <N_unconstrained_atoms>  (281) 
1.0

>  <runtime>  (281) 
2.716625

>  <regarded>  (281) 
['d0866a', '5hmy-a']

>  <disregarded>  (281) 
[]

>  <LE>  (281) 
nan

>  <outcome>  (281) 
crashed

>  <percent_hybrid>  (281) 
44.0

$$$$
LIG
     RDKit          3D

 50 54  0  0  0  0  0  0  0  0999 V2000
  -19.2180  -37.4550  -26.5100 N   0  0  0  0  0  0  0  0  0  0  0  0
  -18.4400  -37.2730  -25.5890 C   0  0  0  0  0  0  0  0  0  0  0  0
  -18.8010  -40.0660  -25.0770 C   0  0  0  0  0  0  0  0  0  0  0  0
  -17.1520  -39.4290  -27.1950 C   0  0  0  0  0  0  0  0  0  0  0  0
  -17.3790  -40.2730  -28.0120 O   0  0  0  0  0  0  0  0  0  0  0  0
  -16.0720  -44.6540  -21.6670 O   0  0  0  0  0  0  0  0  0  0  0  0
  -18.1290  -36.3040  -23.2850 C   0  0  0  0  0  0  0  0  0  0  0  0
  -19.0890  -35.3970  -22.5410 C   0  0  0  0  0  0  0  0  0  0  0  0
  -19.5290  -34.4120  -23.5740 C   0  0  0  0  0  0  0  0  0  0  0  0
  -19.5820  -35.1970  -24.8780 C   0  0  0  0  0  0  0  0  0  0  0  0
  -18.6770  -36.3320  -24.6480 N   0  0  0  0  0  0  0  0  0  0  0  0
  -17.4720  -39.4270  -24.6890 C   0  0  2  0  0  0  0  0  0  0  0  0
  -17.1840  -38.1190  -25.4620 C   0  0  0  0  0  0  0  0  0  0  0  0
  -16.6310  -38.4350  -26.8550 C   0  0  1  0  0  0  0  0  0  0  0  0
  -15.4020  -39.3250  -26.7650 C   0  0  1  0  0  0  0  0  0  0  0  0
  -15.7420  -40.6350  -26.0990 C   0  0  2  0  0  0  0  0  0  0  0  0
  -16.3500  -40.4180  -24.7640 C   0  0  1  0  0  0  0  0  0  0  0  0
  -15.7510  -43.8290  -22.4670 C   0  0  0  0  0  0  0  0  0  0  0  0
  -14.5710  -42.9320  -22.3710 O   0  0  0  0  0  0  0  0  0  0  0  0
  -14.7050  -41.7520  -23.5260 C   0  0  0  0  0  0  0  0  0  0  0  0
  -15.8490  -42.0870  -24.3960 C   0  0  0  0  0  0  0  0  0  0  0  0
  -16.5130  -43.4770  -23.8710 S   0  0  0  0  0  0  0  0  0  0  0  0
  -13.9800  -40.5950  -23.7550 C   0  0  0  0  0  0  0  0  0  0  0  0
  -14.3320  -39.7530  -24.8350 C   0  0  0  0  0  0  0  0  0  0  0  0
  -16.8320  -41.2150  -22.4870 O   0  0  0  0  0  0  0  0  0  0  0  0
  -16.5910  -40.8165  -23.6255 C   0  0  0  0  0  0  0  0  0  0  0  0
  -19.3584  -40.3340  -24.1673 H   0  0  0  0  0  0  0  0  0  0  0  0
  -19.3909  -39.3530  -25.6718 H   0  0  0  0  0  0  0  0  0  0  0  0
  -18.6125  -40.9719  -25.6718 H   0  0  0  0  0  0  0  0  0  0  0  0
  -17.2367  -36.8177  -22.8977 H   0  0  0  0  0  0  0  0  0  0  0  0
  -18.7459  -37.1751  -23.0191 H   0  0  0  0  0  0  0  0  0  0  0  0
  -19.3916  -35.4516  -21.4848 H   0  0  0  0  0  0  0  0  0  0  0  0
  -18.2530  -34.7366  -22.2674 H   0  0  0  0  0  0  0  0  0  0  0  0
  -19.7643  -33.3479  -23.4249 H   0  0  0  0  0  0  0  0  0  0  0  0
  -18.4789  -34.1519  -23.7733 H   0  0  0  0  0  0  0  0  0  0  0  0
  -20.1634  -34.9675  -25.7831 H   0  0  0  0  0  0  0  0  0  0  0  0
  -18.7408  -34.6054  -25.2683 H   0  0  0  0  0  0  0  0  0  0  0  0
  -17.5548  -39.1201  -23.6359 H   0  0  0  0  0  0  0  0  0  0  0  0
  -17.3523  -37.1060  -25.0677 H   0  0  0  0  0  0  0  0  0  0  0  0
  -16.1607  -38.1060  -25.0587 H   0  0  0  0  0  0  0  0  0  0  0  0
  -15.9891  -37.5433  -26.8025 H   0  0  0  0  0  0  0  0  0  0  0  0
  -14.3203  -39.1411  -26.8428 H   0  0  0  0  0  0  0  0  0  0  0  0
  -16.0329  -41.4876  -26.7302 H   0  0  0  0  0  0  0  0  0  0  0  0
  -13.1355  -40.3324  -23.1009 H   0  0  0  0  0  0  0  0  0  0  0  0
  -13.2972  -41.1530  -24.4126 H   0  0  0  0  0  0  0  0  0  0  0  0
  -13.9116  -38.7487  -24.9916 H   0  0  0  0  0  0  0  0  0  0  0  0
  -13.5204  -40.1867  -25.4377 H   0  0  0  0  0  0  0  0  0  0  0  0
  -16.5183  -40.6963  -21.7042 H   0  0  0  0  0  0  0  0  0  0  0  0
  -15.5610  -39.7865  -22.5955 H   0  0  0  0  0  0  0  0  0  0  0  0
  -15.5510  -39.7765  -22.5855 H   0  0  0  0  0  0  0  0  0  0  0  0
  2  1  2  0
  4  5  2  0
  4  1  1  0
  7  8  1  0
  7 11  1  0
  8  9  1  0
  9 10  1  0
 10 11  1  0
 11  2  1  0
 12  3  1  0
 12 17  1  0
 12 13  1  0
 13 14  1  0
 14 15  1  0
 15 16  1  0
 16 17  1  0
 18 19  1  0
 18  6  2  0
 18 22  1  0
 19 20  1  0
 20 23  1  0
 20 21  2  0
 21 22  1  0
 23 24  1  0
 16 24  1  0
 21 17  1  0
 15  4  1  0
 17 26  1  1
 26 25  1  0
  2 14  1  0
  3 27  1  0
  3 28  1  0
  3 29  1  0
  7 30  1  0
  7 31  1  0
  8 32  1  0
  8 33  1  0
  9 34  1  0
  9 35  1  0
 10 36  1  0
 10 37  1  0
 12 38  1  1
 13 39  1  0
 13 40  1  0
 14 41  1  1
 15 42  1  6
 16 43  1  6
 23 44  1  0
 23 45  1  0
 24 46  1  0
 24 47  1  0
 25 48  1  0
 26 49  1  0
 26 50  1  0
M  END
>  <smiles>  (282) 
[H]OC([H])([H])[C@]12c3sc(=O)oc3C([H])([H])C([H])([H])[C@]1([H])[C@@]1([H])C(=O)N=C(N3C([H])([H])C([H])([H])C([H])([H])C3([H])[H])[C@@]1([H])C([H])([H])[C@@]2([H])C([H])([H])[H]

>  <error>  (282) 


>  <∆∆G>  (282) 
nan

>  <∆G_bound>  (282) 
nan

>  <∆G_unbound>  (282) 
nan

>  <comRMSD>  (282) 
0.0

>  <N_constrained_atoms>  (282) 
25.0

>  <N_unconstrained_atoms>  (282) 
1.0

>  <runtime>  (282) 
1.35218

>  <regarded>  (282) 
['d0866a', '6izx-a']

>  <disregarded>  (282) 
[]

>  <LE>  (282) 
nan

>  <outcome>  (282) 
crashed

>  <percent_hybrid>  (282) 
40.0

$$$$
LIG
     RDKit          3D

 89 94  0  0  0  0  0  0  0  0999 V2000
  -19.1985  -37.4607  -26.9272 O   0  0  0  0  0  0  0  0  0  0  0  0
  -18.4663  -37.3168  -26.0129 C   0  0  0  0  0  0  0  0  0  0  0  0
  -18.9367  -40.1662  -25.3038 C   0  0  0  0  0  0  0  0  0  0  0  0
  -16.7013  -41.8462  -23.8521 S   0  0  0  0  0  0  0  0  0  0  0  0
  -17.2154  -41.3228  -22.6014 O   0  0  0  0  0  0  0  0  0  0  0  0
  -17.4701  -42.7563  -24.6785 O   0  0  0  0  0  0  0  0  0  0  0  0
  -15.0661  -42.5955  -23.5460 C   0  0  0  0  0  0  0  0  0  0  0  0
  -21.9036  -45.8631  -26.7818 O   0  0  0  0  0  0  0  0  0  0  0  0
  -16.8031  -42.3816  -16.9968 O   0  0  0  0  0  0  0  0  0  0  0  0
  -15.8358  -43.6111  -14.2382 O   0  0  0  0  0  0  0  0  0  0  0  0
  -19.4101  -46.3365  -24.4586 C   0  0  0  0  0  0  0  0  0  0  0  0
  -20.0223  -46.4960  -25.4830 C   0  0  0  0  0  0  0  0  0  0  0  0
  -20.7698  -46.7181  -26.7240 C   0  0  0  0  0  0  0  0  0  0  0  0
  -15.8278  -42.9378  -17.3149 C   0  0  0  0  0  0  0  0  0  0  0  0
  -13.6446  -44.7704  -14.5649 O   0  0  0  0  0  0  0  0  0  0  0  0
  -14.5258  -43.6523  -14.8272 S   0  0  0  0  0  0  0  0  0  0  0  0
  -14.6777  -43.5288  -16.4506 N   0  0  0  0  0  0  0  0  0  0  0  0
  -13.3479  -41.9309  -18.7040 C   0  0  0  0  0  0  0  0  0  0  0  0
  -15.1128  -43.8602  -22.8236 O   0  0  0  0  0  0  0  0  0  0  0  0
  -19.2610  -36.5475  -23.7660 C   0  0  0  0  0  0  0  0  0  0  0  0
  -19.1137  -35.5249  -22.6592 C   0  0  0  0  0  0  0  0  0  0  0  0
  -19.0428  -34.2952  -23.4888 C   0  0  0  0  0  0  0  0  0  0  0  0
  -19.1820  -34.9361  -24.8467 C   0  0  0  0  0  0  0  0  0  0  0  0
  -18.4030  -36.2146  -24.9680 N   0  0  0  0  0  0  0  0  0  0  0  0
  -17.6144  -39.5003  -24.8963 C   0  0  2  0  0  0  0  0  0  0  0  0
  -17.2674  -38.2722  -25.7694 C   0  0  1  0  0  0  0  0  0  0  0  0
  -16.7277  -38.6947  -27.1421 C   0  0  0  0  0  0  0  0  0  0  0  0
  -15.5967  -39.6977  -27.0225 C   0  0  0  0  0  0  0  0  0  0  0  0
  -16.0008  -40.8984  -26.2160 C   0  0  0  0  0  0  0  0  0  0  0  0
  -16.4370  -40.4874  -24.8594 N   0  0  0  0  0  0  0  0  0  0  0  0
  -15.2591  -43.6986  -21.4683 C   0  0  0  0  0  0  0  0  0  0  0  0
  -14.2717  -43.0002  -20.7606 C   0  0  0  0  0  0  0  0  0  0  0  0
  -14.4182  -42.7261  -19.3971 C   0  0  0  0  0  0  0  0  0  0  0  0
  -15.5598  -43.2200  -18.7457 C   0  0  0  0  0  0  0  0  0  0  0  0
  -16.5029  -44.0097  -19.4265 C   0  0  0  0  0  0  0  0  0  0  0  0
  -16.3487  -44.2839  -20.7905 C   0  0  0  0  0  0  0  0  0  0  0  0
  -18.7440  -46.1250  -23.2060 C   0  0  0  0  0  0  0  0  0  0  0  0
  -18.3700  -47.0832  -22.2871 C   0  0  0  0  0  0  0  0  0  0  0  0
  -17.5039  -46.5440  -21.2779 C   0  0  0  0  0  0  0  0  0  0  0  0
  -17.2956  -45.1879  -21.4522 C   0  0  0  0  0  0  0  0  0  0  0  0
  -18.4179  -44.5795  -22.5819 S   0  0  0  0  0  0  0  0  0  0  0  0
  -14.5797  -41.2040  -13.6805 C   0  0  0  0  0  0  0  0  0  0  0  0
  -14.0398  -39.9940  -13.2884 C   0  0  0  0  0  0  0  0  0  0  0  0
  -12.7126  -39.7259  -13.5912 C   0  0  0  0  0  0  0  0  0  0  0  0
  -11.9246  -40.6688  -14.2783 C   0  0  0  0  0  0  0  0  0  0  0  0
  -12.4537  -41.9117  -14.6880 C   0  0  0  0  0  0  0  0  0  0  0  0
  -13.7839  -42.1375  -14.3729 C   0  0  0  0  0  0  0  0  0  0  0  0
  -10.5832  -40.3938  -14.5599 C   0  0  0  0  0  0  0  0  0  0  0  0
   -9.7949  -41.3474  -15.1862 C   0  0  0  0  0  0  0  0  0  0  0  0
  -10.3853  -42.5418  -15.5342 C   0  0  0  0  0  0  0  0  0  0  0  0
  -11.6921  -42.8157  -15.3492 N   0  0  0  0  0  0  0  0  0  0  0  0
  -19.2292  -40.9553  -24.6059 H   0  0  0  0  0  0  0  0  0  0  0  0
  -19.7643  -39.4505  -25.2904 H   0  0  0  0  0  0  0  0  0  0  0  0
  -18.8878  -40.6048  -26.3047 H   0  0  0  0  0  0  0  0  0  0  0  0
  -14.6360  -42.8358  -24.5199 H   0  0  0  0  0  0  0  0  0  0  0  0
  -14.4381  -41.8425  -23.0618 H   0  0  0  0  0  0  0  0  0  0  0  0
  -22.6741  -46.3822  -26.4759 H   0  0  0  0  0  0  0  0  0  0  0  0
  -21.0939  -47.7567  -26.8319 H   0  0  0  0  0  0  0  0  0  0  0  0
  -20.1390  -46.4725  -27.5760 H   0  0  0  0  0  0  0  0  0  0  0  0
  -14.0237  -44.0170  -17.0463 H   0  0  0  0  0  0  0  0  0  0  0  0
  -13.7694  -41.2737  -17.9372 H   0  0  0  0  0  0  0  0  0  0  0  0
  -12.6128  -42.6019  -18.2499 H   0  0  0  0  0  0  0  0  0  0  0  0
  -12.8228  -41.2818  -19.4137 H   0  0  0  0  0  0  0  0  0  0  0  0
  -18.9081  -37.5062  -23.3756 H   0  0  0  0  0  0  0  0  0  0  0  0
  -20.3063  -36.7605  -24.0533 H   0  0  0  0  0  0  0  0  0  0  0  0
  -19.9585  -35.5413  -21.9653 H   0  0  0  0  0  0  0  0  0  0  0  0
  -18.1884  -35.6727  -22.0921 H   0  0  0  0  0  0  0  0  0  0  0  0
  -19.8402  -33.5759  -23.2830 H   0  0  0  0  0  0  0  0  0  0  0  0
  -18.0760  -33.7940  -23.3725 H   0  0  0  0  0  0  0  0  0  0  0  0
  -20.2219  -35.0527  -25.1988 H   0  0  0  0  0  0  0  0  0  0  0  0
  -18.7388  -34.2680  -25.5978 H   0  0  0  0  0  0  0  0  0  0  0  0
  -17.7254  -39.1411  -23.8679 H   0  0  0  0  0  0  0  0  0  0  0  0
  -16.4693  -37.7079  -25.2674 H   0  0  0  0  0  0  0  0  0  0  0  0
  -17.5263  -39.1357  -27.7522 H   0  0  0  0  0  0  0  0  0  0  0  0
  -16.3771  -37.8088  -27.6844 H   0  0  0  0  0  0  0  0  0  0  0  0
  -15.3309  -40.0701  -28.0141 H   0  0  0  0  0  0  0  0  0  0  0  0
  -14.7135  -39.2224  -26.5825 H   0  0  0  0  0  0  0  0  0  0  0  0
  -16.7925  -41.4466  -26.7375 H   0  0  0  0  0  0  0  0  0  0  0  0
  -15.1348  -41.5566  -26.1421 H   0  0  0  0  0  0  0  0  0  0  0  0
  -13.3737  -42.6682  -21.2799 H   0  0  0  0  0  0  0  0  0  0  0  0
  -17.3698  -44.3942  -18.8908 H   0  0  0  0  0  0  0  0  0  0  0  0
  -18.5992  -48.1364  -22.3879 H   0  0  0  0  0  0  0  0  0  0  0  0
  -16.9931  -47.1489  -20.5389 H   0  0  0  0  0  0  0  0  0  0  0  0
  -15.6238  -41.4143  -13.4501 H   0  0  0  0  0  0  0  0  0  0  0  0
  -14.6457  -39.2674  -12.7534 H   0  0  0  0  0  0  0  0  0  0  0  0
  -12.2862  -38.7744  -13.2786 H   0  0  0  0  0  0  0  0  0  0  0  0
  -10.1340  -39.4492  -14.2614 H   0  0  0  0  0  0  0  0  0  0  0  0
   -8.7408  -41.1721  -15.3698 H   0  0  0  0  0  0  0  0  0  0  0  0
   -9.8002  -43.3495  -15.9614 H   0  0  0  0  0  0  0  0  0  0  0  0
  5  4  2  0
  7  4  1  0
  6  4  2  0
  2  1  2  0
  8 13  1  0
 13 12  1  0
 12 11  3  0
  9 14  2  0
 14 17  1  0
 10 16  2  0
 17 16  1  0
 16 15  2  0
 19  7  1  0
 20 21  1  0
 20 24  1  0
 21 22  1  0
 22 23  1  0
 23 24  1  0
 24  2  1  0
 25  3  1  0
 25 30  1  0
 25 26  1  0
 26 27  1  0
 26  2  1  0
 27 28  1  0
 28 29  1  0
 29 30  1  0
 30  4  1  0
 31 36  1  0
 31 19  1  0
 31 32  2  0
 32 33  1  0
 33 34  2  0
 33 18  1  0
 34 35  1  0
 34 14  1  0
 35 36  2  0
 36 40  1  0
 37 11  1  0
 37 38  2  0
 37 41  1  0
 38 39  1  0
 39 40  2  0
 40 41  1  0
 42 47  2  0
 42 43  1  0
 43 44  2  0
 44 45  1  0
 45 46  2  0
 45 48  1  0
 46 47  1  0
 46 51  1  0
 47 16  1  0
 48 49  2  0
 49 50  1  0
 50 51  2  0
  3 52  1  0
  3 53  1  0
  3 54  1  0
  7 55  1  0
  7 56  1  0
  8 57  1  0
 13 58  1  0
 13 59  1  0
 17 60  1  0
 18 61  1  0
 18 62  1  0
 18 63  1  0
 20 64  1  0
 20 65  1  0
 21 66  1  0
 21 67  1  0
 22 68  1  0
 22 69  1  0
 23 70  1  0
 23 71  1  0
 25 72  1  1
 26 73  1  1
 27 74  1  0
 27 75  1  0
 28 76  1  0
 28 77  1  0
 29 78  1  0
 29 79  1  0
 32 80  1  0
 35 81  1  0
 38 82  1  0
 39 83  1  0
 42 84  1  0
 43 85  1  0
 44 86  1  0
 48 87  1  0
 49 88  1  0
 50 89  1  0
M  END
>  <smiles>  (283) 
[H]OC([H])([H])C#Cc1sc(-c2c([H])c(C(=O)N([H])S(=O)(=O)c3c([H])c([H])c([H])c4c([H])c([H])c([H])nc34)c(C([H])([H])[H])c([H])c2OC([H])([H])S(=O)(=O)N2C([H])([H])C([H])([H])C([H])([H])[C@@]([H])(C(=O)N3C([H])([H])C([H])([H])C([H])([H])C3([H])[H])[C@@]2([H])C([H])([H])[H])c([H])c1[H]

>  <error>  (283) 


>  <∆∆G>  (283) 
-113.110889

>  <∆G_bound>  (283) 
140.661262

>  <∆G_unbound>  (283) 
253.772152

>  <comRMSD>  (283) 
0.634266

>  <N_constrained_atoms>  (283) 
51.0

>  <N_unconstrained_atoms>  (283) 
0.0

>  <runtime>  (283) 
136.603558

>  <regarded>  (283) 
['d0866a', '5i3q-a']

>  <disregarded>  (283) 
[]

>  <LE>  (283) 
2.217861

>  <outcome>  (283) 
acceptable

>  <percent_hybrid>  (283) 
36.0

$$$$
LIG
     RDKit          3D

  0  0  0  0  0  0  0  0  0  0999 V3000
M  V30 BEGIN CTAB
M  V30 COUNTS 74 77 0 0 0
M  V30 BEGIN ATOM
M  V30 1 O -19.218000 -37.455002 -26.510000 0
M  V30 2 C -18.440001 -37.272999 -25.589001 0
M  V30 3 C -18.801001 -40.066002 -25.077000 0
M  V30 4 S -16.291000 -41.674000 -23.726000 0 CFG=2
M  V30 5 N -16.832001 -41.215000 -22.487000 0
M  V30 6 O -16.914000 -42.779999 -24.382999 0
M  V30 7 C -14.601000 -42.066002 -23.476999 0
M  V30 8 C -18.129000 -36.304001 -23.285000 0
M  V30 9 C -19.089001 -35.396999 -22.541000 0
M  V30 10 C -19.528999 -34.411999 -23.573999 0
M  V30 11 C -19.582001 -35.196999 -24.878000 0
M  V30 12 N -18.677000 -36.332001 -24.648001 0
M  V30 13 C -17.472000 -39.426998 -24.688999 0 CFG=2
M  V30 14 C -17.184000 -38.118999 -25.462000 0 CFG=1
M  V30 15 C -16.631001 -38.435001 -26.855000 0
M  V30 16 C -15.402000 -39.325001 -26.764999 0
M  V30 17 C -15.742000 -40.634998 -26.099001 0
M  V30 18 N -16.350000 -40.417999 -24.764000 0
M  V30 19 C -13.722000 -42.228001 -21.142000 0
M  V30 20 O -12.997000 -40.158001 -20.322001 0
M  V30 21 O -16.903999 -43.681999 -15.132000 0
M  V30 22 O -16.912001 -42.365002 -16.922001 0
M  V30 23 C -14.011000 -40.783001 -20.846001 0
M  V30 24 N -15.075000 -40.254002 -21.090000 0
M  V30 25 C -15.465000 -44.282001 -16.898001 0
M  V30 26 C -16.490999 -43.341000 -16.322001 0
M  V30 27 C -14.649000 -43.195000 -20.447001 0
M  V30 28 C -14.590000 -43.360001 -19.069000 0
M  V30 29 C -15.458000 -44.219002 -18.408001 0
M  V30 30 C -16.391001 -44.943001 -19.150999 0
M  V30 31 C -16.458000 -44.799999 -20.537001 0
M  V30 32 C -15.580000 -43.930000 -21.177000 0
M  V30 33 C -18.871000 -47.212002 -22.100000 0
M  V30 34 C -19.099001 -46.270000 -23.020000 0
M  V30 35 S -18.201000 -44.870998 -22.716999 0
M  V30 36 C -17.466000 -45.544998 -21.313999 0
M  V30 37 C -17.933001 -46.814999 -21.103001 0
M  V30 38 C -15.953501 -40.734501 -21.788500 0
M  V30 39 H -19.358402 -40.334011 -24.167343 0
M  V30 40 H -19.390856 -39.353043 -25.671778 0
M  V30 41 H -18.612473 -40.971924 -25.671778 0
M  V30 42 H -14.390973 -42.114719 -22.398336 0
M  V30 43 H -14.378613 -43.039574 -23.938192 0
M  V30 44 H -13.972732 -41.289742 -23.938192 0
M  V30 45 H -17.236740 -36.817654 -22.897661 0
M  V30 46 H -18.745884 -37.175060 -23.019085 0
M  V30 47 H -19.391558 -35.451595 -21.484838 0
M  V30 48 H -18.252964 -34.736572 -22.267363 0
M  V30 49 H -19.764292 -33.347851 -23.424904 0
M  V30 50 H -18.478930 -34.151901 -23.773256 0
M  V30 51 H -20.163443 -34.967476 -25.783123 0
M  V30 52 H -18.740808 -34.605370 -25.268347 0
M  V30 53 H -17.554789 -39.120125 -23.635920 0
M  V30 54 H -16.433901 -37.548752 -24.894400 0
M  V30 55 H -17.065676 -38.066658 -27.795946 0
M  V30 56 H -15.989086 -37.543270 -26.802460 0
M  V30 57 H -14.402679 -39.051491 -27.134527 0
M  V30 58 H -15.158585 -38.889721 -25.784552 0
M  V30 59 H -15.562118 -41.623852 -26.546005 0
M  V30 60 H -14.742798 -40.660843 -25.639732 0
M  V30 61 H -13.811043 -42.383121 -22.227362 0
M  V30 62 H -12.708751 -42.433037 -20.766121 0
M  V30 63 H -13.074407 -39.199669 -20.085970 0
M  V30 64 H -17.586927 -41.777065 -16.499029 0
M  V30 65 H -14.469747 -44.002682 -16.521902 0
M  V30 66 H -15.719528 -45.307369 -16.591677 0
M  V30 67 H -13.841208 -42.799358 -18.490217 0
M  V30 68 H -17.079281 -45.632111 -18.639727 0
M  V30 69 H -15.621852 -43.821796 -22.270864 0
M  V30 70 H -19.359509 -48.197517 -22.111071 0
M  V30 71 H -19.786695 -46.390476 -23.870037 0
M  V30 72 H -17.621021 -47.453316 -20.263227 0
M  V30 73 H -14.733500 -39.514500 -20.568501 0
M  V30 74 H -14.723500 -39.504501 -20.558500 0
M  V30 END ATOM
M  V30 BEGIN BOND
M  V30 1 2 5 4
M  V30 2 1 4 7 CFG=1
M  V30 3 2 6 4
M  V30 4 2 2 1
M  V30 5 1 8 9
M  V30 6 1 8 12
M  V30 7 1 9 10
M  V30 8 1 10 11
M  V30 9 1 11 12
M  V30 10 1 12 2
M  V30 11 1 13 3
M  V30 12 1 13 18
M  V30 13 1 13 14
M  V30 14 1 14 15
M  V30 15 1 14 2
M  V30 16 1 15 16
M  V30 17 1 16 17
M  V30 18 1 17 18
M  V30 19 1 18 4
M  V30 20 1 25 26
M  V30 21 2 26 21
M  V30 22 1 26 22
M  V30 23 1 19 23
M  V30 24 2 24 23
M  V30 25 1 23 20
M  V30 26 1 27 32
M  V30 27 2 27 28
M  V30 28 1 27 19
M  V30 29 1 28 29
M  V30 30 2 29 30
M  V30 31 1 29 25
M  V30 32 1 30 31
M  V30 33 1 31 36
M  V30 34 2 31 32
M  V30 35 2 33 34
M  V30 36 1 33 37
M  V30 37 1 34 35
M  V30 38 1 35 36
M  V30 39 2 36 37
M  V30 40 1 38 5
M  V30 41 1 38 24
M  V30 42 1 3 39
M  V30 43 1 3 40
M  V30 44 1 3 41
M  V30 45 1 7 42
M  V30 46 1 7 43
M  V30 47 1 7 44
M  V30 48 1 8 45
M  V30 49 1 8 46
M  V30 50 1 9 47
M  V30 51 1 9 48
M  V30 52 1 10 49
M  V30 53 1 10 50
M  V30 54 1 11 51
M  V30 55 1 11 52
M  V30 56 1 13 53 CFG=1
M  V30 57 1 14 54 CFG=1
M  V30 58 1 15 55
M  V30 59 1 15 56
M  V30 60 1 16 57
M  V30 61 1 16 58
M  V30 62 1 17 59
M  V30 63 1 17 60
M  V30 64 1 19 61
M  V30 65 1 19 62
M  V30 66 1 20 63
M  V30 67 1 22 64
M  V30 68 1 25 65
M  V30 69 1 25 66
M  V30 70 1 28 67
M  V30 71 1 30 68
M  V30 72 1 32 69
M  V30 73 1 33 70
M  V30 74 1 34 71
M  V30 75 1 37 72
M  V30 76 1 38 73
M  V30 77 1 38 74
M  V30 END BOND
M  V30 BEGIN COLLECTION
M  V30 MDLV30/STEABS ATOMS=(0)
M  V30 END COLLECTION
M  V30 END CTAB
M  END
>  <smiles>  (284) 
[H]OC(=O)C([H])([H])c1c([H])c(-c2sc([H])c([H])c2[H])c([H])c(C([H])([H])/C(=N\C([H])([H])N=[S@@](=O)(N2C([H])([H])C([H])([H])C([H])([H])[C@@]([H])(C(=O)N3C([H])([H])C([H])([H])C([H])([H])C3([H])[H])[C@@]2([H])C([H])([H])[H])C([H])([H])[H])O[H])c1[H]

>  <error>  (284) 


>  <∆∆G>  (284) 
nan

>  <∆G_bound>  (284) 
nan

>  <∆G_unbound>  (284) 
nan

>  <comRMSD>  (284) 
0.0

>  <N_constrained_atoms>  (284) 
37.0

>  <N_unconstrained_atoms>  (284) 
1.0

>  <runtime>  (284) 
2.276437

>  <regarded>  (284) 
['d0866a', '5hmx-b']

>  <disregarded>  (284) 
[]

>  <LE>  (284) 
nan

>  <outcome>  (284) 
crashed

>  <percent_hybrid>  (284) 
49.0

$$$$

     RDKit          2D

  0  0  0  0  0  0  0  0  0  0999 V2000
M  END
>  <smiles>  (285) 
nan

>  <error>  (285) 
TimeoutError

>  <∆∆G>  (285) 
nan

>  <∆G_bound>  (285) 
nan

>  <∆G_unbound>  (285) 
nan

>  <comRMSD>  (285) 
nan

>  <N_constrained_atoms>  (285) 
nan

>  <N_unconstrained_atoms>  (285) 
nan

>  <runtime>  (285) 
nan

>  <regarded>  (285) 
[]

>  <disregarded>  (285) 
[]

>  <LE>  (285) 
nan

>  <outcome>  (285) 
timeout

>  <percent_hybrid>  (285) 
nan

$$$$

     RDKit          2D

  0  0  0  0  0  0  0  0  0  0999 V2000
M  END
>  <smiles>  (286) 
nan

>  <error>  (286) 
TimeoutError

>  <∆∆G>  (286) 
nan

>  <∆G_bound>  (286) 
nan

>  <∆G_unbound>  (286) 
nan

>  <comRMSD>  (286) 
nan

>  <N_constrained_atoms>  (286) 
nan

>  <N_unconstrained_atoms>  (286) 
nan

>  <runtime>  (286) 
nan

>  <regarded>  (286) 
[]

>  <disregarded>  (286) 
[]

>  <LE>  (286) 
nan

>  <outcome>  (286) 
timeout

>  <percent_hybrid>  (286) 
nan

$$$$
LIG
     RDKit          3D

  0  0  0  0  0  0  0  0  0  0999 V3000
M  V30 BEGIN CTAB
M  V30 COUNTS 77 80 0 0 0
M  V30 BEGIN ATOM
M  V30 1 O -19.218000 -37.455002 -26.510000 0
M  V30 2 C -18.440001 -37.272999 -25.589001 0
M  V30 3 C -18.801001 -40.066002 -25.077000 0
M  V30 4 S -16.291000 -41.674000 -23.726000 0 CFG=2
M  V30 5 N -16.832001 -41.215000 -22.487000 0
M  V30 6 O -16.914000 -42.779999 -24.382999 0
M  V30 7 C -14.601000 -42.066002 -23.476999 0
M  V30 8 C -18.129000 -36.304001 -23.285000 0
M  V30 9 C -19.089001 -35.396999 -22.541000 0
M  V30 10 C -19.528999 -34.411999 -23.573999 0
M  V30 11 C -19.582001 -35.196999 -24.878000 0
M  V30 12 N -18.677000 -36.332001 -24.648001 0
M  V30 13 C -17.472000 -39.426998 -24.688999 0 CFG=2
M  V30 14 C -17.184000 -38.118999 -25.462000 0 CFG=1
M  V30 15 C -16.631001 -38.435001 -26.855000 0
M  V30 16 C -15.402000 -39.325001 -26.764999 0
M  V30 17 C -15.742000 -40.634998 -26.099001 0
M  V30 18 N -16.350000 -40.417999 -24.764000 0
M  V30 19 C -15.477000 -44.540001 -16.980000 0
M  V30 20 O -17.010000 -42.716000 -16.606001 0
M  V30 21 N -15.054000 -40.509998 -21.433001 0
M  V30 22 O -13.165000 -40.166000 -20.434000 0
M  V30 23 C -13.969000 -40.924999 -20.995001 0
M  V30 24 C -13.607000 -42.386002 -21.129000 0
M  V30 25 C -16.496000 -43.761002 -16.164000 0
M  V30 26 O -16.778999 -44.183998 -15.025000 0
M  V30 27 C -15.554000 -44.304001 -18.476999 0
M  V30 28 C -14.594000 -43.481998 -19.080999 0
M  V30 29 C -14.629000 -43.272999 -20.458000 0
M  V30 30 C -15.579000 -43.944000 -21.237000 0
M  V30 31 C -16.555000 -44.757999 -20.648001 0
M  V30 32 C -16.523001 -44.955002 -19.259001 0
M  V30 33 C -18.702999 -47.500000 -22.153999 0
M  V30 34 C -17.832001 -46.813999 -21.304001 0
M  V30 35 C -17.535000 -45.466000 -21.531000 0
M  V30 36 C -18.084999 -44.828999 -22.653999 0
M  V30 37 C -18.951000 -45.514999 -23.506001 0
M  V30 38 C -19.274000 -46.852001 -23.253000 0
M  V30 39 C -15.943001 -40.862499 -21.959999 0
M  V30 40 H -19.358402 -40.334011 -24.167343 0
M  V30 41 H -19.390856 -39.353043 -25.671778 0
M  V30 42 H -18.612473 -40.971924 -25.671778 0
M  V30 43 H -14.390973 -42.114719 -22.398336 0
M  V30 44 H -14.378613 -43.039574 -23.938192 0
M  V30 45 H -13.972732 -41.289742 -23.938192 0
M  V30 46 H -17.236740 -36.817654 -22.897661 0
M  V30 47 H -18.745884 -37.175060 -23.019085 0
M  V30 48 H -19.391558 -35.451595 -21.484838 0
M  V30 49 H -18.252964 -34.736572 -22.267363 0
M  V30 50 H -19.764292 -33.347851 -23.424904 0
M  V30 51 H -18.478930 -34.151901 -23.773256 0
M  V30 52 H -20.163443 -34.967476 -25.783123 0
M  V30 53 H -18.740808 -34.605370 -25.268347 0
M  V30 54 H -17.554789 -39.120125 -23.635920 0
M  V30 55 H -16.433901 -37.548752 -24.894400 0
M  V30 56 H -17.065676 -38.066658 -27.795946 0
M  V30 57 H -15.989086 -37.543270 -26.802460 0
M  V30 58 H -14.402679 -39.051491 -27.134527 0
M  V30 59 H -15.158585 -38.889721 -25.784552 0
M  V30 60 H -15.562118 -41.623852 -26.546005 0
M  V30 61 H -14.742798 -40.660843 -25.639732 0
M  V30 62 H -14.471663 -44.252506 -16.638466 0
M  V30 63 H -15.698196 -45.605629 -16.820292 0
M  V30 64 H -17.672047 -42.221134 -16.061113 0
M  V30 65 H -13.379087 -39.204624 -20.333879 0
M  V30 66 H -13.554997 -42.644939 -22.196823 0
M  V30 67 H -12.635282 -42.547256 -20.639347 0
M  V30 68 H -13.814822 -43.002937 -18.469948 0
M  V30 69 H -15.558703 -43.830040 -22.330893 0
M  V30 70 H -17.257669 -45.620121 -18.781635 0
M  V30 71 H -18.940735 -48.555840 -21.957317 0
M  V30 72 H -17.376627 -47.337437 -20.450392 0
M  V30 73 H -17.831081 -43.779579 -22.864347 0
M  V30 74 H -19.381012 -45.002758 -24.379328 0
M  V30 75 H -19.971224 -47.388878 -23.913031 0
M  V30 76 H -14.693001 -39.612499 -20.709999 0
M  V30 77 H -14.683001 -39.602501 -20.700001 0
M  V30 END ATOM
M  V30 BEGIN BOND
M  V30 1 2 5 4
M  V30 2 1 4 7 CFG=1
M  V30 3 2 6 4
M  V30 4 2 2 1
M  V30 5 1 8 9
M  V30 6 1 8 12
M  V30 7 1 9 10
M  V30 8 1 10 11
M  V30 9 1 11 12
M  V30 10 1 12 2
M  V30 11 1 13 3
M  V30 12 1 13 18
M  V30 13 1 13 14
M  V30 14 1 14 15
M  V30 15 1 14 2
M  V30 16 1 15 16
M  V30 17 1 16 17
M  V30 18 1 17 18
M  V30 19 1 18 4
M  V30 20 1 19 25
M  V30 21 2 25 26
M  V30 22 1 25 20
M  V30 23 1 24 23
M  V30 24 2 21 23
M  V30 25 1 23 22
M  V30 26 2 27 32
M  V30 27 1 27 19
M  V30 28 1 27 28
M  V30 29 2 28 29
M  V30 30 1 29 30
M  V30 31 1 29 24
M  V30 32 2 30 31
M  V30 33 1 31 35
M  V30 34 1 31 32
M  V30 35 2 33 38
M  V30 36 1 33 34
M  V30 37 2 34 35
M  V30 38 1 35 36
M  V30 39 2 36 37
M  V30 40 1 37 38
M  V30 41 1 39 5
M  V30 42 1 39 21
M  V30 43 1 3 40
M  V30 44 1 3 41
M  V30 45 1 3 42
M  V30 46 1 7 43
M  V30 47 1 7 44
M  V30 48 1 7 45
M  V30 49 1 8 46
M  V30 50 1 8 47
M  V30 51 1 9 48
M  V30 52 1 9 49
M  V30 53 1 10 50
M  V30 54 1 10 51
M  V30 55 1 11 52
M  V30 56 1 11 53
M  V30 57 1 13 54 CFG=1
M  V30 58 1 14 55 CFG=1
M  V30 59 1 15 56
M  V30 60 1 15 57
M  V30 61 1 16 58
M  V30 62 1 16 59
M  V30 63 1 17 60
M  V30 64 1 17 61
M  V30 65 1 19 62
M  V30 66 1 19 63
M  V30 67 1 20 64
M  V30 68 1 22 65
M  V30 69 1 24 66
M  V30 70 1 24 67
M  V30 71 1 28 68
M  V30 72 1 30 69
M  V30 73 1 32 70
M  V30 74 1 33 71
M  V30 75 1 34 72
M  V30 76 1 36 73
M  V30 77 1 37 74
M  V30 78 1 38 75
M  V30 79 1 39 76
M  V30 80 1 39 77
M  V30 END BOND
M  V30 BEGIN COLLECTION
M  V30 MDLV30/STEABS ATOMS=(0)
M  V30 END COLLECTION
M  V30 END CTAB
M  END
>  <smiles>  (287) 
[H]OC(=O)C([H])([H])c1c([H])c(-c2c([H])c([H])c([H])c([H])c2[H])c([H])c(C([H])([H])/C(=N\C([H])([H])N=[S@@](=O)(N2C([H])([H])C([H])([H])C([H])([H])[C@@]([H])(C(=O)N3C([H])([H])C([H])([H])C([H])([H])C3([H])[H])[C@@]2([H])C([H])([H])[H])C([H])([H])[H])O[H])c1[H]

>  <error>  (287) 


>  <∆∆G>  (287) 
nan

>  <∆G_bound>  (287) 
nan

>  <∆G_unbound>  (287) 
nan

>  <comRMSD>  (287) 
0.0

>  <N_constrained_atoms>  (287) 
38.0

>  <N_unconstrained_atoms>  (287) 
1.0

>  <runtime>  (287) 
2.399821

>  <regarded>  (287) 
['d0866a', '5hmw-b']

>  <disregarded>  (287) 
[]

>  <LE>  (287) 
nan

>  <outcome>  (287) 
crashed

>  <percent_hybrid>  (287) 
48.0

$$$$
LIG
     RDKit          3D

 64 67  0  0  0  0  0  0  0  0999 V2000
  -18.8381  -37.0263  -26.2352 O   0  0  0  0  0  0  0  0  0  0  0  0
  -17.9032  -37.0355  -25.5155 C   0  0  0  0  0  0  0  0  0  0  0  0
  -18.8022  -39.9187  -25.1403 C   0  0  0  0  0  0  0  0  0  0  0  0
  -16.7033  -41.8633  -23.7048 S   0  0  0  0  0  0  0  0  0  0  0  0
  -17.2212  -41.3143  -22.4672 O   0  0  0  0  0  0  0  0  0  0  0  0
  -17.4972  -42.7575  -24.5251 O   0  0  0  0  0  0  0  0  0  0  0  0
  -15.0760  -42.6213  -23.3763 C   0  0  0  0  0  0  0  0  0  0  0  0
  -15.8248  -42.9978  -17.0120 C   0  0  0  0  0  0  0  0  0  0  0  0
  -15.1245  -43.8520  -22.6080 O   0  0  0  0  0  0  0  0  0  0  0  0
  -17.6971  -41.9734  -15.8840 O   0  0  0  0  0  0  0  0  0  0  0  0
  -16.4572  -40.6721  -17.2352 O   0  0  0  0  0  0  0  0  0  0  0  0
  -16.6773  -41.7748  -16.7516 C   0  0  0  0  0  0  0  0  0  0  0  0
  -17.9870  -36.0948  -23.1890 C   0  0  0  0  0  0  0  0  0  0  0  0
  -19.4160  -35.6045  -23.1121 C   0  0  0  0  0  0  0  0  0  0  0  0
  -19.2948  -34.4235  -24.0026 C   0  0  0  0  0  0  0  0  0  0  0  0
  -17.8259  -34.5428  -24.3505 C   0  0  0  0  0  0  0  0  0  0  0  0
  -17.3753  -35.9610  -24.5701 N   0  0  0  0  0  0  0  0  0  0  0  0
  -17.4227  -39.4222  -24.6847 C   0  0  2  0  0  0  0  0  0  0  0  0
  -16.8990  -38.2037  -25.4742 C   0  0  1  0  0  0  0  0  0  0  0  0
  -16.5193  -38.5918  -26.9074 C   0  0  0  0  0  0  0  0  0  0  0  0
  -15.5239  -39.7443  -26.9059 C   0  0  0  0  0  0  0  0  0  0  0  0
  -16.0144  -40.9298  -26.1071 C   0  0  0  0  0  0  0  0  0  0  0  0
  -16.3685  -40.5225  -24.7208 N   0  0  0  0  0  0  0  0  0  0  0  0
  -15.5964  -43.2897  -18.4772 C   0  0  0  0  0  0  0  0  0  0  0  0
  -14.5392  -42.6863  -19.1653 C   0  0  0  0  0  0  0  0  0  0  0  0
  -14.3763  -42.8853  -20.5385 C   0  0  0  0  0  0  0  0  0  0  0  0
  -15.2827  -43.6713  -21.2559 C   0  0  0  0  0  0  0  0  0  0  0  0
  -16.3012  -44.3610  -20.5669 C   0  0  0  0  0  0  0  0  0  0  0  0
  -16.4570  -44.1425  -19.1843 C   0  0  0  0  0  0  0  0  0  0  0  0
  -18.6274  -46.4978  -22.8232 C   0  0  0  0  0  0  0  0  0  0  0  0
  -18.1889  -47.3464  -21.8371 C   0  0  0  0  0  0  0  0  0  0  0  0
  -17.3385  -46.6838  -20.9083 C   0  0  0  0  0  0  0  0  0  0  0  0
  -17.1792  -45.3435  -21.2108 C   0  0  0  0  0  0  0  0  0  0  0  0
  -18.2345  -44.8846  -22.4711 S   0  0  0  0  0  0  0  0  0  0  0  0
  -19.1532  -40.7574  -24.5329 H   0  0  0  0  0  0  0  0  0  0  0  0
  -19.5582  -39.1356  -25.0290 H   0  0  0  0  0  0  0  0  0  0  0  0
  -18.8069  -40.2446  -26.1842 H   0  0  0  0  0  0  0  0  0  0  0  0
  -14.6568  -42.8958  -24.3472 H   0  0  0  0  0  0  0  0  0  0  0  0
  -14.4361  -41.8577  -22.9263 H   0  0  0  0  0  0  0  0  0  0  0  0
  -14.8676  -42.8578  -16.4956 H   0  0  0  0  0  0  0  0  0  0  0  0
  -16.2835  -43.8706  -16.5518 H   0  0  0  0  0  0  0  0  0  0  0  0
  -17.8327  -42.8753  -15.5163 H   0  0  0  0  0  0  0  0  0  0  0  0
  -17.9882  -37.1594  -22.9341 H   0  0  0  0  0  0  0  0  0  0  0  0
  -17.3270  -35.6456  -22.4264 H   0  0  0  0  0  0  0  0  0  0  0  0
  -20.1220  -36.3372  -23.5171 H   0  0  0  0  0  0  0  0  0  0  0  0
  -19.7142  -35.3571  -22.0896 H   0  0  0  0  0  0  0  0  0  0  0  0
  -19.9311  -34.5277  -24.8880 H   0  0  0  0  0  0  0  0  0  0  0  0
  -19.5285  -33.4742  -23.5127 H   0  0  0  0  0  0  0  0  0  0  0  0
  -17.6744  -34.0481  -25.3194 H   0  0  0  0  0  0  0  0  0  0  0  0
  -17.1522  -34.0092  -23.6592 H   0  0  0  0  0  0  0  0  0  0  0  0
  -17.5138  -39.1117  -23.6386 H   0  0  0  0  0  0  0  0  0  0  0  0
  -15.9821  -37.8561  -24.9793 H   0  0  0  0  0  0  0  0  0  0  0  0
  -17.4077  -38.8757  -27.4849 H   0  0  0  0  0  0  0  0  0  0  0  0
  -16.0847  -37.7272  -27.4235 H   0  0  0  0  0  0  0  0  0  0  0  0
  -15.3588  -40.0915  -27.9291 H   0  0  0  0  0  0  0  0  0  0  0  0
  -14.5618  -39.4010  -26.5086 H   0  0  0  0  0  0  0  0  0  0  0  0
  -16.8750  -41.3828  -26.6109 H   0  0  0  0  0  0  0  0  0  0  0  0
  -15.2183  -41.6761  -26.0804 H   0  0  0  0  0  0  0  0  0  0  0  0
  -13.8416  -42.0329  -18.6435 H   0  0  0  0  0  0  0  0  0  0  0  0
  -13.5200  -42.4313  -21.0303 H   0  0  0  0  0  0  0  0  0  0  0  0
  -17.2806  -44.6298  -18.6670 H   0  0  0  0  0  0  0  0  0  0  0  0
  -19.1838  -46.7537  -23.7131 H   0  0  0  0  0  0  0  0  0  0  0  0
  -18.3828  -48.4093  -21.8499 H   0  0  0  0  0  0  0  0  0  0  0  0
  -16.8090  -47.1886  -20.1105 H   0  0  0  0  0  0  0  0  0  0  0  0
  5  4  2  0
  7  4  1  0
  6  4  2  0
  2  1  2  0
 11 12  2  0
  8 12  1  0
 12 10  1  0
  9  7  1  0
 13 14  1  0
 13 17  1  0
 14 15  1  0
 15 16  1  0
 16 17  1  0
 17  2  1  0
 18  3  1  0
 18 23  1  0
 18 19  1  0
 19 20  1  0
 19  2  1  0
 20 21  1  0
 21 22  1  0
 22 23  1  0
 23  4  1  0
 24 29  2  0
 24  8  1  0
 24 25  1  0
 25 26  2  0
 26 27  1  0
 27 28  2  0
 27  9  1  0
 28 33  1  0
 28 29  1  0
 30 31  2  0
 30 34  1  0
 31 32  1  0
 32 33  2  0
 33 34  1  0
  3 35  1  0
  3 36  1  0
  3 37  1  0
  7 38  1  0
  7 39  1  0
  8 40  1  0
  8 41  1  0
 10 42  1  0
 13 43  1  0
 13 44  1  0
 14 45  1  0
 14 46  1  0
 15 47  1  0
 15 48  1  0
 16 49  1  0
 16 50  1  0
 18 51  1  1
 19 52  1  1
 20 53  1  0
 20 54  1  0
 21 55  1  0
 21 56  1  0
 22 57  1  0
 22 58  1  0
 25 59  1  0
 26 60  1  0
 29 61  1  0
 30 62  1  0
 31 63  1  0
 32 64  1  0
M  END
>  <smiles>  (288) 
[H]OC(=O)C([H])([H])c1c([H])c([H])c(OC([H])([H])S(=O)(=O)N2C([H])([H])C([H])([H])C([H])([H])[C@@]([H])(C(=O)N3C([H])([H])C([H])([H])C([H])([H])C3([H])[H])[C@@]2([H])C([H])([H])[H])c(-c2sc([H])c([H])c2[H])c1[H]

>  <error>  (288) 


>  <∆∆G>  (288) 
-54.296999

>  <∆G_bound>  (288) 
114.899491

>  <∆G_unbound>  (288) 
169.19649

>  <comRMSD>  (288) 
1.011886

>  <N_constrained_atoms>  (288) 
34.0

>  <N_unconstrained_atoms>  (288) 
0.0

>  <runtime>  (288) 
6.795073

>  <regarded>  (288) 
['d0866a', '5f3z-a']

>  <disregarded>  (288) 
[]

>  <LE>  (288) 
1.596971

>  <outcome>  (288) 
too moved

>  <percent_hybrid>  (288) 
48.0

$$$$
LIG
     RDKit          3D

 64 67  0  0  0  0  0  0  0  0999 V2000
  -19.4040  -37.6547  -27.1492 O   0  0  0  0  0  0  0  0  0  0  0  0
  -18.6548  -37.6159  -26.2378 C   0  0  0  0  0  0  0  0  0  0  0  0
  -19.0896  -40.3684  -24.8573 C   0  0  0  0  0  0  0  0  0  0  0  0
  -16.7578  -42.0025  -23.7616 S   0  0  0  0  0  0  0  0  0  0  0  0
  -17.3557  -41.5519  -22.5174 O   0  0  0  0  0  0  0  0  0  0  0  0
  -17.4452  -42.9202  -24.6489 O   0  0  0  0  0  0  0  0  0  0  0  0
  -15.0988  -42.6728  -23.3807 C   0  0  0  0  0  0  0  0  0  0  0  0
  -15.5091  -43.2379  -17.0179 C   0  0  0  0  0  0  0  0  0  0  0  0
  -15.1259  -43.9336  -22.6573 O   0  0  0  0  0  0  0  0  0  0  0  0
  -16.0521  -40.9061  -17.3164 O   0  0  0  0  0  0  0  0  0  0  0  0
  -14.5898  -41.4453  -15.6860 O   0  0  0  0  0  0  0  0  0  0  0  0
  -15.3197  -41.7940  -16.6034 C   0  0  0  0  0  0  0  0  0  0  0  0
  -19.3292  -36.7522  -23.9839 C   0  0  0  0  0  0  0  0  0  0  0  0
  -19.0313  -35.7618  -22.8770 C   0  0  0  0  0  0  0  0  0  0  0  0
  -18.8064  -34.5501  -23.7057 C   0  0  0  0  0  0  0  0  0  0  0  0
  -19.0287  -35.1638  -25.0662 C   0  0  0  0  0  0  0  0  0  0  0  0
  -18.4352  -36.5384  -25.1939 N   0  0  0  0  0  0  0  0  0  0  0  0
  -17.7343  -39.6514  -24.8142 C   0  0  2  0  0  0  0  0  0  0  0  0
  -17.6291  -38.7714  -26.0753 C   0  0  2  0  0  0  0  0  0  0  0  0
  -16.2009  -38.2707  -26.2887 C   0  0  0  0  0  0  0  0  0  0  0  0
  -15.1723  -39.4077  -26.2384 C   0  0  0  0  0  0  0  0  0  0  0  0
  -15.7894  -40.7601  -25.9440 C   0  0  0  0  0  0  0  0  0  0  0  0
  -16.5414  -40.6057  -24.6861 N   0  0  0  0  0  0  0  0  0  0  0  0
  -15.3689  -43.4879  -18.5019 C   0  0  0  0  0  0  0  0  0  0  0  0
  -14.2946  -42.9494  -19.2186 C   0  0  0  0  0  0  0  0  0  0  0  0
  -14.2179  -43.1033  -20.6027 C   0  0  0  0  0  0  0  0  0  0  0  0
  -15.2100  -43.8021  -21.2947 C   0  0  0  0  0  0  0  0  0  0  0  0
  -16.2213  -44.4710  -20.5765 C   0  0  0  0  0  0  0  0  0  0  0  0
  -16.2991  -44.2865  -19.1835 C   0  0  0  0  0  0  0  0  0  0  0  0
  -18.6379  -46.5187  -22.8134 C   0  0  0  0  0  0  0  0  0  0  0  0
  -18.2008  -47.3920  -21.8487 C   0  0  0  0  0  0  0  0  0  0  0  0
  -17.3269  -46.7599  -20.9205 C   0  0  0  0  0  0  0  0  0  0  0  0
  -17.1496  -45.4175  -21.2035 C   0  0  0  0  0  0  0  0  0  0  0  0
  -18.2342  -44.9174  -22.4226 S   0  0  0  0  0  0  0  0  0  0  0  0
  -19.3157  -40.8909  -23.9244 H   0  0  0  0  0  0  0  0  0  0  0  0
  -19.9120  -39.6618  -25.0099 H   0  0  0  0  0  0  0  0  0  0  0  0
  -19.1279  -41.0985  -25.6732 H   0  0  0  0  0  0  0  0  0  0  0  0
  -14.6156  -42.8960  -24.3336 H   0  0  0  0  0  0  0  0  0  0  0  0
  -14.5346  -41.8885  -22.8683 H   0  0  0  0  0  0  0  0  0  0  0  0
  -14.7741  -43.8558  -16.4895 H   0  0  0  0  0  0  0  0  0  0  0  0
  -16.5048  -43.5305  -16.6700 H   0  0  0  0  0  0  0  0  0  0  0  0
  -16.5795  -41.3160  -18.0313 H   0  0  0  0  0  0  0  0  0  0  0  0
  -19.1474  -37.7523  -23.5897 H   0  0  0  0  0  0  0  0  0  0  0  0
  -20.3954  -36.7975  -24.2718 H   0  0  0  0  0  0  0  0  0  0  0  0
  -19.8613  -35.6659  -22.1718 H   0  0  0  0  0  0  0  0  0  0  0  0
  -18.1267  -36.0360  -22.3238 H   0  0  0  0  0  0  0  0  0  0  0  0
  -19.5055  -33.7356  -23.4973 H   0  0  0  0  0  0  0  0  0  0  0  0
  -17.7837  -34.1760  -23.5905 H   0  0  0  0  0  0  0  0  0  0  0  0
  -20.0737  -35.1334  -25.4209 H   0  0  0  0  0  0  0  0  0  0  0  0
  -18.4957  -34.5610  -25.8144 H   0  0  0  0  0  0  0  0  0  0  0  0
  -17.6708  -39.0292  -23.9182 H   0  0  0  0  0  0  0  0  0  0  0  0
  -17.8465  -39.4206  -26.9398 H   0  0  0  0  0  0  0  0  0  0  0  0
  -16.1225  -37.7419  -27.2465 H   0  0  0  0  0  0  0  0  0  0  0  0
  -15.9568  -37.5318  -25.5168 H   0  0  0  0  0  0  0  0  0  0  0  0
  -14.6034  -39.4722  -27.1638 H   0  0  0  0  0  0  0  0  0  0  0  0
  -14.4425  -39.1897  -25.4500 H   0  0  0  0  0  0  0  0  0  0  0  0
  -16.4342  -41.1126  -26.7558 H   0  0  0  0  0  0  0  0  0  0  0  0
  -14.9797  -41.4816  -25.8360 H   0  0  0  0  0  0  0  0  0  0  0  0
  -13.5080  -42.3878  -18.7143 H   0  0  0  0  0  0  0  0  0  0  0  0
  -13.3551  -42.6997  -21.1284 H   0  0  0  0  0  0  0  0  0  0  0  0
  -17.1091  -44.7644  -18.6356 H   0  0  0  0  0  0  0  0  0  0  0  0
  -19.2016  -46.7503  -23.7053 H   0  0  0  0  0  0  0  0  0  0  0  0
  -18.4059  -48.4521  -21.8819 H   0  0  0  0  0  0  0  0  0  0  0  0
  -16.7873  -47.2905  -20.1461 H   0  0  0  0  0  0  0  0  0  0  0  0
  5  4  2  0
  7  4  1  0
  6  4  2  0
  2  1  2  0
 11 12  2  0
  8 12  1  0
 12 10  1  0
  9  7  1  0
 13 14  1  0
 13 17  1  0
 14 15  1  0
 15 16  1  0
 16 17  1  0
 17  2  1  0
 18  3  1  0
 18 23  1  0
 18 19  1  0
 19 20  1  0
 19  2  1  0
 20 21  1  0
 21 22  1  0
 22 23  1  0
 23  4  1  0
 24 29  2  0
 24  8  1  0
 24 25  1  0
 25 26  2  0
 26 27  1  0
 27 28  2  0
 27  9  1  0
 28 33  1  0
 28 29  1  0
 30 31  2  0
 30 34  1  0
 31 32  1  0
 32 33  2  0
 33 34  1  0
  3 35  1  0
  3 36  1  0
  3 37  1  0
  7 38  1  0
  7 39  1  0
  8 40  1  0
  8 41  1  0
 10 42  1  0
 13 43  1  0
 13 44  1  0
 14 45  1  0
 14 46  1  0
 15 47  1  0
 15 48  1  0
 16 49  1  0
 16 50  1  0
 18 51  1  1
 19 52  1  1
 20 53  1  0
 20 54  1  0
 21 55  1  0
 21 56  1  0
 22 57  1  0
 22 58  1  0
 25 59  1  0
 26 60  1  0
 29 61  1  0
 30 62  1  0
 31 63  1  0
 32 64  1  0
M  END
>  <smiles>  (289) 
[H]OC(=O)C([H])([H])c1c([H])c([H])c(OC([H])([H])S(=O)(=O)N2C([H])([H])C([H])([H])C([H])([H])[C@@]([H])(C(=O)N3C([H])([H])C([H])([H])C([H])([H])C3([H])[H])[C@@]2([H])C([H])([H])[H])c(-c2sc([H])c([H])c2[H])c1[H]

>  <error>  (289) 


>  <∆∆G>  (289) 
-49.254722

>  <∆G_bound>  (289) 
119.941769

>  <∆G_unbound>  (289) 
169.19649

>  <comRMSD>  (289) 
0.967541

>  <N_constrained_atoms>  (289) 
34.0

>  <N_unconstrained_atoms>  (289) 
0.0

>  <runtime>  (289) 
6.29143

>  <regarded>  (289) 
['d0866a', '6h9r-a']

>  <disregarded>  (289) 
[]

>  <LE>  (289) 
1.448668

>  <outcome>  (289) 
acceptable

>  <percent_hybrid>  (289) 
48.0

$$$$
LIG
     RDKit          3D

 67 70  0  0  0  0  0  0  0  0999 V2000
  -18.5145  -37.1174  -23.0592 O   0  0  0  0  0  0  0  0  0  0  0  0
  -18.2318  -37.0206  -24.2008 C   0  0  0  0  0  0  0  0  0  0  0  0
  -18.8495  -39.9398  -24.5862 C   0  0  0  0  0  0  0  0  0  0  0  0
  -16.5632  -41.8613  -23.7702 S   0  0  0  0  0  0  0  0  0  0  0  0
  -17.1561  -41.6164  -22.4666 O   0  0  0  0  0  0  0  0  0  0  0  0
  -17.2732  -42.6420  -24.7647 O   0  0  0  0  0  0  0  0  0  0  0  0
  -14.9279  -42.5958  -23.4890 C   0  0  0  0  0  0  0  0  0  0  0  0
  -15.9826  -40.9499  -15.8810 O   0  0  0  0  0  0  0  0  0  0  0  0
  -16.7833  -40.9334  -17.9731 O   0  0  0  0  0  0  0  0  0  0  0  0
  -16.1394  -41.5385  -16.9476 C   0  0  0  0  0  0  0  0  0  0  0  0
  -15.6465  -42.9493  -17.1956 C   0  0  0  0  0  0  0  0  0  0  0  0
  -14.9804  -43.8617  -22.7695 O   0  0  0  0  0  0  0  0  0  0  0  0
  -17.7094  -34.8173  -25.2708 C   0  0  0  0  0  0  0  0  0  0  0  0
  -17.8908  -33.9292  -24.0477 C   0  0  0  0  0  0  0  0  0  0  0  0
  -19.3741  -33.9447  -23.9743 C   0  0  0  0  0  0  0  0  0  0  0  0
  -19.6348  -34.8739  -25.1426 C   0  0  0  0  0  0  0  0  0  0  0  0
  -18.6613  -35.9922  -25.2361 N   0  0  0  0  0  0  0  0  0  0  0  0
  -17.4745  -39.3692  -24.1732 C   0  0  2  0  0  0  0  0  0  0  0  0
  -17.1964  -38.0000  -24.8224 C   0  0  1  0  0  0  0  0  0  0  0  0
  -17.1109  -38.1478  -26.3475 C   0  0  0  0  0  0  0  0  0  0  0  0
  -16.5234  -39.5005  -26.7915 C   0  0  0  0  0  0  0  0  0  0  0  0
  -15.6458  -40.1758  -25.7432 C   0  0  0  0  0  0  0  0  0  0  0  0
  -16.3414  -40.3275  -24.4407 N   0  0  0  0  0  0  0  0  0  0  0  0
  -15.1204  -43.7157  -21.4090 C   0  0  0  0  0  0  0  0  0  0  0  0
  -14.1546  -43.0094  -20.6880 C   0  0  0  0  0  0  0  0  0  0  0  0
  -14.3049  -42.8029  -19.3194 C   0  0  0  0  0  0  0  0  0  0  0  0
  -15.4145  -43.3149  -18.6427 C   0  0  0  0  0  0  0  0  0  0  0  0
  -16.3276  -44.1135  -19.3455 C   0  0  0  0  0  0  0  0  0  0  0  0
  -16.1874  -44.3462  -20.7287 C   0  0  0  0  0  0  0  0  0  0  0  0
  -18.7573  -45.7474  -23.1180 C   0  0  0  0  0  0  0  0  0  0  0  0
  -18.0097  -44.8404  -22.3786 C   0  0  0  0  0  0  0  0  0  0  0  0
  -17.1229  -45.2671  -21.3876 C   0  0  0  0  0  0  0  0  0  0  0  0
  -17.1180  -46.6282  -21.0503 C   0  0  0  0  0  0  0  0  0  0  0  0
  -17.9128  -47.5322  -21.7454 C   0  0  0  0  0  0  0  0  0  0  0  0
  -18.6954  -47.0978  -22.8077 C   0  0  0  0  0  0  0  0  0  0  0  0
  -19.6430  -39.2006  -24.4571 H   0  0  0  0  0  0  0  0  0  0  0  0
  -18.8841  -40.2861  -25.6221 H   0  0  0  0  0  0  0  0  0  0  0  0
  -19.1342  -40.7937  -23.9573 H   0  0  0  0  0  0  0  0  0  0  0  0
  -14.5030  -42.8057  -24.4745 H   0  0  0  0  0  0  0  0  0  0  0  0
  -14.3087  -41.8479  -22.9859 H   0  0  0  0  0  0  0  0  0  0  0  0
  -16.8533  -41.4558  -18.7999 H   0  0  0  0  0  0  0  0  0  0  0  0
  -14.6994  -43.0791  -16.6549 H   0  0  0  0  0  0  0  0  0  0  0  0
  -16.3722  -43.6369  -16.7429 H   0  0  0  0  0  0  0  0  0  0  0  0
  -16.6917  -35.2297  -25.2298 H   0  0  0  0  0  0  0  0  0  0  0  0
  -17.7439  -34.2855  -26.2394 H   0  0  0  0  0  0  0  0  0  0  0  0
  -17.4382  -34.3724  -23.1527 H   0  0  0  0  0  0  0  0  0  0  0  0
  -17.4640  -32.9334  -24.1952 H   0  0  0  0  0  0  0  0  0  0  0  0
  -19.7251  -34.3649  -23.0249 H   0  0  0  0  0  0  0  0  0  0  0  0
  -19.8386  -32.9632  -24.1212 H   0  0  0  0  0  0  0  0  0  0  0  0
  -20.6039  -35.3593  -24.9584 H   0  0  0  0  0  0  0  0  0  0  0  0
  -19.7727  -34.3584  -26.1074 H   0  0  0  0  0  0  0  0  0  0  0  0
  -17.4832  -39.2253  -23.0843 H   0  0  0  0  0  0  0  0  0  0  0  0
  -16.2178  -37.6397  -24.4689 H   0  0  0  0  0  0  0  0  0  0  0  0
  -18.0952  -38.0231  -26.8131 H   0  0  0  0  0  0  0  0  0  0  0  0
  -16.4844  -37.3399  -26.7443 H   0  0  0  0  0  0  0  0  0  0  0  0
  -17.3419  -40.1764  -27.0527 H   0  0  0  0  0  0  0  0  0  0  0  0
  -15.9697  -39.3660  -27.7193 H   0  0  0  0  0  0  0  0  0  0  0  0
  -15.3040  -41.1484  -26.1167 H   0  0  0  0  0  0  0  0  0  0  0  0
  -14.7456  -39.5708  -25.5657 H   0  0  0  0  0  0  0  0  0  0  0  0
  -13.2621  -42.6313  -21.1815 H   0  0  0  0  0  0  0  0  0  0  0  0
  -13.5499  -42.2203  -18.7930 H   0  0  0  0  0  0  0  0  0  0  0  0
  -17.1838  -44.5406  -18.8237 H   0  0  0  0  0  0  0  0  0  0  0  0
  -19.3711  -45.3943  -23.9411 H   0  0  0  0  0  0  0  0  0  0  0  0
  -18.1209  -43.7899  -22.6033 H   0  0  0  0  0  0  0  0  0  0  0  0
  -16.4457  -46.9986  -20.2830 H   0  0  0  0  0  0  0  0  0  0  0  0
  -17.8416  -48.5928  -21.5360 H   0  0  0  0  0  0  0  0  0  0  0  0
  -19.2400  -47.8228  -23.4024 H   0  0  0  0  0  0  0  0  0  0  0  0
  5  4  2  0
  7  4  1  0
  6  4  2  0
  2  1  2  0
  8 10  2  0
 11 10  1  0
 10  9  1  0
 12  7  1  0
 13 14  1  0
 13 17  1  0
 14 15  1  0
 15 16  1  0
 16 17  1  0
 17  2  1  0
 18  3  1  0
 18 23  1  0
 18 19  1  0
 19 20  1  0
 19  2  1  0
 20 21  1  0
 21 22  1  0
 22 23  1  0
 23  4  1  0
 24 29  1  0
 24 12  1  0
 24 25  2  0
 25 26  1  0
 26 27  2  0
 27 28  1  0
 27 11  1  0
 28 29  2  0
 29 32  1  0
 30 35  2  0
 30 31  1  0
 31 32  2  0
 32 33  1  0
 33 34  2  0
 34 35  1  0
  3 36  1  0
  3 37  1  0
  3 38  1  0
  7 39  1  0
  7 40  1  0
  9 41  1  0
 11 42  1  0
 11 43  1  0
 13 44  1  0
 13 45  1  0
 14 46  1  0
 14 47  1  0
 15 48  1  0
 15 49  1  0
 16 50  1  0
 16 51  1  0
 18 52  1  1
 19 53  1  1
 20 54  1  0
 20 55  1  0
 21 56  1  0
 21 57  1  0
 22 58  1  0
 22 59  1  0
 25 60  1  0
 26 61  1  0
 28 62  1  0
 30 63  1  0
 31 64  1  0
 33 65  1  0
 34 66  1  0
 35 67  1  0
M  END
>  <smiles>  (290) 
[H]OC(=O)C([H])([H])c1c([H])c([H])c(OC([H])([H])S(=O)(=O)N2C([H])([H])C([H])([H])C([H])([H])[C@@]([H])(C(=O)N3C([H])([H])C([H])([H])C([H])([H])C3([H])[H])[C@@]2([H])C([H])([H])[H])c(-c2c([H])c([H])c([H])c([H])c2[H])c1[H]

>  <error>  (290) 


>  <∆∆G>  (290) 
-45.461004

>  <∆G_bound>  (290) 
111.047002

>  <∆G_unbound>  (290) 
156.508006

>  <comRMSD>  (290) 
1.280851

>  <N_constrained_atoms>  (290) 
35.0

>  <N_unconstrained_atoms>  (290) 
0.0

>  <runtime>  (290) 
7.49016

>  <regarded>  (290) 
['d0866a', '5f3t-a']

>  <disregarded>  (290) 
[]

>  <LE>  (290) 
1.298886

>  <outcome>  (290) 
too moved

>  <percent_hybrid>  (290) 
49.0

$$$$

     RDKit          2D

  0  0  0  0  0  0  0  0  0  0999 V2000
M  END
>  <smiles>  (291) 
nan

>  <error>  (291) 
DistanceError 12.60 Å

>  <∆∆G>  (291) 
nan

>  <∆G_bound>  (291) 
nan

>  <∆G_unbound>  (291) 
nan

>  <comRMSD>  (291) 
nan

>  <N_constrained_atoms>  (291) 
nan

>  <N_unconstrained_atoms>  (291) 
nan

>  <runtime>  (291) 
nan

>  <regarded>  (291) 
[]

>  <disregarded>  (291) 
[]

>  <LE>  (291) 
nan

>  <outcome>  (291) 
too distant

>  <percent_hybrid>  (291) 
nan

$$$$
LIG
     RDKit          3D

  0  0  0  0  0  0  0  0  0  0999 V3000
M  V30 BEGIN CTAB
M  V30 COUNTS 50 54 0 0 0
M  V30 BEGIN ATOM
M  V30 1 O -11.370000 -32.450001 -20.969999 0
M  V30 2 C -11.950000 -33.465000 -20.601000 0
M  V30 3 C -13.292000 -33.436001 -19.997999 0
M  V30 4 C -13.877000 -34.640999 -19.552999 0
M  V30 5 N -13.139000 -35.812000 -19.618000 0
M  V30 6 C -12.110000 -35.952000 -20.645000 0 CFG=1
M  V30 7 N -11.382000 -34.679001 -20.705000 0
M  V30 8 C -13.994000 -32.241001 -19.871000 0
M  V30 9 C -15.168000 -34.624001 -19.025000 0
M  V30 10 C -15.853000 -33.424000 -18.921000 0
M  V30 11 C -15.268000 -32.243000 -19.333000 0
M  V30 12 C -11.190000 -37.138000 -20.316999 0
M  V30 13 C -11.152000 -37.980999 -21.587999 0
M  V30 14 C -12.451000 -37.754002 -22.233000 0 CFG=2
M  V30 15 C -12.749000 -36.279999 -22.002001 0
M  V30 16 C -14.868000 -42.847000 -22.417000 0
M  V30 17 C -14.359000 -41.472000 -22.761000 0
M  V30 18 C -13.478000 -40.689999 -21.993000 0
M  V30 19 N -13.213000 -39.522999 -22.573999 0
M  V30 20 N -13.928000 -39.542000 -23.735001 0
M  V30 21 C -14.631000 -40.687000 -23.893000 0
M  V30 22 C -16.445000 -41.923000 -25.089001 0
M  V30 23 C -15.488000 -40.911999 -25.076000 0
M  V30 24 C -15.379000 -40.103001 -26.198999 0
M  V30 25 C -16.228001 -40.327000 -27.266001 0
M  V30 26 N -17.155001 -41.291000 -27.292000 0
M  V30 27 C -17.240000 -42.071999 -26.209000 0
M  V30 28 N -12.832001 -38.638500 -22.403500 0
M  V30 29 H -13.314224 -36.575504 -18.949228 0
M  V30 30 H -10.361188 -34.718678 -20.836409 0
M  V30 31 H -13.535987 -31.295929 -20.198202 0
M  V30 32 H -15.640623 -35.559937 -18.692352 0
M  V30 33 H -16.871866 -33.412075 -18.506548 0
M  V30 34 H -15.819530 -31.296577 -19.232512 0
M  V30 35 H -10.669828 -37.336834 -19.368376 0
M  V30 36 H -12.057853 -37.712925 -19.961624 0
M  V30 37 H -10.330162 -38.619820 -21.943655 0
M  V30 38 H -11.575160 -38.832932 -21.035601 0
M  V30 39 H -13.083096 -37.563656 -23.112900 0
M  V30 40 H -13.302277 -35.597340 -22.663710 0
M  V30 41 H -11.810613 -36.010841 -22.508938 0
M  V30 42 H -14.909686 -42.959610 -21.323574 0
M  V30 43 H -15.875333 -42.981052 -22.838083 0
M  V30 44 H -14.190761 -43.604652 -22.838083 0
M  V30 45 H -13.057901 -41.005753 -21.026657 0
M  V30 46 H -16.565941 -42.590923 -24.223406 0
M  V30 47 H -14.630236 -39.298153 -26.238676 0
M  V30 48 H -16.136074 -39.673790 -28.146267 0
M  V30 49 H -17.986483 -42.879936 -26.210447 0
M  V30 50 H -11.842000 -37.648499 -21.413500 0
M  V30 END ATOM
M  V30 BEGIN BOND
M  V30 1 2 2 1
M  V30 2 1 2 7
M  V30 3 1 2 3
M  V30 4 2 3 8
M  V30 5 1 3 4
M  V30 6 1 4 5
M  V30 7 2 4 9
M  V30 8 1 6 5 CFG=1
M  V30 9 1 6 7
M  V30 10 1 6 15
M  V30 11 1 6 12
M  V30 12 1 8 11
M  V30 13 1 9 10
M  V30 14 2 10 11
M  V30 15 1 12 13
M  V30 16 1 13 14
M  V30 17 1 14 15
M  V30 18 1 17 16
M  V30 19 2 17 18
M  V30 20 1 17 21
M  V30 21 1 18 19
M  V30 22 1 19 20
M  V30 23 2 20 21
M  V30 24 1 21 23
M  V30 25 2 22 27
M  V30 26 1 22 23
M  V30 27 2 23 24
M  V30 28 1 24 25
M  V30 29 2 25 26
M  V30 30 1 26 27
M  V30 31 1 28 14
M  V30 32 1 28 19
M  V30 33 1 5 29
M  V30 34 1 7 30
M  V30 35 1 8 31
M  V30 36 1 9 32
M  V30 37 1 10 33
M  V30 38 1 11 34
M  V30 39 1 12 35
M  V30 40 1 12 36
M  V30 41 1 13 37
M  V30 42 1 13 38
M  V30 43 1 14 39 CFG=3
M  V30 44 1 15 40
M  V30 45 1 15 41
M  V30 46 1 16 42
M  V30 47 1 16 43
M  V30 48 1 16 44
M  V30 49 1 18 45
M  V30 50 1 22 46
M  V30 51 1 24 47
M  V30 52 1 25 48
M  V30 53 1 27 49
M  V30 54 1 28 50
M  V30 END BOND
M  V30 BEGIN COLLECTION
M  V30 MDLV30/STEABS ATOMS=(0)
M  V30 END COLLECTION
M  V30 END CTAB
M  END
>  <smiles>  (292) 
[H]c1nc([H])c([H])c(-c2nn(N([H])[C@]3([H])C([H])([H])C([H])([H])[C@@]4(N([H])C(=O)c5c([H])c([H])c([H])c([H])c5N4[H])C3([H])[H])c([H])c2C([H])([H])[H])c1[H]

>  <error>  (292) 


>  <∆∆G>  (292) 
nan

>  <∆G_bound>  (292) 
nan

>  <∆G_unbound>  (292) 
nan

>  <comRMSD>  (292) 
0.0

>  <N_constrained_atoms>  (292) 
27.0

>  <N_unconstrained_atoms>  (292) 
1.0

>  <runtime>  (292) 
1.682297

>  <regarded>  (292) 
['d1196a', 'd0160a']

>  <disregarded>  (292) 
[]

>  <LE>  (292) 
nan

>  <outcome>  (292) 
crashed

>  <percent_hybrid>  (292) 
45.0

$$$$
LIG
     RDKit          3D

  0  0  0  0  0  0  0  0  0  0999 V3000
M  V30 BEGIN CTAB
M  V30 COUNTS 57 61 0 0 0
M  V30 BEGIN ATOM
M  V30 1 O -11.370000 -32.450001 -20.969999 0
M  V30 2 C -11.950000 -33.465000 -20.601000 0
M  V30 3 C -13.292000 -33.436001 -19.997999 0
M  V30 4 C -13.877000 -34.640999 -19.552999 0
M  V30 5 N -13.139000 -35.812000 -19.618000 0
M  V30 6 C -12.110000 -35.952000 -20.645000 0 CFG=1
M  V30 7 N -11.382000 -34.679001 -20.705000 0
M  V30 8 C -13.994000 -32.241001 -19.871000 0
M  V30 9 C -15.168000 -34.624001 -19.025000 0
M  V30 10 C -15.853000 -33.424000 -18.921000 0
M  V30 11 C -15.268000 -32.243000 -19.333000 0
M  V30 12 C -11.190000 -37.138000 -20.316999 0
M  V30 13 C -11.152000 -37.980999 -21.587999 0
M  V30 14 C -12.451000 -37.754002 -22.233000 0 CFG=1
M  V30 15 C -12.749000 -36.279999 -22.002001 0
M  V30 16 C -15.248000 -40.036999 -26.167000 0
M  V30 17 C -14.724000 -41.629002 -24.274000 0
M  V30 18 C -15.198000 -42.825001 -23.830999 0
M  V30 19 C -16.190001 -43.247002 -24.733000 0
M  V30 20 C -16.294001 -42.299000 -25.702000 0
M  V30 21 N -15.398000 -41.293999 -25.423000 0
M  V30 22 C -17.406000 -38.859001 -26.754000 0
M  V30 23 C -16.355000 -39.054001 -25.875000 0
M  V30 24 C -16.341000 -38.275002 -24.731001 0
M  V30 25 C -17.327999 -37.328999 -24.525999 0
M  V30 26 C -18.322001 -37.206001 -25.469999 0
M  V30 27 N -18.382999 -37.960999 -26.572001 0
M  V30 28 N -13.423500 -37.884251 -22.857500 0
M  V30 29 C -14.396000 -38.014503 -23.482000 0
M  V30 30 C -15.368500 -38.144753 -24.106501 0
M  V30 31 H -13.314224 -36.575504 -18.949228 0
M  V30 32 H -10.361188 -34.718678 -20.836409 0
M  V30 33 H -13.535987 -31.295929 -20.198202 0
M  V30 34 H -15.640623 -35.559937 -18.692352 0
M  V30 35 H -16.871866 -33.412075 -18.506548 0
M  V30 36 H -15.819530 -31.296577 -19.232512 0
M  V30 37 H -10.669828 -37.336834 -19.368376 0
M  V30 38 H -12.057853 -37.712925 -19.961624 0
M  V30 39 H -10.330162 -38.619820 -21.943655 0
M  V30 40 H -11.575160 -38.832932 -21.035601 0
M  V30 41 H -12.962158 -38.004837 -21.291830 0
M  V30 42 H -13.302277 -35.597340 -22.663710 0
M  V30 43 H -11.810613 -36.010841 -22.508938 0
M  V30 44 H -14.287182 -39.577408 -25.892035 0
M  V30 45 H -15.290560 -40.277637 -27.239511 0
M  V30 46 H -13.935004 -41.031788 -23.793562 0
M  V30 47 H -14.865563 -43.363384 -22.931206 0
M  V30 48 H -16.775831 -44.175674 -24.666897 0
M  V30 49 H -16.978371 -42.330608 -26.562603 0
M  V30 50 H -17.441278 -39.481430 -27.660278 0
M  V30 51 H -17.319143 -36.690296 -23.630466 0
M  V30 52 H -19.104530 -36.449635 -25.310135 0
M  V30 53 H -12.403500 -36.864250 -21.837500 0
M  V30 54 H -13.366000 -36.984501 -22.452000 0
M  V30 55 H -13.356000 -36.974503 -22.441999 0
M  V30 56 H -14.318500 -37.094753 -23.056501 0
M  V30 57 H -14.308499 -37.084751 -23.046501 0
M  V30 END ATOM
M  V30 BEGIN BOND
M  V30 1 2 2 1
M  V30 2 1 2 7
M  V30 3 1 2 3
M  V30 4 2 3 8
M  V30 5 1 3 4
M  V30 6 1 4 5
M  V30 7 2 4 9
M  V30 8 1 6 5 CFG=1
M  V30 9 1 6 7
M  V30 10 1 6 15
M  V30 11 1 6 12
M  V30 12 1 8 11
M  V30 13 1 9 10
M  V30 14 2 10 11
M  V30 15 1 12 13
M  V30 16 1 13 14
M  V30 17 1 14 15
M  V30 18 2 17 18
M  V30 19 1 17 21
M  V30 20 1 18 19
M  V30 21 2 19 20
M  V30 22 1 20 21
M  V30 23 1 21 16
M  V30 24 2 22 27
M  V30 25 1 22 23
M  V30 26 1 23 16
M  V30 27 2 23 24
M  V30 28 1 24 25
M  V30 29 2 25 26
M  V30 30 1 26 27
M  V30 31 1 28 14
M  V30 32 1 29 28
M  V30 33 1 30 29
M  V30 34 1 30 24
M  V30 35 1 5 31
M  V30 36 1 7 32
M  V30 37 1 8 33
M  V30 38 1 9 34
M  V30 39 1 10 35
M  V30 40 1 11 36
M  V30 41 1 12 37
M  V30 42 1 12 38
M  V30 43 1 13 39
M  V30 44 1 13 40
M  V30 45 1 14 41 CFG=1
M  V30 46 1 15 42
M  V30 47 1 15 43
M  V30 48 1 16 44
M  V30 49 1 16 45
M  V30 50 1 17 46
M  V30 51 1 18 47
M  V30 52 1 19 48
M  V30 53 1 20 49
M  V30 54 1 22 50
M  V30 55 1 25 51
M  V30 56 1 26 52
M  V30 57 1 28 53
M  V30 58 1 29 54
M  V30 59 1 29 55
M  V30 60 1 30 56
M  V30 61 1 30 57
M  V30 END BOND
M  V30 BEGIN COLLECTION
M  V30 MDLV30/STEABS ATOMS=(0)
M  V30 END COLLECTION
M  V30 END CTAB
M  END
>  <smiles>  (293) 
[H]c1nc([H])c(C([H])([H])n2c([H])c([H])c([H])c2[H])c(C([H])([H])C([H])([H])N([H])[C@@]2([H])C([H])([H])C([H])([H])[C@@]3(N([H])C(=O)c4c([H])c([H])c([H])c([H])c4N3[H])C2([H])[H])c1[H]

>  <error>  (293) 


>  <∆∆G>  (293) 
nan

>  <∆G_bound>  (293) 
nan

>  <∆G_unbound>  (293) 
nan

>  <comRMSD>  (293) 
0.0

>  <N_constrained_atoms>  (293) 
27.0

>  <N_unconstrained_atoms>  (293) 
3.0

>  <runtime>  (293) 
1.653778

>  <regarded>  (293) 
['d1196a', 'd0191a']

>  <disregarded>  (293) 
[]

>  <LE>  (293) 
nan

>  <outcome>  (293) 
crashed

>  <percent_hybrid>  (293) 
45.0

$$$$
LIG
     RDKit          3D

  0  0  0  0  0  0  0  0  0  0999 V3000
M  V30 BEGIN CTAB
M  V30 COUNTS 64 68 0 0 0
M  V30 BEGIN ATOM
M  V30 1 O -11.370000 -32.450001 -20.969999 0
M  V30 2 C -11.950000 -33.465000 -20.601000 0
M  V30 3 C -13.292000 -33.436001 -19.997999 0
M  V30 4 C -13.877000 -34.640999 -19.552999 0
M  V30 5 N -13.139000 -35.812000 -19.618000 0
M  V30 6 C -12.110000 -35.952000 -20.645000 0 CFG=1
M  V30 7 N -11.382000 -34.679001 -20.705000 0
M  V30 8 C -13.994000 -32.241001 -19.871000 0
M  V30 9 C -15.168000 -34.624001 -19.025000 0
M  V30 10 C -15.853000 -33.424000 -18.921000 0
M  V30 11 C -15.268000 -32.243000 -19.333000 0
M  V30 12 C -11.190000 -37.138000 -20.316999 0
M  V30 13 C -11.152000 -37.980999 -21.587999 0
M  V30 14 C -12.451000 -37.754002 -22.233000 0 CFG=1
M  V30 15 C -12.749000 -36.279999 -22.002001 0
M  V30 16 O -18.514000 -44.944000 -23.084999 0
M  V30 17 C -17.580000 -44.924999 -22.290001 0
M  V30 18 N -16.473000 -44.150002 -22.421000 0
M  V30 19 C -15.164000 -40.129002 -26.188000 0
M  V30 20 O -16.413000 -45.701000 -20.278000 0
M  V30 21 C -16.757999 -45.423000 -18.919001 0
M  V30 22 C -18.214001 -45.775002 -18.761999 0
M  V30 23 C -18.778999 -45.480999 -20.135000 0
M  V30 24 C -17.622999 -45.814999 -21.052999 0 CFG=1
M  V30 25 C -16.889999 -43.139000 -24.648001 0
M  V30 26 C -16.169001 -43.235001 -23.444000 0
M  V30 27 N -15.149000 -42.410999 -23.158001 0
M  V30 28 C -14.848000 -41.453999 -24.049999 0
M  V30 29 C -15.513000 -41.262001 -25.253000 0
M  V30 30 C -16.540001 -42.141998 -25.537001 0
M  V30 31 N -13.050250 -38.679001 -22.687250 0
M  V30 32 C -13.649500 -39.604000 -23.141499 0
M  V30 33 C -14.248750 -40.528999 -23.595749 0
M  V30 34 H -13.314224 -36.575504 -18.949228 0
M  V30 35 H -10.361188 -34.718678 -20.836409 0
M  V30 36 H -13.535987 -31.295929 -20.198202 0
M  V30 37 H -15.640623 -35.559937 -18.692352 0
M  V30 38 H -16.871866 -33.412075 -18.506548 0
M  V30 39 H -15.819530 -31.296577 -19.232512 0
M  V30 40 H -10.669828 -37.336834 -19.368376 0
M  V30 41 H -12.057853 -37.712925 -19.961624 0
M  V30 42 H -10.330162 -38.619820 -21.943655 0
M  V30 43 H -11.575160 -38.832932 -21.035601 0
M  V30 44 H -12.962158 -38.004837 -21.291830 0
M  V30 45 H -13.302277 -35.597340 -22.663710 0
M  V30 46 H -11.810613 -36.010841 -22.508938 0
M  V30 47 H -15.766908 -44.244354 -21.677069 0
M  V30 48 H -14.890187 -39.240093 -25.600746 0
M  V30 49 H -14.315430 -40.425137 -26.822218 0
M  V30 50 H -16.032122 -39.896343 -26.822218 0
M  V30 51 H -16.089857 -45.028572 -18.139250 0
M  V30 52 H -17.036428 -44.396500 -19.199667 0
M  V30 53 H -18.736921 -46.152126 -17.870747 0
M  V30 54 H -18.430281 -44.742043 -18.451809 0
M  V30 55 H -19.781889 -45.115040 -20.400118 0
M  V30 56 H -18.420212 -44.443825 -20.060553 0
M  V30 57 H -17.743259 -46.838230 -21.438404 0
M  V30 58 H -17.708742 -43.837749 -24.874741 0
M  V30 59 H -17.087391 -42.046734 -26.486362 0
M  V30 60 H -11.960250 -37.589001 -21.597250 0
M  V30 61 H -12.549500 -38.504002 -22.041500 0
M  V30 62 H -12.539500 -38.493999 -22.031500 0
M  V30 63 H -13.128750 -39.409000 -22.475750 0
M  V30 64 H -13.118750 -39.398998 -22.465750 0
M  V30 END ATOM
M  V30 BEGIN BOND
M  V30 1 2 2 1
M  V30 2 1 2 7
M  V30 3 1 2 3
M  V30 4 2 3 8
M  V30 5 1 3 4
M  V30 6 1 4 5
M  V30 7 2 4 9
M  V30 8 1 6 5 CFG=1
M  V30 9 1 6 7
M  V30 10 1 6 15
M  V30 11 1 6 12
M  V30 12 1 8 11
M  V30 13 1 9 10
M  V30 14 2 10 11
M  V30 15 1 12 13
M  V30 16 1 13 14
M  V30 17 1 14 15
M  V30 18 1 18 17
M  V30 19 2 17 16
M  V30 20 1 20 21
M  V30 21 1 20 24
M  V30 22 1 21 22
M  V30 23 1 22 23
M  V30 24 1 23 24
M  V30 25 1 24 17
M  V30 26 2 25 30
M  V30 27 1 25 26
M  V30 28 1 26 18
M  V30 29 2 26 27
M  V30 30 1 27 28
M  V30 31 2 28 29
M  V30 32 1 29 19
M  V30 33 1 29 30
M  V30 34 1 31 14
M  V30 35 1 32 31
M  V30 36 1 33 32
M  V30 37 1 33 28
M  V30 38 1 5 34
M  V30 39 1 7 35
M  V30 40 1 8 36
M  V30 41 1 9 37
M  V30 42 1 10 38
M  V30 43 1 11 39
M  V30 44 1 12 40
M  V30 45 1 12 41
M  V30 46 1 13 42
M  V30 47 1 13 43
M  V30 48 1 14 44 CFG=3
M  V30 49 1 15 45
M  V30 50 1 15 46
M  V30 51 1 18 47
M  V30 52 1 19 48
M  V30 53 1 19 49
M  V30 54 1 19 50
M  V30 55 1 21 51
M  V30 56 1 21 52
M  V30 57 1 22 53
M  V30 58 1 22 54
M  V30 59 1 23 55
M  V30 60 1 23 56
M  V30 61 1 24 57 CFG=3
M  V30 62 1 25 58
M  V30 63 1 30 59
M  V30 64 1 31 60
M  V30 65 1 32 61
M  V30 66 1 32 62
M  V30 67 1 33 63
M  V30 68 1 33 64
M  V30 END BOND
M  V30 BEGIN COLLECTION
M  V30 MDLV30/STEABS ATOMS=(0)
M  V30 END COLLECTION
M  V30 END CTAB
M  END
>  <smiles>  (294) 
[H]c1c(N([H])C(=O)[C@@]2([H])OC([H])([H])C([H])([H])C2([H])[H])nc(C([H])([H])C([H])([H])N([H])[C@]2([H])C([H])([H])C([H])([H])[C@@]3(N([H])C(=O)c4c([H])c([H])c([H])c([H])c4N3[H])C2([H])[H])c(C([H])([H])[H])c1[H]

>  <error>  (294) 


>  <∆∆G>  (294) 
nan

>  <∆G_bound>  (294) 
nan

>  <∆G_unbound>  (294) 
nan

>  <comRMSD>  (294) 
0.0

>  <N_constrained_atoms>  (294) 
30.0

>  <N_unconstrained_atoms>  (294) 
3.0

>  <runtime>  (294) 
2.397529

>  <regarded>  (294) 
['d1196a', 'd0254a']

>  <disregarded>  (294) 
[]

>  <LE>  (294) 
nan

>  <outcome>  (294) 
crashed

>  <percent_hybrid>  (294) 
50.0

$$$$

     RDKit          2D

  0  0  0  0  0  0  0  0  0  0999 V2000
M  END
>  <smiles>  (295) 
nan

>  <error>  (295) 
DistanceError 9.62 Å

>  <∆∆G>  (295) 
nan

>  <∆G_bound>  (295) 
nan

>  <∆G_unbound>  (295) 
nan

>  <comRMSD>  (295) 
nan

>  <N_constrained_atoms>  (295) 
nan

>  <N_unconstrained_atoms>  (295) 
nan

>  <runtime>  (295) 
nan

>  <regarded>  (295) 
[]

>  <disregarded>  (295) 
[]

>  <LE>  (295) 
nan

>  <outcome>  (295) 
too distant

>  <percent_hybrid>  (295) 
nan

$$$$

     RDKit          2D

  0  0  0  0  0  0  0  0  0  0999 V2000
M  END
>  <smiles>  (296) 
nan

>  <error>  (296) 
DistanceError 5.91 Å

>  <∆∆G>  (296) 
nan

>  <∆G_bound>  (296) 
nan

>  <∆G_unbound>  (296) 
nan

>  <comRMSD>  (296) 
nan

>  <N_constrained_atoms>  (296) 
nan

>  <N_unconstrained_atoms>  (296) 
nan

>  <runtime>  (296) 
nan

>  <regarded>  (296) 
[]

>  <disregarded>  (296) 
[]

>  <LE>  (296) 
nan

>  <outcome>  (296) 
too distant

>  <percent_hybrid>  (296) 
nan

$$$$
LIG
     RDKit          3D

 62 66  0  0  0  0  0  0  0  0999 V2000
  -11.7233  -32.5153  -20.4082 O   0  0  0  0  0  0  0  0  0  0  0  0
  -12.2035  -33.5500  -19.9565 C   0  0  0  0  0  0  0  0  0  0  0  0
  -13.4146  -33.5571  -19.1008 C   0  0  0  0  0  0  0  0  0  0  0  0
  -13.9165  -34.8003  -18.6901 C   0  0  0  0  0  0  0  0  0  0  0  0
  -13.2738  -35.9965  -19.0471 N   0  0  0  0  0  0  0  0  0  0  0  0
  -12.4872  -35.9496  -20.2754 C   0  0  1  0  0  0  0  0  0  0  0  0
  -11.6541  -34.7830  -20.2084 N   0  0  0  0  0  0  0  0  0  0  0  0
  -14.0090  -32.3655  -18.6748 C   0  0  0  0  0  0  0  0  0  0  0  0
  -14.9985  -34.8236  -17.8032 C   0  0  0  0  0  0  0  0  0  0  0  0
  -15.5994  -33.6344  -17.3806 C   0  0  0  0  0  0  0  0  0  0  0  0
  -15.1071  -32.4068  -17.8172 C   0  0  0  0  0  0  0  0  0  0  0  0
  -11.6679  -37.2532  -20.4085 C   0  0  0  0  0  0  0  0  0  0  0  0
  -12.2545  -38.0033  -21.6111 C   0  0  0  0  0  0  0  0  0  0  0  0
  -13.6518  -37.4126  -21.7872 C   0  0  1  0  0  0  0  0  0  0  0  0
  -13.3999  -35.9349  -21.5141 C   0  0  0  0  0  0  0  0  0  0  0  0
  -14.9160  -46.2230  -19.2961 F   0  0  0  0  0  0  0  0  0  0  0  0
  -17.7575  -38.1952  -24.4227 C   0  0  0  0  0  0  0  0  0  0  0  0
  -17.1629  -37.3018  -24.8981 O   0  0  0  0  0  0  0  0  0  0  0  0
  -19.1712  -38.5302  -24.4941 N   0  0  0  0  0  0  0  0  0  0  0  0
  -15.1298  -45.1783  -20.1062 C   0  0  0  0  0  0  0  0  0  0  0  0
  -16.3290  -45.0905  -20.7960 C   0  0  0  0  0  0  0  0  0  0  0  0
  -16.5521  -44.0133  -21.6568 C   0  0  0  0  0  0  0  0  0  0  0  0
  -15.5898  -43.0065  -21.8189 C   0  0  0  0  0  0  0  0  0  0  0  0
  -14.3696  -43.1512  -21.1322 C   0  0  0  0  0  0  0  0  0  0  0  0
  -14.1375  -44.2261  -20.2761 C   0  0  0  0  0  0  0  0  0  0  0  0
  -16.8502  -41.8510  -23.6044 C   0  0  0  0  0  0  0  0  0  0  0  0
  -15.7871  -41.8714  -22.6092 N   0  0  0  0  0  0  0  0  0  0  0  0
  -15.8023  -40.6360  -21.8306 C   0  0  0  0  0  0  0  0  0  0  0  0
  -15.9713  -39.4389  -22.7957 C   0  0  2  0  0  0  0  0  0  0  0  0
  -17.3147  -39.2433  -23.5093 N   0  0  0  0  0  0  0  0  0  0  0  0
  -16.8202  -40.4748  -24.3141 C   0  0  0  0  0  0  0  0  0  0  0  0
  -14.2207  -37.5788  -23.1128 N   0  0  0  0  0  0  0  0  0  0  0  0
  -14.6244  -38.9550  -23.4578 C   0  0  0  0  0  0  0  0  0  0  0  0
  -13.8786  -36.8062  -18.9632 H   0  0  0  0  0  0  0  0  0  0  0  0
  -10.7920  -34.7984  -20.7425 H   0  0  0  0  0  0  0  0  0  0  0  0
  -13.6003  -31.4058  -18.9644 H   0  0  0  0  0  0  0  0  0  0  0  0
  -15.3756  -35.7674  -17.4186 H   0  0  0  0  0  0  0  0  0  0  0  0
  -16.4303  -33.6605  -16.6779 H   0  0  0  0  0  0  0  0  0  0  0  0
  -15.5573  -31.4848  -17.4524 H   0  0  0  0  0  0  0  0  0  0  0  0
  -10.6005  -37.0709  -20.5760 H   0  0  0  0  0  0  0  0  0  0  0  0
  -11.7486  -37.8753  -19.5086 H   0  0  0  0  0  0  0  0  0  0  0  0
  -11.6351  -37.8123  -22.4969 H   0  0  0  0  0  0  0  0  0  0  0  0
  -12.2713  -39.0853  -21.4455 H   0  0  0  0  0  0  0  0  0  0  0  0
  -14.3267  -37.8106  -21.0199 H   0  0  0  0  0  0  0  0  0  0  0  0
  -14.3375  -35.3857  -21.3720 H   0  0  0  0  0  0  0  0  0  0  0  0
  -12.8783  -35.4710  -22.3632 H   0  0  0  0  0  0  0  0  0  0  0  0
  -19.3231  -39.4503  -24.0518 H   0  0  0  0  0  0  0  0  0  0  0  0
  -19.3637  -39.3213  -23.8580 H   0  0  0  0  0  0  0  0  0  0  0  0
  -17.0860  -45.8565  -20.6634 H   0  0  0  0  0  0  0  0  0  0  0  0
  -17.5061  -43.9710  -22.1716 H   0  0  0  0  0  0  0  0  0  0  0  0
  -13.5684  -42.4314  -21.2851 H   0  0  0  0  0  0  0  0  0  0  0  0
  -13.1792  -44.3318  -19.7772 H   0  0  0  0  0  0  0  0  0  0  0  0
  -17.8374  -41.9841  -23.1445 H   0  0  0  0  0  0  0  0  0  0  0  0
  -16.6937  -42.6441  -24.3449 H   0  0  0  0  0  0  0  0  0  0  0  0
  -16.6436  -40.6513  -21.1231 H   0  0  0  0  0  0  0  0  0  0  0  0
  -14.8819  -40.5029  -21.2495 H   0  0  0  0  0  0  0  0  0  0  0  0
  -16.1369  -38.6432  -22.0507 H   0  0  0  0  0  0  0  0  0  0  0  0
  -15.9332  -40.3236  -24.9379 H   0  0  0  0  0  0  0  0  0  0  0  0
  -17.5898  -40.5809  -25.0961 H   0  0  0  0  0  0  0  0  0  0  0  0
  -15.0399  -36.9719  -23.2560 H   0  0  0  0  0  0  0  0  0  0  0  0
  -14.6992  -38.9504  -24.5466 H   0  0  0  0  0  0  0  0  0  0  0  0
  -13.8117  -39.6511  -23.2219 H   0  0  0  0  0  0  0  0  0  0  0  0
  2  1  2  0
  2  7  1  0
  2  3  1  0
  3  8  2  0
  3  4  1  0
  4  5  1  0
  4  9  2  0
  6  5  1  1
  6  7  1  0
  6 15  1  0
  6 12  1  0
  8 11  1  0
  9 10  1  0
 10 11  2  0
 12 13  1  0
 13 14  1  0
 14 15  1  0
 19 17  1  0
 18 17  2  0
 20 25  2  0
 20 16  1  0
 20 21  1  0
 21 22  2  0
 22 23  1  0
 23 27  1  0
 23 24  2  0
 24 25  1  0
 26 31  1  0
 26 27  1  0
 27 28  1  0
 28 29  1  0
 29 30  1  0
 30 17  1  0
 30 31  1  0
 32 14  1  0
 33 32  1  0
 33 29  1  0
  5 34  1  0
  7 35  1  0
  8 36  1  0
  9 37  1  0
 10 38  1  0
 11 39  1  0
 12 40  1  0
 12 41  1  0
 13 42  1  0
 13 43  1  0
 14 44  1  1
 15 45  1  0
 15 46  1  0
 19 47  1  0
 19 48  1  0
 21 49  1  0
 22 50  1  0
 24 51  1  0
 25 52  1  0
 26 53  1  0
 26 54  1  0
 28 55  1  0
 28 56  1  0
 29 57  1  6
 31 58  1  0
 31 59  1  0
 32 60  1  0
 33 61  1  0
 33 62  1  0
M  END
>  <smiles>  (297) 
[H]c1c([H])c([H])c2c(c1[H])C(=O)N([H])[C@]1(N2[H])C([H])([H])C([H])([H])[C@]([H])(N([H])C([H])([H])[C@]2([H])N(C(=O)N([H])[H])C([H])([H])C([H])([H])N(c3c([H])c([H])c(F)c([H])c3[H])C2([H])[H])C1([H])[H]

>  <error>  (297) 


>  <∆∆G>  (297) 
81.490282

>  <∆G_bound>  (297) 
450.261251

>  <∆G_unbound>  (297) 
368.770969

>  <comRMSD>  (297) 
1.568755

>  <N_constrained_atoms>  (297) 
31.0

>  <N_unconstrained_atoms>  (297) 
2.0

>  <runtime>  (297) 
11.264116

>  <regarded>  (297) 
['d1196a', 'd0612a']

>  <disregarded>  (297) 
[]

>  <LE>  (297) 
-2.469402

>  <outcome>  (297) 
too moved

>  <percent_hybrid>  (297) 
49.0

$$$$
LIG
     RDKit          3D

  0  0  0  0  0  0  0  0  0  0999 V3000
M  V30 BEGIN CTAB
M  V30 COUNTS 60 64 0 0 0
M  V30 BEGIN ATOM
M  V30 1 O -11.370000 -32.450001 -20.969999 0
M  V30 2 C -11.950000 -33.465000 -20.601000 0
M  V30 3 C -13.292000 -33.436001 -19.997999 0
M  V30 4 C -13.877000 -34.640999 -19.552999 0
M  V30 5 N -13.139000 -35.812000 -19.618000 0
M  V30 6 C -12.110000 -35.952000 -20.645000 0 CFG=1
M  V30 7 N -11.382000 -34.679001 -20.705000 0
M  V30 8 C -13.994000 -32.241001 -19.871000 0
M  V30 9 C -15.168000 -34.624001 -19.025000 0
M  V30 10 C -15.853000 -33.424000 -18.921000 0
M  V30 11 C -15.268000 -32.243000 -19.333000 0
M  V30 12 C -11.190000 -37.138000 -20.316999 0
M  V30 13 C -11.152000 -37.980999 -21.587999 0
M  V30 14 C -12.451000 -37.754002 -22.233000 0 CFG=1
M  V30 15 C -12.749000 -36.279999 -22.002001 0
M  V30 16 F -18.671000 -43.808998 -24.667000 0
M  V30 17 N -14.914000 -40.875000 -24.797001 0
M  V30 18 C -15.278000 -40.210999 -26.035999 0
M  V30 19 C -18.740000 -36.407001 -24.548000 0
M  V30 20 C -17.525000 -43.327000 -24.115999 0
M  V30 21 C -16.809000 -42.383999 -24.802999 0
M  V30 22 C -15.659000 -41.882999 -24.202999 0
M  V30 23 C -15.299000 -42.398998 -22.957001 0
M  V30 24 N -16.009001 -43.330002 -22.305000 0
M  V30 25 C -17.125000 -43.785000 -22.886000 0
M  V30 26 C -17.368999 -38.930000 -26.771000 0
M  V30 27 N -18.275000 -37.955002 -26.407000 0
M  V30 28 C -17.968000 -37.487000 -25.233000 0
M  V30 29 S -16.566000 -38.206001 -24.499001 0
M  V30 30 C -16.382999 -39.214001 -25.896000 0
M  V30 31 N -13.066750 -38.534252 -22.874001 0
M  V30 32 C -13.682500 -39.314499 -23.514999 0
M  V30 33 C -14.298250 -40.094749 -24.156000 0
M  V30 34 H -13.314224 -36.575504 -18.949228 0
M  V30 35 H -10.361188 -34.718678 -20.836409 0
M  V30 36 H -13.535987 -31.295929 -20.198202 0
M  V30 37 H -15.640623 -35.559937 -18.692352 0
M  V30 38 H -16.871866 -33.412075 -18.506548 0
M  V30 39 H -15.819530 -31.296577 -19.232512 0
M  V30 40 H -10.669828 -37.336834 -19.368376 0
M  V30 41 H -12.057853 -37.712925 -19.961624 0
M  V30 42 H -10.330162 -38.619820 -21.943655 0
M  V30 43 H -11.575160 -38.832932 -21.035601 0
M  V30 44 H -12.962158 -38.004837 -21.291830 0
M  V30 45 H -13.302277 -35.597340 -22.663710 0
M  V30 46 H -11.810613 -36.010841 -22.508938 0
M  V30 47 H -14.389636 -39.689297 -26.421532 0
M  V30 48 H -15.642880 -40.993107 -26.718033 0
M  V30 49 H -18.652939 -36.528793 -23.458237 0
M  V30 50 H -18.337093 -35.426186 -24.840683 0
M  V30 51 H -19.798428 -36.470768 -24.840683 0
M  V30 52 H -17.132032 -42.034840 -25.794834 0
M  V30 53 H -14.381091 -42.020233 -22.483734 0
M  V30 54 H -17.733498 -44.540707 -22.367695 0
M  V30 55 H -17.447775 -39.453907 -27.735010 0
M  V30 56 H -12.016750 -37.484253 -21.823999 0
M  V30 57 H -12.622499 -38.254501 -22.455000 0
M  V30 58 H -12.612500 -38.244499 -22.445000 0
M  V30 59 H -13.218249 -39.014751 -23.076000 0
M  V30 60 H -13.208250 -39.004749 -23.066000 0
M  V30 END ATOM
M  V30 BEGIN BOND
M  V30 1 2 2 1
M  V30 2 1 2 7
M  V30 3 1 2 3
M  V30 4 2 3 8
M  V30 5 1 3 4
M  V30 6 1 4 5
M  V30 7 2 4 9
M  V30 8 1 6 5 CFG=1
M  V30 9 1 6 7
M  V30 10 1 6 15
M  V30 11 1 6 12
M  V30 12 1 8 11
M  V30 13 1 9 10
M  V30 14 2 10 11
M  V30 15 1 12 13
M  V30 16 1 13 14
M  V30 17 1 14 15
M  V30 18 1 18 17
M  V30 19 2 20 25
M  V30 20 1 20 16
M  V30 21 1 20 21
M  V30 22 2 21 22
M  V30 23 1 22 17
M  V30 24 1 22 23
M  V30 25 2 23 24
M  V30 26 1 24 25
M  V30 27 1 26 27
M  V30 28 2 26 30
M  V30 29 2 27 28
M  V30 30 1 28 19
M  V30 31 1 28 29
M  V30 32 1 29 30
M  V30 33 1 30 18
M  V30 34 1 31 14
M  V30 35 1 32 31
M  V30 36 1 33 32
M  V30 37 1 33 17
M  V30 38 1 5 34
M  V30 39 1 7 35
M  V30 40 1 8 36
M  V30 41 1 9 37
M  V30 42 1 10 38
M  V30 43 1 11 39
M  V30 44 1 12 40
M  V30 45 1 12 41
M  V30 46 1 13 42
M  V30 47 1 13 43
M  V30 48 1 14 44 CFG=1
M  V30 49 1 15 45
M  V30 50 1 15 46
M  V30 51 1 18 47
M  V30 52 1 18 48
M  V30 53 1 19 49
M  V30 54 1 19 50
M  V30 55 1 19 51
M  V30 56 1 21 52
M  V30 57 1 23 53
M  V30 58 1 25 54
M  V30 59 1 26 55
M  V30 60 1 31 56
M  V30 61 1 32 57
M  V30 62 1 32 58
M  V30 63 1 33 59
M  V30 64 1 33 60
M  V30 END BOND
M  V30 BEGIN COLLECTION
M  V30 MDLV30/STEABS ATOMS=(0)
M  V30 END COLLECTION
M  V30 END CTAB
M  END
>  <smiles>  (298) 
[H]c1nc(C([H])([H])[H])sc1C([H])([H])N(c1c([H])nc([H])c(F)c1[H])C([H])([H])C([H])([H])N([H])[C@@]1([H])C([H])([H])C([H])([H])[C@@]2(N([H])C(=O)c3c([H])c([H])c([H])c([H])c3N2[H])C1([H])[H]

>  <error>  (298) 


>  <∆∆G>  (298) 
nan

>  <∆G_bound>  (298) 
nan

>  <∆G_unbound>  (298) 
nan

>  <comRMSD>  (298) 
0.0

>  <N_constrained_atoms>  (298) 
30.0

>  <N_unconstrained_atoms>  (298) 
3.0

>  <runtime>  (298) 
1.91241

>  <regarded>  (298) 
['d1196a', 'd0615b']

>  <disregarded>  (298) 
[]

>  <LE>  (298) 
nan

>  <outcome>  (298) 
crashed

>  <percent_hybrid>  (298) 
50.0

$$$$
LIG
     RDKit          3D

  0  0  0  0  0  0  0  0  0  0999 V3000
M  V30 BEGIN CTAB
M  V30 COUNTS 65 68 0 0 0
M  V30 BEGIN ATOM
M  V30 1 O -11.370000 -32.450001 -20.969999 0
M  V30 2 C -11.950000 -33.465000 -20.601000 0
M  V30 3 C -13.292000 -33.436001 -19.997999 0
M  V30 4 C -13.877000 -34.640999 -19.552999 0
M  V30 5 N -13.139000 -35.812000 -19.618000 0
M  V30 6 C -12.110000 -35.952000 -20.645000 0 CFG=1
M  V30 7 N -11.382000 -34.679001 -20.705000 0
M  V30 8 C -13.994000 -32.241001 -19.871000 0
M  V30 9 C -15.168000 -34.624001 -19.025000 0
M  V30 10 C -15.853000 -33.424000 -18.921000 0
M  V30 11 C -15.268000 -32.243000 -19.333000 0
M  V30 12 C -11.190000 -37.138000 -20.316999 0
M  V30 13 C -11.152000 -37.980999 -21.587999 0
M  V30 14 C -12.451000 -37.754002 -22.233000 0 CFG=1
M  V30 15 C -12.749000 -36.279999 -22.002001 0
M  V30 16 O -19.445000 -40.158001 -24.528000 0
M  V30 17 S -18.933001 -39.846001 -25.825001 0
M  V30 18 O -18.877001 -38.480999 -26.240999 0
M  V30 19 C -19.827000 -40.765999 -27.018000 0
M  V30 20 C -16.511999 -41.500999 -27.914000 0
M  V30 21 C -15.906000 -38.516998 -25.243999 0 CFG=1
M  V30 22 O -16.229000 -38.262001 -26.598000 0
M  V30 23 N -17.393000 -40.395000 -25.853001 0
M  V30 24 C -17.198999 -41.683998 -26.573000 0 CFG=2
M  V30 25 C -16.566000 -42.779999 -25.714001 0
M  V30 26 C -15.991000 -42.259998 -24.402000 0
M  V30 27 C -15.366000 -40.882000 -24.551001 0
M  V30 28 C -16.459999 -39.863998 -24.820000 0 CFG=1
M  V30 29 N -13.314751 -37.944752 -22.985750 0
M  V30 30 C -14.178500 -38.135498 -23.738499 0
M  V30 31 C -15.042250 -38.326248 -24.491249 0
M  V30 32 H -13.314224 -36.575504 -18.949228 0
M  V30 33 H -10.361188 -34.718678 -20.836409 0
M  V30 34 H -13.535987 -31.295929 -20.198202 0
M  V30 35 H -15.640623 -35.559937 -18.692352 0
M  V30 36 H -16.871866 -33.412075 -18.506548 0
M  V30 37 H -15.819530 -31.296577 -19.232512 0
M  V30 38 H -10.669828 -37.336834 -19.368376 0
M  V30 39 H -12.057853 -37.712925 -19.961624 0
M  V30 40 H -10.330162 -38.619820 -21.943655 0
M  V30 41 H -11.575160 -38.832932 -21.035601 0
M  V30 42 H -12.359227 -38.845993 -22.137440 0
M  V30 43 H -13.302277 -35.597340 -22.663710 0
M  V30 44 H -11.810613 -36.010841 -22.508938 0
M  V30 45 H -20.506313 -41.465069 -26.508259 0
M  V30 46 H -20.412142 -40.079388 -27.647423 0
M  V30 47 H -19.123901 -41.331223 -27.647423 0
M  V30 48 H -15.460629 -41.220943 -27.752167 0
M  V30 49 H -16.557558 -42.442596 -28.480846 0
M  V30 50 H -17.019920 -40.706833 -28.480846 0
M  V30 51 H -16.198587 -37.458149 -25.187138 0
M  V30 52 H -17.005259 -37.649174 -26.642309 0
M  V30 53 H -18.210634 -42.054550 -26.795010 0
M  V30 54 H -16.529486 -43.837841 -26.013391 0
M  V30 55 H -15.597886 -42.607105 -26.206812 0
M  V30 56 H -16.024343 -42.818214 -23.454750 0
M  V30 57 H -15.023324 -42.724831 -24.641865 0
M  V30 58 H -14.291663 -40.658054 -24.475843 0
M  V30 59 H -15.255508 -41.049068 -25.632610 0
M  V30 60 H -17.003857 -39.699589 -23.878094 0
M  V30 61 H -12.214750 -36.844749 -21.885750 0
M  V30 62 H -13.068501 -37.025501 -22.628500 0
M  V30 63 H -13.058500 -37.015499 -22.618500 0
M  V30 64 H -13.912251 -37.196251 -23.361250 0
M  V30 65 H -13.902250 -37.186249 -23.351250 0
M  V30 END ATOM
M  V30 BEGIN BOND
M  V30 1 2 2 1
M  V30 2 1 2 7
M  V30 3 1 2 3
M  V30 4 2 3 8
M  V30 5 1 3 4
M  V30 6 1 4 5
M  V30 7 2 4 9
M  V30 8 1 6 5 CFG=1
M  V30 9 1 6 7
M  V30 10 1 6 15
M  V30 11 1 6 12
M  V30 12 1 8 11
M  V30 13 1 9 10
M  V30 14 2 10 11
M  V30 15 1 12 13
M  V30 16 1 13 14
M  V30 17 1 14 15
M  V30 18 1 22 21
M  V30 19 1 19 17
M  V30 20 2 18 17
M  V30 21 2 17 16
M  V30 22 1 23 28
M  V30 23 1 23 17
M  V30 24 1 23 24
M  V30 25 1 24 20
M  V30 26 1 24 25
M  V30 27 1 25 26
M  V30 28 1 26 27
M  V30 29 1 27 28
M  V30 30 1 28 21
M  V30 31 1 29 14
M  V30 32 1 30 29
M  V30 33 1 31 30
M  V30 34 1 31 21
M  V30 35 1 5 32
M  V30 36 1 7 33
M  V30 37 1 8 34
M  V30 38 1 9 35
M  V30 39 1 10 36
M  V30 40 1 11 37
M  V30 41 1 12 38
M  V30 42 1 12 39
M  V30 43 1 13 40
M  V30 44 1 13 41
M  V30 45 1 14 42 CFG=1
M  V30 46 1 15 43
M  V30 47 1 15 44
M  V30 48 1 19 45
M  V30 49 1 19 46
M  V30 50 1 19 47
M  V30 51 1 20 48
M  V30 52 1 20 49
M  V30 53 1 20 50
M  V30 54 1 21 51 CFG=1
M  V30 55 1 22 52
M  V30 56 1 24 53 CFG=3
M  V30 57 1 25 54
M  V30 58 1 25 55
M  V30 59 1 26 56
M  V30 60 1 26 57
M  V30 61 1 27 58
M  V30 62 1 27 59
M  V30 63 1 28 60 CFG=1
M  V30 64 1 29 61
M  V30 65 1 30 62
M  V30 66 1 30 63
M  V30 67 1 31 64
M  V30 68 1 31 65
M  V30 END BOND
M  V30 BEGIN COLLECTION
M  V30 MDLV30/STEABS ATOMS=(0)
M  V30 END COLLECTION
M  V30 END CTAB
M  END
>  <smiles>  (299) 
[H]O[C@]([H])(C([H])([H])C([H])([H])N([H])[C@@]1([H])C([H])([H])C([H])([H])[C@@]2(N([H])C(=O)c3c([H])c([H])c([H])c([H])c3N2[H])C1([H])[H])[C@@]1([H])N(S(=O)(=O)C([H])([H])[H])[C@@]([H])(C([H])([H])[H])C([H])([H])C([H])([H])C1([H])[H]

>  <error>  (299) 


>  <∆∆G>  (299) 
nan

>  <∆G_bound>  (299) 
nan

>  <∆G_unbound>  (299) 
nan

>  <comRMSD>  (299) 
0.0

>  <N_constrained_atoms>  (299) 
28.0

>  <N_unconstrained_atoms>  (299) 
3.0

>  <runtime>  (299) 
1.977082

>  <regarded>  (299) 
['d1196a', 'd0851a']

>  <disregarded>  (299) 
[]

>  <LE>  (299) 
nan

>  <outcome>  (299) 
crashed

>  <percent_hybrid>  (299) 
47.0

$$$$
LIG
     RDKit          3D

  0  0  0  0  0  0  0  0  0  0999 V3000
M  V30 BEGIN CTAB
M  V30 COUNTS 75 79 0 0 0
M  V30 BEGIN ATOM
M  V30 1 O -11.370000 -32.450001 -20.969999 0
M  V30 2 C -11.950000 -33.465000 -20.601000 0
M  V30 3 C -13.292000 -33.436001 -19.997999 0
M  V30 4 C -13.877000 -34.640999 -19.552999 0
M  V30 5 N -13.139000 -35.812000 -19.618000 0
M  V30 6 C -12.110000 -35.952000 -20.645000 0 CFG=1
M  V30 7 N -11.382000 -34.679001 -20.705000 0
M  V30 8 C -13.994000 -32.241001 -19.871000 0
M  V30 9 C -15.168000 -34.624001 -19.025000 0
M  V30 10 C -15.853000 -33.424000 -18.921000 0
M  V30 11 C -15.268000 -32.243000 -19.333000 0
M  V30 12 C -11.190000 -37.138000 -20.316999 0
M  V30 13 C -11.152000 -37.980999 -21.587999 0
M  V30 14 C -12.451000 -37.754002 -22.233000 0 CFG=2
M  V30 15 C -12.749000 -36.279999 -22.002001 0
M  V30 16 O -19.218000 -37.455002 -26.510000 0
M  V30 17 C -18.440001 -37.272999 -25.589001 0
M  V30 18 C -18.801001 -40.066002 -25.077000 0
M  V30 19 S -16.291000 -41.674000 -23.726000 0
M  V30 20 O -16.832001 -41.215000 -22.487000 0
M  V30 21 O -16.914000 -42.779999 -24.382999 0
M  V30 22 C -14.601000 -42.066002 -23.476999 0
M  V30 23 C -18.129000 -36.304001 -23.285000 0
M  V30 24 C -19.089001 -35.396999 -22.541000 0
M  V30 25 C -19.528999 -34.411999 -23.573999 0
M  V30 26 C -19.582001 -35.196999 -24.878000 0
M  V30 27 N -18.677000 -36.332001 -24.648001 0
M  V30 28 C -17.472000 -39.426998 -24.688999 0 CFG=2
M  V30 29 C -17.184000 -38.118999 -25.462000 0 CFG=1
M  V30 30 C -16.631001 -38.435001 -26.855000 0
M  V30 31 C -15.402000 -39.325001 -26.764999 0
M  V30 32 C -15.742000 -40.634998 -26.099001 0
M  V30 33 N -16.350000 -40.417999 -24.764000 0
M  V30 34 N -12.988501 -38.832001 -22.543999 0
M  V30 35 C -13.526000 -39.910004 -22.855000 0
M  V30 36 C -14.063499 -40.988003 -23.166000 0
M  V30 37 H -13.314224 -36.575504 -18.949228 0
M  V30 38 H -10.361188 -34.718678 -20.836409 0
M  V30 39 H -13.535987 -31.295929 -20.198202 0
M  V30 40 H -15.640623 -35.559937 -18.692352 0
M  V30 41 H -16.871866 -33.412075 -18.506548 0
M  V30 42 H -15.819530 -31.296577 -19.232512 0
M  V30 43 H -10.669828 -37.336834 -19.368376 0
M  V30 44 H -12.057853 -37.712925 -19.961624 0
M  V30 45 H -10.330162 -38.619820 -21.943655 0
M  V30 46 H -11.575160 -38.832932 -21.035601 0
M  V30 47 H -13.107838 -37.620228 -23.105164 0
M  V30 48 H -13.302277 -35.597340 -22.663710 0
M  V30 49 H -11.810613 -36.010841 -22.508938 0
M  V30 50 H -19.358402 -40.334011 -24.167343 0
M  V30 51 H -19.390856 -39.353043 -25.671778 0
M  V30 52 H -18.612473 -40.971924 -25.671778 0
M  V30 53 H -14.489917 -42.801506 -22.666632 0
M  V30 54 H -14.143929 -42.512802 -24.372240 0
M  V30 55 H -17.236740 -36.817654 -22.897661 0
M  V30 56 H -18.745884 -37.175060 -23.019085 0
M  V30 57 H -19.391558 -35.451595 -21.484838 0
M  V30 58 H -18.252964 -34.736572 -22.267363 0
M  V30 59 H -19.764292 -33.347851 -23.424904 0
M  V30 60 H -18.478930 -34.151901 -23.773256 0
M  V30 61 H -20.163443 -34.967476 -25.783123 0
M  V30 62 H -18.740808 -34.605370 -25.268347 0
M  V30 63 H -17.554789 -39.120125 -23.635920 0
M  V30 64 H -16.433901 -37.548752 -24.894400 0
M  V30 65 H -17.065676 -38.066658 -27.795946 0
M  V30 66 H -15.989086 -37.543270 -26.802460 0
M  V30 67 H -14.402679 -39.051491 -27.134527 0
M  V30 68 H -15.158585 -38.889721 -25.784552 0
M  V30 69 H -15.562118 -41.623852 -26.546005 0
M  V30 70 H -14.742798 -40.660843 -25.639732 0
M  V30 71 H -11.788500 -37.632000 -21.344000 0
M  V30 72 H -12.316000 -38.700001 -21.645000 0
M  V30 73 H -12.306000 -38.690002 -21.635000 0
M  V30 74 H -12.833500 -39.758003 -21.935999 0
M  V30 75 H -12.823500 -39.748001 -21.925999 0
M  V30 END ATOM
M  V30 BEGIN BOND
M  V30 1 2 2 1
M  V30 2 1 2 7
M  V30 3 1 2 3
M  V30 4 2 3 8
M  V30 5 1 3 4
M  V30 6 1 4 5
M  V30 7 2 4 9
M  V30 8 1 6 5 CFG=1
M  V30 9 1 6 7
M  V30 10 1 6 15
M  V30 11 1 6 12
M  V30 12 1 8 11
M  V30 13 1 9 10
M  V30 14 2 10 11
M  V30 15 1 12 13
M  V30 16 1 13 14
M  V30 17 1 14 15
M  V30 18 2 20 19
M  V30 19 1 22 19
M  V30 20 2 21 19
M  V30 21 2 17 16
M  V30 22 1 23 24
M  V30 23 1 23 27
M  V30 24 1 24 25
M  V30 25 1 25 26
M  V30 26 1 26 27
M  V30 27 1 27 17
M  V30 28 1 28 18
M  V30 29 1 28 33
M  V30 30 1 28 29
M  V30 31 1 29 30
M  V30 32 1 29 17
M  V30 33 1 30 31
M  V30 34 1 31 32
M  V30 35 1 32 33
M  V30 36 1 33 19
M  V30 37 1 34 14
M  V30 38 1 35 34
M  V30 39 1 36 35
M  V30 40 1 36 22
M  V30 41 1 5 37
M  V30 42 1 7 38
M  V30 43 1 8 39
M  V30 44 1 9 40
M  V30 45 1 10 41
M  V30 46 1 11 42
M  V30 47 1 12 43
M  V30 48 1 12 44
M  V30 49 1 13 45
M  V30 50 1 13 46
M  V30 51 1 14 47 CFG=3
M  V30 52 1 15 48
M  V30 53 1 15 49
M  V30 54 1 18 50
M  V30 55 1 18 51
M  V30 56 1 18 52
M  V30 57 1 22 53
M  V30 58 1 22 54
M  V30 59 1 23 55
M  V30 60 1 23 56
M  V30 61 1 24 57
M  V30 62 1 24 58
M  V30 63 1 25 59
M  V30 64 1 25 60
M  V30 65 1 26 61
M  V30 66 1 26 62
M  V30 67 1 28 63 CFG=1
M  V30 68 1 29 64 CFG=1
M  V30 69 1 30 65
M  V30 70 1 30 66
M  V30 71 1 31 67
M  V30 72 1 31 68
M  V30 73 1 32 69
M  V30 74 1 32 70
M  V30 75 1 34 71
M  V30 76 1 35 72
M  V30 77 1 35 73
M  V30 78 1 36 74
M  V30 79 1 36 75
M  V30 END BOND
M  V30 BEGIN COLLECTION
M  V30 MDLV30/STEABS ATOMS=(0)
M  V30 END COLLECTION
M  V30 END CTAB
M  END
>  <smiles>  (300) 
[H]c1c([H])c([H])c2c(c1[H])C(=O)N([H])[C@]1(N2[H])C([H])([H])C([H])([H])[C@@]([H])(N([H])C([H])([H])C([H])([H])C([H])([H])S(=O)(=O)N2C([H])([H])C([H])([H])C([H])([H])[C@@]([H])(C(=O)N3C([H])([H])C([H])([H])C([H])([H])C3([H])[H])[C@@]2([H])C([H])([H])[H])C1([H])[H]

>  <error>  (300) 


>  <∆∆G>  (300) 
nan

>  <∆G_bound>  (300) 
nan

>  <∆G_unbound>  (300) 
nan

>  <comRMSD>  (300) 
0.0

>  <N_constrained_atoms>  (300) 
33.0

>  <N_unconstrained_atoms>  (300) 
3.0

>  <runtime>  (300) 
2.119547

>  <regarded>  (300) 
['d1196a', 'd0866a']

>  <disregarded>  (300) 
[]

>  <LE>  (300) 
nan

>  <outcome>  (300) 
crashed

>  <percent_hybrid>  (300) 
46.0

$$$$

     RDKit          2D

  0  0  0  0  0  0  0  0  0  0999 V2000
M  END
>  <smiles>  (301) 
nan

>  <error>  (301) 
DistanceError 6.86 Å

>  <∆∆G>  (301) 
nan

>  <∆G_bound>  (301) 
nan

>  <∆G_unbound>  (301) 
nan

>  <comRMSD>  (301) 
nan

>  <N_constrained_atoms>  (301) 
nan

>  <N_unconstrained_atoms>  (301) 
nan

>  <runtime>  (301) 
nan

>  <regarded>  (301) 
[]

>  <disregarded>  (301) 
[]

>  <LE>  (301) 
nan

>  <outcome>  (301) 
too distant

>  <percent_hybrid>  (301) 
nan

$$$$
LIG
     RDKit          3D

 39 41  0  0  0  0  0  0  0  0999 V2000
  -11.5944  -32.7022  -20.7628 O   0  0  0  0  0  0  0  0  0  0  0  0
  -15.0670  -40.6539  -20.3775 O   0  0  0  0  0  0  0  0  0  0  0  0
  -14.5944  -41.0281  -21.3765 C   0  0  0  0  0  0  0  0  0  0  0  0
  -14.5029  -42.4905  -21.7578 C   0  0  0  0  0  0  0  0  0  0  0  0
  -13.9065  -40.2382  -22.5208 N   0  0  0  0  0  0  0  0  0  0  0  0
  -13.7452  -38.8203  -22.7121 C   0  0  0  0  0  0  0  0  0  0  0  0
  -12.1048  -33.7477  -20.3712 C   0  0  0  0  0  0  0  0  0  0  0  0
  -13.3889  -33.7628  -19.6472 C   0  0  0  0  0  0  0  0  0  0  0  0
  -13.8198  -34.9846  -19.1230 C   0  0  0  0  0  0  0  0  0  0  0  0
  -13.0542  -36.1598  -19.2499 N   0  0  0  0  0  0  0  0  0  0  0  0
  -12.1806  -36.2168  -20.4190 C   0  0  1  0  0  0  0  0  0  0  0  0
  -11.4952  -34.9633  -20.5247 N   0  0  0  0  0  0  0  0  0  0  0  0
  -14.0887  -32.5820  -19.3880 C   0  0  0  0  0  0  0  0  0  0  0  0
  -14.9564  -35.0022  -18.3112 C   0  0  0  0  0  0  0  0  0  0  0  0
  -15.6489  -33.8234  -18.0323 C   0  0  0  0  0  0  0  0  0  0  0  0
  -15.2049  -32.6128  -18.5573 C   0  0  0  0  0  0  0  0  0  0  0  0
  -11.1926  -37.4011  -20.2694 C   0  0  0  0  0  0  0  0  0  0  0  0
  -11.7243  -38.5312  -21.1589 C   0  0  0  0  0  0  0  0  0  0  0  0
  -13.1509  -38.1147  -21.5037 C   0  0  1  0  0  0  0  0  0  0  0  0
  -13.0059  -36.5970  -21.6636 C   0  0  0  0  0  0  0  0  0  0  0  0
  -14.8530  -42.6431  -22.7826 H   0  0  0  0  0  0  0  0  0  0  0  0
  -15.1380  -43.0789  -21.0891 H   0  0  0  0  0  0  0  0  0  0  0  0
  -13.4692  -42.8313  -21.6581 H   0  0  0  0  0  0  0  0  0  0  0  0
  -13.5354  -40.8875  -23.2054 H   0  0  0  0  0  0  0  0  0  0  0  0
  -13.1101  -38.6928  -23.5896 H   0  0  0  0  0  0  0  0  0  0  0  0
  -14.7359  -38.4119  -22.9363 H   0  0  0  0  0  0  0  0  0  0  0  0
  -12.5070  -36.2660  -18.3967 H   0  0  0  0  0  0  0  0  0  0  0  0
  -10.5727  -34.9742  -20.9513 H   0  0  0  0  0  0  0  0  0  0  0  0
  -13.7468  -31.6352  -19.7789 H   0  0  0  0  0  0  0  0  0  0  0  0
  -15.2922  -35.9394  -17.8719 H   0  0  0  0  0  0  0  0  0  0  0  0
  -16.5112  -33.8466  -17.3692 H   0  0  0  0  0  0  0  0  0  0  0  0
  -15.7140  -31.6931  -18.2817 H   0  0  0  0  0  0  0  0  0  0  0  0
  -10.1795  -37.1454  -20.5989 H   0  0  0  0  0  0  0  0  0  0  0  0
  -11.1096  -37.7412  -19.2303 H   0  0  0  0  0  0  0  0  0  0  0  0
  -11.1119  -38.6095  -22.0651 H   0  0  0  0  0  0  0  0  0  0  0  0
  -11.6866  -39.4986  -20.6480 H   0  0  0  0  0  0  0  0  0  0  0  0
  -13.7935  -38.3168  -20.6362 H   0  0  0  0  0  0  0  0  0  0  0  0
  -13.9805  -36.1006  -21.7169 H   0  0  0  0  0  0  0  0  0  0  0  0
  -12.4566  -36.3546  -22.5812 H   0  0  0  0  0  0  0  0  0  0  0  0
  4  3  1  0
  3  2  2  0
  5  3  1  0
  6  5  1  0
  7  1  2  0
  7 12  1  0
  7  8  1  0
  8 13  2  0
  8  9  1  0
  9 10  1  0
  9 14  2  0
 11 10  1  1
 11 12  1  0
 11 20  1  0
 11 17  1  0
 13 16  1  0
 14 15  1  0
 15 16  2  0
 17 18  1  0
 18 19  1  0
 19 20  1  0
  6 19  1  0
  4 21  1  0
  4 22  1  0
  4 23  1  0
  5 24  1  0
  6 25  1  0
  6 26  1  0
 10 27  1  0
 12 28  1  0
 13 29  1  0
 14 30  1  0
 15 31  1  0
 16 32  1  0
 17 33  1  0
 17 34  1  0
 18 35  1  0
 18 36  1  0
 19 37  1  1
 20 38  1  0
 20 39  1  0
M  END
>  <smiles>  (302) 
[H]c1c([H])c([H])c2c(c1[H])C(=O)N([H])[C@]1(N2[H])C([H])([H])C([H])([H])[C@]([H])(C([H])([H])N([H])C(=O)C([H])([H])[H])C1([H])[H]

>  <error>  (302) 


>  <∆∆G>  (302) 
-49.349465

>  <∆G_bound>  (302) 
165.336514

>  <∆G_unbound>  (302) 
214.685979

>  <comRMSD>  (302) 
1.235577

>  <N_constrained_atoms>  (302) 
20.0

>  <N_unconstrained_atoms>  (302) 
0.0

>  <runtime>  (302) 
3.19194

>  <regarded>  (302) 
['d1196a', 'z0103a']

>  <disregarded>  (302) 
[]

>  <LE>  (302) 
2.467473

>  <outcome>  (302) 
too moved

>  <percent_hybrid>  (302) 
25.0

$$$$

     RDKit          2D

  0  0  0  0  0  0  0  0  0  0999 V2000
M  END
>  <smiles>  (303) 
nan

>  <error>  (303) 
DistanceError 9.68 Å

>  <∆∆G>  (303) 
nan

>  <∆G_bound>  (303) 
nan

>  <∆G_unbound>  (303) 
nan

>  <comRMSD>  (303) 
nan

>  <N_constrained_atoms>  (303) 
nan

>  <N_unconstrained_atoms>  (303) 
nan

>  <runtime>  (303) 
nan

>  <regarded>  (303) 
[]

>  <disregarded>  (303) 
[]

>  <LE>  (303) 
nan

>  <outcome>  (303) 
too distant

>  <percent_hybrid>  (303) 
nan

$$$$
LIG
     RDKit          3D

 39 41  0  0  0  0  0  0  0  0999 V2000
  -11.4825  -32.5986  -20.5944 O   0  0  0  0  0  0  0  0  0  0  0  0
  -19.2793  -34.2362  -20.1892 O   0  0  0  0  0  0  0  0  0  0  0  0
  -18.4829  -34.4860  -21.3315 C   0  0  0  0  0  0  0  0  0  0  0  0
  -11.9773  -33.6561  -20.2178 C   0  0  0  0  0  0  0  0  0  0  0  0
  -13.4277  -33.8126  -20.0111 C   0  0  0  0  0  0  0  0  0  0  0  0
  -13.8693  -35.0551  -19.5328 C   0  0  0  0  0  0  0  0  0  0  0  0
  -12.9573  -36.0844  -19.2294 N   0  0  0  0  0  0  0  0  0  0  0  0
  -11.8449  -36.0999  -20.1652 C   0  0  0  0  0  0  0  0  0  0  0  0
  -11.2442  -34.8039  -20.0630 N   0  0  0  0  0  0  0  0  0  0  0  0
  -14.3161  -32.8696  -20.5179 C   0  0  0  0  0  0  0  0  0  0  0  0
  -15.2222  -35.3373  -19.5280 C   0  0  0  0  0  0  0  0  0  0  0  0
  -16.0775  -34.5234  -20.2799 C   0  0  0  0  0  0  0  0  0  0  0  0
  -15.6373  -33.2585  -20.7108 C   0  0  0  0  0  0  0  0  0  0  0  0
  -10.8907  -37.2461  -19.8120 C   0  0  0  0  0  0  0  0  0  0  0  0
  -11.4254  -38.4769  -20.5524 C   0  0  0  0  0  0  0  0  0  0  0  0
  -12.4100  -37.9712  -21.6012 C   0  0  0  0  0  0  0  0  0  0  0  0
  -12.2480  -36.4607  -21.6060 C   0  0  0  0  0  0  0  0  0  0  0  0
  -17.2332  -35.2671  -20.9405 C   0  0  2  0  0  0  0  0  0  0  0  0
  -16.6374  -35.9126  -22.2011 C   0  0  0  0  0  0  0  0  0  0  0  0
  -19.6269  -35.0846  -19.8647 H   0  0  0  0  0  0  0  0  0  0  0  0
  -19.1027  -35.0598  -22.0299 H   0  0  0  0  0  0  0  0  0  0  0  0
  -18.2532  -33.5347  -21.8180 H   0  0  0  0  0  0  0  0  0  0  0  0
  -13.4014  -36.9864  -19.0938 H   0  0  0  0  0  0  0  0  0  0  0  0
  -10.2817  -34.7511  -20.3688 H   0  0  0  0  0  0  0  0  0  0  0  0
  -13.9589  -31.9301  -20.9251 H   0  0  0  0  0  0  0  0  0  0  0  0
  -15.5599  -36.3177  -19.1980 H   0  0  0  0  0  0  0  0  0  0  0  0
  -16.2699  -32.6286  -21.3289 H   0  0  0  0  0  0  0  0  0  0  0  0
   -9.8768  -37.0456  -20.1752 H   0  0  0  0  0  0  0  0  0  0  0  0
  -10.8132  -37.4266  -18.7340 H   0  0  0  0  0  0  0  0  0  0  0  0
  -10.6054  -39.0365  -21.0131 H   0  0  0  0  0  0  0  0  0  0  0  0
  -11.9308  -39.1579  -19.8585 H   0  0  0  0  0  0  0  0  0  0  0  0
  -12.2194  -38.4051  -22.5875 H   0  0  0  0  0  0  0  0  0  0  0  0
  -13.4325  -38.2415  -21.3127 H   0  0  0  0  0  0  0  0  0  0  0  0
  -13.1474  -35.9624  -21.9791 H   0  0  0  0  0  0  0  0  0  0  0  0
  -11.4295  -36.1964  -22.2830 H   0  0  0  0  0  0  0  0  0  0  0  0
  -17.5548  -36.0673  -20.2594 H   0  0  0  0  0  0  0  0  0  0  0  0
  -15.7873  -36.5648  -21.9701 H   0  0  0  0  0  0  0  0  0  0  0  0
  -17.3856  -36.5351  -22.7050 H   0  0  0  0  0  0  0  0  0  0  0  0
  -16.2946  -35.1598  -22.9209 H   0  0  0  0  0  0  0  0  0  0  0  0
  3  2  1  0
  4  1  2  0
  4  9  1  0
  4  5  1  0
  5 10  2  0
  5  6  1  0
  6  7  1  0
  6 11  2  0
  7  8  1  0
  8  9  1  0
  8 17  1  0
  8 14  1  0
 10 13  1  0
 11 12  1  0
 12 13  2  0
 14 15  1  0
 15 16  1  0
 16 17  1  0
 18  3  1  0
 18 19  1  0
 12 18  1  0
  2 20  1  0
  3 21  1  0
  3 22  1  0
  7 23  1  0
  9 24  1  0
 10 25  1  0
 11 26  1  0
 13 27  1  0
 14 28  1  0
 14 29  1  0
 15 30  1  0
 15 31  1  0
 16 32  1  0
 16 33  1  0
 17 34  1  0
 17 35  1  0
 18 36  1  1
 19 37  1  0
 19 38  1  0
 19 39  1  0
M  END
>  <smiles>  (304) 
[H]OC([H])([H])[C@]([H])(c1c([H])c([H])c2c(c1[H])N([H])C1(N([H])C2=O)C([H])([H])C([H])([H])C([H])([H])C1([H])[H])C([H])([H])[H]

>  <error>  (304) 


>  <∆∆G>  (304) 
-18.832471

>  <∆G_bound>  (304) 
169.774627

>  <∆G_unbound>  (304) 
188.607098

>  <comRMSD>  (304) 
0.964725

>  <N_constrained_atoms>  (304) 
19.0

>  <N_unconstrained_atoms>  (304) 
0.0

>  <runtime>  (304) 
0.924985

>  <regarded>  (304) 
['d1196a', 'z0821a']

>  <disregarded>  (304) 
[]

>  <LE>  (304) 
0.991183

>  <outcome>  (304) 
acceptable

>  <percent_hybrid>  (304) 
22.0

$$$$
LIG
     RDKit          3D

  0  0  0  0  0  0  0  0  0  0999 V3000
M  V30 BEGIN CTAB
M  V30 COUNTS 39 42 0 0 0
M  V30 BEGIN ATOM
M  V30 1 O -11.370000 -32.450001 -20.969999 0
M  V30 2 C -11.950000 -33.465000 -20.601000 0
M  V30 3 C -13.292000 -33.436001 -19.997999 0
M  V30 4 C -13.877000 -34.640999 -19.552999 0
M  V30 5 N -13.139000 -35.812000 -19.618000 0
M  V30 6 C -12.110000 -35.952000 -20.645000 0 CFG=1
M  V30 7 N -11.382000 -34.679001 -20.705000 0
M  V30 8 C -13.994000 -32.241001 -19.871000 0
M  V30 9 C -15.168000 -34.624001 -19.025000 0
M  V30 10 C -15.853000 -33.424000 -18.921000 0
M  V30 11 C -15.268000 -32.243000 -19.333000 0
M  V30 12 C -11.190000 -37.138000 -20.316999 0
M  V30 13 C -11.152000 -37.980999 -21.587999 0
M  V30 14 C -12.451000 -37.754002 -22.233000 0 CFG=2
M  V30 15 C -12.749000 -36.279999 -22.002001 0
M  V30 16 N -13.297000 -44.498001 -20.850000 0
M  V30 17 C -12.948000 -43.432999 -21.100000 0
M  V30 18 C -12.567000 -42.085999 -21.440001 0
M  V30 19 C -13.246000 -41.202000 -22.230000 0
M  V30 20 N -12.548000 -40.040001 -22.191999 0
M  V30 21 C -11.474000 -40.242001 -21.403000 0
M  V30 22 N -11.428000 -41.477001 -20.927000 0
M  V30 23 N -12.499500 -38.897003 -22.212500 0
M  V30 24 H -13.314224 -36.575504 -18.949228 0
M  V30 25 H -10.361188 -34.718678 -20.836409 0
M  V30 26 H -13.535987 -31.295929 -20.198202 0
M  V30 27 H -15.640623 -35.559937 -18.692352 0
M  V30 28 H -16.871866 -33.412075 -18.506548 0
M  V30 29 H -15.819530 -31.296577 -19.232512 0
M  V30 30 H -10.669828 -37.336834 -19.368376 0
M  V30 31 H -12.057853 -37.712925 -19.961624 0
M  V30 32 H -10.330162 -38.619820 -21.943655 0
M  V30 33 H -11.575160 -38.832932 -21.035601 0
M  V30 34 H -13.234921 -37.530010 -22.971439 0
M  V30 35 H -13.302277 -35.597340 -22.663710 0
M  V30 36 H -11.810613 -36.010841 -22.508938 0
M  V30 37 H -14.174971 -41.394699 -22.786671 0
M  V30 38 H -10.722527 -39.470219 -21.180201 0
M  V30 39 H -11.619500 -38.017002 -21.332500 0
M  V30 END ATOM
M  V30 BEGIN BOND
M  V30 1 2 2 1
M  V30 2 1 2 7
M  V30 3 1 2 3
M  V30 4 2 3 8
M  V30 5 1 3 4
M  V30 6 1 4 5
M  V30 7 2 4 9
M  V30 8 1 6 5 CFG=1
M  V30 9 1 6 7
M  V30 10 1 6 15
M  V30 11 1 6 12
M  V30 12 1 8 11
M  V30 13 1 9 10
M  V30 14 2 10 11
M  V30 15 1 12 13
M  V30 16 1 13 14
M  V30 17 1 14 15
M  V30 18 3 17 16
M  V30 19 1 18 17
M  V30 20 2 18 19
M  V30 21 1 18 22
M  V30 22 1 19 20
M  V30 23 1 20 21
M  V30 24 2 21 22
M  V30 25 1 23 14
M  V30 26 1 23 20
M  V30 27 1 5 24
M  V30 28 1 7 25
M  V30 29 1 8 26
M  V30 30 1 9 27
M  V30 31 1 10 28
M  V30 32 1 11 29
M  V30 33 1 12 30
M  V30 34 1 12 31
M  V30 35 1 13 32
M  V30 36 1 13 33
M  V30 37 1 14 34 CFG=3
M  V30 38 1 15 35
M  V30 39 1 15 36
M  V30 40 1 19 37
M  V30 41 1 21 38
M  V30 42 1 23 39
M  V30 END BOND
M  V30 BEGIN COLLECTION
M  V30 MDLV30/STEABS ATOMS=(0)
M  V30 END COLLECTION
M  V30 END CTAB
M  END
>  <smiles>  (305) 
[H]c1c([H])c([H])c2c(c1[H])C(=O)N([H])[C@]1(N2[H])C([H])([H])C([H])([H])[C@@]([H])(N([H])n2c([H])nc(C#N)c2[H])C1([H])[H]

>  <error>  (305) 


>  <∆∆G>  (305) 
nan

>  <∆G_bound>  (305) 
nan

>  <∆G_unbound>  (305) 
nan

>  <comRMSD>  (305) 
0.0

>  <N_constrained_atoms>  (305) 
22.0

>  <N_unconstrained_atoms>  (305) 
1.0

>  <runtime>  (305) 
1.083719

>  <regarded>  (305) 
['d1196a', 'z0875c']

>  <disregarded>  (305) 
[]

>  <LE>  (305) 
nan

>  <outcome>  (305) 
crashed

>  <percent_hybrid>  (305) 
32.0

$$$$
LIG
     RDKit          3D

 87 92  0  0  0  0  0  0  0  0999 V2000
  -11.6132  -32.5772  -20.6992 O   0  0  0  0  0  0  0  0  0  0  0  0
  -12.0991  -33.6448  -20.3401 C   0  0  0  0  0  0  0  0  0  0  0  0
  -13.3860  -33.7290  -19.6308 C   0  0  0  0  0  0  0  0  0  0  0  0
  -13.7952  -34.9821  -19.1475 C   0  0  0  0  0  0  0  0  0  0  0  0
  -13.0212  -36.1650  -19.3504 N   0  0  0  0  0  0  0  0  0  0  0  0
  -12.1569  -36.0920  -20.5504 C   0  0  0  0  0  0  0  0  0  0  0  0
  -11.4677  -34.8354  -20.5351 N   0  0  0  0  0  0  0  0  0  0  0  0
  -14.1029  -32.5634  -19.3394 C   0  0  0  0  0  0  0  0  0  0  0  0
  -14.9785  -35.0296  -18.3955 C   0  0  0  0  0  0  0  0  0  0  0  0
  -15.6883  -33.8664  -18.0871 C   0  0  0  0  0  0  0  0  0  0  0  0
  -15.2369  -32.6323  -18.5396 C   0  0  0  0  0  0  0  0  0  0  0  0
  -11.1443  -37.2485  -20.7152 C   0  0  0  0  0  0  0  0  0  0  0  0
  -11.8386  -38.3604  -21.4998 C   0  0  0  0  0  0  0  0  0  0  0  0
  -13.1927  -37.8007  -21.8993 C   0  0  0  0  0  0  0  0  0  0  0  0
  -13.0239  -36.2890  -21.8135 C   0  0  0  0  0  0  0  0  0  0  0  0
  -13.7172  -41.8221  -18.8252 O   0  0  0  0  0  0  0  0  0  0  0  0
  -15.9363  -43.5625  -14.2482 O   0  0  0  0  0  0  0  0  0  0  0  0
  -14.2943  -38.0436  -16.2115 O   0  0  0  0  0  0  0  0  0  0  0  0
  -19.4896  -46.2823  -24.5804 C   0  0  0  0  0  0  0  0  0  0  0  0
  -20.1182  -46.4490  -25.5911 C   0  0  0  0  0  0  0  0  0  0  0  0
  -20.8672  -46.6701  -26.8250 C   0  0  0  0  0  0  0  0  0  0  0  0
  -14.3442  -44.2930  -16.9175 O   0  0  0  0  0  0  0  0  0  0  0  0
  -15.2040  -43.6228  -17.3439 C   0  0  0  0  0  0  0  0  0  0  0  0
  -16.2841  -42.7736  -16.6051 N   0  0  0  0  0  0  0  0  0  0  0  0
  -16.4882  -42.4664  -15.0027 S   0  0  0  0  0  0  0  0  0  0  0  0
  -17.8167  -41.9231  -14.8310 O   0  0  0  0  0  0  0  0  0  0  0  0
  -13.9854  -38.5060  -17.5322 C   0  0  0  0  0  0  0  0  0  0  0  0
  -12.3403  -42.0230  -19.1353 C   0  0  0  0  0  0  0  0  0  0  0  0
  -15.5901  -43.4925  -22.9471 O   0  0  0  0  0  0  0  0  0  0  0  0
  -14.4081  -43.2288  -23.6809 C   0  0  0  0  0  0  0  0  0  0  0  0
  -21.9553  -45.7604  -26.9150 O   0  0  0  0  0  0  0  0  0  0  0  0
  -15.4968  -43.4711  -21.5801 C   0  0  0  0  0  0  0  0  0  0  0  0
  -14.5937  -42.6455  -20.9057 C   0  0  0  0  0  0  0  0  0  0  0  0
  -14.5309  -42.6770  -19.5163 C   0  0  0  0  0  0  0  0  0  0  0  0
  -15.3877  -43.5135  -18.8021 C   0  0  0  0  0  0  0  0  0  0  0  0
  -16.3168  -44.3279  -19.4599 C   0  0  0  0  0  0  0  0  0  0  0  0
  -16.3981  -44.2960  -20.8612 C   0  0  0  0  0  0  0  0  0  0  0  0
  -13.5800  -39.1104  -14.2199 C   0  0  0  0  0  0  0  0  0  0  0  0
  -13.6409  -40.1799  -13.3289 C   0  0  0  0  0  0  0  0  0  0  0  0
  -14.5387  -41.2124  -13.5657 C   0  0  0  0  0  0  0  0  0  0  0  0
  -15.3857  -41.1451  -14.6789 C   0  0  0  0  0  0  0  0  0  0  0  0
  -15.3633  -40.0695  -15.5480 C   0  0  0  0  0  0  0  0  0  0  0  0
  -14.4180  -39.0811  -15.3350 C   0  0  0  0  0  0  0  0  0  0  0  0
  -17.6725  -46.4900  -21.3575 C   0  0  0  0  0  0  0  0  0  0  0  0
  -18.5064  -47.0102  -22.3946 C   0  0  0  0  0  0  0  0  0  0  0  0
  -18.8004  -46.0599  -23.3486 C   0  0  0  0  0  0  0  0  0  0  0  0
  -18.3252  -44.5123  -22.8390 S   0  0  0  0  0  0  0  0  0  0  0  0
  -17.3658  -45.1572  -21.5617 C   0  0  0  0  0  0  0  0  0  0  0  0
  -12.3987  -36.5899  -18.0742 C   0  0  0  0  0  0  0  0  0  0  0  0
  -12.5576  -38.0971  -17.8630 C   0  0  0  0  0  0  0  0  0  0  0  0
  -10.5257  -34.8239  -20.9110 H   0  0  0  0  0  0  0  0  0  0  0  0
  -13.7586  -31.5974  -19.6800 H   0  0  0  0  0  0  0  0  0  0  0  0
  -15.3433  -35.9732  -18.0024 H   0  0  0  0  0  0  0  0  0  0  0  0
  -16.5714  -33.9251  -17.4541 H   0  0  0  0  0  0  0  0  0  0  0  0
  -15.7558  -31.7260  -18.2376 H   0  0  0  0  0  0  0  0  0  0  0  0
  -10.2979  -36.9145  -21.3267 H   0  0  0  0  0  0  0  0  0  0  0  0
  -10.6866  -37.6097  -19.7926 H   0  0  0  0  0  0  0  0  0  0  0  0
  -11.2508  -38.6169  -22.3882 H   0  0  0  0  0  0  0  0  0  0  0  0
  -11.9489  -39.2762  -20.9125 H   0  0  0  0  0  0  0  0  0  0  0  0
  -13.5012  -38.1403  -22.8906 H   0  0  0  0  0  0  0  0  0  0  0  0
  -13.9575  -38.1337  -21.1874 H   0  0  0  0  0  0  0  0  0  0  0  0
  -13.9938  -35.7824  -21.7817 H   0  0  0  0  0  0  0  0  0  0  0  0
  -12.4964  -35.9246  -22.7007 H   0  0  0  0  0  0  0  0  0  0  0  0
  -21.2397  -47.6944  -26.9118 H   0  0  0  0  0  0  0  0  0  0  0  0
  -20.2117  -46.4684  -27.6691 H   0  0  0  0  0  0  0  0  0  0  0  0
  -16.9291  -42.3793  -17.2836 H   0  0  0  0  0  0  0  0  0  0  0  0
  -14.0552  -39.5938  -17.6349 H   0  0  0  0  0  0  0  0  0  0  0  0
  -14.7070  -38.0820  -18.2355 H   0  0  0  0  0  0  0  0  0  0  0  0
  -11.7496  -41.4292  -18.4316 H   0  0  0  0  0  0  0  0  0  0  0  0
  -12.0717  -43.0747  -19.0018 H   0  0  0  0  0  0  0  0  0  0  0  0
  -12.0981  -41.6849  -20.1470 H   0  0  0  0  0  0  0  0  0  0  0  0
  -14.1926  -42.1568  -23.6842 H   0  0  0  0  0  0  0  0  0  0  0  0
  -13.5656  -43.8159  -23.3022 H   0  0  0  0  0  0  0  0  0  0  0  0
  -14.5899  -43.5289  -24.7146 H   0  0  0  0  0  0  0  0  0  0  0  0
  -22.7296  -46.2190  -26.5218 H   0  0  0  0  0  0  0  0  0  0  0  0
  -13.9573  -41.9593  -21.4528 H   0  0  0  0  0  0  0  0  0  0  0  0
  -16.9650  -44.9860  -18.8873 H   0  0  0  0  0  0  0  0  0  0  0  0
  -12.8694  -38.3053  -14.0551 H   0  0  0  0  0  0  0  0  0  0  0  0
  -12.9840  -40.2115  -12.4638 H   0  0  0  0  0  0  0  0  0  0  0  0
  -14.5764  -42.0587  -12.8827 H   0  0  0  0  0  0  0  0  0  0  0  0
  -16.0510  -40.0083  -16.3844 H   0  0  0  0  0  0  0  0  0  0  0  0
  -17.2480  -47.1005  -20.5699 H   0  0  0  0  0  0  0  0  0  0  0  0
  -18.8045  -48.0491  -22.4702 H   0  0  0  0  0  0  0  0  0  0  0  0
  -11.3329  -36.3281  -18.0754 H   0  0  0  0  0  0  0  0  0  0  0  0
  -12.8153  -36.0666  -17.2031 H   0  0  0  0  0  0  0  0  0  0  0  0
  -12.2431  -38.6607  -18.7410 H   0  0  0  0  0  0  0  0  0  0  0  0
  -11.8975  -38.3944  -17.0389 H   0  0  0  0  0  0  0  0  0  0  0  0
  2  1  2  0
  2  7  1  0
  2  3  1  0
  3  8  2  0
  3  4  1  0
  4  5  1  0
  4  9  2  0
  5  6  1  0
  6  7  1  0
  6 15  1  0
  6 12  1  0
  8 11  1  0
  9 10  1  0
 10 11  2  0
 12 13  1  0
 13 14  1  0
 14 15  1  0
 21 31  1  0
 21 20  1  0
 20 19  3  0
 29 30  1  0
 24 23  1  0
 24 25  1  0
 23 22  2  0
 17 25  2  0
 26 25  2  0
 16 28  1  0
 27 18  1  0
 32 37  2  0
 32 29  1  0
 32 33  1  0
 33 34  2  0
 34 35  1  0
 34 16  1  0
 35 36  2  0
 35 23  1  0
 36 37  1  0
 37 48  1  0
 38 43  2  0
 38 39  1  0
 39 40  2  0
 40 41  1  0
 41 25  1  0
 41 42  2  0
 42 43  1  0
 43 18  1  0
 44 45  1  0
 44 48  2  0
 45 46  2  0
 46 19  1  0
 46 47  1  0
 47 48  1  0
 49  5  1  0
 50 49  1  0
 50 27  1  0
  7 51  1  0
  8 52  1  0
  9 53  1  0
 10 54  1  0
 11 55  1  0
 12 56  1  0
 12 57  1  0
 13 58  1  0
 13 59  1  0
 14 60  1  0
 14 61  1  0
 15 62  1  0
 15 63  1  0
 21 64  1  0
 21 65  1  0
 24 66  1  0
 27 67  1  0
 27 68  1  0
 28 69  1  0
 28 70  1  0
 28 71  1  0
 30 72  1  0
 30 73  1  0
 30 74  1  0
 31 75  1  0
 33 76  1  0
 36 77  1  0
 38 78  1  0
 39 79  1  0
 40 80  1  0
 42 81  1  0
 44 82  1  0
 45 83  1  0
 49 84  1  0
 49 85  1  0
 50 86  1  0
 50 87  1  0
M  END
>  <smiles>  (306) 
[H]OC([H])([H])C#Cc1sc(-c2c([H])c(C(=O)N([H])S(=O)(=O)c3c([H])c([H])c([H])c(OC([H])([H])C([H])([H])C([H])([H])N4c5c([H])c([H])c([H])c([H])c5C(=O)N([H])C45C([H])([H])C([H])([H])C([H])([H])C5([H])[H])c3[H])c(OC([H])([H])[H])c([H])c2OC([H])([H])[H])c([H])c1[H]

>  <error>  (306) 


>  <∆∆G>  (306) 
-362.419984

>  <∆G_bound>  (306) 
50.014363

>  <∆G_unbound>  (306) 
412.434347

>  <comRMSD>  (306) 
0.659264

>  <N_constrained_atoms>  (306) 
48.0

>  <N_unconstrained_atoms>  (306) 
2.0

>  <runtime>  (306) 
14.090643

>  <regarded>  (306) 
['d1196a', '5i3p-a']

>  <disregarded>  (306) 
[]

>  <LE>  (306) 
7.2484

>  <outcome>  (306) 
acceptable

>  <percent_hybrid>  (306) 
32.0

$$$$
LIG
     RDKit          3D

  0  0  0  0  0  0  0  0  0  0999 V3000
M  V30 BEGIN CTAB
M  V30 COUNTS 58 62 0 0 0
M  V30 BEGIN ATOM
M  V30 1 O -11.370000 -32.450001 -20.969999 0
M  V30 2 C -11.950000 -33.465000 -20.601000 0
M  V30 3 C -13.292000 -33.436001 -19.997999 0
M  V30 4 C -13.877000 -34.640999 -19.552999 0
M  V30 5 N -13.139000 -35.812000 -19.618000 0
M  V30 6 C -12.110000 -35.952000 -20.645000 0 CFG=1
M  V30 7 N -11.382000 -34.679001 -20.705000 0
M  V30 8 C -13.994000 -32.241001 -19.871000 0
M  V30 9 C -15.168000 -34.624001 -19.025000 0
M  V30 10 C -15.853000 -33.424000 -18.921000 0
M  V30 11 C -15.268000 -32.243000 -19.333000 0
M  V30 12 C -11.190000 -37.138000 -20.316999 0
M  V30 13 C -11.152000 -37.980999 -21.587999 0
M  V30 14 C -12.451000 -37.754002 -22.233000 0 CFG=2
M  V30 15 C -12.749000 -36.279999 -22.002001 0
M  V30 16 O -12.915000 -39.988998 -21.322001 0
M  V30 17 O -15.092000 -40.324001 -21.309999 0
M  V30 18 C -13.912000 -40.751999 -21.268000 0
M  V30 19 C -13.628000 -42.243999 -21.202999 0
M  V30 20 O -17.378000 -45.675999 -18.625999 0
M  V30 21 C -16.489000 -44.841000 -19.246000 0
M  V30 22 C -15.599000 -44.064999 -18.492001 0
M  V30 23 C -14.680000 -43.231998 -19.141001 0
M  V30 24 C -14.654000 -43.130001 -20.540001 0
M  V30 25 C -15.497000 -43.917999 -21.339001 0
M  V30 26 C -16.443001 -44.769001 -20.743000 0
M  V30 27 C -18.603001 -47.646999 -22.007000 0
M  V30 28 C -17.684000 -46.908001 -21.254000 0
M  V30 29 C -17.409000 -45.562000 -21.568001 0
M  V30 30 C -18.075001 -44.958000 -22.642000 0
M  V30 31 C -18.973000 -45.709000 -23.403000 0
M  V30 32 C -19.254999 -47.042999 -23.087000 0
M  V30 33 N -12.683001 -38.871498 -21.777500 0
M  V30 34 H -13.314224 -36.575504 -18.949228 0
M  V30 35 H -10.361188 -34.718678 -20.836409 0
M  V30 36 H -13.535987 -31.295929 -20.198202 0
M  V30 37 H -15.640623 -35.559937 -18.692352 0
M  V30 38 H -16.871866 -33.412075 -18.506548 0
M  V30 39 H -15.819530 -31.296577 -19.232512 0
M  V30 40 H -10.669828 -37.336834 -19.368376 0
M  V30 41 H -12.057853 -37.712925 -19.961624 0
M  V30 42 H -10.330162 -38.619820 -21.943655 0
M  V30 43 H -11.575160 -38.832932 -21.035601 0
M  V30 44 H -12.956592 -37.657780 -23.205172 0
M  V30 45 H -13.302277 -35.597340 -22.663710 0
M  V30 46 H -11.810613 -36.010841 -22.508938 0
M  V30 47 H -13.507092 -42.599754 -22.236835 0
M  V30 48 H -12.736978 -42.327503 -20.563385 0
M  V30 49 H -17.416443 -45.712105 -17.637405 0
M  V30 50 H -15.622280 -44.110146 -17.393173 0
M  V30 51 H -13.965465 -42.646942 -18.543381 0
M  V30 52 H -15.416857 -43.869213 -22.434992 0
M  V30 53 H -18.811413 -48.696358 -21.751242 0
M  V30 54 H -17.169569 -47.383751 -20.406048 0
M  V30 55 H -17.892073 -43.900646 -22.883947 0
M  V30 56 H -19.468428 -45.243206 -24.267632 0
M  V30 57 H -19.983591 -47.611877 -23.683266 0
M  V30 58 H -11.613000 -37.801498 -20.707500 0
M  V30 END ATOM
M  V30 BEGIN BOND
M  V30 1 2 2 1
M  V30 2 1 2 7
M  V30 3 1 2 3
M  V30 4 2 3 8
M  V30 5 1 3 4
M  V30 6 1 4 5
M  V30 7 2 4 9
M  V30 8 1 6 5 CFG=1
M  V30 9 1 6 7
M  V30 10 1 6 15
M  V30 11 1 6 12
M  V30 12 1 8 11
M  V30 13 1 9 10
M  V30 14 2 10 11
M  V30 15 1 12 13
M  V30 16 1 13 14
M  V30 17 1 14 15
M  V30 18 1 19 18
M  V30 19 2 17 18
M  V30 20 1 18 16
M  V30 21 1 21 20
M  V30 22 2 21 26
M  V30 23 1 21 22
M  V30 24 2 22 23
M  V30 25 1 23 24
M  V30 26 2 24 25
M  V30 27 1 24 19
M  V30 28 1 25 26
M  V30 29 1 26 29
M  V30 30 2 27 32
M  V30 31 1 27 28
M  V30 32 2 28 29
M  V30 33 1 29 30
M  V30 34 2 30 31
M  V30 35 1 31 32
M  V30 36 1 33 14
M  V30 37 1 33 16
M  V30 38 1 5 34
M  V30 39 1 7 35
M  V30 40 1 8 36
M  V30 41 1 9 37
M  V30 42 1 10 38
M  V30 43 1 11 39
M  V30 44 1 12 40
M  V30 45 1 12 41
M  V30 46 1 13 42
M  V30 47 1 13 43
M  V30 48 1 14 44 CFG=3
M  V30 49 1 15 45
M  V30 50 1 15 46
M  V30 51 1 19 47
M  V30 52 1 19 48
M  V30 53 1 20 49
M  V30 54 1 22 50
M  V30 55 1 23 51
M  V30 56 1 25 52
M  V30 57 1 27 53
M  V30 58 1 28 54
M  V30 59 1 30 55
M  V30 60 1 31 56
M  V30 61 1 32 57
M  V30 62 1 33 58
M  V30 END BOND
M  V30 BEGIN COLLECTION
M  V30 MDLV30/STEABS ATOMS=(0)
M  V30 END COLLECTION
M  V30 END CTAB
M  END
>  <smiles>  (307) 
[H]Oc1c([H])c([H])c(C([H])([H])C(=O)ON([H])[C@]2([H])C([H])([H])C([H])([H])[C@@]3(N([H])C(=O)c4c([H])c([H])c([H])c([H])c4N3[H])C2([H])[H])c([H])c1-c1c([H])c([H])c([H])c([H])c1[H]

>  <error>  (307) 


>  <∆∆G>  (307) 
nan

>  <∆G_bound>  (307) 
nan

>  <∆G_unbound>  (307) 
nan

>  <comRMSD>  (307) 
0.0

>  <N_constrained_atoms>  (307) 
32.0

>  <N_unconstrained_atoms>  (307) 
1.0

>  <runtime>  (307) 
2.257452

>  <regarded>  (307) 
['d1196a', '5hn0-a']

>  <disregarded>  (307) 
[]

>  <LE>  (307) 
nan

>  <outcome>  (307) 
crashed

>  <percent_hybrid>  (307) 
47.0

$$$$

     RDKit          2D

  0  0  0  0  0  0  0  0  0  0999 V2000
M  END
>  <smiles>  (308) 
nan

>  <error>  (308) 
DistanceError 6.03 Å

>  <∆∆G>  (308) 
nan

>  <∆G_bound>  (308) 
nan

>  <∆G_unbound>  (308) 
nan

>  <comRMSD>  (308) 
nan

>  <N_constrained_atoms>  (308) 
nan

>  <N_unconstrained_atoms>  (308) 
nan

>  <runtime>  (308) 
nan

>  <regarded>  (308) 
[]

>  <disregarded>  (308) 
[]

>  <LE>  (308) 
nan

>  <outcome>  (308) 
too distant

>  <percent_hybrid>  (308) 
nan

$$$$

     RDKit          2D

  0  0  0  0  0  0  0  0  0  0999 V2000
M  END
>  <smiles>  (309) 
nan

>  <error>  (309) 
DistanceError 5.88 Å

>  <∆∆G>  (309) 
nan

>  <∆G_bound>  (309) 
nan

>  <∆G_unbound>  (309) 
nan

>  <comRMSD>  (309) 
nan

>  <N_constrained_atoms>  (309) 
nan

>  <N_unconstrained_atoms>  (309) 
nan

>  <runtime>  (309) 
nan

>  <regarded>  (309) 
[]

>  <disregarded>  (309) 
[]

>  <LE>  (309) 
nan

>  <outcome>  (309) 
too distant

>  <percent_hybrid>  (309) 
nan

$$$$
LIG
     RDKit          3D

  0  0  0  0  0  0  0  0  0  0999 V3000
M  V30 BEGIN CTAB
M  V30 COUNTS 66 70 0 0 0
M  V30 BEGIN ATOM
M  V30 1 O -11.370000 -32.450001 -20.969999 0
M  V30 2 C -11.950000 -33.465000 -20.601000 0
M  V30 3 C -13.292000 -33.436001 -19.997999 0
M  V30 4 C -13.877000 -34.640999 -19.552999 0
M  V30 5 N -13.139000 -35.812000 -19.618000 0
M  V30 6 C -12.110000 -35.952000 -20.645000 0 CFG=1
M  V30 7 N -11.382000 -34.679001 -20.705000 0
M  V30 8 C -13.994000 -32.241001 -19.871000 0
M  V30 9 C -15.168000 -34.624001 -19.025000 0
M  V30 10 C -15.853000 -33.424000 -18.921000 0
M  V30 11 C -15.268000 -32.243000 -19.333000 0
M  V30 12 C -11.190000 -37.138000 -20.316999 0
M  V30 13 C -11.152000 -37.980999 -21.587999 0
M  V30 14 C -12.451000 -37.754002 -22.233000 0 CFG=2
M  V30 15 C -12.749000 -36.279999 -22.002001 0
M  V30 16 C -13.690000 -42.074001 -20.951000 0
M  V30 17 O -15.174000 -40.219002 -21.278999 0
M  V30 18 O -16.215000 -43.769001 -14.703000 0
M  V30 19 O -17.056999 -42.785999 -16.427999 0
M  V30 20 C -19.658001 -46.481998 -24.120001 0
M  V30 21 C -20.148001 -46.591999 -25.188000 0
M  V30 22 C -20.650999 -46.667999 -26.565001 0
M  V30 23 O -13.298000 -39.838001 -20.284000 0
M  V30 24 C -14.091000 -40.618999 -20.823999 0
M  V30 25 C -15.292000 -44.382999 -16.797001 0
M  V30 26 C -16.254000 -43.592999 -15.932000 0
M  V30 27 O -22.000000 -46.228001 -26.608000 0
M  V30 28 C -14.653000 -43.035000 -20.296000 0
M  V30 29 C -14.571000 -43.235001 -18.920000 0
M  V30 30 C -15.446000 -44.119999 -18.285999 0
M  V30 31 C -16.372999 -44.848999 -19.045000 0
M  V30 32 C -16.485001 -44.644001 -20.429001 0
M  V30 33 C -15.578000 -43.769001 -21.061001 0
M  V30 34 C -18.764000 -47.269001 -22.021999 0
M  V30 35 C -18.990999 -46.293999 -22.979000 0
M  V30 36 S -18.068001 -44.875999 -22.716999 0
M  V30 37 C -17.452000 -45.486000 -21.207001 0
M  V30 38 C -17.916000 -46.797001 -21.004000 0
M  V30 39 N -12.874500 -38.796001 -21.258499 0
M  V30 40 H -13.314224 -36.575504 -18.949228 0
M  V30 41 H -10.361188 -34.718678 -20.836409 0
M  V30 42 H -13.535987 -31.295929 -20.198202 0
M  V30 43 H -15.640623 -35.559937 -18.692352 0
M  V30 44 H -16.871866 -33.412075 -18.506548 0
M  V30 45 H -15.819530 -31.296577 -19.232512 0
M  V30 46 H -10.669828 -37.336834 -19.368376 0
M  V30 47 H -12.057853 -37.712925 -19.961624 0
M  V30 48 H -10.330162 -38.619820 -21.943655 0
M  V30 49 H -11.575160 -38.832932 -21.035601 0
M  V30 50 H -12.789337 -37.849369 -23.275322 0
M  V30 51 H -13.302277 -35.597340 -22.663710 0
M  V30 52 H -11.810613 -36.010841 -22.508938 0
M  V30 53 H -13.626083 -42.323261 -22.020479 0
M  V30 54 H -12.726419 -42.185387 -20.432245 0
M  V30 55 H -16.830574 -43.267826 -14.111398 0
M  V30 56 H -20.594587 -47.708389 -26.917709 0
M  V30 57 H -20.037603 -46.024002 -27.212315 0
M  V30 58 H -14.265276 -44.119606 -16.502956 0
M  V30 59 H -15.517102 -45.447525 -16.635399 0
M  V30 60 H -22.340464 -46.116951 -25.685041 0
M  V30 61 H -13.815212 -42.694588 -18.331154 0
M  V30 62 H -17.019114 -45.589241 -18.550451 0
M  V30 63 H -15.593563 -43.659832 -22.155460 0
M  V30 64 H -19.191746 -48.281925 -22.053932 0
M  V30 65 H -17.640356 -47.400517 -20.126623 0
M  V30 66 H -11.724501 -37.646000 -20.108500 0
M  V30 END ATOM
M  V30 BEGIN BOND
M  V30 1 2 2 1
M  V30 2 1 2 7
M  V30 3 1 2 3
M  V30 4 2 3 8
M  V30 5 1 3 4
M  V30 6 1 4 5
M  V30 7 2 4 9
M  V30 8 1 6 5 CFG=1
M  V30 9 1 6 7
M  V30 10 1 6 15
M  V30 11 1 6 12
M  V30 12 1 8 11
M  V30 13 1 9 10
M  V30 14 2 10 11
M  V30 15 1 12 13
M  V30 16 1 13 14
M  V30 17 1 14 15
M  V30 18 1 27 22
M  V30 19 1 22 21
M  V30 20 3 21 20
M  V30 21 1 25 26
M  V30 22 2 19 26
M  V30 23 1 26 18
M  V30 24 1 16 24
M  V30 25 2 17 24
M  V30 26 1 24 23
M  V30 27 1 28 33
M  V30 28 2 28 29
M  V30 29 1 28 16
M  V30 30 1 29 30
M  V30 31 2 30 31
M  V30 32 1 30 25
M  V30 33 1 31 32
M  V30 34 1 32 37
M  V30 35 2 32 33
M  V30 36 2 34 35
M  V30 37 1 34 38
M  V30 38 1 35 20
M  V30 39 1 35 36
M  V30 40 1 36 37
M  V30 41 2 37 38
M  V30 42 1 39 14
M  V30 43 1 39 23
M  V30 44 1 5 40
M  V30 45 1 7 41
M  V30 46 1 8 42
M  V30 47 1 9 43
M  V30 48 1 10 44
M  V30 49 1 11 45
M  V30 50 1 12 46
M  V30 51 1 12 47
M  V30 52 1 13 48
M  V30 53 1 13 49
M  V30 54 1 14 50 CFG=3
M  V30 55 1 15 51
M  V30 56 1 15 52
M  V30 57 1 16 53
M  V30 58 1 16 54
M  V30 59 1 18 55
M  V30 60 1 22 56
M  V30 61 1 22 57
M  V30 62 1 25 58
M  V30 63 1 25 59
M  V30 64 1 27 60
M  V30 65 1 29 61
M  V30 66 1 31 62
M  V30 67 1 33 63
M  V30 68 1 34 64
M  V30 69 1 38 65
M  V30 70 1 39 66
M  V30 END BOND
M  V30 BEGIN COLLECTION
M  V30 MDLV30/STEABS ATOMS=(0)
M  V30 END COLLECTION
M  V30 END CTAB
M  END
>  <smiles>  (310) 
[H]OC(=O)C([H])([H])c1c([H])c(-c2sc(C#CC([H])([H])O[H])c([H])c2[H])c([H])c(C([H])([H])C(=O)ON([H])[C@]2([H])C([H])([H])C([H])([H])[C@@]3(N([H])C(=O)c4c([H])c([H])c([H])c([H])c4N3[H])C2([H])[H])c1[H]

>  <error>  (310) 


>  <∆∆G>  (310) 
nan

>  <∆G_bound>  (310) 
nan

>  <∆G_unbound>  (310) 
nan

>  <comRMSD>  (310) 
0.0

>  <N_constrained_atoms>  (310) 
38.0

>  <N_unconstrained_atoms>  (310) 
1.0

>  <runtime>  (310) 
2.601737

>  <regarded>  (310) 
['d1196a', '5hmy-a']

>  <disregarded>  (310) 
[]

>  <LE>  (310) 
nan

>  <outcome>  (310) 
crashed

>  <percent_hybrid>  (310) 
40.0

$$$$
LIG
     RDKit          3D

 52 56  0  0  0  0  0  0  0  0999 V2000
  -11.6448  -32.5614  -20.7166 O   0  0  0  0  0  0  0  0  0  0  0  0
  -12.1209  -33.6126  -20.2991 C   0  0  0  0  0  0  0  0  0  0  0  0
  -13.3959  -33.6508  -19.5509 C   0  0  0  0  0  0  0  0  0  0  0  0
  -13.8112  -34.8860  -19.0379 C   0  0  0  0  0  0  0  0  0  0  0  0
  -13.0334  -36.0391  -19.2113 N   0  0  0  0  0  0  0  0  0  0  0  0
  -12.1946  -36.0684  -20.4042 C   0  0  1  0  0  0  0  0  0  0  0  0
  -11.4975  -34.8201  -20.4671 N   0  0  0  0  0  0  0  0  0  0  0  0
  -14.1117  -32.4825  -19.2811 C   0  0  0  0  0  0  0  0  0  0  0  0
  -14.9428  -34.9222  -18.2179 C   0  0  0  0  0  0  0  0  0  0  0  0
  -15.6513  -33.7543  -17.9312 C   0  0  0  0  0  0  0  0  0  0  0  0
  -15.2276  -32.5353  -18.4514 C   0  0  0  0  0  0  0  0  0  0  0  0
  -11.2297  -37.2766  -20.3220 C   0  0  0  0  0  0  0  0  0  0  0  0
  -11.7044  -38.2725  -21.3854 C   0  0  0  0  0  0  0  0  0  0  0  0
  -13.1474  -37.8606  -21.6522 C   0  0  1  0  0  0  0  0  0  0  0  0
  -13.0461  -36.3403  -21.6578 C   0  0  0  0  0  0  0  0  0  0  0  0
  -18.4324  -38.5818  -24.9973 C   0  0  0  0  0  0  0  0  0  0  0  0
  -18.0617  -38.7597  -26.4449 C   0  0  0  0  0  0  0  0  0  0  0  0
  -18.7221  -38.2364  -27.3419 O   0  0  0  0  0  0  0  0  0  0  0  0
  -16.9343  -39.5378  -26.7131 O   0  0  0  0  0  0  0  0  0  0  0  0
  -15.5995  -44.5209  -21.5803 O   0  0  0  0  0  0  0  0  0  0  0  0
  -15.6912  -43.6709  -22.4557 C   0  0  0  0  0  0  0  0  0  0  0  0
  -14.9240  -42.5066  -22.4722 O   0  0  0  0  0  0  0  0  0  0  0  0
  -15.3393  -41.7320  -23.5632 C   0  0  0  0  0  0  0  0  0  0  0  0
  -16.3290  -42.2776  -24.3784 C   0  0  0  0  0  0  0  0  0  0  0  0
  -16.8704  -43.8180  -23.7588 S   0  0  0  0  0  0  0  0  0  0  0  0
  -16.3486  -40.3078  -25.6898 C   0  0  0  0  0  0  0  0  0  0  0  0
  -16.8447  -41.5836  -25.4562 C   0  0  0  0  0  0  0  0  0  0  0  0
  -14.8342  -40.4480  -23.7857 C   0  0  0  0  0  0  0  0  0  0  0  0
  -15.3203  -39.7592  -24.9109 C   0  0  0  0  0  0  0  0  0  0  0  0
  -13.7585  -38.3809  -22.8728 N   0  0  0  0  0  0  0  0  0  0  0  0
  -13.8648  -39.8497  -22.7981 C   0  0  0  0  0  0  0  0  0  0  0  0
  -13.5419  -36.8963  -19.0232 H   0  0  0  0  0  0  0  0  0  0  0  0
  -10.5709  -34.8320  -20.8814 H   0  0  0  0  0  0  0  0  0  0  0  0
  -13.7822  -31.5264  -19.6599 H   0  0  0  0  0  0  0  0  0  0  0  0
  -15.2615  -35.8548  -17.7593 H   0  0  0  0  0  0  0  0  0  0  0  0
  -16.5044  -33.7880  -17.2564 H   0  0  0  0  0  0  0  0  0  0  0  0
  -15.7475  -31.6239  -18.1658 H   0  0  0  0  0  0  0  0  0  0  0  0
  -10.1866  -37.0120  -20.5200 H   0  0  0  0  0  0  0  0  0  0  0  0
  -11.2561  -37.7464  -19.3311 H   0  0  0  0  0  0  0  0  0  0  0  0
  -11.1000  -38.1697  -22.2934 H   0  0  0  0  0  0  0  0  0  0  0  0
  -11.6130  -39.3063  -21.0376 H   0  0  0  0  0  0  0  0  0  0  0  0
  -13.7723  -38.1641  -20.8006 H   0  0  0  0  0  0  0  0  0  0  0  0
  -14.0330  -35.8653  -21.6369 H   0  0  0  0  0  0  0  0  0  0  0  0
  -12.5301  -35.9881  -22.5596 H   0  0  0  0  0  0  0  0  0  0  0  0
  -18.7280  -39.5326  -24.5491 H   0  0  0  0  0  0  0  0  0  0  0  0
  -17.6166  -38.1104  -24.4451 H   0  0  0  0  0  0  0  0  0  0  0  0
  -19.2946  -37.9090  -24.9378 H   0  0  0  0  0  0  0  0  0  0  0  0
  -17.6359  -41.9996  -26.0697 H   0  0  0  0  0  0  0  0  0  0  0  0
  -14.9520  -38.7715  -25.1657 H   0  0  0  0  0  0  0  0  0  0  0  0
  -14.7105  -38.0116  -22.9220 H   0  0  0  0  0  0  0  0  0  0  0  0
  -12.8808  -40.2990  -22.9378 H   0  0  0  0  0  0  0  0  0  0  0  0
  -14.2178  -40.1236  -21.7951 H   0  0  0  0  0  0  0  0  0  0  0  0
  2  1  2  0
  2  7  1  0
  2  3  1  0
  3  8  2  0
  3  4  1  0
  4  5  1  0
  4  9  2  0
  6  5  1  1
  6  7  1  0
  6 15  1  0
  6 12  1  0
  8 11  1  0
  9 10  1  0
 10 11  2  0
 12 13  1  0
 13 14  1  0
 14 15  1  0
 19 17  1  0
 17 18  2  0
 17 16  1  0
 21 22  1  0
 21 20  2  0
 21 25  1  0
 22 23  1  0
 23 28  1  0
 23 24  2  0
 24 25  1  0
 24 27  1  0
 26 29  1  0
 26 27  2  0
 26 19  1  0
 28 29  2  0
 30 14  1  0
 31 30  1  0
 31 28  1  0
  5 32  1  0
  7 33  1  0
  8 34  1  0
  9 35  1  0
 10 36  1  0
 11 37  1  0
 12 38  1  0
 12 39  1  0
 13 40  1  0
 13 41  1  0
 14 42  1  1
 15 43  1  0
 15 44  1  0
 16 45  1  0
 16 46  1  0
 16 47  1  0
 27 48  1  0
 29 49  1  0
 30 50  1  0
 31 51  1  0
 31 52  1  0
M  END
>  <smiles>  (311) 
[H]c1c([H])c([H])c2c(c1[H])C(=O)N([H])[C@]1(N2[H])C([H])([H])C([H])([H])[C@]([H])(N([H])C([H])([H])c2c([H])c(OC(=O)C([H])([H])[H])c([H])c3sc(=O)oc23)C1([H])[H]

>  <error>  (311) 


>  <∆∆G>  (311) 
-139.278899

>  <∆G_bound>  (311) 
306.47057

>  <∆G_unbound>  (311) 
445.749468

>  <comRMSD>  (311) 
0.888846

>  <N_constrained_atoms>  (311) 
29.0

>  <N_unconstrained_atoms>  (311) 
2.0

>  <runtime>  (311) 
4.117918

>  <regarded>  (311) 
['d1196a', '6izx-a']

>  <disregarded>  (311) 
[]

>  <LE>  (311) 
4.492868

>  <outcome>  (311) 
acceptable

>  <percent_hybrid>  (311) 
49.0

$$$$

     RDKit          2D

  0  0  0  0  0  0  0  0  0  0999 V2000
M  END
>  <smiles>  (312) 
nan

>  <error>  (312) 
DistanceError 5.73 Å

>  <∆∆G>  (312) 
nan

>  <∆G_bound>  (312) 
nan

>  <∆G_unbound>  (312) 
nan

>  <comRMSD>  (312) 
nan

>  <N_constrained_atoms>  (312) 
nan

>  <N_unconstrained_atoms>  (312) 
nan

>  <runtime>  (312) 
nan

>  <regarded>  (312) 
[]

>  <disregarded>  (312) 
[]

>  <LE>  (312) 
nan

>  <outcome>  (312) 
too distant

>  <percent_hybrid>  (312) 
nan

$$$$
LIG
     RDKit          3D

 63 67  0  0  0  0  0  0  0  0999 V2000
  -11.5239  -32.6188  -20.4972 O   0  0  0  0  0  0  0  0  0  0  0  0
  -12.0658  -33.6331  -20.0686 C   0  0  0  0  0  0  0  0  0  0  0  0
  -13.4137  -33.6146  -19.4696 C   0  0  0  0  0  0  0  0  0  0  0  0
  -14.0580  -34.8393  -19.2890 C   0  0  0  0  0  0  0  0  0  0  0  0
  -13.4335  -36.0456  -19.5765 N   0  0  0  0  0  0  0  0  0  0  0  0
  -12.1981  -36.0637  -20.3343 C   0  0  1  0  0  0  0  0  0  0  0  0
  -11.4514  -34.8581  -20.0779 N   0  0  0  0  0  0  0  0  0  0  0  0
  -13.9851  -32.4247  -19.0115 C   0  0  0  0  0  0  0  0  0  0  0  0
  -15.2916  -34.8526  -18.6306 C   0  0  0  0  0  0  0  0  0  0  0  0
  -15.8610  -33.6710  -18.1582 C   0  0  0  0  0  0  0  0  0  0  0  0
  -15.2060  -32.4574  -18.3440 C   0  0  0  0  0  0  0  0  0  0  0  0
  -11.4114  -37.3233  -19.9180 C   0  0  0  0  0  0  0  0  0  0  0  0
  -11.2940  -38.1862  -21.1696 C   0  0  0  0  0  0  0  0  0  0  0  0
  -12.3955  -37.7237  -22.1195 C   0  0  2  0  0  0  0  0  0  0  0  0
  -12.4589  -36.2231  -21.8361 C   0  0  0  0  0  0  0  0  0  0  0  0
  -13.1467  -42.4947  -20.7034 C   0  0  0  0  0  0  0  0  0  0  0  0
  -13.2769  -40.6495  -22.1985 O   0  0  0  0  0  0  0  0  0  0  0  0
  -17.7399  -40.8696  -16.7276 O   0  0  0  0  0  0  0  0  0  0  0  0
  -18.7339  -42.7834  -17.2911 O   0  0  0  0  0  0  0  0  0  0  0  0
  -13.4954  -41.0363  -20.9131 C   0  0  0  0  0  0  0  0  0  0  0  0
  -13.9386  -40.2952  -20.0399 O   0  0  0  0  0  0  0  0  0  0  0  0
  -16.3687  -42.8741  -16.9103 C   0  0  0  0  0  0  0  0  0  0  0  0
  -17.6386  -42.0631  -16.9666 C   0  0  0  0  0  0  0  0  0  0  0  0
  -14.3159  -43.2227  -20.0861 C   0  0  0  0  0  0  0  0  0  0  0  0
  -14.6986  -42.9234  -18.7739 C   0  0  0  0  0  0  0  0  0  0  0  0
  -15.9001  -43.4027  -18.2458 C   0  0  0  0  0  0  0  0  0  0  0  0
  -16.6757  -44.2791  -19.0195 C   0  0  0  0  0  0  0  0  0  0  0  0
  -16.3049  -44.5958  -20.3340 C   0  0  0  0  0  0  0  0  0  0  0  0
  -15.1168  -44.0709  -20.8569 C   0  0  0  0  0  0  0  0  0  0  0  0
  -18.4775  -47.1286  -22.0457 C   0  0  0  0  0  0  0  0  0  0  0  0
  -18.5927  -46.1801  -23.0364 C   0  0  0  0  0  0  0  0  0  0  0  0
  -17.8082  -44.7239  -22.6264 S   0  0  0  0  0  0  0  0  0  0  0  0
  -17.1899  -45.3982  -21.1740 C   0  0  0  0  0  0  0  0  0  0  0  0
  -17.6656  -46.6766  -20.9687 C   0  0  0  0  0  0  0  0  0  0  0  0
  -13.7156  -38.2841  -21.8532 N   0  0  0  0  0  0  0  0  0  0  0  0
  -14.0092  -39.4931  -22.6118 C   0  0  0  0  0  0  0  0  0  0  0  0
  -14.0860  -36.7813  -19.8372 H   0  0  0  0  0  0  0  0  0  0  0  0
  -10.5060  -34.8563  -20.4517 H   0  0  0  0  0  0  0  0  0  0  0  0
  -13.4525  -31.4874  -19.0830 H   0  0  0  0  0  0  0  0  0  0  0  0
  -15.7917  -35.7973  -18.4281 H   0  0  0  0  0  0  0  0  0  0  0  0
  -16.7915  -33.7070  -17.5972 H   0  0  0  0  0  0  0  0  0  0  0  0
  -15.6261  -31.5487  -17.9176 H   0  0  0  0  0  0  0  0  0  0  0  0
  -10.4142  -37.0906  -19.5263 H   0  0  0  0  0  0  0  0  0  0  0  0
  -11.9327  -37.8890  -19.1353 H   0  0  0  0  0  0  0  0  0  0  0  0
  -10.3198  -37.9944  -21.6217 H   0  0  0  0  0  0  0  0  0  0  0  0
  -11.3229  -39.2541  -20.9393 H   0  0  0  0  0  0  0  0  0  0  0  0
  -12.1036  -37.8925  -23.1601 H   0  0  0  0  0  0  0  0  0  0  0  0
  -13.3916  -35.7563  -22.1751 H   0  0  0  0  0  0  0  0  0  0  0  0
  -11.6492  -35.7376  -22.3847 H   0  0  0  0  0  0  0  0  0  0  0  0
  -12.8965  -42.9547  -21.6624 H   0  0  0  0  0  0  0  0  0  0  0  0
  -12.2598  -42.5594  -20.0650 H   0  0  0  0  0  0  0  0  0  0  0  0
  -19.4611  -42.1294  -17.2096 H   0  0  0  0  0  0  0  0  0  0  0  0
  -15.5996  -42.2263  -16.4697 H   0  0  0  0  0  0  0  0  0  0  0  0
  -16.4876  -43.6864  -16.1995 H   0  0  0  0  0  0  0  0  0  0  0  0
  -14.0975  -42.2209  -18.1947 H   0  0  0  0  0  0  0  0  0  0  0  0
  -17.6255  -44.6459  -18.6353 H   0  0  0  0  0  0  0  0  0  0  0  0
  -14.8324  -44.2912  -21.8859 H   0  0  0  0  0  0  0  0  0  0  0  0
  -18.9235  -48.1127  -22.1177 H   0  0  0  0  0  0  0  0  0  0  0  0
  -19.1025  -46.2744  -23.9865 H   0  0  0  0  0  0  0  0  0  0  0  0
  -17.4131  -47.2746  -20.1051 H   0  0  0  0  0  0  0  0  0  0  0  0
  -13.7999  -38.5629  -20.8686 H   0  0  0  0  0  0  0  0  0  0  0  0
  -15.0793  -39.7186  -22.5256 H   0  0  0  0  0  0  0  0  0  0  0  0
  -13.8237  -39.3386  -23.6801 H   0  0  0  0  0  0  0  0  0  0  0  0
  2  1  2  0
  2  7  1  0
  2  3  1  0
  3  8  2  0
  3  4  1  0
  4  5  1  0
  4  9  2  0
  6  5  1  1
  6  7  1  0
  6 15  1  0
  6 12  1  0
  8 11  1  0
  9 10  1  0
 10 11  2  0
 12 13  1  0
 13 14  1  0
 14 15  1  0
 22 23  1  0
 23 18  2  0
 23 19  1  0
 16 20  1  0
 21 20  2  0
 20 17  1  0
 24 29  1  0
 24 25  2  0
 24 16  1  0
 25 26  1  0
 26 27  2  0
 26 22  1  0
 27 28  1  0
 28 33  1  0
 28 29  2  0
 30 31  2  0
 30 34  1  0
 31 32  1  0
 32 33  1  0
 33 34  2  0
 35 14  1  0
 36 35  1  0
 36 17  1  0
  5 37  1  0
  7 38  1  0
  8 39  1  0
  9 40  1  0
 10 41  1  0
 11 42  1  0
 12 43  1  0
 12 44  1  0
 13 45  1  0
 13 46  1  0
 14 47  1  6
 15 48  1  0
 15 49  1  0
 16 50  1  0
 16 51  1  0
 19 52  1  0
 22 53  1  0
 22 54  1  0
 25 55  1  0
 27 56  1  0
 29 57  1  0
 30 58  1  0
 31 59  1  0
 34 60  1  0
 35 61  1  0
 36 62  1  0
 36 63  1  0
M  END
>  <smiles>  (313) 
[H]OC(=O)C([H])([H])c1c([H])c(-c2sc([H])c([H])c2[H])c([H])c(C([H])([H])C(=O)OC([H])([H])N([H])[C@]2([H])C([H])([H])C([H])([H])[C@@]3(N([H])C(=O)c4c([H])c([H])c([H])c([H])c4N3[H])C2([H])[H])c1[H]

>  <error>  (313) 


>  <∆∆G>  (313) 
-265.649437

>  <∆G_bound>  (313) 
25.889488

>  <∆G_unbound>  (313) 
291.538926

>  <comRMSD>  (313) 
1.034592

>  <N_constrained_atoms>  (313) 
34.0

>  <N_unconstrained_atoms>  (313) 
2.0

>  <runtime>  (313) 
6.928763

>  <regarded>  (313) 
['d1196a', '5hmx-b']

>  <disregarded>  (313) 
[]

>  <LE>  (313) 
7.379151

>  <outcome>  (313) 
too moved

>  <percent_hybrid>  (313) 
45.0

$$$$
LIG
     RDKit          3D

  0  0  0  0  0  0  0  0  0  0999 V3000
M  V30 BEGIN CTAB
M  V30 COUNTS 90 95 0 0 0
M  V30 BEGIN ATOM
M  V30 1 O -11.370000 -32.450001 -20.969999 0
M  V30 2 C -11.950000 -33.465000 -20.601000 0
M  V30 3 C -13.292000 -33.436001 -19.997999 0
M  V30 4 C -13.877000 -34.640999 -19.552999 0
M  V30 5 N -13.139000 -35.812000 -19.618000 0
M  V30 6 C -12.110000 -35.952000 -20.645000 0
M  V30 7 N -11.382000 -34.679001 -20.705000 0
M  V30 8 C -13.994000 -32.241001 -19.871000 0
M  V30 9 C -15.168000 -34.624001 -19.025000 0
M  V30 10 C -15.853000 -33.424000 -18.921000 0
M  V30 11 C -15.268000 -32.243000 -19.333000 0
M  V30 12 C -11.190000 -37.138000 -20.316999 0
M  V30 13 C -11.152000 -37.980999 -21.587999 0
M  V30 14 C -12.451000 -37.754002 -22.233000 0
M  V30 15 C -12.749000 -36.279999 -22.002001 0
M  V30 16 O -13.059000 -42.610001 -18.479000 0
M  V30 17 O -17.714001 -42.296001 -15.013000 0
M  V30 18 O -12.865000 -39.470001 -15.427000 0
M  V30 19 C -19.211000 -46.504002 -24.429001 0
M  V30 20 C -19.791000 -46.613998 -25.464001 0
M  V30 21 C -20.584000 -46.872002 -26.666000 0
M  V30 22 O -14.229000 -44.429001 -16.355000 0
M  V30 23 C -15.110000 -44.029999 -17.115999 0
M  V30 24 N -16.246000 -43.403999 -16.635000 0
M  V30 25 S -16.552000 -43.130001 -15.039000 0
M  V30 26 O -16.562000 -44.383999 -14.350000 0
M  V30 27 C -13.292000 -39.081001 -16.736000 0
M  V30 28 C -12.190000 -41.643002 -19.082001 0
M  V30 29 O -14.855000 -43.950001 -22.778999 0
M  V30 30 C -13.814000 -43.257999 -23.455000 0
M  V30 31 O -21.716999 -46.032001 -26.728001 0
M  V30 32 C -14.858000 -43.925999 -21.408001 0
M  V30 33 C -13.929000 -43.228001 -20.659000 0
M  V30 34 C -13.952000 -43.272999 -19.278000 0
M  V30 35 C -14.929000 -44.015999 -18.607000 0
M  V30 36 C -15.863000 -44.723999 -19.375999 0
M  V30 37 C -15.855000 -44.689999 -20.777000 0
M  V30 38 C -13.047000 -40.689999 -13.506000 0
M  V30 39 C -13.619000 -41.672001 -12.707000 0
M  V30 40 C -14.700000 -42.417000 -13.158000 0
M  V30 41 C -15.198000 -42.176998 -14.430000 0
M  V30 42 C -14.650000 -41.188000 -15.231000 0
M  V30 43 C -13.567000 -40.449001 -14.768000 0
M  V30 44 C -17.482000 -46.637001 -21.159000 0
M  V30 45 C -18.358999 -47.137001 -22.125999 0
M  V30 46 C -18.469000 -46.320000 -23.235001 0
M  V30 47 S -17.472000 -44.923000 -23.080999 0
M  V30 48 C -16.886000 -45.438000 -21.525999 0
M  V30 49 C -13.177250 -36.629250 -18.897499 0
M  V30 50 C -13.215500 -37.446503 -18.177000 0
M  V30 51 C -13.253750 -38.263752 -17.456501 0
M  V30 52 H -10.361188 -34.718678 -20.836409 0
M  V30 53 H -13.535987 -31.295929 -20.198202 0
M  V30 54 H -15.640623 -35.559937 -18.692352 0
M  V30 55 H -16.871866 -33.412075 -18.506548 0
M  V30 56 H -15.819530 -31.296577 -19.232512 0
M  V30 57 H -10.669828 -37.336834 -19.368376 0
M  V30 58 H -12.057853 -37.712925 -19.961624 0
M  V30 59 H -10.330162 -38.619820 -21.943655 0
M  V30 60 H -11.575160 -38.832932 -21.035601 0
M  V30 61 H -13.072513 -38.488396 -22.766277 0
M  V30 62 H -12.962158 -38.004837 -21.291830 0
M  V30 63 H -13.302277 -35.597340 -22.663710 0
M  V30 64 H -11.810613 -36.010841 -22.508938 0
M  V30 65 H -20.916389 -47.920540 -26.656790 0
M  V30 66 H -19.954803 -46.668625 -27.545063 0
M  V30 67 H -16.947315 -43.088100 -17.320030 0
M  V30 68 H -12.870923 -39.900154 -17.337400 0
M  V30 69 H -14.254596 -38.722321 -16.342607 0
M  V30 70 H -11.675996 -41.071033 -18.295456 0
M  V30 71 H -11.445468 -42.158207 -19.706690 0
M  V30 72 H -12.781532 -40.957542 -19.706690 0
M  V30 73 H -13.134567 -42.806347 -22.717176 0
M  V30 74 H -13.253617 -43.963966 -24.085541 0
M  V30 75 H -14.248032 -42.468040 -24.085541 0
M  V30 76 H -22.014759 -45.811245 -25.810011 0
M  V30 77 H -13.160841 -42.628475 -21.169395 0
M  V30 78 H -16.627356 -45.326077 -18.862907 0
M  V30 79 H -12.188149 -40.108269 -13.139984 0
M  V30 80 H -13.209904 -41.861725 -11.703683 0
M  V30 81 H -15.154731 -43.186031 -12.516273 0
M  V30 82 H -15.069595 -40.988525 -16.228071 0
M  V30 83 H -17.283876 -47.143093 -20.202644 0
M  V30 84 H -18.906128 -48.084839 -22.015305 0
M  V30 85 H -11.837250 -35.289249 -17.557501 0
M  V30 86 H -11.827250 -35.279251 -17.547501 0
M  V30 87 H -11.855500 -36.086502 -16.816999 0
M  V30 88 H -11.845500 -36.076500 -16.806999 0
M  V30 89 H -11.873750 -36.883751 -16.076500 0
M  V30 90 H -11.863750 -36.873753 -16.066500 0
M  V30 END ATOM
M  V30 BEGIN BOND
M  V30 1 2 2 1
M  V30 2 1 2 7
M  V30 3 1 2 3
M  V30 4 2 3 8
M  V30 5 1 3 4
M  V30 6 1 4 5
M  V30 7 2 4 9
M  V30 8 1 5 6
M  V30 9 1 6 7
M  V30 10 1 6 15
M  V30 11 1 6 12
M  V30 12 1 8 11
M  V30 13 1 9 10
M  V30 14 2 10 11
M  V30 15 1 12 13
M  V30 16 1 13 14
M  V30 17 1 14 15
M  V30 18 1 21 31
M  V30 19 1 21 20
M  V30 20 3 20 19
M  V30 21 1 29 30
M  V30 22 1 24 23
M  V30 23 1 24 25
M  V30 24 2 23 22
M  V30 25 2 17 25
M  V30 26 2 26 25
M  V30 27 1 16 28
M  V30 28 1 27 18
M  V30 29 2 32 37
M  V30 30 1 32 29
M  V30 31 1 32 33
M  V30 32 2 33 34
M  V30 33 1 34 35
M  V30 34 1 34 16
M  V30 35 2 35 36
M  V30 36 1 35 23
M  V30 37 1 36 37
M  V30 38 1 37 48
M  V30 39 2 38 43
M  V30 40 1 38 39
M  V30 41 2 39 40
M  V30 42 1 40 41
M  V30 43 1 41 25
M  V30 44 2 41 42
M  V30 45 1 42 43
M  V30 46 1 43 18
M  V30 47 1 44 45
M  V30 48 2 44 48
M  V30 49 2 45 46
M  V30 50 1 46 19
M  V30 51 1 46 47
M  V30 52 1 47 48
M  V30 53 1 49 5
M  V30 54 1 50 49
M  V30 55 1 51 50
M  V30 56 1 51 27
M  V30 57 1 7 52
M  V30 58 1 8 53
M  V30 59 1 9 54
M  V30 60 1 10 55
M  V30 61 1 11 56
M  V30 62 1 12 57
M  V30 63 1 12 58
M  V30 64 1 13 59
M  V30 65 1 13 60
M  V30 66 1 14 61
M  V30 67 1 14 62
M  V30 68 1 15 63
M  V30 69 1 15 64
M  V30 70 1 21 65
M  V30 71 1 21 66
M  V30 72 1 24 67
M  V30 73 1 27 68
M  V30 74 1 27 69
M  V30 75 1 28 70
M  V30 76 1 28 71
M  V30 77 1 28 72
M  V30 78 1 30 73
M  V30 79 1 30 74
M  V30 80 1 30 75
M  V30 81 1 31 76
M  V30 82 1 33 77
M  V30 83 1 36 78
M  V30 84 1 38 79
M  V30 85 1 39 80
M  V30 86 1 40 81
M  V30 87 1 42 82
M  V30 88 1 44 83
M  V30 89 1 45 84
M  V30 90 1 49 85
M  V30 91 1 49 86
M  V30 92 1 50 87
M  V30 93 1 50 88
M  V30 94 1 51 89
M  V30 95 1 51 90
M  V30 END BOND
M  V30 BEGIN COLLECTION
M  V30 MDLV30/STEABS ATOMS=(0)
M  V30 END COLLECTION
M  V30 END CTAB
M  END
>  <smiles>  (314) 
[H]OC([H])([H])C#Cc1sc(-c2c([H])c(C(=O)N([H])S(=O)(=O)c3c([H])c([H])c([H])c(OC([H])([H])C([H])([H])C([H])([H])C([H])([H])N4c5c([H])c([H])c([H])c([H])c5C(=O)N([H])C45C([H])([H])C([H])([H])C([H])([H])C5([H])[H])c3[H])c(OC([H])([H])[H])c([H])c2OC([H])([H])[H])c([H])c1[H]

>  <error>  (314) 


>  <∆∆G>  (314) 
nan

>  <∆G_bound>  (314) 
nan

>  <∆G_unbound>  (314) 
nan

>  <comRMSD>  (314) 
0.0

>  <N_constrained_atoms>  (314) 
48.0

>  <N_unconstrained_atoms>  (314) 
3.0

>  <runtime>  (314) 
3.525013

>  <regarded>  (314) 
['d1196a', '5k5m-a']

>  <disregarded>  (314) 
[]

>  <LE>  (314) 
nan

>  <outcome>  (314) 
crashed

>  <percent_hybrid>  (314) 
32.0

$$$$

     RDKit          2D

  0  0  0  0  0  0  0  0  0  0999 V2000
M  END
>  <smiles>  (315) 
nan

>  <error>  (315) 
DistanceError 5.55 Å

>  <∆∆G>  (315) 
nan

>  <∆G_bound>  (315) 
nan

>  <∆G_unbound>  (315) 
nan

>  <comRMSD>  (315) 
nan

>  <N_constrained_atoms>  (315) 
nan

>  <N_unconstrained_atoms>  (315) 
nan

>  <runtime>  (315) 
nan

>  <regarded>  (315) 
[]

>  <disregarded>  (315) 
[]

>  <LE>  (315) 
nan

>  <outcome>  (315) 
too distant

>  <percent_hybrid>  (315) 
nan

$$$$
LIG
     RDKit          3D

 66 70  0  0  0  0  0  0  0  0999 V2000
  -11.6353  -32.5571  -20.6774 O   0  0  0  0  0  0  0  0  0  0  0  0
  -12.1278  -33.6026  -20.2668 C   0  0  0  0  0  0  0  0  0  0  0  0
  -13.4364  -33.6433  -19.5840 C   0  0  0  0  0  0  0  0  0  0  0  0
  -13.9113  -34.8880  -19.1589 C   0  0  0  0  0  0  0  0  0  0  0  0
  -13.1668  -36.0719  -19.3327 N   0  0  0  0  0  0  0  0  0  0  0  0
  -12.1887  -36.0482  -20.4235 C   0  0  1  0  0  0  0  0  0  0  0  0
  -11.4811  -34.8058  -20.3621 N   0  0  0  0  0  0  0  0  0  0  0  0
  -14.1176  -32.4699  -19.2559 C   0  0  0  0  0  0  0  0  0  0  0  0
  -15.0734  -34.9386  -18.3844 C   0  0  0  0  0  0  0  0  0  0  0  0
  -15.7463  -33.7676  -18.0391 C   0  0  0  0  0  0  0  0  0  0  0  0
  -15.2590  -32.5342  -18.4615 C   0  0  0  0  0  0  0  0  0  0  0  0
  -11.2394  -37.2586  -20.2653 C   0  0  0  0  0  0  0  0  0  0  0  0
  -11.5820  -38.2024  -21.4135 C   0  0  0  0  0  0  0  0  0  0  0  0
  -12.9880  -37.8166  -21.8748 C   0  0  2  0  0  0  0  0  0  0  0  0
  -12.8866  -36.2855  -21.7800 C   0  0  0  0  0  0  0  0  0  0  0  0
  -16.2189  -42.9438  -16.9075 C   0  0  0  0  0  0  0  0  0  0  0  0
  -17.7686  -42.2479  -15.2806 O   0  0  0  0  0  0  0  0  0  0  0  0
  -12.0167  -41.0858  -19.4491 O   0  0  0  0  0  0  0  0  0  0  0  0
  -13.6612  -40.5898  -20.9748 O   0  0  0  0  0  0  0  0  0  0  0  0
  -12.8098  -41.4261  -20.3190 C   0  0  0  0  0  0  0  0  0  0  0  0
  -13.0505  -42.8527  -20.7342 C   0  0  0  0  0  0  0  0  0  0  0  0
  -17.6564  -42.6753  -16.5589 C   0  0  0  0  0  0  0  0  0  0  0  0
  -18.6486  -42.8710  -17.2419 O   0  0  0  0  0  0  0  0  0  0  0  0
  -15.9164  -43.4450  -18.3034 C   0  0  0  0  0  0  0  0  0  0  0  0
  -14.6682  -43.0994  -18.8262 C   0  0  0  0  0  0  0  0  0  0  0  0
  -14.3360  -43.3725  -20.1549 C   0  0  0  0  0  0  0  0  0  0  0  0
  -15.2218  -44.0998  -20.9425 C   0  0  0  0  0  0  0  0  0  0  0  0
  -16.4545  -44.5234  -20.4294 C   0  0  0  0  0  0  0  0  0  0  0  0
  -16.7835  -44.2090  -19.1002 C   0  0  0  0  0  0  0  0  0  0  0  0
  -18.3794  -47.2937  -22.0815 C   0  0  0  0  0  0  0  0  0  0  0  0
  -17.6674  -46.5869  -21.1181 C   0  0  0  0  0  0  0  0  0  0  0  0
  -17.3716  -45.2350  -21.3189 C   0  0  0  0  0  0  0  0  0  0  0  0
  -17.8797  -44.5884  -22.4596 C   0  0  0  0  0  0  0  0  0  0  0  0
  -18.5949  -45.2949  -23.4193 C   0  0  0  0  0  0  0  0  0  0  0  0
  -18.7920  -46.6604  -23.2514 C   0  0  0  0  0  0  0  0  0  0  0  0
  -14.1579  -38.2579  -21.1080 N   0  0  0  0  0  0  0  0  0  0  0  0
  -13.9645  -39.4096  -20.2452 C   0  0  0  0  0  0  0  0  0  0  0  0
  -12.6733  -36.2339  -18.4525 H   0  0  0  0  0  0  0  0  0  0  0  0
  -10.5532  -34.8004  -20.7760 H   0  0  0  0  0  0  0  0  0  0  0  0
  -13.7392  -31.5024  -19.5501 H   0  0  0  0  0  0  0  0  0  0  0  0
  -15.4416  -35.8935  -18.0163 H   0  0  0  0  0  0  0  0  0  0  0  0
  -16.6260  -33.8152  -17.4007 H   0  0  0  0  0  0  0  0  0  0  0  0
  -15.7540  -31.6232  -18.1322 H   0  0  0  0  0  0  0  0  0  0  0  0
  -10.1811  -36.9867  -20.3266 H   0  0  0  0  0  0  0  0  0  0  0  0
  -11.3737  -37.7678  -19.3039 H   0  0  0  0  0  0  0  0  0  0  0  0
  -10.8933  -38.0193  -22.2432 H   0  0  0  0  0  0  0  0  0  0  0  0
  -11.4439  -39.2501  -21.1523 H   0  0  0  0  0  0  0  0  0  0  0  0
  -13.1356  -38.1377  -22.9096 H   0  0  0  0  0  0  0  0  0  0  0  0
  -13.8572  -35.7853  -21.8773 H   0  0  0  0  0  0  0  0  0  0  0  0
  -12.2603  -35.9123  -22.5962 H   0  0  0  0  0  0  0  0  0  0  0  0
  -15.6944  -41.9912  -16.7543 H   0  0  0  0  0  0  0  0  0  0  0  0
  -15.8169  -43.6724  -16.1961 H   0  0  0  0  0  0  0  0  0  0  0  0
  -18.6448  -42.6150  -15.0021 H   0  0  0  0  0  0  0  0  0  0  0  0
  -13.0492  -42.9065  -21.8256 H   0  0  0  0  0  0  0  0  0  0  0  0
  -12.2363  -43.4674  -20.3602 H   0  0  0  0  0  0  0  0  0  0  0  0
  -13.9653  -42.5483  -18.1999 H   0  0  0  0  0  0  0  0  0  0  0  0
  -14.9585  -44.3283  -21.9760 H   0  0  0  0  0  0  0  0  0  0  0  0
  -17.7584  -44.5143  -18.7265 H   0  0  0  0  0  0  0  0  0  0  0  0
  -18.5634  -48.3552  -21.9579 H   0  0  0  0  0  0  0  0  0  0  0  0
  -17.2918  -47.1094  -20.2440 H   0  0  0  0  0  0  0  0  0  0  0  0
  -17.6746  -43.5316  -22.6216 H   0  0  0  0  0  0  0  0  0  0  0  0
  -18.9512  -44.7929  -24.3126 H   0  0  0  0  0  0  0  0  0  0  0  0
  -19.2745  -47.2430  -24.0331 H   0  0  0  0  0  0  0  0  0  0  0  0
  -14.4624  -37.4949  -20.4933 H   0  0  0  0  0  0  0  0  0  0  0  0
  -13.2496  -39.1762  -19.4494 H   0  0  0  0  0  0  0  0  0  0  0  0
  -14.9193  -39.6005  -19.7413 H   0  0  0  0  0  0  0  0  0  0  0  0
  2  1  2  0
  2  7  1  0
  2  3  1  0
  3  8  2  0
  3  4  1  0
  4  5  1  0
  4  9  2  0
  6  5  1  1
  6  7  1  0
  6 15  1  0
  6 12  1  0
  8 11  1  0
  9 10  1  0
 10 11  2  0
 12 13  1  0
 13 14  1  0
 14 15  1  0
 16 22  1  0
 22 23  2  0
 22 17  1  0
 21 20  1  0
 18 20  2  0
 20 19  1  0
 24 29  2  0
 24 16  1  0
 24 25  1  0
 25 26  2  0
 26 27  1  0
 26 21  1  0
 27 28  2  0
 28 32  1  0
 28 29  1  0
 30 35  2  0
 30 31  1  0
 31 32  2  0
 32 33  1  0
 33 34  2  0
 34 35  1  0
 36 14  1  0
 37 36  1  0
 37 19  1  0
  5 38  1  0
  7 39  1  0
  8 40  1  0
  9 41  1  0
 10 42  1  0
 11 43  1  0
 12 44  1  0
 12 45  1  0
 13 46  1  0
 13 47  1  0
 14 48  1  6
 15 49  1  0
 15 50  1  0
 16 51  1  0
 16 52  1  0
 17 53  1  0
 21 54  1  0
 21 55  1  0
 25 56  1  0
 27 57  1  0
 29 58  1  0
 30 59  1  0
 31 60  1  0
 33 61  1  0
 34 62  1  0
 35 63  1  0
 36 64  1  0
 37 65  1  0
 37 66  1  0
M  END
>  <smiles>  (316) 
[H]OC(=O)C([H])([H])c1c([H])c(-c2c([H])c([H])c([H])c([H])c2[H])c([H])c(C([H])([H])C(=O)OC([H])([H])N([H])[C@]2([H])C([H])([H])C([H])([H])[C@@]3(N([H])C(=O)c4c([H])c([H])c([H])c([H])c4N3[H])C2([H])[H])c1[H]

>  <error>  (316) 


>  <∆∆G>  (316) 
-182.79415

>  <∆G_bound>  (316) 
28.492638

>  <∆G_unbound>  (316) 
211.286788

>  <comRMSD>  (316) 
1.112655

>  <N_constrained_atoms>  (316) 
35.0

>  <N_unconstrained_atoms>  (316) 
2.0

>  <runtime>  (316) 
8.148088

>  <regarded>  (316) 
['d1196a', '5hmw-b']

>  <disregarded>  (316) 
[]

>  <LE>  (316) 
4.940382

>  <outcome>  (316) 
too moved

>  <percent_hybrid>  (316) 
43.0

$$$$

     RDKit          2D

  0  0  0  0  0  0  0  0  0  0999 V2000
M  END
>  <smiles>  (317) 
nan

>  <error>  (317) 
DistanceError 5.89 Å

>  <∆∆G>  (317) 
nan

>  <∆G_bound>  (317) 
nan

>  <∆G_unbound>  (317) 
nan

>  <comRMSD>  (317) 
nan

>  <N_constrained_atoms>  (317) 
nan

>  <N_unconstrained_atoms>  (317) 
nan

>  <runtime>  (317) 
nan

>  <regarded>  (317) 
[]

>  <disregarded>  (317) 
[]

>  <LE>  (317) 
nan

>  <outcome>  (317) 
too distant

>  <percent_hybrid>  (317) 
nan

$$$$

     RDKit          2D

  0  0  0  0  0  0  0  0  0  0999 V2000
M  END
>  <smiles>  (318) 
nan

>  <error>  (318) 
DistanceError 5.88 Å

>  <∆∆G>  (318) 
nan

>  <∆G_bound>  (318) 
nan

>  <∆G_unbound>  (318) 
nan

>  <comRMSD>  (318) 
nan

>  <N_constrained_atoms>  (318) 
nan

>  <N_unconstrained_atoms>  (318) 
nan

>  <runtime>  (318) 
nan

>  <regarded>  (318) 
[]

>  <disregarded>  (318) 
[]

>  <LE>  (318) 
nan

>  <outcome>  (318) 
too distant

>  <percent_hybrid>  (318) 
nan

$$$$

     RDKit          2D

  0  0  0  0  0  0  0  0  0  0999 V2000
M  END
>  <smiles>  (319) 
nan

>  <error>  (319) 
DistanceError 6.09 Å

>  <∆∆G>  (319) 
nan

>  <∆G_bound>  (319) 
nan

>  <∆G_unbound>  (319) 
nan

>  <comRMSD>  (319) 
nan

>  <N_constrained_atoms>  (319) 
nan

>  <N_unconstrained_atoms>  (319) 
nan

>  <runtime>  (319) 
nan

>  <regarded>  (319) 
[]

>  <disregarded>  (319) 
[]

>  <LE>  (319) 
nan

>  <outcome>  (319) 
too distant

>  <percent_hybrid>  (319) 
nan

$$$$

     RDKit          2D

  0  0  0  0  0  0  0  0  0  0999 V2000
M  END
>  <smiles>  (320) 
nan

>  <error>  (320) 
DistanceError 7.53 Å

>  <∆∆G>  (320) 
nan

>  <∆G_bound>  (320) 
nan

>  <∆G_unbound>  (320) 
nan

>  <comRMSD>  (320) 
nan

>  <N_constrained_atoms>  (320) 
nan

>  <N_unconstrained_atoms>  (320) 
nan

>  <runtime>  (320) 
nan

>  <regarded>  (320) 
[]

>  <disregarded>  (320) 
[]

>  <LE>  (320) 
nan

>  <outcome>  (320) 
too distant

>  <percent_hybrid>  (320) 
nan

$$$$
LIG
     RDKit          3D

 47 49  0  0  0  0  0  0  0  0999 V2000
  -13.6037  -44.1640  -19.2958 O   0  0  0  0  0  0  0  0  0  0  0  0
  -13.7581  -42.9910  -18.4899 C   0  0  0  0  0  0  0  0  0  0  0  0
  -12.9160  -43.0809  -17.2155 C   0  0  0  0  0  0  0  0  0  0  0  0
  -13.7102  -43.2453  -16.0006 N   0  0  0  0  0  0  0  0  0  0  0  0
  -14.4904  -44.4793  -15.8657 C   0  0  0  0  0  0  0  0  0  0  0  0
  -13.8706  -45.4742  -14.8699 C   0  0  0  0  0  0  0  0  0  0  0  0
  -13.7704  -44.9370  -13.5461 O   0  0  0  0  0  0  0  0  0  0  0  0
  -13.6666  -43.5089  -13.5284 C   0  0  0  0  0  0  0  0  0  0  0  0
  -12.9487  -42.9633  -14.7730 C   0  0  0  0  0  0  0  0  0  0  0  0
  -14.7033  -42.8524  -22.6820 C   0  0  0  0  0  0  0  0  0  0  0  0
  -14.4082  -41.3804  -22.7653 C   0  0  0  0  0  0  0  0  0  0  0  0
  -13.6145  -40.6251  -21.9238 C   0  0  0  0  0  0  0  0  0  0  0  0
  -13.5728  -39.3700  -22.4413 N   0  0  0  0  0  0  0  0  0  0  0  0
  -14.2841  -39.2321  -23.5634 N   0  0  0  0  0  0  0  0  0  0  0  0
  -14.8179  -40.4473  -23.7809 C   0  0  0  0  0  0  0  0  0  0  0  0
  -16.8944  -41.3492  -24.8093 C   0  0  0  0  0  0  0  0  0  0  0  0
  -15.6779  -40.6798  -24.9415 C   0  0  0  0  0  0  0  0  0  0  0  0
  -15.3100  -40.2093  -26.2020 C   0  0  0  0  0  0  0  0  0  0  0  0
  -16.1514  -40.4634  -27.2732 C   0  0  0  0  0  0  0  0  0  0  0  0
  -17.3198  -41.1367  -27.1756 N   0  0  0  0  0  0  0  0  0  0  0  0
  -17.6654  -41.5532  -25.9401 C   0  0  0  0  0  0  0  0  0  0  0  0
  -13.4781  -43.8155  -20.6792 C   0  0  0  0  0  0  0  0  0  0  0  0
  -14.8272  -43.4023  -21.2637 C   0  0  0  0  0  0  0  0  0  0  0  0
  -13.4465  -42.0899  -19.0316 H   0  0  0  0  0  0  0  0  0  0  0  0
  -14.8241  -42.8688  -18.2657 H   0  0  0  0  0  0  0  0  0  0  0  0
  -12.1367  -43.8272  -17.3326 H   0  0  0  0  0  0  0  0  0  0  0  0
  -12.3962  -42.1172  -17.1254 H   0  0  0  0  0  0  0  0  0  0  0  0
  -15.4508  -44.1453  -15.4620 H   0  0  0  0  0  0  0  0  0  0  0  0
  -14.7278  -44.9459  -16.8238 H   0  0  0  0  0  0  0  0  0  0  0  0
  -14.4296  -46.4096  -14.8196 H   0  0  0  0  0  0  0  0  0  0  0  0
  -12.8672  -45.7674  -15.1562 H   0  0  0  0  0  0  0  0  0  0  0  0
  -14.6734  -43.0855  -13.4313 H   0  0  0  0  0  0  0  0  0  0  0  0
  -13.1123  -43.2333  -12.6254 H   0  0  0  0  0  0  0  0  0  0  0  0
  -11.9537  -43.4221  -14.8289 H   0  0  0  0  0  0  0  0  0  0  0  0
  -12.8154  -41.8807  -14.6711 H   0  0  0  0  0  0  0  0  0  0  0  0
  -15.6500  -43.0630  -23.1859 H   0  0  0  0  0  0  0  0  0  0  0  0
  -13.9408  -43.4070  -23.2418 H   0  0  0  0  0  0  0  0  0  0  0  0
  -13.0578  -40.8619  -21.0305 H   0  0  0  0  0  0  0  0  0  0  0  0
  -17.2582  -41.6804  -23.8437 H   0  0  0  0  0  0  0  0  0  0  0  0
  -14.3851  -39.6596  -26.3477 H   0  0  0  0  0  0  0  0  0  0  0  0
  -15.9020  -40.1250  -28.2739 H   0  0  0  0  0  0  0  0  0  0  0  0
  -18.6230  -42.0602  -25.8733 H   0  0  0  0  0  0  0  0  0  0  0  0
  -12.7026  -43.0537  -20.7977 H   0  0  0  0  0  0  0  0  0  0  0  0
  -13.1147  -44.6943  -21.2073 H   0  0  0  0  0  0  0  0  0  0  0  0
  -15.4642  -44.2966  -21.2792 H   0  0  0  0  0  0  0  0  0  0  0  0
  -15.3477  -42.6875  -20.6161 H   0  0  0  0  0  0  0  0  0  0  0  0
  -13.0722  -38.5639  -22.0814 H   0  0  0  0  0  0  0  0  0  0  0  0
  2  1  1  0
  3  2  1  0
  4  3  1  0
  4  9  1  0
  4  5  1  0
  5  6  1  0
  6  7  1  0
  7  8  1  0
  8  9  1  0
 11 10  1  0
 11 12  2  0
 11 15  1  0
 12 13  1  0
 13 14  1  0
 14 15  2  0
 15 17  1  0
 16 21  2  0
 16 17  1  0
 17 18  2  0
 18 19  1  0
 19 20  2  0
 20 21  1  0
 22  1  1  0
 23 22  1  0
 23 10  1  0
  2 24  1  0
  2 25  1  0
  3 26  1  0
  3 27  1  0
  5 28  1  0
  5 29  1  0
  6 30  1  0
  6 31  1  0
  8 32  1  0
  8 33  1  0
  9 34  1  0
  9 35  1  0
 10 36  1  0
 10 37  1  0
 12 38  1  0
 16 39  1  0
 18 40  1  0
 19 41  1  0
 21 42  1  0
 22 43  1  0
 22 44  1  0
 23 45  1  0
 23 46  1  0
 13 47  1  0
M  END
>  <smiles>  (321) 
[H]c1nc([H])c([H])c(-c2n[nH]c([H])c2C([H])([H])C([H])([H])C([H])([H])OC([H])([H])C([H])([H])N2C([H])([H])C([H])([H])OC([H])([H])C2([H])[H])c1[H]

>  <error>  (321) 


>  <∆∆G>  (321) 
-26.62719

>  <∆G_bound>  (321) 
266.501974

>  <∆G_unbound>  (321) 
293.129164

>  <comRMSD>  (321) 
1.034951

>  <N_constrained_atoms>  (321) 
21.0

>  <N_unconstrained_atoms>  (321) 
2.0

>  <runtime>  (321) 
2.702955

>  <regarded>  (321) 
['z0052a', 'd0160a']

>  <disregarded>  (321) 
[]

>  <LE>  (321) 
1.157704

>  <outcome>  (321) 
too moved

>  <percent_hybrid>  (321) 
43.0

$$$$

     RDKit          2D

  0  0  0  0  0  0  0  0  0  0999 V2000
M  END
>  <smiles>  (322) 
nan

>  <error>  (322) 
DistanceError 5.13 Å

>  <∆∆G>  (322) 
nan

>  <∆G_bound>  (322) 
nan

>  <∆G_unbound>  (322) 
nan

>  <comRMSD>  (322) 
nan

>  <N_constrained_atoms>  (322) 
nan

>  <N_unconstrained_atoms>  (322) 
nan

>  <runtime>  (322) 
nan

>  <regarded>  (322) 
[]

>  <disregarded>  (322) 
[]

>  <LE>  (322) 
nan

>  <outcome>  (322) 
too distant

>  <percent_hybrid>  (322) 
nan

$$$$
LIG
     RDKit          3D

 56 58  0  0  0  0  0  0  0  0999 V2000
  -13.9694  -44.3279  -19.2033 O   0  0  0  0  0  0  0  0  0  0  0  0
  -13.2407  -43.1157  -18.9463 C   0  0  0  0  0  0  0  0  0  0  0  0
  -12.6225  -43.1378  -17.5446 C   0  0  0  0  0  0  0  0  0  0  0  0
  -13.5105  -43.0088  -16.3856 N   0  0  0  0  0  0  0  0  0  0  0  0
  -14.8779  -43.5130  -16.5338 C   0  0  0  0  0  0  0  0  0  0  0  0
  -15.6847  -43.0791  -15.3057 C   0  0  0  0  0  0  0  0  0  0  0  0
  -15.1526  -43.6700  -14.1162 O   0  0  0  0  0  0  0  0  0  0  0  0
  -13.8212  -43.1959  -13.9134 C   0  0  0  0  0  0  0  0  0  0  0  0
  -12.9409  -43.5247  -15.1274 C   0  0  0  0  0  0  0  0  0  0  0  0
  -18.5807  -45.4157  -23.5870 O   0  0  0  0  0  0  0  0  0  0  0  0
  -18.0067  -44.9527  -22.6782 C   0  0  0  0  0  0  0  0  0  0  0  0
  -17.1642  -43.6514  -22.5769 N   0  0  0  0  0  0  0  0  0  0  0  0
  -15.2654  -40.0081  -26.3906 C   0  0  0  0  0  0  0  0  0  0  0  0
  -16.8136  -45.0314  -20.4491 N   0  0  0  0  0  0  0  0  0  0  0  0
  -17.1659  -45.3765  -19.0754 C   0  0  0  0  0  0  0  0  0  0  0  0
  -18.6636  -45.1422  -19.0565 C   0  0  0  0  0  0  0  0  0  0  0  0
  -19.1368  -45.5316  -20.4518 C   0  0  0  0  0  0  0  0  0  0  0  0
  -17.8728  -45.6582  -21.2935 C   0  0  1  0  0  0  0  0  0  0  0  0
  -17.3121  -42.7902  -24.8252 C   0  0  0  0  0  0  0  0  0  0  0  0
  -16.7950  -42.7493  -23.5459 C   0  0  0  0  0  0  0  0  0  0  0  0
  -15.8261  -41.8904  -23.1644 N   0  0  0  0  0  0  0  0  0  0  0  0
  -15.3457  -41.0439  -24.1020 C   0  0  0  0  0  0  0  0  0  0  0  0
  -15.7936  -41.0082  -25.4134 C   0  0  0  0  0  0  0  0  0  0  0  0
  -16.8070  -41.8978  -25.7660 C   0  0  0  0  0  0  0  0  0  0  0  0
  -14.4108  -44.3370  -20.5610 C   0  0  0  0  0  0  0  0  0  0  0  0
  -15.4458  -45.4543  -20.8014 C   0  0  0  0  0  0  0  0  0  0  0  0
  -12.4356  -43.0206  -19.6846 H   0  0  0  0  0  0  0  0  0  0  0  0
  -13.9047  -42.2499  -19.0565 H   0  0  0  0  0  0  0  0  0  0  0  0
  -12.0275  -44.0353  -17.5034 H   0  0  0  0  0  0  0  0  0  0  0  0
  -11.9123  -42.3037  -17.4853 H   0  0  0  0  0  0  0  0  0  0  0  0
  -15.3646  -43.0667  -17.4056 H   0  0  0  0  0  0  0  0  0  0  0  0
  -14.8836  -44.6036  -16.6312 H   0  0  0  0  0  0  0  0  0  0  0  0
  -15.6774  -41.9857  -15.1983 H   0  0  0  0  0  0  0  0  0  0  0  0
  -16.7302  -43.3495  -15.4232 H   0  0  0  0  0  0  0  0  0  0  0  0
  -13.8420  -42.1170  -13.7174 H   0  0  0  0  0  0  0  0  0  0  0  0
  -13.4237  -43.6881  -13.0201 H   0  0  0  0  0  0  0  0  0  0  0  0
  -12.8804  -44.6162  -15.1784 H   0  0  0  0  0  0  0  0  0  0  0  0
  -11.9367  -43.1190  -14.9632 H   0  0  0  0  0  0  0  0  0  0  0  0
  -16.7382  -43.5942  -21.6585 H   0  0  0  0  0  0  0  0  0  0  0  0
  -14.2130  -39.7843  -26.1953 H   0  0  0  0  0  0  0  0  0  0  0  0
  -15.3330  -40.3925  -27.4135 H   0  0  0  0  0  0  0  0  0  0  0  0
  -15.8412  -39.0797  -26.3265 H   0  0  0  0  0  0  0  0  0  0  0  0
  -16.9493  -46.4271  -18.8453 H   0  0  0  0  0  0  0  0  0  0  0  0
  -16.6596  -44.7419  -18.3481 H   0  0  0  0  0  0  0  0  0  0  0  0
  -19.1648  -45.7237  -18.2768 H   0  0  0  0  0  0  0  0  0  0  0  0
  -18.8802  -44.0819  -18.8775 H   0  0  0  0  0  0  0  0  0  0  0  0
  -19.6523  -46.4974  -20.4112 H   0  0  0  0  0  0  0  0  0  0  0  0
  -19.8440  -44.7911  -20.8411 H   0  0  0  0  0  0  0  0  0  0  0  0
  -17.6396  -46.7166  -21.4710 H   0  0  0  0  0  0  0  0  0  0  0  0
  -18.0906  -43.4886  -25.1003 H   0  0  0  0  0  0  0  0  0  0  0  0
  -14.5689  -40.3690  -23.7540 H   0  0  0  0  0  0  0  0  0  0  0  0
  -17.2030  -41.8973  -26.7743 H   0  0  0  0  0  0  0  0  0  0  0  0
  -14.8282  -43.3600  -20.8281 H   0  0  0  0  0  0  0  0  0  0  0  0
  -13.5375  -44.5033  -21.2014 H   0  0  0  0  0  0  0  0  0  0  0  0
  -15.4110  -45.6687  -21.8746 H   0  0  0  0  0  0  0  0  0  0  0  0
  -15.1737  -46.3748  -20.2728 H   0  0  0  0  0  0  0  0  0  0  0  0
  2  1  1  0
  3  2  1  0
  4  3  1  0
  4  9  1  0
  4  5  1  0
  5  6  1  0
  6  7  1  0
  7  8  1  0
  8  9  1  0
 12 11  1  0
 11 10  2  0
 14 15  1  0
 14 18  1  0
 15 16  1  0
 16 17  1  0
 17 18  1  0
 18 11  1  0
 19 24  2  0
 19 20  1  0
 20 12  1  0
 20 21  2  0
 21 22  1  0
 22 23  2  0
 23 13  1  0
 23 24  1  0
 25  1  1  0
 26 25  1  0
 26 14  1  0
  2 27  1  0
  2 28  1  0
  3 29  1  0
  3 30  1  0
  5 31  1  0
  5 32  1  0
  6 33  1  0
  6 34  1  0
  8 35  1  0
  8 36  1  0
  9 37  1  0
  9 38  1  0
 12 39  1  0
 13 40  1  0
 13 41  1  0
 13 42  1  0
 15 43  1  0
 15 44  1  0
 16 45  1  0
 16 46  1  0
 17 47  1  0
 17 48  1  0
 18 49  1  6
 19 50  1  0
 22 51  1  0
 24 52  1  0
 25 53  1  0
 25 54  1  0
 26 55  1  0
 26 56  1  0
M  END
>  <smiles>  (323) 
[H]c1nc(N([H])C(=O)[C@@]2([H])N(C([H])([H])C([H])([H])OC([H])([H])C([H])([H])N3C([H])([H])C([H])([H])OC([H])([H])C3([H])[H])C([H])([H])C([H])([H])C2([H])[H])c([H])c([H])c1C([H])([H])[H]

>  <error>  (323) 


>  <∆∆G>  (323) 
-97.64113

>  <∆G_bound>  (323) 
240.905649

>  <∆G_unbound>  (323) 
338.546779

>  <comRMSD>  (323) 
1.210401

>  <N_constrained_atoms>  (323) 
24.0

>  <N_unconstrained_atoms>  (323) 
2.0

>  <runtime>  (323) 
6.736684

>  <regarded>  (323) 
['z0052a', 'd0254a']

>  <disregarded>  (323) 
[]

>  <LE>  (323) 
3.755428

>  <outcome>  (323) 
too moved

>  <percent_hybrid>  (323) 
38.0

$$$$

     RDKit          2D

  0  0  0  0  0  0  0  0  0  0999 V2000
M  END
>  <smiles>  (324) 
nan

>  <error>  (324) 
DistanceError 5.05 Å

>  <∆∆G>  (324) 
nan

>  <∆G_bound>  (324) 
nan

>  <∆G_unbound>  (324) 
nan

>  <comRMSD>  (324) 
nan

>  <N_constrained_atoms>  (324) 
nan

>  <N_unconstrained_atoms>  (324) 
nan

>  <runtime>  (324) 
nan

>  <regarded>  (324) 
[]

>  <disregarded>  (324) 
[]

>  <LE>  (324) 
nan

>  <outcome>  (324) 
too distant

>  <percent_hybrid>  (324) 
nan

$$$$
LIG
     RDKit          3D

 40 42  0  0  0  0  0  0  0  0999 V2000
  -13.8252  -42.7022  -18.1542 C   0  0  0  0  0  0  0  0  0  0  0  0
  -12.7114  -43.3019  -17.2976 C   0  0  0  0  0  0  0  0  0  0  0  0
  -15.5854  -44.2425  -23.2054 N   0  0  0  0  0  0  0  0  0  0  0  0
  -13.0717  -44.0689  -16.0898 N   0  0  0  0  0  0  0  0  0  0  0  0
  -14.4917  -44.4426  -15.9302 C   0  0  0  0  0  0  0  0  0  0  0  0
  -15.2112  -43.4638  -14.9940 C   0  0  0  0  0  0  0  0  0  0  0  0
  -14.7411  -43.6045  -13.6470 O   0  0  0  0  0  0  0  0  0  0  0  0
  -13.3394  -43.8917  -13.5951 C   0  0  0  0  0  0  0  0  0  0  0  0
  -12.5929  -43.4003  -14.8484 C   0  0  0  0  0  0  0  0  0  0  0  0
  -15.0244  -44.2487  -21.9119 C   0  0  0  0  0  0  0  0  0  0  0  0
  -15.7074  -44.5889  -20.7377 C   0  0  0  0  0  0  0  0  0  0  0  0
  -15.2844  -44.1918  -19.4932 N   0  0  0  0  0  0  0  0  0  0  0  0
  -14.1443  -43.4572  -19.4186 C   0  0  0  0  0  0  0  0  0  0  0  0
  -13.3428  -43.2148  -20.5160 C   0  0  0  0  0  0  0  0  0  0  0  0
  -13.8096  -43.5935  -21.7592 C   0  0  0  0  0  0  0  0  0  0  0  0
  -17.4203  -46.0778  -21.8706 C   0  0  0  0  0  0  0  0  0  0  0  0
  -18.5442  -46.7646  -21.4866 C   0  0  0  0  0  0  0  0  0  0  0  0
  -18.7640  -46.4469  -20.1383 C   0  0  0  0  0  0  0  0  0  0  0  0
  -17.7055  -45.6749  -19.7155 C   0  0  0  0  0  0  0  0  0  0  0  0
  -16.8871  -45.3985  -20.7946 N   0  0  0  0  0  0  0  0  0  0  0  0
  -14.7471  -42.5128  -17.5963 H   0  0  0  0  0  0  0  0  0  0  0  0
  -13.5098  -41.6905  -18.4506 H   0  0  0  0  0  0  0  0  0  0  0  0
  -12.0704  -43.9245  -17.9297 H   0  0  0  0  0  0  0  0  0  0  0  0
  -12.0496  -42.4732  -17.0090 H   0  0  0  0  0  0  0  0  0  0  0  0
  -16.2068  -43.4443  -23.3237 H   0  0  0  0  0  0  0  0  0  0  0  0
  -14.8715  -44.2308  -23.9316 H   0  0  0  0  0  0  0  0  0  0  0  0
  -15.0185  -44.5574  -16.8786 H   0  0  0  0  0  0  0  0  0  0  0  0
  -14.4902  -45.4402  -15.4759 H   0  0  0  0  0  0  0  0  0  0  0  0
  -15.0501  -42.4232  -15.3025 H   0  0  0  0  0  0  0  0  0  0  0  0
  -16.2889  -43.5855  -14.9979 H   0  0  0  0  0  0  0  0  0  0  0  0
  -12.9367  -43.4034  -12.7019 H   0  0  0  0  0  0  0  0  0  0  0  0
  -13.2104  -44.9721  -13.4601 H   0  0  0  0  0  0  0  0  0  0  0  0
  -11.5185  -43.5752  -14.7272 H   0  0  0  0  0  0  0  0  0  0  0  0
  -12.7441  -42.3147  -14.9216 H   0  0  0  0  0  0  0  0  0  0  0  0
  -12.4131  -42.6606  -20.4341 H   0  0  0  0  0  0  0  0  0  0  0  0
  -13.2269  -43.3531  -22.6351 H   0  0  0  0  0  0  0  0  0  0  0  0
  -16.9509  -46.0530  -22.8371 H   0  0  0  0  0  0  0  0  0  0  0  0
  -19.1408  -47.4024  -22.1243 H   0  0  0  0  0  0  0  0  0  0  0  0
  -19.6001  -46.7542  -19.5270 H   0  0  0  0  0  0  0  0  0  0  0  0
  -17.4918  -45.2363  -18.7511 H   0  0  0  0  0  0  0  0  0  0  0  0
  2  1  1  0
  4  2  1  0
  4  9  1  0
  4  5  1  0
  5  6  1  0
  6  7  1  0
  7  8  1  0
  8  9  1  0
 10  3  1  0
 10 15  2  0
 10 11  1  0
 11 12  2  0
 11 20  1  0
 12 13  1  0
 13 14  2  0
 14 15  1  0
 16 17  2  0
 16 20  1  0
 17 18  1  0
 18 19  2  0
 19 20  1  0
 13  1  1  0
  1 21  1  0
  1 22  1  0
  2 23  1  0
  2 24  1  0
  3 25  1  0
  3 26  1  0
  5 27  1  0
  5 28  1  0
  6 29  1  0
  6 30  1  0
  8 31  1  0
  8 32  1  0
  9 33  1  0
  9 34  1  0
 14 35  1  0
 15 36  1  0
 16 37  1  0
 17 38  1  0
 18 39  1  0
 19 40  1  0
M  END
>  <smiles>  (325) 
[H]c1c(C([H])([H])C([H])([H])N2C([H])([H])C([H])([H])OC([H])([H])C2([H])[H])nc(-n2c([H])c([H])c([H])c2[H])c(N([H])[H])c1[H]

>  <error>  (325) 


>  <∆∆G>  (325) 
-56.617164

>  <∆G_bound>  (325) 
90.692733

>  <∆G_unbound>  (325) 
147.309897

>  <comRMSD>  (325) 
1.447348

>  <N_constrained_atoms>  (325) 
20.0

>  <N_unconstrained_atoms>  (325) 
0.0

>  <runtime>  (325) 
1.953437

>  <regarded>  (325) 
['z0052a', 'd0472a']

>  <disregarded>  (325) 
[]

>  <LE>  (325) 
2.830858

>  <outcome>  (325) 
too moved

>  <percent_hybrid>  (325) 
40.0

$$$$
LIG
     RDKit          3D

 50 52  0  0  0  0  0  0  0  0999 V2000
  -13.9461  -43.8906  -19.3835 O   0  0  0  0  0  0  0  0  0  0  0  0
  -13.1840  -42.7506  -18.9436 C   0  0  0  0  0  0  0  0  0  0  0  0
  -12.4846  -42.9653  -17.5902 C   0  0  0  0  0  0  0  0  0  0  0  0
  -18.8213  -39.3179  -26.7224 C   0  0  0  0  0  0  0  0  0  0  0  0
  -18.7627  -38.2307  -27.1664 O   0  0  0  0  0  0  0  0  0  0  0  0
  -19.6493  -40.4444  -27.1033 N   0  0  0  0  0  0  0  0  0  0  0  0
  -13.2432  -43.4870  -16.4422 N   0  0  0  0  0  0  0  0  0  0  0  0
  -12.5790  -43.1828  -15.1638 C   0  0  0  0  0  0  0  0  0  0  0  0
  -13.2644  -43.9554  -14.0260 C   0  0  0  0  0  0  0  0  0  0  0  0
  -14.6912  -43.8673  -14.0309 O   0  0  0  0  0  0  0  0  0  0  0  0
  -15.1915  -42.8807  -14.9295 C   0  0  0  0  0  0  0  0  0  0  0  0
  -14.6567  -43.0679  -16.3680 C   0  0  0  0  0  0  0  0  0  0  0  0
  -14.6732  -43.4834  -20.4758 C   0  0  0  0  0  0  0  0  0  0  0  0
  -15.9065  -42.8774  -20.2880 C   0  0  0  0  0  0  0  0  0  0  0  0
  -16.5383  -42.2577  -21.3707 C   0  0  0  0  0  0  0  0  0  0  0  0
  -15.9681  -42.2326  -22.6586 C   0  0  0  0  0  0  0  0  0  0  0  0
  -14.7974  -42.9873  -22.8360 C   0  0  0  0  0  0  0  0  0  0  0  0
  -14.1454  -43.6007  -21.7541 C   0  0  0  0  0  0  0  0  0  0  0  0
  -16.0375  -41.5157  -25.0426 C   0  0  0  0  0  0  0  0  0  0  0  0
  -16.5621  -41.4791  -23.6791 N   0  0  0  0  0  0  0  0  0  0  0  0
  -17.0556  -40.1529  -23.2832 C   0  0  0  0  0  0  0  0  0  0  0  0
  -17.2752  -39.2691  -24.5240 C   0  0  0  0  0  0  0  0  0  0  0  0
  -18.1525  -39.9018  -25.5654 N   0  0  0  0  0  0  0  0  0  0  0  0
  -16.8084  -40.5378  -25.9921 C   0  0  0  0  0  0  0  0  0  0  0  0
  -12.4085  -42.5322  -19.6908 H   0  0  0  0  0  0  0  0  0  0  0  0
  -13.8220  -41.8600  -18.8627 H   0  0  0  0  0  0  0  0  0  0  0  0
  -11.6617  -43.6611  -17.7660 H   0  0  0  0  0  0  0  0  0  0  0  0
  -12.0260  -42.0034  -17.3239 H   0  0  0  0  0  0  0  0  0  0  0  0
  -19.5178  -41.2077  -26.4172 H   0  0  0  0  0  0  0  0  0  0  0  0
  -19.3514  -41.2778  -26.5702 H   0  0  0  0  0  0  0  0  0  0  0  0
  -11.5149  -43.4401  -15.1770 H   0  0  0  0  0  0  0  0  0  0  0  0
  -12.6258  -42.1035  -14.9645 H   0  0  0  0  0  0  0  0  0  0  0  0
  -13.0082  -45.0192  -14.0817 H   0  0  0  0  0  0  0  0  0  0  0  0
  -12.9082  -43.5849  -13.0589 H   0  0  0  0  0  0  0  0  0  0  0  0
  -16.2841  -42.9350  -14.9290 H   0  0  0  0  0  0  0  0  0  0  0  0
  -14.9227  -41.8903  -14.5419 H   0  0  0  0  0  0  0  0  0  0  0  0
  -14.8366  -42.1246  -16.8951 H   0  0  0  0  0  0  0  0  0  0  0  0
  -15.2520  -43.8425  -16.8645 H   0  0  0  0  0  0  0  0  0  0  0  0
  -16.3496  -42.8265  -19.2986 H   0  0  0  0  0  0  0  0  0  0  0  0
  -17.4884  -41.7649  -21.1817 H   0  0  0  0  0  0  0  0  0  0  0  0
  -14.3249  -43.0748  -23.8098 H   0  0  0  0  0  0  0  0  0  0  0  0
  -13.2026  -44.1197  -21.9115 H   0  0  0  0  0  0  0  0  0  0  0  0
  -16.1216  -42.5342  -25.4419 H   0  0  0  0  0  0  0  0  0  0  0  0
  -14.9771  -41.2340  -25.0646 H   0  0  0  0  0  0  0  0  0  0  0  0
  -18.0151  -40.2633  -22.7638 H   0  0  0  0  0  0  0  0  0  0  0  0
  -16.3533  -39.6430  -22.6118 H   0  0  0  0  0  0  0  0  0  0  0  0
  -17.8931  -38.4276  -24.1729 H   0  0  0  0  0  0  0  0  0  0  0  0
  -16.3800  -38.7257  -24.8736 H   0  0  0  0  0  0  0  0  0  0  0  0
  -16.1406  -39.8053  -26.4809 H   0  0  0  0  0  0  0  0  0  0  0  0
  -17.0763  -41.1625  -26.8581 H   0  0  0  0  0  0  0  0  0  0  0  0
  2  1  1  0
  3  2  1  0
  6  4  1  0
  5  4  2  0
  7  3  1  0
  7 12  1  0
  7  8  1  0
  8  9  1  0
  9 10  1  0
 10 11  1  0
 11 12  1  0
 13 18  1  0
 13 14  2  0
 14 15  1  0
 15 16  2  0
 16 20  1  0
 16 17  1  0
 17 18  2  0
 19 24  1  0
 19 20  1  0
 20 21  1  0
 21 22  1  0
 22 23  1  0
 23  4  1  0
 23 24  1  0
  1 13  1  0
  2 25  1  0
  2 26  1  0
  3 27  1  0
  3 28  1  0
  6 29  1  0
  6 30  1  0
  8 31  1  0
  8 32  1  0
  9 33  1  0
  9 34  1  0
 11 35  1  0
 11 36  1  0
 12 37  1  0
 12 38  1  0
 14 39  1  0
 15 40  1  0
 17 41  1  0
 18 42  1  0
 19 43  1  0
 19 44  1  0
 21 45  1  0
 21 46  1  0
 22 47  1  0
 22 48  1  0
 24 49  1  0
 24 50  1  0
M  END
>  <smiles>  (326) 
[H]c1c([H])c(N2C([H])([H])C([H])([H])N(C(=O)N([H])[H])C([H])([H])C2([H])[H])c([H])c([H])c1OC([H])([H])C([H])([H])N1C([H])([H])C([H])([H])OC([H])([H])C1([H])[H]

>  <error>  (326) 


>  <∆∆G>  (326) 
187.17529

>  <∆G_bound>  (326) 
382.26748

>  <∆G_unbound>  (326) 
195.09219

>  <comRMSD>  (326) 
2.086782

>  <N_constrained_atoms>  (326) 
24.0

>  <N_unconstrained_atoms>  (326) 
0.0

>  <runtime>  (326) 
6.137731

>  <regarded>  (326) 
['z0052a', 'd0612a']

>  <disregarded>  (326) 
[]

>  <LE>  (326) 
-7.79897

>  <outcome>  (326) 
too moved

>  <percent_hybrid>  (326) 
38.0

$$$$
LIG
     RDKit          3D

 52 54  0  0  0  0  0  0  0  0999 V2000
  -13.9721  -44.2662  -19.4511 O   0  0  0  0  0  0  0  0  0  0  0  0
  -13.2134  -43.0940  -19.1090 C   0  0  0  0  0  0  0  0  0  0  0  0
  -12.6385  -43.1937  -17.6886 C   0  0  0  0  0  0  0  0  0  0  0  0
  -13.5641  -43.0447  -16.5619 N   0  0  0  0  0  0  0  0  0  0  0  0
  -14.9183  -43.5824  -16.7274 C   0  0  0  0  0  0  0  0  0  0  0  0
  -15.7576  -43.1123  -15.5334 C   0  0  0  0  0  0  0  0  0  0  0  0
  -15.2472  -43.6548  -14.3111 O   0  0  0  0  0  0  0  0  0  0  0  0
  -13.9294  -43.1542  -14.0895 C   0  0  0  0  0  0  0  0  0  0  0  0
  -13.0168  -43.5084  -15.2716 C   0  0  0  0  0  0  0  0  0  0  0  0
  -18.5538  -44.0354  -24.8217 F   0  0  0  0  0  0  0  0  0  0  0  0
  -14.9782  -40.8079  -24.9959 N   0  0  0  0  0  0  0  0  0  0  0  0
  -15.3949  -40.1335  -26.2227 C   0  0  0  0  0  0  0  0  0  0  0  0
  -18.9130  -36.4080  -24.7757 C   0  0  0  0  0  0  0  0  0  0  0  0
  -17.5389  -43.3940  -24.2239 C   0  0  0  0  0  0  0  0  0  0  0  0
  -16.8204  -42.4409  -24.9442 C   0  0  0  0  0  0  0  0  0  0  0  0
  -15.7788  -41.7377  -24.3400 C   0  0  0  0  0  0  0  0  0  0  0  0
  -15.4418  -42.0824  -23.0205 C   0  0  0  0  0  0  0  0  0  0  0  0
  -16.1596  -43.0432  -22.2870 C   0  0  0  0  0  0  0  0  0  0  0  0
  -17.2236  -43.6998  -22.9045 C   0  0  0  0  0  0  0  0  0  0  0  0
  -17.5288  -38.9037  -27.0366 C   0  0  0  0  0  0  0  0  0  0  0  0
  -18.4559  -37.9395  -26.6813 N   0  0  0  0  0  0  0  0  0  0  0  0
  -18.1486  -37.4672  -25.4896 C   0  0  0  0  0  0  0  0  0  0  0  0
  -16.7549  -38.1502  -24.7506 S   0  0  0  0  0  0  0  0  0  0  0  0
  -16.5367  -39.1682  -26.1131 C   0  0  0  0  0  0  0  0  0  0  0  0
  -14.4893  -44.1872  -20.7857 C   0  0  0  0  0  0  0  0  0  0  0  0
  -15.7634  -43.3411  -20.8640 C   0  0  0  0  0  0  0  0  0  0  0  0
  -12.3831  -42.9966  -19.8174 H   0  0  0  0  0  0  0  0  0  0  0  0
  -13.8298  -42.1930  -19.1929 H   0  0  0  0  0  0  0  0  0  0  0  0
  -12.0842  -44.1174  -17.6460 H   0  0  0  0  0  0  0  0  0  0  0  0
  -11.8950  -42.3934  -17.5848 H   0  0  0  0  0  0  0  0  0  0  0  0
  -15.3948  -43.1843  -17.6280 H   0  0  0  0  0  0  0  0  0  0  0  0
  -14.9058  -44.6757  -16.7839 H   0  0  0  0  0  0  0  0  0  0  0  0
  -15.7635  -42.0156  -15.4656 H   0  0  0  0  0  0  0  0  0  0  0  0
  -16.7978  -43.3962  -15.6683 H   0  0  0  0  0  0  0  0  0  0  0  0
  -13.9707  -42.0701  -13.9292 H   0  0  0  0  0  0  0  0  0  0  0  0
  -13.5471  -43.6120  -13.1716 H   0  0  0  0  0  0  0  0  0  0  0  0
  -12.9391  -44.5998  -15.2848 H   0  0  0  0  0  0  0  0  0  0  0  0
  -12.0230  -43.0817  -15.0978 H   0  0  0  0  0  0  0  0  0  0  0  0
  -14.5216  -40.1623  -24.3592 H   0  0  0  0  0  0  0  0  0  0  0  0
  -14.5265  -39.5753  -26.5947 H   0  0  0  0  0  0  0  0  0  0  0  0
  -15.6087  -40.8775  -27.0004 H   0  0  0  0  0  0  0  0  0  0  0  0
  -19.3131  -36.7870  -23.8300 H   0  0  0  0  0  0  0  0  0  0  0  0
  -18.2780  -35.5407  -24.5688 H   0  0  0  0  0  0  0  0  0  0  0  0
  -19.7559  -36.0693  -25.3870 H   0  0  0  0  0  0  0  0  0  0  0  0
  -17.1007  -42.2689  -25.9758 H   0  0  0  0  0  0  0  0  0  0  0  0
  -14.5982  -41.5832  -22.5453 H   0  0  0  0  0  0  0  0  0  0  0  0
  -17.8074  -44.4498  -22.3799 H   0  0  0  0  0  0  0  0  0  0  0  0
  -17.6170  -39.3875  -28.0013 H   0  0  0  0  0  0  0  0  0  0  0  0
  -13.7053  -43.8389  -21.4688 H   0  0  0  0  0  0  0  0  0  0  0  0
  -14.7472  -45.2055  -21.0910 H   0  0  0  0  0  0  0  0  0  0  0  0
  -16.5744  -43.8605  -20.3376 H   0  0  0  0  0  0  0  0  0  0  0  0
  -15.6504  -42.3920  -20.3285 H   0  0  0  0  0  0  0  0  0  0  0  0
  2  1  1  0
  3  2  1  0
  4  3  1  0
  4  9  1  0
  4  5  1  0
  5  6  1  0
  6  7  1  0
  7  8  1  0
  8  9  1  0
 12 11  1  0
 14 19  2  0
 14 10  1  0
 14 15  1  0
 15 16  2  0
 16 11  1  0
 16 17  1  0
 17 18  2  0
 18 19  1  0
 20 21  1  0
 20 24  2  0
 21 22  2  0
 22 13  1  0
 22 23  1  0
 23 24  1  0
 24 12  1  0
 25  1  1  0
 26 25  1  0
 26 18  1  0
  2 27  1  0
  2 28  1  0
  3 29  1  0
  3 30  1  0
  5 31  1  0
  5 32  1  0
  6 33  1  0
  6 34  1  0
  8 35  1  0
  8 36  1  0
  9 37  1  0
  9 38  1  0
 11 39  1  0
 12 40  1  0
 12 41  1  0
 13 42  1  0
 13 43  1  0
 13 44  1  0
 15 45  1  0
 17 46  1  0
 19 47  1  0
 20 48  1  0
 25 49  1  0
 25 50  1  0
 26 51  1  0
 26 52  1  0
M  END
>  <smiles>  (327) 
[H]c1nc(C([H])([H])[H])sc1C([H])([H])N([H])c1c([H])c(F)c([H])c(C([H])([H])C([H])([H])OC([H])([H])C([H])([H])N2C([H])([H])C([H])([H])OC([H])([H])C2([H])[H])c1[H]

>  <error>  (327) 


>  <∆∆G>  (327) 
-80.313354

>  <∆G_bound>  (327) 
244.170925

>  <∆G_unbound>  (327) 
324.484279

>  <comRMSD>  (327) 
1.10816

>  <N_constrained_atoms>  (327) 
24.0

>  <N_unconstrained_atoms>  (327) 
2.0

>  <runtime>  (327) 
2.949946

>  <regarded>  (327) 
['z0052a', 'd0615b']

>  <disregarded>  (327) 
[]

>  <LE>  (327) 
3.088975

>  <outcome>  (327) 
too moved

>  <percent_hybrid>  (327) 
38.0

$$$$

     RDKit          2D

  0  0  0  0  0  0  0  0  0  0999 V2000
M  END
>  <smiles>  (328) 
nan

>  <error>  (328) 
DistanceError 6.15 Å

>  <∆∆G>  (328) 
nan

>  <∆G_bound>  (328) 
nan

>  <∆G_unbound>  (328) 
nan

>  <comRMSD>  (328) 
nan

>  <N_constrained_atoms>  (328) 
nan

>  <N_unconstrained_atoms>  (328) 
nan

>  <runtime>  (328) 
nan

>  <regarded>  (328) 
[]

>  <disregarded>  (328) 
[]

>  <LE>  (328) 
nan

>  <outcome>  (328) 
too distant

>  <percent_hybrid>  (328) 
nan

$$$$

     RDKit          2D

  0  0  0  0  0  0  0  0  0  0999 V2000
M  END
>  <smiles>  (329) 
nan

>  <error>  (329) 
DistanceError 5.04 Å

>  <∆∆G>  (329) 
nan

>  <∆G_bound>  (329) 
nan

>  <∆G_unbound>  (329) 
nan

>  <comRMSD>  (329) 
nan

>  <N_constrained_atoms>  (329) 
nan

>  <N_unconstrained_atoms>  (329) 
nan

>  <runtime>  (329) 
nan

>  <regarded>  (329) 
[]

>  <disregarded>  (329) 
[]

>  <LE>  (329) 
nan

>  <outcome>  (329) 
too distant

>  <percent_hybrid>  (329) 
nan

$$$$

     RDKit          2D

  0  0  0  0  0  0  0  0  0  0999 V2000
M  END
>  <smiles>  (330) 
nan

>  <error>  (330) 
DistanceError 6.86 Å

>  <∆∆G>  (330) 
nan

>  <∆G_bound>  (330) 
nan

>  <∆G_unbound>  (330) 
nan

>  <comRMSD>  (330) 
nan

>  <N_constrained_atoms>  (330) 
nan

>  <N_unconstrained_atoms>  (330) 
nan

>  <runtime>  (330) 
nan

>  <regarded>  (330) 
[]

>  <disregarded>  (330) 
[]

>  <LE>  (330) 
nan

>  <outcome>  (330) 
too distant

>  <percent_hybrid>  (330) 
nan

$$$$
LIG
     RDKit          3D

 46 47  0  0  0  0  0  0  0  0999 V2000
  -13.5402  -44.4002  -19.8161 O   0  0  0  0  0  0  0  0  0  0  0  0
  -14.1948  -43.7933  -18.7146 C   0  0  0  0  0  0  0  0  0  0  0  0
  -13.1711  -43.2993  -17.6764 C   0  0  0  0  0  0  0  0  0  0  0  0
  -13.6940  -43.0675  -16.3351 N   0  0  0  0  0  0  0  0  0  0  0  0
  -14.9169  -43.7469  -15.9155 C   0  0  0  0  0  0  0  0  0  0  0  0
  -15.2012  -43.3474  -14.4656 C   0  0  0  0  0  0  0  0  0  0  0  0
  -14.2646  -43.9437  -13.5640 O   0  0  0  0  0  0  0  0  0  0  0  0
  -12.9518  -44.0191  -14.1291 C   0  0  0  0  0  0  0  0  0  0  0  0
  -12.6945  -42.9968  -15.2600 C   0  0  0  0  0  0  0  0  0  0  0  0
  -12.3262  -41.9103  -20.5416 N   0  0  0  0  0  0  0  0  0  0  0  0
  -11.8652  -40.8005  -20.5687 C   0  0  0  0  0  0  0  0  0  0  0  0
  -10.5766  -40.5503  -19.8061 C   0  0  0  0  0  0  0  0  0  0  0  0
  -12.3881  -39.5056  -21.2510 N   0  0  0  0  0  0  0  0  0  0  0  0
  -13.5086  -39.2947  -22.1115 C   0  0  0  0  0  0  0  0  0  0  0  0
  -13.5976  -37.8258  -22.3320 C   0  0  0  0  0  0  0  0  0  0  0  0
  -12.5691  -37.0639  -22.6483 N   0  0  0  0  0  0  0  0  0  0  0  0
  -12.9360  -35.8034  -22.2843 C   0  0  0  0  0  0  0  0  0  0  0  0
  -14.2547  -35.7660  -21.9118 C   0  0  0  0  0  0  0  0  0  0  0  0
  -14.6802  -37.0649  -21.9774 N   0  0  0  0  0  0  0  0  0  0  0  0
  -13.8025  -43.7969  -21.0836 C   0  0  0  0  0  0  0  0  0  0  0  0
  -13.5784  -42.2808  -21.1689 C   0  0  0  0  0  0  0  0  0  0  0  0
  -14.8876  -42.9944  -18.9977 H   0  0  0  0  0  0  0  0  0  0  0  0
  -14.8168  -44.5920  -18.2998 H   0  0  0  0  0  0  0  0  0  0  0  0
  -12.3085  -43.9653  -17.6688 H   0  0  0  0  0  0  0  0  0  0  0  0
  -12.7626  -42.3466  -18.0287 H   0  0  0  0  0  0  0  0  0  0  0  0
  -15.7599  -43.4257  -16.5357 H   0  0  0  0  0  0  0  0  0  0  0  0
  -14.7922  -44.8318  -15.9939 H   0  0  0  0  0  0  0  0  0  0  0  0
  -15.1514  -42.2572  -14.3407 H   0  0  0  0  0  0  0  0  0  0  0  0
  -16.2024  -43.6155  -14.1522 H   0  0  0  0  0  0  0  0  0  0  0  0
  -12.2336  -43.8654  -13.3172 H   0  0  0  0  0  0  0  0  0  0  0  0
  -12.8100  -45.0418  -14.4956 H   0  0  0  0  0  0  0  0  0  0  0  0
  -11.6708  -43.1017  -15.6350 H   0  0  0  0  0  0  0  0  0  0  0  0
  -12.7555  -41.9887  -14.8307 H   0  0  0  0  0  0  0  0  0  0  0  0
  -10.6581  -40.9758  -18.8026 H   0  0  0  0  0  0  0  0  0  0  0  0
   -9.7436  -41.0055  -20.3452 H   0  0  0  0  0  0  0  0  0  0  0  0
  -10.3763  -39.4809  -19.7012 H   0  0  0  0  0  0  0  0  0  0  0  0
  -11.7002  -38.7623  -21.1382 H   0  0  0  0  0  0  0  0  0  0  0  0
  -13.3629  -39.7995  -23.0698 H   0  0  0  0  0  0  0  0  0  0  0  0
  -14.4296  -39.6645  -21.6524 H   0  0  0  0  0  0  0  0  0  0  0  0
  -12.2253  -34.9963  -22.3045 H   0  0  0  0  0  0  0  0  0  0  0  0
  -14.8974  -34.9650  -21.5749 H   0  0  0  0  0  0  0  0  0  0  0  0
  -14.8341  -44.0318  -21.3714 H   0  0  0  0  0  0  0  0  0  0  0  0
  -13.1587  -44.2987  -21.8097 H   0  0  0  0  0  0  0  0  0  0  0  0
  -13.6098  -41.9971  -22.2243 H   0  0  0  0  0  0  0  0  0  0  0  0
  -14.4025  -41.7642  -20.6658 H   0  0  0  0  0  0  0  0  0  0  0  0
  -15.5784  -37.4136  -21.6691 H   0  0  0  0  0  0  0  0  0  0  0  0
  2  1  1  0
  3  2  1  0
  4  3  1  0
  4  9  1  0
  4  5  1  0
  5  6  1  0
  6  7  1  0
  7  8  1  0
  8  9  1  0
 12 11  1  0
 11 10  2  0
 13 11  1  0
 14 13  1  0
 15 14  1  0
 15 16  2  0
 15 19  1  0
 16 17  1  0
 17 18  2  0
 18 19  1  0
 20  1  1  0
 21 20  1  0
 21 10  1  0
  2 22  1  0
  2 23  1  0
  3 24  1  0
  3 25  1  0
  5 26  1  0
  5 27  1  0
  6 28  1  0
  6 29  1  0
  8 30  1  0
  8 31  1  0
  9 32  1  0
  9 33  1  0
 12 34  1  0
 12 35  1  0
 12 36  1  0
 13 37  1  0
 14 38  1  0
 14 39  1  0
 17 40  1  0
 18 41  1  0
 20 42  1  0
 20 43  1  0
 21 44  1  0
 21 45  1  0
 19 46  1  0
M  END
>  <smiles>  (331) 
[H]c1nc(C([H])([H])N([H])/C(=N/C([H])([H])C([H])([H])OC([H])([H])C([H])([H])N2C([H])([H])C([H])([H])OC([H])([H])C2([H])[H])C([H])([H])[H])[nH]c1[H]

>  <error>  (331) 


>  <∆∆G>  (331) 
-17.325378

>  <∆G_bound>  (331) 
20.321125

>  <∆G_unbound>  (331) 
37.646503

>  <comRMSD>  (331) 
1.62453

>  <N_constrained_atoms>  (331) 
19.0

>  <N_unconstrained_atoms>  (331) 
2.0

>  <runtime>  (331) 
3.167126

>  <regarded>  (331) 
['z0052a', 'z0103a']

>  <disregarded>  (331) 
[]

>  <LE>  (331) 
0.825018

>  <outcome>  (331) 
too moved

>  <percent_hybrid>  (331) 
48.0

$$$$

     RDKit          2D

  0  0  0  0  0  0  0  0  0  0999 V2000
M  END
>  <smiles>  (332) 
nan

>  <error>  (332) 
DistanceError 7.61 Å

>  <∆∆G>  (332) 
nan

>  <∆G_bound>  (332) 
nan

>  <∆G_unbound>  (332) 
nan

>  <comRMSD>  (332) 
nan

>  <N_constrained_atoms>  (332) 
nan

>  <N_unconstrained_atoms>  (332) 
nan

>  <runtime>  (332) 
nan

>  <regarded>  (332) 
[]

>  <disregarded>  (332) 
[]

>  <LE>  (332) 
nan

>  <outcome>  (332) 
too distant

>  <percent_hybrid>  (332) 
nan

$$$$

     RDKit          2D

  0  0  0  0  0  0  0  0  0  0999 V2000
M  END
>  <smiles>  (333) 
nan

>  <error>  (333) 
RecursionError maximum recursion depth exceeded while calling a Python object

>  <∆∆G>  (333) 
nan

>  <∆G_bound>  (333) 
nan

>  <∆G_unbound>  (333) 
nan

>  <comRMSD>  (333) 
nan

>  <N_constrained_atoms>  (333) 
nan

>  <N_unconstrained_atoms>  (333) 
nan

>  <runtime>  (333) 
nan

>  <regarded>  (333) 
[]

>  <disregarded>  (333) 
[]

>  <LE>  (333) 
nan

>  <outcome>  (333) 
crashed

>  <percent_hybrid>  (333) 
nan

$$$$
LIG
     RDKit          3D

 30 31  0  0  0  0  0  0  0  0999 V2000
  -13.6052  -43.2653  -19.7860 C   0  0  0  0  0  0  0  0  0  0  0  0
  -14.2666  -43.8321  -18.6236 C   0  0  0  0  0  0  0  0  0  0  0  0
  -13.4806  -43.4902  -17.3470 C   0  0  0  0  0  0  0  0  0  0  0  0
  -13.1516  -42.5007  -20.5884 C   0  0  0  0  0  0  0  0  0  0  0  0
  -14.1836  -44.0192  -16.1628 N   0  0  0  0  0  0  0  0  0  0  0  0
  -13.2700  -44.3990  -15.0836 C   0  0  0  0  0  0  0  0  0  0  0  0
  -13.7215  -44.3694  -13.6208 C   0  0  0  0  0  0  0  0  0  0  0  0
  -14.9389  -43.6880  -13.3764 O   0  0  0  0  0  0  0  0  0  0  0  0
  -15.1026  -42.5916  -14.2612 C   0  0  0  0  0  0  0  0  0  0  0  0
  -15.2237  -43.0740  -15.7080 C   0  0  0  0  0  0  0  0  0  0  0  0
  -12.7842  -41.3212  -21.2761 C   0  0  0  0  0  0  0  0  0  0  0  0
  -13.5747  -40.5933  -22.1291 C   0  0  0  0  0  0  0  0  0  0  0  0
  -12.8688  -39.4455  -22.3533 N   0  0  0  0  0  0  0  0  0  0  0  0
  -11.7062  -39.5262  -21.6390 C   0  0  0  0  0  0  0  0  0  0  0  0
  -11.6183  -40.6647  -20.9896 N   0  0  0  0  0  0  0  0  0  0  0  0
  -15.2752  -43.4045  -18.5547 H   0  0  0  0  0  0  0  0  0  0  0  0
  -14.4119  -44.9064  -18.7591 H   0  0  0  0  0  0  0  0  0  0  0  0
  -12.4679  -43.8922  -17.4456 H   0  0  0  0  0  0  0  0  0  0  0  0
  -13.3250  -42.4054  -17.2577 H   0  0  0  0  0  0  0  0  0  0  0  0
  -12.9626  -45.4315  -15.2571 H   0  0  0  0  0  0  0  0  0  0  0  0
  -12.3756  -43.7629  -15.1247 H   0  0  0  0  0  0  0  0  0  0  0  0
  -13.7964  -45.3873  -13.2272 H   0  0  0  0  0  0  0  0  0  0  0  0
  -12.9476  -43.8793  -13.0166 H   0  0  0  0  0  0  0  0  0  0  0  0
  -16.0161  -42.0614  -13.9729 H   0  0  0  0  0  0  0  0  0  0  0  0
  -14.2653  -41.8928  -14.1432 H   0  0  0  0  0  0  0  0  0  0  0  0
  -15.2952  -42.1886  -16.3526 H   0  0  0  0  0  0  0  0  0  0  0  0
  -16.1822  -43.5828  -15.8238 H   0  0  0  0  0  0  0  0  0  0  0  0
  -14.5575  -40.7656  -22.5440 H   0  0  0  0  0  0  0  0  0  0  0  0
  -10.9692  -38.7336  -21.6318 H   0  0  0  0  0  0  0  0  0  0  0  0
  -13.1661  -38.6664  -22.9228 H   0  0  0  0  0  0  0  0  0  0  0  0
  2  1  1  0
  3  2  1  0
  4  1  3  0
  5  3  1  0
  5 10  1  0
  5  6  1  0
  6  7  1  0
  7  8  1  0
  8  9  1  0
  9 10  1  0
 11  4  1  0
 11 12  2  0
 11 15  1  0
 12 13  1  0
 13 14  1  0
 14 15  2  0
  2 16  1  0
  2 17  1  0
  3 18  1  0
  3 19  1  0
  6 20  1  0
  6 21  1  0
  7 22  1  0
  7 23  1  0
  9 24  1  0
  9 25  1  0
 10 26  1  0
 10 27  1  0
 12 28  1  0
 14 29  1  0
 13 30  1  0
M  END
>  <smiles>  (334) 
[H]c1nc(C#CC([H])([H])C([H])([H])N2C([H])([H])C([H])([H])OC([H])([H])C2([H])[H])c([H])[nH]1

>  <error>  (334) 


>  <∆∆G>  (334) 
-4.629612

>  <∆G_bound>  (334) 
-109.006437

>  <∆G_unbound>  (334) 
-104.376825

>  <comRMSD>  (334) 
1.556388

>  <N_constrained_atoms>  (334) 
15.0

>  <N_unconstrained_atoms>  (334) 
0.0

>  <runtime>  (334) 
0.796452

>  <regarded>  (334) 
['z0052a', 'z0875c']

>  <disregarded>  (334) 
[]

>  <LE>  (334) 
0.308641

>  <outcome>  (334) 
too moved

>  <percent_hybrid>  (334) 
40.0

$$$$
LIG
     RDKit          3D

 73 76  0  0  0  0  0  0  0  0999 V2000
  -12.1897  -42.6980  -19.6796 O   0  0  0  0  0  0  0  0  0  0  0  0
  -13.2471  -42.5388  -18.7161 C   0  0  1  0  0  0  0  0  0  0  0  0
  -12.6527  -43.2379  -17.4341 C   0  0  0  0  0  0  0  0  0  0  0  0
  -13.3623  -41.0331  -18.5197 C   0  0  0  0  0  0  0  0  0  0  0  0
  -16.9995  -42.8897  -14.4990 O   0  0  0  0  0  0  0  0  0  0  0  0
  -14.0123  -37.8549  -16.1614 O   0  0  0  0  0  0  0  0  0  0  0  0
  -19.5819  -46.2570  -24.7093 C   0  0  0  0  0  0  0  0  0  0  0  0
  -20.2218  -46.4237  -25.7097 C   0  0  0  0  0  0  0  0  0  0  0  0
  -20.9698  -46.6359  -26.9371 C   0  0  0  0  0  0  0  0  0  0  0  0
  -15.6585  -44.5229  -16.8402 O   0  0  0  0  0  0  0  0  0  0  0  0
  -15.9121  -43.5394  -17.4150 C   0  0  0  0  0  0  0  0  0  0  0  0
  -16.5648  -42.2179  -16.9137 N   0  0  0  0  0  0  0  0  0  0  0  0
  -17.2040  -41.8283  -15.4386 S   0  0  0  0  0  0  0  0  0  0  0  0
  -18.4920  -41.2199  -15.6838 O   0  0  0  0  0  0  0  0  0  0  0  0
  -14.6178  -37.6006  -17.4229 C   0  0  0  0  0  0  0  0  0  0  0  0
  -15.4553  -43.8386  -22.9814 O   0  0  0  0  0  0  0  0  0  0  0  0
  -14.3741  -43.2808  -23.7007 C   0  0  0  0  0  0  0  0  0  0  0  0
  -22.0520  -45.7205  -27.0252 O   0  0  0  0  0  0  0  0  0  0  0  0
  -13.3137  -43.1766  -16.1249 N   0  0  0  0  0  0  0  0  0  0  0  0
  -13.3158  -44.4017  -15.3018 C   0  0  0  0  0  0  0  0  0  0  0  0
  -14.1433  -44.2538  -14.0343 C   0  0  0  0  0  0  0  0  0  0  0  0
  -13.8717  -43.0755  -13.2832 O   0  0  0  0  0  0  0  0  0  0  0  0
  -12.7270  -42.3878  -13.7674 C   0  0  0  0  0  0  0  0  0  0  0  0
  -12.7984  -42.0793  -15.2820 C   0  0  0  0  0  0  0  0  0  0  0  0
  -15.4784  -43.7090  -21.6210 C   0  0  0  0  0  0  0  0  0  0  0  0
  -14.4825  -43.0880  -20.8655 C   0  0  0  0  0  0  0  0  0  0  0  0
  -14.4961  -43.0611  -19.4428 C   0  0  0  0  0  0  0  0  0  0  0  0
  -15.6730  -43.5182  -18.8474 C   0  0  0  0  0  0  0  0  0  0  0  0
  -16.6804  -44.1595  -19.5844 C   0  0  0  0  0  0  0  0  0  0  0  0
  -16.5685  -44.2928  -20.9636 C   0  0  0  0  0  0  0  0  0  0  0  0
  -14.1985  -38.7728  -14.0214 C   0  0  0  0  0  0  0  0  0  0  0  0
  -14.7381  -39.6739  -13.1047 C   0  0  0  0  0  0  0  0  0  0  0  0
  -15.7032  -40.5791  -13.5268 C   0  0  0  0  0  0  0  0  0  0  0  0
  -16.1396  -40.5494  -14.8561 C   0  0  0  0  0  0  0  0  0  0  0  0
  -15.6594  -39.6044  -15.7546 C   0  0  0  0  0  0  0  0  0  0  0  0
  -14.6568  -38.7364  -15.3433 C   0  0  0  0  0  0  0  0  0  0  0  0
  -17.8258  -46.4556  -21.4724 C   0  0  0  0  0  0  0  0  0  0  0  0
  -18.6072  -46.9839  -22.5353 C   0  0  0  0  0  0  0  0  0  0  0  0
  -18.8860  -46.0305  -23.4902 C   0  0  0  0  0  0  0  0  0  0  0  0
  -18.3971  -44.4798  -23.0054 S   0  0  0  0  0  0  0  0  0  0  0  0
  -17.5242  -45.1250  -21.6833 C   0  0  0  0  0  0  0  0  0  0  0  0
  -12.1878  -43.6227  -19.9879 H   0  0  0  0  0  0  0  0  0  0  0  0
  -12.4984  -44.2470  -17.7579 H   0  0  0  0  0  0  0  0  0  0  0  0
  -11.6143  -42.8943  -17.3196 H   0  0  0  0  0  0  0  0  0  0  0  0
  -13.5453  -40.5130  -19.4680 H   0  0  0  0  0  0  0  0  0  0  0  0
  -14.1789  -40.7897  -17.8398 H   0  0  0  0  0  0  0  0  0  0  0  0
  -12.4347  -40.6121  -18.1150 H   0  0  0  0  0  0  0  0  0  0  0  0
  -21.3450  -47.6586  -27.0302 H   0  0  0  0  0  0  0  0  0  0  0  0
  -20.3061  -46.4235  -27.7710 H   0  0  0  0  0  0  0  0  0  0  0  0
  -16.7150  -41.5946  -17.6989 H   0  0  0  0  0  0  0  0  0  0  0  0
  -15.6581  -37.2764  -17.3101 H   0  0  0  0  0  0  0  0  0  0  0  0
  -14.0676  -36.7802  -17.8943 H   0  0  0  0  0  0  0  0  0  0  0  0
  -14.5435  -38.4662  -18.0852 H   0  0  0  0  0  0  0  0  0  0  0  0
  -14.2735  -42.2086  -23.5066 H   0  0  0  0  0  0  0  0  0  0  0  0
  -13.4554  -43.8304  -23.4801 H   0  0  0  0  0  0  0  0  0  0  0  0
  -14.5905  -43.3988  -24.7641 H   0  0  0  0  0  0  0  0  0  0  0  0
  -22.8169  -46.1667  -26.5988 H   0  0  0  0  0  0  0  0  0  0  0  0
  -13.6853  -45.2812  -15.8210 H   0  0  0  0  0  0  0  0  0  0  0  0
  -12.3147  -44.6133  -14.9261 H   0  0  0  0  0  0  0  0  0  0  0  0
  -15.1952  -44.2518  -14.2810 H   0  0  0  0  0  0  0  0  0  0  0  0
  -13.9208  -45.1004  -13.3784 H   0  0  0  0  0  0  0  0  0  0  0  0
  -12.6165  -41.4579  -13.2030 H   0  0  0  0  0  0  0  0  0  0  0  0
  -11.8345  -42.9827  -13.5346 H   0  0  0  0  0  0  0  0  0  0  0  0
  -11.7931  -41.7590  -15.5823 H   0  0  0  0  0  0  0  0  0  0  0  0
  -13.4482  -41.2261  -15.4492 H   0  0  0  0  0  0  0  0  0  0  0  0
  -13.6325  -42.6541  -21.3893 H   0  0  0  0  0  0  0  0  0  0  0  0
  -17.5394  -44.5899  -19.0698 H   0  0  0  0  0  0  0  0  0  0  0  0
  -13.4149  -38.0884  -13.7046 H   0  0  0  0  0  0  0  0  0  0  0  0
  -14.3801  -39.6987  -12.0790 H   0  0  0  0  0  0  0  0  0  0  0  0
  -16.0762  -41.3306  -12.8325 H   0  0  0  0  0  0  0  0  0  0  0  0
  -16.0355  -39.5950  -16.7685 H   0  0  0  0  0  0  0  0  0  0  0  0
  -17.4259  -47.0514  -20.6607 H   0  0  0  0  0  0  0  0  0  0  0  0
  -18.9048  -48.0223  -22.6152 H   0  0  0  0  0  0  0  0  0  0  0  0
  2  1  1  1
  3  2  1  0
  4  2  1  0
  9 18  1  0
  9  8  1  0
  8  7  3  0
 16 17  1  0
 12 11  1  0
 12 13  1  0
 11 10  2  0
  5 13  2  0
 14 13  2  0
 15  6  1  0
 19  3  1  0
 19 24  1  0
 19 20  1  0
 20 21  1  0
 21 22  1  0
 22 23  1  0
 23 24  1  0
 25 30  2  0
 25 16  1  0
 25 26  1  0
 26 27  2  0
 27 28  1  0
 28 29  2  0
 28 11  1  0
 29 30  1  0
 30 41  1  0
 31 36  2  0
 31 32  1  0
 32 33  2  0
 33 34  1  0
 34 13  1  0
 34 35  2  0
 35 36  1  0
 36  6  1  0
 37 38  1  0
 37 41  2  0
 38 39  2  0
 39  7  1  0
 39 40  1  0
 40 41  1  0
  2 27  1  0
  1 42  1  0
  3 43  1  0
  3 44  1  0
  4 45  1  0
  4 46  1  0
  4 47  1  0
  9 48  1  0
  9 49  1  0
 12 50  1  0
 15 51  1  0
 15 52  1  0
 15 53  1  0
 17 54  1  0
 17 55  1  0
 17 56  1  0
 18 57  1  0
 20 58  1  0
 20 59  1  0
 21 60  1  0
 21 61  1  0
 23 62  1  0
 23 63  1  0
 24 64  1  0
 24 65  1  0
 26 66  1  0
 29 67  1  0
 31 68  1  0
 32 69  1  0
 33 70  1  0
 35 71  1  0
 37 72  1  0
 38 73  1  0
M  END
>  <smiles>  (335) 
[H]OC([H])([H])C#Cc1sc(-c2c([H])c(C(=O)N([H])S(=O)(=O)c3c([H])c([H])c([H])c(OC([H])([H])[H])c3[H])c([C@](O[H])(C([H])([H])[H])C([H])([H])N3C([H])([H])C([H])([H])OC([H])([H])C3([H])[H])c([H])c2OC([H])([H])[H])c([H])c1[H]

>  <error>  (335) 


>  <∆∆G>  (335) 
-48.950919

>  <∆G_bound>  (335) 
164.702268

>  <∆G_unbound>  (335) 
213.653187

>  <comRMSD>  (335) 
1.30848

>  <N_constrained_atoms>  (335) 
41.0

>  <N_unconstrained_atoms>  (335) 
0.0

>  <runtime>  (335) 
18.112107

>  <regarded>  (335) 
['z0052a', '5i3p-a']

>  <disregarded>  (335) 
[]

>  <LE>  (335) 
1.193925

>  <outcome>  (335) 
too moved

>  <percent_hybrid>  (335) 
22.0

$$$$
LIG
     RDKit          3D

  0  0  0  0  0  0  0  0  0  0999 V3000
M  V30 BEGIN CTAB
M  V30 COUNTS 51 53 0 0 0
M  V30 BEGIN ATOM
M  V30 1 O -13.361000 -44.921001 -19.518999 0
M  V30 2 C -12.831000 -43.943001 -18.639999 0 CFG=2
M  V30 3 C -12.671000 -44.536999 -17.264000 0
M  V30 4 N -13.934000 -44.601002 -16.518999 0
M  V30 5 C -14.343000 -45.999001 -16.367001 0
M  V30 6 C -15.527000 -46.108002 -15.451000 0
M  V30 7 O -15.254000 -45.561001 -14.174000 0
M  V30 8 C -14.966000 -44.181999 -14.329000 0
M  V30 9 C -13.759000 -43.964001 -15.203000 0
M  V30 10 O -12.915000 -39.988998 -21.322001 0
M  V30 11 O -15.092000 -40.324001 -21.309999 0
M  V30 12 C -13.912000 -40.751999 -21.268000 0
M  V30 13 C -13.628000 -42.243999 -21.202999 0
M  V30 14 O -17.378000 -45.675999 -18.625999 0
M  V30 15 C -16.489000 -44.841000 -19.246000 0
M  V30 16 C -15.599000 -44.064999 -18.492001 0
M  V30 17 C -14.680000 -43.231998 -19.141001 0
M  V30 18 C -14.654000 -43.130001 -20.540001 0
M  V30 19 C -15.497000 -43.917999 -21.339001 0
M  V30 20 C -16.443001 -44.769001 -20.743000 0
M  V30 21 C -18.603001 -47.646999 -22.007000 0
M  V30 22 C -17.684000 -46.908001 -21.254000 0
M  V30 23 C -17.409000 -45.562000 -21.568001 0
M  V30 24 C -18.075001 -44.958000 -22.642000 0
M  V30 25 C -18.973000 -45.709000 -23.403000 0
M  V30 26 C -19.254999 -47.042999 -23.087000 0
M  V30 27 N -13.755501 -43.587502 -18.890499 0
M  V30 28 H -13.760084 -45.657425 -18.991259 0
M  V30 29 H -11.899869 -43.358574 -18.677910 0
M  V30 30 H -12.271771 -45.556881 -17.366249 0
M  V30 31 H -11.987976 -43.884567 -16.700251 0
M  V30 32 H -13.850260 -46.851837 -16.856773 0
M  V30 33 H -13.666948 -46.103123 -15.505542 0
M  V30 34 H -16.489220 -46.557888 -15.736901 0
M  V30 35 H -15.170218 -47.089912 -15.106675 0
M  V30 36 H -15.550909 -43.372158 -13.868524 0
M  V30 37 H -14.316962 -44.217804 -13.441607 0
M  V30 38 H -12.863704 -43.402321 -14.898104 0
M  V30 39 H -14.207665 -43.037891 -15.591615 0
M  V30 40 H -13.043917 -39.008404 -21.365770 0
M  V30 41 H -13.507092 -42.599754 -22.236835 0
M  V30 42 H -12.736978 -42.327503 -20.563385 0
M  V30 43 H -17.416443 -45.712105 -17.637405 0
M  V30 44 H -15.622280 -44.110146 -17.393173 0
M  V30 45 H -15.416857 -43.869213 -22.434992 0
M  V30 46 H -18.811413 -48.696358 -21.751242 0
M  V30 47 H -17.169569 -47.383751 -20.406048 0
M  V30 48 H -17.892073 -43.900646 -22.883947 0
M  V30 49 H -19.468428 -45.243206 -24.267632 0
M  V30 50 H -19.983591 -47.611877 -23.683266 0
M  V30 51 H -12.755501 -42.587502 -17.890499 0
M  V30 END ATOM
M  V30 BEGIN BOND
M  V30 1 1 2 1
M  V30 2 1 3 2
M  V30 3 1 4 3
M  V30 4 1 4 9
M  V30 5 1 4 5
M  V30 6 1 5 6
M  V30 7 1 6 7
M  V30 8 1 7 8
M  V30 9 1 8 9
M  V30 10 1 13 12
M  V30 11 2 11 12
M  V30 12 1 12 10
M  V30 13 1 15 14
M  V30 14 2 15 20
M  V30 15 1 15 16
M  V30 16 2 16 17
M  V30 17 1 17 18
M  V30 18 2 18 19
M  V30 19 1 18 13
M  V30 20 1 19 20
M  V30 21 1 20 23
M  V30 22 2 21 26
M  V30 23 1 21 22
M  V30 24 2 22 23
M  V30 25 1 23 24
M  V30 26 2 24 25
M  V30 27 1 25 26
M  V30 28 1 27 2
M  V30 29 1 27 17
M  V30 30 1 1 28
M  V30 31 1 2 29 CFG=3
M  V30 32 1 3 30
M  V30 33 1 3 31
M  V30 34 1 5 32
M  V30 35 1 5 33
M  V30 36 1 6 34
M  V30 37 1 6 35
M  V30 38 1 8 36
M  V30 39 1 8 37
M  V30 40 1 9 38
M  V30 41 1 9 39
M  V30 42 1 10 40
M  V30 43 1 13 41
M  V30 44 1 13 42
M  V30 45 1 14 43
M  V30 46 1 16 44
M  V30 47 1 19 45
M  V30 48 1 21 46
M  V30 49 1 22 47
M  V30 50 1 24 48
M  V30 51 1 25 49
M  V30 52 1 26 50
M  V30 53 1 27 51
M  V30 END BOND
M  V30 BEGIN COLLECTION
M  V30 MDLV30/STEABS ATOMS=(0)
M  V30 END COLLECTION
M  V30 END CTAB
M  END
>  <smiles>  (336) 
[H]OC(=O)C([H])([H])c1c([H])c(-c2c([H])c([H])c([H])c([H])c2[H])c(O[H])c([H])c1N([H])[C@]([H])(O[H])C([H])([H])N1C([H])([H])C([H])([H])OC([H])([H])C1([H])[H]

>  <error>  (336) 


>  <∆∆G>  (336) 
nan

>  <∆G_bound>  (336) 
nan

>  <∆G_unbound>  (336) 
nan

>  <comRMSD>  (336) 
0.0

>  <N_constrained_atoms>  (336) 
26.0

>  <N_unconstrained_atoms>  (336) 
1.0

>  <runtime>  (336) 
1.617407

>  <regarded>  (336) 
['z0052a', '5hn0-a']

>  <disregarded>  (336) 
[]

>  <LE>  (336) 
nan

>  <outcome>  (336) 
crashed

>  <percent_hybrid>  (336) 
35.0

$$$$
LIG
     RDKit          3D

 50 52  0  0  0  0  0  0  0  0999 V2000
  -12.4632  -42.6015  -19.9965 O   0  0  0  0  0  0  0  0  0  0  0  0
  -12.4885  -42.3297  -18.6029 C   0  0  0  0  0  0  0  0  0  0  0  0
  -13.2207  -43.4392  -17.8887 C   0  0  0  0  0  0  0  0  0  0  0  0
  -14.3658  -43.0776  -16.8992 C   0  0  0  0  0  0  0  0  0  0  0  0
  -14.9012  -44.4323  -16.3553 C   0  0  0  0  0  0  0  0  0  0  0  0
  -14.1104  -44.9518  -15.1639 C   0  0  0  0  0  0  0  0  0  0  0  0
  -14.2867  -44.1095  -14.0312 O   0  0  0  0  0  0  0  0  0  0  0  0
  -14.4695  -42.7290  -14.3502 C   0  0  0  0  0  0  0  0  0  0  0  0
  -13.7720  -42.3342  -15.6567 C   0  0  0  0  0  0  0  0  0  0  0  0
  -15.6188  -42.3498  -17.5990 C   0  0  1  0  0  0  0  0  0  0  0  0
  -16.8473  -40.4230  -16.7149 O   0  0  0  0  0  0  0  0  0  0  0  0
  -15.8369  -43.5128  -23.2023 O   0  0  0  0  0  0  0  0  0  0  0  0
  -15.8381  -40.8817  -17.2294 C   0  0  0  0  0  0  0  0  0  0  0  0
  -14.8211  -40.0498  -17.5175 O   0  0  0  0  0  0  0  0  0  0  0  0
  -14.5828  -43.3204  -23.8460 C   0  0  0  0  0  0  0  0  0  0  0  0
  -15.7812  -42.6288  -19.0993 C   0  0  0  0  0  0  0  0  0  0  0  0
  -15.2075  -41.7695  -20.0410 C   0  0  0  0  0  0  0  0  0  0  0  0
  -15.2054  -42.0637  -21.3984 C   0  0  0  0  0  0  0  0  0  0  0  0
  -15.8362  -43.2062  -21.8653 C   0  0  0  0  0  0  0  0  0  0  0  0
  -16.5480  -44.0266  -20.9689 C   0  0  0  0  0  0  0  0  0  0  0  0
  -16.4804  -43.7523  -19.5837 C   0  0  0  0  0  0  0  0  0  0  0  0
  -17.4878  -46.3421  -20.8548 C   0  0  0  0  0  0  0  0  0  0  0  0
  -18.4561  -47.4336  -21.7383 S   0  0  0  0  0  0  0  0  0  0  0  0
  -18.6565  -46.3322  -23.0168 C   0  0  0  0  0  0  0  0  0  0  0  0
  -18.1176  -45.1086  -22.7143 C   0  0  0  0  0  0  0  0  0  0  0  0
  -17.3692  -45.1219  -21.4873 C   0  0  0  0  0  0  0  0  0  0  0  0
  -12.1513  -43.5075  -20.1602 H   0  0  0  0  0  0  0  0  0  0  0  0
  -11.4627  -42.2457  -18.2420 H   0  0  0  0  0  0  0  0  0  0  0  0
  -12.9349  -41.3491  -18.4471 H   0  0  0  0  0  0  0  0  0  0  0  0
  -13.5988  -44.1523  -18.6308 H   0  0  0  0  0  0  0  0  0  0  0  0
  -12.4433  -43.9531  -17.3294 H   0  0  0  0  0  0  0  0  0  0  0  0
  -15.8978  -44.2103  -15.9861 H   0  0  0  0  0  0  0  0  0  0  0  0
  -15.0097  -45.1828  -17.1430 H   0  0  0  0  0  0  0  0  0  0  0  0
  -14.3981  -45.9687  -14.8914 H   0  0  0  0  0  0  0  0  0  0  0  0
  -13.0457  -44.9931  -15.3639 H   0  0  0  0  0  0  0  0  0  0  0  0
  -15.5434  -42.5153  -14.3946 H   0  0  0  0  0  0  0  0  0  0  0  0
  -14.0605  -42.1473  -13.5178 H   0  0  0  0  0  0  0  0  0  0  0  0
  -12.7104  -42.5966  -15.5494 H   0  0  0  0  0  0  0  0  0  0  0  0
  -13.7838  -41.2498  -15.7691 H   0  0  0  0  0  0  0  0  0  0  0  0
  -16.5304  -42.7855  -17.1617 H   0  0  0  0  0  0  0  0  0  0  0  0
  -15.1593  -39.1719  -17.2382 H   0  0  0  0  0  0  0  0  0  0  0  0
  -14.3962  -42.2607  -24.0425 H   0  0  0  0  0  0  0  0  0  0  0  0
  -13.7644  -43.7760  -23.2787 H   0  0  0  0  0  0  0  0  0  0  0  0
  -14.6438  -43.8159  -24.8128 H   0  0  0  0  0  0  0  0  0  0  0  0
  -14.6840  -40.8645  -19.7455 H   0  0  0  0  0  0  0  0  0  0  0  0
  -14.7032  -41.3749  -22.0694 H   0  0  0  0  0  0  0  0  0  0  0  0
  -17.0029  -44.3947  -18.8797 H   0  0  0  0  0  0  0  0  0  0  0  0
  -17.0433  -46.6670  -19.9254 H   0  0  0  0  0  0  0  0  0  0  0  0
  -19.1766  -46.6256  -23.9171 H   0  0  0  0  0  0  0  0  0  0  0  0
  -18.1842  -44.2598  -23.3834 H   0  0  0  0  0  0  0  0  0  0  0  0
  2  1  1  0
  3  2  1  0
  4  3  1  0
  4  9  1  0
  4  5  1  0
  5  6  1  0
  6  7  1  0
  7  8  1  0
  8  9  1  0
 12 15  1  0
 10 13  1  0
 11 13  2  0
 13 14  1  0
 16 21  1  0
 16 10  1  0
 16 17  2  0
 17 18  1  0
 18 19  2  0
 19 20  1  0
 19 12  1  0
 20 26  1  0
 20 21  2  0
 22 23  1  0
 22 26  2  0
 23 24  1  0
 24 25  2  0
 25 26  1  0
  4 10  1  0
  1 27  1  0
  2 28  1  0
  2 29  1  0
  3 30  1  0
  3 31  1  0
  5 32  1  0
  5 33  1  0
  6 34  1  0
  6 35  1  0
  8 36  1  0
  8 37  1  0
  9 38  1  0
  9 39  1  0
 10 40  1  1
 14 41  1  0
 15 42  1  0
 15 43  1  0
 15 44  1  0
 17 45  1  0
 18 46  1  0
 21 47  1  0
 22 48  1  0
 24 49  1  0
 25 50  1  0
M  END
>  <smiles>  (337) 
[H]OC(=O)[C@@]([H])(c1c([H])c([H])c(OC([H])([H])[H])c(-c2c([H])sc([H])c2[H])c1[H])C1(C([H])([H])C([H])([H])O[H])C([H])([H])C([H])([H])OC([H])([H])C1([H])[H]

>  <error>  (337) 


>  <∆∆G>  (337) 
-162.842541

>  <∆G_bound>  (337) 
48.072866

>  <∆G_unbound>  (337) 
210.915407

>  <comRMSD>  (337) 
1.696517

>  <N_constrained_atoms>  (337) 
26.0

>  <N_unconstrained_atoms>  (337) 
0.0

>  <runtime>  (337) 
2.560008

>  <regarded>  (337) 
['z0052a', '5f41-a']

>  <disregarded>  (337) 
[]

>  <LE>  (337) 
6.263175

>  <outcome>  (337) 
too moved

>  <percent_hybrid>  (337) 
35.0

$$$$
LIG
     RDKit          3D

 50 52  0  0  0  0  0  0  0  0999 V2000
  -13.4947  -44.4144  -18.8963 O   0  0  0  0  0  0  0  0  0  0  0  0
  -12.6314  -43.3688  -18.5091 C   0  0  0  0  0  0  0  0  0  0  0  0
  -13.1439  -42.4965  -17.3595 C   0  0  0  0  0  0  0  0  0  0  0  0
  -14.3447  -42.9192  -16.4409 C   0  0  0  0  0  0  0  0  0  0  0  0
  -14.0638  -44.3533  -15.9403 C   0  0  0  0  0  0  0  0  0  0  0  0
  -14.0780  -44.5415  -14.4449 C   0  0  0  0  0  0  0  0  0  0  0  0
  -15.1904  -43.8491  -13.9267 O   0  0  0  0  0  0  0  0  0  0  0  0
  -15.0267  -42.4439  -13.9694 C   0  0  0  0  0  0  0  0  0  0  0  0
  -14.2297  -41.9878  -15.1871 C   0  0  0  0  0  0  0  0  0  0  0  0
  -15.8074  -42.8485  -17.1168 C   0  0  1  0  0  0  0  0  0  0  0  0
  -15.7505  -43.5475  -22.8060 O   0  0  0  0  0  0  0  0  0  0  0  0
  -17.6702  -41.9024  -15.8598 O   0  0  0  0  0  0  0  0  0  0  0  0
  -16.3822  -40.4736  -17.0208 O   0  0  0  0  0  0  0  0  0  0  0  0
  -16.6311  -41.6251  -16.6834 C   0  0  0  0  0  0  0  0  0  0  0  0
  -14.4891  -43.2659  -23.3966 C   0  0  0  0  0  0  0  0  0  0  0  0
  -15.8890  -42.9904  -18.6441 C   0  0  0  0  0  0  0  0  0  0  0  0
  -15.3240  -42.0210  -19.4866 C   0  0  0  0  0  0  0  0  0  0  0  0
  -15.2465  -42.2053  -20.8659 C   0  0  0  0  0  0  0  0  0  0  0  0
  -15.8219  -43.3264  -21.4530 C   0  0  0  0  0  0  0  0  0  0  0  0
  -16.5634  -44.2257  -20.6604 C   0  0  0  0  0  0  0  0  0  0  0  0
  -16.5468  -44.0746  -19.2554 C   0  0  0  0  0  0  0  0  0  0  0  0
  -18.6539  -46.6417  -22.8725 C   0  0  0  0  0  0  0  0  0  0  0  0
  -18.1813  -47.4079  -21.8354 C   0  0  0  0  0  0  0  0  0  0  0  0
  -17.4151  -46.6476  -20.9095 C   0  0  0  0  0  0  0  0  0  0  0  0
  -17.3398  -45.3158  -21.2683 C   0  0  0  0  0  0  0  0  0  0  0  0
  -18.3752  -44.9866  -22.6081 S   0  0  0  0  0  0  0  0  0  0  0  0
  -13.1297  -44.7529  -19.7378 H   0  0  0  0  0  0  0  0  0  0  0  0
  -12.4033  -42.7449  -19.3803 H   0  0  0  0  0  0  0  0  0  0  0  0
  -11.6986  -43.8321  -18.1883 H   0  0  0  0  0  0  0  0  0  0  0  0
  -13.3293  -41.4836  -17.7354 H   0  0  0  0  0  0  0  0  0  0  0  0
  -12.2576  -42.3382  -16.7253 H   0  0  0  0  0  0  0  0  0  0  0  0
  -14.7304  -45.0766  -16.4186 H   0  0  0  0  0  0  0  0  0  0  0  0
  -13.0528  -44.6017  -16.1991 H   0  0  0  0  0  0  0  0  0  0  0  0
  -14.1318  -45.6096  -14.2182 H   0  0  0  0  0  0  0  0  0  0  0  0
  -13.1556  -44.1793  -13.9728 H   0  0  0  0  0  0  0  0  0  0  0  0
  -16.0199  -41.9904  -13.9472 H   0  0  0  0  0  0  0  0  0  0  0  0
  -14.5228  -42.1213  -13.0508 H   0  0  0  0  0  0  0  0  0  0  0  0
  -13.1783  -41.9642  -14.8634 H   0  0  0  0  0  0  0  0  0  0  0  0
  -14.4523  -40.9413  -15.4222 H   0  0  0  0  0  0  0  0  0  0  0  0
  -16.3645  -43.7030  -16.7187 H   0  0  0  0  0  0  0  0  0  0  0  0
  -17.7923  -42.8317  -15.5549 H   0  0  0  0  0  0  0  0  0  0  0  0
  -14.3655  -42.1900  -23.5513 H   0  0  0  0  0  0  0  0  0  0  0  0
  -13.6674  -43.6792  -22.8019 H   0  0  0  0  0  0  0  0  0  0  0  0
  -14.4661  -43.7430  -24.3795 H   0  0  0  0  0  0  0  0  0  0  0  0
  -14.9101  -41.1025  -19.0759 H   0  0  0  0  0  0  0  0  0  0  0  0
  -14.7633  -41.4411  -21.4653 H   0  0  0  0  0  0  0  0  0  0  0  0
  -17.0659  -44.8039  -18.6406 H   0  0  0  0  0  0  0  0  0  0  0  0
  -19.1700  -46.9828  -23.7593 H   0  0  0  0  0  0  0  0  0  0  0  0
  -18.2951  -48.4811  -21.8059 H   0  0  0  0  0  0  0  0  0  0  0  0
  -16.8814  -47.0768  -20.0714 H   0  0  0  0  0  0  0  0  0  0  0  0
  2  1  1  0
  3  2  1  0
  4  3  1  0
  4  9  1  0
  4  5  1  0
  5  6  1  0
  6  7  1  0
  7  8  1  0
  8  9  1  0
 11 15  1  0
 13 14  2  0
 10 14  1  0
 14 12  1  0
 16 21  1  0
 16 10  1  0
 16 17  2  0
 17 18  1  0
 18 19  2  0
 19 20  1  0
 19 11  1  0
 20 25  1  0
 20 21  2  0
 22 23  2  0
 22 26  1  0
 23 24  1  0
 24 25  2  0
 25 26  1  0
  4 10  1  0
  1 27  1  0
  2 28  1  0
  2 29  1  0
  3 30  1  0
  3 31  1  0
  5 32  1  0
  5 33  1  0
  6 34  1  0
  6 35  1  0
  8 36  1  0
  8 37  1  0
  9 38  1  0
  9 39  1  0
 10 40  1  1
 12 41  1  0
 15 42  1  0
 15 43  1  0
 15 44  1  0
 17 45  1  0
 18 46  1  0
 21 47  1  0
 22 48  1  0
 23 49  1  0
 24 50  1  0
M  END
>  <smiles>  (338) 
[H]OC(=O)[C@@]([H])(c1c([H])c([H])c(OC([H])([H])[H])c(-c2sc([H])c([H])c2[H])c1[H])C1(C([H])([H])C([H])([H])O[H])C([H])([H])C([H])([H])OC([H])([H])C1([H])[H]

>  <error>  (338) 


>  <∆∆G>  (338) 
-33.911235

>  <∆G_bound>  (338) 
50.315567

>  <∆G_unbound>  (338) 
84.226802

>  <comRMSD>  (338) 
1.523915

>  <N_constrained_atoms>  (338) 
26.0

>  <N_unconstrained_atoms>  (338) 
0.0

>  <runtime>  (338) 
2.758526

>  <regarded>  (338) 
['z0052a', '6h80-a']

>  <disregarded>  (338) 
[]

>  <LE>  (338) 
1.304278

>  <outcome>  (338) 
too moved

>  <percent_hybrid>  (338) 
35.0

$$$$
LIG
     RDKit          3D

 57 59  0  0  0  0  0  0  0  0999 V2000
  -13.9327  -44.6026  -18.7105 O   0  0  0  0  0  0  0  0  0  0  0  0
  -12.8344  -43.7127  -18.5370 C   0  0  0  0  0  0  0  0  0  0  0  0
  -13.0355  -42.7762  -17.3526 C   0  0  0  0  0  0  0  0  0  0  0  0
  -12.9546  -43.2106  -15.9478 N   0  0  0  0  0  0  0  0  0  0  0  0
  -13.5741  -44.4785  -15.5457 C   0  0  0  0  0  0  0  0  0  0  0  0
  -14.0161  -44.4329  -14.0984 C   0  0  0  0  0  0  0  0  0  0  0  0
  -15.1662  -43.6067  -13.9622 O   0  0  0  0  0  0  0  0  0  0  0  0
  -14.9422  -42.3070  -14.5264 C   0  0  1  0  0  0  0  0  0  0  0  0
  -13.4958  -42.1066  -15.0961 C   0  0  0  0  0  0  0  0  0  0  0  0
  -14.1219  -41.2171  -21.4948 C   0  0  0  0  0  0  0  0  0  0  0  0
  -12.9323  -40.4024  -19.4971 O   0  0  0  0  0  0  0  0  0  0  0  0
  -15.9546  -41.8250  -15.4478 O   0  0  0  0  0  0  0  0  0  0  0  0
  -16.1213  -43.7881  -16.6474 O   0  0  0  0  0  0  0  0  0  0  0  0
  -19.3846  -46.3393  -24.5095 C   0  0  0  0  0  0  0  0  0  0  0  0
  -20.0085  -46.5377  -25.5175 C   0  0  0  0  0  0  0  0  0  0  0  0
  -20.7646  -46.7639  -26.7480 C   0  0  0  0  0  0  0  0  0  0  0  0
  -11.9817  -40.2018  -21.4942 O   0  0  0  0  0  0  0  0  0  0  0  0
  -12.9980  -40.6006  -20.6988 C   0  0  0  0  0  0  0  0  0  0  0  0
  -17.1830  -41.8485  -17.4862 C   0  0  0  0  0  0  0  0  0  0  0  0
  -16.3824  -42.6091  -16.4609 C   0  0  0  0  0  0  0  0  0  0  0  0
  -21.8805  -45.8861  -26.8077 O   0  0  0  0  0  0  0  0  0  0  0  0
  -15.1635  -42.0062  -20.7290 C   0  0  0  0  0  0  0  0  0  0  0  0
  -15.6987  -41.5732  -19.5122 C   0  0  0  0  0  0  0  0  0  0  0  0
  -16.7285  -42.2822  -18.8719 C   0  0  0  0  0  0  0  0  0  0  0  0
  -17.2595  -43.4292  -19.4846 C   0  0  0  0  0  0  0  0  0  0  0  0
  -16.7829  -43.8442  -20.7309 C   0  0  0  0  0  0  0  0  0  0  0  0
  -15.7140  -43.1506  -21.3220 C   0  0  0  0  0  0  0  0  0  0  0  0
  -18.4459  -46.8643  -22.2403 C   0  0  0  0  0  0  0  0  0  0  0  0
  -18.7032  -46.0164  -23.2968 C   0  0  0  0  0  0  0  0  0  0  0  0
  -18.1499  -44.4403  -22.9954 S   0  0  0  0  0  0  0  0  0  0  0  0
  -17.4701  -44.8892  -21.4845 C   0  0  0  0  0  0  0  0  0  0  0  0
  -17.7304  -46.2110  -21.1864 C   0  0  0  0  0  0  0  0  0  0  0  0
  -14.7522  -44.1056  -18.5268 H   0  0  0  0  0  0  0  0  0  0  0  0
  -12.7332  -43.1402  -19.4614 H   0  0  0  0  0  0  0  0  0  0  0  0
  -11.9100  -44.2709  -18.4200 H   0  0  0  0  0  0  0  0  0  0  0  0
  -12.2690  -41.9972  -17.4595 H   0  0  0  0  0  0  0  0  0  0  0  0
  -13.9937  -42.2788  -17.5094 H   0  0  0  0  0  0  0  0  0  0  0  0
  -14.3853  -44.7947  -16.1871 H   0  0  0  0  0  0  0  0  0  0  0  0
  -12.8862  -45.3072  -15.5402 H   0  0  0  0  0  0  0  0  0  0  0  0
  -14.1902  -45.4580  -13.7830 H   0  0  0  0  0  0  0  0  0  0  0  0
  -13.2255  -44.0769  -13.4243 H   0  0  0  0  0  0  0  0  0  0  0  0
  -15.0280  -41.6214  -13.6754 H   0  0  0  0  0  0  0  0  0  0  0  0
  -12.8100  -42.0328  -14.2411 H   0  0  0  0  0  0  0  0  0  0  0  0
  -13.4284  -41.1332  -15.5999 H   0  0  0  0  0  0  0  0  0  0  0  0
  -14.6305  -40.4129  -22.0389 H   0  0  0  0  0  0  0  0  0  0  0  0
  -13.6566  -41.8859  -22.2272 H   0  0  0  0  0  0  0  0  0  0  0  0
  -21.1086  -47.7965  -26.8462 H   0  0  0  0  0  0  0  0  0  0  0  0
  -20.1310  -46.5321  -27.6014 H   0  0  0  0  0  0  0  0  0  0  0  0
  -11.3049  -39.8773  -20.8643 H   0  0  0  0  0  0  0  0  0  0  0  0
  -18.2477  -42.0569  -17.3385 H   0  0  0  0  0  0  0  0  0  0  0  0
  -17.0335  -40.7699  -17.3647 H   0  0  0  0  0  0  0  0  0  0  0  0
  -22.6470  -46.3729  -26.4360 H   0  0  0  0  0  0  0  0  0  0  0  0
  -15.3163  -40.6670  -19.0437 H   0  0  0  0  0  0  0  0  0  0  0  0
  -18.0738  -43.9701  -19.0068 H   0  0  0  0  0  0  0  0  0  0  0  0
  -15.3359  -43.4827  -22.2895 H   0  0  0  0  0  0  0  0  0  0  0  0
  -18.7394  -47.9076  -22.2211 H   0  0  0  0  0  0  0  0  0  0  0  0
  -17.4094  -46.6970  -20.2730 H   0  0  0  0  0  0  0  0  0  0  0  0
  2  1  1  0
  3  2  1  0
  4  3  1  0
  4  9  1  0
  4  5  1  0
  5  6  1  0
  6  7  1  0
  7  8  1  0
  8  9  1  0
 21 16  1  0
 16 15  1  0
 15 14  3  0
 19 20  1  0
 13 20  2  0
 20 12  1  0
 10 18  1  0
 11 18  2  0
 18 17  1  0
 22 27  2  0
 22 23  1  0
 22 10  1  0
 23 24  2  0
 24 25  1  0
 24 19  1  0
 25 26  2  0
 26 31  1  0
 26 27  1  0
 28 29  2  0
 28 32  1  0
 29 14  1  0
 29 30  1  0
 30 31  1  0
 31 32  2  0
  8 12  1  0
  1 33  1  0
  2 34  1  0
  2 35  1  0
  3 36  1  0
  3 37  1  0
  5 38  1  0
  5 39  1  0
  6 40  1  0
  6 41  1  0
  8 42  1  1
  9 43  1  0
  9 44  1  0
 10 45  1  0
 10 46  1  0
 16 47  1  0
 16 48  1  0
 17 49  1  0
 19 50  1  0
 19 51  1  0
 21 52  1  0
 23 53  1  0
 25 54  1  0
 27 55  1  0
 28 56  1  0
 32 57  1  0
M  END
>  <smiles>  (339) 
[H]OC(=O)C([H])([H])c1c([H])c(-c2sc(C#CC([H])([H])O[H])c([H])c2[H])c([H])c(C([H])([H])C(=O)O[C@@]2([H])OC([H])([H])C([H])([H])N(C([H])([H])C([H])([H])O[H])C2([H])[H])c1[H]

>  <error>  (339) 


>  <∆∆G>  (339) 
-51.478162

>  <∆G_bound>  (339) 
168.185056

>  <∆G_unbound>  (339) 
219.663219

>  <comRMSD>  (339) 
1.570782

>  <N_constrained_atoms>  (339) 
32.0

>  <N_unconstrained_atoms>  (339) 
0.0

>  <runtime>  (339) 
5.031261

>  <regarded>  (339) 
['z0052a', '5hmy-a']

>  <disregarded>  (339) 
[]

>  <LE>  (339) 
1.608693

>  <outcome>  (339) 
too moved

>  <percent_hybrid>  (339) 
29.0

$$$$
LIG
     RDKit          3D

 47 49  0  0  0  0  0  0  0  0999 V2000
  -13.9834  -44.4952  -18.9762 O   0  0  0  0  0  0  0  0  0  0  0  0
  -13.3251  -43.2259  -18.9412 C   0  0  0  0  0  0  0  0  0  0  0  0
  -12.5731  -43.0785  -17.6144 C   0  0  0  0  0  0  0  0  0  0  0  0
  -13.3514  -42.9200  -16.3873 N   0  0  0  0  0  0  0  0  0  0  0  0
  -12.6702  -43.2969  -15.1430 C   0  0  0  0  0  0  0  0  0  0  0  0
  -13.3766  -44.4568  -14.4215 C   0  0  0  0  0  0  0  0  0  0  0  0
  -14.7058  -44.0961  -14.0398 O   0  0  0  0  0  0  0  0  0  0  0  0
  -15.3088  -43.1534  -14.9357 C   0  0  0  0  0  0  0  0  0  0  0  0
  -14.7653  -43.2938  -16.3670 C   0  0  0  0  0  0  0  0  0  0  0  0
  -16.6016  -37.5156  -26.7439 C   0  0  0  0  0  0  0  0  0  0  0  0
  -16.9821  -38.9202  -27.1116 C   0  0  0  0  0  0  0  0  0  0  0  0
  -18.1257  -39.2777  -27.3728 O   0  0  0  0  0  0  0  0  0  0  0  0
  -15.8711  -39.7384  -27.1671 O   0  0  0  0  0  0  0  0  0  0  0  0
  -16.6953  -44.2770  -21.5012 N   0  0  0  0  0  0  0  0  0  0  0  0
  -16.3823  -43.5060  -22.4826 C   0  0  0  0  0  0  0  0  0  0  0  0
  -15.3880  -42.5376  -22.4163 O   0  0  0  0  0  0  0  0  0  0  0  0
  -15.4511  -41.8307  -23.6135 C   0  0  0  0  0  0  0  0  0  0  0  0
  -16.3877  -42.2423  -24.5594 C   0  0  0  0  0  0  0  0  0  0  0  0
  -17.2760  -43.6321  -23.9858 S   0  0  0  0  0  0  0  0  0  0  0  0
  -15.7597  -40.4479  -25.9746 C   0  0  0  0  0  0  0  0  0  0  0  0
  -16.5572  -41.5643  -25.7510 C   0  0  0  0  0  0  0  0  0  0  0  0
  -14.6338  -40.7380  -23.8427 C   0  0  0  0  0  0  0  0  0  0  0  0
  -14.7847  -40.0516  -25.0483 C   0  0  0  0  0  0  0  0  0  0  0  0
  -14.6724  -44.7259  -20.1970 C   0  0  0  0  0  0  0  0  0  0  0  0
  -16.0105  -44.0027  -20.2400 C   0  0  0  0  0  0  0  0  0  0  0  0
  -12.6067  -43.1741  -19.7675 H   0  0  0  0  0  0  0  0  0  0  0  0
  -14.0411  -42.4069  -19.0607 H   0  0  0  0  0  0  0  0  0  0  0  0
  -11.8996  -43.9247  -17.5522 H   0  0  0  0  0  0  0  0  0  0  0  0
  -11.9321  -42.1920  -17.6955 H   0  0  0  0  0  0  0  0  0  0  0  0
  -11.6034  -43.4887  -15.2828 H   0  0  0  0  0  0  0  0  0  0  0  0
  -12.7058  -42.4178  -14.4853 H   0  0  0  0  0  0  0  0  0  0  0  0
  -13.4222  -45.3558  -15.0456 H   0  0  0  0  0  0  0  0  0  0  0  0
  -12.8326  -44.7195  -13.5087 H   0  0  0  0  0  0  0  0  0  0  0  0
  -16.3897  -43.2913  -14.9191 H   0  0  0  0  0  0  0  0  0  0  0  0
  -15.1273  -42.1443  -14.5446 H   0  0  0  0  0  0  0  0  0  0  0  0
  -15.3379  -42.6379  -17.0308 H   0  0  0  0  0  0  0  0  0  0  0  0
  -14.9018  -44.3311  -16.6901 H   0  0  0  0  0  0  0  0  0  0  0  0
  -16.1974  -37.4857  -25.7304 H   0  0  0  0  0  0  0  0  0  0  0  0
  -15.8809  -37.1217  -27.4638 H   0  0  0  0  0  0  0  0  0  0  0  0
  -17.4951  -36.8854  -26.7655 H   0  0  0  0  0  0  0  0  0  0  0  0
  -17.2940  -41.8827  -26.4790 H   0  0  0  0  0  0  0  0  0  0  0  0
  -13.8942  -40.4296  -23.1115 H   0  0  0  0  0  0  0  0  0  0  0  0
  -14.1371  -39.2144  -25.2766 H   0  0  0  0  0  0  0  0  0  0  0  0
  -14.0332  -44.4736  -21.0507 H   0  0  0  0  0  0  0  0  0  0  0  0
  -14.8739  -45.8006  -20.2462 H   0  0  0  0  0  0  0  0  0  0  0  0
  -16.6386  -44.3648  -19.4167 H   0  0  0  0  0  0  0  0  0  0  0  0
  -15.9098  -42.9276  -20.0535 H   0  0  0  0  0  0  0  0  0  0  0  0
  2  1  1  0
  3  2  1  0
  4  3  1  0
  4  9  1  0
  4  5  1  0
  5  6  1  0
  6  7  1  0
  7  8  1  0
  8  9  1  0
 13 11  1  0
 11 12  2  0
 11 10  1  0
 15 16  1  0
 15 14  2  0
 15 19  1  0
 16 17  1  0
 17 22  2  0
 17 18  1  0
 18 19  1  0
 18 21  2  0
 20 23  2  0
 20 21  1  0
 20 13  1  0
 22 23  1  0
 24  1  1  0
 25 24  1  0
 25 14  1  0
  2 26  1  0
  2 27  1  0
  3 28  1  0
  3 29  1  0
  5 30  1  0
  5 31  1  0
  6 32  1  0
  6 33  1  0
  8 34  1  0
  8 35  1  0
  9 36  1  0
  9 37  1  0
 10 38  1  0
 10 39  1  0
 10 40  1  0
 21 41  1  0
 22 42  1  0
 23 43  1  0
 24 44  1  0
 24 45  1  0
 25 46  1  0
 25 47  1  0
M  END
>  <smiles>  (340) 
[H]c1c(OC(=O)C([H])([H])[H])c([H])c2s/c(=N/C([H])([H])C([H])([H])OC([H])([H])C([H])([H])N3C([H])([H])C([H])([H])OC([H])([H])C3([H])[H])oc2c1[H]

>  <error>  (340) 


>  <∆∆G>  (340) 
-151.115915

>  <∆G_bound>  (340) 
244.790336

>  <∆G_unbound>  (340) 
395.906251

>  <comRMSD>  (340) 
1.404998

>  <N_constrained_atoms>  (340) 
23.0

>  <N_unconstrained_atoms>  (340) 
2.0

>  <runtime>  (340) 
2.392884

>  <regarded>  (340) 
['z0052a', '6izx-a']

>  <disregarded>  (340) 
[]

>  <LE>  (340) 
6.044637

>  <outcome>  (340) 
too moved

>  <percent_hybrid>  (340) 
40.0

$$$$
LIG
     RDKit          3D

 69 74  0  0  0  0  0  0  0  0999 V2000
  -12.3867  -43.2420  -19.0924 O   0  0  0  0  0  0  0  0  0  0  0  0
  -13.2619  -42.1274  -19.0696 C   0  0  2  0  0  0  0  0  0  0  0  0
  -13.4604  -41.6077  -17.6586 C   0  0  0  0  0  0  0  0  0  0  0  0
  -21.9937  -45.8235  -26.9497 O   0  0  0  0  0  0  0  0  0  0  0  0
  -16.7325  -42.7088  -16.8071 O   0  0  0  0  0  0  0  0  0  0  0  0
  -16.0346  -43.1147  -13.9285 O   0  0  0  0  0  0  0  0  0  0  0  0
  -19.5210  -46.1872  -24.5995 C   0  0  0  0  0  0  0  0  0  0  0  0
  -20.1367  -46.4066  -25.6077 C   0  0  0  0  0  0  0  0  0  0  0  0
  -20.8682  -46.6834  -26.8391 C   0  0  0  0  0  0  0  0  0  0  0  0
  -15.6744  -42.6633  -17.4231 C   0  0  0  0  0  0  0  0  0  0  0  0
  -15.4517  -44.0666  -22.9488 O   0  0  0  0  0  0  0  0  0  0  0  0
  -14.5544  -43.3938  -23.8183 C   0  0  0  0  0  0  0  0  0  0  0  0
  -14.2806  -42.5539  -16.7322 C   0  0  1  0  0  0  0  0  0  0  0  0
  -13.7973  -43.9897  -16.8180 C   0  0  0  0  0  0  0  0  0  0  0  0
  -14.4965  -44.9180  -15.8585 C   0  0  0  0  0  0  0  0  0  0  0  0
  -14.3362  -44.6064  -14.4669 N   0  0  0  0  0  0  0  0  0  0  0  0
  -14.6443  -43.2089  -14.1835 C   0  0  1  0  0  0  0  0  0  0  0  0
  -14.1879  -42.0934  -15.2041 C   0  0  2  0  0  0  0  0  0  0  0  0
  -15.5006  -43.6429  -21.6463 C   0  0  0  0  0  0  0  0  0  0  0  0
  -14.4640  -42.9601  -21.0408 C   0  0  0  0  0  0  0  0  0  0  0  0
  -14.5316  -42.6221  -19.6820 C   0  0  0  0  0  0  0  0  0  0  0  0
  -15.6764  -42.9202  -18.9224 C   0  0  0  0  0  0  0  0  0  0  0  0
  -16.7278  -43.6280  -19.5294 C   0  0  0  0  0  0  0  0  0  0  0  0
  -16.6297  -44.0129  -20.8828 C   0  0  0  0  0  0  0  0  0  0  0  0
  -18.8732  -45.9038  -23.3583 C   0  0  0  0  0  0  0  0  0  0  0  0
  -18.5592  -46.8254  -22.3799 C   0  0  0  0  0  0  0  0  0  0  0  0
  -17.8461  -46.2347  -21.2935 C   0  0  0  0  0  0  0  0  0  0  0  0
  -17.6128  -44.8927  -21.5172 C   0  0  0  0  0  0  0  0  0  0  0  0
  -18.5041  -44.3172  -22.8669 S   0  0  0  0  0  0  0  0  0  0  0  0
  -15.0482  -40.8078  -14.9934 C   0  0  0  0  0  0  0  0  0  0  0  0
  -14.8240  -40.1725  -13.6249 C   0  0  0  0  0  0  0  0  0  0  0  0
  -13.3951  -39.6677  -13.5227 C   0  0  0  0  0  0  0  0  0  0  0  0
  -12.3786  -40.6296  -14.0667 C   0  0  0  0  0  0  0  0  0  0  0  0
  -12.7136  -41.7541  -14.8241 C   0  0  0  0  0  0  0  0  0  0  0  0
  -11.0193  -40.3557  -13.8555 C   0  0  0  0  0  0  0  0  0  0  0  0
  -10.0407  -41.2081  -14.3493 C   0  0  0  0  0  0  0  0  0  0  0  0
  -10.4515  -42.3202  -15.0428 C   0  0  0  0  0  0  0  0  0  0  0  0
  -11.7454  -42.5851  -15.2965 N   0  0  0  0  0  0  0  0  0  0  0  0
  -12.9430  -44.8582  -14.1711 O   0  0  0  0  0  0  0  0  0  0  0  0
  -11.4919  -42.9198  -18.8721 H   0  0  0  0  0  0  0  0  0  0  0  0
  -12.8297  -41.3341  -19.6920 H   0  0  0  0  0  0  0  0  0  0  0  0
  -12.4652  -41.3893  -17.2678 H   0  0  0  0  0  0  0  0  0  0  0  0
  -13.9815  -40.6429  -17.7241 H   0  0  0  0  0  0  0  0  0  0  0  0
  -22.7584  -46.3086  -26.5767 H   0  0  0  0  0  0  0  0  0  0  0  0
  -16.5082  -43.4129  -14.7272 H   0  0  0  0  0  0  0  0  0  0  0  0
  -21.1954  -47.7241  -26.9086 H   0  0  0  0  0  0  0  0  0  0  0  0
  -20.2169  -46.4678  -27.6830 H   0  0  0  0  0  0  0  0  0  0  0  0
  -14.5481  -42.3100  -23.6605 H   0  0  0  0  0  0  0  0  0  0  0  0
  -13.5542  -43.8227  -23.7205 H   0  0  0  0  0  0  0  0  0  0  0  0
  -14.9009  -43.5673  -24.8395 H   0  0  0  0  0  0  0  0  0  0  0  0
  -14.0374  -44.3697  -17.8125 H   0  0  0  0  0  0  0  0  0  0  0  0
  -12.7223  -44.0248  -16.7221 H   0  0  0  0  0  0  0  0  0  0  0  0
  -14.2458  -45.9718  -16.0011 H   0  0  0  0  0  0  0  0  0  0  0  0
  -15.5282  -44.8347  -16.1528 H   0  0  0  0  0  0  0  0  0  0  0  0
  -14.1963  -42.9893  -13.2057 H   0  0  0  0  0  0  0  0  0  0  0  0
  -13.5333  -42.7790  -21.5743 H   0  0  0  0  0  0  0  0  0  0  0  0
  -17.5936  -43.9215  -18.9401 H   0  0  0  0  0  0  0  0  0  0  0  0
  -18.7771  -47.8841  -22.4583 H   0  0  0  0  0  0  0  0  0  0  0  0
  -17.4134  -46.7977  -20.4758 H   0  0  0  0  0  0  0  0  0  0  0  0
  -16.1167  -41.0128  -15.1121 H   0  0  0  0  0  0  0  0  0  0  0  0
  -14.8081  -40.0574  -15.7572 H   0  0  0  0  0  0  0  0  0  0  0  0
  -15.5153  -39.3332  -13.4849 H   0  0  0  0  0  0  0  0  0  0  0  0
  -15.0357  -40.8822  -12.8184 H   0  0  0  0  0  0  0  0  0  0  0  0
  -13.3076  -38.7295  -14.0858 H   0  0  0  0  0  0  0  0  0  0  0  0
  -13.1724  -39.4415  -12.4730 H   0  0  0  0  0  0  0  0  0  0  0  0
  -10.7211  -39.4763  -13.2886 H   0  0  0  0  0  0  0  0  0  0  0  0
   -8.9888  -41.0193  -14.1709 H   0  0  0  0  0  0  0  0  0  0  0  0
   -9.7423  -43.0511  -15.4195 H   0  0  0  0  0  0  0  0  0  0  0  0
  -12.9856  -45.6223  -13.5656 H   0  0  0  0  0  0  0  0  0  0  0  0
  2  1  1  0
  3  2  1  0
  4  9  1  0
  9  8  1  0
  8  7  3  0
 11 12  1  0
  5 10  2  0
 13  3  1  6
 13 18  1  0
 13 14  1  0
 14 15  1  0
 15 16  1  0
 16 17  1  0
 17 18  1  0
 19 24  2  0
 19 11  1  0
 19 20  1  0
 20 21  2  0
 21 22  1  0
 22 23  2  0
 22 10  1  0
 23 24  1  0
 24 28  1  0
 25  7  1  0
 25 26  2  0
 25 29  1  0
 26 27  1  0
 27 28  2  0
 28 29  1  0
 30 31  1  0
 31 32  1  0
 32 33  1  0
 33 34  2  0
 33 35  1  0
 34 38  1  0
 35 36  2  0
 36 37  1  0
 37 38  2  0
 18 30  1  6
 18 34  1  0
 17  6  1  0
 13 10  1  0
  2 21  1  0
 16 39  1  0
  1 40  1  0
  2 41  1  6
  3 42  1  0
  3 43  1  0
  4 44  1  0
  6 45  1  0
  9 46  1  0
  9 47  1  0
 12 48  1  0
 12 49  1  0
 12 50  1  0
 14 51  1  0
 14 52  1  0
 15 53  1  0
 15 54  1  0
 17 55  1  1
 20 56  1  0
 23 57  1  0
 26 58  1  0
 27 59  1  0
 30 60  1  0
 30 61  1  0
 31 62  1  0
 31 63  1  0
 32 64  1  0
 32 65  1  0
 35 66  1  0
 36 67  1  0
 37 68  1  0
 39 69  1  0
M  END
>  <smiles>  (341) 
[H]ON1C([H])([H])C([H])([H])[C@@]2(C(=O)c3c([H])c(-c4sc(C#CC([H])([H])O[H])c([H])c4[H])c(OC([H])([H])[H])c([H])c3[C@]([H])(O[H])C2([H])[H])[C@]2(c3nc([H])c([H])c([H])c3C([H])([H])C([H])([H])C2([H])[H])[C@@]1([H])O[H]

>  <error>  (341) 


>  <∆∆G>  (341) 
-82.185526

>  <∆G_bound>  (341) 
166.073276

>  <∆G_unbound>  (341) 
248.258802

>  <comRMSD>  (341) 
1.201015

>  <N_constrained_atoms>  (341) 
39.0

>  <N_unconstrained_atoms>  (341) 
0.0

>  <runtime>  (341) 
5.102297

>  <regarded>  (341) 
['z0052a', '5i3q-a']

>  <disregarded>  (341) 
[]

>  <LE>  (341) 
2.107321

>  <outcome>  (341) 
too moved

>  <percent_hybrid>  (341) 
24.0

$$$$
LIG
     RDKit          3D

 52 54  0  0  0  0  0  0  0  0999 V2000
  -13.4257  -44.3611  -18.8331 O   0  0  0  0  0  0  0  0  0  0  0  0
  -12.5561  -43.3271  -18.4272 C   0  0  0  0  0  0  0  0  0  0  0  0
  -13.0570  -42.4718  -17.2573 C   0  0  0  0  0  0  0  0  0  0  0  0
  -14.3020  -42.8709  -16.3943 C   0  0  0  0  0  0  0  0  0  0  0  0
  -14.1081  -44.3308  -15.9231 C   0  0  0  0  0  0  0  0  0  0  0  0
  -14.0162  -44.5395  -14.4275 C   0  0  0  0  0  0  0  0  0  0  0  0
  -15.0676  -43.8763  -13.7689 O   0  0  0  0  0  0  0  0  0  0  0  0
  -15.1238  -42.4795  -13.9847 C   0  0  0  0  0  0  0  0  0  0  0  0
  -14.2052  -42.0000  -15.1000 C   0  0  0  0  0  0  0  0  0  0  0  0
  -14.2904  -41.2133  -21.7228 C   0  0  0  0  0  0  0  0  0  0  0  0
  -14.1356  -39.7623  -23.5819 O   0  0  0  0  0  0  0  0  0  0  0  0
  -15.9169  -40.2239  -16.9506 O   0  0  0  0  0  0  0  0  0  0  0  0
  -17.6938  -41.4739  -16.4570 O   0  0  0  0  0  0  0  0  0  0  0  0
  -14.9323  -40.6795  -22.9821 C   0  0  0  0  0  0  0  0  0  0  0  0
  -16.0017  -40.9804  -23.4829 O   0  0  0  0  0  0  0  0  0  0  0  0
  -15.7284  -42.6859  -17.1234 C   0  0  1  0  0  0  0  0  0  0  0  0
  -16.4066  -41.3374  -16.8343 C   0  0  0  0  0  0  0  0  0  0  0  0
  -15.1148  -42.1604  -20.8803 C   0  0  0  0  0  0  0  0  0  0  0  0
  -15.1768  -41.9755  -19.4976 C   0  0  0  0  0  0  0  0  0  0  0  0
  -15.7939  -42.9042  -18.6377 C   0  0  0  0  0  0  0  0  0  0  0  0
  -16.4891  -43.9803  -19.2169 C   0  0  0  0  0  0  0  0  0  0  0  0
  -16.5076  -44.1508  -20.6138 C   0  0  0  0  0  0  0  0  0  0  0  0
  -15.7563  -43.2734  -21.4188 C   0  0  0  0  0  0  0  0  0  0  0  0
  -18.2729  -47.2516  -21.8145 C   0  0  0  0  0  0  0  0  0  0  0  0
  -18.6002  -46.4911  -22.9108 C   0  0  0  0  0  0  0  0  0  0  0  0
  -18.1474  -44.8664  -22.7125 S   0  0  0  0  0  0  0  0  0  0  0  0
  -17.3004  -45.2115  -21.2494 C   0  0  0  0  0  0  0  0  0  0  0  0
  -17.5259  -46.5154  -20.8513 C   0  0  0  0  0  0  0  0  0  0  0  0
  -13.0855  -44.6647  -19.6980 H   0  0  0  0  0  0  0  0  0  0  0  0
  -12.3237  -42.6884  -19.2864 H   0  0  0  0  0  0  0  0  0  0  0  0
  -11.6274  -43.8038  -18.1168 H   0  0  0  0  0  0  0  0  0  0  0  0
  -12.1863  -42.3761  -16.5902 H   0  0  0  0  0  0  0  0  0  0  0  0
  -13.1892  -41.4401  -17.6059 H   0  0  0  0  0  0  0  0  0  0  0  0
  -14.8497  -44.9979  -16.3686 H   0  0  0  0  0  0  0  0  0  0  0  0
  -13.1336  -44.6464  -16.2410 H   0  0  0  0  0  0  0  0  0  0  0  0
  -14.0467  -45.6111  -14.2081 H   0  0  0  0  0  0  0  0  0  0  0  0
  -13.0574  -44.1862  -14.0270 H   0  0  0  0  0  0  0  0  0  0  0  0
  -16.1662  -42.2192  -14.1886 H   0  0  0  0  0  0  0  0  0  0  0  0
  -14.8554  -41.9812  -13.0467 H   0  0  0  0  0  0  0  0  0  0  0  0
  -13.1773  -42.0443  -14.7114 H   0  0  0  0  0  0  0  0  0  0  0  0
  -14.3646  -40.9360  -15.2940 H   0  0  0  0  0  0  0  0  0  0  0  0
  -13.3672  -41.7327  -21.9978 H   0  0  0  0  0  0  0  0  0  0  0  0
  -14.0162  -40.3391  -21.1189 H   0  0  0  0  0  0  0  0  0  0  0  0
  -14.5835  -39.5558  -24.4326 H   0  0  0  0  0  0  0  0  0  0  0  0
  -18.0248  -40.5620  -16.3296 H   0  0  0  0  0  0  0  0  0  0  0  0
  -16.3950  -43.4267  -16.6603 H   0  0  0  0  0  0  0  0  0  0  0  0
  -14.6979  -41.0922  -19.0783 H   0  0  0  0  0  0  0  0  0  0  0  0
  -17.0386  -44.6674  -18.5811 H   0  0  0  0  0  0  0  0  0  0  0  0
  -15.6961  -43.4423  -22.4933 H   0  0  0  0  0  0  0  0  0  0  0  0
  -18.5083  -48.3036  -21.7520 H   0  0  0  0  0  0  0  0  0  0  0  0
  -19.0962  -46.8166  -23.8157 H   0  0  0  0  0  0  0  0  0  0  0  0
  -17.1234  -46.9388  -19.9415 H   0  0  0  0  0  0  0  0  0  0  0  0
  2  1  1  0
  3  2  1  0
  4  3  1  0
  4  9  1  0
  4  5  1  0
  5  6  1  0
  6  7  1  0
  7  8  1  0
  8  9  1  0
 16 17  1  0
 17 12  2  0
 17 13  1  0
 10 14  1  0
 15 14  2  0
 14 11  1  0
 18 23  2  0
 18 19  1  0
 18 10  1  0
 19 20  2  0
 20 21  1  0
 20 16  1  0
 21 22  2  0
 22 27  1  0
 22 23  1  0
 24 25  2  0
 24 28  1  0
 25 26  1  0
 26 27  1  0
 27 28  2  0
  4 16  1  0
  1 29  1  0
  2 30  1  0
  2 31  1  0
  3 32  1  0
  3 33  1  0
  5 34  1  0
  5 35  1  0
  6 36  1  0
  6 37  1  0
  8 38  1  0
  8 39  1  0
  9 40  1  0
  9 41  1  0
 10 42  1  0
 10 43  1  0
 11 44  1  0
 13 45  1  0
 16 46  1  1
 19 47  1  0
 21 48  1  0
 23 49  1  0
 24 50  1  0
 25 51  1  0
 28 52  1  0
M  END
>  <smiles>  (342) 
[H]OC(=O)C([H])([H])c1c([H])c(-c2sc([H])c([H])c2[H])c([H])c([C@]([H])(C(=O)O[H])C2(C([H])([H])C([H])([H])O[H])C([H])([H])C([H])([H])OC([H])([H])C2([H])[H])c1[H]

>  <error>  (342) 


>  <∆∆G>  (342) 
-54.926783

>  <∆G_bound>  (342) 
65.669158

>  <∆G_unbound>  (342) 
120.595942

>  <comRMSD>  (342) 
1.771366

>  <N_constrained_atoms>  (342) 
28.0

>  <N_unconstrained_atoms>  (342) 
0.0

>  <runtime>  (342) 
4.326991

>  <regarded>  (342) 
['z0052a', '5hmx-b']

>  <disregarded>  (342) 
[]

>  <LE>  (342) 
1.961671

>  <outcome>  (342) 
too moved

>  <percent_hybrid>  (342) 
33.0

$$$$
LIG
     RDKit          3D

 70 74  0  0  0  0  0  0  0  0999 V2000
  -12.0967  -44.0401  -18.3968 O   0  0  0  0  0  0  0  0  0  0  0  0
  -13.1014  -43.0661  -18.2906 C   0  0  1  0  0  0  0  0  0  0  0  0
  -13.8651  -43.2960  -16.9717 C   0  0  0  0  0  0  0  0  0  0  0  0
  -17.3041  -41.2689  -16.0012 O   0  0  0  0  0  0  0  0  0  0  0  0
  -12.6709  -38.7420  -15.6527 O   0  0  0  0  0  0  0  0  0  0  0  0
  -19.4040  -46.1704  -24.5116 C   0  0  0  0  0  0  0  0  0  0  0  0
  -20.0211  -46.3955  -25.5187 C   0  0  0  0  0  0  0  0  0  0  0  0
  -20.7541  -46.7008  -26.7471 C   0  0  0  0  0  0  0  0  0  0  0  0
  -15.1930  -43.2654  -17.2130 C   0  0  0  0  0  0  0  0  0  0  0  0
  -16.0806  -43.4751  -16.1425 N   0  0  0  0  0  0  0  0  0  0  0  0
  -16.5351  -42.1639  -15.1626 S   0  0  0  0  0  0  0  0  0  0  0  0
  -17.1250  -42.7053  -13.9607 O   0  0  0  0  0  0  0  0  0  0  0  0
  -13.3119  -38.1839  -16.7912 C   0  0  0  0  0  0  0  0  0  0  0  0
  -15.0305  -44.3691  -22.6982 O   0  0  0  0  0  0  0  0  0  0  0  0
  -14.1248  -43.6210  -23.4906 C   0  0  0  0  0  0  0  0  0  0  0  0
  -21.8662  -45.8276  -26.8855 O   0  0  0  0  0  0  0  0  0  0  0  0
  -12.4869  -41.6845  -18.4654 C   0  0  0  0  0  0  0  0  0  0  0  0
  -13.2312  -43.7523  -15.8076 N   0  0  0  0  0  0  0  0  0  0  0  0
  -13.6697  -44.9603  -15.0827 C   0  0  0  0  0  0  0  0  0  0  0  0
  -13.7678  -44.7043  -13.5865 C   0  0  0  0  0  0  0  0  0  0  0  0
  -12.7265  -43.9224  -13.0107 O   0  0  0  0  0  0  0  0  0  0  0  0
  -11.6328  -43.7271  -13.8988 C   0  0  0  0  0  0  0  0  0  0  0  0
  -12.0501  -43.0946  -15.2348 C   0  0  0  0  0  0  0  0  0  0  0  0
  -15.1049  -44.0269  -21.3731 C   0  0  0  0  0  0  0  0  0  0  0  0
  -14.0208  -43.5318  -20.6620 C   0  0  0  0  0  0  0  0  0  0  0  0
  -14.1833  -43.3244  -19.2995 C   0  0  0  0  0  0  0  0  0  0  0  0
  -15.4076  -43.5036  -18.6397 C   0  0  0  0  0  0  0  0  0  0  0  0
  -16.4884  -44.0179  -19.3391 C   0  0  0  0  0  0  0  0  0  0  0  0
  -16.3249  -44.3216  -20.7076 C   0  0  0  0  0  0  0  0  0  0  0  0
  -12.9773  -39.8156  -13.6098 C   0  0  0  0  0  0  0  0  0  0  0  0
  -13.6317  -40.7078  -12.7672 C   0  0  0  0  0  0  0  0  0  0  0  0
  -14.7103  -41.4354  -13.2558 C   0  0  0  0  0  0  0  0  0  0  0  0
  -15.1086  -41.2949  -14.5940 C   0  0  0  0  0  0  0  0  0  0  0  0
  -14.4930  -40.3591  -15.4214 C   0  0  0  0  0  0  0  0  0  0  0  0
  -13.4128  -39.6297  -14.9276 C   0  0  0  0  0  0  0  0  0  0  0  0
  -17.7345  -46.3943  -21.2176 C   0  0  0  0  0  0  0  0  0  0  0  0
  -18.5214  -46.8912  -22.2960 C   0  0  0  0  0  0  0  0  0  0  0  0
  -18.7265  -45.9400  -23.2738 C   0  0  0  0  0  0  0  0  0  0  0  0
  -18.1147  -44.4194  -22.8110 S   0  0  0  0  0  0  0  0  0  0  0  0
  -17.3463  -45.0863  -21.4295 C   0  0  0  0  0  0  0  0  0  0  0  0
  -12.3137  -44.6949  -19.0807 H   0  0  0  0  0  0  0  0  0  0  0  0
  -21.0977  -47.7376  -26.7874 H   0  0  0  0  0  0  0  0  0  0  0  0
  -20.1038  -46.5286  -27.6018 H   0  0  0  0  0  0  0  0  0  0  0  0
  -16.9683  -43.9070  -16.3835 H   0  0  0  0  0  0  0  0  0  0  0  0
  -14.3014  -37.7843  -16.5427 H   0  0  0  0  0  0  0  0  0  0  0  0
  -12.6979  -37.3484  -17.1416 H   0  0  0  0  0  0  0  0  0  0  0  0
  -13.3756  -38.9068  -17.6061 H   0  0  0  0  0  0  0  0  0  0  0  0
  -14.1092  -42.5624  -23.2109 H   0  0  0  0  0  0  0  0  0  0  0  0
  -13.1356  -44.0781  -23.4345 H   0  0  0  0  0  0  0  0  0  0  0  0
  -14.4643  -43.6753  -24.5279 H   0  0  0  0  0  0  0  0  0  0  0  0
  -22.6321  -46.2815  -26.4728 H   0  0  0  0  0  0  0  0  0  0  0  0
  -11.7721  -41.4600  -17.6673 H   0  0  0  0  0  0  0  0  0  0  0  0
  -11.9295  -41.6192  -19.4075 H   0  0  0  0  0  0  0  0  0  0  0  0
  -13.2533  -40.9052  -18.4774 H   0  0  0  0  0  0  0  0  0  0  0  0
  -14.5989  -45.3711  -15.4722 H   0  0  0  0  0  0  0  0  0  0  0  0
  -12.9443  -45.7632  -15.2174 H   0  0  0  0  0  0  0  0  0  0  0  0
  -14.6918  -44.1750  -13.3617 H   0  0  0  0  0  0  0  0  0  0  0  0
  -13.7641  -45.6583  -13.0516 H   0  0  0  0  0  0  0  0  0  0  0  0
  -10.9096  -43.0733  -13.3997 H   0  0  0  0  0  0  0  0  0  0  0  0
  -11.1297  -44.6891  -14.0476 H   0  0  0  0  0  0  0  0  0  0  0  0
  -11.2041  -43.1146  -15.9300 H   0  0  0  0  0  0  0  0  0  0  0  0
  -12.2748  -42.0458  -15.0687 H   0  0  0  0  0  0  0  0  0  0  0  0
  -13.0423  -43.4122  -21.1186 H   0  0  0  0  0  0  0  0  0  0  0  0
  -17.4228  -44.2436  -18.8361 H   0  0  0  0  0  0  0  0  0  0  0  0
  -12.1268  -39.2491  -13.2384 H   0  0  0  0  0  0  0  0  0  0  0  0
  -13.3034  -40.8400  -11.7400 H   0  0  0  0  0  0  0  0  0  0  0  0
  -15.2308  -42.1134  -12.5831 H   0  0  0  0  0  0  0  0  0  0  0  0
  -14.8535  -40.2316  -16.4357 H   0  0  0  0  0  0  0  0  0  0  0  0
  -17.3860  -47.0037  -20.3932 H   0  0  0  0  0  0  0  0  0  0  0  0
  -18.8711  -47.9144  -22.3717 H   0  0  0  0  0  0  0  0  0  0  0  0
  2  1  1  6
  3  2  1  0
  8 16  1  0
  8  7  1  0
  7  6  3  0
 14 15  1  0
 10  9  1  0
 10 11  1  0
  4 11  2  0
 12 11  2  0
 13  5  1  0
  9  3  2  0
 17  2  1  0
 18  3  1  0
 18 23  1  0
 18 19  1  0
 19 20  1  0
 20 21  1  0
 21 22  1  0
 22 23  1  0
 24 29  1  0
 24 14  1  0
 24 25  2  0
 25 26  1  0
 26 27  2  0
 27 28  1  0
 27  9  1  0
 28 29  2  0
 29 40  1  0
 30 35  2  0
 30 31  1  0
 31 32  2  0
 32 33  1  0
 33 11  1  0
 33 34  2  0
 34 35  1  0
 35  5  1  0
 36 37  1  0
 36 40  2  0
 37 38  2  0
 38  6  1  0
 38 39  1  0
 39 40  1  0
  2 26  1  0
  1 41  1  0
  8 42  1  0
  8 43  1  0
 10 44  1  0
 13 45  1  0
 13 46  1  0
 13 47  1  0
 15 48  1  0
 15 49  1  0
 15 50  1  0
 16 51  1  0
 17 52  1  0
 17 53  1  0
 17 54  1  0
 19 55  1  0
 19 56  1  0
 20 57  1  0
 20 58  1  0
 22 59  1  0
 22 60  1  0
 23 61  1  0
 23 62  1  0
 25 63  1  0
 28 64  1  0
 30 65  1  0
 31 66  1  0
 32 67  1  0
 34 68  1  0
 36 69  1  0
 37 70  1  0
M  END
>  <smiles>  (343) 
[H]OC([H])([H])C#Cc1sc(-c2c([H])c3c(c([H])c2OC([H])([H])[H])[C@@](O[H])(C([H])([H])[H])C(N2C([H])([H])C([H])([H])OC([H])([H])C2([H])[H])=C3N([H])S(=O)(=O)c2c([H])c([H])c([H])c(OC([H])([H])[H])c2[H])c([H])c1[H]

>  <error>  (343) 


>  <∆∆G>  (343) 
-67.920853

>  <∆G_bound>  (343) 
196.14067

>  <∆G_unbound>  (343) 
264.061523

>  <comRMSD>  (343) 
1.277131

>  <N_constrained_atoms>  (343) 
40.0

>  <N_unconstrained_atoms>  (343) 
0.0

>  <runtime>  (343) 
8.51414

>  <regarded>  (343) 
['z0052a', '5k5m-a']

>  <disregarded>  (343) 
[]

>  <LE>  (343) 
1.698021

>  <outcome>  (343) 
too moved

>  <percent_hybrid>  (343) 
23.0

$$$$
LIG
     RDKit          3D

 59 62  0  0  0  0  0  0  0  0999 V2000
  -12.0887  -43.2384  -18.7584 O   0  0  0  0  0  0  0  0  0  0  0  0
  -13.0683  -42.2236  -18.7959 C   0  0  2  0  0  0  0  0  0  0  0  0
  -13.2846  -41.6540  -17.3966 C   0  0  0  0  0  0  0  0  0  0  0  0
  -19.4327  -46.1690  -24.4621 C   0  0  0  0  0  0  0  0  0  0  0  0
  -17.5007  -42.1568  -14.5638 C   0  0  0  0  0  0  0  0  0  0  0  0
  -20.0454  -46.3733  -25.4782 C   0  0  0  0  0  0  0  0  0  0  0  0
  -20.7674  -46.6661  -26.7193 C   0  0  0  0  0  0  0  0  0  0  0  0
  -15.4154  -42.9989  -17.1241 C   0  0  2  0  0  0  0  0  0  0  0  0
  -15.2462  -44.1211  -22.7708 O   0  0  0  0  0  0  0  0  0  0  0  0
  -14.3189  -43.4535  -23.6045 C   0  0  0  0  0  0  0  0  0  0  0  0
  -16.3172  -41.8417  -16.9749 N   0  0  0  0  0  0  0  0  0  0  0  0
  -17.8218  -42.1109  -16.3154 S   0  0  0  0  0  0  0  0  0  0  0  0
  -18.2489  -43.3681  -16.8807 O   0  0  0  0  0  0  0  0  0  0  0  0
  -18.5709  -40.9008  -16.5605 O   0  0  0  0  0  0  0  0  0  0  0  0
  -21.8922  -45.8079  -26.8558 O   0  0  0  0  0  0  0  0  0  0  0  0
  -14.0534  -42.5902  -16.4319 C   0  0  0  0  0  0  0  0  0  0  0  0
  -13.1955  -43.7936  -16.0870 C   0  0  0  0  0  0  0  0  0  0  0  0
  -13.8458  -44.7844  -15.1353 C   0  0  0  0  0  0  0  0  0  0  0  0
  -14.7338  -44.1187  -14.2528 O   0  0  0  0  0  0  0  0  0  0  0  0
  -14.2616  -42.8424  -13.8533 C   0  0  0  0  0  0  0  0  0  0  0  0
  -14.1832  -41.8806  -15.0491 C   0  0  0  0  0  0  0  0  0  0  0  0
  -16.3506  -44.0808  -19.2830 C   0  0  0  0  0  0  0  0  0  0  0  0
  -15.3267  -43.3544  -18.6217 C   0  0  0  0  0  0  0  0  0  0  0  0
  -14.2591  -42.8931  -19.4018 C   0  0  0  0  0  0  0  0  0  0  0  0
  -14.2148  -43.1507  -20.7881 C   0  0  0  0  0  0  0  0  0  0  0  0
  -15.2397  -43.8322  -21.4312 C   0  0  0  0  0  0  0  0  0  0  0  0
  -16.3259  -44.3127  -20.6778 C   0  0  0  0  0  0  0  0  0  0  0  0
  -18.7648  -45.9540  -23.2101 C   0  0  0  0  0  0  0  0  0  0  0  0
  -18.5204  -46.9177  -22.2520 C   0  0  0  0  0  0  0  0  0  0  0  0
  -17.7260  -46.4233  -21.1702 C   0  0  0  0  0  0  0  0  0  0  0  0
  -17.3670  -45.1033  -21.3594 C   0  0  0  0  0  0  0  0  0  0  0  0
  -18.2396  -44.4215  -22.6836 S   0  0  0  0  0  0  0  0  0  0  0  0
  -11.2294  -42.8128  -18.9454 H   0  0  0  0  0  0  0  0  0  0  0  0
  -12.7184  -41.4181  -19.4542 H   0  0  0  0  0  0  0  0  0  0  0  0
  -12.3075  -41.3962  -16.9665 H   0  0  0  0  0  0  0  0  0  0  0  0
  -13.8423  -40.7119  -17.4876 H   0  0  0  0  0  0  0  0  0  0  0  0
  -16.8495  -42.9855  -14.3337 H   0  0  0  0  0  0  0  0  0  0  0  0
  -17.0679  -41.2031  -14.2585 H   0  0  0  0  0  0  0  0  0  0  0  0
  -18.4575  -42.2732  -14.0501 H   0  0  0  0  0  0  0  0  0  0  0  0
  -21.0973  -47.7069  -26.7752 H   0  0  0  0  0  0  0  0  0  0  0  0
  -20.1159  -46.4792  -27.5706 H   0  0  0  0  0  0  0  0  0  0  0  0
  -15.8182  -43.8687  -16.6025 H   0  0  0  0  0  0  0  0  0  0  0  0
  -14.2913  -42.3765  -23.4104 H   0  0  0  0  0  0  0  0  0  0  0  0
  -13.3355  -43.9170  -23.5002 H   0  0  0  0  0  0  0  0  0  0  0  0
  -14.6463  -43.5869  -24.6384 H   0  0  0  0  0  0  0  0  0  0  0  0
  -16.3733  -41.2102  -17.7738 H   0  0  0  0  0  0  0  0  0  0  0  0
  -22.6568  -46.2808  -26.4692 H   0  0  0  0  0  0  0  0  0  0  0  0
  -12.8754  -44.2477  -16.9966 H   0  0  0  0  0  0  0  0  0  0  0  0
  -12.2705  -43.4291  -15.6137 H   0  0  0  0  0  0  0  0  0  0  0  0
  -14.4146  -45.5375  -15.6853 H   0  0  0  0  0  0  0  0  0  0  0  0
  -13.0894  -45.3169  -14.5489 H   0  0  0  0  0  0  0  0  0  0  0  0
  -14.9315  -42.4401  -13.0868 H   0  0  0  0  0  0  0  0  0  0  0  0
  -13.2789  -42.9547  -13.3778 H   0  0  0  0  0  0  0  0  0  0  0  0
  -13.3092  -41.2372  -14.8716 H   0  0  0  0  0  0  0  0  0  0  0  0
  -15.0161  -41.1760  -15.0319 H   0  0  0  0  0  0  0  0  0  0  0  0
  -17.1976  -44.4586  -18.7151 H   0  0  0  0  0  0  0  0  0  0  0  0
  -13.3268  -42.8482  -21.3378 H   0  0  0  0  0  0  0  0  0  0  0  0
  -18.8339  -47.9506  -22.3469 H   0  0  0  0  0  0  0  0  0  0  0  0
  -17.3398  -47.0446  -20.3718 H   0  0  0  0  0  0  0  0  0  0  0  0
  2  1  1  0
  3  2  1  0
 15  7  1  0
  7  6  1  0
  6  4  3  0
  9 10  1  0
 13 12  2  0
 11  8  1  0
 11 12  1  0
 14 12  2  0
 12  5  1  0
 16  3  1  0
 16 21  1  0
 16 17  1  0
 17 18  1  0
 18 19  1  0
 19 20  1  0
 20 21  1  0
 22 27  2  0
 22 23  1  0
 23  8  1  0
 23 24  2  0
 24 25  1  0
 25 26  2  0
 26 27  1  0
 26  9  1  0
 27 31  1  0
 28  4  1  0
 28 29  2  0
 28 32  1  0
 29 30  1  0
 30 31  2  0
 31 32  1  0
 16  8  1  0
  2 24  1  0
  1 33  1  0
  2 34  1  6
  3 35  1  0
  3 36  1  0
  5 37  1  0
  5 38  1  0
  5 39  1  0
  7 40  1  0
  7 41  1  0
  8 42  1  1
 10 43  1  0
 10 44  1  0
 10 45  1  0
 11 46  1  0
 15 47  1  0
 17 48  1  0
 17 49  1  0
 18 50  1  0
 18 51  1  0
 20 52  1  0
 20 53  1  0
 21 54  1  0
 21 55  1  0
 22 56  1  0
 25 57  1  0
 29 58  1  0
 30 59  1  0
M  END
>  <smiles>  (344) 
[H]OC([H])([H])C#Cc1sc(-c2c([H])c3c(c([H])c2OC([H])([H])[H])[C@]([H])(O[H])C([H])([H])C2(C([H])([H])C([H])([H])OC([H])([H])C2([H])[H])[C@@]3([H])N([H])S(=O)(=O)C([H])([H])[H])c([H])c1[H]

>  <error>  (344) 


>  <∆∆G>  (344) 
-68.086589

>  <∆G_bound>  (344) 
15.612697

>  <∆G_unbound>  (344) 
83.699286

>  <comRMSD>  (344) 
1.412113

>  <N_constrained_atoms>  (344) 
32.0

>  <N_unconstrained_atoms>  (344) 
0.0

>  <runtime>  (344) 
5.718558

>  <regarded>  (344) 
['z0052a', '5hmz-a']

>  <disregarded>  (344) 
[]

>  <LE>  (344) 
2.127706

>  <outcome>  (344) 
too moved

>  <percent_hybrid>  (344) 
29.0

$$$$
LIG
     RDKit          3D

 55 57  0  0  0  0  0  0  0  0999 V2000
  -13.3829  -44.3350  -18.7370 O   0  0  0  0  0  0  0  0  0  0  0  0
  -12.5337  -43.2956  -18.3021 C   0  0  0  0  0  0  0  0  0  0  0  0
  -13.0543  -42.4917  -17.1023 C   0  0  0  0  0  0  0  0  0  0  0  0
  -14.3339  -42.9065  -16.3010 C   0  0  0  0  0  0  0  0  0  0  0  0
  -14.1518  -44.3682  -15.8183 C   0  0  0  0  0  0  0  0  0  0  0  0
  -13.8749  -44.5640  -14.3378 C   0  0  0  0  0  0  0  0  0  0  0  0
  -14.7893  -43.9085  -13.4873 O   0  0  0  0  0  0  0  0  0  0  0  0
  -15.2299  -42.6362  -13.9287 C   0  0  0  0  0  0  0  0  0  0  0  0
  -14.3213  -42.0441  -14.9952 C   0  0  0  0  0  0  0  0  0  0  0  0
  -15.7293  -42.7187  -17.1003 C   0  0  1  0  0  0  0  0  0  0  0  0
  -17.6899  -41.5408  -16.3558 O   0  0  0  0  0  0  0  0  0  0  0  0
  -15.8761  -40.9168  -23.4271 O   0  0  0  0  0  0  0  0  0  0  0  0
  -14.0010  -39.7105  -23.5137 O   0  0  0  0  0  0  0  0  0  0  0  0
  -14.8097  -40.6187  -22.9165 C   0  0  0  0  0  0  0  0  0  0  0  0
  -14.1871  -41.1478  -21.6431 C   0  0  0  0  0  0  0  0  0  0  0  0
  -16.4313  -41.3804  -16.8106 C   0  0  0  0  0  0  0  0  0  0  0  0
  -15.9771  -40.2577  -16.9744 O   0  0  0  0  0  0  0  0  0  0  0  0
  -15.7484  -42.9049  -18.6200 C   0  0  0  0  0  0  0  0  0  0  0  0
  -15.0941  -41.9693  -19.4441 C   0  0  0  0  0  0  0  0  0  0  0  0
  -15.0183  -42.1153  -20.8306 C   0  0  0  0  0  0  0  0  0  0  0  0
  -15.6693  -43.2025  -21.4059 C   0  0  0  0  0  0  0  0  0  0  0  0
  -16.4621  -44.0821  -20.6423 C   0  0  0  0  0  0  0  0  0  0  0  0
  -16.4627  -43.9448  -19.2408 C   0  0  0  0  0  0  0  0  0  0  0  0
  -18.0241  -47.3457  -21.7327 C   0  0  0  0  0  0  0  0  0  0  0  0
  -17.3255  -46.4176  -20.9649 C   0  0  0  0  0  0  0  0  0  0  0  0
  -17.2855  -45.0740  -21.3500 C   0  0  0  0  0  0  0  0  0  0  0  0
  -18.0172  -44.6832  -22.4908 C   0  0  0  0  0  0  0  0  0  0  0  0
  -18.7048  -45.6118  -23.2616 C   0  0  0  0  0  0  0  0  0  0  0  0
  -18.6869  -46.9491  -22.8899 C   0  0  0  0  0  0  0  0  0  0  0  0
  -13.0417  -44.6087  -19.6117 H   0  0  0  0  0  0  0  0  0  0  0  0
  -12.3191  -42.6247  -19.1410 H   0  0  0  0  0  0  0  0  0  0  0  0
  -11.5906  -43.7574  -18.0137 H   0  0  0  0  0  0  0  0  0  0  0  0
  -12.2064  -42.4475  -16.4014 H   0  0  0  0  0  0  0  0  0  0  0  0
  -13.1597  -41.4424  -17.4064 H   0  0  0  0  0  0  0  0  0  0  0  0
  -14.9566  -45.0141  -16.1651 H   0  0  0  0  0  0  0  0  0  0  0  0
  -13.2374  -44.7331  -16.2372 H   0  0  0  0  0  0  0  0  0  0  0  0
  -13.8627  -45.6325  -14.0979 H   0  0  0  0  0  0  0  0  0  0  0  0
  -12.8685  -44.2015  -14.0907 H   0  0  0  0  0  0  0  0  0  0  0  0
  -16.2606  -42.7333  -14.2803 H   0  0  0  0  0  0  0  0  0  0  0  0
  -15.2557  -41.9779  -13.0541 H   0  0  0  0  0  0  0  0  0  0  0  0
  -13.3032  -42.0022  -14.5833 H   0  0  0  0  0  0  0  0  0  0  0  0
  -14.5799  -40.9997  -15.1827 H   0  0  0  0  0  0  0  0  0  0  0  0
  -16.4094  -43.4742  -16.6841 H   0  0  0  0  0  0  0  0  0  0  0  0
  -18.0381  -40.6348  -16.2306 H   0  0  0  0  0  0  0  0  0  0  0  0
  -14.4345  -39.5109  -24.3740 H   0  0  0  0  0  0  0  0  0  0  0  0
  -13.2473  -41.6483  -21.8973 H   0  0  0  0  0  0  0  0  0  0  0  0
  -13.9481  -40.2719  -21.0270 H   0  0  0  0  0  0  0  0  0  0  0  0
  -14.6047  -41.1077  -18.9928 H   0  0  0  0  0  0  0  0  0  0  0  0
  -15.5992  -43.3493  -22.4839 H   0  0  0  0  0  0  0  0  0  0  0  0
  -17.0521  -44.6266  -18.6345 H   0  0  0  0  0  0  0  0  0  0  0  0
  -17.9933  -48.3972  -21.4753 H   0  0  0  0  0  0  0  0  0  0  0  0
  -16.7687  -46.7576  -20.0972 H   0  0  0  0  0  0  0  0  0  0  0  0
  -18.0281  -43.6392  -22.8020 H   0  0  0  0  0  0  0  0  0  0  0  0
  -19.2319  -45.2967  -24.1563 H   0  0  0  0  0  0  0  0  0  0  0  0
  -19.1725  -47.6974  -23.5111 H   0  0  0  0  0  0  0  0  0  0  0  0
  2  1  1  0
  3  2  1  0
  4  3  1  0
  4  9  1  0
  4  5  1  0
  5  6  1  0
  6  7  1  0
  7  8  1  0
  8  9  1  0
 10 16  1  0
 16 17  2  0
 16 11  1  0
 15 14  1  0
 12 14  2  0
 14 13  1  0
 18 23  1  0
 18 10  1  0
 18 19  2  0
 19 20  1  0
 20 21  2  0
 20 15  1  0
 21 22  1  0
 22 26  1  0
 22 23  2  0
 24 29  2  0
 24 25  1  0
 25 26  2  0
 26 27  1  0
 27 28  2  0
 28 29  1  0
  4 10  1  0
  1 30  1  0
  2 31  1  0
  2 32  1  0
  3 33  1  0
  3 34  1  0
  5 35  1  0
  5 36  1  0
  6 37  1  0
  6 38  1  0
  8 39  1  0
  8 40  1  0
  9 41  1  0
  9 42  1  0
 10 43  1  1
 11 44  1  0
 13 45  1  0
 15 46  1  0
 15 47  1  0
 19 48  1  0
 21 49  1  0
 23 50  1  0
 24 51  1  0
 25 52  1  0
 27 53  1  0
 28 54  1  0
 29 55  1  0
M  END
>  <smiles>  (345) 
[H]OC(=O)C([H])([H])c1c([H])c(-c2c([H])c([H])c([H])c([H])c2[H])c([H])c([C@]([H])(C(=O)O[H])C2(C([H])([H])C([H])([H])O[H])C([H])([H])C([H])([H])OC([H])([H])C2([H])[H])c1[H]

>  <error>  (345) 


>  <∆∆G>  (345) 
-43.280053

>  <∆G_bound>  (345) 
91.183039

>  <∆G_unbound>  (345) 
134.463092

>  <comRMSD>  (345) 
1.781428

>  <N_constrained_atoms>  (345) 
29.0

>  <N_unconstrained_atoms>  (345) 
0.0

>  <runtime>  (345) 
3.270234

>  <regarded>  (345) 
['z0052a', '5hmw-b']

>  <disregarded>  (345) 
[]

>  <LE>  (345) 
1.492416

>  <outcome>  (345) 
too moved

>  <percent_hybrid>  (345) 
32.0

$$$$
LIG
     RDKit          3D

 50 52  0  0  0  0  0  0  0  0999 V2000
  -13.5029  -44.4159  -18.9046 O   0  0  0  0  0  0  0  0  0  0  0  0
  -12.6338  -43.3734  -18.5209 C   0  0  0  0  0  0  0  0  0  0  0  0
  -13.1395  -42.4981  -17.3704 C   0  0  0  0  0  0  0  0  0  0  0  0
  -14.3450  -42.9136  -16.4554 C   0  0  0  0  0  0  0  0  0  0  0  0
  -14.0700  -44.3487  -15.9539 C   0  0  0  0  0  0  0  0  0  0  0  0
  -14.0912  -44.5385  -14.4590 C   0  0  0  0  0  0  0  0  0  0  0  0
  -15.2028  -43.8419  -13.9451 O   0  0  0  0  0  0  0  0  0  0  0  0
  -15.0291  -42.4376  -13.9837 C   0  0  0  0  0  0  0  0  0  0  0  0
  -14.2297  -41.9831  -15.2009 C   0  0  0  0  0  0  0  0  0  0  0  0
  -15.8054  -42.8364  -17.1373 C   0  0  1  0  0  0  0  0  0  0  0  0
  -15.7427  -43.4979  -22.8318 O   0  0  0  0  0  0  0  0  0  0  0  0
  -17.6641  -41.8975  -15.8695 O   0  0  0  0  0  0  0  0  0  0  0  0
  -16.3842  -40.4630  -17.0324 O   0  0  0  0  0  0  0  0  0  0  0  0
  -16.6294  -41.6159  -16.6971 C   0  0  0  0  0  0  0  0  0  0  0  0
  -14.4660  -43.2574  -23.4079 C   0  0  0  0  0  0  0  0  0  0  0  0
  -15.8844  -42.9657  -18.6668 C   0  0  0  0  0  0  0  0  0  0  0  0
  -15.3090  -41.9969  -19.5028 C   0  0  0  0  0  0  0  0  0  0  0  0
  -15.2311  -42.1746  -20.8832 C   0  0  0  0  0  0  0  0  0  0  0  0
  -15.8166  -43.2871  -21.4773 C   0  0  0  0  0  0  0  0  0  0  0  0
  -16.5699  -44.1834  -20.6917 C   0  0  0  0  0  0  0  0  0  0  0  0
  -16.5536  -44.0390  -19.2857 C   0  0  0  0  0  0  0  0  0  0  0  0
  -18.6641  -46.5815  -22.9225 C   0  0  0  0  0  0  0  0  0  0  0  0
  -18.2333  -47.3458  -21.8659 C   0  0  0  0  0  0  0  0  0  0  0  0
  -17.4697  -46.5907  -20.9331 C   0  0  0  0  0  0  0  0  0  0  0  0
  -17.3566  -45.2645  -21.3048 C   0  0  0  0  0  0  0  0  0  0  0  0
  -18.3599  -44.9296  -22.6678 S   0  0  0  0  0  0  0  0  0  0  0  0
  -13.1436  -44.7537  -19.7487 H   0  0  0  0  0  0  0  0  0  0  0  0
  -12.4053  -42.7513  -19.3932 H   0  0  0  0  0  0  0  0  0  0  0  0
  -11.7025  -43.8405  -18.2018 H   0  0  0  0  0  0  0  0  0  0  0  0
  -12.2529  -42.3489  -16.7343 H   0  0  0  0  0  0  0  0  0  0  0  0
  -13.3153  -41.4828  -17.7443 H   0  0  0  0  0  0  0  0  0  0  0  0
  -14.7359  -45.0701  -16.4360 H   0  0  0  0  0  0  0  0  0  0  0  0
  -13.0575  -44.5986  -16.2067 H   0  0  0  0  0  0  0  0  0  0  0  0
  -14.1497  -45.6068  -14.2348 H   0  0  0  0  0  0  0  0  0  0  0  0
  -13.1692  -44.1808  -13.9825 H   0  0  0  0  0  0  0  0  0  0  0  0
  -16.0190  -41.9769  -13.9590 H   0  0  0  0  0  0  0  0  0  0  0  0
  -14.5222  -42.1212  -13.0644 H   0  0  0  0  0  0  0  0  0  0  0  0
  -13.1786  -41.9620  -14.8759 H   0  0  0  0  0  0  0  0  0  0  0  0
  -14.4493  -40.9360  -15.4361 H   0  0  0  0  0  0  0  0  0  0  0  0
  -16.3646  -43.6941  -16.7480 H   0  0  0  0  0  0  0  0  0  0  0  0
  -17.7813  -42.8275  -15.5646 H   0  0  0  0  0  0  0  0  0  0  0  0
  -13.6641  -43.6954  -22.8039 H   0  0  0  0  0  0  0  0  0  0  0  0
  -14.4470  -43.7349  -24.3906 H   0  0  0  0  0  0  0  0  0  0  0  0
  -14.3090  -42.1856  -23.5600 H   0  0  0  0  0  0  0  0  0  0  0  0
  -14.8879  -41.0844  -19.0861 H   0  0  0  0  0  0  0  0  0  0  0  0
  -14.7400  -41.4126  -21.4790 H   0  0  0  0  0  0  0  0  0  0  0  0
  -17.0815  -44.7654  -18.6748 H   0  0  0  0  0  0  0  0  0  0  0  0
  -19.1705  -46.9197  -23.8162 H   0  0  0  0  0  0  0  0  0  0  0  0
  -18.3766  -48.4155  -21.8239 H   0  0  0  0  0  0  0  0  0  0  0  0
  -16.9641  -47.0216  -20.0786 H   0  0  0  0  0  0  0  0  0  0  0  0
  2  1  1  0
  3  2  1  0
  4  3  1  0
  4  9  1  0
  4  5  1  0
  5  6  1  0
  6  7  1  0
  7  8  1  0
  8  9  1  0
 11 15  1  0
 13 14  2  0
 10 14  1  0
 14 12  1  0
 16 21  1  0
 16 10  1  0
 16 17  2  0
 17 18  1  0
 18 19  2  0
 19 20  1  0
 19 11  1  0
 20 25  1  0
 20 21  2  0
 22 23  2  0
 22 26  1  0
 23 24  1  0
 24 25  2  0
 25 26  1  0
  4 10  1  0
  1 27  1  0
  2 28  1  0
  2 29  1  0
  3 30  1  0
  3 31  1  0
  5 32  1  0
  5 33  1  0
  6 34  1  0
  6 35  1  0
  8 36  1  0
  8 37  1  0
  9 38  1  0
  9 39  1  0
 10 40  1  1
 12 41  1  0
 15 42  1  0
 15 43  1  0
 15 44  1  0
 17 45  1  0
 18 46  1  0
 21 47  1  0
 22 48  1  0
 23 49  1  0
 24 50  1  0
M  END
>  <smiles>  (346) 
[H]OC(=O)[C@@]([H])(c1c([H])c([H])c(OC([H])([H])[H])c(-c2sc([H])c([H])c2[H])c1[H])C1(C([H])([H])C([H])([H])O[H])C([H])([H])C([H])([H])OC([H])([H])C1([H])[H]

>  <error>  (346) 


>  <∆∆G>  (346) 
-33.73584

>  <∆G_bound>  (346) 
50.490962

>  <∆G_unbound>  (346) 
84.226802

>  <comRMSD>  (346) 
1.50903

>  <N_constrained_atoms>  (346) 
26.0

>  <N_unconstrained_atoms>  (346) 
0.0

>  <runtime>  (346) 
2.544651

>  <regarded>  (346) 
['z0052a', '5f3z-a']

>  <disregarded>  (346) 
[]

>  <LE>  (346) 
1.297532

>  <outcome>  (346) 
too moved

>  <percent_hybrid>  (346) 
35.0

$$$$
LIG
     RDKit          3D

 50 52  0  0  0  0  0  0  0  0999 V2000
  -13.2954  -44.3076  -18.7361 O   0  0  0  0  0  0  0  0  0  0  0  0
  -12.4635  -43.2746  -18.2620 C   0  0  0  0  0  0  0  0  0  0  0  0
  -13.0572  -42.4493  -17.1100 C   0  0  0  0  0  0  0  0  0  0  0  0
  -14.3612  -42.8763  -16.3527 C   0  0  0  0  0  0  0  0  0  0  0  0
  -14.1689  -44.3356  -15.8554 C   0  0  0  0  0  0  0  0  0  0  0  0
  -13.9026  -44.5187  -14.3711 C   0  0  0  0  0  0  0  0  0  0  0  0
  -14.8280  -43.8713  -13.5270 O   0  0  0  0  0  0  0  0  0  0  0  0
  -15.3419  -42.6421  -14.0107 C   0  0  0  0  0  0  0  0  0  0  0  0
  -14.4250  -42.0119  -15.0495 C   0  0  0  0  0  0  0  0  0  0  0  0
  -15.7301  -42.7200  -17.2054 C   0  0  1  0  0  0  0  0  0  0  0  0
  -15.6254  -43.7495  -22.8468 O   0  0  0  0  0  0  0  0  0  0  0  0
  -15.9081  -40.2682  -17.1808 O   0  0  0  0  0  0  0  0  0  0  0  0
  -17.7224  -41.4414  -16.5946 O   0  0  0  0  0  0  0  0  0  0  0  0
  -16.5515  -41.4354  -16.9487 C   0  0  0  0  0  0  0  0  0  0  0  0
  -14.4721  -43.3507  -23.5665 C   0  0  0  0  0  0  0  0  0  0  0  0
  -15.7187  -42.9784  -18.7160 C   0  0  0  0  0  0  0  0  0  0  0  0
  -15.0132  -42.1397  -19.5921 C   0  0  0  0  0  0  0  0  0  0  0  0
  -14.9468  -42.3948  -20.9591 C   0  0  0  0  0  0  0  0  0  0  0  0
  -15.6552  -43.4556  -21.5080 C   0  0  0  0  0  0  0  0  0  0  0  0
  -16.4853  -44.2421  -20.6813 C   0  0  0  0  0  0  0  0  0  0  0  0
  -16.4771  -44.0202  -19.2869 C   0  0  0  0  0  0  0  0  0  0  0  0
  -18.6670  -46.5723  -22.8814 C   0  0  0  0  0  0  0  0  0  0  0  0
  -18.2362  -47.3554  -21.8381 C   0  0  0  0  0  0  0  0  0  0  0  0
  -17.4640  -46.6195  -20.8961 C   0  0  0  0  0  0  0  0  0  0  0  0
  -17.3349  -45.2932  -21.2593 C   0  0  0  0  0  0  0  0  0  0  0  0
  -18.3639  -44.9244  -22.5943 S   0  0  0  0  0  0  0  0  0  0  0  0
  -12.8440  -44.6872  -19.5173 H   0  0  0  0  0  0  0  0  0  0  0  0
  -12.1934  -42.6164  -19.0947 H   0  0  0  0  0  0  0  0  0  0  0  0
  -11.5445  -43.7373  -17.9063 H   0  0  0  0  0  0  0  0  0  0  0  0
  -12.2429  -42.3635  -16.3742 H   0  0  0  0  0  0  0  0  0  0  0  0
  -13.1697  -41.4143  -17.4528 H   0  0  0  0  0  0  0  0  0  0  0  0
  -14.9665  -44.9917  -16.2005 H   0  0  0  0  0  0  0  0  0  0  0  0
  -13.2479  -44.6974  -16.2641 H   0  0  0  0  0  0  0  0  0  0  0  0
  -13.8750  -45.5852  -14.1240 H   0  0  0  0  0  0  0  0  0  0  0  0
  -12.9037  -44.1381  -14.1212 H   0  0  0  0  0  0  0  0  0  0  0  0
  -16.3469  -42.8133  -14.4058 H   0  0  0  0  0  0  0  0  0  0  0  0
  -15.4486  -41.9725  -13.1511 H   0  0  0  0  0  0  0  0  0  0  0  0
  -13.4228  -41.9260  -14.6068 H   0  0  0  0  0  0  0  0  0  0  0  0
  -14.7269  -40.9815  -15.2441 H   0  0  0  0  0  0  0  0  0  0  0  0
  -16.3944  -43.4878  -16.7822 H   0  0  0  0  0  0  0  0  0  0  0  0
  -14.9823  -40.3694  -17.4514 H   0  0  0  0  0  0  0  0  0  0  0  0
  -13.5645  -43.7315  -23.0888 H   0  0  0  0  0  0  0  0  0  0  0  0
  -14.5361  -43.7886  -24.5642 H   0  0  0  0  0  0  0  0  0  0  0  0
  -14.4388  -42.2647  -23.6958 H   0  0  0  0  0  0  0  0  0  0  0  0
  -14.4601  -41.2775  -19.2413 H   0  0  0  0  0  0  0  0  0  0  0  0
  -14.3530  -41.7287  -21.5749 H   0  0  0  0  0  0  0  0  0  0  0  0
  -17.0984  -44.6448  -18.6493 H   0  0  0  0  0  0  0  0  0  0  0  0
  -19.1742  -46.8940  -23.7807 H   0  0  0  0  0  0  0  0  0  0  0  0
  -18.3828  -48.4250  -21.8151 H   0  0  0  0  0  0  0  0  0  0  0  0
  -16.9497  -47.0666  -20.0554 H   0  0  0  0  0  0  0  0  0  0  0  0
  2  1  1  0
  3  2  1  0
  4  3  1  0
  4  9  1  0
  4  5  1  0
  5  6  1  0
  6  7  1  0
  7  8  1  0
  8  9  1  0
 11 15  1  0
 13 14  2  0
 10 14  1  0
 14 12  1  0
 16 21  1  0
 16 10  1  0
 16 17  2  0
 17 18  1  0
 18 19  2  0
 19 20  1  0
 19 11  1  0
 20 25  1  0
 20 21  2  0
 22 23  2  0
 22 26  1  0
 23 24  1  0
 24 25  2  0
 25 26  1  0
  4 10  1  0
  1 27  1  0
  2 28  1  0
  2 29  1  0
  3 30  1  0
  3 31  1  0
  5 32  1  0
  5 33  1  0
  6 34  1  0
  6 35  1  0
  8 36  1  0
  8 37  1  0
  9 38  1  0
  9 39  1  0
 10 40  1  1
 12 41  1  0
 15 42  1  0
 15 43  1  0
 15 44  1  0
 17 45  1  0
 18 46  1  0
 21 47  1  0
 22 48  1  0
 23 49  1  0
 24 50  1  0
M  END
>  <smiles>  (347) 
[H]OC(=O)[C@@]([H])(c1c([H])c([H])c(OC([H])([H])[H])c(-c2sc([H])c([H])c2[H])c1[H])C1(C([H])([H])C([H])([H])O[H])C([H])([H])C([H])([H])OC([H])([H])C1([H])[H]

>  <error>  (347) 


>  <∆∆G>  (347) 
-24.097741

>  <∆G_bound>  (347) 
82.164648

>  <∆G_unbound>  (347) 
106.262388

>  <comRMSD>  (347) 
1.462146

>  <N_constrained_atoms>  (347) 
26.0

>  <N_unconstrained_atoms>  (347) 
0.0

>  <runtime>  (347) 
2.751114

>  <regarded>  (347) 
['z0052a', '6h9r-a']

>  <disregarded>  (347) 
[]

>  <LE>  (347) 
0.926836

>  <outcome>  (347) 
too moved

>  <percent_hybrid>  (347) 
35.0

$$$$
LIG
     RDKit          3D

 53 55  0  0  0  0  0  0  0  0999 V2000
  -13.5178  -44.4294  -18.9120 O   0  0  0  0  0  0  0  0  0  0  0  0
  -12.6446  -43.3866  -18.5357 C   0  0  0  0  0  0  0  0  0  0  0  0
  -13.1394  -42.5108  -17.3811 C   0  0  0  0  0  0  0  0  0  0  0  0
  -14.3497  -42.9171  -16.4683 C   0  0  0  0  0  0  0  0  0  0  0  0
  -14.0762  -44.3502  -15.9593 C   0  0  0  0  0  0  0  0  0  0  0  0
  -14.0996  -44.5330  -14.4638 C   0  0  0  0  0  0  0  0  0  0  0  0
  -15.2128  -43.8343  -13.9566 O   0  0  0  0  0  0  0  0  0  0  0  0
  -15.0334  -42.4303  -13.9972 C   0  0  0  0  0  0  0  0  0  0  0  0
  -14.2357  -41.9804  -15.2180 C   0  0  0  0  0  0  0  0  0  0  0  0
  -16.4099  -40.4721  -17.0417 O   0  0  0  0  0  0  0  0  0  0  0  0
  -17.6671  -41.9201  -15.8724 O   0  0  0  0  0  0  0  0  0  0  0  0
  -16.6408  -41.6278  -16.7065 C   0  0  0  0  0  0  0  0  0  0  0  0
  -15.8085  -42.8400  -17.1557 C   0  0  1  0  0  0  0  0  0  0  0  0
  -15.7733  -43.4003  -22.8607 O   0  0  0  0  0  0  0  0  0  0  0  0
  -14.4696  -43.2787  -23.4167 C   0  0  0  0  0  0  0  0  0  0  0  0
  -15.8190  -43.2291  -21.4971 C   0  0  0  0  0  0  0  0  0  0  0  0
  -15.2249  -42.1299  -20.8915 C   0  0  0  0  0  0  0  0  0  0  0  0
  -15.3012  -41.9745  -19.5092 C   0  0  0  0  0  0  0  0  0  0  0  0
  -15.8830  -42.9524  -18.6875 C   0  0  0  0  0  0  0  0  0  0  0  0
  -16.5574  -44.0141  -19.3215 C   0  0  0  0  0  0  0  0  0  0  0  0
  -16.5744  -44.1424  -20.7303 C   0  0  0  0  0  0  0  0  0  0  0  0
  -18.8083  -45.8347  -23.2544 C   0  0  0  0  0  0  0  0  0  0  0  0
  -18.1752  -44.8564  -22.5043 C   0  0  0  0  0  0  0  0  0  0  0  0
  -17.3719  -45.1878  -21.3952 C   0  0  0  0  0  0  0  0  0  0  0  0
  -17.3080  -46.5272  -20.9993 C   0  0  0  0  0  0  0  0  0  0  0  0
  -17.9830  -47.5028  -21.7254 C   0  0  0  0  0  0  0  0  0  0  0  0
  -18.7129  -47.1607  -22.8591 C   0  0  0  0  0  0  0  0  0  0  0  0
  -13.1691  -44.7581  -19.7647 H   0  0  0  0  0  0  0  0  0  0  0  0
  -12.4224  -42.7653  -19.4103 H   0  0  0  0  0  0  0  0  0  0  0  0
  -11.7111  -43.8544  -18.2242 H   0  0  0  0  0  0  0  0  0  0  0  0
  -12.2516  -42.3752  -16.7437 H   0  0  0  0  0  0  0  0  0  0  0  0
  -13.3022  -41.4916  -17.7501 H   0  0  0  0  0  0  0  0  0  0  0  0
  -14.7411  -45.0737  -16.4396 H   0  0  0  0  0  0  0  0  0  0  0  0
  -13.0628  -44.6020  -16.2077 H   0  0  0  0  0  0  0  0  0  0  0  0
  -14.1573  -45.6003  -14.2352 H   0  0  0  0  0  0  0  0  0  0  0  0
  -13.1786  -44.1725  -13.9873 H   0  0  0  0  0  0  0  0  0  0  0  0
  -16.0210  -41.9650  -13.9694 H   0  0  0  0  0  0  0  0  0  0  0  0
  -14.5220  -42.1151  -13.0799 H   0  0  0  0  0  0  0  0  0  0  0  0
  -13.1845  -41.9556  -14.8937 H   0  0  0  0  0  0  0  0  0  0  0  0
  -14.4571  -40.9349  -15.4583 H   0  0  0  0  0  0  0  0  0  0  0  0
  -17.7717  -42.8497  -15.5626 H   0  0  0  0  0  0  0  0  0  0  0  0
  -16.3654  -43.7047  -16.7786 H   0  0  0  0  0  0  0  0  0  0  0  0
  -13.7182  -43.7957  -22.8098 H   0  0  0  0  0  0  0  0  0  0  0  0
  -14.4837  -43.7415  -24.4064 H   0  0  0  0  0  0  0  0  0  0  0  0
  -14.2144  -42.2237  -23.5490 H   0  0  0  0  0  0  0  0  0  0  0  0
  -14.7335  -41.3630  -21.4810 H   0  0  0  0  0  0  0  0  0  0  0  0
  -14.8767  -41.0700  -19.0787 H   0  0  0  0  0  0  0  0  0  0  0  0
  -17.0961  -44.7402  -18.7195 H   0  0  0  0  0  0  0  0  0  0  0  0
  -19.3668  -45.5623  -24.1439 H   0  0  0  0  0  0  0  0  0  0  0  0
  -18.2634  -43.8191  -22.8224 H   0  0  0  0  0  0  0  0  0  0  0  0
  -16.6866  -46.8242  -20.1605 H   0  0  0  0  0  0  0  0  0  0  0  0
  -17.8667  -48.5476  -21.4666 H   0  0  0  0  0  0  0  0  0  0  0  0
  -19.1846  -47.9393  -23.4508 H   0  0  0  0  0  0  0  0  0  0  0  0
  2  1  1  0
  3  2  1  0
  4  3  1  0
  4  9  1  0
  4  5  1  0
  5  6  1  0
  6  7  1  0
  7  8  1  0
  8  9  1  0
 14 15  1  0
 10 12  2  0
 13 12  1  0
 12 11  1  0
 16 21  2  0
 16 14  1  0
 16 17  1  0
 17 18  2  0
 18 19  1  0
 19 20  2  0
 19 13  1  0
 20 21  1  0
 21 24  1  0
 22 27  2  0
 22 23  1  0
 23 24  2  0
 24 25  1  0
 25 26  2  0
 26 27  1  0
  4 13  1  0
  1 28  1  0
  2 29  1  0
  2 30  1  0
  3 31  1  0
  3 32  1  0
  5 33  1  0
  5 34  1  0
  6 35  1  0
  6 36  1  0
  8 37  1  0
  8 38  1  0
  9 39  1  0
  9 40  1  0
 11 41  1  0
 13 42  1  1
 15 43  1  0
 15 44  1  0
 15 45  1  0
 17 46  1  0
 18 47  1  0
 20 48  1  0
 22 49  1  0
 23 50  1  0
 25 51  1  0
 26 52  1  0
 27 53  1  0
M  END
>  <smiles>  (348) 
[H]OC(=O)[C@@]([H])(c1c([H])c([H])c(OC([H])([H])[H])c(-c2c([H])c([H])c([H])c([H])c2[H])c1[H])C1(C([H])([H])C([H])([H])O[H])C([H])([H])C([H])([H])OC([H])([H])C1([H])[H]

>  <error>  (348) 


>  <∆∆G>  (348) 
-159.654719

>  <∆G_bound>  (348) 
47.24125

>  <∆G_unbound>  (348) 
206.895969

>  <comRMSD>  (348) 
1.497062

>  <N_constrained_atoms>  (348) 
27.0

>  <N_unconstrained_atoms>  (348) 
0.0

>  <runtime>  (348) 
3.282328

>  <regarded>  (348) 
['z0052a', '5f3t-a']

>  <disregarded>  (348) 
[]

>  <LE>  (348) 
5.913138

>  <outcome>  (348) 
too moved

>  <percent_hybrid>  (348) 
34.0

$$$$

     RDKit          2D

  0  0  0  0  0  0  0  0  0  0999 V2000
M  END
>  <smiles>  (349) 
nan

>  <error>  (349) 
DistanceError 10.46 Å

>  <∆∆G>  (349) 
nan

>  <∆G_bound>  (349) 
nan

>  <∆G_unbound>  (349) 
nan

>  <comRMSD>  (349) 
nan

>  <N_constrained_atoms>  (349) 
nan

>  <N_unconstrained_atoms>  (349) 
nan

>  <runtime>  (349) 
nan

>  <regarded>  (349) 
[]

>  <disregarded>  (349) 
[]

>  <LE>  (349) 
nan

>  <outcome>  (349) 
too distant

>  <percent_hybrid>  (349) 
nan

$$$$
LIG
     RDKit          3D

 29 31  0  0  0  0  0  0  0  0999 V2000
  -14.3940  -42.7660  -22.3296 O   0  0  0  0  0  0  0  0  0  0  0  0
  -12.1447  -41.7367  -20.4332 C   0  0  0  0  0  0  0  0  0  0  0  0
  -13.6843  -37.9970  -22.6234 C   0  0  0  0  0  0  0  0  0  0  0  0
  -12.6855  -37.2447  -22.0406 N   0  0  0  0  0  0  0  0  0  0  0  0
  -13.0775  -35.9396  -22.0508 C   0  0  0  0  0  0  0  0  0  0  0  0
  -14.3056  -35.9493  -22.6678 C   0  0  0  0  0  0  0  0  0  0  0  0
  -14.6447  -37.2254  -23.0786 N   0  0  0  0  0  0  0  0  0  0  0  0
  -13.9660  -41.4980  -22.2842 C   0  0  0  0  0  0  0  0  0  0  0  0
  -12.9253  -41.0353  -21.4685 C   0  0  0  0  0  0  0  0  0  0  0  0
  -12.5779  -39.8050  -21.8262 N   0  0  0  0  0  0  0  0  0  0  0  0
  -13.6110  -39.3854  -22.6103 N   0  0  0  0  0  0  0  0  0  0  0  0
  -14.3681  -40.4536  -23.1101 C   0  0  0  0  0  0  0  0  0  0  0  0
  -16.5024  -41.2459  -24.1437 C   0  0  0  0  0  0  0  0  0  0  0  0
  -15.3297  -40.4821  -24.2350 C   0  0  0  0  0  0  0  0  0  0  0  0
  -15.0509  -39.9050  -25.4734 C   0  0  0  0  0  0  0  0  0  0  0  0
  -15.9204  -40.1264  -26.5414 C   0  0  0  0  0  0  0  0  0  0  0  0
  -17.0378  -40.8846  -26.4742 N   0  0  0  0  0  0  0  0  0  0  0  0
  -17.3048  -41.4195  -25.2678 C   0  0  0  0  0  0  0  0  0  0  0  0
  -14.7447  -42.9788  -23.2119 H   0  0  0  0  0  0  0  0  0  0  0  0
  -11.0736  -41.5491  -20.5503 H   0  0  0  0  0  0  0  0  0  0  0  0
  -12.4412  -41.3889  -19.4383 H   0  0  0  0  0  0  0  0  0  0  0  0
  -12.3134  -42.8164  -20.4716 H   0  0  0  0  0  0  0  0  0  0  0  0
  -12.4801  -35.1541  -21.6123 H   0  0  0  0  0  0  0  0  0  0  0  0
  -14.9593  -35.1086  -22.8657 H   0  0  0  0  0  0  0  0  0  0  0  0
  -16.7942  -41.7149  -23.2083 H   0  0  0  0  0  0  0  0  0  0  0  0
  -14.1542  -39.3218  -25.6406 H   0  0  0  0  0  0  0  0  0  0  0  0
  -15.7209  -39.6931  -27.5161 H   0  0  0  0  0  0  0  0  0  0  0  0
  -18.2122  -42.0136  -25.2142 H   0  0  0  0  0  0  0  0  0  0  0  0
  -11.8647  -37.6492  -21.6047 H   0  0  0  0  0  0  0  0  0  0  0  0
  3  4  1  0
  3  7  2  0
  4  5  1  0
  5  6  2  0
  6  7  1  0
  8  9  1  0
  8 12  2  0
  9 10  2  0
 10 11  1  0
 11 12  1  0
 12 14  1  0
 13 18  2  0
 13 14  1  0
 14 15  2  0
 15 16  1  0
 16 17  2  0
 17 18  1  0
  9  2  1  0
 11  3  1  0
  1  8  1  0
  1 19  1  0
  2 20  1  0
  2 21  1  0
  2 22  1  0
  5 23  1  0
  6 24  1  0
 13 25  1  0
 15 26  1  0
 16 27  1  0
 18 28  1  0
  4 29  1  0
M  END
>  <smiles>  (350) 
[H]Oc1c(C([H])([H])[H])nn(-c2nc([H])c([H])[nH]2)c1-c1c([H])c([H])nc([H])c1[H]

>  <error>  (350) 


>  <∆∆G>  (350) 
-46.16268

>  <∆G_bound>  (350) 
303.49869

>  <∆G_unbound>  (350) 
349.66137

>  <comRMSD>  (350) 
1.075709

>  <N_constrained_atoms>  (350) 
18.0

>  <N_unconstrained_atoms>  (350) 
0.0

>  <runtime>  (350) 
1.182045

>  <regarded>  (350) 
['z0103a', 'd0160a']

>  <disregarded>  (350) 
[]

>  <LE>  (350) 
2.564593

>  <outcome>  (350) 
too moved

>  <percent_hybrid>  (350) 
39.0

$$$$
LIG
     RDKit          3D

 43 45  0  0  0  0  0  0  0  0999 V2000
  -14.6474  -41.7031  -21.6019 N   0  0  0  0  0  0  0  0  0  0  0  0
  -13.7952  -41.4490  -20.7970 C   0  0  0  0  0  0  0  0  0  0  0  0
  -12.8109  -42.5229  -20.3294 C   0  0  0  0  0  0  0  0  0  0  0  0
  -13.4334  -40.1050  -20.0979 N   0  0  0  0  0  0  0  0  0  0  0  0
  -14.0705  -38.8322  -20.1496 C   0  0  0  0  0  0  0  0  0  0  0  0
  -13.4046  -37.8289  -21.0436 C   0  0  0  0  0  0  0  0  0  0  0  0
  -12.1101  -37.6355  -21.2132 N   0  0  0  0  0  0  0  0  0  0  0  0
  -11.9980  -36.4724  -21.9217 C   0  0  0  0  0  0  0  0  0  0  0  0
  -13.2386  -35.9805  -22.2478 C   0  0  0  0  0  0  0  0  0  0  0  0
  -14.1253  -36.8803  -21.7276 N   0  0  0  0  0  0  0  0  0  0  0  0
  -15.5620  -40.1114  -26.4875 C   0  0  0  0  0  0  0  0  0  0  0  0
  -14.9067  -41.3584  -24.4276 C   0  0  0  0  0  0  0  0  0  0  0  0
  -15.3321  -42.4740  -23.7285 C   0  0  0  0  0  0  0  0  0  0  0  0
  -16.3500  -43.0709  -24.5214 C   0  0  0  0  0  0  0  0  0  0  0  0
  -16.5254  -42.2882  -25.6445 C   0  0  0  0  0  0  0  0  0  0  0  0
  -15.6615  -41.2279  -25.5564 N   0  0  0  0  0  0  0  0  0  0  0  0
  -17.6449  -38.8303  -27.0989 C   0  0  0  0  0  0  0  0  0  0  0  0
  -16.6122  -39.0720  -26.1988 C   0  0  0  0  0  0  0  0  0  0  0  0
  -16.6047  -38.3180  -25.0208 C   0  0  0  0  0  0  0  0  0  0  0  0
  -17.6104  -37.3849  -24.7898 C   0  0  0  0  0  0  0  0  0  0  0  0
  -18.5966  -37.2310  -25.7512 C   0  0  0  0  0  0  0  0  0  0  0  0
  -18.6402  -37.9267  -26.9098 N   0  0  0  0  0  0  0  0  0  0  0  0
  -14.8152  -42.9099  -22.3890 C   0  0  0  0  0  0  0  0  0  0  0  0
  -12.6564  -42.4305  -19.2495 H   0  0  0  0  0  0  0  0  0  0  0  0
  -13.1607  -43.5383  -20.5217 H   0  0  0  0  0  0  0  0  0  0  0  0
  -11.8572  -42.3487  -20.8290 H   0  0  0  0  0  0  0  0  0  0  0  0
  -12.6008  -40.2325  -19.5334 H   0  0  0  0  0  0  0  0  0  0  0  0
  -15.1133  -38.9647  -20.4613 H   0  0  0  0  0  0  0  0  0  0  0  0
  -14.1021  -38.4140  -19.1369 H   0  0  0  0  0  0  0  0  0  0  0  0
  -11.0265  -36.0506  -22.1424 H   0  0  0  0  0  0  0  0  0  0  0  0
  -13.5556  -35.0977  -22.7834 H   0  0  0  0  0  0  0  0  0  0  0  0
  -14.5588  -39.6781  -26.4074 H   0  0  0  0  0  0  0  0  0  0  0  0
  -15.6642  -40.5242  -27.4980 H   0  0  0  0  0  0  0  0  0  0  0  0
  -14.1554  -40.6261  -24.1640 H   0  0  0  0  0  0  0  0  0  0  0  0
  -16.9095  -43.9631  -24.2795 H   0  0  0  0  0  0  0  0  0  0  0  0
  -17.2063  -42.3875  -26.4756 H   0  0  0  0  0  0  0  0  0  0  0  0
  -17.7042  -39.3760  -28.0364 H   0  0  0  0  0  0  0  0  0  0  0  0
  -15.8235  -38.4694  -24.2802 H   0  0  0  0  0  0  0  0  0  0  0  0
  -17.6326  -36.7995  -23.8786 H   0  0  0  0  0  0  0  0  0  0  0  0
  -19.4059  -36.5210  -25.6059 H   0  0  0  0  0  0  0  0  0  0  0  0
  -15.5339  -43.5784  -21.9035 H   0  0  0  0  0  0  0  0  0  0  0  0
  -13.8798  -43.4559  -22.5521 H   0  0  0  0  0  0  0  0  0  0  0  0
  -15.1340  -36.8159  -21.7526 H   0  0  0  0  0  0  0  0  0  0  0  0
  3  2  1  0
  2  1  2  0
  4  2  1  0
  5  4  1  0
  6  5  1  0
  6  7  2  0
  6 10  1  0
  7  8  1  0
  8  9  2  0
  9 10  1  0
 12 13  2  0
 12 16  1  0
 13 14  1  0
 14 15  2  0
 15 16  1  0
 16 11  1  0
 17 22  2  0
 17 18  1  0
 18 11  1  0
 18 19  2  0
 19 20  1  0
 20 21  2  0
 21 22  1  0
 23  1  1  0
 23 13  1  0
  3 24  1  0
  3 25  1  0
  3 26  1  0
  4 27  1  0
  5 28  1  0
  5 29  1  0
  8 30  1  0
  9 31  1  0
 11 32  1  0
 11 33  1  0
 12 34  1  0
 14 35  1  0
 15 36  1  0
 17 37  1  0
 19 38  1  0
 20 39  1  0
 21 40  1  0
 23 41  1  0
 23 42  1  0
 10 43  1  0
M  END
>  <smiles>  (351) 
[H]c1nc(C([H])([H])N([H])/C(=N\C([H])([H])c2c([H])c([H])n(C([H])([H])c3c([H])nc([H])c([H])c3[H])c2[H])C([H])([H])[H])[nH]c1[H]

>  <error>  (351) 


>  <∆∆G>  (351) 
-70.880504

>  <∆G_bound>  (351) 
349.782322

>  <∆G_unbound>  (351) 
420.662825

>  <comRMSD>  (351) 
1.2655

>  <N_constrained_atoms>  (351) 
22.0

>  <N_unconstrained_atoms>  (351) 
1.0

>  <runtime>  (351) 
2.655082

>  <regarded>  (351) 
['z0103a', 'd0191a']

>  <disregarded>  (351) 
[]

>  <LE>  (351) 
3.081761

>  <outcome>  (351) 
too moved

>  <percent_hybrid>  (351) 
46.0

$$$$
LIG
     RDKit          3D

  0  0  0  0  0  0  0  0  0  0999 V3000
M  V30 BEGIN CTAB
M  V30 COUNTS 51 53 0 0 0
M  V30 BEGIN ATOM
M  V30 1 N -13.266000 -42.196999 -21.974001 0
M  V30 2 C -12.944000 -41.021999 -21.833000 0
M  V30 3 C -11.629000 -40.624001 -21.225000 0
M  V30 4 N -13.726000 -40.034000 -22.247999 0
M  V30 5 C -13.348000 -39.222000 -23.382000 0
M  V30 6 C -12.966000 -37.907001 -22.924999 0
M  V30 7 N -11.741000 -37.458000 -22.879000 0
M  V30 8 C -11.837000 -36.210999 -22.299000 0
M  V30 9 C -13.101000 -35.942001 -22.018000 0
M  V30 10 N -13.818000 -37.035000 -22.421000 0
M  V30 11 O -18.514000 -44.944000 -23.084999 0
M  V30 12 C -17.580000 -44.924999 -22.290001 0
M  V30 13 N -16.473000 -44.150002 -22.421000 0
M  V30 14 C -15.164000 -40.129002 -26.188000 0
M  V30 15 O -16.413000 -45.701000 -20.278000 0
M  V30 16 C -16.757999 -45.423000 -18.919001 0
M  V30 17 C -18.214001 -45.775002 -18.761999 0
M  V30 18 C -18.778999 -45.480999 -20.135000 0
M  V30 19 C -17.622999 -45.814999 -21.052999 0 CFG=1
M  V30 20 C -16.889999 -43.139000 -24.648001 0
M  V30 21 C -16.169001 -43.235001 -23.444000 0
M  V30 22 C -15.149000 -42.410999 -23.158001 0
M  V30 23 C -14.848000 -41.453999 -24.049999 0
M  V30 24 C -15.513000 -41.262001 -25.253000 0
M  V30 25 C -16.540001 -42.141998 -25.537001 0
M  V30 26 C -14.207500 -42.304001 -22.566002 0
M  V30 27 H -11.709771 -40.648445 -20.128242 0
M  V30 28 H -10.847049 -41.325714 -21.550806 0
M  V30 29 H -11.367404 -39.606445 -21.550806 0
M  V30 30 H -14.611291 -39.843807 -21.757097 0
M  V30 31 H -12.499456 -39.690483 -23.902094 0
M  V30 32 H -14.199591 -39.137444 -24.073118 0
M  V30 33 H -10.988646 -35.539764 -22.099646 0
M  V30 34 H -13.495500 -35.025738 -21.554501 0
M  V30 35 H -15.766908 -44.244354 -21.677069 0
M  V30 36 H -14.890187 -39.240093 -25.600746 0
M  V30 37 H -14.315430 -40.425137 -26.822218 0
M  V30 38 H -16.032122 -39.896343 -26.822218 0
M  V30 39 H -16.089857 -45.028572 -18.139250 0
M  V30 40 H -17.036428 -44.396500 -19.199667 0
M  V30 41 H -18.736921 -46.152126 -17.870747 0
M  V30 42 H -18.430281 -44.742043 -18.451809 0
M  V30 43 H -19.781889 -45.115040 -20.400118 0
M  V30 44 H -18.420212 -44.443825 -20.060553 0
M  V30 45 H -17.743259 -46.838230 -21.438404 0
M  V30 46 H -17.708742 -43.837749 -24.874741 0
M  V30 47 H -14.016479 -40.774754 -23.810833 0
M  V30 48 H -17.087391 -42.046734 -26.486362 0
M  V30 49 H -13.227500 -41.323997 -21.586000 0
M  V30 50 H -13.217500 -41.313999 -21.576000 0
M  V30 51 H -14.838100 -37.155346 -22.344767 0
M  V30 END ATOM
M  V30 BEGIN BOND
M  V30 1 1 3 2
M  V30 2 2 2 1
M  V30 3 1 4 2
M  V30 4 1 5 4
M  V30 5 1 6 5
M  V30 6 2 6 7
M  V30 7 1 6 10
M  V30 8 1 7 8
M  V30 9 2 8 9
M  V30 10 1 9 10
M  V30 11 1 13 12
M  V30 12 2 12 11
M  V30 13 1 15 16
M  V30 14 1 15 19
M  V30 15 1 16 17
M  V30 16 1 17 18
M  V30 17 1 18 19
M  V30 18 1 19 12
M  V30 19 2 20 25
M  V30 20 1 20 21
M  V30 21 1 21 13
M  V30 22 2 21 22
M  V30 23 1 22 23
M  V30 24 2 23 24
M  V30 25 1 24 14
M  V30 26 1 24 25
M  V30 27 1 26 1
M  V30 28 1 26 22
M  V30 29 1 3 27
M  V30 30 1 3 28
M  V30 31 1 3 29
M  V30 32 1 4 30
M  V30 33 1 5 31
M  V30 34 1 5 32
M  V30 35 1 8 33
M  V30 36 1 9 34
M  V30 37 1 13 35
M  V30 38 1 14 36
M  V30 39 1 14 37
M  V30 40 1 14 38
M  V30 41 1 16 39
M  V30 42 1 16 40
M  V30 43 1 17 41
M  V30 44 1 17 42
M  V30 45 1 18 43
M  V30 46 1 18 44
M  V30 47 1 19 45 CFG=3
M  V30 48 1 20 46
M  V30 49 1 23 47
M  V30 50 1 25 48
M  V30 51 1 26 49
M  V30 52 1 26 50
M  V30 53 1 10 51
M  V30 END BOND
M  V30 BEGIN COLLECTION
M  V30 MDLV30/STEABS ATOMS=(0)
M  V30 END COLLECTION
M  V30 END CTAB
M  END
>  <smiles>  (352) 
[H]c1nc(C([H])([H])N([H])/C(=N\C([H])([H])c2c([H])c(C([H])([H])[H])c([H])c([H])c2N([H])C(=O)[C@@]2([H])OC([H])([H])C([H])([H])C2([H])[H])C([H])([H])[H])[nH]c1[H]

>  <error>  (352) 


>  <∆∆G>  (352) 
nan

>  <∆G_bound>  (352) 
nan

>  <∆G_unbound>  (352) 
nan

>  <comRMSD>  (352) 
0.0

>  <N_constrained_atoms>  (352) 
25.0

>  <N_unconstrained_atoms>  (352) 
1.0

>  <runtime>  (352) 
1.619584

>  <regarded>  (352) 
['z0103a', 'd0254a']

>  <disregarded>  (352) 
[]

>  <LE>  (352) 
nan

>  <outcome>  (352) 
crashed

>  <percent_hybrid>  (352) 
40.0

$$$$

     RDKit          2D

  0  0  0  0  0  0  0  0  0  0999 V2000
M  END
>  <smiles>  (353) 
nan

>  <error>  (353) 
DistanceError 6.66 Å

>  <∆∆G>  (353) 
nan

>  <∆G_bound>  (353) 
nan

>  <∆G_unbound>  (353) 
nan

>  <comRMSD>  (353) 
nan

>  <N_constrained_atoms>  (353) 
nan

>  <N_unconstrained_atoms>  (353) 
nan

>  <runtime>  (353) 
nan

>  <regarded>  (353) 
[]

>  <disregarded>  (353) 
[]

>  <LE>  (353) 
nan

>  <outcome>  (353) 
too distant

>  <percent_hybrid>  (353) 
nan

$$$$
LIG
     RDKit          3D

 39 41  0  0  0  0  0  0  0  0999 V2000
  -14.4117  -41.7782  -20.8795 N   0  0  0  0  0  0  0  0  0  0  0  0
  -13.3270  -41.2578  -20.9379 C   0  0  0  0  0  0  0  0  0  0  0  0
  -12.1223  -41.8922  -20.2303 C   0  0  0  0  0  0  0  0  0  0  0  0
  -12.8724  -39.9483  -21.6418 N   0  0  0  0  0  0  0  0  0  0  0  0
  -13.5868  -39.0545  -22.4867 C   0  0  0  0  0  0  0  0  0  0  0  0
  -13.1605  -37.6591  -22.2486 C   0  0  0  0  0  0  0  0  0  0  0  0
  -11.9201  -37.2237  -22.2887 N   0  0  0  0  0  0  0  0  0  0  0  0
  -11.9778  -35.9336  -21.8443 C   0  0  0  0  0  0  0  0  0  0  0  0
  -13.2747  -35.5563  -21.5969 C   0  0  0  0  0  0  0  0  0  0  0  0
  -14.0234  -36.6689  -21.8579 N   0  0  0  0  0  0  0  0  0  0  0  0
  -15.3843  -43.6315  -22.5697 N   0  0  0  0  0  0  0  0  0  0  0  0
  -15.4317  -43.8981  -21.1676 C   0  0  0  0  0  0  0  0  0  0  0  0
  -15.9669  -45.0499  -20.5918 C   0  0  0  0  0  0  0  0  0  0  0  0
  -15.7567  -45.3936  -19.2874 N   0  0  0  0  0  0  0  0  0  0  0  0
  -15.1420  -44.4841  -18.5042 C   0  0  0  0  0  0  0  0  0  0  0  0
  -14.6391  -43.2837  -18.9604 C   0  0  0  0  0  0  0  0  0  0  0  0
  -14.7569  -43.0060  -20.3147 C   0  0  0  0  0  0  0  0  0  0  0  0
  -17.6215  -45.5023  -22.4392 C   0  0  0  0  0  0  0  0  0  0  0  0
  -18.4368  -46.5456  -22.7951 C   0  0  0  0  0  0  0  0  0  0  0  0
  -18.2852  -47.5376  -21.8133 C   0  0  0  0  0  0  0  0  0  0  0  0
  -17.3652  -47.0830  -20.8975 C   0  0  0  0  0  0  0  0  0  0  0  0
  -16.9112  -45.8425  -21.3055 N   0  0  0  0  0  0  0  0  0  0  0  0
  -12.1433  -41.6164  -19.1723 H   0  0  0  0  0  0  0  0  0  0  0  0
  -12.1461  -42.9778  -20.3289 H   0  0  0  0  0  0  0  0  0  0  0  0
  -11.1821  -41.5351  -20.6561 H   0  0  0  0  0  0  0  0  0  0  0  0
  -11.8985  -39.7651  -21.4164 H   0  0  0  0  0  0  0  0  0  0  0  0
  -13.4133  -39.3153  -23.5341 H   0  0  0  0  0  0  0  0  0  0  0  0
  -14.6631  -39.1603  -22.3103 H   0  0  0  0  0  0  0  0  0  0  0  0
  -11.0775  -35.3471  -21.7367 H   0  0  0  0  0  0  0  0  0  0  0  0
  -13.7128  -34.6336  -21.2443 H   0  0  0  0  0  0  0  0  0  0  0  0
  -14.6913  -44.2454  -23.0032 H   0  0  0  0  0  0  0  0  0  0  0  0
  -15.0609  -42.6648  -22.6757 H   0  0  0  0  0  0  0  0  0  0  0  0
  -15.1116  -44.7350  -17.4468 H   0  0  0  0  0  0  0  0  0  0  0  0
  -14.2040  -42.5695  -18.2736 H   0  0  0  0  0  0  0  0  0  0  0  0
  -17.4972  -44.5457  -22.9235 H   0  0  0  0  0  0  0  0  0  0  0  0
  -19.0545  -46.5865  -23.6820 H   0  0  0  0  0  0  0  0  0  0  0  0
  -18.7868  -48.4898  -21.8142 H   0  0  0  0  0  0  0  0  0  0  0  0
  -16.9714  -47.5374  -20.0012 H   0  0  0  0  0  0  0  0  0  0  0  0
  -15.0214  -36.7681  -21.7226 H   0  0  0  0  0  0  0  0  0  0  0  0
  3  2  1  0
  2  1  2  0
  4  2  1  0
  5  4  1  0
  6  5  1  0
  6  7  2  0
  6 10  1  0
  7  8  1  0
  8  9  2  0
  9 10  1  0
 12 11  1  0
 12 17  2  0
 12 13  1  0
 13 14  2  0
 13 22  1  0
 14 15  1  0
 15 16  2  0
 16 17  1  0
 18 19  2  0
 18 22  1  0
 19 20  1  0
 20 21  2  0
 21 22  1  0
  1 17  1  0
  3 23  1  0
  3 24  1  0
  3 25  1  0
  4 26  1  0
  5 27  1  0
  5 28  1  0
  8 29  1  0
  9 30  1  0
 11 31  1  0
 11 32  1  0
 15 33  1  0
 16 34  1  0
 18 35  1  0
 19 36  1  0
 20 37  1  0
 21 38  1  0
 10 39  1  0
M  END
>  <smiles>  (354) 
[H]c1nc(C([H])([H])N([H])/C(=N/c2c([H])c([H])nc(-n3c([H])c([H])c([H])c3[H])c2N([H])[H])C([H])([H])[H])[nH]c1[H]

>  <error>  (354) 


>  <∆∆G>  (354) 
-31.089904

>  <∆G_bound>  (354) 
111.811487

>  <∆G_unbound>  (354) 
142.901391

>  <comRMSD>  (354) 
0.910144

>  <N_constrained_atoms>  (354) 
22.0

>  <N_unconstrained_atoms>  (354) 
0.0

>  <runtime>  (354) 
2.052599

>  <regarded>  (354) 
['z0103a', 'd0472a']

>  <disregarded>  (354) 
[]

>  <LE>  (354) 
1.413177

>  <outcome>  (354) 
acceptable

>  <percent_hybrid>  (354) 
46.0

$$$$
LIG
     RDKit          3D

 48 50  0  0  0  0  0  0  0  0999 V2000
  -12.8901  -40.8181  -21.1665 C   0  0  2  0  0  0  0  0  0  0  0  0
  -11.6869  -40.9015  -20.2191 C   0  0  0  0  0  0  0  0  0  0  0  0
  -13.3932  -39.4326  -21.1139 N   0  0  0  0  0  0  0  0  0  0  0  0
  -12.6920  -38.6124  -22.1086 C   0  0  0  0  0  0  0  0  0  0  0  0
  -14.5514  -44.8797  -18.9543 F   0  0  0  0  0  0  0  0  0  0  0  0
  -17.5867  -39.6493  -26.4478 C   0  0  0  0  0  0  0  0  0  0  0  0
  -17.7708  -38.5627  -26.8564 O   0  0  0  0  0  0  0  0  0  0  0  0
  -17.7737  -40.9398  -27.0866 N   0  0  0  0  0  0  0  0  0  0  0  0
  -13.1459  -37.2000  -22.0377 C   0  0  0  0  0  0  0  0  0  0  0  0
  -12.9474  -36.4301  -20.9205 N   0  0  0  0  0  0  0  0  0  0  0  0
  -13.4642  -35.1914  -21.1726 C   0  0  0  0  0  0  0  0  0  0  0  0
  -13.9707  -35.2686  -22.4470 C   0  0  0  0  0  0  0  0  0  0  0  0
  -13.7564  -36.5134  -22.9820 N   0  0  0  0  0  0  0  0  0  0  0  0
  -14.7519  -43.9128  -19.8598 C   0  0  0  0  0  0  0  0  0  0  0  0
  -15.8932  -43.9385  -20.6381 C   0  0  0  0  0  0  0  0  0  0  0  0
  -16.0985  -42.9271  -21.5734 C   0  0  0  0  0  0  0  0  0  0  0  0
  -15.1732  -41.8725  -21.7357 C   0  0  0  0  0  0  0  0  0  0  0  0
  -13.9891  -41.8639  -20.9435 C   0  0  0  0  0  0  0  0  0  0  0  0
  -13.8067  -42.9044  -20.0076 C   0  0  0  0  0  0  0  0  0  0  0  0
  -15.1261  -41.2791  -24.0596 C   0  0  0  0  0  0  0  0  0  0  0  0
  -15.4014  -40.8432  -22.6825 N   0  0  0  0  0  0  0  0  0  0  0  0
  -16.7182  -40.1897  -22.5847 C   0  0  0  0  0  0  0  0  0  0  0  0
  -16.9615  -39.3265  -23.8402 C   0  0  0  0  0  0  0  0  0  0  0  0
  -17.1731  -40.1026  -25.1270 N   0  0  0  0  0  0  0  0  0  0  0  0
  -15.6323  -40.2061  -25.0586 C   0  0  0  0  0  0  0  0  0  0  0  0
  -12.5157  -41.0265  -22.1694 H   0  0  0  0  0  0  0  0  0  0  0  0
  -11.9813  -40.7545  -19.1736 H   0  0  0  0  0  0  0  0  0  0  0  0
  -11.1984  -41.8748  -20.3051 H   0  0  0  0  0  0  0  0  0  0  0  0
  -10.9231  -40.1532  -20.4564 H   0  0  0  0  0  0  0  0  0  0  0  0
  -14.3645  -39.4825  -21.4435 H   0  0  0  0  0  0  0  0  0  0  0  0
  -11.6068  -38.6345  -21.9580 H   0  0  0  0  0  0  0  0  0  0  0  0
  -12.8958  -38.9892  -23.1171 H   0  0  0  0  0  0  0  0  0  0  0  0
  -17.6228  -41.6874  -26.3885 H   0  0  0  0  0  0  0  0  0  0  0  0
  -17.4005  -41.6797  -26.4691 H   0  0  0  0  0  0  0  0  0  0  0  0
  -13.4461  -34.3971  -20.4403 H   0  0  0  0  0  0  0  0  0  0  0  0
  -14.4775  -34.4948  -23.0097 H   0  0  0  0  0  0  0  0  0  0  0  0
  -16.6145  -44.7393  -20.5170 H   0  0  0  0  0  0  0  0  0  0  0  0
  -16.9926  -42.9797  -22.1876 H   0  0  0  0  0  0  0  0  0  0  0  0
  -12.9192  -42.9697  -19.3860 H   0  0  0  0  0  0  0  0  0  0  0  0
  -15.6248  -42.2309  -24.2858 H   0  0  0  0  0  0  0  0  0  0  0  0
  -14.0518  -41.4192  -24.1959 H   0  0  0  0  0  0  0  0  0  0  0  0
  -17.5397  -40.9109  -22.5094 H   0  0  0  0  0  0  0  0  0  0  0  0
  -16.7461  -39.5534  -21.6925 H   0  0  0  0  0  0  0  0  0  0  0  0
  -17.9583  -38.8835  -23.6872 H   0  0  0  0  0  0  0  0  0  0  0  0
  -16.3446  -38.4155  -23.9151 H   0  0  0  0  0  0  0  0  0  0  0  0
  -15.0826  -39.2508  -25.0388 H   0  0  0  0  0  0  0  0  0  0  0  0
  -15.3412  -40.5986  -26.0460 H   0  0  0  0  0  0  0  0  0  0  0  0
  -12.5284  -36.7574  -20.0600 H   0  0  0  0  0  0  0  0  0  0  0  0
  2  1  1  0
  3  1  1  0
  4  3  1  0
  8  6  1  0
  7  6  2  0
  9  4  1  0
  9 10  1  0
  9 13  2  0
 10 11  1  0
 11 12  2  0
 12 13  1  0
 14 19  2  0
 14  5  1  0
 14 15  1  0
 15 16  2  0
 16 17  1  0
 17 21  1  0
 17 18  2  0
 18 19  1  0
 20 25  1  0
 20 21  1  0
 21 22  1  0
 22 23  1  0
 23 24  1  0
 24  6  1  0
 24 25  1  0
 18  1  1  0
  1 26  1  6
  2 27  1  0
  2 28  1  0
  2 29  1  0
  3 30  1  0
  4 31  1  0
  4 32  1  0
  8 33  1  0
  8 34  1  0
 11 35  1  0
 12 36  1  0
 15 37  1  0
 16 38  1  0
 19 39  1  0
 20 40  1  0
 20 41  1  0
 22 42  1  0
 22 43  1  0
 23 44  1  0
 23 45  1  0
 25 46  1  0
 25 47  1  0
 10 48  1  0
M  END
>  <smiles>  (355) 
[H]c1nc(C([H])([H])N([H])[C@]([H])(c2c([H])c(F)c([H])c([H])c2N2C([H])([H])C([H])([H])N(C(=O)N([H])[H])C([H])([H])C2([H])[H])C([H])([H])[H])[nH]c1[H]

>  <error>  (355) 


>  <∆∆G>  (355) 
159.386025

>  <∆G_bound>  (355) 
336.619217

>  <∆G_unbound>  (355) 
177.233193

>  <comRMSD>  (355) 
1.422717

>  <N_constrained_atoms>  (355) 
25.0

>  <N_unconstrained_atoms>  (355) 
0.0

>  <runtime>  (355) 
5.470056

>  <regarded>  (355) 
['z0103a', 'd0612a']

>  <disregarded>  (355) 
[]

>  <LE>  (355) 
-6.375441

>  <outcome>  (355) 
too moved

>  <percent_hybrid>  (355) 
36.0

$$$$
LIG
     RDKit          3D

  0  0  0  0  0  0  0  0  0  0999 V3000
M  V30 BEGIN CTAB
M  V30 COUNTS 44 46 0 0 0
M  V30 BEGIN ATOM
M  V30 1 O -13.266000 -42.196999 -21.974001 0
M  V30 2 C -12.944000 -41.021999 -21.833000 0
M  V30 3 C -11.629000 -40.624001 -21.225000 0
M  V30 4 N -13.726000 -40.034000 -22.247999 0
M  V30 5 C -13.348000 -39.222000 -23.382000 0 CFG=2
M  V30 6 C -12.966000 -37.907001 -22.924999 0
M  V30 7 N -11.741000 -37.458000 -22.879000 0
M  V30 8 C -11.837000 -36.210999 -22.299000 0
M  V30 9 C -13.101000 -35.942001 -22.018000 0
M  V30 10 N -13.818000 -37.035000 -22.421000 0
M  V30 11 F -18.671000 -43.808998 -24.667000 0
M  V30 12 N -14.914000 -40.875000 -24.797001 0
M  V30 13 C -15.278000 -40.210999 -26.035999 0
M  V30 14 C -18.740000 -36.407001 -24.548000 0
M  V30 15 C -17.525000 -43.327000 -24.115999 0
M  V30 16 C -16.809000 -42.383999 -24.802999 0
M  V30 17 C -15.659000 -41.882999 -24.202999 0
M  V30 18 C -15.299000 -42.398998 -22.957001 0
M  V30 19 N -16.009001 -43.330002 -22.305000 0
M  V30 20 C -17.125000 -43.785000 -22.886000 0
M  V30 21 C -17.368999 -38.930000 -26.771000 0
M  V30 22 N -18.275000 -37.955002 -26.407000 0
M  V30 23 C -17.968000 -37.487000 -25.233000 0
M  V30 24 S -16.566000 -38.206001 -24.499001 0
M  V30 25 C -16.382999 -39.214001 -25.896000 0
M  V30 26 N -14.131000 -40.048500 -24.089500 0
M  V30 27 H -11.709771 -40.648445 -20.128242 0
M  V30 28 H -10.847049 -41.325714 -21.550806 0
M  V30 29 H -11.367404 -39.606445 -21.550806 0
M  V30 30 H -14.611291 -39.843807 -21.757097 0
M  V30 31 H -12.604014 -38.879398 -24.116241 0
M  V30 32 H -10.988646 -35.539764 -22.099646 0
M  V30 33 H -13.495500 -35.025738 -21.554501 0
M  V30 34 H -14.389636 -39.689297 -26.421532 0
M  V30 35 H -15.642880 -40.993107 -26.718033 0
M  V30 36 H -18.652939 -36.528793 -23.458237 0
M  V30 37 H -18.337093 -35.426186 -24.840683 0
M  V30 38 H -19.798428 -36.470768 -24.840683 0
M  V30 39 H -17.132032 -42.034840 -25.794834 0
M  V30 40 H -14.381091 -42.020233 -22.483734 0
M  V30 41 H -17.733498 -44.540707 -22.367695 0
M  V30 42 H -17.447775 -39.453907 -27.735010 0
M  V30 43 H -13.210999 -39.128502 -23.169500 0
M  V30 44 H -14.838100 -37.155346 -22.344767 0
M  V30 END ATOM
M  V30 BEGIN BOND
M  V30 1 1 3 2
M  V30 2 2 2 1
M  V30 3 1 4 2
M  V30 4 1 5 4
M  V30 5 1 6 5
M  V30 6 2 6 7
M  V30 7 1 6 10
M  V30 8 1 7 8
M  V30 9 2 8 9
M  V30 10 1 9 10
M  V30 11 1 13 12
M  V30 12 2 15 20
M  V30 13 1 15 11
M  V30 14 1 15 16
M  V30 15 2 16 17
M  V30 16 1 17 12
M  V30 17 1 17 18
M  V30 18 2 18 19
M  V30 19 1 19 20
M  V30 20 1 21 22
M  V30 21 2 21 25
M  V30 22 2 22 23
M  V30 23 1 23 14
M  V30 24 1 23 24
M  V30 25 1 24 25
M  V30 26 1 25 13
M  V30 27 1 26 5
M  V30 28 1 26 12
M  V30 29 1 3 27
M  V30 30 1 3 28
M  V30 31 1 3 29
M  V30 32 1 4 30
M  V30 33 1 5 31 CFG=3
M  V30 34 1 8 32
M  V30 35 1 9 33
M  V30 36 1 13 34
M  V30 37 1 13 35
M  V30 38 1 14 36
M  V30 39 1 14 37
M  V30 40 1 14 38
M  V30 41 1 16 39
M  V30 42 1 18 40
M  V30 43 1 20 41
M  V30 44 1 21 42
M  V30 45 1 26 43
M  V30 46 1 10 44
M  V30 END BOND
M  V30 BEGIN COLLECTION
M  V30 MDLV30/STEABS ATOMS=(0)
M  V30 END COLLECTION
M  V30 END CTAB
M  END
>  <smiles>  (356) 
[H]c1nc([C@@]([H])(N([H])C(=O)C([H])([H])[H])N([H])N(c2c([H])nc([H])c(F)c2[H])C([H])([H])c2sc(C([H])([H])[H])nc2[H])[nH]c1[H]

>  <error>  (356) 


>  <∆∆G>  (356) 
nan

>  <∆G_bound>  (356) 
nan

>  <∆G_unbound>  (356) 
nan

>  <comRMSD>  (356) 
0.0

>  <N_constrained_atoms>  (356) 
25.0

>  <N_unconstrained_atoms>  (356) 
1.0

>  <runtime>  (356) 
1.198382

>  <regarded>  (356) 
['z0103a', 'd0615b']

>  <disregarded>  (356) 
[]

>  <LE>  (356) 
nan

>  <outcome>  (356) 
crashed

>  <percent_hybrid>  (356) 
40.0

$$$$
LIG
     RDKit          3D

  0  0  0  0  0  0  0  0  0  0999 V3000
M  V30 BEGIN CTAB
M  V30 COUNTS 49 50 0 0 0
M  V30 BEGIN ATOM
M  V30 1 O -13.266000 -42.196999 -21.974001 0
M  V30 2 C -12.944000 -41.021999 -21.833000 0
M  V30 3 C -11.629000 -40.624001 -21.225000 0
M  V30 4 N -13.726000 -40.034000 -22.247999 0
M  V30 5 C -13.348000 -39.222000 -23.382000 0 CFG=2
M  V30 6 C -12.966000 -37.907001 -22.924999 0
M  V30 7 N -11.741000 -37.458000 -22.879000 0
M  V30 8 C -11.837000 -36.210999 -22.299000 0
M  V30 9 C -13.101000 -35.942001 -22.018000 0
M  V30 10 N -13.818000 -37.035000 -22.421000 0
M  V30 11 O -19.445000 -40.158001 -24.528000 0
M  V30 12 S -18.933001 -39.846001 -25.825001 0
M  V30 13 O -18.877001 -38.480999 -26.240999 0
M  V30 14 C -19.827000 -40.765999 -27.018000 0
M  V30 15 C -16.511999 -41.500999 -27.914000 0
M  V30 16 C -15.906000 -38.516998 -25.243999 0
M  V30 17 O -16.229000 -38.262001 -26.598000 0
M  V30 18 N -17.393000 -40.395000 -25.853001 0
M  V30 19 C -17.198999 -41.683998 -26.573000 0 CFG=2
M  V30 20 C -16.566000 -42.779999 -25.714001 0
M  V30 21 C -15.991000 -42.259998 -24.402000 0
M  V30 22 C -15.366000 -40.882000 -24.551001 0 CFG=1
M  V30 23 C -16.459999 -39.863998 -24.820000 0 CFG=1
M  V30 24 N -14.357000 -40.052002 -23.966499 0
M  V30 25 H -11.709771 -40.648445 -20.128242 0
M  V30 26 H -10.847049 -41.325714 -21.550806 0
M  V30 27 H -11.367404 -39.606445 -21.550806 0
M  V30 28 H -14.611291 -39.843807 -21.757097 0
M  V30 29 H -12.585799 -38.971275 -24.134455 0
M  V30 30 H -10.988646 -35.539764 -22.099646 0
M  V30 31 H -13.495500 -35.025738 -21.554501 0
M  V30 32 H -20.506313 -41.465069 -26.508259 0
M  V30 33 H -20.412142 -40.079388 -27.647423 0
M  V30 34 H -19.123901 -41.331223 -27.647423 0
M  V30 35 H -15.460629 -41.220943 -27.752167 0
M  V30 36 H -16.557558 -42.442596 -28.480846 0
M  V30 37 H -17.019920 -40.706833 -28.480846 0
M  V30 38 H -14.812429 -38.519810 -25.125275 0
M  V30 39 H -16.349152 -37.731411 -24.614344 0
M  V30 40 H -17.005259 -37.649174 -26.642309 0
M  V30 41 H -18.210634 -42.054550 -26.795010 0
M  V30 42 H -17.335379 -43.531914 -25.484476 0
M  V30 43 H -15.730892 -43.204590 -26.290470 0
M  V30 44 H -16.800354 -42.202751 -23.659256 0
M  V30 45 H -15.200456 -42.954960 -24.082518 0
M  V30 46 H -14.631975 -41.473911 -25.117434 0
M  V30 47 H -17.003857 -39.699589 -23.878094 0
M  V30 48 H -13.387000 -39.082001 -22.996500 0
M  V30 49 H -14.838100 -37.155346 -22.344767 0
M  V30 END ATOM
M  V30 BEGIN BOND
M  V30 1 1 3 2
M  V30 2 2 2 1
M  V30 3 1 4 2
M  V30 4 1 5 4
M  V30 5 1 6 5
M  V30 6 2 6 7
M  V30 7 1 6 10
M  V30 8 1 7 8
M  V30 9 2 8 9
M  V30 10 1 9 10
M  V30 11 1 17 16
M  V30 12 1 14 12
M  V30 13 2 13 12
M  V30 14 2 12 11
M  V30 15 1 18 23
M  V30 16 1 18 12
M  V30 17 1 18 19
M  V30 18 1 19 15
M  V30 19 1 19 20
M  V30 20 1 20 21
M  V30 21 1 21 22
M  V30 22 1 22 23
M  V30 23 1 23 16
M  V30 24 1 24 5
M  V30 25 1 24 22
M  V30 26 1 3 25
M  V30 27 1 3 26
M  V30 28 1 3 27
M  V30 29 1 4 28
M  V30 30 1 5 29 CFG=3
M  V30 31 1 8 30
M  V30 32 1 9 31
M  V30 33 1 14 32
M  V30 34 1 14 33
M  V30 35 1 14 34
M  V30 36 1 15 35
M  V30 37 1 15 36
M  V30 38 1 15 37
M  V30 39 1 16 38
M  V30 40 1 16 39
M  V30 41 1 17 40
M  V30 42 1 19 41 CFG=3
M  V30 43 1 20 42
M  V30 44 1 20 43
M  V30 45 1 21 44
M  V30 46 1 21 45
M  V30 47 1 22 46 CFG=3
M  V30 48 1 23 47 CFG=1
M  V30 49 1 24 48
M  V30 50 1 10 49
M  V30 END BOND
M  V30 BEGIN COLLECTION
M  V30 MDLV30/STEABS ATOMS=(0)
M  V30 END COLLECTION
M  V30 END CTAB
M  END
>  <smiles>  (357) 
[H]OC([H])([H])[C@@]1([H])N(S(=O)(=O)C([H])([H])[H])[C@@]([H])(C([H])([H])[H])C([H])([H])C([H])([H])[C@]1([H])N([H])[C@@]([H])(c1nc([H])c([H])[nH]1)N([H])C(=O)C([H])([H])[H]

>  <error>  (357) 


>  <∆∆G>  (357) 
nan

>  <∆G_bound>  (357) 
nan

>  <∆G_unbound>  (357) 
nan

>  <comRMSD>  (357) 
0.0

>  <N_constrained_atoms>  (357) 
23.0

>  <N_unconstrained_atoms>  (357) 
1.0

>  <runtime>  (357) 
1.219125

>  <regarded>  (357) 
['z0103a', 'd0851a']

>  <disregarded>  (357) 
[]

>  <LE>  (357) 
nan

>  <outcome>  (357) 
crashed

>  <percent_hybrid>  (357) 
44.0

$$$$
LIG
     RDKit          3D

  0  0  0  0  0  0  0  0  0  0999 V3000
M  V30 BEGIN CTAB
M  V30 COUNTS 61 63 0 0 0
M  V30 BEGIN ATOM
M  V30 1 N -13.266000 -42.196999 -21.974001 0
M  V30 2 C -12.944000 -41.021999 -21.833000 0
M  V30 3 C -11.629000 -40.624001 -21.225000 0
M  V30 4 N -13.726000 -40.034000 -22.247999 0
M  V30 5 C -13.348000 -39.222000 -23.382000 0
M  V30 6 C -12.966000 -37.907001 -22.924999 0
M  V30 7 N -11.741000 -37.458000 -22.879000 0
M  V30 8 C -11.837000 -36.210999 -22.299000 0
M  V30 9 C -13.101000 -35.942001 -22.018000 0
M  V30 10 N -13.818000 -37.035000 -22.421000 0
M  V30 11 O -19.218000 -37.455002 -26.510000 0
M  V30 12 C -18.440001 -37.272999 -25.589001 0
M  V30 13 C -18.801001 -40.066002 -25.077000 0
M  V30 14 S -16.291000 -41.674000 -23.726000 0
M  V30 15 O -16.832001 -41.215000 -22.487000 0
M  V30 16 O -16.914000 -42.779999 -24.382999 0
M  V30 17 C -14.601000 -42.066002 -23.476999 0
M  V30 18 C -18.129000 -36.304001 -23.285000 0
M  V30 19 C -19.089001 -35.396999 -22.541000 0
M  V30 20 C -19.528999 -34.411999 -23.573999 0
M  V30 21 C -19.582001 -35.196999 -24.878000 0
M  V30 22 N -18.677000 -36.332001 -24.648001 0
M  V30 23 C -17.472000 -39.426998 -24.688999 0 CFG=2
M  V30 24 C -17.184000 -38.118999 -25.462000 0 CFG=1
M  V30 25 C -16.631001 -38.435001 -26.855000 0
M  V30 26 C -15.402000 -39.325001 -26.764999 0
M  V30 27 C -15.742000 -40.634998 -26.099001 0
M  V30 28 N -16.350000 -40.417999 -24.764000 0
M  V30 29 C -13.933500 -42.131500 -22.725500 0
M  V30 30 H -11.709771 -40.648445 -20.128242 0
M  V30 31 H -10.847049 -41.325714 -21.550806 0
M  V30 32 H -11.367404 -39.606445 -21.550806 0
M  V30 33 H -14.611291 -39.843807 -21.757097 0
M  V30 34 H -12.499456 -39.690483 -23.902094 0
M  V30 35 H -14.199591 -39.137444 -24.073118 0
M  V30 36 H -10.988646 -35.539764 -22.099646 0
M  V30 37 H -13.495500 -35.025738 -21.554501 0
M  V30 38 H -19.358402 -40.334011 -24.167343 0
M  V30 39 H -19.390856 -39.353043 -25.671778 0
M  V30 40 H -18.612473 -40.971924 -25.671778 0
M  V30 41 H -14.542475 -43.074615 -23.912054 0
M  V30 42 H -14.269724 -41.054607 -23.755093 0
M  V30 43 H -17.236740 -36.817654 -22.897661 0
M  V30 44 H -18.745884 -37.175060 -23.019085 0
M  V30 45 H -19.391558 -35.451595 -21.484838 0
M  V30 46 H -18.252964 -34.736572 -22.267363 0
M  V30 47 H -19.764292 -33.347851 -23.424904 0
M  V30 48 H -18.478930 -34.151901 -23.773256 0
M  V30 49 H -20.163443 -34.967476 -25.783123 0
M  V30 50 H -18.740808 -34.605370 -25.268347 0
M  V30 51 H -17.554789 -39.120125 -23.635920 0
M  V30 52 H -16.433901 -37.548752 -24.894400 0
M  V30 53 H -17.065676 -38.066658 -27.795946 0
M  V30 54 H -15.989086 -37.543270 -26.802460 0
M  V30 55 H -14.402679 -39.051491 -27.134527 0
M  V30 56 H -15.158585 -38.889721 -25.784552 0
M  V30 57 H -15.562118 -41.623852 -26.546005 0
M  V30 58 H -14.742798 -40.660843 -25.639732 0
M  V30 59 H -12.853499 -41.051498 -21.645500 0
M  V30 60 H -12.843500 -41.041500 -21.635500 0
M  V30 61 H -14.838100 -37.155346 -22.344767 0
M  V30 END ATOM
M  V30 BEGIN BOND
M  V30 1 1 3 2
M  V30 2 2 2 1
M  V30 3 1 4 2
M  V30 4 1 5 4
M  V30 5 1 6 5
M  V30 6 2 6 7
M  V30 7 1 6 10
M  V30 8 1 7 8
M  V30 9 2 8 9
M  V30 10 1 9 10
M  V30 11 2 15 14
M  V30 12 1 17 14
M  V30 13 2 16 14
M  V30 14 2 12 11
M  V30 15 1 18 19
M  V30 16 1 18 22
M  V30 17 1 19 20
M  V30 18 1 20 21
M  V30 19 1 21 22
M  V30 20 1 22 12
M  V30 21 1 23 13
M  V30 22 1 23 28
M  V30 23 1 23 24
M  V30 24 1 24 25
M  V30 25 1 24 12
M  V30 26 1 25 26
M  V30 27 1 26 27
M  V30 28 1 27 28
M  V30 29 1 28 14
M  V30 30 1 29 1
M  V30 31 1 29 17
M  V30 32 1 3 30
M  V30 33 1 3 31
M  V30 34 1 3 32
M  V30 35 1 4 33
M  V30 36 1 5 34
M  V30 37 1 5 35
M  V30 38 1 8 36
M  V30 39 1 9 37
M  V30 40 1 13 38
M  V30 41 1 13 39
M  V30 42 1 13 40
M  V30 43 1 17 41
M  V30 44 1 17 42
M  V30 45 1 18 43
M  V30 46 1 18 44
M  V30 47 1 19 45
M  V30 48 1 19 46
M  V30 49 1 20 47
M  V30 50 1 20 48
M  V30 51 1 21 49
M  V30 52 1 21 50
M  V30 53 1 23 51 CFG=1
M  V30 54 1 24 52 CFG=1
M  V30 55 1 25 53
M  V30 56 1 25 54
M  V30 57 1 26 55
M  V30 58 1 26 56
M  V30 59 1 27 57
M  V30 60 1 27 58
M  V30 61 1 29 59
M  V30 62 1 29 60
M  V30 63 1 10 61
M  V30 END BOND
M  V30 BEGIN COLLECTION
M  V30 MDLV30/STEABS ATOMS=(0)
M  V30 END COLLECTION
M  V30 END CTAB
M  END
>  <smiles>  (358) 
[H]c1nc(C([H])([H])N([H])/C(=N\C([H])([H])C([H])([H])S(=O)(=O)N2C([H])([H])C([H])([H])C([H])([H])[C@@]([H])(C(=O)N3C([H])([H])C([H])([H])C([H])([H])C3([H])[H])[C@@]2([H])C([H])([H])[H])C([H])([H])[H])[nH]c1[H]

>  <error>  (358) 


>  <∆∆G>  (358) 
nan

>  <∆G_bound>  (358) 
nan

>  <∆G_unbound>  (358) 
nan

>  <comRMSD>  (358) 
0.0

>  <N_constrained_atoms>  (358) 
28.0

>  <N_unconstrained_atoms>  (358) 
1.0

>  <runtime>  (358) 
1.637141

>  <regarded>  (358) 
['z0103a', 'd0866a']

>  <disregarded>  (358) 
[]

>  <LE>  (358) 
nan

>  <outcome>  (358) 
crashed

>  <percent_hybrid>  (358) 
36.0

$$$$
LIG
     RDKit          3D

 37 39  0  0  0  0  0  0  0  0999 V2000
  -15.3627  -40.7195  -20.5837 O   0  0  0  0  0  0  0  0  0  0  0  0
  -14.8723  -41.0929  -21.5732 C   0  0  0  0  0  0  0  0  0  0  0  0
  -14.5483  -42.5477  -21.8417 C   0  0  0  0  0  0  0  0  0  0  0  0
  -14.4240  -40.3072  -22.8287 N   0  0  0  0  0  0  0  0  0  0  0  0
  -14.4000  -38.8801  -23.0880 C   0  0  0  0  0  0  0  0  0  0  0  0
  -11.7889  -32.7711  -20.9355 O   0  0  0  0  0  0  0  0  0  0  0  0
  -13.5944  -38.0934  -22.0253 C   0  0  1  0  0  0  0  0  0  0  0  0
  -12.1846  -38.4779  -22.0047 N   0  0  0  0  0  0  0  0  0  0  0  0
  -11.5878  -37.4318  -21.1483 C   0  0  0  0  0  0  0  0  0  0  0  0
  -12.6527  -36.2825  -21.0408 C   0  0  1  0  0  0  0  0  0  0  0  0
  -13.5264  -36.6311  -22.1610 N   0  0  0  0  0  0  0  0  0  0  0  0
  -12.3842  -33.8242  -20.7202 C   0  0  0  0  0  0  0  0  0  0  0  0
  -13.5389  -33.8505  -19.8186 C   0  0  0  0  0  0  0  0  0  0  0  0
  -13.9677  -35.1030  -19.3834 C   0  0  0  0  0  0  0  0  0  0  0  0
  -13.2538  -36.2724  -19.7106 N   0  0  0  0  0  0  0  0  0  0  0  0
  -12.0275  -35.0206  -21.2807 N   0  0  0  0  0  0  0  0  0  0  0  0
  -14.1493  -32.6710  -19.3812 C   0  0  0  0  0  0  0  0  0  0  0  0
  -15.0091  -35.1576  -18.4565 C   0  0  0  0  0  0  0  0  0  0  0  0
  -15.6303  -33.9848  -18.0128 C   0  0  0  0  0  0  0  0  0  0  0  0
  -15.1942  -32.7413  -18.4666 C   0  0  0  0  0  0  0  0  0  0  0  0
  -15.0559  -43.1731  -21.1014 H   0  0  0  0  0  0  0  0  0  0  0  0
  -14.8961  -42.8456  -22.8347 H   0  0  0  0  0  0  0  0  0  0  0  0
  -13.4698  -42.7026  -21.7573 H   0  0  0  0  0  0  0  0  0  0  0  0
  -13.9581  -40.9370  -23.4747 H   0  0  0  0  0  0  0  0  0  0  0  0
  -13.9847  -38.7717  -24.0887 H   0  0  0  0  0  0  0  0  0  0  0  0
  -15.4387  -38.5343  -23.0933 H   0  0  0  0  0  0  0  0  0  0  0  0
  -14.0498  -38.3459  -21.0557 H   0  0  0  0  0  0  0  0  0  0  0  0
  -12.1131  -39.3854  -21.5466 H   0  0  0  0  0  0  0  0  0  0  0  0
  -11.3445  -37.8548  -20.1664 H   0  0  0  0  0  0  0  0  0  0  0  0
  -10.6566  -37.0956  -21.6112 H   0  0  0  0  0  0  0  0  0  0  0  0
  -14.4383  -36.2498  -21.9273 H   0  0  0  0  0  0  0  0  0  0  0  0
  -12.5156  -36.3785  -19.0160 H   0  0  0  0  0  0  0  0  0  0  0  0
  -11.3352  -35.0198  -22.0182 H   0  0  0  0  0  0  0  0  0  0  0  0
  -13.8011  -31.7052  -19.7227 H   0  0  0  0  0  0  0  0  0  0  0  0
  -15.3377  -36.1187  -18.0662 H   0  0  0  0  0  0  0  0  0  0  0  0
  -16.4325  -34.0429  -17.2795 H   0  0  0  0  0  0  0  0  0  0  0  0
  -15.6529  -31.8338  -18.0794 H   0  0  0  0  0  0  0  0  0  0  0  0
  3  2  1  0
  2  1  2  0
  4  2  1  0
  5  4  1  0
  7  5  1  0
  7  8  1  0
  7 11  1  0
  8  9  1  0
  9 10  1  0
 10 11  1  6
 12  6  2  0
 12 16  1  0
 12 13  1  0
 13 17  2  0
 13 14  1  0
 14 15  1  0
 14 18  2  0
 17 20  1  0
 18 19  1  0
 19 20  2  0
 10 15  1  0
 10 16  1  0
  3 21  1  0
  3 22  1  0
  3 23  1  0
  4 24  1  0
  5 25  1  0
  5 26  1  0
  7 27  1  6
  8 28  1  0
  9 29  1  0
  9 30  1  0
 11 31  1  0
 15 32  1  0
 16 33  1  0
 17 34  1  0
 18 35  1  0
 19 36  1  0
 20 37  1  0
M  END
>  <smiles>  (359) 
[H]c1c([H])c([H])c2c(c1[H])C(=O)N([H])[C@@]1(N2[H])N([H])[C@]([H])(C([H])([H])N([H])C(=O)C([H])([H])[H])N([H])C1([H])[H]

>  <error>  (359) 


>  <∆∆G>  (359) 
-21.410458

>  <∆G_bound>  (359) 
114.259383

>  <∆G_unbound>  (359) 
135.669841

>  <comRMSD>  (359) 
1.41988

>  <N_constrained_atoms>  (359) 
20.0

>  <N_unconstrained_atoms>  (359) 
0.0

>  <runtime>  (359) 
3.399477

>  <regarded>  (359) 
['z0103a', 'd1196a']

>  <disregarded>  (359) 
[]

>  <LE>  (359) 
1.070523

>  <outcome>  (359) 
too moved

>  <percent_hybrid>  (359) 
50.0

$$$$
LIG
     RDKit          3D

 46 47  0  0  0  0  0  0  0  0999 V2000
  -14.3062  -42.4138  -21.8579 N   0  0  0  0  0  0  0  0  0  0  0  0
  -13.5090  -41.6118  -21.4493 C   0  0  0  0  0  0  0  0  0  0  0  0
  -12.2857  -41.9982  -20.6193 C   0  0  0  0  0  0  0  0  0  0  0  0
  -13.4470  -40.0661  -21.6285 N   0  0  0  0  0  0  0  0  0  0  0  0
  -14.2606  -39.1886  -22.4008 C   0  0  0  0  0  0  0  0  0  0  0  0
  -13.6892  -37.8085  -22.3285 C   0  0  0  0  0  0  0  0  0  0  0  0
  -12.4107  -37.4954  -22.4429 N   0  0  0  0  0  0  0  0  0  0  0  0
  -12.3199  -36.1781  -22.0855 C   0  0  0  0  0  0  0  0  0  0  0  0
  -13.5663  -35.6572  -21.8409 C   0  0  0  0  0  0  0  0  0  0  0  0
  -14.4332  -36.7024  -22.0092 N   0  0  0  0  0  0  0  0  0  0  0  0
  -14.1165  -44.5016  -19.4146 O   0  0  0  0  0  0  0  0  0  0  0  0
  -14.4094  -43.4156  -18.5371 C   0  0  0  0  0  0  0  0  0  0  0  0
  -13.2564  -43.1564  -17.5587 C   0  0  0  0  0  0  0  0  0  0  0  0
  -13.7170  -43.1391  -16.1674 N   0  0  0  0  0  0  0  0  0  0  0  0
  -13.9815  -44.4816  -15.6529 C   0  0  0  0  0  0  0  0  0  0  0  0
  -14.2609  -44.5099  -14.1666 C   0  0  0  0  0  0  0  0  0  0  0  0
  -13.2974  -43.8169  -13.3838 O   0  0  0  0  0  0  0  0  0  0  0  0
  -13.2060  -42.4703  -13.8384 C   0  0  0  0  0  0  0  0  0  0  0  0
  -12.7490  -42.4493  -15.2993 C   0  0  0  0  0  0  0  0  0  0  0  0
  -14.2021  -43.8686  -21.7870 C   0  0  0  0  0  0  0  0  0  0  0  0
  -14.9461  -44.4598  -20.5866 C   0  0  0  0  0  0  0  0  0  0  0  0
  -12.2932  -41.4089  -19.6989 H   0  0  0  0  0  0  0  0  0  0  0  0
  -12.2348  -43.0490  -20.3581 H   0  0  0  0  0  0  0  0  0  0  0  0
  -11.3857  -41.7097  -21.1593 H   0  0  0  0  0  0  0  0  0  0  0  0
  -12.5870  -39.7126  -21.2163 H   0  0  0  0  0  0  0  0  0  0  0  0
  -14.2759  -39.5138  -23.4462 H   0  0  0  0  0  0  0  0  0  0  0  0
  -15.2890  -39.2065  -22.0260 H   0  0  0  0  0  0  0  0  0  0  0  0
  -11.3612  -35.6778  -22.0316 H   0  0  0  0  0  0  0  0  0  0  0  0
  -13.9016  -34.6728  -21.5474 H   0  0  0  0  0  0  0  0  0  0  0  0
  -14.6119  -42.4958  -19.0961 H   0  0  0  0  0  0  0  0  0  0  0  0
  -15.3408  -43.6623  -18.0134 H   0  0  0  0  0  0  0  0  0  0  0  0
  -12.4057  -43.8232  -17.7215 H   0  0  0  0  0  0  0  0  0  0  0  0
  -12.8866  -42.1496  -17.7820 H   0  0  0  0  0  0  0  0  0  0  0  0
  -14.8023  -44.9575  -16.1943 H   0  0  0  0  0  0  0  0  0  0  0  0
  -13.1085  -45.1072  -15.7584 H   0  0  0  0  0  0  0  0  0  0  0  0
  -15.2445  -44.0822  -13.9564 H   0  0  0  0  0  0  0  0  0  0  0  0
  -14.1650  -45.5518  -13.8591 H   0  0  0  0  0  0  0  0  0  0  0  0
  -14.1674  -41.9596  -13.7032 H   0  0  0  0  0  0  0  0  0  0  0  0
  -12.4678  -41.9579  -13.2132 H   0  0  0  0  0  0  0  0  0  0  0  0
  -11.7646  -42.9288  -15.3767 H   0  0  0  0  0  0  0  0  0  0  0  0
  -12.6427  -41.4047  -15.6141 H   0  0  0  0  0  0  0  0  0  0  0  0
  -14.6748  -44.2534  -22.6987 H   0  0  0  0  0  0  0  0  0  0  0  0
  -13.1683  -44.2165  -21.8196 H   0  0  0  0  0  0  0  0  0  0  0  0
  -15.8966  -43.9468  -20.3950 H   0  0  0  0  0  0  0  0  0  0  0  0
  -15.1901  -45.5031  -20.8131 H   0  0  0  0  0  0  0  0  0  0  0  0
  -15.4328  -36.6841  -21.8530 H   0  0  0  0  0  0  0  0  0  0  0  0
  3  2  1  0
  2  1  2  0
  4  2  1  0
  5  4  1  0
  6  5  1  0
  6  7  2  0
  6 10  1  0
  7  8  1  0
  8  9  2  0
  9 10  1  0
 12 11  1  0
 13 12  1  0
 14 13  1  0
 14 19  1  0
 14 15  1  0
 15 16  1  0
 16 17  1  0
 17 18  1  0
 18 19  1  0
 20  1  1  0
 21 20  1  0
 21 11  1  0
  3 22  1  0
  3 23  1  0
  3 24  1  0
  4 25  1  0
  5 26  1  0
  5 27  1  0
  8 28  1  0
  9 29  1  0
 12 30  1  0
 12 31  1  0
 13 32  1  0
 13 33  1  0
 15 34  1  0
 15 35  1  0
 16 36  1  0
 16 37  1  0
 18 38  1  0
 18 39  1  0
 19 40  1  0
 19 41  1  0
 20 42  1  0
 20 43  1  0
 21 44  1  0
 21 45  1  0
 10 46  1  0
M  END
>  <smiles>  (360) 
[H]c1nc(C([H])([H])N([H])/C(=N/C([H])([H])C([H])([H])OC([H])([H])C([H])([H])N2C([H])([H])C([H])([H])OC([H])([H])C2([H])[H])C([H])([H])[H])[nH]c1[H]

>  <error>  (360) 


>  <∆∆G>  (360) 
-26.412246

>  <∆G_bound>  (360) 
-11.801804

>  <∆G_unbound>  (360) 
14.610442

>  <comRMSD>  (360) 
1.516842

>  <N_constrained_atoms>  (360) 
19.0

>  <N_unconstrained_atoms>  (360) 
2.0

>  <runtime>  (360) 
3.25646

>  <regarded>  (360) 
['z0103a', 'z0052a']

>  <disregarded>  (360) 
[]

>  <LE>  (360) 
1.257726

>  <outcome>  (360) 
too moved

>  <percent_hybrid>  (360) 
48.0

$$$$

     RDKit          2D

  0  0  0  0  0  0  0  0  0  0999 V2000
M  END
>  <smiles>  (361) 
nan

>  <error>  (361) 
DistanceError 8.93 Å

>  <∆∆G>  (361) 
nan

>  <∆G_bound>  (361) 
nan

>  <∆G_unbound>  (361) 
nan

>  <comRMSD>  (361) 
nan

>  <N_constrained_atoms>  (361) 
nan

>  <N_unconstrained_atoms>  (361) 
nan

>  <runtime>  (361) 
nan

>  <regarded>  (361) 
[]

>  <disregarded>  (361) 
[]

>  <LE>  (361) 
nan

>  <outcome>  (361) 
too distant

>  <percent_hybrid>  (361) 
nan

$$$$

     RDKit          2D

  0  0  0  0  0  0  0  0  0  0999 V2000
M  END
>  <smiles>  (362) 
nan

>  <error>  (362) 
RecursionError maximum recursion depth exceeded while calling a Python object

>  <∆∆G>  (362) 
nan

>  <∆G_bound>  (362) 
nan

>  <∆G_unbound>  (362) 
nan

>  <comRMSD>  (362) 
nan

>  <N_constrained_atoms>  (362) 
nan

>  <N_unconstrained_atoms>  (362) 
nan

>  <runtime>  (362) 
nan

>  <regarded>  (362) 
[]

>  <disregarded>  (362) 
[]

>  <LE>  (362) 
nan

>  <outcome>  (362) 
crashed

>  <percent_hybrid>  (362) 
nan

$$$$
LIG
     RDKit          3D

  0  0  0  0  0  0  0  0  0  0999 V3000
M  V30 BEGIN CTAB
M  V30 COUNTS 25 26 0 0 0
M  V30 BEGIN ATOM
M  V30 1 N -13.726000 -40.034000 -22.247999 0
M  V30 2 C -13.348000 -39.222000 -23.382000 0
M  V30 3 C -12.966000 -37.907001 -22.924999 0
M  V30 4 N -11.741000 -37.458000 -22.879000 0
M  V30 5 C -11.837000 -36.210999 -22.299000 0
M  V30 6 C -13.101000 -35.942001 -22.018000 0
M  V30 7 N -13.818000 -37.035000 -22.421000 0
M  V30 8 C -12.567000 -42.085999 -21.440001 0
M  V30 9 C -13.246000 -41.202000 -22.230000 0
M  V30 10 N -12.548000 -40.040001 -22.191999 0
M  V30 11 C -11.474000 -40.242001 -21.403000 0
M  V30 12 N -11.428000 -41.477001 -20.927000 0
M  V30 13 N -13.297000 -44.498001 -20.850000 0
M  V30 14 N -12.932000 -43.292000 -21.145000 0
M  V30 15 H -14.556726 -40.400993 -21.762087 0
M  V30 16 H -12.499456 -39.690483 -23.902094 0
M  V30 17 H -14.199591 -39.137444 -24.073118 0
M  V30 18 H -10.988646 -35.539764 -22.099646 0
M  V30 19 H -13.495500 -35.025738 -21.554501 0
M  V30 20 H -14.174971 -41.394699 -22.786671 0
M  V30 21 H -10.722527 -39.470219 -21.180201 0
M  V30 22 H -13.329711 -44.606079 -19.826208 0
M  V30 23 H -14.230833 -44.680286 -21.244497 0
M  V30 24 H -12.202001 -42.562000 -20.415001 0
M  V30 25 H -10.887267 -37.932812 -23.205488 0
M  V30 END ATOM
M  V30 BEGIN BOND
M  V30 1 1 2 1
M  V30 2 1 3 2
M  V30 3 1 3 4
M  V30 4 2 3 7
M  V30 5 1 4 5
M  V30 6 2 5 6
M  V30 7 1 6 7
M  V30 8 2 8 9
M  V30 9 1 8 12
M  V30 10 1 9 10
M  V30 11 1 10 11
M  V30 12 2 11 12
M  V30 13 1 1 10
M  V30 14 1 14 8
M  V30 15 1 14 13
M  V30 16 1 1 15
M  V30 17 1 2 16
M  V30 18 1 2 17
M  V30 19 1 5 18
M  V30 20 1 6 19
M  V30 21 1 9 20
M  V30 22 1 11 21
M  V30 23 1 13 22
M  V30 24 1 13 23
M  V30 25 1 14 24
M  V30 26 1 4 25
M  V30 END BOND
M  V30 BEGIN COLLECTION
M  V30 MDLV30/STEABS ATOMS=(0)
M  V30 END COLLECTION
M  V30 END CTAB
M  END
>  <smiles>  (363) 
[H]c1nc(C([H])([H])N([H])n2c([H])nc(N([H])N([H])[H])c2[H])[nH]c1[H]

>  <error>  (363) 


>  <∆∆G>  (363) 
nan

>  <∆G_bound>  (363) 
nan

>  <∆G_unbound>  (363) 
nan

>  <comRMSD>  (363) 
0.0

>  <N_constrained_atoms>  (363) 
13.0

>  <N_unconstrained_atoms>  (363) 
1.0

>  <runtime>  (363) 
0.658038

>  <regarded>  (363) 
['z0103a', 'z0875c']

>  <disregarded>  (363) 
[]

>  <LE>  (363) 
nan

>  <outcome>  (363) 
crashed

>  <percent_hybrid>  (363) 
47.0

$$$$
LIG
     RDKit          3D

  0  0  0  0  0  0  0  0  0  0999 V3000
M  V30 BEGIN CTAB
M  V30 COUNTS 75 78 0 0 0
M  V30 BEGIN ATOM
M  V30 1 N -13.266000 -42.196999 -21.974001 0
M  V30 2 C -12.944000 -41.021999 -21.833000 0
M  V30 3 C -11.629000 -40.624001 -21.225000 0
M  V30 4 N -13.726000 -40.034000 -22.247999 0
M  V30 5 C -13.348000 -39.222000 -23.382000 0
M  V30 6 C -12.966000 -37.907001 -22.924999 0
M  V30 7 N -11.741000 -37.458000 -22.879000 0
M  V30 8 C -11.837000 -36.210999 -22.299000 0
M  V30 9 C -13.101000 -35.942001 -22.018000 0
M  V30 10 N -13.818000 -37.035000 -22.421000 0
M  V30 11 O -13.700000 -42.342999 -18.677000 0
M  V30 12 O -17.052999 -44.186001 -14.617000 0
M  V30 13 O -14.155000 -38.917000 -16.104000 0
M  V30 14 C -19.806000 -46.659000 -24.361000 0
M  V30 15 C -20.364000 -46.747002 -25.410000 0
M  V30 16 C -20.973000 -46.805000 -26.739000 0
M  V30 17 O -14.914000 -44.259998 -16.524000 0
M  V30 18 C -15.746000 -43.799000 -17.302000 0
M  V30 19 N -16.923000 -43.228001 -16.855000 0
M  V30 20 S -17.231001 -42.933998 -15.286000 0
M  V30 21 O -18.486000 -42.247002 -15.199000 0
M  V30 22 C -14.868000 -38.696999 -17.327000 0
M  V30 23 C -12.806000 -41.426998 -19.308001 0
M  V30 24 O -15.526000 -43.800999 -22.937000 0
M  V30 25 C -14.599000 -42.986000 -23.653000 0
M  V30 26 O -21.836000 -45.714001 -26.962999 0
M  V30 27 C -15.497000 -43.761002 -21.566999 0
M  V30 28 C -14.589000 -42.994999 -20.848000 0
M  V30 29 C -14.595000 -43.020000 -19.462999 0
M  V30 30 C -15.539000 -43.783001 -18.777000 0
M  V30 31 C -16.445000 -44.548000 -19.511000 0
M  V30 32 C -16.441999 -44.563000 -20.903999 0
M  V30 33 C -13.884000 -40.118999 -14.076000 0
M  V30 34 C -14.239000 -41.174999 -13.243000 0
M  V30 35 C -15.271000 -42.042999 -13.593000 0
M  V30 36 C -15.959000 -41.827000 -14.779000 0
M  V30 37 C -15.624000 -40.765999 -15.609000 0
M  V30 38 C -14.576000 -39.925999 -15.266000 0
M  V30 39 C -17.962000 -46.611000 -21.172001 0
M  V30 40 C -18.882000 -47.155998 -22.069000 0
M  V30 41 C -19.044001 -46.405998 -23.191000 0
M  V30 42 S -18.073000 -44.980999 -23.138000 0
M  V30 43 C -17.420000 -45.421001 -21.599001 0
M  V30 44 C -13.932500 -42.591499 -22.813499 0
M  V30 45 H -11.709771 -40.648445 -20.128242 0
M  V30 46 H -10.847049 -41.325714 -21.550806 0
M  V30 47 H -11.367404 -39.606445 -21.550806 0
M  V30 48 H -14.611291 -39.843807 -21.757097 0
M  V30 49 H -12.499456 -39.690483 -23.902094 0
M  V30 50 H -14.199591 -39.137444 -24.073118 0
M  V30 51 H -10.988646 -35.539764 -22.099646 0
M  V30 52 H -13.495500 -35.025738 -21.554501 0
M  V30 53 H -21.547783 -47.738682 -26.827669 0
M  V30 54 H -20.168194 -46.765987 -27.487844 0
M  V30 55 H -17.640112 -42.976452 -17.550251 0
M  V30 56 H -15.896447 -38.379665 -17.099855 0
M  V30 57 H -14.362690 -37.912987 -17.910084 0
M  V30 58 H -14.892308 -39.629425 -17.910084 0
M  V30 59 H -12.256001 -40.863464 -18.539930 0
M  V30 60 H -12.093684 -41.983047 -19.935230 0
M  V30 61 H -13.379197 -40.728409 -19.935230 0
M  V30 62 H -14.021113 -43.579323 -24.376888 0
M  V30 63 H -15.073967 -42.194660 -24.251488 0
M  V30 64 H -22.130182 -45.342098 -26.093950 0
M  V30 65 H -13.861361 -42.365238 -21.380865 0
M  V30 66 H -17.185162 -45.158680 -18.973198 0
M  V30 67 H -13.063022 -39.442741 -13.795520 0
M  V30 68 H -13.698606 -41.326469 -12.296939 0
M  V30 69 H -15.536602 -42.886848 -12.939261 0
M  V30 70 H -16.188845 -40.592186 -16.536760 0
M  V30 71 H -17.696196 -47.086807 -20.216515 0
M  V30 72 H -19.421354 -48.097153 -21.886450 0
M  V30 73 H -12.712500 -41.371498 -21.593500 0
M  V30 74 H -12.702500 -41.361500 -21.583500 0
M  V30 75 H -14.838100 -37.155346 -22.344767 0
M  V30 END ATOM
M  V30 BEGIN BOND
M  V30 1 1 3 2
M  V30 2 2 2 1
M  V30 3 1 4 2
M  V30 4 1 5 4
M  V30 5 1 6 5
M  V30 6 2 6 7
M  V30 7 1 6 10
M  V30 8 1 7 8
M  V30 9 2 8 9
M  V30 10 1 9 10
M  V30 11 1 16 26
M  V30 12 1 16 15
M  V30 13 3 15 14
M  V30 14 1 24 25
M  V30 15 1 19 18
M  V30 16 1 19 20
M  V30 17 2 18 17
M  V30 18 2 12 20
M  V30 19 2 21 20
M  V30 20 1 11 23
M  V30 21 1 22 13
M  V30 22 1 27 32
M  V30 23 1 27 24
M  V30 24 2 27 28
M  V30 25 1 28 29
M  V30 26 2 29 30
M  V30 27 1 29 11
M  V30 28 1 30 31
M  V30 29 1 30 18
M  V30 30 2 31 32
M  V30 31 1 32 43
M  V30 32 2 33 38
M  V30 33 1 33 34
M  V30 34 2 34 35
M  V30 35 1 35 36
M  V30 36 1 36 20
M  V30 37 2 36 37
M  V30 38 1 37 38
M  V30 39 1 38 13
M  V30 40 1 39 40
M  V30 41 2 39 43
M  V30 42 2 40 41
M  V30 43 1 41 14
M  V30 44 1 41 42
M  V30 45 1 42 43
M  V30 46 1 44 1
M  V30 47 1 44 25
M  V30 48 1 3 45
M  V30 49 1 3 46
M  V30 50 1 3 47
M  V30 51 1 4 48
M  V30 52 1 5 49
M  V30 53 1 5 50
M  V30 54 1 8 51
M  V30 55 1 9 52
M  V30 56 1 16 53
M  V30 57 1 16 54
M  V30 58 1 19 55
M  V30 59 1 22 56
M  V30 60 1 22 57
M  V30 61 1 22 58
M  V30 62 1 23 59
M  V30 63 1 23 60
M  V30 64 1 23 61
M  V30 65 1 25 62
M  V30 66 1 25 63
M  V30 67 1 26 64
M  V30 68 1 28 65
M  V30 69 1 31 66
M  V30 70 1 33 67
M  V30 71 1 34 68
M  V30 72 1 35 69
M  V30 73 1 37 70
M  V30 74 1 39 71
M  V30 75 1 40 72
M  V30 76 1 44 73
M  V30 77 1 44 74
M  V30 78 1 10 75
M  V30 END BOND
M  V30 BEGIN COLLECTION
M  V30 MDLV30/STEABS ATOMS=(0)
M  V30 END COLLECTION
M  V30 END CTAB
M  END
>  <smiles>  (364) 
[H]OC([H])([H])C#Cc1sc(-c2c([H])c(C(=O)N([H])S(=O)(=O)c3c([H])c([H])c([H])c(OC([H])([H])[H])c3[H])c(OC([H])([H])[H])c([H])c2OC([H])([H])C([H])([H])/N=C(\N([H])C([H])([H])c2nc([H])c([H])[nH]2)C([H])([H])[H])c([H])c1[H]

>  <error>  (364) 


>  <∆∆G>  (364) 
nan

>  <∆G_bound>  (364) 
nan

>  <∆G_unbound>  (364) 
nan

>  <comRMSD>  (364) 
0.0

>  <N_constrained_atoms>  (364) 
43.0

>  <N_unconstrained_atoms>  (364) 
1.0

>  <runtime>  (364) 
2.379312

>  <regarded>  (364) 
['z0103a', '5i3p-a']

>  <disregarded>  (364) 
[]

>  <LE>  (364) 
nan

>  <outcome>  (364) 
crashed

>  <percent_hybrid>  (364) 
24.0

$$$$
LIG
     RDKit          3D

 41 43  0  0  0  0  0  0  0  0999 V2000
  -13.2350  -42.3466  -20.5834 N   0  0  0  0  0  0  0  0  0  0  0  0
  -13.1303  -41.1414  -21.0444 C   0  0  0  0  0  0  0  0  0  0  0  0
  -11.7533  -40.5417  -20.9987 C   0  0  0  0  0  0  0  0  0  0  0  0
  -14.2466  -40.2491  -21.5678 C   0  0  0  0  0  0  0  0  0  0  0  0
  -13.9290  -39.4139  -22.7914 C   0  0  0  0  0  0  0  0  0  0  0  0
  -15.3345  -40.2494  -21.0070 O   0  0  0  0  0  0  0  0  0  0  0  0
  -17.5682  -45.1444  -18.5222 O   0  0  0  0  0  0  0  0  0  0  0  0
  -13.4783  -38.0424  -22.4152 C   0  0  0  0  0  0  0  0  0  0  0  0
  -12.1619  -37.6440  -22.3350 N   0  0  0  0  0  0  0  0  0  0  0  0
  -12.1391  -36.3412  -21.9222 C   0  0  0  0  0  0  0  0  0  0  0  0
  -13.4537  -35.9617  -21.8597 C   0  0  0  0  0  0  0  0  0  0  0  0
  -14.2664  -37.0095  -22.1987 N   0  0  0  0  0  0  0  0  0  0  0  0
  -16.5522  -44.4395  -19.1203 C   0  0  0  0  0  0  0  0  0  0  0  0
  -15.7236  -43.7258  -18.2667 C   0  0  0  0  0  0  0  0  0  0  0  0
  -14.6713  -42.9863  -18.8001 C   0  0  0  0  0  0  0  0  0  0  0  0
  -14.4255  -42.9517  -20.1790 C   0  0  0  0  0  0  0  0  0  0  0  0
  -15.2560  -43.6843  -21.0270 C   0  0  0  0  0  0  0  0  0  0  0  0
  -16.3484  -44.4291  -20.5157 C   0  0  0  0  0  0  0  0  0  0  0  0
  -18.2581  -47.2728  -22.1140 C   0  0  0  0  0  0  0  0  0  0  0  0
  -17.4652  -46.5543  -21.2268 C   0  0  0  0  0  0  0  0  0  0  0  0
  -17.2129  -45.1881  -21.4337 C   0  0  0  0  0  0  0  0  0  0  0  0
  -17.8105  -44.5579  -22.5371 C   0  0  0  0  0  0  0  0  0  0  0  0
  -18.5876  -45.2816  -23.4372 C   0  0  0  0  0  0  0  0  0  0  0  0
  -18.7681  -46.6476  -23.2459 C   0  0  0  0  0  0  0  0  0  0  0  0
  -11.7594  -39.6802  -20.3254 H   0  0  0  0  0  0  0  0  0  0  0  0
  -11.0282  -41.2650  -20.6153 H   0  0  0  0  0  0  0  0  0  0  0  0
  -11.4463  -40.2308  -21.9914 H   0  0  0  0  0  0  0  0  0  0  0  0
  -13.2024  -39.9334  -23.4122 H   0  0  0  0  0  0  0  0  0  0  0  0
  -14.8439  -39.3472  -23.3922 H   0  0  0  0  0  0  0  0  0  0  0  0
  -18.2835  -45.2120  -19.1825 H   0  0  0  0  0  0  0  0  0  0  0  0
  -11.2134  -35.8124  -21.7423 H   0  0  0  0  0  0  0  0  0  0  0  0
  -13.8618  -34.9948  -21.5945 H   0  0  0  0  0  0  0  0  0  0  0  0
  -15.8946  -43.7325  -17.1938 H   0  0  0  0  0  0  0  0  0  0  0  0
  -14.0055  -42.4488  -18.1286 H   0  0  0  0  0  0  0  0  0  0  0  0
  -15.0221  -43.7127  -22.0885 H   0  0  0  0  0  0  0  0  0  0  0  0
  -18.4201  -48.3358  -21.9674 H   0  0  0  0  0  0  0  0  0  0  0  0
  -17.0174  -47.0763  -20.3847 H   0  0  0  0  0  0  0  0  0  0  0  0
  -17.6557  -43.4939  -22.7083 H   0  0  0  0  0  0  0  0  0  0  0  0
  -19.0187  -44.7879  -24.3024 H   0  0  0  0  0  0  0  0  0  0  0  0
  -19.3016  -47.2379  -23.9873 H   0  0  0  0  0  0  0  0  0  0  0  0
  -11.3410  -38.2028  -22.5174 H   0  0  0  0  0  0  0  0  0  0  0  0
  3  2  1  0
  2  1  2  0
  4  2  1  0
  5  4  1  0
  6  4  2  0
  8  5  1  0
  8  9  1  0
  8 12  2  0
  9 10  1  0
 10 11  2  0
 11 12  1  0
 13  7  1  0
 13 18  2  0
 13 14  1  0
 14 15  2  0
 15 16  1  0
 16 17  2  0
 17 18  1  0
 18 21  1  0
 19 24  2  0
 19 20  1  0
 20 21  2  0
 21 22  1  0
 22 23  2  0
 23 24  1  0
  1 16  1  0
  3 25  1  0
  3 26  1  0
  3 27  1  0
  5 28  1  0
  5 29  1  0
  7 30  1  0
 10 31  1  0
 11 32  1  0
 14 33  1  0
 15 34  1  0
 17 35  1  0
 19 36  1  0
 20 37  1  0
 22 38  1  0
 23 39  1  0
 24 40  1  0
  9 41  1  0
M  END
>  <smiles>  (365) 
[H]Oc1c([H])c([H])c(/N=C(\C(=O)C([H])([H])c2nc([H])c([H])[nH]2)C([H])([H])[H])c([H])c1-c1c([H])c([H])c([H])c([H])c1[H]

>  <error>  (365) 


>  <∆∆G>  (365) 
-232.233089

>  <∆G_bound>  (365) 
143.395949

>  <∆G_unbound>  (365) 
375.629038

>  <comRMSD>  (365) 
0.617858

>  <N_constrained_atoms>  (365) 
24.0

>  <N_unconstrained_atoms>  (365) 
0.0

>  <runtime>  (365) 
1.607537

>  <regarded>  (365) 
['z0103a', '5hn0-a']

>  <disregarded>  (365) 
[]

>  <LE>  (365) 
9.676379

>  <outcome>  (365) 
acceptable

>  <percent_hybrid>  (365) 
42.0

$$$$
LIG
     RDKit          3D

  0  0  0  0  0  0  0  0  0  0999 V3000
M  V30 BEGIN CTAB
M  V30 COUNTS 50 52 0 0 0
M  V30 BEGIN ATOM
M  V30 1 N -13.266000 -42.196999 -21.974001 0
M  V30 2 C -12.944000 -41.021999 -21.833000 0
M  V30 3 C -11.629000 -40.624001 -21.225000 0
M  V30 4 N -13.726000 -40.034000 -22.247999 0
M  V30 5 C -13.348000 -39.222000 -23.382000 0
M  V30 6 C -12.966000 -37.907001 -22.924999 0
M  V30 7 N -11.741000 -37.458000 -22.879000 0
M  V30 8 C -11.837000 -36.210999 -22.299000 0
M  V30 9 C -13.101000 -35.942001 -22.018000 0
M  V30 10 N -13.818000 -37.035000 -22.421000 0
M  V30 11 C -15.154000 -44.255001 -17.416000 0
M  V30 12 O -16.554001 -43.896000 -15.527000 0
M  V30 13 O -15.585000 -43.813999 -23.108000 0
M  V30 14 C -16.204000 -43.490002 -16.656000 0
M  V30 15 O -16.681000 -42.466000 -17.171000 0
M  V30 16 C -14.587000 -43.144001 -23.884001 0
M  V30 17 C -15.310000 -44.111000 -18.923000 0
M  V30 18 C -14.379000 -43.345001 -19.639999 0
M  V30 19 C -14.469000 -43.220001 -21.028000 0
M  V30 20 C -15.494000 -43.893002 -21.738001 0
M  V30 21 C -16.476999 -44.716999 -20.985001 0
M  V30 22 C -16.334999 -44.803001 -19.589001 0
M  V30 23 C -17.966999 -46.752998 -21.256001 0
M  V30 24 S -19.193001 -47.266998 -22.365000 0
M  V30 25 C -19.150999 -45.908001 -23.417999 0
M  V30 26 C -18.208000 -45.053001 -22.860001 0
M  V30 27 C -17.552000 -45.487000 -21.687000 0
M  V30 28 C -13.867500 -42.708500 -21.500999 0
M  V30 29 H -11.709771 -40.648445 -20.128242 0
M  V30 30 H -10.847049 -41.325714 -21.550806 0
M  V30 31 H -11.367404 -39.606445 -21.550806 0
M  V30 32 H -14.611291 -39.843807 -21.757097 0
M  V30 33 H -12.499456 -39.690483 -23.902094 0
M  V30 34 H -14.199591 -39.137444 -24.073118 0
M  V30 35 H -10.988646 -35.539764 -22.099646 0
M  V30 36 H -13.495500 -35.025738 -21.554501 0
M  V30 37 H -14.162327 -43.877808 -17.125637 0
M  V30 38 H -15.268197 -45.320282 -17.166735 0
M  V30 39 H -17.372887 -41.946285 -16.690077 0
M  V30 40 H -13.864235 -42.658779 -23.211565 0
M  V30 41 H -14.064129 -43.874748 -24.518522 0
M  V30 42 H -15.065352 -42.383369 -24.518522 0
M  V30 43 H -13.566453 -42.835514 -19.101307 0
M  V30 44 H -17.036753 -45.421169 -19.009855 0
M  V30 45 H -17.589220 -47.310055 -20.385960 0
M  V30 46 H -19.741167 -45.750046 -24.332741 0
M  V30 47 H -17.981565 -44.076973 -23.313976 0
M  V30 48 H -12.897500 -41.738499 -20.531000 0
M  V30 49 H -12.887500 -41.728500 -20.521000 0
M  V30 50 H -14.838100 -37.155346 -22.344767 0
M  V30 END ATOM
M  V30 BEGIN BOND
M  V30 1 1 3 2
M  V30 2 2 2 1
M  V30 3 1 4 2
M  V30 4 1 5 4
M  V30 5 1 6 5
M  V30 6 2 6 7
M  V30 7 1 6 10
M  V30 8 1 7 8
M  V30 9 2 8 9
M  V30 10 1 9 10
M  V30 11 1 13 16
M  V30 12 1 11 14
M  V30 13 2 12 14
M  V30 14 1 14 15
M  V30 15 2 17 22
M  V30 16 1 17 11
M  V30 17 1 17 18
M  V30 18 2 18 19
M  V30 19 1 19 20
M  V30 20 2 20 21
M  V30 21 1 20 13
M  V30 22 1 21 27
M  V30 23 1 21 22
M  V30 24 1 23 24
M  V30 25 2 23 27
M  V30 26 1 24 25
M  V30 27 2 25 26
M  V30 28 1 26 27
M  V30 29 1 28 1
M  V30 30 1 28 19
M  V30 31 1 3 29
M  V30 32 1 3 30
M  V30 33 1 3 31
M  V30 34 1 4 32
M  V30 35 1 5 33
M  V30 36 1 5 34
M  V30 37 1 8 35
M  V30 38 1 9 36
M  V30 39 1 11 37
M  V30 40 1 11 38
M  V30 41 1 15 39
M  V30 42 1 16 40
M  V30 43 1 16 41
M  V30 44 1 16 42
M  V30 45 1 18 43
M  V30 46 1 22 44
M  V30 47 1 23 45
M  V30 48 1 25 46
M  V30 49 1 26 47
M  V30 50 1 28 48
M  V30 51 1 28 49
M  V30 52 1 10 50
M  V30 END BOND
M  V30 BEGIN COLLECTION
M  V30 MDLV30/STEABS ATOMS=(0)
M  V30 END COLLECTION
M  V30 END CTAB
M  END
>  <smiles>  (366) 
[H]OC(=O)C([H])([H])c1c([H])c(-c2c([H])sc([H])c2[H])c(OC([H])([H])[H])c(C([H])([H])/N=C(\N([H])C([H])([H])c2nc([H])c([H])[nH]2)C([H])([H])[H])c1[H]

>  <error>  (366) 


>  <∆∆G>  (366) 
nan

>  <∆G_bound>  (366) 
nan

>  <∆G_unbound>  (366) 
nan

>  <comRMSD>  (366) 
0.0

>  <N_constrained_atoms>  (366) 
27.0

>  <N_unconstrained_atoms>  (366) 
1.0

>  <runtime>  (366) 
1.650208

>  <regarded>  (366) 
['z0103a', '5f41-a']

>  <disregarded>  (366) 
[]

>  <LE>  (366) 
nan

>  <outcome>  (366) 
crashed

>  <percent_hybrid>  (366) 
38.0

$$$$
LIG
     RDKit          3D

  0  0  0  0  0  0  0  0  0  0999 V3000
M  V30 BEGIN CTAB
M  V30 COUNTS 50 52 0 0 0
M  V30 BEGIN ATOM
M  V30 1 N -13.266000 -42.196999 -21.974001 0
M  V30 2 C -12.944000 -41.021999 -21.833000 0
M  V30 3 C -11.629000 -40.624001 -21.225000 0
M  V30 4 N -13.726000 -40.034000 -22.247999 0
M  V30 5 C -13.348000 -39.222000 -23.382000 0
M  V30 6 C -12.966000 -37.907001 -22.924999 0
M  V30 7 N -11.741000 -37.458000 -22.879000 0
M  V30 8 C -11.837000 -36.210999 -22.299000 0
M  V30 9 C -13.101000 -35.942001 -22.018000 0
M  V30 10 N -13.818000 -37.035000 -22.421000 0
M  V30 11 C -15.233000 -44.279999 -17.107000 0
M  V30 12 O -15.545000 -43.873001 -22.860001 0
M  V30 13 O -16.742001 -42.395000 -17.055000 0
M  V30 14 O -17.118000 -43.957001 -15.583000 0
M  V30 15 C -16.424000 -43.507000 -16.538000 0
M  V30 16 C -14.653000 -43.041000 -23.561001 0
M  V30 17 C -15.287000 -44.152000 -18.643000 0
M  V30 18 C -14.382000 -43.372002 -19.351999 0
M  V30 19 C -14.436000 -43.241001 -20.733000 0
M  V30 20 C -15.445000 -43.933998 -21.444000 0
M  V30 21 C -16.349001 -44.723999 -20.736000 0
M  V30 22 C -16.278999 -44.817001 -19.351999 0
M  V30 23 C -19.305000 -46.304001 -23.122999 0
M  V30 24 C -19.018999 -47.173000 -22.056000 0
M  V30 25 C -17.995001 -46.723999 -21.139000 0
M  V30 26 C -17.448000 -45.492001 -21.478001 0
M  V30 27 S -18.249001 -44.967999 -22.870001 0
M  V30 28 C -13.959499 -42.618999 -22.767502 0
M  V30 29 H -11.709771 -40.648445 -20.128242 0
M  V30 30 H -10.847049 -41.325714 -21.550806 0
M  V30 31 H -11.367404 -39.606445 -21.550806 0
M  V30 32 H -14.611291 -39.843807 -21.757097 0
M  V30 33 H -12.499456 -39.690483 -23.902094 0
M  V30 34 H -14.199591 -39.137444 -24.073118 0
M  V30 35 H -10.988646 -35.539764 -22.099646 0
M  V30 36 H -13.495500 -35.025738 -21.554501 0
M  V30 37 H -14.292751 -43.853405 -16.727592 0
M  V30 38 H -15.277535 -45.336769 -16.804924 0
M  V30 39 H -16.209522 -42.027081 -17.804136 0
M  V30 40 H -14.084329 -43.621563 -24.302324 0
M  V30 41 H -15.176600 -42.248554 -24.115862 0
M  V30 42 H -13.594333 -42.839054 -18.799236 0
M  V30 43 H -13.708295 -42.610451 -21.264839 0
M  V30 44 H -17.018629 -45.425072 -18.810522 0
M  V30 45 H -20.035458 -46.445042 -23.933271 0
M  V30 46 H -19.540527 -48.132851 -21.926802 0
M  V30 47 H -17.679300 -47.301888 -20.257875 0
M  V30 48 H -12.989500 -41.648998 -21.797501 0
M  V30 49 H -12.979500 -41.639000 -21.787500 0
M  V30 50 H -14.838100 -37.155346 -22.344767 0
M  V30 END ATOM
M  V30 BEGIN BOND
M  V30 1 1 3 2
M  V30 2 2 2 1
M  V30 3 1 4 2
M  V30 4 1 5 4
M  V30 5 1 6 5
M  V30 6 2 6 7
M  V30 7 1 6 10
M  V30 8 1 7 8
M  V30 9 2 8 9
M  V30 10 1 9 10
M  V30 11 1 12 16
M  V30 12 2 14 15
M  V30 13 1 11 15
M  V30 14 1 15 13
M  V30 15 2 17 22
M  V30 16 1 17 11
M  V30 17 1 17 18
M  V30 18 2 18 19
M  V30 19 1 19 20
M  V30 20 2 20 21
M  V30 21 1 20 12
M  V30 22 1 21 26
M  V30 23 1 21 22
M  V30 24 2 23 24
M  V30 25 1 23 27
M  V30 26 1 24 25
M  V30 27 2 25 26
M  V30 28 1 26 27
M  V30 29 1 28 1
M  V30 30 1 28 16
M  V30 31 1 3 29
M  V30 32 1 3 30
M  V30 33 1 3 31
M  V30 34 1 4 32
M  V30 35 1 5 33
M  V30 36 1 5 34
M  V30 37 1 8 35
M  V30 38 1 9 36
M  V30 39 1 11 37
M  V30 40 1 11 38
M  V30 41 1 13 39
M  V30 42 1 16 40
M  V30 43 1 16 41
M  V30 44 1 18 42
M  V30 45 1 19 43
M  V30 46 1 22 44
M  V30 47 1 23 45
M  V30 48 1 24 46
M  V30 49 1 25 47
M  V30 50 1 28 48
M  V30 51 1 28 49
M  V30 52 1 10 50
M  V30 END BOND
M  V30 BEGIN COLLECTION
M  V30 MDLV30/STEABS ATOMS=(0)
M  V30 END COLLECTION
M  V30 END CTAB
M  END
>  <smiles>  (367) 
[H]OC(=O)C([H])([H])c1c([H])c([H])c(OC([H])([H])C([H])([H])/N=C(\N([H])C([H])([H])c2nc([H])c([H])[nH]2)C([H])([H])[H])c(-c2sc([H])c([H])c2[H])c1[H]

>  <error>  (367) 


>  <∆∆G>  (367) 
nan

>  <∆G_bound>  (367) 
nan

>  <∆G_unbound>  (367) 
nan

>  <comRMSD>  (367) 
0.0

>  <N_constrained_atoms>  (367) 
27.0

>  <N_unconstrained_atoms>  (367) 
1.0

>  <runtime>  (367) 
1.697666

>  <regarded>  (367) 
['z0103a', '6h80-a']

>  <disregarded>  (367) 
[]

>  <LE>  (367) 
nan

>  <outcome>  (367) 
crashed

>  <percent_hybrid>  (367) 
38.0

$$$$
LIG
     RDKit          3D

 52 54  0  0  0  0  0  0  0  0999 V2000
  -13.1686  -42.1896  -20.8972 N   0  0  0  0  0  0  0  0  0  0  0  0
  -13.2992  -40.7627  -21.1708 C   0  0  1  0  0  0  0  0  0  0  0  0
  -11.8705  -40.2448  -21.4099 C   0  0  0  0  0  0  0  0  0  0  0  0
  -14.3072  -40.3987  -22.1272 N   0  0  0  0  0  0  0  0  0  0  0  0
  -14.0998  -39.3088  -23.0591 C   0  0  0  0  0  0  0  0  0  0  0  0
  -13.6846  -40.1198  -19.9686 O   0  0  0  0  0  0  0  0  0  0  0  0
  -17.5027  -42.3556  -15.3187 O   0  0  0  0  0  0  0  0  0  0  0  0
  -18.3807  -43.0403  -17.2583 O   0  0  0  0  0  0  0  0  0  0  0  0
  -19.3538  -46.1374  -24.4282 C   0  0  0  0  0  0  0  0  0  0  0  0
  -19.9992  -46.3469  -25.4230 C   0  0  0  0  0  0  0  0  0  0  0  0
  -20.7541  -46.6492  -26.6449 C   0  0  0  0  0  0  0  0  0  0  0  0
  -15.9466  -43.0487  -16.9527 C   0  0  0  0  0  0  0  0  0  0  0  0
  -17.3874  -42.8055  -16.5878 C   0  0  0  0  0  0  0  0  0  0  0  0
  -21.8986  -45.8138  -26.7368 O   0  0  0  0  0  0  0  0  0  0  0  0
  -13.6093  -38.0219  -22.4924 C   0  0  0  0  0  0  0  0  0  0  0  0
  -12.5304  -37.3712  -22.8821 N   0  0  0  0  0  0  0  0  0  0  0  0
  -12.4187  -36.2960  -22.0400 C   0  0  0  0  0  0  0  0  0  0  0  0
  -13.4873  -36.2440  -21.1817 C   0  0  0  0  0  0  0  0  0  0  0  0
  -14.2372  -37.3497  -21.4760 N   0  0  0  0  0  0  0  0  0  0  0  0
  -14.2571  -42.8854  -20.3463 C   0  0  0  0  0  0  0  0  0  0  0  0
  -14.5500  -42.7501  -18.9891 C   0  0  0  0  0  0  0  0  0  0  0  0
  -15.6729  -43.3470  -18.4082 C   0  0  0  0  0  0  0  0  0  0  0  0
  -16.4703  -44.1830  -19.2023 C   0  0  0  0  0  0  0  0  0  0  0  0
  -16.2147  -44.3341  -20.5748 C   0  0  0  0  0  0  0  0  0  0  0  0
  -15.1030  -43.6768  -21.1335 C   0  0  0  0  0  0  0  0  0  0  0  0
  -18.4546  -46.8800  -22.2214 C   0  0  0  0  0  0  0  0  0  0  0  0
  -18.6092  -45.9396  -23.2183 C   0  0  0  0  0  0  0  0  0  0  0  0
  -17.7878  -44.4918  -22.8438 S   0  0  0  0  0  0  0  0  0  0  0  0
  -17.1222  -45.1457  -21.3997 C   0  0  0  0  0  0  0  0  0  0  0  0
  -17.6004  -46.4232  -21.1728 C   0  0  0  0  0  0  0  0  0  0  0  0
  -11.1275  -40.8626  -20.8898 H   0  0  0  0  0  0  0  0  0  0  0  0
  -11.6221  -40.2364  -22.4660 H   0  0  0  0  0  0  0  0  0  0  0  0
  -11.7212  -39.2316  -21.0215 H   0  0  0  0  0  0  0  0  0  0  0  0
  -15.1511  -40.2671  -21.5808 H   0  0  0  0  0  0  0  0  0  0  0  0
  -13.4271  -39.6367  -23.8511 H   0  0  0  0  0  0  0  0  0  0  0  0
  -15.0523  -39.1131  -23.5674 H   0  0  0  0  0  0  0  0  0  0  0  0
  -13.0529  -40.4937  -19.3332 H   0  0  0  0  0  0  0  0  0  0  0  0
  -18.4114  -42.6493  -15.0606 H   0  0  0  0  0  0  0  0  0  0  0  0
  -21.0612  -47.6969  -26.7002 H   0  0  0  0  0  0  0  0  0  0  0  0
  -20.1370  -46.4454  -27.5185 H   0  0  0  0  0  0  0  0  0  0  0  0
  -15.3975  -42.1447  -16.6592 H   0  0  0  0  0  0  0  0  0  0  0  0
  -15.5666  -43.8829  -16.3544 H   0  0  0  0  0  0  0  0  0  0  0  0
  -22.6588  -46.3281  -26.3909 H   0  0  0  0  0  0  0  0  0  0  0  0
  -11.5757  -35.6204  -22.0968 H   0  0  0  0  0  0  0  0  0  0  0  0
  -13.7543  -35.5628  -20.3869 H   0  0  0  0  0  0  0  0  0  0  0  0
  -13.8899  -42.1524  -18.3665 H   0  0  0  0  0  0  0  0  0  0  0  0
  -17.3439  -44.6710  -18.7758 H   0  0  0  0  0  0  0  0  0  0  0  0
  -14.8890  -43.7815  -22.1955 H   0  0  0  0  0  0  0  0  0  0  0  0
  -18.9037  -47.8662  -22.2518 H   0  0  0  0  0  0  0  0  0  0  0  0
  -17.3280  -47.0228  -20.3132 H   0  0  0  0  0  0  0  0  0  0  0  0
  -12.8735  -42.6643  -21.7507 H   0  0  0  0  0  0  0  0  0  0  0  0
  -15.0580  -37.6722  -20.9810 H   0  0  0  0  0  0  0  0  0  0  0  0
  3  2  1  0
  2  1  1  0
  4  2  1  0
  5  4  1  0
  2  6  1  1
 14 11  1  0
 11 10  1  0
 10  9  3  0
 12 13  1  0
  8 13  2  0
 13  7  1  0
 15  5  1  0
 15 16  2  0
 15 19  1  0
 16 17  1  0
 17 18  2  0
 18 19  1  0
 20 25  1  0
 20 21  2  0
 21 22  1  0
 22 23  2  0
 22 12  1  0
 23 24  1  0
 24 29  1  0
 24 25  2  0
 26 27  2  0
 26 30  1  0
 27  9  1  0
 27 28  1  0
 28 29  1  0
 29 30  2  0
  1 20  1  0
  3 31  1  0
  3 32  1  0
  3 33  1  0
  4 34  1  0
  5 35  1  0
  5 36  1  0
  6 37  1  0
  7 38  1  0
 11 39  1  0
 11 40  1  0
 12 41  1  0
 12 42  1  0
 14 43  1  0
 17 44  1  0
 18 45  1  0
 21 46  1  0
 23 47  1  0
 25 48  1  0
 26 49  1  0
 30 50  1  0
  1 51  1  0
 19 52  1  0
M  END
>  <smiles>  (368) 
[H]OC(=O)C([H])([H])c1c([H])c(N[C@](O[H])(N([H])C([H])([H])c2nc([H])c([H])[nH]2)C([H])([H])[H])c([H])c(-c2sc(C#CC([H])([H])O[H])c([H])c2[H])c1[H]

>  <error>  (368) 


>  <∆∆G>  (368) 
-186.405655

>  <∆G_bound>  (368) 
-71.99166

>  <∆G_unbound>  (368) 
114.413996

>  <comRMSD>  (368) 
0.864918

>  <N_constrained_atoms>  (368) 
30.0

>  <N_unconstrained_atoms>  (368) 
0.0

>  <runtime>  (368) 
2.384839

>  <regarded>  (368) 
['z0103a', '5hmy-a']

>  <disregarded>  (368) 
[]

>  <LE>  (368) 
6.213522

>  <outcome>  (368) 
acceptable

>  <percent_hybrid>  (368) 
34.0

$$$$
LIG
     RDKit          3D

 40 42  0  0  0  0  0  0  0  0999 V2000
  -14.1716  -42.5983  -21.6751 N   0  0  0  0  0  0  0  0  0  0  0  0
  -13.5227  -41.8039  -21.0225 C   0  0  0  0  0  0  0  0  0  0  0  0
  -12.4193  -42.3530  -20.1499 C   0  0  0  0  0  0  0  0  0  0  0  0
  -13.6557  -40.2363  -20.8849 N   0  0  0  0  0  0  0  0  0  0  0  0
  -14.6300  -39.3356  -21.4135 C   0  0  0  0  0  0  0  0  0  0  0  0
  -13.9529  -38.0543  -21.8585 C   0  0  0  0  0  0  0  0  0  0  0  0
  -12.6705  -37.8865  -22.1423 N   0  0  0  0  0  0  0  0  0  0  0  0
  -12.4683  -36.5347  -22.1905 C   0  0  0  0  0  0  0  0  0  0  0  0
  -13.6616  -35.8678  -22.0666 C   0  0  0  0  0  0  0  0  0  0  0  0
  -14.6033  -36.8449  -21.8846 N   0  0  0  0  0  0  0  0  0  0  0  0
  -16.6014  -37.5250  -26.5153 C   0  0  0  0  0  0  0  0  0  0  0  0
  -17.3114  -38.7009  -27.1229 C   0  0  0  0  0  0  0  0  0  0  0  0
  -18.4886  -38.6591  -27.4741 O   0  0  0  0  0  0  0  0  0  0  0  0
  -16.4946  -39.8002  -27.3205 O   0  0  0  0  0  0  0  0  0  0  0  0
  -16.4582  -44.3010  -21.4028 O   0  0  0  0  0  0  0  0  0  0  0  0
  -16.3060  -43.3674  -22.3426 C   0  0  0  0  0  0  0  0  0  0  0  0
  -15.2697  -42.4691  -22.5084 C   0  0  0  0  0  0  0  0  0  0  0  0
  -15.3813  -41.7136  -23.7264 C   0  0  0  0  0  0  0  0  0  0  0  0
  -16.5893  -41.9976  -24.3746 C   0  0  0  0  0  0  0  0  0  0  0  0
  -17.4802  -43.2155  -23.5553 S   0  0  0  0  0  0  0  0  0  0  0  0
  -16.1190  -40.4055  -26.1171 C   0  0  0  0  0  0  0  0  0  0  0  0
  -16.9785  -41.3493  -25.5632 C   0  0  0  0  0  0  0  0  0  0  0  0
  -14.5274  -40.7727  -24.3529 C   0  0  0  0  0  0  0  0  0  0  0  0
  -14.8879  -40.1343  -25.5457 C   0  0  0  0  0  0  0  0  0  0  0  0
  -12.4418  -43.4448  -20.1531 H   0  0  0  0  0  0  0  0  0  0  0  0
  -11.4587  -41.9891  -20.5201 H   0  0  0  0  0  0  0  0  0  0  0  0
  -12.5592  -42.0029  -19.1233 H   0  0  0  0  0  0  0  0  0  0  0  0
  -12.9980  -39.9019  -20.1884 H   0  0  0  0  0  0  0  0  0  0  0  0
  -15.2413  -39.7276  -22.2142 H   0  0  0  0  0  0  0  0  0  0  0  0
  -15.3283  -39.0893  -20.6044 H   0  0  0  0  0  0  0  0  0  0  0  0
  -11.4756  -36.1210  -22.3120 H   0  0  0  0  0  0  0  0  0  0  0  0
  -13.9125  -34.8168  -22.0623 H   0  0  0  0  0  0  0  0  0  0  0  0
  -16.4182  -37.6845  -25.4512 H   0  0  0  0  0  0  0  0  0  0  0  0
  -15.6728  -37.3382  -27.0587 H   0  0  0  0  0  0  0  0  0  0  0  0
  -17.2298  -36.6357  -26.6233 H   0  0  0  0  0  0  0  0  0  0  0  0
  -17.9221  -41.5910  -26.0437 H   0  0  0  0  0  0  0  0  0  0  0  0
  -13.5861  -40.5292  -23.8722 H   0  0  0  0  0  0  0  0  0  0  0  0
  -14.1996  -39.4377  -26.0148 H   0  0  0  0  0  0  0  0  0  0  0  0
  -15.5852  -36.6982  -21.6917 H   0  0  0  0  0  0  0  0  0  0  0  0
  -17.2740  -44.7680  -21.6451 H   0  0  0  0  0  0  0  0  0  0  0  0
  3  2  1  0
  2  1  2  0
  4  2  1  0
  5  4  1  0
  6  5  1  0
  6  7  2  0
  6 10  1  0
  7  8  1  0
  8  9  2  0
  9 10  1  0
 14 12  1  0
 12 13  2  0
 12 11  1  0
 16 17  2  0
 16 15  1  0
 16 20  1  0
 17 18  1  0
 18 23  1  0
 18 19  2  0
 19 20  1  0
 19 22  1  0
 21 24  1  0
 21 22  2  0
 21 14  1  0
 23 24  2  0
  1 17  1  0
  3 25  1  0
  3 26  1  0
  3 27  1  0
  4 28  1  0
  5 29  1  0
  5 30  1  0
  8 31  1  0
  9 32  1  0
 11 33  1  0
 11 34  1  0
 11 35  1  0
 22 36  1  0
 23 37  1  0
 24 38  1  0
 10 39  1  0
 15 40  1  0
M  END
>  <smiles>  (369) 
[H]c1nc(C([H])([H])N([H])/C(=N\c2c(O)sc3c([H])c(OC(=O)C([H])([H])[H])c([H])c([H])c23)C([H])([H])[H])[nH]c1[H]

>  <error>  (369) 


>  <∆∆G>  (369) 
-42.776958

>  <∆G_bound>  (369) 
363.188778

>  <∆G_unbound>  (369) 
405.965736

>  <comRMSD>  (369) 
1.238747

>  <N_constrained_atoms>  (369) 
24.0

>  <N_unconstrained_atoms>  (369) 
0.0

>  <runtime>  (369) 
2.417573

>  <regarded>  (369) 
['z0103a', '6izx-a']

>  <disregarded>  (369) 
[]

>  <LE>  (369) 
1.782373

>  <outcome>  (369) 
too moved

>  <percent_hybrid>  (369) 
42.0

$$$$
LIG
     RDKit          3D

  0  0  0  0  0  0  0  0  0  0999 V3000
M  V30 BEGIN CTAB
M  V30 COUNTS 75 79 0 0 0
M  V30 BEGIN ATOM
M  V30 1 N -13.266000 -42.196999 -21.974001 0
M  V30 2 C -12.944000 -41.021999 -21.833000 0
M  V30 3 C -11.629000 -40.624001 -21.225000 0
M  V30 4 N -13.726000 -40.034000 -22.247999 0
M  V30 5 C -13.348000 -39.222000 -23.382000 0
M  V30 6 C -12.966000 -37.907001 -22.924999 0
M  V30 7 N -11.741000 -37.458000 -22.879000 0
M  V30 8 C -11.837000 -36.210999 -22.299000 0
M  V30 9 C -13.101000 -35.942001 -22.018000 0
M  V30 10 N -13.818000 -37.035000 -22.421000 0
M  V30 11 O -22.292000 -46.169998 -26.733999 0
M  V30 12 O -16.690001 -43.313000 -16.674999 0
M  V30 13 O -16.066999 -44.730999 -14.459000 0
M  V30 14 C -19.778999 -46.601002 -24.382000 0
M  V30 15 C -20.374001 -46.664001 -25.413000 0
M  V30 16 C -21.059999 -46.842999 -26.695000 0
M  V30 17 C -15.694000 -43.786999 -17.224001 0
M  V30 18 O -13.724000 -45.530998 -14.552000 0
M  V30 19 S -14.712000 -44.549999 -14.881000 0
M  V30 20 N -14.678000 -44.380001 -16.497999 0
M  V30 21 C -13.494000 -42.282001 -18.618000 0
M  V30 22 O -15.445000 -43.889000 -22.853001 0
M  V30 23 C -14.516000 -43.067001 -23.573999 0
M  V30 24 C -15.451000 -43.814999 -21.486000 0
M  V30 25 C -14.506000 -43.106998 -20.750000 0
M  V30 26 C -14.535000 -43.085999 -19.358000 0
M  V30 27 C -15.547000 -43.814999 -18.707001 0
M  V30 28 C -16.469999 -44.549000 -19.452999 0
M  V30 29 C -16.441999 -44.568001 -20.841000 0
M  V30 30 C -19.000000 -46.375000 -23.219000 0
M  V30 31 C -18.827999 -47.167000 -22.125999 0
M  V30 32 C -17.954000 -46.608002 -21.172001 0
M  V30 33 C -17.424000 -45.404999 -21.561001 0
M  V30 34 S -18.046000 -44.942001 -23.110001 0
M  V30 35 C -15.037000 -42.195999 -13.611000 0
M  V30 36 C -14.680000 -40.923000 -13.192000 0
M  V30 37 C -13.492000 -40.373001 -13.576000 0
M  V30 38 C -12.555000 -41.122002 -14.337000 0
M  V30 39 C -12.901000 -42.432999 -14.756000 0
M  V30 40 C -14.158000 -42.956001 -14.334000 0
M  V30 41 C -11.302000 -40.623001 -14.771000 0
M  V30 42 C -10.470000 -41.411999 -15.512000 0
M  V30 43 C -10.905000 -42.681000 -15.882000 0
M  V30 44 N -12.062000 -43.212002 -15.506000 0
M  V30 45 C -13.891000 -42.632000 -22.774000 0
M  V30 46 H -11.709771 -40.648445 -20.128242 0
M  V30 47 H -10.847049 -41.325714 -21.550806 0
M  V30 48 H -11.367404 -39.606445 -21.550806 0
M  V30 49 H -14.611291 -39.843807 -21.757097 0
M  V30 50 H -12.499456 -39.690483 -23.902094 0
M  V30 51 H -14.199591 -39.137444 -24.073118 0
M  V30 52 H -10.988646 -35.539764 -22.099646 0
M  V30 53 H -13.495500 -35.025738 -21.554501 0
M  V30 54 H -22.604239 -45.999432 -25.810141 0
M  V30 55 H -21.237249 -47.916702 -26.855434 0
M  V30 56 H -20.419096 -46.421791 -27.483559 0
M  V30 57 H -13.855821 -44.732903 -17.008276 0
M  V30 58 H -13.643543 -42.397499 -17.534349 0
M  V30 59 H -12.490864 -42.642075 -18.890146 0
M  V30 60 H -13.588849 -41.220428 -18.890146 0
M  V30 61 H -13.908917 -43.670425 -24.264891 0
M  V30 62 H -15.007206 -42.307007 -24.199402 0
M  V30 63 H -13.718216 -42.551319 -21.279734 0
M  V30 64 H -17.241945 -45.129215 -18.926264 0
M  V30 65 H -19.320179 -48.142643 -21.999998 0
M  V30 66 H -17.720352 -47.089180 -20.210815 0
M  V30 67 H -16.030624 -42.596390 -13.361202 0
M  V30 68 H -15.360963 -40.351559 -12.544124 0
M  V30 69 H -13.256704 -39.336460 -13.292766 0
M  V30 70 H -10.999044 -39.598141 -14.510468 0
M  V30 71 H -9.474676 -41.051456 -15.810899 0
M  V30 72 H -10.248018 -43.282570 -16.527361 0
M  V30 73 H -12.671000 -41.411999 -21.554001 0
M  V30 74 H -12.661000 -41.402000 -21.544001 0
M  V30 75 H -14.838100 -37.155346 -22.344767 0
M  V30 END ATOM
M  V30 BEGIN BOND
M  V30 1 1 3 2
M  V30 2 2 2 1
M  V30 3 1 4 2
M  V30 4 1 5 4
M  V30 5 1 6 5
M  V30 6 2 6 7
M  V30 7 1 6 10
M  V30 8 1 7 8
M  V30 9 2 8 9
M  V30 10 1 9 10
M  V30 11 1 11 16
M  V30 12 1 16 15
M  V30 13 3 15 14
M  V30 14 1 22 23
M  V30 15 2 12 17
M  V30 16 1 17 20
M  V30 17 2 13 19
M  V30 18 1 20 19
M  V30 19 2 19 18
M  V30 20 1 24 29
M  V30 21 1 24 22
M  V30 22 2 24 25
M  V30 23 1 25 26
M  V30 24 2 26 27
M  V30 25 1 26 21
M  V30 26 1 27 28
M  V30 27 1 27 17
M  V30 28 2 28 29
M  V30 29 1 29 33
M  V30 30 1 30 14
M  V30 31 2 30 31
M  V30 32 1 30 34
M  V30 33 1 31 32
M  V30 34 2 32 33
M  V30 35 1 33 34
M  V30 36 2 35 40
M  V30 37 1 35 36
M  V30 38 2 36 37
M  V30 39 1 37 38
M  V30 40 2 38 39
M  V30 41 1 38 41
M  V30 42 1 39 40
M  V30 43 1 39 44
M  V30 44 1 40 19
M  V30 45 2 41 42
M  V30 46 1 42 43
M  V30 47 2 43 44
M  V30 48 1 45 1
M  V30 49 1 45 23
M  V30 50 1 3 46
M  V30 51 1 3 47
M  V30 52 1 3 48
M  V30 53 1 4 49
M  V30 54 1 5 50
M  V30 55 1 5 51
M  V30 56 1 8 52
M  V30 57 1 9 53
M  V30 58 1 11 54
M  V30 59 1 16 55
M  V30 60 1 16 56
M  V30 61 1 20 57
M  V30 62 1 21 58
M  V30 63 1 21 59
M  V30 64 1 21 60
M  V30 65 1 23 61
M  V30 66 1 23 62
M  V30 67 1 25 63
M  V30 68 1 28 64
M  V30 69 1 31 65
M  V30 70 1 32 66
M  V30 71 1 35 67
M  V30 72 1 36 68
M  V30 73 1 37 69
M  V30 74 1 41 70
M  V30 75 1 42 71
M  V30 76 1 43 72
M  V30 77 1 45 73
M  V30 78 1 45 74
M  V30 79 1 10 75
M  V30 END BOND
M  V30 BEGIN COLLECTION
M  V30 MDLV30/STEABS ATOMS=(0)
M  V30 END COLLECTION
M  V30 END CTAB
M  END
>  <smiles>  (370) 
[H]OC([H])([H])C#Cc1sc(-c2c([H])c(C(=O)N([H])S(=O)(=O)c3c([H])c([H])c([H])c4c([H])c([H])c([H])nc34)c(C([H])([H])[H])c([H])c2OC([H])([H])C([H])([H])/N=C(\N([H])C([H])([H])c2nc([H])c([H])[nH]2)C([H])([H])[H])c([H])c1[H]

>  <error>  (370) 


>  <∆∆G>  (370) 
nan

>  <∆G_bound>  (370) 
nan

>  <∆G_unbound>  (370) 
nan

>  <comRMSD>  (370) 
0.0

>  <N_constrained_atoms>  (370) 
44.0

>  <N_unconstrained_atoms>  (370) 
1.0

>  <runtime>  (370) 
2.682594

>  <regarded>  (370) 
['z0103a', '5i3q-a']

>  <disregarded>  (370) 
[]

>  <LE>  (370) 
nan

>  <outcome>  (370) 
crashed

>  <percent_hybrid>  (370) 
23.0

$$$$
LIG
     RDKit          3D

 43 45  0  0  0  0  0  0  0  0999 V2000
  -14.1731  -41.6390  -21.0892 N   0  0  0  0  0  0  0  0  0  0  0  0
  -14.8479  -40.6865  -21.4109 C   0  0  0  0  0  0  0  0  0  0  0  0
  -16.3366  -40.5807  -20.9925 C   0  0  0  0  0  0  0  0  0  0  0  0
  -14.4877  -39.4314  -22.2649 N   0  0  0  0  0  0  0  0  0  0  0  0
  -13.2517  -39.0156  -22.8188 C   0  0  0  0  0  0  0  0  0  0  0  0
  -15.7206  -42.5289  -14.9768 O   0  0  0  0  0  0  0  0  0  0  0  0
  -17.2211  -43.0232  -16.5591 O   0  0  0  0  0  0  0  0  0  0  0  0
  -15.0070  -43.9047  -16.8366 C   0  0  0  0  0  0  0  0  0  0  0  0
  -15.9773  -43.0659  -16.0443 C   0  0  0  0  0  0  0  0  0  0  0  0
  -12.9334  -37.6180  -22.4398 C   0  0  0  0  0  0  0  0  0  0  0  0
  -11.8351  -37.2689  -21.7013 N   0  0  0  0  0  0  0  0  0  0  0  0
  -11.9463  -35.9366  -21.4172 C   0  0  0  0  0  0  0  0  0  0  0  0
  -13.0932  -35.5241  -22.0475 C   0  0  0  0  0  0  0  0  0  0  0  0
  -13.6765  -36.5633  -22.7163 N   0  0  0  0  0  0  0  0  0  0  0  0
  -14.7066  -42.7284  -20.4100 C   0  0  0  0  0  0  0  0  0  0  0  0
  -14.5273  -42.8526  -19.0404 C   0  0  0  0  0  0  0  0  0  0  0  0
  -15.1855  -43.8598  -18.3326 C   0  0  0  0  0  0  0  0  0  0  0  0
  -16.0371  -44.7421  -19.0290 C   0  0  0  0  0  0  0  0  0  0  0  0
  -16.2070  -44.6377  -20.4205 C   0  0  0  0  0  0  0  0  0  0  0  0
  -15.4764  -43.6596  -21.0987 C   0  0  0  0  0  0  0  0  0  0  0  0
  -18.3922  -47.3055  -21.9420 C   0  0  0  0  0  0  0  0  0  0  0  0
  -18.6136  -46.3854  -22.9377 C   0  0  0  0  0  0  0  0  0  0  0  0
  -17.9625  -44.8669  -22.5501 S   0  0  0  0  0  0  0  0  0  0  0  0
  -17.1464  -45.4929  -21.1617 C   0  0  0  0  0  0  0  0  0  0  0  0
  -17.5393  -46.7958  -20.9216 C   0  0  0  0  0  0  0  0  0  0  0  0
  -16.9401  -41.2255  -21.6379 H   0  0  0  0  0  0  0  0  0  0  0  0
  -16.4758  -40.8644  -19.9460 H   0  0  0  0  0  0  0  0  0  0  0  0
  -16.7065  -39.5569  -21.0953 H   0  0  0  0  0  0  0  0  0  0  0  0
  -15.2736  -38.7887  -22.2668 H   0  0  0  0  0  0  0  0  0  0  0  0
  -12.4495  -39.6917  -22.5049 H   0  0  0  0  0  0  0  0  0  0  0  0
  -13.3313  -39.0790  -23.9059 H   0  0  0  0  0  0  0  0  0  0  0  0
  -17.7776  -42.6890  -15.8185 H   0  0  0  0  0  0  0  0  0  0  0  0
  -13.9949  -43.5575  -16.5909 H   0  0  0  0  0  0  0  0  0  0  0  0
  -15.0605  -44.9395  -16.4896 H   0  0  0  0  0  0  0  0  0  0  0  0
  -11.2255  -35.4223  -20.8007 H   0  0  0  0  0  0  0  0  0  0  0  0
  -13.5302  -34.5344  -22.0576 H   0  0  0  0  0  0  0  0  0  0  0  0
  -13.9007  -42.1238  -18.5312 H   0  0  0  0  0  0  0  0  0  0  0  0
  -16.6000  -45.4892  -18.4794 H   0  0  0  0  0  0  0  0  0  0  0  0
  -15.5368  -43.5556  -22.1798 H   0  0  0  0  0  0  0  0  0  0  0  0
  -18.7677  -48.3181  -21.9933 H   0  0  0  0  0  0  0  0  0  0  0  0
  -19.1432  -46.5328  -23.8695 H   0  0  0  0  0  0  0  0  0  0  0  0
  -17.1835  -47.3840  -20.0884 H   0  0  0  0  0  0  0  0  0  0  0  0
  -11.1193  -37.8962  -21.3580 H   0  0  0  0  0  0  0  0  0  0  0  0
  3  2  1  0
  2  1  2  0
  4  2  1  0
  5  4  1  0
  8  9  1  0
  9  6  2  0
  9  7  1  0
 10  5  1  0
 10 11  1  0
 10 14  2  0
 11 12  1  0
 12 13  2  0
 13 14  1  0
 15 20  1  0
 15 16  2  0
 16 17  1  0
 17 18  2  0
 17  8  1  0
 18 19  1  0
 19 24  1  0
 19 20  2  0
 21 22  2  0
 21 25  1  0
 22 23  1  0
 23 24  1  0
 24 25  2  0
  1 15  1  0
  3 26  1  0
  3 27  1  0
  3 28  1  0
  4 29  1  0
  5 30  1  0
  5 31  1  0
  7 32  1  0
  8 33  1  0
  8 34  1  0
 12 35  1  0
 13 36  1  0
 16 37  1  0
 18 38  1  0
 20 39  1  0
 21 40  1  0
 22 41  1  0
 25 42  1  0
 11 43  1  0
M  END
>  <smiles>  (371) 
[H]OC(=O)C([H])([H])c1c([H])c(/N=C(\N([H])C([H])([H])c2nc([H])c([H])[nH]2)C([H])([H])[H])c([H])c(-c2sc([H])c([H])c2[H])c1[H]

>  <error>  (371) 


>  <∆∆G>  (371) 
-57.704579

>  <∆G_bound>  (371) 
-8.933839

>  <∆G_unbound>  (371) 
48.77074

>  <comRMSD>  (371) 
1.243524

>  <N_constrained_atoms>  (371) 
25.0

>  <N_unconstrained_atoms>  (371) 
0.0

>  <runtime>  (371) 
3.970137

>  <regarded>  (371) 
['z0103a', '5hmx-b']

>  <disregarded>  (371) 
[]

>  <LE>  (371) 
2.308183

>  <outcome>  (371) 
too moved

>  <percent_hybrid>  (371) 
40.0

$$$$
LIG
     RDKit          3D

 69 72  0  0  0  0  0  0  0  0999 V2000
  -14.5413  -41.6235  -22.9516 N   0  0  0  0  0  0  0  0  0  0  0  0
  -15.2224  -40.5699  -22.9455 C   0  0  0  0  0  0  0  0  0  0  0  0
  -16.7522  -40.6925  -23.0787 C   0  0  0  0  0  0  0  0  0  0  0  0
  -14.8295  -39.1951  -22.7821 N   0  0  0  0  0  0  0  0  0  0  0  0
  -13.5599  -38.6070  -22.4825 C   0  0  0  0  0  0  0  0  0  0  0  0
  -13.1695  -42.2654  -18.3822 O   0  0  0  0  0  0  0  0  0  0  0  0
  -16.6282  -41.2357  -14.7748 O   0  0  0  0  0  0  0  0  0  0  0  0
  -12.1799  -38.5317  -15.9131 O   0  0  0  0  0  0  0  0  0  0  0  0
  -19.5005  -45.7708  -24.5335 C   0  0  0  0  0  0  0  0  0  0  0  0
  -20.1742  -46.0218  -25.4990 C   0  0  0  0  0  0  0  0  0  0  0  0
  -20.9266  -46.4181  -26.6935 C   0  0  0  0  0  0  0  0  0  0  0  0
  -14.4965  -44.8112  -16.7652 O   0  0  0  0  0  0  0  0  0  0  0  0
  -15.0305  -43.8315  -17.1992 C   0  0  0  0  0  0  0  0  0  0  0  0
  -15.6090  -42.6832  -16.5167 N   0  0  0  0  0  0  0  0  0  0  0  0
  -15.6360  -42.2780  -14.9273 S   0  0  0  0  0  0  0  0  0  0  0  0
  -15.6078  -43.4551  -14.0976 O   0  0  0  0  0  0  0  0  0  0  0  0
  -13.0712  -37.9905  -16.8815 C   0  0  0  0  0  0  0  0  0  0  0  0
  -12.1411  -41.4637  -18.9566 C   0  0  0  0  0  0  0  0  0  0  0  0
  -15.2528  -42.8207  -22.7421 O   0  0  0  0  0  0  0  0  0  0  0  0
  -22.0651  -45.5871  -26.8605 O   0  0  0  0  0  0  0  0  0  0  0  0
  -13.5688  -37.2243  -21.9202 C   0  0  0  0  0  0  0  0  0  0  0  0
  -12.7821  -36.7725  -20.9635 N   0  0  0  0  0  0  0  0  0  0  0  0
  -13.0799  -35.4442  -20.8255 C   0  0  0  0  0  0  0  0  0  0  0  0
  -14.0760  -35.0798  -21.6967 C   0  0  0  0  0  0  0  0  0  0  0  0
  -14.3886  -36.2212  -22.3805 N   0  0  0  0  0  0  0  0  0  0  0  0
  -15.1347  -43.1967  -21.4048 C   0  0  0  0  0  0  0  0  0  0  0  0
  -14.1088  -42.6431  -20.6053 C   0  0  0  0  0  0  0  0  0  0  0  0
  -14.0757  -42.8348  -19.2330 C   0  0  0  0  0  0  0  0  0  0  0  0
  -15.0593  -43.6437  -18.6633 C   0  0  0  0  0  0  0  0  0  0  0  0
  -16.0189  -44.2996  -19.4495 C   0  0  0  0  0  0  0  0  0  0  0  0
  -16.0764  -44.0853  -20.8435 C   0  0  0  0  0  0  0  0  0  0  0  0
  -11.5937  -40.2676  -14.4730 C   0  0  0  0  0  0  0  0  0  0  0  0
  -11.8446  -41.4617  -13.7938 C   0  0  0  0  0  0  0  0  0  0  0  0
  -13.0775  -42.0890  -13.9340 C   0  0  0  0  0  0  0  0  0  0  0  0
  -14.0502  -41.5030  -14.7472 C   0  0  0  0  0  0  0  0  0  0  0  0
  -13.8104  -40.2981  -15.4177 C   0  0  0  0  0  0  0  0  0  0  0  0
  -12.5668  -39.6870  -15.2939 C   0  0  0  0  0  0  0  0  0  0  0  0
  -17.4689  -46.1586  -21.4657 C   0  0  0  0  0  0  0  0  0  0  0  0
  -18.3986  -46.5891  -22.4585 C   0  0  0  0  0  0  0  0  0  0  0  0
  -18.6936  -45.5931  -23.3634 C   0  0  0  0  0  0  0  0  0  0  0  0
  -17.9667  -44.1229  -22.9175 S   0  0  0  0  0  0  0  0  0  0  0  0
  -17.0777  -44.8390  -21.6312 C   0  0  0  0  0  0  0  0  0  0  0  0
  -17.2148  -39.7351  -23.3350 H   0  0  0  0  0  0  0  0  0  0  0  0
  -16.9981  -41.3925  -23.8816 H   0  0  0  0  0  0  0  0  0  0  0  0
  -17.1743  -41.0358  -22.1304 H   0  0  0  0  0  0  0  0  0  0  0  0
  -15.6613  -38.6208  -22.7488 H   0  0  0  0  0  0  0  0  0  0  0  0
  -13.0414  -39.2537  -21.7639 H   0  0  0  0  0  0  0  0  0  0  0  0
  -12.9439  -38.6117  -23.3858 H   0  0  0  0  0  0  0  0  0  0  0  0
  -21.2386  -47.4655  -26.6661 H   0  0  0  0  0  0  0  0  0  0  0  0
  -20.3004  -46.2931  -27.5761 H   0  0  0  0  0  0  0  0  0  0  0  0
  -15.9024  -41.9989  -17.2069 H   0  0  0  0  0  0  0  0  0  0  0  0
  -13.9948  -37.6395  -16.4098 H   0  0  0  0  0  0  0  0  0  0  0  0
  -12.5818  -37.1256  -17.3397 H   0  0  0  0  0  0  0  0  0  0  0  0
  -13.2832  -38.7124  -17.6769 H   0  0  0  0  0  0  0  0  0  0  0  0
  -11.5699  -42.0189  -19.7054 H   0  0  0  0  0  0  0  0  0  0  0  0
  -12.5621  -40.5500  -19.3884 H   0  0  0  0  0  0  0  0  0  0  0  0
  -11.4564  -41.1719  -18.1550 H   0  0  0  0  0  0  0  0  0  0  0  0
  -22.8288  -46.0952  -26.5090 H   0  0  0  0  0  0  0  0  0  0  0  0
  -12.5632  -34.8235  -20.1045 H   0  0  0  0  0  0  0  0  0  0  0  0
  -14.5753  -34.1389  -21.8807 H   0  0  0  0  0  0  0  0  0  0  0  0
  -13.3448  -42.0400  -21.0845 H   0  0  0  0  0  0  0  0  0  0  0  0
  -16.7353  -44.9596  -18.9650 H   0  0  0  0  0  0  0  0  0  0  0  0
  -10.6242  -39.7856  -14.3670 H   0  0  0  0  0  0  0  0  0  0  0  0
  -11.0757  -41.9025  -13.1641 H   0  0  0  0  0  0  0  0  0  0  0  0
  -13.2698  -43.0237  -13.4117 H   0  0  0  0  0  0  0  0  0  0  0  0
  -14.6012  -39.8629  -16.0183 H   0  0  0  0  0  0  0  0  0  0  0  0
  -17.0689  -46.8174  -20.7037 H   0  0  0  0  0  0  0  0  0  0  0  0
  -18.7824  -47.6013  -22.5300 H   0  0  0  0  0  0  0  0  0  0  0  0
  -15.0816  -36.3050  -23.1130 H   0  0  0  0  0  0  0  0  0  0  0  0
  3  2  1  0
  2  1  2  0
  4  2  1  0
  5  4  1  0
 11 20  1  0
 11 10  1  0
 10  9  3  0
 14 13  1  0
 14 15  1  0
 13 12  2  0
  7 15  2  0
 16 15  2  0
  6 18  1  0
 17  8  1  0
 19  1  1  0
 21  5  1  0
 21 22  2  0
 21 25  1  0
 22 23  1  0
 23 24  2  0
 24 25  1  0
 26 31  1  0
 26 19  1  0
 26 27  2  0
 27 28  1  0
 28 29  2  0
 28  6  1  0
 29 30  1  0
 29 13  1  0
 30 31  2  0
 31 42  1  0
 32 37  2  0
 32 33  1  0
 33 34  2  0
 34 35  1  0
 35 15  1  0
 35 36  2  0
 36 37  1  0
 37  8  1  0
 38 39  1  0
 38 42  2  0
 39 40  2  0
 40  9  1  0
 40 41  1  0
 41 42  1  0
  3 43  1  0
  3 44  1  0
  3 45  1  0
  4 46  1  0
  5 47  1  0
  5 48  1  0
 11 49  1  0
 11 50  1  0
 14 51  1  0
 17 52  1  0
 17 53  1  0
 17 54  1  0
 18 55  1  0
 18 56  1  0
 18 57  1  0
 20 58  1  0
 23 59  1  0
 24 60  1  0
 27 61  1  0
 30 62  1  0
 32 63  1  0
 33 64  1  0
 34 65  1  0
 36 66  1  0
 38 67  1  0
 39 68  1  0
 25 69  1  0
M  END
>  <smiles>  (372) 
[H]OC([H])([H])C#Cc1sc(-c2c([H])c(C(=O)N([H])S(=O)(=O)c3c([H])c([H])c([H])c(OC([H])([H])[H])c3[H])c(OC([H])([H])[H])c([H])c2O/N=C(\N([H])C([H])([H])c2nc([H])c([H])[nH]2)C([H])([H])[H])c([H])c1[H]

>  <error>  (372) 


>  <∆∆G>  (372) 
-137.050402

>  <∆G_bound>  (372) 
-6.438994

>  <∆G_unbound>  (372) 
130.611408

>  <comRMSD>  (372) 
1.47256

>  <N_constrained_atoms>  (372) 
42.0

>  <N_unconstrained_atoms>  (372) 
0.0

>  <runtime>  (372) 
15.623115

>  <regarded>  (372) 
['z0103a', '5k5m-a']

>  <disregarded>  (372) 
[]

>  <LE>  (372) 
3.263105

>  <outcome>  (372) 
too moved

>  <percent_hybrid>  (372) 
24.0

$$$$
LIG
     RDKit          3D

  0  0  0  0  0  0  0  0  0  0999 V3000
M  V30 BEGIN CTAB
M  V30 COUNTS 63 65 0 0 0
M  V30 BEGIN ATOM
M  V30 1 N -13.266000 -42.196999 -21.974001 0
M  V30 2 C -12.944000 -41.021999 -21.833000 0
M  V30 3 C -11.629000 -40.624001 -21.225000 0
M  V30 4 N -13.726000 -40.034000 -22.247999 0
M  V30 5 C -13.348000 -39.222000 -23.382000 0
M  V30 6 C -12.966000 -37.907001 -22.924999 0
M  V30 7 N -11.741000 -37.458000 -22.879000 0
M  V30 8 C -11.837000 -36.210999 -22.299000 0
M  V30 9 C -13.101000 -35.942001 -22.018000 0
M  V30 10 N -13.818000 -37.035000 -22.421000 0
M  V30 11 C -19.818001 -46.580002 -24.270000 0
M  V30 12 C -15.760000 -42.192001 -14.503000 0
M  V30 13 C -20.392000 -46.660000 -25.309999 0
M  V30 14 C -20.905001 -46.700001 -26.679001 0
M  V30 15 C -15.534000 -43.762001 -17.311001 0
M  V30 16 C -13.321000 -42.277000 -18.820999 0
M  V30 17 O -15.426000 -43.787998 -22.948000 0
M  V30 18 C -14.415000 -43.044998 -23.643000 0
M  V30 19 O -14.665000 -44.292999 -16.621000 0
M  V30 20 N -16.653000 -43.152000 -16.789000 0
M  V30 21 S -17.031000 -43.102001 -15.230000 0
M  V30 22 O -16.983999 -44.417999 -14.750000 0
M  V30 23 O -18.233000 -42.353001 -15.150000 0
M  V30 24 O -22.167000 -46.080002 -26.768999 0
M  V30 25 C -16.385000 -44.480000 -19.483999 0
M  V30 26 C -15.409000 -43.759998 -18.796000 0
M  V30 27 C -14.430000 -43.042999 -19.507999 0
M  V30 28 C -14.493000 -43.049999 -20.900000 0
M  V30 29 C -15.471000 -43.773998 -21.576000 0
M  V30 30 C -16.426001 -44.507999 -20.872999 0
M  V30 31 C -19.028000 -46.348000 -23.115999 0
M  V30 32 C -18.854000 -47.084000 -22.014999 0
M  V30 33 C -17.948000 -46.509998 -21.113001 0
M  V30 34 C -17.434999 -45.320000 -21.558001 0
M  V30 35 S -18.084999 -44.922001 -23.068001 0
M  V30 36 C -13.840500 -42.620998 -22.808500 0
M  V30 37 H -11.709771 -40.648445 -20.128242 0
M  V30 38 H -10.847049 -41.325714 -21.550806 0
M  V30 39 H -11.367404 -39.606445 -21.550806 0
M  V30 40 H -14.611291 -39.843807 -21.757097 0
M  V30 41 H -12.499456 -39.690483 -23.902094 0
M  V30 42 H -14.199591 -39.137444 -24.073118 0
M  V30 43 H -10.988646 -35.539764 -22.099646 0
M  V30 44 H -13.495500 -35.025738 -21.554501 0
M  V30 45 H -15.845274 -42.253056 -13.408011 0
M  V30 46 H -14.789023 -42.601425 -14.818560 0
M  V30 47 H -15.834725 -41.140888 -14.818560 0
M  V30 48 H -20.997185 -47.748981 -26.997023 0
M  V30 49 H -20.203392 -46.157421 -27.329655 0
M  V30 50 H -13.439723 -42.359005 -17.730503 0
M  V30 51 H -12.348014 -42.696510 -19.116480 0
M  V30 52 H -13.368885 -41.218513 -19.116480 0
M  V30 53 H -13.791354 -43.702095 -24.266932 0
M  V30 54 H -14.812017 -42.293228 -24.341011 0
M  V30 55 H -17.296339 -42.692879 -17.449469 0
M  V30 56 H -22.516090 -45.908501 -25.858603 0
M  V30 57 H -17.140970 -45.039505 -18.913506 0
M  V30 58 H -13.755346 -42.472004 -21.476011 0
M  V30 59 H -19.367716 -48.039921 -21.835253 0
M  V30 60 H -17.677311 -46.966576 -20.149536 0
M  V30 61 H -12.740499 -41.521000 -21.708500 0
M  V30 62 H -12.730500 -41.510998 -21.698500 0
M  V30 63 H -14.838100 -37.155346 -22.344767 0
M  V30 END ATOM
M  V30 BEGIN BOND
M  V30 1 1 3 2
M  V30 2 2 2 1
M  V30 3 1 4 2
M  V30 4 1 5 4
M  V30 5 1 6 5
M  V30 6 2 6 7
M  V30 7 1 6 10
M  V30 8 1 7 8
M  V30 9 2 8 9
M  V30 10 1 9 10
M  V30 11 1 24 14
M  V30 12 1 14 13
M  V30 13 3 13 11
M  V30 14 1 17 18
M  V30 15 2 22 21
M  V30 16 1 20 15
M  V30 17 1 20 21
M  V30 18 2 15 19
M  V30 19 2 23 21
M  V30 20 1 21 12
M  V30 21 2 25 30
M  V30 22 1 25 26
M  V30 23 1 26 15
M  V30 24 2 26 27
M  V30 25 1 27 28
M  V30 26 1 27 16
M  V30 27 2 28 29
M  V30 28 1 29 30
M  V30 29 1 29 17
M  V30 30 1 30 34
M  V30 31 1 31 11
M  V30 32 2 31 32
M  V30 33 1 31 35
M  V30 34 1 32 33
M  V30 35 2 33 34
M  V30 36 1 34 35
M  V30 37 1 36 1
M  V30 38 1 36 18
M  V30 39 1 3 37
M  V30 40 1 3 38
M  V30 41 1 3 39
M  V30 42 1 4 40
M  V30 43 1 5 41
M  V30 44 1 5 42
M  V30 45 1 8 43
M  V30 46 1 9 44
M  V30 47 1 12 45
M  V30 48 1 12 46
M  V30 49 1 12 47
M  V30 50 1 14 48
M  V30 51 1 14 49
M  V30 52 1 16 50
M  V30 53 1 16 51
M  V30 54 1 16 52
M  V30 55 1 18 53
M  V30 56 1 18 54
M  V30 57 1 20 55
M  V30 58 1 24 56
M  V30 59 1 25 57
M  V30 60 1 28 58
M  V30 61 1 32 59
M  V30 62 1 33 60
M  V30 63 1 36 61
M  V30 64 1 36 62
M  V30 65 1 10 63
M  V30 END BOND
M  V30 BEGIN COLLECTION
M  V30 MDLV30/STEABS ATOMS=(0)
M  V30 END COLLECTION
M  V30 END CTAB
M  END
>  <smiles>  (373) 
[H]OC([H])([H])C#Cc1sc(-c2c([H])c(C(=O)N([H])S(=O)(=O)C([H])([H])[H])c(C([H])([H])[H])c([H])c2OC([H])([H])C([H])([H])/N=C(\N([H])C([H])([H])c2nc([H])c([H])[nH]2)C([H])([H])[H])c([H])c1[H]

>  <error>  (373) 


>  <∆∆G>  (373) 
nan

>  <∆G_bound>  (373) 
nan

>  <∆G_unbound>  (373) 
nan

>  <comRMSD>  (373) 
0.0

>  <N_constrained_atoms>  (373) 
35.0

>  <N_unconstrained_atoms>  (373) 
1.0

>  <runtime>  (373) 
2.078437

>  <regarded>  (373) 
['z0103a', '5hmz-a']

>  <disregarded>  (373) 
[]

>  <LE>  (373) 
nan

>  <outcome>  (373) 
crashed

>  <percent_hybrid>  (373) 
29.0

$$$$
LIG
     RDKit          3D

 46 48  0  0  0  0  0  0  0  0999 V2000
  -14.2870  -41.4495  -21.0260 N   0  0  0  0  0  0  0  0  0  0  0  0
  -13.1578  -41.0317  -21.0977 C   0  0  0  0  0  0  0  0  0  0  0  0
  -12.0254  -41.7112  -20.3116 C   0  0  0  0  0  0  0  0  0  0  0  0
  -12.5733  -39.8252  -21.8957 N   0  0  0  0  0  0  0  0  0  0  0  0
  -13.2239  -38.8302  -22.6827 C   0  0  0  0  0  0  0  0  0  0  0  0
  -15.1161  -43.8085  -16.7900 C   0  0  0  0  0  0  0  0  0  0  0  0
  -17.3379  -42.9678  -16.4774 O   0  0  0  0  0  0  0  0  0  0  0  0
  -16.0925  -43.0077  -15.9680 C   0  0  0  0  0  0  0  0  0  0  0  0
  -15.8339  -42.5011  -14.8861 O   0  0  0  0  0  0  0  0  0  0  0  0
  -12.9960  -37.4147  -22.3099 C   0  0  0  0  0  0  0  0  0  0  0  0
  -11.9065  -36.9694  -21.6094 N   0  0  0  0  0  0  0  0  0  0  0  0
  -12.0876  -35.6369  -21.3722 C   0  0  0  0  0  0  0  0  0  0  0  0
  -13.2600  -35.3147  -22.0074 C   0  0  0  0  0  0  0  0  0  0  0  0
  -13.7859  -36.4098  -22.6312 N   0  0  0  0  0  0  0  0  0  0  0  0
  -15.2990  -43.7197  -18.2827 C   0  0  0  0  0  0  0  0  0  0  0  0
  -14.6650  -42.6701  -18.9497 C   0  0  0  0  0  0  0  0  0  0  0  0
  -14.7671  -42.5435  -20.3261 C   0  0  0  0  0  0  0  0  0  0  0  0
  -15.5477  -43.4487  -21.0361 C   0  0  0  0  0  0  0  0  0  0  0  0
  -16.2859  -44.4571  -20.4023 C   0  0  0  0  0  0  0  0  0  0  0  0
  -16.1230  -44.5992  -19.0126 C   0  0  0  0  0  0  0  0  0  0  0  0
  -18.1050  -47.4386  -21.8573 C   0  0  0  0  0  0  0  0  0  0  0  0
  -17.3481  -46.6584  -20.9862 C   0  0  0  0  0  0  0  0  0  0  0  0
  -17.2019  -45.2855  -21.2097 C   0  0  0  0  0  0  0  0  0  0  0  0
  -17.9116  -44.7163  -22.2901 C   0  0  0  0  0  0  0  0  0  0  0  0
  -18.6497  -45.4985  -23.1718 C   0  0  0  0  0  0  0  0  0  0  0  0
  -18.7127  -46.8688  -22.9703 C   0  0  0  0  0  0  0  0  0  0  0  0
  -12.0432  -41.3570  -19.2772 H   0  0  0  0  0  0  0  0  0  0  0  0
  -12.1330  -42.7971  -20.3346 H   0  0  0  0  0  0  0  0  0  0  0  0
  -11.0495  -41.4591  -20.7301 H   0  0  0  0  0  0  0  0  0  0  0  0
  -11.5977  -39.7101  -21.6618 H   0  0  0  0  0  0  0  0  0  0  0  0
  -12.9640  -38.9574  -23.7313 H   0  0  0  0  0  0  0  0  0  0  0  0
  -14.3052  -39.0108  -22.6363 H   0  0  0  0  0  0  0  0  0  0  0  0
  -14.1078  -43.4542  -16.5379 H   0  0  0  0  0  0  0  0  0  0  0  0
  -15.1459  -44.8546  -16.4776 H   0  0  0  0  0  0  0  0  0  0  0  0
  -17.9068  -42.7061  -15.7160 H   0  0  0  0  0  0  0  0  0  0  0  0
  -11.3905  -35.0598  -20.7842 H   0  0  0  0  0  0  0  0  0  0  0  0
  -13.7514  -34.3515  -22.0553 H   0  0  0  0  0  0  0  0  0  0  0  0
  -14.1132  -41.9210  -18.3883 H   0  0  0  0  0  0  0  0  0  0  0  0
  -15.6075  -43.3112  -22.1146 H   0  0  0  0  0  0  0  0  0  0  0  0
  -16.6816  -45.3670  -18.4876 H   0  0  0  0  0  0  0  0  0  0  0  0
  -18.1510  -48.5131  -21.7257 H   0  0  0  0  0  0  0  0  0  0  0  0
  -16.8238  -47.1471  -20.1721 H   0  0  0  0  0  0  0  0  0  0  0  0
  -17.8639  -43.6442  -22.4746 H   0  0  0  0  0  0  0  0  0  0  0  0
  -19.1460  -45.0429  -24.0226 H   0  0  0  0  0  0  0  0  0  0  0  0
  -19.2216  -47.5086  -23.6867 H   0  0  0  0  0  0  0  0  0  0  0  0
  -11.1434  -37.5328  -21.2633 H   0  0  0  0  0  0  0  0  0  0  0  0
  3  2  1  0
  2  1  2  0
  4  2  1  0
  5  4  1  0
  6  8  1  0
  8  9  2  0
  8  7  1  0
 10  5  1  0
 10 11  1  0
 10 14  2  0
 11 12  1  0
 12 13  2  0
 13 14  1  0
 15 20  2  0
 15  6  1  0
 15 16  1  0
 16 17  2  0
 17 18  1  0
 18 19  2  0
 19 23  1  0
 19 20  1  0
 21 26  2  0
 21 22  1  0
 22 23  2  0
 23 24  1  0
 24 25  2  0
 25 26  1  0
  1 17  1  0
  3 27  1  0
  3 28  1  0
  3 29  1  0
  4 30  1  0
  5 31  1  0
  5 32  1  0
  6 33  1  0
  6 34  1  0
  7 35  1  0
 12 36  1  0
 13 37  1  0
 16 38  1  0
 18 39  1  0
 20 40  1  0
 21 41  1  0
 22 42  1  0
 24 43  1  0
 25 44  1  0
 26 45  1  0
 11 46  1  0
M  END
>  <smiles>  (374) 
[H]OC(=O)C([H])([H])c1c([H])c(/N=C(\N([H])C([H])([H])c2nc([H])c([H])[nH]2)C([H])([H])[H])c([H])c(-c2c([H])c([H])c([H])c([H])c2[H])c1[H]

>  <error>  (374) 


>  <∆∆G>  (374) 
-142.206219

>  <∆G_bound>  (374) 
43.371305

>  <∆G_unbound>  (374) 
185.577524

>  <comRMSD>  (374) 
0.915739

>  <N_constrained_atoms>  (374) 
26.0

>  <N_unconstrained_atoms>  (374) 
0.0

>  <runtime>  (374) 
3.009361

>  <regarded>  (374) 
['z0103a', '5hmw-b']

>  <disregarded>  (374) 
[]

>  <LE>  (374) 
5.46947

>  <outcome>  (374) 
acceptable

>  <percent_hybrid>  (374) 
39.0

$$$$
LIG
     RDKit          3D

  0  0  0  0  0  0  0  0  0  0999 V3000
M  V30 BEGIN CTAB
M  V30 COUNTS 50 52 0 0 0
M  V30 BEGIN ATOM
M  V30 1 N -13.266000 -42.196999 -21.974001 0
M  V30 2 C -12.944000 -41.021999 -21.833000 0
M  V30 3 C -11.629000 -40.624001 -21.225000 0
M  V30 4 N -13.726000 -40.034000 -22.247999 0
M  V30 5 C -13.348000 -39.222000 -23.382000 0
M  V30 6 C -12.966000 -37.907001 -22.924999 0
M  V30 7 N -11.741000 -37.458000 -22.879000 0
M  V30 8 C -11.837000 -36.210999 -22.299000 0
M  V30 9 C -13.101000 -35.942001 -22.018000 0
M  V30 10 N -13.818000 -37.035000 -22.421000 0
M  V30 11 C -15.214000 -44.195999 -17.205000 0
M  V30 12 O -15.494000 -43.783001 -22.902000 0
M  V30 13 O -16.777000 -42.421001 -17.035999 0
M  V30 14 O -16.753000 -43.901001 -15.424000 0
M  V30 15 C -16.329000 -43.459000 -16.510000 0
M  V30 16 C -14.517000 -43.076000 -23.669001 0
M  V30 17 C -15.306000 -44.067001 -18.719000 0
M  V30 18 C -14.378000 -43.289001 -19.424000 0
M  V30 19 C -14.418000 -43.181999 -20.811001 0
M  V30 20 C -15.437000 -43.837002 -21.528000 0
M  V30 21 C -16.427999 -44.655998 -20.771000 0
M  V30 22 C -16.327000 -44.730000 -19.385000 0
M  V30 23 C -19.254999 -46.200001 -23.139999 0
M  V30 24 C -19.083000 -47.027000 -22.037001 0
M  V30 25 C -18.115999 -46.647999 -21.094999 0
M  V30 26 C -17.504000 -45.448002 -21.427000 0
M  V30 27 S -18.162001 -44.875000 -22.916000 0
M  V30 28 C -13.891500 -42.636497 -22.821501 0
M  V30 29 H -11.709771 -40.648445 -20.128242 0
M  V30 30 H -10.847049 -41.325714 -21.550806 0
M  V30 31 H -11.367404 -39.606445 -21.550806 0
M  V30 32 H -14.611291 -39.843807 -21.757097 0
M  V30 33 H -12.499456 -39.690483 -23.902094 0
M  V30 34 H -14.199591 -39.137444 -24.073118 0
M  V30 35 H -10.988646 -35.539764 -22.099646 0
M  V30 36 H -13.495500 -35.025738 -21.554501 0
M  V30 37 H -14.251321 -43.781971 -16.870588 0
M  V30 38 H -15.297673 -45.262238 -16.947838 0
M  V30 39 H -16.410524 -42.106056 -17.900063 0
M  V30 40 H -13.927501 -43.752338 -24.305439 0
M  V30 41 H -14.923104 -42.341145 -24.379679 0
M  V30 42 H -13.598079 -42.749119 -18.866999 0
M  V30 43 H -13.658869 -42.589901 -21.343107 0
M  V30 44 H -17.060936 -45.317593 -18.813972 0
M  V30 45 H -19.944296 -46.354939 -23.983126 0
M  V30 46 H -19.680742 -47.941364 -21.907997 0
M  V30 47 H -17.871052 -47.234116 -20.196964 0
M  V30 48 H -12.921500 -41.666500 -21.851501 0
M  V30 49 H -12.911500 -41.656498 -21.841501 0
M  V30 50 H -14.838100 -37.155346 -22.344767 0
M  V30 END ATOM
M  V30 BEGIN BOND
M  V30 1 1 3 2
M  V30 2 2 2 1
M  V30 3 1 4 2
M  V30 4 1 5 4
M  V30 5 1 6 5
M  V30 6 2 6 7
M  V30 7 1 6 10
M  V30 8 1 7 8
M  V30 9 2 8 9
M  V30 10 1 9 10
M  V30 11 1 12 16
M  V30 12 2 14 15
M  V30 13 1 11 15
M  V30 14 1 15 13
M  V30 15 2 17 22
M  V30 16 1 17 11
M  V30 17 1 17 18
M  V30 18 2 18 19
M  V30 19 1 19 20
M  V30 20 2 20 21
M  V30 21 1 20 12
M  V30 22 1 21 26
M  V30 23 1 21 22
M  V30 24 2 23 24
M  V30 25 1 23 27
M  V30 26 1 24 25
M  V30 27 2 25 26
M  V30 28 1 26 27
M  V30 29 1 28 1
M  V30 30 1 28 16
M  V30 31 1 3 29
M  V30 32 1 3 30
M  V30 33 1 3 31
M  V30 34 1 4 32
M  V30 35 1 5 33
M  V30 36 1 5 34
M  V30 37 1 8 35
M  V30 38 1 9 36
M  V30 39 1 11 37
M  V30 40 1 11 38
M  V30 41 1 13 39
M  V30 42 1 16 40
M  V30 43 1 16 41
M  V30 44 1 18 42
M  V30 45 1 19 43
M  V30 46 1 22 44
M  V30 47 1 23 45
M  V30 48 1 24 46
M  V30 49 1 25 47
M  V30 50 1 28 48
M  V30 51 1 28 49
M  V30 52 1 10 50
M  V30 END BOND
M  V30 BEGIN COLLECTION
M  V30 MDLV30/STEABS ATOMS=(0)
M  V30 END COLLECTION
M  V30 END CTAB
M  END
>  <smiles>  (375) 
[H]OC(=O)C([H])([H])c1c([H])c([H])c(OC([H])([H])C([H])([H])/N=C(\N([H])C([H])([H])c2nc([H])c([H])[nH]2)C([H])([H])[H])c(-c2sc([H])c([H])c2[H])c1[H]

>  <error>  (375) 


>  <∆∆G>  (375) 
nan

>  <∆G_bound>  (375) 
nan

>  <∆G_unbound>  (375) 
nan

>  <comRMSD>  (375) 
0.0

>  <N_constrained_atoms>  (375) 
27.0

>  <N_unconstrained_atoms>  (375) 
1.0

>  <runtime>  (375) 
1.630957

>  <regarded>  (375) 
['z0103a', '5f3z-a']

>  <disregarded>  (375) 
[]

>  <LE>  (375) 
nan

>  <outcome>  (375) 
crashed

>  <percent_hybrid>  (375) 
38.0

$$$$
LIG
     RDKit          3D

  0  0  0  0  0  0  0  0  0  0999 V3000
M  V30 BEGIN CTAB
M  V30 COUNTS 50 52 0 0 0
M  V30 BEGIN ATOM
M  V30 1 N -13.266000 -42.196999 -21.974001 0
M  V30 2 C -12.944000 -41.021999 -21.833000 0
M  V30 3 C -11.629000 -40.624001 -21.225000 0
M  V30 4 N -13.726000 -40.034000 -22.247999 0
M  V30 5 C -13.348000 -39.222000 -23.382000 0
M  V30 6 C -12.966000 -37.907001 -22.924999 0
M  V30 7 N -11.741000 -37.458000 -22.879000 0
M  V30 8 C -11.837000 -36.210999 -22.299000 0
M  V30 9 C -13.101000 -35.942001 -22.018000 0
M  V30 10 N -13.818000 -37.035000 -22.421000 0
M  V30 11 C -15.252000 -44.404999 -17.011999 0
M  V30 12 O -15.579000 -43.901001 -22.724001 0
M  V30 13 O -16.296000 -42.285999 -17.075001 0
M  V30 14 O -17.195999 -43.696999 -15.687000 0
M  V30 15 C -16.305000 -43.417999 -16.535000 0
M  V30 16 C -14.680000 -43.063000 -23.400999 0
M  V30 17 C -15.307000 -44.250999 -18.534000 0
M  V30 18 C -14.393000 -43.445000 -19.209999 0
M  V30 19 C -14.463000 -43.299999 -20.600000 0
M  V30 20 C -15.472000 -43.971001 -21.318001 0
M  V30 21 C -16.393000 -44.764000 -20.646999 0
M  V30 22 C -16.316000 -44.900002 -19.266001 0
M  V30 23 C -19.268999 -46.298000 -23.153999 0
M  V30 24 C -19.041000 -47.146000 -22.066999 0
M  V30 25 C -18.048000 -46.724998 -21.127001 0
M  V30 26 C -17.474001 -45.493999 -21.451000 0
M  V30 27 S -18.218000 -44.983002 -22.896000 0
M  V30 28 C -13.973000 -42.629997 -22.687500 0
M  V30 29 H -11.709771 -40.648445 -20.128242 0
M  V30 30 H -10.847049 -41.325714 -21.550806 0
M  V30 31 H -11.367404 -39.606445 -21.550806 0
M  V30 32 H -14.611291 -39.843807 -21.757097 0
M  V30 33 H -12.499456 -39.690483 -23.902094 0
M  V30 34 H -14.199591 -39.137444 -24.073118 0
M  V30 35 H -10.988646 -35.539764 -22.099646 0
M  V30 36 H -13.495500 -35.025738 -21.554501 0
M  V30 37 H -14.257314 -44.141945 -16.622892 0
M  V30 38 H -15.434840 -45.434952 -16.671757 0
M  V30 39 H -15.599265 -42.060955 -17.741346 0
M  V30 40 H -14.129518 -43.647923 -24.152554 0
M  V30 41 H -15.237398 -42.255562 -23.898342 0
M  V30 42 H -13.609434 -42.918015 -18.645807 0
M  V30 43 H -13.735208 -42.666489 -21.128189 0
M  V30 44 H -17.053814 -45.523232 -18.739487 0
M  V30 45 H -19.969831 -46.446461 -23.988741 0
M  V30 46 H -19.595686 -48.087475 -21.940722 0
M  V30 47 H -17.765636 -47.310997 -20.239941 0
M  V30 48 H -13.003000 -41.660000 -21.717501 0
M  V30 49 H -12.993000 -41.649998 -21.707500 0
M  V30 50 H -14.838100 -37.155346 -22.344767 0
M  V30 END ATOM
M  V30 BEGIN BOND
M  V30 1 1 3 2
M  V30 2 2 2 1
M  V30 3 1 4 2
M  V30 4 1 5 4
M  V30 5 1 6 5
M  V30 6 2 6 7
M  V30 7 1 6 10
M  V30 8 1 7 8
M  V30 9 2 8 9
M  V30 10 1 9 10
M  V30 11 1 12 16
M  V30 12 2 14 15
M  V30 13 1 11 15
M  V30 14 1 15 13
M  V30 15 2 17 22
M  V30 16 1 17 11
M  V30 17 1 17 18
M  V30 18 2 18 19
M  V30 19 1 19 20
M  V30 20 2 20 21
M  V30 21 1 20 12
M  V30 22 1 21 26
M  V30 23 1 21 22
M  V30 24 2 23 24
M  V30 25 1 23 27
M  V30 26 1 24 25
M  V30 27 2 25 26
M  V30 28 1 26 27
M  V30 29 1 28 1
M  V30 30 1 28 16
M  V30 31 1 3 29
M  V30 32 1 3 30
M  V30 33 1 3 31
M  V30 34 1 4 32
M  V30 35 1 5 33
M  V30 36 1 5 34
M  V30 37 1 8 35
M  V30 38 1 9 36
M  V30 39 1 11 37
M  V30 40 1 11 38
M  V30 41 1 13 39
M  V30 42 1 16 40
M  V30 43 1 16 41
M  V30 44 1 18 42
M  V30 45 1 19 43
M  V30 46 1 22 44
M  V30 47 1 23 45
M  V30 48 1 24 46
M  V30 49 1 25 47
M  V30 50 1 28 48
M  V30 51 1 28 49
M  V30 52 1 10 50
M  V30 END BOND
M  V30 BEGIN COLLECTION
M  V30 MDLV30/STEABS ATOMS=(0)
M  V30 END COLLECTION
M  V30 END CTAB
M  END
>  <smiles>  (376) 
[H]OC(=O)C([H])([H])c1c([H])c([H])c(OC([H])([H])C([H])([H])/N=C(\N([H])C([H])([H])c2nc([H])c([H])[nH]2)C([H])([H])[H])c(-c2sc([H])c([H])c2[H])c1[H]

>  <error>  (376) 


>  <∆∆G>  (376) 
nan

>  <∆G_bound>  (376) 
nan

>  <∆G_unbound>  (376) 
nan

>  <comRMSD>  (376) 
0.0

>  <N_constrained_atoms>  (376) 
27.0

>  <N_unconstrained_atoms>  (376) 
1.0

>  <runtime>  (376) 
1.731245

>  <regarded>  (376) 
['z0103a', '6h9r-a']

>  <disregarded>  (376) 
[]

>  <LE>  (376) 
nan

>  <outcome>  (376) 
crashed

>  <percent_hybrid>  (376) 
38.0

$$$$
LIG
     RDKit          3D

  0  0  0  0  0  0  0  0  0  0999 V3000
M  V30 BEGIN CTAB
M  V30 COUNTS 53 55 0 0 0
M  V30 BEGIN ATOM
M  V30 1 N -13.266000 -42.196999 -21.974001 0
M  V30 2 C -12.944000 -41.021999 -21.833000 0
M  V30 3 C -11.629000 -40.624001 -21.225000 0
M  V30 4 N -13.726000 -40.034000 -22.247999 0
M  V30 5 C -13.348000 -39.222000 -23.382000 0
M  V30 6 C -12.966000 -37.907001 -22.924999 0
M  V30 7 N -11.741000 -37.458000 -22.879000 0
M  V30 8 C -11.837000 -36.210999 -22.299000 0
M  V30 9 C -13.101000 -35.942001 -22.018000 0
M  V30 10 N -13.818000 -37.035000 -22.421000 0
M  V30 11 O -16.907000 -44.019001 -15.496000 0
M  V30 12 O -16.811001 -42.425999 -17.010000 0
M  V30 13 C -16.437000 -43.527000 -16.546000 0
M  V30 14 C -15.354000 -44.278999 -17.271999 0
M  V30 15 O -15.603000 -43.844002 -22.983999 0
M  V30 16 C -14.536000 -43.268002 -23.743000 0
M  V30 17 C -15.548000 -43.933998 -21.607000 0
M  V30 18 C -14.598000 -43.216999 -20.856001 0
M  V30 19 C -14.567000 -43.341000 -19.464001 0
M  V30 20 C -15.475000 -44.154999 -18.780001 0
M  V30 21 C -16.433001 -44.903000 -19.485001 0
M  V30 22 C -16.520000 -44.813999 -20.886000 0
M  V30 23 C -19.094999 -45.862999 -23.488001 0
M  V30 24 C -18.218000 -45.069000 -22.740999 0
M  V30 25 C -17.518000 -45.618999 -21.659000 0
M  V30 26 C -17.726999 -46.964001 -21.326000 0
M  V30 27 C -18.639999 -47.737999 -22.048000 0
M  V30 28 C -19.325001 -47.188999 -23.134001 0
M  V30 29 C -13.901000 -42.732498 -22.858501 0
M  V30 30 H -11.709771 -40.648445 -20.128242 0
M  V30 31 H -10.847049 -41.325714 -21.550806 0
M  V30 32 H -11.367404 -39.606445 -21.550806 0
M  V30 33 H -14.611291 -39.843807 -21.757097 0
M  V30 34 H -12.499456 -39.690483 -23.902094 0
M  V30 35 H -14.199591 -39.137444 -24.073118 0
M  V30 36 H -10.988646 -35.539764 -22.099646 0
M  V30 37 H -13.495500 -35.025738 -21.554501 0
M  V30 38 H -16.408537 -42.078323 -17.845013 0
M  V30 39 H -14.377348 -43.879055 -16.961843 0
M  V30 40 H -15.453846 -45.343597 -17.013807 0
M  V30 41 H -13.943628 -44.037342 -24.259926 0
M  V30 42 H -14.858713 -42.593140 -24.549484 0
M  V30 43 H -13.879010 -42.558228 -21.364994 0
M  V30 44 H -13.809538 -42.784428 -18.892620 0
M  V30 45 H -17.120651 -45.563671 -18.936686 0
M  V30 46 H -19.607077 -45.435417 -24.362616 0
M  V30 47 H -18.077675 -44.010124 -23.003855 0
M  V30 48 H -17.169151 -47.413506 -20.491283 0
M  V30 49 H -18.819672 -48.784157 -21.759430 0
M  V30 50 H -20.040258 -47.799461 -23.704741 0
M  V30 51 H -12.901000 -41.732498 -21.858501 0
M  V30 52 H -12.891000 -41.722500 -21.848501 0
M  V30 53 H -14.838100 -37.155346 -22.344767 0
M  V30 END ATOM
M  V30 BEGIN BOND
M  V30 1 1 3 2
M  V30 2 2 2 1
M  V30 3 1 4 2
M  V30 4 1 5 4
M  V30 5 1 6 5
M  V30 6 2 6 7
M  V30 7 1 6 10
M  V30 8 1 7 8
M  V30 9 2 8 9
M  V30 10 1 9 10
M  V30 11 1 15 16
M  V30 12 2 11 13
M  V30 13 1 14 13
M  V30 14 1 13 12
M  V30 15 1 17 22
M  V30 16 1 17 15
M  V30 17 2 17 18
M  V30 18 1 18 19
M  V30 19 2 19 20
M  V30 20 1 20 21
M  V30 21 1 20 14
M  V30 22 2 21 22
M  V30 23 1 22 25
M  V30 24 2 23 28
M  V30 25 1 23 24
M  V30 26 2 24 25
M  V30 27 1 25 26
M  V30 28 2 26 27
M  V30 29 1 27 28
M  V30 30 1 29 1
M  V30 31 1 29 16
M  V30 32 1 3 30
M  V30 33 1 3 31
M  V30 34 1 3 32
M  V30 35 1 4 33
M  V30 36 1 5 34
M  V30 37 1 5 35
M  V30 38 1 8 36
M  V30 39 1 9 37
M  V30 40 1 12 38
M  V30 41 1 14 39
M  V30 42 1 14 40
M  V30 43 1 16 41
M  V30 44 1 16 42
M  V30 45 1 18 43
M  V30 46 1 19 44
M  V30 47 1 21 45
M  V30 48 1 23 46
M  V30 49 1 24 47
M  V30 50 1 26 48
M  V30 51 1 27 49
M  V30 52 1 28 50
M  V30 53 1 29 51
M  V30 54 1 29 52
M  V30 55 1 10 53
M  V30 END BOND
M  V30 BEGIN COLLECTION
M  V30 MDLV30/STEABS ATOMS=(0)
M  V30 END COLLECTION
M  V30 END CTAB
M  END
>  <smiles>  (377) 
[H]OC(=O)C([H])([H])c1c([H])c([H])c(OC([H])([H])C([H])([H])/N=C(\N([H])C([H])([H])c2nc([H])c([H])[nH]2)C([H])([H])[H])c(-c2c([H])c([H])c([H])c([H])c2[H])c1[H]

>  <error>  (377) 


>  <∆∆G>  (377) 
nan

>  <∆G_bound>  (377) 
nan

>  <∆G_unbound>  (377) 
nan

>  <comRMSD>  (377) 
0.0

>  <N_constrained_atoms>  (377) 
28.0

>  <N_unconstrained_atoms>  (377) 
1.0

>  <runtime>  (377) 
1.893019

>  <regarded>  (377) 
['z0103a', '5f3t-a']

>  <disregarded>  (377) 
[]

>  <LE>  (377) 
nan

>  <outcome>  (377) 
crashed

>  <percent_hybrid>  (377) 
36.0

$$$$
LIG
     RDKit          3D

 41 43  0  0  0  0  0  0  0  0999 V2000
  -22.1755  -45.8650  -16.8984 O   0  0  0  0  0  0  0  0  0  0  0  0
  -24.6161  -44.8798  -15.0300 C   0  0  0  0  0  0  0  0  0  0  0  0
  -25.9133  -43.8532  -18.3205 O   0  0  0  0  0  0  0  0  0  0  0  0
  -23.6644  -43.3377  -17.7916 C   0  0  1  0  0  0  0  0  0  0  0  0
  -23.6929  -41.9879  -18.6718 C   0  0  0  0  0  0  0  0  0  0  0  0
  -22.2524  -41.7407  -19.2201 C   0  0  0  0  0  0  0  0  0  0  0  0
  -21.2695  -41.4934  -18.1769 N   0  0  0  0  0  0  0  0  0  0  0  0
  -21.2346  -42.5988  -17.2296 C   0  0  0  0  0  0  0  0  0  0  0  0
  -22.6137  -42.9935  -16.6865 C   0  0  0  0  0  0  0  0  0  0  0  0
  -24.8049  -41.8752  -19.7168 C   0  0  0  0  0  0  0  0  0  0  0  0
  -24.8396  -40.4693  -20.1201 N   0  0  0  0  0  0  0  0  0  0  0  0
  -24.5982  -39.7423  -18.8914 N   0  0  0  0  0  0  0  0  0  0  0  0
  -24.0230  -40.6948  -17.9006 C   0  0  0  0  0  0  0  0  0  0  0  0
  -25.0121  -43.6639  -17.1841 N   0  0  0  0  0  0  0  0  0  0  0  0
  -25.0766  -44.9722  -16.4714 C   0  0  1  0  0  0  0  0  0  0  0  0
  -24.4640  -46.1638  -17.2398 C   0  0  0  0  0  0  0  0  0  0  0  0
  -23.1854  -45.9391  -17.9315 N   0  0  0  0  0  0  0  0  0  0  0  0
  -23.1973  -44.6152  -18.6153 C   0  0  0  0  0  0  0  0  0  0  0  0
  -21.7200  -46.7238  -16.9825 H   0  0  0  0  0  0  0  0  0  0  0  0
  -25.1197  -45.6523  -14.4378 H   0  0  0  0  0  0  0  0  0  0  0  0
  -23.5483  -45.0460  -14.8875 H   0  0  0  0  0  0  0  0  0  0  0  0
  -24.8842  -43.9165  -14.5847 H   0  0  0  0  0  0  0  0  0  0  0  0
  -26.5566  -44.5599  -18.1050 H   0  0  0  0  0  0  0  0  0  0  0  0
  -21.8683  -42.5985  -19.7724 H   0  0  0  0  0  0  0  0  0  0  0  0
  -22.2131  -40.8713  -19.8854 H   0  0  0  0  0  0  0  0  0  0  0  0
  -20.3403  -41.3617  -18.5750 H   0  0  0  0  0  0  0  0  0  0  0  0
  -20.7412  -43.4644  -17.6855 H   0  0  0  0  0  0  0  0  0  0  0  0
  -20.6020  -42.3019  -16.3851 H   0  0  0  0  0  0  0  0  0  0  0  0
  -22.9912  -42.1814  -16.0510 H   0  0  0  0  0  0  0  0  0  0  0  0
  -22.4428  -43.8086  -15.9905 H   0  0  0  0  0  0  0  0  0  0  0  0
  -25.7995  -42.0680  -19.3459 H   0  0  0  0  0  0  0  0  0  0  0  0
  -24.7971  -42.5492  -20.5347 H   0  0  0  0  0  0  0  0  0  0  0  0
  -24.1263  -40.2882  -20.8269 H   0  0  0  0  0  0  0  0  0  0  0  0
  -23.9467  -38.9609  -19.0180 H   0  0  0  0  0  0  0  0  0  0  0  0
  -23.1688  -40.2048  -17.4222 H   0  0  0  0  0  0  0  0  0  0  0  0
  -24.7162  -40.8752  -17.0751 H   0  0  0  0  0  0  0  0  0  0  0  0
  -26.1391  -45.2228  -16.3540 H   0  0  0  0  0  0  0  0  0  0  0  0
  -24.3735  -47.0356  -16.5792 H   0  0  0  0  0  0  0  0  0  0  0  0
  -25.1885  -46.4629  -18.0063 H   0  0  0  0  0  0  0  0  0  0  0  0
  -22.1985  -44.4796  -19.0368 H   0  0  0  0  0  0  0  0  0  0  0  0
  -23.8566  -44.7272  -19.4823 H   0  0  0  0  0  0  0  0  0  0  0  0
  4  9  1  0
  4  5  1  0
  5  6  1  0
  6  7  1  0
  7  8  1  0
  8  9  1  0
 10 11  1  0
 11 12  1  0
 12 13  1  0
 14 15  1  0
 15 16  1  0
 16 17  1  0
 17 18  1  0
  4 18  1  0
  4 14  1  1
  5 10  1  0
  5 13  1  0
 15  2  1  0
 14  3  1  0
  1 17  1  0
  1 19  1  0
  2 20  1  0
  2 21  1  0
  2 22  1  0
  3 23  1  0
  6 24  1  0
  6 25  1  0
  7 26  1  0
  8 27  1  0
  8 28  1  0
  9 29  1  0
  9 30  1  0
 10 31  1  0
 10 32  1  0
 11 33  1  0
 12 34  1  0
 13 35  1  0
 13 36  1  0
 15 37  1  1
 16 38  1  0
 16 39  1  0
 18 40  1  0
 18 41  1  0
M  END
>  <smiles>  (378) 
[H]ON1C([H])([H])[C@@]([H])(C([H])([H])[H])N(O[H])[C@]2(C1([H])[H])C([H])([H])C([H])([H])N([H])C([H])([H])C21C([H])([H])N([H])N([H])C1([H])[H]

>  <error>  (378) 


>  <∆∆G>  (378) 
-82.485952

>  <∆G_bound>  (378) 
312.761971

>  <∆G_unbound>  (378) 
395.247923

>  <comRMSD>  (378) 
2.065835

>  <N_constrained_atoms>  (378) 
18.0

>  <N_unconstrained_atoms>  (378) 
0.0

>  <runtime>  (378) 
1.331218

>  <regarded>  (378) 
['z0193a', 'z0471a']

>  <disregarded>  (378) 
[]

>  <LE>  (378) 
4.582553

>  <outcome>  (378) 
too moved

>  <percent_hybrid>  (378) 
45.0

$$$$

     RDKit          2D

  0  0  0  0  0  0  0  0  0  0999 V2000
M  END
>  <smiles>  (379) 
nan

>  <error>  (379) 
DistanceError 7.95 Å

>  <∆∆G>  (379) 
nan

>  <∆G_bound>  (379) 
nan

>  <∆G_unbound>  (379) 
nan

>  <comRMSD>  (379) 
nan

>  <N_constrained_atoms>  (379) 
nan

>  <N_unconstrained_atoms>  (379) 
nan

>  <runtime>  (379) 
nan

>  <regarded>  (379) 
[]

>  <disregarded>  (379) 
[]

>  <LE>  (379) 
nan

>  <outcome>  (379) 
too distant

>  <percent_hybrid>  (379) 
nan

$$$$

     RDKit          2D

  0  0  0  0  0  0  0  0  0  0999 V2000
M  END
>  <smiles>  (380) 
nan

>  <error>  (380) 
DistanceError 7.52 Å

>  <∆∆G>  (380) 
nan

>  <∆G_bound>  (380) 
nan

>  <∆G_unbound>  (380) 
nan

>  <comRMSD>  (380) 
nan

>  <N_constrained_atoms>  (380) 
nan

>  <N_unconstrained_atoms>  (380) 
nan

>  <runtime>  (380) 
nan

>  <regarded>  (380) 
[]

>  <disregarded>  (380) 
[]

>  <LE>  (380) 
nan

>  <outcome>  (380) 
too distant

>  <percent_hybrid>  (380) 
nan

$$$$
LIG
     RDKit          3D

  0  0  0  0  0  0  0  0  0  0999 V3000
M  V30 BEGIN CTAB
M  V30 COUNTS 60 62 0 0 0
M  V30 BEGIN ATOM
M  V30 1 O -22.927999 -45.049999 -16.892000 0
M  V30 2 S -24.131001 -45.389000 -17.587999 0
M  V30 3 O -24.409000 -46.766998 -17.849001 0
M  V30 4 C -25.497000 -44.713001 -16.718000 0
M  V30 5 N -24.049000 -44.619999 -19.007999 0
M  V30 6 C -23.827999 -43.166000 -19.134001 0 CFG=2
M  V30 7 C -24.524000 -42.647999 -20.384001 0
M  V30 8 C -24.204000 -41.183998 -20.615000 0
M  V30 9 N -22.754999 -40.974998 -20.701000 0
M  V30 10 C -22.097000 -41.375000 -19.458000 0
M  V30 11 C -22.337000 -42.844002 -19.166000 0 CFG=2
M  V30 12 O -18.514000 -44.944000 -23.084999 0
M  V30 13 C -17.580000 -44.924999 -22.290001 0
M  V30 14 N -16.473000 -44.150002 -22.421000 0
M  V30 15 C -15.164000 -40.129002 -26.188000 0
M  V30 16 O -16.413000 -45.701000 -20.278000 0
M  V30 17 C -16.757999 -45.423000 -18.919001 0
M  V30 18 C -18.214001 -45.775002 -18.761999 0
M  V30 19 C -18.778999 -45.480999 -20.135000 0 CFG=2
M  V30 20 C -17.622999 -45.814999 -21.052999 0 CFG=1
M  V30 21 C -16.889999 -43.139000 -24.648001 0
M  V30 22 C -16.169001 -43.235001 -23.444000 0
M  V30 23 N -15.149000 -42.410999 -23.158001 0
M  V30 24 C -14.848000 -41.453999 -24.049999 0
M  V30 25 C -15.513000 -41.262001 -25.253000 0
M  V30 26 C -16.540001 -42.141998 -25.537001 0
M  V30 27 N -21.447500 -43.503250 -19.408251 0
M  V30 28 C -20.557999 -44.162498 -19.650501 0
M  V30 29 C -19.668499 -44.821751 -19.892750 0
M  V30 30 H -25.321608 -44.799797 -15.635548 0
M  V30 31 H -25.614441 -43.652775 -16.986568 0
M  V30 32 H -26.411160 -45.262714 -16.986568 0
M  V30 33 H -23.280239 -45.067856 -19.526972 0
M  V30 34 H -24.257580 -42.662785 -18.255232 0
M  V30 35 H -25.172569 -43.254494 -21.033249 0
M  V30 36 H -25.397100 -42.361732 -19.779230 0
M  V30 37 H -24.956566 -40.386871 -20.705757 0
M  V30 38 H -24.162924 -41.021439 -19.527853 0
M  V30 39 H -22.266764 -40.597443 -21.525606 0
M  V30 40 H -21.506842 -40.700752 -18.819952 0
M  V30 41 H -23.004616 -41.114555 -18.893728 0
M  V30 42 H -22.248466 -43.299007 -18.168438 0
M  V30 43 H -15.766908 -44.244354 -21.677069 0
M  V30 44 H -14.890187 -39.240093 -25.600746 0
M  V30 45 H -14.315430 -40.425137 -26.822218 0
M  V30 46 H -16.032122 -39.896343 -26.822218 0
M  V30 47 H -16.089857 -45.028572 -18.139250 0
M  V30 48 H -17.036428 -44.396500 -19.199667 0
M  V30 49 H -18.736921 -46.152126 -17.870747 0
M  V30 50 H -18.430281 -44.742043 -18.451809 0
M  V30 51 H -19.379461 -45.765228 -21.011732 0
M  V30 52 H -17.743259 -46.838230 -21.438404 0
M  V30 53 H -17.708742 -43.837749 -24.874741 0
M  V30 54 H -14.016479 -40.774754 -23.810833 0
M  V30 55 H -17.087391 -42.046734 -26.486362 0
M  V30 56 H -20.397499 -42.453251 -18.358250 0
M  V30 57 H -19.497999 -43.102501 -18.590500 0
M  V30 58 H -19.487999 -43.092499 -18.580500 0
M  V30 59 H -18.588499 -43.741749 -18.812750 0
M  V30 60 H -18.578499 -43.731750 -18.802750 0
M  V30 END ATOM
M  V30 BEGIN BOND
M  V30 1 1 4 2
M  V30 2 2 3 2
M  V30 3 2 2 1
M  V30 4 1 5 2
M  V30 5 1 6 5
M  V30 6 1 6 11
M  V30 7 1 6 7
M  V30 8 1 7 8
M  V30 9 1 8 9
M  V30 10 1 9 10
M  V30 11 1 10 11
M  V30 12 1 14 13
M  V30 13 2 13 12
M  V30 14 1 16 17
M  V30 15 1 16 20
M  V30 16 1 17 18
M  V30 17 1 18 19
M  V30 18 1 19 20
M  V30 19 1 20 13
M  V30 20 2 21 26
M  V30 21 1 21 22
M  V30 22 1 22 14
M  V30 23 2 22 23
M  V30 24 1 23 24
M  V30 25 2 24 25
M  V30 26 1 25 15
M  V30 27 1 25 26
M  V30 28 1 27 11
M  V30 29 1 28 27
M  V30 30 1 29 28
M  V30 31 1 29 19
M  V30 32 1 4 30
M  V30 33 1 4 31
M  V30 34 1 4 32
M  V30 35 1 5 33
M  V30 36 1 6 34 CFG=1
M  V30 37 1 7 35
M  V30 38 1 7 36
M  V30 39 1 8 37
M  V30 40 1 8 38
M  V30 41 1 9 39
M  V30 42 1 10 40
M  V30 43 1 10 41
M  V30 44 1 11 42 CFG=1
M  V30 45 1 14 43
M  V30 46 1 15 44
M  V30 47 1 15 45
M  V30 48 1 15 46
M  V30 49 1 17 47
M  V30 50 1 17 48
M  V30 51 1 18 49
M  V30 52 1 18 50
M  V30 53 1 19 51 CFG=3
M  V30 54 1 20 52 CFG=3
M  V30 55 1 21 53
M  V30 56 1 24 54
M  V30 57 1 26 55
M  V30 58 1 27 56
M  V30 59 1 28 57
M  V30 60 1 28 58
M  V30 61 1 29 59
M  V30 62 1 29 60
M  V30 END BOND
M  V30 BEGIN COLLECTION
M  V30 MDLV30/STEABS ATOMS=(0)
M  V30 END COLLECTION
M  V30 END CTAB
M  END
>  <smiles>  (381) 
[H]c1nc(N([H])C(=O)[C@@]2([H])OC([H])([H])C([H])([H])[C@@]2([H])C([H])([H])C([H])([H])N([H])[C@@]2([H])C([H])([H])N([H])C([H])([H])C([H])([H])[C@@]2([H])N([H])S(=O)(=O)C([H])([H])[H])c([H])c([H])c1C([H])([H])[H]

>  <error>  (381) 


>  <∆∆G>  (381) 
nan

>  <∆G_bound>  (381) 
nan

>  <∆G_unbound>  (381) 
nan

>  <comRMSD>  (381) 
0.0

>  <N_constrained_atoms>  (381) 
26.0

>  <N_unconstrained_atoms>  (381) 
3.0

>  <runtime>  (381) 
1.852106

>  <regarded>  (381) 
['z0193a', 'd0254a']

>  <disregarded>  (381) 
[]

>  <LE>  (381) 
nan

>  <outcome>  (381) 
crashed

>  <percent_hybrid>  (381) 
43.0

$$$$

     RDKit          2D

  0  0  0  0  0  0  0  0  0  0999 V2000
M  END
>  <smiles>  (382) 
nan

>  <error>  (382) 
TimeoutError

>  <∆∆G>  (382) 
nan

>  <∆G_bound>  (382) 
nan

>  <∆G_unbound>  (382) 
nan

>  <comRMSD>  (382) 
nan

>  <N_constrained_atoms>  (382) 
nan

>  <N_unconstrained_atoms>  (382) 
nan

>  <runtime>  (382) 
nan

>  <regarded>  (382) 
[]

>  <disregarded>  (382) 
[]

>  <LE>  (382) 
nan

>  <outcome>  (382) 
timeout

>  <percent_hybrid>  (382) 
nan

$$$$

     RDKit          2D

  0  0  0  0  0  0  0  0  0  0999 V2000
M  END
>  <smiles>  (383) 
nan

>  <error>  (383) 
DistanceError 6.29 Å

>  <∆∆G>  (383) 
nan

>  <∆G_bound>  (383) 
nan

>  <∆G_unbound>  (383) 
nan

>  <comRMSD>  (383) 
nan

>  <N_constrained_atoms>  (383) 
nan

>  <N_unconstrained_atoms>  (383) 
nan

>  <runtime>  (383) 
nan

>  <regarded>  (383) 
[]

>  <disregarded>  (383) 
[]

>  <LE>  (383) 
nan

>  <outcome>  (383) 
too distant

>  <percent_hybrid>  (383) 
nan

$$$$

     RDKit          2D

  0  0  0  0  0  0  0  0  0  0999 V2000
M  END
>  <smiles>  (384) 
nan

>  <error>  (384) 
DistanceError 7.49 Å

>  <∆∆G>  (384) 
nan

>  <∆G_bound>  (384) 
nan

>  <∆G_unbound>  (384) 
nan

>  <comRMSD>  (384) 
nan

>  <N_constrained_atoms>  (384) 
nan

>  <N_unconstrained_atoms>  (384) 
nan

>  <runtime>  (384) 
nan

>  <regarded>  (384) 
[]

>  <disregarded>  (384) 
[]

>  <LE>  (384) 
nan

>  <outcome>  (384) 
too distant

>  <percent_hybrid>  (384) 
nan

$$$$

     RDKit          2D

  0  0  0  0  0  0  0  0  0  0999 V2000
M  END
>  <smiles>  (385) 
nan

>  <error>  (385) 
DistanceError 6.36 Å

>  <∆∆G>  (385) 
nan

>  <∆G_bound>  (385) 
nan

>  <∆G_unbound>  (385) 
nan

>  <comRMSD>  (385) 
nan

>  <N_constrained_atoms>  (385) 
nan

>  <N_unconstrained_atoms>  (385) 
nan

>  <runtime>  (385) 
nan

>  <regarded>  (385) 
[]

>  <disregarded>  (385) 
[]

>  <LE>  (385) 
nan

>  <outcome>  (385) 
too distant

>  <percent_hybrid>  (385) 
nan

$$$$

     RDKit          2D

  0  0  0  0  0  0  0  0  0  0999 V2000
M  END
>  <smiles>  (386) 
nan

>  <error>  (386) 
DistanceError 5.13 Å

>  <∆∆G>  (386) 
nan

>  <∆G_bound>  (386) 
nan

>  <∆G_unbound>  (386) 
nan

>  <comRMSD>  (386) 
nan

>  <N_constrained_atoms>  (386) 
nan

>  <N_unconstrained_atoms>  (386) 
nan

>  <runtime>  (386) 
nan

>  <regarded>  (386) 
[]

>  <disregarded>  (386) 
[]

>  <LE>  (386) 
nan

>  <outcome>  (386) 
too distant

>  <percent_hybrid>  (386) 
nan

$$$$

     RDKit          2D

  0  0  0  0  0  0  0  0  0  0999 V2000
M  END
>  <smiles>  (387) 
nan

>  <error>  (387) 
DistanceError 5.97 Å

>  <∆∆G>  (387) 
nan

>  <∆G_bound>  (387) 
nan

>  <∆G_unbound>  (387) 
nan

>  <comRMSD>  (387) 
nan

>  <N_constrained_atoms>  (387) 
nan

>  <N_unconstrained_atoms>  (387) 
nan

>  <runtime>  (387) 
nan

>  <regarded>  (387) 
[]

>  <disregarded>  (387) 
[]

>  <LE>  (387) 
nan

>  <outcome>  (387) 
too distant

>  <percent_hybrid>  (387) 
nan

$$$$

     RDKit          2D

  0  0  0  0  0  0  0  0  0  0999 V2000
M  END
>  <smiles>  (388) 
nan

>  <error>  (388) 
DistanceError 9.68 Å

>  <∆∆G>  (388) 
nan

>  <∆G_bound>  (388) 
nan

>  <∆G_unbound>  (388) 
nan

>  <comRMSD>  (388) 
nan

>  <N_constrained_atoms>  (388) 
nan

>  <N_unconstrained_atoms>  (388) 
nan

>  <runtime>  (388) 
nan

>  <regarded>  (388) 
[]

>  <disregarded>  (388) 
[]

>  <LE>  (388) 
nan

>  <outcome>  (388) 
too distant

>  <percent_hybrid>  (388) 
nan

$$$$

     RDKit          2D

  0  0  0  0  0  0  0  0  0  0999 V2000
M  END
>  <smiles>  (389) 
nan

>  <error>  (389) 
DistanceError 7.61 Å

>  <∆∆G>  (389) 
nan

>  <∆G_bound>  (389) 
nan

>  <∆G_unbound>  (389) 
nan

>  <comRMSD>  (389) 
nan

>  <N_constrained_atoms>  (389) 
nan

>  <N_unconstrained_atoms>  (389) 
nan

>  <runtime>  (389) 
nan

>  <regarded>  (389) 
[]

>  <disregarded>  (389) 
[]

>  <LE>  (389) 
nan

>  <outcome>  (389) 
too distant

>  <percent_hybrid>  (389) 
nan

$$$$

     RDKit          2D

  0  0  0  0  0  0  0  0  0  0999 V2000
M  END
>  <smiles>  (390) 
nan

>  <error>  (390) 
DistanceError 8.93 Å

>  <∆∆G>  (390) 
nan

>  <∆G_bound>  (390) 
nan

>  <∆G_unbound>  (390) 
nan

>  <comRMSD>  (390) 
nan

>  <N_constrained_atoms>  (390) 
nan

>  <N_unconstrained_atoms>  (390) 
nan

>  <runtime>  (390) 
nan

>  <regarded>  (390) 
[]

>  <disregarded>  (390) 
[]

>  <LE>  (390) 
nan

>  <outcome>  (390) 
too distant

>  <percent_hybrid>  (390) 
nan

$$$$

     RDKit          2D

  0  0  0  0  0  0  0  0  0  0999 V2000
M  END
>  <smiles>  (391) 
nan

>  <error>  (391) 
RecursionError maximum recursion depth exceeded while calling a Python object

>  <∆∆G>  (391) 
nan

>  <∆G_bound>  (391) 
nan

>  <∆G_unbound>  (391) 
nan

>  <comRMSD>  (391) 
nan

>  <N_constrained_atoms>  (391) 
nan

>  <N_unconstrained_atoms>  (391) 
nan

>  <runtime>  (391) 
nan

>  <regarded>  (391) 
[]

>  <disregarded>  (391) 
[]

>  <LE>  (391) 
nan

>  <outcome>  (391) 
crashed

>  <percent_hybrid>  (391) 
nan

$$$$

     RDKit          2D

  0  0  0  0  0  0  0  0  0  0999 V2000
M  END
>  <smiles>  (392) 
nan

>  <error>  (392) 
DistanceError 9.34 Å

>  <∆∆G>  (392) 
nan

>  <∆G_bound>  (392) 
nan

>  <∆G_unbound>  (392) 
nan

>  <comRMSD>  (392) 
nan

>  <N_constrained_atoms>  (392) 
nan

>  <N_unconstrained_atoms>  (392) 
nan

>  <runtime>  (392) 
nan

>  <regarded>  (392) 
[]

>  <disregarded>  (392) 
[]

>  <LE>  (392) 
nan

>  <outcome>  (392) 
too distant

>  <percent_hybrid>  (392) 
nan

$$$$

     RDKit          2D

  0  0  0  0  0  0  0  0  0  0999 V2000
M  END
>  <smiles>  (393) 
nan

>  <error>  (393) 
DistanceError 5.52 Å

>  <∆∆G>  (393) 
nan

>  <∆G_bound>  (393) 
nan

>  <∆G_unbound>  (393) 
nan

>  <comRMSD>  (393) 
nan

>  <N_constrained_atoms>  (393) 
nan

>  <N_unconstrained_atoms>  (393) 
nan

>  <runtime>  (393) 
nan

>  <regarded>  (393) 
[]

>  <disregarded>  (393) 
[]

>  <LE>  (393) 
nan

>  <outcome>  (393) 
too distant

>  <percent_hybrid>  (393) 
nan

$$$$

     RDKit          2D

  0  0  0  0  0  0  0  0  0  0999 V2000
M  END
>  <smiles>  (394) 
nan

>  <error>  (394) 
DistanceError 5.74 Å

>  <∆∆G>  (394) 
nan

>  <∆G_bound>  (394) 
nan

>  <∆G_unbound>  (394) 
nan

>  <comRMSD>  (394) 
nan

>  <N_constrained_atoms>  (394) 
nan

>  <N_unconstrained_atoms>  (394) 
nan

>  <runtime>  (394) 
nan

>  <regarded>  (394) 
[]

>  <disregarded>  (394) 
[]

>  <LE>  (394) 
nan

>  <outcome>  (394) 
too distant

>  <percent_hybrid>  (394) 
nan

$$$$

     RDKit          2D

  0  0  0  0  0  0  0  0  0  0999 V2000
M  END
>  <smiles>  (395) 
nan

>  <error>  (395) 
DistanceError 5.98 Å

>  <∆∆G>  (395) 
nan

>  <∆G_bound>  (395) 
nan

>  <∆G_unbound>  (395) 
nan

>  <comRMSD>  (395) 
nan

>  <N_constrained_atoms>  (395) 
nan

>  <N_unconstrained_atoms>  (395) 
nan

>  <runtime>  (395) 
nan

>  <regarded>  (395) 
[]

>  <disregarded>  (395) 
[]

>  <LE>  (395) 
nan

>  <outcome>  (395) 
too distant

>  <percent_hybrid>  (395) 
nan

$$$$

     RDKit          2D

  0  0  0  0  0  0  0  0  0  0999 V2000
M  END
>  <smiles>  (396) 
nan

>  <error>  (396) 
DistanceError 5.96 Å

>  <∆∆G>  (396) 
nan

>  <∆G_bound>  (396) 
nan

>  <∆G_unbound>  (396) 
nan

>  <comRMSD>  (396) 
nan

>  <N_constrained_atoms>  (396) 
nan

>  <N_unconstrained_atoms>  (396) 
nan

>  <runtime>  (396) 
nan

>  <regarded>  (396) 
[]

>  <disregarded>  (396) 
[]

>  <LE>  (396) 
nan

>  <outcome>  (396) 
too distant

>  <percent_hybrid>  (396) 
nan

$$$$

     RDKit          2D

  0  0  0  0  0  0  0  0  0  0999 V2000
M  END
>  <smiles>  (397) 
nan

>  <error>  (397) 
DistanceError 5.95 Å

>  <∆∆G>  (397) 
nan

>  <∆G_bound>  (397) 
nan

>  <∆G_unbound>  (397) 
nan

>  <comRMSD>  (397) 
nan

>  <N_constrained_atoms>  (397) 
nan

>  <N_unconstrained_atoms>  (397) 
nan

>  <runtime>  (397) 
nan

>  <regarded>  (397) 
[]

>  <disregarded>  (397) 
[]

>  <LE>  (397) 
nan

>  <outcome>  (397) 
too distant

>  <percent_hybrid>  (397) 
nan

$$$$

     RDKit          2D

  0  0  0  0  0  0  0  0  0  0999 V2000
M  END
>  <smiles>  (398) 
nan

>  <error>  (398) 
DistanceError 6.98 Å

>  <∆∆G>  (398) 
nan

>  <∆G_bound>  (398) 
nan

>  <∆G_unbound>  (398) 
nan

>  <comRMSD>  (398) 
nan

>  <N_constrained_atoms>  (398) 
nan

>  <N_unconstrained_atoms>  (398) 
nan

>  <runtime>  (398) 
nan

>  <regarded>  (398) 
[]

>  <disregarded>  (398) 
[]

>  <LE>  (398) 
nan

>  <outcome>  (398) 
too distant

>  <percent_hybrid>  (398) 
nan

$$$$

     RDKit          2D

  0  0  0  0  0  0  0  0  0  0999 V2000
M  END
>  <smiles>  (399) 
nan

>  <error>  (399) 
DistanceError 6.19 Å

>  <∆∆G>  (399) 
nan

>  <∆G_bound>  (399) 
nan

>  <∆G_unbound>  (399) 
nan

>  <comRMSD>  (399) 
nan

>  <N_constrained_atoms>  (399) 
nan

>  <N_unconstrained_atoms>  (399) 
nan

>  <runtime>  (399) 
nan

>  <regarded>  (399) 
[]

>  <disregarded>  (399) 
[]

>  <LE>  (399) 
nan

>  <outcome>  (399) 
too distant

>  <percent_hybrid>  (399) 
nan

$$$$

     RDKit          2D

  0  0  0  0  0  0  0  0  0  0999 V2000
M  END
>  <smiles>  (400) 
nan

>  <error>  (400) 
DistanceError 5.86 Å

>  <∆∆G>  (400) 
nan

>  <∆G_bound>  (400) 
nan

>  <∆G_unbound>  (400) 
nan

>  <comRMSD>  (400) 
nan

>  <N_constrained_atoms>  (400) 
nan

>  <N_unconstrained_atoms>  (400) 
nan

>  <runtime>  (400) 
nan

>  <regarded>  (400) 
[]

>  <disregarded>  (400) 
[]

>  <LE>  (400) 
nan

>  <outcome>  (400) 
too distant

>  <percent_hybrid>  (400) 
nan

$$$$

     RDKit          2D

  0  0  0  0  0  0  0  0  0  0999 V2000
M  END
>  <smiles>  (401) 
nan

>  <error>  (401) 
DistanceError 6.19 Å

>  <∆∆G>  (401) 
nan

>  <∆G_bound>  (401) 
nan

>  <∆G_unbound>  (401) 
nan

>  <comRMSD>  (401) 
nan

>  <N_constrained_atoms>  (401) 
nan

>  <N_unconstrained_atoms>  (401) 
nan

>  <runtime>  (401) 
nan

>  <regarded>  (401) 
[]

>  <disregarded>  (401) 
[]

>  <LE>  (401) 
nan

>  <outcome>  (401) 
too distant

>  <percent_hybrid>  (401) 
nan

$$$$

     RDKit          2D

  0  0  0  0  0  0  0  0  0  0999 V2000
M  END
>  <smiles>  (402) 
nan

>  <error>  (402) 
DistanceError 5.69 Å

>  <∆∆G>  (402) 
nan

>  <∆G_bound>  (402) 
nan

>  <∆G_unbound>  (402) 
nan

>  <comRMSD>  (402) 
nan

>  <N_constrained_atoms>  (402) 
nan

>  <N_unconstrained_atoms>  (402) 
nan

>  <runtime>  (402) 
nan

>  <regarded>  (402) 
[]

>  <disregarded>  (402) 
[]

>  <LE>  (402) 
nan

>  <outcome>  (402) 
too distant

>  <percent_hybrid>  (402) 
nan

$$$$

     RDKit          2D

  0  0  0  0  0  0  0  0  0  0999 V2000
M  END
>  <smiles>  (403) 
nan

>  <error>  (403) 
DistanceError 5.91 Å

>  <∆∆G>  (403) 
nan

>  <∆G_bound>  (403) 
nan

>  <∆G_unbound>  (403) 
nan

>  <comRMSD>  (403) 
nan

>  <N_constrained_atoms>  (403) 
nan

>  <N_unconstrained_atoms>  (403) 
nan

>  <runtime>  (403) 
nan

>  <regarded>  (403) 
[]

>  <disregarded>  (403) 
[]

>  <LE>  (403) 
nan

>  <outcome>  (403) 
too distant

>  <percent_hybrid>  (403) 
nan

$$$$

     RDKit          2D

  0  0  0  0  0  0  0  0  0  0999 V2000
M  END
>  <smiles>  (404) 
nan

>  <error>  (404) 
DistanceError 5.94 Å

>  <∆∆G>  (404) 
nan

>  <∆G_bound>  (404) 
nan

>  <∆G_unbound>  (404) 
nan

>  <comRMSD>  (404) 
nan

>  <N_constrained_atoms>  (404) 
nan

>  <N_unconstrained_atoms>  (404) 
nan

>  <runtime>  (404) 
nan

>  <regarded>  (404) 
[]

>  <disregarded>  (404) 
[]

>  <LE>  (404) 
nan

>  <outcome>  (404) 
too distant

>  <percent_hybrid>  (404) 
nan

$$$$

     RDKit          2D

  0  0  0  0  0  0  0  0  0  0999 V2000
M  END
>  <smiles>  (405) 
nan

>  <error>  (405) 
DistanceError 6.01 Å

>  <∆∆G>  (405) 
nan

>  <∆G_bound>  (405) 
nan

>  <∆G_unbound>  (405) 
nan

>  <comRMSD>  (405) 
nan

>  <N_constrained_atoms>  (405) 
nan

>  <N_unconstrained_atoms>  (405) 
nan

>  <runtime>  (405) 
nan

>  <regarded>  (405) 
[]

>  <disregarded>  (405) 
[]

>  <LE>  (405) 
nan

>  <outcome>  (405) 
too distant

>  <percent_hybrid>  (405) 
nan

$$$$

     RDKit          2D

  0  0  0  0  0  0  0  0  0  0999 V2000
M  END
>  <smiles>  (406) 
nan

>  <error>  (406) 
DistanceError 5.92 Å

>  <∆∆G>  (406) 
nan

>  <∆G_bound>  (406) 
nan

>  <∆G_unbound>  (406) 
nan

>  <comRMSD>  (406) 
nan

>  <N_constrained_atoms>  (406) 
nan

>  <N_unconstrained_atoms>  (406) 
nan

>  <runtime>  (406) 
nan

>  <regarded>  (406) 
[]

>  <disregarded>  (406) 
[]

>  <LE>  (406) 
nan

>  <outcome>  (406) 
too distant

>  <percent_hybrid>  (406) 
nan

$$$$

     RDKit          2D

  0  0  0  0  0  0  0  0  0  0999 V2000
M  END
>  <smiles>  (407) 
nan

>  <error>  (407) 
RecursionError maximum recursion depth exceeded while calling a Python object

>  <∆∆G>  (407) 
nan

>  <∆G_bound>  (407) 
nan

>  <∆G_unbound>  (407) 
nan

>  <comRMSD>  (407) 
nan

>  <N_constrained_atoms>  (407) 
nan

>  <N_unconstrained_atoms>  (407) 
nan

>  <runtime>  (407) 
nan

>  <regarded>  (407) 
[]

>  <disregarded>  (407) 
[]

>  <LE>  (407) 
nan

>  <outcome>  (407) 
crashed

>  <percent_hybrid>  (407) 
nan

$$$$

     RDKit          2D

  0  0  0  0  0  0  0  0  0  0999 V2000
M  END
>  <smiles>  (408) 
nan

>  <error>  (408) 
RecursionError maximum recursion depth exceeded while calling a Python object

>  <∆∆G>  (408) 
nan

>  <∆G_bound>  (408) 
nan

>  <∆G_unbound>  (408) 
nan

>  <comRMSD>  (408) 
nan

>  <N_constrained_atoms>  (408) 
nan

>  <N_unconstrained_atoms>  (408) 
nan

>  <runtime>  (408) 
nan

>  <regarded>  (408) 
[]

>  <disregarded>  (408) 
[]

>  <LE>  (408) 
nan

>  <outcome>  (408) 
crashed

>  <percent_hybrid>  (408) 
nan

$$$$

     RDKit          2D

  0  0  0  0  0  0  0  0  0  0999 V2000
M  END
>  <smiles>  (409) 
nan

>  <error>  (409) 
RecursionError maximum recursion depth exceeded while calling a Python object

>  <∆∆G>  (409) 
nan

>  <∆G_bound>  (409) 
nan

>  <∆G_unbound>  (409) 
nan

>  <comRMSD>  (409) 
nan

>  <N_constrained_atoms>  (409) 
nan

>  <N_unconstrained_atoms>  (409) 
nan

>  <runtime>  (409) 
nan

>  <regarded>  (409) 
[]

>  <disregarded>  (409) 
[]

>  <LE>  (409) 
nan

>  <outcome>  (409) 
crashed

>  <percent_hybrid>  (409) 
nan

$$$$

     RDKit          2D

  0  0  0  0  0  0  0  0  0  0999 V2000
M  END
>  <smiles>  (410) 
nan

>  <error>  (410) 
RecursionError maximum recursion depth exceeded while calling a Python object

>  <∆∆G>  (410) 
nan

>  <∆G_bound>  (410) 
nan

>  <∆G_unbound>  (410) 
nan

>  <comRMSD>  (410) 
nan

>  <N_constrained_atoms>  (410) 
nan

>  <N_unconstrained_atoms>  (410) 
nan

>  <runtime>  (410) 
nan

>  <regarded>  (410) 
[]

>  <disregarded>  (410) 
[]

>  <LE>  (410) 
nan

>  <outcome>  (410) 
crashed

>  <percent_hybrid>  (410) 
nan

$$$$

     RDKit          2D

  0  0  0  0  0  0  0  0  0  0999 V2000
M  END
>  <smiles>  (411) 
nan

>  <error>  (411) 
RecursionError maximum recursion depth exceeded while calling a Python object

>  <∆∆G>  (411) 
nan

>  <∆G_bound>  (411) 
nan

>  <∆G_unbound>  (411) 
nan

>  <comRMSD>  (411) 
nan

>  <N_constrained_atoms>  (411) 
nan

>  <N_unconstrained_atoms>  (411) 
nan

>  <runtime>  (411) 
nan

>  <regarded>  (411) 
[]

>  <disregarded>  (411) 
[]

>  <LE>  (411) 
nan

>  <outcome>  (411) 
crashed

>  <percent_hybrid>  (411) 
nan

$$$$

     RDKit          2D

  0  0  0  0  0  0  0  0  0  0999 V2000
M  END
>  <smiles>  (412) 
nan

>  <error>  (412) 
RecursionError maximum recursion depth exceeded while calling a Python object

>  <∆∆G>  (412) 
nan

>  <∆G_bound>  (412) 
nan

>  <∆G_unbound>  (412) 
nan

>  <comRMSD>  (412) 
nan

>  <N_constrained_atoms>  (412) 
nan

>  <N_unconstrained_atoms>  (412) 
nan

>  <runtime>  (412) 
nan

>  <regarded>  (412) 
[]

>  <disregarded>  (412) 
[]

>  <LE>  (412) 
nan

>  <outcome>  (412) 
crashed

>  <percent_hybrid>  (412) 
nan

$$$$

     RDKit          2D

  0  0  0  0  0  0  0  0  0  0999 V2000
M  END
>  <smiles>  (413) 
nan

>  <error>  (413) 
RecursionError maximum recursion depth exceeded while calling a Python object

>  <∆∆G>  (413) 
nan

>  <∆G_bound>  (413) 
nan

>  <∆G_unbound>  (413) 
nan

>  <comRMSD>  (413) 
nan

>  <N_constrained_atoms>  (413) 
nan

>  <N_unconstrained_atoms>  (413) 
nan

>  <runtime>  (413) 
nan

>  <regarded>  (413) 
[]

>  <disregarded>  (413) 
[]

>  <LE>  (413) 
nan

>  <outcome>  (413) 
crashed

>  <percent_hybrid>  (413) 
nan

$$$$

     RDKit          2D

  0  0  0  0  0  0  0  0  0  0999 V2000
M  END
>  <smiles>  (414) 
nan

>  <error>  (414) 
RecursionError maximum recursion depth exceeded while calling a Python object

>  <∆∆G>  (414) 
nan

>  <∆G_bound>  (414) 
nan

>  <∆G_unbound>  (414) 
nan

>  <comRMSD>  (414) 
nan

>  <N_constrained_atoms>  (414) 
nan

>  <N_unconstrained_atoms>  (414) 
nan

>  <runtime>  (414) 
nan

>  <regarded>  (414) 
[]

>  <disregarded>  (414) 
[]

>  <LE>  (414) 
nan

>  <outcome>  (414) 
crashed

>  <percent_hybrid>  (414) 
nan

$$$$

     RDKit          2D

  0  0  0  0  0  0  0  0  0  0999 V2000
M  END
>  <smiles>  (415) 
nan

>  <error>  (415) 
RecursionError maximum recursion depth exceeded while calling a Python object

>  <∆∆G>  (415) 
nan

>  <∆G_bound>  (415) 
nan

>  <∆G_unbound>  (415) 
nan

>  <comRMSD>  (415) 
nan

>  <N_constrained_atoms>  (415) 
nan

>  <N_unconstrained_atoms>  (415) 
nan

>  <runtime>  (415) 
nan

>  <regarded>  (415) 
[]

>  <disregarded>  (415) 
[]

>  <LE>  (415) 
nan

>  <outcome>  (415) 
crashed

>  <percent_hybrid>  (415) 
nan

$$$$

     RDKit          2D

  0  0  0  0  0  0  0  0  0  0999 V2000
M  END
>  <smiles>  (416) 
nan

>  <error>  (416) 
RecursionError maximum recursion depth exceeded while calling a Python object

>  <∆∆G>  (416) 
nan

>  <∆G_bound>  (416) 
nan

>  <∆G_unbound>  (416) 
nan

>  <comRMSD>  (416) 
nan

>  <N_constrained_atoms>  (416) 
nan

>  <N_unconstrained_atoms>  (416) 
nan

>  <runtime>  (416) 
nan

>  <regarded>  (416) 
[]

>  <disregarded>  (416) 
[]

>  <LE>  (416) 
nan

>  <outcome>  (416) 
crashed

>  <percent_hybrid>  (416) 
nan

$$$$

     RDKit          2D

  0  0  0  0  0  0  0  0  0  0999 V2000
M  END
>  <smiles>  (417) 
nan

>  <error>  (417) 
RecursionError maximum recursion depth exceeded while calling a Python object

>  <∆∆G>  (417) 
nan

>  <∆G_bound>  (417) 
nan

>  <∆G_unbound>  (417) 
nan

>  <comRMSD>  (417) 
nan

>  <N_constrained_atoms>  (417) 
nan

>  <N_unconstrained_atoms>  (417) 
nan

>  <runtime>  (417) 
nan

>  <regarded>  (417) 
[]

>  <disregarded>  (417) 
[]

>  <LE>  (417) 
nan

>  <outcome>  (417) 
crashed

>  <percent_hybrid>  (417) 
nan

$$$$

     RDKit          2D

  0  0  0  0  0  0  0  0  0  0999 V2000
M  END
>  <smiles>  (418) 
nan

>  <error>  (418) 
RecursionError maximum recursion depth exceeded while calling a Python object

>  <∆∆G>  (418) 
nan

>  <∆G_bound>  (418) 
nan

>  <∆G_unbound>  (418) 
nan

>  <comRMSD>  (418) 
nan

>  <N_constrained_atoms>  (418) 
nan

>  <N_unconstrained_atoms>  (418) 
nan

>  <runtime>  (418) 
nan

>  <regarded>  (418) 
[]

>  <disregarded>  (418) 
[]

>  <LE>  (418) 
nan

>  <outcome>  (418) 
crashed

>  <percent_hybrid>  (418) 
nan

$$$$

     RDKit          2D

  0  0  0  0  0  0  0  0  0  0999 V2000
M  END
>  <smiles>  (419) 
nan

>  <error>  (419) 
RecursionError maximum recursion depth exceeded while calling a Python object

>  <∆∆G>  (419) 
nan

>  <∆G_bound>  (419) 
nan

>  <∆G_unbound>  (419) 
nan

>  <comRMSD>  (419) 
nan

>  <N_constrained_atoms>  (419) 
nan

>  <N_unconstrained_atoms>  (419) 
nan

>  <runtime>  (419) 
nan

>  <regarded>  (419) 
[]

>  <disregarded>  (419) 
[]

>  <LE>  (419) 
nan

>  <outcome>  (419) 
crashed

>  <percent_hybrid>  (419) 
nan

$$$$

     RDKit          2D

  0  0  0  0  0  0  0  0  0  0999 V2000
M  END
>  <smiles>  (420) 
nan

>  <error>  (420) 
RecursionError maximum recursion depth exceeded while calling a Python object

>  <∆∆G>  (420) 
nan

>  <∆G_bound>  (420) 
nan

>  <∆G_unbound>  (420) 
nan

>  <comRMSD>  (420) 
nan

>  <N_constrained_atoms>  (420) 
nan

>  <N_unconstrained_atoms>  (420) 
nan

>  <runtime>  (420) 
nan

>  <regarded>  (420) 
[]

>  <disregarded>  (420) 
[]

>  <LE>  (420) 
nan

>  <outcome>  (420) 
crashed

>  <percent_hybrid>  (420) 
nan

$$$$

     RDKit          2D

  0  0  0  0  0  0  0  0  0  0999 V2000
M  END
>  <smiles>  (421) 
nan

>  <error>  (421) 
RecursionError maximum recursion depth exceeded while calling a Python object

>  <∆∆G>  (421) 
nan

>  <∆G_bound>  (421) 
nan

>  <∆G_unbound>  (421) 
nan

>  <comRMSD>  (421) 
nan

>  <N_constrained_atoms>  (421) 
nan

>  <N_unconstrained_atoms>  (421) 
nan

>  <runtime>  (421) 
nan

>  <regarded>  (421) 
[]

>  <disregarded>  (421) 
[]

>  <LE>  (421) 
nan

>  <outcome>  (421) 
crashed

>  <percent_hybrid>  (421) 
nan

$$$$

     RDKit          2D

  0  0  0  0  0  0  0  0  0  0999 V2000
M  END
>  <smiles>  (422) 
nan

>  <error>  (422) 
RecursionError maximum recursion depth exceeded while calling a Python object

>  <∆∆G>  (422) 
nan

>  <∆G_bound>  (422) 
nan

>  <∆G_unbound>  (422) 
nan

>  <comRMSD>  (422) 
nan

>  <N_constrained_atoms>  (422) 
nan

>  <N_unconstrained_atoms>  (422) 
nan

>  <runtime>  (422) 
nan

>  <regarded>  (422) 
[]

>  <disregarded>  (422) 
[]

>  <LE>  (422) 
nan

>  <outcome>  (422) 
crashed

>  <percent_hybrid>  (422) 
nan

$$$$

     RDKit          2D

  0  0  0  0  0  0  0  0  0  0999 V2000
M  END
>  <smiles>  (423) 
nan

>  <error>  (423) 
RecursionError maximum recursion depth exceeded while calling a Python object

>  <∆∆G>  (423) 
nan

>  <∆G_bound>  (423) 
nan

>  <∆G_unbound>  (423) 
nan

>  <comRMSD>  (423) 
nan

>  <N_constrained_atoms>  (423) 
nan

>  <N_unconstrained_atoms>  (423) 
nan

>  <runtime>  (423) 
nan

>  <regarded>  (423) 
[]

>  <disregarded>  (423) 
[]

>  <LE>  (423) 
nan

>  <outcome>  (423) 
crashed

>  <percent_hybrid>  (423) 
nan

$$$$

     RDKit          2D

  0  0  0  0  0  0  0  0  0  0999 V2000
M  END
>  <smiles>  (424) 
nan

>  <error>  (424) 
RecursionError maximum recursion depth exceeded while calling a Python object

>  <∆∆G>  (424) 
nan

>  <∆G_bound>  (424) 
nan

>  <∆G_unbound>  (424) 
nan

>  <comRMSD>  (424) 
nan

>  <N_constrained_atoms>  (424) 
nan

>  <N_unconstrained_atoms>  (424) 
nan

>  <runtime>  (424) 
nan

>  <regarded>  (424) 
[]

>  <disregarded>  (424) 
[]

>  <LE>  (424) 
nan

>  <outcome>  (424) 
crashed

>  <percent_hybrid>  (424) 
nan

$$$$

     RDKit          2D

  0  0  0  0  0  0  0  0  0  0999 V2000
M  END
>  <smiles>  (425) 
nan

>  <error>  (425) 
RecursionError maximum recursion depth exceeded while calling a Python object

>  <∆∆G>  (425) 
nan

>  <∆G_bound>  (425) 
nan

>  <∆G_unbound>  (425) 
nan

>  <comRMSD>  (425) 
nan

>  <N_constrained_atoms>  (425) 
nan

>  <N_unconstrained_atoms>  (425) 
nan

>  <runtime>  (425) 
nan

>  <regarded>  (425) 
[]

>  <disregarded>  (425) 
[]

>  <LE>  (425) 
nan

>  <outcome>  (425) 
crashed

>  <percent_hybrid>  (425) 
nan

$$$$

     RDKit          2D

  0  0  0  0  0  0  0  0  0  0999 V2000
M  END
>  <smiles>  (426) 
nan

>  <error>  (426) 
RecursionError maximum recursion depth exceeded while calling a Python object

>  <∆∆G>  (426) 
nan

>  <∆G_bound>  (426) 
nan

>  <∆G_unbound>  (426) 
nan

>  <comRMSD>  (426) 
nan

>  <N_constrained_atoms>  (426) 
nan

>  <N_unconstrained_atoms>  (426) 
nan

>  <runtime>  (426) 
nan

>  <regarded>  (426) 
[]

>  <disregarded>  (426) 
[]

>  <LE>  (426) 
nan

>  <outcome>  (426) 
crashed

>  <percent_hybrid>  (426) 
nan

$$$$

     RDKit          2D

  0  0  0  0  0  0  0  0  0  0999 V2000
M  END
>  <smiles>  (427) 
nan

>  <error>  (427) 
RecursionError maximum recursion depth exceeded while calling a Python object

>  <∆∆G>  (427) 
nan

>  <∆G_bound>  (427) 
nan

>  <∆G_unbound>  (427) 
nan

>  <comRMSD>  (427) 
nan

>  <N_constrained_atoms>  (427) 
nan

>  <N_unconstrained_atoms>  (427) 
nan

>  <runtime>  (427) 
nan

>  <regarded>  (427) 
[]

>  <disregarded>  (427) 
[]

>  <LE>  (427) 
nan

>  <outcome>  (427) 
crashed

>  <percent_hybrid>  (427) 
nan

$$$$

     RDKit          2D

  0  0  0  0  0  0  0  0  0  0999 V2000
M  END
>  <smiles>  (428) 
nan

>  <error>  (428) 
RecursionError maximum recursion depth exceeded while calling a Python object

>  <∆∆G>  (428) 
nan

>  <∆G_bound>  (428) 
nan

>  <∆G_unbound>  (428) 
nan

>  <comRMSD>  (428) 
nan

>  <N_constrained_atoms>  (428) 
nan

>  <N_unconstrained_atoms>  (428) 
nan

>  <runtime>  (428) 
nan

>  <regarded>  (428) 
[]

>  <disregarded>  (428) 
[]

>  <LE>  (428) 
nan

>  <outcome>  (428) 
crashed

>  <percent_hybrid>  (428) 
nan

$$$$

     RDKit          2D

  0  0  0  0  0  0  0  0  0  0999 V2000
M  END
>  <smiles>  (429) 
nan

>  <error>  (429) 
RecursionError maximum recursion depth exceeded while calling a Python object

>  <∆∆G>  (429) 
nan

>  <∆G_bound>  (429) 
nan

>  <∆G_unbound>  (429) 
nan

>  <comRMSD>  (429) 
nan

>  <N_constrained_atoms>  (429) 
nan

>  <N_unconstrained_atoms>  (429) 
nan

>  <runtime>  (429) 
nan

>  <regarded>  (429) 
[]

>  <disregarded>  (429) 
[]

>  <LE>  (429) 
nan

>  <outcome>  (429) 
crashed

>  <percent_hybrid>  (429) 
nan

$$$$

     RDKit          2D

  0  0  0  0  0  0  0  0  0  0999 V2000
M  END
>  <smiles>  (430) 
nan

>  <error>  (430) 
RecursionError maximum recursion depth exceeded while calling a Python object

>  <∆∆G>  (430) 
nan

>  <∆G_bound>  (430) 
nan

>  <∆G_unbound>  (430) 
nan

>  <comRMSD>  (430) 
nan

>  <N_constrained_atoms>  (430) 
nan

>  <N_unconstrained_atoms>  (430) 
nan

>  <runtime>  (430) 
nan

>  <regarded>  (430) 
[]

>  <disregarded>  (430) 
[]

>  <LE>  (430) 
nan

>  <outcome>  (430) 
crashed

>  <percent_hybrid>  (430) 
nan

$$$$

     RDKit          2D

  0  0  0  0  0  0  0  0  0  0999 V2000
M  END
>  <smiles>  (431) 
nan

>  <error>  (431) 
RecursionError maximum recursion depth exceeded while calling a Python object

>  <∆∆G>  (431) 
nan

>  <∆G_bound>  (431) 
nan

>  <∆G_unbound>  (431) 
nan

>  <comRMSD>  (431) 
nan

>  <N_constrained_atoms>  (431) 
nan

>  <N_unconstrained_atoms>  (431) 
nan

>  <runtime>  (431) 
nan

>  <regarded>  (431) 
[]

>  <disregarded>  (431) 
[]

>  <LE>  (431) 
nan

>  <outcome>  (431) 
crashed

>  <percent_hybrid>  (431) 
nan

$$$$

     RDKit          2D

  0  0  0  0  0  0  0  0  0  0999 V2000
M  END
>  <smiles>  (432) 
nan

>  <error>  (432) 
RecursionError maximum recursion depth exceeded while calling a Python object

>  <∆∆G>  (432) 
nan

>  <∆G_bound>  (432) 
nan

>  <∆G_unbound>  (432) 
nan

>  <comRMSD>  (432) 
nan

>  <N_constrained_atoms>  (432) 
nan

>  <N_unconstrained_atoms>  (432) 
nan

>  <runtime>  (432) 
nan

>  <regarded>  (432) 
[]

>  <disregarded>  (432) 
[]

>  <LE>  (432) 
nan

>  <outcome>  (432) 
crashed

>  <percent_hybrid>  (432) 
nan

$$$$

     RDKit          2D

  0  0  0  0  0  0  0  0  0  0999 V2000
M  END
>  <smiles>  (433) 
nan

>  <error>  (433) 
RecursionError maximum recursion depth exceeded while calling a Python object

>  <∆∆G>  (433) 
nan

>  <∆G_bound>  (433) 
nan

>  <∆G_unbound>  (433) 
nan

>  <comRMSD>  (433) 
nan

>  <N_constrained_atoms>  (433) 
nan

>  <N_unconstrained_atoms>  (433) 
nan

>  <runtime>  (433) 
nan

>  <regarded>  (433) 
[]

>  <disregarded>  (433) 
[]

>  <LE>  (433) 
nan

>  <outcome>  (433) 
crashed

>  <percent_hybrid>  (433) 
nan

$$$$

     RDKit          2D

  0  0  0  0  0  0  0  0  0  0999 V2000
M  END
>  <smiles>  (434) 
nan

>  <error>  (434) 
RecursionError maximum recursion depth exceeded while calling a Python object

>  <∆∆G>  (434) 
nan

>  <∆G_bound>  (434) 
nan

>  <∆G_unbound>  (434) 
nan

>  <comRMSD>  (434) 
nan

>  <N_constrained_atoms>  (434) 
nan

>  <N_unconstrained_atoms>  (434) 
nan

>  <runtime>  (434) 
nan

>  <regarded>  (434) 
[]

>  <disregarded>  (434) 
[]

>  <LE>  (434) 
nan

>  <outcome>  (434) 
crashed

>  <percent_hybrid>  (434) 
nan

$$$$

     RDKit          2D

  0  0  0  0  0  0  0  0  0  0999 V2000
M  END
>  <smiles>  (435) 
nan

>  <error>  (435) 
RecursionError maximum recursion depth exceeded while calling a Python object

>  <∆∆G>  (435) 
nan

>  <∆G_bound>  (435) 
nan

>  <∆G_unbound>  (435) 
nan

>  <comRMSD>  (435) 
nan

>  <N_constrained_atoms>  (435) 
nan

>  <N_unconstrained_atoms>  (435) 
nan

>  <runtime>  (435) 
nan

>  <regarded>  (435) 
[]

>  <disregarded>  (435) 
[]

>  <LE>  (435) 
nan

>  <outcome>  (435) 
crashed

>  <percent_hybrid>  (435) 
nan

$$$$

     RDKit          2D

  0  0  0  0  0  0  0  0  0  0999 V2000
M  END
>  <smiles>  (436) 
nan

>  <error>  (436) 
DistanceError 9.64 Å

>  <∆∆G>  (436) 
nan

>  <∆G_bound>  (436) 
nan

>  <∆G_unbound>  (436) 
nan

>  <comRMSD>  (436) 
nan

>  <N_constrained_atoms>  (436) 
nan

>  <N_unconstrained_atoms>  (436) 
nan

>  <runtime>  (436) 
nan

>  <regarded>  (436) 
[]

>  <disregarded>  (436) 
[]

>  <LE>  (436) 
nan

>  <outcome>  (436) 
too distant

>  <percent_hybrid>  (436) 
nan

$$$$
LIG
     RDKit          3D

 25 27  0  0  0  0  0  0  0  0999 V2000
  -13.3507  -44.2208  -19.8787 N   0  0  0  0  0  0  0  0  0  0  0  0
  -13.0851  -43.1917  -20.3491 C   0  0  0  0  0  0  0  0  0  0  0  0
  -15.2993  -43.3493  -22.9698 C   0  0  0  0  0  0  0  0  0  0  0  0
  -12.9617  -41.9179  -20.9764 C   0  0  0  0  0  0  0  0  0  0  0  0
  -13.7528  -41.6116  -21.9990 C   0  0  0  0  0  0  0  0  0  0  0  0
  -13.3785  -40.2735  -22.3426 C   0  0  0  0  0  0  0  0  0  0  0  0
  -12.3135  -39.9058  -21.4047 C   0  0  0  0  0  0  0  0  0  0  0  0
  -12.0704  -40.8996  -20.6033 N   0  0  0  0  0  0  0  0  0  0  0  0
  -14.7482  -41.9739  -22.9259 C   0  0  0  0  0  0  0  0  0  0  0  0
  -14.0322  -39.7848  -23.3537 N   0  0  0  0  0  0  0  0  0  0  0  0
  -14.8861  -40.8675  -23.7064 C   0  0  0  0  0  0  0  0  0  0  0  0
  -17.0650  -41.3411  -24.8323 C   0  0  0  0  0  0  0  0  0  0  0  0
  -15.7681  -40.8189  -24.8860 C   0  0  0  0  0  0  0  0  0  0  0  0
  -15.3270  -40.2908  -26.0982 C   0  0  0  0  0  0  0  0  0  0  0  0
  -16.1645  -40.3769  -27.2026 C   0  0  0  0  0  0  0  0  0  0  0  0
  -17.4003  -40.9251  -27.1820 N   0  0  0  0  0  0  0  0  0  0  0  0
  -17.8264  -41.3777  -25.9878 C   0  0  0  0  0  0  0  0  0  0  0  0
  -15.9934  -43.5123  -22.1392 H   0  0  0  0  0  0  0  0  0  0  0  0
  -15.8282  -43.5617  -23.9025 H   0  0  0  0  0  0  0  0  0  0  0  0
  -14.4979  -44.0932  -22.8990 H   0  0  0  0  0  0  0  0  0  0  0  0
  -11.8418  -38.9160  -21.4504 H   0  0  0  0  0  0  0  0  0  0  0  0
  -17.4850  -41.7222  -23.9077 H   0  0  0  0  0  0  0  0  0  0  0  0
  -14.3401  -39.8502  -26.1966 H   0  0  0  0  0  0  0  0  0  0  0  0
  -15.8526  -40.0080  -28.1736 H   0  0  0  0  0  0  0  0  0  0  0  0
  -18.8342  -41.7821  -25.9783 H   0  0  0  0  0  0  0  0  0  0  0  0
  2  1  3  0
  4  2  1  0
  4  5  2  0
  4  8  1  0
  5  6  1  0
  6  7  1  0
  7  8  2  0
  9  3  1  0
  9 11  2  0
 10 11  1  0
 11 13  1  0
 12 17  2  0
 12 13  1  0
 13 14  2  0
 14 15  1  0
 15 16  2  0
 16 17  1  0
  5  9  1  0
  6 10  2  0
  3 18  1  0
  3 19  1  0
  3 20  1  0
  7 21  1  0
 12 22  1  0
 14 23  1  0
 15 24  1  0
 17 25  1  0
M  END
>  <smiles>  (437) 
[H]C1=NC(C#N)=C2C1=NC(c1c([H])c([H])nc([H])c1[H])=C2C([H])([H])[H]

>  <error>  (437) 


>  <∆∆G>  (437) 
-24.642396

>  <∆G_bound>  (437) 
229.983164

>  <∆G_unbound>  (437) 
254.625559

>  <comRMSD>  (437) 
0.709206

>  <N_constrained_atoms>  (437) 
17.0

>  <N_unconstrained_atoms>  (437) 
0.0

>  <runtime>  (437) 
0.681252

>  <regarded>  (437) 
['z0875c', 'd0160a']

>  <disregarded>  (437) 
[]

>  <LE>  (437) 
1.449553

>  <outcome>  (437) 
acceptable

>  <percent_hybrid>  (437) 
42.0

$$$$
LIG
     RDKit          3D

  0  0  0  0  0  0  0  0  0  0999 V3000
M  V30 BEGIN CTAB
M  V30 COUNTS 32 34 0 0 0
M  V30 BEGIN ATOM
M  V30 1 N -13.297000 -44.498001 -20.850000 0
M  V30 2 C -12.948000 -43.432999 -21.100000 0
M  V30 3 C -12.567000 -42.085999 -21.440001 0
M  V30 4 C -13.246000 -41.202000 -22.230000 0
M  V30 5 N -12.548000 -40.040001 -22.191999 0
M  V30 6 C -11.474000 -40.242001 -21.403000 0
M  V30 7 N -11.428000 -41.477001 -20.927000 0
M  V30 8 C -15.248000 -40.036999 -26.167000 0
M  V30 9 C -14.724000 -41.629002 -24.274000 0
M  V30 10 C -15.198000 -42.825001 -23.830999 0
M  V30 11 C -16.190001 -43.247002 -24.733000 0
M  V30 12 C -16.294001 -42.299000 -25.702000 0
M  V30 13 N -15.398000 -41.293999 -25.423000 0
M  V30 14 C -17.406000 -38.859001 -26.754000 0
M  V30 15 C -16.355000 -39.054001 -25.875000 0
M  V30 16 C -16.341000 -38.275002 -24.731001 0
M  V30 17 C -17.327999 -37.328999 -24.525999 0
M  V30 18 C -18.322001 -37.206001 -25.469999 0
M  V30 19 N -18.382999 -37.960999 -26.572001 0
M  V30 20 N -13.985001 -41.415501 -23.251999 0
M  V30 21 H -10.722527 -39.470219 -21.180201 0
M  V30 22 H -14.287182 -39.577408 -25.892035 0
M  V30 23 H -15.290560 -40.277637 -27.239511 0
M  V30 24 H -14.865563 -43.363384 -22.931206 0
M  V30 25 H -16.775831 -44.175674 -24.666897 0
M  V30 26 H -16.978371 -42.330608 -26.562603 0
M  V30 27 H -17.441278 -39.481430 -27.660278 0
M  V30 28 H -15.544135 -38.408703 -23.984589 0
M  V30 29 H -17.319143 -36.690296 -23.630466 0
M  V30 30 H -19.104530 -36.449635 -25.310135 0
M  V30 31 H -13.185000 -40.615501 -22.452000 0
M  V30 32 H -12.793221 -39.164780 -22.676517 0
M  V30 END ATOM
M  V30 BEGIN BOND
M  V30 1 3 2 1
M  V30 2 1 3 2
M  V30 3 2 3 4
M  V30 4 1 3 7
M  V30 5 1 4 5
M  V30 6 1 5 6
M  V30 7 2 6 7
M  V30 8 2 9 10
M  V30 9 1 9 13
M  V30 10 1 10 11
M  V30 11 2 11 12
M  V30 12 1 12 13
M  V30 13 1 13 8
M  V30 14 2 14 19
M  V30 15 1 14 15
M  V30 16 1 15 8
M  V30 17 2 15 16
M  V30 18 1 16 17
M  V30 19 2 17 18
M  V30 20 1 18 19
M  V30 21 1 20 4
M  V30 22 1 20 9
M  V30 23 1 6 21
M  V30 24 1 8 22
M  V30 25 1 8 23
M  V30 26 1 10 24
M  V30 27 1 11 25
M  V30 28 1 12 26
M  V30 29 1 14 27
M  V30 30 1 16 28
M  V30 31 1 17 29
M  V30 32 1 18 30
M  V30 33 1 20 31
M  V30 34 1 5 32
M  V30 END BOND
M  V30 BEGIN COLLECTION
M  V30 MDLV30/STEABS ATOMS=(0)
M  V30 END COLLECTION
M  V30 END CTAB
M  END
>  <smiles>  (438) 
[H]c1nc(C#N)c(N([H])c2c([H])c([H])c([H])n2C([H])([H])c2c([H])nc([H])c([H])c2[H])[nH]1

>  <error>  (438) 


>  <∆∆G>  (438) 
nan

>  <∆G_bound>  (438) 
nan

>  <∆G_unbound>  (438) 
nan

>  <comRMSD>  (438) 
0.0

>  <N_constrained_atoms>  (438) 
19.0

>  <N_unconstrained_atoms>  (438) 
1.0

>  <runtime>  (438) 
0.914994

>  <regarded>  (438) 
['z0875c', 'd0191a']

>  <disregarded>  (438) 
[]

>  <LE>  (438) 
nan

>  <outcome>  (438) 
crashed

>  <percent_hybrid>  (438) 
37.0

$$$$
LIG
     RDKit          3D

 45 47  0  0  0  0  0  0  0  0999 V2000
  -13.8772  -43.6259  -20.4427 C   0  0  0  0  0  0  0  0  0  0  0  0
  -13.3908  -42.5932  -20.8117 C   0  0  0  0  0  0  0  0  0  0  0  0
  -12.8621  -41.3086  -21.1020 C   0  0  0  0  0  0  0  0  0  0  0  0
  -13.5691  -40.1997  -21.4937 C   0  0  0  0  0  0  0  0  0  0  0  0
  -12.6456  -39.1961  -21.5479 N   0  0  0  0  0  0  0  0  0  0  0  0
  -11.4470  -39.7198  -21.1565 C   0  0  0  0  0  0  0  0  0  0  0  0
  -11.5410  -41.0061  -20.9079 N   0  0  0  0  0  0  0  0  0  0  0  0
  -18.7164  -45.2860  -23.5244 O   0  0  0  0  0  0  0  0  0  0  0  0
  -17.9781  -44.9091  -22.6979 C   0  0  0  0  0  0  0  0  0  0  0  0
  -16.9244  -43.7715  -22.7344 N   0  0  0  0  0  0  0  0  0  0  0  0
  -15.4195  -40.0299  -26.6245 C   0  0  0  0  0  0  0  0  0  0  0  0
  -16.8224  -44.9892  -20.4259 N   0  0  0  0  0  0  0  0  0  0  0  0
  -17.3257  -45.1678  -19.0613 C   0  0  0  0  0  0  0  0  0  0  0  0
  -18.8095  -44.9215  -19.2085 C   0  0  0  0  0  0  0  0  0  0  0  0
  -19.1547  -45.5588  -20.5417 C   0  0  0  0  0  0  0  0  0  0  0  0
  -17.8395  -45.6190  -21.3192 C   0  0  1  0  0  0  0  0  0  0  0  0
  -17.4071  -42.7318  -24.8545 C   0  0  0  0  0  0  0  0  0  0  0  0
  -16.6414  -42.8489  -23.7108 C   0  0  0  0  0  0  0  0  0  0  0  0
  -15.5477  -42.1024  -23.4793 N   0  0  0  0  0  0  0  0  0  0  0  0
  -15.1667  -41.2438  -24.4475 C   0  0  0  0  0  0  0  0  0  0  0  0
  -15.8630  -41.0480  -25.6268 C   0  0  0  0  0  0  0  0  0  0  0  0
  -17.0225  -41.7965  -25.8111 C   0  0  0  0  0  0  0  0  0  0  0  0
  -14.3788  -44.8440  -19.8192 C   0  0  0  0  0  0  0  0  0  0  0  0
  -15.4804  -45.5721  -20.5999 C   0  0  0  0  0  0  0  0  0  0  0  0
  -14.6186  -40.0448  -21.6986 H   0  0  0  0  0  0  0  0  0  0  0  0
  -10.5518  -39.1182  -21.0699 H   0  0  0  0  0  0  0  0  0  0  0  0
  -16.3981  -43.7691  -21.8669 H   0  0  0  0  0  0  0  0  0  0  0  0
  -15.8918  -39.0654  -26.4144 H   0  0  0  0  0  0  0  0  0  0  0  0
  -14.3328  -39.9013  -26.6029 H   0  0  0  0  0  0  0  0  0  0  0  0
  -15.6904  -40.3416  -27.6389 H   0  0  0  0  0  0  0  0  0  0  0  0
  -17.1535  -46.1882  -18.6965 H   0  0  0  0  0  0  0  0  0  0  0  0
  -16.8836  -44.4576  -18.3568 H   0  0  0  0  0  0  0  0  0  0  0  0
  -19.3901  -45.3480  -18.3853 H   0  0  0  0  0  0  0  0  0  0  0  0
  -19.0148  -43.8446  -19.2473 H   0  0  0  0  0  0  0  0  0  0  0  0
  -19.5258  -46.5765  -20.3725 H   0  0  0  0  0  0  0  0  0  0  0  0
  -19.9431  -44.9919  -21.0473 H   0  0  0  0  0  0  0  0  0  0  0  0
  -17.5838  -46.6683  -21.5193 H   0  0  0  0  0  0  0  0  0  0  0  0
  -18.2962  -43.3290  -25.0069 H   0  0  0  0  0  0  0  0  0  0  0  0
  -14.2545  -40.6949  -24.2401 H   0  0  0  0  0  0  0  0  0  0  0  0
  -17.6307  -41.6524  -26.6963 H   0  0  0  0  0  0  0  0  0  0  0  0
  -13.5227  -45.5092  -19.7468 H   0  0  0  0  0  0  0  0  0  0  0  0
  -14.6880  -44.6398  -18.7895 H   0  0  0  0  0  0  0  0  0  0  0  0
  -15.2142  -45.5765  -21.6635 H   0  0  0  0  0  0  0  0  0  0  0  0
  -15.4988  -46.6232  -20.2810 H   0  0  0  0  0  0  0  0  0  0  0  0
  -12.8207  -38.2242  -21.7605 H   0  0  0  0  0  0  0  0  0  0  0  0
  2  1  3  0
  3  2  1  0
  3  4  2  0
  3  7  1  0
  4  5  1  0
  5  6  1  0
  6  7  2  0
 10  9  1  0
  9  8  2  0
 12 13  1  0
 12 16  1  0
 13 14  1  0
 14 15  1  0
 15 16  1  0
 16  9  1  0
 17 22  2  0
 17 18  1  0
 18 10  1  0
 18 19  2  0
 19 20  1  0
 20 21  2  0
 21 11  1  0
 21 22  1  0
 23  1  1  0
 24 23  1  0
 24 12  1  0
  4 25  1  0
  6 26  1  0
 10 27  1  0
 11 28  1  0
 11 29  1  0
 11 30  1  0
 13 31  1  0
 13 32  1  0
 14 33  1  0
 14 34  1  0
 15 35  1  0
 15 36  1  0
 16 37  1  6
 17 38  1  0
 20 39  1  0
 22 40  1  0
 23 41  1  0
 23 42  1  0
 24 43  1  0
 24 44  1  0
  5 45  1  0
M  END
>  <smiles>  (439) 
[H]c1nc(C#CC([H])([H])C([H])([H])N2C([H])([H])C([H])([H])C([H])([H])[C@@]2([H])C(=O)N([H])c2nc([H])c(C([H])([H])[H])c([H])c2[H])c([H])[nH]1

>  <error>  (439) 


>  <∆∆G>  (439) 
-65.704169

>  <∆G_bound>  (439) 
54.297648

>  <∆G_unbound>  (439) 
120.001818

>  <comRMSD>  (439) 
0.767749

>  <N_constrained_atoms>  (439) 
22.0

>  <N_unconstrained_atoms>  (439) 
2.0

>  <runtime>  (439) 
3.684757

>  <regarded>  (439) 
['z0875c', 'd0254a']

>  <disregarded>  (439) 
[]

>  <LE>  (439) 
2.737674

>  <outcome>  (439) 
acceptable

>  <percent_hybrid>  (439) 
32.0

$$$$

     RDKit          2D

  0  0  0  0  0  0  0  0  0  0999 V2000
M  END
>  <smiles>  (440) 
nan

>  <error>  (440) 
DistanceError 5.08 Å

>  <∆∆G>  (440) 
nan

>  <∆G_bound>  (440) 
nan

>  <∆G_unbound>  (440) 
nan

>  <comRMSD>  (440) 
nan

>  <N_constrained_atoms>  (440) 
nan

>  <N_unconstrained_atoms>  (440) 
nan

>  <runtime>  (440) 
nan

>  <regarded>  (440) 
[]

>  <disregarded>  (440) 
[]

>  <LE>  (440) 
nan

>  <outcome>  (440) 
too distant

>  <percent_hybrid>  (440) 
nan

$$$$
LIG
     RDKit          3D

 33 35  0  0  0  0  0  0  0  0999 V2000
  -12.4722  -43.5901  -20.4980 N   0  0  0  0  0  0  0  0  0  0  0  0
  -13.4568  -42.8765  -21.2805 C   0  0  0  0  0  0  0  0  0  0  0  0
  -13.1844  -41.4076  -21.2626 C   0  0  0  0  0  0  0  0  0  0  0  0
  -13.9570  -40.3638  -21.7254 C   0  0  0  0  0  0  0  0  0  0  0  0
  -13.1720  -39.2512  -21.6186 N   0  0  0  0  0  0  0  0  0  0  0  0
  -11.9584  -39.6379  -21.1297 C   0  0  0  0  0  0  0  0  0  0  0  0
  -11.9193  -40.9316  -20.9229 N   0  0  0  0  0  0  0  0  0  0  0  0
  -15.4839  -44.0605  -22.8099 N   0  0  0  0  0  0  0  0  0  0  0  0
  -15.7149  -43.9425  -21.4160 C   0  0  0  0  0  0  0  0  0  0  0  0
  -16.5595  -44.7823  -20.6705 C   0  0  0  0  0  0  0  0  0  0  0  0
  -16.5539  -44.8900  -19.3096 N   0  0  0  0  0  0  0  0  0  0  0  0
  -15.7511  -44.0566  -18.6299 C   0  0  0  0  0  0  0  0  0  0  0  0
  -14.8750  -43.1973  -19.2476 C   0  0  0  0  0  0  0  0  0  0  0  0
  -14.7745  -43.2320  -20.6547 C   0  0  0  0  0  0  0  0  0  0  0  0
  -18.1292  -45.4539  -22.5020 C   0  0  0  0  0  0  0  0  0  0  0  0
  -18.6250  -46.6544  -22.9416 C   0  0  0  0  0  0  0  0  0  0  0  0
  -18.3875  -47.5950  -21.9217 C   0  0  0  0  0  0  0  0  0  0  0  0
  -17.6928  -46.9611  -20.9206 C   0  0  0  0  0  0  0  0  0  0  0  0
  -17.4236  -45.6777  -21.3402 N   0  0  0  0  0  0  0  0  0  0  0  0
  -14.9605  -40.3311  -22.1267 H   0  0  0  0  0  0  0  0  0  0  0  0
  -11.1504  -38.9404  -20.9515 H   0  0  0  0  0  0  0  0  0  0  0  0
  -16.2675  -44.3810  -23.3627 H   0  0  0  0  0  0  0  0  0  0  0  0
  -14.7192  -44.7215  -22.9772 H   0  0  0  0  0  0  0  0  0  0  0  0
  -15.8066  -44.1289  -17.5475 H   0  0  0  0  0  0  0  0  0  0  0  0
  -14.1552  -42.6419  -18.6525 H   0  0  0  0  0  0  0  0  0  0  0  0
  -18.2055  -44.4658  -22.9338 H   0  0  0  0  0  0  0  0  0  0  0  0
  -19.1364  -46.8289  -23.8801 H   0  0  0  0  0  0  0  0  0  0  0  0
  -18.6805  -48.6304  -21.9457 H   0  0  0  0  0  0  0  0  0  0  0  0
  -17.2939  -47.3228  -19.9847 H   0  0  0  0  0  0  0  0  0  0  0  0
  -11.7455  -42.9000  -20.2745 H   0  0  0  0  0  0  0  0  0  0  0  0
  -11.9956  -44.2107  -21.1717 H   0  0  0  0  0  0  0  0  0  0  0  0
  -13.3722  -43.1988  -22.3200 H   0  0  0  0  0  0  0  0  0  0  0  0
  -13.4410  -38.3069  -21.8551 H   0  0  0  0  0  0  0  0  0  0  0  0
  2  1  1  0
  3  2  1  0
  3  4  2  0
  3  7  1  0
  4  5  1  0
  5  6  1  0
  6  7  2  0
  9  8  1  0
  9 14  2  0
  9 10  1  0
 10 11  2  0
 10 19  1  0
 11 12  1  0
 12 13  2  0
 13 14  1  0
 15 16  2  0
 15 19  1  0
 16 17  1  0
 17 18  2  0
 18 19  1  0
  2 14  1  0
  4 20  1  0
  6 21  1  0
  8 22  1  0
  8 23  1  0
 12 24  1  0
 13 25  1  0
 15 26  1  0
 16 27  1  0
 17 28  1  0
 18 29  1  0
  1 30  1  0
  1 31  1  0
  2 32  1  0
  5 33  1  0
M  END
>  <smiles>  (441) 
[H]c1nc(C(N)c2c([H])c([H])nc(-n3c([H])c([H])c([H])c3[H])c2N([H])[H])c([H])[nH]1

>  <error>  (441) 


>  <∆∆G>  (441) 
-55.198554

>  <∆G_bound>  (441) 
83.719973

>  <∆G_unbound>  (441) 
138.918527

>  <comRMSD>  (441) 
1.08008

>  <N_constrained_atoms>  (441) 
19.0

>  <N_unconstrained_atoms>  (441) 
0.0

>  <runtime>  (441) 
0.894829

>  <regarded>  (441) 
['z0875c', 'd0472a']

>  <disregarded>  (441) 
[]

>  <LE>  (441) 
2.905187

>  <outcome>  (441) 
too moved

>  <percent_hybrid>  (441) 
37.0

$$$$
LIG
     RDKit          3D

 46 48  0  0  0  0  0  0  0  0999 V2000
  -13.3510  -44.5068  -20.0774 N   0  0  0  0  0  0  0  0  0  0  0  0
  -17.2275  -40.1088  -26.8931 C   0  0  0  0  0  0  0  0  0  0  0  0
  -17.7191  -39.1276  -27.3139 O   0  0  0  0  0  0  0  0  0  0  0  0
  -16.7171  -41.2807  -27.5881 N   0  0  0  0  0  0  0  0  0  0  0  0
  -14.2438  -41.3774  -20.6681 C   0  0  2  0  0  0  0  0  0  0  0  0
  -14.1872  -39.8949  -20.2679 C   0  0  0  0  0  0  0  0  0  0  0  0
  -12.7627  -39.6704  -20.0058 N   0  0  0  0  0  0  0  0  0  0  0  0
  -12.1182  -40.4071  -21.0730 C   0  0  0  0  0  0  0  0  0  0  0  0
  -12.9640  -41.5474  -21.3947 N   0  0  0  0  0  0  0  0  0  0  0  0
  -14.5172  -43.7760  -19.6212 C   0  0  2  0  0  0  0  0  0  0  0  0
  -15.6815  -44.0340  -20.5767 C   0  0  0  0  0  0  0  0  0  0  0  0
  -15.6022  -43.1997  -21.8531 C   0  0  0  0  0  0  0  0  0  0  0  0
  -15.5471  -41.6977  -21.4962 C   0  0  2  0  0  0  0  0  0  0  0  0
  -14.2529  -42.2788  -19.3930 C   0  0  0  0  0  0  0  0  0  0  0  0
  -15.0661  -40.9394  -23.8410 C   0  0  0  0  0  0  0  0  0  0  0  0
  -15.8531  -40.7863  -22.6215 N   0  0  0  0  0  0  0  0  0  0  0  0
  -17.2718  -40.7901  -22.9682 C   0  0  0  0  0  0  0  0  0  0  0  0
  -17.5083  -39.9493  -24.2262 C   0  0  0  0  0  0  0  0  0  0  0  0
  -17.0373  -40.5520  -25.5207 N   0  0  0  0  0  0  0  0  0  0  0  0
  -15.6665  -40.0703  -24.9902 C   0  0  0  0  0  0  0  0  0  0  0  0
  -12.5222  -44.3085  -19.5185 H   0  0  0  0  0  0  0  0  0  0  0  0
  -13.0900  -44.3178  -21.0497 H   0  0  0  0  0  0  0  0  0  0  0  0
  -16.4615  -42.0033  -26.8913 H   0  0  0  0  0  0  0  0  0  0  0  0
  -16.2480  -41.9018  -26.9055 H   0  0  0  0  0  0  0  0  0  0  0  0
  -14.5039  -39.2179  -21.0694 H   0  0  0  0  0  0  0  0  0  0  0  0
  -14.7869  -39.6665  -19.3808 H   0  0  0  0  0  0  0  0  0  0  0  0
  -12.5122  -40.1164  -19.1266 H   0  0  0  0  0  0  0  0  0  0  0  0
  -12.0111  -39.7708  -21.9583 H   0  0  0  0  0  0  0  0  0  0  0  0
  -11.1146  -40.7263  -20.7734 H   0  0  0  0  0  0  0  0  0  0  0  0
  -12.4958  -42.3990  -21.0861 H   0  0  0  0  0  0  0  0  0  0  0  0
  -14.7836  -44.2115  -18.6502 H   0  0  0  0  0  0  0  0  0  0  0  0
  -15.7420  -45.0988  -20.8362 H   0  0  0  0  0  0  0  0  0  0  0  0
  -16.6208  -43.7994  -20.0583 H   0  0  0  0  0  0  0  0  0  0  0  0
  -14.7309  -43.4959  -22.4485 H   0  0  0  0  0  0  0  0  0  0  0  0
  -16.4848  -43.4362  -22.4560 H   0  0  0  0  0  0  0  0  0  0  0  0
  -16.3620  -41.5208  -20.7761 H   0  0  0  0  0  0  0  0  0  0  0  0
  -15.0489  -41.9120  -18.7285 H   0  0  0  0  0  0  0  0  0  0  0  0
  -13.3264  -42.1591  -18.8152 H   0  0  0  0  0  0  0  0  0  0  0  0
  -15.0420  -41.9808  -24.1823 H   0  0  0  0  0  0  0  0  0  0  0  0
  -14.0384  -40.6100  -23.6691 H   0  0  0  0  0  0  0  0  0  0  0  0
  -17.6505  -41.8012  -23.1544 H   0  0  0  0  0  0  0  0  0  0  0  0
  -17.8551  -40.3636  -22.1438 H   0  0  0  0  0  0  0  0  0  0  0  0
  -18.6008  -39.9648  -24.3687 H   0  0  0  0  0  0  0  0  0  0  0  0
  -17.3410  -38.8648  -24.1096 H   0  0  0  0  0  0  0  0  0  0  0  0
  -14.9785  -40.2295  -25.8359 H   0  0  0  0  0  0  0  0  0  0  0  0
  -15.5774  -38.9804  -24.8420 H   0  0  0  0  0  0  0  0  0  0  0  0
  4  2  1  0
  3  2  2  0
  5  6  1  0
  5  9  1  1
  6  7  1  0
  7  8  1  0
  8  9  1  0
 10 14  1  0
 10 11  1  0
 11 12  1  0
 12 13  1  0
 13 16  1  0
 15 20  1  0
 15 16  1  0
 16 17  1  0
 17 18  1  0
 18 19  1  0
 19  2  1  0
 19 20  1  0
  5 13  1  0
  5 14  1  0
  1 10  1  0
  1 21  1  0
  1 22  1  0
  4 23  1  0
  4 24  1  0
  6 25  1  0
  6 26  1  0
  7 27  1  0
  8 28  1  0
  8 29  1  0
  9 30  1  0
 10 31  1  1
 11 32  1  0
 11 33  1  0
 12 34  1  0
 12 35  1  0
 13 36  1  1
 14 37  1  0
 14 38  1  0
 15 39  1  0
 15 40  1  0
 17 41  1  0
 17 42  1  0
 18 43  1  0
 18 44  1  0
 20 45  1  0
 20 46  1  0
M  END
>  <smiles>  (442) 
[H]N([H])C(=O)N1C([H])([H])C([H])([H])N([C@@]2([H])C([H])([H])C([H])([H])[C@@]([H])(N([H])[H])C([H])([H])[C@]23N([H])C([H])([H])N([H])C3([H])[H])C([H])([H])C1([H])[H]

>  <error>  (442) 


>  <∆∆G>  (442) 
104.062635

>  <∆G_bound>  (442) 
313.949245

>  <∆G_unbound>  (442) 
209.88661

>  <comRMSD>  (442) 
1.672524

>  <N_constrained_atoms>  (442) 
20.0

>  <N_unconstrained_atoms>  (442) 
0.0

>  <runtime>  (442) 
4.52866

>  <regarded>  (442) 
['z0875c', 'd0612a']

>  <disregarded>  (442) 
[]

>  <LE>  (442) 
-5.203132

>  <outcome>  (442) 
too moved

>  <percent_hybrid>  (442) 
30.0

$$$$
LIG
     RDKit          3D

  0  0  0  0  0  0  0  0  0  0999 V3000
M  V30 BEGIN CTAB
M  V30 COUNTS 35 37 0 0 0
M  V30 BEGIN ATOM
M  V30 1 N -13.297000 -44.498001 -20.850000 0
M  V30 2 C -12.948000 -43.432999 -21.100000 0
M  V30 3 C -12.567000 -42.085999 -21.440001 0
M  V30 4 C -13.246000 -41.202000 -22.230000 0
M  V30 5 N -12.548000 -40.040001 -22.191999 0
M  V30 6 C -11.474000 -40.242001 -21.403000 0
M  V30 7 N -11.428000 -41.477001 -20.927000 0
M  V30 8 F -18.671000 -43.808998 -24.667000 0
M  V30 9 N -14.914000 -40.875000 -24.797001 0
M  V30 10 C -15.278000 -40.210999 -26.035999 0
M  V30 11 C -18.740000 -36.407001 -24.548000 0
M  V30 12 C -17.525000 -43.327000 -24.115999 0
M  V30 13 C -16.809000 -42.383999 -24.802999 0
M  V30 14 C -15.659000 -41.882999 -24.202999 0
M  V30 15 C -15.299000 -42.398998 -22.957001 0
M  V30 16 N -16.009001 -43.330002 -22.305000 0
M  V30 17 C -17.125000 -43.785000 -22.886000 0
M  V30 18 C -17.368999 -38.930000 -26.771000 0
M  V30 19 N -18.275000 -37.955002 -26.407000 0
M  V30 20 C -17.968000 -37.487000 -25.233000 0
M  V30 21 S -16.566000 -38.206001 -24.499001 0
M  V30 22 C -16.382999 -39.214001 -25.896000 0
M  V30 23 N -14.272500 -41.800499 -22.593500 0
M  V30 24 H -10.722527 -39.470219 -21.180201 0
M  V30 25 H -14.045981 -40.578121 -24.328699 0
M  V30 26 H -14.389636 -39.689297 -26.421532 0
M  V30 27 H -15.642880 -40.993107 -26.718033 0
M  V30 28 H -18.652939 -36.528793 -23.458237 0
M  V30 29 H -18.337093 -35.426186 -24.840683 0
M  V30 30 H -19.798428 -36.470768 -24.840683 0
M  V30 31 H -17.132032 -42.034840 -25.794834 0
M  V30 32 H -17.733498 -44.540707 -22.367695 0
M  V30 33 H -17.447775 -39.453907 -27.735010 0
M  V30 34 H -13.442500 -40.970497 -21.763500 0
M  V30 35 H -12.793221 -39.164780 -22.676517 0
M  V30 END ATOM
M  V30 BEGIN BOND
M  V30 1 3 2 1
M  V30 2 1 3 2
M  V30 3 2 3 4
M  V30 4 1 3 7
M  V30 5 1 4 5
M  V30 6 1 5 6
M  V30 7 2 6 7
M  V30 8 1 10 9
M  V30 9 2 12 17
M  V30 10 1 12 8
M  V30 11 1 12 13
M  V30 12 2 13 14
M  V30 13 1 14 9
M  V30 14 1 14 15
M  V30 15 2 15 16
M  V30 16 1 16 17
M  V30 17 1 18 19
M  V30 18 2 18 22
M  V30 19 2 19 20
M  V30 20 1 20 11
M  V30 21 1 20 21
M  V30 22 1 21 22
M  V30 23 1 22 10
M  V30 24 1 23 4
M  V30 25 1 23 15
M  V30 26 1 6 24
M  V30 27 1 9 25
M  V30 28 1 10 26
M  V30 29 1 10 27
M  V30 30 1 11 28
M  V30 31 1 11 29
M  V30 32 1 11 30
M  V30 33 1 13 31
M  V30 34 1 17 32
M  V30 35 1 18 33
M  V30 36 1 23 34
M  V30 37 1 5 35
M  V30 END BOND
M  V30 BEGIN COLLECTION
M  V30 MDLV30/STEABS ATOMS=(0)
M  V30 END COLLECTION
M  V30 END CTAB
M  END
>  <smiles>  (443) 
[H]c1nc(C#N)c(N([H])c2nc([H])c(F)c([H])c2N([H])C([H])([H])c2sc(C([H])([H])[H])nc2[H])[nH]1

>  <error>  (443) 


>  <∆∆G>  (443) 
nan

>  <∆G_bound>  (443) 
nan

>  <∆G_unbound>  (443) 
nan

>  <comRMSD>  (443) 
0.0

>  <N_constrained_atoms>  (443) 
22.0

>  <N_unconstrained_atoms>  (443) 
1.0

>  <runtime>  (443) 
1.039639

>  <regarded>  (443) 
['z0875c', 'd0615b']

>  <disregarded>  (443) 
[]

>  <LE>  (443) 
nan

>  <outcome>  (443) 
crashed

>  <percent_hybrid>  (443) 
32.0

$$$$
LIG
     RDKit          3D

 43 44  0  0  0  0  0  0  0  0999 V2000
  -13.9520  -43.8520  -20.8720 N   0  0  0  0  0  0  0  0  0  0  0  0
  -13.3455  -42.8598  -20.9356 C   0  0  0  0  0  0  0  0  0  0  0  0
  -12.6593  -41.5963  -20.9712 C   0  0  0  0  0  0  0  0  0  0  0  0
  -12.8665  -40.4867  -21.7821 C   0  0  0  0  0  0  0  0  0  0  0  0
  -11.8633  -39.6165  -21.4326 N   0  0  0  0  0  0  0  0  0  0  0  0
  -11.1468  -40.1784  -20.4207 C   0  0  0  0  0  0  0  0  0  0  0  0
  -11.5980  -41.3715  -20.1228 N   0  0  0  0  0  0  0  0  0  0  0  0
  -19.8439  -39.3252  -24.5995 O   0  0  0  0  0  0  0  0  0  0  0  0
  -19.2146  -39.7290  -25.8384 S   0  0  0  0  0  0  0  0  0  0  0  0
  -18.8472  -38.7422  -26.8352 O   0  0  0  0  0  0  0  0  0  0  0  0
  -20.2868  -40.9223  -26.6072 C   0  0  0  0  0  0  0  0  0  0  0  0
  -16.2801  -41.0247  -27.3387 C   0  0  0  0  0  0  0  0  0  0  0  0
  -16.5721  -38.4573  -24.7600 C   0  0  0  0  0  0  0  0  0  0  0  0
  -16.1638  -38.3155  -26.1128 O   0  0  0  0  0  0  0  0  0  0  0  0
  -17.8316  -40.5768  -25.4014 N   0  0  0  0  0  0  0  0  0  0  0  0
  -17.2158  -41.5873  -26.2778 C   0  0  2  0  0  0  0  0  0  0  0  0
  -16.5895  -42.7060  -25.4458 C   0  0  0  0  0  0  0  0  0  0  0  0
  -15.9896  -42.2615  -24.1225 C   0  0  0  0  0  0  0  0  0  0  0  0
  -15.6797  -40.7641  -24.0747 C   0  0  1  0  0  0  0  0  0  0  0  0
  -16.9360  -39.9189  -24.3858 C   0  0  1  0  0  0  0  0  0  0  0  0
  -13.7169  -40.1164  -22.7688 N   0  0  0  0  0  0  0  0  0  0  0  0
  -15.1376  -40.4163  -22.6713 C   0  0  0  0  0  0  0  0  0  0  0  0
  -10.3116  -39.6797  -19.9462 H   0  0  0  0  0  0  0  0  0  0  0  0
  -20.3478  -41.8109  -25.9769 H   0  0  0  0  0  0  0  0  0  0  0  0
  -21.2776  -40.4688  -26.6920 H   0  0  0  0  0  0  0  0  0  0  0  0
  -19.9170  -41.1493  -27.6039 H   0  0  0  0  0  0  0  0  0  0  0  0
  -15.3733  -40.5855  -26.9196 H   0  0  0  0  0  0  0  0  0  0  0  0
  -15.9577  -41.8199  -28.0175 H   0  0  0  0  0  0  0  0  0  0  0  0
  -16.7771  -40.2598  -27.9429 H   0  0  0  0  0  0  0  0  0  0  0  0
  -15.7639  -38.0820  -24.1252 H   0  0  0  0  0  0  0  0  0  0  0  0
  -17.4262  -37.7913  -24.5951 H   0  0  0  0  0  0  0  0  0  0  0  0
  -16.9782  -38.3376  -26.6557 H   0  0  0  0  0  0  0  0  0  0  0  0
  -18.0281  -42.0797  -26.8024 H   0  0  0  0  0  0  0  0  0  0  0  0
  -17.3597  -43.4558  -25.2191 H   0  0  0  0  0  0  0  0  0  0  0  0
  -15.8403  -43.2379  -26.0374 H   0  0  0  0  0  0  0  0  0  0  0  0
  -16.7000  -42.5103  -23.3221 H   0  0  0  0  0  0  0  0  0  0  0  0
  -15.0846  -42.8473  -23.9190 H   0  0  0  0  0  0  0  0  0  0  0  0
  -14.9099  -40.5540  -24.8269 H   0  0  0  0  0  0  0  0  0  0  0  0
  -17.5240  -39.8820  -23.4573 H   0  0  0  0  0  0  0  0  0  0  0  0
  -13.5493  -39.2580  -23.2912 H   0  0  0  0  0  0  0  0  0  0  0  0
  -15.3394  -41.2251  -21.9609 H   0  0  0  0  0  0  0  0  0  0  0  0
  -15.6284  -39.5281  -22.2565 H   0  0  0  0  0  0  0  0  0  0  0  0
  -11.7003  -38.7007  -21.8241 H   0  0  0  0  0  0  0  0  0  0  0  0
  2  1  3  0
  3  2  1  0
  3  4  2  0
  3  7  1  0
  4  5  1  0
  5  6  1  0
  6  7  2  0
 14 13  1  0
 11  9  1  0
 10  9  2  0
  9  8  2  0
 15 20  1  0
 15  9  1  0
 15 16  1  0
 16 12  1  0
 16 17  1  0
 17 18  1  0
 18 19  1  0
 19 20  1  0
 20 13  1  0
 21  4  1  0
 22 21  1  0
 22 19  1  0
  6 23  1  0
 11 24  1  0
 11 25  1  0
 11 26  1  0
 12 27  1  0
 12 28  1  0
 12 29  1  0
 13 30  1  0
 13 31  1  0
 14 32  1  0
 16 33  1  6
 17 34  1  0
 17 35  1  0
 18 36  1  0
 18 37  1  0
 19 38  1  6
 20 39  1  1
 21 40  1  0
 22 41  1  0
 22 42  1  0
  5 43  1  0
M  END
>  <smiles>  (444) 
[H]OC([H])([H])[C@@]1([H])N(S(=O)(=O)C([H])([H])[H])[C@@]([H])(C([H])([H])[H])C([H])([H])C([H])([H])[C@]1([H])C([H])([H])N([H])c1[nH]c([H])nc1C#N

>  <error>  (444) 


>  <∆∆G>  (444) 
-117.495296

>  <∆G_bound>  (444) 
194.384455

>  <∆G_unbound>  (444) 
311.879751

>  <comRMSD>  (444) 
0.721993

>  <N_constrained_atoms>  (444) 
20.0

>  <N_unconstrained_atoms>  (444) 
2.0

>  <runtime>  (444) 
1.130112

>  <regarded>  (444) 
['z0875c', 'd0851a']

>  <disregarded>  (444) 
[]

>  <LE>  (444) 
5.340695

>  <outcome>  (444) 
acceptable

>  <percent_hybrid>  (444) 
35.0

$$$$
LIG
     RDKit          3D

  0  0  0  0  0  0  0  0  0  0999 V3000
M  V30 BEGIN CTAB
M  V30 COUNTS 50 52 0 0 0
M  V30 BEGIN ATOM
M  V30 1 N -13.297000 -44.498001 -20.850000 0
M  V30 2 C -12.948000 -43.432999 -21.100000 0
M  V30 3 C -12.567000 -42.085999 -21.440001 0
M  V30 4 C -13.246000 -41.202000 -22.230000 0
M  V30 5 N -12.548000 -40.040001 -22.191999 0
M  V30 6 C -11.474000 -40.242001 -21.403000 0
M  V30 7 N -11.428000 -41.477001 -20.927000 0
M  V30 8 O -19.218000 -37.455002 -26.510000 0
M  V30 9 C -18.440001 -37.272999 -25.589001 0
M  V30 10 C -18.801001 -40.066002 -25.077000 0
M  V30 11 S -16.291000 -41.674000 -23.726000 0
M  V30 12 O -16.832001 -41.215000 -22.487000 0
M  V30 13 O -16.914000 -42.779999 -24.382999 0
M  V30 14 C -14.601000 -42.066002 -23.476999 0
M  V30 15 C -18.129000 -36.304001 -23.285000 0
M  V30 16 C -19.089001 -35.396999 -22.541000 0
M  V30 17 C -19.528999 -34.411999 -23.573999 0
M  V30 18 C -19.582001 -35.196999 -24.878000 0
M  V30 19 N -18.677000 -36.332001 -24.648001 0
M  V30 20 C -17.472000 -39.426998 -24.688999 0 CFG=2
M  V30 21 C -17.184000 -38.118999 -25.462000 0 CFG=1
M  V30 22 C -16.631001 -38.435001 -26.855000 0
M  V30 23 C -15.402000 -39.325001 -26.764999 0
M  V30 24 C -15.742000 -40.634998 -26.099001 0
M  V30 25 N -16.350000 -40.417999 -24.764000 0
M  V30 26 N -13.923500 -41.634003 -22.853500 0
M  V30 27 H -10.722527 -39.470219 -21.180201 0
M  V30 28 H -19.358402 -40.334011 -24.167343 0
M  V30 29 H -19.390856 -39.353043 -25.671778 0
M  V30 30 H -18.612473 -40.971924 -25.671778 0
M  V30 31 H -14.609019 -43.124496 -23.177795 0
M  V30 32 H -14.211472 -41.665707 -24.424644 0
M  V30 33 H -17.110168 -35.889343 -23.278488 0
M  V30 34 H -18.045275 -37.303970 -22.834385 0
M  V30 35 H -19.946302 -35.967758 -22.154648 0
M  V30 36 H -18.625710 -34.915722 -21.667082 0
M  V30 37 H -20.522223 -34.009979 -23.325226 0
M  V30 38 H -18.845905 -33.552284 -23.639366 0
M  V30 39 H -20.604527 -35.547546 -25.081858 0
M  V30 40 H -19.288511 -34.591660 -25.748306 0
M  V30 41 H -17.554789 -39.120125 -23.635920 0
M  V30 42 H -16.433901 -37.548752 -24.894400 0
M  V30 43 H -17.406082 -38.950432 -27.441156 0
M  V30 44 H -16.344500 -37.490452 -27.340534 0
M  V30 45 H -15.023789 -39.522495 -27.778879 0
M  V30 46 H -14.635620 -38.811352 -26.165979 0
M  V30 47 H -16.453987 -41.184811 -26.732071 0
M  V30 48 H -14.813306 -41.209915 -25.968628 0
M  V30 49 H -12.943501 -40.653999 -21.873499 0
M  V30 50 H -12.793221 -39.164780 -22.676517 0
M  V30 END ATOM
M  V30 BEGIN BOND
M  V30 1 3 2 1
M  V30 2 1 3 2
M  V30 3 2 3 4
M  V30 4 1 3 7
M  V30 5 1 4 5
M  V30 6 1 5 6
M  V30 7 2 6 7
M  V30 8 2 12 11
M  V30 9 1 14 11
M  V30 10 2 13 11
M  V30 11 2 9 8
M  V30 12 1 15 16
M  V30 13 1 15 19
M  V30 14 1 16 17
M  V30 15 1 17 18
M  V30 16 1 18 19
M  V30 17 1 19 9
M  V30 18 1 20 10
M  V30 19 1 20 25
M  V30 20 1 20 21
M  V30 21 1 21 22
M  V30 22 1 21 9
M  V30 23 1 22 23
M  V30 24 1 23 24
M  V30 25 1 24 25
M  V30 26 1 25 11
M  V30 27 1 26 4
M  V30 28 1 26 14
M  V30 29 1 6 27
M  V30 30 1 10 28
M  V30 31 1 10 29
M  V30 32 1 10 30
M  V30 33 1 14 31
M  V30 34 1 14 32
M  V30 35 1 15 33
M  V30 36 1 15 34
M  V30 37 1 16 35
M  V30 38 1 16 36
M  V30 39 1 17 37
M  V30 40 1 17 38
M  V30 41 1 18 39
M  V30 42 1 18 40
M  V30 43 1 20 41 CFG=1
M  V30 44 1 21 42 CFG=1
M  V30 45 1 22 43
M  V30 46 1 22 44
M  V30 47 1 23 45
M  V30 48 1 23 46
M  V30 49 1 24 47
M  V30 50 1 24 48
M  V30 51 1 26 49
M  V30 52 1 5 50
M  V30 END BOND
M  V30 BEGIN COLLECTION
M  V30 MDLV30/STEABS ATOMS=(0)
M  V30 END COLLECTION
M  V30 END CTAB
M  END
>  <smiles>  (445) 
[H]c1nc(C#N)c(N([H])C([H])([H])S(=O)(=O)N2C([H])([H])C([H])([H])C([H])([H])[C@@]([H])(C(=O)N3C([H])([H])C([H])([H])C([H])([H])C3([H])[H])[C@@]2([H])C([H])([H])[H])[nH]1

>  <error>  (445) 


>  <∆∆G>  (445) 
nan

>  <∆G_bound>  (445) 
nan

>  <∆G_unbound>  (445) 
nan

>  <comRMSD>  (445) 
0.0

>  <N_constrained_atoms>  (445) 
25.0

>  <N_unconstrained_atoms>  (445) 
1.0

>  <runtime>  (445) 
1.346488

>  <regarded>  (445) 
['z0875c', 'd0866a']

>  <disregarded>  (445) 
[]

>  <LE>  (445) 
nan

>  <outcome>  (445) 
crashed

>  <percent_hybrid>  (445) 
28.0

$$$$
LIG
     RDKit          3D

  0  0  0  0  0  0  0  0  0  0999 V3000
M  V30 BEGIN CTAB
M  V30 COUNTS 40 43 0 0 0
M  V30 BEGIN ATOM
M  V30 1 N -13.297000 -44.498001 -20.850000 0
M  V30 2 C -12.948000 -43.432999 -21.100000 0
M  V30 3 C -12.567000 -42.085999 -21.440001 0
M  V30 4 C -13.246000 -41.202000 -22.230000 0
M  V30 5 N -12.548000 -40.040001 -22.191999 0
M  V30 6 C -11.474000 -40.242001 -21.403000 0
M  V30 7 N -11.428000 -41.477001 -20.927000 0
M  V30 8 O -11.370000 -32.450001 -20.969999 0
M  V30 9 C -11.950000 -33.465000 -20.601000 0
M  V30 10 C -13.292000 -33.436001 -19.997999 0
M  V30 11 C -13.877000 -34.640999 -19.552999 0
M  V30 12 N -13.139000 -35.812000 -19.618000 0
M  V30 13 C -12.110000 -35.952000 -20.645000 0 CFG=1
M  V30 14 N -11.382000 -34.679001 -20.705000 0
M  V30 15 C -13.994000 -32.241001 -19.871000 0
M  V30 16 C -15.168000 -34.624001 -19.025000 0
M  V30 17 C -15.853000 -33.424000 -18.921000 0
M  V30 18 C -15.268000 -32.243000 -19.333000 0
M  V30 19 C -11.190000 -37.138000 -20.316999 0
M  V30 20 C -11.152000 -37.980999 -21.587999 0
M  V30 21 C -12.451000 -37.754002 -22.233000 0 CFG=2
M  V30 22 C -12.749000 -36.279999 -22.002001 0
M  V30 23 C -12.499500 -38.897003 -22.212500 0
M  V30 24 H -14.174971 -41.394699 -22.786671 0
M  V30 25 H -10.722527 -39.470219 -21.180201 0
M  V30 26 H -13.314224 -36.575504 -18.949228 0
M  V30 27 H -10.361188 -34.718678 -20.836409 0
M  V30 28 H -13.535987 -31.295929 -20.198202 0
M  V30 29 H -15.640623 -35.559937 -18.692352 0
M  V30 30 H -16.871866 -33.412075 -18.506548 0
M  V30 31 H -15.819530 -31.296577 -19.232512 0
M  V30 32 H -10.669828 -37.336834 -19.368376 0
M  V30 33 H -12.057853 -37.712925 -19.961624 0
M  V30 34 H -10.330162 -38.619820 -21.943655 0
M  V30 35 H -11.575160 -38.832932 -21.035601 0
M  V30 36 H -13.234921 -37.530010 -22.971439 0
M  V30 37 H -13.302277 -35.597340 -22.663710 0
M  V30 38 H -11.810613 -36.010841 -22.508938 0
M  V30 39 H -11.619500 -38.017002 -21.332500 0
M  V30 40 H -11.609500 -38.007000 -21.322500 0
M  V30 END ATOM
M  V30 BEGIN BOND
M  V30 1 3 2 1
M  V30 2 1 3 2
M  V30 3 2 3 4
M  V30 4 1 3 7
M  V30 5 1 4 5
M  V30 6 1 5 6
M  V30 7 2 6 7
M  V30 8 2 9 8
M  V30 9 1 9 14
M  V30 10 1 9 10
M  V30 11 2 10 15
M  V30 12 1 10 11
M  V30 13 1 11 12
M  V30 14 2 11 16
M  V30 15 1 13 12 CFG=1
M  V30 16 1 13 14
M  V30 17 1 13 22
M  V30 18 1 13 19
M  V30 19 1 15 18
M  V30 20 1 16 17
M  V30 21 2 17 18
M  V30 22 1 19 20
M  V30 23 1 20 21
M  V30 24 1 21 22
M  V30 25 1 23 5
M  V30 26 1 23 21
M  V30 27 1 4 24
M  V30 28 1 6 25
M  V30 29 1 12 26
M  V30 30 1 14 27
M  V30 31 1 15 28
M  V30 32 1 16 29
M  V30 33 1 17 30
M  V30 34 1 18 31
M  V30 35 1 19 32
M  V30 36 1 19 33
M  V30 37 1 20 34
M  V30 38 1 20 35
M  V30 39 1 21 36 CFG=3
M  V30 40 1 22 37
M  V30 41 1 22 38
M  V30 42 1 23 39
M  V30 43 1 23 40
M  V30 END BOND
M  V30 BEGIN COLLECTION
M  V30 MDLV30/STEABS ATOMS=(0)
M  V30 END COLLECTION
M  V30 END CTAB
M  END
>  <smiles>  (446) 
[H]c1c([H])c([H])c2c(c1[H])C(=O)N([H])[C@]1(N2[H])C([H])([H])C([H])([H])[C@@]([H])(C([H])([H])n2c([H])nc(C#N)c2[H])C1([H])[H]

>  <error>  (446) 


>  <∆∆G>  (446) 
nan

>  <∆G_bound>  (446) 
nan

>  <∆G_unbound>  (446) 
nan

>  <comRMSD>  (446) 
0.0

>  <N_constrained_atoms>  (446) 
22.0

>  <N_unconstrained_atoms>  (446) 
1.0

>  <runtime>  (446) 
1.096614

>  <regarded>  (446) 
['z0875c', 'd1196a']

>  <disregarded>  (446) 
[]

>  <LE>  (446) 
nan

>  <outcome>  (446) 
crashed

>  <percent_hybrid>  (446) 
32.0

$$$$
LIG
     RDKit          3D

 30 31  0  0  0  0  0  0  0  0999 V2000
  -13.8928  -43.1659  -19.8373 C   0  0  0  0  0  0  0  0  0  0  0  0
  -13.2783  -42.4198  -20.5414 C   0  0  0  0  0  0  0  0  0  0  0  0
  -14.6850  -43.7974  -18.7897 C   0  0  0  0  0  0  0  0  0  0  0  0
  -13.9538  -43.8219  -17.4421 C   0  0  0  0  0  0  0  0  0  0  0  0
  -12.6401  -41.2892  -21.0825 C   0  0  0  0  0  0  0  0  0  0  0  0
  -13.0579  -40.4264  -22.0653 C   0  0  0  0  0  0  0  0  0  0  0  0
  -12.1800  -39.3762  -22.1852 N   0  0  0  0  0  0  0  0  0  0  0  0
  -11.2808  -39.5717  -21.2455 C   0  0  0  0  0  0  0  0  0  0  0  0
  -11.4883  -40.7491  -20.5847 N   0  0  0  0  0  0  0  0  0  0  0  0
  -14.0067  -42.6927  -16.5115 N   0  0  0  0  0  0  0  0  0  0  0  0
  -13.0330  -42.9516  -15.4237 C   0  0  0  0  0  0  0  0  0  0  0  0
  -13.4165  -44.1149  -14.4858 C   0  0  0  0  0  0  0  0  0  0  0  0
  -14.7953  -44.1288  -14.1398 O   0  0  0  0  0  0  0  0  0  0  0  0
  -15.4417  -42.8870  -14.4081 C   0  0  0  0  0  0  0  0  0  0  0  0
  -15.3566  -42.5503  -15.9082 C   0  0  0  0  0  0  0  0  0  0  0  0
  -14.8960  -44.8305  -19.0928 H   0  0  0  0  0  0  0  0  0  0  0  0
  -15.6565  -43.3004  -18.6964 H   0  0  0  0  0  0  0  0  0  0  0  0
  -14.3763  -44.6768  -16.9011 H   0  0  0  0  0  0  0  0  0  0  0  0
  -12.8924  -43.9749  -17.6686 H   0  0  0  0  0  0  0  0  0  0  0  0
  -13.9436  -40.4959  -22.6843 H   0  0  0  0  0  0  0  0  0  0  0  0
  -10.4577  -38.9102  -21.0097 H   0  0  0  0  0  0  0  0  0  0  0  0
  -12.0226  -43.0983  -15.8229 H   0  0  0  0  0  0  0  0  0  0  0  0
  -12.9540  -42.0301  -14.8306 H   0  0  0  0  0  0  0  0  0  0  0  0
  -13.1869  -45.0841  -14.9374 H   0  0  0  0  0  0  0  0  0  0  0  0
  -12.8342  -44.0454  -13.5606 H   0  0  0  0  0  0  0  0  0  0  0  0
  -16.4886  -42.9614  -14.1035 H   0  0  0  0  0  0  0  0  0  0  0  0
  -14.9917  -42.1005  -13.7898 H   0  0  0  0  0  0  0  0  0  0  0  0
  -15.6828  -41.5132  -16.0486 H   0  0  0  0  0  0  0  0  0  0  0  0
  -16.0908  -43.1694  -16.4379 H   0  0  0  0  0  0  0  0  0  0  0  0
  -10.9353  -41.1316  -19.8273 H   0  0  0  0  0  0  0  0  0  0  0  0
  2  1  3  0
  4  3  1  0
  3  1  1  0
  5  2  1  0
  5  6  2  0
  5  9  1  0
  6  7  1  0
  7  8  2  0
  8  9  1  0
 10  4  1  0
 10 15  1  0
 10 11  1  0
 11 12  1  0
 12 13  1  0
 13 14  1  0
 14 15  1  0
  3 16  1  0
  3 17  1  0
  4 18  1  0
  4 19  1  0
  6 20  1  0
  8 21  1  0
 11 22  1  0
 11 23  1  0
 12 24  1  0
 12 25  1  0
 14 26  1  0
 14 27  1  0
 15 28  1  0
 15 29  1  0
  9 30  1  0
M  END
>  <smiles>  (447) 
[H]c1nc([H])c(C#CC([H])([H])C([H])([H])N2C([H])([H])C([H])([H])OC([H])([H])C2([H])[H])[nH]1

>  <error>  (447) 


>  <∆∆G>  (447) 
-10.456402

>  <∆G_bound>  (447) 
-107.011888

>  <∆G_unbound>  (447) 
-96.555486

>  <comRMSD>  (447) 
1.780661

>  <N_constrained_atoms>  (447) 
15.0

>  <N_unconstrained_atoms>  (447) 
0.0

>  <runtime>  (447) 
0.93375

>  <regarded>  (447) 
['z0875c', 'z0052a']

>  <disregarded>  (447) 
[]

>  <LE>  (447) 
0.697093

>  <outcome>  (447) 
too moved

>  <percent_hybrid>  (447) 
47.0

$$$$
LIG
     RDKit          3D

 22 23  0  0  0  0  0  0  0  0999 V2000
  -13.5390  -44.8330  -19.9805 N   0  0  0  0  0  0  0  0  0  0  0  0
  -13.2016  -43.8153  -20.4246 C   0  0  0  0  0  0  0  0  0  0  0  0
  -13.0566  -42.4853  -20.9024 C   0  0  0  0  0  0  0  0  0  0  0  0
  -13.9782  -41.8701  -21.7094 C   0  0  0  0  0  0  0  0  0  0  0  0
  -13.6844  -40.5554  -21.6024 N   0  0  0  0  0  0  0  0  0  0  0  0
  -12.5572  -40.4227  -20.8390 C   0  0  0  0  0  0  0  0  0  0  0  0
  -12.1186  -41.5943  -20.4322 N   0  0  0  0  0  0  0  0  0  0  0  0
  -14.5609  -39.5834  -22.0691 N   0  0  0  0  0  0  0  0  0  0  0  0
  -13.9809  -38.7490  -23.0964 C   0  0  0  0  0  0  0  0  0  0  0  0
  -13.3451  -37.5586  -22.4635 C   0  0  0  0  0  0  0  0  0  0  0  0
  -11.9908  -37.3687  -22.3805 N   0  0  0  0  0  0  0  0  0  0  0  0
  -11.7861  -36.2051  -21.6967 C   0  0  0  0  0  0  0  0  0  0  0  0
  -13.0357  -35.7116  -21.4266 C   0  0  0  0  0  0  0  0  0  0  0  0
  -13.9944  -36.5598  -21.9038 N   0  0  0  0  0  0  0  0  0  0  0  0
  -14.8619  -42.2351  -22.2141 H   0  0  0  0  0  0  0  0  0  0  0  0
  -12.1321  -39.4681  -20.5656 H   0  0  0  0  0  0  0  0  0  0  0  0
  -14.9570  -38.9917  -21.3362 H   0  0  0  0  0  0  0  0  0  0  0  0
  -13.2923  -39.2929  -23.7446 H   0  0  0  0  0  0  0  0  0  0  0  0
  -14.7989  -38.4019  -23.7378 H   0  0  0  0  0  0  0  0  0  0  0  0
  -10.7952  -35.8384  -21.4860 H   0  0  0  0  0  0  0  0  0  0  0  0
  -13.2965  -34.7976  -20.9085 H   0  0  0  0  0  0  0  0  0  0  0  0
  -11.2710  -37.9840  -22.7328 H   0  0  0  0  0  0  0  0  0  0  0  0
  2  1  3  0
  3  2  1  0
  3  4  2  0
  3  7  1  0
  4  5  1  0
  5  6  1  0
  6  7  2  0
  9  8  1  0
 10  9  1  0
 10 11  1  0
 10 14  2  0
 11 12  1  0
 12 13  2  0
 13 14  1  0
  5  8  1  0
  4 15  1  0
  6 16  1  0
  8 17  1  0
  9 18  1  0
  9 19  1  0
 12 20  1  0
 13 21  1  0
 11 22  1  0
M  END
>  <smiles>  (448) 
[H]c1nc(C([H])([H])N([H])n2c([H])nc(C#N)c2[H])[nH]c1[H]

>  <error>  (448) 


>  <∆∆G>  (448) 
-16.73801

>  <∆G_bound>  (448) 
-26.763842

>  <∆G_unbound>  (448) 
-10.025833

>  <comRMSD>  (448) 
0.903616

>  <N_constrained_atoms>  (448) 
14.0

>  <N_unconstrained_atoms>  (448) 
0.0

>  <runtime>  (448) 
0.541579

>  <regarded>  (448) 
['z0875c', 'z0103a']

>  <disregarded>  (448) 
[]

>  <LE>  (448) 
1.195572

>  <outcome>  (448) 
acceptable

>  <percent_hybrid>  (448) 
50.0

$$$$

     RDKit          2D

  0  0  0  0  0  0  0  0  0  0999 V2000
M  END
>  <smiles>  (449) 
nan

>  <error>  (449) 
DistanceError 9.34 Å

>  <∆∆G>  (449) 
nan

>  <∆G_bound>  (449) 
nan

>  <∆G_unbound>  (449) 
nan

>  <comRMSD>  (449) 
nan

>  <N_constrained_atoms>  (449) 
nan

>  <N_unconstrained_atoms>  (449) 
nan

>  <runtime>  (449) 
nan

>  <regarded>  (449) 
[]

>  <disregarded>  (449) 
[]

>  <LE>  (449) 
nan

>  <outcome>  (449) 
too distant

>  <percent_hybrid>  (449) 
nan

$$$$

     RDKit          2D

  0  0  0  0  0  0  0  0  0  0999 V2000
M  END
>  <smiles>  (450) 
nan

>  <error>  (450) 
RecursionError maximum recursion depth exceeded while calling a Python object

>  <∆∆G>  (450) 
nan

>  <∆G_bound>  (450) 
nan

>  <∆G_unbound>  (450) 
nan

>  <comRMSD>  (450) 
nan

>  <N_constrained_atoms>  (450) 
nan

>  <N_unconstrained_atoms>  (450) 
nan

>  <runtime>  (450) 
nan

>  <regarded>  (450) 
[]

>  <disregarded>  (450) 
[]

>  <LE>  (450) 
nan

>  <outcome>  (450) 
crashed

>  <percent_hybrid>  (450) 
nan

$$$$
LIG
     RDKit          3D

 66 69  0  0  0  0  0  0  0  0999 V2000
  -12.3860  -43.5279  -20.3277 N   0  0  0  0  0  0  0  0  0  0  0  0
  -13.3093  -42.8749  -21.2008 C   0  0  0  0  0  0  0  0  0  0  0  0
  -12.9943  -41.4139  -21.4139 C   0  0  0  0  0  0  0  0  0  0  0  0
  -13.7683  -40.4177  -21.9846 C   0  0  0  0  0  0  0  0  0  0  0  0
  -12.9894  -39.2940  -21.9988 N   0  0  0  0  0  0  0  0  0  0  0  0
  -11.7857  -39.6151  -21.4518 C   0  0  0  0  0  0  0  0  0  0  0  0
  -11.7470  -40.8789  -21.1104 N   0  0  0  0  0  0  0  0  0  0  0  0
  -13.8665  -42.4140  -18.3718 O   0  0  0  0  0  0  0  0  0  0  0  0
  -17.1062  -42.8721  -13.9881 O   0  0  0  0  0  0  0  0  0  0  0  0
  -13.9292  -38.0248  -16.1496 O   0  0  0  0  0  0  0  0  0  0  0  0
  -19.5231  -46.2577  -24.6323 C   0  0  0  0  0  0  0  0  0  0  0  0
  -20.1457  -46.4349  -25.6436 C   0  0  0  0  0  0  0  0  0  0  0  0
  -20.8947  -46.6624  -26.8731 C   0  0  0  0  0  0  0  0  0  0  0  0
  -15.2050  -44.0980  -16.5360 O   0  0  0  0  0  0  0  0  0  0  0  0
  -15.9726  -43.4061  -17.0827 C   0  0  0  0  0  0  0  0  0  0  0  0
  -16.9768  -42.3642  -16.5096 N   0  0  0  0  0  0  0  0  0  0  0  0
  -17.1994  -41.8297  -14.9687 S   0  0  0  0  0  0  0  0  0  0  0  0
  -18.3090  -40.9038  -15.0189 O   0  0  0  0  0  0  0  0  0  0  0  0
  -14.8050  -37.6539  -17.2065 C   0  0  0  0  0  0  0  0  0  0  0  0
  -13.5475  -41.0316  -18.4362 C   0  0  0  0  0  0  0  0  0  0  0  0
  -15.4248  -44.0670  -22.6356 O   0  0  0  0  0  0  0  0  0  0  0  0
  -15.4721  -43.0114  -23.5949 C   0  0  0  0  0  0  0  0  0  0  0  0
  -21.9839  -45.7542  -26.9650 O   0  0  0  0  0  0  0  0  0  0  0  0
  -15.6724  -43.6693  -21.3355 C   0  0  0  0  0  0  0  0  0  0  0  0
  -14.6804  -43.0113  -20.5926 C   0  0  0  0  0  0  0  0  0  0  0  0
  -14.8839  -42.8275  -19.2029 C   0  0  0  0  0  0  0  0  0  0  0  0
  -16.0066  -43.3723  -18.5678 C   0  0  0  0  0  0  0  0  0  0  0  0
  -16.9771  -44.0568  -19.3032 C   0  0  0  0  0  0  0  0  0  0  0  0
  -16.8092  -44.2104  -20.6918 C   0  0  0  0  0  0  0  0  0  0  0  0
  -13.3793  -39.4826  -14.4122 C   0  0  0  0  0  0  0  0  0  0  0  0
  -13.6146  -40.5944  -13.6048 C   0  0  0  0  0  0  0  0  0  0  0  0
  -14.7888  -41.3149  -13.7671 C   0  0  0  0  0  0  0  0  0  0  0  0
  -15.7246  -40.8941  -14.7203 C   0  0  0  0  0  0  0  0  0  0  0  0
  -15.5131  -39.7671  -15.5052 C   0  0  0  0  0  0  0  0  0  0  0  0
  -14.3159  -39.0775  -15.3712 C   0  0  0  0  0  0  0  0  0  0  0  0
  -17.8977  -46.4435  -21.3138 C   0  0  0  0  0  0  0  0  0  0  0  0
  -18.5822  -46.9871  -22.4381 C   0  0  0  0  0  0  0  0  0  0  0  0
  -18.8827  -46.0250  -23.3791 C   0  0  0  0  0  0  0  0  0  0  0  0
  -18.5371  -44.4613  -22.8106 S   0  0  0  0  0  0  0  0  0  0  0  0
  -17.6922  -45.0869  -21.4575 C   0  0  0  0  0  0  0  0  0  0  0  0
  -14.7748  -40.4101  -22.3742 H   0  0  0  0  0  0  0  0  0  0  0  0
  -10.9801  -38.9016  -21.3356 H   0  0  0  0  0  0  0  0  0  0  0  0
  -21.2650  -47.6877  -26.9565 H   0  0  0  0  0  0  0  0  0  0  0  0
  -20.2379  -46.4578  -27.7149 H   0  0  0  0  0  0  0  0  0  0  0  0
  -17.4357  -41.8796  -17.2734 H   0  0  0  0  0  0  0  0  0  0  0  0
  -15.7525  -37.2703  -16.8135 H   0  0  0  0  0  0  0  0  0  0  0  0
  -14.3271  -36.8426  -17.7643 H   0  0  0  0  0  0  0  0  0  0  0  0
  -14.9730  -38.4786  -17.9050 H   0  0  0  0  0  0  0  0  0  0  0  0
  -12.5039  -40.9067  -18.7264 H   0  0  0  0  0  0  0  0  0  0  0  0
  -14.2193  -40.4543  -19.0774 H   0  0  0  0  0  0  0  0  0  0  0  0
  -13.6250  -40.6405  -17.4246 H   0  0  0  0  0  0  0  0  0  0  0  0
  -16.1042  -42.1778  -23.2707 H   0  0  0  0  0  0  0  0  0  0  0  0
  -14.4661  -42.6608  -23.8335 H   0  0  0  0  0  0  0  0  0  0  0  0
  -15.8984  -43.4189  -24.5172 H   0  0  0  0  0  0  0  0  0  0  0  0
  -22.7543  -46.2109  -26.5612 H   0  0  0  0  0  0  0  0  0  0  0  0
  -17.8114  -44.5357  -18.7968 H   0  0  0  0  0  0  0  0  0  0  0  0
  -12.4458  -38.9338  -14.3085 H   0  0  0  0  0  0  0  0  0  0  0  0
  -12.8751  -40.9064  -12.8721 H   0  0  0  0  0  0  0  0  0  0  0  0
  -14.9618  -42.2008  -13.1597 H   0  0  0  0  0  0  0  0  0  0  0  0
  -16.2745  -39.4698  -16.2163 H   0  0  0  0  0  0  0  0  0  0  0  0
  -17.4883  -47.0418  -20.5089 H   0  0  0  0  0  0  0  0  0  0  0  0
  -18.7995  -48.0406  -22.5655 H   0  0  0  0  0  0  0  0  0  0  0  0
  -12.5059  -44.5333  -20.3440 H   0  0  0  0  0  0  0  0  0  0  0  0
  -12.4052  -43.1770  -19.3784 H   0  0  0  0  0  0  0  0  0  0  0  0
  -13.2302  -43.3745  -22.1670 H   0  0  0  0  0  0  0  0  0  0  0  0
  -13.2566  -38.3839  -22.3454 H   0  0  0  0  0  0  0  0  0  0  0  0
  2  1  1  0
  3  2  1  0
  3  4  2  0
  3  7  1  0
  4  5  1  0
  5  6  1  0
  6  7  2  0
 13 23  1  0
 13 12  1  0
 12 11  3  0
 21 22  1  0
 16 15  1  0
 16 17  1  0
 15 14  2  0
  9 17  2  0
 18 17  2  0
  8 20  1  0
 19 10  1  0
 24 29  2  0
 24 21  1  0
 24 25  1  0
 25 26  2  0
 26 27  1  0
 26  8  1  0
 27 28  2  0
 27 15  1  0
 28 29  1  0
 29 40  1  0
 30 35  2  0
 30 31  1  0
 31 32  2  0
 32 33  1  0
 33 17  1  0
 33 34  2  0
 34 35  1  0
 35 10  1  0
 36 37  1  0
 36 40  2  0
 37 38  2  0
 38 11  1  0
 38 39  1  0
 39 40  1  0
  2 25  1  0
  4 41  1  0
  6 42  1  0
 13 43  1  0
 13 44  1  0
 16 45  1  0
 19 46  1  0
 19 47  1  0
 19 48  1  0
 20 49  1  0
 20 50  1  0
 20 51  1  0
 22 52  1  0
 22 53  1  0
 22 54  1  0
 23 55  1  0
 28 56  1  0
 30 57  1  0
 31 58  1  0
 32 59  1  0
 34 60  1  0
 36 61  1  0
 37 62  1  0
  1 63  1  0
  1 64  1  0
  2 65  1  0
  5 66  1  0
M  END
>  <smiles>  (451) 
[H]OC([H])([H])C#Cc1sc(-c2c([H])c(C(=O)N([H])S(=O)(=O)c3c([H])c([H])c([H])c(OC([H])([H])[H])c3[H])c(OC([H])([H])[H])c(C(N)c3nc([H])[nH]c3[H])c2OC([H])([H])[H])c([H])c1[H]

>  <error>  (451) 


>  <∆∆G>  (451) 
-236.863782

>  <∆G_bound>  (451) 
8.463684

>  <∆G_unbound>  (451) 
245.327466

>  <comRMSD>  (451) 
0.800162

>  <N_constrained_atoms>  (451) 
40.0

>  <N_unconstrained_atoms>  (451) 
0.0

>  <runtime>  (451) 
5.596504

>  <regarded>  (451) 
['z0875c', '5i3p-a']

>  <disregarded>  (451) 
[]

>  <LE>  (451) 
5.921595

>  <outcome>  (451) 
acceptable

>  <percent_hybrid>  (451) 
18.0

$$$$
LIG
     RDKit          3D

 38 41  0  0  0  0  0  0  0  0999 V2000
  -13.2970  -44.4980  -20.8500 N   0  0  0  0  0  0  0  0  0  0  0  0
  -12.9480  -43.4330  -21.1000 C   0  0  2  0  0  0  0  0  0  0  0  0
  -15.0920  -40.3240  -21.3100 O   0  0  0  0  0  0  0  0  0  0  0  0
  -13.9120  -40.7520  -21.2680 C   0  0  0  0  0  0  0  0  0  0  0  0
  -17.3780  -45.6760  -18.6260 O   0  0  0  0  0  0  0  0  0  0  0  0
  -12.5670  -42.0860  -21.4400 C   0  0  0  0  0  0  0  0  0  0  0  0
  -13.2460  -41.2020  -22.2300 C   0  0  0  0  0  0  0  0  0  0  0  0
  -12.5480  -40.0400  -22.1920 N   0  0  0  0  0  0  0  0  0  0  0  0
  -11.4740  -40.2420  -21.4030 C   0  0  0  0  0  0  0  0  0  0  0  0
  -11.4280  -41.4770  -20.9270 N   0  0  0  0  0  0  0  0  0  0  0  0
  -16.4890  -44.8410  -19.2460 C   0  0  0  0  0  0  0  0  0  0  0  0
  -15.5990  -44.0650  -18.4920 C   0  0  0  0  0  0  0  0  0  0  0  0
  -14.6800  -43.2320  -19.1410 C   0  0  0  0  0  0  0  0  0  0  0  0
  -14.6540  -43.1300  -20.5400 C   0  0  0  0  0  0  0  0  0  0  0  0
  -15.4970  -43.9180  -21.3390 C   0  0  0  0  0  0  0  0  0  0  0  0
  -16.4430  -44.7690  -20.7430 C   0  0  0  0  0  0  0  0  0  0  0  0
  -18.6030  -47.6470  -22.0070 C   0  0  0  0  0  0  0  0  0  0  0  0
  -17.6840  -46.9080  -21.2540 C   0  0  0  0  0  0  0  0  0  0  0  0
  -17.4090  -45.5620  -21.5680 C   0  0  0  0  0  0  0  0  0  0  0  0
  -18.0750  -44.9580  -22.6420 C   0  0  0  0  0  0  0  0  0  0  0  0
  -18.9730  -45.7090  -23.4030 C   0  0  0  0  0  0  0  0  0  0  0  0
  -19.2550  -47.0430  -23.0870 C   0  0  0  0  0  0  0  0  0  0  0  0
  -13.4300  -42.0925  -21.1840 C   0  0  0  0  0  0  0  0  0  0  0  0
  -17.4164  -45.7121  -17.6374 H   0  0  0  0  0  0  0  0  0  0  0  0
  -12.8752  -43.1229  -21.2402 H   0  0  0  0  0  0  0  0  0  0  0  0
  -10.7225  -39.4702  -21.1802 H   0  0  0  0  0  0  0  0  0  0  0  0
  -15.6223  -44.1101  -17.3932 H   0  0  0  0  0  0  0  0  0  0  0  0
  -13.9655  -42.6469  -18.5434 H   0  0  0  0  0  0  0  0  0  0  0  0
  -15.4169  -43.8692  -22.4350 H   0  0  0  0  0  0  0  0  0  0  0  0
  -18.8114  -48.6964  -21.7512 H   0  0  0  0  0  0  0  0  0  0  0  0
  -17.1696  -47.3838  -20.4060 H   0  0  0  0  0  0  0  0  0  0  0  0
  -17.8921  -43.9006  -22.8839 H   0  0  0  0  0  0  0  0  0  0  0  0
  -19.4684  -45.2432  -24.2676 H   0  0  0  0  0  0  0  0  0  0  0  0
  -19.9836  -47.6119  -23.6833 H   0  0  0  0  0  0  0  0  0  0  0  0
  -12.5900  -41.2525  -20.3440 H   0  0  0  0  0  0  0  0  0  0  0  0
  -12.5800  -41.2425  -20.3340 H   0  0  0  0  0  0  0  0  0  0  0  0
  -13.3355  -44.6155  -19.8275 H   0  0  0  0  0  0  0  0  0  0  0  0
  -14.2334  -44.6550  -21.2491 H   0  0  0  0  0  0  0  0  0  0  0  0
  2  1  1  1
  3  4  2  0
  6  7  2  0
  6 10  1  0
  7  8  1  0
  8  9  1  0
  9 10  2  0
 11  5  1  0
 11 16  2  0
 11 12  1  0
 12 13  2  0
 13 14  1  0
 14 15  2  0
 15 16  1  0
 16 19  1  0
 17 22  2  0
 17 18  1  0
 18 19  2  0
 19 20  1  0
 20 21  2  0
 21 22  1  0
  8  4  1  0
  2 14  1  0
  2  7  1  0
  2 23  1  0
  4 23  1  0
  5 24  1  0
  6 25  1  0
  9 26  1  0
 12 27  1  0
 13 28  1  0
 15 29  1  0
 17 30  1  0
 18 31  1  0
 20 32  1  0
 21 33  1  0
 22 34  1  0
 23 35  1  0
 23 36  1  0
  1 37  1  0
  1 38  1  0
M  END
>  <smiles>  (452) 
[H]Oc1c([H])c([H])c([C@@]2(N)c3c([H])nc([H])n3C(=O)C2([H])[H])c([H])c1-c1c([H])c([H])c([H])c([H])c1[H]

>  <error>  (452) 


>  <∆∆G>  (452) 
nan

>  <∆G_bound>  (452) 
nan

>  <∆G_unbound>  (452) 
nan

>  <comRMSD>  (452) 
0.0

>  <N_constrained_atoms>  (452) 
22.0

>  <N_unconstrained_atoms>  (452) 
1.0

>  <runtime>  (452) 
1.188056

>  <regarded>  (452) 
['z0875c', '5hn0-a']

>  <disregarded>  (452) 
[]

>  <LE>  (452) 
nan

>  <outcome>  (452) 
crashed

>  <percent_hybrid>  (452) 
32.0

$$$$
LIG
     RDKit          3D

 41 43  0  0  0  0  0  0  0  0999 V2000
  -12.6340  -43.2488  -19.5899 N   0  0  0  0  0  0  0  0  0  0  0  0
  -13.2964  -42.9161  -20.8554 C   0  0  0  0  0  0  0  0  0  0  0  0
  -12.9393  -41.4954  -21.2346 C   0  0  0  0  0  0  0  0  0  0  0  0
  -13.6137  -40.5675  -22.0069 C   0  0  0  0  0  0  0  0  0  0  0  0
  -12.8316  -39.4474  -22.0138 N   0  0  0  0  0  0  0  0  0  0  0  0
  -11.7174  -39.7135  -21.2759 C   0  0  0  0  0  0  0  0  0  0  0  0
  -11.7368  -40.9388  -20.8100 N   0  0  0  0  0  0  0  0  0  0  0  0
  -17.3631  -41.8026  -18.0826 C   0  0  0  0  0  0  0  0  0  0  0  0
  -18.8409  -43.6282  -17.4201 O   0  0  0  0  0  0  0  0  0  0  0  0
  -15.0692  -44.4017  -22.6092 O   0  0  0  0  0  0  0  0  0  0  0  0
  -18.1627  -42.6522  -17.1305 C   0  0  0  0  0  0  0  0  0  0  0  0
  -18.0895  -42.2187  -15.8544 O   0  0  0  0  0  0  0  0  0  0  0  0
  -15.0079  -43.4910  -23.7077 C   0  0  0  0  0  0  0  0  0  0  0  0
  -16.7359  -42.5675  -19.2285 C   0  0  0  0  0  0  0  0  0  0  0  0
  -15.4000  -42.3462  -19.5661 C   0  0  0  0  0  0  0  0  0  0  0  0
  -14.7907  -42.9925  -20.6652 C   0  0  0  0  0  0  0  0  0  0  0  0
  -15.5785  -43.8087  -21.4840 C   0  0  0  0  0  0  0  0  0  0  0  0
  -16.8880  -44.1084  -21.1018 C   0  0  0  0  0  0  0  0  0  0  0  0
  -17.4673  -43.4679  -20.0042 C   0  0  0  0  0  0  0  0  0  0  0  0
  -17.8150  -46.3653  -21.1619 C   0  0  0  0  0  0  0  0  0  0  0  0
  -18.6558  -47.4522  -22.1551 S   0  0  0  0  0  0  0  0  0  0  0  0
  -18.7698  -46.3036  -23.4190 C   0  0  0  0  0  0  0  0  0  0  0  0
  -18.2247  -45.0913  -23.0697 C   0  0  0  0  0  0  0  0  0  0  0  0
  -17.6433  -45.1402  -21.7728 C   0  0  0  0  0  0  0  0  0  0  0  0
  -14.5628  -40.6027  -22.5218 H   0  0  0  0  0  0  0  0  0  0  0  0
  -10.9313  -38.9861  -21.1186 H   0  0  0  0  0  0  0  0  0  0  0  0
  -18.0204  -41.0233  -18.4839 H   0  0  0  0  0  0  0  0  0  0  0  0
  -16.5733  -41.3059  -17.5056 H   0  0  0  0  0  0  0  0  0  0  0  0
  -18.5497  -42.9202  -15.3186 H   0  0  0  0  0  0  0  0  0  0  0  0
  -15.5707  -42.5653  -23.5428 H   0  0  0  0  0  0  0  0  0  0  0  0
  -13.9638  -43.2598  -23.9247 H   0  0  0  0  0  0  0  0  0  0  0  0
  -15.4359  -43.9864  -24.5834 H   0  0  0  0  0  0  0  0  0  0  0  0
  -14.8083  -41.6687  -18.9519 H   0  0  0  0  0  0  0  0  0  0  0  0
  -18.5086  -43.6821  -19.7685 H   0  0  0  0  0  0  0  0  0  0  0  0
  -17.4678  -46.6798  -20.1870 H   0  0  0  0  0  0  0  0  0  0  0  0
  -19.2364  -46.5840  -24.3526 H   0  0  0  0  0  0  0  0  0  0  0  0
  -18.1955  -44.2327  -23.7270 H   0  0  0  0  0  0  0  0  0  0  0  0
  -11.6503  -43.0187  -19.7665 H   0  0  0  0  0  0  0  0  0  0  0  0
  -12.8683  -42.5293  -18.9122 H   0  0  0  0  0  0  0  0  0  0  0  0
  -12.9575  -43.6049  -21.6289 H   0  0  0  0  0  0  0  0  0  0  0  0
  -13.0449  -38.5718  -22.4697 H   0  0  0  0  0  0  0  0  0  0  0  0
  2  1  1  0
  3  2  1  0
  3  4  2  0
  3  7  1  0
  4  5  1  0
  5  6  1  0
  6  7  2  0
 10 13  1  0
  8 11  1  0
  9 11  2  0
 11 12  1  0
 14 19  2  0
 14  8  1  0
 14 15  1  0
 15 16  2  0
 16 17  1  0
 17 18  2  0
 17 10  1  0
 18 24  1  0
 18 19  1  0
 20 21  1  0
 20 24  2  0
 21 22  1  0
 22 23  2  0
 23 24  1  0
  2 16  1  0
  4 25  1  0
  6 26  1  0
  8 27  1  0
  8 28  1  0
 12 29  1  0
 13 30  1  0
 13 31  1  0
 13 32  1  0
 15 33  1  0
 19 34  1  0
 20 35  1  0
 22 36  1  0
 23 37  1  0
  1 38  1  0
  1 39  1  0
  2 40  1  0
  5 41  1  0
M  END
>  <smiles>  (453) 
[H]OC(=O)C([H])([H])c1c([H])c(-c2c([H])sc([H])c2[H])c(OC([H])([H])[H])c(C(N)c2nc([H])[nH]c2[H])c1[H]

>  <error>  (453) 


>  <∆∆G>  (453) 
-103.43494

>  <∆G_bound>  (453) 
-42.246154

>  <∆G_unbound>  (453) 
61.188786

>  <comRMSD>  (453) 
1.41522

>  <N_constrained_atoms>  (453) 
24.0

>  <N_unconstrained_atoms>  (453) 
0.0

>  <runtime>  (453) 
2.697883

>  <regarded>  (453) 
['z0875c', '5f41-a']

>  <disregarded>  (453) 
[]

>  <LE>  (453) 
4.309789

>  <outcome>  (453) 
too moved

>  <percent_hybrid>  (453) 
30.0

$$$$
LIG
     RDKit          3D

 41 43  0  0  0  0  0  0  0  0999 V2000
  -12.4908  -43.1553  -19.4188 N   0  0  0  0  0  0  0  0  0  0  0  0
  -13.2637  -42.9655  -20.6502 C   0  0  0  0  0  0  0  0  0  0  0  0
  -13.0304  -41.5506  -21.1293 C   0  0  0  0  0  0  0  0  0  0  0  0
  -13.8569  -40.6501  -21.7734 C   0  0  0  0  0  0  0  0  0  0  0  0
  -13.1138  -39.5160  -21.9479 N   0  0  0  0  0  0  0  0  0  0  0  0
  -11.8792  -39.7412  -21.4177 C   0  0  0  0  0  0  0  0  0  0  0  0
  -11.7824  -40.9589  -20.9417 N   0  0  0  0  0  0  0  0  0  0  0  0
  -17.1306  -42.4846  -17.4373 C   0  0  0  0  0  0  0  0  0  0  0  0
  -15.0638  -44.4612  -22.3699 O   0  0  0  0  0  0  0  0  0  0  0  0
  -17.8708  -40.4831  -18.5712 O   0  0  0  0  0  0  0  0  0  0  0  0
  -16.9785  -40.2510  -16.5168 O   0  0  0  0  0  0  0  0  0  0  0  0
  -17.2949  -40.9774  -17.4482 C   0  0  0  0  0  0  0  0  0  0  0  0
  -15.0399  -43.4901  -23.4160 C   0  0  0  0  0  0  0  0  0  0  0  0
  -16.5704  -43.0478  -18.7241 C   0  0  0  0  0  0  0  0  0  0  0  0
  -15.2916  -42.6797  -19.1511 C   0  0  0  0  0  0  0  0  0  0  0  0
  -14.7334  -43.1661  -20.3543 C   0  0  0  0  0  0  0  0  0  0  0  0
  -15.5387  -43.9567  -21.1847 C   0  0  0  0  0  0  0  0  0  0  0  0
  -16.8108  -44.3692  -20.7478 C   0  0  0  0  0  0  0  0  0  0  0  0
  -17.3107  -43.9258  -19.5149 C   0  0  0  0  0  0  0  0  0  0  0  0
  -18.8054  -46.3808  -23.3663 C   0  0  0  0  0  0  0  0  0  0  0  0
  -18.5927  -47.2445  -22.3144 C   0  0  0  0  0  0  0  0  0  0  0  0
  -17.8817  -46.6255  -21.2548 C   0  0  0  0  0  0  0  0  0  0  0  0
  -17.6074  -45.3030  -21.5300 C   0  0  0  0  0  0  0  0  0  0  0  0
  -18.3395  -44.7848  -22.9866 S   0  0  0  0  0  0  0  0  0  0  0  0
  -14.8868  -40.7071  -22.0941 H   0  0  0  0  0  0  0  0  0  0  0  0
  -11.0985  -38.9914  -21.4103 H   0  0  0  0  0  0  0  0  0  0  0  0
  -16.4591  -42.7585  -16.6150 H   0  0  0  0  0  0  0  0  0  0  0  0
  -18.1115  -42.9177  -17.2157 H   0  0  0  0  0  0  0  0  0  0  0  0
  -18.0543  -41.1659  -19.2448 H   0  0  0  0  0  0  0  0  0  0  0  0
  -15.7374  -42.6619  -23.2496 H   0  0  0  0  0  0  0  0  0  0  0  0
  -14.0248  -43.1131  -23.5444 H   0  0  0  0  0  0  0  0  0  0  0  0
  -15.3291  -43.9883  -24.3456 H   0  0  0  0  0  0  0  0  0  0  0  0
  -14.7010  -42.0251  -18.5102 H   0  0  0  0  0  0  0  0  0  0  0  0
  -18.2974  -44.2553  -19.1927 H   0  0  0  0  0  0  0  0  0  0  0  0
  -19.2557  -46.6071  -24.3244 H   0  0  0  0  0  0  0  0  0  0  0  0
  -18.8778  -48.2876  -22.3356 H   0  0  0  0  0  0  0  0  0  0  0  0
  -17.5355  -47.1423  -20.3689 H   0  0  0  0  0  0  0  0  0  0  0  0
  -11.5288  -42.9238  -19.6944 H   0  0  0  0  0  0  0  0  0  0  0  0
  -12.6814  -42.3686  -18.8030 H   0  0  0  0  0  0  0  0  0  0  0  0
  -12.9148  -43.6806  -21.3960 H   0  0  0  0  0  0  0  0  0  0  0  0
  -13.4328  -38.6527  -22.3646 H   0  0  0  0  0  0  0  0  0  0  0  0
  2  1  1  0
  3  2  1  0
  3  4  2  0
  3  7  1  0
  4  5  1  0
  5  6  1  0
  6  7  2  0
  9 13  1  0
 11 12  2  0
  8 12  1  0
 12 10  1  0
 14 19  2  0
 14  8  1  0
 14 15  1  0
 15 16  2  0
 16 17  1  0
 17 18  2  0
 17  9  1  0
 18 23  1  0
 18 19  1  0
 20 21  2  0
 20 24  1  0
 21 22  1  0
 22 23  2  0
 23 24  1  0
  2 16  1  0
  4 25  1  0
  6 26  1  0
  8 27  1  0
  8 28  1  0
 10 29  1  0
 13 30  1  0
 13 31  1  0
 13 32  1  0
 15 33  1  0
 19 34  1  0
 20 35  1  0
 21 36  1  0
 22 37  1  0
  1 38  1  0
  1 39  1  0
  2 40  1  0
  5 41  1  0
M  END
>  <smiles>  (454) 
[H]OC(=O)C([H])([H])c1c([H])c(-c2sc([H])c([H])c2[H])c(OC([H])([H])[H])c(C(N)c2nc([H])[nH]c2[H])c1[H]

>  <error>  (454) 


>  <∆∆G>  (454) 
-91.863027

>  <∆G_bound>  (454) 
-35.767982

>  <∆G_unbound>  (454) 
56.095045

>  <comRMSD>  (454) 
1.491864

>  <N_constrained_atoms>  (454) 
24.0

>  <N_unconstrained_atoms>  (454) 
0.0

>  <runtime>  (454) 
2.155969

>  <regarded>  (454) 
['z0875c', '6h80-a']

>  <disregarded>  (454) 
[]

>  <LE>  (454) 
3.827626

>  <outcome>  (454) 
too moved

>  <percent_hybrid>  (454) 
30.0

$$$$
LIG
     RDKit          3D

 46 48  0  0  0  0  0  0  0  0999 V2000
  -12.6913  -44.1995  -20.1247 N   0  0  0  0  0  0  0  0  0  0  0  0
  -13.3244  -42.9918  -19.6295 C   0  0  1  0  0  0  0  0  0  0  0  0
  -12.1847  -41.9743  -17.5989 O   0  0  0  0  0  0  0  0  0  0  0  0
  -13.3392  -43.8429  -17.2969 O   0  0  0  0  0  0  0  0  0  0  0  0
  -12.8681  -42.8530  -18.1097 C   0  0  0  0  0  0  0  0  0  0  0  0
  -18.3654  -42.1416  -15.6503 O   0  0  0  0  0  0  0  0  0  0  0  0
  -19.5787  -43.1485  -17.2436 O   0  0  0  0  0  0  0  0  0  0  0  0
  -19.4144  -46.2763  -24.5529 C   0  0  0  0  0  0  0  0  0  0  0  0
  -20.0527  -46.4600  -25.5541 C   0  0  0  0  0  0  0  0  0  0  0  0
  -20.8153  -46.7020  -26.7758 C   0  0  0  0  0  0  0  0  0  0  0  0
  -17.8579  -41.5713  -17.9059 C   0  0  0  0  0  0  0  0  0  0  0  0
  -18.7090  -42.3441  -16.9379 C   0  0  0  0  0  0  0  0  0  0  0  0
  -21.9411  -45.8386  -26.8317 O   0  0  0  0  0  0  0  0  0  0  0  0
  -12.8087  -41.8236  -20.4287 C   0  0  0  0  0  0  0  0  0  0  0  0
  -13.3500  -41.0544  -21.4417 C   0  0  0  0  0  0  0  0  0  0  0  0
  -12.5049  -40.0305  -21.7938 N   0  0  0  0  0  0  0  0  0  0  0  0
  -11.4618  -40.1629  -21.0084 C   0  0  0  0  0  0  0  0  0  0  0  0
  -11.5531  -41.2851  -20.2384 N   0  0  0  0  0  0  0  0  0  0  0  0
  -14.8466  -43.1153  -19.6872 C   0  0  0  0  0  0  0  0  0  0  0  0
  -15.6364  -42.3170  -18.8417 C   0  0  0  0  0  0  0  0  0  0  0  0
  -17.0212  -42.4738  -18.7857 C   0  0  0  0  0  0  0  0  0  0  0  0
  -17.6244  -43.4327  -19.6073 C   0  0  0  0  0  0  0  0  0  0  0  0
  -16.8692  -44.1922  -20.4994 C   0  0  0  0  0  0  0  0  0  0  0  0
  -15.4888  -44.0215  -20.5495 C   0  0  0  0  0  0  0  0  0  0  0  0
  -18.5153  -46.9919  -22.3405 C   0  0  0  0  0  0  0  0  0  0  0  0
  -18.7229  -46.0494  -23.3257 C   0  0  0  0  0  0  0  0  0  0  0  0
  -18.0985  -44.5262  -22.8964 S   0  0  0  0  0  0  0  0  0  0  0  0
  -17.5314  -45.1188  -21.3974 C   0  0  0  0  0  0  0  0  0  0  0  0
  -17.8112  -46.4565  -21.2247 C   0  0  0  0  0  0  0  0  0  0  0  0
  -13.0630  -43.5189  -16.4127 H   0  0  0  0  0  0  0  0  0  0  0  0
  -18.8113  -42.8812  -15.1540 H   0  0  0  0  0  0  0  0  0  0  0  0
  -21.1470  -47.7398  -26.8644 H   0  0  0  0  0  0  0  0  0  0  0  0
  -20.1901  -46.4687  -27.6350 H   0  0  0  0  0  0  0  0  0  0  0  0
  -18.5142  -40.9493  -18.5253 H   0  0  0  0  0  0  0  0  0  0  0  0
  -17.2188  -40.8793  -17.3443 H   0  0  0  0  0  0  0  0  0  0  0  0
  -22.7022  -46.3377  -26.4645 H   0  0  0  0  0  0  0  0  0  0  0  0
  -14.3150  -41.1689  -21.9203 H   0  0  0  0  0  0  0  0  0  0  0  0
  -10.6067  -39.5016  -20.9703 H   0  0  0  0  0  0  0  0  0  0  0  0
  -15.1689  -41.5571  -18.2154 H   0  0  0  0  0  0  0  0  0  0  0  0
  -18.7079  -43.5539  -19.5969 H   0  0  0  0  0  0  0  0  0  0  0  0
  -14.9173  -44.6046  -21.2689 H   0  0  0  0  0  0  0  0  0  0  0  0
  -18.8505  -48.0199  -22.4127 H   0  0  0  0  0  0  0  0  0  0  0  0
  -17.5402  -47.0234  -20.3431 H   0  0  0  0  0  0  0  0  0  0  0  0
  -13.0838  -45.0415  -19.7274 H   0  0  0  0  0  0  0  0  0  0  0  0
  -12.6366  -44.2558  -21.1429 H   0  0  0  0  0  0  0  0  0  0  0  0
  -10.8577  -41.6278  -19.5801 H   0  0  0  0  0  0  0  0  0  0  0  0
  2  1  1  1
  3  5  2  0
  5  4  1  0
  5  2  1  0
 13 10  1  0
 10  9  1  0
  9  8  3  0
 11 12  1  0
  7 12  2  0
 12  6  1  0
 14  2  1  0
 14 15  2  0
 14 18  1  0
 15 16  1  0
 16 17  2  0
 17 18  1  0
 19 24  1  0
 19 20  2  0
 20 21  1  0
 21 22  2  0
 21 11  1  0
 22 23  1  0
 23 28  1  0
 23 24  2  0
 25 26  2  0
 25 29  1  0
 26  8  1  0
 26 27  1  0
 27 28  1  0
 28 29  2  0
  2 19  1  0
  4 30  1  0
  6 31  1  0
 10 32  1  0
 10 33  1  0
 11 34  1  0
 11 35  1  0
 13 36  1  0
 15 37  1  0
 17 38  1  0
 20 39  1  0
 22 40  1  0
 24 41  1  0
 25 42  1  0
 29 43  1  0
  1 44  1  0
  1 45  1  0
 18 46  1  0
M  END
>  <smiles>  (455) 
[H]OC(=O)C([H])([H])c1c([H])c(-c2sc(C#CC([H])([H])O[H])c([H])c2[H])c([H])c([C@@](N)(C(=O)O[H])c2[nH]c([H])nc2[H])c1[H]

>  <error>  (455) 


>  <∆∆G>  (455) 
-55.592796

>  <∆G_bound>  (455) 
9.176388

>  <∆G_unbound>  (455) 
64.769184

>  <comRMSD>  (455) 
2.070314

>  <N_constrained_atoms>  (455) 
29.0

>  <N_unconstrained_atoms>  (455) 
0.0

>  <runtime>  (455) 
3.867387

>  <regarded>  (455) 
['z0875c', '5hmy-a']

>  <disregarded>  (455) 
[]

>  <LE>  (455) 
1.916993

>  <outcome>  (455) 
too moved

>  <percent_hybrid>  (455) 
25.0

$$$$
LIG
     RDKit          3D

  0  0  0  0  0  0  0  0  0  0999 V3000
M  V30 BEGIN CTAB
M  V30 COUNTS 36 38 0 0 0
M  V30 BEGIN ATOM
M  V30 1 N -13.297000 -44.498001 -20.850000 0
M  V30 2 C -12.948000 -43.432999 -21.100000 0
M  V30 3 C -12.567000 -42.085999 -21.440001 0
M  V30 4 C -13.246000 -41.202000 -22.230000 0
M  V30 5 N -12.548000 -40.040001 -22.191999 0
M  V30 6 C -11.474000 -40.242001 -21.403000 0
M  V30 7 N -11.428000 -41.477001 -20.927000 0
M  V30 8 C -18.292999 -38.539001 -26.643999 0
M  V30 9 C -17.152000 -39.429001 -27.195000 0
M  V30 10 O -17.379000 -40.272999 -28.011999 0
M  V30 11 O -15.821000 -39.264000 -26.753000 0
M  V30 12 O -16.072001 -44.653999 -21.667000 0
M  V30 13 C -15.751000 -43.828999 -22.466999 0
M  V30 14 C -14.571000 -42.931999 -22.371000 0
M  V30 15 C -14.705000 -41.751999 -23.525999 0
M  V30 16 C -15.849000 -42.087002 -24.396000 0
M  V30 17 S -16.513000 -43.477001 -23.871000 0
M  V30 18 C -15.449000 -40.089001 -25.684000 0
M  V30 19 C -16.188999 -41.264000 -25.438000 0
M  V30 20 C -13.980000 -40.595001 -23.754999 0
M  V30 21 C -14.332000 -39.752998 -24.834999 0
M  V30 22 N -13.759501 -43.182499 -21.735500 0
M  V30 23 H -14.174971 -41.394699 -22.786671 0
M  V30 24 H -10.722527 -39.470219 -21.180201 0
M  V30 25 H -18.272194 -38.555229 -25.544315 0
M  V30 26 H -18.156292 -37.506573 -26.998123 0
M  V30 27 H -19.261084 -38.922939 -26.998123 0
M  V30 28 H -17.041410 -41.520733 -26.084129 0
M  V30 29 H -13.135477 -40.332432 -23.100904 0
M  V30 30 H -13.752116 -38.838520 -25.028555 0
M  V30 31 H -12.959500 -42.382500 -20.935501 0
M  V30 32 H -13.335511 -44.615520 -19.827452 0
M  V30 33 H -14.233445 -44.655006 -21.249149 0
M  V30 34 H -12.566036 -43.785721 -22.069376 0
M  V30 35 H -12.793221 -39.164780 -22.676517 0
M  V30 36 H -16.879551 -45.205460 -21.821447 0
M  V30 END ATOM
M  V30 BEGIN BOND
M  V30 1 1 2 1
M  V30 2 1 3 2
M  V30 3 2 3 4
M  V30 4 1 3 7
M  V30 5 1 4 5
M  V30 6 1 5 6
M  V30 7 2 6 7
M  V30 8 1 11 9
M  V30 9 2 9 10
M  V30 10 1 9 8
M  V30 11 2 13 14
M  V30 12 1 13 12
M  V30 13 1 13 17
M  V30 14 1 14 15
M  V30 15 1 15 20
M  V30 16 2 15 16
M  V30 17 1 16 17
M  V30 18 1 16 19
M  V30 19 1 18 21
M  V30 20 2 18 19
M  V30 21 1 18 11
M  V30 22 2 20 21
M  V30 23 1 22 2
M  V30 24 1 22 14
M  V30 25 1 4 23
M  V30 26 1 6 24
M  V30 27 1 8 25
M  V30 28 1 8 26
M  V30 29 1 8 27
M  V30 30 1 19 28
M  V30 31 1 20 29
M  V30 32 1 21 30
M  V30 33 1 22 31
M  V30 34 1 1 32
M  V30 35 1 1 33
M  V30 36 1 2 34
M  V30 37 1 5 35
M  V30 38 1 12 36
M  V30 END BOND
M  V30 BEGIN COLLECTION
M  V30 MDLV30/STEABS ATOMS=(0)
M  V30 END COLLECTION
M  V30 END CTAB
M  END
>  <smiles>  (456) 
[H]c1nc(C(N)N([H])c2c(O)sc3c([H])c(OC(=O)C([H])([H])[H])c([H])c([H])c23)c([H])[nH]1

>  <error>  (456) 


>  <∆∆G>  (456) 
nan

>  <∆G_bound>  (456) 
nan

>  <∆G_unbound>  (456) 
nan

>  <comRMSD>  (456) 
0.0

>  <N_constrained_atoms>  (456) 
21.0

>  <N_unconstrained_atoms>  (456) 
1.0

>  <runtime>  (456) 
0.942472

>  <regarded>  (456) 
['z0875c', '6izx-a']

>  <disregarded>  (456) 
[]

>  <LE>  (456) 
nan

>  <outcome>  (456) 
crashed

>  <percent_hybrid>  (456) 
34.0

$$$$
LIG
     RDKit          3D

 66 70  0  0  0  0  0  0  0  0999 V2000
  -12.5901  -43.6833  -20.3650 N   0  0  0  0  0  0  0  0  0  0  0  0
  -13.3712  -42.8487  -21.2564 C   0  0  0  0  0  0  0  0  0  0  0  0
  -12.8643  -41.4409  -21.3650 C   0  0  0  0  0  0  0  0  0  0  0  0
  -13.4200  -40.3597  -22.0245 C   0  0  0  0  0  0  0  0  0  0  0  0
  -12.5563  -39.3212  -21.8216 N   0  0  0  0  0  0  0  0  0  0  0  0
  -11.5098  -39.7898  -21.0836 C   0  0  0  0  0  0  0  0  0  0  0  0
  -11.6458  -41.0673  -20.8175 N   0  0  0  0  0  0  0  0  0  0  0  0
  -22.0107  -45.8176  -26.9495 O   0  0  0  0  0  0  0  0  0  0  0  0
  -17.2244  -42.2826  -16.7805 O   0  0  0  0  0  0  0  0  0  0  0  0
  -15.8557  -43.6271  -14.1470 O   0  0  0  0  0  0  0  0  0  0  0  0
  -19.5239  -46.2810  -24.6465 C   0  0  0  0  0  0  0  0  0  0  0  0
  -20.1449  -46.4673  -25.6568 C   0  0  0  0  0  0  0  0  0  0  0  0
  -20.8946  -46.6941  -26.8842 C   0  0  0  0  0  0  0  0  0  0  0  0
  -16.3192  -42.8585  -17.2451 C   0  0  0  0  0  0  0  0  0  0  0  0
  -13.7351  -44.7370  -14.8434 O   0  0  0  0  0  0  0  0  0  0  0  0
  -14.6781  -43.6453  -14.9718 S   0  0  0  0  0  0  0  0  0  0  0  0
  -15.1101  -43.5734  -16.5537 N   0  0  0  0  0  0  0  0  0  0  0  0
  -14.0702  -41.5854  -18.5662 C   0  0  0  0  0  0  0  0  0  0  0  0
  -15.4420  -44.0494  -22.6810 O   0  0  0  0  0  0  0  0  0  0  0  0
  -15.4731  -43.0146  -23.6669 C   0  0  0  0  0  0  0  0  0  0  0  0
  -15.7179  -43.5955  -21.4053 C   0  0  0  0  0  0  0  0  0  0  0  0
  -14.7656  -42.8480  -20.6916 C   0  0  0  0  0  0  0  0  0  0  0  0
  -15.0315  -42.4564  -19.3494 C   0  0  0  0  0  0  0  0  0  0  0  0
  -16.1676  -42.9946  -18.7183 C   0  0  0  0  0  0  0  0  0  0  0  0
  -17.0867  -43.7932  -19.4151 C   0  0  0  0  0  0  0  0  0  0  0  0
  -16.8685  -44.0864  -20.7659 C   0  0  0  0  0  0  0  0  0  0  0  0
  -18.8897  -46.0150  -23.3981 C   0  0  0  0  0  0  0  0  0  0  0  0
  -18.5699  -46.9493  -22.4354 C   0  0  0  0  0  0  0  0  0  0  0  0
  -17.9042  -46.3629  -21.3202 C   0  0  0  0  0  0  0  0  0  0  0  0
  -17.7303  -45.0064  -21.4974 C   0  0  0  0  0  0  0  0  0  0  0  0
  -18.5800  -44.4310  -22.8682 S   0  0  0  0  0  0  0  0  0  0  0  0
  -14.7478  -41.1094  -14.0571 C   0  0  0  0  0  0  0  0  0  0  0  0
  -14.2082  -39.9012  -13.6586 C   0  0  0  0  0  0  0  0  0  0  0  0
  -12.8552  -39.6776  -13.8605 C   0  0  0  0  0  0  0  0  0  0  0  0
  -12.0448  -40.6594  -14.4591 C   0  0  0  0  0  0  0  0  0  0  0  0
  -12.5724  -41.9056  -14.8692 C   0  0  0  0  0  0  0  0  0  0  0  0
  -13.9289  -42.0932  -14.6507 C   0  0  0  0  0  0  0  0  0  0  0  0
  -10.6812  -40.4161  -14.6483 C   0  0  0  0  0  0  0  0  0  0  0  0
   -9.8709  -41.3965  -15.1984 C   0  0  0  0  0  0  0  0  0  0  0  0
  -10.4599  -42.5882  -15.5563 C   0  0  0  0  0  0  0  0  0  0  0  0
  -11.7800  -42.8400  -15.4415 N   0  0  0  0  0  0  0  0  0  0  0  0
  -14.3365  -40.2431  -22.5852 H   0  0  0  0  0  0  0  0  0  0  0  0
  -10.6828  -39.1615  -20.7788 H   0  0  0  0  0  0  0  0  0  0  0  0
  -22.7774  -46.3097  -26.5893 H   0  0  0  0  0  0  0  0  0  0  0  0
  -21.2351  -47.7281  -26.9830 H   0  0  0  0  0  0  0  0  0  0  0  0
  -20.2503  -46.4521  -27.7257 H   0  0  0  0  0  0  0  0  0  0  0  0
  -14.4597  -43.9043  -17.2620 H   0  0  0  0  0  0  0  0  0  0  0  0
  -14.5307  -41.1773  -17.6610 H   0  0  0  0  0  0  0  0  0  0  0  0
  -13.1738  -42.1342  -18.2682 H   0  0  0  0  0  0  0  0  0  0  0  0
  -13.8005  -40.6932  -19.1328 H   0  0  0  0  0  0  0  0  0  0  0  0
  -16.0203  -42.1244  -23.3364 H   0  0  0  0  0  0  0  0  0  0  0  0
  -14.4586  -42.7410  -23.9665 H   0  0  0  0  0  0  0  0  0  0  0  0
  -15.9755  -43.4129  -24.5541 H   0  0  0  0  0  0  0  0  0  0  0  0
  -17.9480  -44.2071  -18.8953 H   0  0  0  0  0  0  0  0  0  0  0  0
  -18.7616  -48.0104  -22.5382 H   0  0  0  0  0  0  0  0  0  0  0  0
  -17.4841  -46.9287  -20.4977 H   0  0  0  0  0  0  0  0  0  0  0  0
  -15.8107  -41.2893  -13.8930 H   0  0  0  0  0  0  0  0  0  0  0  0
  -14.8344  -39.1447  -13.1932 H   0  0  0  0  0  0  0  0  0  0  0  0
  -12.4286  -38.7277  -13.5436 H   0  0  0  0  0  0  0  0  0  0  0  0
  -10.2361  -39.4713  -14.3456 H   0  0  0  0  0  0  0  0  0  0  0  0
   -8.8053  -41.2424  -15.3228 H   0  0  0  0  0  0  0  0  0  0  0  0
   -9.8635  -43.4104  -15.9387 H   0  0  0  0  0  0  0  0  0  0  0  0
  -11.8583  -43.0635  -19.9975 H   0  0  0  0  0  0  0  0  0  0  0  0
  -12.0660  -44.3030  -21.0039 H   0  0  0  0  0  0  0  0  0  0  0  0
  -13.3062  -43.2936  -22.2489 H   0  0  0  0  0  0  0  0  0  0  0  0
  -12.6736  -38.3695  -22.1402 H   0  0  0  0  0  0  0  0  0  0  0  0
  2  1  1  0
  3  2  1  0
  3  4  2  0
  3  7  1  0
  4  5  1  0
  5  6  1  0
  6  7  2  0
  8 13  1  0
 13 12  1  0
 12 11  3  0
 19 20  1  0
  9 14  2  0
 14 17  1  0
 10 16  2  0
 17 16  1  0
 16 15  2  0
 21 26  2  0
 21 19  1  0
 21 22  1  0
 22 23  2  0
 23 24  1  0
 23 18  1  0
 24 25  2  0
 24 14  1  0
 25 26  1  0
 26 30  1  0
 27 11  1  0
 27 28  2  0
 27 31  1  0
 28 29  1  0
 29 30  2  0
 30 31  1  0
 32 37  2  0
 32 33  1  0
 33 34  2  0
 34 35  1  0
 35 36  2  0
 35 38  1  0
 36 37  1  0
 36 41  1  0
 37 16  1  0
 38 39  2  0
 39 40  1  0
 40 41  2  0
  2 22  1  0
  4 42  1  0
  6 43  1  0
  8 44  1  0
 13 45  1  0
 13 46  1  0
 17 47  1  0
 18 48  1  0
 18 49  1  0
 18 50  1  0
 20 51  1  0
 20 52  1  0
 20 53  1  0
 25 54  1  0
 28 55  1  0
 29 56  1  0
 32 57  1  0
 33 58  1  0
 34 59  1  0
 38 60  1  0
 39 61  1  0
 40 62  1  0
  1 63  1  0
  1 64  1  0
  2 65  1  0
  5 66  1  0
M  END
>  <smiles>  (457) 
[H]OC([H])([H])C#Cc1sc(-c2c([H])c(C(=O)N([H])S(=O)(=O)c3c([H])c([H])c([H])c4c([H])c([H])c([H])nc34)c(C([H])([H])[H])c(C(N)c3nc([H])[nH]c3[H])c2OC([H])([H])[H])c([H])c1[H]

>  <error>  (457) 


>  <∆∆G>  (457) 
-80.65556

>  <∆G_bound>  (457) 
-12.768376

>  <∆G_unbound>  (457) 
67.887184

>  <comRMSD>  (457) 
0.782631

>  <N_constrained_atoms>  (457) 
41.0

>  <N_unconstrained_atoms>  (457) 
0.0

>  <runtime>  (457) 
3.967769

>  <regarded>  (457) 
['z0875c', '5i3q-a']

>  <disregarded>  (457) 
[]

>  <LE>  (457) 
1.967209

>  <outcome>  (457) 
acceptable

>  <percent_hybrid>  (457) 
18.0

$$$$
LIG
     RDKit          3D

 40 42  0  0  0  0  0  0  0  0999 V2000
  -13.3253  -43.5152  -22.4424 N   0  0  0  0  0  0  0  0  0  0  0  0
  -14.0751  -42.4087  -21.8562 C   0  0  2  0  0  0  0  0  0  0  0  0
  -15.9256  -40.8565  -22.4361 O   0  0  0  0  0  0  0  0  0  0  0  0
  -15.0145  -41.7401  -22.9521 C   0  0  0  0  0  0  0  0  0  0  0  0
  -14.9869  -41.9542  -24.1581 O   0  0  0  0  0  0  0  0  0  0  0  0
  -16.1650  -42.0724  -15.1652 O   0  0  0  0  0  0  0  0  0  0  0  0
  -17.6478  -42.8699  -16.6279 O   0  0  0  0  0  0  0  0  0  0  0  0
  -15.3397  -43.4433  -16.9799 C   0  0  0  0  0  0  0  0  0  0  0  0
  -16.3872  -42.7064  -16.1866 C   0  0  0  0  0  0  0  0  0  0  0  0
  -13.0957  -41.3607  -21.3661 C   0  0  0  0  0  0  0  0  0  0  0  0
  -12.9459  -40.0494  -21.7916 C   0  0  0  0  0  0  0  0  0  0  0  0
  -11.8444  -39.5635  -21.1485 N   0  0  0  0  0  0  0  0  0  0  0  0
  -11.3607  -40.5609  -20.3579 C   0  0  0  0  0  0  0  0  0  0  0  0
  -12.0820  -41.6507  -20.4671 N   0  0  0  0  0  0  0  0  0  0  0  0
  -14.9189  -42.9867  -20.7326 C   0  0  0  0  0  0  0  0  0  0  0  0
  -14.7556  -42.8608  -19.3556 C   0  0  0  0  0  0  0  0  0  0  0  0
  -15.5828  -43.5786  -18.4677 C   0  0  0  0  0  0  0  0  0  0  0  0
  -16.5803  -44.4394  -18.9800 C   0  0  0  0  0  0  0  0  0  0  0  0
  -16.7610  -44.5694  -20.3518 C   0  0  0  0  0  0  0  0  0  0  0  0
  -15.9257  -43.8474  -21.1879 C   0  0  0  0  0  0  0  0  0  0  0  0
  -18.4202  -47.5008  -21.9080 C   0  0  0  0  0  0  0  0  0  0  0  0
  -18.7484  -46.6140  -22.9053 C   0  0  0  0  0  0  0  0  0  0  0  0
  -18.5539  -45.0044  -22.3932 S   0  0  0  0  0  0  0  0  0  0  0  0
  -17.6537  -45.5126  -21.0112 C   0  0  0  0  0  0  0  0  0  0  0  0
  -17.7817  -46.8673  -20.8075 C   0  0  0  0  0  0  0  0  0  0  0  0
  -15.8852  -40.7971  -21.4611 H   0  0  0  0  0  0  0  0  0  0  0  0
  -18.2027  -42.6017  -15.8585 H   0  0  0  0  0  0  0  0  0  0  0  0
  -14.3905  -42.9176  -16.8156 H   0  0  0  0  0  0  0  0  0  0  0  0
  -15.2130  -44.4416  -16.5491 H   0  0  0  0  0  0  0  0  0  0  0  0
  -13.4868  -39.4512  -22.5138 H   0  0  0  0  0  0  0  0  0  0  0  0
  -10.4825  -40.4478  -19.7351 H   0  0  0  0  0  0  0  0  0  0  0  0
  -13.9585  -42.2356  -18.9562 H   0  0  0  0  0  0  0  0  0  0  0  0
  -17.2216  -44.9991  -18.3102 H   0  0  0  0  0  0  0  0  0  0  0  0
  -16.0183  -44.0082  -22.2658 H   0  0  0  0  0  0  0  0  0  0  0  0
  -18.5389  -48.5672  -22.0235 H   0  0  0  0  0  0  0  0  0  0  0  0
  -19.1482  -46.8423  -23.8854 H   0  0  0  0  0  0  0  0  0  0  0  0
  -17.3118  -47.3969  -19.9922 H   0  0  0  0  0  0  0  0  0  0  0  0
  -12.5275  -43.8019  -21.8632 H   0  0  0  0  0  0  0  0  0  0  0  0
  -13.8683  -44.3422  -22.6505 H   0  0  0  0  0  0  0  0  0  0  0  0
  -11.4411  -38.6413  -21.2488 H   0  0  0  0  0  0  0  0  0  0  0  0
  2  1  1  6
  5  4  2  0
  4  3  1  0
  4  2  1  0
  8  9  1  0
  9  6  2  0
  9  7  1  0
 10  2  1  0
 10 11  2  0
 10 14  1  0
 11 12  1  0
 12 13  1  0
 13 14  2  0
 15 20  1  0
 15 16  2  0
 16 17  1  0
 17 18  2  0
 17  8  1  0
 18 19  1  0
 19 24  1  0
 19 20  2  0
 21 22  2  0
 21 25  1  0
 22 23  1  0
 23 24  1  0
 24 25  2  0
  2 15  1  0
  3 26  1  0
  7 27  1  0
  8 28  1  0
  8 29  1  0
 11 30  1  0
 13 31  1  0
 16 32  1  0
 18 33  1  0
 20 34  1  0
 21 35  1  0
 22 36  1  0
 25 37  1  0
  1 38  1  0
  1 39  1  0
 12 40  1  0
M  END
>  <smiles>  (458) 
[H]OC(=O)C([H])([H])c1c([H])c(-c2sc([H])c([H])c2[H])c([H])c([C@@](N)(C(=O)O[H])c2nc([H])[nH]c2[H])c1[H]

>  <error>  (458) 


>  <∆∆G>  (458) 
-69.345147

>  <∆G_bound>  (458) 
23.740597

>  <∆G_unbound>  (458) 
93.085744

>  <comRMSD>  (458) 
1.449999

>  <N_constrained_atoms>  (458) 
25.0

>  <N_unconstrained_atoms>  (458) 
0.0

>  <runtime>  (458) 
1.822103

>  <regarded>  (458) 
['z0875c', '5hmx-b']

>  <disregarded>  (458) 
[]

>  <LE>  (458) 
2.773806

>  <outcome>  (458) 
too moved

>  <percent_hybrid>  (458) 
28.0

$$$$
LIG
     RDKit          3D

 66 69  0  0  0  0  0  0  0  0999 V2000
  -12.0985  -43.0460  -20.0275 N   0  0  0  0  0  0  0  0  0  0  0  0
  -13.0861  -42.7635  -21.0349 C   0  0  0  0  0  0  0  0  0  0  0  0
  -12.9676  -41.3147  -21.4276 C   0  0  0  0  0  0  0  0  0  0  0  0
  -13.8316  -40.4686  -22.0938 C   0  0  0  0  0  0  0  0  0  0  0  0
  -13.1664  -39.2802  -22.2216 N   0  0  0  0  0  0  0  0  0  0  0  0
  -11.9403  -39.4211  -21.6454 C   0  0  0  0  0  0  0  0  0  0  0  0
  -11.7796  -40.6310  -21.1709 N   0  0  0  0  0  0  0  0  0  0  0  0
  -13.8527  -42.1673  -18.2930 O   0  0  0  0  0  0  0  0  0  0  0  0
  -17.3364  -40.7019  -14.8490 O   0  0  0  0  0  0  0  0  0  0  0  0
  -12.3936  -38.8280  -15.2526 O   0  0  0  0  0  0  0  0  0  0  0  0
  -19.3861  -46.3189  -24.5146 C   0  0  0  0  0  0  0  0  0  0  0  0
  -20.0024  -46.4902  -25.5323 C   0  0  0  0  0  0  0  0  0  0  0  0
  -20.7515  -46.7301  -26.7646 C   0  0  0  0  0  0  0  0  0  0  0  0
  -15.0442  -44.4583  -16.4941 O   0  0  0  0  0  0  0  0  0  0  0  0
  -15.6867  -43.6212  -16.9984 C   0  0  0  0  0  0  0  0  0  0  0  0
  -16.4624  -42.4269  -16.3675 N   0  0  0  0  0  0  0  0  0  0  0  0
  -16.5340  -41.9048  -14.8132 S   0  0  0  0  0  0  0  0  0  0  0  0
  -16.8213  -42.9610  -13.8865 O   0  0  0  0  0  0  0  0  0  0  0  0
  -13.1263  -37.9700  -16.1131 C   0  0  0  0  0  0  0  0  0  0  0  0
  -13.9020  -40.7637  -18.5076 C   0  0  0  0  0  0  0  0  0  0  0  0
  -14.9975  -44.3230  -22.4830 O   0  0  0  0  0  0  0  0  0  0  0  0
  -15.0401  -43.3466  -23.5177 C   0  0  0  0  0  0  0  0  0  0  0  0
  -21.8503  -45.8332  -26.8525 O   0  0  0  0  0  0  0  0  0  0  0  0
  -15.3315  -43.8677  -21.2238 C   0  0  0  0  0  0  0  0  0  0  0  0
  -14.4459  -43.0719  -20.4778 C   0  0  0  0  0  0  0  0  0  0  0  0
  -14.7255  -42.8541  -19.1083 C   0  0  0  0  0  0  0  0  0  0  0  0
  -15.7573  -43.5442  -18.4758 C   0  0  0  0  0  0  0  0  0  0  0  0
  -16.6330  -44.3394  -19.2147 C   0  0  0  0  0  0  0  0  0  0  0  0
  -16.4514  -44.4671  -20.6036 C   0  0  0  0  0  0  0  0  0  0  0  0
  -12.2719  -40.7095  -13.8908 C   0  0  0  0  0  0  0  0  0  0  0  0
  -12.7942  -41.8707  -13.3238 C   0  0  0  0  0  0  0  0  0  0  0  0
  -14.0950  -42.2493  -13.6243 C   0  0  0  0  0  0  0  0  0  0  0  0
  -14.8676  -41.4420  -14.4677 C   0  0  0  0  0  0  0  0  0  0  0  0
  -14.3670  -40.2555  -14.9945 C   0  0  0  0  0  0  0  0  0  0  0  0
  -13.0470  -39.9088  -14.7368 C   0  0  0  0  0  0  0  0  0  0  0  0
  -17.7014  -46.6265  -21.2308 C   0  0  0  0  0  0  0  0  0  0  0  0
  -18.4969  -47.1004  -22.3156 C   0  0  0  0  0  0  0  0  0  0  0  0
  -18.7190  -46.1267  -23.2660 C   0  0  0  0  0  0  0  0  0  0  0  0
  -18.1642  -44.6091  -22.7433 S   0  0  0  0  0  0  0  0  0  0  0  0
  -17.3613  -45.2998  -21.3902 C   0  0  0  0  0  0  0  0  0  0  0  0
  -14.8329  -40.5958  -22.4758 H   0  0  0  0  0  0  0  0  0  0  0  0
  -11.2117  -38.6211  -21.6073 H   0  0  0  0  0  0  0  0  0  0  0  0
  -21.1139  -47.7583  -26.8428 H   0  0  0  0  0  0  0  0  0  0  0  0
  -20.1069  -46.5298  -27.6172 H   0  0  0  0  0  0  0  0  0  0  0  0
  -16.9829  -41.9409  -17.0897 H   0  0  0  0  0  0  0  0  0  0  0  0
  -14.0018  -37.5494  -15.6074 H   0  0  0  0  0  0  0  0  0  0  0  0
  -12.4727  -37.1339  -16.3812 H   0  0  0  0  0  0  0  0  0  0  0  0
  -13.4074  -38.4710  -17.0396 H   0  0  0  0  0  0  0  0  0  0  0  0
  -14.4574  -40.3212  -17.6827 H   0  0  0  0  0  0  0  0  0  0  0  0
  -12.8862  -40.3610  -18.5065 H   0  0  0  0  0  0  0  0  0  0  0  0
  -14.4311  -40.4609  -19.4140 H   0  0  0  0  0  0  0  0  0  0  0  0
  -15.7184  -42.5199  -23.2863 H   0  0  0  0  0  0  0  0  0  0  0  0
  -14.0405  -42.9781  -23.7438 H   0  0  0  0  0  0  0  0  0  0  0  0
  -15.4137  -43.8358  -24.4227 H   0  0  0  0  0  0  0  0  0  0  0  0
  -22.6216  -46.2968  -26.4607 H   0  0  0  0  0  0  0  0  0  0  0  0
  -17.4259  -44.8886  -18.7145 H   0  0  0  0  0  0  0  0  0  0  0  0
  -11.2421  -40.4284  -13.6806 H   0  0  0  0  0  0  0  0  0  0  0  0
  -12.1789  -42.4869  -12.6734 H   0  0  0  0  0  0  0  0  0  0  0  0
  -14.4970  -43.1690  -13.2045 H   0  0  0  0  0  0  0  0  0  0  0  0
  -15.0162  -39.6336  -15.5993 H   0  0  0  0  0  0  0  0  0  0  0  0
  -17.3398  -47.2555  -20.4264 H   0  0  0  0  0  0  0  0  0  0  0  0
  -18.8319  -48.1253  -22.4179 H   0  0  0  0  0  0  0  0  0  0  0  0
  -11.2267  -42.6133  -20.3433 H   0  0  0  0  0  0  0  0  0  0  0  0
  -12.2899  -42.5431  -19.1667 H   0  0  0  0  0  0  0  0  0  0  0  0
  -12.8752  -43.3881  -21.8988 H   0  0  0  0  0  0  0  0  0  0  0  0
  -13.5236  -38.4432  -22.6600 H   0  0  0  0  0  0  0  0  0  0  0  0
  2  1  1  0
  3  2  1  0
  3  4  2  0
  3  7  1  0
  4  5  1  0
  5  6  1  0
  6  7  2  0
 13 23  1  0
 13 12  1  0
 12 11  3  0
 21 22  1  0
 16 15  1  0
 16 17  1  0
 15 14  2  0
  9 17  2  0
 18 17  2  0
  8 20  1  0
 19 10  1  0
 24 29  2  0
 24 21  1  0
 24 25  1  0
 25 26  2  0
 26 27  1  0
 26  8  1  0
 27 28  2  0
 27 15  1  0
 28 29  1  0
 29 40  1  0
 30 35  2  0
 30 31  1  0
 31 32  2  0
 32 33  1  0
 33 17  1  0
 33 34  2  0
 34 35  1  0
 35 10  1  0
 36 37  1  0
 36 40  2  0
 37 38  2  0
 38 11  1  0
 38 39  1  0
 39 40  1  0
  2 25  1  0
  4 41  1  0
  6 42  1  0
 13 43  1  0
 13 44  1  0
 16 45  1  0
 19 46  1  0
 19 47  1  0
 19 48  1  0
 20 49  1  0
 20 50  1  0
 20 51  1  0
 22 52  1  0
 22 53  1  0
 22 54  1  0
 23 55  1  0
 28 56  1  0
 30 57  1  0
 31 58  1  0
 32 59  1  0
 34 60  1  0
 36 61  1  0
 37 62  1  0
  1 63  1  0
  1 64  1  0
  2 65  1  0
  5 66  1  0
M  END
>  <smiles>  (459) 
[H]OC([H])([H])C#Cc1sc(-c2c([H])c(C(=O)N([H])S(=O)(=O)c3c([H])c([H])c([H])c(OC([H])([H])[H])c3[H])c(OC([H])([H])[H])c(C(N)c3nc([H])[nH]c3[H])c2OC([H])([H])[H])c([H])c1[H]

>  <error>  (459) 


>  <∆∆G>  (459) 
-244.770537

>  <∆G_bound>  (459) 
9.734359

>  <∆G_unbound>  (459) 
254.504896

>  <comRMSD>  (459) 
0.956569

>  <N_constrained_atoms>  (459) 
40.0

>  <N_unconstrained_atoms>  (459) 
0.0

>  <runtime>  (459) 
5.923157

>  <regarded>  (459) 
['z0875c', '5k5m-a']

>  <disregarded>  (459) 
[]

>  <LE>  (459) 
6.119263

>  <outcome>  (459) 
acceptable

>  <percent_hybrid>  (459) 
18.0

$$$$
LIG
     RDKit          3D

 54 56  0  0  0  0  0  0  0  0999 V2000
  -12.5526  -43.6821  -20.5364 N   0  0  0  0  0  0  0  0  0  0  0  0
  -13.3886  -42.8323  -21.3548 C   0  0  0  0  0  0  0  0  0  0  0  0
  -12.9132  -41.4096  -21.4141 C   0  0  0  0  0  0  0  0  0  0  0  0
  -13.5118  -40.3041  -21.9886 C   0  0  0  0  0  0  0  0  0  0  0  0
  -12.6426  -39.2687  -21.7905 N   0  0  0  0  0  0  0  0  0  0  0  0
  -11.5553  -39.7587  -21.1304 C   0  0  0  0  0  0  0  0  0  0  0  0
  -11.6700  -41.0470  -20.9131 N   0  0  0  0  0  0  0  0  0  0  0  0
  -19.5396  -46.3002  -24.6591 C   0  0  0  0  0  0  0  0  0  0  0  0
  -15.4502  -40.8754  -14.7868 C   0  0  0  0  0  0  0  0  0  0  0  0
  -20.1623  -46.4635  -25.6717 C   0  0  0  0  0  0  0  0  0  0  0  0
  -20.9061  -46.6709  -26.9045 C   0  0  0  0  0  0  0  0  0  0  0  0
  -15.7813  -43.6037  -17.2307 C   0  0  0  0  0  0  0  0  0  0  0  0
  -13.8981  -41.9324  -18.4971 C   0  0  0  0  0  0  0  0  0  0  0  0
  -15.5307  -43.9232  -22.7800 O   0  0  0  0  0  0  0  0  0  0  0  0
  -15.5688  -42.8062  -23.6675 C   0  0  0  0  0  0  0  0  0  0  0  0
  -15.0499  -44.4295  -16.8445 O   0  0  0  0  0  0  0  0  0  0  0  0
  -16.6081  -42.5450  -16.4485 N   0  0  0  0  0  0  0  0  0  0  0  0
  -16.6326  -42.1829  -14.8521 S   0  0  0  0  0  0  0  0  0  0  0  0
  -16.0528  -43.2551  -14.0825 O   0  0  0  0  0  0  0  0  0  0  0  0
  -17.9278  -41.6028  -14.5766 O   0  0  0  0  0  0  0  0  0  0  0  0
  -22.0130  -45.7830  -26.9690 O   0  0  0  0  0  0  0  0  0  0  0  0
  -16.8757  -44.1552  -19.3844 C   0  0  0  0  0  0  0  0  0  0  0  0
  -15.9407  -43.3906  -18.6827 C   0  0  0  0  0  0  0  0  0  0  0  0
  -14.9205  -42.6777  -19.3318 C   0  0  0  0  0  0  0  0  0  0  0  0
  -14.7568  -42.8909  -20.7282 C   0  0  0  0  0  0  0  0  0  0  0  0
  -15.7345  -43.5962  -21.4522 C   0  0  0  0  0  0  0  0  0  0  0  0
  -16.7945  -44.2320  -20.7790 C   0  0  0  0  0  0  0  0  0  0  0  0
  -18.8948  -46.0685  -23.4115 C   0  0  0  0  0  0  0  0  0  0  0  0
  -18.5847  -47.0259  -22.4699 C   0  0  0  0  0  0  0  0  0  0  0  0
  -17.8785  -46.4765  -21.3635 C   0  0  0  0  0  0  0  0  0  0  0  0
  -17.6768  -45.1216  -21.5225 C   0  0  0  0  0  0  0  0  0  0  0  0
  -18.5614  -44.5020  -22.8513 S   0  0  0  0  0  0  0  0  0  0  0  0
  -14.4557  -40.1687  -22.4962 H   0  0  0  0  0  0  0  0  0  0  0  0
  -10.7160  -39.1379  -20.8440 H   0  0  0  0  0  0  0  0  0  0  0  0
  -15.4076  -40.5058  -13.7596 H   0  0  0  0  0  0  0  0  0  0  0  0
  -14.4708  -41.2595  -15.0785 H   0  0  0  0  0  0  0  0  0  0  0  0
  -15.7670  -40.0701  -15.4525 H   0  0  0  0  0  0  0  0  0  0  0  0
  -21.2572  -47.7006  -27.0126 H   0  0  0  0  0  0  0  0  0  0  0  0
  -20.2546  -46.4296  -27.7406 H   0  0  0  0  0  0  0  0  0  0  0  0
  -14.3570  -41.5179  -17.5944 H   0  0  0  0  0  0  0  0  0  0  0  0
  -13.0766  -42.5843  -18.1882 H   0  0  0  0  0  0  0  0  0  0  0  0
  -13.5126  -41.0528  -19.0106 H   0  0  0  0  0  0  0  0  0  0  0  0
  -14.5601  -42.5265  -23.9804 H   0  0  0  0  0  0  0  0  0  0  0  0
  -16.1110  -43.1136  -24.5674 H   0  0  0  0  0  0  0  0  0  0  0  0
  -16.0884  -41.9415  -23.2400 H   0  0  0  0  0  0  0  0  0  0  0  0
  -17.2050  -42.0352  -17.0942 H   0  0  0  0  0  0  0  0  0  0  0  0
  -22.7799  -46.2659  -26.5961 H   0  0  0  0  0  0  0  0  0  0  0  0
  -17.6159  -44.7416  -18.8462 H   0  0  0  0  0  0  0  0  0  0  0  0
  -18.8023  -48.0799  -22.5878 H   0  0  0  0  0  0  0  0  0  0  0  0
  -17.4518  -47.0682  -20.5625 H   0  0  0  0  0  0  0  0  0  0  0  0
  -12.0153  -44.2596  -21.2050 H   0  0  0  0  0  0  0  0  0  0  0  0
  -11.8330  -43.0600  -20.1525 H   0  0  0  0  0  0  0  0  0  0  0  0
  -13.3602  -43.2388  -22.3649 H   0  0  0  0  0  0  0  0  0  0  0  0
  -12.7805  -38.3060  -22.0646 H   0  0  0  0  0  0  0  0  0  0  0  0
  2  1  1  0
  3  2  1  0
  3  4  2  0
  3  7  1  0
  4  5  1  0
  5  6  1  0
  6  7  2  0
 21 11  1  0
 11 10  1  0
 10  8  3  0
 14 15  1  0
 19 18  2  0
 17 12  1  0
 17 18  1  0
 12 16  2  0
 20 18  2  0
 18  9  1  0
 22 27  2  0
 22 23  1  0
 23 12  1  0
 23 24  2  0
 24 25  1  0
 24 13  1  0
 25 26  2  0
 26 27  1  0
 26 14  1  0
 27 31  1  0
 28  8  1  0
 28 29  2  0
 28 32  1  0
 29 30  1  0
 30 31  2  0
 31 32  1  0
  2 25  1  0
  4 33  1  0
  6 34  1  0
  9 35  1  0
  9 36  1  0
  9 37  1  0
 11 38  1  0
 11 39  1  0
 13 40  1  0
 13 41  1  0
 13 42  1  0
 15 43  1  0
 15 44  1  0
 15 45  1  0
 17 46  1  0
 21 47  1  0
 22 48  1  0
 29 49  1  0
 30 50  1  0
  1 51  1  0
  1 52  1  0
  2 53  1  0
  5 54  1  0
M  END
>  <smiles>  (460) 
[H]OC([H])([H])C#Cc1sc(-c2c([H])c(C(=O)N([H])S(=O)(=O)C([H])([H])[H])c(C([H])([H])[H])c(C(N)c3nc([H])[nH]c3[H])c2OC([H])([H])[H])c([H])c1[H]

>  <error>  (460) 


>  <∆∆G>  (460) 
-84.085255

>  <∆G_bound>  (460) 
-44.944401

>  <∆G_unbound>  (460) 
39.140855

>  <comRMSD>  (460) 
0.744804

>  <N_constrained_atoms>  (460) 
32.0

>  <N_unconstrained_atoms>  (460) 
0.0

>  <runtime>  (460) 
4.710737

>  <regarded>  (460) 
['z0875c', '5hmz-a']

>  <disregarded>  (460) 
[]

>  <LE>  (460) 
2.627664

>  <outcome>  (460) 
acceptable

>  <percent_hybrid>  (460) 
22.0

$$$$
LIG
     RDKit          3D

 43 45  0  0  0  0  0  0  0  0999 V2000
  -12.8553  -44.0347  -20.6477 N   0  0  0  0  0  0  0  0  0  0  0  0
  -13.4706  -42.8255  -20.0451 C   0  0  0  0  0  0  0  0  0  0  0  0
  -12.7609  -41.5789  -17.9787 O   0  0  0  0  0  0  0  0  0  0  0  0
  -12.2557  -43.7716  -18.1635 O   0  0  0  0  0  0  0  0  0  0  0  0
  -12.7821  -42.6068  -18.6444 C   0  0  0  0  0  0  0  0  0  0  0  0
  -17.6608  -42.3840  -17.2470 C   0  0  0  0  0  0  0  0  0  0  0  0
  -19.9287  -43.1377  -17.3069 O   0  0  0  0  0  0  0  0  0  0  0  0
  -19.1237  -42.0576  -17.4070 C   0  0  0  0  0  0  0  0  0  0  0  0
  -19.6008  -40.9550  -17.6253 O   0  0  0  0  0  0  0  0  0  0  0  0
  -13.2416  -41.6290  -20.9342 C   0  0  0  0  0  0  0  0  0  0  0  0
  -14.1076  -40.8869  -21.7168 C   0  0  0  0  0  0  0  0  0  0  0  0
  -13.3716  -39.8423  -22.2039 N   0  0  0  0  0  0  0  0  0  0  0  0
  -12.0987  -39.9825  -21.7394 C   0  0  0  0  0  0  0  0  0  0  0  0
  -11.9633  -41.0941  -21.0563 N   0  0  0  0  0  0  0  0  0  0  0  0
  -16.9879  -42.9524  -18.4763 C   0  0  0  0  0  0  0  0  0  0  0  0
  -15.6581  -42.5978  -18.7402 C   0  0  0  0  0  0  0  0  0  0  0  0
  -14.9709  -43.0759  -19.8671 C   0  0  0  0  0  0  0  0  0  0  0  0
  -15.6974  -43.8655  -20.7767 C   0  0  0  0  0  0  0  0  0  0  0  0
  -17.0112  -44.2662  -20.5174 C   0  0  0  0  0  0  0  0  0  0  0  0
  -17.6323  -43.8382  -19.3446 C   0  0  0  0  0  0  0  0  0  0  0  0
  -18.4534  -47.2796  -22.2205 C   0  0  0  0  0  0  0  0  0  0  0  0
  -17.8808  -46.4738  -21.2449 C   0  0  0  0  0  0  0  0  0  0  0  0
  -17.7099  -45.1054  -21.4807 C   0  0  0  0  0  0  0  0  0  0  0  0
  -18.1738  -44.5492  -22.6820 C   0  0  0  0  0  0  0  0  0  0  0  0
  -18.7526  -45.3554  -23.6534 C   0  0  0  0  0  0  0  0  0  0  0  0
  -18.8464  -46.7276  -23.4382 C   0  0  0  0  0  0  0  0  0  0  0  0
  -12.2684  -44.4116  -18.9246 H   0  0  0  0  0  0  0  0  0  0  0  0
  -17.1731  -41.4446  -16.9549 H   0  0  0  0  0  0  0  0  0  0  0  0
  -17.5206  -43.0630  -16.4039 H   0  0  0  0  0  0  0  0  0  0  0  0
  -20.8332  -42.7584  -17.3366 H   0  0  0  0  0  0  0  0  0  0  0  0
  -15.1670  -40.9751  -21.9148 H   0  0  0  0  0  0  0  0  0  0  0  0
  -11.3168  -39.2631  -21.9460 H   0  0  0  0  0  0  0  0  0  0  0  0
  -15.1634  -41.9314  -18.0328 H   0  0  0  0  0  0  0  0  0  0  0  0
  -15.2390  -44.2187  -21.6983 H   0  0  0  0  0  0  0  0  0  0  0  0
  -18.6532  -44.1610  -19.1520 H   0  0  0  0  0  0  0  0  0  0  0  0
  -18.5601  -48.3463  -22.0544 H   0  0  0  0  0  0  0  0  0  0  0  0
  -17.5377  -46.9202  -20.3163 H   0  0  0  0  0  0  0  0  0  0  0  0
  -18.0624  -43.4832  -22.8680 H   0  0  0  0  0  0  0  0  0  0  0  0
  -19.1033  -44.9205  -24.5829 H   0  0  0  0  0  0  0  0  0  0  0  0
  -19.2460  -47.3762  -24.2152 H   0  0  0  0  0  0  0  0  0  0  0  0
  -13.2679  -44.2123  -21.5649 H   0  0  0  0  0  0  0  0  0  0  0  0
  -11.9253  -43.7432  -20.9941 H   0  0  0  0  0  0  0  0  0  0  0  0
  -13.7191  -39.0851  -22.7761 H   0  0  0  0  0  0  0  0  0  0  0  0
  2  1  1  0
  3  5  2  0
  5  4  1  0
  5  2  1  0
  6  8  1  0
  8  9  2  0
  8  7  1  0
 10  2  1  0
 10 11  2  0
 10 14  1  0
 11 12  1  0
 12 13  1  0
 13 14  2  0
 15 20  2  0
 15  6  1  0
 15 16  1  0
 16 17  2  0
 17 18  1  0
 18 19  2  0
 19 23  1  0
 19 20  1  0
 21 26  2  0
 21 22  1  0
 22 23  2  0
 23 24  1  0
 24 25  2  0
 25 26  1  0
  2 17  1  0
  4 27  1  0
  6 28  1  0
  6 29  1  0
  7 30  1  0
 11 31  1  0
 13 32  1  0
 16 33  1  0
 18 34  1  0
 20 35  1  0
 21 36  1  0
 22 37  1  0
 24 38  1  0
 25 39  1  0
 26 40  1  0
  1 41  1  0
  1 42  1  0
 12 43  1  0
M  END
>  <smiles>  (461) 
[H]OC(=O)C([H])([H])c1c([H])c(-c2c([H])c([H])c([H])c([H])c2[H])c([H])c(C(N)(C(=O)O[H])c2nc([H])[nH]c2[H])c1[H]

>  <error>  (461) 


>  <∆∆G>  (461) 
-91.118876

>  <∆G_bound>  (461) 
33.714303

>  <∆G_unbound>  (461) 
124.833179

>  <comRMSD>  (461) 
2.136073

>  <N_constrained_atoms>  (461) 
26.0

>  <N_unconstrained_atoms>  (461) 
0.0

>  <runtime>  (461) 
2.331174

>  <regarded>  (461) 
['z0875c', '5hmw-b']

>  <disregarded>  (461) 
[]

>  <LE>  (461) 
3.504572

>  <outcome>  (461) 
too moved

>  <percent_hybrid>  (461) 
27.0

$$$$
LIG
     RDKit          3D

 41 43  0  0  0  0  0  0  0  0999 V2000
  -12.5956  -43.4416  -19.5128 N   0  0  0  0  0  0  0  0  0  0  0  0
  -13.2926  -43.0606  -20.7410 C   0  0  0  0  0  0  0  0  0  0  0  0
  -12.9794  -41.6230  -21.0838 C   0  0  0  0  0  0  0  0  0  0  0  0
  -13.7477  -40.6454  -21.6898 C   0  0  0  0  0  0  0  0  0  0  0  0
  -12.9569  -39.5328  -21.7533 N   0  0  0  0  0  0  0  0  0  0  0  0
  -11.7455  -39.8531  -21.2186 C   0  0  0  0  0  0  0  0  0  0  0  0
  -11.7078  -41.1091  -20.8435 N   0  0  0  0  0  0  0  0  0  0  0  0
  -17.0945  -42.4661  -17.4973 C   0  0  0  0  0  0  0  0  0  0  0  0
  -15.1507  -44.4313  -22.4898 O   0  0  0  0  0  0  0  0  0  0  0  0
  -17.6550  -40.4044  -18.6498 O   0  0  0  0  0  0  0  0  0  0  0  0
  -17.1234  -40.2790  -16.4692 O   0  0  0  0  0  0  0  0  0  0  0  0
  -17.2637  -40.9584  -17.4773 C   0  0  0  0  0  0  0  0  0  0  0  0
  -15.0662  -43.4313  -23.5068 C   0  0  0  0  0  0  0  0  0  0  0  0
  -16.5703  -43.0281  -18.7992 C   0  0  0  0  0  0  0  0  0  0  0  0
  -15.2846  -42.7053  -19.2347 C   0  0  0  0  0  0  0  0  0  0  0  0
  -14.7684  -43.1884  -20.4590 C   0  0  0  0  0  0  0  0  0  0  0  0
  -15.6032  -43.9332  -21.2935 C   0  0  0  0  0  0  0  0  0  0  0  0
  -16.8767  -44.3160  -20.8399 C   0  0  0  0  0  0  0  0  0  0  0  0
  -17.3498  -43.8674  -19.5966 C   0  0  0  0  0  0  0  0  0  0  0  0
  -18.8402  -46.3567  -23.4507 C   0  0  0  0  0  0  0  0  0  0  0  0
  -18.6392  -47.2067  -22.3848 C   0  0  0  0  0  0  0  0  0  0  0  0
  -17.9632  -46.5676  -21.3154 C   0  0  0  0  0  0  0  0  0  0  0  0
  -17.6847  -45.2497  -21.6080 C   0  0  0  0  0  0  0  0  0  0  0  0
  -18.3949  -44.7518  -23.0813 S   0  0  0  0  0  0  0  0  0  0  0  0
  -14.7677  -40.6387  -22.0453 H   0  0  0  0  0  0  0  0  0  0  0  0
  -10.9357  -39.1401  -21.1343 H   0  0  0  0  0  0  0  0  0  0  0  0
  -16.3999  -42.7472  -16.6967 H   0  0  0  0  0  0  0  0  0  0  0  0
  -18.0692  -42.9037  -17.2566 H   0  0  0  0  0  0  0  0  0  0  0  0
  -17.7155  -41.0433  -19.3855 H   0  0  0  0  0  0  0  0  0  0  0  0
  -15.7253  -42.5757  -23.3221 H   0  0  0  0  0  0  0  0  0  0  0  0
  -14.0332  -43.0982  -23.6128 H   0  0  0  0  0  0  0  0  0  0  0  0
  -15.3678  -43.8882  -24.4537 H   0  0  0  0  0  0  0  0  0  0  0  0
  -14.6328  -42.1100  -18.5905 H   0  0  0  0  0  0  0  0  0  0  0  0
  -18.3421  -44.1709  -19.2660 H   0  0  0  0  0  0  0  0  0  0  0  0
  -19.2739  -46.5973  -24.4131 H   0  0  0  0  0  0  0  0  0  0  0  0
  -18.9153  -48.2527  -22.3984 H   0  0  0  0  0  0  0  0  0  0  0  0
  -17.6319  -47.0709  -20.4161 H   0  0  0  0  0  0  0  0  0  0  0  0
  -12.3665  -44.4302  -19.5980 H   0  0  0  0  0  0  0  0  0  0  0  0
  -11.6992  -42.9411  -19.5435 H   0  0  0  0  0  0  0  0  0  0  0  0
  -12.9724  -43.7077  -21.5586 H   0  0  0  0  0  0  0  0  0  0  0  0
  -13.2291  -38.6246  -22.1018 H   0  0  0  0  0  0  0  0  0  0  0  0
  2  1  1  0
  3  2  1  0
  3  4  2  0
  3  7  1  0
  4  5  1  0
  5  6  1  0
  6  7  2  0
  9 13  1  0
 11 12  2  0
  8 12  1  0
 12 10  1  0
 14 19  2  0
 14  8  1  0
 14 15  1  0
 15 16  2  0
 16 17  1  0
 17 18  2  0
 17  9  1  0
 18 23  1  0
 18 19  1  0
 20 21  2  0
 20 24  1  0
 21 22  1  0
 22 23  2  0
 23 24  1  0
  2 16  1  0
  4 25  1  0
  6 26  1  0
  8 27  1  0
  8 28  1  0
 10 29  1  0
 13 30  1  0
 13 31  1  0
 13 32  1  0
 15 33  1  0
 19 34  1  0
 20 35  1  0
 21 36  1  0
 22 37  1  0
  1 38  1  0
  1 39  1  0
  2 40  1  0
  5 41  1  0
M  END
>  <smiles>  (462) 
[H]OC(=O)C([H])([H])c1c([H])c(-c2sc([H])c([H])c2[H])c(OC([H])([H])[H])c(C(N)c2nc([H])[nH]c2[H])c1[H]

>  <error>  (462) 


>  <∆∆G>  (462) 
-90.754032

>  <∆G_bound>  (462) 
-42.761328

>  <∆G_unbound>  (462) 
47.992704

>  <comRMSD>  (462) 
1.460223

>  <N_constrained_atoms>  (462) 
24.0

>  <N_unconstrained_atoms>  (462) 
0.0

>  <runtime>  (462) 
2.00839

>  <regarded>  (462) 
['z0875c', '5f3z-a']

>  <disregarded>  (462) 
[]

>  <LE>  (462) 
3.781418

>  <outcome>  (462) 
too moved

>  <percent_hybrid>  (462) 
30.0

$$$$
LIG
     RDKit          3D

 41 43  0  0  0  0  0  0  0  0999 V2000
  -12.5604  -43.4136  -19.3918 N   0  0  0  0  0  0  0  0  0  0  0  0
  -13.2680  -43.1104  -20.6365 C   0  0  0  0  0  0  0  0  0  0  0  0
  -12.9959  -41.6757  -21.0343 C   0  0  0  0  0  0  0  0  0  0  0  0
  -13.7923  -40.7398  -21.6699 C   0  0  0  0  0  0  0  0  0  0  0  0
  -13.0249  -39.6161  -21.7984 N   0  0  0  0  0  0  0  0  0  0  0  0
  -11.8049  -39.8826  -21.2538 C   0  0  0  0  0  0  0  0  0  0  0  0
  -11.7380  -41.1175  -20.8173 N   0  0  0  0  0  0  0  0  0  0  0  0
  -17.1698  -42.4383  -17.5108 C   0  0  0  0  0  0  0  0  0  0  0  0
  -15.0900  -44.5159  -22.3844 O   0  0  0  0  0  0  0  0  0  0  0  0
  -17.3769  -40.2356  -18.4705 O   0  0  0  0  0  0  0  0  0  0  0  0
  -19.1968  -41.1159  -17.4761 O   0  0  0  0  0  0  0  0  0  0  0  0
  -18.0256  -41.2248  -17.8095 C   0  0  0  0  0  0  0  0  0  0  0  0
  -15.0601  -43.5280  -23.4162 C   0  0  0  0  0  0  0  0  0  0  0  0
  -16.5849  -43.0636  -18.7521 C   0  0  0  0  0  0  0  0  0  0  0  0
  -15.2765  -42.7797  -19.1430 C   0  0  0  0  0  0  0  0  0  0  0  0
  -14.7409  -43.2696  -20.3546 C   0  0  0  0  0  0  0  0  0  0  0  0
  -15.5671  -44.0139  -21.2002 C   0  0  0  0  0  0  0  0  0  0  0  0
  -16.8592  -44.3715  -20.7835 C   0  0  0  0  0  0  0  0  0  0  0  0
  -17.3606  -43.8918  -19.5662 C   0  0  0  0  0  0  0  0  0  0  0  0
  -18.8270  -46.3722  -23.4251 C   0  0  0  0  0  0  0  0  0  0  0  0
  -18.6320  -47.2353  -22.3688 C   0  0  0  0  0  0  0  0  0  0  0  0
  -17.9483  -46.6137  -21.2938 C   0  0  0  0  0  0  0  0  0  0  0  0
  -17.6647  -45.2932  -21.5685 C   0  0  0  0  0  0  0  0  0  0  0  0
  -18.3703  -44.7750  -23.0368 S   0  0  0  0  0  0  0  0  0  0  0  0
  -14.8135  -40.7727  -22.0216 H   0  0  0  0  0  0  0  0  0  0  0  0
  -11.0096  -39.1496  -21.2110 H   0  0  0  0  0  0  0  0  0  0  0  0
  -16.3860  -42.1457  -16.8028 H   0  0  0  0  0  0  0  0  0  0  0  0
  -17.7884  -43.1782  -16.9954 H   0  0  0  0  0  0  0  0  0  0  0  0
  -16.4572  -40.4669  -18.7036 H   0  0  0  0  0  0  0  0  0  0  0  0
  -15.7453  -42.6923  -23.2352 H   0  0  0  0  0  0  0  0  0  0  0  0
  -14.0405  -43.1603  -23.5410 H   0  0  0  0  0  0  0  0  0  0  0  0
  -15.3576  -44.0081  -24.3526 H   0  0  0  0  0  0  0  0  0  0  0  0
  -14.6304  -42.1937  -18.4870 H   0  0  0  0  0  0  0  0  0  0  0  0
  -18.3786  -44.1457  -19.2719 H   0  0  0  0  0  0  0  0  0  0  0  0
  -19.2625  -46.5982  -24.3904 H   0  0  0  0  0  0  0  0  0  0  0  0
  -18.9183  -48.2779  -22.3935 H   0  0  0  0  0  0  0  0  0  0  0  0
  -17.6219  -47.1284  -20.3995 H   0  0  0  0  0  0  0  0  0  0  0  0
  -12.3331  -44.4065  -19.4145 H   0  0  0  0  0  0  0  0  0  0  0  0
  -11.6620  -42.9198  -19.4626 H   0  0  0  0  0  0  0  0  0  0  0  0
  -12.9267  -43.7817  -21.4256 H   0  0  0  0  0  0  0  0  0  0  0  0
  -13.3161  -38.7366  -22.2016 H   0  0  0  0  0  0  0  0  0  0  0  0
  2  1  1  0
  3  2  1  0
  3  4  2  0
  3  7  1  0
  4  5  1  0
  5  6  1  0
  6  7  2  0
  9 13  1  0
 11 12  2  0
  8 12  1  0
 12 10  1  0
 14 19  2  0
 14  8  1  0
 14 15  1  0
 15 16  2  0
 16 17  1  0
 17 18  2  0
 17  9  1  0
 18 23  1  0
 18 19  1  0
 20 21  2  0
 20 24  1  0
 21 22  1  0
 22 23  2  0
 23 24  1  0
  2 16  1  0
  4 25  1  0
  6 26  1  0
  8 27  1  0
  8 28  1  0
 10 29  1  0
 13 30  1  0
 13 31  1  0
 13 32  1  0
 15 33  1  0
 19 34  1  0
 20 35  1  0
 21 36  1  0
 22 37  1  0
  1 38  1  0
  1 39  1  0
  2 40  1  0
  5 41  1  0
M  END
>  <smiles>  (463) 
[H]OC(=O)C([H])([H])c1c([H])c(-c2sc([H])c([H])c2[H])c(OC([H])([H])[H])c(C(N)c2nc([H])[nH]c2[H])c1[H]

>  <error>  (463) 


>  <∆∆G>  (463) 
-91.61988

>  <∆G_bound>  (463) 
-21.59159

>  <∆G_unbound>  (463) 
70.02829

>  <comRMSD>  (463) 
1.499656

>  <N_constrained_atoms>  (463) 
24.0

>  <N_unconstrained_atoms>  (463) 
0.0

>  <runtime>  (463) 
2.181006

>  <regarded>  (463) 
['z0875c', '6h9r-a']

>  <disregarded>  (463) 
[]

>  <LE>  (463) 
3.817495

>  <outcome>  (463) 
too moved

>  <percent_hybrid>  (463) 
30.0

$$$$
LIG
     RDKit          3D

 44 46  0  0  0  0  0  0  0  0999 V2000
  -12.6512  -43.5399  -19.5631 N   0  0  0  0  0  0  0  0  0  0  0  0
  -13.3428  -43.1144  -20.7801 C   0  0  0  0  0  0  0  0  0  0  0  0
  -13.0078  -41.6727  -21.0890 C   0  0  0  0  0  0  0  0  0  0  0  0
  -13.7497  -40.6799  -21.7037 C   0  0  0  0  0  0  0  0  0  0  0  0
  -12.9469  -39.5741  -21.7310 N   0  0  0  0  0  0  0  0  0  0  0  0
  -11.7545  -39.9125  -21.1656 C   0  0  0  0  0  0  0  0  0  0  0  0
  -11.7403  -41.1727  -20.8035 N   0  0  0  0  0  0  0  0  0  0  0  0
  -17.1755  -40.3077  -16.4977 O   0  0  0  0  0  0  0  0  0  0  0  0
  -17.6555  -40.4110  -18.6907 O   0  0  0  0  0  0  0  0  0  0  0  0
  -17.2990  -40.9788  -17.5134 C   0  0  0  0  0  0  0  0  0  0  0  0
  -17.1462  -42.4887  -17.5403 C   0  0  0  0  0  0  0  0  0  0  0  0
  -15.2279  -44.4428  -22.5425 O   0  0  0  0  0  0  0  0  0  0  0  0
  -15.0996  -43.4461  -23.5560 C   0  0  0  0  0  0  0  0  0  0  0  0
  -15.6691  -43.9397  -21.3430 C   0  0  0  0  0  0  0  0  0  0  0  0
  -14.8209  -43.2230  -20.4990 C   0  0  0  0  0  0  0  0  0  0  0  0
  -15.3322  -42.7497  -19.2698 C   0  0  0  0  0  0  0  0  0  0  0  0
  -16.6274  -43.0511  -18.8450 C   0  0  0  0  0  0  0  0  0  0  0  0
  -17.4240  -43.8592  -19.6588 C   0  0  0  0  0  0  0  0  0  0  0  0
  -16.9580  -44.3039  -20.9068 C   0  0  0  0  0  0  0  0  0  0  0  0
  -18.9302  -45.6117  -23.8087 C   0  0  0  0  0  0  0  0  0  0  0  0
  -18.3513  -44.7210  -22.9168 C   0  0  0  0  0  0  0  0  0  0  0  0
  -17.7777  -45.1890  -21.7264 C   0  0  0  0  0  0  0  0  0  0  0  0
  -17.8885  -46.5431  -21.3897 C   0  0  0  0  0  0  0  0  0  0  0  0
  -18.4777  -47.4285  -22.2782 C   0  0  0  0  0  0  0  0  0  0  0  0
  -18.9355  -46.9725  -23.5117 C   0  0  0  0  0  0  0  0  0  0  0  0
  -14.7580  -40.6592  -22.0897 H   0  0  0  0  0  0  0  0  0  0  0  0
  -10.9401  -39.2090  -21.0503 H   0  0  0  0  0  0  0  0  0  0  0  0
  -17.7000  -41.0436  -19.4324 H   0  0  0  0  0  0  0  0  0  0  0  0
  -16.4550  -42.7806  -16.7407 H   0  0  0  0  0  0  0  0  0  0  0  0
  -18.1257  -42.9173  -17.3030 H   0  0  0  0  0  0  0  0  0  0  0  0
  -15.7169  -42.5613  -23.3652 H   0  0  0  0  0  0  0  0  0  0  0  0
  -14.0520  -43.1623  -23.6670 H   0  0  0  0  0  0  0  0  0  0  0  0
  -15.4303  -43.8847  -24.5019 H   0  0  0  0  0  0  0  0  0  0  0  0
  -14.6711  -42.1773  -18.6144 H   0  0  0  0  0  0  0  0  0  0  0  0
  -18.4266  -44.1395  -19.3381 H   0  0  0  0  0  0  0  0  0  0  0  0
  -19.3535  -45.2553  -24.7407 H   0  0  0  0  0  0  0  0  0  0  0  0
  -18.2874  -43.6679  -23.1773 H   0  0  0  0  0  0  0  0  0  0  0  0
  -17.4529  -46.9219  -20.4698 H   0  0  0  0  0  0  0  0  0  0  0  0
  -18.5188  -48.4857  -22.0447 H   0  0  0  0  0  0  0  0  0  0  0  0
  -19.3270  -47.6854  -24.2330 H   0  0  0  0  0  0  0  0  0  0  0  0
  -12.3850  -44.5134  -19.7056 H   0  0  0  0  0  0  0  0  0  0  0  0
  -11.7694  -43.0126  -19.5594 H   0  0  0  0  0  0  0  0  0  0  0  0
  -13.0324  -43.7448  -21.6151 H   0  0  0  0  0  0  0  0  0  0  0  0
  -13.1990  -38.6593  -22.0774 H   0  0  0  0  0  0  0  0  0  0  0  0
  2  1  1  0
  3  2  1  0
  3  4  2  0
  3  7  1  0
  4  5  1  0
  5  6  1  0
  6  7  2  0
 12 13  1  0
  8 10  2  0
 11 10  1  0
 10  9  1  0
 14 19  2  0
 14 12  1  0
 14 15  1  0
 15 16  2  0
 16 17  1  0
 17 18  2  0
 17 11  1  0
 18 19  1  0
 19 22  1  0
 20 25  2  0
 20 21  1  0
 21 22  2  0
 22 23  1  0
 23 24  2  0
 24 25  1  0
  2 15  1  0
  4 26  1  0
  6 27  1  0
  9 28  1  0
 11 29  1  0
 11 30  1  0
 13 31  1  0
 13 32  1  0
 13 33  1  0
 16 34  1  0
 18 35  1  0
 20 36  1  0
 21 37  1  0
 23 38  1  0
 24 39  1  0
 25 40  1  0
  1 41  1  0
  1 42  1  0
  2 43  1  0
  5 44  1  0
M  END
>  <smiles>  (464) 
[H]OC(=O)C([H])([H])c1c([H])c(-c2c([H])c([H])c([H])c([H])c2[H])c(OC([H])([H])[H])c(C(N)c2nc([H])[nH]c2[H])c1[H]

>  <error>  (464) 


>  <∆∆G>  (464) 
-67.263063

>  <∆G_bound>  (464) 
-35.470305

>  <∆G_unbound>  (464) 
31.792758

>  <comRMSD>  (464) 
1.435974

>  <N_constrained_atoms>  (464) 
25.0

>  <N_unconstrained_atoms>  (464) 
0.0

>  <runtime>  (464) 
2.352781

>  <regarded>  (464) 
['z0875c', '5f3t-a']

>  <disregarded>  (464) 
[]

>  <LE>  (464) 
2.690523

>  <outcome>  (464) 
too moved

>  <percent_hybrid>  (464) 
28.0

$$$$

     RDKit          2D

  0  0  0  0  0  0  0  0  0  0999 V2000
M  END
>  <smiles>  (465) 
nan

>  <error>  (465) 
DistanceError 5.89 Å

>  <∆∆G>  (465) 
nan

>  <∆G_bound>  (465) 
nan

>  <∆G_unbound>  (465) 
nan

>  <comRMSD>  (465) 
nan

>  <N_constrained_atoms>  (465) 
nan

>  <N_unconstrained_atoms>  (465) 
nan

>  <runtime>  (465) 
nan

>  <regarded>  (465) 
[]

>  <disregarded>  (465) 
[]

>  <LE>  (465) 
nan

>  <outcome>  (465) 
too distant

>  <percent_hybrid>  (465) 
nan

$$$$
LIG
     RDKit          3D

 71 75  0  0  0  0  0  0  0  0999 V2000
  -13.1128  -42.7507  -18.2803 O   0  0  0  0  0  0  0  0  0  0  0  0
  -16.0818  -43.4446  -14.0931 O   0  0  0  0  0  0  0  0  0  0  0  0
  -13.8702  -38.2095  -16.4602 O   0  0  0  0  0  0  0  0  0  0  0  0
  -19.4882  -45.9714  -24.5351 C   0  0  0  0  0  0  0  0  0  0  0  0
  -20.1399  -46.2161  -25.5170 C   0  0  0  0  0  0  0  0  0  0  0  0
  -20.8881  -46.5523  -26.7312 C   0  0  0  0  0  0  0  0  0  0  0  0
  -14.5282  -44.7176  -16.5603 O   0  0  0  0  0  0  0  0  0  0  0  0
  -15.2218  -43.9578  -17.1168 C   0  0  0  0  0  0  0  0  0  0  0  0
  -16.2027  -42.8843  -16.5523 N   0  0  0  0  0  0  0  0  0  0  0  0
  -16.4893  -42.4099  -15.0055 S   0  0  0  0  0  0  0  0  0  0  0  0
  -17.7765  -41.7512  -14.9840 O   0  0  0  0  0  0  0  0  0  0  0  0
  -14.7403  -38.0862  -17.5778 C   0  0  0  0  0  0  0  0  0  0  0  0
  -12.2630  -41.7083  -18.7494 C   0  0  0  0  0  0  0  0  0  0  0  0
  -15.1756  -42.7191  -22.6201 N   0  0  0  0  0  0  0  0  0  0  0  0
  -14.6335  -43.6661  -23.6149 C   0  0  0  0  0  0  0  0  0  0  0  0
  -22.0039  -45.6865  -26.8737 O   0  0  0  0  0  0  0  0  0  0  0  0
  -15.1352  -43.3637  -21.3269 C   0  0  0  0  0  0  0  0  0  0  0  0
  -14.0199  -43.0756  -20.5096 C   0  0  0  0  0  0  0  0  0  0  0  0
  -14.0657  -43.2174  -19.1368 C   0  0  0  0  0  0  0  0  0  0  0  0
  -15.1762  -43.8424  -18.5844 C   0  0  0  0  0  0  0  0  0  0  0  0
  -16.1982  -44.3596  -19.3903 C   0  0  0  0  0  0  0  0  0  0  0  0
  -16.1862  -44.1566  -20.7894 C   0  0  0  0  0  0  0  0  0  0  0  0
  -13.3070  -39.2644  -14.4567 C   0  0  0  0  0  0  0  0  0  0  0  0
  -13.4626  -40.2525  -13.4852 C   0  0  0  0  0  0  0  0  0  0  0  0
  -14.4531  -41.2084  -13.6432 C   0  0  0  0  0  0  0  0  0  0  0  0
  -15.2809  -41.1532  -14.7696 C   0  0  0  0  0  0  0  0  0  0  0  0
  -15.1484  -40.1575  -15.7316 C   0  0  0  0  0  0  0  0  0  0  0  0
  -14.1435  -39.2145  -15.5786 C   0  0  0  0  0  0  0  0  0  0  0  0
  -17.5667  -46.2348  -21.3908 C   0  0  0  0  0  0  0  0  0  0  0  0
  -18.4530  -46.7129  -22.3983 C   0  0  0  0  0  0  0  0  0  0  0  0
  -18.7291  -45.7474  -23.3403 C   0  0  0  0  0  0  0  0  0  0  0  0
  -18.0635  -44.2424  -22.8936 S   0  0  0  0  0  0  0  0  0  0  0  0
  -17.1888  -44.9110  -21.5814 C   0  0  0  0  0  0  0  0  0  0  0  0
  -14.7980  -41.3854  -22.8105 C   0  0  0  0  0  0  0  0  0  0  0  0
  -14.2980  -40.5040  -21.8719 C   0  0  0  0  0  0  0  0  0  0  0  0
  -13.9462  -39.3690  -22.5276 N   0  0  0  0  0  0  0  0  0  0  0  0
  -14.3297  -39.3570  -23.8011 N   0  0  0  0  0  0  0  0  0  0  0  0
  -14.9402  -40.5469  -23.9731 C   0  0  0  0  0  0  0  0  0  0  0  0
  -16.9927  -41.3703  -25.0448 C   0  0  0  0  0  0  0  0  0  0  0  0
  -15.7406  -40.7709  -25.1675 C   0  0  0  0  0  0  0  0  0  0  0  0
  -15.3365  -40.2934  -26.4102 C   0  0  0  0  0  0  0  0  0  0  0  0
  -16.1941  -40.4654  -27.4794 C   0  0  0  0  0  0  0  0  0  0  0  0
  -17.4065  -41.0547  -27.3884 N   0  0  0  0  0  0  0  0  0  0  0  0
  -17.7796  -41.4894  -26.1681 C   0  0  0  0  0  0  0  0  0  0  0  0
  -21.2251  -47.5922  -26.7456 H   0  0  0  0  0  0  0  0  0  0  0  0
  -20.2477  -46.4005  -27.5986 H   0  0  0  0  0  0  0  0  0  0  0  0
  -16.7103  -42.4523  -17.3174 H   0  0  0  0  0  0  0  0  0  0  0  0
  -15.7705  -37.8918  -17.2609 H   0  0  0  0  0  0  0  0  0  0  0  0
  -14.4075  -37.2246  -18.1650 H   0  0  0  0  0  0  0  0  0  0  0  0
  -14.6818  -38.9679  -18.2248 H   0  0  0  0  0  0  0  0  0  0  0  0
  -11.5863  -41.4425  -17.9314 H   0  0  0  0  0  0  0  0  0  0  0  0
  -11.6492  -42.0270  -19.5952 H   0  0  0  0  0  0  0  0  0  0  0  0
  -12.8439  -40.8155  -18.9951 H   0  0  0  0  0  0  0  0  0  0  0  0
  -14.7797  -43.3130  -24.6389 H   0  0  0  0  0  0  0  0  0  0  0  0
  -13.5614  -43.8329  -23.4632 H   0  0  0  0  0  0  0  0  0  0  0  0
  -15.1317  -44.6377  -23.5530 H   0  0  0  0  0  0  0  0  0  0  0  0
  -22.7826  -46.1781  -26.5324 H   0  0  0  0  0  0  0  0  0  0  0  0
  -13.1332  -42.6644  -20.9857 H   0  0  0  0  0  0  0  0  0  0  0  0
  -17.0098  -44.9158  -18.9256 H   0  0  0  0  0  0  0  0  0  0  0  0
  -12.5225  -38.5195  -14.3404 H   0  0  0  0  0  0  0  0  0  0  0  0
  -12.8060  -40.2780  -12.6197 H   0  0  0  0  0  0  0  0  0  0  0  0
  -14.5673  -41.9910  -12.8963 H   0  0  0  0  0  0  0  0  0  0  0  0
  -15.8253  -40.1447  -16.5764 H   0  0  0  0  0  0  0  0  0  0  0  0
  -17.1739  -46.8677  -20.6034 H   0  0  0  0  0  0  0  0  0  0  0  0
  -18.8142  -47.7342  -22.4569 H   0  0  0  0  0  0  0  0  0  0  0  0
  -14.1203  -40.5716  -20.8144 H   0  0  0  0  0  0  0  0  0  0  0  0
  -17.3700  -41.6907  -24.0825 H   0  0  0  0  0  0  0  0  0  0  0  0
  -14.3843  -39.7896  -26.5396 H   0  0  0  0  0  0  0  0  0  0  0  0
  -15.9290  -40.1234  -28.4737 H   0  0  0  0  0  0  0  0  0  0  0  0
  -18.7698  -41.9306  -26.1095 H   0  0  0  0  0  0  0  0  0  0  0  0
  -13.4903  -38.5449  -22.1505 H   0  0  0  0  0  0  0  0  0  0  0  0
  6 16  1  0
  6  5  1  0
  5  4  3  0
 14 15  1  0
  9  8  1  0
  9 10  1  0
  8  7  2  0
  2 10  2  0
 11 10  2  0
  1 13  1  0
 12  3  1  0
 17 22  1  0
 17 14  1  0
 17 18  2  0
 18 19  1  0
 19 20  2  0
 19  1  1  0
 20 21  1  0
 20  8  1  0
 21 22  2  0
 22 33  1  0
 23 28  2  0
 23 24  1  0
 24 25  2  0
 25 26  1  0
 26 10  1  0
 26 27  2  0
 27 28  1  0
 28  3  1  0
 29 30  1  0
 29 33  2  0
 30 31  2  0
 31  4  1  0
 31 32  1  0
 32 33  1  0
 34 35  2  0
 34 38  1  0
 35 36  1  0
 36 37  1  0
 37 38  2  0
 38 40  1  0
 39 44  2  0
 39 40  1  0
 40 41  2  0
 41 42  1  0
 42 43  2  0
 43 44  1  0
 14 34  1  0
  6 45  1  0
  6 46  1  0
  9 47  1  0
 12 48  1  0
 12 49  1  0
 12 50  1  0
 13 51  1  0
 13 52  1  0
 13 53  1  0
 15 54  1  0
 15 55  1  0
 15 56  1  0
 16 57  1  0
 18 58  1  0
 21 59  1  0
 23 60  1  0
 24 61  1  0
 25 62  1  0
 27 63  1  0
 29 64  1  0
 30 65  1  0
 35 66  1  0
 39 67  1  0
 41 68  1  0
 42 69  1  0
 44 70  1  0
 36 71  1  0
M  END
>  <smiles>  (466) 
[H]OC([H])([H])C#Cc1sc(-c2c([H])c(C(=O)N([H])S(=O)(=O)c3c([H])c([H])c([H])c(OC([H])([H])[H])c3[H])c(OC([H])([H])[H])c([H])c2N(c2c(-c3c([H])c([H])nc([H])c3[H])n[nH]c2[H])C([H])([H])[H])c([H])c1[H]

>  <error>  (466) 


>  <∆∆G>  (466) 
-96.542999

>  <∆G_bound>  (466) 
201.344175

>  <∆G_unbound>  (466) 
297.887174

>  <comRMSD>  (466) 
0.741537

>  <N_constrained_atoms>  (466) 
44.0

>  <N_unconstrained_atoms>  (466) 
0.0

>  <runtime>  (466) 
5.304469

>  <regarded>  (466) 
['5i3p-a', 'd0160a']

>  <disregarded>  (466) 
[]

>  <LE>  (466) 
2.194159

>  <outcome>  (466) 
acceptable

>  <percent_hybrid>  (466) 
25.0

$$$$
LIG
     RDKit          3D

 71 75  0  0  0  0  0  0  0  0999 V2000
  -13.4285  -42.0739  -18.8398 O   0  0  0  0  0  0  0  0  0  0  0  0
  -15.9729  -43.5308  -14.3435 O   0  0  0  0  0  0  0  0  0  0  0  0
  -13.8408  -38.1506  -16.3510 O   0  0  0  0  0  0  0  0  0  0  0  0
  -19.5028  -46.2096  -24.5742 C   0  0  0  0  0  0  0  0  0  0  0  0
  -20.1348  -46.3914  -25.5804 C   0  0  0  0  0  0  0  0  0  0  0  0
  -20.8836  -46.6377  -26.8105 C   0  0  0  0  0  0  0  0  0  0  0  0
  -14.3106  -44.3185  -16.9637 O   0  0  0  0  0  0  0  0  0  0  0  0
  -15.1416  -43.6319  -17.4189 C   0  0  0  0  0  0  0  0  0  0  0  0
  -16.2189  -42.7502  -16.7176 N   0  0  0  0  0  0  0  0  0  0  0  0
  -16.4577  -42.4228  -15.1255 S   0  0  0  0  0  0  0  0  0  0  0  0
  -17.7719  -41.8333  -15.0016 O   0  0  0  0  0  0  0  0  0  0  0  0
  -14.5498  -38.1073  -17.5830 C   0  0  0  0  0  0  0  0  0  0  0  0
  -12.3320  -41.4724  -19.5162 C   0  0  0  0  0  0  0  0  0  0  0  0
  -15.1887  -43.7935  -23.0101 O   0  0  0  0  0  0  0  0  0  0  0  0
  -21.9783  -45.7387  -26.9102 O   0  0  0  0  0  0  0  0  0  0  0  0
  -15.1868  -39.6998  -25.7363 C   0  0  0  0  0  0  0  0  0  0  0  0
  -15.3121  -43.5771  -21.6556 C   0  0  0  0  0  0  0  0  0  0  0  0
  -14.3247  -42.8429  -20.9890 C   0  0  0  0  0  0  0  0  0  0  0  0
  -14.3136  -42.7909  -19.5956 C   0  0  0  0  0  0  0  0  0  0  0  0
  -15.2786  -43.5158  -18.8849 C   0  0  0  0  0  0  0  0  0  0  0  0
  -16.2737  -44.2525  -19.5361 C   0  0  0  0  0  0  0  0  0  0  0  0
  -16.3046  -44.2853  -20.9360 C   0  0  0  0  0  0  0  0  0  0  0  0
  -13.3970  -39.2173  -14.3221 C   0  0  0  0  0  0  0  0  0  0  0  0
  -13.5999  -40.2210  -13.3750 C   0  0  0  0  0  0  0  0  0  0  0  0
  -14.5577  -41.1940  -13.6128 C   0  0  0  0  0  0  0  0  0  0  0  0
  -15.3058  -41.1395  -14.7937 C   0  0  0  0  0  0  0  0  0  0  0  0
  -15.1238  -40.1320  -15.7338 C   0  0  0  0  0  0  0  0  0  0  0  0
  -14.1509  -39.1723  -15.5012 C   0  0  0  0  0  0  0  0  0  0  0  0
  -17.6084  -46.4593  -21.4052 C   0  0  0  0  0  0  0  0  0  0  0  0
  -18.4835  -46.9608  -22.4164 C   0  0  0  0  0  0  0  0  0  0  0  0
  -18.7978  -45.9958  -23.3495 C   0  0  0  0  0  0  0  0  0  0  0  0
  -18.3146  -44.4555  -22.8176 S   0  0  0  0  0  0  0  0  0  0  0  0
  -17.2993  -45.1273  -21.6093 C   0  0  0  0  0  0  0  0  0  0  0  0
  -15.0697  -41.5273  -23.9863 C   0  0  0  0  0  0  0  0  0  0  0  0
  -15.4526  -42.8495  -23.9411 C   0  0  0  0  0  0  0  0  0  0  0  0
  -16.1364  -43.1305  -25.1415 C   0  0  0  0  0  0  0  0  0  0  0  0
  -16.1573  -41.9898  -25.9011 C   0  0  0  0  0  0  0  0  0  0  0  0
  -15.4840  -41.0231  -25.2030 N   0  0  0  0  0  0  0  0  0  0  0  0
  -17.2350  -38.6504  -26.7908 C   0  0  0  0  0  0  0  0  0  0  0  0
  -16.3976  -38.8102  -25.6873 C   0  0  0  0  0  0  0  0  0  0  0  0
  -16.7428  -38.1289  -24.5174 C   0  0  0  0  0  0  0  0  0  0  0  0
  -17.8781  -37.3266  -24.4958 C   0  0  0  0  0  0  0  0  0  0  0  0
  -18.6452  -37.2400  -25.6463 C   0  0  0  0  0  0  0  0  0  0  0  0
  -18.3562  -37.8843  -26.7986 N   0  0  0  0  0  0  0  0  0  0  0  0
  -21.2469  -47.6665  -26.8820 H   0  0  0  0  0  0  0  0  0  0  0  0
  -20.2318  -46.4454  -27.6601 H   0  0  0  0  0  0  0  0  0  0  0  0
  -16.8352  -42.3471  -17.4163 H   0  0  0  0  0  0  0  0  0  0  0  0
  -15.6200  -37.9432  -17.4187 H   0  0  0  0  0  0  0  0  0  0  0  0
  -14.1699  -37.2552  -18.1551 H   0  0  0  0  0  0  0  0  0  0  0  0
  -14.3706  -39.0095  -18.1777 H   0  0  0  0  0  0  0  0  0  0  0  0
  -11.6730  -41.0327  -18.7616 H   0  0  0  0  0  0  0  0  0  0  0  0
  -11.7540  -42.2121  -20.0776 H   0  0  0  0  0  0  0  0  0  0  0  0
  -12.6757  -40.6654  -20.1714 H   0  0  0  0  0  0  0  0  0  0  0  0
  -22.7558  -46.2068  -26.5350 H   0  0  0  0  0  0  0  0  0  0  0  0
  -14.3686  -39.2822  -25.1419 H   0  0  0  0  0  0  0  0  0  0  0  0
  -14.8182  -39.8278  -26.7604 H   0  0  0  0  0  0  0  0  0  0  0  0
  -13.5454  -42.3758  -21.5817 H   0  0  0  0  0  0  0  0  0  0  0  0
  -16.9919  -44.8282  -18.9573 H   0  0  0  0  0  0  0  0  0  0  0  0
  -12.6379  -38.4586  -14.1434 H   0  0  0  0  0  0  0  0  0  0  0  0
  -13.0046  -40.2444  -12.4662 H   0  0  0  0  0  0  0  0  0  0  0  0
  -14.7098  -41.9902  -12.8874 H   0  0  0  0  0  0  0  0  0  0  0  0
  -15.7359  -40.1212  -16.6263 H   0  0  0  0  0  0  0  0  0  0  0  0
  -17.1571  -47.0810  -20.6412 H   0  0  0  0  0  0  0  0  0  0  0  0
  -18.7868  -47.9979  -22.4980 H   0  0  0  0  0  0  0  0  0  0  0  0
  -14.5032  -40.9170  -23.2991 H   0  0  0  0  0  0  0  0  0  0  0  0
  -16.5568  -44.0759  -25.4279 H   0  0  0  0  0  0  0  0  0  0  0  0
  -16.5552  -41.8042  -26.8881 H   0  0  0  0  0  0  0  0  0  0  0  0
  -17.0219  -39.1481  -27.7347 H   0  0  0  0  0  0  0  0  0  0  0  0
  -16.1353  -38.2241  -23.6212 H   0  0  0  0  0  0  0  0  0  0  0  0
  -18.1654  -36.7889  -23.5990 H   0  0  0  0  0  0  0  0  0  0  0  0
  -19.5446  -36.6310  -25.6668 H   0  0  0  0  0  0  0  0  0  0  0  0
  6 15  1  0
  6  5  1  0
  5  4  3  0
  9  8  1  0
  9 10  1  0
  8  7  2  0
  2 10  2  0
 11 10  2  0
  1 13  1  0
 12  3  1  0
 17 22  1  0
 17 14  1  0
 17 18  2  0
 18 19  1  0
 19 20  2  0
 19  1  1  0
 20 21  1  0
 20  8  1  0
 21 22  2  0
 22 33  1  0
 23 28  2  0
 23 24  1  0
 24 25  2  0
 25 26  1  0
 26 10  1  0
 26 27  2  0
 27 28  1  0
 28  3  1  0
 29 30  1  0
 29 33  2  0
 30 31  2  0
 31  4  1  0
 31 32  1  0
 32 33  1  0
 34 35  2  0
 34 38  1  0
 35 36  1  0
 36 37  2  0
 37 38  1  0
 38 16  1  0
 39 44  2  0
 39 40  1  0
 40 16  1  0
 40 41  2  0
 41 42  1  0
 42 43  2  0
 43 44  1  0
 35 14  1  0
  6 45  1  0
  6 46  1  0
  9 47  1  0
 12 48  1  0
 12 49  1  0
 12 50  1  0
 13 51  1  0
 13 52  1  0
 13 53  1  0
 15 54  1  0
 16 55  1  0
 16 56  1  0
 18 57  1  0
 21 58  1  0
 23 59  1  0
 24 60  1  0
 25 61  1  0
 27 62  1  0
 29 63  1  0
 30 64  1  0
 34 65  1  0
 36 66  1  0
 37 67  1  0
 39 68  1  0
 41 69  1  0
 42 70  1  0
 43 71  1  0
M  END
>  <smiles>  (467) 
[H]OC([H])([H])C#Cc1sc(-c2c([H])c(C(=O)N([H])S(=O)(=O)c3c([H])c([H])c([H])c(OC([H])([H])[H])c3[H])c(OC([H])([H])[H])c([H])c2Oc2c([H])c([H])n(C([H])([H])c3c([H])nc([H])c([H])c3[H])c2[H])c([H])c1[H]

>  <error>  (467) 


>  <∆∆G>  (467) 
-71.897723

>  <∆G_bound>  (467) 
217.826068

>  <∆G_unbound>  (467) 
289.723792

>  <comRMSD>  (467) 
0.629611

>  <N_constrained_atoms>  (467) 
44.0

>  <N_unconstrained_atoms>  (467) 
0.0

>  <runtime>  (467) 
4.615268

>  <regarded>  (467) 
['5i3p-a', 'd0191a']

>  <disregarded>  (467) 
[]

>  <LE>  (467) 
1.634039

>  <outcome>  (467) 
acceptable

>  <percent_hybrid>  (467) 
28.0

$$$$
LIG
     RDKit          3D

 71 73  0  0  0  0  0  0  0  0999 V2000
  -13.3971  -42.0479  -18.7830 O   0  0  0  0  0  0  0  0  0  0  0  0
  -16.3037  -43.1961  -13.8896 O   0  0  0  0  0  0  0  0  0  0  0  0
  -13.8551  -38.1216  -16.3618 O   0  0  0  0  0  0  0  0  0  0  0  0
  -19.4139  -46.1745  -24.4974 C   0  0  0  0  0  0  0  0  0  0  0  0
  -20.0793  -46.3111  -25.4929 C   0  0  0  0  0  0  0  0  0  0  0  0
  -20.8488  -46.5677  -26.7175 C   0  0  0  0  0  0  0  0  0  0  0  0
  -13.9990  -43.5757  -16.3902 O   0  0  0  0  0  0  0  0  0  0  0  0
  -14.9955  -43.2589  -16.9214 C   0  0  0  0  0  0  0  0  0  0  0  0
  -16.3053  -42.6418  -16.3312 N   0  0  0  0  0  0  0  0  0  0  0  0
  -16.6550  -42.1466  -14.8114 S   0  0  0  0  0  0  0  0  0  0  0  0
  -17.9532  -41.5117  -14.8536 O   0  0  0  0  0  0  0  0  0  0  0  0
  -14.5970  -38.1221  -17.5756 C   0  0  0  0  0  0  0  0  0  0  0  0
  -12.6772  -41.0860  -19.5372 C   0  0  0  0  0  0  0  0  0  0  0  0
  -21.9484  -45.6754  -26.8107 O   0  0  0  0  0  0  0  0  0  0  0  0
  -15.7622  -40.1581  -25.8671 C   0  0  0  0  0  0  0  0  0  0  0  0
  -15.0967  -44.0593  -21.6949 C   0  0  1  0  0  0  0  0  0  0  0  0
  -14.0530  -43.4409  -20.7066 C   0  0  0  0  0  0  0  0  0  0  0  0
  -14.5181  -42.6388  -19.4498 C   0  0  1  0  0  0  0  0  0  0  0  0
  -15.1855  -43.5390  -18.4040 C   0  0  0  0  0  0  0  0  0  0  0  0
  -15.8736  -45.8681  -20.1103 C   0  0  0  0  0  0  0  0  0  0  0  0
  -16.1838  -44.8608  -21.0204 C   0  0  0  0  0  0  0  0  0  0  0  0
  -13.3714  -39.1196  -14.3069 C   0  0  0  0  0  0  0  0  0  0  0  0
  -13.5890  -40.0598  -13.2994 C   0  0  0  0  0  0  0  0  0  0  0  0
  -14.6329  -40.9619  -13.4268 C   0  0  0  0  0  0  0  0  0  0  0  0
  -15.4534  -40.8948  -14.5565 C   0  0  0  0  0  0  0  0  0  0  0  0
  -15.2613  -39.9433  -15.5529 C   0  0  0  0  0  0  0  0  0  0  0  0
  -14.1967  -39.0644  -15.4365 C   0  0  0  0  0  0  0  0  0  0  0  0
  -18.0160  -45.7010  -20.0059 C   0  0  0  0  0  0  0  0  0  0  0  0
  -18.8560  -47.3888  -22.3907 C   0  0  0  0  0  0  0  0  0  0  0  0
  -18.6145  -46.1455  -23.2527 C   0  0  2  0  0  0  0  0  0  0  0  0
  -18.6992  -44.5331  -22.3767 S   0  0  0  0  0  0  0  0  0  0  0  0
  -17.6022  -44.9580  -21.0907 C   0  0  0  0  0  0  0  0  0  0  0  0
  -16.9525  -46.2987  -19.4274 O   0  0  0  0  0  0  0  0  0  0  0  0
  -15.8475  -43.4684  -24.0355 C   0  0  0  0  0  0  0  0  0  0  0  0
  -15.5974  -43.0524  -22.7251 C   0  0  0  0  0  0  0  0  0  0  0  0
  -15.5235  -41.7348  -22.4206 N   0  0  0  0  0  0  0  0  0  0  0  0
  -15.6096  -40.8464  -23.4463 C   0  0  0  0  0  0  0  0  0  0  0  0
  -15.8176  -41.1842  -24.7778 C   0  0  0  0  0  0  0  0  0  0  0  0
  -15.9743  -42.5336  -25.0630 C   0  0  0  0  0  0  0  0  0  0  0  0
  -21.2094  -47.5986  -26.7747 H   0  0  0  0  0  0  0  0  0  0  0  0
  -20.2150  -46.3920  -27.5850 H   0  0  0  0  0  0  0  0  0  0  0  0
  -17.0038  -42.5664  -17.0619 H   0  0  0  0  0  0  0  0  0  0  0  0
  -15.6412  -37.8443  -17.3981 H   0  0  0  0  0  0  0  0  0  0  0  0
  -14.1603  -37.3636  -18.2326 H   0  0  0  0  0  0  0  0  0  0  0  0
  -14.5240  -39.0858  -18.0899 H   0  0  0  0  0  0  0  0  0  0  0  0
  -12.0828  -40.4865  -18.8420 H   0  0  0  0  0  0  0  0  0  0  0  0
  -11.9848  -41.5768  -20.2263 H   0  0  0  0  0  0  0  0  0  0  0  0
  -13.3525  -40.4189  -20.0814 H   0  0  0  0  0  0  0  0  0  0  0  0
  -22.7171  -46.1448  -26.4222 H   0  0  0  0  0  0  0  0  0  0  0  0
  -16.1310  -39.1909  -25.5101 H   0  0  0  0  0  0  0  0  0  0  0  0
  -14.7326  -40.0363  -26.2174 H   0  0  0  0  0  0  0  0  0  0  0  0
  -16.3901  -40.4542  -26.7143 H   0  0  0  0  0  0  0  0  0  0  0  0
  -14.5121  -44.7871  -22.2796 H   0  0  0  0  0  0  0  0  0  0  0  0
  -13.4060  -44.2532  -20.3424 H   0  0  0  0  0  0  0  0  0  0  0  0
  -13.3706  -42.8236  -21.3033 H   0  0  0  0  0  0  0  0  0  0  0  0
  -15.2109  -41.8374  -19.7291 H   0  0  0  0  0  0  0  0  0  0  0  0
  -16.2518  -43.6394  -18.6181 H   0  0  0  0  0  0  0  0  0  0  0  0
  -14.7379  -44.5320  -18.4772 H   0  0  0  0  0  0  0  0  0  0  0  0
  -14.9347  -46.2836  -19.7738 H   0  0  0  0  0  0  0  0  0  0  0  0
  -12.5391  -38.4244  -14.2195 H   0  0  0  0  0  0  0  0  0  0  0  0
  -12.9313  -40.0967  -12.4354 H   0  0  0  0  0  0  0  0  0  0  0  0
  -14.7832  -41.7225  -12.6643 H   0  0  0  0  0  0  0  0  0  0  0  0
  -15.9273  -39.9295  -16.4071 H   0  0  0  0  0  0  0  0  0  0  0  0
  -18.9848  -46.0045  -19.6311 H   0  0  0  0  0  0  0  0  0  0  0  0
  -19.5916  -47.2321  -21.6008 H   0  0  0  0  0  0  0  0  0  0  0  0
  -19.1935  -48.2311  -22.9976 H   0  0  0  0  0  0  0  0  0  0  0  0
  -17.9311  -47.7156  -21.9024 H   0  0  0  0  0  0  0  0  0  0  0  0
  -17.5654  -46.1989  -23.4998 H   0  0  0  0  0  0  0  0  0  0  0  0
  -15.8434  -44.5210  -24.2747 H   0  0  0  0  0  0  0  0  0  0  0  0
  -15.4779  -39.8082  -23.1519 H   0  0  0  0  0  0  0  0  0  0  0  0
  -16.1140  -42.8719  -26.0866 H   0  0  0  0  0  0  0  0  0  0  0  0
  6 14  1  0
  6  5  1  0
  5  4  3  0
  9  8  1  0
  9 10  1  0
  8  7  2  0
  2 10  2  0
 11 10  2  0
  1 13  1  0
 12  3  1  0
 16 21  1  0
 16 17  1  0
 17 18  1  0
 18 19  1  0
 18  1  1  0
 19  8  1  0
 20 21  2  0
 21 32  1  0
 22 27  2  0
 22 23  1  0
 23 24  2  0
 24 25  1  0
 25 10  1  0
 25 26  2  0
 26 27  1  0
 27  3  1  0
 28 32  2  0
 29 30  1  0
 30  4  1  0
 30 31  1  0
 31 32  1  0
 34 39  2  0
 34 35  1  0
 35 36  2  0
 36 37  1  0
 37 38  2  0
 38 15  1  0
 38 39  1  0
 20 33  1  0
 28 33  1  0
 35 16  1  0
  6 40  1  0
  6 41  1  0
  9 42  1  0
 12 43  1  0
 12 44  1  0
 12 45  1  0
 13 46  1  0
 13 47  1  0
 13 48  1  0
 14 49  1  0
 15 50  1  0
 15 51  1  0
 15 52  1  0
 16 53  1  6
 17 54  1  0
 17 55  1  0
 18 56  1  6
 19 57  1  0
 19 58  1  0
 20 59  1  0
 22 60  1  0
 23 61  1  0
 24 62  1  0
 26 63  1  0
 28 64  1  0
 29 65  1  0
 29 66  1  0
 29 67  1  0
 30 68  1  1
 34 69  1  0
 37 70  1  0
 39 71  1  0
M  END
>  <smiles>  (468) 
[H]OC([H])([H])C#C[C@]([H])(Sc1c([H])oc([H])c1[C@@]([H])(c1nc([H])c(C([H])([H])[H])c([H])c1[H])C([H])([H])[C@]([H])(OC([H])([H])[H])C([H])([H])C(=O)N([H])S(=O)(=O)c1c([H])c([H])c([H])c(OC([H])([H])[H])c1[H])C([H])([H])[H]

>  <error>  (468) 


>  <∆∆G>  (468) 
-47.951869

>  <∆G_bound>  (468) 
169.181329

>  <∆G_unbound>  (468) 
217.133198

>  <comRMSD>  (468) 
0.924227

>  <N_constrained_atoms>  (468) 
39.0

>  <N_unconstrained_atoms>  (468) 
0.0

>  <runtime>  (468) 
8.223879

>  <regarded>  (468) 
['5i3p-a', 'd0254a']

>  <disregarded>  (468) 
[]

>  <LE>  (468) 
1.229535

>  <outcome>  (468) 
acceptable

>  <percent_hybrid>  (468) 
21.0

$$$$

     RDKit          2D

  0  0  0  0  0  0  0  0  0  0999 V2000
M  END
>  <smiles>  (469) 
nan

>  <error>  (469) 
TimeoutError

>  <∆∆G>  (469) 
nan

>  <∆G_bound>  (469) 
nan

>  <∆G_unbound>  (469) 
nan

>  <comRMSD>  (469) 
nan

>  <N_constrained_atoms>  (469) 
nan

>  <N_unconstrained_atoms>  (469) 
nan

>  <runtime>  (469) 
nan

>  <regarded>  (469) 
[]

>  <disregarded>  (469) 
[]

>  <LE>  (469) 
nan

>  <outcome>  (469) 
timeout

>  <percent_hybrid>  (469) 
nan

$$$$
LIG
     RDKit          3D

 54 56  0  0  0  0  0  0  0  0999 V2000
  -13.5327  -42.1078  -18.7394 O   0  0  0  0  0  0  0  0  0  0  0  0
  -15.9721  -43.5250  -14.2559 O   0  0  0  0  0  0  0  0  0  0  0  0
  -13.8502  -38.1805  -16.3953 O   0  0  0  0  0  0  0  0  0  0  0  0
  -19.4994  -46.2564  -24.5857 C   0  0  0  0  0  0  0  0  0  0  0  0
  -20.1299  -46.4248  -25.5949 C   0  0  0  0  0  0  0  0  0  0  0  0
  -20.8759  -46.6567  -26.8284 C   0  0  0  0  0  0  0  0  0  0  0  0
  -14.3685  -44.4380  -16.8674 O   0  0  0  0  0  0  0  0  0  0  0  0
  -15.1818  -43.7393  -17.3357 C   0  0  0  0  0  0  0  0  0  0  0  0
  -16.2298  -42.8095  -16.6515 N   0  0  0  0  0  0  0  0  0  0  0  0
  -16.4504  -42.4359  -15.0676 S   0  0  0  0  0  0  0  0  0  0  0  0
  -17.7567  -41.8278  -14.9470 O   0  0  0  0  0  0  0  0  0  0  0  0
  -14.6062  -38.1288  -17.5988 C   0  0  0  0  0  0  0  0  0  0  0  0
  -12.4067  -41.5431  -19.4013 C   0  0  0  0  0  0  0  0  0  0  0  0
  -15.5156  -43.6110  -22.9380 O   0  0  0  0  0  0  0  0  0  0  0  0
  -14.3796  -43.2532  -23.7007 C   0  0  0  0  0  0  0  0  0  0  0  0
  -21.9663  -45.7509  -26.9279 O   0  0  0  0  0  0  0  0  0  0  0  0
  -15.4128  -43.5861  -21.5718 C   0  0  0  0  0  0  0  0  0  0  0  0
  -14.4522  -42.8268  -20.8910 C   0  0  0  0  0  0  0  0  0  0  0  0
  -14.3975  -42.8466  -19.4989 C   0  0  0  0  0  0  0  0  0  0  0  0
  -15.3159  -43.6374  -18.8005 C   0  0  0  0  0  0  0  0  0  0  0  0
  -16.2906  -44.3942  -19.4603 C   0  0  0  0  0  0  0  0  0  0  0  0
  -16.3607  -44.3605  -20.8587 C   0  0  0  0  0  0  0  0  0  0  0  0
  -13.3661  -39.2277  -14.3664 C   0  0  0  0  0  0  0  0  0  0  0  0
  -13.5498  -40.2212  -13.4052 C   0  0  0  0  0  0  0  0  0  0  0  0
  -14.5115  -41.1967  -13.6140 C   0  0  0  0  0  0  0  0  0  0  0  0
  -15.2820  -41.1562  -14.7811 C   0  0  0  0  0  0  0  0  0  0  0  0
  -15.1181  -40.1595  -15.7363 C   0  0  0  0  0  0  0  0  0  0  0  0
  -14.1429  -39.1954  -15.5312 C   0  0  0  0  0  0  0  0  0  0  0  0
  -17.6867  -46.5150  -21.3666 C   0  0  0  0  0  0  0  0  0  0  0  0
  -18.5272  -47.0123  -22.4081 C   0  0  0  0  0  0  0  0  0  0  0  0
  -18.8053  -46.0491  -23.3540 C   0  0  0  0  0  0  0  0  0  0  0  0
  -18.2996  -44.5136  -22.8348 S   0  0  0  0  0  0  0  0  0  0  0  0
  -17.3549  -45.1871  -21.5623 C   0  0  0  0  0  0  0  0  0  0  0  0
  -21.2453  -47.6827  -26.9087 H   0  0  0  0  0  0  0  0  0  0  0  0
  -20.2191  -46.4601  -27.6728 H   0  0  0  0  0  0  0  0  0  0  0  0
  -16.8381  -42.4062  -17.3572 H   0  0  0  0  0  0  0  0  0  0  0  0
  -15.6690  -37.9641  -17.3928 H   0  0  0  0  0  0  0  0  0  0  0  0
  -14.2468  -37.2742  -18.1804 H   0  0  0  0  0  0  0  0  0  0  0  0
  -14.4513  -39.0281  -18.2045 H   0  0  0  0  0  0  0  0  0  0  0  0
  -11.7272  -41.1572  -18.6355 H   0  0  0  0  0  0  0  0  0  0  0  0
  -11.8650  -42.2929  -19.9857 H   0  0  0  0  0  0  0  0  0  0  0  0
  -12.7126  -40.7018  -20.0314 H   0  0  0  0  0  0  0  0  0  0  0  0
  -14.1991  -42.1762  -23.6424 H   0  0  0  0  0  0  0  0  0  0  0  0
  -13.5058  -43.8374  -23.3977 H   0  0  0  0  0  0  0  0  0  0  0  0
  -14.5976  -43.4902  -24.7437 H   0  0  0  0  0  0  0  0  0  0  0  0
  -22.7381  -46.2071  -26.5270 H   0  0  0  0  0  0  0  0  0  0  0  0
  -13.7550  -42.2178  -21.4529 H   0  0  0  0  0  0  0  0  0  0  0  0
  -16.9796  -45.0114  -18.8898 H   0  0  0  0  0  0  0  0  0  0  0  0
  -12.6053  -38.4660  -14.2099 H   0  0  0  0  0  0  0  0  0  0  0  0
  -12.9379  -40.2342  -12.5073 H   0  0  0  0  0  0  0  0  0  0  0  0
  -14.6506  -41.9831  -12.8754 H   0  0  0  0  0  0  0  0  0  0  0  0
  -15.7469  -40.1596  -16.6173 H   0  0  0  0  0  0  0  0  0  0  0  0
  -17.2709  -47.1391  -20.5849 H   0  0  0  0  0  0  0  0  0  0  0  0
  -18.8420  -48.0455  -22.4922 H   0  0  0  0  0  0  0  0  0  0  0  0
  6 16  1  0
  6  5  1  0
  5  4  3  0
 14 15  1  0
  9  8  1  0
  9 10  1  0
  8  7  2  0
  2 10  2  0
 11 10  2  0
  1 13  1  0
 12  3  1  0
 17 22  2  0
 17 14  1  0
 17 18  1  0
 18 19  2  0
 19 20  1  0
 19  1  1  0
 20 21  2  0
 20  8  1  0
 21 22  1  0
 22 33  1  0
 23 28  2  0
 23 24  1  0
 24 25  2  0
 25 26  1  0
 26 10  1  0
 26 27  2  0
 27 28  1  0
 28  3  1  0
 29 30  1  0
 29 33  2  0
 30 31  2  0
 31  4  1  0
 31 32  1  0
 32 33  1  0
  6 34  1  0
  6 35  1  0
  9 36  1  0
 12 37  1  0
 12 38  1  0
 12 39  1  0
 13 40  1  0
 13 41  1  0
 13 42  1  0
 15 43  1  0
 15 44  1  0
 15 45  1  0
 16 46  1  0
 18 47  1  0
 21 48  1  0
 23 49  1  0
 24 50  1  0
 25 51  1  0
 27 52  1  0
 29 53  1  0
 30 54  1  0
M  END
>  <smiles>  (470) 
[H]OC([H])([H])C#Cc1sc(-c2c([H])c(C(=O)N([H])S(=O)(=O)c3c([H])c([H])c([H])c(OC([H])([H])[H])c3[H])c(OC([H])([H])[H])c([H])c2OC([H])([H])[H])c([H])c1[H]

>  <error>  (470) 


>  <∆∆G>  (470) 
-292.523648

>  <∆G_bound>  (470) 
-39.021177

>  <∆G_unbound>  (470) 
253.502471

>  <comRMSD>  (470) 
0.664851

>  <N_constrained_atoms>  (470) 
33.0

>  <N_unconstrained_atoms>  (470) 
0.0

>  <runtime>  (470) 
2.940329

>  <regarded>  (470) 
['5i3p-a', 'd0472a']

>  <disregarded>  (470) 
[]

>  <LE>  (470) 
8.864353

>  <outcome>  (470) 
equally sized

>  <percent_hybrid>  (470) 
0.0

$$$$

     RDKit          2D

  0  0  0  0  0  0  0  0  0  0999 V2000
M  END
>  <smiles>  (471) 
nan

>  <error>  (471) 
FragmensteinError Ideal compound failed. Something is wrong with the SMILES

>  <∆∆G>  (471) 
nan

>  <∆G_bound>  (471) 
nan

>  <∆G_unbound>  (471) 
nan

>  <comRMSD>  (471) 
nan

>  <N_constrained_atoms>  (471) 
nan

>  <N_unconstrained_atoms>  (471) 
nan

>  <runtime>  (471) 
nan

>  <regarded>  (471) 
[]

>  <disregarded>  (471) 
[]

>  <LE>  (471) 
nan

>  <outcome>  (471) 
crashed

>  <percent_hybrid>  (471) 
nan

$$$$
LIG
     RDKit          3D

 86 90  0  0  0  0  0  0  0  0999 V2000
  -13.5342  -42.5368  -18.6777 O   0  0  0  0  0  0  0  0  0  0  0  0
  -15.8901  -43.5995  -14.6739 O   0  0  0  0  0  0  0  0  0  0  0  0
  -13.8044  -38.0915  -15.9016 O   0  0  0  0  0  0  0  0  0  0  0  0
  -19.7750  -45.8223  -24.6482 C   0  0  0  0  0  0  0  0  0  0  0  0
  -20.3508  -46.1150  -25.6597 C   0  0  0  0  0  0  0  0  0  0  0  0
  -20.9993  -46.5271  -26.8959 C   0  0  0  0  0  0  0  0  0  0  0  0
  -15.5906  -44.2956  -17.7187 O   0  0  0  0  0  0  0  0  0  0  0  0
  -15.9722  -43.1890  -17.8022 C   0  0  0  0  0  0  0  0  0  0  0  0
  -16.4843  -42.2050  -16.6928 N   0  0  0  0  0  0  0  0  0  0  0  0
  -16.5443  -42.3767  -15.0618 S   0  0  0  0  0  0  0  0  0  0  0  0
  -17.8367  -41.9139  -14.6153 O   0  0  0  0  0  0  0  0  0  0  0  0
  -14.4204  -38.0205  -17.1843 C   0  0  0  0  0  0  0  0  0  0  0  0
  -12.3120  -41.8630  -18.9544 C   0  0  0  0  0  0  0  0  0  0  0  0
  -22.1078  -45.6853  -27.1721 O   0  0  0  0  0  0  0  0  0  0  0  0
  -17.1514  -44.4587  -24.6351 F   0  0  0  0  0  0  0  0  0  0  0  0
  -15.7892  -40.0764  -24.4140 N   0  0  0  0  0  0  0  0  0  0  0  0
  -15.6574  -39.6557  -25.8064 C   0  0  0  0  0  0  0  0  0  0  0  0
  -19.2862  -35.8750  -25.2181 C   0  0  0  0  0  0  0  0  0  0  0  0
  -15.3620  -43.1898  -22.0129 C   0  0  1  0  0  0  0  0  0  0  0  0
  -14.2397  -43.3613  -20.9154 C   0  0  0  0  0  0  0  0  0  0  0  0
  -14.5032  -42.4006  -19.7153 C   0  0  1  0  0  0  0  0  0  0  0  0
  -15.9361  -42.4054  -19.1245 C   0  0  1  0  0  0  0  0  0  0  0  0
  -17.0792  -42.7838  -20.0667 C   0  0  0  0  0  0  0  0  0  0  0  0
  -16.5917  -43.7418  -21.1298 C   0  0  1  0  0  0  0  0  0  0  0  0
  -13.3328  -39.3816  -14.0023 C   0  0  0  0  0  0  0  0  0  0  0  0
  -13.5534  -40.4774  -13.1634 C   0  0  0  0  0  0  0  0  0  0  0  0
  -14.5776  -41.3692  -13.4532 C   0  0  0  0  0  0  0  0  0  0  0  0
  -15.3949  -41.1245  -14.5585 C   0  0  0  0  0  0  0  0  0  0  0  0
  -15.2164  -39.9977  -15.3599 C   0  0  0  0  0  0  0  0  0  0  0  0
  -14.1473  -39.1530  -15.1144 C   0  0  0  0  0  0  0  0  0  0  0  0
  -17.7037  -46.0048  -21.6374 C   0  0  0  0  0  0  0  0  0  0  0  0
  -18.5503  -46.5660  -22.6239 C   0  0  0  0  0  0  0  0  0  0  0  0
  -19.1068  -45.5810  -23.4108 C   0  0  0  0  0  0  0  0  0  0  0  0
  -18.9720  -44.0502  -22.6486 S   0  0  0  0  0  0  0  0  0  0  0  0
  -17.6396  -44.6208  -21.7488 C   0  0  0  0  0  0  0  0  0  0  0  0
  -16.0314  -43.7282  -24.5051 C   0  0  1  0  0  0  0  0  0  0  0  0
  -16.5251  -42.3256  -24.6204 C   0  0  0  0  0  0  0  0  0  0  0  0
  -15.4387  -41.4499  -24.1167 C   0  0  2  0  0  0  0  0  0  0  0  0
  -15.2909  -41.6479  -22.5680 C   0  0  2  0  0  0  0  0  0  0  0  0
  -15.1752  -44.0925  -23.2582 C   0  0  0  0  0  0  0  0  0  0  0  0
  -17.7510  -38.6639  -26.9828 C   0  0  0  0  0  0  0  0  0  0  0  0
  -18.7227  -37.6864  -26.8304 N   0  0  0  0  0  0  0  0  0  0  0  0
  -18.4305  -36.9546  -25.7731 C   0  0  0  0  0  0  0  0  0  0  0  0
  -16.9409  -37.3042  -25.0054 S   0  0  0  0  0  0  0  0  0  0  0  0
  -16.7410  -38.6586  -26.0436 C   0  0  0  0  0  0  0  0  0  0  0  0
  -13.9805  -40.8565  -22.2894 C   0  0  0  0  0  0  0  0  0  0  0  0
  -21.3277  -47.5698  -26.8748 H   0  0  0  0  0  0  0  0  0  0  0  0
  -20.2884  -46.4097  -27.7107 H   0  0  0  0  0  0  0  0  0  0  0  0
  -16.8142  -41.3527  -17.1228 H   0  0  0  0  0  0  0  0  0  0  0  0
  -15.4817  -37.7675  -17.0944 H   0  0  0  0  0  0  0  0  0  0  0  0
  -13.9346  -37.2133  -17.7411 H   0  0  0  0  0  0  0  0  0  0  0  0
  -14.2773  -38.9467  -17.7519 H   0  0  0  0  0  0  0  0  0  0  0  0
  -11.6456  -42.0152  -18.1020 H   0  0  0  0  0  0  0  0  0  0  0  0
  -11.8364  -42.2618  -19.8527 H   0  0  0  0  0  0  0  0  0  0  0  0
  -12.4827  -40.7876  -19.0644 H   0  0  0  0  0  0  0  0  0  0  0  0
  -22.8750  -46.0973  -26.7165 H   0  0  0  0  0  0  0  0  0  0  0  0
  -15.3210  -39.3931  -23.8265 H   0  0  0  0  0  0  0  0  0  0  0  0
  -14.6688  -39.2228  -25.9841 H   0  0  0  0  0  0  0  0  0  0  0  0
  -15.7673  -40.4839  -26.5146 H   0  0  0  0  0  0  0  0  0  0  0  0
  -20.2279  -35.8128  -25.7733 H   0  0  0  0  0  0  0  0  0  0  0  0
  -19.5297  -36.0650  -24.1678 H   0  0  0  0  0  0  0  0  0  0  0  0
  -18.7868  -34.9039  -25.2952 H   0  0  0  0  0  0  0  0  0  0  0  0
  -14.1844  -44.3940  -20.5421 H   0  0  0  0  0  0  0  0  0  0  0  0
  -13.2390  -43.2379  -21.3363 H   0  0  0  0  0  0  0  0  0  0  0  0
  -14.4006  -41.3747  -20.0560 H   0  0  0  0  0  0  0  0  0  0  0  0
  -16.1196  -41.3535  -18.8652 H   0  0  0  0  0  0  0  0  0  0  0  0
  -17.9087  -43.2193  -19.4941 H   0  0  0  0  0  0  0  0  0  0  0  0
  -17.4883  -41.8836  -20.5400 H   0  0  0  0  0  0  0  0  0  0  0  0
  -16.1340  -44.5284  -20.5048 H   0  0  0  0  0  0  0  0  0  0  0  0
  -12.5062  -38.7057  -13.7941 H   0  0  0  0  0  0  0  0  0  0  0  0
  -12.9038  -40.6482  -12.3087 H   0  0  0  0  0  0  0  0  0  0  0  0
  -14.7186  -42.2561  -12.8392 H   0  0  0  0  0  0  0  0  0  0  0  0
  -15.8940  -39.7966  -16.1753 H   0  0  0  0  0  0  0  0  0  0  0  0
  -17.0578  -46.5949  -20.9975 H   0  0  0  0  0  0  0  0  0  0  0  0
  -18.6498  -47.6266  -22.8219 H   0  0  0  0  0  0  0  0  0  0  0  0
  -15.4288  -43.9514  -25.3842 H   0  0  0  0  0  0  0  0  0  0  0  0
  -16.7958  -42.1477  -25.6677 H   0  0  0  0  0  0  0  0  0  0  0  0
  -17.4498  -42.1626  -24.0595 H   0  0  0  0  0  0  0  0  0  0  0  0
  -14.4903  -41.7002  -24.6135 H   0  0  0  0  0  0  0  0  0  0  0  0
  -16.1120  -41.1084  -22.0795 H   0  0  0  0  0  0  0  0  0  0  0  0
  -15.3085  -45.1468  -23.0052 H   0  0  0  0  0  0  0  0  0  0  0  0
  -14.1223  -43.9958  -23.5599 H   0  0  0  0  0  0  0  0  0  0  0  0
  -17.8520  -39.3896  -27.7804 H   0  0  0  0  0  0  0  0  0  0  0  0
  -13.1300  -41.4363  -21.9458 H   0  0  0  0  0  0  0  0  0  0  0  0
  -13.5840  -40.3151  -23.1558 H   0  0  0  0  0  0  0  0  0  0  0  0
  -14.1773  -40.0658  -21.5556 H   0  0  0  0  0  0  0  0  0  0  0  0
  6 14  1  0
  6  5  1  0
  5  4  3  0
  9  8  1  0
  9 10  1  0
  8  7  2  0
  2 10  2  0
 11 10  2  0
  1 13  1  0
 12  3  1  0
 17 16  1  0
 19 24  1  0
 19 20  1  1
 20 21  1  0
 21 22  1  0
 21  1  1  0
 22 23  1  0
 22  8  1  0
 23 24  1  0
 24 35  1  0
 25 30  2  0
 25 26  1  0
 26 27  2  0
 27 28  1  0
 28 10  1  0
 28 29  2  0
 29 30  1  0
 30  3  1  0
 31 32  1  0
 31 35  2  0
 32 33  2  0
 33  4  1  0
 33 34  1  0
 34 35  1  0
 36 40  1  0
 36 15  1  0
 36 37  1  0
 37 38  1  0
 38 16  1  0
 38 39  1  0
 41 42  1  0
 41 45  2  0
 42 43  2  0
 43 18  1  0
 43 44  1  0
 44 45  1  0
 45 17  1  0
 19 39  1  0
 19 40  1  0
 39 46  1  0
  6 47  1  0
  6 48  1  0
  9 49  1  0
 12 50  1  0
 12 51  1  0
 12 52  1  0
 13 53  1  0
 13 54  1  0
 13 55  1  0
 14 56  1  0
 16 57  1  0
 17 58  1  0
 17 59  1  0
 18 60  1  0
 18 61  1  0
 18 62  1  0
 20 63  1  0
 20 64  1  0
 21 65  1  6
 22 66  1  6
 23 67  1  0
 23 68  1  0
 24 69  1  1
 25 70  1  0
 26 71  1  0
 27 72  1  0
 29 73  1  0
 31 74  1  0
 32 75  1  0
 36 76  1  6
 37 77  1  0
 37 78  1  0
 38 79  1  6
 39 80  1  1
 40 81  1  0
 40 82  1  0
 41 83  1  0
 46 84  1  0
 46 85  1  0
 46 86  1  0
M  END
>  <smiles>  (472) 
[H]OC([H])([H])C#Cc1sc([C@]2([H])C([H])([H])[C@]([H])(C(=O)N([H])S(=O)(=O)c3c([H])c([H])c([H])c(OC([H])([H])[H])c3[H])[C@@]([H])(OC([H])([H])[H])C([H])([H])[C@@]23C([H])([H])[C@@]([H])(F)C([H])([H])[C@@]([H])(N([H])C([H])([H])c2sc(C([H])([H])[H])nc2[H])[C@]3([H])C([H])([H])[H])c([H])c1[H]

>  <error>  (472) 


>  <∆∆G>  (472) 
-109.458887

>  <∆G_bound>  (472) 
222.850523

>  <∆G_unbound>  (472) 
332.30941

>  <comRMSD>  (472) 
1.066287

>  <N_constrained_atoms>  (472) 
46.0

>  <N_unconstrained_atoms>  (472) 
0.0

>  <runtime>  (472) 
155.947449

>  <regarded>  (472) 
['5i3p-a', 'd0615b']

>  <disregarded>  (472) 
[]

>  <LE>  (472) 
2.379541

>  <outcome>  (472) 
too moved

>  <percent_hybrid>  (472) 
31.0

$$$$
LIG
     RDKit          3D

 82 85  0  0  0  0  0  0  0  0999 V2000
  -13.3694  -42.3287  -18.6329 O   0  0  0  0  0  0  0  0  0  0  0  0
  -16.0921  -43.4508  -14.1989 O   0  0  0  0  0  0  0  0  0  0  0  0
  -13.8509  -38.1795  -16.4307 O   0  0  0  0  0  0  0  0  0  0  0  0
  -19.4709  -46.2217  -24.5392 C   0  0  0  0  0  0  0  0  0  0  0  0
  -20.1053  -46.3879  -25.5472 C   0  0  0  0  0  0  0  0  0  0  0  0
  -20.8598  -46.6306  -26.7762 C   0  0  0  0  0  0  0  0  0  0  0  0
  -14.3785  -44.4421  -16.7439 O   0  0  0  0  0  0  0  0  0  0  0  0
  -15.1914  -43.7756  -17.2570 C   0  0  0  0  0  0  0  0  0  0  0  0
  -16.2610  -42.8291  -16.6340 N   0  0  0  0  0  0  0  0  0  0  0  0
  -16.5133  -42.3860  -15.0706 S   0  0  0  0  0  0  0  0  0  0  0  0
  -17.8013  -41.7318  -15.0088 O   0  0  0  0  0  0  0  0  0  0  0  0
  -14.6391  -38.0967  -17.6111 C   0  0  0  0  0  0  0  0  0  0  0  0
  -12.3894  -41.5404  -19.2978 C   0  0  0  0  0  0  0  0  0  0  0  0
  -15.1579  -43.9033  -22.8839 O   0  0  0  0  0  0  0  0  0  0  0  0
  -14.6861  -42.7686  -23.6225 C   0  0  0  0  0  0  0  0  0  0  0  0
  -21.9411  -45.7138  -26.8776 O   0  0  0  0  0  0  0  0  0  0  0  0
  -15.2005  -43.7894  -21.5130 C   0  0  0  0  0  0  0  0  0  0  0  0
  -14.1973  -43.1228  -20.7946 C   0  0  0  0  0  0  0  0  0  0  0  0
  -14.2472  -43.0358  -19.4065 C   0  0  0  0  0  0  0  0  0  0  0  0
  -15.2649  -43.7129  -18.7302 C   0  0  0  0  0  0  0  0  0  0  0  0
  -16.2556  -44.4233  -19.4182 C   0  0  0  0  0  0  0  0  0  0  0  0
  -16.2404  -44.4576  -20.8223 C   0  0  0  0  0  0  0  0  0  0  0  0
  -13.3345  -39.2560  -14.4266 C   0  0  0  0  0  0  0  0  0  0  0  0
  -13.5127  -40.2539  -13.4697 C   0  0  0  0  0  0  0  0  0  0  0  0
  -14.5007  -41.2063  -13.6610 C   0  0  0  0  0  0  0  0  0  0  0  0
  -15.3033  -41.1386  -14.8057 C   0  0  0  0  0  0  0  0  0  0  0  0
  -15.1463  -40.1352  -15.7546 C   0  0  0  0  0  0  0  0  0  0  0  0
  -14.1433  -39.1957  -15.5682 C   0  0  0  0  0  0  0  0  0  0  0  0
  -17.6258  -46.5675  -21.3452 C   0  0  0  0  0  0  0  0  0  0  0  0
  -18.5031  -47.0251  -22.3758 C   0  0  0  0  0  0  0  0  0  0  0  0
  -18.7645  -46.0430  -23.3075 C   0  0  0  0  0  0  0  0  0  0  0  0
  -18.2019  -44.5325  -22.7698 S   0  0  0  0  0  0  0  0  0  0  0  0
  -17.2564  -45.2483  -21.5308 C   0  0  0  0  0  0  0  0  0  0  0  0
  -19.7647  -39.2320  -24.6189 O   0  0  0  0  0  0  0  0  0  0  0  0
  -19.1875  -39.6646  -25.8735 S   0  0  0  0  0  0  0  0  0  0  0  0
  -18.9229  -38.7066  -26.9304 O   0  0  0  0  0  0  0  0  0  0  0  0
  -20.2451  -40.9371  -26.5295 C   0  0  0  0  0  0  0  0  0  0  0  0
  -16.2955  -40.9880  -27.4587 C   0  0  0  0  0  0  0  0  0  0  0  0
  -16.5079  -38.2335  -25.0542 C   0  0  0  0  0  0  0  0  0  0  0  0
  -16.1837  -38.1560  -26.4349 O   0  0  0  0  0  0  0  0  0  0  0  0
  -17.7435  -40.4204  -25.4875 N   0  0  0  0  0  0  0  0  0  0  0  0
  -17.1631  -41.4953  -26.3123 C   0  0  2  0  0  0  0  0  0  0  0  0
  -16.4517  -42.5246  -25.4267 C   0  0  0  0  0  0  0  0  0  0  0  0
  -15.8719  -41.9445  -24.1302 C   0  0  2  0  0  0  0  0  0  0  0  0
  -15.5147  -40.4709  -24.3259 C   0  0  0  0  0  0  0  0  0  0  0  0
  -16.8014  -39.6707  -24.5870 C   0  0  1  0  0  0  0  0  0  0  0  0
  -21.2396  -47.6538  -26.8421 H   0  0  0  0  0  0  0  0  0  0  0  0
  -20.2090  -46.4550  -27.6304 H   0  0  0  0  0  0  0  0  0  0  0  0
  -16.7528  -42.3389  -17.3740 H   0  0  0  0  0  0  0  0  0  0  0  0
  -15.6912  -37.9081  -17.3732 H   0  0  0  0  0  0  0  0  0  0  0  0
  -14.2753  -37.2454  -18.1947 H   0  0  0  0  0  0  0  0  0  0  0  0
  -14.5241  -38.9934  -18.2295 H   0  0  0  0  0  0  0  0  0  0  0  0
  -11.7977  -41.0277  -18.5335 H   0  0  0  0  0  0  0  0  0  0  0  0
  -11.7101  -42.1636  -19.8854 H   0  0  0  0  0  0  0  0  0  0  0  0
  -12.8608  -40.7762  -19.9249 H   0  0  0  0  0  0  0  0  0  0  0  0
  -14.0280  -42.1202  -23.0450 H   0  0  0  0  0  0  0  0  0  0  0  0
  -14.0857  -43.1517  -24.4539 H   0  0  0  0  0  0  0  0  0  0  0  0
  -22.7260  -46.1775  -26.5113 H   0  0  0  0  0  0  0  0  0  0  0  0
  -13.3346  -42.7288  -21.3186 H   0  0  0  0  0  0  0  0  0  0  0  0
  -17.0205  -44.9629  -18.8654 H   0  0  0  0  0  0  0  0  0  0  0  0
  -12.5527  -38.5126  -14.2850 H   0  0  0  0  0  0  0  0  0  0  0  0
  -12.8765  -40.2892  -12.5895 H   0  0  0  0  0  0  0  0  0  0  0  0
  -14.6345  -41.9957  -12.9245 H   0  0  0  0  0  0  0  0  0  0  0  0
  -15.8037  -40.1098  -16.6139 H   0  0  0  0  0  0  0  0  0  0  0  0
  -17.2155  -47.2131  -20.5778 H   0  0  0  0  0  0  0  0  0  0  0  0
  -18.8482  -48.0482  -22.4674 H   0  0  0  0  0  0  0  0  0  0  0  0
  -20.2377  -41.7954  -25.8556 H   0  0  0  0  0  0  0  0  0  0  0  0
  -21.2572  -40.5281  -26.5842 H   0  0  0  0  0  0  0  0  0  0  0  0
  -19.9158  -41.1978  -27.5324 H   0  0  0  0  0  0  0  0  0  0  0  0
  -15.3827  -40.4929  -27.1252 H   0  0  0  0  0  0  0  0  0  0  0  0
  -15.9819  -41.8222  -28.0932 H   0  0  0  0  0  0  0  0  0  0  0  0
  -16.8442  -40.2790  -28.0859 H   0  0  0  0  0  0  0  0  0  0  0  0
  -15.6801  -37.8129  -24.4763 H   0  0  0  0  0  0  0  0  0  0  0  0
  -17.3709  -37.5824  -24.8768 H   0  0  0  0  0  0  0  0  0  0  0  0
  -17.0228  -38.2777  -26.9234 H   0  0  0  0  0  0  0  0  0  0  0  0
  -17.9857  -42.0510  -26.7553 H   0  0  0  0  0  0  0  0  0  0  0  0
  -17.1674  -43.3097  -25.1627 H   0  0  0  0  0  0  0  0  0  0  0  0
  -15.6862  -43.0353  -26.0137 H   0  0  0  0  0  0  0  0  0  0  0  0
  -16.6593  -41.9810  -23.3658 H   0  0  0  0  0  0  0  0  0  0  0  0
  -15.0375  -40.0729  -23.4208 H   0  0  0  0  0  0  0  0  0  0  0  0
  -14.7794  -40.3508  -25.1271 H   0  0  0  0  0  0  0  0  0  0  0  0
  -17.3037  -39.5955  -23.6117 H   0  0  0  0  0  0  0  0  0  0  0  0
  6 16  1  0
  6  5  1  0
  5  4  3  0
 14 15  1  0
  9  8  1  0
  9 10  1  0
  8  7  2  0
  2 10  2  0
 11 10  2  0
  1 13  1  0
 12  3  1  0
 17 22  1  0
 17 14  1  0
 17 18  2  0
 18 19  1  0
 19 20  2  0
 19  1  1  0
 20 21  1  0
 20  8  1  0
 21 22  2  0
 22 33  1  0
 23 28  2  0
 23 24  1  0
 24 25  2  0
 25 26  1  0
 26 10  1  0
 26 27  2  0
 27 28  1  0
 28  3  1  0
 29 30  1  0
 29 33  2  0
 30 31  2  0
 31  4  1  0
 31 32  1  0
 32 33  1  0
 40 39  1  0
 37 35  1  0
 36 35  2  0
 35 34  2  0
 41 46  1  0
 41 35  1  0
 41 42  1  0
 42 38  1  0
 42 43  1  0
 43 44  1  0
 44 45  1  0
 45 46  1  0
 46 39  1  0
 15 44  1  0
  6 47  1  0
  6 48  1  0
  9 49  1  0
 12 50  1  0
 12 51  1  0
 12 52  1  0
 13 53  1  0
 13 54  1  0
 13 55  1  0
 15 56  1  0
 15 57  1  0
 16 58  1  0
 18 59  1  0
 21 60  1  0
 23 61  1  0
 24 62  1  0
 25 63  1  0
 27 64  1  0
 29 65  1  0
 30 66  1  0
 37 67  1  0
 37 68  1  0
 37 69  1  0
 38 70  1  0
 38 71  1  0
 38 72  1  0
 39 73  1  0
 39 74  1  0
 40 75  1  0
 42 76  1  6
 43 77  1  0
 43 78  1  0
 44 79  1  1
 45 80  1  0
 45 81  1  0
 46 82  1  1
M  END
>  <smiles>  (473) 
[H]OC([H])([H])C#Cc1sc(-c2c([H])c(C(=O)N([H])S(=O)(=O)c3c([H])c([H])c([H])c(OC([H])([H])[H])c3[H])c(OC([H])([H])[H])c([H])c2OC([H])([H])[C@]2([H])C([H])([H])[C@]([H])(C([H])([H])[H])N(S(=O)(=O)C([H])([H])[H])[C@]([H])(C([H])([H])O[H])C2([H])[H])c([H])c1[H]

>  <error>  (473) 


>  <∆∆G>  (473) 
-117.50541

>  <∆G_bound>  (473) 
162.504318

>  <∆G_unbound>  (473) 
280.009728

>  <comRMSD>  (473) 
0.643843

>  <N_constrained_atoms>  (473) 
46.0

>  <N_unconstrained_atoms>  (473) 
0.0

>  <runtime>  (473) 
157.196671

>  <regarded>  (473) 
['5i3p-a', 'd0851a']

>  <disregarded>  (473) 
[]

>  <LE>  (473) 
2.554465

>  <outcome>  (473) 
acceptable

>  <percent_hybrid>  (473) 
29.0

$$$$

     RDKit          2D

  0  0  0  0  0  0  0  0  0  0999 V2000
M  END
>  <smiles>  (474) 
nan

>  <error>  (474) 
TimeoutError

>  <∆∆G>  (474) 
nan

>  <∆G_bound>  (474) 
nan

>  <∆G_unbound>  (474) 
nan

>  <comRMSD>  (474) 
nan

>  <N_constrained_atoms>  (474) 
nan

>  <N_unconstrained_atoms>  (474) 
nan

>  <runtime>  (474) 
nan

>  <regarded>  (474) 
[]

>  <disregarded>  (474) 
[]

>  <LE>  (474) 
nan

>  <outcome>  (474) 
timeout

>  <percent_hybrid>  (474) 
nan

$$$$
LIG
     RDKit          3D

 86 91  0  0  0  0  0  0  0  0999 V2000
  -13.4879  -42.2036  -18.6835 O   0  0  0  0  0  0  0  0  0  0  0  0
  -15.9794  -43.5393  -14.2110 O   0  0  0  0  0  0  0  0  0  0  0  0
  -14.2301  -38.0817  -16.2711 O   0  0  0  0  0  0  0  0  0  0  0  0
  -19.4937  -46.2455  -24.5763 C   0  0  0  0  0  0  0  0  0  0  0  0
  -20.1234  -46.4172  -25.5857 C   0  0  0  0  0  0  0  0  0  0  0  0
  -20.8705  -46.6540  -26.8183 C   0  0  0  0  0  0  0  0  0  0  0  0
  -14.3990  -44.4579  -16.8197 O   0  0  0  0  0  0  0  0  0  0  0  0
  -15.2057  -43.7518  -17.2891 C   0  0  0  0  0  0  0  0  0  0  0  0
  -16.2572  -42.8235  -16.6055 N   0  0  0  0  0  0  0  0  0  0  0  0
  -16.4908  -42.4631  -15.0190 S   0  0  0  0  0  0  0  0  0  0  0  0
  -17.8093  -41.8834  -14.8945 O   0  0  0  0  0  0  0  0  0  0  0  0
  -13.8700  -38.5267  -17.5799 C   0  0  0  0  0  0  0  0  0  0  0  0
  -12.4057  -41.5710  -19.3541 C   0  0  0  0  0  0  0  0  0  0  0  0
  -15.4944  -43.6494  -22.8982 O   0  0  0  0  0  0  0  0  0  0  0  0
  -14.3700  -43.2629  -23.6628 C   0  0  0  0  0  0  0  0  0  0  0  0
  -21.9621  -45.7497  -26.9185 O   0  0  0  0  0  0  0  0  0  0  0  0
  -15.4024  -43.6134  -21.5316 C   0  0  0  0  0  0  0  0  0  0  0  0
  -14.4267  -42.8791  -20.8451 C   0  0  0  0  0  0  0  0  0  0  0  0
  -14.3822  -42.8969  -19.4517 C   0  0  0  0  0  0  0  0  0  0  0  0
  -15.3319  -43.6524  -18.7562 C   0  0  0  0  0  0  0  0  0  0  0  0
  -16.3212  -44.3854  -19.4222 C   0  0  0  0  0  0  0  0  0  0  0  0
  -16.3737  -44.3621  -20.8224 C   0  0  0  0  0  0  0  0  0  0  0  0
  -13.5367  -39.1382  -14.2692 C   0  0  0  0  0  0  0  0  0  0  0  0
  -13.6178  -40.1938  -13.3644 C   0  0  0  0  0  0  0  0  0  0  0  0
  -14.5268  -41.2173  -13.5949 C   0  0  0  0  0  0  0  0  0  0  0  0
  -15.3618  -41.1572  -14.7184 C   0  0  0  0  0  0  0  0  0  0  0  0
  -15.3130  -40.0989  -15.6084 C   0  0  0  0  0  0  0  0  0  0  0  0
  -14.3616  -39.1168  -15.3952 C   0  0  0  0  0  0  0  0  0  0  0  0
  -17.6983  -46.5121  -21.3471 C   0  0  0  0  0  0  0  0  0  0  0  0
  -18.5291  -47.0064  -22.3976 C   0  0  0  0  0  0  0  0  0  0  0  0
  -18.8033  -46.0398  -23.3415 C   0  0  0  0  0  0  0  0  0  0  0  0
  -18.2990  -44.5057  -22.8146 S   0  0  0  0  0  0  0  0  0  0  0  0
  -17.3672  -45.1830  -21.5344 C   0  0  0  0  0  0  0  0  0  0  0  0
  -11.6101  -32.5887  -20.7105 O   0  0  0  0  0  0  0  0  0  0  0  0
  -12.1057  -33.6528  -20.3537 C   0  0  0  0  0  0  0  0  0  0  0  0
  -13.3894  -33.7209  -19.6341 C   0  0  0  0  0  0  0  0  0  0  0  0
  -13.8055  -34.9684  -19.1466 C   0  0  0  0  0  0  0  0  0  0  0  0
  -13.0513  -36.1498  -19.3654 N   0  0  0  0  0  0  0  0  0  0  0  0
  -12.1868  -36.1057  -20.5600 C   0  0  0  0  0  0  0  0  0  0  0  0
  -11.4873  -34.8510  -20.5568 N   0  0  0  0  0  0  0  0  0  0  0  0
  -14.0970  -32.5511  -19.3391 C   0  0  0  0  0  0  0  0  0  0  0  0
  -14.9855  -35.0094  -18.3885 C   0  0  0  0  0  0  0  0  0  0  0  0
  -15.6854  -33.8422  -18.0760 C   0  0  0  0  0  0  0  0  0  0  0  0
  -15.2275  -32.6119  -18.5327 C   0  0  0  0  0  0  0  0  0  0  0  0
  -11.1860  -37.2852  -20.7076 C   0  0  0  0  0  0  0  0  0  0  0  0
  -11.7937  -38.2861  -21.6888 C   0  0  0  0  0  0  0  0  0  0  0  0
  -13.2052  -37.7996  -21.9365 C   0  0  0  0  0  0  0  0  0  0  0  0
  -13.0734  -36.2880  -21.8154 C   0  0  0  0  0  0  0  0  0  0  0  0
  -12.5115  -38.1016  -17.8829 N   0  0  0  0  0  0  0  0  0  0  0  0
  -12.4683  -36.6615  -18.1196 C   0  0  0  0  0  0  0  0  0  0  0  0
  -21.2386  -47.6807  -26.8952 H   0  0  0  0  0  0  0  0  0  0  0  0
  -20.2156  -46.4598  -27.6647 H   0  0  0  0  0  0  0  0  0  0  0  0
  -16.8577  -42.4117  -17.3131 H   0  0  0  0  0  0  0  0  0  0  0  0
  -13.8965  -39.6175  -17.6827 H   0  0  0  0  0  0  0  0  0  0  0  0
  -14.5979  -38.1424  -18.3024 H   0  0  0  0  0  0  0  0  0  0  0  0
  -11.7194  -41.1831  -18.5958 H   0  0  0  0  0  0  0  0  0  0  0  0
  -11.8515  -42.2753  -19.9814 H   0  0  0  0  0  0  0  0  0  0  0  0
  -12.7734  -40.7256  -19.9401 H   0  0  0  0  0  0  0  0  0  0  0  0
  -14.2014  -42.1850  -23.5855 H   0  0  0  0  0  0  0  0  0  0  0  0
  -13.4878  -43.8422  -23.3756 H   0  0  0  0  0  0  0  0  0  0  0  0
  -14.5911  -43.4836  -24.7090 H   0  0  0  0  0  0  0  0  0  0  0  0
  -22.7358  -46.2095  -26.5254 H   0  0  0  0  0  0  0  0  0  0  0  0
  -13.7024  -42.3004  -21.4044 H   0  0  0  0  0  0  0  0  0  0  0  0
  -17.0309  -44.9834  -18.8565 H   0  0  0  0  0  0  0  0  0  0  0  0
  -12.8233  -38.3359  -14.1024 H   0  0  0  0  0  0  0  0  0  0  0  0
  -12.9713  -40.2210  -12.4913 H   0  0  0  0  0  0  0  0  0  0  0  0
  -14.5834  -42.0507  -12.8975 H   0  0  0  0  0  0  0  0  0  0  0  0
  -15.9925  -40.0432  -16.4517 H   0  0  0  0  0  0  0  0  0  0  0  0
  -17.2874  -47.1390  -20.5651 H   0  0  0  0  0  0  0  0  0  0  0  0
  -18.8420  -48.0398  -22.4882 H   0  0  0  0  0  0  0  0  0  0  0  0
  -10.5507  -34.8479  -20.9469 H   0  0  0  0  0  0  0  0  0  0  0  0
  -13.7504  -31.5880  -19.6844 H   0  0  0  0  0  0  0  0  0  0  0  0
  -15.3561  -35.9546  -18.0018 H   0  0  0  0  0  0  0  0  0  0  0  0
  -16.5672  -33.8938  -17.4408 H   0  0  0  0  0  0  0  0  0  0  0  0
  -15.7407  -31.7022  -18.2311 H   0  0  0  0  0  0  0  0  0  0  0  0
  -10.2378  -36.9464  -21.1395 H   0  0  0  0  0  0  0  0  0  0  0  0
  -10.9045  -37.7795  -19.7780 H   0  0  0  0  0  0  0  0  0  0  0  0
  -11.2300  -38.2767  -22.6281 H   0  0  0  0  0  0  0  0  0  0  0  0
  -11.7664  -39.3090  -21.3091 H   0  0  0  0  0  0  0  0  0  0  0  0
  -13.5888  -38.1209  -22.9071 H   0  0  0  0  0  0  0  0  0  0  0  0
  -13.8823  -38.1883  -21.1665 H   0  0  0  0  0  0  0  0  0  0  0  0
  -14.0555  -35.8090  -21.7506 H   0  0  0  0  0  0  0  0  0  0  0  0
  -12.5723  -35.8845  -22.7017 H   0  0  0  0  0  0  0  0  0  0  0  0
  -11.9621  -38.2995  -17.0497 H   0  0  0  0  0  0  0  0  0  0  0  0
  -12.8838  -36.1557  -17.2360 H   0  0  0  0  0  0  0  0  0  0  0  0
  -11.4117  -36.3604  -18.0888 H   0  0  0  0  0  0  0  0  0  0  0  0
  6 16  1  0
  6  5  1  0
  5  4  3  0
 14 15  1  0
  9  8  1  0
  9 10  1  0
  8  7  2  0
  2 10  2  0
 11 10  2  0
  1 13  1  0
 12  3  1  0
 17 22  2  0
 17 14  1  0
 17 18  1  0
 18 19  2  0
 19 20  1  0
 19  1  1  0
 20 21  2  0
 20  8  1  0
 21 22  1  0
 22 33  1  0
 23 28  2  0
 23 24  1  0
 24 25  2  0
 25 26  1  0
 26 10  1  0
 26 27  2  0
 27 28  1  0
 28  3  1  0
 29 30  1  0
 29 33  2  0
 30 31  2  0
 31  4  1  0
 31 32  1  0
 32 33  1  0
 35 34  2  0
 35 40  1  0
 35 36  1  0
 36 41  2  0
 36 37  1  0
 37 38  1  0
 37 42  2  0
 38 39  1  0
 39 40  1  0
 39 48  1  0
 39 45  1  0
 41 44  1  0
 42 43  1  0
 43 44  2  0
 45 46  1  0
 46 47  1  0
 47 48  1  0
 49 12  1  0
 50 49  1  0
 50 38  1  0
  6 51  1  0
  6 52  1  0
  9 53  1  0
 12 54  1  0
 12 55  1  0
 13 56  1  0
 13 57  1  0
 13 58  1  0
 15 59  1  0
 15 60  1  0
 15 61  1  0
 16 62  1  0
 18 63  1  0
 21 64  1  0
 23 65  1  0
 24 66  1  0
 25 67  1  0
 27 68  1  0
 29 69  1  0
 30 70  1  0
 40 71  1  0
 41 72  1  0
 42 73  1  0
 43 74  1  0
 44 75  1  0
 45 76  1  0
 45 77  1  0
 46 78  1  0
 46 79  1  0
 47 80  1  0
 47 81  1  0
 48 82  1  0
 48 83  1  0
 49 84  1  0
 50 85  1  0
 50 86  1  0
M  END
>  <smiles>  (475) 
[H]OC([H])([H])C#Cc1sc(-c2c([H])c(C(=O)N([H])S(=O)(=O)c3c([H])c([H])c([H])c(OC([H])([H])N([H])C([H])([H])N4c5c([H])c([H])c([H])c([H])c5C(=O)N([H])C45C([H])([H])C([H])([H])C([H])([H])C5([H])[H])c3[H])c(OC([H])([H])[H])c([H])c2OC([H])([H])[H])c([H])c1[H]

>  <error>  (475) 


>  <∆∆G>  (475) 
-74.139634

>  <∆G_bound>  (475) 
-14.748125

>  <∆G_unbound>  (475) 
59.391508

>  <comRMSD>  (475) 
0.641034

>  <N_constrained_atoms>  (475) 
48.0

>  <N_unconstrained_atoms>  (475) 
2.0

>  <runtime>  (475) 
11.881938

>  <regarded>  (475) 
['5i3p-a', 'd1196a']

>  <disregarded>  (475) 
[]

>  <LE>  (475) 
1.482793

>  <outcome>  (475) 
acceptable

>  <percent_hybrid>  (475) 
32.0

$$$$
LIG
     RDKit          3D

 73 76  0  0  0  0  0  0  0  0999 V2000
  -13.4780  -42.6704  -18.7282 C   0  0  1  0  0  0  0  0  0  0  0  0
  -16.9188  -42.8263  -14.5047 O   0  0  0  0  0  0  0  0  0  0  0  0
  -13.8240  -37.9271  -16.1007 O   0  0  0  0  0  0  0  0  0  0  0  0
  -19.6543  -46.2848  -24.8281 C   0  0  0  0  0  0  0  0  0  0  0  0
  -20.3064  -46.4564  -25.8162 C   0  0  0  0  0  0  0  0  0  0  0  0
  -21.0613  -46.6277  -27.0363 C   0  0  0  0  0  0  0  0  0  0  0  0
  -16.7858  -44.4275  -17.3270 O   0  0  0  0  0  0  0  0  0  0  0  0
  -16.5416  -43.3328  -17.6493 C   0  0  0  0  0  0  0  0  0  0  0  0
  -16.7324  -41.9994  -16.8916 N   0  0  0  0  0  0  0  0  0  0  0  0
  -17.2397  -41.7061  -15.3470 S   0  0  0  0  0  0  0  0  0  0  0  0
  -18.5546  -41.1122  -15.4215 O   0  0  0  0  0  0  0  0  0  0  0  0
  -14.2702  -37.8351  -17.4488 C   0  0  0  0  0  0  0  0  0  0  0  0
  -12.5359  -41.6691  -19.4795 C   0  0  0  0  0  0  0  0  0  0  0  0
  -15.4052  -43.9139  -23.0776 O   0  0  0  0  0  0  0  0  0  0  0  0
  -14.3588  -43.2697  -23.7731 C   0  0  0  0  0  0  0  0  0  0  0  0
  -22.1293  -45.6946  -27.0948 O   0  0  0  0  0  0  0  0  0  0  0  0
  -12.8715  -43.9725  -18.7684 O   0  0  0  0  0  0  0  0  0  0  0  0
  -13.3856  -42.1700  -17.2370 C   0  0  0  0  0  0  0  0  0  0  0  0
  -15.5746  -43.6179  -21.7565 C   0  0  0  0  0  0  0  0  0  0  0  0
  -14.6062  -43.0547  -20.9289 C   0  0  0  0  0  0  0  0  0  0  0  0
  -14.7789  -42.8769  -19.5167 C   0  0  0  0  0  0  0  0  0  0  0  0
  -16.0663  -43.1689  -19.0278 C   0  0  0  0  0  0  0  0  0  0  0  0
  -17.0464  -43.7231  -19.8734 C   0  0  0  0  0  0  0  0  0  0  0  0
  -16.7734  -44.0270  -21.1917 C   0  0  0  0  0  0  0  0  0  0  0  0
  -14.0787  -38.8069  -13.9482 C   0  0  0  0  0  0  0  0  0  0  0  0
  -14.6887  -39.6531  -13.0212 C   0  0  0  0  0  0  0  0  0  0  0  0
  -15.7254  -40.4805  -13.4353 C   0  0  0  0  0  0  0  0  0  0  0  0
  -16.1510  -40.4380  -14.7691 C   0  0  0  0  0  0  0  0  0  0  0  0
  -15.6002  -39.5370  -15.6712 C   0  0  0  0  0  0  0  0  0  0  0  0
  -14.5283  -38.7521  -15.2724 C   0  0  0  0  0  0  0  0  0  0  0  0
  -17.8891  -46.2639  -21.6103 C   0  0  0  0  0  0  0  0  0  0  0  0
  -18.6278  -46.8836  -22.6475 C   0  0  0  0  0  0  0  0  0  0  0  0
  -18.9458  -45.9863  -23.6419 C   0  0  0  0  0  0  0  0  0  0  0  0
  -18.4893  -44.3958  -23.2722 S   0  0  0  0  0  0  0  0  0  0  0  0
  -17.6563  -44.9332  -21.8932 C   0  0  0  0  0  0  0  0  0  0  0  0
  -13.9647  -42.8103  -16.0418 N   0  0  0  0  0  0  0  0  0  0  0  0
  -13.9156  -44.2616  -16.1147 C   0  0  0  0  0  0  0  0  0  0  0  0
  -14.2931  -44.9661  -14.8339 C   0  0  0  0  0  0  0  0  0  0  0  0
  -13.4483  -44.5979  -13.7478 O   0  0  0  0  0  0  0  0  0  0  0  0
  -13.5591  -43.1863  -13.5576 C   0  0  0  0  0  0  0  0  0  0  0  0
  -13.1526  -42.4403  -14.8406 C   0  0  0  0  0  0  0  0  0  0  0  0
  -21.4485  -47.6428  -27.1563 H   0  0  0  0  0  0  0  0  0  0  0  0
  -20.3923  -46.3895  -27.8579 H   0  0  0  0  0  0  0  0  0  0  0  0
  -16.4906  -41.2307  -17.4971 H   0  0  0  0  0  0  0  0  0  0  0  0
  -15.2890  -37.4374  -17.5039 H   0  0  0  0  0  0  0  0  0  0  0  0
  -13.6135  -37.1295  -17.9672 H   0  0  0  0  0  0  0  0  0  0  0  0
  -14.1877  -38.7981  -17.9630 H   0  0  0  0  0  0  0  0  0  0  0  0
  -11.6436  -41.4280  -18.8893 H   0  0  0  0  0  0  0  0  0  0  0  0
  -12.1194  -42.0731  -20.4069 H   0  0  0  0  0  0  0  0  0  0  0  0
  -13.0526  -40.7275  -19.6965 H   0  0  0  0  0  0  0  0  0  0  0  0
  -14.2800  -42.2081  -23.5168 H   0  0  0  0  0  0  0  0  0  0  0  0
  -13.4247  -43.8068  -23.5942 H   0  0  0  0  0  0  0  0  0  0  0  0
  -14.5872  -43.3283  -24.8381 H   0  0  0  0  0  0  0  0  0  0  0  0
  -22.8878  -46.1333  -26.6486 H   0  0  0  0  0  0  0  0  0  0  0  0
  -12.4987  -44.1357  -19.6537 H   0  0  0  0  0  0  0  0  0  0  0  0
  -12.3053  -42.1027  -17.0414 H   0  0  0  0  0  0  0  0  0  0  0  0
  -13.7564  -41.1386  -17.2305 H   0  0  0  0  0  0  0  0  0  0  0  0
  -13.6318  -42.8981  -21.3805 H   0  0  0  0  0  0  0  0  0  0  0  0
  -18.0036  -44.0497  -19.4581 H   0  0  0  0  0  0  0  0  0  0  0  0
  -13.2445  -38.1819  -13.6373 H   0  0  0  0  0  0  0  0  0  0  0  0
  -14.3374  -39.6857  -11.9933 H   0  0  0  0  0  0  0  0  0  0  0  0
  -16.1723  -41.1836  -12.7342 H   0  0  0  0  0  0  0  0  0  0  0  0
  -15.9862  -39.4789  -16.6771 H   0  0  0  0  0  0  0  0  0  0  0  0
  -17.4795  -46.7858  -20.7535 H   0  0  0  0  0  0  0  0  0  0  0  0
  -18.8872  -47.9353  -22.6730 H   0  0  0  0  0  0  0  0  0  0  0  0
  -14.5324  -44.6453  -16.9198 H   0  0  0  0  0  0  0  0  0  0  0  0
  -12.8885  -44.4773  -16.3090 H   0  0  0  0  0  0  0  0  0  0  0  0
  -15.2995  -44.6585  -14.5882 H   0  0  0  0  0  0  0  0  0  0  0  0
  -14.2310  -46.0508  -14.9553 H   0  0  0  0  0  0  0  0  0  0  0  0
  -14.5741  -42.9477  -13.2337 H   0  0  0  0  0  0  0  0  0  0  0  0
  -12.8821  -42.9093  -12.7429 H   0  0  0  0  0  0  0  0  0  0  0  0
  -12.0950  -42.6821  -15.0220 H   0  0  0  0  0  0  0  0  0  0  0  0
  -13.1998  -41.3646  -14.6786 H   0  0  0  0  0  0  0  0  0  0  0  0
  6 16  1  0
  6  5  1  0
  5  4  3  0
 14 15  1  0
  9  8  1  0
  9 10  1  0
  8  7  2  0
  2 10  2  0
 11 10  2  0
  1 13  1  0
 12  3  1  0
  1 17  1  1
 18  1  1  0
 19 24  2  0
 19 14  1  0
 19 20  1  0
 20 21  2  0
 21 22  1  0
 21  1  1  0
 22 23  2  0
 22  8  1  0
 23 24  1  0
 24 35  1  0
 25 30  2  0
 25 26  1  0
 26 27  2  0
 27 28  1  0
 28 10  1  0
 28 29  2  0
 29 30  1  0
 30  3  1  0
 31 32  1  0
 31 35  2  0
 32 33  2  0
 33  4  1  0
 33 34  1  0
 34 35  1  0
 36 18  1  0
 36 41  1  0
 36 37  1  0
 37 38  1  0
 38 39  1  0
 39 40  1  0
 40 41  1  0
  6 42  1  0
  6 43  1  0
  9 44  1  0
 12 45  1  0
 12 46  1  0
 12 47  1  0
 13 48  1  0
 13 49  1  0
 13 50  1  0
 15 51  1  0
 15 52  1  0
 15 53  1  0
 16 54  1  0
 17 55  1  0
 18 56  1  0
 18 57  1  0
 20 58  1  0
 23 59  1  0
 25 60  1  0
 26 61  1  0
 27 62  1  0
 29 63  1  0
 31 64  1  0
 32 65  1  0
 37 66  1  0
 37 67  1  0
 38 68  1  0
 38 69  1  0
 40 70  1  0
 40 71  1  0
 41 72  1  0
 41 73  1  0
M  END
>  <smiles>  (476) 
[H]OC([H])([H])C#Cc1sc(-c2c([H])c(C(=O)N([H])S(=O)(=O)c3c([H])c([H])c([H])c(OC([H])([H])[H])c3[H])c([C@@](O[H])(C([H])([H])[H])C([H])([H])N3C([H])([H])C([H])([H])OC([H])([H])C3([H])[H])c([H])c2OC([H])([H])[H])c([H])c1[H]

>  <error>  (476) 


>  <∆∆G>  (476) 
-67.268776

>  <∆G_bound>  (476) 
160.287265

>  <∆G_unbound>  (476) 
227.556042

>  <comRMSD>  (476) 
1.209435

>  <N_constrained_atoms>  (476) 
41.0

>  <N_unconstrained_atoms>  (476) 
0.0

>  <runtime>  (476) 
19.858936

>  <regarded>  (476) 
['5i3p-a', 'z0052a']

>  <disregarded>  (476) 
[]

>  <LE>  (476) 
1.640702

>  <outcome>  (476) 
too moved

>  <percent_hybrid>  (476) 
20.0

$$$$
LIG
     RDKit          3D

  0  0  0  0  0  0  0  0  0  0999 V3000
M  V30 BEGIN CTAB
M  V30 COUNTS 74 77 0 0 0
M  V30 BEGIN ATOM
M  V30 1 O -13.700000 -42.342999 -18.677000 0
M  V30 2 O -17.052999 -44.186001 -14.617000 0
M  V30 3 O -14.155000 -38.917000 -16.104000 0
M  V30 4 C -19.806000 -46.659000 -24.361000 0
M  V30 5 C -20.364000 -46.747002 -25.410000 0
M  V30 6 C -20.973000 -46.805000 -26.739000 0
M  V30 7 O -14.914000 -44.259998 -16.524000 0
M  V30 8 C -15.746000 -43.799000 -17.302000 0
M  V30 9 N -16.923000 -43.228001 -16.855000 0
M  V30 10 S -17.231001 -42.933998 -15.286000 0
M  V30 11 O -18.486000 -42.247002 -15.199000 0
M  V30 12 C -14.868000 -38.696999 -17.327000 0
M  V30 13 C -12.806000 -41.426998 -19.308001 0
M  V30 14 O -15.526000 -43.800999 -22.937000 0
M  V30 15 C -14.599000 -42.986000 -23.653000 0
M  V30 16 O -21.836000 -45.714001 -26.962999 0
M  V30 17 C -15.497000 -43.761002 -21.566999 0
M  V30 18 C -14.589000 -42.994999 -20.848000 0
M  V30 19 C -14.595000 -43.020000 -19.462999 0
M  V30 20 C -15.539000 -43.783001 -18.777000 0
M  V30 21 C -16.445000 -44.548000 -19.511000 0
M  V30 22 C -16.441999 -44.563000 -20.903999 0
M  V30 23 C -13.884000 -40.118999 -14.076000 0
M  V30 24 C -14.239000 -41.174999 -13.243000 0
M  V30 25 C -15.271000 -42.042999 -13.593000 0
M  V30 26 C -15.959000 -41.827000 -14.779000 0
M  V30 27 C -15.624000 -40.765999 -15.609000 0
M  V30 28 C -14.576000 -39.925999 -15.266000 0
M  V30 29 C -17.962000 -46.611000 -21.172001 0
M  V30 30 C -18.882000 -47.155998 -22.069000 0
M  V30 31 C -19.044001 -46.405998 -23.191000 0
M  V30 32 S -18.073000 -44.980999 -23.138000 0
M  V30 33 C -17.420000 -45.421001 -21.599001 0
M  V30 34 N -13.266000 -42.196999 -21.974001 0
M  V30 35 C -12.944000 -41.021999 -21.833000 0
M  V30 36 C -11.629000 -40.624001 -21.225000 0
M  V30 37 N -13.726000 -40.034000 -22.247999 0
M  V30 38 C -13.348000 -39.222000 -23.382000 0
M  V30 39 C -12.966000 -37.907001 -22.924999 0
M  V30 40 N -11.741000 -37.458000 -22.879000 0
M  V30 41 C -11.837000 -36.210999 -22.299000 0
M  V30 42 C -13.101000 -35.942001 -22.018000 0
M  V30 43 N -13.818000 -37.035000 -22.421000 0
M  V30 44 N -13.932500 -42.591499 -22.813499 0
M  V30 45 H -21.547783 -47.738682 -26.827669 0
M  V30 46 H -20.168194 -46.765987 -27.487844 0
M  V30 47 H -17.640112 -42.976452 -17.550251 0
M  V30 48 H -15.896447 -38.379665 -17.099855 0
M  V30 49 H -14.362690 -37.912987 -17.910084 0
M  V30 50 H -14.892308 -39.629425 -17.910084 0
M  V30 51 H -12.256001 -40.863464 -18.539930 0
M  V30 52 H -12.093684 -41.983047 -19.935230 0
M  V30 53 H -13.379197 -40.728409 -19.935230 0
M  V30 54 H -14.021113 -43.579323 -24.376888 0
M  V30 55 H -15.073967 -42.194660 -24.251488 0
M  V30 56 H -22.130182 -45.342098 -26.093950 0
M  V30 57 H -13.861361 -42.365238 -21.380865 0
M  V30 58 H -17.185162 -45.158680 -18.973198 0
M  V30 59 H -13.063022 -39.442741 -13.795520 0
M  V30 60 H -13.698606 -41.326469 -12.296939 0
M  V30 61 H -15.536602 -42.886848 -12.939261 0
M  V30 62 H -16.188845 -40.592186 -16.536760 0
M  V30 63 H -17.696196 -47.086807 -20.216515 0
M  V30 64 H -19.421354 -48.097153 -21.886450 0
M  V30 65 H -11.709771 -40.648445 -20.128242 0
M  V30 66 H -10.847049 -41.325714 -21.550806 0
M  V30 67 H -11.367404 -39.606445 -21.550806 0
M  V30 68 H -14.611291 -39.843807 -21.757097 0
M  V30 69 H -12.499456 -39.690483 -23.902094 0
M  V30 70 H -14.199591 -39.137444 -24.073118 0
M  V30 71 H -10.988646 -35.539764 -22.099646 0
M  V30 72 H -13.495500 -35.025738 -21.554501 0
M  V30 73 H -12.712500 -41.371498 -21.593500 0
M  V30 74 H -14.838100 -37.155346 -22.344767 0
M  V30 END ATOM
M  V30 BEGIN BOND
M  V30 1 1 6 16
M  V30 2 1 6 5
M  V30 3 3 5 4
M  V30 4 1 14 15
M  V30 5 1 9 8
M  V30 6 1 9 10
M  V30 7 2 8 7
M  V30 8 2 2 10
M  V30 9 2 11 10
M  V30 10 1 1 13
M  V30 11 1 12 3
M  V30 12 1 17 22
M  V30 13 1 17 14
M  V30 14 2 17 18
M  V30 15 1 18 19
M  V30 16 2 19 20
M  V30 17 1 19 1
M  V30 18 1 20 21
M  V30 19 1 20 8
M  V30 20 2 21 22
M  V30 21 1 22 33
M  V30 22 2 23 28
M  V30 23 1 23 24
M  V30 24 2 24 25
M  V30 25 1 25 26
M  V30 26 1 26 10
M  V30 27 2 26 27
M  V30 28 1 27 28
M  V30 29 1 28 3
M  V30 30 1 29 30
M  V30 31 2 29 33
M  V30 32 2 30 31
M  V30 33 1 31 4
M  V30 34 1 31 32
M  V30 35 1 32 33
M  V30 36 1 36 35
M  V30 37 2 35 34
M  V30 38 1 37 35
M  V30 39 1 38 37
M  V30 40 1 39 38
M  V30 41 2 39 40
M  V30 42 1 39 43
M  V30 43 1 40 41
M  V30 44 2 41 42
M  V30 45 1 42 43
M  V30 46 1 44 15
M  V30 47 1 44 34
M  V30 48 1 6 45
M  V30 49 1 6 46
M  V30 50 1 9 47
M  V30 51 1 12 48
M  V30 52 1 12 49
M  V30 53 1 12 50
M  V30 54 1 13 51
M  V30 55 1 13 52
M  V30 56 1 13 53
M  V30 57 1 15 54
M  V30 58 1 15 55
M  V30 59 1 16 56
M  V30 60 1 18 57
M  V30 61 1 21 58
M  V30 62 1 23 59
M  V30 63 1 24 60
M  V30 64 1 25 61
M  V30 65 1 27 62
M  V30 66 1 29 63
M  V30 67 1 30 64
M  V30 68 1 36 65
M  V30 69 1 36 66
M  V30 70 1 36 67
M  V30 71 1 37 68
M  V30 72 1 38 69
M  V30 73 1 38 70
M  V30 74 1 41 71
M  V30 75 1 42 72
M  V30 76 1 44 73
M  V30 77 1 43 74
M  V30 END BOND
M  V30 BEGIN COLLECTION
M  V30 MDLV30/STEABS ATOMS=(0)
M  V30 END COLLECTION
M  V30 END CTAB
M  END
>  <smiles>  (477) 
[H]OC([H])([H])C#Cc1sc(-c2c([H])c(C(=O)N([H])S(=O)(=O)c3c([H])c([H])c([H])c(OC([H])([H])[H])c3[H])c(OC([H])([H])[H])c([H])c2OC([H])([H])N([H])/N=C(\N([H])C([H])([H])c2nc([H])c([H])[nH]2)C([H])([H])[H])c([H])c1[H]

>  <error>  (477) 


>  <∆∆G>  (477) 
nan

>  <∆G_bound>  (477) 
nan

>  <∆G_unbound>  (477) 
nan

>  <comRMSD>  (477) 
0.0

>  <N_constrained_atoms>  (477) 
43.0

>  <N_unconstrained_atoms>  (477) 
1.0

>  <runtime>  (477) 
2.369362

>  <regarded>  (477) 
['5i3p-a', 'z0103a']

>  <disregarded>  (477) 
[]

>  <LE>  (477) 
nan

>  <outcome>  (477) 
crashed

>  <percent_hybrid>  (477) 
24.0

$$$$

     RDKit          2D

  0  0  0  0  0  0  0  0  0  0999 V2000
M  END
>  <smiles>  (478) 
nan

>  <error>  (478) 
DistanceError 5.52 Å

>  <∆∆G>  (478) 
nan

>  <∆G_bound>  (478) 
nan

>  <∆G_unbound>  (478) 
nan

>  <comRMSD>  (478) 
nan

>  <N_constrained_atoms>  (478) 
nan

>  <N_unconstrained_atoms>  (478) 
nan

>  <runtime>  (478) 
nan

>  <regarded>  (478) 
[]

>  <disregarded>  (478) 
[]

>  <LE>  (478) 
nan

>  <outcome>  (478) 
too distant

>  <percent_hybrid>  (478) 
nan

$$$$

     RDKit          2D

  0  0  0  0  0  0  0  0  0  0999 V2000
M  END
>  <smiles>  (479) 
nan

>  <error>  (479) 
RecursionError maximum recursion depth exceeded while calling a Python object

>  <∆∆G>  (479) 
nan

>  <∆G_bound>  (479) 
nan

>  <∆G_unbound>  (479) 
nan

>  <comRMSD>  (479) 
nan

>  <N_constrained_atoms>  (479) 
nan

>  <N_unconstrained_atoms>  (479) 
nan

>  <runtime>  (479) 
nan

>  <regarded>  (479) 
[]

>  <disregarded>  (479) 
[]

>  <LE>  (479) 
nan

>  <outcome>  (479) 
crashed

>  <percent_hybrid>  (479) 
nan

$$$$
LIG
     RDKit          3D

 66 69  0  0  0  0  0  0  0  0999 V2000
  -13.7096  -42.6301  -18.5646 O   0  0  0  0  0  0  0  0  0  0  0  0
  -16.8460  -42.9906  -13.9831 O   0  0  0  0  0  0  0  0  0  0  0  0
  -13.9874  -38.0174  -16.2667 O   0  0  0  0  0  0  0  0  0  0  0  0
  -19.5352  -46.2518  -24.6377 C   0  0  0  0  0  0  0  0  0  0  0  0
  -20.1466  -46.4364  -25.6543 C   0  0  0  0  0  0  0  0  0  0  0  0
  -20.8894  -46.6689  -26.8856 C   0  0  0  0  0  0  0  0  0  0  0  0
  -15.0838  -44.1524  -16.5855 O   0  0  0  0  0  0  0  0  0  0  0  0
  -15.8754  -43.4627  -17.0999 C   0  0  0  0  0  0  0  0  0  0  0  0
  -16.8775  -42.4413  -16.4823 N   0  0  0  0  0  0  0  0  0  0  0  0
  -17.0628  -41.9331  -14.9286 S   0  0  0  0  0  0  0  0  0  0  0  0
  -18.2361  -41.0878  -14.9116 O   0  0  0  0  0  0  0  0  0  0  0  0
  -14.8750  -37.7384  -17.3415 C   0  0  0  0  0  0  0  0  0  0  0  0
  -13.5617  -41.2469  -18.2953 C   0  0  0  0  0  0  0  0  0  0  0  0
  -15.7135  -43.9140  -22.7287 O   0  0  0  0  0  0  0  0  0  0  0  0
  -15.7150  -42.7677  -23.5795 C   0  0  0  0  0  0  0  0  0  0  0  0
  -21.9803  -45.7632  -26.9852 O   0  0  0  0  0  0  0  0  0  0  0  0
  -15.8426  -43.6131  -21.3855 C   0  0  0  0  0  0  0  0  0  0  0  0
  -14.7636  -43.0735  -20.6821 C   0  0  0  0  0  0  0  0  0  0  0  0
  -14.8482  -42.9293  -19.2769 C   0  0  0  0  0  0  0  0  0  0  0  0
  -15.9636  -43.4037  -18.5830 C   0  0  0  0  0  0  0  0  0  0  0  0
  -17.0103  -44.0243  -19.2791 C   0  0  0  0  0  0  0  0  0  0  0  0
  -16.9388  -44.1484  -20.6809 C   0  0  0  0  0  0  0  0  0  0  0  0
  -13.3721  -39.3733  -14.4724 C   0  0  0  0  0  0  0  0  0  0  0  0
  -13.5555  -40.4578  -13.6170 C   0  0  0  0  0  0  0  0  0  0  0  0
  -14.6961  -41.2353  -13.7455 C   0  0  0  0  0  0  0  0  0  0  0  0
  -15.6538  -40.8973  -14.7108 C   0  0  0  0  0  0  0  0  0  0  0  0
  -15.5006  -39.7904  -15.5361 C   0  0  0  0  0  0  0  0  0  0  0  0
  -14.3298  -39.0494  -15.4415 C   0  0  0  0  0  0  0  0  0  0  0  0
  -17.9687  -46.4046  -21.2901 C   0  0  0  0  0  0  0  0  0  0  0  0
  -18.5936  -46.9675  -22.4390 C   0  0  0  0  0  0  0  0  0  0  0  0
  -18.9309  -46.0070  -23.3695 C   0  0  0  0  0  0  0  0  0  0  0  0
  -18.7250  -44.4361  -22.7499 S   0  0  0  0  0  0  0  0  0  0  0  0
  -17.8357  -45.0368  -21.4147 C   0  0  0  0  0  0  0  0  0  0  0  0
  -12.6887  -44.1439  -20.6719 N   0  0  0  0  0  0  0  0  0  0  0  0
  -13.4262  -43.1115  -21.3629 C   0  0  0  0  0  0  0  0  0  0  0  0
  -12.8509  -41.7174  -21.3333 C   0  0  0  0  0  0  0  0  0  0  0  0
  -13.3705  -40.5629  -21.9001 C   0  0  0  0  0  0  0  0  0  0  0  0
  -12.4680  -39.5726  -21.6332 N   0  0  0  0  0  0  0  0  0  0  0  0
  -11.4438  -40.1300  -20.9297 C   0  0  0  0  0  0  0  0  0  0  0  0
  -11.6265  -41.4185  -20.7619 N   0  0  0  0  0  0  0  0  0  0  0  0
  -21.2574  -47.6950  -26.9677 H   0  0  0  0  0  0  0  0  0  0  0  0
  -20.2287  -46.4642  -27.7241 H   0  0  0  0  0  0  0  0  0  0  0  0
  -17.4787  -42.0726  -17.2112 H   0  0  0  0  0  0  0  0  0  0  0  0
  -15.8409  -37.3802  -16.9700 H   0  0  0  0  0  0  0  0  0  0  0  0
  -14.4326  -36.9342  -17.9375 H   0  0  0  0  0  0  0  0  0  0  0  0
  -15.0007  -38.6038  -17.9988 H   0  0  0  0  0  0  0  0  0  0  0  0
  -12.4974  -41.0011  -18.2726 H   0  0  0  0  0  0  0  0  0  0  0  0
  -14.0773  -40.6014  -19.0122 H   0  0  0  0  0  0  0  0  0  0  0  0
  -13.9558  -41.0605  -17.2999 H   0  0  0  0  0  0  0  0  0  0  0  0
  -16.1674  -41.8890  -23.1062 H   0  0  0  0  0  0  0  0  0  0  0  0
  -14.7021  -42.5373  -23.9181 H   0  0  0  0  0  0  0  0  0  0  0  0
  -16.3045  -43.0124  -24.4688 H   0  0  0  0  0  0  0  0  0  0  0  0
  -22.7476  -46.2147  -26.5696 H   0  0  0  0  0  0  0  0  0  0  0  0
  -17.8255  -44.4943  -18.7346 H   0  0  0  0  0  0  0  0  0  0  0  0
  -12.4624  -38.7814  -14.3978 H   0  0  0  0  0  0  0  0  0  0  0  0
  -12.8005  -40.7069  -12.8762 H   0  0  0  0  0  0  0  0  0  0  0  0
  -14.8236  -42.1041  -13.1030 H   0  0  0  0  0  0  0  0  0  0  0  0
  -16.2773  -39.5580  -16.2550 H   0  0  0  0  0  0  0  0  0  0  0  0
  -17.5210  -46.9928  -20.4981 H   0  0  0  0  0  0  0  0  0  0  0  0
  -18.7398  -48.0296  -22.5913 H   0  0  0  0  0  0  0  0  0  0  0  0
  -14.2781  -40.3712  -22.4529 H   0  0  0  0  0  0  0  0  0  0  0  0
  -10.5943  -39.5596  -20.5766 H   0  0  0  0  0  0  0  0  0  0  0  0
  -12.2305  -43.6812  -19.8851 H   0  0  0  0  0  0  0  0  0  0  0  0
  -11.9295  -44.4265  -21.3098 H   0  0  0  0  0  0  0  0  0  0  0  0
  -13.4770  -43.4206  -22.4072 H   0  0  0  0  0  0  0  0  0  0  0  0
  -12.5432  -38.5990  -21.8934 H   0  0  0  0  0  0  0  0  0  0  0  0
  6 16  1  0
  6  5  1  0
  5  4  3  0
 14 15  1  0
  9  8  1  0
  9 10  1  0
  8  7  2  0
  2 10  2  0
 11 10  2  0
  1 13  1  0
 12  3  1  0
 17 22  2  0
 17 14  1  0
 17 18  1  0
 18 19  2  0
 19 20  1  0
 19  1  1  0
 20 21  2  0
 20  8  1  0
 21 22  1  0
 22 33  1  0
 23 28  2  0
 23 24  1  0
 24 25  2  0
 25 26  1  0
 26 10  1  0
 26 27  2  0
 27 28  1  0
 28  3  1  0
 29 30  1  0
 29 33  2  0
 30 31  2  0
 31  4  1  0
 31 32  1  0
 32 33  1  0
 35 34  1  0
 36 35  1  0
 36 37  2  0
 36 40  1  0
 37 38  1  0
 38 39  1  0
 39 40  2  0
 18 35  1  0
  6 41  1  0
  6 42  1  0
  9 43  1  0
 12 44  1  0
 12 45  1  0
 12 46  1  0
 13 47  1  0
 13 48  1  0
 13 49  1  0
 15 50  1  0
 15 51  1  0
 15 52  1  0
 16 53  1  0
 21 54  1  0
 23 55  1  0
 24 56  1  0
 25 57  1  0
 27 58  1  0
 29 59  1  0
 30 60  1  0
 37 61  1  0
 39 62  1  0
 34 63  1  0
 34 64  1  0
 35 65  1  0
 38 66  1  0
M  END
>  <smiles>  (480) 
[H]OC([H])([H])C#Cc1sc(-c2c([H])c(C(=O)N([H])S(=O)(=O)c3c([H])c([H])c([H])c(OC([H])([H])[H])c3[H])c(OC([H])([H])[H])c(C(N)c3nc([H])[nH]c3[H])c2OC([H])([H])[H])c([H])c1[H]

>  <error>  (480) 


>  <∆∆G>  (480) 
-65.343217

>  <∆G_bound>  (480) 
9.501276

>  <∆G_unbound>  (480) 
74.844493

>  <comRMSD>  (480) 
0.757949

>  <N_constrained_atoms>  (480) 
40.0

>  <N_unconstrained_atoms>  (480) 
0.0

>  <runtime>  (480) 
8.247609

>  <regarded>  (480) 
['5i3p-a', 'z0875c']

>  <disregarded>  (480) 
[]

>  <LE>  (480) 
1.63358

>  <outcome>  (480) 
acceptable

>  <percent_hybrid>  (480) 
18.0

$$$$
LIG
     RDKit          3D

 61 63  0  0  0  0  0  0  0  0999 V2000
  -13.7974  -41.8358  -18.6783 O   0  0  0  0  0  0  0  0  0  0  0  0
  -16.0603  -43.4520  -14.1342 O   0  0  0  0  0  0  0  0  0  0  0  0
  -13.8734  -38.2061  -16.4502 O   0  0  0  0  0  0  0  0  0  0  0  0
  -19.4942  -46.2292  -24.5719 C   0  0  0  0  0  0  0  0  0  0  0  0
  -20.1317  -46.3957  -25.5774 C   0  0  0  0  0  0  0  0  0  0  0  0
  -20.8807  -46.6373  -26.8086 C   0  0  0  0  0  0  0  0  0  0  0  0
  -14.3647  -44.2490  -16.8077 O   0  0  0  0  0  0  0  0  0  0  0  0
  -15.2716  -43.6575  -17.2545 C   0  0  0  0  0  0  0  0  0  0  0  0
  -16.3687  -42.8052  -16.5469 N   0  0  0  0  0  0  0  0  0  0  0  0
  -16.5360  -42.3803  -14.9710 S   0  0  0  0  0  0  0  0  0  0  0  0
  -17.8223  -41.7354  -14.8263 O   0  0  0  0  0  0  0  0  0  0  0  0
  -14.6185  -38.1970  -17.6627 C   0  0  0  0  0  0  0  0  0  0  0  0
  -12.4408  -42.2511  -18.5200 C   0  0  0  0  0  0  0  0  0  0  0  0
  -15.1839  -43.8281  -22.8484 O   0  0  0  0  0  0  0  0  0  0  0  0
  -15.5046  -42.7568  -23.7327 C   0  0  0  0  0  0  0  0  0  0  0  0
  -21.9714  -45.7326  -26.9108 O   0  0  0  0  0  0  0  0  0  0  0  0
  -12.6527  -39.5938  -21.5335 O   0  0  0  0  0  0  0  0  0  0  0  0
  -14.7846  -39.7789  -20.8992 O   0  0  0  0  0  0  0  0  0  0  0  0
  -13.7519  -40.3264  -21.2511 C   0  0  0  0  0  0  0  0  0  0  0  0
  -13.5190  -41.7973  -21.4927 C   0  0  0  0  0  0  0  0  0  0  0  0
  -17.2177  -45.1311  -18.6688 O   0  0  0  0  0  0  0  0  0  0  0  0
  -15.3714  -43.5786  -21.5049 C   0  0  0  0  0  0  0  0  0  0  0  0
  -14.5088  -42.7066  -20.8060 C   0  0  0  0  0  0  0  0  0  0  0  0
  -14.5459  -42.7291  -19.4035 C   0  0  0  0  0  0  0  0  0  0  0  0
  -15.4282  -43.5697  -18.7171 C   0  0  0  0  0  0  0  0  0  0  0  0
  -16.3373  -44.3744  -19.4081 C   0  0  0  0  0  0  0  0  0  0  0  0
  -16.3287  -44.3856  -20.8187 C   0  0  0  0  0  0  0  0  0  0  0  0
  -13.3515  -39.2362  -14.4234 C   0  0  0  0  0  0  0  0  0  0  0  0
  -13.5271  -40.2109  -13.4426 C   0  0  0  0  0  0  0  0  0  0  0  0
  -14.5174  -41.1658  -13.6076 C   0  0  0  0  0  0  0  0  0  0  0  0
  -15.3244  -41.1252  -14.7508 C   0  0  0  0  0  0  0  0  0  0  0  0
  -15.1655  -40.1486  -15.7269 C   0  0  0  0  0  0  0  0  0  0  0  0
  -14.1619  -39.2045  -15.5653 C   0  0  0  0  0  0  0  0  0  0  0  0
  -17.5625  -46.5777  -21.4369 C   0  0  0  0  0  0  0  0  0  0  0  0
  -18.4654  -47.0372  -22.4425 C   0  0  0  0  0  0  0  0  0  0  0  0
  -18.7756  -46.0474  -23.3494 C   0  0  0  0  0  0  0  0  0  0  0  0
  -18.2579  -44.5280  -22.7953 S   0  0  0  0  0  0  0  0  0  0  0  0
  -17.2708  -45.2329  -21.5746 C   0  0  0  0  0  0  0  0  0  0  0  0
  -21.2494  -47.6642  -26.8810 H   0  0  0  0  0  0  0  0  0  0  0  0
  -20.2270  -46.4484  -27.6575 H   0  0  0  0  0  0  0  0  0  0  0  0
  -16.9577  -42.3630  -17.2450 H   0  0  0  0  0  0  0  0  0  0  0  0
  -15.6796  -38.0049  -17.4729 H   0  0  0  0  0  0  0  0  0  0  0  0
  -14.2390  -37.3771  -18.2802 H   0  0  0  0  0  0  0  0  0  0  0  0
  -14.4746  -39.1256  -18.2228 H   0  0  0  0  0  0  0  0  0  0  0  0
  -12.1964  -42.2111  -17.4541 H   0  0  0  0  0  0  0  0  0  0  0  0
  -12.2557  -43.2701  -18.8766 H   0  0  0  0  0  0  0  0  0  0  0  0
  -11.7870  -41.5476  -19.0426 H   0  0  0  0  0  0  0  0  0  0  0  0
  -15.9360  -41.8868  -23.2256 H   0  0  0  0  0  0  0  0  0  0  0  0
  -14.6099  -42.4648  -24.2900 H   0  0  0  0  0  0  0  0  0  0  0  0
  -16.2246  -43.1199  -24.4720 H   0  0  0  0  0  0  0  0  0  0  0  0
  -22.7475  -46.1951  -26.5253 H   0  0  0  0  0  0  0  0  0  0  0  0
  -12.8989  -38.6715  -21.3133 H   0  0  0  0  0  0  0  0  0  0  0  0
  -13.5523  -41.9206  -22.5670 H   0  0  0  0  0  0  0  0  0  0  0  0
  -12.5057  -42.0689  -21.1818 H   0  0  0  0  0  0  0  0  0  0  0  0
  -17.9528  -45.4148  -19.2438 H   0  0  0  0  0  0  0  0  0  0  0  0
  -12.5704  -38.4888  -14.3021 H   0  0  0  0  0  0  0  0  0  0  0  0
  -12.8893  -40.2247  -12.5632 H   0  0  0  0  0  0  0  0  0  0  0  0
  -14.6521  -41.9359  -12.8512 H   0  0  0  0  0  0  0  0  0  0  0  0
  -15.8206  -40.1453  -16.5890 H   0  0  0  0  0  0  0  0  0  0  0  0
  -17.1043  -47.2291  -20.7005 H   0  0  0  0  0  0  0  0  0  0  0  0
  -18.7820  -48.0681  -22.5473 H   0  0  0  0  0  0  0  0  0  0  0  0
  6 16  1  0
  6  5  1  0
  5  4  3  0
 14 15  1  0
  9  8  1  0
  9 10  1  0
  8  7  2  0
  2 10  2  0
 11 10  2  0
  1 13  1  0
 12  3  1  0
 20 19  1  0
 18 19  2  0
 19 17  1  0
 22 27  2  0
 22 14  1  0
 22 23  1  0
 23 24  2  0
 24 25  1  0
 24  1  1  0
 25 26  2  0
 25  8  1  0
 26 27  1  0
 27 38  1  0
 28 33  2  0
 28 29  1  0
 29 30  2  0
 30 31  1  0
 31 10  1  0
 31 32  2  0
 32 33  1  0
 33  3  1  0
 34 35  1  0
 34 38  2  0
 35 36  2  0
 36  4  1  0
 36 37  1  0
 37 38  1  0
 20 23  1  0
 21 26  1  0
  6 39  1  0
  6 40  1  0
  9 41  1  0
 12 42  1  0
 12 43  1  0
 12 44  1  0
 13 45  1  0
 13 46  1  0
 13 47  1  0
 15 48  1  0
 15 49  1  0
 15 50  1  0
 16 51  1  0
 17 52  1  0
 20 53  1  0
 20 54  1  0
 21 55  1  0
 28 56  1  0
 29 57  1  0
 30 58  1  0
 32 59  1  0
 34 60  1  0
 35 61  1  0
M  END
>  <smiles>  (481) 
[H]OC(=O)C([H])([H])c1c(OC([H])([H])[H])c(C(=O)N([H])S(=O)(=O)c2c([H])c([H])c([H])c(OC([H])([H])[H])c2[H])c(O[H])c(-c2sc(C#CC([H])([H])O[H])c([H])c2[H])c1OC([H])([H])[H]

>  <error>  (481) 


>  <∆∆G>  (481) 
-105.713099

>  <∆G_bound>  (481) 
-12.368489

>  <∆G_unbound>  (481) 
93.34461

>  <comRMSD>  (481) 
0.700811

>  <N_constrained_atoms>  (481) 
38.0

>  <N_unconstrained_atoms>  (481) 
0.0

>  <runtime>  (481) 
3.534143

>  <regarded>  (481) 
['5i3p-a', '5hn0-a']

>  <disregarded>  (481) 
[]

>  <LE>  (481) 
2.781924

>  <outcome>  (481) 
acceptable

>  <percent_hybrid>  (481) 
14.0

$$$$
LIG
     RDKit          3D

 55 57  0  0  0  0  0  0  0  0999 V2000
  -13.3632  -42.2993  -18.9430 O   0  0  0  0  0  0  0  0  0  0  0  0
  -16.5558  -43.1865  -14.3874 O   0  0  0  0  0  0  0  0  0  0  0  0
  -13.9304  -37.8028  -15.7147 O   0  0  0  0  0  0  0  0  0  0  0  0
  -19.4945  -46.2811  -24.5758 C   0  0  0  0  0  0  0  0  0  0  0  0
  -20.1243  -46.4282  -25.5889 C   0  0  0  0  0  0  0  0  0  0  0  0
  -20.8725  -46.6494  -26.8235 C   0  0  0  0  0  0  0  0  0  0  0  0
  -14.1111  -43.9865  -16.8032 O   0  0  0  0  0  0  0  0  0  0  0  0
  -15.0387  -43.6027  -17.4201 C   0  0  0  0  0  0  0  0  0  0  0  0
  -16.2193  -42.7447  -16.9909 N   0  0  0  0  0  0  0  0  0  0  0  0
  -16.6956  -42.0946  -15.3191 S   0  0  0  0  0  0  0  0  0  0  0  0
  -17.9219  -41.3265  -15.4214 O   0  0  0  0  0  0  0  0  0  0  0  0
  -14.5400  -37.6940  -17.0025 C   0  0  0  0  0  0  0  0  0  0  0  0
  -12.3619  -41.6001  -19.6713 C   0  0  0  0  0  0  0  0  0  0  0  0
  -15.3284  -44.1297  -23.0045 O   0  0  0  0  0  0  0  0  0  0  0  0
  -14.5033  -43.3418  -23.8438 C   0  0  0  0  0  0  0  0  0  0  0  0
  -21.9613  -45.7409  -26.9159 O   0  0  0  0  0  0  0  0  0  0  0  0
  -15.9360  -41.2958  -17.1898 O   0  0  0  0  0  0  0  0  0  0  0  0
  -15.2331  -43.9782  -21.6458 C   0  0  0  0  0  0  0  0  0  0  0  0
  -14.2169  -43.2523  -21.0257 C   0  0  0  0  0  0  0  0  0  0  0  0
  -14.1983  -43.1378  -19.6413 C   0  0  0  0  0  0  0  0  0  0  0  0
  -15.1466  -43.8436  -18.8723 C   0  0  0  0  0  0  0  0  0  0  0  0
  -16.1777  -44.5655  -19.4711 C   0  0  0  0  0  0  0  0  0  0  0  0
  -16.2368  -44.6202  -20.8722 C   0  0  0  0  0  0  0  0  0  0  0  0
  -13.1782  -39.4502  -14.2172 C   0  0  0  0  0  0  0  0  0  0  0  0
  -13.2840  -40.7112  -13.6292 C   0  0  0  0  0  0  0  0  0  0  0  0
  -14.3707  -41.5187  -13.9380 C   0  0  0  0  0  0  0  0  0  0  0  0
  -15.3755  -41.0165  -14.7724 C   0  0  0  0  0  0  0  0  0  0  0  0
  -15.3442  -39.7047  -15.2328 C   0  0  0  0  0  0  0  0  0  0  0  0
  -14.1830  -38.9743  -15.0618 C   0  0  0  0  0  0  0  0  0  0  0  0
  -17.7149  -46.6752  -21.3505 C   0  0  0  0  0  0  0  0  0  0  0  0
  -18.5774  -47.1102  -22.4011 C   0  0  0  0  0  0  0  0  0  0  0  0
  -18.8034  -46.1203  -23.3348 C   0  0  0  0  0  0  0  0  0  0  0  0
  -18.2359  -44.6177  -22.7817 S   0  0  0  0  0  0  0  0  0  0  0  0
  -17.3082  -45.3697  -21.5391 C   0  0  0  0  0  0  0  0  0  0  0  0
  -21.2446  -47.6740  -26.9093 H   0  0  0  0  0  0  0  0  0  0  0  0
  -20.2171  -46.4504  -27.6685 H   0  0  0  0  0  0  0  0  0  0  0  0
  -15.6013  -37.4433  -16.9094 H   0  0  0  0  0  0  0  0  0  0  0  0
  -14.0514  -36.8683  -17.5292 H   0  0  0  0  0  0  0  0  0  0  0  0
  -14.3956  -38.6004  -17.6011 H   0  0  0  0  0  0  0  0  0  0  0  0
  -11.7476  -41.0498  -18.9524 H   0  0  0  0  0  0  0  0  0  0  0  0
  -11.7083  -42.2876  -20.2137 H   0  0  0  0  0  0  0  0  0  0  0  0
  -12.8144  -40.8714  -20.3517 H   0  0  0  0  0  0  0  0  0  0  0  0
  -14.5033  -42.2855  -23.5568 H   0  0  0  0  0  0  0  0  0  0  0  0
  -13.4959  -43.7624  -23.8645 H   0  0  0  0  0  0  0  0  0  0  0  0
  -14.9150  -43.4001  -24.8544 H   0  0  0  0  0  0  0  0  0  0  0  0
  -22.7321  -46.1966  -26.5127 H   0  0  0  0  0  0  0  0  0  0  0  0
  -15.0652  -41.2540  -17.6380 H   0  0  0  0  0  0  0  0  0  0  0  0
  -13.4492  -42.7795  -21.6245 H   0  0  0  0  0  0  0  0  0  0  0  0
  -16.9399  -45.0446  -18.8645 H   0  0  0  0  0  0  0  0  0  0  0  0
  -12.2908  -38.8465  -14.0424 H   0  0  0  0  0  0  0  0  0  0  0  0
  -12.4925  -41.0806  -12.9823 H   0  0  0  0  0  0  0  0  0  0  0  0
  -14.4130  -42.5329  -13.5473 H   0  0  0  0  0  0  0  0  0  0  0  0
  -16.1807  -39.3143  -15.8044 H   0  0  0  0  0  0  0  0  0  0  0  0
  -17.3234  -47.3326  -20.5840 H   0  0  0  0  0  0  0  0  0  0  0  0
  -18.9410  -48.1251  -22.5036 H   0  0  0  0  0  0  0  0  0  0  0  0
  6 16  1  0
  6  5  1  0
  5  4  3  0
 14 15  1  0
  9  8  1  0
  9 10  1  0
  8  7  2  0
  2 10  2  0
 11 10  2  0
  1 13  1  0
 12  3  1  0
 17  9  1  0
 18 23  2  0
 18 14  1  0
 18 19  1  0
 19 20  2  0
 20 21  1  0
 20  1  1  0
 21 22  2  0
 21  8  1  0
 22 23  1  0
 23 34  1  0
 24 29  2  0
 24 25  1  0
 25 26  2  0
 26 27  1  0
 27 10  1  0
 27 28  2  0
 28 29  1  0
 29  3  1  0
 30 31  1  0
 30 34  2  0
 31 32  2  0
 32  4  1  0
 32 33  1  0
 33 34  1  0
  6 35  1  0
  6 36  1  0
 12 37  1  0
 12 38  1  0
 12 39  1  0
 13 40  1  0
 13 41  1  0
 13 42  1  0
 15 43  1  0
 15 44  1  0
 15 45  1  0
 16 46  1  0
 17 47  1  0
 19 48  1  0
 22 49  1  0
 24 50  1  0
 25 51  1  0
 26 52  1  0
 28 53  1  0
 30 54  1  0
 31 55  1  0
M  END
>  <smiles>  (482) 
[H]ON(C(=O)c1c([H])c(-c2sc(C#CC([H])([H])O[H])c([H])c2[H])c(OC([H])([H])[H])c([H])c1OC([H])([H])[H])S(=O)(=O)c1c([H])c([H])c([H])c(OC([H])([H])[H])c1[H]

>  <error>  (482) 


>  <∆∆G>  (482) 
-35.974761

>  <∆G_bound>  (482) 
132.847488

>  <∆G_unbound>  (482) 
168.822249

>  <comRMSD>  (482) 
0.768948

>  <N_constrained_atoms>  (482) 
34.0

>  <N_unconstrained_atoms>  (482) 
0.0

>  <runtime>  (482) 
1.841817

>  <regarded>  (482) 
['5i3p-a', '5f41-a']

>  <disregarded>  (482) 
[]

>  <LE>  (482) 
1.058081

>  <outcome>  (482) 
acceptable

>  <percent_hybrid>  (482) 
3.0

$$$$
LIG
     RDKit          3D

 54 56  0  0  0  0  0  0  0  0999 V2000
  -13.5327  -42.1078  -18.7394 O   0  0  0  0  0  0  0  0  0  0  0  0
  -15.9721  -43.5250  -14.2559 O   0  0  0  0  0  0  0  0  0  0  0  0
  -13.8502  -38.1805  -16.3953 O   0  0  0  0  0  0  0  0  0  0  0  0
  -19.4994  -46.2564  -24.5857 C   0  0  0  0  0  0  0  0  0  0  0  0
  -20.1299  -46.4248  -25.5949 C   0  0  0  0  0  0  0  0  0  0  0  0
  -20.8759  -46.6567  -26.8284 C   0  0  0  0  0  0  0  0  0  0  0  0
  -14.3685  -44.4380  -16.8674 O   0  0  0  0  0  0  0  0  0  0  0  0
  -15.1818  -43.7393  -17.3357 C   0  0  0  0  0  0  0  0  0  0  0  0
  -16.2298  -42.8095  -16.6515 N   0  0  0  0  0  0  0  0  0  0  0  0
  -16.4504  -42.4359  -15.0676 S   0  0  0  0  0  0  0  0  0  0  0  0
  -17.7567  -41.8278  -14.9470 O   0  0  0  0  0  0  0  0  0  0  0  0
  -14.6062  -38.1288  -17.5988 C   0  0  0  0  0  0  0  0  0  0  0  0
  -12.4067  -41.5431  -19.4013 C   0  0  0  0  0  0  0  0  0  0  0  0
  -15.5156  -43.6110  -22.9380 O   0  0  0  0  0  0  0  0  0  0  0  0
  -14.3796  -43.2532  -23.7007 C   0  0  0  0  0  0  0  0  0  0  0  0
  -21.9663  -45.7509  -26.9279 O   0  0  0  0  0  0  0  0  0  0  0  0
  -15.4128  -43.5861  -21.5718 C   0  0  0  0  0  0  0  0  0  0  0  0
  -14.4522  -42.8268  -20.8910 C   0  0  0  0  0  0  0  0  0  0  0  0
  -14.3975  -42.8466  -19.4989 C   0  0  0  0  0  0  0  0  0  0  0  0
  -15.3159  -43.6374  -18.8005 C   0  0  0  0  0  0  0  0  0  0  0  0
  -16.2906  -44.3942  -19.4603 C   0  0  0  0  0  0  0  0  0  0  0  0
  -16.3607  -44.3605  -20.8587 C   0  0  0  0  0  0  0  0  0  0  0  0
  -13.3661  -39.2277  -14.3664 C   0  0  0  0  0  0  0  0  0  0  0  0
  -13.5498  -40.2212  -13.4052 C   0  0  0  0  0  0  0  0  0  0  0  0
  -14.5115  -41.1967  -13.6140 C   0  0  0  0  0  0  0  0  0  0  0  0
  -15.2820  -41.1562  -14.7811 C   0  0  0  0  0  0  0  0  0  0  0  0
  -15.1181  -40.1595  -15.7363 C   0  0  0  0  0  0  0  0  0  0  0  0
  -14.1429  -39.1954  -15.5312 C   0  0  0  0  0  0  0  0  0  0  0  0
  -17.6867  -46.5150  -21.3666 C   0  0  0  0  0  0  0  0  0  0  0  0
  -18.5272  -47.0123  -22.4081 C   0  0  0  0  0  0  0  0  0  0  0  0
  -18.8053  -46.0491  -23.3540 C   0  0  0  0  0  0  0  0  0  0  0  0
  -18.2996  -44.5136  -22.8348 S   0  0  0  0  0  0  0  0  0  0  0  0
  -17.3549  -45.1871  -21.5623 C   0  0  0  0  0  0  0  0  0  0  0  0
  -21.2453  -47.6827  -26.9087 H   0  0  0  0  0  0  0  0  0  0  0  0
  -20.2191  -46.4601  -27.6728 H   0  0  0  0  0  0  0  0  0  0  0  0
  -16.8381  -42.4062  -17.3572 H   0  0  0  0  0  0  0  0  0  0  0  0
  -15.6690  -37.9641  -17.3928 H   0  0  0  0  0  0  0  0  0  0  0  0
  -14.2468  -37.2742  -18.1804 H   0  0  0  0  0  0  0  0  0  0  0  0
  -14.4513  -39.0281  -18.2045 H   0  0  0  0  0  0  0  0  0  0  0  0
  -11.7272  -41.1572  -18.6355 H   0  0  0  0  0  0  0  0  0  0  0  0
  -11.8650  -42.2929  -19.9857 H   0  0  0  0  0  0  0  0  0  0  0  0
  -12.7126  -40.7018  -20.0314 H   0  0  0  0  0  0  0  0  0  0  0  0
  -14.1991  -42.1762  -23.6424 H   0  0  0  0  0  0  0  0  0  0  0  0
  -13.5058  -43.8374  -23.3977 H   0  0  0  0  0  0  0  0  0  0  0  0
  -14.5976  -43.4902  -24.7437 H   0  0  0  0  0  0  0  0  0  0  0  0
  -22.7381  -46.2071  -26.5270 H   0  0  0  0  0  0  0  0  0  0  0  0
  -13.7550  -42.2178  -21.4529 H   0  0  0  0  0  0  0  0  0  0  0  0
  -16.9796  -45.0114  -18.8898 H   0  0  0  0  0  0  0  0  0  0  0  0
  -12.6053  -38.4660  -14.2099 H   0  0  0  0  0  0  0  0  0  0  0  0
  -12.9379  -40.2342  -12.5073 H   0  0  0  0  0  0  0  0  0  0  0  0
  -14.6506  -41.9831  -12.8754 H   0  0  0  0  0  0  0  0  0  0  0  0
  -15.7469  -40.1596  -16.6173 H   0  0  0  0  0  0  0  0  0  0  0  0
  -17.2709  -47.1391  -20.5849 H   0  0  0  0  0  0  0  0  0  0  0  0
  -18.8420  -48.0455  -22.4922 H   0  0  0  0  0  0  0  0  0  0  0  0
  6 16  1  0
  6  5  1  0
  5  4  3  0
 14 15  1  0
  9  8  1  0
  9 10  1  0
  8  7  2  0
  2 10  2  0
 11 10  2  0
  1 13  1  0
 12  3  1  0
 17 22  2  0
 17 14  1  0
 17 18  1  0
 18 19  2  0
 19 20  1  0
 19  1  1  0
 20 21  2  0
 20  8  1  0
 21 22  1  0
 22 33  1  0
 23 28  2  0
 23 24  1  0
 24 25  2  0
 25 26  1  0
 26 10  1  0
 26 27  2  0
 27 28  1  0
 28  3  1  0
 29 30  1  0
 29 33  2  0
 30 31  2  0
 31  4  1  0
 31 32  1  0
 32 33  1  0
  6 34  1  0
  6 35  1  0
  9 36  1  0
 12 37  1  0
 12 38  1  0
 12 39  1  0
 13 40  1  0
 13 41  1  0
 13 42  1  0
 15 43  1  0
 15 44  1  0
 15 45  1  0
 16 46  1  0
 18 47  1  0
 21 48  1  0
 23 49  1  0
 24 50  1  0
 25 51  1  0
 27 52  1  0
 29 53  1  0
 30 54  1  0
M  END
>  <smiles>  (483) 
[H]OC([H])([H])C#Cc1sc(-c2c([H])c(C(=O)N([H])S(=O)(=O)c3c([H])c([H])c([H])c(OC([H])([H])[H])c3[H])c(OC([H])([H])[H])c([H])c2OC([H])([H])[H])c([H])c1[H]

>  <error>  (483) 


>  <∆∆G>  (483) 
-292.523648

>  <∆G_bound>  (483) 
-39.021177

>  <∆G_unbound>  (483) 
253.502471

>  <comRMSD>  (483) 
0.664851

>  <N_constrained_atoms>  (483) 
33.0

>  <N_unconstrained_atoms>  (483) 
0.0

>  <runtime>  (483) 
2.837815

>  <regarded>  (483) 
['5i3p-a', '6h80-a']

>  <disregarded>  (483) 
[]

>  <LE>  (483) 
8.864353

>  <outcome>  (483) 
equally sized

>  <percent_hybrid>  (483) 
0.0

$$$$
LIG
     RDKit          3D

 57 60  0  0  0  0  0  0  0  0999 V2000
  -13.8153  -42.0200  -18.5865 O   0  0  0  0  0  0  0  0  0  0  0  0
  -16.0103  -43.4905  -14.2270 O   0  0  0  0  0  0  0  0  0  0  0  0
  -13.8756  -38.1570  -16.3666 O   0  0  0  0  0  0  0  0  0  0  0  0
  -19.4890  -46.2971  -24.5891 C   0  0  0  0  0  0  0  0  0  0  0  0
  -20.1289  -46.4410  -25.5961 C   0  0  0  0  0  0  0  0  0  0  0  0
  -20.8848  -46.6515  -26.8274 C   0  0  0  0  0  0  0  0  0  0  0  0
  -14.5739  -44.5872  -16.8058 O   0  0  0  0  0  0  0  0  0  0  0  0
  -15.3175  -43.8218  -17.2851 C   0  0  0  0  0  0  0  0  0  0  0  0
  -16.2168  -42.7368  -16.6206 N   0  0  0  0  0  0  0  0  0  0  0  0
  -16.4855  -42.3988  -15.0359 S   0  0  0  0  0  0  0  0  0  0  0  0
  -17.7968  -41.7992  -14.9355 O   0  0  0  0  0  0  0  0  0  0  0  0
  -14.7759  -37.9631  -17.4521 C   0  0  0  0  0  0  0  0  0  0  0  0
  -12.9219  -41.0934  -19.1972 C   0  0  0  0  0  0  0  0  0  0  0  0
  -15.0936  -43.9879  -22.8570 O   0  0  0  0  0  0  0  0  0  0  0  0
  -15.3312  -42.9365  -23.7854 C   0  0  0  0  0  0  0  0  0  0  0  0
  -21.9707  -45.7385  -26.9056 O   0  0  0  0  0  0  0  0  0  0  0  0
  -13.5502  -41.8844  -21.4646 C   0  0  0  0  0  0  0  0  0  0  0  0
  -13.7541  -39.5665  -20.8893 O   0  0  0  0  0  0  0  0  0  0  0  0
  -13.4128  -40.7001  -20.5641 C   0  0  0  0  0  0  0  0  0  0  0  0
  -15.3247  -43.7139  -21.5298 C   0  0  0  0  0  0  0  0  0  0  0  0
  -14.5101  -42.8240  -20.8079 C   0  0  0  0  0  0  0  0  0  0  0  0
  -14.5594  -42.8416  -19.4020 C   0  0  0  0  0  0  0  0  0  0  0  0
  -15.4251  -43.7223  -18.7492 C   0  0  0  0  0  0  0  0  0  0  0  0
  -16.2967  -44.5457  -19.4575 C   0  0  0  0  0  0  0  0  0  0  0  0
  -16.2762  -44.5255  -20.8597 C   0  0  0  0  0  0  0  0  0  0  0  0
  -13.3613  -39.2251  -14.3543 C   0  0  0  0  0  0  0  0  0  0  0  0
  -13.5404  -40.2224  -13.3951 C   0  0  0  0  0  0  0  0  0  0  0  0
  -14.5250  -41.1791  -13.5857 C   0  0  0  0  0  0  0  0  0  0  0  0
  -15.3238  -41.1135  -14.7314 C   0  0  0  0  0  0  0  0  0  0  0  0
  -15.1714  -40.1053  -15.6784 C   0  0  0  0  0  0  0  0  0  0  0  0
  -14.1723  -39.1630  -15.4939 C   0  0  0  0  0  0  0  0  0  0  0  0
  -17.6416  -46.6515  -21.3993 C   0  0  0  0  0  0  0  0  0  0  0  0
  -18.5303  -47.1007  -22.4224 C   0  0  0  0  0  0  0  0  0  0  0  0
  -18.7710  -46.1255  -23.3660 C   0  0  0  0  0  0  0  0  0  0  0  0
  -18.1641  -44.6225  -22.8643 S   0  0  0  0  0  0  0  0  0  0  0  0
  -17.2496  -45.3416  -21.5961 C   0  0  0  0  0  0  0  0  0  0  0  0
  -21.2603  -47.6744  -26.9187 H   0  0  0  0  0  0  0  0  0  0  0  0
  -20.2336  -46.4467  -27.6742 H   0  0  0  0  0  0  0  0  0  0  0  0
  -16.8023  -42.3019  -17.3268 H   0  0  0  0  0  0  0  0  0  0  0  0
  -15.7862  -37.7405  -17.0925 H   0  0  0  0  0  0  0  0  0  0  0  0
  -14.4279  -37.0958  -18.0216 H   0  0  0  0  0  0  0  0  0  0  0  0
  -14.7789  -38.8226  -18.1287 H   0  0  0  0  0  0  0  0  0  0  0  0
  -12.8485  -40.2060  -18.5633 H   0  0  0  0  0  0  0  0  0  0  0  0
  -11.9250  -41.5397  -19.2744 H   0  0  0  0  0  0  0  0  0  0  0  0
  -15.9020  -42.1047  -23.3582 H   0  0  0  0  0  0  0  0  0  0  0  0
  -14.3797  -42.5865  -24.1938 H   0  0  0  0  0  0  0  0  0  0  0  0
  -15.9031  -43.3462  -24.6241 H   0  0  0  0  0  0  0  0  0  0  0  0
  -22.7456  -46.2017  -26.5185 H   0  0  0  0  0  0  0  0  0  0  0  0
  -13.8892  -41.4974  -22.4226 H   0  0  0  0  0  0  0  0  0  0  0  0
  -12.5750  -42.3592  -21.5809 H   0  0  0  0  0  0  0  0  0  0  0  0
  -16.9792  -45.2022  -18.9245 H   0  0  0  0  0  0  0  0  0  0  0  0
  -12.5786  -38.4824  -14.2142 H   0  0  0  0  0  0  0  0  0  0  0  0
  -12.9031  -40.2560  -12.5156 H   0  0  0  0  0  0  0  0  0  0  0  0
  -14.6532  -41.9744  -12.8547 H   0  0  0  0  0  0  0  0  0  0  0  0
  -15.8187  -40.0884  -16.5459 H   0  0  0  0  0  0  0  0  0  0  0  0
  -17.2558  -47.2934  -20.6164 H   0  0  0  0  0  0  0  0  0  0  0  0
  -18.9048  -48.1143  -22.4971 H   0  0  0  0  0  0  0  0  0  0  0  0
  6 16  1  0
  6  5  1  0
  5  4  3  0
 14 15  1  0
  9  8  1  0
  9 10  1  0
  8  7  2  0
  2 10  2  0
 11 10  2  0
  1 13  1  0
 12  3  1  0
 17 19  1  0
 18 19  2  0
 19 13  1  0
 20 25  2  0
 20 14  1  0
 20 21  1  0
 21 22  2  0
 22 23  1  0
 22  1  1  0
 23 24  2  0
 23  8  1  0
 24 25  1  0
 25 36  1  0
 26 31  2  0
 26 27  1  0
 27 28  2  0
 28 29  1  0
 29 10  1  0
 29 30  2  0
 30 31  1  0
 31  3  1  0
 32 33  1  0
 32 36  2  0
 33 34  2  0
 34  4  1  0
 34 35  1  0
 35 36  1  0
 17 21  1  0
  6 37  1  0
  6 38  1  0
  9 39  1  0
 12 40  1  0
 12 41  1  0
 12 42  1  0
 13 43  1  0
 13 44  1  0
 15 45  1  0
 15 46  1  0
 15 47  1  0
 16 48  1  0
 17 49  1  0
 17 50  1  0
 24 51  1  0
 26 52  1  0
 27 53  1  0
 28 54  1  0
 30 55  1  0
 32 56  1  0
 33 57  1  0
M  END
>  <smiles>  (484) 
[H]OC([H])([H])C#Cc1sc(-c2c([H])c(C(=O)N([H])S(=O)(=O)c3c([H])c([H])c([H])c(OC([H])([H])[H])c3[H])c3c(c2OC([H])([H])[H])C([H])([H])C(=O)C([H])([H])O3)c([H])c1[H]

>  <error>  (484) 


>  <∆∆G>  (484) 
-65.439273

>  <∆G_bound>  (484) 
-12.828764

>  <∆G_unbound>  (484) 
52.610509

>  <comRMSD>  (484) 
0.711273

>  <N_constrained_atoms>  (484) 
36.0

>  <N_unconstrained_atoms>  (484) 
0.0

>  <runtime>  (484) 
3.103869

>  <regarded>  (484) 
['5i3p-a', '5hmy-a']

>  <disregarded>  (484) 
[]

>  <LE>  (484) 
1.817758

>  <outcome>  (484) 
acceptable

>  <percent_hybrid>  (484) 
9.0

$$$$
LIG
     RDKit          3D

 72 76  0  0  0  0  0  0  0  0999 V2000
  -13.4748  -42.5150  -18.5810 O   0  0  0  0  0  0  0  0  0  0  0  0
  -15.9439  -43.5292  -14.2237 O   0  0  0  0  0  0  0  0  0  0  0  0
  -13.8655  -38.1749  -16.3370 O   0  0  0  0  0  0  0  0  0  0  0  0
  -19.5134  -46.2837  -24.6229 C   0  0  0  0  0  0  0  0  0  0  0  0
  -20.1668  -46.4390  -25.6188 C   0  0  0  0  0  0  0  0  0  0  0  0
  -20.9262  -46.6431  -26.8471 C   0  0  0  0  0  0  0  0  0  0  0  0
  -14.7904  -44.5118  -17.0009 O   0  0  0  0  0  0  0  0  0  0  0  0
  -15.5265  -43.6724  -17.3652 C   0  0  0  0  0  0  0  0  0  0  0  0
  -16.4040  -42.6643  -16.5434 N   0  0  0  0  0  0  0  0  0  0  0  0
  -16.4855  -42.3958  -14.9271 S   0  0  0  0  0  0  0  0  0  0  0  0
  -17.7700  -41.7892  -14.6592 O   0  0  0  0  0  0  0  0  0  0  0  0
  -14.7147  -38.0489  -17.4705 C   0  0  0  0  0  0  0  0  0  0  0  0
  -12.4796  -41.5359  -18.8649 C   0  0  0  0  0  0  0  0  0  0  0  0
  -22.0132  -45.7322  -26.9138 O   0  0  0  0  0  0  0  0  0  0  0  0
  -17.2790  -36.4140  -26.1986 C   0  0  0  0  0  0  0  0  0  0  0  0
  -17.3549  -37.8705  -25.8480 C   0  0  0  0  0  0  0  0  0  0  0  0
  -18.3491  -38.5667  -25.9999 O   0  0  0  0  0  0  0  0  0  0  0  0
  -16.1247  -38.2553  -25.3396 O   0  0  0  0  0  0  0  0  0  0  0  0
  -15.5190  -43.0892  -21.6922 C   0  0  2  0  0  0  0  0  0  0  0  0
  -14.3371  -42.5927  -20.8408 C   0  0  0  0  0  0  0  0  0  0  0  0
  -14.6647  -42.4014  -19.3622 C   0  0  1  0  0  0  0  0  0  0  0  0
  -15.7326  -43.3943  -18.8610 C   0  0  1  0  0  0  0  0  0  0  0  0
  -15.7852  -44.7015  -19.6590 C   0  0  0  0  0  0  0  0  0  0  0  0
  -15.8688  -44.5306  -21.2018 C   0  0  1  0  0  0  0  0  0  0  0  0
  -13.2926  -39.2682  -14.3567 C   0  0  0  0  0  0  0  0  0  0  0  0
  -13.4466  -40.2728  -13.4012 C   0  0  0  0  0  0  0  0  0  0  0  0
  -14.4457  -41.2187  -13.5653 C   0  0  0  0  0  0  0  0  0  0  0  0
  -15.2858  -41.1345  -14.6798 C   0  0  0  0  0  0  0  0  0  0  0  0
  -15.1558  -40.1207  -15.6244 C   0  0  0  0  0  0  0  0  0  0  0  0
  -14.1396  -39.1910  -15.4687 C   0  0  0  0  0  0  0  0  0  0  0  0
  -17.5977  -46.4792  -21.4650 C   0  0  0  0  0  0  0  0  0  0  0  0
  -18.5561  -46.9568  -22.4088 C   0  0  0  0  0  0  0  0  0  0  0  0
  -18.7449  -46.0670  -23.4408 C   0  0  0  0  0  0  0  0  0  0  0  0
  -17.9221  -44.6150  -23.1675 S   0  0  0  0  0  0  0  0  0  0  0  0
  -17.0859  -45.2342  -21.8045 C   0  0  0  0  0  0  0  0  0  0  0  0
  -14.9961  -43.1446  -23.0484 O   0  0  0  0  0  0  0  0  0  0  0  0
  -15.3296  -41.9737  -23.6841 C   0  0  0  0  0  0  0  0  0  0  0  0
  -16.3255  -41.1817  -23.1381 C   0  0  0  0  0  0  0  0  0  0  0  0
  -16.8824  -41.8462  -21.6170 S   0  0  0  0  0  0  0  0  0  0  0  0
  -15.9828  -39.5581  -24.8464 C   0  0  0  0  0  0  0  0  0  0  0  0
  -16.6856  -39.9767  -23.7199 C   0  0  0  0  0  0  0  0  0  0  0  0
  -14.6631  -41.5713  -24.8202 C   0  0  0  0  0  0  0  0  0  0  0  0
  -14.9692  -40.3397  -25.3990 C   0  0  0  0  0  0  0  0  0  0  0  0
  -21.2988  -47.6665  -26.9445 H   0  0  0  0  0  0  0  0  0  0  0  0
  -20.2769  -46.4285  -27.6930 H   0  0  0  0  0  0  0  0  0  0  0  0
  -16.9870  -42.1286  -17.1755 H   0  0  0  0  0  0  0  0  0  0  0  0
  -15.7466  -37.8388  -17.1700 H   0  0  0  0  0  0  0  0  0  0  0  0
  -14.3612  -37.1961  -18.0582 H   0  0  0  0  0  0  0  0  0  0  0  0
  -14.6608  -38.9355  -18.1102 H   0  0  0  0  0  0  0  0  0  0  0  0
  -11.7182  -41.5926  -18.0822 H   0  0  0  0  0  0  0  0  0  0  0  0
  -11.9965  -41.7395  -19.8244 H   0  0  0  0  0  0  0  0  0  0  0  0
  -12.9077  -40.5297  -18.8593 H   0  0  0  0  0  0  0  0  0  0  0  0
  -22.7898  -46.2031  -26.5401 H   0  0  0  0  0  0  0  0  0  0  0  0
  -16.9764  -35.8363  -25.3212 H   0  0  0  0  0  0  0  0  0  0  0  0
  -16.5704  -36.2666  -27.0173 H   0  0  0  0  0  0  0  0  0  0  0  0
  -18.2669  -36.0652  -26.5120 H   0  0  0  0  0  0  0  0  0  0  0  0
  -13.5034  -43.3036  -20.9489 H   0  0  0  0  0  0  0  0  0  0  0  0
  -13.9247  -41.6578  -21.2462 H   0  0  0  0  0  0  0  0  0  0  0  0
  -15.0597  -41.3901  -19.1966 H   0  0  0  0  0  0  0  0  0  0  0  0
  -16.7227  -42.9406  -18.9851 H   0  0  0  0  0  0  0  0  0  0  0  0
  -14.8777  -45.2827  -19.4431 H   0  0  0  0  0  0  0  0  0  0  0  0
  -16.6098  -45.3075  -19.2652 H   0  0  0  0  0  0  0  0  0  0  0  0
  -15.0478  -45.1565  -21.5919 H   0  0  0  0  0  0  0  0  0  0  0  0
  -12.4985  -38.5340  -14.2374 H   0  0  0  0  0  0  0  0  0  0  0  0
  -12.7787  -40.3202  -12.5452 H   0  0  0  0  0  0  0  0  0  0  0  0
  -14.5572  -42.0182  -12.8361 H   0  0  0  0  0  0  0  0  0  0  0  0
  -15.8400  -40.0795  -16.4611 H   0  0  0  0  0  0  0  0  0  0  0  0
  -17.2386  -47.0809  -20.6382 H   0  0  0  0  0  0  0  0  0  0  0  0
  -19.0140  -47.9384  -22.3665 H   0  0  0  0  0  0  0  0  0  0  0  0
  -17.4379  -39.3432  -23.2638 H   0  0  0  0  0  0  0  0  0  0  0  0
  -13.8815  -42.2015  -25.2187 H   0  0  0  0  0  0  0  0  0  0  0  0
  -14.4059  -39.9866  -26.2590 H   0  0  0  0  0  0  0  0  0  0  0  0
  6 14  1  0
  6  5  1  0
  5  4  3  0
  9  8  1  0
  9 10  1  0
  8  7  2  0
  2 10  2  0
 11 10  2  0
  1 13  1  0
 12  3  1  0
 18 16  1  0
 16 17  2  0
 16 15  1  0
 19 24  1  0
 19 20  1  0
 20 21  1  0
 21 22  1  0
 21  1  1  0
 22 23  1  0
 22  8  1  0
 23 24  1  0
 24 35  1  0
 25 30  2  0
 25 26  1  0
 26 27  2  0
 27 28  1  0
 28 10  1  0
 28 29  2  0
 29 30  1  0
 30  3  1  0
 31 32  1  0
 31 35  2  0
 32 33  2  0
 33  4  1  0
 33 34  1  0
 34 35  1  0
 36 37  1  0
 37 42  2  0
 37 38  1  0
 38 39  1  0
 38 41  2  0
 40 43  2  0
 40 41  1  0
 40 18  1  0
 42 43  1  0
 19 36  1  6
 19 39  1  0
  6 44  1  0
  6 45  1  0
  9 46  1  0
 12 47  1  0
 12 48  1  0
 12 49  1  0
 13 50  1  0
 13 51  1  0
 13 52  1  0
 14 53  1  0
 15 54  1  0
 15 55  1  0
 15 56  1  0
 20 57  1  0
 20 58  1  0
 21 59  1  6
 22 60  1  6
 23 61  1  0
 23 62  1  0
 24 63  1  6
 25 64  1  0
 26 65  1  0
 27 66  1  0
 29 67  1  0
 31 68  1  0
 32 69  1  0
 41 70  1  0
 42 71  1  0
 43 72  1  0
M  END
>  <smiles>  (485) 
[H]OC([H])([H])C#Cc1sc([C@]2([H])C([H])([H])[C@]([H])(C(=O)N([H])S(=O)(=O)c3c([H])c([H])c([H])c(OC([H])([H])[H])c3[H])[C@@]([H])(OC([H])([H])[H])C([H])([H])[C@@]23Oc2c([H])c([H])c(OC(=O)C([H])([H])[H])c([H])c2S3)c([H])c1[H]

>  <error>  (485) 


>  <∆∆G>  (485) 
-257.182559

>  <∆G_bound>  (485) 
186.41951

>  <∆G_unbound>  (485) 
443.602069

>  <comRMSD>  (485) 
1.171654

>  <N_constrained_atoms>  (485) 
43.0

>  <N_unconstrained_atoms>  (485) 
0.0

>  <runtime>  (485) 
7.107844

>  <regarded>  (485) 
['5i3p-a', '6izx-a']

>  <disregarded>  (485) 
[]

>  <LE>  (485) 
5.98099

>  <outcome>  (485) 
too moved

>  <percent_hybrid>  (485) 
28.0

$$$$

     RDKit          2D

  0  0  0  0  0  0  0  0  0  0999 V2000
M  END
>  <smiles>  (486) 
nan

>  <error>  (486) 
FragmensteinError Ideal compound failed. Something is wrong with the SMILES

>  <∆∆G>  (486) 
nan

>  <∆G_bound>  (486) 
nan

>  <∆G_unbound>  (486) 
nan

>  <comRMSD>  (486) 
nan

>  <N_constrained_atoms>  (486) 
nan

>  <N_unconstrained_atoms>  (486) 
nan

>  <runtime>  (486) 
nan

>  <regarded>  (486) 
[]

>  <disregarded>  (486) 
[]

>  <LE>  (486) 
nan

>  <outcome>  (486) 
crashed

>  <percent_hybrid>  (486) 
nan

$$$$
LIG
     RDKit          3D

 57 60  0  0  0  0  0  0  0  0999 V2000
  -13.8015  -42.0299  -18.5538 O   0  0  0  0  0  0  0  0  0  0  0  0
  -16.0481  -43.4667  -14.1718 O   0  0  0  0  0  0  0  0  0  0  0  0
  -13.8822  -38.1992  -16.4678 O   0  0  0  0  0  0  0  0  0  0  0  0
  -19.4837  -46.2881  -24.5810 C   0  0  0  0  0  0  0  0  0  0  0  0
  -20.1230  -46.4364  -25.5880 C   0  0  0  0  0  0  0  0  0  0  0  0
  -20.8783  -46.6521  -26.8194 C   0  0  0  0  0  0  0  0  0  0  0  0
  -14.5641  -44.5469  -16.7802 O   0  0  0  0  0  0  0  0  0  0  0  0
  -15.3391  -43.8121  -17.2579 C   0  0  0  0  0  0  0  0  0  0  0  0
  -16.3269  -42.8103  -16.5871 N   0  0  0  0  0  0  0  0  0  0  0  0
  -16.5149  -42.3930  -15.0095 S   0  0  0  0  0  0  0  0  0  0  0  0
  -17.8043  -41.7512  -14.8837 O   0  0  0  0  0  0  0  0  0  0  0  0
  -14.7997  -38.0132  -17.5395 C   0  0  0  0  0  0  0  0  0  0  0  0
  -12.8771  -41.1333  -19.1631 C   0  0  0  0  0  0  0  0  0  0  0  0
  -15.0862  -43.9803  -22.8310 O   0  0  0  0  0  0  0  0  0  0  0  0
  -15.3213  -42.9278  -23.7592 C   0  0  0  0  0  0  0  0  0  0  0  0
  -21.9651  -45.7404  -26.9010 O   0  0  0  0  0  0  0  0  0  0  0  0
  -13.5245  -41.9003  -21.4355 C   0  0  0  0  0  0  0  0  0  0  0  0
  -13.3577  -40.7245  -20.5285 C   0  0  0  0  0  0  0  0  0  0  0  0
  -13.6732  -39.5814  -20.8466 O   0  0  0  0  0  0  0  0  0  0  0  0
  -15.3219  -43.7048  -21.5048 C   0  0  0  0  0  0  0  0  0  0  0  0
  -14.4988  -42.8254  -20.7787 C   0  0  0  0  0  0  0  0  0  0  0  0
  -14.5535  -42.8404  -19.3724 C   0  0  0  0  0  0  0  0  0  0  0  0
  -15.4374  -43.7031  -18.7229 C   0  0  0  0  0  0  0  0  0  0  0  0
  -16.3175  -44.5153  -19.4368 C   0  0  0  0  0  0  0  0  0  0  0  0
  -16.2862  -44.5039  -20.8393 C   0  0  0  0  0  0  0  0  0  0  0  0
  -13.3220  -39.2596  -14.4670 C   0  0  0  0  0  0  0  0  0  0  0  0
  -13.4816  -40.2474  -13.4963 C   0  0  0  0  0  0  0  0  0  0  0  0
  -14.4783  -41.1966  -13.6544 C   0  0  0  0  0  0  0  0  0  0  0  0
  -15.3072  -41.1365  -14.7804 C   0  0  0  0  0  0  0  0  0  0  0  0
  -15.1706  -40.1411  -15.7416 C   0  0  0  0  0  0  0  0  0  0  0  0
  -14.1616  -39.2026  -15.5865 C   0  0  0  0  0  0  0  0  0  0  0  0
  -17.6420  -46.6340  -21.3860 C   0  0  0  0  0  0  0  0  0  0  0  0
  -18.5247  -47.0872  -22.4128 C   0  0  0  0  0  0  0  0  0  0  0  0
  -18.7671  -46.1129  -23.3570 C   0  0  0  0  0  0  0  0  0  0  0  0
  -18.1634  -44.6080  -22.8556 S   0  0  0  0  0  0  0  0  0  0  0  0
  -17.2549  -45.3222  -21.5804 C   0  0  0  0  0  0  0  0  0  0  0  0
  -21.2527  -47.6756  -26.9074 H   0  0  0  0  0  0  0  0  0  0  0  0
  -20.2273  -46.4501  -27.6671 H   0  0  0  0  0  0  0  0  0  0  0  0
  -16.9157  -42.3870  -17.2972 H   0  0  0  0  0  0  0  0  0  0  0  0
  -15.8034  -37.7854  -17.1652 H   0  0  0  0  0  0  0  0  0  0  0  0
  -14.4596  -37.1523  -18.1232 H   0  0  0  0  0  0  0  0  0  0  0  0
  -14.8156  -38.8795  -18.2075 H   0  0  0  0  0  0  0  0  0  0  0  0
  -12.7756  -40.2485  -18.5291 H   0  0  0  0  0  0  0  0  0  0  0  0
  -11.8953  -41.6116  -19.2409 H   0  0  0  0  0  0  0  0  0  0  0  0
  -15.8886  -42.0941  -23.3312 H   0  0  0  0  0  0  0  0  0  0  0  0
  -14.3689  -42.5803  -24.1674 H   0  0  0  0  0  0  0  0  0  0  0  0
  -15.8946  -43.3354  -24.5980 H   0  0  0  0  0  0  0  0  0  0  0  0
  -22.7404  -46.2039  -26.5150 H   0  0  0  0  0  0  0  0  0  0  0  0
  -13.8650  -41.5007  -22.3881 H   0  0  0  0  0  0  0  0  0  0  0  0
  -12.5598  -42.3927  -21.5628 H   0  0  0  0  0  0  0  0  0  0  0  0
  -17.0113  -45.1627  -18.9068 H   0  0  0  0  0  0  0  0  0  0  0  0
  -12.5332  -38.5189  -14.3523 H   0  0  0  0  0  0  0  0  0  0  0  0
  -12.8240  -40.2773  -12.6318 H   0  0  0  0  0  0  0  0  0  0  0  0
  -14.5972  -41.9794  -12.9083 H   0  0  0  0  0  0  0  0  0  0  0  0
  -15.8422  -40.1253  -16.5904 H   0  0  0  0  0  0  0  0  0  0  0  0
  -17.2568  -47.2743  -20.6014 H   0  0  0  0  0  0  0  0  0  0  0  0
  -18.8949  -48.1024  -22.4887 H   0  0  0  0  0  0  0  0  0  0  0  0
  6 16  1  0
  6  5  1  0
  5  4  3  0
 14 15  1  0
  9  8  1  0
  9 10  1  0
  8  7  2  0
  2 10  2  0
 11 10  2  0
  1 13  1  0
 12  3  1  0
 17 18  1  0
 19 18  2  0
 18 13  1  0
 20 25  2  0
 20 14  1  0
 20 21  1  0
 21 22  2  0
 22 23  1  0
 22  1  1  0
 23 24  2  0
 23  8  1  0
 24 25  1  0
 25 36  1  0
 26 31  2  0
 26 27  1  0
 27 28  2  0
 28 29  1  0
 29 10  1  0
 29 30  2  0
 30 31  1  0
 31  3  1  0
 32 33  1  0
 32 36  2  0
 33 34  2  0
 34  4  1  0
 34 35  1  0
 35 36  1  0
 17 21  1  0
  6 37  1  0
  6 38  1  0
  9 39  1  0
 12 40  1  0
 12 41  1  0
 12 42  1  0
 13 43  1  0
 13 44  1  0
 15 45  1  0
 15 46  1  0
 15 47  1  0
 16 48  1  0
 17 49  1  0
 17 50  1  0
 24 51  1  0
 26 52  1  0
 27 53  1  0
 28 54  1  0
 30 55  1  0
 32 56  1  0
 33 57  1  0
M  END
>  <smiles>  (487) 
[H]OC([H])([H])C#Cc1sc(-c2c([H])c(C(=O)N([H])S(=O)(=O)c3c([H])c([H])c([H])c(OC([H])([H])[H])c3[H])c3c(c2OC([H])([H])[H])C([H])([H])C(=O)C([H])([H])O3)c([H])c1[H]

>  <error>  (487) 


>  <∆∆G>  (487) 
-64.357732

>  <∆G_bound>  (487) 
-13.862187

>  <∆G_unbound>  (487) 
50.495545

>  <comRMSD>  (487) 
0.705118

>  <N_constrained_atoms>  (487) 
36.0

>  <N_unconstrained_atoms>  (487) 
0.0

>  <runtime>  (487) 
2.812675

>  <regarded>  (487) 
['5i3p-a', '5hmx-b']

>  <disregarded>  (487) 
[]

>  <LE>  (487) 
1.787715

>  <outcome>  (487) 
acceptable

>  <percent_hybrid>  (487) 
9.0

$$$$
LIG
     RDKit          3D

 56 58  0  0  0  0  0  0  0  0999 V2000
  -13.5289  -42.1232  -18.7243 O   0  0  0  0  0  0  0  0  0  0  0  0
  -16.0452  -43.5304  -14.2453 O   0  0  0  0  0  0  0  0  0  0  0  0
  -13.3858  -38.6998  -16.5246 N   0  0  0  0  0  0  0  0  0  0  0  0
  -19.4976  -46.2510  -24.5822 C   0  0  0  0  0  0  0  0  0  0  0  0
  -20.1274  -46.4215  -25.5916 C   0  0  0  0  0  0  0  0  0  0  0  0
  -20.8728  -46.6565  -26.8251 C   0  0  0  0  0  0  0  0  0  0  0  0
  -14.3631  -44.3689  -16.8404 O   0  0  0  0  0  0  0  0  0  0  0  0
  -15.2093  -43.7157  -17.3170 C   0  0  0  0  0  0  0  0  0  0  0  0
  -16.3052  -42.8324  -16.6429 N   0  0  0  0  0  0  0  0  0  0  0  0
  -16.5484  -42.4556  -15.0608 S   0  0  0  0  0  0  0  0  0  0  0  0
  -17.8632  -41.8650  -14.9514 O   0  0  0  0  0  0  0  0  0  0  0  0
  -14.3526  -37.9205  -17.2988 C   0  0  0  0  0  0  0  0  0  0  0  0
  -12.4275  -41.5151  -19.3880 C   0  0  0  0  0  0  0  0  0  0  0  0
  -15.4969  -43.6490  -22.9254 O   0  0  0  0  0  0  0  0  0  0  0  0
  -14.3716  -43.2630  -23.6895 C   0  0  0  0  0  0  0  0  0  0  0  0
  -21.9638  -45.7516  -26.9270 O   0  0  0  0  0  0  0  0  0  0  0  0
  -12.2325  -37.9675  -16.2586 O   0  0  0  0  0  0  0  0  0  0  0  0
  -15.4050  -43.6036  -21.5590 C   0  0  0  0  0  0  0  0  0  0  0  0
  -14.4387  -42.8521  -20.8780 C   0  0  0  0  0  0  0  0  0  0  0  0
  -14.3976  -42.8557  -19.4850 C   0  0  0  0  0  0  0  0  0  0  0  0
  -15.3335  -43.6252  -18.7848 C   0  0  0  0  0  0  0  0  0  0  0  0
  -16.3152  -44.3726  -19.4452 C   0  0  0  0  0  0  0  0  0  0  0  0
  -16.3700  -44.3558  -20.8448 C   0  0  0  0  0  0  0  0  0  0  0  0
  -13.4207  -39.3696  -14.1647 C   0  0  0  0  0  0  0  0  0  0  0  0
  -13.9087  -40.1698  -13.1338 C   0  0  0  0  0  0  0  0  0  0  0  0
  -14.9113  -41.0807  -13.4099 C   0  0  0  0  0  0  0  0  0  0  0  0
  -15.4152  -41.1695  -14.7128 C   0  0  0  0  0  0  0  0  0  0  0  0
  -14.9532  -40.3601  -15.7353 C   0  0  0  0  0  0  0  0  0  0  0  0
  -13.9382  -39.4506  -15.4717 C   0  0  0  0  0  0  0  0  0  0  0  0
  -17.6943  -46.5095  -21.3572 C   0  0  0  0  0  0  0  0  0  0  0  0
  -18.5289  -47.0070  -22.4032 C   0  0  0  0  0  0  0  0  0  0  0  0
  -18.8054  -46.0432  -23.3492 C   0  0  0  0  0  0  0  0  0  0  0  0
  -18.3013  -44.5074  -22.8280 S   0  0  0  0  0  0  0  0  0  0  0  0
  -17.3635  -45.1812  -21.5505 C   0  0  0  0  0  0  0  0  0  0  0  0
  -21.2414  -47.6829  -26.9035 H   0  0  0  0  0  0  0  0  0  0  0  0
  -20.2159  -46.4616  -27.6698 H   0  0  0  0  0  0  0  0  0  0  0  0
  -16.8277  -42.3349  -17.3575 H   0  0  0  0  0  0  0  0  0  0  0  0
  -14.8964  -37.2177  -16.6576 H   0  0  0  0  0  0  0  0  0  0  0  0
  -13.8300  -37.3394  -18.0671 H   0  0  0  0  0  0  0  0  0  0  0  0
  -15.0698  -38.5583  -17.8247 H   0  0  0  0  0  0  0  0  0  0  0  0
  -11.7599  -41.1068  -18.6234 H   0  0  0  0  0  0  0  0  0  0  0  0
  -11.8605  -42.2439  -19.9751 H   0  0  0  0  0  0  0  0  0  0  0  0
  -12.7655  -40.6838  -20.0150 H   0  0  0  0  0  0  0  0  0  0  0  0
  -14.2066  -42.1842  -23.6194 H   0  0  0  0  0  0  0  0  0  0  0  0
  -13.4884  -43.8383  -23.3972 H   0  0  0  0  0  0  0  0  0  0  0  0
  -14.5907  -43.4908  -24.7343 H   0  0  0  0  0  0  0  0  0  0  0  0
  -22.7354  -46.2073  -26.5252 H   0  0  0  0  0  0  0  0  0  0  0  0
  -11.5465  -38.6604  -16.2110 H   0  0  0  0  0  0  0  0  0  0  0  0
  -13.7229  -42.2653  -21.4400 H   0  0  0  0  0  0  0  0  0  0  0  0
  -17.0191  -44.9727  -18.8747 H   0  0  0  0  0  0  0  0  0  0  0  0
  -12.6265  -38.6623  -13.9367 H   0  0  0  0  0  0  0  0  0  0  0  0
  -13.4957  -40.0889  -12.1324 H   0  0  0  0  0  0  0  0  0  0  0  0
  -15.2803  -41.7360  -12.6235 H   0  0  0  0  0  0  0  0  0  0  0  0
  -15.3279  -40.4758  -16.7446 H   0  0  0  0  0  0  0  0  0  0  0  0
  -17.2807  -47.1333  -20.5741 H   0  0  0  0  0  0  0  0  0  0  0  0
  -18.8419  -48.0406  -22.4895 H   0  0  0  0  0  0  0  0  0  0  0  0
  6 16  1  0
  6  5  1  0
  5  4  3  0
 14 15  1  0
  9  8  1  0
  9 10  1  0
  8  7  2  0
  2 10  2  0
 11 10  2  0
  1 13  1  0
 12  3  1  0
 17  3  1  0
 18 23  2  0
 18 14  1  0
 18 19  1  0
 19 20  2  0
 20 21  1  0
 20  1  1  0
 21 22  2  0
 21  8  1  0
 22 23  1  0
 23 34  1  0
 24 29  2  0
 24 25  1  0
 25 26  2  0
 26 27  1  0
 27 10  1  0
 27 28  2  0
 28 29  1  0
 29  3  1  0
 30 31  1  0
 30 34  2  0
 31 32  2  0
 32  4  1  0
 32 33  1  0
 33 34  1  0
  6 35  1  0
  6 36  1  0
  9 37  1  0
 12 38  1  0
 12 39  1  0
 12 40  1  0
 13 41  1  0
 13 42  1  0
 13 43  1  0
 15 44  1  0
 15 45  1  0
 15 46  1  0
 16 47  1  0
 17 48  1  0
 19 49  1  0
 22 50  1  0
 24 51  1  0
 25 52  1  0
 26 53  1  0
 28 54  1  0
 30 55  1  0
 31 56  1  0
M  END
>  <smiles>  (488) 
[H]ON(c1c([H])c([H])c([H])c(S(=O)(=O)N([H])C(=O)c2c([H])c(-c3sc(C#CC([H])([H])O[H])c([H])c3[H])c(OC([H])([H])[H])c([H])c2OC([H])([H])[H])c1[H])C([H])([H])[H]

>  <error>  (488) 


>  <∆∆G>  (488) 
-40.547257

>  <∆G_bound>  (488) 
-24.586422

>  <∆G_unbound>  (488) 
15.960835

>  <comRMSD>  (488) 
0.698499

>  <N_constrained_atoms>  (488) 
34.0

>  <N_unconstrained_atoms>  (488) 
0.0

>  <runtime>  (488) 
3.212789

>  <regarded>  (488) 
['5i3p-a', '5k5m-a']

>  <disregarded>  (488) 
[]

>  <LE>  (488) 
1.192566

>  <outcome>  (488) 
acceptable

>  <percent_hybrid>  (488) 
3.0

$$$$
LIG
     RDKit          3D

 54 56  0  0  0  0  0  0  0  0999 V2000
  -13.5327  -42.1078  -18.7394 O   0  0  0  0  0  0  0  0  0  0  0  0
  -15.9721  -43.5250  -14.2559 O   0  0  0  0  0  0  0  0  0  0  0  0
  -13.8502  -38.1805  -16.3953 O   0  0  0  0  0  0  0  0  0  0  0  0
  -19.4994  -46.2564  -24.5857 C   0  0  0  0  0  0  0  0  0  0  0  0
  -20.1299  -46.4248  -25.5949 C   0  0  0  0  0  0  0  0  0  0  0  0
  -20.8759  -46.6567  -26.8284 C   0  0  0  0  0  0  0  0  0  0  0  0
  -14.3685  -44.4380  -16.8674 O   0  0  0  0  0  0  0  0  0  0  0  0
  -15.1818  -43.7393  -17.3357 C   0  0  0  0  0  0  0  0  0  0  0  0
  -16.2298  -42.8095  -16.6515 N   0  0  0  0  0  0  0  0  0  0  0  0
  -16.4504  -42.4359  -15.0676 S   0  0  0  0  0  0  0  0  0  0  0  0
  -17.7567  -41.8278  -14.9470 O   0  0  0  0  0  0  0  0  0  0  0  0
  -14.6062  -38.1288  -17.5988 C   0  0  0  0  0  0  0  0  0  0  0  0
  -12.4067  -41.5431  -19.4013 C   0  0  0  0  0  0  0  0  0  0  0  0
  -15.5156  -43.6110  -22.9380 O   0  0  0  0  0  0  0  0  0  0  0  0
  -14.3796  -43.2532  -23.7007 C   0  0  0  0  0  0  0  0  0  0  0  0
  -21.9663  -45.7509  -26.9279 O   0  0  0  0  0  0  0  0  0  0  0  0
  -15.4128  -43.5861  -21.5718 C   0  0  0  0  0  0  0  0  0  0  0  0
  -14.4522  -42.8268  -20.8910 C   0  0  0  0  0  0  0  0  0  0  0  0
  -14.3975  -42.8466  -19.4989 C   0  0  0  0  0  0  0  0  0  0  0  0
  -15.3159  -43.6374  -18.8005 C   0  0  0  0  0  0  0  0  0  0  0  0
  -16.2906  -44.3942  -19.4603 C   0  0  0  0  0  0  0  0  0  0  0  0
  -16.3607  -44.3605  -20.8587 C   0  0  0  0  0  0  0  0  0  0  0  0
  -13.3661  -39.2277  -14.3664 C   0  0  0  0  0  0  0  0  0  0  0  0
  -13.5498  -40.2212  -13.4052 C   0  0  0  0  0  0  0  0  0  0  0  0
  -14.5115  -41.1967  -13.6140 C   0  0  0  0  0  0  0  0  0  0  0  0
  -15.2820  -41.1562  -14.7811 C   0  0  0  0  0  0  0  0  0  0  0  0
  -15.1181  -40.1595  -15.7363 C   0  0  0  0  0  0  0  0  0  0  0  0
  -14.1429  -39.1954  -15.5312 C   0  0  0  0  0  0  0  0  0  0  0  0
  -17.6867  -46.5150  -21.3666 C   0  0  0  0  0  0  0  0  0  0  0  0
  -18.5272  -47.0123  -22.4081 C   0  0  0  0  0  0  0  0  0  0  0  0
  -18.8053  -46.0491  -23.3540 C   0  0  0  0  0  0  0  0  0  0  0  0
  -18.2996  -44.5136  -22.8348 S   0  0  0  0  0  0  0  0  0  0  0  0
  -17.3549  -45.1871  -21.5623 C   0  0  0  0  0  0  0  0  0  0  0  0
  -21.2453  -47.6827  -26.9087 H   0  0  0  0  0  0  0  0  0  0  0  0
  -20.2191  -46.4601  -27.6728 H   0  0  0  0  0  0  0  0  0  0  0  0
  -16.8381  -42.4062  -17.3572 H   0  0  0  0  0  0  0  0  0  0  0  0
  -15.6690  -37.9641  -17.3928 H   0  0  0  0  0  0  0  0  0  0  0  0
  -14.2468  -37.2742  -18.1804 H   0  0  0  0  0  0  0  0  0  0  0  0
  -14.4513  -39.0281  -18.2045 H   0  0  0  0  0  0  0  0  0  0  0  0
  -11.7272  -41.1572  -18.6355 H   0  0  0  0  0  0  0  0  0  0  0  0
  -11.8650  -42.2929  -19.9857 H   0  0  0  0  0  0  0  0  0  0  0  0
  -12.7126  -40.7018  -20.0314 H   0  0  0  0  0  0  0  0  0  0  0  0
  -14.1991  -42.1762  -23.6424 H   0  0  0  0  0  0  0  0  0  0  0  0
  -13.5058  -43.8374  -23.3977 H   0  0  0  0  0  0  0  0  0  0  0  0
  -14.5976  -43.4902  -24.7437 H   0  0  0  0  0  0  0  0  0  0  0  0
  -22.7381  -46.2071  -26.5270 H   0  0  0  0  0  0  0  0  0  0  0  0
  -13.7550  -42.2178  -21.4529 H   0  0  0  0  0  0  0  0  0  0  0  0
  -16.9796  -45.0114  -18.8898 H   0  0  0  0  0  0  0  0  0  0  0  0
  -12.6053  -38.4660  -14.2099 H   0  0  0  0  0  0  0  0  0  0  0  0
  -12.9379  -40.2342  -12.5073 H   0  0  0  0  0  0  0  0  0  0  0  0
  -14.6506  -41.9831  -12.8754 H   0  0  0  0  0  0  0  0  0  0  0  0
  -15.7469  -40.1596  -16.6173 H   0  0  0  0  0  0  0  0  0  0  0  0
  -17.2709  -47.1391  -20.5849 H   0  0  0  0  0  0  0  0  0  0  0  0
  -18.8420  -48.0455  -22.4922 H   0  0  0  0  0  0  0  0  0  0  0  0
  6 16  1  0
  6  5  1  0
  5  4  3  0
 14 15  1  0
  9  8  1  0
  9 10  1  0
  8  7  2  0
  2 10  2  0
 11 10  2  0
  1 13  1  0
 12  3  1  0
 17 22  2  0
 17 14  1  0
 17 18  1  0
 18 19  2  0
 19 20  1  0
 19  1  1  0
 20 21  2  0
 20  8  1  0
 21 22  1  0
 22 33  1  0
 23 28  2  0
 23 24  1  0
 24 25  2  0
 25 26  1  0
 26 10  1  0
 26 27  2  0
 27 28  1  0
 28  3  1  0
 29 30  1  0
 29 33  2  0
 30 31  2  0
 31  4  1  0
 31 32  1  0
 32 33  1  0
  6 34  1  0
  6 35  1  0
  9 36  1  0
 12 37  1  0
 12 38  1  0
 12 39  1  0
 13 40  1  0
 13 41  1  0
 13 42  1  0
 15 43  1  0
 15 44  1  0
 15 45  1  0
 16 46  1  0
 18 47  1  0
 21 48  1  0
 23 49  1  0
 24 50  1  0
 25 51  1  0
 27 52  1  0
 29 53  1  0
 30 54  1  0
M  END
>  <smiles>  (489) 
[H]OC([H])([H])C#Cc1sc(-c2c([H])c(C(=O)N([H])S(=O)(=O)c3c([H])c([H])c([H])c(OC([H])([H])[H])c3[H])c(OC([H])([H])[H])c([H])c2OC([H])([H])[H])c([H])c1[H]

>  <error>  (489) 


>  <∆∆G>  (489) 
-292.523648

>  <∆G_bound>  (489) 
-39.021177

>  <∆G_unbound>  (489) 
253.502471

>  <comRMSD>  (489) 
0.664851

>  <N_constrained_atoms>  (489) 
33.0

>  <N_unconstrained_atoms>  (489) 
0.0

>  <runtime>  (489) 
2.860308

>  <regarded>  (489) 
['5i3p-a', '5hmz-a']

>  <disregarded>  (489) 
[]

>  <LE>  (489) 
8.864353

>  <outcome>  (489) 
equally sized

>  <percent_hybrid>  (489) 
0.0

$$$$
LIG
     RDKit          3D

 57 60  0  0  0  0  0  0  0  0999 V2000
  -13.8014  -42.0250  -18.5786 O   0  0  0  0  0  0  0  0  0  0  0  0
  -16.1028  -43.4371  -14.1587 O   0  0  0  0  0  0  0  0  0  0  0  0
  -13.8834  -38.2008  -16.4916 O   0  0  0  0  0  0  0  0  0  0  0  0
  -19.4797  -46.2999  -24.5755 C   0  0  0  0  0  0  0  0  0  0  0  0
  -20.1161  -46.4449  -25.5848 C   0  0  0  0  0  0  0  0  0  0  0  0
  -20.8716  -46.6569  -26.8168 C   0  0  0  0  0  0  0  0  0  0  0  0
  -14.5199  -44.4737  -16.7679 O   0  0  0  0  0  0  0  0  0  0  0  0
  -15.3361  -43.7891  -17.2511 C   0  0  0  0  0  0  0  0  0  0  0  0
  -16.3608  -42.8194  -16.5898 N   0  0  0  0  0  0  0  0  0  0  0  0
  -16.5460  -42.3714  -15.0186 S   0  0  0  0  0  0  0  0  0  0  0  0
  -17.8229  -41.7025  -14.9075 O   0  0  0  0  0  0  0  0  0  0  0  0
  -14.8146  -37.9980  -17.5480 C   0  0  0  0  0  0  0  0  0  0  0  0
  -12.8917  -41.1234  -19.2028 C   0  0  0  0  0  0  0  0  0  0  0  0
  -15.0925  -44.0306  -22.8262 O   0  0  0  0  0  0  0  0  0  0  0  0
  -15.3387  -42.9838  -23.7594 C   0  0  0  0  0  0  0  0  0  0  0  0
  -21.9576  -45.7439  -26.8963 O   0  0  0  0  0  0  0  0  0  0  0  0
  -13.6386  -39.6445  -20.9764 O   0  0  0  0  0  0  0  0  0  0  0  0
  -13.3410  -40.7729  -20.5960 C   0  0  0  0  0  0  0  0  0  0  0  0
  -13.4907  -41.9832  -21.4551 C   0  0  0  0  0  0  0  0  0  0  0  0
  -15.3234  -43.7450  -21.5010 C   0  0  0  0  0  0  0  0  0  0  0  0
  -14.4883  -42.8700  -20.7861 C   0  0  0  0  0  0  0  0  0  0  0  0
  -14.5505  -42.8540  -19.3810 C   0  0  0  0  0  0  0  0  0  0  0  0
  -15.4407  -43.7004  -18.7183 C   0  0  0  0  0  0  0  0  0  0  0  0
  -16.3292  -44.5138  -19.4218 C   0  0  0  0  0  0  0  0  0  0  0  0
  -16.2973  -44.5218  -20.8252 C   0  0  0  0  0  0  0  0  0  0  0  0
  -13.3017  -39.2833  -14.5093 C   0  0  0  0  0  0  0  0  0  0  0  0
  -13.4556  -40.2771  -13.5442 C   0  0  0  0  0  0  0  0  0  0  0  0
  -14.4649  -41.2143  -13.6936 C   0  0  0  0  0  0  0  0  0  0  0  0
  -15.3125  -41.1364  -14.8050 C   0  0  0  0  0  0  0  0  0  0  0  0
  -15.1815  -40.1343  -15.7598 C   0  0  0  0  0  0  0  0  0  0  0  0
  -14.1592  -39.2085  -15.6141 C   0  0  0  0  0  0  0  0  0  0  0  0
  -17.6523  -46.6520  -21.3717 C   0  0  0  0  0  0  0  0  0  0  0  0
  -18.5287  -47.1043  -22.4046 C   0  0  0  0  0  0  0  0  0  0  0  0
  -18.7707  -46.1274  -23.3464 C   0  0  0  0  0  0  0  0  0  0  0  0
  -18.1832  -44.6209  -22.8308 S   0  0  0  0  0  0  0  0  0  0  0  0
  -17.2701  -45.3385  -21.5608 C   0  0  0  0  0  0  0  0  0  0  0  0
  -21.2473  -47.6798  -26.9071 H   0  0  0  0  0  0  0  0  0  0  0  0
  -20.2206  -46.4538  -27.6643 H   0  0  0  0  0  0  0  0  0  0  0  0
  -16.8684  -42.3180  -17.3116 H   0  0  0  0  0  0  0  0  0  0  0  0
  -15.8113  -37.7663  -17.1576 H   0  0  0  0  0  0  0  0  0  0  0  0
  -14.4765  -37.1339  -18.1281 H   0  0  0  0  0  0  0  0  0  0  0  0
  -14.8459  -38.8576  -18.2245 H   0  0  0  0  0  0  0  0  0  0  0  0
  -12.8301  -40.2143  -18.5989 H   0  0  0  0  0  0  0  0  0  0  0  0
  -11.8952  -41.5756  -19.2392 H   0  0  0  0  0  0  0  0  0  0  0  0
  -15.8779  -42.1349  -23.3249 H   0  0  0  0  0  0  0  0  0  0  0  0
  -14.3925  -42.6573  -24.1987 H   0  0  0  0  0  0  0  0  0  0  0  0
  -15.9416  -43.3903  -24.5775 H   0  0  0  0  0  0  0  0  0  0  0  0
  -22.7330  -46.2068  -26.5101 H   0  0  0  0  0  0  0  0  0  0  0  0
  -13.8002  -41.6222  -22.4325 H   0  0  0  0  0  0  0  0  0  0  0  0
  -12.5272  -42.4869  -21.5344 H   0  0  0  0  0  0  0  0  0  0  0  0
  -17.0298  -45.1473  -18.8840 H   0  0  0  0  0  0  0  0  0  0  0  0
  -12.5032  -38.5521  -14.4016 H   0  0  0  0  0  0  0  0  0  0  0  0
  -12.7844  -40.3215  -12.6909 H   0  0  0  0  0  0  0  0  0  0  0  0
  -14.5796  -42.0009  -12.9508 H   0  0  0  0  0  0  0  0  0  0  0  0
  -15.8695  -40.1017  -16.5948 H   0  0  0  0  0  0  0  0  0  0  0  0
  -17.2647  -47.2945  -20.5901 H   0  0  0  0  0  0  0  0  0  0  0  0
  -18.8935  -48.1209  -22.4867 H   0  0  0  0  0  0  0  0  0  0  0  0
  6 16  1  0
  6  5  1  0
  5  4  3  0
 14 15  1  0
  9  8  1  0
  9 10  1  0
  8  7  2  0
  2 10  2  0
 11 10  2  0
  1 13  1  0
 12  3  1  0
 19 18  1  0
 17 18  2  0
 18 13  1  0
 20 25  2  0
 20 14  1  0
 20 21  1  0
 21 22  2  0
 22 23  1  0
 22  1  1  0
 23 24  2  0
 23  8  1  0
 24 25  1  0
 25 36  1  0
 26 31  2  0
 26 27  1  0
 27 28  2  0
 28 29  1  0
 29 10  1  0
 29 30  2  0
 30 31  1  0
 31  3  1  0
 32 33  1  0
 32 36  2  0
 33 34  2  0
 34  4  1  0
 34 35  1  0
 35 36  1  0
 19 21  1  0
  6 37  1  0
  6 38  1  0
  9 39  1  0
 12 40  1  0
 12 41  1  0
 12 42  1  0
 13 43  1  0
 13 44  1  0
 15 45  1  0
 15 46  1  0
 15 47  1  0
 16 48  1  0
 19 49  1  0
 19 50  1  0
 24 51  1  0
 26 52  1  0
 27 53  1  0
 28 54  1  0
 30 55  1  0
 32 56  1  0
 33 57  1  0
M  END
>  <smiles>  (490) 
[H]OC([H])([H])C#Cc1sc(-c2c([H])c(C(=O)N([H])S(=O)(=O)c3c([H])c([H])c([H])c(OC([H])([H])[H])c3[H])c3c(c2OC([H])([H])[H])C([H])([H])C(=O)C([H])([H])O3)c([H])c1[H]

>  <error>  (490) 


>  <∆∆G>  (490) 
-58.542157

>  <∆G_bound>  (490) 
1.543322

>  <∆G_unbound>  (490) 
60.085479

>  <comRMSD>  (490) 
0.714877

>  <N_constrained_atoms>  (490) 
36.0

>  <N_unconstrained_atoms>  (490) 
0.0

>  <runtime>  (490) 
2.838754

>  <regarded>  (490) 
['5i3p-a', '5hmw-b']

>  <disregarded>  (490) 
[]

>  <LE>  (490) 
1.626171

>  <outcome>  (490) 
acceptable

>  <percent_hybrid>  (490) 
9.0

$$$$
LIG
     RDKit          3D

 54 56  0  0  0  0  0  0  0  0999 V2000
  -13.5327  -42.1078  -18.7394 O   0  0  0  0  0  0  0  0  0  0  0  0
  -15.9721  -43.5250  -14.2559 O   0  0  0  0  0  0  0  0  0  0  0  0
  -13.8502  -38.1805  -16.3953 O   0  0  0  0  0  0  0  0  0  0  0  0
  -19.4994  -46.2564  -24.5857 C   0  0  0  0  0  0  0  0  0  0  0  0
  -20.1299  -46.4248  -25.5949 C   0  0  0  0  0  0  0  0  0  0  0  0
  -20.8759  -46.6567  -26.8284 C   0  0  0  0  0  0  0  0  0  0  0  0
  -14.3685  -44.4380  -16.8674 O   0  0  0  0  0  0  0  0  0  0  0  0
  -15.1818  -43.7393  -17.3357 C   0  0  0  0  0  0  0  0  0  0  0  0
  -16.2298  -42.8095  -16.6515 N   0  0  0  0  0  0  0  0  0  0  0  0
  -16.4504  -42.4359  -15.0676 S   0  0  0  0  0  0  0  0  0  0  0  0
  -17.7567  -41.8278  -14.9470 O   0  0  0  0  0  0  0  0  0  0  0  0
  -14.6062  -38.1288  -17.5988 C   0  0  0  0  0  0  0  0  0  0  0  0
  -12.4067  -41.5431  -19.4013 C   0  0  0  0  0  0  0  0  0  0  0  0
  -15.5156  -43.6110  -22.9380 O   0  0  0  0  0  0  0  0  0  0  0  0
  -14.3796  -43.2532  -23.7007 C   0  0  0  0  0  0  0  0  0  0  0  0
  -21.9663  -45.7509  -26.9279 O   0  0  0  0  0  0  0  0  0  0  0  0
  -15.4128  -43.5861  -21.5718 C   0  0  0  0  0  0  0  0  0  0  0  0
  -14.4522  -42.8268  -20.8910 C   0  0  0  0  0  0  0  0  0  0  0  0
  -14.3975  -42.8466  -19.4989 C   0  0  0  0  0  0  0  0  0  0  0  0
  -15.3159  -43.6374  -18.8005 C   0  0  0  0  0  0  0  0  0  0  0  0
  -16.2906  -44.3942  -19.4603 C   0  0  0  0  0  0  0  0  0  0  0  0
  -16.3607  -44.3605  -20.8587 C   0  0  0  0  0  0  0  0  0  0  0  0
  -13.3661  -39.2277  -14.3664 C   0  0  0  0  0  0  0  0  0  0  0  0
  -13.5498  -40.2212  -13.4052 C   0  0  0  0  0  0  0  0  0  0  0  0
  -14.5115  -41.1967  -13.6140 C   0  0  0  0  0  0  0  0  0  0  0  0
  -15.2820  -41.1562  -14.7811 C   0  0  0  0  0  0  0  0  0  0  0  0
  -15.1181  -40.1595  -15.7363 C   0  0  0  0  0  0  0  0  0  0  0  0
  -14.1429  -39.1954  -15.5312 C   0  0  0  0  0  0  0  0  0  0  0  0
  -17.6867  -46.5150  -21.3666 C   0  0  0  0  0  0  0  0  0  0  0  0
  -18.5272  -47.0123  -22.4081 C   0  0  0  0  0  0  0  0  0  0  0  0
  -18.8053  -46.0491  -23.3540 C   0  0  0  0  0  0  0  0  0  0  0  0
  -18.2996  -44.5136  -22.8348 S   0  0  0  0  0  0  0  0  0  0  0  0
  -17.3549  -45.1871  -21.5623 C   0  0  0  0  0  0  0  0  0  0  0  0
  -21.2453  -47.6827  -26.9087 H   0  0  0  0  0  0  0  0  0  0  0  0
  -20.2191  -46.4601  -27.6728 H   0  0  0  0  0  0  0  0  0  0  0  0
  -16.8381  -42.4062  -17.3572 H   0  0  0  0  0  0  0  0  0  0  0  0
  -15.6690  -37.9641  -17.3928 H   0  0  0  0  0  0  0  0  0  0  0  0
  -14.2468  -37.2742  -18.1804 H   0  0  0  0  0  0  0  0  0  0  0  0
  -14.4513  -39.0281  -18.2045 H   0  0  0  0  0  0  0  0  0  0  0  0
  -11.7272  -41.1572  -18.6355 H   0  0  0  0  0  0  0  0  0  0  0  0
  -11.8650  -42.2929  -19.9857 H   0  0  0  0  0  0  0  0  0  0  0  0
  -12.7126  -40.7018  -20.0314 H   0  0  0  0  0  0  0  0  0  0  0  0
  -14.1991  -42.1762  -23.6424 H   0  0  0  0  0  0  0  0  0  0  0  0
  -13.5058  -43.8374  -23.3977 H   0  0  0  0  0  0  0  0  0  0  0  0
  -14.5976  -43.4902  -24.7437 H   0  0  0  0  0  0  0  0  0  0  0  0
  -22.7381  -46.2071  -26.5270 H   0  0  0  0  0  0  0  0  0  0  0  0
  -13.7550  -42.2178  -21.4529 H   0  0  0  0  0  0  0  0  0  0  0  0
  -16.9796  -45.0114  -18.8898 H   0  0  0  0  0  0  0  0  0  0  0  0
  -12.6053  -38.4660  -14.2099 H   0  0  0  0  0  0  0  0  0  0  0  0
  -12.9379  -40.2342  -12.5073 H   0  0  0  0  0  0  0  0  0  0  0  0
  -14.6506  -41.9831  -12.8754 H   0  0  0  0  0  0  0  0  0  0  0  0
  -15.7469  -40.1596  -16.6173 H   0  0  0  0  0  0  0  0  0  0  0  0
  -17.2709  -47.1391  -20.5849 H   0  0  0  0  0  0  0  0  0  0  0  0
  -18.8420  -48.0455  -22.4922 H   0  0  0  0  0  0  0  0  0  0  0  0
  6 16  1  0
  6  5  1  0
  5  4  3  0
 14 15  1  0
  9  8  1  0
  9 10  1  0
  8  7  2  0
  2 10  2  0
 11 10  2  0
  1 13  1  0
 12  3  1  0
 17 22  2  0
 17 14  1  0
 17 18  1  0
 18 19  2  0
 19 20  1  0
 19  1  1  0
 20 21  2  0
 20  8  1  0
 21 22  1  0
 22 33  1  0
 23 28  2  0
 23 24  1  0
 24 25  2  0
 25 26  1  0
 26 10  1  0
 26 27  2  0
 27 28  1  0
 28  3  1  0
 29 30  1  0
 29 33  2  0
 30 31  2  0
 31  4  1  0
 31 32  1  0
 32 33  1  0
  6 34  1  0
  6 35  1  0
  9 36  1  0
 12 37  1  0
 12 38  1  0
 12 39  1  0
 13 40  1  0
 13 41  1  0
 13 42  1  0
 15 43  1  0
 15 44  1  0
 15 45  1  0
 16 46  1  0
 18 47  1  0
 21 48  1  0
 23 49  1  0
 24 50  1  0
 25 51  1  0
 27 52  1  0
 29 53  1  0
 30 54  1  0
M  END
>  <smiles>  (491) 
[H]OC([H])([H])C#Cc1sc(-c2c([H])c(C(=O)N([H])S(=O)(=O)c3c([H])c([H])c([H])c(OC([H])([H])[H])c3[H])c(OC([H])([H])[H])c([H])c2OC([H])([H])[H])c([H])c1[H]

>  <error>  (491) 


>  <∆∆G>  (491) 
-292.523648

>  <∆G_bound>  (491) 
-39.021177

>  <∆G_unbound>  (491) 
253.502471

>  <comRMSD>  (491) 
0.664851

>  <N_constrained_atoms>  (491) 
33.0

>  <N_unconstrained_atoms>  (491) 
0.0

>  <runtime>  (491) 
2.905276

>  <regarded>  (491) 
['5i3p-a', '5f3z-a']

>  <disregarded>  (491) 
[]

>  <LE>  (491) 
8.864353

>  <outcome>  (491) 
equally sized

>  <percent_hybrid>  (491) 
0.0

$$$$
LIG
     RDKit          3D

 54 56  0  0  0  0  0  0  0  0999 V2000
  -13.5327  -42.1078  -18.7394 O   0  0  0  0  0  0  0  0  0  0  0  0
  -15.9721  -43.5250  -14.2559 O   0  0  0  0  0  0  0  0  0  0  0  0
  -13.8502  -38.1805  -16.3953 O   0  0  0  0  0  0  0  0  0  0  0  0
  -19.4994  -46.2564  -24.5857 C   0  0  0  0  0  0  0  0  0  0  0  0
  -20.1299  -46.4248  -25.5949 C   0  0  0  0  0  0  0  0  0  0  0  0
  -20.8759  -46.6567  -26.8284 C   0  0  0  0  0  0  0  0  0  0  0  0
  -14.3685  -44.4380  -16.8674 O   0  0  0  0  0  0  0  0  0  0  0  0
  -15.1818  -43.7393  -17.3357 C   0  0  0  0  0  0  0  0  0  0  0  0
  -16.2298  -42.8095  -16.6515 N   0  0  0  0  0  0  0  0  0  0  0  0
  -16.4504  -42.4359  -15.0676 S   0  0  0  0  0  0  0  0  0  0  0  0
  -17.7567  -41.8278  -14.9470 O   0  0  0  0  0  0  0  0  0  0  0  0
  -14.6062  -38.1288  -17.5988 C   0  0  0  0  0  0  0  0  0  0  0  0
  -12.4067  -41.5431  -19.4013 C   0  0  0  0  0  0  0  0  0  0  0  0
  -15.5156  -43.6110  -22.9380 O   0  0  0  0  0  0  0  0  0  0  0  0
  -14.3796  -43.2532  -23.7007 C   0  0  0  0  0  0  0  0  0  0  0  0
  -21.9663  -45.7509  -26.9279 O   0  0  0  0  0  0  0  0  0  0  0  0
  -15.4128  -43.5861  -21.5718 C   0  0  0  0  0  0  0  0  0  0  0  0
  -14.4522  -42.8268  -20.8910 C   0  0  0  0  0  0  0  0  0  0  0  0
  -14.3975  -42.8466  -19.4989 C   0  0  0  0  0  0  0  0  0  0  0  0
  -15.3159  -43.6374  -18.8005 C   0  0  0  0  0  0  0  0  0  0  0  0
  -16.2906  -44.3942  -19.4603 C   0  0  0  0  0  0  0  0  0  0  0  0
  -16.3607  -44.3605  -20.8587 C   0  0  0  0  0  0  0  0  0  0  0  0
  -13.3661  -39.2277  -14.3664 C   0  0  0  0  0  0  0  0  0  0  0  0
  -13.5498  -40.2212  -13.4052 C   0  0  0  0  0  0  0  0  0  0  0  0
  -14.5115  -41.1967  -13.6140 C   0  0  0  0  0  0  0  0  0  0  0  0
  -15.2820  -41.1562  -14.7811 C   0  0  0  0  0  0  0  0  0  0  0  0
  -15.1181  -40.1595  -15.7363 C   0  0  0  0  0  0  0  0  0  0  0  0
  -14.1429  -39.1954  -15.5312 C   0  0  0  0  0  0  0  0  0  0  0  0
  -17.6867  -46.5150  -21.3666 C   0  0  0  0  0  0  0  0  0  0  0  0
  -18.5272  -47.0123  -22.4081 C   0  0  0  0  0  0  0  0  0  0  0  0
  -18.8053  -46.0491  -23.3540 C   0  0  0  0  0  0  0  0  0  0  0  0
  -18.2996  -44.5136  -22.8348 S   0  0  0  0  0  0  0  0  0  0  0  0
  -17.3549  -45.1871  -21.5623 C   0  0  0  0  0  0  0  0  0  0  0  0
  -21.2453  -47.6827  -26.9087 H   0  0  0  0  0  0  0  0  0  0  0  0
  -20.2191  -46.4601  -27.6728 H   0  0  0  0  0  0  0  0  0  0  0  0
  -16.8381  -42.4062  -17.3572 H   0  0  0  0  0  0  0  0  0  0  0  0
  -15.6690  -37.9641  -17.3928 H   0  0  0  0  0  0  0  0  0  0  0  0
  -14.2468  -37.2742  -18.1804 H   0  0  0  0  0  0  0  0  0  0  0  0
  -14.4513  -39.0281  -18.2045 H   0  0  0  0  0  0  0  0  0  0  0  0
  -11.7272  -41.1572  -18.6355 H   0  0  0  0  0  0  0  0  0  0  0  0
  -11.8650  -42.2929  -19.9857 H   0  0  0  0  0  0  0  0  0  0  0  0
  -12.7126  -40.7018  -20.0314 H   0  0  0  0  0  0  0  0  0  0  0  0
  -14.1991  -42.1762  -23.6424 H   0  0  0  0  0  0  0  0  0  0  0  0
  -13.5058  -43.8374  -23.3977 H   0  0  0  0  0  0  0  0  0  0  0  0
  -14.5976  -43.4902  -24.7437 H   0  0  0  0  0  0  0  0  0  0  0  0
  -22.7381  -46.2071  -26.5270 H   0  0  0  0  0  0  0  0  0  0  0  0
  -13.7550  -42.2178  -21.4529 H   0  0  0  0  0  0  0  0  0  0  0  0
  -16.9796  -45.0114  -18.8898 H   0  0  0  0  0  0  0  0  0  0  0  0
  -12.6053  -38.4660  -14.2099 H   0  0  0  0  0  0  0  0  0  0  0  0
  -12.9379  -40.2342  -12.5073 H   0  0  0  0  0  0  0  0  0  0  0  0
  -14.6506  -41.9831  -12.8754 H   0  0  0  0  0  0  0  0  0  0  0  0
  -15.7469  -40.1596  -16.6173 H   0  0  0  0  0  0  0  0  0  0  0  0
  -17.2709  -47.1391  -20.5849 H   0  0  0  0  0  0  0  0  0  0  0  0
  -18.8420  -48.0455  -22.4922 H   0  0  0  0  0  0  0  0  0  0  0  0
  6 16  1  0
  6  5  1  0
  5  4  3  0
 14 15  1  0
  9  8  1  0
  9 10  1  0
  8  7  2  0
  2 10  2  0
 11 10  2  0
  1 13  1  0
 12  3  1  0
 17 22  2  0
 17 14  1  0
 17 18  1  0
 18 19  2  0
 19 20  1  0
 19  1  1  0
 20 21  2  0
 20  8  1  0
 21 22  1  0
 22 33  1  0
 23 28  2  0
 23 24  1  0
 24 25  2  0
 25 26  1  0
 26 10  1  0
 26 27  2  0
 27 28  1  0
 28  3  1  0
 29 30  1  0
 29 33  2  0
 30 31  2  0
 31  4  1  0
 31 32  1  0
 32 33  1  0
  6 34  1  0
  6 35  1  0
  9 36  1  0
 12 37  1  0
 12 38  1  0
 12 39  1  0
 13 40  1  0
 13 41  1  0
 13 42  1  0
 15 43  1  0
 15 44  1  0
 15 45  1  0
 16 46  1  0
 18 47  1  0
 21 48  1  0
 23 49  1  0
 24 50  1  0
 25 51  1  0
 27 52  1  0
 29 53  1  0
 30 54  1  0
M  END
>  <smiles>  (492) 
[H]OC([H])([H])C#Cc1sc(-c2c([H])c(C(=O)N([H])S(=O)(=O)c3c([H])c([H])c([H])c(OC([H])([H])[H])c3[H])c(OC([H])([H])[H])c([H])c2OC([H])([H])[H])c([H])c1[H]

>  <error>  (492) 


>  <∆∆G>  (492) 
-292.523648

>  <∆G_bound>  (492) 
-39.021177

>  <∆G_unbound>  (492) 
253.502471

>  <comRMSD>  (492) 
0.664851

>  <N_constrained_atoms>  (492) 
33.0

>  <N_unconstrained_atoms>  (492) 
0.0

>  <runtime>  (492) 
2.882571

>  <regarded>  (492) 
['5i3p-a', '6h9r-a']

>  <disregarded>  (492) 
[]

>  <LE>  (492) 
8.864353

>  <outcome>  (492) 
equally sized

>  <percent_hybrid>  (492) 
0.0

$$$$
LIG
     RDKit          3D

 54 56  0  0  0  0  0  0  0  0999 V2000
  -13.5327  -42.1078  -18.7394 O   0  0  0  0  0  0  0  0  0  0  0  0
  -15.9721  -43.5250  -14.2559 O   0  0  0  0  0  0  0  0  0  0  0  0
  -13.8502  -38.1805  -16.3953 O   0  0  0  0  0  0  0  0  0  0  0  0
  -19.4994  -46.2564  -24.5857 C   0  0  0  0  0  0  0  0  0  0  0  0
  -20.1299  -46.4248  -25.5949 C   0  0  0  0  0  0  0  0  0  0  0  0
  -20.8759  -46.6567  -26.8284 C   0  0  0  0  0  0  0  0  0  0  0  0
  -14.3685  -44.4380  -16.8674 O   0  0  0  0  0  0  0  0  0  0  0  0
  -15.1818  -43.7393  -17.3357 C   0  0  0  0  0  0  0  0  0  0  0  0
  -16.2298  -42.8095  -16.6515 N   0  0  0  0  0  0  0  0  0  0  0  0
  -16.4504  -42.4359  -15.0676 S   0  0  0  0  0  0  0  0  0  0  0  0
  -17.7567  -41.8278  -14.9470 O   0  0  0  0  0  0  0  0  0  0  0  0
  -14.6062  -38.1288  -17.5988 C   0  0  0  0  0  0  0  0  0  0  0  0
  -12.4067  -41.5431  -19.4013 C   0  0  0  0  0  0  0  0  0  0  0  0
  -15.5156  -43.6110  -22.9380 O   0  0  0  0  0  0  0  0  0  0  0  0
  -14.3796  -43.2532  -23.7007 C   0  0  0  0  0  0  0  0  0  0  0  0
  -21.9663  -45.7509  -26.9279 O   0  0  0  0  0  0  0  0  0  0  0  0
  -15.4128  -43.5861  -21.5718 C   0  0  0  0  0  0  0  0  0  0  0  0
  -14.4522  -42.8268  -20.8910 C   0  0  0  0  0  0  0  0  0  0  0  0
  -14.3975  -42.8466  -19.4989 C   0  0  0  0  0  0  0  0  0  0  0  0
  -15.3159  -43.6374  -18.8005 C   0  0  0  0  0  0  0  0  0  0  0  0
  -16.2906  -44.3942  -19.4603 C   0  0  0  0  0  0  0  0  0  0  0  0
  -16.3607  -44.3605  -20.8587 C   0  0  0  0  0  0  0  0  0  0  0  0
  -13.3661  -39.2277  -14.3664 C   0  0  0  0  0  0  0  0  0  0  0  0
  -13.5498  -40.2212  -13.4052 C   0  0  0  0  0  0  0  0  0  0  0  0
  -14.5115  -41.1967  -13.6140 C   0  0  0  0  0  0  0  0  0  0  0  0
  -15.2820  -41.1562  -14.7811 C   0  0  0  0  0  0  0  0  0  0  0  0
  -15.1181  -40.1595  -15.7363 C   0  0  0  0  0  0  0  0  0  0  0  0
  -14.1429  -39.1954  -15.5312 C   0  0  0  0  0  0  0  0  0  0  0  0
  -17.6867  -46.5150  -21.3666 C   0  0  0  0  0  0  0  0  0  0  0  0
  -18.5272  -47.0123  -22.4081 C   0  0  0  0  0  0  0  0  0  0  0  0
  -18.8053  -46.0491  -23.3540 C   0  0  0  0  0  0  0  0  0  0  0  0
  -18.2996  -44.5136  -22.8348 S   0  0  0  0  0  0  0  0  0  0  0  0
  -17.3549  -45.1871  -21.5623 C   0  0  0  0  0  0  0  0  0  0  0  0
  -21.2453  -47.6827  -26.9087 H   0  0  0  0  0  0  0  0  0  0  0  0
  -20.2191  -46.4601  -27.6728 H   0  0  0  0  0  0  0  0  0  0  0  0
  -16.8381  -42.4062  -17.3572 H   0  0  0  0  0  0  0  0  0  0  0  0
  -15.6690  -37.9641  -17.3928 H   0  0  0  0  0  0  0  0  0  0  0  0
  -14.2468  -37.2742  -18.1804 H   0  0  0  0  0  0  0  0  0  0  0  0
  -14.4513  -39.0281  -18.2045 H   0  0  0  0  0  0  0  0  0  0  0  0
  -11.7272  -41.1572  -18.6355 H   0  0  0  0  0  0  0  0  0  0  0  0
  -11.8650  -42.2929  -19.9857 H   0  0  0  0  0  0  0  0  0  0  0  0
  -12.7126  -40.7018  -20.0314 H   0  0  0  0  0  0  0  0  0  0  0  0
  -14.1991  -42.1762  -23.6424 H   0  0  0  0  0  0  0  0  0  0  0  0
  -13.5058  -43.8374  -23.3977 H   0  0  0  0  0  0  0  0  0  0  0  0
  -14.5976  -43.4902  -24.7437 H   0  0  0  0  0  0  0  0  0  0  0  0
  -22.7381  -46.2071  -26.5270 H   0  0  0  0  0  0  0  0  0  0  0  0
  -13.7550  -42.2178  -21.4529 H   0  0  0  0  0  0  0  0  0  0  0  0
  -16.9796  -45.0114  -18.8898 H   0  0  0  0  0  0  0  0  0  0  0  0
  -12.6053  -38.4660  -14.2099 H   0  0  0  0  0  0  0  0  0  0  0  0
  -12.9379  -40.2342  -12.5073 H   0  0  0  0  0  0  0  0  0  0  0  0
  -14.6506  -41.9831  -12.8754 H   0  0  0  0  0  0  0  0  0  0  0  0
  -15.7469  -40.1596  -16.6173 H   0  0  0  0  0  0  0  0  0  0  0  0
  -17.2709  -47.1391  -20.5849 H   0  0  0  0  0  0  0  0  0  0  0  0
  -18.8420  -48.0455  -22.4922 H   0  0  0  0  0  0  0  0  0  0  0  0
  6 16  1  0
  6  5  1  0
  5  4  3  0
 14 15  1  0
  9  8  1  0
  9 10  1  0
  8  7  2  0
  2 10  2  0
 11 10  2  0
  1 13  1  0
 12  3  1  0
 17 22  2  0
 17 14  1  0
 17 18  1  0
 18 19  2  0
 19 20  1  0
 19  1  1  0
 20 21  2  0
 20  8  1  0
 21 22  1  0
 22 33  1  0
 23 28  2  0
 23 24  1  0
 24 25  2  0
 25 26  1  0
 26 10  1  0
 26 27  2  0
 27 28  1  0
 28  3  1  0
 29 30  1  0
 29 33  2  0
 30 31  2  0
 31  4  1  0
 31 32  1  0
 32 33  1  0
  6 34  1  0
  6 35  1  0
  9 36  1  0
 12 37  1  0
 12 38  1  0
 12 39  1  0
 13 40  1  0
 13 41  1  0
 13 42  1  0
 15 43  1  0
 15 44  1  0
 15 45  1  0
 16 46  1  0
 18 47  1  0
 21 48  1  0
 23 49  1  0
 24 50  1  0
 25 51  1  0
 27 52  1  0
 29 53  1  0
 30 54  1  0
M  END
>  <smiles>  (493) 
[H]OC([H])([H])C#Cc1sc(-c2c([H])c(C(=O)N([H])S(=O)(=O)c3c([H])c([H])c([H])c(OC([H])([H])[H])c3[H])c(OC([H])([H])[H])c([H])c2OC([H])([H])[H])c([H])c1[H]

>  <error>  (493) 


>  <∆∆G>  (493) 
-292.523648

>  <∆G_bound>  (493) 
-39.021177

>  <∆G_unbound>  (493) 
253.502471

>  <comRMSD>  (493) 
0.664851

>  <N_constrained_atoms>  (493) 
33.0

>  <N_unconstrained_atoms>  (493) 
0.0

>  <runtime>  (493) 
2.868134

>  <regarded>  (493) 
['5i3p-a', '5f3t-a']

>  <disregarded>  (493) 
[]

>  <LE>  (493) 
8.864353

>  <outcome>  (493) 
equally sized

>  <percent_hybrid>  (493) 
0.0

$$$$

     RDKit          2D

  0  0  0  0  0  0  0  0  0  0999 V2000
M  END
>  <smiles>  (494) 
nan

>  <error>  (494) 
DistanceError 5.20 Å

>  <∆∆G>  (494) 
nan

>  <∆G_bound>  (494) 
nan

>  <∆G_unbound>  (494) 
nan

>  <comRMSD>  (494) 
nan

>  <N_constrained_atoms>  (494) 
nan

>  <N_unconstrained_atoms>  (494) 
nan

>  <runtime>  (494) 
nan

>  <regarded>  (494) 
[]

>  <disregarded>  (494) 
[]

>  <LE>  (494) 
nan

>  <outcome>  (494) 
too distant

>  <percent_hybrid>  (494) 
nan

$$$$
LIG
     RDKit          3D

  0  0  0  0  0  0  0  0  0  0999 V3000
M  V30 BEGIN CTAB
M  V30 COUNTS 47 50 0 0 0
M  V30 BEGIN ATOM
M  V30 1 O -12.915000 -39.988998 -21.322001 0
M  V30 2 C -13.628000 -42.243999 -21.202999 0
M  V30 3 O -17.378000 -45.675999 -18.625999 0
M  V30 4 C -16.489000 -44.841000 -19.246000 0
M  V30 5 C -15.599000 -44.064999 -18.492001 0
M  V30 6 C -14.680000 -43.231998 -19.141001 0
M  V30 7 C -14.654000 -43.130001 -20.540001 0
M  V30 8 C -15.497000 -43.917999 -21.339001 0
M  V30 9 C -16.443001 -44.769001 -20.743000 0
M  V30 10 C -18.603001 -47.646999 -22.007000 0
M  V30 11 C -17.684000 -46.908001 -21.254000 0
M  V30 12 C -17.409000 -45.562000 -21.568001 0
M  V30 13 C -18.075001 -44.958000 -22.642000 0
M  V30 14 C -18.973000 -45.709000 -23.403000 0
M  V30 15 C -19.254999 -47.042999 -23.087000 0
M  V30 16 C -14.359000 -41.472000 -22.761000 0
M  V30 17 C -13.478000 -40.689999 -21.993000 0
M  V30 18 N -13.213000 -39.522999 -22.573999 0
M  V30 19 N -13.928000 -39.542000 -23.735001 0
M  V30 20 C -14.631000 -40.687000 -23.893000 0
M  V30 21 C -16.445000 -41.923000 -25.089001 0
M  V30 22 C -15.488000 -40.911999 -25.076000 0
M  V30 23 C -15.379000 -40.103001 -26.198999 0
M  V30 24 C -16.228001 -40.327000 -27.266001 0
M  V30 25 N -17.155001 -41.291000 -27.292000 0
M  V30 26 C -17.240000 -42.071999 -26.209000 0
M  V30 27 O -15.092000 -40.324001 -21.309999 0
M  V30 28 C -14.003500 -40.156502 -21.316000 0
M  V30 29 H -12.882667 -42.145893 -20.399971 0
M  V30 30 H -13.739710 -42.766609 -22.164457 0
M  V30 31 H -17.416443 -45.712105 -17.637405 0
M  V30 32 H -15.622280 -44.110146 -17.393173 0
M  V30 33 H -13.965465 -42.646942 -18.543381 0
M  V30 34 H -15.416857 -43.869213 -22.434992 0
M  V30 35 H -18.811413 -48.696358 -21.751242 0
M  V30 36 H -17.169569 -47.383751 -20.406048 0
M  V30 37 H -17.892073 -43.900646 -22.883947 0
M  V30 38 H -19.468428 -45.243206 -24.267632 0
M  V30 39 H -19.983591 -47.611877 -23.683266 0
M  V30 40 H -14.747898 -42.474075 -22.527323 0
M  V30 41 H -16.565941 -42.590923 -24.223406 0
M  V30 42 H -14.630236 -39.298153 -26.238676 0
M  V30 43 H -16.136074 -39.673790 -28.146267 0
M  V30 44 H -17.986483 -42.879936 -26.210447 0
M  V30 45 H -15.576617 -40.398575 -20.449949 0
M  V30 46 H -13.053500 -39.206501 -20.365999 0
M  V30 47 H -13.043500 -39.196499 -20.356001 0
M  V30 END ATOM
M  V30 BEGIN BOND
M  V30 1 1 4 3
M  V30 2 2 4 9
M  V30 3 1 4 5
M  V30 4 2 5 6
M  V30 5 1 6 7
M  V30 6 2 7 8
M  V30 7 1 7 2
M  V30 8 1 8 9
M  V30 9 1 9 12
M  V30 10 2 10 15
M  V30 11 1 10 11
M  V30 12 2 11 12
M  V30 13 1 12 13
M  V30 14 2 13 14
M  V30 15 1 14 15
M  V30 16 2 16 17
M  V30 17 1 16 20
M  V30 18 1 17 18
M  V30 19 1 18 19
M  V30 20 2 19 20
M  V30 21 1 20 22
M  V30 22 2 21 26
M  V30 23 1 21 22
M  V30 24 2 22 23
M  V30 25 1 23 24
M  V30 26 2 24 25
M  V30 27 1 25 26
M  V30 28 1 17 2
M  V30 29 1 1 18
M  V30 30 1 28 1
M  V30 31 1 28 27
M  V30 32 1 2 29
M  V30 33 1 2 30
M  V30 34 1 3 31
M  V30 35 1 5 32
M  V30 36 1 6 33
M  V30 37 1 8 34
M  V30 38 1 10 35
M  V30 39 1 11 36
M  V30 40 1 13 37
M  V30 41 1 14 38
M  V30 42 1 15 39
M  V30 43 1 16 40
M  V30 44 1 21 41
M  V30 45 1 23 42
M  V30 46 1 24 43
M  V30 47 1 26 44
M  V30 48 1 27 45
M  V30 49 1 28 46
M  V30 50 1 28 47
M  V30 END BOND
M  V30 BEGIN COLLECTION
M  V30 MDLV30/STEABS ATOMS=(0)
M  V30 END COLLECTION
M  V30 END CTAB
M  END
>  <smiles>  (495) 
[H]Oc1c([H])c([H])c(C([H])([H])c2c([H])c(-c3c([H])c([H])nc([H])c3[H])nn2OC([H])([H])O[H])c([H])c1-c1c([H])c([H])c([H])c([H])c1[H]

>  <error>  (495) 


>  <∆∆G>  (495) 
nan

>  <∆G_bound>  (495) 
nan

>  <∆G_unbound>  (495) 
nan

>  <comRMSD>  (495) 
0.0

>  <N_constrained_atoms>  (495) 
27.0

>  <N_unconstrained_atoms>  (495) 
1.0

>  <runtime>  (495) 
1.604888

>  <regarded>  (495) 
['5hn0-a', 'd0160a']

>  <disregarded>  (495) 
[]

>  <LE>  (495) 
nan

>  <outcome>  (495) 
crashed

>  <percent_hybrid>  (495) 
41.0

$$$$
LIG
     RDKit          3D

 54 57  0  0  0  0  0  0  0  0999 V2000
  -11.4631  -41.8156  -20.4033 O   0  0  0  0  0  0  0  0  0  0  0  0
  -12.3517  -42.1499  -18.3960 O   0  0  0  0  0  0  0  0  0  0  0  0
  -12.3786  -42.4014  -19.5918 C   0  0  0  0  0  0  0  0  0  0  0  0
  -13.2815  -43.4118  -20.3247 C   0  0  1  0  0  0  0  0  0  0  0  0
  -18.2665  -45.1581  -18.2582 O   0  0  0  0  0  0  0  0  0  0  0  0
  -17.1026  -44.6915  -18.7993 C   0  0  0  0  0  0  0  0  0  0  0  0
  -16.2486  -43.9849  -17.9513 C   0  0  0  0  0  0  0  0  0  0  0  0
  -15.0084  -43.5341  -18.4024 C   0  0  0  0  0  0  0  0  0  0  0  0
  -14.6077  -43.8044  -19.7057 C   0  0  0  0  0  0  0  0  0  0  0  0
  -15.4896  -44.5272  -20.5319 C   0  0  0  0  0  0  0  0  0  0  0  0
  -16.7603  -44.9216  -20.1263 C   0  0  0  0  0  0  0  0  0  0  0  0
  -18.5093  -47.5006  -22.1933 C   0  0  0  0  0  0  0  0  0  0  0  0
  -17.8747  -46.9022  -21.1144 C   0  0  0  0  0  0  0  0  0  0  0  0
  -17.6122  -45.5349  -21.1374 C   0  0  0  0  0  0  0  0  0  0  0  0
  -18.0528  -44.7701  -22.2329 C   0  0  0  0  0  0  0  0  0  0  0  0
  -18.6584  -45.3762  -23.3260 C   0  0  0  0  0  0  0  0  0  0  0  0
  -18.8422  -46.7529  -23.3203 C   0  0  0  0  0  0  0  0  0  0  0  0
  -15.5108  -39.9417  -26.4123 C   0  0  0  0  0  0  0  0  0  0  0  0
  -14.6596  -40.6490  -24.1728 C   0  0  0  0  0  0  0  0  0  0  0  0
  -14.7426  -41.7478  -23.3422 C   0  0  0  0  0  0  0  0  0  0  0  0
  -15.4889  -42.7246  -24.0698 C   0  0  0  0  0  0  0  0  0  0  0  0
  -15.8748  -42.1653  -25.2720 C   0  0  0  0  0  0  0  0  0  0  0  0
  -15.3702  -40.8932  -25.3163 N   0  0  0  0  0  0  0  0  0  0  0  0
  -17.6959  -38.8828  -27.0908 C   0  0  0  0  0  0  0  0  0  0  0  0
  -16.6489  -38.9807  -26.1798 C   0  0  0  0  0  0  0  0  0  0  0  0
  -16.6955  -38.1231  -25.0747 C   0  0  0  0  0  0  0  0  0  0  0  0
  -17.7665  -37.2515  -24.9092 C   0  0  0  0  0  0  0  0  0  0  0  0
  -18.7627  -37.2506  -25.8692 C   0  0  0  0  0  0  0  0  0  0  0  0
  -18.7544  -38.0391  -26.9680 N   0  0  0  0  0  0  0  0  0  0  0  0
  -13.4970  -43.0714  -21.7474 N   0  0  0  0  0  0  0  0  0  0  0  0
  -14.1701  -41.8036  -21.9557 C   0  0  0  0  0  0  0  0  0  0  0  0
  -10.7430  -41.5559  -19.7844 H   0  0  0  0  0  0  0  0  0  0  0  0
  -12.6972  -44.3414  -20.3172 H   0  0  0  0  0  0  0  0  0  0  0  0
  -18.8668  -45.3740  -18.9959 H   0  0  0  0  0  0  0  0  0  0  0  0
  -16.5525  -43.7601  -16.9309 H   0  0  0  0  0  0  0  0  0  0  0  0
  -14.3840  -42.9831  -17.7051 H   0  0  0  0  0  0  0  0  0  0  0  0
  -15.1803  -44.7693  -21.5517 H   0  0  0  0  0  0  0  0  0  0  0  0
  -18.6940  -48.5673  -22.1844 H   0  0  0  0  0  0  0  0  0  0  0  0
  -17.5289  -47.5170  -20.2906 H   0  0  0  0  0  0  0  0  0  0  0  0
  -17.8594  -43.6983  -22.2603 H   0  0  0  0  0  0  0  0  0  0  0  0
  -18.9488  -44.7820  -24.1862 H   0  0  0  0  0  0  0  0  0  0  0  0
  -19.2657  -47.2534  -24.1882 H   0  0  0  0  0  0  0  0  0  0  0  0
  -14.5646  -39.3992  -26.5127 H   0  0  0  0  0  0  0  0  0  0  0  0
  -15.6563  -40.5239  -27.3300 H   0  0  0  0  0  0  0  0  0  0  0  0
  -14.1560  -39.7036  -24.0238 H   0  0  0  0  0  0  0  0  0  0  0  0
  -15.7088  -43.7321  -23.7444 H   0  0  0  0  0  0  0  0  0  0  0  0
  -16.4369  -42.5819  -26.0962 H   0  0  0  0  0  0  0  0  0  0  0  0
  -17.7134  -39.4968  -27.9874 H   0  0  0  0  0  0  0  0  0  0  0  0
  -15.9020  -38.1246  -24.3334 H   0  0  0  0  0  0  0  0  0  0  0  0
  -17.8202  -36.5907  -24.0513 H   0  0  0  0  0  0  0  0  0  0  0  0
  -19.6203  -36.5903  -25.7760 H   0  0  0  0  0  0  0  0  0  0  0  0
  -12.5803  -43.1088  -22.1876 H   0  0  0  0  0  0  0  0  0  0  0  0
  -15.0053  -41.6562  -21.2606 H   0  0  0  0  0  0  0  0  0  0  0  0
  -13.4770  -40.9680  -21.8062 H   0  0  0  0  0  0  0  0  0  0  0  0
  4  3  1  0
  2  3  2  0
  3  1  1  0
  6  5  1  0
  6 11  2  0
  6  7  1  0
  7  8  2  0
  8  9  1  0
  9 10  2  0
  9  4  1  0
 10 11  1  0
 11 14  1  0
 12 17  2  0
 12 13  1  0
 13 14  2  0
 14 15  1  0
 15 16  2  0
 16 17  1  0
 19 20  2  0
 19 23  1  0
 20 21  1  0
 21 22  2  0
 22 23  1  0
 23 18  1  0
 24 29  2  0
 24 25  1  0
 25 18  1  0
 25 26  2  0
 26 27  1  0
 27 28  2  0
 28 29  1  0
 30  4  1  0
 31 30  1  0
 31 20  1  0
  1 32  1  0
  4 33  1  6
  5 34  1  0
  7 35  1  0
  8 36  1  0
 10 37  1  0
 12 38  1  0
 13 39  1  0
 15 40  1  0
 16 41  1  0
 17 42  1  0
 18 43  1  0
 18 44  1  0
 19 45  1  0
 21 46  1  0
 22 47  1  0
 24 48  1  0
 26 49  1  0
 27 50  1  0
 28 51  1  0
 30 52  1  0
 31 53  1  0
 31 54  1  0
M  END
>  <smiles>  (496) 
[H]OC(=O)[C@@]([H])(c1c([H])c([H])c(O[H])c(-c2c([H])c([H])c([H])c([H])c2[H])c1[H])N([H])C([H])([H])c1c([H])c([H])n(C([H])([H])c2c([H])nc([H])c([H])c2[H])c1[H]

>  <error>  (496) 


>  <∆∆G>  (496) 
-133.948715

>  <∆G_bound>  (496) 
358.403484

>  <∆G_unbound>  (496) 
492.352199

>  <comRMSD>  (496) 
1.29852

>  <N_constrained_atoms>  (496) 
29.0

>  <N_unconstrained_atoms>  (496) 
2.0

>  <runtime>  (496) 
3.789344

>  <regarded>  (496) 
['5hn0-a', 'd0191a']

>  <disregarded>  (496) 
[]

>  <LE>  (496) 
4.320926

>  <outcome>  (496) 
too moved

>  <percent_hybrid>  (496) 
42.0

$$$$
LIG
     RDKit          3D

 56 59  0  0  0  0  0  0  0  0999 V2000
  -11.7437  -40.7717  -21.0110 O   0  0  0  0  0  0  0  0  0  0  0  0
  -12.9002  -40.4154  -19.1411 O   0  0  0  0  0  0  0  0  0  0  0  0
  -12.5936  -41.1752  -20.0457 C   0  0  0  0  0  0  0  0  0  0  0  0
  -13.0273  -42.6063  -20.2205 C   0  0  0  0  0  0  0  0  0  0  0  0
  -16.5363  -44.2771  -23.0102 N   0  0  0  0  0  0  0  0  0  0  0  0
  -15.2184  -39.7176  -26.0553 C   0  0  0  0  0  0  0  0  0  0  0  0
  -16.8586  -44.0160  -18.7720 C   0  0  0  0  0  0  0  0  0  0  0  0
  -16.0340  -43.2709  -17.7749 C   0  0  0  0  0  0  0  0  0  0  0  0
  -14.5941  -42.9927  -18.2393 C   0  0  0  0  0  0  0  0  0  0  0  0
  -14.4721  -42.8516  -19.7683 C   0  0  2  0  0  0  0  0  0  0  0  0
  -15.0168  -44.1367  -20.4172 C   0  0  0  0  0  0  0  0  0  0  0  0
  -16.4356  -44.3645  -19.9936 C   0  0  0  0  0  0  0  0  0  0  0  0
  -18.4695  -47.1709  -21.7200 C   0  0  0  0  0  0  0  0  0  0  0  0
  -17.3626  -46.4863  -20.9259 C   0  0  0  0  0  0  0  0  0  0  0  0
  -17.5491  -44.9578  -20.8347 C   0  0  2  0  0  0  0  0  0  0  0  0
  -17.7655  -44.2834  -22.2293 C   0  0  2  0  0  0  0  0  0  0  0  0
  -18.8841  -45.0038  -23.0022 C   0  0  0  0  0  0  0  0  0  0  0  0
  -18.6502  -46.5081  -23.0698 C   0  0  0  0  0  0  0  0  0  0  0  0
  -18.2840  -44.3736  -18.5456 C   0  0  0  0  0  0  0  0  0  0  0  0
  -18.7939  -44.6118  -19.9558 C   0  0  0  0  0  0  0  0  0  0  0  0
  -16.6262  -43.0829  -25.0905 C   0  0  0  0  0  0  0  0  0  0  0  0
  -16.2607  -43.1390  -23.7552 C   0  0  0  0  0  0  0  0  0  0  0  0
  -15.6317  -42.1145  -23.1557 N   0  0  0  0  0  0  0  0  0  0  0  0
  -15.3025  -41.0457  -23.9188 C   0  0  0  0  0  0  0  0  0  0  0  0
  -15.6245  -40.9153  -25.2629 C   0  0  0  0  0  0  0  0  0  0  0  0
  -16.3030  -41.9701  -25.8553 C   0  0  0  0  0  0  0  0  0  0  0  0
  -11.4751  -39.8703  -20.7405 H   0  0  0  0  0  0  0  0  0  0  0  0
  -12.9425  -42.8425  -21.2876 H   0  0  0  0  0  0  0  0  0  0  0  0
  -12.3313  -43.2465  -19.6733 H   0  0  0  0  0  0  0  0  0  0  0  0
  -16.2602  -45.1346  -23.4629 H   0  0  0  0  0  0  0  0  0  0  0  0
  -15.3843  -38.8069  -25.4721 H   0  0  0  0  0  0  0  0  0  0  0  0
  -14.1643  -39.7830  -26.3360 H   0  0  0  0  0  0  0  0  0  0  0  0
  -15.8140  -39.6267  -26.9700 H   0  0  0  0  0  0  0  0  0  0  0  0
  -16.5258  -42.3092  -17.5819 H   0  0  0  0  0  0  0  0  0  0  0  0
  -16.0043  -43.8080  -16.8223 H   0  0  0  0  0  0  0  0  0  0  0  0
  -14.2274  -42.0949  -17.7300 H   0  0  0  0  0  0  0  0  0  0  0  0
  -13.9523  -43.8139  -17.9006 H   0  0  0  0  0  0  0  0  0  0  0  0
  -15.0893  -42.0007  -20.0909 H   0  0  0  0  0  0  0  0  0  0  0  0
  -14.8794  -44.0722  -21.4898 H   0  0  0  0  0  0  0  0  0  0  0  0
  -14.4216  -45.0026  -20.0998 H   0  0  0  0  0  0  0  0  0  0  0  0
  -19.4082  -47.1618  -21.1605 H   0  0  0  0  0  0  0  0  0  0  0  0
  -18.2036  -48.2221  -21.8684 H   0  0  0  0  0  0  0  0  0  0  0  0
  -17.3168  -46.9345  -19.9253 H   0  0  0  0  0  0  0  0  0  0  0  0
  -16.3969  -46.7080  -21.3956 H   0  0  0  0  0  0  0  0  0  0  0  0
  -18.0802  -43.2421  -22.0684 H   0  0  0  0  0  0  0  0  0  0  0  0
  -19.8408  -44.7966  -22.5111 H   0  0  0  0  0  0  0  0  0  0  0  0
  -18.9692  -44.6062  -24.0198 H   0  0  0  0  0  0  0  0  0  0  0  0
  -17.7334  -46.6622  -23.6021 H   0  0  0  0  0  0  0  0  0  0  0  0
  -19.3983  -47.0186  -23.6764 H   0  0  0  0  0  0  0  0  0  0  0  0
  -18.8441  -43.5700  -18.0592 H   0  0  0  0  0  0  0  0  0  0  0  0
  -18.3772  -45.2900  -17.9625 H   0  0  0  0  0  0  0  0  0  0  0  0
  -19.5742  -45.3783  -19.9613 H   0  0  0  0  0  0  0  0  0  0  0  0
  -19.2776  -43.6869  -20.2998 H   0  0  0  0  0  0  0  0  0  0  0  0
  -17.1457  -43.9085  -25.5426 H   0  0  0  0  0  0  0  0  0  0  0  0
  -14.7535  -40.2692  -23.3936 H   0  0  0  0  0  0  0  0  0  0  0  0
  -16.5548  -41.9437  -26.9104 H   0  0  0  0  0  0  0  0  0  0  0  0
  4  3  1  0
  2  3  2  0
  3  1  1  0
  7 12  2  0
  7  8  1  0
  8  9  1  0
  9 10  1  0
 10 11  1  0
 10  4  1  0
 11 12  1  0
 12 15  1  0
 13 18  1  0
 13 14  1  0
 15 14  1  6
 15 16  1  0
 16 17  1  0
 17 18  1  0
 19 20  1  0
 21 26  2  0
 21 22  1  0
 22  5  1  0
 22 23  2  0
 23 24  1  0
 24 25  2  0
 25  6  1  0
 25 26  1  0
  7 19  1  0
 15 20  1  0
 16  5  1  0
  1 27  1  0
  4 28  1  0
  4 29  1  0
  5 30  1  0
  6 31  1  0
  6 32  1  0
  6 33  1  0
  8 34  1  0
  8 35  1  0
  9 36  1  0
  9 37  1  0
 10 38  1  6
 11 39  1  0
 11 40  1  0
 13 41  1  0
 13 42  1  0
 14 43  1  0
 14 44  1  0
 16 45  1  1
 17 46  1  0
 17 47  1  0
 18 48  1  0
 18 49  1  0
 19 50  1  0
 19 51  1  0
 20 52  1  0
 20 53  1  0
 21 54  1  0
 24 55  1  0
 26 56  1  0
M  END
>  <smiles>  (497) 
[H]OC(=O)C([H])([H])[C@@]1([H])C([H])([H])C2=C(C([H])([H])C1([H])[H])C([H])([H])C([H])([H])[C@]21C([H])([H])C([H])([H])C([H])([H])C([H])([H])[C@]1([H])N([H])c1nc([H])c(C([H])([H])[H])c([H])c1[H]

>  <error>  (497) 


>  <∆∆G>  (497) 
-52.574225

>  <∆G_bound>  (497) 
105.443664

>  <∆G_unbound>  (497) 
158.017889

>  <comRMSD>  (497) 
1.087193

>  <N_constrained_atoms>  (497) 
26.0

>  <N_unconstrained_atoms>  (497) 
0.0

>  <runtime>  (497) 
4.551262

>  <regarded>  (497) 
['5hn0-a', 'd0254a']

>  <disregarded>  (497) 
[]

>  <LE>  (497) 
2.022086

>  <outcome>  (497) 
too moved

>  <percent_hybrid>  (497) 
39.0

$$$$
LIG
     RDKit          3D

 64 66  0  0  0  0  0  0  0  0999 V2000
  -14.2385  -39.7877  -23.1007 O   0  0  0  0  0  0  0  0  0  0  0  0
  -16.1728  -40.6478  -22.4066 O   0  0  0  0  0  0  0  0  0  0  0  0
  -14.9597  -40.5895  -22.2843 C   0  0  0  0  0  0  0  0  0  0  0  0
  -14.0785  -41.3023  -21.2840 C   0  0  0  0  0  0  0  0  0  0  0  0
  -15.9590  -45.7905  -18.3930 O   0  0  0  0  0  0  0  0  0  0  0  0
  -23.0889  -46.4303  -18.3518 O   0  0  0  0  0  0  0  0  0  0  0  0
  -22.3995  -46.1740  -17.4474 C   0  0  0  0  0  0  0  0  0  0  0  0
  -22.3310  -47.0458  -16.1945 C   0  0  0  0  0  0  0  0  0  0  0  0
  -23.1627  -46.4113  -15.0863 C   0  0  0  0  0  0  0  0  0  0  0  0
  -22.8517  -48.4455  -16.5109 C   0  0  0  0  0  0  0  0  0  0  0  0
  -21.4498  -44.9742  -17.2192 N   0  0  0  0  0  0  0  0  0  0  0  0
  -21.0778  -43.8814  -18.1061 C   0  0  1  0  0  0  0  0  0  0  0  0
  -21.4431  -42.5757  -17.4017 C   0  0  0  0  0  0  0  0  0  0  0  0
  -20.0672  -42.1009  -20.3942 C   0  0  0  0  0  0  0  0  0  0  0  0
  -15.6483  -44.6729  -19.1199 C   0  0  0  0  0  0  0  0  0  0  0  0
  -14.7777  -43.7846  -18.5002 C   0  0  0  0  0  0  0  0  0  0  0  0
  -14.3067  -42.6774  -19.1946 C   0  0  0  0  0  0  0  0  0  0  0  0
  -14.7084  -42.4462  -20.5139 C   0  0  0  0  0  0  0  0  0  0  0  0
  -15.6052  -43.3478  -21.1131 C   0  0  0  0  0  0  0  0  0  0  0  0
  -16.1347  -44.4515  -20.4192 C   0  0  0  0  0  0  0  0  0  0  0  0
  -19.0840  -46.8953  -20.8816 C   0  0  0  0  0  0  0  0  0  0  0  0
  -18.5859  -45.5089  -20.4484 C   0  0  2  0  0  0  0  0  0  0  0  0
  -17.1345  -45.4022  -21.0651 C   0  0  1  0  0  0  0  0  0  0  0  0
  -17.2957  -45.2719  -22.6188 C   0  0  0  0  0  0  0  0  0  0  0  0
  -18.4768  -46.0940  -23.1706 C   0  0  0  0  0  0  0  0  0  0  0  0
  -18.7389  -47.3002  -22.3033 C   0  0  0  0  0  0  0  0  0  0  0  0
  -19.5831  -43.8584  -18.5283 C   0  0  1  0  0  0  0  0  0  0  0  0
  -18.8021  -45.5190  -18.6084 S   0  0  0  0  0  0  0  0  0  0  0  0
  -19.4736  -44.4164  -20.8713 N   0  0  0  0  0  0  0  0  0  0  0  0
  -19.2782  -43.3100  -19.9324 C   0  0  1  0  0  0  0  0  0  0  0  0
  -14.8915  -39.4298  -23.7390 H   0  0  0  0  0  0  0  0  0  0  0  0
  -13.2100  -41.7073  -21.8136 H   0  0  0  0  0  0  0  0  0  0  0  0
  -13.7292  -40.5368  -20.5805 H   0  0  0  0  0  0  0  0  0  0  0  0
  -16.8770  -46.0319  -18.6125 H   0  0  0  0  0  0  0  0  0  0  0  0
  -21.2855  -47.1304  -15.8794 H   0  0  0  0  0  0  0  0  0  0  0  0
  -23.1393  -47.0275  -14.1863 H   0  0  0  0  0  0  0  0  0  0  0  0
  -22.7865  -45.4186  -14.8185 H   0  0  0  0  0  0  0  0  0  0  0  0
  -24.2086  -46.2933  -15.3915 H   0  0  0  0  0  0  0  0  0  0  0  0
  -22.2382  -48.9321  -17.2745 H   0  0  0  0  0  0  0  0  0  0  0  0
  -22.8487  -49.0705  -15.6171 H   0  0  0  0  0  0  0  0  0  0  0  0
  -23.8801  -48.4164  -16.8843 H   0  0  0  0  0  0  0  0  0  0  0  0
  -21.0608  -45.0223  -16.2795 H   0  0  0  0  0  0  0  0  0  0  0  0
  -21.7106  -44.0010  -18.9928 H   0  0  0  0  0  0  0  0  0  0  0  0
  -22.5091  -42.5643  -17.1461 H   0  0  0  0  0  0  0  0  0  0  0  0
  -20.8870  -42.4630  -16.4638 H   0  0  0  0  0  0  0  0  0  0  0  0
  -21.2450  -41.6948  -18.0151 H   0  0  0  0  0  0  0  0  0  0  0  0
  -21.1362  -42.2480  -20.2868 H   0  0  0  0  0  0  0  0  0  0  0  0
  -19.7932  -41.2228  -19.7991 H   0  0  0  0  0  0  0  0  0  0  0  0
  -19.8553  -41.8567  -21.4412 H   0  0  0  0  0  0  0  0  0  0  0  0
  -14.4471  -43.9576  -17.4803 H   0  0  0  0  0  0  0  0  0  0  0  0
  -13.5934  -42.0149  -18.7083 H   0  0  0  0  0  0  0  0  0  0  0  0
  -15.8764  -43.1699  -22.1493 H   0  0  0  0  0  0  0  0  0  0  0  0
  -20.1424  -47.0118  -20.6714 H   0  0  0  0  0  0  0  0  0  0  0  0
  -18.5749  -47.6343  -20.2678 H   0  0  0  0  0  0  0  0  0  0  0  0
  -16.6488  -46.3822  -20.9233 H   0  0  0  0  0  0  0  0  0  0  0  0
  -17.4565  -44.2348  -22.9332 H   0  0  0  0  0  0  0  0  0  0  0  0
  -16.3538  -45.5801  -23.0795 H   0  0  0  0  0  0  0  0  0  0  0  0
  -19.3622  -45.4572  -23.2368 H   0  0  0  0  0  0  0  0  0  0  0  0
  -18.3455  -46.4192  -24.1963 H   0  0  0  0  0  0  0  0  0  0  0  0
  -17.8419  -47.9224  -22.2489 H   0  0  0  0  0  0  0  0  0  0  0  0
  -19.4902  -47.9633  -22.7311 H   0  0  0  0  0  0  0  0  0  0  0  0
  -19.0065  -43.2852  -17.7927 H   0  0  0  0  0  0  0  0  0  0  0  0
  -19.2632  -44.0907  -21.8075 H   0  0  0  0  0  0  0  0  0  0  0  0
  -18.2336  -42.9823  -19.9579 H   0  0  0  0  0  0  0  0  0  0  0  0
  4  3  1  0
  2  3  2  0
  3  1  1  0
 10  8  1  0
  9  8  1  0
  8  7  1  0
  7  6  2  0
 11  7  1  0
 12 11  1  0
 12 13  1  0
 15  5  1  0
 15 20  2  0
 15 16  1  0
 16 17  2  0
 17 18  1  0
 18 19  2  0
 18  4  1  0
 19 20  1  0
 20 23  1  0
 21 26  1  0
 21 22  1  0
 22 23  1  0
 23 24  1  0
 24 25  1  0
 25 26  1  0
 27 12  1  0
 27 28  1  0
 27 30  1  0
 29 30  1  0
 30 14  1  0
 22 28  1  6
 22 29  1  0
  1 31  1  0
  4 32  1  0
  4 33  1  0
  5 34  1  0
  8 35  1  0
  9 36  1  0
  9 37  1  0
  9 38  1  0
 10 39  1  0
 10 40  1  0
 10 41  1  0
 11 42  1  0
 12 43  1  6
 13 44  1  0
 13 45  1  0
 13 46  1  0
 14 47  1  0
 14 48  1  0
 14 49  1  0
 16 50  1  0
 17 51  1  0
 19 52  1  0
 21 53  1  0
 21 54  1  0
 23 55  1  6
 24 56  1  0
 24 57  1  0
 25 58  1  0
 25 59  1  0
 26 60  1  0
 26 61  1  0
 27 62  1  1
 29 63  1  0
 30 64  1  1
M  END
>  <smiles>  (498) 
[H]OC(=O)C([H])([H])c1c([H])c([H])c(O[H])c([C@]2([H])C([H])([H])C([H])([H])C([H])([H])C([H])([H])[C@]23S[C@]([H])([C@@]([H])(N([H])C(=O)C([H])(C([H])([H])[H])C([H])([H])[H])C([H])([H])[H])[C@]([H])(C([H])([H])[H])N3[H])c1[H]

>  <error>  (498) 


>  <∆∆G>  (498) 
-55.934323

>  <∆G_bound>  (498) 
211.364561

>  <∆G_unbound>  (498) 
267.298884

>  <comRMSD>  (498) 
1.054353

>  <N_constrained_atoms>  (498) 
30.0

>  <N_unconstrained_atoms>  (498) 
0.0

>  <runtime>  (498) 
37.850205

>  <regarded>  (498) 
['5hn0-a', 'd0264a']

>  <disregarded>  (498) 
[]

>  <LE>  (498) 
1.864477

>  <outcome>  (498) 
too moved

>  <percent_hybrid>  (498) 
44.0

$$$$
LIG
     RDKit          3D

 31 32  0  0  0  0  0  0  0  0999 V2000
  -14.6011  -40.3349  -20.3887 O   0  0  0  0  0  0  0  0  0  0  0  0
  -13.2200  -40.5060  -22.1234 O   0  0  0  0  0  0  0  0  0  0  0  0
  -13.6731  -41.0038  -21.1034 C   0  0  0  0  0  0  0  0  0  0  0  0
  -13.2231  -42.2959  -20.4748 C   0  0  0  0  0  0  0  0  0  0  0  0
  -17.5652  -45.3158  -18.4092 O   0  0  0  0  0  0  0  0  0  0  0  0
  -14.9601  -43.7919  -22.2883 N   0  0  0  0  0  0  0  0  0  0  0  0
  -16.5173  -44.6430  -18.9925 C   0  0  0  0  0  0  0  0  0  0  0  0
  -15.6665  -43.9815  -18.1170 C   0  0  0  0  0  0  0  0  0  0  0  0
  -14.6054  -43.2403  -18.6198 C   0  0  0  0  0  0  0  0  0  0  0  0
  -14.3594  -43.1785  -20.0007 C   0  0  0  0  0  0  0  0  0  0  0  0
  -15.1766  -43.9115  -20.8926 C   0  0  0  0  0  0  0  0  0  0  0  0
  -16.3193  -44.6058  -20.3902 C   0  0  0  0  0  0  0  0  0  0  0  0
  -18.2569  -47.3711  -22.0839 C   0  0  0  0  0  0  0  0  0  0  0  0
  -17.4715  -46.6885  -21.1636 C   0  0  0  0  0  0  0  0  0  0  0  0
  -17.2436  -45.3114  -21.3028 C   0  0  0  0  0  0  0  0  0  0  0  0
  -17.8832  -44.6315  -22.3540 C   0  0  0  0  0  0  0  0  0  0  0  0
  -18.6328  -45.3224  -23.3006 C   0  0  0  0  0  0  0  0  0  0  0  0
  -18.7758  -46.7003  -23.1853 C   0  0  0  0  0  0  0  0  0  0  0  0
  -14.7703  -39.5350  -20.9268 H   0  0  0  0  0  0  0  0  0  0  0  0
  -12.6135  -42.8458  -21.1951 H   0  0  0  0  0  0  0  0  0  0  0  0
  -12.5493  -42.0436  -19.6470 H   0  0  0  0  0  0  0  0  0  0  0  0
  -18.2748  -45.3637  -19.0776 H   0  0  0  0  0  0  0  0  0  0  0  0
  -15.3405  -44.5752  -22.8154 H   0  0  0  0  0  0  0  0  0  0  0  0
  -13.9782  -43.6795  -22.5395 H   0  0  0  0  0  0  0  0  0  0  0  0
  -15.8523  -43.9968  -17.0464 H   0  0  0  0  0  0  0  0  0  0  0  0
  -13.9777  -42.6844  -17.9249 H   0  0  0  0  0  0  0  0  0  0  0  0
  -18.3967  -48.4428  -21.9935 H   0  0  0  0  0  0  0  0  0  0  0  0
  -17.0022  -47.2473  -20.3580 H   0  0  0  0  0  0  0  0  0  0  0  0
  -17.7438  -43.5568  -22.4683 H   0  0  0  0  0  0  0  0  0  0  0  0
  -19.0720  -44.7921  -24.1398 H   0  0  0  0  0  0  0  0  0  0  0  0
  -19.2935  -47.2644  -23.9578 H   0  0  0  0  0  0  0  0  0  0  0  0
  4  3  1  0
  2  3  2  0
  3  1  1  0
  7  5  1  0
  7 12  2  0
  7  8  1  0
  8  9  2  0
  9 10  1  0
 10 11  2  0
 10  4  1  0
 11 12  1  0
 12 15  1  0
 13 18  2  0
 13 14  1  0
 14 15  2  0
 15 16  1  0
 16 17  2  0
 17 18  1  0
  6 11  1  0
  1 19  1  0
  4 20  1  0
  4 21  1  0
  5 22  1  0
  6 23  1  0
  6 24  1  0
  8 25  1  0
  9 26  1  0
 13 27  1  0
 14 28  1  0
 16 29  1  0
 17 30  1  0
 18 31  1  0
M  END
>  <smiles>  (499) 
[H]OC(=O)C([H])([H])c1c([H])c([H])c(O[H])c(-c2c([H])c([H])c([H])c([H])c2[H])c1N([H])[H]

>  <error>  (499) 


>  <∆∆G>  (499) 
-63.046776

>  <∆G_bound>  (499) 
75.091092

>  <∆G_unbound>  (499) 
138.137868

>  <comRMSD>  (499) 
0.835719

>  <N_constrained_atoms>  (499) 
18.0

>  <N_unconstrained_atoms>  (499) 
0.0

>  <runtime>  (499) 
1.725419

>  <regarded>  (499) 
['5hn0-a', 'd0472a']

>  <disregarded>  (499) 
[]

>  <LE>  (499) 
3.502599

>  <outcome>  (499) 
acceptable

>  <percent_hybrid>  (499) 
6.0

$$$$
LIG
     RDKit          3D

 51 53  0  0  0  0  0  0  0  0999 V2000
  -12.1642  -40.3807  -21.3396 O   0  0  0  0  0  0  0  0  0  0  0  0
  -13.5844  -40.2104  -19.6287 O   0  0  0  0  0  0  0  0  0  0  0  0
  -12.9632  -40.9201  -20.3987 C   0  0  0  0  0  0  0  0  0  0  0  0
  -12.9395  -42.4239  -20.4442 C   0  0  0  0  0  0  0  0  0  0  0  0
  -17.3387  -45.2792  -18.1228 O   0  0  0  0  0  0  0  0  0  0  0  0
  -13.3924  -43.6267  -17.8151 F   0  0  0  0  0  0  0  0  0  0  0  0
  -16.4831  -41.6802  -25.0183 C   0  0  0  0  0  0  0  0  0  0  0  0
  -16.1805  -40.7219  -25.6267 O   0  0  0  0  0  0  0  0  0  0  0  0
  -17.2359  -42.8542  -25.4236 N   0  0  0  0  0  0  0  0  0  0  0  0
  -16.2328  -44.6640  -18.8050 C   0  0  2  0  0  0  0  0  0  0  0  0
  -15.7006  -43.5622  -17.9036 C   0  0  0  0  0  0  0  0  0  0  0  0
  -14.4182  -42.9716  -18.4535 C   0  0  2  0  0  0  0  0  0  0  0  0
  -14.1895  -43.1973  -19.9578 C   0  0  1  0  0  0  0  0  0  0  0  0
  -15.4787  -43.1826  -20.8809 C   0  0  0  0  0  0  0  0  0  0  0  0
  -16.6546  -44.0394  -20.1639 C   0  0  1  0  0  0  0  0  0  0  0  0
  -17.9625  -47.2120  -21.8706 C   0  0  0  0  0  0  0  0  0  0  0  0
  -17.3040  -46.3833  -20.9725 C   0  0  0  0  0  0  0  0  0  0  0  0
  -17.4197  -44.9912  -21.0761 C   0  0  0  0  0  0  0  0  0  0  0  0
  -18.2506  -44.4562  -22.0779 C   0  0  0  0  0  0  0  0  0  0  0  0
  -18.8473  -45.2860  -23.0201 C   0  0  0  0  0  0  0  0  0  0  0  0
  -18.6801  -46.6637  -22.9261 C   0  0  0  0  0  0  0  0  0  0  0  0
  -15.0419  -43.7593  -22.2741 C   0  0  0  0  0  0  0  0  0  0  0  0
  -16.0474  -41.7547  -21.1009 C   0  0  0  0  0  0  0  0  0  0  0  0
  -15.7675  -41.1644  -22.4806 C   0  0  0  0  0  0  0  0  0  0  0  0
  -16.2976  -42.0002  -23.6071 N   0  0  0  0  0  0  0  0  0  0  0  0
  -14.9783  -42.7219  -23.4037 C   0  0  0  0  0  0  0  0  0  0  0  0
  -12.1611  -39.4160  -21.1624 H   0  0  0  0  0  0  0  0  0  0  0  0
  -12.7151  -42.7183  -21.4706 H   0  0  0  0  0  0  0  0  0  0  0  0
  -12.0792  -42.7250  -19.8362 H   0  0  0  0  0  0  0  0  0  0  0  0
  -18.1616  -45.0242  -18.5821 H   0  0  0  0  0  0  0  0  0  0  0  0
  -17.4114  -43.4457  -24.5948 H   0  0  0  0  0  0  0  0  0  0  0  0
  -17.2107  -43.5519  -24.6610 H   0  0  0  0  0  0  0  0  0  0  0  0
  -15.4755  -45.4443  -18.9380 H   0  0  0  0  0  0  0  0  0  0  0  0
  -16.4613  -42.7771  -17.8034 H   0  0  0  0  0  0  0  0  0  0  0  0
  -15.5349  -43.9470  -16.8905 H   0  0  0  0  0  0  0  0  0  0  0  0
  -14.3511  -41.9243  -18.1552 H   0  0  0  0  0  0  0  0  0  0  0  0
  -13.8428  -44.2438  -20.0098 H   0  0  0  0  0  0  0  0  0  0  0  0
  -17.4416  -43.3335  -19.8551 H   0  0  0  0  0  0  0  0  0  0  0  0
  -17.8711  -48.2923  -21.7855 H   0  0  0  0  0  0  0  0  0  0  0  0
  -16.6989  -46.8525  -20.2031 H   0  0  0  0  0  0  0  0  0  0  0  0
  -18.4058  -43.3819  -22.1507 H   0  0  0  0  0  0  0  0  0  0  0  0
  -19.4619  -44.8668  -23.8128 H   0  0  0  0  0  0  0  0  0  0  0  0
  -19.1271  -47.3280  -23.6634 H   0  0  0  0  0  0  0  0  0  0  0  0
  -15.6982  -44.5538  -22.6282 H   0  0  0  0  0  0  0  0  0  0  0  0
  -14.0707  -44.2654  -22.2131 H   0  0  0  0  0  0  0  0  0  0  0  0
  -15.7288  -41.0685  -20.3136 H   0  0  0  0  0  0  0  0  0  0  0  0
  -17.1411  -41.7589  -21.0144 H   0  0  0  0  0  0  0  0  0  0  0  0
  -16.4251  -40.2812  -22.5403 H   0  0  0  0  0  0  0  0  0  0  0  0
  -14.7952  -40.6623  -22.6109 H   0  0  0  0  0  0  0  0  0  0  0  0
  -14.0595  -42.1208  -23.4496 H   0  0  0  0  0  0  0  0  0  0  0  0
  -14.8461  -43.3301  -24.3143 H   0  0  0  0  0  0  0  0  0  0  0  0
  4  3  1  0
  2  3  2  0
  3  1  1  0
  9  7  1  0
  8  7  2  0
 10  5  1  0
 10 15  1  0
 10 11  1  0
 11 12  1  0
 12 13  1  0
 13 14  1  0
 13  4  1  0
 14 15  1  0
 15 18  1  0
 16 21  2  0
 16 17  1  0
 17 18  2  0
 18 19  1  0
 19 20  2  0
 20 21  1  0
 22 26  1  0
 23 24  1  0
 24 25  1  0
 25  7  1  0
 25 26  1  0
 14 22  1  0
 14 23  1  0
  6 12  1  0
  1 27  1  0
  4 28  1  0
  4 29  1  0
  5 30  1  0
  9 31  1  0
  9 32  1  0
 10 33  1  6
 11 34  1  0
 11 35  1  0
 12 36  1  6
 13 37  1  6
 15 38  1  1
 16 39  1  0
 17 40  1  0
 19 41  1  0
 20 42  1  0
 21 43  1  0
 22 44  1  0
 22 45  1  0
 23 46  1  0
 23 47  1  0
 24 48  1  0
 24 49  1  0
 26 50  1  0
 26 51  1  0
M  END
>  <smiles>  (500) 
[H]OC(=O)C([H])([H])[C@@]1([H])C2(C([H])([H])C([H])([H])N(C(=O)N([H])[H])C([H])([H])C2([H])[H])[C@@]([H])(c2c([H])c([H])c([H])c([H])c2[H])[C@]([H])(O[H])C([H])([H])[C@@]1([H])F

>  <error>  (500) 


>  <∆∆G>  (500) 
125.853665

>  <∆G_bound>  (500) 
309.639615

>  <∆G_unbound>  (500) 
183.78595

>  <comRMSD>  (500) 
1.885199

>  <N_constrained_atoms>  (500) 
26.0

>  <N_unconstrained_atoms>  (500) 
0.0

>  <runtime>  (500) 
7.528556

>  <regarded>  (500) 
['5hn0-a', 'd0612a']

>  <disregarded>  (500) 
[]

>  <LE>  (500) 
-4.840526

>  <outcome>  (500) 
too moved

>  <percent_hybrid>  (500) 
35.0

$$$$
LIG
     RDKit          3D

 62 65  0  0  0  0  0  0  0  0999 V2000
  -11.9369  -40.4558  -21.3529 O   0  0  0  0  0  0  0  0  0  0  0  0
  -13.9942  -40.1254  -20.5694 O   0  0  0  0  0  0  0  0  0  0  0  0
  -13.1369  -40.9079  -20.9368 C   0  0  0  0  0  0  0  0  0  0  0  0
  -13.2166  -42.4139  -21.0378 C   0  0  0  0  0  0  0  0  0  0  0  0
  -17.4514  -45.1792  -18.4097 O   0  0  0  0  0  0  0  0  0  0  0  0
  -17.1301  -43.7318  -24.1811 F   0  0  0  0  0  0  0  0  0  0  0  0
  -16.2011  -40.4091  -24.0134 N   0  0  0  0  0  0  0  0  0  0  0  0
  -15.5877  -39.6855  -25.1324 C   0  0  0  0  0  0  0  0  0  0  0  0
  -19.1851  -35.8360  -25.1702 C   0  0  0  0  0  0  0  0  0  0  0  0
  -16.4146  -44.5823  -19.2091 C   0  0  2  0  0  0  0  0  0  0  0  0
  -15.7686  -43.5148  -18.3450 C   0  0  0  0  0  0  0  0  0  0  0  0
  -14.8737  -42.5771  -19.1326 C   0  0  0  0  0  0  0  0  0  0  0  0
  -14.4616  -43.1438  -20.5015 C   0  0  1  0  0  0  0  0  0  0  0  0
  -15.7051  -43.3483  -21.4822 C   0  0  1  0  0  0  0  0  0  0  0  0
  -16.9170  -44.0147  -20.5795 C   0  0  1  0  0  0  0  0  0  0  0  0
  -18.1657  -47.3734  -21.9824 C   0  0  0  0  0  0  0  0  0  0  0  0
  -17.5999  -46.4526  -21.1104 C   0  0  0  0  0  0  0  0  0  0  0  0
  -17.7435  -45.0697  -21.3266 C   0  0  0  0  0  0  0  0  0  0  0  0
  -18.5823  -44.6545  -22.3605 C   0  0  0  0  0  0  0  0  0  0  0  0
  -19.0349  -45.5685  -23.3047 C   0  0  0  0  0  0  0  0  0  0  0  0
  -18.8098  -46.9282  -23.1248 C   0  0  0  0  0  0  0  0  0  0  0  0
  -15.7879  -43.8592  -24.0553 C   0  0  1  0  0  0  0  0  0  0  0  0
  -15.1613  -42.5631  -24.4543 C   0  0  0  0  0  0  0  0  0  0  0  0
  -15.4152  -41.4837  -23.4149 C   0  0  2  0  0  0  0  0  0  0  0  0
  -16.1696  -41.9873  -22.1295 C   0  0  0  0  0  0  0  0  0  0  0  0
  -15.3075  -44.2940  -22.6647 C   0  0  0  0  0  0  0  0  0  0  0  0
  -17.3914  -38.6169  -26.6886 C   0  0  0  0  0  0  0  0  0  0  0  0
  -18.3662  -37.6289  -26.6882 N   0  0  0  0  0  0  0  0  0  0  0  0
  -18.2686  -36.9320  -25.5737 C   0  0  0  0  0  0  0  0  0  0  0  0
  -16.9770  -37.3538  -24.5303 S   0  0  0  0  0  0  0  0  0  0  0  0
  -16.5915  -38.6669  -25.5644 C   0  0  0  0  0  0  0  0  0  0  0  0
  -11.9521  -39.4874  -21.2051 H   0  0  0  0  0  0  0  0  0  0  0  0
  -13.0626  -42.6940  -22.0751 H   0  0  0  0  0  0  0  0  0  0  0  0
  -12.3555  -42.7857  -20.4665 H   0  0  0  0  0  0  0  0  0  0  0  0
  -18.3013  -44.8279  -18.7376 H   0  0  0  0  0  0  0  0  0  0  0  0
  -16.4342  -39.7275  -23.2892 H   0  0  0  0  0  0  0  0  0  0  0  0
  -14.6583  -39.2042  -24.8107 H   0  0  0  0  0  0  0  0  0  0  0  0
  -15.3527  -40.3327  -25.9821 H   0  0  0  0  0  0  0  0  0  0  0  0
  -19.6161  -36.0238  -24.1816 H   0  0  0  0  0  0  0  0  0  0  0  0
  -18.6582  -34.8768  -25.1491 H   0  0  0  0  0  0  0  0  0  0  0  0
  -20.0119  -35.7493  -25.8826 H   0  0  0  0  0  0  0  0  0  0  0  0
  -15.6769  -45.3747  -19.3843 H   0  0  0  0  0  0  0  0  0  0  0  0
  -16.5312  -42.9334  -17.8105 H   0  0  0  0  0  0  0  0  0  0  0  0
  -15.1878  -44.0077  -17.5542 H   0  0  0  0  0  0  0  0  0  0  0  0
  -15.4105  -41.6312  -19.2603 H   0  0  0  0  0  0  0  0  0  0  0  0
  -13.9889  -42.3494  -18.5251 H   0  0  0  0  0  0  0  0  0  0  0  0
  -14.0836  -44.1613  -20.3132 H   0  0  0  0  0  0  0  0  0  0  0  0
  -17.6198  -43.2068  -20.3251 H   0  0  0  0  0  0  0  0  0  0  0  0
  -18.0191  -48.4372  -21.8259 H   0  0  0  0  0  0  0  0  0  0  0  0
  -17.0017  -46.8493  -20.2972 H   0  0  0  0  0  0  0  0  0  0  0  0
  -18.7785  -43.5996  -22.5325 H   0  0  0  0  0  0  0  0  0  0  0  0
  -19.5692  -45.2128  -24.1816 H   0  0  0  0  0  0  0  0  0  0  0  0
  -19.1616  -47.6451  -23.8621 H   0  0  0  0  0  0  0  0  0  0  0  0
  -15.4929  -44.5939  -24.7840 H   0  0  0  0  0  0  0  0  0  0  0  0
  -14.0807  -42.6933  -24.5784 H   0  0  0  0  0  0  0  0  0  0  0  0
  -15.5508  -42.3097  -25.4454 H   0  0  0  0  0  0  0  0  0  0  0  0
  -14.4553  -41.0571  -23.1185 H   0  0  0  0  0  0  0  0  0  0  0  0
  -16.1629  -41.1947  -21.3730 H   0  0  0  0  0  0  0  0  0  0  0  0
  -17.2288  -42.0839  -22.3963 H   0  0  0  0  0  0  0  0  0  0  0  0
  -15.6074  -45.3247  -22.4797 H   0  0  0  0  0  0  0  0  0  0  0  0
  -14.2144  -44.3685  -22.7210 H   0  0  0  0  0  0  0  0  0  0  0  0
  -17.3397  -39.3092  -27.5207 H   0  0  0  0  0  0  0  0  0  0  0  0
  4  3  1  0
  2  3  2  0
  3  1  1  0
  8  7  1  0
 10  5  1  0
 10 15  1  0
 10 11  1  0
 11 12  1  0
 12 13  1  0
 13 14  1  0
 13  4  1  0
 14 15  1  0
 15 18  1  0
 16 21  2  0
 16 17  1  0
 17 18  2  0
 18 19  1  0
 19 20  2  0
 20 21  1  0
 22 26  1  0
 22  6  1  0
 22 23  1  0
 23 24  1  0
 24  7  1  0
 24 25  1  0
 27 28  1  0
 27 31  2  0
 28 29  2  0
 29  9  1  0
 29 30  1  0
 30 31  1  0
 31  8  1  0
 14 25  1  6
 14 26  1  0
  1 32  1  0
  4 33  1  0
  4 34  1  0
  5 35  1  0
  7 36  1  0
  8 37  1  0
  8 38  1  0
  9 39  1  0
  9 40  1  0
  9 41  1  0
 10 42  1  6
 11 43  1  0
 11 44  1  0
 12 45  1  0
 12 46  1  0
 13 47  1  6
 15 48  1  1
 16 49  1  0
 17 50  1  0
 19 51  1  0
 20 52  1  0
 21 53  1  0
 22 54  1  6
 23 55  1  0
 23 56  1  0
 24 57  1  1
 25 58  1  0
 25 59  1  0
 26 60  1  0
 26 61  1  0
 27 62  1  0
M  END
>  <smiles>  (501) 
[H]OC(=O)C([H])([H])[C@]1([H])C([H])([H])C([H])([H])[C@@]([H])(O[H])[C@]([H])(c2c([H])c([H])c([H])c([H])c2[H])[C@]12C([H])([H])[C@@]([H])(F)C([H])([H])[C@@]([H])(N([H])C([H])([H])c1sc(C([H])([H])[H])nc1[H])C2([H])[H]

>  <error>  (501) 


>  <∆∆G>  (501) 
-81.629962

>  <∆G_bound>  (501) 
207.429597

>  <∆G_unbound>  (501) 
289.059559

>  <comRMSD>  (501) 
0.976519

>  <N_constrained_atoms>  (501) 
31.0

>  <N_unconstrained_atoms>  (501) 
0.0

>  <runtime>  (501) 
4.940192

>  <regarded>  (501) 
['5hn0-a', 'd0615b']

>  <disregarded>  (501) 
[]

>  <LE>  (501) 
2.633225

>  <outcome>  (501) 
acceptable

>  <percent_hybrid>  (501) 
46.0

$$$$
LIG
     RDKit          3D

 64 66  0  0  0  0  0  0  0  0999 V2000
  -11.8536  -40.8654  -20.7868 O   0  0  0  0  0  0  0  0  0  0  0  0
  -14.0179  -41.0256  -21.6104 N   0  0  0  0  0  0  0  0  0  0  0  0
  -13.0292  -41.5058  -20.9502 C   0  0  0  0  0  0  0  0  0  0  0  0
  -13.0096  -42.8803  -20.3425 C   0  0  0  0  0  0  0  0  0  0  0  0
  -17.7437  -45.2262  -18.3086 O   0  0  0  0  0  0  0  0  0  0  0  0
  -16.6533  -44.6131  -18.8716 C   0  0  0  0  0  0  0  0  0  0  0  0
  -15.8049  -43.9338  -18.0005 C   0  0  0  0  0  0  0  0  0  0  0  0
  -14.6491  -43.3274  -18.4849 C   0  0  0  0  0  0  0  0  0  0  0  0
  -14.3284  -43.4106  -19.8417 C   0  0  0  0  0  0  0  0  0  0  0  0
  -15.2145  -44.0586  -20.7164 C   0  0  0  0  0  0  0  0  0  0  0  0
  -16.3922  -44.6685  -20.2490 C   0  0  0  0  0  0  0  0  0  0  0  0
  -18.2531  -47.4125  -22.0333 C   0  0  0  0  0  0  0  0  0  0  0  0
  -17.4960  -46.7429  -21.0799 C   0  0  0  0  0  0  0  0  0  0  0  0
  -17.2641  -45.3673  -21.1987 C   0  0  0  0  0  0  0  0  0  0  0  0
  -17.8598  -44.6748  -22.2634 C   0  0  0  0  0  0  0  0  0  0  0  0
  -18.5991  -45.3491  -23.2304 C   0  0  0  0  0  0  0  0  0  0  0  0
  -18.7526  -46.7266  -23.1348 C   0  0  0  0  0  0  0  0  0  0  0  0
  -19.7867  -40.7605  -24.5303 O   0  0  0  0  0  0  0  0  0  0  0  0
  -19.2799  -39.9428  -25.6097 S   0  0  0  0  0  0  0  0  0  0  0  0
  -19.4509  -38.5013  -25.6040 O   0  0  0  0  0  0  0  0  0  0  0  0
  -19.9801  -40.5261  -27.1321 C   0  0  0  0  0  0  0  0  0  0  0  0
  -16.1327  -41.2912  -27.3531 C   0  0  0  0  0  0  0  0  0  0  0  0
  -16.1653  -38.2331  -25.7717 C   0  0  0  0  0  0  0  0  0  0  0  0
  -17.1257  -37.6480  -26.6520 O   0  0  0  0  0  0  0  0  0  0  0  0
  -17.6332  -40.2291  -25.7654 N   0  0  0  0  0  0  0  0  0  0  0  0
  -17.1088  -41.5278  -26.2027 C   0  0  2  0  0  0  0  0  0  0  0  0
  -16.5027  -42.3535  -25.0772 C   0  0  0  0  0  0  0  0  0  0  0  0
  -16.1367  -41.5625  -23.8304 C   0  0  0  0  0  0  0  0  0  0  0  0
  -15.6411  -40.1535  -24.1595 C   0  0  1  0  0  0  0  0  0  0  0  0
  -16.7481  -39.3748  -24.9118 C   0  0  1  0  0  0  0  0  0  0  0  0
  -13.9257  -39.7237  -22.2391 C   0  0  0  0  0  0  0  0  0  0  0  0
  -15.2633  -39.3574  -22.8798 C   0  0  0  0  0  0  0  0  0  0  0  0
  -11.8431  -39.9886  -21.1905 H   0  0  0  0  0  0  0  0  0  0  0  0
  -12.6412  -43.5726  -21.1012 H   0  0  0  0  0  0  0  0  0  0  0  0
  -12.2819  -42.8946  -19.5224 H   0  0  0  0  0  0  0  0  0  0  0  0
  -18.4070  -45.3309  -19.0166 H   0  0  0  0  0  0  0  0  0  0  0  0
  -16.0413  -43.8679  -16.9416 H   0  0  0  0  0  0  0  0  0  0  0  0
  -13.9850  -42.8156  -17.7910 H   0  0  0  0  0  0  0  0  0  0  0  0
  -14.9566  -44.1210  -21.7741 H   0  0  0  0  0  0  0  0  0  0  0  0
  -18.3947  -48.4850  -21.9625 H   0  0  0  0  0  0  0  0  0  0  0  0
  -17.0550  -47.3076  -20.2630 H   0  0  0  0  0  0  0  0  0  0  0  0
  -17.7280  -43.5988  -22.3484 H   0  0  0  0  0  0  0  0  0  0  0  0
  -19.0312  -44.8039  -24.0633 H   0  0  0  0  0  0  0  0  0  0  0  0
  -19.2639  -47.2794  -23.9192 H   0  0  0  0  0  0  0  0  0  0  0  0
  -20.0257  -41.6127  -27.1188 H   0  0  0  0  0  0  0  0  0  0  0  0
  -20.9941  -40.1266  -27.2090 H   0  0  0  0  0  0  0  0  0  0  0  0
  -19.3750  -40.1466  -27.9534 H   0  0  0  0  0  0  0  0  0  0  0  0
  -15.1894  -40.8627  -27.0051 H   0  0  0  0  0  0  0  0  0  0  0  0
  -15.9097  -42.2356  -27.8545 H   0  0  0  0  0  0  0  0  0  0  0  0
  -16.5452  -40.5983  -28.0944 H   0  0  0  0  0  0  0  0  0  0  0  0
  -15.3402  -38.5878  -26.3943 H   0  0  0  0  0  0  0  0  0  0  0  0
  -15.8053  -37.4329  -25.1225 H   0  0  0  0  0  0  0  0  0  0  0  0
  -17.9724  -37.6190  -26.1590 H   0  0  0  0  0  0  0  0  0  0  0  0
  -17.9269  -42.1228  -26.6092 H   0  0  0  0  0  0  0  0  0  0  0  0
  -17.2152  -43.1335  -24.7871 H   0  0  0  0  0  0  0  0  0  0  0  0
  -15.6203  -42.8951  -25.4383 H   0  0  0  0  0  0  0  0  0  0  0  0
  -17.0156  -41.4903  -23.1773 H   0  0  0  0  0  0  0  0  0  0  0  0
  -15.3861  -42.1364  -23.2831 H   0  0  0  0  0  0  0  0  0  0  0  0
  -14.7502  -40.2357  -24.7945 H   0  0  0  0  0  0  0  0  0  0  0  0
  -17.3914  -38.9104  -24.1509 H   0  0  0  0  0  0  0  0  0  0  0  0
  -13.1378  -39.7067  -22.9984 H   0  0  0  0  0  0  0  0  0  0  0  0
  -13.6947  -38.9598  -21.4866 H   0  0  0  0  0  0  0  0  0  0  0  0
  -16.0661  -39.4520  -22.1367 H   0  0  0  0  0  0  0  0  0  0  0  0
  -15.2003  -38.2916  -23.1294 H   0  0  0  0  0  0  0  0  0  0  0  0
  4  3  1  0
  2  3  2  0
  3  1  1  0
  6  5  1  0
  6 11  2  0
  6  7  1  0
  7  8  2  0
  8  9  1  0
  9 10  2  0
  9  4  1  0
 10 11  1  0
 11 14  1  0
 12 17  2  0
 12 13  1  0
 13 14  2  0
 14 15  1  0
 15 16  2  0
 16 17  1  0
 24 23  1  0
 21 19  1  0
 20 19  2  0
 19 18  2  0
 25 30  1  0
 25 19  1  0
 25 26  1  0
 26 22  1  0
 26 27  1  0
 27 28  1  0
 28 29  1  0
 29 30  1  0
 30 23  1  0
 31  2  1  0
 32 31  1  0
 32 29  1  0
  1 33  1  0
  4 34  1  0
  4 35  1  0
  5 36  1  0
  7 37  1  0
  8 38  1  0
 10 39  1  0
 12 40  1  0
 13 41  1  0
 15 42  1  0
 16 43  1  0
 17 44  1  0
 21 45  1  0
 21 46  1  0
 21 47  1  0
 22 48  1  0
 22 49  1  0
 22 50  1  0
 23 51  1  0
 23 52  1  0
 24 53  1  0
 26 54  1  6
 27 55  1  0
 27 56  1  0
 28 57  1  0
 28 58  1  0
 29 59  1  6
 30 60  1  1
 31 61  1  0
 31 62  1  0
 32 63  1  0
 32 64  1  0
M  END
>  <smiles>  (502) 
[H]O/C(=N/C([H])([H])C([H])([H])[C@@]1([H])C([H])([H])C([H])([H])[C@]([H])(C([H])([H])[H])N(S(=O)(=O)C([H])([H])[H])[C@]1([H])C([H])([H])O[H])C([H])([H])c1c([H])c([H])c(O[H])c(-c2c([H])c([H])c([H])c([H])c2[H])c1[H]

>  <error>  (502) 


>  <∆∆G>  (502) 
-99.552883

>  <∆G_bound>  (502) 
240.72918

>  <∆G_unbound>  (502) 
340.282062

>  <comRMSD>  (502) 
0.763204

>  <N_constrained_atoms>  (502) 
30.0

>  <N_unconstrained_atoms>  (502) 
2.0

>  <runtime>  (502) 
4.421093

>  <regarded>  (502) 
['5hn0-a', 'd0851a']

>  <disregarded>  (502) 
[]

>  <LE>  (502) 
3.111028

>  <outcome>  (502) 
acceptable

>  <percent_hybrid>  (502) 
44.0

$$$$
LIG
     RDKit          3D

  0  0  0  0  0  0  0  0  0  0999 V3000
M  V30 BEGIN CTAB
M  V30 COUNTS 72 75 0 0 0
M  V30 BEGIN ATOM
M  V30 1 O -12.915000 -39.988998 -21.322001 0
M  V30 2 N -15.092000 -40.324001 -21.309999 0
M  V30 3 C -13.912000 -40.751999 -21.268000 0
M  V30 4 C -13.628000 -42.243999 -21.202999 0
M  V30 5 O -17.378000 -45.675999 -18.625999 0
M  V30 6 C -16.489000 -44.841000 -19.246000 0
M  V30 7 C -15.599000 -44.064999 -18.492001 0
M  V30 8 C -14.680000 -43.231998 -19.141001 0
M  V30 9 C -14.654000 -43.130001 -20.540001 0
M  V30 10 C -15.497000 -43.917999 -21.339001 0
M  V30 11 C -16.443001 -44.769001 -20.743000 0
M  V30 12 C -18.603001 -47.646999 -22.007000 0
M  V30 13 C -17.684000 -46.908001 -21.254000 0
M  V30 14 C -17.409000 -45.562000 -21.568001 0
M  V30 15 C -18.075001 -44.958000 -22.642000 0
M  V30 16 C -18.973000 -45.709000 -23.403000 0
M  V30 17 C -19.254999 -47.042999 -23.087000 0
M  V30 18 O -19.218000 -37.455002 -26.510000 0
M  V30 19 C -18.440001 -37.272999 -25.589001 0
M  V30 20 C -18.801001 -40.066002 -25.077000 0
M  V30 21 S -16.291000 -41.674000 -23.726000 0 CFG=2
M  V30 22 N -16.832001 -41.215000 -22.487000 0
M  V30 23 O -16.914000 -42.779999 -24.382999 0
M  V30 24 C -14.601000 -42.066002 -23.476999 0
M  V30 25 C -18.129000 -36.304001 -23.285000 0
M  V30 26 C -19.089001 -35.396999 -22.541000 0
M  V30 27 C -19.528999 -34.411999 -23.573999 0
M  V30 28 C -19.582001 -35.196999 -24.878000 0
M  V30 29 N -18.677000 -36.332001 -24.648001 0
M  V30 30 C -17.472000 -39.426998 -24.688999 0 CFG=2
M  V30 31 C -17.184000 -38.118999 -25.462000 0 CFG=1
M  V30 32 C -16.631001 -38.435001 -26.855000 0
M  V30 33 C -15.402000 -39.325001 -26.764999 0
M  V30 34 C -15.742000 -40.634998 -26.099001 0
M  V30 35 N -16.350000 -40.417999 -24.764000 0
M  V30 36 C -15.962000 -40.769501 -21.898499 0
M  V30 37 H -13.043917 -39.008404 -21.365770 0
M  V30 38 H -13.507092 -42.599754 -22.236835 0
M  V30 39 H -12.736978 -42.327503 -20.563385 0
M  V30 40 H -17.416443 -45.712105 -17.637405 0
M  V30 41 H -15.622280 -44.110146 -17.393173 0
M  V30 42 H -13.965465 -42.646942 -18.543381 0
M  V30 43 H -15.416857 -43.869213 -22.434992 0
M  V30 44 H -18.811413 -48.696358 -21.751242 0
M  V30 45 H -17.169569 -47.383751 -20.406048 0
M  V30 46 H -17.892073 -43.900646 -22.883947 0
M  V30 47 H -19.468428 -45.243206 -24.267632 0
M  V30 48 H -19.983591 -47.611877 -23.683266 0
M  V30 49 H -19.358402 -40.334011 -24.167343 0
M  V30 50 H -19.390856 -39.353043 -25.671778 0
M  V30 51 H -18.612473 -40.971924 -25.671778 0
M  V30 52 H -14.390973 -42.114719 -22.398336 0
M  V30 53 H -14.378613 -43.039574 -23.938192 0
M  V30 54 H -13.972732 -41.289742 -23.938192 0
M  V30 55 H -17.236740 -36.817654 -22.897661 0
M  V30 56 H -18.745884 -37.175060 -23.019085 0
M  V30 57 H -19.391558 -35.451595 -21.484838 0
M  V30 58 H -18.252964 -34.736572 -22.267363 0
M  V30 59 H -19.764292 -33.347851 -23.424904 0
M  V30 60 H -18.478930 -34.151901 -23.773256 0
M  V30 61 H -20.163443 -34.967476 -25.783123 0
M  V30 62 H -18.740808 -34.605370 -25.268347 0
M  V30 63 H -17.554789 -39.120125 -23.635920 0
M  V30 64 H -16.433901 -37.548752 -24.894400 0
M  V30 65 H -17.065676 -38.066658 -27.795946 0
M  V30 66 H -15.989086 -37.543270 -26.802460 0
M  V30 67 H -14.402679 -39.051491 -27.134527 0
M  V30 68 H -15.158585 -38.889721 -25.784552 0
M  V30 69 H -15.562118 -41.623852 -26.546005 0
M  V30 70 H -14.742798 -40.660843 -25.639732 0
M  V30 71 H -14.762000 -39.569500 -20.698500 0
M  V30 72 H -14.752001 -39.559502 -20.688499 0
M  V30 END ATOM
M  V30 BEGIN BOND
M  V30 1 1 4 3
M  V30 2 2 2 3
M  V30 3 1 3 1
M  V30 4 1 6 5
M  V30 5 2 6 11
M  V30 6 1 6 7
M  V30 7 2 7 8
M  V30 8 1 8 9
M  V30 9 2 9 10
M  V30 10 1 9 4
M  V30 11 1 10 11
M  V30 12 1 11 14
M  V30 13 2 12 17
M  V30 14 1 12 13
M  V30 15 2 13 14
M  V30 16 1 14 15
M  V30 17 2 15 16
M  V30 18 1 16 17
M  V30 19 2 22 21
M  V30 20 1 21 24 CFG=1
M  V30 21 2 23 21
M  V30 22 2 19 18
M  V30 23 1 25 26
M  V30 24 1 25 29
M  V30 25 1 26 27
M  V30 26 1 27 28
M  V30 27 1 28 29
M  V30 28 1 29 19
M  V30 29 1 30 20
M  V30 30 1 30 35
M  V30 31 1 30 31
M  V30 32 1 31 32
M  V30 33 1 31 19
M  V30 34 1 32 33
M  V30 35 1 33 34
M  V30 36 1 34 35
M  V30 37 1 35 21
M  V30 38 1 36 2
M  V30 39 1 36 22
M  V30 40 1 1 37
M  V30 41 1 4 38
M  V30 42 1 4 39
M  V30 43 1 5 40
M  V30 44 1 7 41
M  V30 45 1 8 42
M  V30 46 1 10 43
M  V30 47 1 12 44
M  V30 48 1 13 45
M  V30 49 1 15 46
M  V30 50 1 16 47
M  V30 51 1 17 48
M  V30 52 1 20 49
M  V30 53 1 20 50
M  V30 54 1 20 51
M  V30 55 1 24 52
M  V30 56 1 24 53
M  V30 57 1 24 54
M  V30 58 1 25 55
M  V30 59 1 25 56
M  V30 60 1 26 57
M  V30 61 1 26 58
M  V30 62 1 27 59
M  V30 63 1 27 60
M  V30 64 1 28 61
M  V30 65 1 28 62
M  V30 66 1 30 63 CFG=1
M  V30 67 1 31 64 CFG=1
M  V30 68 1 32 65
M  V30 69 1 32 66
M  V30 70 1 33 67
M  V30 71 1 33 68
M  V30 72 1 34 69
M  V30 73 1 34 70
M  V30 74 1 36 71
M  V30 75 1 36 72
M  V30 END BOND
M  V30 BEGIN COLLECTION
M  V30 MDLV30/STEABS ATOMS=(0)
M  V30 END COLLECTION
M  V30 END CTAB
M  END
>  <smiles>  (503) 
[H]O/C(=N/C([H])([H])N=[S@@](=O)(N1C([H])([H])C([H])([H])C([H])([H])[C@@]([H])(C(=O)N2C([H])([H])C([H])([H])C([H])([H])C2([H])[H])[C@@]1([H])C([H])([H])[H])C([H])([H])[H])C([H])([H])c1c([H])c([H])c(O[H])c(-c2c([H])c([H])c([H])c([H])c2[H])c1[H]

>  <error>  (503) 


>  <∆∆G>  (503) 
nan

>  <∆G_bound>  (503) 
nan

>  <∆G_unbound>  (503) 
nan

>  <comRMSD>  (503) 
0.0

>  <N_constrained_atoms>  (503) 
35.0

>  <N_unconstrained_atoms>  (503) 
1.0

>  <runtime>  (503) 
2.481455

>  <regarded>  (503) 
['5hn0-a', 'd0866a']

>  <disregarded>  (503) 
[]

>  <LE>  (503) 
nan

>  <outcome>  (503) 
crashed

>  <percent_hybrid>  (503) 
49.0

$$$$
LIG
     RDKit          3D

  0  0  0  0  0  0  0  0  0  0999 V3000
M  V30 BEGIN CTAB
M  V30 COUNTS 59 63 0 0 0
M  V30 BEGIN ATOM
M  V30 1 O -12.915000 -39.988998 -21.322001 0
M  V30 2 O -15.092000 -40.324001 -21.309999 0
M  V30 3 C -13.912000 -40.751999 -21.268000 0
M  V30 4 C -13.628000 -42.243999 -21.202999 0
M  V30 5 O -17.378000 -45.675999 -18.625999 0
M  V30 6 C -16.489000 -44.841000 -19.246000 0
M  V30 7 C -15.599000 -44.064999 -18.492001 0
M  V30 8 C -14.680000 -43.231998 -19.141001 0
M  V30 9 C -14.654000 -43.130001 -20.540001 0
M  V30 10 C -15.497000 -43.917999 -21.339001 0
M  V30 11 C -16.443001 -44.769001 -20.743000 0
M  V30 12 C -18.603001 -47.646999 -22.007000 0
M  V30 13 C -17.684000 -46.908001 -21.254000 0
M  V30 14 C -17.409000 -45.562000 -21.568001 0
M  V30 15 C -18.075001 -44.958000 -22.642000 0
M  V30 16 C -18.973000 -45.709000 -23.403000 0
M  V30 17 C -19.254999 -47.042999 -23.087000 0
M  V30 18 O -11.370000 -32.450001 -20.969999 0
M  V30 19 C -11.950000 -33.465000 -20.601000 0
M  V30 20 C -13.292000 -33.436001 -19.997999 0
M  V30 21 C -13.877000 -34.640999 -19.552999 0
M  V30 22 N -13.139000 -35.812000 -19.618000 0
M  V30 23 C -12.110000 -35.952000 -20.645000 0 CFG=1
M  V30 24 N -11.382000 -34.679001 -20.705000 0
M  V30 25 C -13.994000 -32.241001 -19.871000 0
M  V30 26 C -15.168000 -34.624001 -19.025000 0
M  V30 27 C -15.853000 -33.424000 -18.921000 0
M  V30 28 C -15.268000 -32.243000 -19.333000 0
M  V30 29 C -11.190000 -37.138000 -20.316999 0
M  V30 30 C -11.152000 -37.980999 -21.587999 0
M  V30 31 C -12.451000 -37.754002 -22.233000 0 CFG=2
M  V30 32 C -12.749000 -36.279999 -22.002001 0
M  V30 33 C -12.683001 -38.871498 -21.777500 0
M  V30 34 H -13.507092 -42.599754 -22.236835 0
M  V30 35 H -12.736978 -42.327503 -20.563385 0
M  V30 36 H -17.416443 -45.712105 -17.637405 0
M  V30 37 H -15.622280 -44.110146 -17.393173 0
M  V30 38 H -13.965465 -42.646942 -18.543381 0
M  V30 39 H -15.416857 -43.869213 -22.434992 0
M  V30 40 H -18.811413 -48.696358 -21.751242 0
M  V30 41 H -17.169569 -47.383751 -20.406048 0
M  V30 42 H -17.892073 -43.900646 -22.883947 0
M  V30 43 H -19.468428 -45.243206 -24.267632 0
M  V30 44 H -19.983591 -47.611877 -23.683266 0
M  V30 45 H -13.314224 -36.575504 -18.949228 0
M  V30 46 H -10.361188 -34.718678 -20.836409 0
M  V30 47 H -13.535987 -31.295929 -20.198202 0
M  V30 48 H -15.640623 -35.559937 -18.692352 0
M  V30 49 H -16.871866 -33.412075 -18.506548 0
M  V30 50 H -15.819530 -31.296577 -19.232512 0
M  V30 51 H -10.669828 -37.336834 -19.368376 0
M  V30 52 H -12.057853 -37.712925 -19.961624 0
M  V30 53 H -10.330162 -38.619820 -21.943655 0
M  V30 54 H -11.575160 -38.832932 -21.035601 0
M  V30 55 H -12.956592 -37.657780 -23.205172 0
M  V30 56 H -13.302277 -35.597340 -22.663710 0
M  V30 57 H -11.810613 -36.010841 -22.508938 0
M  V30 58 H -11.613000 -37.801498 -20.707500 0
M  V30 59 H -11.603000 -37.791500 -20.697500 0
M  V30 END ATOM
M  V30 BEGIN BOND
M  V30 1 1 4 3
M  V30 2 2 2 3
M  V30 3 1 3 1
M  V30 4 1 6 5
M  V30 5 2 6 11
M  V30 6 1 6 7
M  V30 7 2 7 8
M  V30 8 1 8 9
M  V30 9 2 9 10
M  V30 10 1 9 4
M  V30 11 1 10 11
M  V30 12 1 11 14
M  V30 13 2 12 17
M  V30 14 1 12 13
M  V30 15 2 13 14
M  V30 16 1 14 15
M  V30 17 2 15 16
M  V30 18 1 16 17
M  V30 19 2 19 18
M  V30 20 1 19 24
M  V30 21 1 19 20
M  V30 22 2 20 25
M  V30 23 1 20 21
M  V30 24 1 21 22
M  V30 25 2 21 26
M  V30 26 1 23 22 CFG=1
M  V30 27 1 23 24
M  V30 28 1 23 32
M  V30 29 1 23 29
M  V30 30 1 25 28
M  V30 31 1 26 27
M  V30 32 2 27 28
M  V30 33 1 29 30
M  V30 34 1 30 31
M  V30 35 1 31 32
M  V30 36 1 33 1
M  V30 37 1 33 31
M  V30 38 1 4 34
M  V30 39 1 4 35
M  V30 40 1 5 36
M  V30 41 1 7 37
M  V30 42 1 8 38
M  V30 43 1 10 39
M  V30 44 1 12 40
M  V30 45 1 13 41
M  V30 46 1 15 42
M  V30 47 1 16 43
M  V30 48 1 17 44
M  V30 49 1 22 45
M  V30 50 1 24 46
M  V30 51 1 25 47
M  V30 52 1 26 48
M  V30 53 1 27 49
M  V30 54 1 28 50
M  V30 55 1 29 51
M  V30 56 1 29 52
M  V30 57 1 30 53
M  V30 58 1 30 54
M  V30 59 1 31 55 CFG=3
M  V30 60 1 32 56
M  V30 61 1 32 57
M  V30 62 1 33 58
M  V30 63 1 33 59
M  V30 END BOND
M  V30 BEGIN COLLECTION
M  V30 MDLV30/STEABS ATOMS=(0)
M  V30 END COLLECTION
M  V30 END CTAB
M  END
>  <smiles>  (504) 
[H]Oc1c([H])c([H])c(C([H])([H])C(=O)OC([H])([H])[C@]2([H])C([H])([H])C([H])([H])[C@@]3(N([H])C(=O)c4c([H])c([H])c([H])c([H])c4N3[H])C2([H])[H])c([H])c1-c1c([H])c([H])c([H])c([H])c1[H]

>  <error>  (504) 


>  <∆∆G>  (504) 
nan

>  <∆G_bound>  (504) 
nan

>  <∆G_unbound>  (504) 
nan

>  <comRMSD>  (504) 
0.0

>  <N_constrained_atoms>  (504) 
32.0

>  <N_unconstrained_atoms>  (504) 
1.0

>  <runtime>  (504) 
2.31598

>  <regarded>  (504) 
['5hn0-a', 'd1196a']

>  <disregarded>  (504) 
[]

>  <LE>  (504) 
nan

>  <outcome>  (504) 
crashed

>  <percent_hybrid>  (504) 
47.0

$$$$
LIG
     RDKit          3D

  0  0  0  0  0  0  0  0  0  0999 V3000
M  V30 BEGIN CTAB
M  V30 COUNTS 51 53 0 0 0
M  V30 BEGIN ATOM
M  V30 1 O -12.915000 -39.988998 -21.322001 0
M  V30 2 O -15.092000 -40.324001 -21.309999 0
M  V30 3 C -13.912000 -40.751999 -21.268000 0
M  V30 4 C -13.628000 -42.243999 -21.202999 0
M  V30 5 O -17.378000 -45.675999 -18.625999 0
M  V30 6 C -16.489000 -44.841000 -19.246000 0
M  V30 7 C -15.599000 -44.064999 -18.492001 0
M  V30 8 C -14.680000 -43.231998 -19.141001 0
M  V30 9 C -14.654000 -43.130001 -20.540001 0
M  V30 10 C -15.497000 -43.917999 -21.339001 0
M  V30 11 C -16.443001 -44.769001 -20.743000 0
M  V30 12 C -18.603001 -47.646999 -22.007000 0
M  V30 13 C -17.684000 -46.908001 -21.254000 0
M  V30 14 C -17.409000 -45.562000 -21.568001 0
M  V30 15 C -18.075001 -44.958000 -22.642000 0
M  V30 16 C -18.973000 -45.709000 -23.403000 0
M  V30 17 C -19.254999 -47.042999 -23.087000 0
M  V30 18 O -13.361000 -44.921001 -19.518999 0
M  V30 19 C -12.831000 -43.943001 -18.639999 0 CFG=2
M  V30 20 C -12.671000 -44.536999 -17.264000 0
M  V30 21 N -13.934000 -44.601002 -16.518999 0
M  V30 22 C -14.343000 -45.999001 -16.367001 0
M  V30 23 C -15.527000 -46.108002 -15.451000 0
M  V30 24 O -15.254000 -45.561001 -14.174000 0
M  V30 25 C -14.966000 -44.181999 -14.329000 0
M  V30 26 C -13.759000 -43.964001 -15.203000 0
M  V30 27 N -13.755501 -43.587502 -18.890499 0
M  V30 28 H -13.043917 -39.008404 -21.365770 0
M  V30 29 H -13.507092 -42.599754 -22.236835 0
M  V30 30 H -12.736978 -42.327503 -20.563385 0
M  V30 31 H -17.416443 -45.712105 -17.637405 0
M  V30 32 H -15.622280 -44.110146 -17.393173 0
M  V30 33 H -15.416857 -43.869213 -22.434992 0
M  V30 34 H -18.811413 -48.696358 -21.751242 0
M  V30 35 H -17.169569 -47.383751 -20.406048 0
M  V30 36 H -17.892073 -43.900646 -22.883947 0
M  V30 37 H -19.468428 -45.243206 -24.267632 0
M  V30 38 H -19.983591 -47.611877 -23.683266 0
M  V30 39 H -13.760084 -45.657425 -18.991259 0
M  V30 40 H -11.899869 -43.358574 -18.677910 0
M  V30 41 H -12.271771 -45.556881 -17.366249 0
M  V30 42 H -11.987976 -43.884567 -16.700251 0
M  V30 43 H -13.850260 -46.851837 -16.856773 0
M  V30 44 H -13.666948 -46.103123 -15.505542 0
M  V30 45 H -16.489220 -46.557888 -15.736901 0
M  V30 46 H -15.170218 -47.089912 -15.106675 0
M  V30 47 H -15.550909 -43.372158 -13.868524 0
M  V30 48 H -14.316962 -44.217804 -13.441607 0
M  V30 49 H -12.863704 -43.402321 -14.898104 0
M  V30 50 H -14.207665 -43.037891 -15.591615 0
M  V30 51 H -12.755501 -42.587502 -17.890499 0
M  V30 END ATOM
M  V30 BEGIN BOND
M  V30 1 1 4 3
M  V30 2 2 2 3
M  V30 3 1 3 1
M  V30 4 1 6 5
M  V30 5 2 6 11
M  V30 6 1 6 7
M  V30 7 2 7 8
M  V30 8 1 8 9
M  V30 9 2 9 10
M  V30 10 1 9 4
M  V30 11 1 10 11
M  V30 12 1 11 14
M  V30 13 2 12 17
M  V30 14 1 12 13
M  V30 15 2 13 14
M  V30 16 1 14 15
M  V30 17 2 15 16
M  V30 18 1 16 17
M  V30 19 1 19 18
M  V30 20 1 20 19
M  V30 21 1 21 20
M  V30 22 1 21 26
M  V30 23 1 21 22
M  V30 24 1 22 23
M  V30 25 1 23 24
M  V30 26 1 24 25
M  V30 27 1 25 26
M  V30 28 1 27 8
M  V30 29 1 27 19
M  V30 30 1 1 28
M  V30 31 1 4 29
M  V30 32 1 4 30
M  V30 33 1 5 31
M  V30 34 1 7 32
M  V30 35 1 10 33
M  V30 36 1 12 34
M  V30 37 1 13 35
M  V30 38 1 15 36
M  V30 39 1 16 37
M  V30 40 1 17 38
M  V30 41 1 18 39
M  V30 42 1 19 40 CFG=3
M  V30 43 1 20 41
M  V30 44 1 20 42
M  V30 45 1 22 43
M  V30 46 1 22 44
M  V30 47 1 23 45
M  V30 48 1 23 46
M  V30 49 1 25 47
M  V30 50 1 25 48
M  V30 51 1 26 49
M  V30 52 1 26 50
M  V30 53 1 27 51
M  V30 END BOND
M  V30 BEGIN COLLECTION
M  V30 MDLV30/STEABS ATOMS=(0)
M  V30 END COLLECTION
M  V30 END CTAB
M  END
>  <smiles>  (505) 
[H]OC(=O)C([H])([H])c1c([H])c(-c2c([H])c([H])c([H])c([H])c2[H])c(O[H])c([H])c1N([H])[C@]([H])(O[H])C([H])([H])N1C([H])([H])C([H])([H])OC([H])([H])C1([H])[H]

>  <error>  (505) 


>  <∆∆G>  (505) 
nan

>  <∆G_bound>  (505) 
nan

>  <∆G_unbound>  (505) 
nan

>  <comRMSD>  (505) 
0.0

>  <N_constrained_atoms>  (505) 
26.0

>  <N_unconstrained_atoms>  (505) 
1.0

>  <runtime>  (505) 
1.532187

>  <regarded>  (505) 
['5hn0-a', 'z0052a']

>  <disregarded>  (505) 
[]

>  <LE>  (505) 
nan

>  <outcome>  (505) 
crashed

>  <percent_hybrid>  (505) 
35.0

$$$$
LIG
     RDKit          3D

 44 46  0  0  0  0  0  0  0  0999 V2000
  -12.8582  -40.1002  -20.1104 O   0  0  0  0  0  0  0  0  0  0  0  0
  -15.0162  -39.9032  -20.9126 O   0  0  0  0  0  0  0  0  0  0  0  0
  -13.7094  -40.3847  -21.2226 C   0  0  2  0  0  0  0  0  0  0  0  0
  -13.7981  -41.9081  -21.5509 C   0  0  0  0  0  0  0  0  0  0  0  0
  -17.2313  -45.2217  -18.4255 O   0  0  0  0  0  0  0  0  0  0  0  0
  -11.5742  -40.7105  -20.1134 C   0  0  0  0  0  0  0  0  0  0  0  0
  -13.2308  -39.5926  -22.4784 C   0  0  0  0  0  0  0  0  0  0  0  0
  -16.3864  -44.4711  -19.2055 C   0  0  0  0  0  0  0  0  0  0  0  0
  -15.4503  -43.6740  -18.5446 C   0  0  0  0  0  0  0  0  0  0  0  0
  -14.5921  -42.8351  -19.2721 C   0  0  0  0  0  0  0  0  0  0  0  0
  -14.6629  -42.7902  -20.6667 C   0  0  0  0  0  0  0  0  0  0  0  0
  -15.5690  -43.6449  -21.3060 C   0  0  0  0  0  0  0  0  0  0  0  0
  -16.4615  -44.4760  -20.6043 C   0  0  0  0  0  0  0  0  0  0  0  0
  -18.2277  -47.4872  -22.0166 C   0  0  0  0  0  0  0  0  0  0  0  0
  -17.4987  -46.6843  -21.1493 C   0  0  0  0  0  0  0  0  0  0  0  0
  -17.3769  -45.3115  -21.3937 C   0  0  0  0  0  0  0  0  0  0  0  0
  -18.0648  -44.7608  -22.4924 C   0  0  0  0  0  0  0  0  0  0  0  0
  -18.7588  -45.5710  -23.3807 C   0  0  0  0  0  0  0  0  0  0  0  0
  -18.8018  -46.9414  -23.1589 C   0  0  0  0  0  0  0  0  0  0  0  0
  -13.0498  -38.1125  -22.2780 C   0  0  0  0  0  0  0  0  0  0  0  0
  -12.0791  -37.5873  -21.4594 N   0  0  0  0  0  0  0  0  0  0  0  0
  -12.1774  -36.2259  -21.4951 C   0  0  0  0  0  0  0  0  0  0  0  0
  -13.2163  -35.9696  -22.3506 C   0  0  0  0  0  0  0  0  0  0  0  0
  -13.7054  -37.1382  -22.8812 N   0  0  0  0  0  0  0  0  0  0  0  0
  -14.2068  -41.9780  -22.5687 H   0  0  0  0  0  0  0  0  0  0  0  0
  -12.8090  -42.3703  -21.5996 H   0  0  0  0  0  0  0  0  0  0  0  0
  -18.0351  -45.3678  -18.9595 H   0  0  0  0  0  0  0  0  0  0  0  0
  -11.6470  -41.7775  -19.8930 H   0  0  0  0  0  0  0  0  0  0  0  0
  -11.0440  -40.5424  -21.0502 H   0  0  0  0  0  0  0  0  0  0  0  0
  -10.9882  -40.2531  -19.3107 H   0  0  0  0  0  0  0  0  0  0  0  0
  -12.2643  -39.9894  -22.7889 H   0  0  0  0  0  0  0  0  0  0  0  0
  -13.9398  -39.7390  -23.3025 H   0  0  0  0  0  0  0  0  0  0  0  0
  -15.4054  -43.6791  -17.4578 H   0  0  0  0  0  0  0  0  0  0  0  0
  -13.8820  -42.2135  -18.7309 H   0  0  0  0  0  0  0  0  0  0  0  0
  -15.5786  -43.6670  -22.3971 H   0  0  0  0  0  0  0  0  0  0  0  0
  -18.2671  -48.5591  -21.8634 H   0  0  0  0  0  0  0  0  0  0  0  0
  -16.9697  -47.1519  -20.3235 H   0  0  0  0  0  0  0  0  0  0  0  0
  -18.0154  -43.6917  -22.6929 H   0  0  0  0  0  0  0  0  0  0  0  0
  -19.2393  -45.1414  -24.2540 H   0  0  0  0  0  0  0  0  0  0  0  0
  -19.2814  -47.5982  -23.8809 H   0  0  0  0  0  0  0  0  0  0  0  0
  -11.5317  -35.5874  -20.9108 H   0  0  0  0  0  0  0  0  0  0  0  0
  -13.6245  -35.0100  -22.6386 H   0  0  0  0  0  0  0  0  0  0  0  0
  -15.3096  -40.3992  -20.1315 H   0  0  0  0  0  0  0  0  0  0  0  0
  -11.4578  -38.1199  -20.8684 H   0  0  0  0  0  0  0  0  0  0  0  0
  4  3  1  0
  3  2  1  1
  3  1  1  0
  6  1  1  0
  7  3  1  0
  8  5  1  0
  8 13  2  0
  8  9  1  0
  9 10  2  0
 10 11  1  0
 11 12  2  0
 11  4  1  0
 12 13  1  0
 13 16  1  0
 14 19  2  0
 14 15  1  0
 15 16  2  0
 16 17  1  0
 17 18  2  0
 18 19  1  0
 20  7  1  0
 20 21  1  0
 20 24  2  0
 21 22  1  0
 22 23  2  0
 23 24  1  0
  4 25  1  0
  4 26  1  0
  5 27  1  0
  6 28  1  0
  6 29  1  0
  6 30  1  0
  7 31  1  0
  7 32  1  0
  9 33  1  0
 10 34  1  0
 12 35  1  0
 14 36  1  0
 15 37  1  0
 17 38  1  0
 18 39  1  0
 19 40  1  0
 22 41  1  0
 23 42  1  0
  2 43  1  0
 21 44  1  0
M  END
>  <smiles>  (506) 
[H]Oc1c([H])c([H])c(C([H])([H])[C@@](O)(OC([H])([H])[H])C([H])([H])c2nc([H])c([H])[nH]2)c([H])c1-c1c([H])c([H])c([H])c([H])c1[H]

>  <error>  (506) 


>  <∆∆G>  (506) 
-40.806606

>  <∆G_bound>  (506) 
134.078927

>  <∆G_unbound>  (506) 
174.885534

>  <comRMSD>  (506) 
0.645951

>  <N_constrained_atoms>  (506) 
24.0

>  <N_unconstrained_atoms>  (506) 
0.0

>  <runtime>  (506) 
2.1951

>  <regarded>  (506) 
['5hn0-a', 'z0103a']

>  <disregarded>  (506) 
[]

>  <LE>  (506) 
1.700275

>  <outcome>  (506) 
acceptable

>  <percent_hybrid>  (506) 
30.0

$$$$

     RDKit          2D

  0  0  0  0  0  0  0  0  0  0999 V2000
M  END
>  <smiles>  (507) 
nan

>  <error>  (507) 
DistanceError 5.74 Å

>  <∆∆G>  (507) 
nan

>  <∆G_bound>  (507) 
nan

>  <∆G_unbound>  (507) 
nan

>  <comRMSD>  (507) 
nan

>  <N_constrained_atoms>  (507) 
nan

>  <N_unconstrained_atoms>  (507) 
nan

>  <runtime>  (507) 
nan

>  <regarded>  (507) 
[]

>  <disregarded>  (507) 
[]

>  <LE>  (507) 
nan

>  <outcome>  (507) 
too distant

>  <percent_hybrid>  (507) 
nan

$$$$

     RDKit          2D

  0  0  0  0  0  0  0  0  0  0999 V2000
M  END
>  <smiles>  (508) 
nan

>  <error>  (508) 
RecursionError maximum recursion depth exceeded while calling a Python object

>  <∆∆G>  (508) 
nan

>  <∆G_bound>  (508) 
nan

>  <∆G_unbound>  (508) 
nan

>  <comRMSD>  (508) 
nan

>  <N_constrained_atoms>  (508) 
nan

>  <N_unconstrained_atoms>  (508) 
nan

>  <runtime>  (508) 
nan

>  <regarded>  (508) 
[]

>  <disregarded>  (508) 
[]

>  <LE>  (508) 
nan

>  <outcome>  (508) 
crashed

>  <percent_hybrid>  (508) 
nan

$$$$
LIG
     RDKit          3D

 38 41  0  0  0  0  0  0  0  0999 V2000
  -15.0920  -40.3240  -21.3100 O   0  0  0  0  0  0  0  0  0  0  0  0
  -13.9120  -40.7520  -21.2680 C   0  0  0  0  0  0  0  0  0  0  0  0
  -13.6280  -42.2440  -21.2030 C   0  0  2  0  0  0  0  0  0  0  0  0
  -17.3780  -45.6760  -18.6260 O   0  0  0  0  0  0  0  0  0  0  0  0
  -13.2970  -44.4980  -20.8500 N   0  0  0  0  0  0  0  0  0  0  0  0
  -16.4890  -44.8410  -19.2460 C   0  0  0  0  0  0  0  0  0  0  0  0
  -15.5990  -44.0650  -18.4920 C   0  0  0  0  0  0  0  0  0  0  0  0
  -14.6800  -43.2320  -19.1410 C   0  0  0  0  0  0  0  0  0  0  0  0
  -14.6540  -43.1300  -20.5400 C   0  0  0  0  0  0  0  0  0  0  0  0
  -15.4970  -43.9180  -21.3390 C   0  0  0  0  0  0  0  0  0  0  0  0
  -16.4430  -44.7690  -20.7430 C   0  0  0  0  0  0  0  0  0  0  0  0
  -18.6030  -47.6470  -22.0070 C   0  0  0  0  0  0  0  0  0  0  0  0
  -17.6840  -46.9080  -21.2540 C   0  0  0  0  0  0  0  0  0  0  0  0
  -17.4090  -45.5620  -21.5680 C   0  0  0  0  0  0  0  0  0  0  0  0
  -18.0750  -44.9580  -22.6420 C   0  0  0  0  0  0  0  0  0  0  0  0
  -18.9730  -45.7090  -23.4030 C   0  0  0  0  0  0  0  0  0  0  0  0
  -19.2550  -47.0430  -23.0870 C   0  0  0  0  0  0  0  0  0  0  0  0
  -12.5670  -42.0860  -21.4400 C   0  0  0  0  0  0  0  0  0  0  0  0
  -13.2460  -41.2020  -22.2300 C   0  0  0  0  0  0  0  0  0  0  0  0
  -12.5480  -40.0400  -22.1920 N   0  0  0  0  0  0  0  0  0  0  0  0
  -11.4740  -40.2420  -21.4030 C   0  0  0  0  0  0  0  0  0  0  0  0
  -11.4280  -41.4770  -20.9270 N   0  0  0  0  0  0  0  0  0  0  0  0
  -13.7700  -41.4980  -21.2355 C   0  0  0  0  0  0  0  0  0  0  0  0
  -17.4164  -45.7121  -17.6374 H   0  0  0  0  0  0  0  0  0  0  0  0
  -15.6223  -44.1101  -17.3932 H   0  0  0  0  0  0  0  0  0  0  0  0
  -13.9655  -42.6469  -18.5434 H   0  0  0  0  0  0  0  0  0  0  0  0
  -15.4169  -43.8692  -22.4350 H   0  0  0  0  0  0  0  0  0  0  0  0
  -18.8114  -48.6964  -21.7512 H   0  0  0  0  0  0  0  0  0  0  0  0
  -17.1696  -47.3838  -20.4060 H   0  0  0  0  0  0  0  0  0  0  0  0
  -17.8921  -43.9006  -22.8839 H   0  0  0  0  0  0  0  0  0  0  0  0
  -19.4684  -45.2432  -24.2676 H   0  0  0  0  0  0  0  0  0  0  0  0
  -19.9836  -47.6119  -23.6833 H   0  0  0  0  0  0  0  0  0  0  0  0
  -12.8752  -43.1229  -21.2402 H   0  0  0  0  0  0  0  0  0  0  0  0
  -10.7225  -39.4702  -21.1802 H   0  0  0  0  0  0  0  0  0  0  0  0
  -12.9300  -40.6580  -20.3955 H   0  0  0  0  0  0  0  0  0  0  0  0
  -12.9200  -40.6480  -20.3855 H   0  0  0  0  0  0  0  0  0  0  0  0
  -13.2693  -44.6866  -19.8378 H   0  0  0  0  0  0  0  0  0  0  0  0
  -14.0690  -45.0294  -21.2773 H   0  0  0  0  0  0  0  0  0  0  0  0
  1  2  2  0
  3  5  1  1
  6  4  1  0
  6 11  2  0
  6  7  1  0
  7  8  2  0
  8  9  1  0
  9 10  2  0
  9  3  1  0
 10 11  1  0
 11 14  1  0
 12 17  2  0
 12 13  1  0
 13 14  2  0
 14 15  1  0
 15 16  2  0
 16 17  1  0
 18 19  2  0
 18 22  1  0
 19 20  1  0
 20 21  1  0
 21 22  2  0
 20  2  1  0
  3 19  1  0
  2 23  1  0
  3 23  1  0
  4 24  1  0
  7 25  1  0
  8 26  1  0
 10 27  1  0
 12 28  1  0
 13 29  1  0
 15 30  1  0
 16 31  1  0
 17 32  1  0
 18 33  1  0
 21 34  1  0
 23 35  1  0
 23 36  1  0
  5 37  1  0
  5 38  1  0
M  END
>  <smiles>  (509) 
[H]Oc1c([H])c([H])c([C@@]2(N)c3c([H])nc([H])n3C(=O)C2([H])[H])c([H])c1-c1c([H])c([H])c([H])c([H])c1[H]

>  <error>  (509) 


>  <∆∆G>  (509) 
nan

>  <∆G_bound>  (509) 
nan

>  <∆G_unbound>  (509) 
nan

>  <comRMSD>  (509) 
0.0

>  <N_constrained_atoms>  (509) 
22.0

>  <N_unconstrained_atoms>  (509) 
1.0

>  <runtime>  (509) 
1.207381

>  <regarded>  (509) 
['5hn0-a', 'z0875c']

>  <disregarded>  (509) 
[]

>  <LE>  (509) 
nan

>  <outcome>  (509) 
crashed

>  <percent_hybrid>  (509) 
28.0

$$$$
LIG
     RDKit          3D

 64 66  0  0  0  0  0  0  0  0999 V2000
  -14.3833  -39.0124  -22.0593 O   0  0  0  0  0  0  0  0  0  0  0  0
  -15.8664  -39.8420  -20.6196 O   0  0  0  0  0  0  0  0  0  0  0  0
  -14.8360  -39.9997  -21.2561 C   0  0  0  0  0  0  0  0  0  0  0  0
  -13.9152  -41.1969  -21.2485 C   0  0  0  0  0  0  0  0  0  0  0  0
  -17.0336  -45.2106  -18.6498 O   0  0  0  0  0  0  0  0  0  0  0  0
  -13.6783  -41.8185  -18.4635 O   0  0  0  0  0  0  0  0  0  0  0  0
  -12.3039  -42.2032  -18.5078 C   0  0  0  0  0  0  0  0  0  0  0  0
  -19.5883  -46.3736  -24.7256 C   0  0  0  0  0  0  0  0  0  0  0  0
  -20.2041  -46.5836  -25.7319 C   0  0  0  0  0  0  0  0  0  0  0  0
  -20.9517  -46.7392  -26.9656 C   0  0  0  0  0  0  0  0  0  0  0  0
  -22.0170  -45.7991  -27.0167 O   0  0  0  0  0  0  0  0  0  0  0  0
  -15.9470  -43.5054  -14.0641 O   0  0  0  0  0  0  0  0  0  0  0  0
  -13.8996  -38.1955  -16.3888 O   0  0  0  0  0  0  0  0  0  0  0  0
  -14.2873  -44.3915  -16.6797 O   0  0  0  0  0  0  0  0  0  0  0  0
  -15.1437  -43.7480  -17.1526 C   0  0  0  0  0  0  0  0  0  0  0  0
  -16.2258  -42.8500  -16.4748 N   0  0  0  0  0  0  0  0  0  0  0  0
  -16.4355  -42.4411  -14.9029 S   0  0  0  0  0  0  0  0  0  0  0  0
  -17.7419  -41.8327  -14.7795 O   0  0  0  0  0  0  0  0  0  0  0  0
  -14.6389  -38.2154  -17.6048 C   0  0  0  0  0  0  0  0  0  0  0  0
  -15.5305  -42.9505  -22.6831 O   0  0  0  0  0  0  0  0  0  0  0  0
  -14.6539  -43.7948  -23.4276 C   0  0  0  0  0  0  0  0  0  0  0  0
  -16.1947  -44.3631  -19.3357 C   0  0  0  0  0  0  0  0  0  0  0  0
  -15.2566  -43.6155  -18.6116 C   0  0  0  0  0  0  0  0  0  0  0  0
  -14.4482  -42.6509  -19.2315 C   0  0  0  0  0  0  0  0  0  0  0  0
  -14.5590  -42.4072  -20.5984 C   0  0  0  0  0  0  0  0  0  0  0  0
  -15.4332  -43.2208  -21.3324 C   0  0  0  0  0  0  0  0  0  0  0  0
  -16.3068  -44.1708  -20.7221 C   0  0  0  0  0  0  0  0  0  0  0  0
  -18.3389  -46.7465  -22.6197 C   0  0  0  0  0  0  0  0  0  0  0  0
  -17.5091  -46.2043  -21.6351 C   0  0  0  0  0  0  0  0  0  0  0  0
  -17.3444  -44.8145  -21.5477 C   0  0  0  0  0  0  0  0  0  0  0  0
  -18.1393  -43.9921  -22.3644 C   0  0  0  0  0  0  0  0  0  0  0  0
  -18.8974  -44.5262  -23.3862 C   0  0  0  0  0  0  0  0  0  0  0  0
  -18.9310  -45.9008  -23.5557 C   0  0  0  0  0  0  0  0  0  0  0  0
  -13.3538  -39.2002  -14.3545 C   0  0  0  0  0  0  0  0  0  0  0  0
  -13.5033  -40.1760  -13.3692 C   0  0  0  0  0  0  0  0  0  0  0  0
  -14.4638  -41.1615  -13.5306 C   0  0  0  0  0  0  0  0  0  0  0  0
  -15.2678  -41.1479  -14.6747 C   0  0  0  0  0  0  0  0  0  0  0  0
  -15.1367  -40.1694  -15.6551 C   0  0  0  0  0  0  0  0  0  0  0  0
  -14.1616  -39.1963  -15.4983 C   0  0  0  0  0  0  0  0  0  0  0  0
  -15.0673  -38.3152  -21.9788 H   0  0  0  0  0  0  0  0  0  0  0  0
  -13.6342  -41.4272  -22.2802 H   0  0  0  0  0  0  0  0  0  0  0  0
  -12.9947  -40.9021  -20.7385 H   0  0  0  0  0  0  0  0  0  0  0  0
  -17.8062  -45.4050  -19.2140 H   0  0  0  0  0  0  0  0  0  0  0  0
  -11.9580  -42.4354  -19.5197 H   0  0  0  0  0  0  0  0  0  0  0  0
  -11.7097  -41.3687  -18.1244 H   0  0  0  0  0  0  0  0  0  0  0  0
  -12.1381  -43.0675  -17.8568 H   0  0  0  0  0  0  0  0  0  0  0  0
  -21.3449  -47.7500  -27.0996 H   0  0  0  0  0  0  0  0  0  0  0  0
  -20.2805  -46.4938  -27.7837 H   0  0  0  0  0  0  0  0  0  0  0  0
  -22.7894  -46.2446  -26.6030 H   0  0  0  0  0  0  0  0  0  0  0  0
  -16.8662  -42.4990  -17.1799 H   0  0  0  0  0  0  0  0  0  0  0  0
  -15.7076  -38.0634  -17.4211 H   0  0  0  0  0  0  0  0  0  0  0  0
  -14.2880  -37.3817  -18.2208 H   0  0  0  0  0  0  0  0  0  0  0  0
  -14.4566  -39.1377  -18.1644 H   0  0  0  0  0  0  0  0  0  0  0  0
  -14.5272  -43.3582  -24.4218 H   0  0  0  0  0  0  0  0  0  0  0  0
  -13.6667  -43.8929  -22.9634 H   0  0  0  0  0  0  0  0  0  0  0  0
  -15.1160  -44.7775  -23.5380 H   0  0  0  0  0  0  0  0  0  0  0  0
  -18.4505  -47.8240  -22.7073 H   0  0  0  0  0  0  0  0  0  0  0  0
  -16.9367  -46.8782  -21.0030 H   0  0  0  0  0  0  0  0  0  0  0  0
  -18.0823  -42.9070  -22.2786 H   0  0  0  0  0  0  0  0  0  0  0  0
  -19.4171  -43.8625  -24.0725 H   0  0  0  0  0  0  0  0  0  0  0  0
  -12.5944  -38.4305  -14.2349 H   0  0  0  0  0  0  0  0  0  0  0  0
  -12.8663  -40.1668  -12.4891 H   0  0  0  0  0  0  0  0  0  0  0  0
  -14.5763  -41.9337  -12.7730 H   0  0  0  0  0  0  0  0  0  0  0  0
  -15.7890  -40.1911  -16.5196 H   0  0  0  0  0  0  0  0  0  0  0  0
  4  3  1  0
  2  3  2  0
  3  1  1  0
  6  7  1  0
 10 11  1  0
 10  9  1  0
  9  8  3  0
 16 15  1  0
 16 17  1  0
 15 14  2  0
 12 17  2  0
 18 17  2  0
 19 13  1  0
 20 21  1  0
 22  5  1  0
 22 27  2  0
 22 23  1  0
 23 24  2  0
 24 25  1  0
 25 26  2  0
 25  4  1  0
 26 27  1  0
 27 30  1  0
 28 33  2  0
 28 29  1  0
 29 30  2  0
 30 31  1  0
 31 32  2  0
 32 33  1  0
 34 39  2  0
 34 35  1  0
 35 36  2  0
 36 37  1  0
 37 17  1  0
 37 38  2  0
 38 39  1  0
 39 13  1  0
  6 24  1  0
 15 23  1  0
 20 26  1  0
  8 33  1  0
  1 40  1  0
  4 41  1  0
  4 42  1  0
  5 43  1  0
  7 44  1  0
  7 45  1  0
  7 46  1  0
 10 47  1  0
 10 48  1  0
 11 49  1  0
 16 50  1  0
 19 51  1  0
 19 52  1  0
 19 53  1  0
 21 54  1  0
 21 55  1  0
 21 56  1  0
 28 57  1  0
 29 58  1  0
 31 59  1  0
 32 60  1  0
 34 61  1  0
 35 62  1  0
 36 63  1  0
 38 64  1  0
M  END
>  <smiles>  (510) 
[H]OC(=O)C([H])([H])c1c(OC([H])([H])[H])c(C(=O)N([H])S(=O)(=O)c2c([H])c([H])c([H])c(OC([H])([H])[H])c2[H])c(O[H])c(-c2c([H])c([H])c(C#CC([H])([H])O[H])c([H])c2[H])c1OC([H])([H])[H]

>  <error>  (510) 


>  <∆∆G>  (510) 
-165.957548

>  <∆G_bound>  (510) 
-30.951163

>  <∆G_unbound>  (510) 
135.006385

>  <comRMSD>  (510) 
0.930368

>  <N_constrained_atoms>  (510) 
39.0

>  <N_unconstrained_atoms>  (510) 
0.0

>  <runtime>  (510) 
6.14307

>  <regarded>  (510) 
['5hn0-a', '5i3p-a']

>  <disregarded>  (510) 
[]

>  <LE>  (510) 
4.255322

>  <outcome>  (510) 
acceptable

>  <percent_hybrid>  (510) 
44.0

$$$$
LIG
     RDKit          3D

 39 40  0  0  0  0  0  0  0  0999 V2000
  -13.9227  -39.8700  -23.0964 O   0  0  0  0  0  0  0  0  0  0  0  0
  -15.7330  -39.9284  -21.7996 O   0  0  0  0  0  0  0  0  0  0  0  0
  -14.6058  -40.3376  -22.0281 C   0  0  0  0  0  0  0  0  0  0  0  0
  -13.7896  -41.3081  -21.2080 C   0  0  0  0  0  0  0  0  0  0  0  0
  -17.0876  -45.0065  -18.4430 O   0  0  0  0  0  0  0  0  0  0  0  0
  -15.2123  -43.4708  -16.9266 C   0  0  0  0  0  0  0  0  0  0  0  0
  -16.1503  -42.0961  -15.1645 O   0  0  0  0  0  0  0  0  0  0  0  0
  -16.3094  -42.7683  -16.1714 C   0  0  0  0  0  0  0  0  0  0  0  0
  -17.5513  -43.0185  -16.6445 O   0  0  0  0  0  0  0  0  0  0  0  0
  -15.5039  -43.0785  -22.5949 O   0  0  0  0  0  0  0  0  0  0  0  0
  -14.5773  -43.9362  -23.2550 C   0  0  0  0  0  0  0  0  0  0  0  0
  -16.2100  -44.2237  -19.1621 C   0  0  0  0  0  0  0  0  0  0  0  0
  -15.3253  -43.4108  -18.4307 C   0  0  0  0  0  0  0  0  0  0  0  0
  -14.5348  -42.4886  -19.1217 C   0  0  0  0  0  0  0  0  0  0  0  0
  -14.6130  -42.3698  -20.5118 C   0  0  0  0  0  0  0  0  0  0  0  0
  -15.4500  -43.2492  -21.2264 C   0  0  0  0  0  0  0  0  0  0  0  0
  -16.2872  -44.1886  -20.5721 C   0  0  0  0  0  0  0  0  0  0  0  0
  -18.0260  -47.3113  -21.8374 C   0  0  0  0  0  0  0  0  0  0  0  0
  -17.2675  -46.4524  -21.0479 C   0  0  0  0  0  0  0  0  0  0  0  0
  -17.2010  -45.0778  -21.3290 C   0  0  0  0  0  0  0  0  0  0  0  0
  -17.9797  -44.5917  -22.3949 C   0  0  0  0  0  0  0  0  0  0  0  0
  -18.7076  -45.4541  -23.2106 C   0  0  0  0  0  0  0  0  0  0  0  0
  -18.7017  -46.8186  -22.9457 C   0  0  0  0  0  0  0  0  0  0  0  0
  -14.5857  -39.3339  -23.5806 H   0  0  0  0  0  0  0  0  0  0  0  0
  -13.0567  -41.8092  -21.8444 H   0  0  0  0  0  0  0  0  0  0  0  0
  -13.2243  -40.7118  -20.4821 H   0  0  0  0  0  0  0  0  0  0  0  0
  -17.6191  -44.3351  -17.9579 H   0  0  0  0  0  0  0  0  0  0  0  0
  -14.2605  -43.0225  -16.6140 H   0  0  0  0  0  0  0  0  0  0  0  0
  -15.1676  -44.5144  -16.5994 H   0  0  0  0  0  0  0  0  0  0  0  0
  -18.1265  -42.7402  -15.8875 H   0  0  0  0  0  0  0  0  0  0  0  0
  -14.4495  -43.5746  -24.2788 H   0  0  0  0  0  0  0  0  0  0  0  0
  -13.5970  -43.9557  -22.7685 H   0  0  0  0  0  0  0  0  0  0  0  0
  -14.9945  -44.9432  -23.2907 H   0  0  0  0  0  0  0  0  0  0  0  0
  -13.8640  -41.8309  -18.5692 H   0  0  0  0  0  0  0  0  0  0  0  0
  -18.0244  -48.3774  -21.6404 H   0  0  0  0  0  0  0  0  0  0  0  0
  -16.6895  -46.8703  -20.2285 H   0  0  0  0  0  0  0  0  0  0  0  0
  -17.9839  -43.5276  -22.6247 H   0  0  0  0  0  0  0  0  0  0  0  0
  -19.2587  -45.0614  -24.0590 H   0  0  0  0  0  0  0  0  0  0  0  0
  -19.2137  -47.5122  -23.6073 H   0  0  0  0  0  0  0  0  0  0  0  0
  4  3  1  0
  2  3  2  0
  3  1  1  0
  6  8  1  0
  7  8  2  0
  8  9  1  0
 10 11  1  0
 12  5  1  0
 12 17  2  0
 12 13  1  0
 13 14  2  0
 14 15  1  0
 15 16  2  0
 15  4  1  0
 16 17  1  0
 17 20  1  0
 18 23  2  0
 18 19  1  0
 19 20  2  0
 20 21  1  0
 21 22  2  0
 22 23  1  0
  6 13  1  0
 10 16  1  0
  1 24  1  0
  4 25  1  0
  4 26  1  0
  5 27  1  0
  6 28  1  0
  6 29  1  0
  9 30  1  0
 11 31  1  0
 11 32  1  0
 11 33  1  0
 14 34  1  0
 18 35  1  0
 19 36  1  0
 21 37  1  0
 22 38  1  0
 23 39  1  0
M  END
>  <smiles>  (511) 
[H]OC(=O)C([H])([H])c1c([H])c(C([H])([H])C(=O)O[H])c(OC([H])([H])[H])c(-c2c([H])c([H])c([H])c([H])c2[H])c1O[H]

>  <error>  (511) 


>  <∆∆G>  (511) 
-79.437552

>  <∆G_bound>  (511) 
-46.383883

>  <∆G_unbound>  (511) 
33.053669

>  <comRMSD>  (511) 
0.955133

>  <N_constrained_atoms>  (511) 
23.0

>  <N_unconstrained_atoms>  (511) 
0.0

>  <runtime>  (511) 
2.198813

>  <regarded>  (511) 
['5hn0-a', '5f41-a']

>  <disregarded>  (511) 
[]

>  <LE>  (511) 
3.453807

>  <outcome>  (511) 
acceptable

>  <percent_hybrid>  (511) 
27.0

$$$$
LIG
     RDKit          3D

 39 40  0  0  0  0  0  0  0  0999 V2000
  -11.9658  -40.4463  -21.3507 O   0  0  0  0  0  0  0  0  0  0  0  0
  -14.1871  -40.3717  -21.4578 O   0  0  0  0  0  0  0  0  0  0  0  0
  -13.1798  -41.0227  -21.2307 C   0  0  0  0  0  0  0  0  0  0  0  0
  -13.0869  -42.4760  -20.8395 C   0  0  0  0  0  0  0  0  0  0  0  0
  -17.8011  -44.6379  -18.5008 O   0  0  0  0  0  0  0  0  0  0  0  0
  -16.2244  -42.8230  -16.9777 C   0  0  0  0  0  0  0  0  0  0  0  0
  -18.4218  -41.9842  -17.4635 O   0  0  0  0  0  0  0  0  0  0  0  0
  -16.9211  -40.5409  -16.5847 O   0  0  0  0  0  0  0  0  0  0  0  0
  -17.1977  -41.6654  -16.9782 C   0  0  0  0  0  0  0  0  0  0  0  0
  -14.9626  -44.1374  -22.3696 O   0  0  0  0  0  0  0  0  0  0  0  0
  -15.1403  -43.0487  -23.2760 C   0  0  0  0  0  0  0  0  0  0  0  0
  -16.6855  -44.1254  -19.1289 C   0  0  0  0  0  0  0  0  0  0  0  0
  -15.8617  -43.2821  -18.3701 C   0  0  0  0  0  0  0  0  0  0  0  0
  -14.7072  -42.7592  -18.9626 C   0  0  0  0  0  0  0  0  0  0  0  0
  -14.3782  -43.0364  -20.2964 C   0  0  0  0  0  0  0  0  0  0  0  0
  -15.2574  -43.8150  -21.0641 C   0  0  0  0  0  0  0  0  0  0  0  0
  -16.4119  -44.3952  -20.4860 C   0  0  0  0  0  0  0  0  0  0  0  0
  -18.1265  -47.4267  -21.9137 C   0  0  0  0  0  0  0  0  0  0  0  0
  -17.3863  -46.6174  -21.0616 C   0  0  0  0  0  0  0  0  0  0  0  0
  -17.2922  -45.2415  -21.3047 C   0  0  0  0  0  0  0  0  0  0  0  0
  -18.0082  -44.6907  -22.3806 C   0  0  0  0  0  0  0  0  0  0  0  0
  -18.7171  -45.5069  -23.2528 C   0  0  0  0  0  0  0  0  0  0  0  0
  -18.7449  -46.8796  -23.0327 C   0  0  0  0  0  0  0  0  0  0  0  0
  -12.1533  -39.5093  -21.5664 H   0  0  0  0  0  0  0  0  0  0  0  0
  -12.7729  -43.0507  -21.7082 H   0  0  0  0  0  0  0  0  0  0  0  0
  -12.3071  -42.5865  -20.0763 H   0  0  0  0  0  0  0  0  0  0  0  0
  -18.3406  -45.0897  -19.1803 H   0  0  0  0  0  0  0  0  0  0  0  0
  -15.3238  -42.5119  -16.4335 H   0  0  0  0  0  0  0  0  0  0  0  0
  -16.6464  -43.6344  -16.3893 H   0  0  0  0  0  0  0  0  0  0  0  0
  -18.4621  -42.9258  -17.7310 H   0  0  0  0  0  0  0  0  0  0  0  0
  -15.5801  -43.4476  -24.1954 H   0  0  0  0  0  0  0  0  0  0  0  0
  -14.1732  -42.6148  -23.5338 H   0  0  0  0  0  0  0  0  0  0  0  0
  -15.8086  -42.2719  -22.8877 H   0  0  0  0  0  0  0  0  0  0  0  0
  -14.0559  -42.1037  -18.3824 H   0  0  0  0  0  0  0  0  0  0  0  0
  -18.1446  -48.5010  -21.7689 H   0  0  0  0  0  0  0  0  0  0  0  0
  -16.8352  -47.0716  -20.2431 H   0  0  0  0  0  0  0  0  0  0  0  0
  -17.9666  -43.6206  -22.5724 H   0  0  0  0  0  0  0  0  0  0  0  0
  -19.2207  -45.0791  -24.1139 H   0  0  0  0  0  0  0  0  0  0  0  0
  -19.2362  -47.5399  -23.7436 H   0  0  0  0  0  0  0  0  0  0  0  0
  4  3  1  0
  2  3  2  0
  3  1  1  0
  8  9  2  0
  6  9  1  0
  9  7  1  0
 10 11  1  0
 12  5  1  0
 12 17  2  0
 12 13  1  0
 13 14  2  0
 14 15  1  0
 15 16  2  0
 15  4  1  0
 16 17  1  0
 17 20  1  0
 18 23  2  0
 18 19  1  0
 19 20  2  0
 20 21  1  0
 21 22  2  0
 22 23  1  0
  6 13  1  0
 10 16  1  0
  1 24  1  0
  4 25  1  0
  4 26  1  0
  5 27  1  0
  6 28  1  0
  6 29  1  0
  7 30  1  0
 11 31  1  0
 11 32  1  0
 11 33  1  0
 14 34  1  0
 18 35  1  0
 19 36  1  0
 21 37  1  0
 22 38  1  0
 23 39  1  0
M  END
>  <smiles>  (512) 
[H]OC(=O)C([H])([H])c1c([H])c(C([H])([H])C(=O)O[H])c(OC([H])([H])[H])c(-c2c([H])c([H])c([H])c([H])c2[H])c1O[H]

>  <error>  (512) 


>  <∆∆G>  (512) 
-138.469468

>  <∆G_bound>  (512) 
-50.524775

>  <∆G_unbound>  (512) 
87.944693

>  <comRMSD>  (512) 
1.174259

>  <N_constrained_atoms>  (512) 
23.0

>  <N_unconstrained_atoms>  (512) 
0.0

>  <runtime>  (512) 
2.563584

>  <regarded>  (512) 
['5hn0-a', '6h80-a']

>  <disregarded>  (512) 
[]

>  <LE>  (512) 
6.020412

>  <outcome>  (512) 
too moved

>  <percent_hybrid>  (512) 
27.0

$$$$
LIG
     RDKit          3D

 41 42  0  0  0  0  0  0  0  0999 V2000
  -12.0190  -40.3668  -21.5233 O   0  0  0  0  0  0  0  0  0  0  0  0
  -13.8165  -40.1969  -20.2218 O   0  0  0  0  0  0  0  0  0  0  0  0
  -13.0071  -40.9159  -20.7847 C   0  0  0  0  0  0  0  0  0  0  0  0
  -12.9101  -42.4223  -20.7490 C   0  0  0  0  0  0  0  0  0  0  0  0
  -17.4174  -44.9984  -18.4444 O   0  0  0  0  0  0  0  0  0  0  0  0
  -19.4556  -46.3751  -24.5733 C   0  0  0  0  0  0  0  0  0  0  0  0
  -20.0758  -46.5844  -25.5798 C   0  0  0  0  0  0  0  0  0  0  0  0
  -20.8231  -46.7831  -26.8156 C   0  0  0  0  0  0  0  0  0  0  0  0
  -21.9271  -45.8898  -26.8681 O   0  0  0  0  0  0  0  0  0  0  0  0
  -17.3595  -42.3833  -15.1759 O   0  0  0  0  0  0  0  0  0  0  0  0
  -18.1944  -42.8925  -17.1934 O   0  0  0  0  0  0  0  0  0  0  0  0
  -15.8009  -43.1949  -16.7595 C   0  0  0  0  0  0  0  0  0  0  0  0
  -17.2233  -42.7963  -16.4536 C   0  0  0  0  0  0  0  0  0  0  0  0
  -16.3371  -44.3670  -19.0062 C   0  0  0  0  0  0  0  0  0  0  0  0
  -15.5239  -43.5391  -18.2076 C   0  0  0  0  0  0  0  0  0  0  0  0
  -14.3896  -42.9526  -18.7852 C   0  0  0  0  0  0  0  0  0  0  0  0
  -14.1011  -43.1152  -20.1377 C   0  0  0  0  0  0  0  0  0  0  0  0
  -14.9596  -43.8900  -20.9219 C   0  0  0  0  0  0  0  0  0  0  0  0
  -16.1147  -44.4934  -20.3855 C   0  0  0  0  0  0  0  0  0  0  0  0
  -18.3709  -46.8231  -22.3796 C   0  0  0  0  0  0  0  0  0  0  0  0
  -17.5446  -46.3637  -21.3430 C   0  0  0  0  0  0  0  0  0  0  0  0
  -17.1032  -45.0350  -21.3329 C   0  0  0  0  0  0  0  0  0  0  0  0
  -17.5899  -44.1607  -22.3243 C   0  0  0  0  0  0  0  0  0  0  0  0
  -18.3991  -44.6113  -23.3528 C   0  0  0  0  0  0  0  0  0  0  0  0
  -18.7452  -45.9535  -23.4090 C   0  0  0  0  0  0  0  0  0  0  0  0
  -12.1379  -39.3995  -21.4219 H   0  0  0  0  0  0  0  0  0  0  0  0
  -12.7989  -42.7735  -21.7755 H   0  0  0  0  0  0  0  0  0  0  0  0
  -12.0128  -42.6918  -20.1852 H   0  0  0  0  0  0  0  0  0  0  0  0
  -18.0635  -44.2671  -18.3021 H   0  0  0  0  0  0  0  0  0  0  0  0
  -21.1789  -47.8095  -26.9335 H   0  0  0  0  0  0  0  0  0  0  0  0
  -20.1760  -46.5368  -27.6541 H   0  0  0  0  0  0  0  0  0  0  0  0
  -22.6943  -46.3672  -26.4847 H   0  0  0  0  0  0  0  0  0  0  0  0
  -18.2973  -42.6076  -14.9589 H   0  0  0  0  0  0  0  0  0  0  0  0
  -15.1741  -42.3466  -16.4561 H   0  0  0  0  0  0  0  0  0  0  0  0
  -15.5169  -44.0505  -16.1415 H   0  0  0  0  0  0  0  0  0  0  0  0
  -13.7392  -42.3160  -18.1846 H   0  0  0  0  0  0  0  0  0  0  0  0
  -14.7513  -43.9912  -21.9885 H   0  0  0  0  0  0  0  0  0  0  0  0
  -18.6745  -47.8669  -22.4040 H   0  0  0  0  0  0  0  0  0  0  0  0
  -17.2157  -47.0563  -20.5739 H   0  0  0  0  0  0  0  0  0  0  0  0
  -17.2971  -43.1111  -22.3166 H   0  0  0  0  0  0  0  0  0  0  0  0
  -18.7146  -43.9169  -24.1267 H   0  0  0  0  0  0  0  0  0  0  0  0
  4  3  1  0
  2  3  2  0
  3  1  1  0
  9  8  1  0
  8  7  1  0
  7  6  3  0
 12 13  1  0
 11 13  2  0
 13 10  1  0
 14  5  1  0
 14 19  2  0
 14 15  1  0
 15 16  2  0
 16 17  1  0
 17 18  2  0
 17  4  1  0
 18 19  1  0
 19 22  1  0
 20 25  2  0
 20 21  1  0
 21 22  2  0
 22 23  1  0
 23 24  2  0
 24 25  1  0
 12 15  1  0
  6 25  1  0
  1 26  1  0
  4 27  1  0
  4 28  1  0
  5 29  1  0
  8 30  1  0
  8 31  1  0
  9 32  1  0
 10 33  1  0
 12 34  1  0
 12 35  1  0
 16 36  1  0
 18 37  1  0
 20 38  1  0
 21 39  1  0
 23 40  1  0
 24 41  1  0
M  END
>  <smiles>  (513) 
[H]OC(=O)C([H])([H])c1c([H])c(-c2c([H])c([H])c(C#CC([H])([H])O[H])c([H])c2[H])c(O[H])c(C([H])([H])C(=O)O[H])c1[H]

>  <error>  (513) 


>  <∆∆G>  (513) 
-70.629986

>  <∆G_bound>  (513) 
8.988386

>  <∆G_unbound>  (513) 
79.618372

>  <comRMSD>  (513) 
0.971454

>  <N_constrained_atoms>  (513) 
25.0

>  <N_unconstrained_atoms>  (513) 
0.0

>  <runtime>  (513) 
2.413953

>  <regarded>  (513) 
['5hn0-a', '5hmy-a']

>  <disregarded>  (513) 
[]

>  <LE>  (513) 
2.825199

>  <outcome>  (513) 
acceptable

>  <percent_hybrid>  (513) 
32.0

$$$$
LIG
     RDKit          3D

 51 54  0  0  0  0  0  0  0  0999 V2000
  -12.1928  -40.4946  -21.5974 O   0  0  0  0  0  0  0  0  0  0  0  0
  -13.6273  -40.3448  -19.9063 O   0  0  0  0  0  0  0  0  0  0  0  0
  -13.0159  -41.0533  -20.6867 C   0  0  0  0  0  0  0  0  0  0  0  0
  -12.9714  -42.5618  -20.7443 C   0  0  0  0  0  0  0  0  0  0  0  0
  -17.3906  -45.3848  -18.4528 O   0  0  0  0  0  0  0  0  0  0  0  0
  -16.9993  -38.6533  -27.1785 C   0  0  0  0  0  0  0  0  0  0  0  0
  -16.5700  -40.0841  -27.0395 C   0  0  0  0  0  0  0  0  0  0  0  0
  -17.2712  -41.0411  -27.3491 O   0  0  0  0  0  0  0  0  0  0  0  0
  -15.3032  -40.1626  -26.5018 O   0  0  0  0  0  0  0  0  0  0  0  0
  -16.2906  -44.8030  -19.1789 C   0  0  2  0  0  0  0  0  0  0  0  0
  -15.5942  -43.8816  -18.1912 C   0  0  0  0  0  0  0  0  0  0  0  0
  -14.5442  -42.9879  -18.8228 C   0  0  0  0  0  0  0  0  0  0  0  0
  -14.1964  -43.3735  -20.2712 C   0  0  1  0  0  0  0  0  0  0  0  0
  -15.4664  -43.3230  -21.1891 C   0  0  1  0  0  0  0  0  0  0  0  0
  -16.7137  -44.0673  -20.4879 C   0  0  1  0  0  0  0  0  0  0  0  0
  -18.2743  -47.1432  -22.2189 C   0  0  0  0  0  0  0  0  0  0  0  0
  -17.6030  -46.3651  -21.2835 C   0  0  0  0  0  0  0  0  0  0  0  0
  -17.5530  -44.9665  -21.4123 C   0  0  0  0  0  0  0  0  0  0  0  0
  -18.2628  -44.3740  -22.4716 C   0  0  0  0  0  0  0  0  0  0  0  0
  -18.8654  -45.1592  -23.4503 C   0  0  0  0  0  0  0  0  0  0  0  0
  -18.8324  -46.5456  -23.3406 C   0  0  0  0  0  0  0  0  0  0  0  0
  -15.8090  -41.9076  -21.2982 O   0  0  0  0  0  0  0  0  0  0  0  0
  -15.6161  -41.4535  -22.5785 C   0  0  0  0  0  0  0  0  0  0  0  0
  -15.3740  -42.3770  -23.5786 C   0  0  0  0  0  0  0  0  0  0  0  0
  -15.0900  -43.9634  -22.8952 S   0  0  0  0  0  0  0  0  0  0  0  0
  -15.4122  -40.6154  -25.1910 C   0  0  0  0  0  0  0  0  0  0  0  0
  -15.3255  -41.9771  -24.9039 C   0  0  0  0  0  0  0  0  0  0  0  0
  -15.6646  -40.0943  -22.8537 C   0  0  0  0  0  0  0  0  0  0  0  0
  -15.5242  -39.6664  -24.1714 C   0  0  0  0  0  0  0  0  0  0  0  0
  -12.2160  -39.5361  -21.3994 H   0  0  0  0  0  0  0  0  0  0  0  0
  -12.7496  -42.8488  -21.7701 H   0  0  0  0  0  0  0  0  0  0  0  0
  -12.1080  -42.8490  -20.1351 H   0  0  0  0  0  0  0  0  0  0  0  0
  -18.2175  -45.1058  -18.8913 H   0  0  0  0  0  0  0  0  0  0  0  0
  -17.3245  -38.2661  -26.2105 H   0  0  0  0  0  0  0  0  0  0  0  0
  -16.1855  -38.0422  -27.5732 H   0  0  0  0  0  0  0  0  0  0  0  0
  -17.8388  -38.6027  -27.8752 H   0  0  0  0  0  0  0  0  0  0  0  0
  -15.6115  -45.6299  -19.4202 H   0  0  0  0  0  0  0  0  0  0  0  0
  -16.3329  -43.2613  -17.6657 H   0  0  0  0  0  0  0  0  0  0  0  0
  -15.1367  -44.4900  -17.4005 H   0  0  0  0  0  0  0  0  0  0  0  0
  -14.9283  -41.9636  -18.7809 H   0  0  0  0  0  0  0  0  0  0  0  0
  -13.6419  -43.0017  -18.1988 H   0  0  0  0  0  0  0  0  0  0  0  0
  -13.8540  -44.4188  -20.2507 H   0  0  0  0  0  0  0  0  0  0  0  0
  -17.4191  -43.2858  -20.1630 H   0  0  0  0  0  0  0  0  0  0  0  0
  -18.2979  -48.2244  -22.1135 H   0  0  0  0  0  0  0  0  0  0  0  0
  -17.1031  -46.8921  -20.4774 H   0  0  0  0  0  0  0  0  0  0  0  0
  -18.2797  -43.2918  -22.5865 H   0  0  0  0  0  0  0  0  0  0  0  0
  -19.3450  -44.6911  -24.3048 H   0  0  0  0  0  0  0  0  0  0  0  0
  -19.2641  -47.1688  -24.1209 H   0  0  0  0  0  0  0  0  0  0  0  0
  -15.2054  -42.7033  -25.6946 H   0  0  0  0  0  0  0  0  0  0  0  0
  -15.8045  -39.3802  -22.0473 H   0  0  0  0  0  0  0  0  0  0  0  0
  -15.5327  -38.6056  -24.4025 H   0  0  0  0  0  0  0  0  0  0  0  0
  4  3  1  0
  2  3  2  0
  3  1  1  0
  9  7  1  0
  7  8  2  0
  7  6  1  0
 10  5  1  0
 10 15  1  0
 10 11  1  0
 11 12  1  0
 12 13  1  0
 13 14  1  0
 13  4  1  0
 14 15  1  0
 15 18  1  0
 16 21  2  0
 16 17  1  0
 17 18  2  0
 18 19  1  0
 19 20  2  0
 20 21  1  0
 22 23  1  0
 23 28  2  0
 23 24  1  0
 24 25  1  0
 24 27  2  0
 26 29  2  0
 26 27  1  0
 26  9  1  0
 28 29  1  0
 14 22  1  6
 14 25  1  0
  1 30  1  0
  4 31  1  0
  4 32  1  0
  5 33  1  0
  6 34  1  0
  6 35  1  0
  6 36  1  0
 10 37  1  6
 11 38  1  0
 11 39  1  0
 12 40  1  0
 12 41  1  0
 13 42  1  6
 15 43  1  1
 16 44  1  0
 17 45  1  0
 19 46  1  0
 20 47  1  0
 21 48  1  0
 27 49  1  0
 28 50  1  0
 29 51  1  0
M  END
>  <smiles>  (514) 
[H]OC(=O)C([H])([H])[C@]1([H])C([H])([H])C([H])([H])[C@@]([H])(O[H])[C@]([H])(c2c([H])c([H])c([H])c([H])c2[H])[C@@]12Oc1c([H])c([H])c(OC(=O)C([H])([H])[H])c([H])c1S2

>  <error>  (514) 


>  <∆∆G>  (514) 
-125.620421

>  <∆G_bound>  (514) 
195.953673

>  <∆G_unbound>  (514) 
321.574095

>  <comRMSD>  (514) 
1.076288

>  <N_constrained_atoms>  (514) 
29.0

>  <N_unconstrained_atoms>  (514) 
0.0

>  <runtime>  (514) 
3.398912

>  <regarded>  (514) 
['5hn0-a', '6izx-a']

>  <disregarded>  (514) 
[]

>  <LE>  (514) 
4.331739

>  <outcome>  (514) 
too moved

>  <percent_hybrid>  (514) 
42.0

$$$$
LIG
     RDKit          3D

 64 67  0  0  0  0  0  0  0  0999 V2000
  -12.5199  -39.8486  -22.1396 O   0  0  0  0  0  0  0  0  0  0  0  0
  -14.4667  -39.7889  -21.0631 O   0  0  0  0  0  0  0  0  0  0  0  0
  -13.4854  -40.4326  -21.3959 C   0  0  0  0  0  0  0  0  0  0  0  0
  -13.1280  -41.8463  -21.0182 C   0  0  0  0  0  0  0  0  0  0  0  0
  -17.4088  -44.8080  -18.6667 O   0  0  0  0  0  0  0  0  0  0  0  0
  -22.0140  -45.8591  -26.9861 O   0  0  0  0  0  0  0  0  0  0  0  0
  -19.5546  -46.2963  -24.6814 C   0  0  0  0  0  0  0  0  0  0  0  0
  -20.1774  -46.5436  -25.6764 C   0  0  0  0  0  0  0  0  0  0  0  0
  -20.9158  -46.7581  -26.9101 C   0  0  0  0  0  0  0  0  0  0  0  0
  -16.8834  -42.8882  -16.6975 O   0  0  0  0  0  0  0  0  0  0  0  0
  -15.7384  -43.6463  -13.8999 O   0  0  0  0  0  0  0  0  0  0  0  0
  -15.8166  -43.2539  -17.0035 C   0  0  0  0  0  0  0  0  0  0  0  0
  -13.5234  -44.7906  -14.1694 O   0  0  0  0  0  0  0  0  0  0  0  0
  -14.4352  -43.7189  -14.5024 S   0  0  0  0  0  0  0  0  0  0  0  0
  -14.6172  -43.7100  -16.1244 N   0  0  0  0  0  0  0  0  0  0  0  0
  -13.5532  -41.7206  -18.1287 C   0  0  0  0  0  0  0  0  0  0  0  0
  -15.1291  -43.0490  -22.5303 O   0  0  0  0  0  0  0  0  0  0  0  0
  -14.4615  -44.0751  -23.2483 C   0  0  0  0  0  0  0  0  0  0  0  0
  -16.3747  -44.1023  -19.2446 C   0  0  0  0  0  0  0  0  0  0  0  0
  -15.4954  -43.3508  -18.4361 C   0  0  0  0  0  0  0  0  0  0  0  0
  -14.4418  -42.5918  -18.9799 C   0  0  0  0  0  0  0  0  0  0  0  0
  -14.2582  -42.6203  -20.3705 C   0  0  0  0  0  0  0  0  0  0  0  0
  -15.1871  -43.3165  -21.1768 C   0  0  0  0  0  0  0  0  0  0  0  0
  -16.2562  -44.0809  -20.6387 C   0  0  0  0  0  0  0  0  0  0  0  0
  -18.3473  -46.6267  -22.5369 C   0  0  0  0  0  0  0  0  0  0  0  0
  -17.5346  -46.0753  -21.5384 C   0  0  0  0  0  0  0  0  0  0  0  0
  -17.2619  -44.6974  -21.5260 C   0  0  0  0  0  0  0  0  0  0  0  0
  -17.9200  -43.8801  -22.4596 C   0  0  0  0  0  0  0  0  0  0  0  0
  -18.6981  -44.4244  -23.4666 C   0  0  0  0  0  0  0  0  0  0  0  0
  -18.8623  -45.8007  -23.5374 C   0  0  0  0  0  0  0  0  0  0  0  0
  -14.5073  -41.2002  -13.5123 C   0  0  0  0  0  0  0  0  0  0  0  0
  -13.9872  -39.9486  -13.2443 C   0  0  0  0  0  0  0  0  0  0  0  0
  -12.6889  -39.6646  -13.6444 C   0  0  0  0  0  0  0  0  0  0  0  0
  -11.9108  -40.6307  -14.3098 C   0  0  0  0  0  0  0  0  0  0  0  0
  -12.4225  -41.9132  -14.5983 C   0  0  0  0  0  0  0  0  0  0  0  0
  -13.7208  -42.1568  -14.1815 C   0  0  0  0  0  0  0  0  0  0  0  0
  -10.5992  -40.3394  -14.6959 C   0  0  0  0  0  0  0  0  0  0  0  0
   -9.8231  -41.3115  -15.3096 C   0  0  0  0  0  0  0  0  0  0  0  0
  -10.3978  -42.5412  -15.5431 C   0  0  0  0  0  0  0  0  0  0  0  0
  -11.6817  -42.8368  -15.2560 N   0  0  0  0  0  0  0  0  0  0  0  0
  -12.8506  -38.9341  -22.2596 H   0  0  0  0  0  0  0  0  0  0  0  0
  -12.8128  -42.3826  -21.9071 H   0  0  0  0  0  0  0  0  0  0  0  0
  -12.2476  -41.8253  -20.3663 H   0  0  0  0  0  0  0  0  0  0  0  0
  -17.8215  -44.2022  -18.0105 H   0  0  0  0  0  0  0  0  0  0  0  0
  -22.7860  -46.3288  -26.6074 H   0  0  0  0  0  0  0  0  0  0  0  0
  -21.2726  -47.7851  -27.0188 H   0  0  0  0  0  0  0  0  0  0  0  0
  -20.2533  -46.5159  -27.7369 H   0  0  0  0  0  0  0  0  0  0  0  0
  -13.8113  -43.8843  -16.7143 H   0  0  0  0  0  0  0  0  0  0  0  0
  -14.0467  -41.4033  -17.2068 H   0  0  0  0  0  0  0  0  0  0  0  0
  -12.6290  -42.2526  -17.8874 H   0  0  0  0  0  0  0  0  0  0  0  0
  -13.2988  -40.7828  -18.6310 H   0  0  0  0  0  0  0  0  0  0  0  0
  -13.5860  -44.4599  -22.7158 H   0  0  0  0  0  0  0  0  0  0  0  0
  -15.1631  -44.8852  -23.4539 H   0  0  0  0  0  0  0  0  0  0  0  0
  -14.1281  -43.6594  -24.2032 H   0  0  0  0  0  0  0  0  0  0  0  0
  -18.5261  -47.6988  -22.5587 H   0  0  0  0  0  0  0  0  0  0  0  0
  -17.0772  -46.7313  -20.8030 H   0  0  0  0  0  0  0  0  0  0  0  0
  -17.7631  -42.8020  -22.4471 H   0  0  0  0  0  0  0  0  0  0  0  0
  -19.1345  -43.7678  -24.2146 H   0  0  0  0  0  0  0  0  0  0  0  0
  -15.5281  -41.4228  -13.2037 H   0  0  0  0  0  0  0  0  0  0  0  0
  -14.5852  -39.2011  -12.7292 H   0  0  0  0  0  0  0  0  0  0  0  0
  -12.2784  -38.6795  -13.4288 H   0  0  0  0  0  0  0  0  0  0  0  0
  -10.1627  -39.3641  -14.4928 H   0  0  0  0  0  0  0  0  0  0  0  0
   -8.7896  -41.1194  -15.5756 H   0  0  0  0  0  0  0  0  0  0  0  0
   -9.8178  -43.3585  -15.9593 H   0  0  0  0  0  0  0  0  0  0  0  0
  4  3  1  0
  2  3  2  0
  3  1  1  0
  6  9  1  0
  9  8  1  0
  8  7  3  0
 10 12  2  0
 12 15  1  0
 11 14  2  0
 15 14  1  0
 14 13  2  0
 17 18  1  0
 19  5  1  0
 19 24  2  0
 19 20  1  0
 20 21  2  0
 21 22  1  0
 22 23  2  0
 22  4  1  0
 23 24  1  0
 24 27  1  0
 25 30  2  0
 25 26  1  0
 26 27  2  0
 27 28  1  0
 28 29  2  0
 29 30  1  0
 31 36  2  0
 31 32  1  0
 32 33  2  0
 33 34  1  0
 34 35  2  0
 34 37  1  0
 35 36  1  0
 35 40  1  0
 36 14  1  0
 37 38  2  0
 38 39  1  0
 39 40  2  0
 12 20  1  0
 16 21  1  0
 17 23  1  0
  7 30  1  0
  1 41  1  0
  4 42  1  0
  4 43  1  0
  5 44  1  0
  6 45  1  0
  9 46  1  0
  9 47  1  0
 15 48  1  0
 16 49  1  0
 16 50  1  0
 16 51  1  0
 18 52  1  0
 18 53  1  0
 18 54  1  0
 25 55  1  0
 26 56  1  0
 28 57  1  0
 29 58  1  0
 31 59  1  0
 32 60  1  0
 33 61  1  0
 37 62  1  0
 38 63  1  0
 39 64  1  0
M  END
>  <smiles>  (515) 
[H]OC(=O)C([H])([H])c1c(OC([H])([H])[H])c(-c2c([H])c([H])c(C#CC([H])([H])O[H])c([H])c2[H])c(O[H])c(C(=O)N([H])S(=O)(=O)c2c([H])c([H])c([H])c3c([H])c([H])c([H])nc23)c1C([H])([H])[H]

>  <error>  (515) 


>  <∆∆G>  (515) 
-68.023677

>  <∆G_bound>  (515) 
-9.343128

>  <∆G_unbound>  (515) 
58.680549

>  <comRMSD>  (515) 
0.855262

>  <N_constrained_atoms>  (515) 
40.0

>  <N_unconstrained_atoms>  (515) 
0.0

>  <runtime>  (515) 
4.524444

>  <regarded>  (515) 
['5hn0-a', '5i3q-a']

>  <disregarded>  (515) 
[]

>  <LE>  (515) 
1.700592

>  <outcome>  (515) 
acceptable

>  <percent_hybrid>  (515) 
43.0

$$$$
LIG
     RDKit          3D

 35 36  0  0  0  0  0  0  0  0999 V2000
  -12.1704  -40.1181  -21.6375 O   0  0  0  0  0  0  0  0  0  0  0  0
  -13.7550  -40.0144  -20.0748 O   0  0  0  0  0  0  0  0  0  0  0  0
  -13.1113  -40.6944  -20.8564 C   0  0  0  0  0  0  0  0  0  0  0  0
  -13.1880  -42.1833  -21.0915 C   0  0  0  0  0  0  0  0  0  0  0  0
  -17.2641  -44.9729  -18.2927 O   0  0  0  0  0  0  0  0  0  0  0  0
  -16.3761  -41.9008  -15.1768 O   0  0  0  0  0  0  0  0  0  0  0  0
  -17.6892  -42.8937  -16.6836 O   0  0  0  0  0  0  0  0  0  0  0  0
  -15.3447  -43.4314  -16.7466 C   0  0  0  0  0  0  0  0  0  0  0  0
  -16.4768  -42.6457  -16.1399 C   0  0  0  0  0  0  0  0  0  0  0  0
  -16.2620  -44.3311  -18.9787 C   0  0  0  0  0  0  0  0  0  0  0  0
  -15.3436  -43.5480  -18.2528 C   0  0  0  0  0  0  0  0  0  0  0  0
  -14.3553  -42.8492  -18.9558 C   0  0  0  0  0  0  0  0  0  0  0  0
  -14.2783  -42.9119  -20.3461 C   0  0  0  0  0  0  0  0  0  0  0  0
  -15.1919  -43.7155  -21.0396 C   0  0  0  0  0  0  0  0  0  0  0  0
  -16.2122  -44.4261  -20.3803 C   0  0  0  0  0  0  0  0  0  0  0  0
  -18.1308  -47.3388  -21.8317 C   0  0  0  0  0  0  0  0  0  0  0  0
  -17.3685  -46.5748  -20.9521 C   0  0  0  0  0  0  0  0  0  0  0  0
  -17.1573  -45.2120  -21.1943 C   0  0  0  0  0  0  0  0  0  0  0  0
  -17.7991  -44.6269  -22.3038 C   0  0  0  0  0  0  0  0  0  0  0  0
  -18.5611  -45.3915  -23.1833 C   0  0  0  0  0  0  0  0  0  0  0  0
  -18.6885  -46.7570  -22.9646 C   0  0  0  0  0  0  0  0  0  0  0  0
  -12.1568  -39.1778  -21.3607 H   0  0  0  0  0  0  0  0  0  0  0  0
  -13.3515  -42.3275  -22.1622 H   0  0  0  0  0  0  0  0  0  0  0  0
  -12.2265  -42.6230  -20.8099 H   0  0  0  0  0  0  0  0  0  0  0  0
  -17.7263  -44.2322  -17.8371 H   0  0  0  0  0  0  0  0  0  0  0  0
  -18.2968  -42.5225  -15.9974 H   0  0  0  0  0  0  0  0  0  0  0  0
  -14.4169  -42.9445  -16.4185 H   0  0  0  0  0  0  0  0  0  0  0  0
  -15.3158  -44.4307  -16.3065 H   0  0  0  0  0  0  0  0  0  0  0  0
  -13.6324  -42.2373  -18.4157 H   0  0  0  0  0  0  0  0  0  0  0  0
  -15.1007  -43.7991  -22.1234 H   0  0  0  0  0  0  0  0  0  0  0  0
  -18.2332  -48.4066  -21.6807 H   0  0  0  0  0  0  0  0  0  0  0  0
  -16.8972  -47.0574  -20.1011 H   0  0  0  0  0  0  0  0  0  0  0  0
  -17.6733  -43.5649  -22.5064 H   0  0  0  0  0  0  0  0  0  0  0  0
  -19.0167  -44.9303  -24.0535 H   0  0  0  0  0  0  0  0  0  0  0  0
  -19.2080  -47.3842  -23.6846 H   0  0  0  0  0  0  0  0  0  0  0  0
  4  3  1  0
  2  3  2  0
  3  1  1  0
  8  9  1  0
  9  6  2  0
  9  7  1  0
 10  5  1  0
 10 15  2  0
 10 11  1  0
 11 12  2  0
 12 13  1  0
 13 14  2  0
 13  4  1  0
 14 15  1  0
 15 18  1  0
 16 21  2  0
 16 17  1  0
 17 18  2  0
 18 19  1  0
 19 20  2  0
 20 21  1  0
  8 11  1  0
  1 22  1  0
  4 23  1  0
  4 24  1  0
  5 25  1  0
  7 26  1  0
  8 27  1  0
  8 28  1  0
 12 29  1  0
 14 30  1  0
 16 31  1  0
 17 32  1  0
 19 33  1  0
 20 34  1  0
 21 35  1  0
M  END
>  <smiles>  (516) 
[H]OC(=O)C([H])([H])c1c([H])c(-c2c([H])c([H])c([H])c([H])c2[H])c(O[H])c(C([H])([H])C(=O)O[H])c1[H]

>  <error>  (516) 


>  <∆∆G>  (516) 
-109.351118

>  <∆G_bound>  (516) 
-39.74535

>  <∆G_unbound>  (516) 
69.605768

>  <comRMSD>  (516) 
0.851255

>  <N_constrained_atoms>  (516) 
21.0

>  <N_unconstrained_atoms>  (516) 
0.0

>  <runtime>  (516) 
1.232705

>  <regarded>  (516) 
['5hn0-a', '5hmx-b']

>  <disregarded>  (516) 
[]

>  <LE>  (516) 
5.207196

>  <outcome>  (516) 
acceptable

>  <percent_hybrid>  (516) 
20.0

$$$$
LIG
     RDKit          3D

 64 66  0  0  0  0  0  0  0  0999 V2000
  -13.4074  -38.9463  -21.3574 O   0  0  0  0  0  0  0  0  0  0  0  0
  -15.1445  -39.5400  -20.0948 O   0  0  0  0  0  0  0  0  0  0  0  0
  -14.2642  -39.8721  -20.8720 C   0  0  0  0  0  0  0  0  0  0  0  0
  -13.9929  -41.2414  -21.4499 C   0  0  0  0  0  0  0  0  0  0  0  0
  -17.1014  -45.0348  -18.5613 O   0  0  0  0  0  0  0  0  0  0  0  0
  -13.6091  -41.7995  -18.6481 O   0  0  0  0  0  0  0  0  0  0  0  0
  -12.2815  -42.3220  -18.7265 C   0  0  0  0  0  0  0  0  0  0  0  0
  -19.4209  -45.8203  -24.4660 C   0  0  0  0  0  0  0  0  0  0  0  0
  -20.0801  -46.0103  -25.4565 C   0  0  0  0  0  0  0  0  0  0  0  0
  -20.8215  -46.4316  -26.6529 C   0  0  0  0  0  0  0  0  0  0  0  0
  -21.9818  -45.6348  -26.8216 O   0  0  0  0  0  0  0  0  0  0  0  0
  -17.2656  -41.7956  -14.5078 O   0  0  0  0  0  0  0  0  0  0  0  0
  -12.4955  -38.8319  -15.6855 O   0  0  0  0  0  0  0  0  0  0  0  0
  -14.2440  -44.4586  -16.8910 O   0  0  0  0  0  0  0  0  0  0  0  0
  -15.0509  -43.6809  -17.2271 C   0  0  0  0  0  0  0  0  0  0  0  0
  -15.9115  -42.6939  -16.3864 N   0  0  0  0  0  0  0  0  0  0  0  0
  -16.0369  -42.5094  -14.7681 S   0  0  0  0  0  0  0  0  0  0  0  0
  -15.6721  -43.7538  -14.1422 O   0  0  0  0  0  0  0  0  0  0  0  0
  -13.0945  -38.5773  -16.9497 C   0  0  0  0  0  0  0  0  0  0  0  0
  -15.5274  -43.2317  -22.7786 O   0  0  0  0  0  0  0  0  0  0  0  0
  -14.3926  -43.9519  -23.2667 C   0  0  0  0  0  0  0  0  0  0  0  0
  -16.2625  -44.2494  -19.3251 C   0  0  0  0  0  0  0  0  0  0  0  0
  -15.3080  -43.4749  -18.6574 C   0  0  0  0  0  0  0  0  0  0  0  0
  -14.5012  -42.5697  -19.3472 C   0  0  0  0  0  0  0  0  0  0  0  0
  -14.6889  -42.3730  -20.7168 C   0  0  0  0  0  0  0  0  0  0  0  0
  -15.5320  -43.2773  -21.4023 C   0  0  0  0  0  0  0  0  0  0  0  0
  -16.3532  -44.2230  -20.7372 C   0  0  0  0  0  0  0  0  0  0  0  0
  -17.8599  -47.5628  -21.6285 C   0  0  0  0  0  0  0  0  0  0  0  0
  -17.1101  -46.5685  -21.0307 C   0  0  0  0  0  0  0  0  0  0  0  0
  -17.1729  -45.2296  -21.4676 C   0  0  0  0  0  0  0  0  0  0  0  0
  -17.9725  -44.9423  -22.5990 C   0  0  0  0  0  0  0  0  0  0  0  0
  -18.6815  -45.9650  -23.2415 C   0  0  0  0  0  0  0  0  0  0  0  0
  -18.6513  -47.2578  -22.7181 C   0  0  0  0  0  0  0  0  0  0  0  0
  -12.5120  -39.9361  -13.6353 C   0  0  0  0  0  0  0  0  0  0  0  0
  -13.0209  -40.8564  -12.7211 C   0  0  0  0  0  0  0  0  0  0  0  0
  -14.1281  -41.6133  -13.0699 C   0  0  0  0  0  0  0  0  0  0  0  0
  -14.7153  -41.4357  -14.3301 C   0  0  0  0  0  0  0  0  0  0  0  0
  -14.2166  -40.5157  -15.2462 C   0  0  0  0  0  0  0  0  0  0  0  0
  -13.1046  -39.7617  -14.8927 C   0  0  0  0  0  0  0  0  0  0  0  0
  -13.6821  -38.1131  -20.9203 H   0  0  0  0  0  0  0  0  0  0  0  0
  -14.3183  -41.1862  -22.4943 H   0  0  0  0  0  0  0  0  0  0  0  0
  -12.9150  -41.4276  -21.4540 H   0  0  0  0  0  0  0  0  0  0  0  0
  -17.9081  -45.2084  -19.0850 H   0  0  0  0  0  0  0  0  0  0  0  0
  -11.6928  -41.8461  -17.9367 H   0  0  0  0  0  0  0  0  0  0  0  0
  -12.2600  -43.4042  -18.5603 H   0  0  0  0  0  0  0  0  0  0  0  0
  -11.8219  -42.0770  -19.6866 H   0  0  0  0  0  0  0  0  0  0  0  0
  -21.1047  -47.4869  -26.6188 H   0  0  0  0  0  0  0  0  0  0  0  0
  -20.2044  -46.2994  -27.5402 H   0  0  0  0  0  0  0  0  0  0  0  0
  -22.7316  -46.1482  -26.4507 H   0  0  0  0  0  0  0  0  0  0  0  0
  -16.5740  -42.2191  -16.9932 H   0  0  0  0  0  0  0  0  0  0  0  0
  -14.1262  -38.2264  -16.8409 H   0  0  0  0  0  0  0  0  0  0  0  0
  -12.5242  -37.7778  -17.4326 H   0  0  0  0  0  0  0  0  0  0  0  0
  -13.0382  -39.4563  -17.5962 H   0  0  0  0  0  0  0  0  0  0  0  0
  -13.4524  -43.5812  -22.8550 H   0  0  0  0  0  0  0  0  0  0  0  0
  -14.5062  -45.0043  -23.0074 H   0  0  0  0  0  0  0  0  0  0  0  0
  -14.3658  -43.8412  -24.3526 H   0  0  0  0  0  0  0  0  0  0  0  0
  -17.7523  -48.5912  -21.3123 H   0  0  0  0  0  0  0  0  0  0  0  0
  -16.4440  -46.8567  -20.2190 H   0  0  0  0  0  0  0  0  0  0  0  0
  -18.0152  -43.9310  -22.9966 H   0  0  0  0  0  0  0  0  0  0  0  0
  -19.1943  -48.0614  -23.2091 H   0  0  0  0  0  0  0  0  0  0  0  0
  -11.6393  -39.3436  -13.3692 H   0  0  0  0  0  0  0  0  0  0  0  0
  -12.5484  -40.9843  -11.7512 H   0  0  0  0  0  0  0  0  0  0  0  0
  -14.5212  -42.3486  -12.3709 H   0  0  0  0  0  0  0  0  0  0  0  0
  -14.6895  -40.4109  -16.2149 H   0  0  0  0  0  0  0  0  0  0  0  0
  4  3  1  0
  2  3  2  0
  3  1  1  0
  6  7  1  0
 10 11  1  0
 10  9  1  0
  9  8  3  0
 16 15  1  0
 16 17  1  0
 15 14  2  0
 12 17  2  0
 18 17  2  0
 19 13  1  0
 20 21  1  0
 22  5  1  0
 22 27  2  0
 22 23  1  0
 23 24  2  0
 24 25  1  0
 25 26  2  0
 25  4  1  0
 26 27  1  0
 27 30  1  0
 28 33  2  0
 28 29  1  0
 29 30  2  0
 30 31  1  0
 31 32  2  0
 32 33  1  0
 34 39  2  0
 34 35  1  0
 35 36  2  0
 36 37  1  0
 37 17  1  0
 37 38  2  0
 38 39  1  0
 39 13  1  0
  6 24  1  0
 15 23  1  0
 20 26  1  0
  8 32  1  0
  1 40  1  0
  4 41  1  0
  4 42  1  0
  5 43  1  0
  7 44  1  0
  7 45  1  0
  7 46  1  0
 10 47  1  0
 10 48  1  0
 11 49  1  0
 16 50  1  0
 19 51  1  0
 19 52  1  0
 19 53  1  0
 21 54  1  0
 21 55  1  0
 21 56  1  0
 28 57  1  0
 29 58  1  0
 31 59  1  0
 33 60  1  0
 34 61  1  0
 35 62  1  0
 36 63  1  0
 38 64  1  0
M  END
>  <smiles>  (517) 
[H]OC(=O)C([H])([H])c1c(OC([H])([H])[H])c(C(=O)N([H])S(=O)(=O)c2c([H])c([H])c([H])c(OC([H])([H])[H])c2[H])c(O[H])c(-c2c([H])c([H])c([H])c(C#CC([H])([H])O[H])c2[H])c1OC([H])([H])[H]

>  <error>  (517) 


>  <∆∆G>  (517) 
-62.267795

>  <∆G_bound>  (517) 
-10.78818

>  <∆G_unbound>  (517) 
51.479615

>  <comRMSD>  (517) 
0.809646

>  <N_constrained_atoms>  (517) 
39.0

>  <N_unconstrained_atoms>  (517) 
0.0

>  <runtime>  (517) 
4.095299

>  <regarded>  (517) 
['5hn0-a', '5k5m-a']

>  <disregarded>  (517) 
[]

>  <LE>  (517) 
1.59661

>  <outcome>  (517) 
acceptable

>  <percent_hybrid>  (517) 
44.0

$$$$
LIG
     RDKit          3D

 52 53  0  0  0  0  0  0  0  0999 V2000
  -12.0897  -40.3644  -21.7309 O   0  0  0  0  0  0  0  0  0  0  0  0
  -14.2225  -40.3431  -21.0971 O   0  0  0  0  0  0  0  0  0  0  0  0
  -13.2045  -40.9871  -21.2982 C   0  0  0  0  0  0  0  0  0  0  0  0
  -13.0007  -42.4715  -21.1096 C   0  0  0  0  0  0  0  0  0  0  0  0
  -17.3012  -45.1330  -18.4522 O   0  0  0  0  0  0  0  0  0  0  0  0
  -19.5708  -46.3161  -24.6766 C   0  0  0  0  0  0  0  0  0  0  0  0
  -20.1837  -46.5247  -25.6861 C   0  0  0  0  0  0  0  0  0  0  0  0
  -20.9170  -46.7201  -26.9254 C   0  0  0  0  0  0  0  0  0  0  0  0
  -22.0126  -45.8175  -26.9927 O   0  0  0  0  0  0  0  0  0  0  0  0
  -15.3086  -40.9753  -14.7598 C   0  0  0  0  0  0  0  0  0  0  0  0
  -15.2634  -43.8744  -16.9285 C   0  0  0  0  0  0  0  0  0  0  0  0
  -14.5043  -44.5767  -16.3809 O   0  0  0  0  0  0  0  0  0  0  0  0
  -16.2598  -42.8220  -16.3550 N   0  0  0  0  0  0  0  0  0  0  0  0
  -16.4805  -42.2924  -14.8214 S   0  0  0  0  0  0  0  0  0  0  0  0
  -16.0037  -43.2721  -13.8783 O   0  0  0  0  0  0  0  0  0  0  0  0
  -17.7937  -41.6894  -14.7636 O   0  0  0  0  0  0  0  0  0  0  0  0
  -13.1719  -42.4436  -18.2013 C   0  0  0  0  0  0  0  0  0  0  0  0
  -15.0349  -43.9752  -22.5282 O   0  0  0  0  0  0  0  0  0  0  0  0
  -15.2261  -42.8027  -23.3159 C   0  0  0  0  0  0  0  0  0  0  0  0
  -16.3006  -44.4812  -19.1304 C   0  0  0  0  0  0  0  0  0  0  0  0
  -15.2960  -43.8327  -18.3984 C   0  0  0  0  0  0  0  0  0  0  0  0
  -14.2449  -43.1279  -19.0209 C   0  0  0  0  0  0  0  0  0  0  0  0
  -14.1632  -43.1452  -20.4236 C   0  0  0  0  0  0  0  0  0  0  0  0
  -15.1684  -43.7969  -21.1645 C   0  0  0  0  0  0  0  0  0  0  0  0
  -16.2661  -44.4449  -20.5320 C   0  0  0  0  0  0  0  0  0  0  0  0
  -18.3815  -46.8204  -22.5655 C   0  0  0  0  0  0  0  0  0  0  0  0
  -17.5647  -46.3629  -21.5290 C   0  0  0  0  0  0  0  0  0  0  0  0
  -17.3333  -44.9900  -21.3842 C   0  0  0  0  0  0  0  0  0  0  0  0
  -18.0500  -44.0907  -22.1916 C   0  0  0  0  0  0  0  0  0  0  0  0
  -18.8085  -44.5447  -23.2548 C   0  0  0  0  0  0  0  0  0  0  0  0
  -18.9088  -45.9091  -23.4816 C   0  0  0  0  0  0  0  0  0  0  0  0
  -12.3241  -39.4130  -21.7510 H   0  0  0  0  0  0  0  0  0  0  0  0
  -12.8504  -42.9465  -22.0720 H   0  0  0  0  0  0  0  0  0  0  0  0
  -12.0809  -42.6310  -20.5389 H   0  0  0  0  0  0  0  0  0  0  0  0
  -18.0094  -45.3637  -19.0829 H   0  0  0  0  0  0  0  0  0  0  0  0
  -21.2780  -47.7449  -27.0445 H   0  0  0  0  0  0  0  0  0  0  0  0
  -20.2527  -46.4736  -27.7495 H   0  0  0  0  0  0  0  0  0  0  0  0
  -22.7853  -46.2916  -26.6198 H   0  0  0  0  0  0  0  0  0  0  0  0
  -15.3838  -40.4980  -13.7800 H   0  0  0  0  0  0  0  0  0  0  0  0
  -14.3035  -41.3797  -14.8937 H   0  0  0  0  0  0  0  0  0  0  0  0
  -15.5427  -40.2481  -15.5399 H   0  0  0  0  0  0  0  0  0  0  0  0
  -16.7120  -42.3295  -17.1206 H   0  0  0  0  0  0  0  0  0  0  0  0
  -13.5372  -42.1215  -17.2225 H   0  0  0  0  0  0  0  0  0  0  0  0
  -12.3278  -43.1244  -18.0529 H   0  0  0  0  0  0  0  0  0  0  0  0
  -12.8146  -41.5259  -18.6757 H   0  0  0  0  0  0  0  0  0  0  0  0
  -15.6988  -41.9849  -22.7619 H   0  0  0  0  0  0  0  0  0  0  0  0
  -14.2731  -42.4723  -23.7334 H   0  0  0  0  0  0  0  0  0  0  0  0
  -15.8759  -43.0646  -24.1568 H   0  0  0  0  0  0  0  0  0  0  0  0
  -18.5323  -47.8878  -22.7045 H   0  0  0  0  0  0  0  0  0  0  0  0
  -17.0445  -47.0866  -20.9072 H   0  0  0  0  0  0  0  0  0  0  0  0
  -17.9266  -43.0172  -22.0592 H   0  0  0  0  0  0  0  0  0  0  0  0
  -19.2730  -43.8297  -23.9284 H   0  0  0  0  0  0  0  0  0  0  0  0
  4  3  1  0
  2  3  2  0
  3  1  1  0
  9  8  1  0
  8  7  1  0
  7  6  3  0
 15 14  2  0
 13 11  1  0
 13 14  1  0
 11 12  2  0
 16 14  2  0
 14 10  1  0
 18 19  1  0
 20  5  1  0
 20 25  2  0
 20 21  1  0
 21 22  2  0
 22 23  1  0
 23 24  2  0
 23  4  1  0
 24 25  1  0
 25 28  1  0
 26 31  2  0
 26 27  1  0
 27 28  2  0
 28 29  1  0
 29 30  2  0
 30 31  1  0
 11 21  1  0
 17 22  1  0
 18 24  1  0
  6 31  1  0
  1 32  1  0
  4 33  1  0
  4 34  1  0
  5 35  1  0
  8 36  1  0
  8 37  1  0
  9 38  1  0
 10 39  1  0
 10 40  1  0
 10 41  1  0
 13 42  1  0
 17 43  1  0
 17 44  1  0
 17 45  1  0
 19 46  1  0
 19 47  1  0
 19 48  1  0
 26 49  1  0
 27 50  1  0
 29 51  1  0
 30 52  1  0
M  END
>  <smiles>  (518) 
[H]OC(=O)C([H])([H])c1c(OC([H])([H])[H])c(-c2c([H])c([H])c(C#CC([H])([H])O[H])c([H])c2[H])c(O[H])c(C(=O)N([H])S(=O)(=O)C([H])([H])[H])c1C([H])([H])[H]

>  <error>  (518) 


>  <∆∆G>  (518) 
-47.241895

>  <∆G_bound>  (518) 
-57.375987

>  <∆G_unbound>  (518) 
-10.134092

>  <comRMSD>  (518) 
0.800262

>  <N_constrained_atoms>  (518) 
31.0

>  <N_unconstrained_atoms>  (518) 
0.0

>  <runtime>  (518) 
3.465941

>  <regarded>  (518) 
['5hn0-a', '5hmz-a']

>  <disregarded>  (518) 
[]

>  <LE>  (518) 
1.523932

>  <outcome>  (518) 
acceptable

>  <percent_hybrid>  (518) 
46.0

$$$$
LIG
     RDKit          3D

 35 36  0  0  0  0  0  0  0  0999 V2000
  -12.1683  -40.1200  -21.6354 O   0  0  0  0  0  0  0  0  0  0  0  0
  -13.7594  -40.0147  -20.0793 O   0  0  0  0  0  0  0  0  0  0  0  0
  -13.1119  -40.6955  -20.8571 C   0  0  0  0  0  0  0  0  0  0  0  0
  -13.1880  -42.1844  -21.0914 C   0  0  0  0  0  0  0  0  0  0  0  0
  -17.2645  -44.9732  -18.2928 O   0  0  0  0  0  0  0  0  0  0  0  0
  -15.3439  -43.4328  -16.7465 C   0  0  0  0  0  0  0  0  0  0  0  0
  -17.6880  -42.8946  -16.6838 O   0  0  0  0  0  0  0  0  0  0  0  0
  -16.4756  -42.6472  -16.1390 C   0  0  0  0  0  0  0  0  0  0  0  0
  -16.3758  -41.9033  -15.1751 O   0  0  0  0  0  0  0  0  0  0  0  0
  -16.2621  -44.3318  -18.9786 C   0  0  0  0  0  0  0  0  0  0  0  0
  -15.3434  -43.5490  -18.2528 C   0  0  0  0  0  0  0  0  0  0  0  0
  -14.3551  -42.8504  -18.9558 C   0  0  0  0  0  0  0  0  0  0  0  0
  -14.2782  -42.9130  -20.3460 C   0  0  0  0  0  0  0  0  0  0  0  0
  -15.1918  -43.7165  -21.0396 C   0  0  0  0  0  0  0  0  0  0  0  0
  -16.2122  -44.4270  -20.3803 C   0  0  0  0  0  0  0  0  0  0  0  0
  -18.1311  -47.3395  -21.8314 C   0  0  0  0  0  0  0  0  0  0  0  0
  -17.3688  -46.5754  -20.9518 C   0  0  0  0  0  0  0  0  0  0  0  0
  -17.1573  -45.2128  -21.1943 C   0  0  0  0  0  0  0  0  0  0  0  0
  -17.7988  -44.6278  -22.3040 C   0  0  0  0  0  0  0  0  0  0  0  0
  -18.5609  -45.3924  -23.1834 C   0  0  0  0  0  0  0  0  0  0  0  0
  -18.6886  -46.7578  -22.9644 C   0  0  0  0  0  0  0  0  0  0  0  0
  -12.1565  -39.1792  -21.3602 H   0  0  0  0  0  0  0  0  0  0  0  0
  -13.3514  -42.3288  -22.1619 H   0  0  0  0  0  0  0  0  0  0  0  0
  -12.2267  -42.6237  -20.8099 H   0  0  0  0  0  0  0  0  0  0  0  0
  -17.7249  -44.2326  -17.8356 H   0  0  0  0  0  0  0  0  0  0  0  0
  -14.4161  -42.9457  -16.4187 H   0  0  0  0  0  0  0  0  0  0  0  0
  -15.3147  -44.4321  -16.3067 H   0  0  0  0  0  0  0  0  0  0  0  0
  -18.2956  -42.5230  -15.9977 H   0  0  0  0  0  0  0  0  0  0  0  0
  -13.6318  -42.2388  -18.4157 H   0  0  0  0  0  0  0  0  0  0  0  0
  -15.1007  -43.8000  -22.1234 H   0  0  0  0  0  0  0  0  0  0  0  0
  -18.2339  -48.4071  -21.6801 H   0  0  0  0  0  0  0  0  0  0  0  0
  -16.8978  -47.0578  -20.1004 H   0  0  0  0  0  0  0  0  0  0  0  0
  -17.6728  -43.5659  -22.5067 H   0  0  0  0  0  0  0  0  0  0  0  0
  -19.0164  -44.9313  -24.0537 H   0  0  0  0  0  0  0  0  0  0  0  0
  -19.2081  -47.3850  -23.6844 H   0  0  0  0  0  0  0  0  0  0  0  0
  4  3  1  0
  2  3  2  0
  3  1  1  0
  6  8  1  0
  8  9  2  0
  8  7  1  0
 10  5  1  0
 10 15  2  0
 10 11  1  0
 11 12  2  0
 12 13  1  0
 13 14  2  0
 13  4  1  0
 14 15  1  0
 15 18  1  0
 16 21  2  0
 16 17  1  0
 17 18  2  0
 18 19  1  0
 19 20  2  0
 20 21  1  0
  6 11  1  0
  1 22  1  0
  4 23  1  0
  4 24  1  0
  5 25  1  0
  6 26  1  0
  6 27  1  0
  7 28  1  0
 12 29  1  0
 14 30  1  0
 16 31  1  0
 17 32  1  0
 19 33  1  0
 20 34  1  0
 21 35  1  0
M  END
>  <smiles>  (519) 
[H]OC(=O)C([H])([H])c1c([H])c(-c2c([H])c([H])c([H])c([H])c2[H])c(O[H])c(C([H])([H])C(=O)O[H])c1[H]

>  <error>  (519) 


>  <∆∆G>  (519) 
-91.54666

>  <∆G_bound>  (519) 
-28.41761

>  <∆G_unbound>  (519) 
63.12905

>  <comRMSD>  (519) 
0.924279

>  <N_constrained_atoms>  (519) 
21.0

>  <N_unconstrained_atoms>  (519) 
0.0

>  <runtime>  (519) 
1.89051

>  <regarded>  (519) 
['5hn0-a', '5hmw-b']

>  <disregarded>  (519) 
[]

>  <LE>  (519) 
4.359365

>  <outcome>  (519) 
acceptable

>  <percent_hybrid>  (519) 
20.0

$$$$
LIG
     RDKit          3D

 39 40  0  0  0  0  0  0  0  0999 V2000
  -13.7874  -39.9497  -23.0008 O   0  0  0  0  0  0  0  0  0  0  0  0
  -15.8023  -40.0793  -22.0663 O   0  0  0  0  0  0  0  0  0  0  0  0
  -14.6287  -40.4137  -22.0494 C   0  0  0  0  0  0  0  0  0  0  0  0
  -13.9196  -41.2840  -21.0367 C   0  0  0  0  0  0  0  0  0  0  0  0
  -17.4904  -44.8787  -18.4210 O   0  0  0  0  0  0  0  0  0  0  0  0
  -16.1218  -42.9225  -16.8535 C   0  0  0  0  0  0  0  0  0  0  0  0
  -18.0768  -42.0583  -15.7120 O   0  0  0  0  0  0  0  0  0  0  0  0
  -16.9460  -40.6569  -17.0495 O   0  0  0  0  0  0  0  0  0  0  0  0
  -17.0763  -41.7793  -16.5762 C   0  0  0  0  0  0  0  0  0  0  0  0
  -15.4394  -43.2047  -22.4922 O   0  0  0  0  0  0  0  0  0  0  0  0
  -14.3813  -44.0293  -22.9691 C   0  0  0  0  0  0  0  0  0  0  0  0
  -16.5890  -44.0774  -19.0925 C   0  0  0  0  0  0  0  0  0  0  0  0
  -15.8654  -43.1477  -18.3287 C   0  0  0  0  0  0  0  0  0  0  0  0
  -14.9641  -42.2937  -18.9825 C   0  0  0  0  0  0  0  0  0  0  0  0
  -14.8124  -42.3133  -20.3741 C   0  0  0  0  0  0  0  0  0  0  0  0
  -15.5349  -43.2622  -21.1170 C   0  0  0  0  0  0  0  0  0  0  0  0
  -16.4482  -44.1556  -20.5010 C   0  0  0  0  0  0  0  0  0  0  0  0
  -18.0011  -47.3489  -21.8164 C   0  0  0  0  0  0  0  0  0  0  0  0
  -17.2709  -46.4687  -21.0250 C   0  0  0  0  0  0  0  0  0  0  0  0
  -17.2534  -45.0946  -21.3112 C   0  0  0  0  0  0  0  0  0  0  0  0
  -18.0114  -44.6333  -22.4016 C   0  0  0  0  0  0  0  0  0  0  0  0
  -18.7088  -45.5181  -23.2170 C   0  0  0  0  0  0  0  0  0  0  0  0
  -18.6865  -46.8783  -22.9304 C   0  0  0  0  0  0  0  0  0  0  0  0
  -14.3851  -39.4790  -23.6201 H   0  0  0  0  0  0  0  0  0  0  0  0
  -13.0858  -41.8043  -21.5185 H   0  0  0  0  0  0  0  0  0  0  0  0
  -13.4841  -40.6101  -20.2895 H   0  0  0  0  0  0  0  0  0  0  0  0
  -18.1981  -45.0851  -19.0628 H   0  0  0  0  0  0  0  0  0  0  0  0
  -15.1798  -42.7038  -16.3358 H   0  0  0  0  0  0  0  0  0  0  0  0
  -16.4928  -43.8333  -16.4018 H   0  0  0  0  0  0  0  0  0  0  0  0
  -18.1572  -42.9782  -15.3648 H   0  0  0  0  0  0  0  0  0  0  0  0
  -14.2599  -43.8419  -24.0391 H   0  0  0  0  0  0  0  0  0  0  0  0
  -13.4320  -43.8197  -22.4703 H   0  0  0  0  0  0  0  0  0  0  0  0
  -14.6459  -45.0775  -22.8206 H   0  0  0  0  0  0  0  0  0  0  0  0
  -14.4330  -41.5389  -18.4011 H   0  0  0  0  0  0  0  0  0  0  0  0
  -17.9715  -48.4152  -21.6200 H   0  0  0  0  0  0  0  0  0  0  0  0
  -16.6854  -46.8640  -20.1991 H   0  0  0  0  0  0  0  0  0  0  0  0
  -18.0288  -43.5705  -22.6416 H   0  0  0  0  0  0  0  0  0  0  0  0
  -19.2530  -45.1468  -24.0798 H   0  0  0  0  0  0  0  0  0  0  0  0
  -19.1843  -47.5868  -23.5879 H   0  0  0  0  0  0  0  0  0  0  0  0
  4  3  1  0
  2  3  2  0
  3  1  1  0
  8  9  2  0
  6  9  1  0
  9  7  1  0
 10 11  1  0
 12  5  1  0
 12 17  2  0
 12 13  1  0
 13 14  2  0
 14 15  1  0
 15 16  2  0
 15  4  1  0
 16 17  1  0
 17 20  1  0
 18 23  2  0
 18 19  1  0
 19 20  2  0
 20 21  1  0
 21 22  2  0
 22 23  1  0
  6 13  1  0
 10 16  1  0
  1 24  1  0
  4 25  1  0
  4 26  1  0
  5 27  1  0
  6 28  1  0
  6 29  1  0
  7 30  1  0
 11 31  1  0
 11 32  1  0
 11 33  1  0
 14 34  1  0
 18 35  1  0
 19 36  1  0
 21 37  1  0
 22 38  1  0
 23 39  1  0
M  END
>  <smiles>  (520) 
[H]OC(=O)C([H])([H])c1c([H])c(C([H])([H])C(=O)O[H])c(OC([H])([H])[H])c(-c2c([H])c([H])c([H])c([H])c2[H])c1O[H]

>  <error>  (520) 


>  <∆∆G>  (520) 
-132.185269

>  <∆G_bound>  (520) 
-44.240576

>  <∆G_unbound>  (520) 
87.944693

>  <comRMSD>  (520) 
1.292229

>  <N_constrained_atoms>  (520) 
23.0

>  <N_unconstrained_atoms>  (520) 
0.0

>  <runtime>  (520) 
2.11008

>  <regarded>  (520) 
['5hn0-a', '5f3z-a']

>  <disregarded>  (520) 
[]

>  <LE>  (520) 
5.747186

>  <outcome>  (520) 
too moved

>  <percent_hybrid>  (520) 
27.0

$$$$
LIG
     RDKit          3D

 39 40  0  0  0  0  0  0  0  0999 V2000
  -12.0150  -40.4533  -21.4068 O   0  0  0  0  0  0  0  0  0  0  0  0
  -14.2208  -40.3498  -21.1239 O   0  0  0  0  0  0  0  0  0  0  0  0
  -13.2021  -41.0232  -21.1131 C   0  0  0  0  0  0  0  0  0  0  0  0
  -13.0719  -42.4965  -20.8181 C   0  0  0  0  0  0  0  0  0  0  0  0
  -17.6062  -44.9320  -18.4066 O   0  0  0  0  0  0  0  0  0  0  0  0
  -15.9422  -43.2989  -16.7934 C   0  0  0  0  0  0  0  0  0  0  0  0
  -16.2821  -40.9208  -16.7980 O   0  0  0  0  0  0  0  0  0  0  0  0
  -14.6435  -41.7414  -15.4794 O   0  0  0  0  0  0  0  0  0  0  0  0
  -15.5494  -41.9333  -16.2784 C   0  0  0  0  0  0  0  0  0  0  0  0
  -15.0126  -44.0603  -22.3710 O   0  0  0  0  0  0  0  0  0  0  0  0
  -15.1950  -42.9135  -23.1989 C   0  0  0  0  0  0  0  0  0  0  0  0
  -16.5666  -44.3023  -19.0538 C   0  0  0  0  0  0  0  0  0  0  0  0
  -15.7077  -43.5144  -18.2723 C   0  0  0  0  0  0  0  0  0  0  0  0
  -14.5795  -42.9547  -18.8841 C   0  0  0  0  0  0  0  0  0  0  0  0
  -14.3335  -43.1062  -20.2560 C   0  0  0  0  0  0  0  0  0  0  0  0
  -15.2537  -43.8212  -21.0369 C   0  0  0  0  0  0  0  0  0  0  0  0
  -16.3740  -44.4538  -20.4454 C   0  0  0  0  0  0  0  0  0  0  0  0
  -18.1391  -47.4332  -21.9303 C   0  0  0  0  0  0  0  0  0  0  0  0
  -17.3893  -46.6493  -21.0630 C   0  0  0  0  0  0  0  0  0  0  0  0
  -17.2771  -45.2692  -21.2760 C   0  0  0  0  0  0  0  0  0  0  0  0
  -17.9908  -44.6905  -22.3393 C   0  0  0  0  0  0  0  0  0  0  0  0
  -18.7063  -45.4815  -23.2303 C   0  0  0  0  0  0  0  0  0  0  0  0
  -18.7471  -46.8580  -23.0402 C   0  0  0  0  0  0  0  0  0  0  0  0
  -12.2132  -39.5002  -21.5150 H   0  0  0  0  0  0  0  0  0  0  0  0
  -12.7916  -43.0150  -21.7328 H   0  0  0  0  0  0  0  0  0  0  0  0
  -12.2567  -42.6367  -20.0986 H   0  0  0  0  0  0  0  0  0  0  0  0
  -18.2557  -45.2038  -19.0825 H   0  0  0  0  0  0  0  0  0  0  0  0
  -15.3704  -44.0491  -16.2365 H   0  0  0  0  0  0  0  0  0  0  0  0
  -17.0000  -43.4168  -16.5430 H   0  0  0  0  0  0  0  0  0  0  0  0
  -16.9498  -41.2259  -17.4431 H   0  0  0  0  0  0  0  0  0  0  0  0
  -15.8306  -42.1489  -22.7380 H   0  0  0  0  0  0  0  0  0  0  0  0
  -14.2277  -42.4846  -23.4658 H   0  0  0  0  0  0  0  0  0  0  0  0
  -15.6768  -43.2424  -24.1250 H   0  0  0  0  0  0  0  0  0  0  0  0
  -13.8622  -42.3869  -18.2880 H   0  0  0  0  0  0  0  0  0  0  0  0
  -18.1712  -48.5097  -21.8047 H   0  0  0  0  0  0  0  0  0  0  0  0
  -16.8442  -47.1280  -20.2542 H   0  0  0  0  0  0  0  0  0  0  0  0
  -17.9402  -43.6179  -22.5103 H   0  0  0  0  0  0  0  0  0  0  0  0
  -19.2026  -45.0317  -24.0844 H   0  0  0  0  0  0  0  0  0  0  0  0
  -19.2409  -47.4986  -23.7673 H   0  0  0  0  0  0  0  0  0  0  0  0
  4  3  1  0
  2  3  2  0
  3  1  1  0
  8  9  2  0
  6  9  1  0
  9  7  1  0
 10 11  1  0
 12  5  1  0
 12 17  2  0
 12 13  1  0
 13 14  2  0
 14 15  1  0
 15 16  2  0
 15  4  1  0
 16 17  1  0
 17 20  1  0
 18 23  2  0
 18 19  1  0
 19 20  2  0
 20 21  1  0
 21 22  2  0
 22 23  1  0
  6 13  1  0
 10 16  1  0
  1 24  1  0
  4 25  1  0
  4 26  1  0
  5 27  1  0
  6 28  1  0
  6 29  1  0
  7 30  1  0
 11 31  1  0
 11 32  1  0
 11 33  1  0
 14 34  1  0
 18 35  1  0
 19 36  1  0
 21 37  1  0
 22 38  1  0
 23 39  1  0
M  END
>  <smiles>  (521) 
[H]OC(=O)C([H])([H])c1c([H])c(C([H])([H])C(=O)O[H])c(OC([H])([H])[H])c(-c2c([H])c([H])c([H])c([H])c2[H])c1O[H]

>  <error>  (521) 


>  <∆∆G>  (521) 
-132.981298

>  <∆G_bound>  (521) 
-23.933037

>  <∆G_unbound>  (521) 
109.048261

>  <comRMSD>  (521) 
1.020724

>  <N_constrained_atoms>  (521) 
23.0

>  <N_unconstrained_atoms>  (521) 
0.0

>  <runtime>  (521) 
2.269974

>  <regarded>  (521) 
['5hn0-a', '6h9r-a']

>  <disregarded>  (521) 
[]

>  <LE>  (521) 
5.781796

>  <outcome>  (521) 
too moved

>  <percent_hybrid>  (521) 
27.0

$$$$
LIG
     RDKit          3D

 39 40  0  0  0  0  0  0  0  0999 V2000
  -13.7970  -39.9535  -23.0149 O   0  0  0  0  0  0  0  0  0  0  0  0
  -15.8129  -40.0970  -22.0849 O   0  0  0  0  0  0  0  0  0  0  0  0
  -14.6380  -40.4266  -22.0678 C   0  0  0  0  0  0  0  0  0  0  0  0
  -13.9264  -41.2997  -21.0592 C   0  0  0  0  0  0  0  0  0  0  0  0
  -17.4942  -44.8831  -18.4238 O   0  0  0  0  0  0  0  0  0  0  0  0
  -16.9402  -40.6602  -17.0601 O   0  0  0  0  0  0  0  0  0  0  0  0
  -18.0692  -42.0597  -15.7191 O   0  0  0  0  0  0  0  0  0  0  0  0
  -17.0704  -41.7821  -16.5857 C   0  0  0  0  0  0  0  0  0  0  0  0
  -16.1175  -42.9263  -16.8644 C   0  0  0  0  0  0  0  0  0  0  0  0
  -15.4545  -43.2217  -22.5057 O   0  0  0  0  0  0  0  0  0  0  0  0
  -14.4043  -44.0565  -22.9832 C   0  0  0  0  0  0  0  0  0  0  0  0
  -16.5943  -44.0839  -19.0997 C   0  0  0  0  0  0  0  0  0  0  0  0
  -15.8667  -43.1540  -18.3402 C   0  0  0  0  0  0  0  0  0  0  0  0
  -14.9664  -42.3025  -18.9990 C   0  0  0  0  0  0  0  0  0  0  0  0
  -14.8191  -42.3253  -20.3912 C   0  0  0  0  0  0  0  0  0  0  0  0
  -15.5457  -43.2744  -21.1296 C   0  0  0  0  0  0  0  0  0  0  0  0
  -16.4585  -44.1646  -20.5083 C   0  0  0  0  0  0  0  0  0  0  0  0
  -18.0094  -47.3582  -21.8226 C   0  0  0  0  0  0  0  0  0  0  0  0
  -17.2825  -46.4774  -21.0290 C   0  0  0  0  0  0  0  0  0  0  0  0
  -17.2663  -45.1036  -21.3153 C   0  0  0  0  0  0  0  0  0  0  0  0
  -18.0238  -44.6425  -22.4063 C   0  0  0  0  0  0  0  0  0  0  0  0
  -18.7170  -45.5279  -23.2241 C   0  0  0  0  0  0  0  0  0  0  0  0
  -18.6924  -46.8882  -22.9383 C   0  0  0  0  0  0  0  0  0  0  0  0
  -14.3953  -39.4811  -23.6323 H   0  0  0  0  0  0  0  0  0  0  0  0
  -13.0980  -41.8237  -21.5461 H   0  0  0  0  0  0  0  0  0  0  0  0
  -13.4838  -40.6277  -20.3144 H   0  0  0  0  0  0  0  0  0  0  0  0
  -18.2036  -45.0911  -19.0632 H   0  0  0  0  0  0  0  0  0  0  0  0
  -18.1495  -42.9791  -15.3708 H   0  0  0  0  0  0  0  0  0  0  0  0
  -15.1734  -42.7069  -16.3507 H   0  0  0  0  0  0  0  0  0  0  0  0
  -16.4868  -43.8362  -16.4094 H   0  0  0  0  0  0  0  0  0  0  0  0
  -13.4502  -43.8463  -22.4937 H   0  0  0  0  0  0  0  0  0  0  0  0
  -14.6732  -45.1018  -22.8232 H   0  0  0  0  0  0  0  0  0  0  0  0
  -14.2903  -43.8777  -24.0554 H   0  0  0  0  0  0  0  0  0  0  0  0
  -14.4321  -41.5474  -18.4209 H   0  0  0  0  0  0  0  0  0  0  0  0
  -17.9781  -48.4246  -21.6272 H   0  0  0  0  0  0  0  0  0  0  0  0
  -16.6973  -46.8723  -20.2028 H   0  0  0  0  0  0  0  0  0  0  0  0
  -18.0422  -43.5797  -22.6459 H   0  0  0  0  0  0  0  0  0  0  0  0
  -19.2596  -45.1572  -24.0881 H   0  0  0  0  0  0  0  0  0  0  0  0
  -19.1872  -47.5972  -23.5977 H   0  0  0  0  0  0  0  0  0  0  0  0
  4  3  1  0
  2  3  2  0
  3  1  1  0
  6  8  2  0
  9  8  1  0
  8  7  1  0
 10 11  1  0
 12  5  1  0
 12 17  2  0
 12 13  1  0
 13 14  2  0
 14 15  1  0
 15 16  2  0
 15  4  1  0
 16 17  1  0
 17 20  1  0
 18 23  2  0
 18 19  1  0
 19 20  2  0
 20 21  1  0
 21 22  2  0
 22 23  1  0
  9 13  1  0
 10 16  1  0
  1 24  1  0
  4 25  1  0
  4 26  1  0
  5 27  1  0
  7 28  1  0
  9 29  1  0
  9 30  1  0
 11 31  1  0
 11 32  1  0
 11 33  1  0
 14 34  1  0
 18 35  1  0
 19 36  1  0
 21 37  1  0
 22 38  1  0
 23 39  1  0
M  END
>  <smiles>  (522) 
[H]OC(=O)C([H])([H])c1c([H])c(C([H])([H])C(=O)O[H])c(OC([H])([H])[H])c(-c2c([H])c([H])c([H])c([H])c2[H])c1O[H]

>  <error>  (522) 


>  <∆∆G>  (522) 
-48.757071

>  <∆G_bound>  (522) 
-44.259968

>  <∆G_unbound>  (522) 
4.497103

>  <comRMSD>  (522) 
1.296387

>  <N_constrained_atoms>  (522) 
23.0

>  <N_unconstrained_atoms>  (522) 
0.0

>  <runtime>  (522) 
2.500332

>  <regarded>  (522) 
['5hn0-a', '5f3t-a']

>  <disregarded>  (522) 
[]

>  <LE>  (522) 
2.119873

>  <outcome>  (522) 
too moved

>  <percent_hybrid>  (522) 
27.0

$$$$

     RDKit          2D

  0  0  0  0  0  0  0  0  0  0999 V2000
M  END
>  <smiles>  (523) 
nan

>  <error>  (523) 
DistanceError 5.68 Å

>  <∆∆G>  (523) 
nan

>  <∆G_bound>  (523) 
nan

>  <∆G_unbound>  (523) 
nan

>  <comRMSD>  (523) 
nan

>  <N_constrained_atoms>  (523) 
nan

>  <N_unconstrained_atoms>  (523) 
nan

>  <runtime>  (523) 
nan

>  <regarded>  (523) 
[]

>  <disregarded>  (523) 
[]

>  <LE>  (523) 
nan

>  <outcome>  (523) 
too distant

>  <percent_hybrid>  (523) 
nan

$$$$
LIG
     RDKit          3D

 46 49  0  0  0  0  0  0  0  0999 V2000
  -14.9211  -43.9870  -16.9735 C   0  0  0  0  0  0  0  0  0  0  0  0
  -15.6179  -42.2911  -15.3854 O   0  0  0  0  0  0  0  0  0  0  0  0
  -15.0179  -42.7812  -22.5464 N   0  0  0  0  0  0  0  0  0  0  0  0
  -15.8913  -43.0433  -16.3085 C   0  0  0  0  0  0  0  0  0  0  0  0
  -17.1582  -43.1560  -16.7529 O   0  0  0  0  0  0  0  0  0  0  0  0
  -14.5657  -43.7362  -23.5730 C   0  0  0  0  0  0  0  0  0  0  0  0
  -14.8823  -43.9271  -18.4786 C   0  0  0  0  0  0  0  0  0  0  0  0
  -13.7441  -43.4461  -19.1194 C   0  0  0  0  0  0  0  0  0  0  0  0
  -13.7519  -43.2403  -20.4943 C   0  0  0  0  0  0  0  0  0  0  0  0
  -14.9142  -43.4304  -21.2604 C   0  0  0  0  0  0  0  0  0  0  0  0
  -15.9668  -44.1577  -20.6647 C   0  0  0  0  0  0  0  0  0  0  0  0
  -15.9511  -44.3667  -19.2699 C   0  0  0  0  0  0  0  0  0  0  0  0
  -17.2499  -46.1345  -21.3738 C   0  0  0  0  0  0  0  0  0  0  0  0
  -18.5313  -46.6436  -22.3693 S   0  0  0  0  0  0  0  0  0  0  0  0
  -18.8431  -45.0433  -22.8844 C   0  0  0  0  0  0  0  0  0  0  0  0
  -18.0135  -44.1368  -22.2655 C   0  0  0  0  0  0  0  0  0  0  0  0
  -17.0545  -44.7654  -21.4217 C   0  0  0  0  0  0  0  0  0  0  0  0
  -14.6459  -41.4517  -22.7460 C   0  0  0  0  0  0  0  0  0  0  0  0
  -14.0707  -40.6015  -21.8227 C   0  0  0  0  0  0  0  0  0  0  0  0
  -13.8012  -39.4357  -22.4611 N   0  0  0  0  0  0  0  0  0  0  0  0
  -14.2584  -39.3942  -23.7126 N   0  0  0  0  0  0  0  0  0  0  0  0
  -14.8493  -40.5944  -23.8908 C   0  0  0  0  0  0  0  0  0  0  0  0
  -16.8591  -41.5272  -24.9780 C   0  0  0  0  0  0  0  0  0  0  0  0
  -15.6658  -40.8167  -25.0816 C   0  0  0  0  0  0  0  0  0  0  0  0
  -15.3325  -40.2455  -26.3084 C   0  0  0  0  0  0  0  0  0  0  0  0
  -16.1981  -40.4285  -27.3727 C   0  0  0  0  0  0  0  0  0  0  0  0
  -17.3599  -41.1147  -27.2940 N   0  0  0  0  0  0  0  0  0  0  0  0
  -17.6624  -41.6431  -26.0919 C   0  0  0  0  0  0  0  0  0  0  0  0
  -13.9275  -43.7500  -16.5708 H   0  0  0  0  0  0  0  0  0  0  0  0
  -15.1315  -45.0103  -16.6545 H   0  0  0  0  0  0  0  0  0  0  0  0
  -17.6915  -42.6781  -16.0775 H   0  0  0  0  0  0  0  0  0  0  0  0
  -14.6304  -43.3252  -24.5836 H   0  0  0  0  0  0  0  0  0  0  0  0
  -13.5246  -44.0383  -23.4089 H   0  0  0  0  0  0  0  0  0  0  0  0
  -15.1920  -44.6334  -23.5674 H   0  0  0  0  0  0  0  0  0  0  0  0
  -12.8467  -43.1802  -18.5633 H   0  0  0  0  0  0  0  0  0  0  0  0
  -12.8502  -42.8458  -20.9611 H   0  0  0  0  0  0  0  0  0  0  0  0
  -16.8108  -44.8370  -18.7954 H   0  0  0  0  0  0  0  0  0  0  0  0
  -16.6862  -46.8724  -20.8187 H   0  0  0  0  0  0  0  0  0  0  0  0
  -19.6345  -44.8351  -23.5897 H   0  0  0  0  0  0  0  0  0  0  0  0
  -18.0772  -43.0680  -22.4126 H   0  0  0  0  0  0  0  0  0  0  0  0
  -13.7977  -40.7116  -20.7856 H   0  0  0  0  0  0  0  0  0  0  0  0
  -17.1778  -41.9477  -24.0359 H   0  0  0  0  0  0  0  0  0  0  0  0
  -14.4250  -39.6627  -26.4300 H   0  0  0  0  0  0  0  0  0  0  0  0
  -15.9822  -40.0124  -28.3508 H   0  0  0  0  0  0  0  0  0  0  0  0
  -18.6117  -42.1646  -26.0355 H   0  0  0  0  0  0  0  0  0  0  0  0
  -13.3407  -38.6145  -22.0840 H   0  0  0  0  0  0  0  0  0  0  0  0
  3  6  1  0
  1  4  1  0
  2  4  2  0
  4  5  1  0
  7 12  2  0
  7  1  1  0
  7  8  1  0
  8  9  2  0
  9 10  1  0
 10 11  2  0
 10  3  1  0
 11 17  1  0
 11 12  1  0
 13 14  1  0
 13 17  2  0
 14 15  1  0
 15 16  2  0
 16 17  1  0
 18 19  2  0
 18 22  1  0
 19 20  1  0
 20 21  1  0
 21 22  2  0
 22 24  1  0
 23 28  2  0
 23 24  1  0
 24 25  2  0
 25 26  1  0
 26 27  2  0
 27 28  1  0
  3 18  1  0
  1 29  1  0
  1 30  1  0
  5 31  1  0
  6 32  1  0
  6 33  1  0
  6 34  1  0
  8 35  1  0
  9 36  1  0
 12 37  1  0
 13 38  1  0
 15 39  1  0
 16 40  1  0
 19 41  1  0
 23 42  1  0
 25 43  1  0
 26 44  1  0
 28 45  1  0
 20 46  1  0
M  END
>  <smiles>  (524) 
[H]OC(=O)C([H])([H])c1c([H])c([H])c(N(c2c(-c3c([H])c([H])nc([H])c3[H])n[nH]c2[H])C([H])([H])[H])c(-c2c([H])sc([H])c2[H])c1[H]

>  <error>  (524) 


>  <∆∆G>  (524) 
-71.080125

>  <∆G_bound>  (524) 
149.594115

>  <∆G_unbound>  (524) 
220.67424

>  <comRMSD>  (524) 
0.799104

>  <N_constrained_atoms>  (524) 
28.0

>  <N_unconstrained_atoms>  (524) 
0.0

>  <runtime>  (524) 
2.605569

>  <regarded>  (524) 
['5f41-a', 'd0160a']

>  <disregarded>  (524) 
[]

>  <LE>  (524) 
2.538576

>  <outcome>  (524) 
acceptable

>  <percent_hybrid>  (524) 
40.0

$$$$
LIG
     RDKit          3D

 46 49  0  0  0  0  0  0  0  0999 V2000
  -15.0191  -43.3521  -17.3686 C   0  0  0  0  0  0  0  0  0  0  0  0
  -15.9971  -41.5817  -16.0227 O   0  0  0  0  0  0  0  0  0  0  0  0
  -15.1426  -43.8723  -23.0407 O   0  0  0  0  0  0  0  0  0  0  0  0
  -16.1342  -42.5781  -16.7148 C   0  0  0  0  0  0  0  0  0  0  0  0
  -17.3466  -43.1449  -16.8767 O   0  0  0  0  0  0  0  0  0  0  0  0
  -15.1783  -39.7529  -25.7280 C   0  0  0  0  0  0  0  0  0  0  0  0
  -15.0889  -43.4525  -18.8730 C   0  0  0  0  0  0  0  0  0  0  0  0
  -14.1039  -42.8512  -19.6686 C   0  0  0  0  0  0  0  0  0  0  0  0
  -14.1415  -42.9603  -21.0620 C   0  0  0  0  0  0  0  0  0  0  0  0
  -15.1765  -43.6552  -21.6837 C   0  0  0  0  0  0  0  0  0  0  0  0
  -16.1500  -44.3050  -20.9017 C   0  0  0  0  0  0  0  0  0  0  0  0
  -16.1029  -44.1875  -19.5029 C   0  0  0  0  0  0  0  0  0  0  0  0
  -17.3926  -46.4412  -21.0968 C   0  0  0  0  0  0  0  0  0  0  0  0
  -18.5601  -47.2346  -22.0509 S   0  0  0  0  0  0  0  0  0  0  0  0
  -18.7271  -45.8778  -23.0751 C   0  0  0  0  0  0  0  0  0  0  0  0
  -18.0222  -44.7972  -22.6076 C   0  0  0  0  0  0  0  0  0  0  0  0
  -17.1757  -45.1413  -21.5113 C   0  0  0  0  0  0  0  0  0  0  0  0
  -15.0224  -41.6011  -24.0028 C   0  0  0  0  0  0  0  0  0  0  0  0
  -15.4393  -42.9129  -23.9464 C   0  0  0  0  0  0  0  0  0  0  0  0
  -16.2065  -43.1601  -25.1032 C   0  0  0  0  0  0  0  0  0  0  0  0
  -16.2306  -42.0132  -25.8545 C   0  0  0  0  0  0  0  0  0  0  0  0
  -15.4873  -41.0728  -25.1899 N   0  0  0  0  0  0  0  0  0  0  0  0
  -17.2083  -38.6669  -26.7838 C   0  0  0  0  0  0  0  0  0  0  0  0
  -16.3799  -38.8499  -25.6769 C   0  0  0  0  0  0  0  0  0  0  0  0
  -16.7260  -38.1797  -24.5008 C   0  0  0  0  0  0  0  0  0  0  0  0
  -17.8527  -37.3653  -24.4769 C   0  0  0  0  0  0  0  0  0  0  0  0
  -18.6121  -37.2574  -25.6307 C   0  0  0  0  0  0  0  0  0  0  0  0
  -18.3240  -37.8924  -26.7887 N   0  0  0  0  0  0  0  0  0  0  0  0
  -14.0757  -42.8782  -17.0694 H   0  0  0  0  0  0  0  0  0  0  0  0
  -14.9953  -44.3577  -16.9321 H   0  0  0  0  0  0  0  0  0  0  0  0
  -17.9206  -42.6939  -16.2156 H   0  0  0  0  0  0  0  0  0  0  0  0
  -14.3533  -39.3388  -25.1401 H   0  0  0  0  0  0  0  0  0  0  0  0
  -14.8173  -39.8903  -26.7536 H   0  0  0  0  0  0  0  0  0  0  0  0
  -13.2756  -42.3090  -19.2144 H   0  0  0  0  0  0  0  0  0  0  0  0
  -13.3321  -42.5431  -21.6543 H   0  0  0  0  0  0  0  0  0  0  0  0
  -16.8665  -44.6752  -18.9004 H   0  0  0  0  0  0  0  0  0  0  0  0
  -16.9049  -46.9845  -20.2994 H   0  0  0  0  0  0  0  0  0  0  0  0
  -19.3532  -45.9219  -23.9538 H   0  0  0  0  0  0  0  0  0  0  0  0
  -18.0478  -43.8250  -23.0814 H   0  0  0  0  0  0  0  0  0  0  0  0
  -14.3982  -41.0182  -23.3414 H   0  0  0  0  0  0  0  0  0  0  0  0
  -16.6739  -44.0895  -25.3676 H   0  0  0  0  0  0  0  0  0  0  0  0
  -16.6769  -41.8051  -26.8156 H   0  0  0  0  0  0  0  0  0  0  0  0
  -16.9921  -39.1529  -27.7331 H   0  0  0  0  0  0  0  0  0  0  0  0
  -16.1257  -38.2934  -23.6013 H   0  0  0  0  0  0  0  0  0  0  0  0
  -18.1384  -36.8352  -23.5749 H   0  0  0  0  0  0  0  0  0  0  0  0
  -19.5041  -36.6376  -25.6492 H   0  0  0  0  0  0  0  0  0  0  0  0
  1  4  1  0
  2  4  2  0
  4  5  1  0
  7 12  2  0
  7  1  1  0
  7  8  1  0
  8  9  2  0
  9 10  1  0
 10 11  2  0
 10  3  1  0
 11 17  1  0
 11 12  1  0
 13 14  1  0
 13 17  2  0
 14 15  1  0
 15 16  2  0
 16 17  1  0
 18 19  2  0
 18 22  1  0
 19 20  1  0
 20 21  2  0
 21 22  1  0
 22  6  1  0
 23 28  2  0
 23 24  1  0
 24  6  1  0
 24 25  2  0
 25 26  1  0
 26 27  2  0
 27 28  1  0
 19  3  1  0
  1 29  1  0
  1 30  1  0
  5 31  1  0
  6 32  1  0
  6 33  1  0
  8 34  1  0
  9 35  1  0
 12 36  1  0
 13 37  1  0
 15 38  1  0
 16 39  1  0
 18 40  1  0
 20 41  1  0
 21 42  1  0
 23 43  1  0
 25 44  1  0
 26 45  1  0
 27 46  1  0
M  END
>  <smiles>  (525) 
[H]OC(=O)C([H])([H])c1c([H])c([H])c(Oc2c([H])c([H])n(C([H])([H])c3c([H])nc([H])c([H])c3[H])c2[H])c(-c2c([H])sc([H])c2[H])c1[H]

>  <error>  (525) 


>  <∆∆G>  (525) 
-89.650909

>  <∆G_bound>  (525) 
171.992605

>  <∆G_unbound>  (525) 
261.643514

>  <comRMSD>  (525) 
0.708483

>  <N_constrained_atoms>  (525) 
28.0

>  <N_unconstrained_atoms>  (525) 
0.0

>  <runtime>  (525) 
2.611834

>  <regarded>  (525) 
['5f41-a', 'd0191a']

>  <disregarded>  (525) 
[]

>  <LE>  (525) 
3.201818

>  <outcome>  (525) 
acceptable

>  <percent_hybrid>  (525) 
43.0

$$$$
LIG
     RDKit          3D

 58 61  0  0  0  0  0  0  0  0999 V2000
  -15.5347  -43.2675  -17.1277 C   0  0  0  0  0  0  0  0  0  0  0  0
  -15.9512  -42.3923  -14.9120 O   0  0  0  0  0  0  0  0  0  0  0  0
  -16.3737  -42.6942  -16.0174 C   0  0  0  0  0  0  0  0  0  0  0  0
  -17.6811  -42.6249  -16.3052 O   0  0  0  0  0  0  0  0  0  0  0  0
  -15.0132  -43.8158  -23.9726 C   0  0  0  0  0  0  0  0  0  0  0  0
  -16.1196  -40.0706  -26.4840 C   0  0  0  0  0  0  0  0  0  0  0  0
  -15.8073  -42.7013  -18.5369 C   0  0  1  0  0  0  0  0  0  0  0  0
  -14.4429  -42.6197  -19.2320 C   0  0  0  0  0  0  0  0  0  0  0  0
  -14.5969  -42.2248  -20.6828 C   0  0  0  0  0  0  0  0  0  0  0  0
  -15.3720  -43.2759  -21.5325 C   0  0  1  0  0  0  0  0  0  0  0  0
  -16.5547  -43.8261  -20.7153 C   0  0  0  0  0  0  0  0  0  0  0  0
  -16.7448  -43.5161  -19.4074 C   0  0  0  0  0  0  0  0  0  0  0  0
  -16.5909  -46.2909  -20.6860 C   0  0  0  0  0  0  0  0  0  0  0  0
  -17.5153  -47.6990  -21.2908 S   0  0  0  0  0  0  0  0  0  0  0  0
  -18.6204  -46.7354  -22.3292 C   0  0  0  0  0  0  0  0  0  0  0  0
  -18.0300  -45.3378  -22.3974 C   0  0  0  0  0  0  0  0  0  0  0  0
  -17.4262  -45.0433  -21.0259 C   0  0  2  0  0  0  0  0  0  0  0  0
  -17.9504  -44.1816  -18.8192 C   0  0  0  0  0  0  0  0  0  0  0  0
  -18.5864  -44.8355  -20.0206 C   0  0  0  0  0  0  0  0  0  0  0  0
  -16.9909  -42.2900  -23.4169 C   0  0  0  0  0  0  0  0  0  0  0  0
  -15.5542  -42.7162  -23.0451 C   0  0  2  0  0  0  0  0  0  0  0  0
  -14.7112  -41.5117  -23.2611 N   0  0  0  0  0  0  0  0  0  0  0  0
  -14.7459  -40.9398  -24.5992 C   0  0  0  0  0  0  0  0  0  0  0  0
  -16.1477  -40.5410  -25.0318 C   0  0  2  0  0  0  0  0  0  0  0  0
  -17.1275  -41.6939  -24.8283 C   0  0  0  0  0  0  0  0  0  0  0  0
  -14.5005  -43.0396  -16.8342 H   0  0  0  0  0  0  0  0  0  0  0  0
  -15.6187  -44.3584  -17.1080 H   0  0  0  0  0  0  0  0  0  0  0  0
  -18.1327  -42.6141  -15.4270 H   0  0  0  0  0  0  0  0  0  0  0  0
  -15.2555  -43.6557  -25.0244 H   0  0  0  0  0  0  0  0  0  0  0  0
  -13.9222  -43.9027  -23.8941 H   0  0  0  0  0  0  0  0  0  0  0  0
  -15.4144  -44.7901  -23.6977 H   0  0  0  0  0  0  0  0  0  0  0  0
  -15.4371  -39.2231  -26.6065 H   0  0  0  0  0  0  0  0  0  0  0  0
  -15.7931  -40.8696  -27.1588 H   0  0  0  0  0  0  0  0  0  0  0  0
  -17.1156  -39.7473  -26.8048 H   0  0  0  0  0  0  0  0  0  0  0  0
  -16.2267  -41.6904  -18.4506 H   0  0  0  0  0  0  0  0  0  0  0  0
  -13.8143  -41.8768  -18.7245 H   0  0  0  0  0  0  0  0  0  0  0  0
  -13.9120  -43.5799  -19.1693 H   0  0  0  0  0  0  0  0  0  0  0  0
  -15.1006  -41.2500  -20.7281 H   0  0  0  0  0  0  0  0  0  0  0  0
  -13.5809  -42.0982  -21.0753 H   0  0  0  0  0  0  0  0  0  0  0  0
  -14.6718  -44.1232  -21.5976 H   0  0  0  0  0  0  0  0  0  0  0  0
  -16.3966  -46.4133  -19.6156 H   0  0  0  0  0  0  0  0  0  0  0  0
  -15.6247  -46.2753  -21.1978 H   0  0  0  0  0  0  0  0  0  0  0  0
  -18.7629  -47.1839  -23.3150 H   0  0  0  0  0  0  0  0  0  0  0  0
  -19.5638  -46.7179  -21.7920 H   0  0  0  0  0  0  0  0  0  0  0  0
  -17.2765  -45.3100  -23.1789 H   0  0  0  0  0  0  0  0  0  0  0  0
  -18.8252  -44.6361  -22.6688 H   0  0  0  0  0  0  0  0  0  0  0  0
  -18.6466  -43.4690  -18.3719 H   0  0  0  0  0  0  0  0  0  0  0  0
  -17.6661  -44.9339  -18.0873 H   0  0  0  0  0  0  0  0  0  0  0  0
  -19.1061  -45.7531  -19.7255 H   0  0  0  0  0  0  0  0  0  0  0  0
  -19.3441  -44.1598  -20.4422 H   0  0  0  0  0  0  0  0  0  0  0  0
  -17.3503  -41.5517  -22.6872 H   0  0  0  0  0  0  0  0  0  0  0  0
  -17.6783  -43.1242  -23.3720 H   0  0  0  0  0  0  0  0  0  0  0  0
  -13.7451  -41.7494  -23.0520 H   0  0  0  0  0  0  0  0  0  0  0  0
  -14.1188  -40.0411  -24.5966 H   0  0  0  0  0  0  0  0  0  0  0  0
  -14.2992  -41.6290  -25.3202 H   0  0  0  0  0  0  0  0  0  0  0  0
  -16.4785  -39.6991  -24.4082 H   0  0  0  0  0  0  0  0  0  0  0  0
  -16.9743  -42.4720  -25.5850 H   0  0  0  0  0  0  0  0  0  0  0  0
  -18.1545  -41.3345  -24.9682 H   0  0  0  0  0  0  0  0  0  0  0  0
  1  3  1  0
  2  3  2  0
  3  4  1  0
  7 12  1  0
  7  1  1  0
  7  8  1  0
  8  9  1  0
  9 10  1  0
 10 11  1  0
 11 17  1  0
 11 12  2  0
 13 14  1  0
 17 13  1  1
 14 15  1  0
 15 16  1  0
 16 17  1  0
 18 19  1  0
 20 25  1  0
 20 21  1  0
 21 22  1  0
 22 23  1  0
 23 24  1  0
 24  6  1  0
 24 25  1  0
 12 18  1  0
 17 19  1  0
 21  5  1  6
 21 10  1  0
  1 26  1  0
  1 27  1  0
  4 28  1  0
  5 29  1  0
  5 30  1  0
  5 31  1  0
  6 32  1  0
  6 33  1  0
  6 34  1  0
  7 35  1  1
  8 36  1  0
  8 37  1  0
  9 38  1  0
  9 39  1  0
 10 40  1  6
 13 41  1  0
 13 42  1  0
 15 43  1  0
 15 44  1  0
 16 45  1  0
 16 46  1  0
 18 47  1  0
 18 48  1  0
 19 49  1  0
 19 50  1  0
 20 51  1  0
 20 52  1  0
 22 53  1  0
 23 54  1  0
 23 55  1  0
 24 56  1  1
 25 57  1  0
 25 58  1  0
M  END
>  <smiles>  (526) 
[H]OC(=O)C([H])([H])[C@]1([H])C2=C([C@@]3(C([H])([H])SC([H])([H])C3([H])[H])C([H])([H])C2([H])[H])[C@@]([H])([C@]2(C([H])([H])[H])N([H])C([H])([H])[C@@]([H])(C([H])([H])[H])C([H])([H])C2([H])[H])C([H])([H])C1([H])[H]

>  <error>  (526) 


>  <∆∆G>  (526) 
-83.369687

>  <∆G_bound>  (526) 
117.24426

>  <∆G_unbound>  (526) 
200.613946

>  <comRMSD>  (526) 
1.192029

>  <N_constrained_atoms>  (526) 
25.0

>  <N_unconstrained_atoms>  (526) 
0.0

>  <runtime>  (526) 
24.41905

>  <regarded>  (526) 
['5f41-a', 'd0254a']

>  <disregarded>  (526) 
[]

>  <LE>  (526) 
3.334787

>  <outcome>  (526) 
too moved

>  <percent_hybrid>  (526) 
36.0

$$$$
LIG
     RDKit          3D

 62 64  0  0  0  0  0  0  0  0999 V2000
  -14.5463  -43.4298  -17.1759 C   0  0  0  0  0  0  0  0  0  0  0  0
  -15.2887  -41.8720  -15.4687 O   0  0  0  0  0  0  0  0  0  0  0  0
  -15.6946  -43.3627  -22.7500 O   0  0  0  0  0  0  0  0  0  0  0  0
  -15.5553  -42.6746  -16.3495 C   0  0  0  0  0  0  0  0  0  0  0  0
  -16.8293  -43.0320  -16.5941 O   0  0  0  0  0  0  0  0  0  0  0  0
  -14.5644  -43.2736  -23.6156 C   0  0  0  0  0  0  0  0  0  0  0  0
  -23.2802  -46.3978  -18.3327 O   0  0  0  0  0  0  0  0  0  0  0  0
  -22.4879  -46.2184  -17.4971 C   0  0  0  0  0  0  0  0  0  0  0  0
  -22.3620  -47.1153  -16.2667 C   0  0  0  0  0  0  0  0  0  0  0  0
  -23.1340  -46.4823  -15.1147 C   0  0  0  0  0  0  0  0  0  0  0  0
  -22.9062  -48.5033  -16.5786 C   0  0  0  0  0  0  0  0  0  0  0  0
  -21.4414  -45.0925  -17.3343 N   0  0  0  0  0  0  0  0  0  0  0  0
  -21.0865  -43.9960  -18.2238 C   0  0  1  0  0  0  0  0  0  0  0  0
  -21.5690  -42.7131  -17.5444 C   0  0  0  0  0  0  0  0  0  0  0  0
  -19.9758  -42.0284  -20.3267 C   0  0  0  0  0  0  0  0  0  0  0  0
  -14.8074  -43.4490  -18.6627 C   0  0  0  0  0  0  0  0  0  0  0  0
  -14.2223  -42.5002  -19.4960 C   0  0  0  0  0  0  0  0  0  0  0  0
  -14.4989  -42.4993  -20.8625 C   0  0  0  0  0  0  0  0  0  0  0  0
  -15.3871  -43.4279  -21.4187 C   0  0  0  0  0  0  0  0  0  0  0  0
  -16.0263  -44.3754  -20.6011 C   0  0  0  0  0  0  0  0  0  0  0  0
  -15.6618  -44.3997  -19.2348 C   0  0  0  0  0  0  0  0  0  0  0  0
  -18.4769  -45.3979  -20.4773 C   0  0  2  0  0  0  0  0  0  0  0  0
  -19.0895  -46.8834  -21.2691 S   0  0  0  0  0  0  0  0  0  0  0  0
  -18.4608  -46.4340  -22.8812 C   0  0  0  0  0  0  0  0  0  0  0  0
  -17.2766  -45.5236  -22.5950 C   0  0  0  0  0  0  0  0  0  0  0  0
  -17.0306  -45.4275  -21.0707 C   0  0  1  0  0  0  0  0  0  0  0  0
  -19.5729  -43.9014  -18.5455 C   0  0  1  0  0  0  0  0  0  0  0  0
  -18.7347  -45.5355  -18.6809 S   0  0  0  0  0  0  0  0  0  0  0  0
  -19.2803  -44.2571  -20.9135 N   0  0  0  0  0  0  0  0  0  0  0  0
  -19.1800  -43.2376  -19.8777 C   0  0  1  0  0  0  0  0  0  0  0  0
  -13.5557  -42.9990  -16.9853 H   0  0  0  0  0  0  0  0  0  0  0  0
  -14.5184  -44.4508  -16.7813 H   0  0  0  0  0  0  0  0  0  0  0  0
  -17.3485  -42.6910  -15.8307 H   0  0  0  0  0  0  0  0  0  0  0  0
  -13.7390  -43.9110  -23.2805 H   0  0  0  0  0  0  0  0  0  0  0  0
  -14.8797  -43.6198  -24.6035 H   0  0  0  0  0  0  0  0  0  0  0  0
  -14.2494  -42.2314  -23.7153 H   0  0  0  0  0  0  0  0  0  0  0  0
  -21.3049  -47.2184  -15.9983 H   0  0  0  0  0  0  0  0  0  0  0  0
  -23.1000  -47.1171  -14.2284 H   0  0  0  0  0  0  0  0  0  0  0  0
  -22.7161  -45.5070  -14.8439 H   0  0  0  0  0  0  0  0  0  0  0  0
  -24.1861  -46.3261  -15.3788 H   0  0  0  0  0  0  0  0  0  0  0  0
  -22.8646  -49.1404  -15.6944 H   0  0  0  0  0  0  0  0  0  0  0  0
  -23.9496  -48.4615  -16.9039 H   0  0  0  0  0  0  0  0  0  0  0  0
  -22.3314  -48.9816  -17.3769 H   0  0  0  0  0  0  0  0  0  0  0  0
  -20.9656  -45.1980  -16.4434 H   0  0  0  0  0  0  0  0  0  0  0  0
  -21.6602  -44.1540  -19.1440 H   0  0  0  0  0  0  0  0  0  0  0  0
  -21.0521  -42.5516  -16.5912 H   0  0  0  0  0  0  0  0  0  0  0  0
  -21.4261  -41.8227  -18.1569 H   0  0  0  0  0  0  0  0  0  0  0  0
  -22.6403  -42.7800  -17.3198 H   0  0  0  0  0  0  0  0  0  0  0  0
  -19.8308  -41.1972  -19.6286 H   0  0  0  0  0  0  0  0  0  0  0  0
  -19.6464  -41.6765  -21.3114 H   0  0  0  0  0  0  0  0  0  0  0  0
  -21.0386  -42.2409  -20.3865 H   0  0  0  0  0  0  0  0  0  0  0  0
  -13.5429  -41.7505  -19.0950 H   0  0  0  0  0  0  0  0  0  0  0  0
  -14.0310  -41.7398  -21.4820 H   0  0  0  0  0  0  0  0  0  0  0  0
  -16.0607  -45.1723  -18.5827 H   0  0  0  0  0  0  0  0  0  0  0  0
  -18.2380  -47.3289  -23.4511 H   0  0  0  0  0  0  0  0  0  0  0  0
  -19.2072  -45.8805  -23.4577 H   0  0  0  0  0  0  0  0  0  0  0  0
  -16.3636  -45.8483  -23.0853 H   0  0  0  0  0  0  0  0  0  0  0  0
  -17.5257  -44.5580  -23.0465 H   0  0  0  0  0  0  0  0  0  0  0  0
  -16.5433  -46.3764  -20.7817 H   0  0  0  0  0  0  0  0  0  0  0  0
  -19.0764  -43.3614  -17.7348 H   0  0  0  0  0  0  0  0  0  0  0  0
  -18.9355  -43.8860  -21.7911 H   0  0  0  0  0  0  0  0  0  0  0  0
  -18.1425  -42.8899  -19.7997 H   0  0  0  0  0  0  0  0  0  0  0  0
  3  6  1  0
  1  4  1  0
  2  4  2  0
  4  5  1  0
 11  9  1  0
 10  9  1  0
  9  8  1  0
  8  7  2  0
 12  8  1  0
 13 12  1  0
 13 14  1  0
 16 21  2  0
 16  1  1  0
 16 17  1  0
 17 18  2  0
 18 19  1  0
 19 20  2  0
 19  3  1  0
 20 26  1  0
 20 21  1  0
 22 23  1  1
 22 26  1  0
 23 24  1  0
 24 25  1  0
 25 26  1  0
 27 13  1  0
 27 28  1  0
 27 30  1  0
 29 30  1  0
 30 15  1  0
 22 28  1  0
 22 29  1  0
  1 31  1  0
  1 32  1  0
  5 33  1  0
  6 34  1  0
  6 35  1  0
  6 36  1  0
  9 37  1  0
 10 38  1  0
 10 39  1  0
 10 40  1  0
 11 41  1  0
 11 42  1  0
 11 43  1  0
 12 44  1  0
 13 45  1  6
 14 46  1  0
 14 47  1  0
 14 48  1  0
 15 49  1  0
 15 50  1  0
 15 51  1  0
 17 52  1  0
 18 53  1  0
 21 54  1  0
 24 55  1  0
 24 56  1  0
 25 57  1  0
 25 58  1  0
 26 59  1  1
 27 60  1  1
 29 61  1  0
 30 62  1  1
M  END
>  <smiles>  (527) 
[H]OC(=O)C([H])([H])c1c([H])c([H])c(OC([H])([H])[H])c([C@]2([H])C([H])([H])C([H])([H])S[C@]23S[C@]([H])([C@@]([H])(N([H])C(=O)C([H])(C([H])([H])[H])C([H])([H])[H])C([H])([H])[H])[C@]([H])(C([H])([H])[H])N3[H])c1[H]

>  <error>  (527) 


>  <∆∆G>  (527) 
-78.499835

>  <∆G_bound>  (527) 
71.373538

>  <∆G_unbound>  (527) 
149.873373

>  <comRMSD>  (527) 
0.996992

>  <N_constrained_atoms>  (527) 
30.0

>  <N_unconstrained_atoms>  (527) 
0.0

>  <runtime>  (527) 
81.707792

>  <regarded>  (527) 
['5f41-a', 'd0264a']

>  <disregarded>  (527) 
[]

>  <LE>  (527) 
2.616661

>  <outcome>  (527) 
acceptable

>  <percent_hybrid>  (527) 
44.0

$$$$
LIG
     RDKit          3D

 29 30  0  0  0  0  0  0  0  0999 V2000
  -15.2545  -42.6196  -17.5888 C   0  0  0  0  0  0  0  0  0  0  0  0
  -14.6131  -44.7704  -16.6113 O   0  0  0  0  0  0  0  0  0  0  0  0
  -15.2057  -44.2241  -23.0321 O   0  0  0  0  0  0  0  0  0  0  0  0
  -15.0894  -43.6505  -16.5083 C   0  0  0  0  0  0  0  0  0  0  0  0
  -15.5554  -43.1892  -15.3287 O   0  0  0  0  0  0  0  0  0  0  0  0
  -14.4811  -43.4030  -23.9337 C   0  0  0  0  0  0  0  0  0  0  0  0
  -15.1746  -43.1683  -18.9918 C   0  0  0  0  0  0  0  0  0  0  0  0
  -14.0665  -42.8677  -19.7910 C   0  0  0  0  0  0  0  0  0  0  0  0
  -14.0412  -43.2343  -21.1361 C   0  0  0  0  0  0  0  0  0  0  0  0
  -15.1238  -43.9031  -21.7032 C   0  0  0  0  0  0  0  0  0  0  0  0
  -16.1904  -44.3152  -20.8830 C   0  0  0  0  0  0  0  0  0  0  0  0
  -16.2185  -43.9347  -19.5336 C   0  0  0  0  0  0  0  0  0  0  0  0
  -17.5257  -46.3942  -20.9175 C   0  0  0  0  0  0  0  0  0  0  0  0
  -18.6074  -47.2721  -21.8973 S   0  0  0  0  0  0  0  0  0  0  0  0
  -18.6882  -46.0130  -23.0477 C   0  0  0  0  0  0  0  0  0  0  0  0
  -17.9742  -44.9103  -22.6511 C   0  0  0  0  0  0  0  0  0  0  0  0
  -17.2496  -45.1469  -21.4399 C   0  0  0  0  0  0  0  0  0  0  0  0
  -16.2332  -42.1373  -17.4719 H   0  0  0  0  0  0  0  0  0  0  0  0
  -14.4908  -41.8485  -17.4337 H   0  0  0  0  0  0  0  0  0  0  0  0
  -15.6241  -43.9680  -14.7380 H   0  0  0  0  0  0  0  0  0  0  0  0
  -14.4690  -42.3490  -23.6363 H   0  0  0  0  0  0  0  0  0  0  0  0
  -13.4714  -43.8001  -24.0547 H   0  0  0  0  0  0  0  0  0  0  0  0
  -14.9875  -43.4570  -24.9008 H   0  0  0  0  0  0  0  0  0  0  0  0
  -13.2156  -42.3231  -19.3849 H   0  0  0  0  0  0  0  0  0  0  0  0
  -13.1568  -43.0000  -21.7201 H   0  0  0  0  0  0  0  0  0  0  0  0
  -17.0730  -44.2018  -18.9164 H   0  0  0  0  0  0  0  0  0  0  0  0
  -17.1024  -46.8621  -20.0394 H   0  0  0  0  0  0  0  0  0  0  0  0
  -19.2431  -46.1441  -23.9649 H   0  0  0  0  0  0  0  0  0  0  0  0
  -17.8839  -44.0136  -23.2513 H   0  0  0  0  0  0  0  0  0  0  0  0
  3  6  1  0
  1  4  1  0
  2  4  2  0
  4  5  1  0
  7 12  2  0
  7  1  1  0
  7  8  1  0
  8  9  2  0
  9 10  1  0
 10 11  2  0
 10  3  1  0
 11 17  1  0
 11 12  1  0
 13 14  1  0
 13 17  2  0
 14 15  1  0
 15 16  2  0
 16 17  1  0
  1 18  1  0
  1 19  1  0
  5 20  1  0
  6 21  1  0
  6 22  1  0
  6 23  1  0
  8 24  1  0
  9 25  1  0
 12 26  1  0
 13 27  1  0
 15 28  1  0
 16 29  1  0
M  END
>  <smiles>  (528) 
[H]OC(=O)C([H])([H])c1c([H])c([H])c(OC([H])([H])[H])c(-c2c([H])sc([H])c2[H])c1[H]

>  <error>  (528) 


>  <∆∆G>  (528) 
-40.859414

>  <∆G_bound>  (528) 
-63.746682

>  <∆G_unbound>  (528) 
-22.887268

>  <comRMSD>  (528) 
1.075424

>  <N_constrained_atoms>  (528) 
17.0

>  <N_unconstrained_atoms>  (528) 
0.0

>  <runtime>  (528) 
1.512325

>  <regarded>  (528) 
['5f41-a', 'd0472a']

>  <disregarded>  (528) 
[]

>  <LE>  (528) 
2.403495

>  <outcome>  (528) 
equally sized

>  <percent_hybrid>  (528) 
0.0

$$$$

     RDKit          2D

  0  0  0  0  0  0  0  0  0  0999 V2000
M  END
>  <smiles>  (529) 
nan

>  <error>  (529) 
FragmensteinError Ideal compound failed. Something is wrong with the SMILES

>  <∆∆G>  (529) 
nan

>  <∆G_bound>  (529) 
nan

>  <∆G_unbound>  (529) 
nan

>  <comRMSD>  (529) 
nan

>  <N_constrained_atoms>  (529) 
nan

>  <N_unconstrained_atoms>  (529) 
nan

>  <runtime>  (529) 
nan

>  <regarded>  (529) 
[]

>  <disregarded>  (529) 
[]

>  <LE>  (529) 
nan

>  <outcome>  (529) 
crashed

>  <percent_hybrid>  (529) 
nan

$$$$
LIG
     RDKit          3D

 62 66  0  0  0  0  0  0  0  0999 V2000
  -14.9218  -44.0171  -17.2509 C   0  0  0  0  0  0  0  0  0  0  0  0
  -14.5287  -43.6332  -14.8982 O   0  0  0  0  0  0  0  0  0  0  0  0
  -15.3958  -43.6261  -21.9991 O   0  0  0  0  0  0  0  0  0  0  0  0
  -15.0912  -43.3028  -15.9317 C   0  0  0  0  0  0  0  0  0  0  0  0
  -15.9073  -42.2395  -15.9554 O   0  0  0  0  0  0  0  0  0  0  0  0
  -14.4621  -42.8162  -22.7124 C   0  0  1  0  0  0  0  0  0  0  0  0
  -18.7429  -43.0025  -24.2764 F   0  0  0  0  0  0  0  0  0  0  0  0
  -14.6621  -40.7144  -25.3486 N   0  0  0  0  0  0  0  0  0  0  0  0
  -15.3381  -40.1915  -26.5199 C   0  0  0  0  0  0  0  0  0  0  0  0
  -18.6889  -36.3712  -24.8457 C   0  0  0  0  0  0  0  0  0  0  0  0
  -15.8587  -43.5840  -18.3833 C   0  0  1  0  0  0  0  0  0  0  0  0
  -15.2310  -42.4537  -19.1875 C   0  0  0  0  0  0  0  0  0  0  0  0
  -16.2168  -42.0042  -20.2503 C   0  0  0  0  0  0  0  0  0  0  0  0
  -16.5398  -43.0892  -21.3275 C   0  0  2  0  0  0  0  0  0  0  0  0
  -17.1728  -44.2815  -20.4826 C   0  0  2  0  0  0  0  0  0  0  0  0
  -16.2103  -44.7325  -19.3368 C   0  0  0  0  0  0  0  0  0  0  0  0
  -17.4205  -46.7974  -20.9921 C   0  0  0  0  0  0  0  0  0  0  0  0
  -18.3149  -47.8630  -21.9583 S   0  0  0  0  0  0  0  0  0  0  0  0
  -18.7647  -46.6247  -23.0122 C   0  0  0  0  0  0  0  0  0  0  0  0
  -18.6068  -45.4177  -22.3818 C   0  0  0  0  0  0  0  0  0  0  0  0
  -17.6832  -45.4710  -21.2841 C   0  0  0  0  0  0  0  0  0  0  0  0
  -17.4691  -42.8606  -23.7723 C   0  0  1  0  0  0  0  0  0  0  0  0
  -16.8306  -41.7727  -24.6177 C   0  0  0  0  0  0  0  0  0  0  0  0
  -15.3600  -41.4664  -24.3228 C   0  0  2  0  0  0  0  0  0  0  0  0
  -15.0446  -40.6691  -23.0548 C   0  0  0  0  0  0  0  0  0  0  0  0
  -17.5938  -42.4819  -22.2983 C   0  0  0  0  0  0  0  0  0  0  0  0
  -17.5507  -38.9877  -27.1043 C   0  0  0  0  0  0  0  0  0  0  0  0
  -18.4425  -38.0112  -26.6975 N   0  0  0  0  0  0  0  0  0  0  0  0
  -17.9929  -37.4562  -25.5910 C   0  0  0  0  0  0  0  0  0  0  0  0
  -16.4945  -38.0618  -25.0108 S   0  0  0  0  0  0  0  0  0  0  0  0
  -16.4415  -39.1916  -26.3017 C   0  0  0  0  0  0  0  0  0  0  0  0
  -13.8790  -43.8757  -17.5535 H   0  0  0  0  0  0  0  0  0  0  0  0
  -15.0890  -45.0771  -17.0347 H   0  0  0  0  0  0  0  0  0  0  0  0
  -15.9640  -41.9603  -15.0167 H   0  0  0  0  0  0  0  0  0  0  0  0
  -13.5088  -43.3382  -22.6048 H   0  0  0  0  0  0  0  0  0  0  0  0
  -13.8358  -41.2475  -25.6193 H   0  0  0  0  0  0  0  0  0  0  0  0
  -14.5701  -39.6866  -27.1128 H   0  0  0  0  0  0  0  0  0  0  0  0
  -15.6991  -41.0162  -27.1462 H   0  0  0  0  0  0  0  0  0  0  0  0
  -18.9507  -36.6998  -23.8350 H   0  0  0  0  0  0  0  0  0  0  0  0
  -18.0577  -35.4796  -24.7753 H   0  0  0  0  0  0  0  0  0  0  0  0
  -19.6136  -36.0890  -25.3593 H   0  0  0  0  0  0  0  0  0  0  0  0
  -16.8055  -43.2345  -17.9505 H   0  0  0  0  0  0  0  0  0  0  0  0
  -15.0034  -41.6067  -18.5294 H   0  0  0  0  0  0  0  0  0  0  0  0
  -14.2845  -42.7670  -19.6434 H   0  0  0  0  0  0  0  0  0  0  0  0
  -17.1560  -41.7135  -19.7552 H   0  0  0  0  0  0  0  0  0  0  0  0
  -15.8546  -41.0658  -20.6612 H   0  0  0  0  0  0  0  0  0  0  0  0
  -18.0706  -43.8837  -19.9822 H   0  0  0  0  0  0  0  0  0  0  0  0
  -15.2944  -45.1671  -19.7592 H   0  0  0  0  0  0  0  0  0  0  0  0
  -16.6915  -45.5174  -18.7396 H   0  0  0  0  0  0  0  0  0  0  0  0
  -16.8034  -47.2162  -20.2105 H   0  0  0  0  0  0  0  0  0  0  0  0
  -19.2746  -46.8449  -23.9393 H   0  0  0  0  0  0  0  0  0  0  0  0
  -19.1035  -44.5455  -22.7674 H   0  0  0  0  0  0  0  0  0  0  0  0
  -16.9801  -43.8253  -23.9292 H   0  0  0  0  0  0  0  0  0  0  0  0
  -16.9317  -42.1320  -25.6507 H   0  0  0  0  0  0  0  0  0  0  0  0
  -17.4541  -40.8767  -24.5471 H   0  0  0  0  0  0  0  0  0  0  0  0
  -14.7233  -42.7222  -24.1148 O   0  0  0  0  0  0  0  0  0  0  0  0
  -14.3131  -41.5172  -22.1815 O   0  0  0  0  0  0  0  0  0  0  0  0
  -15.9305  -40.2454  -22.5795 H   0  0  0  0  0  0  0  0  0  0  0  0
  -17.5909  -41.3893  -22.2211 H   0  0  0  0  0  0  0  0  0  0  0  0
  -18.6034  -42.7024  -21.9305 H   0  0  0  0  0  0  0  0  0  0  0  0
  -17.7564  -39.5387  -28.0132 H   0  0  0  0  0  0  0  0  0  0  0  0
  -14.3979  -39.7990  -23.2310 H   0  0  0  0  0  0  0  0  0  0  0  0
  3  6  1  0
  1  4  1  0
  2  4  2  0
  4  5  1  0
  9  8  1  0
 11 16  1  0
 11  1  1  0
 11 12  1  0
 12 13  1  0
 13 14  1  0
 14 15  1  0
 14  3  1  6
 15 21  1  0
 15 16  1  0
 17 18  1  0
 17 21  2  0
 18 19  1  0
 19 20  2  0
 20 21  1  0
 22 26  1  0
 22  7  1  0
 22 23  1  0
 23 24  1  0
 24  8  1  6
 24 25  1  0
 27 28  1  0
 27 31  2  0
 28 29  2  0
 29 10  1  0
 29 30  1  0
 30 31  1  0
 31  9  1  0
 14 26  1  0
  1 32  1  0
  1 33  1  0
  5 34  1  0
  6 35  1  6
  8 36  1  0
  9 37  1  0
  9 38  1  0
 10 39  1  0
 10 40  1  0
 10 41  1  0
 11 42  1  1
 12 43  1  0
 12 44  1  0
 13 45  1  0
 13 46  1  0
 15 47  1  1
 16 48  1  0
 16 49  1  0
 17 50  1  0
 19 51  1  0
 20 52  1  0
 22 53  1  1
 23 54  1  0
 23 55  1  0
 24 56  1  0
 25 57  1  0
 25 58  1  0
 26 59  1  0
 26 60  1  0
 27 61  1  0
 56  6  1  0
 57  6  1  0
 25 62  1  0
M  END
>  <smiles>  (530) 
[H]OC(=O)C([H])([H])[C@@]1([H])C([H])([H])C([H])([H])[C@@]2(O[C@]3([H])OC([H])([H])[C@@](N([H])C([H])([H])c4sc(C([H])([H])[H])nc4[H])(O3)C([H])([H])[C@]([H])(F)C2([H])[H])[C@@]([H])(c2c([H])sc([H])c2[H])C1([H])[H]

>  <error>  (530) 


>  <∆∆G>  (530) 
-274.070328

>  <∆G_bound>  (530) 
77.775997

>  <∆G_unbound>  (530) 
351.846326

>  <comRMSD>  (530) 
1.047332

>  <N_constrained_atoms>  (530) 
31.0

>  <N_unconstrained_atoms>  (530) 
2.0

>  <runtime>  (530) 
3.59416

>  <regarded>  (530) 
['5f41-a', 'd0615b']

>  <disregarded>  (530) 
[]

>  <LE>  (530) 
8.305161

>  <outcome>  (530) 
too moved

>  <percent_hybrid>  (530) 
46.0

$$$$
LIG
     RDKit          3D

 57 59  0  0  0  0  0  0  0  0999 V2000
  -15.0530  -43.6459  -17.2036 C   0  0  0  0  0  0  0  0  0  0  0  0
  -15.9109  -41.8153  -15.8604 O   0  0  0  0  0  0  0  0  0  0  0  0
  -15.1169  -43.9772  -22.9072 O   0  0  0  0  0  0  0  0  0  0  0  0
  -16.1149  -42.7565  -16.6112 C   0  0  0  0  0  0  0  0  0  0  0  0
  -17.3725  -43.1443  -16.9014 O   0  0  0  0  0  0  0  0  0  0  0  0
  -14.6572  -42.8129  -23.6062 C   0  0  0  0  0  0  0  0  0  0  0  0
  -15.0605  -43.7609  -18.7079 C   0  0  0  0  0  0  0  0  0  0  0  0
  -13.9924  -43.2554  -19.4537 C   0  0  0  0  0  0  0  0  0  0  0  0
  -13.9880  -43.3477  -20.8476 C   0  0  0  0  0  0  0  0  0  0  0  0
  -15.0666  -43.9109  -21.5339 C   0  0  0  0  0  0  0  0  0  0  0  0
  -16.0996  -44.5105  -20.7919 C   0  0  0  0  0  0  0  0  0  0  0  0
  -16.0957  -44.4160  -19.3882 C   0  0  0  0  0  0  0  0  0  0  0  0
  -17.4297  -46.5739  -21.0786 C   0  0  0  0  0  0  0  0  0  0  0  0
  -18.6044  -47.2902  -22.0803 S   0  0  0  0  0  0  0  0  0  0  0  0
  -18.7087  -45.8935  -23.0577 C   0  0  0  0  0  0  0  0  0  0  0  0
  -17.9554  -44.8634  -22.5540 C   0  0  0  0  0  0  0  0  0  0  0  0
  -17.1549  -45.2712  -21.4463 C   0  0  0  0  0  0  0  0  0  0  0  0
  -19.7582  -39.2483  -24.6166 O   0  0  0  0  0  0  0  0  0  0  0  0
  -19.1636  -39.6791  -25.8632 S   0  0  0  0  0  0  0  0  0  0  0  0
  -18.8740  -38.7217  -26.9134 O   0  0  0  0  0  0  0  0  0  0  0  0
  -20.2290  -40.9310  -26.5426 C   0  0  0  0  0  0  0  0  0  0  0  0
  -16.2808  -41.0514  -27.4170 C   0  0  0  0  0  0  0  0  0  0  0  0
  -16.4806  -38.2805  -25.0310 C   0  0  0  0  0  0  0  0  0  0  0  0
  -16.1529  -38.2158  -26.4121 O   0  0  0  0  0  0  0  0  0  0  0  0
  -17.7376  -40.4616  -25.4566 N   0  0  0  0  0  0  0  0  0  0  0  0
  -17.1597  -41.5445  -26.2731 C   0  0  2  0  0  0  0  0  0  0  0  0
  -16.4699  -42.5788  -25.3722 C   0  0  0  0  0  0  0  0  0  0  0  0
  -15.8562  -41.9920  -24.0931 C   0  0  2  0  0  0  0  0  0  0  0  0
  -15.5029  -40.5188  -24.2968 C   0  0  0  0  0  0  0  0  0  0  0  0
  -16.7872  -39.7138  -24.5573 C   0  0  1  0  0  0  0  0  0  0  0  0
  -14.0834  -43.2565  -16.8675 H   0  0  0  0  0  0  0  0  0  0  0  0
  -15.1392  -44.6423  -16.7581 H   0  0  0  0  0  0  0  0  0  0  0  0
  -17.9297  -42.6367  -16.2682 H   0  0  0  0  0  0  0  0  0  0  0  0
  -14.0216  -42.1693  -22.9955 H   0  0  0  0  0  0  0  0  0  0  0  0
  -14.0452  -43.1553  -24.4466 H   0  0  0  0  0  0  0  0  0  0  0  0
  -13.1348  -42.7957  -18.9637 H   0  0  0  0  0  0  0  0  0  0  0  0
  -13.0992  -43.0088  -21.3736 H   0  0  0  0  0  0  0  0  0  0  0  0
  -16.9190  -44.8496  -18.8240 H   0  0  0  0  0  0  0  0  0  0  0  0
  -16.9759  -47.1617  -20.2926 H   0  0  0  0  0  0  0  0  0  0  0  0
  -19.3280  -45.8850  -23.9419 H   0  0  0  0  0  0  0  0  0  0  0  0
  -17.9212  -43.8823  -23.0014 H   0  0  0  0  0  0  0  0  0  0  0  0
  -20.2474  -41.7921  -25.8726 H   0  0  0  0  0  0  0  0  0  0  0  0
  -21.2333  -40.5059  -26.6137 H   0  0  0  0  0  0  0  0  0  0  0  0
  -19.8862  -41.1925  -27.5404 H   0  0  0  0  0  0  0  0  0  0  0  0
  -15.3615  -40.5694  -27.0830 H   0  0  0  0  0  0  0  0  0  0  0  0
  -15.9791  -41.8918  -28.0490 H   0  0  0  0  0  0  0  0  0  0  0  0
  -16.8162  -40.3347  -28.0472 H   0  0  0  0  0  0  0  0  0  0  0  0
  -15.6490  -37.8653  -24.4547 H   0  0  0  0  0  0  0  0  0  0  0  0
  -17.3372  -37.6200  -24.8577 H   0  0  0  0  0  0  0  0  0  0  0  0
  -16.9961  -38.3003  -26.9013 H   0  0  0  0  0  0  0  0  0  0  0  0
  -17.9839  -42.0937  -26.7222 H   0  0  0  0  0  0  0  0  0  0  0  0
  -17.2097  -43.3325  -25.0769 H   0  0  0  0  0  0  0  0  0  0  0  0
  -15.7293  -43.1297  -25.9561 H   0  0  0  0  0  0  0  0  0  0  0  0
  -16.6249  -42.0283  -23.3093 H   0  0  0  0  0  0  0  0  0  0  0  0
  -15.0217  -40.1181  -23.3950 H   0  0  0  0  0  0  0  0  0  0  0  0
  -14.7686  -40.4022  -25.0992 H   0  0  0  0  0  0  0  0  0  0  0  0
  -17.2890  -39.6321  -23.5824 H   0  0  0  0  0  0  0  0  0  0  0  0
  3  6  1  0
  1  4  1  0
  2  4  2  0
  4  5  1  0
  7 12  2  0
  7  1  1  0
  7  8  1  0
  8  9  2  0
  9 10  1  0
 10 11  2  0
 10  3  1  0
 11 17  1  0
 11 12  1  0
 13 14  1  0
 13 17  2  0
 14 15  1  0
 15 16  2  0
 16 17  1  0
 24 23  1  0
 21 19  1  0
 20 19  2  0
 19 18  2  0
 25 30  1  0
 25 19  1  0
 25 26  1  0
 26 22  1  0
 26 27  1  0
 27 28  1  0
 28 29  1  0
 29 30  1  0
 30 23  1  0
  6 28  1  0
  1 31  1  0
  1 32  1  0
  5 33  1  0
  6 34  1  0
  6 35  1  0
  8 36  1  0
  9 37  1  0
 12 38  1  0
 13 39  1  0
 15 40  1  0
 16 41  1  0
 21 42  1  0
 21 43  1  0
 21 44  1  0
 22 45  1  0
 22 46  1  0
 22 47  1  0
 23 48  1  0
 23 49  1  0
 24 50  1  0
 26 51  1  6
 27 52  1  0
 27 53  1  0
 28 54  1  1
 29 55  1  0
 29 56  1  0
 30 57  1  1
M  END
>  <smiles>  (531) 
[H]OC(=O)C([H])([H])c1c([H])c([H])c(OC([H])([H])[C@]2([H])C([H])([H])[C@]([H])(C([H])([H])[H])N(S(=O)(=O)C([H])([H])[H])[C@]([H])(C([H])([H])O[H])C2([H])[H])c(-c2c([H])sc([H])c2[H])c1[H]

>  <error>  (531) 


>  <∆∆G>  (531) 
-244.235015

>  <∆G_bound>  (531) 
109.203937

>  <∆G_unbound>  (531) 
353.438952

>  <comRMSD>  (531) 
0.691645

>  <N_constrained_atoms>  (531) 
30.0

>  <N_unconstrained_atoms>  (531) 
0.0

>  <runtime>  (531) 
2.380529

>  <regarded>  (531) 
['5f41-a', 'd0851a']

>  <disregarded>  (531) 
[]

>  <LE>  (531) 
8.141167

>  <outcome>  (531) 
acceptable

>  <percent_hybrid>  (531) 
44.0

$$$$
LIG
     RDKit          3D

 64 67  0  0  0  0  0  0  0  0999 V2000
  -15.4697  -43.1408  -17.2545 C   0  0  0  0  0  0  0  0  0  0  0  0
  -17.9316  -43.1521  -17.3074 O   0  0  0  0  0  0  0  0  0  0  0  0
  -15.1037  -44.0012  -22.8851 O   0  0  0  0  0  0  0  0  0  0  0  0
  -16.8766  -42.9454  -16.7299 C   0  0  0  0  0  0  0  0  0  0  0  0
  -16.8756  -42.5806  -15.4292 O   0  0  0  0  0  0  0  0  0  0  0  0
  -15.0455  -42.7671  -23.6387 C   0  0  0  0  0  0  0  0  0  0  0  0
  -18.8519  -37.0384  -26.2292 O   0  0  0  0  0  0  0  0  0  0  0  0
  -17.9024  -37.0612  -25.5293 C   0  0  0  0  0  0  0  0  0  0  0  0
  -18.8057  -39.9228  -25.1003 C   0  0  0  0  0  0  0  0  0  0  0  0
  -16.6561  -41.9263  -23.8313 S   0  0  0  0  0  0  0  0  0  0  0  0
  -17.0661  -41.3908  -22.5481 O   0  0  0  0  0  0  0  0  0  0  0  0
  -17.5415  -42.7822  -24.5995 O   0  0  0  0  0  0  0  0  0  0  0  0
  -15.3477  -43.4436  -18.7340 C   0  0  0  0  0  0  0  0  0  0  0  0
  -14.2968  -42.8827  -19.4706 C   0  0  0  0  0  0  0  0  0  0  0  0
  -14.1997  -43.0851  -20.8500 C   0  0  0  0  0  0  0  0  0  0  0  0
  -15.1660  -43.8330  -21.5246 C   0  0  0  0  0  0  0  0  0  0  0  0
  -16.1564  -44.5015  -20.7839 C   0  0  0  0  0  0  0  0  0  0  0  0
  -16.2305  -44.3073  -19.3959 C   0  0  0  0  0  0  0  0  0  0  0  0
  -17.2980  -46.6912  -21.0312 C   0  0  0  0  0  0  0  0  0  0  0  0
  -18.4912  -47.4816  -21.9622 S   0  0  0  0  0  0  0  0  0  0  0  0
  -18.6899  -46.1220  -22.9659 C   0  0  0  0  0  0  0  0  0  0  0  0
  -18.0526  -45.0281  -22.4418 C   0  0  0  0  0  0  0  0  0  0  0  0
  -17.1341  -45.3749  -21.4142 C   0  0  0  0  0  0  0  0  0  0  0  0
  -17.9362  -36.1595  -23.1871 C   0  0  0  0  0  0  0  0  0  0  0  0
  -19.3625  -35.6664  -23.0728 C   0  0  0  0  0  0  0  0  0  0  0  0
  -19.2576  -34.4721  -23.9474 C   0  0  0  0  0  0  0  0  0  0  0  0
  -17.7961  -34.5886  -24.3254 C   0  0  0  0  0  0  0  0  0  0  0  0
  -17.3530  -36.0040  -24.5778 N   0  0  0  0  0  0  0  0  0  0  0  0
  -17.3912  -39.4576  -24.7263 C   0  0  2  0  0  0  0  0  0  0  0  0
  -16.9018  -38.2348  -25.5318 C   0  0  1  0  0  0  0  0  0  0  0  0
  -16.5929  -38.6119  -26.9850 C   0  0  0  0  0  0  0  0  0  0  0  0
  -15.6170  -39.7774  -27.0469 C   0  0  0  0  0  0  0  0  0  0  0  0
  -16.0957  -40.9664  -26.2498 C   0  0  0  0  0  0  0  0  0  0  0  0
  -16.3602  -40.5786  -24.8404 N   0  0  0  0  0  0  0  0  0  0  0  0
  -14.9189  -42.2190  -17.0310 H   0  0  0  0  0  0  0  0  0  0  0  0
  -15.0092  -43.9661  -16.6996 H   0  0  0  0  0  0  0  0  0  0  0  0
  -17.8027  -42.7666  -15.1386 H   0  0  0  0  0  0  0  0  0  0  0  0
  -14.3403  -42.0412  -23.2263 H   0  0  0  0  0  0  0  0  0  0  0  0
  -14.7136  -43.0440  -24.6412 H   0  0  0  0  0  0  0  0  0  0  0  0
  -19.1355  -40.7605  -24.4798 H   0  0  0  0  0  0  0  0  0  0  0  0
  -19.5378  -39.1265  -24.9348 H   0  0  0  0  0  0  0  0  0  0  0  0
  -18.8805  -40.2367  -26.1452 H   0  0  0  0  0  0  0  0  0  0  0  0
  -13.5430  -42.2678  -18.9815 H   0  0  0  0  0  0  0  0  0  0  0  0
  -13.3474  -42.6667  -21.3784 H   0  0  0  0  0  0  0  0  0  0  0  0
  -17.0296  -44.7998  -18.8456 H   0  0  0  0  0  0  0  0  0  0  0  0
  -16.7751  -47.2406  -20.2611 H   0  0  0  0  0  0  0  0  0  0  0  0
  -19.3151  -46.1578  -23.8450 H   0  0  0  0  0  0  0  0  0  0  0  0
  -18.1901  -44.0387  -22.8352 H   0  0  0  0  0  0  0  0  0  0  0  0
  -17.9367  -37.2282  -22.9501 H   0  0  0  0  0  0  0  0  0  0  0  0
  -17.2594  -35.7251  -22.4307 H   0  0  0  0  0  0  0  0  0  0  0  0
  -20.0789  -36.3912  -23.4738 H   0  0  0  0  0  0  0  0  0  0  0  0
  -19.6382  -35.4342  -22.0405 H   0  0  0  0  0  0  0  0  0  0  0  0
  -19.9113  -34.5621  -24.8215 H   0  0  0  0  0  0  0  0  0  0  0  0
  -19.4800  -33.5301  -23.4385 H   0  0  0  0  0  0  0  0  0  0  0  0
  -17.6622  -34.0779  -25.2886 H   0  0  0  0  0  0  0  0  0  0  0  0
  -17.1078  -34.0679  -23.6386 H   0  0  0  0  0  0  0  0  0  0  0  0
  -17.4098  -39.1605  -23.6724 H   0  0  0  0  0  0  0  0  0  0  0  0
  -15.9621  -37.8923  -25.0788 H   0  0  0  0  0  0  0  0  0  0  0  0
  -17.5110  -38.8771  -27.5240 H   0  0  0  0  0  0  0  0  0  0  0  0
  -16.1705  -37.7466  -27.5100 H   0  0  0  0  0  0  0  0  0  0  0  0
  -15.5039  -40.1065  -28.0838 H   0  0  0  0  0  0  0  0  0  0  0  0
  -14.6337  -39.4569  -26.6826 H   0  0  0  0  0  0  0  0  0  0  0  0
  -16.9955  -41.3852  -26.7121 H   0  0  0  0  0  0  0  0  0  0  0  0
  -15.3223  -41.7349  -26.2844 H   0  0  0  0  0  0  0  0  0  0  0  0
  3  6  1  0
  1  4  1  0
  2  4  2  0
  4  5  1  0
 11 10  2  0
 12 10  2  0
  8  7  2  0
 10  6  1  0
 13 18  2  0
 13  1  1  0
 13 14  1  0
 14 15  2  0
 15 16  1  0
 16 17  2  0
 16  3  1  0
 17 23  1  0
 17 18  1  0
 19 20  1  0
 19 23  2  0
 20 21  1  0
 21 22  2  0
 22 23  1  0
 24 25  1  0
 24 28  1  0
 25 26  1  0
 26 27  1  0
 27 28  1  0
 28  8  1  0
 29  9  1  0
 29 34  1  0
 29 30  1  0
 30 31  1  0
 30  8  1  0
 31 32  1  0
 32 33  1  0
 33 34  1  0
 34 10  1  0
  1 35  1  0
  1 36  1  0
  5 37  1  0
  6 38  1  0
  6 39  1  0
  9 40  1  0
  9 41  1  0
  9 42  1  0
 14 43  1  0
 15 44  1  0
 18 45  1  0
 19 46  1  0
 21 47  1  0
 22 48  1  0
 24 49  1  0
 24 50  1  0
 25 51  1  0
 25 52  1  0
 26 53  1  0
 26 54  1  0
 27 55  1  0
 27 56  1  0
 29 57  1  1
 30 58  1  1
 31 59  1  0
 31 60  1  0
 32 61  1  0
 32 62  1  0
 33 63  1  0
 33 64  1  0
M  END
>  <smiles>  (532) 
[H]OC(=O)C([H])([H])c1c([H])c([H])c(OC([H])([H])S(=O)(=O)N2C([H])([H])C([H])([H])C([H])([H])[C@@]([H])(C(=O)N3C([H])([H])C([H])([H])C([H])([H])C3([H])[H])[C@@]2([H])C([H])([H])[H])c(-c2c([H])sc([H])c2[H])c1[H]

>  <error>  (532) 


>  <∆∆G>  (532) 
-119.590875

>  <∆G_bound>  (532) 
93.772968

>  <∆G_unbound>  (532) 
213.363843

>  <comRMSD>  (532) 
0.838086

>  <N_constrained_atoms>  (532) 
34.0

>  <N_unconstrained_atoms>  (532) 
0.0

>  <runtime>  (532) 
7.176913

>  <regarded>  (532) 
['5f41-a', 'd0866a']

>  <disregarded>  (532) 
[]

>  <LE>  (532) 
3.517379

>  <outcome>  (532) 
acceptable

>  <percent_hybrid>  (532) 
50.0

$$$$

     RDKit          2D

  0  0  0  0  0  0  0  0  0  0999 V2000
M  END
>  <smiles>  (533) 
nan

>  <error>  (533) 
DistanceError 6.03 Å

>  <∆∆G>  (533) 
nan

>  <∆G_bound>  (533) 
nan

>  <∆G_unbound>  (533) 
nan

>  <comRMSD>  (533) 
nan

>  <N_constrained_atoms>  (533) 
nan

>  <N_unconstrained_atoms>  (533) 
nan

>  <runtime>  (533) 
nan

>  <regarded>  (533) 
[]

>  <disregarded>  (533) 
[]

>  <LE>  (533) 
nan

>  <outcome>  (533) 
too distant

>  <percent_hybrid>  (533) 
nan

$$$$
LIG
     RDKit          3D

 50 52  0  0  0  0  0  0  0  0999 V2000
  -15.6188  -42.3498  -17.5990 C   0  0  1  0  0  0  0  0  0  0  0  0
  -16.8473  -40.4230  -16.7149 O   0  0  0  0  0  0  0  0  0  0  0  0
  -15.8369  -43.5128  -23.2023 O   0  0  0  0  0  0  0  0  0  0  0  0
  -15.8381  -40.8817  -17.2294 C   0  0  0  0  0  0  0  0  0  0  0  0
  -14.8211  -40.0498  -17.5175 O   0  0  0  0  0  0  0  0  0  0  0  0
  -14.5828  -43.3204  -23.8460 C   0  0  0  0  0  0  0  0  0  0  0  0
  -15.7812  -42.6288  -19.0993 C   0  0  0  0  0  0  0  0  0  0  0  0
  -15.2075  -41.7695  -20.0410 C   0  0  0  0  0  0  0  0  0  0  0  0
  -15.2054  -42.0637  -21.3984 C   0  0  0  0  0  0  0  0  0  0  0  0
  -15.8362  -43.2062  -21.8653 C   0  0  0  0  0  0  0  0  0  0  0  0
  -16.5480  -44.0266  -20.9689 C   0  0  0  0  0  0  0  0  0  0  0  0
  -16.4804  -43.7523  -19.5837 C   0  0  0  0  0  0  0  0  0  0  0  0
  -17.4878  -46.3421  -20.8548 C   0  0  0  0  0  0  0  0  0  0  0  0
  -18.4561  -47.4336  -21.7383 S   0  0  0  0  0  0  0  0  0  0  0  0
  -18.6565  -46.3322  -23.0168 C   0  0  0  0  0  0  0  0  0  0  0  0
  -18.1176  -45.1086  -22.7143 C   0  0  0  0  0  0  0  0  0  0  0  0
  -17.3692  -45.1219  -21.4873 C   0  0  0  0  0  0  0  0  0  0  0  0
  -12.4632  -42.6015  -19.9965 O   0  0  0  0  0  0  0  0  0  0  0  0
  -12.4885  -42.3297  -18.6029 C   0  0  0  0  0  0  0  0  0  0  0  0
  -13.2207  -43.4392  -17.8887 C   0  0  0  0  0  0  0  0  0  0  0  0
  -14.3658  -43.0776  -16.8992 C   0  0  0  0  0  0  0  0  0  0  0  0
  -14.9012  -44.4323  -16.3553 C   0  0  0  0  0  0  0  0  0  0  0  0
  -14.1104  -44.9518  -15.1639 C   0  0  0  0  0  0  0  0  0  0  0  0
  -14.2867  -44.1095  -14.0312 O   0  0  0  0  0  0  0  0  0  0  0  0
  -14.4695  -42.7290  -14.3502 C   0  0  0  0  0  0  0  0  0  0  0  0
  -13.7720  -42.3342  -15.6567 C   0  0  0  0  0  0  0  0  0  0  0  0
  -16.5304  -42.7855  -17.1617 H   0  0  0  0  0  0  0  0  0  0  0  0
  -15.1593  -39.1719  -17.2382 H   0  0  0  0  0  0  0  0  0  0  0  0
  -14.3962  -42.2607  -24.0425 H   0  0  0  0  0  0  0  0  0  0  0  0
  -13.7644  -43.7760  -23.2787 H   0  0  0  0  0  0  0  0  0  0  0  0
  -14.6438  -43.8159  -24.8128 H   0  0  0  0  0  0  0  0  0  0  0  0
  -14.6840  -40.8645  -19.7455 H   0  0  0  0  0  0  0  0  0  0  0  0
  -14.7032  -41.3749  -22.0694 H   0  0  0  0  0  0  0  0  0  0  0  0
  -17.0029  -44.3947  -18.8797 H   0  0  0  0  0  0  0  0  0  0  0  0
  -17.0433  -46.6670  -19.9254 H   0  0  0  0  0  0  0  0  0  0  0  0
  -19.1766  -46.6256  -23.9171 H   0  0  0  0  0  0  0  0  0  0  0  0
  -18.1842  -44.2598  -23.3834 H   0  0  0  0  0  0  0  0  0  0  0  0
  -12.1513  -43.5075  -20.1602 H   0  0  0  0  0  0  0  0  0  0  0  0
  -11.4627  -42.2457  -18.2420 H   0  0  0  0  0  0  0  0  0  0  0  0
  -12.9349  -41.3491  -18.4471 H   0  0  0  0  0  0  0  0  0  0  0  0
  -13.5988  -44.1523  -18.6308 H   0  0  0  0  0  0  0  0  0  0  0  0
  -12.4433  -43.9531  -17.3294 H   0  0  0  0  0  0  0  0  0  0  0  0
  -15.8978  -44.2103  -15.9861 H   0  0  0  0  0  0  0  0  0  0  0  0
  -15.0097  -45.1828  -17.1430 H   0  0  0  0  0  0  0  0  0  0  0  0
  -14.3981  -45.9687  -14.8914 H   0  0  0  0  0  0  0  0  0  0  0  0
  -13.0457  -44.9931  -15.3639 H   0  0  0  0  0  0  0  0  0  0  0  0
  -15.5434  -42.5153  -14.3946 H   0  0  0  0  0  0  0  0  0  0  0  0
  -14.0605  -42.1473  -13.5178 H   0  0  0  0  0  0  0  0  0  0  0  0
  -12.7104  -42.5966  -15.5494 H   0  0  0  0  0  0  0  0  0  0  0  0
  -13.7838  -41.2498  -15.7691 H   0  0  0  0  0  0  0  0  0  0  0  0
  3  6  1  0
  1  4  1  0
  2  4  2  0
  4  5  1  0
  7 12  1  0
  7  1  1  0
  7  8  2  0
  8  9  1  0
  9 10  2  0
 10 11  1  0
 10  3  1  0
 11 17  1  0
 11 12  2  0
 13 14  1  0
 13 17  2  0
 14 15  1  0
 15 16  2  0
 16 17  1  0
 19 18  1  0
 20 19  1  0
 21 20  1  0
 21 26  1  0
 21 22  1  0
 22 23  1  0
 23 24  1  0
 24 25  1  0
 25 26  1  0
  1 21  1  0
  1 27  1  1
  5 28  1  0
  6 29  1  0
  6 30  1  0
  6 31  1  0
  8 32  1  0
  9 33  1  0
 12 34  1  0
 13 35  1  0
 15 36  1  0
 16 37  1  0
 18 38  1  0
 19 39  1  0
 19 40  1  0
 20 41  1  0
 20 42  1  0
 22 43  1  0
 22 44  1  0
 23 45  1  0
 23 46  1  0
 25 47  1  0
 25 48  1  0
 26 49  1  0
 26 50  1  0
M  END
>  <smiles>  (534) 
[H]OC(=O)[C@@]([H])(c1c([H])c([H])c(OC([H])([H])[H])c(-c2c([H])sc([H])c2[H])c1[H])C1(C([H])([H])C([H])([H])O[H])C([H])([H])C([H])([H])OC([H])([H])C1([H])[H]

>  <error>  (534) 


>  <∆∆G>  (534) 
-214.647108

>  <∆G_bound>  (534) 
48.072866

>  <∆G_unbound>  (534) 
262.719974

>  <comRMSD>  (534) 
1.696517

>  <N_constrained_atoms>  (534) 
26.0

>  <N_unconstrained_atoms>  (534) 
0.0

>  <runtime>  (534) 
2.56259

>  <regarded>  (534) 
['5f41-a', 'z0052a']

>  <disregarded>  (534) 
[]

>  <LE>  (534) 
8.255658

>  <outcome>  (534) 
too moved

>  <percent_hybrid>  (534) 
35.0

$$$$
LIG
     RDKit          3D

  0  0  0  0  0  0  0  0  0  0999 V3000
M  V30 BEGIN CTAB
M  V30 COUNTS 49 51 0 0 0
M  V30 BEGIN ATOM
M  V30 1 C -15.154000 -44.255001 -17.416000 0
M  V30 2 O -16.554001 -43.896000 -15.527000 0
M  V30 3 O -15.585000 -43.813999 -23.108000 0
M  V30 4 C -16.204000 -43.490002 -16.656000 0
M  V30 5 O -16.681000 -42.466000 -17.171000 0
M  V30 6 C -14.587000 -43.144001 -23.884001 0
M  V30 7 C -15.310000 -44.111000 -18.923000 0
M  V30 8 C -14.379000 -43.345001 -19.639999 0
M  V30 9 C -14.469000 -43.220001 -21.028000 0
M  V30 10 C -15.494000 -43.893002 -21.738001 0
M  V30 11 C -16.476999 -44.716999 -20.985001 0
M  V30 12 C -16.334999 -44.803001 -19.589001 0
M  V30 13 C -17.966999 -46.752998 -21.256001 0
M  V30 14 S -19.193001 -47.266998 -22.365000 0
M  V30 15 C -19.150999 -45.908001 -23.417999 0
M  V30 16 C -18.208000 -45.053001 -22.860001 0
M  V30 17 C -17.552000 -45.487000 -21.687000 0
M  V30 18 N -13.266000 -42.196999 -21.974001 0
M  V30 19 C -12.944000 -41.021999 -21.833000 0
M  V30 20 C -11.629000 -40.624001 -21.225000 0
M  V30 21 N -13.726000 -40.034000 -22.247999 0
M  V30 22 C -13.348000 -39.222000 -23.382000 0
M  V30 23 C -12.966000 -37.907001 -22.924999 0
M  V30 24 N -11.741000 -37.458000 -22.879000 0
M  V30 25 C -11.837000 -36.210999 -22.299000 0
M  V30 26 C -13.101000 -35.942001 -22.018000 0
M  V30 27 N -13.818000 -37.035000 -22.421000 0
M  V30 28 N -13.867500 -42.708500 -21.500999 0
M  V30 29 H -14.162327 -43.877808 -17.125637 0
M  V30 30 H -15.268197 -45.320282 -17.166735 0
M  V30 31 H -17.372887 -41.946285 -16.690077 0
M  V30 32 H -13.864235 -42.658779 -23.211565 0
M  V30 33 H -14.064129 -43.874748 -24.518522 0
M  V30 34 H -15.065352 -42.383369 -24.518522 0
M  V30 35 H -13.566453 -42.835514 -19.101307 0
M  V30 36 H -17.036753 -45.421169 -19.009855 0
M  V30 37 H -17.589220 -47.310055 -20.385960 0
M  V30 38 H -19.741167 -45.750046 -24.332741 0
M  V30 39 H -17.981565 -44.076973 -23.313976 0
M  V30 40 H -11.709771 -40.648445 -20.128242 0
M  V30 41 H -10.847049 -41.325714 -21.550806 0
M  V30 42 H -11.367404 -39.606445 -21.550806 0
M  V30 43 H -14.611291 -39.843807 -21.757097 0
M  V30 44 H -12.499456 -39.690483 -23.902094 0
M  V30 45 H -14.199591 -39.137444 -24.073118 0
M  V30 46 H -10.988646 -35.539764 -22.099646 0
M  V30 47 H -13.495500 -35.025738 -21.554501 0
M  V30 48 H -12.897500 -41.738499 -20.531000 0
M  V30 49 H -14.838100 -37.155346 -22.344767 0
M  V30 END ATOM
M  V30 BEGIN BOND
M  V30 1 1 3 6
M  V30 2 1 1 4
M  V30 3 2 2 4
M  V30 4 1 4 5
M  V30 5 2 7 12
M  V30 6 1 7 1
M  V30 7 1 7 8
M  V30 8 2 8 9
M  V30 9 1 9 10
M  V30 10 2 10 11
M  V30 11 1 10 3
M  V30 12 1 11 17
M  V30 13 1 11 12
M  V30 14 1 13 14
M  V30 15 2 13 17
M  V30 16 1 14 15
M  V30 17 2 15 16
M  V30 18 1 16 17
M  V30 19 1 20 19
M  V30 20 2 19 18
M  V30 21 1 21 19
M  V30 22 1 22 21
M  V30 23 1 23 22
M  V30 24 2 23 24
M  V30 25 1 23 27
M  V30 26 1 24 25
M  V30 27 2 25 26
M  V30 28 1 26 27
M  V30 29 1 28 9
M  V30 30 1 28 18
M  V30 31 1 1 29
M  V30 32 1 1 30
M  V30 33 1 5 31
M  V30 34 1 6 32
M  V30 35 1 6 33
M  V30 36 1 6 34
M  V30 37 1 8 35
M  V30 38 1 12 36
M  V30 39 1 13 37
M  V30 40 1 15 38
M  V30 41 1 16 39
M  V30 42 1 20 40
M  V30 43 1 20 41
M  V30 44 1 20 42
M  V30 45 1 21 43
M  V30 46 1 22 44
M  V30 47 1 22 45
M  V30 48 1 25 46
M  V30 49 1 26 47
M  V30 50 1 28 48
M  V30 51 1 27 49
M  V30 END BOND
M  V30 BEGIN COLLECTION
M  V30 MDLV30/STEABS ATOMS=(0)
M  V30 END COLLECTION
M  V30 END CTAB
M  END
>  <smiles>  (535) 
[H]OC(=O)C([H])([H])c1c([H])c(-c2c([H])sc([H])c2[H])c(OC([H])([H])[H])c(N([H])/N=C(\N([H])C([H])([H])c2nc([H])c([H])[nH]2)C([H])([H])[H])c1[H]

>  <error>  (535) 


>  <∆∆G>  (535) 
nan

>  <∆G_bound>  (535) 
nan

>  <∆G_unbound>  (535) 
nan

>  <comRMSD>  (535) 
0.0

>  <N_constrained_atoms>  (535) 
27.0

>  <N_unconstrained_atoms>  (535) 
1.0

>  <runtime>  (535) 
1.555121

>  <regarded>  (535) 
['5f41-a', 'z0103a']

>  <disregarded>  (535) 
[]

>  <LE>  (535) 
nan

>  <outcome>  (535) 
crashed

>  <percent_hybrid>  (535) 
38.0

$$$$

     RDKit          2D

  0  0  0  0  0  0  0  0  0  0999 V2000
M  END
>  <smiles>  (536) 
nan

>  <error>  (536) 
DistanceError 5.98 Å

>  <∆∆G>  (536) 
nan

>  <∆G_bound>  (536) 
nan

>  <∆G_unbound>  (536) 
nan

>  <comRMSD>  (536) 
nan

>  <N_constrained_atoms>  (536) 
nan

>  <N_unconstrained_atoms>  (536) 
nan

>  <runtime>  (536) 
nan

>  <regarded>  (536) 
[]

>  <disregarded>  (536) 
[]

>  <LE>  (536) 
nan

>  <outcome>  (536) 
too distant

>  <percent_hybrid>  (536) 
nan

$$$$

     RDKit          2D

  0  0  0  0  0  0  0  0  0  0999 V2000
M  END
>  <smiles>  (537) 
nan

>  <error>  (537) 
RecursionError maximum recursion depth exceeded while calling a Python object

>  <∆∆G>  (537) 
nan

>  <∆G_bound>  (537) 
nan

>  <∆G_unbound>  (537) 
nan

>  <comRMSD>  (537) 
nan

>  <N_constrained_atoms>  (537) 
nan

>  <N_unconstrained_atoms>  (537) 
nan

>  <runtime>  (537) 
nan

>  <regarded>  (537) 
[]

>  <disregarded>  (537) 
[]

>  <LE>  (537) 
nan

>  <outcome>  (537) 
crashed

>  <percent_hybrid>  (537) 
nan

$$$$
LIG
     RDKit          3D

 41 43  0  0  0  0  0  0  0  0999 V2000
  -17.3632  -41.8025  -18.0827 C   0  0  0  0  0  0  0  0  0  0  0  0
  -18.8408  -43.6282  -17.4201 O   0  0  0  0  0  0  0  0  0  0  0  0
  -15.0692  -44.4017  -22.6092 O   0  0  0  0  0  0  0  0  0  0  0  0
  -18.1626  -42.6522  -17.1305 C   0  0  0  0  0  0  0  0  0  0  0  0
  -18.0894  -42.2187  -15.8544 O   0  0  0  0  0  0  0  0  0  0  0  0
  -15.0077  -43.4912  -23.7078 C   0  0  0  0  0  0  0  0  0  0  0  0
  -16.7360  -42.5674  -19.2286 C   0  0  0  0  0  0  0  0  0  0  0  0
  -15.4000  -42.3462  -19.5662 C   0  0  0  0  0  0  0  0  0  0  0  0
  -14.7908  -42.9925  -20.6653 C   0  0  0  0  0  0  0  0  0  0  0  0
  -15.5786  -43.8086  -21.4841 C   0  0  0  0  0  0  0  0  0  0  0  0
  -16.8880  -44.1084  -21.1019 C   0  0  0  0  0  0  0  0  0  0  0  0
  -17.4674  -43.4678  -20.0043 C   0  0  0  0  0  0  0  0  0  0  0  0
  -17.8151  -46.3652  -21.1618 C   0  0  0  0  0  0  0  0  0  0  0  0
  -18.6559  -47.4522  -22.1550 S   0  0  0  0  0  0  0  0  0  0  0  0
  -18.7698  -46.3037  -23.4190 C   0  0  0  0  0  0  0  0  0  0  0  0
  -18.2247  -45.0914  -23.0697 C   0  0  0  0  0  0  0  0  0  0  0  0
  -17.6433  -45.1402  -21.7728 C   0  0  0  0  0  0  0  0  0  0  0  0
  -12.6341  -43.2489  -19.5899 N   0  0  0  0  0  0  0  0  0  0  0  0
  -13.2964  -42.9161  -20.8554 C   0  0  0  0  0  0  0  0  0  0  0  0
  -12.9392  -41.4954  -21.2345 C   0  0  0  0  0  0  0  0  0  0  0  0
  -13.6135  -40.5674  -22.0068 C   0  0  0  0  0  0  0  0  0  0  0  0
  -12.8313  -39.4474  -22.0136 N   0  0  0  0  0  0  0  0  0  0  0  0
  -11.7172  -39.7136  -21.2757 C   0  0  0  0  0  0  0  0  0  0  0  0
  -11.7367  -40.9390  -20.8099 N   0  0  0  0  0  0  0  0  0  0  0  0
  -18.0206  -41.0233  -18.4840 H   0  0  0  0  0  0  0  0  0  0  0  0
  -16.5734  -41.3058  -17.5057 H   0  0  0  0  0  0  0  0  0  0  0  0
  -18.5496  -42.9202  -15.3186 H   0  0  0  0  0  0  0  0  0  0  0  0
  -15.5699  -42.5651  -23.5427 H   0  0  0  0  0  0  0  0  0  0  0  0
  -13.9635  -43.2605  -23.9250 H   0  0  0  0  0  0  0  0  0  0  0  0
  -15.4362  -43.9863  -24.5834 H   0  0  0  0  0  0  0  0  0  0  0  0
  -14.8083  -41.6687  -18.9520 H   0  0  0  0  0  0  0  0  0  0  0  0
  -18.5087  -43.6820  -19.7686 H   0  0  0  0  0  0  0  0  0  0  0  0
  -17.4679  -46.6798  -20.1870 H   0  0  0  0  0  0  0  0  0  0  0  0
  -19.2363  -46.5842  -24.3526 H   0  0  0  0  0  0  0  0  0  0  0  0
  -18.1955  -44.2328  -23.7271 H   0  0  0  0  0  0  0  0  0  0  0  0
  -14.5626  -40.6025  -22.5218 H   0  0  0  0  0  0  0  0  0  0  0  0
  -10.9311  -38.9862  -21.1183 H   0  0  0  0  0  0  0  0  0  0  0  0
  -11.6504  -43.0188  -19.7664 H   0  0  0  0  0  0  0  0  0  0  0  0
  -12.8685  -42.5295  -18.9122 H   0  0  0  0  0  0  0  0  0  0  0  0
  -12.9575  -43.6049  -21.6290 H   0  0  0  0  0  0  0  0  0  0  0  0
  -13.0446  -38.5718  -22.4695 H   0  0  0  0  0  0  0  0  0  0  0  0
  3  6  1  0
  1  4  1  0
  2  4  2  0
  4  5  1  0
  7 12  2  0
  7  1  1  0
  7  8  1  0
  8  9  2  0
  9 10  1  0
 10 11  2  0
 10  3  1  0
 11 17  1  0
 11 12  1  0
 13 14  1  0
 13 17  2  0
 14 15  1  0
 15 16  2  0
 16 17  1  0
 19 18  1  0
 20 19  1  0
 20 21  2  0
 20 24  1  0
 21 22  1  0
 22 23  1  0
 23 24  2  0
  9 19  1  0
  1 25  1  0
  1 26  1  0
  5 27  1  0
  6 28  1  0
  6 29  1  0
  6 30  1  0
  8 31  1  0
 12 32  1  0
 13 33  1  0
 15 34  1  0
 16 35  1  0
 21 36  1  0
 23 37  1  0
 18 38  1  0
 18 39  1  0
 19 40  1  0
 22 41  1  0
M  END
>  <smiles>  (538) 
[H]OC(=O)C([H])([H])c1c([H])c(-c2c([H])sc([H])c2[H])c(OC([H])([H])[H])c(C(N)c2nc([H])[nH]c2[H])c1[H]

>  <error>  (538) 


>  <∆∆G>  (538) 
-89.290841

>  <∆G_bound>  (538) 
-42.244537

>  <∆G_unbound>  (538) 
47.046304

>  <comRMSD>  (538) 
1.415217

>  <N_constrained_atoms>  (538) 
24.0

>  <N_unconstrained_atoms>  (538) 
0.0

>  <runtime>  (538) 
2.760251

>  <regarded>  (538) 
['5f41-a', 'z0875c']

>  <disregarded>  (538) 
[]

>  <LE>  (538) 
3.720452

>  <outcome>  (538) 
too moved

>  <percent_hybrid>  (538) 
30.0

$$$$
LIG
     RDKit          3D

 55 57  0  0  0  0  0  0  0  0999 V2000
  -15.2262  -43.9342  -17.5448 C   0  0  0  0  0  0  0  0  0  0  0  0
  -16.1660  -43.1326  -15.4666 N   0  0  0  0  0  0  0  0  0  0  0  0
  -15.5994  -43.6234  -23.1135 O   0  0  0  0  0  0  0  0  0  0  0  0
  -16.1561  -43.0496  -16.7468 C   0  0  0  0  0  0  0  0  0  0  0  0
  -16.9289  -42.2517  -17.4949 O   0  0  0  0  0  0  0  0  0  0  0  0
  -14.4819  -43.2320  -23.8913 C   0  0  0  0  0  0  0  0  0  0  0  0
  -13.5343  -42.2587  -18.8905 O   0  0  0  0  0  0  0  0  0  0  0  0
  -12.4603  -41.5963  -19.5460 C   0  0  0  0  0  0  0  0  0  0  0  0
  -19.4980  -46.2064  -24.5961 C   0  0  0  0  0  0  0  0  0  0  0  0
  -20.1535  -46.3374  -25.5951 C   0  0  0  0  0  0  0  0  0  0  0  0
  -20.9140  -46.5826  -26.8176 C   0  0  0  0  0  0  0  0  0  0  0  0
  -22.0058  -45.6796  -26.9151 O   0  0  0  0  0  0  0  0  0  0  0  0
  -14.5072  -44.7607  -16.9990 O   0  0  0  0  0  0  0  0  0  0  0  0
  -13.8364  -38.3565  -16.0973 O   0  0  0  0  0  0  0  0  0  0  0  0
  -17.0414  -42.0877  -14.4525 S   0  0  0  0  0  0  0  0  0  0  0  0
  -18.1479  -41.4723  -15.2782 O   0  0  0  0  0  0  0  0  0  0  0  0
  -14.5222  -38.3902  -17.3451 C   0  0  0  0  0  0  0  0  0  0  0  0
  -15.2616  -43.8374  -18.9984 C   0  0  0  0  0  0  0  0  0  0  0  0
  -14.3815  -42.9936  -19.6724 C   0  0  0  0  0  0  0  0  0  0  0  0
  -14.4697  -42.9271  -21.0634 C   0  0  0  0  0  0  0  0  0  0  0  0
  -15.4291  -43.6874  -21.7556 C   0  0  0  0  0  0  0  0  0  0  0  0
  -16.3118  -44.5324  -21.0501 C   0  0  0  0  0  0  0  0  0  0  0  0
  -16.2172  -44.6011  -19.6606 C   0  0  0  0  0  0  0  0  0  0  0  0
  -17.5668  -46.6514  -21.2869 C   0  0  0  0  0  0  0  0  0  0  0  0
  -18.6847  -47.4554  -22.2758 S   0  0  0  0  0  0  0  0  0  0  0  0
  -18.7635  -46.1479  -23.3713 C   0  0  0  0  0  0  0  0  0  0  0  0
  -18.0532  -45.0653  -22.9105 C   0  0  0  0  0  0  0  0  0  0  0  0
  -17.2991  -45.3694  -21.7279 C   0  0  0  0  0  0  0  0  0  0  0  0
  -13.5099  -39.2709  -13.9700 C   0  0  0  0  0  0  0  0  0  0  0  0
  -13.8507  -40.1306  -12.9225 C   0  0  0  0  0  0  0  0  0  0  0  0
  -14.9855  -40.9266  -13.0236 C   0  0  0  0  0  0  0  0  0  0  0  0
  -15.7825  -40.8315  -14.1629 C   0  0  0  0  0  0  0  0  0  0  0  0
  -15.4513  -39.9596  -15.2043 C   0  0  0  0  0  0  0  0  0  0  0  0
  -14.2991  -39.1918  -15.1203 C   0  0  0  0  0  0  0  0  0  0  0  0
  -17.5923  -41.8151  -16.9257 H   0  0  0  0  0  0  0  0  0  0  0  0
  -14.2784  -42.1638  -23.7738 H   0  0  0  0  0  0  0  0  0  0  0  0
  -13.6054  -43.8451  -23.6616 H   0  0  0  0  0  0  0  0  0  0  0  0
  -14.7491  -43.3953  -24.9357 H   0  0  0  0  0  0  0  0  0  0  0  0
  -11.7914  -41.1997  -18.7764 H   0  0  0  0  0  0  0  0  0  0  0  0
  -11.8836  -42.2857  -20.1702 H   0  0  0  0  0  0  0  0  0  0  0  0
  -12.8300  -40.7510  -20.1353 H   0  0  0  0  0  0  0  0  0  0  0  0
  -21.2827  -47.6102  -26.8821 H   0  0  0  0  0  0  0  0  0  0  0  0
  -20.2680  -46.3996  -27.6737 H   0  0  0  0  0  0  0  0  0  0  0  0
  -22.7758  -46.1428  -26.5182 H   0  0  0  0  0  0  0  0  0  0  0  0
  -15.5441  -38.0107  -17.2425 H   0  0  0  0  0  0  0  0  0  0  0  0
  -13.9904  -37.7271  -18.0343 H   0  0  0  0  0  0  0  0  0  0  0  0
  -14.5114  -39.3959  -17.7791 H   0  0  0  0  0  0  0  0  0  0  0  0
  -13.8116  -42.2665  -21.6133 H   0  0  0  0  0  0  0  0  0  0  0  0
  -16.8918  -45.2286  -19.0846 H   0  0  0  0  0  0  0  0  0  0  0  0
  -17.1456  -47.1840  -20.4454 H   0  0  0  0  0  0  0  0  0  0  0  0
  -18.0076  -44.1223  -23.4412 H   0  0  0  0  0  0  0  0  0  0  0  0
  -12.6077  -38.6677  -13.8968 H   0  0  0  0  0  0  0  0  0  0  0  0
  -13.2127  -40.1948  -12.0448 H   0  0  0  0  0  0  0  0  0  0  0  0
  -15.2138  -41.6409  -12.2372 H   0  0  0  0  0  0  0  0  0  0  0  0
  -16.0764  -39.9358  -16.0889 H   0  0  0  0  0  0  0  0  0  0  0  0
  3  6  1  0
  1  4  1  0
  2  4  2  0
  4  5  1  0
  7  8  1  0
 11 12  1  0
 11 10  1  0
 10  9  3  0
 13  1  2  0
 16 15  2  0
 17 14  1  0
 15  2  1  0
 18 23  1  0
 18  1  1  0
 18 19  2  0
 19 20  1  0
 20 21  2  0
 21 22  1  0
 21  3  1  0
 22 28  1  0
 22 23  2  0
 24 25  1  0
 24 28  2  0
 25 26  1  0
 26 27  2  0
 27 28  1  0
 29 34  2  0
 29 30  1  0
 30 31  2  0
 31 32  1  0
 32 15  1  0
 32 33  2  0
 33 34  1  0
 34 14  1  0
  7 19  1  0
  9 26  1  0
  5 35  1  0
  6 36  1  0
  6 37  1  0
  6 38  1  0
  8 39  1  0
  8 40  1  0
  8 41  1  0
 11 42  1  0
 11 43  1  0
 12 44  1  0
 17 45  1  0
 17 46  1  0
 17 47  1  0
 20 48  1  0
 23 49  1  0
 24 50  1  0
 27 51  1  0
 29 52  1  0
 30 53  1  0
 31 54  1  0
 33 55  1  0
M  END
>  <smiles>  (539) 
[H]O/C(=N\S(=O)c1c([H])c([H])c([H])c(OC([H])([H])[H])c1[H])C(=O)c1c([H])c(-c2c([H])sc(C#CC([H])([H])O[H])c2[H])c(OC([H])([H])[H])c([H])c1OC([H])([H])[H]

>  <error>  (539) 


>  <∆∆G>  (539) 
-57.931988

>  <∆G_bound>  (539) 
53.956782

>  <∆G_unbound>  (539) 
111.88877

>  <comRMSD>  (539) 
0.636077

>  <N_constrained_atoms>  (539) 
34.0

>  <N_unconstrained_atoms>  (539) 
0.0

>  <runtime>  (539) 
1.863079

>  <regarded>  (539) 
['5f41-a', '5i3p-a']

>  <disregarded>  (539) 
[]

>  <LE>  (539) 
1.703882

>  <outcome>  (539) 
acceptable

>  <percent_hybrid>  (539) 
50.0

$$$$
LIG
     RDKit          3D

 36 37  0  0  0  0  0  0  0  0999 V2000
  -15.5548  -43.3250  -16.9511 C   0  0  0  0  0  0  0  0  0  0  0  0
  -16.6293  -41.5973  -15.6289 O   0  0  0  0  0  0  0  0  0  0  0  0
  -15.0415  -44.0682  -22.5928 O   0  0  0  0  0  0  0  0  0  0  0  0
  -16.7085  -42.4978  -16.4499 C   0  0  0  0  0  0  0  0  0  0  0  0
  -17.9162  -42.8861  -16.9188 O   0  0  0  0  0  0  0  0  0  0  0  0
  -15.2321  -42.9333  -23.4345 C   0  0  0  0  0  0  0  0  0  0  0  0
  -12.0962  -40.3060  -21.6758 O   0  0  0  0  0  0  0  0  0  0  0  0
  -14.3109  -40.2985  -21.4701 O   0  0  0  0  0  0  0  0  0  0  0  0
  -13.2671  -40.9299  -21.4286 C   0  0  0  0  0  0  0  0  0  0  0  0
  -13.0813  -42.3974  -21.1362 C   0  0  0  0  0  0  0  0  0  0  0  0
  -17.3848  -44.9568  -18.4880 O   0  0  0  0  0  0  0  0  0  0  0  0
  -15.4859  -43.5185  -18.4471 C   0  0  0  0  0  0  0  0  0  0  0  0
  -14.4538  -42.8872  -19.1405 C   0  0  0  0  0  0  0  0  0  0  0  0
  -14.2910  -43.0459  -20.5236 C   0  0  0  0  0  0  0  0  0  0  0  0
  -15.2149  -43.8159  -21.2501 C   0  0  0  0  0  0  0  0  0  0  0  0
  -16.2592  -44.4818  -20.5720 C   0  0  0  0  0  0  0  0  0  0  0  0
  -16.3731  -44.3260  -19.1735 C   0  0  0  0  0  0  0  0  0  0  0  0
  -17.4845  -46.6034  -20.9800 C   0  0  0  0  0  0  0  0  0  0  0  0
  -18.5878  -47.3367  -22.0486 S   0  0  0  0  0  0  0  0  0  0  0  0
  -18.6562  -45.9447  -23.0343 C   0  0  0  0  0  0  0  0  0  0  0  0
  -17.9328  -44.9073  -22.5006 C   0  0  0  0  0  0  0  0  0  0  0  0
  -17.2143  -45.2944  -21.3234 C   0  0  0  0  0  0  0  0  0  0  0  0
  -14.6400  -42.8274  -16.6028 H   0  0  0  0  0  0  0  0  0  0  0  0
  -15.5538  -44.2966  -16.4548 H   0  0  0  0  0  0  0  0  0  0  0  0
  -18.5308  -42.4127  -16.3070 H   0  0  0  0  0  0  0  0  0  0  0  0
  -15.8578  -42.1623  -22.9714 H   0  0  0  0  0  0  0  0  0  0  0  0
  -14.2698  -42.5135  -23.7323 H   0  0  0  0  0  0  0  0  0  0  0  0
  -15.7351  -43.2743  -24.3449 H   0  0  0  0  0  0  0  0  0  0  0  0
  -12.3375  -39.3645  -21.7981 H   0  0  0  0  0  0  0  0  0  0  0  0
  -12.8314  -42.9299  -22.0464 H   0  0  0  0  0  0  0  0  0  0  0  0
  -12.2300  -42.5098  -20.4535 H   0  0  0  0  0  0  0  0  0  0  0  0
  -17.8629  -44.2278  -18.0341 H   0  0  0  0  0  0  0  0  0  0  0  0
  -13.7353  -42.2736  -18.5952 H   0  0  0  0  0  0  0  0  0  0  0  0
  -17.0844  -47.1716  -20.1517 H   0  0  0  0  0  0  0  0  0  0  0  0
  -19.2324  -45.9472  -23.9474 H   0  0  0  0  0  0  0  0  0  0  0  0
  -17.8767  -43.9295  -22.9591 H   0  0  0  0  0  0  0  0  0  0  0  0
  3  6  1  0
  1  4  1  0
  2  4  2  0
  4  5  1  0
 10  9  1  0
  8  9  2  0
  9  7  1  0
 12 17  2  0
 12  1  1  0
 12 13  1  0
 13 14  2  0
 14 15  1  0
 15 16  2  0
 15  3  1  0
 16 22  1  0
 16 17  1  0
 18 19  1  0
 18 22  2  0
 19 20  1  0
 20 21  2  0
 21 22  1  0
 10 14  1  0
 11 17  1  0
  1 23  1  0
  1 24  1  0
  5 25  1  0
  6 26  1  0
  6 27  1  0
  6 28  1  0
  7 29  1  0
 10 30  1  0
 10 31  1  0
 11 32  1  0
 13 33  1  0
 18 34  1  0
 20 35  1  0
 21 36  1  0
M  END
>  <smiles>  (540) 
[H]OC(=O)C([H])([H])c1c([H])c(C([H])([H])C(=O)O[H])c(OC([H])([H])[H])c(-c2c([H])sc([H])c2[H])c1O[H]

>  <error>  (540) 


>  <∆∆G>  (540) 
-113.708218

>  <∆G_bound>  (540) 
-36.437628

>  <∆G_unbound>  (540) 
77.270591

>  <comRMSD>  (540) 
0.900446

>  <N_constrained_atoms>  (540) 
22.0

>  <N_unconstrained_atoms>  (540) 
0.0

>  <runtime>  (540) 
2.001504

>  <regarded>  (540) 
['5f41-a', '5hn0-a']

>  <disregarded>  (540) 
[]

>  <LE>  (540) 
5.168555

>  <outcome>  (540) 
acceptable

>  <percent_hybrid>  (540) 
23.0

$$$$
LIG
     RDKit          3D

 29 30  0  0  0  0  0  0  0  0999 V2000
  -15.2545  -42.6196  -17.5888 C   0  0  0  0  0  0  0  0  0  0  0  0
  -14.6131  -44.7704  -16.6113 O   0  0  0  0  0  0  0  0  0  0  0  0
  -15.2057  -44.2241  -23.0321 O   0  0  0  0  0  0  0  0  0  0  0  0
  -15.0894  -43.6505  -16.5083 C   0  0  0  0  0  0  0  0  0  0  0  0
  -15.5554  -43.1892  -15.3287 O   0  0  0  0  0  0  0  0  0  0  0  0
  -14.4811  -43.4030  -23.9337 C   0  0  0  0  0  0  0  0  0  0  0  0
  -15.1746  -43.1683  -18.9918 C   0  0  0  0  0  0  0  0  0  0  0  0
  -14.0665  -42.8677  -19.7910 C   0  0  0  0  0  0  0  0  0  0  0  0
  -14.0412  -43.2343  -21.1361 C   0  0  0  0  0  0  0  0  0  0  0  0
  -15.1238  -43.9031  -21.7032 C   0  0  0  0  0  0  0  0  0  0  0  0
  -16.1904  -44.3152  -20.8830 C   0  0  0  0  0  0  0  0  0  0  0  0
  -16.2185  -43.9347  -19.5336 C   0  0  0  0  0  0  0  0  0  0  0  0
  -17.5257  -46.3942  -20.9175 C   0  0  0  0  0  0  0  0  0  0  0  0
  -18.6074  -47.2721  -21.8973 S   0  0  0  0  0  0  0  0  0  0  0  0
  -18.6882  -46.0130  -23.0477 C   0  0  0  0  0  0  0  0  0  0  0  0
  -17.9742  -44.9103  -22.6511 C   0  0  0  0  0  0  0  0  0  0  0  0
  -17.2496  -45.1469  -21.4399 C   0  0  0  0  0  0  0  0  0  0  0  0
  -16.2332  -42.1373  -17.4719 H   0  0  0  0  0  0  0  0  0  0  0  0
  -14.4908  -41.8485  -17.4337 H   0  0  0  0  0  0  0  0  0  0  0  0
  -15.6241  -43.9680  -14.7380 H   0  0  0  0  0  0  0  0  0  0  0  0
  -14.4690  -42.3490  -23.6363 H   0  0  0  0  0  0  0  0  0  0  0  0
  -13.4714  -43.8001  -24.0547 H   0  0  0  0  0  0  0  0  0  0  0  0
  -14.9875  -43.4570  -24.9008 H   0  0  0  0  0  0  0  0  0  0  0  0
  -13.2156  -42.3231  -19.3849 H   0  0  0  0  0  0  0  0  0  0  0  0
  -13.1568  -43.0000  -21.7201 H   0  0  0  0  0  0  0  0  0  0  0  0
  -17.0730  -44.2018  -18.9164 H   0  0  0  0  0  0  0  0  0  0  0  0
  -17.1024  -46.8621  -20.0394 H   0  0  0  0  0  0  0  0  0  0  0  0
  -19.2431  -46.1441  -23.9649 H   0  0  0  0  0  0  0  0  0  0  0  0
  -17.8839  -44.0136  -23.2513 H   0  0  0  0  0  0  0  0  0  0  0  0
  3  6  1  0
  1  4  1  0
  2  4  2  0
  4  5  1  0
  7 12  2  0
  7  1  1  0
  7  8  1  0
  8  9  2  0
  9 10  1  0
 10 11  2  0
 10  3  1  0
 11 17  1  0
 11 12  1  0
 13 14  1  0
 13 17  2  0
 14 15  1  0
 15 16  2  0
 16 17  1  0
  1 18  1  0
  1 19  1  0
  5 20  1  0
  6 21  1  0
  6 22  1  0
  6 23  1  0
  8 24  1  0
  9 25  1  0
 12 26  1  0
 13 27  1  0
 15 28  1  0
 16 29  1  0
M  END
>  <smiles>  (541) 
[H]OC(=O)C([H])([H])c1c([H])c([H])c(OC([H])([H])[H])c(-c2c([H])sc([H])c2[H])c1[H]

>  <error>  (541) 


>  <∆∆G>  (541) 
-40.859414

>  <∆G_bound>  (541) 
-63.746682

>  <∆G_unbound>  (541) 
-22.887268

>  <comRMSD>  (541) 
1.075424

>  <N_constrained_atoms>  (541) 
17.0

>  <N_unconstrained_atoms>  (541) 
0.0

>  <runtime>  (541) 
1.42557

>  <regarded>  (541) 
['5f41-a', '6h80-a']

>  <disregarded>  (541) 
[]

>  <LE>  (541) 
2.403495

>  <outcome>  (541) 
equally sized

>  <percent_hybrid>  (541) 
0.0

$$$$
LIG
     RDKit          3D

 41 42  0  0  0  0  0  0  0  0999 V2000
  -15.1180  -43.6945  -17.2815 C   0  0  0  0  0  0  0  0  0  0  0  0
  -15.8332  -42.1993  -15.5128 O   0  0  0  0  0  0  0  0  0  0  0  0
  -15.7353  -43.0728  -22.9000 O   0  0  0  0  0  0  0  0  0  0  0  0
  -16.1124  -42.9157  -16.4618 C   0  0  0  0  0  0  0  0  0  0  0  0
  -17.3943  -43.1500  -16.8041 O   0  0  0  0  0  0  0  0  0  0  0  0
  -14.6523  -43.6093  -23.6540 C   0  0  0  0  0  0  0  0  0  0  0  0
  -14.0143  -41.2225  -21.4919 C   0  0  0  0  0  0  0  0  0  0  0  0
  -16.0264  -39.9997  -22.1990 O   0  0  0  0  0  0  0  0  0  0  0  0
  -14.1442  -39.7920  -23.3762 O   0  0  0  0  0  0  0  0  0  0  0  0
  -14.8598  -40.3189  -22.3564 C   0  0  0  0  0  0  0  0  0  0  0  0
  -19.4096  -46.1044  -24.4720 C   0  0  0  0  0  0  0  0  0  0  0  0
  -20.0551  -46.2888  -25.4707 C   0  0  0  0  0  0  0  0  0  0  0  0
  -20.8067  -46.6013  -26.6889 C   0  0  0  0  0  0  0  0  0  0  0  0
  -21.9522  -45.7699  -26.7898 O   0  0  0  0  0  0  0  0  0  0  0  0
  -15.2784  -43.5586  -18.7741 C   0  0  0  0  0  0  0  0  0  0  0  0
  -14.5872  -42.5549  -19.4550 C   0  0  0  0  0  0  0  0  0  0  0  0
  -14.7520  -42.3667  -20.8345 C   0  0  0  0  0  0  0  0  0  0  0  0
  -15.5756  -43.2582  -21.5500 C   0  0  0  0  0  0  0  0  0  0  0  0
  -16.3087  -44.2644  -20.8867 C   0  0  0  0  0  0  0  0  0  0  0  0
  -16.1473  -44.3913  -19.4929 C   0  0  0  0  0  0  0  0  0  0  0  0
  -17.4734  -46.4526  -21.1515 C   0  0  0  0  0  0  0  0  0  0  0  0
  -18.5789  -47.2953  -22.1302 S   0  0  0  0  0  0  0  0  0  0  0  0
  -18.6779  -46.0062  -23.2456 C   0  0  0  0  0  0  0  0  0  0  0  0
  -17.9821  -44.9059  -22.7985 C   0  0  0  0  0  0  0  0  0  0  0  0
  -17.2332  -45.1644  -21.5949 C   0  0  0  0  0  0  0  0  0  0  0  0
  -14.1114  -43.3653  -16.9941 H   0  0  0  0  0  0  0  0  0  0  0  0
  -15.1805  -44.7485  -16.9910 H   0  0  0  0  0  0  0  0  0  0  0  0
  -17.9159  -42.7824  -16.0526 H   0  0  0  0  0  0  0  0  0  0  0  0
  -14.0959  -42.7876  -24.1094 H   0  0  0  0  0  0  0  0  0  0  0  0
  -13.9765  -44.2451  -23.0714 H   0  0  0  0  0  0  0  0  0  0  0  0
  -15.0901  -44.1963  -24.4616 H   0  0  0  0  0  0  0  0  0  0  0  0
  -13.2023  -41.6483  -22.0835 H   0  0  0  0  0  0  0  0  0  0  0  0
  -13.5497  -40.5757  -20.7376 H   0  0  0  0  0  0  0  0  0  0  0  0
  -14.8048  -39.3088  -23.9173 H   0  0  0  0  0  0  0  0  0  0  0  0
  -21.1119  -47.6501  -26.7352 H   0  0  0  0  0  0  0  0  0  0  0  0
  -20.1864  -46.4029  -27.5614 H   0  0  0  0  0  0  0  0  0  0  0  0
  -22.7064  -46.2782  -26.4213 H   0  0  0  0  0  0  0  0  0  0  0  0
  -13.9295  -41.8875  -18.8982 H   0  0  0  0  0  0  0  0  0  0  0  0
  -16.7291  -45.1260  -18.9419 H   0  0  0  0  0  0  0  0  0  0  0  0
  -17.0559  -46.9653  -20.2970 H   0  0  0  0  0  0  0  0  0  0  0  0
  -17.9658  -43.9664  -23.3375 H   0  0  0  0  0  0  0  0  0  0  0  0
  3  6  1  0
  1  4  1  0
  2  4  2  0
  4  5  1  0
  7 10  1  0
  8 10  2  0
 10  9  1  0
 14 13  1  0
 13 12  1  0
 12 11  3  0
 15 20  2  0
 15  1  1  0
 15 16  1  0
 16 17  2  0
 17 18  1  0
 18 19  2  0
 18  3  1  0
 19 25  1  0
 19 20  1  0
 21 22  1  0
 21 25  2  0
 22 23  1  0
 23 24  2  0
 24 25  1  0
  7 17  1  0
 11 23  1  0
  1 26  1  0
  1 27  1  0
  5 28  1  0
  6 29  1  0
  6 30  1  0
  6 31  1  0
  7 32  1  0
  7 33  1  0
  9 34  1  0
 13 35  1  0
 13 36  1  0
 14 37  1  0
 16 38  1  0
 20 39  1  0
 21 40  1  0
 24 41  1  0
M  END
>  <smiles>  (542) 
[H]OC(=O)C([H])([H])c1c([H])c(-c2c([H])sc(C#CC([H])([H])O[H])c2[H])c(OC([H])([H])[H])c(C([H])([H])C(=O)O[H])c1[H]

>  <error>  (542) 


>  <∆∆G>  (542) 
-160.838968

>  <∆G_bound>  (542) 
-12.929465

>  <∆G_unbound>  (542) 
147.909503

>  <comRMSD>  (542) 
1.040551

>  <N_constrained_atoms>  (542) 
25.0

>  <N_unconstrained_atoms>  (542) 
0.0

>  <runtime>  (542) 
2.497022

>  <regarded>  (542) 
['5f41-a', '5hmy-a']

>  <disregarded>  (542) 
[]

>  <LE>  (542) 
6.433559

>  <outcome>  (542) 
too moved

>  <percent_hybrid>  (542) 
32.0

$$$$
LIG
     RDKit          3D

 41 43  0  0  0  0  0  0  0  0999 V2000
  -15.6830  -46.6783  -18.7200 C   0  0  0  0  0  0  0  0  0  0  0  0
  -15.3789  -47.7694  -16.5761 O   0  0  0  0  0  0  0  0  0  0  0  0
  -15.2952  -46.7737  -17.2748 C   0  0  0  0  0  0  0  0  0  0  0  0
  -14.7687  -45.6394  -16.7705 O   0  0  0  0  0  0  0  0  0  0  0  0
  -16.1174  -45.2857  -19.2147 C   0  0  1  0  0  0  0  0  0  0  0  0
  -14.9578  -44.3333  -19.5356 C   0  0  0  0  0  0  0  0  0  0  0  0
  -15.4839  -43.0405  -20.1666 C   0  0  0  0  0  0  0  0  0  0  0  0
  -16.2510  -43.2554  -21.5146 C   0  0  2  0  0  0  0  0  0  0  0  0
  -17.4437  -44.2534  -21.1796 C   0  0  2  0  0  0  0  0  0  0  0  0
  -16.9365  -45.5263  -20.4777 C   0  0  0  0  0  0  0  0  0  0  0  0
  -18.3495  -45.8830  -22.9858 C   0  0  0  0  0  0  0  0  0  0  0  0
  -19.2575  -45.8874  -24.4335 S   0  0  0  0  0  0  0  0  0  0  0  0
  -19.8337  -44.3205  -24.1311 C   0  0  0  0  0  0  0  0  0  0  0  0
  -19.2891  -43.7855  -22.9872 C   0  0  0  0  0  0  0  0  0  0  0  0
  -18.3258  -44.6461  -22.3657 C   0  0  0  0  0  0  0  0  0  0  0  0
  -15.3589  -43.8274  -22.5445 N   0  0  0  0  0  0  0  0  0  0  0  0
  -14.1124  -43.0950  -22.8034 C   0  0  0  0  0  0  0  0  0  0  0  0
  -14.6760  -42.5644  -24.1215 C   0  0  0  0  0  0  0  0  0  0  0  0
  -16.9454  -41.5987  -21.9436 S   0  0  0  0  0  0  0  0  0  0  0  0
  -15.7670  -43.6141  -23.9504 C   0  0  0  0  0  0  0  0  0  0  0  0
  -14.8766  -47.0742  -19.3426 H   0  0  0  0  0  0  0  0  0  0  0  0
  -16.5269  -47.3708  -18.8254 H   0  0  0  0  0  0  0  0  0  0  0  0
  -14.4767  -45.8798  -15.8632 H   0  0  0  0  0  0  0  0  0  0  0  0
  -16.7623  -44.8159  -18.4609 H   0  0  0  0  0  0  0  0  0  0  0  0
  -14.4138  -44.0707  -18.6234 H   0  0  0  0  0  0  0  0  0  0  0  0
  -14.2342  -44.8140  -20.2028 H   0  0  0  0  0  0  0  0  0  0  0  0
  -16.1579  -42.5727  -19.4329 H   0  0  0  0  0  0  0  0  0  0  0  0
  -14.6485  -42.3393  -20.2672 H   0  0  0  0  0  0  0  0  0  0  0  0
  -18.1100  -43.7542  -20.4579 H   0  0  0  0  0  0  0  0  0  0  0  0
  -16.3229  -46.1144  -21.1748 H   0  0  0  0  0  0  0  0  0  0  0  0
  -17.8016  -46.1544  -20.2203 H   0  0  0  0  0  0  0  0  0  0  0  0
  -17.8120  -46.7776  -22.7147 H   0  0  0  0  0  0  0  0  0  0  0  0
  -20.5417  -43.8598  -24.8045 H   0  0  0  0  0  0  0  0  0  0  0  0
  -19.5309  -42.7868  -22.6453 H   0  0  0  0  0  0  0  0  0  0  0  0
  -16.7747  -43.2593  -24.1724 H   0  0  0  0  0  0  0  0  0  0  0  0
  -15.5969  -44.4904  -24.5722 H   0  0  0  0  0  0  0  0  0  0  0  0
  -13.2767  -43.7913  -22.9335 H   0  0  0  0  0  0  0  0  0  0  0  0
  -13.7917  -42.3152  -22.1105 H   0  0  0  0  0  0  0  0  0  0  0  0
  -15.0140  -41.5246  -24.0971 H   0  0  0  0  0  0  0  0  0  0  0  0
  -14.0253  -42.6911  -24.9845 H   0  0  0  0  0  0  0  0  0  0  0  0
  -15.7797  -40.9392  -21.9251 H   0  0  0  0  0  0  0  0  0  0  0  0
  1  3  1  0
  2  3  2  0
  3  4  1  0
  5 10  1  0
  5  1  1  0
  5  6  1  0
  6  7  1  0
  7  8  1  0
  8  9  1  0
  9 15  1  0
  9 10  1  0
 11 12  1  0
 11 15  2  0
 12 13  1  0
 13 14  2  0
 14 15  1  0
 16 17  1  0
 17 18  1  0
  8 16  1  0
  8 19  1  1
 16 20  1  0
  1 21  1  0
  1 22  1  0
  4 23  1  0
  5 24  1  1
  6 25  1  0
  6 26  1  0
  7 27  1  0
  7 28  1  0
  9 29  1  1
 10 30  1  0
 10 31  1  0
 11 32  1  0
 13 33  1  0
 14 34  1  0
 20 35  1  0
 20 36  1  0
 18 20  1  0
 17 37  1  0
 17 38  1  0
 18 39  1  0
 18 40  1  0
 19 41  1  0
M  END
>  <smiles>  (543) 
[H]OC(=O)C([H])([H])[C@@]1([H])C([H])([H])C([H])([H])[C@](S[H])(N2C([H])([H])C([H])([H])C2([H])[H])[C@@]([H])(c2c([H])sc([H])c2[H])C1([H])[H]

>  <error>  (543) 


>  <∆∆G>  (543) 
-102.492531

>  <∆G_bound>  (543) 
-41.335048

>  <∆G_unbound>  (543) 
61.157483

>  <comRMSD>  (543) 
2.16035

>  <N_constrained_atoms>  (543) 
20.0

>  <N_unconstrained_atoms>  (543) 
0.0

>  <runtime>  (543) 
2.144256

>  <regarded>  (543) 
['5f41-a', '6izx-a']

>  <disregarded>  (543) 
[]

>  <LE>  (543) 
5.124627

>  <outcome>  (543) 
too moved

>  <percent_hybrid>  (543) 
20.0

$$$$

     RDKit          2D

  0  0  0  0  0  0  0  0  0  0999 V2000
M  END
>  <smiles>  (544) 
nan

>  <error>  (544) 
FragmensteinError Ideal compound failed. Something is wrong with the SMILES

>  <∆∆G>  (544) 
nan

>  <∆G_bound>  (544) 
nan

>  <∆G_unbound>  (544) 
nan

>  <comRMSD>  (544) 
nan

>  <N_constrained_atoms>  (544) 
nan

>  <N_unconstrained_atoms>  (544) 
nan

>  <runtime>  (544) 
nan

>  <regarded>  (544) 
[]

>  <disregarded>  (544) 
[]

>  <LE>  (544) 
nan

>  <outcome>  (544) 
crashed

>  <percent_hybrid>  (544) 
nan

$$$$
LIG
     RDKit          3D

 35 36  0  0  0  0  0  0  0  0999 V2000
  -16.2702  -42.8784  -17.1964 C   0  0  0  0  0  0  0  0  0  0  0  0
  -17.6014  -40.8829  -16.7850 O   0  0  0  0  0  0  0  0  0  0  0  0
  -14.9774  -44.1067  -22.6149 O   0  0  0  0  0  0  0  0  0  0  0  0
  -17.5338  -42.0682  -17.0703 C   0  0  0  0  0  0  0  0  0  0  0  0
  -18.6575  -42.7831  -17.2920 O   0  0  0  0  0  0  0  0  0  0  0  0
  -15.1667  -43.0275  -23.5283 C   0  0  0  0  0  0  0  0  0  0  0  0
  -13.1421  -42.3968  -21.0626 C   0  0  0  0  0  0  0  0  0  0  0  0
  -12.0850  -40.3290  -21.5835 O   0  0  0  0  0  0  0  0  0  0  0  0
  -13.2782  -40.9487  -21.4600 C   0  0  0  0  0  0  0  0  0  0  0  0
  -14.3013  -40.3229  -21.6871 O   0  0  0  0  0  0  0  0  0  0  0  0
  -15.9075  -43.2451  -18.6134 C   0  0  0  0  0  0  0  0  0  0  0  0
  -14.7563  -42.7158  -19.1981 C   0  0  0  0  0  0  0  0  0  0  0  0
  -14.4230  -42.9864  -20.5364 C   0  0  0  0  0  0  0  0  0  0  0  0
  -15.2799  -43.7808  -21.3152 C   0  0  0  0  0  0  0  0  0  0  0  0
  -16.4085  -44.3694  -20.7203 C   0  0  0  0  0  0  0  0  0  0  0  0
  -16.7114  -44.0978  -19.3761 C   0  0  0  0  0  0  0  0  0  0  0  0
  -17.5601  -46.5302  -21.0292 C   0  0  0  0  0  0  0  0  0  0  0  0
  -18.6088  -47.3601  -22.0792 S   0  0  0  0  0  0  0  0  0  0  0  0
  -18.6680  -46.0415  -23.1638 C   0  0  0  0  0  0  0  0  0  0  0  0
  -17.9644  -44.9596  -22.6943 C   0  0  0  0  0  0  0  0  0  0  0  0
  -17.2926  -45.2492  -21.4675 C   0  0  0  0  0  0  0  0  0  0  0  0
  -15.4642  -42.2955  -16.7328 H   0  0  0  0  0  0  0  0  0  0  0  0
  -16.3557  -43.7791  -16.5880 H   0  0  0  0  0  0  0  0  0  0  0  0
  -19.3746  -42.1445  -17.0879 H   0  0  0  0  0  0  0  0  0  0  0  0
  -15.8934  -42.2895  -23.1700 H   0  0  0  0  0  0  0  0  0  0  0  0
  -14.2138  -42.5420  -23.7437 H   0  0  0  0  0  0  0  0  0  0  0  0
  -15.5439  -43.4464  -24.4665 H   0  0  0  0  0  0  0  0  0  0  0  0
  -12.8079  -42.9759  -21.9185 H   0  0  0  0  0  0  0  0  0  0  0  0
  -12.3665  -42.4802  -20.2916 H   0  0  0  0  0  0  0  0  0  0  0  0
  -12.3347  -39.4156  -21.8325 H   0  0  0  0  0  0  0  0  0  0  0  0
  -14.1060  -42.0670  -18.6109 H   0  0  0  0  0  0  0  0  0  0  0  0
  -17.6101  -44.5261  -18.9350 H   0  0  0  0  0  0  0  0  0  0  0  0
  -17.1829  -47.0300  -20.1479 H   0  0  0  0  0  0  0  0  0  0  0  0
  -19.2213  -46.1223  -24.0880 H   0  0  0  0  0  0  0  0  0  0  0  0
  -17.8996  -44.0182  -23.2234 H   0  0  0  0  0  0  0  0  0  0  0  0
  3  6  1  0
  1  4  1  0
  2  4  2  0
  4  5  1  0
  7  9  1  0
 10  9  2  0
  9  8  1  0
 11 16  2  0
 11  1  1  0
 11 12  1  0
 12 13  2  0
 13 14  1  0
 14 15  2  0
 14  3  1  0
 15 21  1  0
 15 16  1  0
 17 18  1  0
 17 21  2  0
 18 19  1  0
 19 20  2  0
 20 21  1  0
  7 13  1  0
  1 22  1  0
  1 23  1  0
  5 24  1  0
  6 25  1  0
  6 26  1  0
  6 27  1  0
  7 28  1  0
  7 29  1  0
  8 30  1  0
 12 31  1  0
 16 32  1  0
 17 33  1  0
 19 34  1  0
 20 35  1  0
M  END
>  <smiles>  (545) 
[H]OC(=O)C([H])([H])c1c([H])c(-c2c([H])sc([H])c2[H])c(OC([H])([H])[H])c(C([H])([H])C(=O)O[H])c1[H]

>  <error>  (545) 


>  <∆∆G>  (545) 
-161.181713

>  <∆G_bound>  (545) 
-64.841962

>  <∆G_unbound>  (545) 
96.339751

>  <comRMSD>  (545) 
1.26233

>  <N_constrained_atoms>  (545) 
21.0

>  <N_unconstrained_atoms>  (545) 
0.0

>  <runtime>  (545) 
1.610856

>  <regarded>  (545) 
['5f41-a', '5hmx-b']

>  <disregarded>  (545) 
[]

>  <LE>  (545) 
7.67532

>  <outcome>  (545) 
too moved

>  <percent_hybrid>  (545) 
20.0

$$$$
LIG
     RDKit          3D

 58 60  0  0  0  0  0  0  0  0999 V2000
  -15.1118  -43.7742  -17.2868 C   0  0  0  0  0  0  0  0  0  0  0  0
  -15.8810  -42.5628  -15.1010 C   0  0  0  0  0  0  0  0  0  0  0  0
  -15.4555  -43.7672  -22.9166 O   0  0  0  0  0  0  0  0  0  0  0  0
  -16.1903  -42.9588  -16.5725 C   0  0  1  0  0  0  0  0  0  0  0  0
  -16.6251  -41.8124  -17.3222 O   0  0  0  0  0  0  0  0  0  0  0  0
  -14.3844  -43.3139  -23.7216 C   0  0  0  0  0  0  0  0  0  0  0  0
  -13.2648  -42.3833  -18.7470 O   0  0  0  0  0  0  0  0  0  0  0  0
  -12.2303  -41.7054  -19.4454 C   0  0  0  0  0  0  0  0  0  0  0  0
  -17.0145  -41.7822  -14.6731 O   0  0  0  0  0  0  0  0  0  0  0  0
  -19.3591  -46.1817  -24.4474 C   0  0  0  0  0  0  0  0  0  0  0  0
  -19.9834  -46.3568  -25.4614 C   0  0  0  0  0  0  0  0  0  0  0  0
  -20.7285  -46.6559  -26.6879 C   0  0  0  0  0  0  0  0  0  0  0  0
  -21.8407  -45.7813  -26.8135 O   0  0  0  0  0  0  0  0  0  0  0  0
  -14.2990  -44.5205  -16.7476 O   0  0  0  0  0  0  0  0  0  0  0  0
  -15.8685  -43.6710  -14.2482 O   0  0  0  0  0  0  0  0  0  0  0  0
  -12.5233  -38.9457  -15.8764 O   0  0  0  0  0  0  0  0  0  0  0  0
  -13.1863  -38.5870  -17.0798 C   0  0  0  0  0  0  0  0  0  0  0  0
  -15.1632  -43.7614  -18.7668 C   0  0  0  0  0  0  0  0  0  0  0  0
  -14.2009  -43.0518  -19.4898 C   0  0  0  0  0  0  0  0  0  0  0  0
  -14.2798  -43.0507  -20.8879 C   0  0  0  0  0  0  0  0  0  0  0  0
  -15.3010  -43.7503  -21.5541 C   0  0  0  0  0  0  0  0  0  0  0  0
  -16.2557  -44.4807  -20.8147 C   0  0  0  0  0  0  0  0  0  0  0  0
  -16.1819  -44.4725  -19.4138 C   0  0  0  0  0  0  0  0  0  0  0  0
  -17.5543  -46.5788  -21.0516 C   0  0  0  0  0  0  0  0  0  0  0  0
  -18.6315  -47.3949  -22.0816 S   0  0  0  0  0  0  0  0  0  0  0  0
  -18.6754  -46.0974  -23.1912 C   0  0  0  0  0  0  0  0  0  0  0  0
  -17.9803  -45.0114  -22.7107 C   0  0  0  0  0  0  0  0  0  0  0  0
  -17.2683  -45.3011  -21.4912 C   0  0  0  0  0  0  0  0  0  0  0  0
  -12.4783  -40.1839  -13.9141 C   0  0  0  0  0  0  0  0  0  0  0  0
  -12.9517  -41.1758  -13.0688 C   0  0  0  0  0  0  0  0  0  0  0  0
  -14.0292  -41.9517  -13.4758 C   0  0  0  0  0  0  0  0  0  0  0  0
  -14.6438  -41.7671  -14.7386 C   0  0  0  0  0  0  0  0  0  0  0  0
  -14.1475  -40.7616  -15.5715 C   0  0  0  0  0  0  0  0  0  0  0  0
  -13.0753  -39.9682  -15.1581 C   0  0  0  0  0  0  0  0  0  0  0  0
  -17.0698  -43.6061  -16.5685 H   0  0  0  0  0  0  0  0  0  0  0  0
  -17.2491  -41.3585  -16.7174 H   0  0  0  0  0  0  0  0  0  0  0  0
  -14.2260  -42.2395  -23.5913 H   0  0  0  0  0  0  0  0  0  0  0  0
  -13.4783  -43.8932  -23.5230 H   0  0  0  0  0  0  0  0  0  0  0  0
  -14.6672  -43.4754  -24.7637 H   0  0  0  0  0  0  0  0  0  0  0  0
  -11.5215  -41.3206  -18.7066 H   0  0  0  0  0  0  0  0  0  0  0  0
  -11.6912  -42.3763  -20.1180 H   0  0  0  0  0  0  0  0  0  0  0  0
  -12.6348  -40.8508  -19.9976 H   0  0  0  0  0  0  0  0  0  0  0  0
  -16.6780  -41.1419  -14.0217 H   0  0  0  0  0  0  0  0  0  0  0  0
  -21.0743  -47.6922  -26.7276 H   0  0  0  0  0  0  0  0  0  0  0  0
  -20.0903  -46.4902  -27.5534 H   0  0  0  0  0  0  0  0  0  0  0  0
  -22.6056  -46.2429  -26.4083 H   0  0  0  0  0  0  0  0  0  0  0  0
  -16.7820  -43.6924  -13.9116 H   0  0  0  0  0  0  0  0  0  0  0  0
  -14.2213  -38.2831  -16.8900 H   0  0  0  0  0  0  0  0  0  0  0  0
  -12.6624  -37.7251  -17.5046 H   0  0  0  0  0  0  0  0  0  0  0  0
  -13.1392  -39.3951  -17.8153 H   0  0  0  0  0  0  0  0  0  0  0  0
  -13.5441  -42.5051  -21.4648 H   0  0  0  0  0  0  0  0  0  0  0  0
  -16.9123  -45.0173  -18.8233 H   0  0  0  0  0  0  0  0  0  0  0  0
  -17.1572  -47.1036  -20.1939 H   0  0  0  0  0  0  0  0  0  0  0  0
  -17.9026  -44.0772  -23.2531 H   0  0  0  0  0  0  0  0  0  0  0  0
  -11.6373  -39.5678  -13.6061 H   0  0  0  0  0  0  0  0  0  0  0  0
  -12.4858  -41.3436  -12.1022 H   0  0  0  0  0  0  0  0  0  0  0  0
  -14.3883  -42.7175  -12.7897 H   0  0  0  0  0  0  0  0  0  0  0  0
  -14.6119  -40.5995  -16.5376 H   0  0  0  0  0  0  0  0  0  0  0  0
  3  6  1  0
  1  4  1  0
  2  4  1  0
  4  5  1  0
  7  8  1  0
  9  2  1  0
 12 13  1  0
 12 11  1  0
 11 10  3  0
 14  1  2  0
 15  2  1  0
 17 16  1  0
 18 23  1  0
 18  1  1  0
 18 19  2  0
 19 20  1  0
 20 21  2  0
 21 22  1  0
 21  3  1  0
 22 28  1  0
 22 23  2  0
 24 25  1  0
 24 28  2  0
 25 26  1  0
 26 27  2  0
 27 28  1  0
 29 34  2  0
 29 30  1  0
 30 31  2  0
 31 32  1  0
 32 33  2  0
 33 34  1  0
 34 16  1  0
  7 19  1  0
 10 26  1  0
  2 32  1  0
  4 35  1  1
  5 36  1  0
  6 37  1  0
  6 38  1  0
  6 39  1  0
  8 40  1  0
  8 41  1  0
  8 42  1  0
  9 43  1  0
 12 44  1  0
 12 45  1  0
 13 46  1  0
 15 47  1  0
 17 48  1  0
 17 49  1  0
 17 50  1  0
 20 51  1  0
 23 52  1  0
 24 53  1  0
 27 54  1  0
 29 55  1  0
 30 56  1  0
 31 57  1  0
 33 58  1  0
M  END
>  <smiles>  (546) 
[H]OC([H])([H])C#Cc1sc([H])c(-c2c([H])c(C(=O)[C@]([H])(O[H])C(O[H])(O[H])c3c([H])c([H])c([H])c(OC([H])([H])[H])c3[H])c(OC([H])([H])[H])c([H])c2OC([H])([H])[H])c1[H]

>  <error>  (546) 


>  <∆∆G>  (546) 
-72.180888

>  <∆G_bound>  (546) 
95.865257

>  <∆G_unbound>  (546) 
168.046145

>  <comRMSD>  (546) 
0.625555

>  <N_constrained_atoms>  (546) 
34.0

>  <N_unconstrained_atoms>  (546) 
0.0

>  <runtime>  (546) 
2.095953

>  <regarded>  (546) 
['5f41-a', '5k5m-a']

>  <disregarded>  (546) 
[]

>  <LE>  (546) 
2.122967

>  <outcome>  (546) 
acceptable

>  <percent_hybrid>  (546) 
50.0

$$$$
LIG
     RDKit          3D

 46 47  0  0  0  0  0  0  0  0999 V2000
  -15.1897  -43.7131  -17.4495 C   0  0  0  0  0  0  0  0  0  0  0  0
  -16.2120  -42.5949  -15.3372 C   0  0  0  0  0  0  0  0  0  0  0  0
  -15.3884  -43.9696  -23.0872 O   0  0  0  0  0  0  0  0  0  0  0  0
  -16.4146  -43.0593  -16.7975 C   0  0  1  0  0  0  0  0  0  0  0  0
  -16.9208  -41.9670  -17.5765 O   0  0  0  0  0  0  0  0  0  0  0  0
  -14.4537  -43.2836  -23.8976 C   0  0  0  0  0  0  0  0  0  0  0  0
  -19.4582  -46.1617  -24.5251 C   0  0  0  0  0  0  0  0  0  0  0  0
  -20.1034  -46.3130  -25.5293 C   0  0  0  0  0  0  0  0  0  0  0  0
  -20.8491  -46.5902  -26.7575 C   0  0  0  0  0  0  0  0  0  0  0  0
  -21.9763  -45.7325  -26.8597 O   0  0  0  0  0  0  0  0  0  0  0  0
  -15.2476  -41.4228  -15.2150 C   0  0  0  0  0  0  0  0  0  0  0  0
  -12.9958  -42.4780  -18.9982 C   0  0  0  0  0  0  0  0  0  0  0  0
  -14.2660  -44.2670  -16.8597 O   0  0  0  0  0  0  0  0  0  0  0  0
  -15.7788  -43.6052  -14.4666 O   0  0  0  0  0  0  0  0  0  0  0  0
  -17.4814  -42.1384  -14.8541 O   0  0  0  0  0  0  0  0  0  0  0  0
  -15.1839  -43.7614  -18.9305 C   0  0  0  0  0  0  0  0  0  0  0  0
  -14.1473  -43.1740  -19.6683 C   0  0  0  0  0  0  0  0  0  0  0  0
  -14.1955  -43.2496  -21.0707 C   0  0  0  0  0  0  0  0  0  0  0  0
  -15.2570  -43.8854  -21.7270 C   0  0  0  0  0  0  0  0  0  0  0  0
  -16.2650  -44.5127  -20.9694 C   0  0  0  0  0  0  0  0  0  0  0  0
  -16.2292  -44.4335  -19.5720 C   0  0  0  0  0  0  0  0  0  0  0  0
  -17.5873  -46.5878  -21.1679 C   0  0  0  0  0  0  0  0  0  0  0  0
  -18.6747  -47.4005  -22.1861 S   0  0  0  0  0  0  0  0  0  0  0  0
  -18.7401  -46.0939  -23.2875 C   0  0  0  0  0  0  0  0  0  0  0  0
  -18.0268  -45.0141  -22.8221 C   0  0  0  0  0  0  0  0  0  0  0  0
  -17.3014  -45.3144  -21.6182 C   0  0  0  0  0  0  0  0  0  0  0  0
  -17.2066  -43.8060  -16.8314 H   0  0  0  0  0  0  0  0  0  0  0  0
  -17.5221  -41.4757  -16.9797 H   0  0  0  0  0  0  0  0  0  0  0  0
  -14.3531  -42.2328  -23.6086 H   0  0  0  0  0  0  0  0  0  0  0  0
  -13.4954  -43.8081  -23.8865 H   0  0  0  0  0  0  0  0  0  0  0  0
  -14.8387  -43.2983  -24.9195 H   0  0  0  0  0  0  0  0  0  0  0  0
  -21.1779  -47.6315  -26.8180 H   0  0  0  0  0  0  0  0  0  0  0  0
  -20.2130  -46.3918  -27.6180 H   0  0  0  0  0  0  0  0  0  0  0  0
  -22.7429  -46.2341  -26.5132 H   0  0  0  0  0  0  0  0  0  0  0  0
  -15.1826  -41.0797  -14.1754 H   0  0  0  0  0  0  0  0  0  0  0  0
  -14.2351  -41.7044  -15.5220 H   0  0  0  0  0  0  0  0  0  0  0  0
  -15.5726  -40.5620  -15.8085 H   0  0  0  0  0  0  0  0  0  0  0  0
  -12.3641  -43.2051  -18.4788 H   0  0  0  0  0  0  0  0  0  0  0  0
  -12.3690  -41.9508  -19.7255 H   0  0  0  0  0  0  0  0  0  0  0  0
  -13.3591  -41.7320  -18.2841 H   0  0  0  0  0  0  0  0  0  0  0  0
  -15.7276  -43.1967  -13.5875 H   0  0  0  0  0  0  0  0  0  0  0  0
  -18.0596  -42.9334  -14.8264 H   0  0  0  0  0  0  0  0  0  0  0  0
  -13.3728  -42.8208  -21.6359 H   0  0  0  0  0  0  0  0  0  0  0  0
  -17.0143  -44.9019  -18.9858 H   0  0  0  0  0  0  0  0  0  0  0  0
  -17.1772  -47.1110  -20.3150 H   0  0  0  0  0  0  0  0  0  0  0  0
  -17.9431  -44.0802  -23.3645 H   0  0  0  0  0  0  0  0  0  0  0  0
  3  6  1  0
  1  4  1  0
  2  4  1  0
  4  5  1  0
 10  9  1  0
  9  8  1  0
  8  7  3  0
 11  2  1  0
 13  1  2  0
 14  2  1  0
 15  2  1  0
 16 21  2  0
 16  1  1  0
 16 17  1  0
 17 18  2  0
 18 19  1  0
 19 20  2  0
 19  3  1  0
 20 26  1  0
 20 21  1  0
 22 23  1  0
 22 26  2  0
 23 24  1  0
 24 25  2  0
 25 26  1  0
 12 17  1  0
  7 24  1  0
  4 27  1  1
  5 28  1  0
  6 29  1  0
  6 30  1  0
  6 31  1  0
  9 32  1  0
  9 33  1  0
 10 34  1  0
 11 35  1  0
 11 36  1  0
 11 37  1  0
 12 38  1  0
 12 39  1  0
 12 40  1  0
 14 41  1  0
 15 42  1  0
 18 43  1  0
 21 44  1  0
 22 45  1  0
 25 46  1  0
M  END
>  <smiles>  (547) 
[H]OC([H])([H])C#Cc1sc([H])c(-c2c([H])c(C(=O)[C@]([H])(O[H])C(O[H])(O[H])C([H])([H])[H])c(C([H])([H])[H])c([H])c2OC([H])([H])[H])c1[H]

>  <error>  (547) 


>  <∆∆G>  (547) 
-359.508435

>  <∆G_bound>  (547) 
49.848077

>  <∆G_unbound>  (547) 
409.356513

>  <comRMSD>  (547) 
0.615846

>  <N_constrained_atoms>  (547) 
26.0

>  <N_unconstrained_atoms>  (547) 
0.0

>  <runtime>  (547) 
1.598054

>  <regarded>  (547) 
['5f41-a', '5hmz-a']

>  <disregarded>  (547) 
[]

>  <LE>  (547) 
13.827248

>  <outcome>  (547) 
acceptable

>  <percent_hybrid>  (547) 
35.0

$$$$
LIG
     RDKit          3D

 35 36  0  0  0  0  0  0  0  0999 V2000
  -14.9999  -43.7281  -17.1650 C   0  0  0  0  0  0  0  0  0  0  0  0
  -15.7474  -42.2412  -15.4025 O   0  0  0  0  0  0  0  0  0  0  0  0
  -15.5813  -42.9852  -22.7711 O   0  0  0  0  0  0  0  0  0  0  0  0
  -16.0079  -42.9399  -16.3699 C   0  0  0  0  0  0  0  0  0  0  0  0
  -17.2819  -43.1438  -16.7583 O   0  0  0  0  0  0  0  0  0  0  0  0
  -14.6678  -43.7598  -23.5452 C   0  0  0  0  0  0  0  0  0  0  0  0
  -15.8991  -39.8260  -20.9272 O   0  0  0  0  0  0  0  0  0  0  0  0
  -14.2448  -38.9873  -22.1482 O   0  0  0  0  0  0  0  0  0  0  0  0
  -14.8027  -39.9924  -21.4355 C   0  0  0  0  0  0  0  0  0  0  0  0
  -13.9047  -41.2030  -21.3572 C   0  0  0  0  0  0  0  0  0  0  0  0
  -15.1252  -43.5963  -18.6619 C   0  0  0  0  0  0  0  0  0  0  0  0
  -14.4191  -42.5916  -19.3284 C   0  0  0  0  0  0  0  0  0  0  0  0
  -14.5728  -42.3941  -20.7064 C   0  0  0  0  0  0  0  0  0  0  0  0
  -15.4241  -43.2485  -21.4307 C   0  0  0  0  0  0  0  0  0  0  0  0
  -16.1594  -44.2623  -20.7834 C   0  0  0  0  0  0  0  0  0  0  0  0
  -15.9930  -44.4195  -19.3945 C   0  0  0  0  0  0  0  0  0  0  0  0
  -17.3668  -46.4204  -21.1242 C   0  0  0  0  0  0  0  0  0  0  0  0
  -18.5439  -47.1741  -22.0987 S   0  0  0  0  0  0  0  0  0  0  0  0
  -18.6806  -45.7961  -23.0959 C   0  0  0  0  0  0  0  0  0  0  0  0
  -17.9310  -44.7475  -22.6221 C   0  0  0  0  0  0  0  0  0  0  0  0
  -17.1248  -45.1089  -21.4928 C   0  0  0  0  0  0  0  0  0  0  0  0
  -13.9977  -43.4051  -16.8562 H   0  0  0  0  0  0  0  0  0  0  0  0
  -15.0797  -44.7803  -16.8721 H   0  0  0  0  0  0  0  0  0  0  0  0
  -17.8223  -42.7677  -16.0254 H   0  0  0  0  0  0  0  0  0  0  0  0
  -14.5128  -43.2477  -24.4985 H   0  0  0  0  0  0  0  0  0  0  0  0
  -13.6946  -43.8934  -23.0599 H   0  0  0  0  0  0  0  0  0  0  0  0
  -15.1216  -44.7307  -23.7434 H   0  0  0  0  0  0  0  0  0  0  0  0
  -14.9486  -38.3048  -22.1267 H   0  0  0  0  0  0  0  0  0  0  0  0
  -13.5831  -41.4589  -22.3695 H   0  0  0  0  0  0  0  0  0  0  0  0
  -13.0055  -40.9274  -20.7936 H   0  0  0  0  0  0  0  0  0  0  0  0
  -13.7727  -41.9217  -18.7618 H   0  0  0  0  0  0  0  0  0  0  0  0
  -16.5850  -45.1565  -18.8573 H   0  0  0  0  0  0  0  0  0  0  0  0
  -16.9131  -46.9949  -20.3291 H   0  0  0  0  0  0  0  0  0  0  0  0
  -19.3188  -45.8055  -23.9669 H   0  0  0  0  0  0  0  0  0  0  0  0
  -17.9285  -43.7711  -23.0912 H   0  0  0  0  0  0  0  0  0  0  0  0
  3  6  1  0
  1  4  1  0
  2  4  2  0
  4  5  1  0
 10  9  1  0
  7  9  2  0
  9  8  1  0
 11 16  2  0
 11  1  1  0
 11 12  1  0
 12 13  2  0
 13 14  1  0
 14 15  2  0
 14  3  1  0
 15 21  1  0
 15 16  1  0
 17 18  1  0
 17 21  2  0
 18 19  1  0
 19 20  2  0
 20 21  1  0
 10 13  1  0
  1 22  1  0
  1 23  1  0
  5 24  1  0
  6 25  1  0
  6 26  1  0
  6 27  1  0
  8 28  1  0
 10 29  1  0
 10 30  1  0
 12 31  1  0
 16 32  1  0
 17 33  1  0
 19 34  1  0
 20 35  1  0
M  END
>  <smiles>  (548) 
[H]OC(=O)C([H])([H])c1c([H])c(-c2c([H])sc([H])c2[H])c(OC([H])([H])[H])c(C([H])([H])C(=O)O[H])c1[H]

>  <error>  (548) 


>  <∆∆G>  (548) 
-240.961266

>  <∆G_bound>  (548) 
-65.568291

>  <∆G_unbound>  (548) 
175.392975

>  <comRMSD>  (548) 
1.014786

>  <N_constrained_atoms>  (548) 
21.0

>  <N_unconstrained_atoms>  (548) 
0.0

>  <runtime>  (548) 
1.157985

>  <regarded>  (548) 
['5f41-a', '5hmw-b']

>  <disregarded>  (548) 
[]

>  <LE>  (548) 
11.474346

>  <outcome>  (548) 
too moved

>  <percent_hybrid>  (548) 
20.0

$$$$
LIG
     RDKit          3D

 29 30  0  0  0  0  0  0  0  0999 V2000
  -15.2545  -42.6196  -17.5888 C   0  0  0  0  0  0  0  0  0  0  0  0
  -14.6131  -44.7704  -16.6113 O   0  0  0  0  0  0  0  0  0  0  0  0
  -15.2057  -44.2241  -23.0321 O   0  0  0  0  0  0  0  0  0  0  0  0
  -15.0894  -43.6505  -16.5083 C   0  0  0  0  0  0  0  0  0  0  0  0
  -15.5554  -43.1892  -15.3287 O   0  0  0  0  0  0  0  0  0  0  0  0
  -14.4811  -43.4030  -23.9337 C   0  0  0  0  0  0  0  0  0  0  0  0
  -15.1746  -43.1683  -18.9918 C   0  0  0  0  0  0  0  0  0  0  0  0
  -14.0665  -42.8677  -19.7910 C   0  0  0  0  0  0  0  0  0  0  0  0
  -14.0412  -43.2343  -21.1361 C   0  0  0  0  0  0  0  0  0  0  0  0
  -15.1238  -43.9031  -21.7032 C   0  0  0  0  0  0  0  0  0  0  0  0
  -16.1904  -44.3152  -20.8830 C   0  0  0  0  0  0  0  0  0  0  0  0
  -16.2185  -43.9347  -19.5336 C   0  0  0  0  0  0  0  0  0  0  0  0
  -17.5257  -46.3942  -20.9175 C   0  0  0  0  0  0  0  0  0  0  0  0
  -18.6074  -47.2721  -21.8973 S   0  0  0  0  0  0  0  0  0  0  0  0
  -18.6882  -46.0130  -23.0477 C   0  0  0  0  0  0  0  0  0  0  0  0
  -17.9742  -44.9103  -22.6511 C   0  0  0  0  0  0  0  0  0  0  0  0
  -17.2496  -45.1469  -21.4399 C   0  0  0  0  0  0  0  0  0  0  0  0
  -16.2332  -42.1373  -17.4719 H   0  0  0  0  0  0  0  0  0  0  0  0
  -14.4908  -41.8485  -17.4337 H   0  0  0  0  0  0  0  0  0  0  0  0
  -15.6241  -43.9680  -14.7380 H   0  0  0  0  0  0  0  0  0  0  0  0
  -14.4690  -42.3490  -23.6363 H   0  0  0  0  0  0  0  0  0  0  0  0
  -13.4714  -43.8001  -24.0547 H   0  0  0  0  0  0  0  0  0  0  0  0
  -14.9875  -43.4570  -24.9008 H   0  0  0  0  0  0  0  0  0  0  0  0
  -13.2156  -42.3231  -19.3849 H   0  0  0  0  0  0  0  0  0  0  0  0
  -13.1568  -43.0000  -21.7201 H   0  0  0  0  0  0  0  0  0  0  0  0
  -17.0730  -44.2018  -18.9164 H   0  0  0  0  0  0  0  0  0  0  0  0
  -17.1024  -46.8621  -20.0394 H   0  0  0  0  0  0  0  0  0  0  0  0
  -19.2431  -46.1441  -23.9649 H   0  0  0  0  0  0  0  0  0  0  0  0
  -17.8839  -44.0136  -23.2513 H   0  0  0  0  0  0  0  0  0  0  0  0
  3  6  1  0
  1  4  1  0
  2  4  2  0
  4  5  1  0
  7 12  2  0
  7  1  1  0
  7  8  1  0
  8  9  2  0
  9 10  1  0
 10 11  2  0
 10  3  1  0
 11 17  1  0
 11 12  1  0
 13 14  1  0
 13 17  2  0
 14 15  1  0
 15 16  2  0
 16 17  1  0
  1 18  1  0
  1 19  1  0
  5 20  1  0
  6 21  1  0
  6 22  1  0
  6 23  1  0
  8 24  1  0
  9 25  1  0
 12 26  1  0
 13 27  1  0
 15 28  1  0
 16 29  1  0
M  END
>  <smiles>  (549) 
[H]OC(=O)C([H])([H])c1c([H])c([H])c(OC([H])([H])[H])c(-c2c([H])sc([H])c2[H])c1[H]

>  <error>  (549) 


>  <∆∆G>  (549) 
-40.859414

>  <∆G_bound>  (549) 
-63.746682

>  <∆G_unbound>  (549) 
-22.887268

>  <comRMSD>  (549) 
1.075424

>  <N_constrained_atoms>  (549) 
17.0

>  <N_unconstrained_atoms>  (549) 
0.0

>  <runtime>  (549) 
1.424748

>  <regarded>  (549) 
['5f41-a', '5f3z-a']

>  <disregarded>  (549) 
[]

>  <LE>  (549) 
2.403495

>  <outcome>  (549) 
equally sized

>  <percent_hybrid>  (549) 
0.0

$$$$
LIG
     RDKit          3D

 29 30  0  0  0  0  0  0  0  0999 V2000
  -15.2545  -42.6196  -17.5888 C   0  0  0  0  0  0  0  0  0  0  0  0
  -14.6131  -44.7704  -16.6113 O   0  0  0  0  0  0  0  0  0  0  0  0
  -15.2057  -44.2241  -23.0321 O   0  0  0  0  0  0  0  0  0  0  0  0
  -15.0894  -43.6505  -16.5083 C   0  0  0  0  0  0  0  0  0  0  0  0
  -15.5554  -43.1892  -15.3287 O   0  0  0  0  0  0  0  0  0  0  0  0
  -14.4811  -43.4030  -23.9337 C   0  0  0  0  0  0  0  0  0  0  0  0
  -15.1746  -43.1683  -18.9918 C   0  0  0  0  0  0  0  0  0  0  0  0
  -14.0665  -42.8677  -19.7910 C   0  0  0  0  0  0  0  0  0  0  0  0
  -14.0412  -43.2343  -21.1361 C   0  0  0  0  0  0  0  0  0  0  0  0
  -15.1238  -43.9031  -21.7032 C   0  0  0  0  0  0  0  0  0  0  0  0
  -16.1904  -44.3152  -20.8830 C   0  0  0  0  0  0  0  0  0  0  0  0
  -16.2185  -43.9347  -19.5336 C   0  0  0  0  0  0  0  0  0  0  0  0
  -17.5257  -46.3942  -20.9175 C   0  0  0  0  0  0  0  0  0  0  0  0
  -18.6074  -47.2721  -21.8973 S   0  0  0  0  0  0  0  0  0  0  0  0
  -18.6882  -46.0130  -23.0477 C   0  0  0  0  0  0  0  0  0  0  0  0
  -17.9742  -44.9103  -22.6511 C   0  0  0  0  0  0  0  0  0  0  0  0
  -17.2496  -45.1469  -21.4399 C   0  0  0  0  0  0  0  0  0  0  0  0
  -16.2332  -42.1373  -17.4719 H   0  0  0  0  0  0  0  0  0  0  0  0
  -14.4908  -41.8485  -17.4337 H   0  0  0  0  0  0  0  0  0  0  0  0
  -15.6241  -43.9680  -14.7380 H   0  0  0  0  0  0  0  0  0  0  0  0
  -14.4690  -42.3490  -23.6363 H   0  0  0  0  0  0  0  0  0  0  0  0
  -13.4714  -43.8001  -24.0547 H   0  0  0  0  0  0  0  0  0  0  0  0
  -14.9875  -43.4570  -24.9008 H   0  0  0  0  0  0  0  0  0  0  0  0
  -13.2156  -42.3231  -19.3849 H   0  0  0  0  0  0  0  0  0  0  0  0
  -13.1568  -43.0000  -21.7201 H   0  0  0  0  0  0  0  0  0  0  0  0
  -17.0730  -44.2018  -18.9164 H   0  0  0  0  0  0  0  0  0  0  0  0
  -17.1024  -46.8621  -20.0394 H   0  0  0  0  0  0  0  0  0  0  0  0
  -19.2431  -46.1441  -23.9649 H   0  0  0  0  0  0  0  0  0  0  0  0
  -17.8839  -44.0136  -23.2513 H   0  0  0  0  0  0  0  0  0  0  0  0
  3  6  1  0
  1  4  1  0
  2  4  2  0
  4  5  1  0
  7 12  2  0
  7  1  1  0
  7  8  1  0
  8  9  2  0
  9 10  1  0
 10 11  2  0
 10  3  1  0
 11 17  1  0
 11 12  1  0
 13 14  1  0
 13 17  2  0
 14 15  1  0
 15 16  2  0
 16 17  1  0
  1 18  1  0
  1 19  1  0
  5 20  1  0
  6 21  1  0
  6 22  1  0
  6 23  1  0
  8 24  1  0
  9 25  1  0
 12 26  1  0
 13 27  1  0
 15 28  1  0
 16 29  1  0
M  END
>  <smiles>  (550) 
[H]OC(=O)C([H])([H])c1c([H])c([H])c(OC([H])([H])[H])c(-c2c([H])sc([H])c2[H])c1[H]

>  <error>  (550) 


>  <∆∆G>  (550) 
-40.859414

>  <∆G_bound>  (550) 
-63.746682

>  <∆G_unbound>  (550) 
-22.887268

>  <comRMSD>  (550) 
1.075424

>  <N_constrained_atoms>  (550) 
17.0

>  <N_unconstrained_atoms>  (550) 
0.0

>  <runtime>  (550) 
1.402163

>  <regarded>  (550) 
['5f41-a', '6h9r-a']

>  <disregarded>  (550) 
[]

>  <LE>  (550) 
2.403495

>  <outcome>  (550) 
equally sized

>  <percent_hybrid>  (550) 
0.0

$$$$
LIG
     RDKit          3D

 29 30  0  0  0  0  0  0  0  0999 V2000
  -15.2545  -42.6196  -17.5888 C   0  0  0  0  0  0  0  0  0  0  0  0
  -14.6131  -44.7704  -16.6113 O   0  0  0  0  0  0  0  0  0  0  0  0
  -15.2057  -44.2241  -23.0321 O   0  0  0  0  0  0  0  0  0  0  0  0
  -15.0894  -43.6505  -16.5083 C   0  0  0  0  0  0  0  0  0  0  0  0
  -15.5554  -43.1892  -15.3287 O   0  0  0  0  0  0  0  0  0  0  0  0
  -14.4811  -43.4030  -23.9337 C   0  0  0  0  0  0  0  0  0  0  0  0
  -15.1746  -43.1683  -18.9918 C   0  0  0  0  0  0  0  0  0  0  0  0
  -14.0665  -42.8677  -19.7910 C   0  0  0  0  0  0  0  0  0  0  0  0
  -14.0412  -43.2343  -21.1361 C   0  0  0  0  0  0  0  0  0  0  0  0
  -15.1238  -43.9031  -21.7032 C   0  0  0  0  0  0  0  0  0  0  0  0
  -16.1904  -44.3152  -20.8830 C   0  0  0  0  0  0  0  0  0  0  0  0
  -16.2185  -43.9347  -19.5336 C   0  0  0  0  0  0  0  0  0  0  0  0
  -17.5257  -46.3942  -20.9175 C   0  0  0  0  0  0  0  0  0  0  0  0
  -18.6074  -47.2721  -21.8973 S   0  0  0  0  0  0  0  0  0  0  0  0
  -18.6882  -46.0130  -23.0477 C   0  0  0  0  0  0  0  0  0  0  0  0
  -17.9742  -44.9103  -22.6511 C   0  0  0  0  0  0  0  0  0  0  0  0
  -17.2496  -45.1469  -21.4399 C   0  0  0  0  0  0  0  0  0  0  0  0
  -16.2332  -42.1373  -17.4719 H   0  0  0  0  0  0  0  0  0  0  0  0
  -14.4908  -41.8485  -17.4337 H   0  0  0  0  0  0  0  0  0  0  0  0
  -15.6241  -43.9680  -14.7380 H   0  0  0  0  0  0  0  0  0  0  0  0
  -14.4690  -42.3490  -23.6363 H   0  0  0  0  0  0  0  0  0  0  0  0
  -13.4714  -43.8001  -24.0547 H   0  0  0  0  0  0  0  0  0  0  0  0
  -14.9875  -43.4570  -24.9008 H   0  0  0  0  0  0  0  0  0  0  0  0
  -13.2156  -42.3231  -19.3849 H   0  0  0  0  0  0  0  0  0  0  0  0
  -13.1568  -43.0000  -21.7201 H   0  0  0  0  0  0  0  0  0  0  0  0
  -17.0730  -44.2018  -18.9164 H   0  0  0  0  0  0  0  0  0  0  0  0
  -17.1024  -46.8621  -20.0394 H   0  0  0  0  0  0  0  0  0  0  0  0
  -19.2431  -46.1441  -23.9649 H   0  0  0  0  0  0  0  0  0  0  0  0
  -17.8839  -44.0136  -23.2513 H   0  0  0  0  0  0  0  0  0  0  0  0
  3  6  1  0
  1  4  1  0
  2  4  2  0
  4  5  1  0
  7 12  2  0
  7  1  1  0
  7  8  1  0
  8  9  2  0
  9 10  1  0
 10 11  2  0
 10  3  1  0
 11 17  1  0
 11 12  1  0
 13 14  1  0
 13 17  2  0
 14 15  1  0
 15 16  2  0
 16 17  1  0
  1 18  1  0
  1 19  1  0
  5 20  1  0
  6 21  1  0
  6 22  1  0
  6 23  1  0
  8 24  1  0
  9 25  1  0
 12 26  1  0
 13 27  1  0
 15 28  1  0
 16 29  1  0
M  END
>  <smiles>  (551) 
[H]OC(=O)C([H])([H])c1c([H])c([H])c(OC([H])([H])[H])c(-c2c([H])sc([H])c2[H])c1[H]

>  <error>  (551) 


>  <∆∆G>  (551) 
-40.859414

>  <∆G_bound>  (551) 
-63.746682

>  <∆G_unbound>  (551) 
-22.887268

>  <comRMSD>  (551) 
1.075424

>  <N_constrained_atoms>  (551) 
17.0

>  <N_unconstrained_atoms>  (551) 
0.0

>  <runtime>  (551) 
1.392442

>  <regarded>  (551) 
['5f41-a', '5f3t-a']

>  <disregarded>  (551) 
[]

>  <LE>  (551) 
2.403495

>  <outcome>  (551) 
equally sized

>  <percent_hybrid>  (551) 
0.0

$$$$

     RDKit          2D

  0  0  0  0  0  0  0  0  0  0999 V2000
M  END
>  <smiles>  (552) 
nan

>  <error>  (552) 
DistanceError 5.54 Å

>  <∆∆G>  (552) 
nan

>  <∆G_bound>  (552) 
nan

>  <∆G_unbound>  (552) 
nan

>  <comRMSD>  (552) 
nan

>  <N_constrained_atoms>  (552) 
nan

>  <N_unconstrained_atoms>  (552) 
nan

>  <runtime>  (552) 
nan

>  <regarded>  (552) 
[]

>  <disregarded>  (552) 
[]

>  <LE>  (552) 
nan

>  <outcome>  (552) 
too distant

>  <percent_hybrid>  (552) 
nan

$$$$
LIG
     RDKit          3D

 45 48  0  0  0  0  0  0  0  0999 V2000
  -15.5462  -43.5642  -16.8452 C   0  0  0  0  0  0  0  0  0  0  0  0
  -15.2922  -43.8271  -22.5014 O   0  0  0  0  0  0  0  0  0  0  0  0
  -15.3865  -41.1646  -16.8461 O   0  0  0  0  0  0  0  0  0  0  0  0
  -13.9654  -42.3124  -15.5178 O   0  0  0  0  0  0  0  0  0  0  0  0
  -14.8833  -42.3079  -16.3258 C   0  0  0  0  0  0  0  0  0  0  0  0
  -14.2631  -43.1078  -23.1840 C   0  0  0  0  0  0  0  0  0  0  0  0
  -15.4127  -43.7733  -18.3344 C   0  0  0  0  0  0  0  0  0  0  0  0
  -14.2148  -43.4759  -18.9859 C   0  0  0  0  0  0  0  0  0  0  0  0
  -14.1241  -43.5712  -20.3715 C   0  0  0  0  0  0  0  0  0  0  0  0
  -15.2312  -43.9313  -21.1375 C   0  0  0  0  0  0  0  0  0  0  0  0
  -16.3702  -44.4381  -20.4854 C   0  0  0  0  0  0  0  0  0  0  0  0
  -16.4604  -44.3305  -19.0855 C   0  0  0  0  0  0  0  0  0  0  0  0
  -18.7476  -46.1069  -23.0493 C   0  0  0  0  0  0  0  0  0  0  0  0
  -18.4996  -47.0633  -22.0918 C   0  0  0  0  0  0  0  0  0  0  0  0
  -17.7006  -46.5506  -21.0336 C   0  0  0  0  0  0  0  0  0  0  0  0
  -17.3709  -45.2202  -21.2246 C   0  0  0  0  0  0  0  0  0  0  0  0
  -18.2314  -44.5617  -22.5521 S   0  0  0  0  0  0  0  0  0  0  0  0
  -14.2549  -41.6072  -22.9815 C   0  0  0  0  0  0  0  0  0  0  0  0
  -13.5555  -40.8754  -22.0358 C   0  0  0  0  0  0  0  0  0  0  0  0
  -13.7414  -39.5627  -22.3295 N   0  0  0  0  0  0  0  0  0  0  0  0
  -14.4816  -39.3633  -23.4229 N   0  0  0  0  0  0  0  0  0  0  0  0
  -14.8377  -40.5989  -23.8177 C   0  0  0  0  0  0  0  0  0  0  0  0
  -16.7848  -41.6497  -24.9016 C   0  0  0  0  0  0  0  0  0  0  0  0
  -15.7003  -40.7814  -24.9767 C   0  0  0  0  0  0  0  0  0  0  0  0
  -15.4820  -40.0686  -26.1550 C   0  0  0  0  0  0  0  0  0  0  0  0
  -16.3523  -40.2698  -27.2121 C   0  0  0  0  0  0  0  0  0  0  0  0
  -17.4108  -41.1095  -27.1679 N   0  0  0  0  0  0  0  0  0  0  0  0
  -17.6021  -41.7719  -26.0062 C   0  0  0  0  0  0  0  0  0  0  0  0
  -15.0988  -44.4219  -16.3314 H   0  0  0  0  0  0  0  0  0  0  0  0
  -16.6011  -43.5026  -16.5584 H   0  0  0  0  0  0  0  0  0  0  0  0
  -16.0976  -41.3159  -17.4996 H   0  0  0  0  0  0  0  0  0  0  0  0
  -13.3012  -43.5680  -22.9450 H   0  0  0  0  0  0  0  0  0  0  0  0
  -14.4051  -43.3129  -24.2519 H   0  0  0  0  0  0  0  0  0  0  0  0
  -13.3358  -43.1393  -18.4353 H   0  0  0  0  0  0  0  0  0  0  0  0
  -13.1615  -43.3509  -20.8238 H   0  0  0  0  0  0  0  0  0  0  0  0
  -17.3658  -44.6738  -18.5889 H   0  0  0  0  0  0  0  0  0  0  0  0
  -19.2511  -46.2377  -23.9968 H   0  0  0  0  0  0  0  0  0  0  0  0
  -18.8074  -48.0975  -22.1879 H   0  0  0  0  0  0  0  0  0  0  0  0
  -17.2994  -47.1609  -20.2342 H   0  0  0  0  0  0  0  0  0  0  0  0
  -12.9158  -41.1625  -21.2144 H   0  0  0  0  0  0  0  0  0  0  0  0
  -17.0095  -42.1958  -23.9941 H   0  0  0  0  0  0  0  0  0  0  0  0
  -14.6550  -39.3720  -26.2459 H   0  0  0  0  0  0  0  0  0  0  0  0
  -16.2237  -39.7415  -28.1514 H   0  0  0  0  0  0  0  0  0  0  0  0
  -18.4722  -42.4180  -25.9718 H   0  0  0  0  0  0  0  0  0  0  0  0
  -13.3746  -38.7547  -21.8369 H   0  0  0  0  0  0  0  0  0  0  0  0
  2  6  1  0
  4  5  2  0
  1  5  1  0
  5  3  1  0
  7 12  2  0
  7  1  1  0
  7  8  1  0
  8  9  2  0
  9 10  1  0
 10 11  2  0
 10  2  1  0
 11 16  1  0
 11 12  1  0
 13 14  2  0
 13 17  1  0
 14 15  1  0
 15 16  2  0
 16 17  1  0
 18 19  2  0
 18 22  1  0
 19 20  1  0
 20 21  1  0
 21 22  2  0
 22 24  1  0
 23 28  2  0
 23 24  1  0
 24 25  2  0
 25 26  1  0
 26 27  2  0
 27 28  1  0
  6 18  1  0
  1 29  1  0
  1 30  1  0
  3 31  1  0
  6 32  1  0
  6 33  1  0
  8 34  1  0
  9 35  1  0
 12 36  1  0
 13 37  1  0
 14 38  1  0
 15 39  1  0
 19 40  1  0
 23 41  1  0
 25 42  1  0
 26 43  1  0
 28 44  1  0
 20 45  1  0
M  END
>  <smiles>  (553) 
[H]OC(=O)C([H])([H])c1c([H])c([H])c(OC([H])([H])c2c(-c3c([H])c([H])nc([H])c3[H])n[nH]c2[H])c(-c2sc([H])c([H])c2[H])c1[H]

>  <error>  (553) 


>  <∆∆G>  (553) 
-45.642734

>  <∆G_bound>  (553) 
175.928998

>  <∆G_unbound>  (553) 
221.571732

>  <comRMSD>  (553) 
0.950539

>  <N_constrained_atoms>  (553) 
28.0

>  <N_unconstrained_atoms>  (553) 
0.0

>  <runtime>  (553) 
3.007698

>  <regarded>  (553) 
['6h80-a', 'd0160a']

>  <disregarded>  (553) 
[]

>  <LE>  (553) 
1.630098

>  <outcome>  (553) 
acceptable

>  <percent_hybrid>  (553) 
40.0

$$$$
LIG
     RDKit          3D

 46 49  0  0  0  0  0  0  0  0999 V2000
  -15.2856  -43.2011  -17.2771 C   0  0  0  0  0  0  0  0  0  0  0  0
  -15.1623  -43.9004  -22.9355 O   0  0  0  0  0  0  0  0  0  0  0  0
  -15.7517  -40.8390  -17.4249 O   0  0  0  0  0  0  0  0  0  0  0  0
  -14.2370  -41.5213  -15.8992 O   0  0  0  0  0  0  0  0  0  0  0  0
  -15.0201  -41.7900  -16.7993 C   0  0  0  0  0  0  0  0  0  0  0  0
  -15.1477  -39.7837  -25.6462 C   0  0  0  0  0  0  0  0  0  0  0  0
  -15.2588  -43.3801  -18.7785 C   0  0  0  0  0  0  0  0  0  0  0  0
  -14.2154  -42.8478  -19.5485 C   0  0  0  0  0  0  0  0  0  0  0  0
  -14.2084  -42.9909  -20.9383 C   0  0  0  0  0  0  0  0  0  0  0  0
  -15.2403  -43.6745  -21.5806 C   0  0  0  0  0  0  0  0  0  0  0  0
  -16.2510  -44.2991  -20.8195 C   0  0  0  0  0  0  0  0  0  0  0  0
  -16.2552  -44.1292  -19.4221 C   0  0  0  0  0  0  0  0  0  0  0  0
  -18.7208  -46.2935  -23.0308 C   0  0  0  0  0  0  0  0  0  0  0  0
  -18.3601  -47.1571  -22.0236 C   0  0  0  0  0  0  0  0  0  0  0  0
  -17.4827  -46.5347  -21.0926 C   0  0  0  0  0  0  0  0  0  0  0  0
  -17.2302  -45.2132  -21.4178 C   0  0  0  0  0  0  0  0  0  0  0  0
  -18.2675  -44.6909  -22.6769 S   0  0  0  0  0  0  0  0  0  0  0  0
  -15.0228  -41.6287  -23.9079 C   0  0  0  0  0  0  0  0  0  0  0  0
  -15.4368  -42.9432  -23.8555 C   0  0  0  0  0  0  0  0  0  0  0  0
  -16.1678  -43.1948  -25.0355 C   0  0  0  0  0  0  0  0  0  0  0  0
  -16.1804  -42.0497  -25.7900 C   0  0  0  0  0  0  0  0  0  0  0  0
  -15.4616  -41.1033  -25.1081 N   0  0  0  0  0  0  0  0  0  0  0  0
  -17.1600  -38.7029  -26.7447 C   0  0  0  0  0  0  0  0  0  0  0  0
  -16.3511  -38.8811  -25.6223 C   0  0  0  0  0  0  0  0  0  0  0  0
  -16.7149  -38.2004  -24.4577 C   0  0  0  0  0  0  0  0  0  0  0  0
  -17.8386  -37.3813  -24.4590 C   0  0  0  0  0  0  0  0  0  0  0  0
  -18.5780  -37.2790  -25.6262 C   0  0  0  0  0  0  0  0  0  0  0  0
  -18.2726  -37.9237  -26.7740 N   0  0  0  0  0  0  0  0  0  0  0  0
  -14.5307  -43.8641  -16.8388 H   0  0  0  0  0  0  0  0  0  0  0  0
  -16.2588  -43.4948  -16.8682 H   0  0  0  0  0  0  0  0  0  0  0  0
  -16.3290  -41.1908  -18.1306 H   0  0  0  0  0  0  0  0  0  0  0  0
  -14.3346  -39.3643  -25.0450 H   0  0  0  0  0  0  0  0  0  0  0  0
  -14.7671  -39.9235  -26.6647 H   0  0  0  0  0  0  0  0  0  0  0  0
  -13.3852  -42.3181  -19.0801 H   0  0  0  0  0  0  0  0  0  0  0  0
  -13.3691  -42.6086  -21.5150 H   0  0  0  0  0  0  0  0  0  0  0  0
  -17.0451  -44.5956  -18.8359 H   0  0  0  0  0  0  0  0  0  0  0  0
  -19.2766  -46.5229  -23.9285 H   0  0  0  0  0  0  0  0  0  0  0  0
  -18.6268  -48.2060  -22.0163 H   0  0  0  0  0  0  0  0  0  0  0  0
  -16.9890  -47.0629  -20.2864 H   0  0  0  0  0  0  0  0  0  0  0  0
  -14.4174  -41.0409  -23.2334 H   0  0  0  0  0  0  0  0  0  0  0  0
  -16.6238  -44.1247  -25.3154 H   0  0  0  0  0  0  0  0  0  0  0  0
  -16.6034  -41.8484  -26.7634 H   0  0  0  0  0  0  0  0  0  0  0  0
  -16.9294  -39.1951  -27.6875 H   0  0  0  0  0  0  0  0  0  0  0  0
  -16.1295  -38.3080  -23.5478 H   0  0  0  0  0  0  0  0  0  0  0  0
  -18.1368  -36.8425  -23.5663 H   0  0  0  0  0  0  0  0  0  0  0  0
  -19.4667  -36.6556  -25.6646 H   0  0  0  0  0  0  0  0  0  0  0  0
  4  5  2  0
  1  5  1  0
  5  3  1  0
  7 12  2  0
  7  1  1  0
  7  8  1  0
  8  9  2  0
  9 10  1  0
 10 11  2  0
 10  2  1  0
 11 16  1  0
 11 12  1  0
 13 14  2  0
 13 17  1  0
 14 15  1  0
 15 16  2  0
 16 17  1  0
 18 19  2  0
 18 22  1  0
 19 20  1  0
 20 21  2  0
 21 22  1  0
 22  6  1  0
 23 28  2  0
 23 24  1  0
 24  6  1  0
 24 25  2  0
 25 26  1  0
 26 27  2  0
 27 28  1  0
 19  2  1  0
  1 29  1  0
  1 30  1  0
  3 31  1  0
  6 32  1  0
  6 33  1  0
  8 34  1  0
  9 35  1  0
 12 36  1  0
 13 37  1  0
 14 38  1  0
 15 39  1  0
 18 40  1  0
 20 41  1  0
 21 42  1  0
 23 43  1  0
 25 44  1  0
 26 45  1  0
 27 46  1  0
M  END
>  <smiles>  (554) 
[H]OC(=O)C([H])([H])c1c([H])c([H])c(Oc2c([H])c([H])n(C([H])([H])c3c([H])nc([H])c([H])c3[H])c2[H])c(-c2sc([H])c([H])c2[H])c1[H]

>  <error>  (554) 


>  <∆∆G>  (554) 
-125.164638

>  <∆G_bound>  (554) 
193.847336

>  <∆G_unbound>  (554) 
319.011975

>  <comRMSD>  (554) 
1.021658

>  <N_constrained_atoms>  (554) 
28.0

>  <N_unconstrained_atoms>  (554) 
0.0

>  <runtime>  (554) 
2.893686

>  <regarded>  (554) 
['6h80-a', 'd0191a']

>  <disregarded>  (554) 
[]

>  <LE>  (554) 
4.470166

>  <outcome>  (554) 
too moved

>  <percent_hybrid>  (554) 
43.0

$$$$
LIG
     RDKit          3D

 46 48  0  0  0  0  0  0  0  0999 V2000
  -14.4696  -41.8250  -17.4787 C   0  0  0  0  0  0  0  0  0  0  0  0
  -16.5938  -43.7824  -22.1976 C   0  0  0  0  0  0  0  0  0  0  0  0
  -15.3556  -43.7902  -16.4420 O   0  0  0  0  0  0  0  0  0  0  0  0
  -15.7468  -41.8472  -15.4183 O   0  0  0  0  0  0  0  0  0  0  0  0
  -15.2591  -42.4497  -16.3602 C   0  0  0  0  0  0  0  0  0  0  0  0
  -15.3836  -40.1441  -26.4675 C   0  0  0  0  0  0  0  0  0  0  0  0
  -14.9270  -42.2794  -18.8675 C   0  0  0  0  0  0  0  0  0  0  0  0
  -13.9739  -43.3048  -19.4763 C   0  0  0  0  0  0  0  0  0  0  0  0
  -14.3460  -43.7715  -20.8961 C   0  0  0  0  0  0  0  0  0  0  0  0
  -15.7824  -44.1494  -21.1618 C   0  0  0  0  0  0  0  0  0  0  0  0
  -16.4479  -44.9510  -20.1926 C   0  0  0  0  0  0  0  0  0  0  0  0
  -16.1534  -45.6348  -19.0493 C   0  0  0  0  0  0  0  0  0  0  0  0
  -18.2402  -45.9489  -22.9018 C   0  0  0  0  0  0  0  0  0  0  0  0
  -18.6752  -47.2287  -22.2144 C   0  0  0  0  0  0  0  0  0  0  0  0
  -18.3305  -45.8296  -19.3644 C   0  0  0  0  0  0  0  0  0  0  0  0
  -17.8100  -45.1214  -20.3967 C   0  0  0  0  0  0  0  0  0  0  0  0
  -18.3731  -44.4262  -21.9102 S   0  0  0  0  0  0  0  0  0  0  0  0
  -17.3028  -46.1640  -18.5217 O   0  0  0  0  0  0  0  0  0  0  0  0
  -17.0281  -42.9671  -24.5336 C   0  0  0  0  0  0  0  0  0  0  0  0
  -16.3166  -42.8912  -23.3402 C   0  0  0  0  0  0  0  0  0  0  0  0
  -15.3466  -41.9659  -23.1613 N   0  0  0  0  0  0  0  0  0  0  0  0
  -15.0659  -41.1232  -24.1801 C   0  0  0  0  0  0  0  0  0  0  0  0
  -15.7136  -41.1411  -25.4036 C   0  0  0  0  0  0  0  0  0  0  0  0
  -16.7239  -42.0833  -25.5700 C   0  0  0  0  0  0  0  0  0  0  0  0
  -14.6309  -40.7425  -17.4021 H   0  0  0  0  0  0  0  0  0  0  0  0
  -13.4041  -42.0074  -17.3040 H   0  0  0  0  0  0  0  0  0  0  0  0
  -15.9752  -44.0181  -15.7068 H   0  0  0  0  0  0  0  0  0  0  0  0
  -15.9735  -39.2334  -26.3253 H   0  0  0  0  0  0  0  0  0  0  0  0
  -14.3211  -39.8829  -26.4465 H   0  0  0  0  0  0  0  0  0  0  0  0
  -15.5993  -40.5496  -27.4618 H   0  0  0  0  0  0  0  0  0  0  0  0
  -14.9369  -41.4036  -19.5292 H   0  0  0  0  0  0  0  0  0  0  0  0
  -15.9570  -42.6440  -18.8231 H   0  0  0  0  0  0  0  0  0  0  0  0
  -12.9655  -42.8717  -19.5251 H   0  0  0  0  0  0  0  0  0  0  0  0
  -13.8786  -44.1638  -18.8104 H   0  0  0  0  0  0  0  0  0  0  0  0
  -14.0109  -42.9879  -21.5779 H   0  0  0  0  0  0  0  0  0  0  0  0
  -13.7143  -44.6316  -21.1387 H   0  0  0  0  0  0  0  0  0  0  0  0
  -15.2638  -45.8283  -18.4744 H   0  0  0  0  0  0  0  0  0  0  0  0
  -17.1971  -46.0540  -23.1856 H   0  0  0  0  0  0  0  0  0  0  0  0
  -18.8408  -45.7854  -23.8015 H   0  0  0  0  0  0  0  0  0  0  0  0
  -18.9343  -47.9804  -22.9640 H   0  0  0  0  0  0  0  0  0  0  0  0
  -17.8585  -47.6483  -21.6170 H   0  0  0  0  0  0  0  0  0  0  0  0
  -19.5304  -47.0911  -21.5531 H   0  0  0  0  0  0  0  0  0  0  0  0
  -19.3116  -46.1895  -19.0923 H   0  0  0  0  0  0  0  0  0  0  0  0
  -17.8143  -43.6957  -24.6775 H   0  0  0  0  0  0  0  0  0  0  0  0
  -14.2797  -40.4035  -23.9706 H   0  0  0  0  0  0  0  0  0  0  0  0
  -17.2783  -42.1328  -26.5014 H   0  0  0  0  0  0  0  0  0  0  0  0
  4  5  2  0
  1  5  1  0
  5  3  1  0
  7  1  1  0
  7  8  1  0
  8  9  1  0
  9 10  1  0
 10 11  1  0
 10  2  4  0
 11 16  1  0
 11 12  2  0
 13 14  1  0
 13 17  1  0
 15 16  2  0
 16 17  1  0
 19 24  2  0
 19 20  1  0
 20 21  2  0
 21 22  1  0
 22 23  2  0
 23  6  1  0
 23 24  1  0
 12 18  1  0
 15 18  1  0
 17  2  4  0
  2 20  1  0
  1 25  1  0
  1 26  1  0
  3 27  1  0
  6 28  1  0
  6 29  1  0
  6 30  1  0
  7 31  1  0
  7 32  1  0
  8 33  1  0
  8 34  1  0
  9 35  1  0
  9 36  1  0
 12 37  1  0
 13 38  1  0
 13 39  1  0
 14 40  1  0
 14 41  1  0
 14 42  1  0
 15 43  1  0
 19 44  1  0
 22 45  1  0
 24 46  1  0
M  END
>  <smiles>  (555) 
[H]OC(=O)C([H])([H])C([H])([H])C([H])([H])C([H])([H])C1:C(c2nc([H])c(C([H])([H])[H])c([H])c2[H]):S(C([H])([H])C([H])([H])[H])c2c([H])oc([H])c21

>  <error>  (555) 


>  <∆∆G>  (555) 
-107.174569

>  <∆G_bound>  (555) 
131.640776

>  <∆G_unbound>  (555) 
238.815345

>  <comRMSD>  (555) 
1.29272

>  <N_constrained_atoms>  (555) 
24.0

>  <N_unconstrained_atoms>  (555) 
0.0

>  <runtime>  (555) 
4.952436

>  <regarded>  (555) 
['6h80-a', 'd0254a']

>  <disregarded>  (555) 
[]

>  <LE>  (555) 
4.465607

>  <outcome>  (555) 
too moved

>  <percent_hybrid>  (555) 
34.0

$$$$
LIG
     RDKit          3D

 62 64  0  0  0  0  0  0  0  0999 V2000
  -14.7205  -43.1741  -16.9139 C   0  0  0  0  0  0  0  0  0  0  0  0
  -14.7867  -43.9118  -22.5414 O   0  0  0  0  0  0  0  0  0  0  0  0
  -15.7006  -40.9701  -17.2015 O   0  0  0  0  0  0  0  0  0  0  0  0
  -14.4207  -41.3353  -15.3883 O   0  0  0  0  0  0  0  0  0  0  0  0
  -14.9068  -41.7494  -16.4326 C   0  0  0  0  0  0  0  0  0  0  0  0
  -14.9579  -42.7340  -23.3252 C   0  0  0  0  0  0  0  0  0  0  0  0
  -23.1504  -46.4835  -18.3477 O   0  0  0  0  0  0  0  0  0  0  0  0
  -22.4346  -46.2451  -17.4604 C   0  0  0  0  0  0  0  0  0  0  0  0
  -22.3786  -47.0929  -16.1922 C   0  0  0  0  0  0  0  0  0  0  0  0
  -23.1872  -46.4128  -15.0959 C   0  0  0  0  0  0  0  0  0  0  0  0
  -22.9226  -48.4868  -16.4823 C   0  0  0  0  0  0  0  0  0  0  0  0
  -21.3672  -45.1400  -17.3049 N   0  0  0  0  0  0  0  0  0  0  0  0
  -21.0217  -44.0291  -18.1811 C   0  0  1  0  0  0  0  0  0  0  0  0
  -21.4722  -42.7464  -17.4826 C   0  0  0  0  0  0  0  0  0  0  0  0
  -19.9569  -42.1019  -20.3246 C   0  0  0  0  0  0  0  0  0  0  0  0
  -14.7628  -43.3671  -18.4135 C   0  0  0  0  0  0  0  0  0  0  0  0
  -13.8307  -42.7335  -19.2276 C   0  0  0  0  0  0  0  0  0  0  0  0
  -13.8843  -42.9102  -20.6036 C   0  0  0  0  0  0  0  0  0  0  0  0
  -14.8846  -43.6937  -21.1939 C   0  0  0  0  0  0  0  0  0  0  0  0
  -15.8419  -44.3709  -20.4088 C   0  0  0  0  0  0  0  0  0  0  0  0
  -15.7180  -44.2063  -19.0094 C   0  0  0  0  0  0  0  0  0  0  0  0
  -18.6050  -46.4328  -22.7107 C   0  0  0  0  0  0  0  0  0  0  0  0
  -18.8629  -46.6866  -21.2360 C   0  0  0  0  0  0  0  0  0  0  0  0
  -18.3597  -45.4511  -20.4769 C   0  0  2  0  0  0  0  0  0  0  0  0
  -16.8473  -45.3952  -20.9380 C   0  0  1  0  0  0  0  0  0  0  0  0
  -17.1435  -45.3814  -22.7378 S   0  0  0  0  0  0  0  0  0  0  0  0
  -19.5134  -43.9664  -18.5378 C   0  0  1  0  0  0  0  0  0  0  0  0
  -18.7277  -45.6389  -18.6975 S   0  0  0  0  0  0  0  0  0  0  0  0
  -19.1807  -44.2969  -20.9029 N   0  0  0  0  0  0  0  0  0  0  0  0
  -19.1250  -43.2836  -19.8650 C   0  0  1  0  0  0  0  0  0  0  0  0
  -13.7481  -43.5320  -16.5545 H   0  0  0  0  0  0  0  0  0  0  0  0
  -15.4939  -43.7775  -16.4275 H   0  0  0  0  0  0  0  0  0  0  0  0
  -16.0071  -41.4005  -18.0224 H   0  0  0  0  0  0  0  0  0  0  0  0
  -14.1403  -42.0232  -23.1832 H   0  0  0  0  0  0  0  0  0  0  0  0
  -14.9683  -43.0297  -24.3786 H   0  0  0  0  0  0  0  0  0  0  0  0
  -15.9144  -42.2504  -23.0972 H   0  0  0  0  0  0  0  0  0  0  0  0
  -21.3350  -47.1960  -15.8762 H   0  0  0  0  0  0  0  0  0  0  0  0
  -23.1478  -46.9926  -14.1727 H   0  0  0  0  0  0  0  0  0  0  0  0
  -22.8018  -45.4114  -14.8771 H   0  0  0  0  0  0  0  0  0  0  0  0
  -24.2383  -46.3029  -15.3858 H   0  0  0  0  0  0  0  0  0  0  0  0
  -22.9414  -49.0907  -15.5743 H   0  0  0  0  0  0  0  0  0  0  0  0
  -23.9445  -48.4464  -16.8704 H   0  0  0  0  0  0  0  0  0  0  0  0
  -22.3080  -49.0008  -17.2277 H   0  0  0  0  0  0  0  0  0  0  0  0
  -20.9812  -45.1704  -16.3642 H   0  0  0  0  0  0  0  0  0  0  0  0
  -21.6155  -44.1710  -19.0912 H   0  0  0  0  0  0  0  0  0  0  0  0
  -20.9265  -42.5937  -16.5444 H   0  0  0  0  0  0  0  0  0  0  0  0
  -21.3378  -41.8558  -18.0968 H   0  0  0  0  0  0  0  0  0  0  0  0
  -22.5372  -42.8044  -17.2277 H   0  0  0  0  0  0  0  0  0  0  0  0
  -19.8374  -41.2606  -19.6343 H   0  0  0  0  0  0  0  0  0  0  0  0
  -19.6371  -41.7478  -21.3117 H   0  0  0  0  0  0  0  0  0  0  0  0
  -21.0129  -42.3489  -20.3848 H   0  0  0  0  0  0  0  0  0  0  0  0
  -13.0299  -42.1271  -18.8065 H   0  0  0  0  0  0  0  0  0  0  0  0
  -13.0942  -42.4834  -21.2181 H   0  0  0  0  0  0  0  0  0  0  0  0
  -16.3464  -44.7731  -18.3357 H   0  0  0  0  0  0  0  0  0  0  0  0
  -18.4857  -47.3598  -23.2729 H   0  0  0  0  0  0  0  0  0  0  0  0
  -19.3751  -45.8359  -23.1946 H   0  0  0  0  0  0  0  0  0  0  0  0
  -19.9100  -46.8991  -21.0336 H   0  0  0  0  0  0  0  0  0  0  0  0
  -18.3064  -47.5805  -20.9256 H   0  0  0  0  0  0  0  0  0  0  0  0
  -16.3775  -46.3660  -20.7219 H   0  0  0  0  0  0  0  0  0  0  0  0
  -18.9751  -43.4574  -17.7303 H   0  0  0  0  0  0  0  0  0  0  0  0
  -18.7914  -43.9400  -21.7801 H   0  0  0  0  0  0  0  0  0  0  0  0
  -18.0992  -42.9067  -19.7764 H   0  0  0  0  0  0  0  0  0  0  0  0
  2  6  1  0
  4  5  2  0
  1  5  1  0
  5  3  1  0
 11  9  1  0
 10  9  1  0
  9  8  1  0
  8  7  2  0
 12  8  1  0
 13 12  1  0
 13 14  1  0
 16 21  2  0
 16  1  1  0
 16 17  1  0
 17 18  2  0
 18 19  1  0
 19 20  2  0
 19  2  1  0
 20 25  1  0
 20 21  1  0
 22 23  1  0
 22 26  1  0
 23 24  1  0
 24 25  1  0
 25 26  1  0
 27 13  1  0
 27 28  1  0
 27 30  1  0
 29 30  1  0
 30 15  1  0
 24 28  1  6
 24 29  1  0
  1 31  1  0
  1 32  1  0
  3 33  1  0
  6 34  1  0
  6 35  1  0
  6 36  1  0
  9 37  1  0
 10 38  1  0
 10 39  1  0
 10 40  1  0
 11 41  1  0
 11 42  1  0
 11 43  1  0
 12 44  1  0
 13 45  1  6
 14 46  1  0
 14 47  1  0
 14 48  1  0
 15 49  1  0
 15 50  1  0
 15 51  1  0
 17 52  1  0
 18 53  1  0
 21 54  1  0
 22 55  1  0
 22 56  1  0
 23 57  1  0
 23 58  1  0
 25 59  1  6
 27 60  1  1
 29 61  1  0
 30 62  1  1
M  END
>  <smiles>  (556) 
[H]OC(=O)C([H])([H])c1c([H])c([H])c(OC([H])([H])[H])c([C@]2([H])SC([H])([H])C([H])([H])[C@]23S[C@]([H])([C@@]([H])(N([H])C(=O)C([H])(C([H])([H])[H])C([H])([H])[H])C([H])([H])[H])[C@]([H])(C([H])([H])[H])N3[H])c1[H]

>  <error>  (556) 


>  <∆∆G>  (556) 
-282.038935

>  <∆G_bound>  (556) 
108.6871

>  <∆G_unbound>  (556) 
390.726034

>  <comRMSD>  (556) 
1.219463

>  <N_constrained_atoms>  (556) 
30.0

>  <N_unconstrained_atoms>  (556) 
0.0

>  <runtime>  (556) 
82.919945

>  <regarded>  (556) 
['6h80-a', 'd0264a']

>  <disregarded>  (556) 
[]

>  <LE>  (556) 
9.401298

>  <outcome>  (556) 
too moved

>  <percent_hybrid>  (556) 
44.0

$$$$
LIG
     RDKit          3D

 29 30  0  0  0  0  0  0  0  0999 V2000
  -15.5228  -43.3915  -17.0691 C   0  0  0  0  0  0  0  0  0  0  0  0
  -14.9432  -44.2521  -22.6679 O   0  0  0  0  0  0  0  0  0  0  0  0
  -15.5378  -40.9877  -17.1891 O   0  0  0  0  0  0  0  0  0  0  0  0
  -14.1932  -41.9557  -15.6561 O   0  0  0  0  0  0  0  0  0  0  0  0
  -15.0070  -42.0633  -16.5625 C   0  0  0  0  0  0  0  0  0  0  0  0
  -14.8691  -43.0445  -23.4223 C   0  0  0  0  0  0  0  0  0  0  0  0
  -15.3634  -43.6144  -18.5566 C   0  0  0  0  0  0  0  0  0  0  0  0
  -14.1999  -43.2139  -19.2276 C   0  0  0  0  0  0  0  0  0  0  0  0
  -14.0699  -43.4114  -20.6022 C   0  0  0  0  0  0  0  0  0  0  0  0
  -15.0982  -44.0167  -21.3253 C   0  0  0  0  0  0  0  0  0  0  0  0
  -16.2366  -44.5064  -20.6634 C   0  0  0  0  0  0  0  0  0  0  0  0
  -16.3609  -44.2917  -19.2798 C   0  0  0  0  0  0  0  0  0  0  0  0
  -18.7243  -46.1641  -23.1234 C   0  0  0  0  0  0  0  0  0  0  0  0
  -18.5020  -47.0994  -22.1384 C   0  0  0  0  0  0  0  0  0  0  0  0
  -17.6422  -46.5998  -21.1214 C   0  0  0  0  0  0  0  0  0  0  0  0
  -17.2460  -45.2990  -21.3694 C   0  0  0  0  0  0  0  0  0  0  0  0
  -18.0896  -44.6388  -22.7094 S   0  0  0  0  0  0  0  0  0  0  0  0
  -14.9911  -44.1922  -16.5422 H   0  0  0  0  0  0  0  0  0  0  0  0
  -16.5789  -43.4472  -16.7823 H   0  0  0  0  0  0  0  0  0  0  0  0
  -16.1561  -41.2234  -17.9083 H   0  0  0  0  0  0  0  0  0  0  0  0
  -14.0288  -42.4177  -23.1179 H   0  0  0  0  0  0  0  0  0  0  0  0
  -14.7318  -43.3126  -24.4736 H   0  0  0  0  0  0  0  0  0  0  0  0
  -15.8005  -42.4750  -23.3348 H   0  0  0  0  0  0  0  0  0  0  0  0
  -13.3706  -42.7480  -18.6947 H   0  0  0  0  0  0  0  0  0  0  0  0
  -13.1417  -43.1329  -21.0981 H   0  0  0  0  0  0  0  0  0  0  0  0
  -17.2502  -44.6558  -18.7687 H   0  0  0  0  0  0  0  0  0  0  0  0
  -19.2565  -46.2964  -24.0558 H   0  0  0  0  0  0  0  0  0  0  0  0
  -18.8712  -48.1161  -22.1899 H   0  0  0  0  0  0  0  0  0  0  0  0
  -17.2603  -47.2006  -20.3058 H   0  0  0  0  0  0  0  0  0  0  0  0
  2  6  1  0
  4  5  2  0
  1  5  1  0
  5  3  1  0
  7 12  2  0
  7  1  1  0
  7  8  1  0
  8  9  2  0
  9 10  1  0
 10 11  2  0
 10  2  1  0
 11 16  1  0
 11 12  1  0
 13 14  2  0
 13 17  1  0
 14 15  1  0
 15 16  2  0
 16 17  1  0
  1 18  1  0
  1 19  1  0
  3 20  1  0
  6 21  1  0
  6 22  1  0
  6 23  1  0
  8 24  1  0
  9 25  1  0
 12 26  1  0
 13 27  1  0
 14 28  1  0
 15 29  1  0
M  END
>  <smiles>  (557) 
[H]OC(=O)C([H])([H])c1c([H])c([H])c(OC([H])([H])[H])c(-c2sc([H])c([H])c2[H])c1[H]

>  <error>  (557) 


>  <∆∆G>  (557) 
-47.785208

>  <∆G_bound>  (557) 
-55.470018

>  <∆G_unbound>  (557) 
-7.684811

>  <comRMSD>  (557) 
1.17988

>  <N_constrained_atoms>  (557) 
17.0

>  <N_unconstrained_atoms>  (557) 
0.0

>  <runtime>  (557) 
1.537417

>  <regarded>  (557) 
['6h80-a', 'd0472a']

>  <disregarded>  (557) 
[]

>  <LE>  (557) 
2.810895

>  <outcome>  (557) 
equally sized

>  <percent_hybrid>  (557) 
0.0

$$$$

     RDKit          2D

  0  0  0  0  0  0  0  0  0  0999 V2000
M  END
>  <smiles>  (558) 
nan

>  <error>  (558) 
FragmensteinError Ideal compound failed. Something is wrong with the SMILES

>  <∆∆G>  (558) 
nan

>  <∆G_bound>  (558) 
nan

>  <∆G_unbound>  (558) 
nan

>  <comRMSD>  (558) 
nan

>  <N_constrained_atoms>  (558) 
nan

>  <N_unconstrained_atoms>  (558) 
nan

>  <runtime>  (558) 
nan

>  <regarded>  (558) 
[]

>  <disregarded>  (558) 
[]

>  <LE>  (558) 
nan

>  <outcome>  (558) 
crashed

>  <percent_hybrid>  (558) 
nan

$$$$
LIG
     RDKit          3D

 61 64  0  0  0  0  0  0  0  0999 V2000
  -15.8285  -42.9548  -17.5540 C   0  0  0  0  0  0  0  0  0  0  0  0
  -17.4035  -42.0493  -15.9690 O   0  0  0  0  0  0  0  0  0  0  0  0
  -16.4641  -40.6264  -17.4315 O   0  0  0  0  0  0  0  0  0  0  0  0
  -16.5875  -41.7653  -17.0033 C   0  0  0  0  0  0  0  0  0  0  0  0
  -17.8818  -44.1305  -24.4824 F   0  0  0  0  0  0  0  0  0  0  0  0
  -15.2100  -40.1731  -24.2409 N   0  0  0  0  0  0  0  0  0  0  0  0
  -15.3538  -39.7880  -25.6514 C   0  0  0  0  0  0  0  0  0  0  0  0
  -19.2403  -36.2149  -25.0946 C   0  0  0  0  0  0  0  0  0  0  0  0
  -15.6954  -42.8927  -19.0954 C   0  0  1  0  0  0  0  0  0  0  0  0
  -14.6113  -43.8416  -19.6032 C   0  0  0  0  0  0  0  0  0  0  0  0
  -14.5652  -44.0758  -21.1247 C   0  0  0  0  0  0  0  0  0  0  0  0
  -15.6788  -43.4233  -22.0028 C   0  0  1  0  0  0  0  0  0  0  0  0
  -17.0392  -43.6037  -21.2221 C   0  0  2  0  0  0  0  0  0  0  0  0
  -17.0550  -43.1068  -19.7636 C   0  0  0  0  0  0  0  0  0  0  0  0
  -18.6494  -47.0945  -22.0397 C   0  0  0  0  0  0  0  0  0  0  0  0
  -17.6413  -47.3706  -21.1524 C   0  0  0  0  0  0  0  0  0  0  0  0
  -17.0432  -46.1895  -20.6417 C   0  0  0  0  0  0  0  0  0  0  0  0
  -17.5339  -45.0486  -21.2486 C   0  0  0  0  0  0  0  0  0  0  0  0
  -18.9112  -45.4202  -22.1817 S   0  0  0  0  0  0  0  0  0  0  0  0
  -16.6247  -43.6253  -24.4760 C   0  0  1  0  0  0  0  0  0  0  0  0
  -16.7327  -42.1250  -24.4531 C   0  0  0  0  0  0  0  0  0  0  0  0
  -15.4097  -41.5879  -23.9339 C   0  0  2  0  0  0  0  0  0  0  0  0
  -15.3673  -41.8855  -22.3733 C   0  0  2  0  0  0  0  0  0  0  0  0
  -15.7355  -44.2070  -23.3620 C   0  0  0  0  0  0  0  0  0  0  0  0
  -17.4496  -38.8389  -26.8807 C   0  0  0  0  0  0  0  0  0  0  0  0
  -18.4779  -37.9155  -26.7470 N   0  0  0  0  0  0  0  0  0  0  0  0
  -18.3267  -37.2693  -25.6079 C   0  0  0  0  0  0  0  0  0  0  0  0
  -16.9548  -37.6973  -24.6785 S   0  0  0  0  0  0  0  0  0  0  0  0
  -16.5463  -38.9007  -25.8363 C   0  0  0  0  0  0  0  0  0  0  0  0
  -14.0384  -41.3719  -21.8257 C   0  0  0  0  0  0  0  0  0  0  0  0
  -14.8401  -42.9483  -17.0804 H   0  0  0  0  0  0  0  0  0  0  0  0
  -16.3288  -43.8842  -17.2661 H   0  0  0  0  0  0  0  0  0  0  0  0
  -17.4765  -42.9790  -15.6646 H   0  0  0  0  0  0  0  0  0  0  0  0
  -14.2802  -39.8866  -23.9450 H   0  0  0  0  0  0  0  0  0  0  0  0
  -14.4609  -39.2329  -25.9566 H   0  0  0  0  0  0  0  0  0  0  0  0
  -15.3885  -40.6509  -26.3262 H   0  0  0  0  0  0  0  0  0  0  0  0
  -19.6567  -36.4957  -24.1219 H   0  0  0  0  0  0  0  0  0  0  0  0
  -18.7160  -35.2594  -24.9923 H   0  0  0  0  0  0  0  0  0  0  0  0
  -20.0757  -36.0663  -25.7866 H   0  0  0  0  0  0  0  0  0  0  0  0
  -15.3823  -41.8745  -19.3470 H   0  0  0  0  0  0  0  0  0  0  0  0
  -13.6306  -43.4710  -19.2767 H   0  0  0  0  0  0  0  0  0  0  0  0
  -14.7207  -44.8120  -19.1050 H   0  0  0  0  0  0  0  0  0  0  0  0
  -13.5651  -43.8413  -21.5049 H   0  0  0  0  0  0  0  0  0  0  0  0
  -14.6210  -45.1582  -21.2691 H   0  0  0  0  0  0  0  0  0  0  0  0
  -17.7902  -43.0002  -21.7521 H   0  0  0  0  0  0  0  0  0  0  0  0
  -17.6842  -43.7592  -19.1430 H   0  0  0  0  0  0  0  0  0  0  0  0
  -17.5763  -42.1385  -19.7506 H   0  0  0  0  0  0  0  0  0  0  0  0
  -19.2447  -47.8129  -22.5847 H   0  0  0  0  0  0  0  0  0  0  0  0
  -17.3209  -48.3752  -20.9074 H   0  0  0  0  0  0  0  0  0  0  0  0
  -16.2166  -46.2056  -19.9481 H   0  0  0  0  0  0  0  0  0  0  0  0
  -16.1789  -43.9202  -25.4312 H   0  0  0  0  0  0  0  0  0  0  0  0
  -16.9846  -41.8000  -25.4669 H   0  0  0  0  0  0  0  0  0  0  0  0
  -17.5720  -41.7973  -23.8277 H   0  0  0  0  0  0  0  0  0  0  0  0
  -14.5743  -42.1148  -24.4153 H   0  0  0  0  0  0  0  0  0  0  0  0
  -16.1506  -41.2731  -21.9044 H   0  0  0  0  0  0  0  0  0  0  0  0
  -15.9816  -45.2589  -23.2110 H   0  0  0  0  0  0  0  0  0  0  0  0
  -14.7064  -44.2255  -23.7495 H   0  0  0  0  0  0  0  0  0  0  0  0
  -17.4085  -39.4533  -27.7721 H   0  0  0  0  0  0  0  0  0  0  0  0
  -13.9474  -41.4872  -20.7471 H   0  0  0  0  0  0  0  0  0  0  0  0
  -13.1916  -41.8781  -22.2726 H   0  0  0  0  0  0  0  0  0  0  0  0
  -13.9137  -40.2978  -21.9928 H   0  0  0  0  0  0  0  0  0  0  0  0
  3  4  2  0
  1  4  1  0
  4  2  1  0
  7  6  1  0
  9 14  1  0
  9  1  1  0
  9 10  1  0
 10 11  1  0
 12 11  1  1
 12 13  1  0
 13 18  1  0
 13 14  1  0
 15 16  2  0
 15 19  1  0
 16 17  1  0
 17 18  2  0
 18 19  1  0
 20 24  1  0
 20  5  1  0
 20 21  1  0
 21 22  1  0
 22  6  1  0
 22 23  1  0
 25 26  1  0
 25 29  2  0
 26 27  2  0
 27  8  1  0
 27 28  1  0
 28 29  1  0
 29  7  1  0
 12 23  1  0
 12 24  1  0
 23 30  1  0
  1 31  1  0
  1 32  1  0
  2 33  1  0
  6 34  1  0
  7 35  1  0
  7 36  1  0
  8 37  1  0
  8 38  1  0
  8 39  1  0
  9 40  1  1
 10 41  1  0
 10 42  1  0
 11 43  1  0
 11 44  1  0
 13 45  1  6
 14 46  1  0
 14 47  1  0
 15 48  1  0
 16 49  1  0
 17 50  1  0
 20 51  1  6
 21 52  1  0
 21 53  1  0
 22 54  1  6
 23 55  1  1
 24 56  1  0
 24 57  1  0
 25 58  1  0
 30 59  1  0
 30 60  1  0
 30 61  1  0
M  END
>  <smiles>  (559) 
[H]OC(=O)C([H])([H])[C@@]1([H])C([H])([H])C([H])([H])[C@@]2(C([H])([H])[C@@]([H])(F)C([H])([H])[C@@]([H])(N([H])C([H])([H])c3sc(C([H])([H])[H])nc3[H])[C@]2([H])C([H])([H])[H])[C@@]([H])(c2sc([H])c([H])c2[H])C1([H])[H]

>  <error>  (559) 


>  <∆∆G>  (559) 
-101.237935

>  <∆G_bound>  (559) 
119.1367

>  <∆G_unbound>  (559) 
220.374636

>  <comRMSD>  (559) 
1.338081

>  <N_constrained_atoms>  (559) 
30.0

>  <N_unconstrained_atoms>  (559) 
0.0

>  <runtime>  (559) 
6.93789

>  <regarded>  (559) 
['6h80-a', 'd0615b']

>  <disregarded>  (559) 
[]

>  <LE>  (559) 
3.374598

>  <outcome>  (559) 
too moved

>  <percent_hybrid>  (559) 
47.0

$$$$
LIG
     RDKit          3D

 57 59  0  0  0  0  0  0  0  0999 V2000
  -15.1724  -43.7637  -17.1198 C   0  0  0  0  0  0  0  0  0  0  0  0
  -15.1338  -43.9999  -22.8299 O   0  0  0  0  0  0  0  0  0  0  0  0
  -14.0139  -41.8548  -16.2361 O   0  0  0  0  0  0  0  0  0  0  0  0
  -12.9890  -43.8643  -16.1093 O   0  0  0  0  0  0  0  0  0  0  0  0
  -13.9599  -43.1906  -16.4291 C   0  0  0  0  0  0  0  0  0  0  0  0
  -14.6726  -42.8272  -23.5171 C   0  0  0  0  0  0  0  0  0  0  0  0
  -15.1128  -43.8173  -18.6272 C   0  0  0  0  0  0  0  0  0  0  0  0
  -14.0295  -43.3312  -19.3626 C   0  0  0  0  0  0  0  0  0  0  0  0
  -14.0261  -43.4029  -20.7574 C   0  0  0  0  0  0  0  0  0  0  0  0
  -15.1126  -43.9364  -21.4560 C   0  0  0  0  0  0  0  0  0  0  0  0
  -16.1691  -44.5217  -20.7323 C   0  0  0  0  0  0  0  0  0  0  0  0
  -16.1673  -44.4303  -19.3265 C   0  0  0  0  0  0  0  0  0  0  0  0
  -18.7345  -46.2409  -23.0658 C   0  0  0  0  0  0  0  0  0  0  0  0
  -18.4496  -47.1674  -22.0904 C   0  0  0  0  0  0  0  0  0  0  0  0
  -17.5538  -46.6430  -21.1184 C   0  0  0  0  0  0  0  0  0  0  0  0
  -17.2064  -45.3298  -21.3835 C   0  0  0  0  0  0  0  0  0  0  0  0
  -18.1686  -44.6917  -22.6471 S   0  0  0  0  0  0  0  0  0  0  0  0
  -19.7486  -39.2602  -24.6042 O   0  0  0  0  0  0  0  0  0  0  0  0
  -19.1511  -39.7021  -25.8458 S   0  0  0  0  0  0  0  0  0  0  0  0
  -18.8595  -38.7514  -26.9017 O   0  0  0  0  0  0  0  0  0  0  0  0
  -20.2158  -40.9580  -26.5178 C   0  0  0  0  0  0  0  0  0  0  0  0
  -16.2679  -41.0798  -27.3867 C   0  0  0  0  0  0  0  0  0  0  0  0
  -16.4687  -38.3024  -25.0087 C   0  0  0  0  0  0  0  0  0  0  0  0
  -16.1387  -38.2434  -26.3894 O   0  0  0  0  0  0  0  0  0  0  0  0
  -17.7262  -40.4819  -25.4317 N   0  0  0  0  0  0  0  0  0  0  0  0
  -17.1442  -41.5704  -26.2396 C   0  0  2  0  0  0  0  0  0  0  0  0
  -16.4461  -42.5970  -25.3334 C   0  0  0  0  0  0  0  0  0  0  0  0
  -15.8634  -42.0106  -24.0387 C   0  0  2  0  0  0  0  0  0  0  0  0
  -15.5036  -40.5392  -24.2487 C   0  0  0  0  0  0  0  0  0  0  0  0
  -16.7825  -39.7324  -24.5287 C   0  0  1  0  0  0  0  0  0  0  0  0
  -15.2694  -44.7881  -16.7465 H   0  0  0  0  0  0  0  0  0  0  0  0
  -16.0650  -43.2172  -16.7939 H   0  0  0  0  0  0  0  0  0  0  0  0
  -14.8309  -41.4361  -16.5702 H   0  0  0  0  0  0  0  0  0  0  0  0
  -14.0525  -42.1820  -22.8908 H   0  0  0  0  0  0  0  0  0  0  0  0
  -14.0400  -43.1647  -24.3447 H   0  0  0  0  0  0  0  0  0  0  0  0
  -13.1453  -42.9140  -18.8808 H   0  0  0  0  0  0  0  0  0  0  0  0
  -13.1255  -43.0853  -21.2790 H   0  0  0  0  0  0  0  0  0  0  0  0
  -16.9989  -44.8609  -18.7713 H   0  0  0  0  0  0  0  0  0  0  0  0
  -19.2919  -46.3942  -23.9782 H   0  0  0  0  0  0  0  0  0  0  0  0
  -18.7865  -48.1955  -22.1280 H   0  0  0  0  0  0  0  0  0  0  0  0
  -17.1097  -47.2363  -20.3285 H   0  0  0  0  0  0  0  0  0  0  0  0
  -21.2203  -40.5338  -26.5918 H   0  0  0  0  0  0  0  0  0  0  0  0
  -19.8724  -41.2251  -27.5137 H   0  0  0  0  0  0  0  0  0  0  0  0
  -20.2340  -41.8152  -25.8428 H   0  0  0  0  0  0  0  0  0  0  0  0
  -15.3470  -40.6000  -27.0526 H   0  0  0  0  0  0  0  0  0  0  0  0
  -15.9705  -41.9215  -28.0190 H   0  0  0  0  0  0  0  0  0  0  0  0
  -16.8024  -40.3623  -28.0166 H   0  0  0  0  0  0  0  0  0  0  0  0
  -15.6365  -37.8878  -24.4325 H   0  0  0  0  0  0  0  0  0  0  0  0
  -17.3233  -37.6381  -24.8398 H   0  0  0  0  0  0  0  0  0  0  0  0
  -16.9806  -38.3332  -26.8798 H   0  0  0  0  0  0  0  0  0  0  0  0
  -17.9659  -42.1253  -26.6879 H   0  0  0  0  0  0  0  0  0  0  0  0
  -17.1748  -43.3674  -25.0592 H   0  0  0  0  0  0  0  0  0  0  0  0
  -15.6838  -43.1272  -25.9078 H   0  0  0  0  0  0  0  0  0  0  0  0
  -16.6509  -42.0446  -23.2737 H   0  0  0  0  0  0  0  0  0  0  0  0
  -15.0299  -40.1331  -23.3455 H   0  0  0  0  0  0  0  0  0  0  0  0
  -14.7625  -40.4310  -25.0464 H   0  0  0  0  0  0  0  0  0  0  0  0
  -17.2928  -39.6428  -23.5589 H   0  0  0  0  0  0  0  0  0  0  0  0
  2  6  1  0
  4  5  2  0
  1  5  1  0
  5  3  1  0
  7 12  2  0
  7  1  1  0
  7  8  1  0
  8  9  2  0
  9 10  1  0
 10 11  2  0
 10  2  1  0
 11 16  1  0
 11 12  1  0
 13 14  2  0
 13 17  1  0
 14 15  1  0
 15 16  2  0
 16 17  1  0
 24 23  1  0
 21 19  1  0
 20 19  2  0
 19 18  2  0
 25 30  1  0
 25 19  1  0
 25 26  1  0
 26 22  1  0
 26 27  1  0
 27 28  1  0
 28 29  1  0
 29 30  1  0
 30 23  1  0
  6 28  1  0
  1 31  1  0
  1 32  1  0
  3 33  1  0
  6 34  1  0
  6 35  1  0
  8 36  1  0
  9 37  1  0
 12 38  1  0
 13 39  1  0
 14 40  1  0
 15 41  1  0
 21 42  1  0
 21 43  1  0
 21 44  1  0
 22 45  1  0
 22 46  1  0
 22 47  1  0
 23 48  1  0
 23 49  1  0
 24 50  1  0
 26 51  1  6
 27 52  1  0
 27 53  1  0
 28 54  1  1
 29 55  1  0
 29 56  1  0
 30 57  1  1
M  END
>  <smiles>  (560) 
[H]OC(=O)C([H])([H])c1c([H])c([H])c(OC([H])([H])[C@]2([H])C([H])([H])[C@]([H])(C([H])([H])[H])N(S(=O)(=O)C([H])([H])[H])[C@]([H])(C([H])([H])O[H])C2([H])[H])c(-c2sc([H])c([H])c2[H])c1[H]

>  <error>  (560) 


>  <∆∆G>  (560) 
-90.800402

>  <∆G_bound>  (560) 
133.925638

>  <∆G_unbound>  (560) 
224.726039

>  <comRMSD>  (560) 
1.132697

>  <N_constrained_atoms>  (560) 
30.0

>  <N_unconstrained_atoms>  (560) 
0.0

>  <runtime>  (560) 
6.352823

>  <regarded>  (560) 
['6h80-a', 'd0851a']

>  <disregarded>  (560) 
[]

>  <LE>  (560) 
3.02668

>  <outcome>  (560) 
too moved

>  <percent_hybrid>  (560) 
44.0

$$$$
LIG
     RDKit          3D

 64 67  0  0  0  0  0  0  0  0999 V2000
  -15.5106  -43.1348  -17.1117 C   0  0  0  0  0  0  0  0  0  0  0  0
  -15.1274  -44.0405  -22.7203 O   0  0  0  0  0  0  0  0  0  0  0  0
  -16.1700  -40.8555  -17.5746 O   0  0  0  0  0  0  0  0  0  0  0  0
  -14.7778  -41.2178  -15.8397 O   0  0  0  0  0  0  0  0  0  0  0  0
  -15.4299  -41.6597  -16.7758 C   0  0  0  0  0  0  0  0  0  0  0  0
  -15.0604  -42.8092  -23.4833 C   0  0  0  0  0  0  0  0  0  0  0  0
  -18.7871  -37.0717  -26.1770 O   0  0  0  0  0  0  0  0  0  0  0  0
  -17.8508  -37.0875  -25.4594 C   0  0  0  0  0  0  0  0  0  0  0  0
  -18.7643  -39.9553  -25.0641 C   0  0  0  0  0  0  0  0  0  0  0  0
  -16.6636  -41.9546  -23.7073 S   0  0  0  0  0  0  0  0  0  0  0  0
  -17.0905  -41.4165  -22.4289 O   0  0  0  0  0  0  0  0  0  0  0  0
  -17.5408  -42.7916  -24.5030 O   0  0  0  0  0  0  0  0  0  0  0  0
  -15.3646  -43.4496  -18.5831 C   0  0  0  0  0  0  0  0  0  0  0  0
  -14.2848  -42.9415  -19.3146 C   0  0  0  0  0  0  0  0  0  0  0  0
  -14.2030  -43.1449  -20.6923 C   0  0  0  0  0  0  0  0  0  0  0  0
  -15.1983  -43.8598  -21.3619 C   0  0  0  0  0  0  0  0  0  0  0  0
  -16.2192  -44.4910  -20.6236 C   0  0  0  0  0  0  0  0  0  0  0  0
  -16.3007  -44.2613  -19.2387 C   0  0  0  0  0  0  0  0  0  0  0  0
  -18.6502  -46.5464  -22.8275 C   0  0  0  0  0  0  0  0  0  0  0  0
  -18.2143  -47.4129  -21.8560 C   0  0  0  0  0  0  0  0  0  0  0  0
  -17.3385  -46.7764  -20.9331 C   0  0  0  0  0  0  0  0  0  0  0  0
  -17.1576  -45.4383  -21.2300 C   0  0  0  0  0  0  0  0  0  0  0  0
  -18.2419  -44.9426  -22.4511 S   0  0  0  0  0  0  0  0  0  0  0  0
  -17.9264  -36.1581  -23.1292 C   0  0  0  0  0  0  0  0  0  0  0  0
  -19.3543  -35.6631  -23.0483 C   0  0  0  0  0  0  0  0  0  0  0  0
  -19.2314  -34.4788  -23.9342 C   0  0  0  0  0  0  0  0  0  0  0  0
  -17.7631  -34.6009  -24.2829 C   0  0  0  0  0  0  0  0  0  0  0  0
  -17.3175  -36.0197  -24.5104 N   0  0  0  0  0  0  0  0  0  0  0  0
  -17.3670  -39.4838  -24.6373 C   0  0  2  0  0  0  0  0  0  0  0  0
  -16.8511  -38.2614  -25.4282 C   0  0  1  0  0  0  0  0  0  0  0  0
  -16.4918  -38.6392  -26.8700 C   0  0  0  0  0  0  0  0  0  0  0  0
  -15.5032  -39.7957  -26.8910 C   0  0  0  0  0  0  0  0  0  0  0  0
  -16.0038  -40.9879  -26.1076 C   0  0  0  0  0  0  0  0  0  0  0  0
  -16.3265  -40.6016  -24.7070 N   0  0  0  0  0  0  0  0  0  0  0  0
  -14.7207  -43.6633  -16.5654 H   0  0  0  0  0  0  0  0  0  0  0  0
  -16.4735  -43.4909  -16.7317 H   0  0  0  0  0  0  0  0  0  0  0  0
  -16.6300  -41.3277  -18.2978 H   0  0  0  0  0  0  0  0  0  0  0  0
  -14.3563  -42.0848  -23.0656 H   0  0  0  0  0  0  0  0  0  0  0  0
  -14.7160  -43.0959  -24.4793 H   0  0  0  0  0  0  0  0  0  0  0  0
  -19.1192  -40.7841  -24.4456 H   0  0  0  0  0  0  0  0  0  0  0  0
  -19.5041  -39.1589  -24.9395 H   0  0  0  0  0  0  0  0  0  0  0  0
  -18.7953  -40.2837  -26.1067 H   0  0  0  0  0  0  0  0  0  0  0  0
  -13.4991  -42.3649  -18.8258 H   0  0  0  0  0  0  0  0  0  0  0  0
  -13.3345  -42.7654  -21.2260 H   0  0  0  0  0  0  0  0  0  0  0  0
  -17.1184  -44.7106  -18.6779 H   0  0  0  0  0  0  0  0  0  0  0  0
  -19.2158  -46.7847  -23.7162 H   0  0  0  0  0  0  0  0  0  0  0  0
  -18.4217  -48.4724  -21.8810 H   0  0  0  0  0  0  0  0  0  0  0  0
  -16.7983  -47.3014  -20.1553 H   0  0  0  0  0  0  0  0  0  0  0  0
  -17.9314  -37.2244  -22.8802 H   0  0  0  0  0  0  0  0  0  0  0  0
  -17.2638  -35.7151  -22.3652 H   0  0  0  0  0  0  0  0  0  0  0  0
  -20.0634  -36.3920  -23.4547 H   0  0  0  0  0  0  0  0  0  0  0  0
  -19.6499  -35.4188  -22.0243 H   0  0  0  0  0  0  0  0  0  0  0  0
  -19.8685  -34.5779  -24.8196 H   0  0  0  0  0  0  0  0  0  0  0  0
  -19.4623  -33.5308  -23.4403 H   0  0  0  0  0  0  0  0  0  0  0  0
  -17.6101  -34.1016  -25.2493 H   0  0  0  0  0  0  0  0  0  0  0  0
  -17.0874  -34.0729  -23.5892 H   0  0  0  0  0  0  0  0  0  0  0  0
  -17.4282  -39.1833  -23.5858 H   0  0  0  0  0  0  0  0  0  0  0  0
  -15.9274  -37.9188  -24.9429 H   0  0  0  0  0  0  0  0  0  0  0  0
  -17.3889  -38.9145  -27.4385 H   0  0  0  0  0  0  0  0  0  0  0  0
  -16.0597  -37.7723  -27.3843 H   0  0  0  0  0  0  0  0  0  0  0  0
  -15.3430  -40.1260  -27.9206 H   0  0  0  0  0  0  0  0  0  0  0  0
  -14.5376  -39.4649  -26.4913 H   0  0  0  0  0  0  0  0  0  0  0  0
  -16.8801  -41.4176  -26.6044 H   0  0  0  0  0  0  0  0  0  0  0  0
  -15.2208  -41.7472  -26.1076 H   0  0  0  0  0  0  0  0  0  0  0  0
  2  6  1  0
  4  5  2  0
  1  5  1  0
  5  3  1  0
 11 10  2  0
 12 10  2  0
  8  7  2  0
 10  6  1  0
 13 18  2  0
 13  1  1  0
 13 14  1  0
 14 15  2  0
 15 16  1  0
 16 17  2  0
 16  2  1  0
 17 22  1  0
 17 18  1  0
 19 20  2  0
 19 23  1  0
 20 21  1  0
 21 22  2  0
 22 23  1  0
 24 25  1  0
 24 28  1  0
 25 26  1  0
 26 27  1  0
 27 28  1  0
 28  8  1  0
 29  9  1  0
 29 34  1  0
 29 30  1  0
 30 31  1  0
 30  8  1  0
 31 32  1  0
 32 33  1  0
 33 34  1  0
 34 10  1  0
  1 35  1  0
  1 36  1  0
  3 37  1  0
  6 38  1  0
  6 39  1  0
  9 40  1  0
  9 41  1  0
  9 42  1  0
 14 43  1  0
 15 44  1  0
 18 45  1  0
 19 46  1  0
 20 47  1  0
 21 48  1  0
 24 49  1  0
 24 50  1  0
 25 51  1  0
 25 52  1  0
 26 53  1  0
 26 54  1  0
 27 55  1  0
 27 56  1  0
 29 57  1  1
 30 58  1  1
 31 59  1  0
 31 60  1  0
 32 61  1  0
 32 62  1  0
 33 63  1  0
 33 64  1  0
M  END
>  <smiles>  (561) 
[H]OC(=O)C([H])([H])c1c([H])c([H])c(OC([H])([H])S(=O)(=O)N2C([H])([H])C([H])([H])C([H])([H])[C@@]([H])(C(=O)N3C([H])([H])C([H])([H])C([H])([H])C3([H])[H])[C@@]2([H])C([H])([H])[H])c(-c2sc([H])c([H])c2[H])c1[H]

>  <error>  (561) 


>  <∆∆G>  (561) 
-101.681582

>  <∆G_bound>  (561) 
112.895858

>  <∆G_unbound>  (561) 
214.577439

>  <comRMSD>  (561) 
1.009402

>  <N_constrained_atoms>  (561) 
34.0

>  <N_unconstrained_atoms>  (561) 
0.0

>  <runtime>  (561) 
6.717514

>  <regarded>  (561) 
['6h80-a', 'd0866a']

>  <disregarded>  (561) 
[]

>  <LE>  (561) 
2.990635

>  <outcome>  (561) 
too moved

>  <percent_hybrid>  (561) 
50.0

$$$$

     RDKit          2D

  0  0  0  0  0  0  0  0  0  0999 V2000
M  END
>  <smiles>  (562) 
nan

>  <error>  (562) 
DistanceError 5.88 Å

>  <∆∆G>  (562) 
nan

>  <∆G_bound>  (562) 
nan

>  <∆G_unbound>  (562) 
nan

>  <comRMSD>  (562) 
nan

>  <N_constrained_atoms>  (562) 
nan

>  <N_unconstrained_atoms>  (562) 
nan

>  <runtime>  (562) 
nan

>  <regarded>  (562) 
[]

>  <disregarded>  (562) 
[]

>  <LE>  (562) 
nan

>  <outcome>  (562) 
too distant

>  <percent_hybrid>  (562) 
nan

$$$$
LIG
     RDKit          3D

 50 52  0  0  0  0  0  0  0  0999 V2000
  -15.8074  -42.8485  -17.1168 C   0  0  1  0  0  0  0  0  0  0  0  0
  -15.7505  -43.5475  -22.8060 O   0  0  0  0  0  0  0  0  0  0  0  0
  -17.6702  -41.9024  -15.8598 O   0  0  0  0  0  0  0  0  0  0  0  0
  -16.3822  -40.4736  -17.0208 O   0  0  0  0  0  0  0  0  0  0  0  0
  -16.6311  -41.6251  -16.6834 C   0  0  0  0  0  0  0  0  0  0  0  0
  -14.4891  -43.2659  -23.3966 C   0  0  0  0  0  0  0  0  0  0  0  0
  -15.8890  -42.9904  -18.6441 C   0  0  0  0  0  0  0  0  0  0  0  0
  -15.3240  -42.0210  -19.4866 C   0  0  0  0  0  0  0  0  0  0  0  0
  -15.2465  -42.2053  -20.8659 C   0  0  0  0  0  0  0  0  0  0  0  0
  -15.8219  -43.3264  -21.4530 C   0  0  0  0  0  0  0  0  0  0  0  0
  -16.5634  -44.2257  -20.6604 C   0  0  0  0  0  0  0  0  0  0  0  0
  -16.5468  -44.0746  -19.2554 C   0  0  0  0  0  0  0  0  0  0  0  0
  -18.6539  -46.6417  -22.8725 C   0  0  0  0  0  0  0  0  0  0  0  0
  -18.1813  -47.4079  -21.8354 C   0  0  0  0  0  0  0  0  0  0  0  0
  -17.4151  -46.6476  -20.9095 C   0  0  0  0  0  0  0  0  0  0  0  0
  -17.3398  -45.3158  -21.2683 C   0  0  0  0  0  0  0  0  0  0  0  0
  -18.3752  -44.9866  -22.6081 S   0  0  0  0  0  0  0  0  0  0  0  0
  -13.4946  -44.4144  -18.8963 O   0  0  0  0  0  0  0  0  0  0  0  0
  -12.6314  -43.3688  -18.5091 C   0  0  0  0  0  0  0  0  0  0  0  0
  -13.1439  -42.4965  -17.3595 C   0  0  0  0  0  0  0  0  0  0  0  0
  -14.3447  -42.9192  -16.4409 C   0  0  0  0  0  0  0  0  0  0  0  0
  -14.0638  -44.3533  -15.9403 C   0  0  0  0  0  0  0  0  0  0  0  0
  -14.0780  -44.5415  -14.4449 C   0  0  0  0  0  0  0  0  0  0  0  0
  -15.1904  -43.8491  -13.9267 O   0  0  0  0  0  0  0  0  0  0  0  0
  -15.0267  -42.4440  -13.9694 C   0  0  0  0  0  0  0  0  0  0  0  0
  -14.2297  -41.9878  -15.1871 C   0  0  0  0  0  0  0  0  0  0  0  0
  -16.3645  -43.7030  -16.7187 H   0  0  0  0  0  0  0  0  0  0  0  0
  -17.7923  -42.8317  -15.5549 H   0  0  0  0  0  0  0  0  0  0  0  0
  -14.3655  -42.1900  -23.5513 H   0  0  0  0  0  0  0  0  0  0  0  0
  -13.6674  -43.6792  -22.8019 H   0  0  0  0  0  0  0  0  0  0  0  0
  -14.4661  -43.7430  -24.3795 H   0  0  0  0  0  0  0  0  0  0  0  0
  -14.9101  -41.1025  -19.0759 H   0  0  0  0  0  0  0  0  0  0  0  0
  -14.7633  -41.4411  -21.4653 H   0  0  0  0  0  0  0  0  0  0  0  0
  -17.0659  -44.8039  -18.6406 H   0  0  0  0  0  0  0  0  0  0  0  0
  -19.1700  -46.9828  -23.7593 H   0  0  0  0  0  0  0  0  0  0  0  0
  -18.2951  -48.4811  -21.8059 H   0  0  0  0  0  0  0  0  0  0  0  0
  -16.8814  -47.0768  -20.0714 H   0  0  0  0  0  0  0  0  0  0  0  0
  -13.1297  -44.7529  -19.7378 H   0  0  0  0  0  0  0  0  0  0  0  0
  -12.4033  -42.7449  -19.3803 H   0  0  0  0  0  0  0  0  0  0  0  0
  -11.6986  -43.8321  -18.1883 H   0  0  0  0  0  0  0  0  0  0  0  0
  -13.3293  -41.4836  -17.7354 H   0  0  0  0  0  0  0  0  0  0  0  0
  -12.2576  -42.3382  -16.7253 H   0  0  0  0  0  0  0  0  0  0  0  0
  -14.7304  -45.0766  -16.4186 H   0  0  0  0  0  0  0  0  0  0  0  0
  -13.0528  -44.6017  -16.1991 H   0  0  0  0  0  0  0  0  0  0  0  0
  -14.1318  -45.6096  -14.2182 H   0  0  0  0  0  0  0  0  0  0  0  0
  -13.1556  -44.1793  -13.9728 H   0  0  0  0  0  0  0  0  0  0  0  0
  -16.0199  -41.9904  -13.9472 H   0  0  0  0  0  0  0  0  0  0  0  0
  -14.5228  -42.1213  -13.0508 H   0  0  0  0  0  0  0  0  0  0  0  0
  -13.1783  -41.9642  -14.8634 H   0  0  0  0  0  0  0  0  0  0  0  0
  -14.4523  -40.9413  -15.4222 H   0  0  0  0  0  0  0  0  0  0  0  0
  2  6  1  0
  4  5  2  0
  1  5  1  0
  5  3  1  0
  7 12  1  0
  7  1  1  0
  7  8  2  0
  8  9  1  0
  9 10  2  0
 10 11  1  0
 10  2  1  0
 11 16  1  0
 11 12  2  0
 13 14  2  0
 13 17  1  0
 14 15  1  0
 15 16  2  0
 16 17  1  0
 19 18  1  0
 20 19  1  0
 21 20  1  0
 21 26  1  0
 21 22  1  0
 22 23  1  0
 23 24  1  0
 24 25  1  0
 25 26  1  0
  1 21  1  0
  1 27  1  1
  3 28  1  0
  6 29  1  0
  6 30  1  0
  6 31  1  0
  8 32  1  0
  9 33  1  0
 12 34  1  0
 13 35  1  0
 14 36  1  0
 15 37  1  0
 18 38  1  0
 19 39  1  0
 19 40  1  0
 20 41  1  0
 20 42  1  0
 22 43  1  0
 22 44  1  0
 23 45  1  0
 23 46  1  0
 25 47  1  0
 25 48  1  0
 26 49  1  0
 26 50  1  0
M  END
>  <smiles>  (563) 
[H]OC(=O)[C@@]([H])(c1c([H])c([H])c(OC([H])([H])[H])c(-c2sc([H])c([H])c2[H])c1[H])C1(C([H])([H])C([H])([H])O[H])C([H])([H])C([H])([H])OC([H])([H])C1([H])[H]

>  <error>  (563) 


>  <∆∆G>  (563) 
-53.685296

>  <∆G_bound>  (563) 
50.315552

>  <∆G_unbound>  (563) 
104.000848

>  <comRMSD>  (563) 
1.523916

>  <N_constrained_atoms>  (563) 
26.0

>  <N_unconstrained_atoms>  (563) 
0.0

>  <runtime>  (563) 
2.737

>  <regarded>  (563) 
['6h80-a', 'z0052a']

>  <disregarded>  (563) 
[]

>  <LE>  (563) 
2.064819

>  <outcome>  (563) 
too moved

>  <percent_hybrid>  (563) 
35.0

$$$$
LIG
     RDKit          3D

  0  0  0  0  0  0  0  0  0  0999 V3000
M  V30 BEGIN CTAB
M  V30 COUNTS 49 51 0 0 0
M  V30 BEGIN ATOM
M  V30 1 C -15.233000 -44.279999 -17.107000 0
M  V30 2 O -15.545000 -43.873001 -22.860001 0
M  V30 3 O -16.742001 -42.395000 -17.055000 0
M  V30 4 O -17.118000 -43.957001 -15.583000 0
M  V30 5 C -16.424000 -43.507000 -16.538000 0
M  V30 6 C -14.653000 -43.041000 -23.561001 0
M  V30 7 C -15.287000 -44.152000 -18.643000 0
M  V30 8 C -14.382000 -43.372002 -19.351999 0
M  V30 9 C -14.436000 -43.241001 -20.733000 0
M  V30 10 C -15.445000 -43.933998 -21.444000 0
M  V30 11 C -16.349001 -44.723999 -20.736000 0
M  V30 12 C -16.278999 -44.817001 -19.351999 0
M  V30 13 C -19.305000 -46.304001 -23.122999 0
M  V30 14 C -19.018999 -47.173000 -22.056000 0
M  V30 15 C -17.995001 -46.723999 -21.139000 0
M  V30 16 C -17.448000 -45.492001 -21.478001 0
M  V30 17 S -18.249001 -44.967999 -22.870001 0
M  V30 18 N -13.266000 -42.196999 -21.974001 0
M  V30 19 C -12.944000 -41.021999 -21.833000 0
M  V30 20 C -11.629000 -40.624001 -21.225000 0
M  V30 21 N -13.726000 -40.034000 -22.247999 0
M  V30 22 C -13.348000 -39.222000 -23.382000 0
M  V30 23 C -12.966000 -37.907001 -22.924999 0
M  V30 24 N -11.741000 -37.458000 -22.879000 0
M  V30 25 C -11.837000 -36.210999 -22.299000 0
M  V30 26 C -13.101000 -35.942001 -22.018000 0
M  V30 27 N -13.818000 -37.035000 -22.421000 0
M  V30 28 N -13.959499 -42.618999 -22.767502 0
M  V30 29 H -14.292751 -43.853405 -16.727592 0
M  V30 30 H -15.277535 -45.336769 -16.804924 0
M  V30 31 H -16.209522 -42.027081 -17.804136 0
M  V30 32 H -14.084329 -43.621563 -24.302324 0
M  V30 33 H -15.176600 -42.248554 -24.115862 0
M  V30 34 H -13.594333 -42.839054 -18.799236 0
M  V30 35 H -13.708295 -42.610451 -21.264839 0
M  V30 36 H -17.018629 -45.425072 -18.810522 0
M  V30 37 H -20.035458 -46.445042 -23.933271 0
M  V30 38 H -19.540527 -48.132851 -21.926802 0
M  V30 39 H -17.679300 -47.301888 -20.257875 0
M  V30 40 H -11.709771 -40.648445 -20.128242 0
M  V30 41 H -10.847049 -41.325714 -21.550806 0
M  V30 42 H -11.367404 -39.606445 -21.550806 0
M  V30 43 H -14.611291 -39.843807 -21.757097 0
M  V30 44 H -12.499456 -39.690483 -23.902094 0
M  V30 45 H -14.199591 -39.137444 -24.073118 0
M  V30 46 H -10.988646 -35.539764 -22.099646 0
M  V30 47 H -13.495500 -35.025738 -21.554501 0
M  V30 48 H -12.989500 -41.648998 -21.797501 0
M  V30 49 H -14.838100 -37.155346 -22.344767 0
M  V30 END ATOM
M  V30 BEGIN BOND
M  V30 1 1 2 6
M  V30 2 2 4 5
M  V30 3 1 1 5
M  V30 4 1 5 3
M  V30 5 2 7 12
M  V30 6 1 7 1
M  V30 7 1 7 8
M  V30 8 2 8 9
M  V30 9 1 9 10
M  V30 10 2 10 11
M  V30 11 1 10 2
M  V30 12 1 11 16
M  V30 13 1 11 12
M  V30 14 2 13 14
M  V30 15 1 13 17
M  V30 16 1 14 15
M  V30 17 2 15 16
M  V30 18 1 16 17
M  V30 19 1 20 19
M  V30 20 2 19 18
M  V30 21 1 21 19
M  V30 22 1 22 21
M  V30 23 1 23 22
M  V30 24 2 23 24
M  V30 25 1 23 27
M  V30 26 1 24 25
M  V30 27 2 25 26
M  V30 28 1 26 27
M  V30 29 1 28 6
M  V30 30 1 28 18
M  V30 31 1 1 29
M  V30 32 1 1 30
M  V30 33 1 3 31
M  V30 34 1 6 32
M  V30 35 1 6 33
M  V30 36 1 8 34
M  V30 37 1 9 35
M  V30 38 1 12 36
M  V30 39 1 13 37
M  V30 40 1 14 38
M  V30 41 1 15 39
M  V30 42 1 20 40
M  V30 43 1 20 41
M  V30 44 1 20 42
M  V30 45 1 21 43
M  V30 46 1 22 44
M  V30 47 1 22 45
M  V30 48 1 25 46
M  V30 49 1 26 47
M  V30 50 1 28 48
M  V30 51 1 27 49
M  V30 END BOND
M  V30 BEGIN COLLECTION
M  V30 MDLV30/STEABS ATOMS=(0)
M  V30 END COLLECTION
M  V30 END CTAB
M  END
>  <smiles>  (564) 
[H]OC(=O)C([H])([H])c1c([H])c([H])c(OC([H])([H])N([H])/N=C(\N([H])C([H])([H])c2nc([H])c([H])[nH]2)C([H])([H])[H])c(-c2sc([H])c([H])c2[H])c1[H]

>  <error>  (564) 


>  <∆∆G>  (564) 
nan

>  <∆G_bound>  (564) 
nan

>  <∆G_unbound>  (564) 
nan

>  <comRMSD>  (564) 
0.0

>  <N_constrained_atoms>  (564) 
27.0

>  <N_unconstrained_atoms>  (564) 
1.0

>  <runtime>  (564) 
1.661314

>  <regarded>  (564) 
['6h80-a', 'z0103a']

>  <disregarded>  (564) 
[]

>  <LE>  (564) 
nan

>  <outcome>  (564) 
crashed

>  <percent_hybrid>  (564) 
38.0

$$$$

     RDKit          2D

  0  0  0  0  0  0  0  0  0  0999 V2000
M  END
>  <smiles>  (565) 
nan

>  <error>  (565) 
DistanceError 5.96 Å

>  <∆∆G>  (565) 
nan

>  <∆G_bound>  (565) 
nan

>  <∆G_unbound>  (565) 
nan

>  <comRMSD>  (565) 
nan

>  <N_constrained_atoms>  (565) 
nan

>  <N_unconstrained_atoms>  (565) 
nan

>  <runtime>  (565) 
nan

>  <regarded>  (565) 
[]

>  <disregarded>  (565) 
[]

>  <LE>  (565) 
nan

>  <outcome>  (565) 
too distant

>  <percent_hybrid>  (565) 
nan

$$$$

     RDKit          2D

  0  0  0  0  0  0  0  0  0  0999 V2000
M  END
>  <smiles>  (566) 
nan

>  <error>  (566) 
RecursionError maximum recursion depth exceeded while calling a Python object

>  <∆∆G>  (566) 
nan

>  <∆G_bound>  (566) 
nan

>  <∆G_unbound>  (566) 
nan

>  <comRMSD>  (566) 
nan

>  <N_constrained_atoms>  (566) 
nan

>  <N_unconstrained_atoms>  (566) 
nan

>  <runtime>  (566) 
nan

>  <regarded>  (566) 
[]

>  <disregarded>  (566) 
[]

>  <LE>  (566) 
nan

>  <outcome>  (566) 
crashed

>  <percent_hybrid>  (566) 
nan

$$$$
LIG
     RDKit          3D

 41 43  0  0  0  0  0  0  0  0999 V2000
  -17.1306  -42.4846  -17.4373 C   0  0  0  0  0  0  0  0  0  0  0  0
  -15.0638  -44.4612  -22.3699 O   0  0  0  0  0  0  0  0  0  0  0  0
  -17.8708  -40.4831  -18.5712 O   0  0  0  0  0  0  0  0  0  0  0  0
  -16.9785  -40.2510  -16.5168 O   0  0  0  0  0  0  0  0  0  0  0  0
  -17.2949  -40.9774  -17.4482 C   0  0  0  0  0  0  0  0  0  0  0  0
  -15.0399  -43.4901  -23.4160 C   0  0  0  0  0  0  0  0  0  0  0  0
  -16.5704  -43.0478  -18.7241 C   0  0  0  0  0  0  0  0  0  0  0  0
  -15.2916  -42.6797  -19.1511 C   0  0  0  0  0  0  0  0  0  0  0  0
  -14.7334  -43.1661  -20.3543 C   0  0  0  0  0  0  0  0  0  0  0  0
  -15.5387  -43.9567  -21.1847 C   0  0  0  0  0  0  0  0  0  0  0  0
  -16.8108  -44.3692  -20.7478 C   0  0  0  0  0  0  0  0  0  0  0  0
  -17.3107  -43.9258  -19.5149 C   0  0  0  0  0  0  0  0  0  0  0  0
  -18.8054  -46.3808  -23.3663 C   0  0  0  0  0  0  0  0  0  0  0  0
  -18.5927  -47.2445  -22.3144 C   0  0  0  0  0  0  0  0  0  0  0  0
  -17.8817  -46.6255  -21.2548 C   0  0  0  0  0  0  0  0  0  0  0  0
  -17.6074  -45.3030  -21.5300 C   0  0  0  0  0  0  0  0  0  0  0  0
  -18.3395  -44.7848  -22.9866 S   0  0  0  0  0  0  0  0  0  0  0  0
  -12.4908  -43.1553  -19.4188 N   0  0  0  0  0  0  0  0  0  0  0  0
  -13.2637  -42.9655  -20.6502 C   0  0  0  0  0  0  0  0  0  0  0  0
  -13.0304  -41.5506  -21.1293 C   0  0  0  0  0  0  0  0  0  0  0  0
  -13.8569  -40.6501  -21.7734 C   0  0  0  0  0  0  0  0  0  0  0  0
  -13.1138  -39.5160  -21.9479 N   0  0  0  0  0  0  0  0  0  0  0  0
  -11.8792  -39.7412  -21.4177 C   0  0  0  0  0  0  0  0  0  0  0  0
  -11.7824  -40.9589  -20.9417 N   0  0  0  0  0  0  0  0  0  0  0  0
  -16.4591  -42.7585  -16.6150 H   0  0  0  0  0  0  0  0  0  0  0  0
  -18.1115  -42.9177  -17.2157 H   0  0  0  0  0  0  0  0  0  0  0  0
  -18.0543  -41.1659  -19.2448 H   0  0  0  0  0  0  0  0  0  0  0  0
  -15.7374  -42.6619  -23.2496 H   0  0  0  0  0  0  0  0  0  0  0  0
  -14.0248  -43.1131  -23.5444 H   0  0  0  0  0  0  0  0  0  0  0  0
  -15.3291  -43.9883  -24.3456 H   0  0  0  0  0  0  0  0  0  0  0  0
  -14.7010  -42.0251  -18.5102 H   0  0  0  0  0  0  0  0  0  0  0  0
  -18.2974  -44.2553  -19.1927 H   0  0  0  0  0  0  0  0  0  0  0  0
  -19.2557  -46.6071  -24.3244 H   0  0  0  0  0  0  0  0  0  0  0  0
  -18.8778  -48.2876  -22.3356 H   0  0  0  0  0  0  0  0  0  0  0  0
  -17.5355  -47.1423  -20.3689 H   0  0  0  0  0  0  0  0  0  0  0  0
  -14.8868  -40.7071  -22.0941 H   0  0  0  0  0  0  0  0  0  0  0  0
  -11.0985  -38.9914  -21.4103 H   0  0  0  0  0  0  0  0  0  0  0  0
  -11.5288  -42.9238  -19.6944 H   0  0  0  0  0  0  0  0  0  0  0  0
  -12.6814  -42.3686  -18.8030 H   0  0  0  0  0  0  0  0  0  0  0  0
  -12.9148  -43.6806  -21.3960 H   0  0  0  0  0  0  0  0  0  0  0  0
  -13.4328  -38.6527  -22.3646 H   0  0  0  0  0  0  0  0  0  0  0  0
  2  6  1  0
  4  5  2  0
  1  5  1  0
  5  3  1  0
  7 12  2  0
  7  1  1  0
  7  8  1  0
  8  9  2  0
  9 10  1  0
 10 11  2  0
 10  2  1  0
 11 16  1  0
 11 12  1  0
 13 14  2  0
 13 17  1  0
 14 15  1  0
 15 16  2  0
 16 17  1  0
 19 18  1  0
 20 19  1  0
 20 21  2  0
 20 24  1  0
 21 22  1  0
 22 23  1  0
 23 24  2  0
  9 19  1  0
  1 25  1  0
  1 26  1  0
  3 27  1  0
  6 28  1  0
  6 29  1  0
  6 30  1  0
  8 31  1  0
 12 32  1  0
 13 33  1  0
 14 34  1  0
 15 35  1  0
 21 36  1  0
 23 37  1  0
 18 38  1  0
 18 39  1  0
 19 40  1  0
 22 41  1  0
M  END
>  <smiles>  (567) 
[H]OC(=O)C([H])([H])c1c([H])c(-c2sc([H])c([H])c2[H])c(OC([H])([H])[H])c(C(N)c2nc([H])[nH]c2[H])c1[H]

>  <error>  (567) 


>  <∆∆G>  (567) 
-85.805205

>  <∆G_bound>  (567) 
-35.767982

>  <∆G_unbound>  (567) 
50.037223

>  <comRMSD>  (567) 
1.491864

>  <N_constrained_atoms>  (567) 
24.0

>  <N_unconstrained_atoms>  (567) 
0.0

>  <runtime>  (567) 
2.231947

>  <regarded>  (567) 
['6h80-a', 'z0875c']

>  <disregarded>  (567) 
[]

>  <LE>  (567) 
3.575217

>  <outcome>  (567) 
too moved

>  <percent_hybrid>  (567) 
30.0

$$$$
LIG
     RDKit          3D

 56 58  0  0  0  0  0  0  0  0999 V2000
  -14.9857  -43.9538  -17.4814 C   0  0  0  0  0  0  0  0  0  0  0  0
  -15.3493  -44.0170  -23.1247 O   0  0  0  0  0  0  0  0  0  0  0  0
  -15.6068  -41.6262  -17.3652 O   0  0  0  0  0  0  0  0  0  0  0  0
  -16.5141  -43.1321  -15.8372 N   0  0  0  0  0  0  0  0  0  0  0  0
  -15.7807  -42.8560  -16.8520 C   0  0  0  0  0  0  0  0  0  0  0  0
  -14.5233  -43.2121  -23.9421 C   0  0  0  0  0  0  0  0  0  0  0  0
  -13.2945  -42.4272  -18.9835 O   0  0  0  0  0  0  0  0  0  0  0  0
  -12.3707  -41.6046  -19.6859 C   0  0  0  0  0  0  0  0  0  0  0  0
  -19.5438  -46.2603  -24.6308 C   0  0  0  0  0  0  0  0  0  0  0  0
  -20.1802  -46.4065  -25.6388 C   0  0  0  0  0  0  0  0  0  0  0  0
  -20.9238  -46.6284  -26.8724 C   0  0  0  0  0  0  0  0  0  0  0  0
  -22.0113  -45.7198  -26.9706 O   0  0  0  0  0  0  0  0  0  0  0  0
  -13.8544  -38.2427  -15.8177 O   0  0  0  0  0  0  0  0  0  0  0  0
  -17.3093  -41.9744  -14.8850 S   0  0  0  0  0  0  0  0  0  0  0  0
  -18.2694  -41.2274  -15.7742 O   0  0  0  0  0  0  0  0  0  0  0  0
  -14.4965  -38.0877  -17.0815 C   0  0  0  0  0  0  0  0  0  0  0  0
  -15.0586  -43.9561  -18.9796 C   0  0  0  0  0  0  0  0  0  0  0  0
  -14.1442  -43.2024  -19.7303 C   0  0  0  0  0  0  0  0  0  0  0  0
  -14.1975  -43.2339  -21.1192 C   0  0  0  0  0  0  0  0  0  0  0  0
  -15.2189  -43.9370  -21.7642 C   0  0  0  0  0  0  0  0  0  0  0  0
  -16.1912  -44.6338  -21.0122 C   0  0  0  0  0  0  0  0  0  0  0  0
  -16.0855  -44.6573  -19.6206 C   0  0  0  0  0  0  0  0  0  0  0  0
  -18.8328  -46.1038  -23.4041 C   0  0  0  0  0  0  0  0  0  0  0  0
  -18.5998  -47.0953  -22.4747 C   0  0  0  0  0  0  0  0  0  0  0  0
  -17.7032  -46.6688  -21.4526 C   0  0  0  0  0  0  0  0  0  0  0  0
  -17.2786  -45.3710  -21.6624 C   0  0  0  0  0  0  0  0  0  0  0  0
  -18.2354  -44.6072  -22.8711 S   0  0  0  0  0  0  0  0  0  0  0  0
  -13.5954  -39.5445  -13.8869 C   0  0  0  0  0  0  0  0  0  0  0  0
  -13.9955  -40.5670  -13.0222 C   0  0  0  0  0  0  0  0  0  0  0  0
  -15.1800  -41.2554  -13.2684 C   0  0  0  0  0  0  0  0  0  0  0  0
  -15.9783  -40.8790  -14.3501 C   0  0  0  0  0  0  0  0  0  0  0  0
  -15.6066  -39.8152  -15.1722 C   0  0  0  0  0  0  0  0  0  0  0  0
  -14.3851  -39.1856  -14.9820 C   0  0  0  0  0  0  0  0  0  0  0  0
  -13.9529  -43.8519  -17.1283 H   0  0  0  0  0  0  0  0  0  0  0  0
  -15.3249  -44.9243  -17.1047 H   0  0  0  0  0  0  0  0  0  0  0  0
  -14.9193  -41.6080  -18.0522 H   0  0  0  0  0  0  0  0  0  0  0  0
  -14.4833  -42.1717  -23.6047 H   0  0  0  0  0  0  0  0  0  0  0  0
  -13.5315  -43.6623  -24.0115 H   0  0  0  0  0  0  0  0  0  0  0  0
  -14.9616  -43.2060  -24.9434 H   0  0  0  0  0  0  0  0  0  0  0  0
  -11.7642  -41.0750  -18.9452 H   0  0  0  0  0  0  0  0  0  0  0  0
  -11.6967  -42.2020  -20.3053 H   0  0  0  0  0  0  0  0  0  0  0  0
  -12.8945  -40.8542  -20.2872 H   0  0  0  0  0  0  0  0  0  0  0  0
  -21.2953  -47.6531  -26.9587 H   0  0  0  0  0  0  0  0  0  0  0  0
  -20.2624  -46.4271  -27.7119 H   0  0  0  0  0  0  0  0  0  0  0  0
  -22.7783  -46.1696  -26.5530 H   0  0  0  0  0  0  0  0  0  0  0  0
  -15.4946  -37.6532  -16.9650 H   0  0  0  0  0  0  0  0  0  0  0  0
  -13.8990  -37.3852  -17.6708 H   0  0  0  0  0  0  0  0  0  0  0  0
  -14.5308  -39.0331  -17.6324 H   0  0  0  0  0  0  0  0  0  0  0  0
  -13.4465  -42.7190  -21.7032 H   0  0  0  0  0  0  0  0  0  0  0  0
  -16.8250  -45.1965  -19.0324 H   0  0  0  0  0  0  0  0  0  0  0  0
  -18.9797  -48.1053  -22.5645 H   0  0  0  0  0  0  0  0  0  0  0  0
  -17.3024  -47.3262  -20.6911 H   0  0  0  0  0  0  0  0  0  0  0  0
  -12.6479  -39.0378  -13.7198 H   0  0  0  0  0  0  0  0  0  0  0  0
  -13.3626  -40.8484  -12.1849 H   0  0  0  0  0  0  0  0  0  0  0  0
  -15.4540  -42.1025  -12.6451 H   0  0  0  0  0  0  0  0  0  0  0  0
  -16.2492  -39.5613  -16.0092 H   0  0  0  0  0  0  0  0  0  0  0  0
  2  6  1  0
  4  5  2  0
  1  5  1  0
  5  3  1  0
  7  8  1  0
 11 12  1  0
 11 10  1  0
 10  9  3  0
 15 14  2  0
 16 13  1  0
 14  4  1  0
 17 22  1  0
 17  1  1  0
 17 18  2  0
 18 19  1  0
 19 20  2  0
 20 21  1  0
 20  2  1  0
 21 26  1  0
 21 22  2  0
 23 24  2  0
 23 27  1  0
 24 25  1  0
 25 26  2  0
 26 27  1  0
 28 33  2  0
 28 29  1  0
 29 30  2  0
 30 31  1  0
 31 14  1  0
 31 32  2  0
 32 33  1  0
 33 13  1  0
  7 18  1  0
  9 23  1  0
  1 34  1  0
  1 35  1  0
  3 36  1  0
  6 37  1  0
  6 38  1  0
  6 39  1  0
  8 40  1  0
  8 41  1  0
  8 42  1  0
 11 43  1  0
 11 44  1  0
 12 45  1  0
 16 46  1  0
 16 47  1  0
 16 48  1  0
 19 49  1  0
 22 50  1  0
 24 51  1  0
 25 52  1  0
 28 53  1  0
 29 54  1  0
 30 55  1  0
 32 56  1  0
M  END
>  <smiles>  (568) 
[H]O/C(=N\S(=O)c1c([H])c([H])c([H])c(OC([H])([H])[H])c1[H])C([H])([H])c1c([H])c(-c2sc(C#CC([H])([H])O[H])c([H])c2[H])c(OC([H])([H])[H])c([H])c1OC([H])([H])[H]

>  <error>  (568) 


>  <∆∆G>  (568) 
-368.664916

>  <∆G_bound>  (568) 
45.305357

>  <∆G_unbound>  (568) 
413.970273

>  <comRMSD>  (568) 
0.700649

>  <N_constrained_atoms>  (568) 
33.0

>  <N_unconstrained_atoms>  (568) 
0.0

>  <runtime>  (568) 
2.008974

>  <regarded>  (568) 
['6h80-a', '5i3p-a']

>  <disregarded>  (568) 
[]

>  <LE>  (568) 
11.171664

>  <outcome>  (568) 
equally sized

>  <percent_hybrid>  (568) 
49.0

$$$$
LIG
     RDKit          3D

 36 37  0  0  0  0  0  0  0  0999 V2000
  -15.8347  -43.4133  -16.8608 C   0  0  0  0  0  0  0  0  0  0  0  0
  -15.0076  -44.1256  -22.4678 O   0  0  0  0  0  0  0  0  0  0  0  0
  -16.0503  -41.0208  -16.8153 O   0  0  0  0  0  0  0  0  0  0  0  0
  -14.4507  -41.9530  -15.5233 O   0  0  0  0  0  0  0  0  0  0  0  0
  -15.3695  -42.0809  -16.3207 C   0  0  0  0  0  0  0  0  0  0  0  0
  -15.2164  -42.9698  -23.2800 C   0  0  0  0  0  0  0  0  0  0  0  0
  -12.0606  -40.4600  -21.4898 O   0  0  0  0  0  0  0  0  0  0  0  0
  -14.2570  -40.3985  -21.1363 O   0  0  0  0  0  0  0  0  0  0  0  0
  -13.2299  -41.0575  -21.1795 C   0  0  0  0  0  0  0  0  0  0  0  0
  -13.0698  -42.5372  -20.9338 C   0  0  0  0  0  0  0  0  0  0  0  0
  -17.5264  -45.0269  -18.4424 O   0  0  0  0  0  0  0  0  0  0  0  0
  -15.6270  -43.6151  -18.3457 C   0  0  0  0  0  0  0  0  0  0  0  0
  -14.5172  -43.0461  -18.9779 C   0  0  0  0  0  0  0  0  0  0  0  0
  -14.3055  -43.1812  -20.3573 C   0  0  0  0  0  0  0  0  0  0  0  0
  -15.2313  -43.9033  -21.1281 C   0  0  0  0  0  0  0  0  0  0  0  0
  -16.3276  -44.5481  -20.5102 C   0  0  0  0  0  0  0  0  0  0  0  0
  -16.4984  -44.4026  -19.1144 C   0  0  0  0  0  0  0  0  0  0  0  0
  -18.7077  -46.2316  -23.0775 C   0  0  0  0  0  0  0  0  0  0  0  0
  -18.4243  -47.2043  -22.1471 C   0  0  0  0  0  0  0  0  0  0  0  0
  -17.5427  -46.7276  -21.1386 C   0  0  0  0  0  0  0  0  0  0  0  0
  -17.2435  -45.3872  -21.2972 C   0  0  0  0  0  0  0  0  0  0  0  0
  -18.1490  -44.7015  -22.5851 S   0  0  0  0  0  0  0  0  0  0  0  0
  -15.2945  -44.2013  -16.3250 H   0  0  0  0  0  0  0  0  0  0  0  0
  -16.8955  -43.4827  -16.6027 H   0  0  0  0  0  0  0  0  0  0  0  0
  -16.7350  -41.2752  -17.4649 H   0  0  0  0  0  0  0  0  0  0  0  0
  -15.8795  -42.2332  -22.8124 H   0  0  0  0  0  0  0  0  0  0  0  0
  -14.2607  -42.5066  -23.5317 H   0  0  0  0  0  0  0  0  0  0  0  0
  -15.6762  -43.2974  -24.2177 H   0  0  0  0  0  0  0  0  0  0  0  0
  -12.2793  -39.5077  -21.5590 H   0  0  0  0  0  0  0  0  0  0  0  0
  -12.8109  -43.0273  -21.8684 H   0  0  0  0  0  0  0  0  0  0  0  0
  -12.2333  -42.6850  -20.2410 H   0  0  0  0  0  0  0  0  0  0  0  0
  -18.1899  -45.3056  -19.1012 H   0  0  0  0  0  0  0  0  0  0  0  0
  -13.7895  -42.4773  -18.3956 H   0  0  0  0  0  0  0  0  0  0  0  0
  -19.2507  -46.3421  -24.0066 H   0  0  0  0  0  0  0  0  0  0  0  0
  -18.7517  -48.2315  -22.2436 H   0  0  0  0  0  0  0  0  0  0  0  0
  -17.1078  -47.3560  -20.3699 H   0  0  0  0  0  0  0  0  0  0  0  0
  2  6  1  0
  4  5  2  0
  1  5  1  0
  5  3  1  0
 10  9  1  0
  8  9  2  0
  9  7  1  0
 12 17  2  0
 12  1  1  0
 12 13  1  0
 13 14  2  0
 14 15  1  0
 15 16  2  0
 15  2  1  0
 16 21  1  0
 16 17  1  0
 18 19  2  0
 18 22  1  0
 19 20  1  0
 20 21  2  0
 21 22  1  0
 10 14  1  0
 11 17  1  0
  1 23  1  0
  1 24  1  0
  3 25  1  0
  6 26  1  0
  6 27  1  0
  6 28  1  0
  7 29  1  0
 10 30  1  0
 10 31  1  0
 11 32  1  0
 13 33  1  0
 18 34  1  0
 19 35  1  0
 20 36  1  0
M  END
>  <smiles>  (569) 
[H]OC(=O)C([H])([H])c1c([H])c(C([H])([H])C(=O)O[H])c(OC([H])([H])[H])c(-c2sc([H])c([H])c2[H])c1O[H]

>  <error>  (569) 


>  <∆∆G>  (569) 
-84.661795

>  <∆G_bound>  (569) 
-40.016656

>  <∆G_unbound>  (569) 
44.64514

>  <comRMSD>  (569) 
1.058779

>  <N_constrained_atoms>  (569) 
22.0

>  <N_unconstrained_atoms>  (569) 
0.0

>  <runtime>  (569) 
2.023344

>  <regarded>  (569) 
['6h80-a', '5hn0-a']

>  <disregarded>  (569) 
[]

>  <LE>  (569) 
3.848263

>  <outcome>  (569) 
too moved

>  <percent_hybrid>  (569) 
23.0

$$$$
LIG
     RDKit          3D

 29 30  0  0  0  0  0  0  0  0999 V2000
  -15.5228  -43.3915  -17.0691 C   0  0  0  0  0  0  0  0  0  0  0  0
  -14.9432  -44.2521  -22.6679 O   0  0  0  0  0  0  0  0  0  0  0  0
  -15.5378  -40.9877  -17.1891 O   0  0  0  0  0  0  0  0  0  0  0  0
  -14.1932  -41.9557  -15.6561 O   0  0  0  0  0  0  0  0  0  0  0  0
  -15.0070  -42.0633  -16.5625 C   0  0  0  0  0  0  0  0  0  0  0  0
  -14.8691  -43.0445  -23.4223 C   0  0  0  0  0  0  0  0  0  0  0  0
  -15.3634  -43.6144  -18.5566 C   0  0  0  0  0  0  0  0  0  0  0  0
  -14.1999  -43.2139  -19.2276 C   0  0  0  0  0  0  0  0  0  0  0  0
  -14.0699  -43.4114  -20.6022 C   0  0  0  0  0  0  0  0  0  0  0  0
  -15.0982  -44.0167  -21.3253 C   0  0  0  0  0  0  0  0  0  0  0  0
  -16.2366  -44.5064  -20.6634 C   0  0  0  0  0  0  0  0  0  0  0  0
  -16.3609  -44.2917  -19.2798 C   0  0  0  0  0  0  0  0  0  0  0  0
  -18.7243  -46.1641  -23.1234 C   0  0  0  0  0  0  0  0  0  0  0  0
  -18.5020  -47.0994  -22.1384 C   0  0  0  0  0  0  0  0  0  0  0  0
  -17.6422  -46.5998  -21.1214 C   0  0  0  0  0  0  0  0  0  0  0  0
  -17.2460  -45.2990  -21.3694 C   0  0  0  0  0  0  0  0  0  0  0  0
  -18.0896  -44.6388  -22.7094 S   0  0  0  0  0  0  0  0  0  0  0  0
  -14.9911  -44.1922  -16.5422 H   0  0  0  0  0  0  0  0  0  0  0  0
  -16.5789  -43.4472  -16.7823 H   0  0  0  0  0  0  0  0  0  0  0  0
  -16.1561  -41.2234  -17.9083 H   0  0  0  0  0  0  0  0  0  0  0  0
  -14.0288  -42.4177  -23.1179 H   0  0  0  0  0  0  0  0  0  0  0  0
  -14.7318  -43.3126  -24.4736 H   0  0  0  0  0  0  0  0  0  0  0  0
  -15.8005  -42.4750  -23.3348 H   0  0  0  0  0  0  0  0  0  0  0  0
  -13.3706  -42.7480  -18.6947 H   0  0  0  0  0  0  0  0  0  0  0  0
  -13.1417  -43.1329  -21.0981 H   0  0  0  0  0  0  0  0  0  0  0  0
  -17.2502  -44.6558  -18.7687 H   0  0  0  0  0  0  0  0  0  0  0  0
  -19.2565  -46.2964  -24.0558 H   0  0  0  0  0  0  0  0  0  0  0  0
  -18.8712  -48.1161  -22.1899 H   0  0  0  0  0  0  0  0  0  0  0  0
  -17.2603  -47.2006  -20.3058 H   0  0  0  0  0  0  0  0  0  0  0  0
  2  6  1  0
  4  5  2  0
  1  5  1  0
  5  3  1  0
  7 12  2  0
  7  1  1  0
  7  8  1  0
  8  9  2  0
  9 10  1  0
 10 11  2  0
 10  2  1  0
 11 16  1  0
 11 12  1  0
 13 14  2  0
 13 17  1  0
 14 15  1  0
 15 16  2  0
 16 17  1  0
  1 18  1  0
  1 19  1  0
  3 20  1  0
  6 21  1  0
  6 22  1  0
  6 23  1  0
  8 24  1  0
  9 25  1  0
 12 26  1  0
 13 27  1  0
 14 28  1  0
 15 29  1  0
M  END
>  <smiles>  (570) 
[H]OC(=O)C([H])([H])c1c([H])c([H])c(OC([H])([H])[H])c(-c2sc([H])c([H])c2[H])c1[H]

>  <error>  (570) 


>  <∆∆G>  (570) 
-47.785208

>  <∆G_bound>  (570) 
-55.470018

>  <∆G_unbound>  (570) 
-7.684811

>  <comRMSD>  (570) 
1.17988

>  <N_constrained_atoms>  (570) 
17.0

>  <N_unconstrained_atoms>  (570) 
0.0

>  <runtime>  (570) 
1.529918

>  <regarded>  (570) 
['6h80-a', '5f41-a']

>  <disregarded>  (570) 
[]

>  <LE>  (570) 
2.810895

>  <outcome>  (570) 
equally sized

>  <percent_hybrid>  (570) 
0.0

$$$$
LIG
     RDKit          3D

 41 42  0  0  0  0  0  0  0  0999 V2000
  -16.2213  -43.1233  -17.0180 C   0  0  0  0  0  0  0  0  0  0  0  0
  -14.9562  -44.1135  -22.4894 O   0  0  0  0  0  0  0  0  0  0  0  0
  -16.4876  -40.7551  -17.4032 O   0  0  0  0  0  0  0  0  0  0  0  0
  -15.3675  -41.3991  -15.5570 O   0  0  0  0  0  0  0  0  0  0  0  0
  -15.9707  -41.6954  -16.5790 C   0  0  0  0  0  0  0  0  0  0  0  0
  -15.1310  -42.9854  -23.3479 C   0  0  0  0  0  0  0  0  0  0  0  0
  -13.0782  -42.5416  -20.8729 C   0  0  0  0  0  0  0  0  0  0  0  0
  -14.2249  -40.3977  -21.2144 O   0  0  0  0  0  0  0  0  0  0  0  0
  -12.0154  -40.4809  -21.4186 O   0  0  0  0  0  0  0  0  0  0  0  0
  -13.2046  -41.0677  -21.1700 C   0  0  0  0  0  0  0  0  0  0  0  0
  -19.4408  -46.2161  -24.5194 C   0  0  0  0  0  0  0  0  0  0  0  0
  -20.0676  -46.4026  -25.5279 C   0  0  0  0  0  0  0  0  0  0  0  0
  -20.8153  -46.6712  -26.7548 C   0  0  0  0  0  0  0  0  0  0  0  0
  -21.9492  -45.8204  -26.8345 O   0  0  0  0  0  0  0  0  0  0  0  0
  -15.8718  -43.4210  -18.4593 C   0  0  0  0  0  0  0  0  0  0  0  0
  -14.6754  -42.9470  -19.0044 C   0  0  0  0  0  0  0  0  0  0  0  0
  -14.3631  -43.1403  -20.3584 C   0  0  0  0  0  0  0  0  0  0  0  0
  -15.2615  -43.8437  -21.1769 C   0  0  0  0  0  0  0  0  0  0  0  0
  -16.4357  -44.3978  -20.6285 C   0  0  0  0  0  0  0  0  0  0  0  0
  -16.7281  -44.1791  -19.2704 C   0  0  0  0  0  0  0  0  0  0  0  0
  -18.7514  -46.0258  -23.2832 C   0  0  0  0  0  0  0  0  0  0  0  0
  -18.5189  -47.0051  -22.3410 C   0  0  0  0  0  0  0  0  0  0  0  0
  -17.7035  -46.5364  -21.2699 C   0  0  0  0  0  0  0  0  0  0  0  0
  -17.3508  -45.2114  -21.4331 C   0  0  0  0  0  0  0  0  0  0  0  0
  -18.1661  -44.5145  -22.7718 S   0  0  0  0  0  0  0  0  0  0  0  0
  -15.6243  -43.7851  -16.3808 H   0  0  0  0  0  0  0  0  0  0  0  0
  -17.2797  -43.3280  -16.8300 H   0  0  0  0  0  0  0  0  0  0  0  0
  -16.9036  -41.1190  -18.2094 H   0  0  0  0  0  0  0  0  0  0  0  0
  -15.8412  -42.2508  -22.9514 H   0  0  0  0  0  0  0  0  0  0  0  0
  -14.1708  -42.5046  -23.5383 H   0  0  0  0  0  0  0  0  0  0  0  0
  -15.5114  -43.3491  -24.3076 H   0  0  0  0  0  0  0  0  0  0  0  0
  -12.7738  -43.0590  -21.7789 H   0  0  0  0  0  0  0  0  0  0  0  0
  -12.2895  -42.6833  -20.1253 H   0  0  0  0  0  0  0  0  0  0  0  0
  -12.2527  -39.5418  -21.5620 H   0  0  0  0  0  0  0  0  0  0  0  0
  -21.1358  -47.7137  -26.8301 H   0  0  0  0  0  0  0  0  0  0  0  0
  -20.1855  -46.4490  -27.6139 H   0  0  0  0  0  0  0  0  0  0  0  0
  -22.7098  -46.3245  -26.4729 H   0  0  0  0  0  0  0  0  0  0  0  0
  -13.9781  -42.3868  -18.3786 H   0  0  0  0  0  0  0  0  0  0  0  0
  -17.6512  -44.5826  -18.8575 H   0  0  0  0  0  0  0  0  0  0  0  0
  -18.8613  -48.0282  -22.4407 H   0  0  0  0  0  0  0  0  0  0  0  0
  -17.3391  -47.1650  -20.4668 H   0  0  0  0  0  0  0  0  0  0  0  0
  2  6  1  0
  4  5  2  0
  1  5  1  0
  5  3  1  0
  7 10  1  0
  8 10  2  0
 10  9  1  0
 14 13  1  0
 13 12  1  0
 12 11  3  0
 15 20  2  0
 15  1  1  0
 15 16  1  0
 16 17  2  0
 17 18  1  0
 18 19  2  0
 18  2  1  0
 19 24  1  0
 19 20  1  0
 21 22  2  0
 21 25  1  0
 22 23  1  0
 23 24  2  0
 24 25  1  0
  7 17  1  0
 11 21  1  0
  1 26  1  0
  1 27  1  0
  3 28  1  0
  6 29  1  0
  6 30  1  0
  6 31  1  0
  7 32  1  0
  7 33  1  0
  9 34  1  0
 13 35  1  0
 13 36  1  0
 14 37  1  0
 16 38  1  0
 20 39  1  0
 22 40  1  0
 23 41  1  0
M  END
>  <smiles>  (571) 
[H]OC(=O)C([H])([H])c1c([H])c(-c2sc(C#CC([H])([H])O[H])c([H])c2[H])c(OC([H])([H])[H])c(C([H])([H])C(=O)O[H])c1[H]

>  <error>  (571) 


>  <∆∆G>  (571) 
-65.902148

>  <∆G_bound>  (571) 
6.113414

>  <∆G_unbound>  (571) 
72.015563

>  <comRMSD>  (571) 
1.083437

>  <N_constrained_atoms>  (571) 
25.0

>  <N_unconstrained_atoms>  (571) 
0.0

>  <runtime>  (571) 
2.25765

>  <regarded>  (571) 
['6h80-a', '5hmy-a']

>  <disregarded>  (571) 
[]

>  <LE>  (571) 
2.636086

>  <outcome>  (571) 
too moved

>  <percent_hybrid>  (571) 
32.0

$$$$
LIG
     RDKit          3D

 47 50  0  0  0  0  0  0  0  0999 V2000
  -15.1101  -43.3323  -17.4322 C   0  0  0  0  0  0  0  0  0  0  0  0
  -13.6596  -41.5685  -16.7116 O   0  0  0  0  0  0  0  0  0  0  0  0
  -12.9614  -43.7010  -16.4253 O   0  0  0  0  0  0  0  0  0  0  0  0
  -13.8069  -42.9037  -16.8079 C   0  0  0  0  0  0  0  0  0  0  0  0
  -18.7742  -40.0233  -25.5690 C   0  0  0  0  0  0  0  0  0  0  0  0
  -17.9050  -39.3600  -26.6046 C   0  0  0  0  0  0  0  0  0  0  0  0
  -18.3828  -38.5837  -27.4317 O   0  0  0  0  0  0  0  0  0  0  0  0
  -16.5512  -39.6999  -26.5940 O   0  0  0  0  0  0  0  0  0  0  0  0
  -15.2037  -43.0900  -18.9489 C   0  0  1  0  0  0  0  0  0  0  0  0
  -13.9265  -43.5057  -19.6973 C   0  0  0  0  0  0  0  0  0  0  0  0
  -14.1591  -44.0054  -21.1270 C   0  0  0  0  0  0  0  0  0  0  0  0
  -15.3309  -43.3255  -21.8271 C   0  0  1  0  0  0  0  0  0  0  0  0
  -16.6604  -43.6432  -21.0302 C   0  0  2  0  0  0  0  0  0  0  0  0
  -16.4286  -43.8254  -19.5020 C   0  0  0  0  0  0  0  0  0  0  0  0
  -18.7543  -46.2535  -23.1016 C   0  0  0  0  0  0  0  0  0  0  0  0
  -18.2198  -46.9856  -22.0698 C   0  0  0  0  0  0  0  0  0  0  0  0
  -17.4236  -46.1750  -21.2160 C   0  0  0  0  0  0  0  0  0  0  0  0
  -17.4571  -44.8349  -21.5688 C   0  0  0  0  0  0  0  0  0  0  0  0
  -18.6070  -44.5770  -22.8306 S   0  0  0  0  0  0  0  0  0  0  0  0
  -15.0672  -41.8873  -21.7602 O   0  0  0  0  0  0  0  0  0  0  0  0
  -15.2628  -41.3207  -22.9973 C   0  0  0  0  0  0  0  0  0  0  0  0
  -15.5283  -42.1560  -24.0739 C   0  0  0  0  0  0  0  0  0  0  0  0
  -15.3624  -43.8242  -23.6010 S   0  0  0  0  0  0  0  0  0  0  0  0
  -16.0041  -40.2631  -25.4263 C   0  0  0  0  0  0  0  0  0  0  0  0
  -15.9021  -41.6467  -25.3085 C   0  0  0  0  0  0  0  0  0  0  0  0
  -15.2335  -39.9445  -23.1588 C   0  0  0  0  0  0  0  0  0  0  0  0
  -15.6060  -39.4071  -24.3924 C   0  0  0  0  0  0  0  0  0  0  0  0
  -15.2230  -44.4025  -17.2159 H   0  0  0  0  0  0  0  0  0  0  0  0
  -15.9326  -42.8340  -16.9050 H   0  0  0  0  0  0  0  0  0  0  0  0
  -14.4169  -41.0561  -17.0516 H   0  0  0  0  0  0  0  0  0  0  0  0
  -18.5276  -39.6733  -24.5647 H   0  0  0  0  0  0  0  0  0  0  0  0
  -19.8176  -39.7539  -25.7648 H   0  0  0  0  0  0  0  0  0  0  0  0
  -18.7037  -41.1107  -25.6476 H   0  0  0  0  0  0  0  0  0  0  0  0
  -15.3513  -42.0133  -19.1070 H   0  0  0  0  0  0  0  0  0  0  0  0
  -13.2431  -42.6468  -19.7225 H   0  0  0  0  0  0  0  0  0  0  0  0
  -13.3913  -44.2936  -19.1598 H   0  0  0  0  0  0  0  0  0  0  0  0
  -13.2267  -43.8642  -21.6838 H   0  0  0  0  0  0  0  0  0  0  0  0
  -14.3602  -45.0779  -21.0842 H   0  0  0  0  0  0  0  0  0  0  0  0
  -17.3000  -42.7520  -21.1223 H   0  0  0  0  0  0  0  0  0  0  0  0
  -16.3083  -44.8827  -19.2423 H   0  0  0  0  0  0  0  0  0  0  0  0
  -17.3328  -43.4973  -18.9712 H   0  0  0  0  0  0  0  0  0  0  0  0
  -19.2835  -46.6312  -23.9655 H   0  0  0  0  0  0  0  0  0  0  0  0
  -18.2963  -48.0645  -22.0017 H   0  0  0  0  0  0  0  0  0  0  0  0
  -16.8159  -46.5900  -20.4224 H   0  0  0  0  0  0  0  0  0  0  0  0
  -16.1446  -42.3049  -26.1355 H   0  0  0  0  0  0  0  0  0  0  0  0
  -14.9785  -39.2972  -22.3260 H   0  0  0  0  0  0  0  0  0  0  0  0
  -15.6407  -38.3300  -24.5327 H   0  0  0  0  0  0  0  0  0  0  0  0
  3  4  2  0
  1  4  1  0
  4  2  1  0
  8  6  1  0
  6  7  2  0
  6  5  1  0
  9 14  1  0
  9  1  1  0
  9 10  1  0
 10 11  1  0
 11 12  1  0
 12 13  1  0
 13 18  1  0
 13 14  1  0
 15 16  2  0
 15 19  1  0
 16 17  1  0
 17 18  2  0
 18 19  1  0
 20 21  1  0
 21 26  2  0
 21 22  1  0
 22 23  1  0
 22 25  2  0
 24 27  2  0
 24 25  1  0
 24  8  1  0
 26 27  1  0
 12 20  1  6
 12 23  1  0
  1 28  1  0
  1 29  1  0
  2 30  1  0
  5 31  1  0
  5 32  1  0
  5 33  1  0
  9 34  1  1
 10 35  1  0
 10 36  1  0
 11 37  1  0
 11 38  1  0
 13 39  1  1
 14 40  1  0
 14 41  1  0
 15 42  1  0
 16 43  1  0
 17 44  1  0
 25 45  1  0
 26 46  1  0
 27 47  1  0
M  END
>  <smiles>  (572) 
[H]OC(=O)C([H])([H])[C@@]1([H])C([H])([H])C([H])([H])[C@]2(Oc3c([H])c([H])c(OC(=O)C([H])([H])[H])c([H])c3S2)[C@@]([H])(c2sc([H])c([H])c2[H])C1([H])[H]

>  <error>  (572) 


>  <∆∆G>  (572) 
-326.841999

>  <∆G_bound>  (572) 
202.278236

>  <∆G_unbound>  (572) 
529.120235

>  <comRMSD>  (572) 
1.52641

>  <N_constrained_atoms>  (572) 
27.0

>  <N_unconstrained_atoms>  (572) 
0.0

>  <runtime>  (572) 
4.645846

>  <regarded>  (572) 
['6h80-a', '6izx-a']

>  <disregarded>  (572) 
[]

>  <LE>  (572) 
12.105259

>  <outcome>  (572) 
too moved

>  <percent_hybrid>  (572) 
45.0

$$$$

     RDKit          2D

  0  0  0  0  0  0  0  0  0  0999 V2000
M  END
>  <smiles>  (573) 
nan

>  <error>  (573) 
FragmensteinError Ideal compound failed. Something is wrong with the SMILES

>  <∆∆G>  (573) 
nan

>  <∆G_bound>  (573) 
nan

>  <∆G_unbound>  (573) 
nan

>  <comRMSD>  (573) 
nan

>  <N_constrained_atoms>  (573) 
nan

>  <N_unconstrained_atoms>  (573) 
nan

>  <runtime>  (573) 
nan

>  <regarded>  (573) 
[]

>  <disregarded>  (573) 
[]

>  <LE>  (573) 
nan

>  <outcome>  (573) 
crashed

>  <percent_hybrid>  (573) 
nan

$$$$
LIG
     RDKit          3D

 35 36  0  0  0  0  0  0  0  0999 V2000
  -15.2499  -43.8797  -16.9663 C   0  0  0  0  0  0  0  0  0  0  0  0
  -15.4407  -43.0416  -22.5901 O   0  0  0  0  0  0  0  0  0  0  0  0
  -14.2446  -42.0969  -15.7096 O   0  0  0  0  0  0  0  0  0  0  0  0
  -12.9966  -43.9348  -16.1182 O   0  0  0  0  0  0  0  0  0  0  0  0
  -14.0569  -43.3322  -16.2239 C   0  0  0  0  0  0  0  0  0  0  0  0
  -14.5388  -43.8756  -23.3088 C   0  0  0  0  0  0  0  0  0  0  0  0
  -13.6657  -41.4312  -21.0884 C   0  0  0  0  0  0  0  0  0  0  0  0
  -13.7852  -40.0108  -22.9894 O   0  0  0  0  0  0  0  0  0  0  0  0
  -14.4362  -40.3963  -21.8704 C   0  0  0  0  0  0  0  0  0  0  0  0
  -15.5007  -39.8790  -21.5710 O   0  0  0  0  0  0  0  0  0  0  0  0
  -15.2542  -43.6788  -18.4610 C   0  0  0  0  0  0  0  0  0  0  0  0
  -14.4585  -42.7166  -19.0854 C   0  0  0  0  0  0  0  0  0  0  0  0
  -14.5330  -42.5040  -20.4671 C   0  0  0  0  0  0  0  0  0  0  0  0
  -15.3923  -43.3076  -21.2429 C   0  0  0  0  0  0  0  0  0  0  0  0
  -16.2254  -44.2767  -20.6470 C   0  0  0  0  0  0  0  0  0  0  0  0
  -16.1342  -44.4418  -19.2509 C   0  0  0  0  0  0  0  0  0  0  0  0
  -18.6870  -46.0673  -23.1011 C   0  0  0  0  0  0  0  0  0  0  0  0
  -18.3806  -46.9979  -22.1374 C   0  0  0  0  0  0  0  0  0  0  0  0
  -17.4877  -46.4678  -21.1639 C   0  0  0  0  0  0  0  0  0  0  0  0
  -17.1680  -45.1371  -21.3928 C   0  0  0  0  0  0  0  0  0  0  0  0
  -18.0955  -44.5219  -22.7047 S   0  0  0  0  0  0  0  0  0  0  0  0
  -15.2469  -44.9558  -16.7642 H   0  0  0  0  0  0  0  0  0  0  0  0
  -16.1694  -43.4681  -16.5357 H   0  0  0  0  0  0  0  0  0  0  0  0
  -15.1333  -41.7241  -15.8763 H   0  0  0  0  0  0  0  0  0  0  0  0
  -14.3764  -43.4318  -24.2948 H   0  0  0  0  0  0  0  0  0  0  0  0
  -13.5690  -43.9824  -22.8124 H   0  0  0  0  0  0  0  0  0  0  0  0
  -14.9966  -44.8559  -23.4425 H   0  0  0  0  0  0  0  0  0  0  0  0
  -12.9296  -41.9192  -21.7319 H   0  0  0  0  0  0  0  0  0  0  0  0
  -13.0982  -40.8883  -20.3232 H   0  0  0  0  0  0  0  0  0  0  0  0
  -14.4385  -39.4587  -23.4685 H   0  0  0  0  0  0  0  0  0  0  0  0
  -13.7701  -42.1037  -18.5044 H   0  0  0  0  0  0  0  0  0  0  0  0
  -16.7804  -45.1688  -18.7631 H   0  0  0  0  0  0  0  0  0  0  0  0
  -19.2579  -46.2131  -24.0078 H   0  0  0  0  0  0  0  0  0  0  0  0
  -18.7138  -48.0280  -22.1748 H   0  0  0  0  0  0  0  0  0  0  0  0
  -17.0578  -47.0625  -20.3677 H   0  0  0  0  0  0  0  0  0  0  0  0
  2  6  1  0
  4  5  2  0
  1  5  1  0
  5  3  1  0
  7  9  1  0
 10  9  2  0
  9  8  1  0
 11 16  2  0
 11  1  1  0
 11 12  1  0
 12 13  2  0
 13 14  1  0
 14 15  2  0
 14  2  1  0
 15 20  1  0
 15 16  1  0
 17 18  2  0
 17 21  1  0
 18 19  1  0
 19 20  2  0
 20 21  1  0
  7 13  1  0
  1 22  1  0
  1 23  1  0
  3 24  1  0
  6 25  1  0
  6 26  1  0
  6 27  1  0
  7 28  1  0
  7 29  1  0
  8 30  1  0
 12 31  1  0
 16 32  1  0
 17 33  1  0
 18 34  1  0
 19 35  1  0
M  END
>  <smiles>  (574) 
[H]OC(=O)C([H])([H])c1c([H])c(-c2sc([H])c([H])c2[H])c(OC([H])([H])[H])c(C([H])([H])C(=O)O[H])c1[H]

>  <error>  (574) 


>  <∆∆G>  (574) 
-105.829011

>  <∆G_bound>  (574) 
-53.141811

>  <∆G_unbound>  (574) 
52.6872

>  <comRMSD>  (574) 
1.497439

>  <N_constrained_atoms>  (574) 
21.0

>  <N_unconstrained_atoms>  (574) 
0.0

>  <runtime>  (574) 
2.03081

>  <regarded>  (574) 
['6h80-a', '5hmx-b']

>  <disregarded>  (574) 
[]

>  <LE>  (574) 
5.039477

>  <outcome>  (574) 
too moved

>  <percent_hybrid>  (574) 
20.0

$$$$
LIG
     RDKit          3D

 58 60  0  0  0  0  0  0  0  0999 V2000
  -15.1771  -43.8303  -17.2014 C   0  0  0  0  0  0  0  0  0  0  0  0
  -15.2944  -44.0237  -22.8205 O   0  0  0  0  0  0  0  0  0  0  0  0
  -17.4655  -43.1272  -16.8809 O   0  0  0  0  0  0  0  0  0  0  0  0
  -15.8921  -42.4864  -15.0807 C   0  0  0  0  0  0  0  0  0  0  0  0
  -16.0978  -42.7737  -16.5963 C   0  0  1  0  0  0  0  0  0  0  0  0
  -14.3167  -43.3865  -23.6153 C   0  0  0  0  0  0  0  0  0  0  0  0
  -13.2809  -42.4910  -18.6221 O   0  0  0  0  0  0  0  0  0  0  0  0
  -12.2757  -41.7550  -19.3079 C   0  0  0  0  0  0  0  0  0  0  0  0
  -17.0457  -41.7543  -14.6422 O   0  0  0  0  0  0  0  0  0  0  0  0
  -19.4142  -46.2794  -24.5084 C   0  0  0  0  0  0  0  0  0  0  0  0
  -20.0215  -46.4555  -25.5308 C   0  0  0  0  0  0  0  0  0  0  0  0
  -20.7564  -46.7141  -26.7675 C   0  0  0  0  0  0  0  0  0  0  0  0
  -21.8614  -45.8276  -26.8781 O   0  0  0  0  0  0  0  0  0  0  0  0
  -14.4385  -44.6103  -16.6100 O   0  0  0  0  0  0  0  0  0  0  0  0
  -15.9133  -43.6379  -14.2922 O   0  0  0  0  0  0  0  0  0  0  0  0
  -12.5236  -38.8442  -15.6463 O   0  0  0  0  0  0  0  0  0  0  0  0
  -13.0891  -38.5134  -16.9069 C   0  0  0  0  0  0  0  0  0  0  0  0
  -15.1807  -43.8757  -18.6784 C   0  0  0  0  0  0  0  0  0  0  0  0
  -14.1849  -43.1868  -19.3807 C   0  0  0  0  0  0  0  0  0  0  0  0
  -14.1954  -43.2387  -20.7762 C   0  0  0  0  0  0  0  0  0  0  0  0
  -15.2110  -43.9272  -21.4557 C   0  0  0  0  0  0  0  0  0  0  0  0
  -16.2318  -44.5925  -20.7366 C   0  0  0  0  0  0  0  0  0  0  0  0
  -16.1942  -44.5796  -19.3389 C   0  0  0  0  0  0  0  0  0  0  0  0
  -18.7532  -46.1054  -23.2536 C   0  0  0  0  0  0  0  0  0  0  0  0
  -18.5394  -47.0929  -22.3153 C   0  0  0  0  0  0  0  0  0  0  0  0
  -17.6868  -46.6537  -21.2588 C   0  0  0  0  0  0  0  0  0  0  0  0
  -17.2828  -45.3447  -21.4382 C   0  0  0  0  0  0  0  0  0  0  0  0
  -18.1906  -44.6006  -22.6997 S   0  0  0  0  0  0  0  0  0  0  0  0
  -12.4488  -40.2238  -13.7774 C   0  0  0  0  0  0  0  0  0  0  0  0
  -12.9120  -41.2778  -13.0019 C   0  0  0  0  0  0  0  0  0  0  0  0
  -14.0065  -42.0142  -13.4392 C   0  0  0  0  0  0  0  0  0  0  0  0
  -14.6575  -41.7143  -14.6569 C   0  0  0  0  0  0  0  0  0  0  0  0
  -14.1849  -40.6320  -15.4078 C   0  0  0  0  0  0  0  0  0  0  0  0
  -13.0772  -39.9002  -14.9804 C   0  0  0  0  0  0  0  0  0  0  0  0
  -17.9173  -43.1172  -16.0059 H   0  0  0  0  0  0  0  0  0  0  0  0
  -15.9455  -41.8456  -17.1562 H   0  0  0  0  0  0  0  0  0  0  0  0
  -14.2539  -42.3164  -23.3959 H   0  0  0  0  0  0  0  0  0  0  0  0
  -13.3558  -43.8925  -23.4961 H   0  0  0  0  0  0  0  0  0  0  0  0
  -14.6211  -43.4858  -24.6599 H   0  0  0  0  0  0  0  0  0  0  0  0
  -11.6012  -41.3296  -18.5591 H   0  0  0  0  0  0  0  0  0  0  0  0
  -11.6873  -42.3938  -19.9694 H   0  0  0  0  0  0  0  0  0  0  0  0
  -12.7212  -40.9265  -19.8685 H   0  0  0  0  0  0  0  0  0  0  0  0
  -16.7324  -41.0938  -14.0004 H   0  0  0  0  0  0  0  0  0  0  0  0
  -21.1106  -47.7458  -26.8374 H   0  0  0  0  0  0  0  0  0  0  0  0
  -20.1048  -46.5205  -27.6164 H   0  0  0  0  0  0  0  0  0  0  0  0
  -22.6261  -46.2820  -26.4639 H   0  0  0  0  0  0  0  0  0  0  0  0
  -16.8193  -43.6470  -13.9391 H   0  0  0  0  0  0  0  0  0  0  0  0
  -14.1223  -38.1674  -16.7971 H   0  0  0  0  0  0  0  0  0  0  0  0
  -12.5075  -37.6866  -17.3262 H   0  0  0  0  0  0  0  0  0  0  0  0
  -13.0232  -39.3512  -17.6076 H   0  0  0  0  0  0  0  0  0  0  0  0
  -13.4081  -42.7572  -21.3419 H   0  0  0  0  0  0  0  0  0  0  0  0
  -16.9632  -45.0892  -18.7652 H   0  0  0  0  0  0  0  0  0  0  0  0
  -18.8969  -48.1097  -22.4213 H   0  0  0  0  0  0  0  0  0  0  0  0
  -17.3023  -47.3072  -20.4852 H   0  0  0  0  0  0  0  0  0  0  0  0
  -11.5869  -39.6492  -13.4474 H   0  0  0  0  0  0  0  0  0  0  0  0
  -12.4170  -41.5313  -12.0687 H   0  0  0  0  0  0  0  0  0  0  0  0
  -14.3450  -42.8409  -12.8163 H   0  0  0  0  0  0  0  0  0  0  0  0
  -14.6956  -40.3554  -16.3219 H   0  0  0  0  0  0  0  0  0  0  0  0
  2  6  1  0
  4  5  1  0
  1  5  1  0
  5  3  1  0
  7  8  1  0
  9  4  1  0
 12 13  1  0
 12 11  1  0
 11 10  3  0
 14  1  2  0
 15  4  1  0
 17 16  1  0
 18 23  1  0
 18  1  1  0
 18 19  2  0
 19 20  1  0
 20 21  2  0
 21 22  1  0
 21  2  1  0
 22 27  1  0
 22 23  2  0
 24 25  2  0
 24 28  1  0
 25 26  1  0
 26 27  2  0
 27 28  1  0
 29 34  2  0
 29 30  1  0
 30 31  2  0
 31 32  1  0
 32 33  2  0
 33 34  1  0
 34 16  1  0
  7 19  1  0
 10 24  1  0
  4 32  1  0
  3 35  1  0
  5 36  1  6
  6 37  1  0
  6 38  1  0
  6 39  1  0
  8 40  1  0
  8 41  1  0
  8 42  1  0
  9 43  1  0
 12 44  1  0
 12 45  1  0
 13 46  1  0
 15 47  1  0
 17 48  1  0
 17 49  1  0
 17 50  1  0
 20 51  1  0
 23 52  1  0
 25 53  1  0
 26 54  1  0
 29 55  1  0
 30 56  1  0
 31 57  1  0
 33 58  1  0
M  END
>  <smiles>  (575) 
[H]OC([H])([H])C#Cc1sc(-c2c([H])c(C(=O)[C@@]([H])(O[H])C(O[H])(O[H])c3c([H])c([H])c([H])c(OC([H])([H])[H])c3[H])c(OC([H])([H])[H])c([H])c2OC([H])([H])[H])c([H])c1[H]

>  <error>  (575) 


>  <∆∆G>  (575) 
-77.482724

>  <∆G_bound>  (575) 
109.453444

>  <∆G_unbound>  (575) 
186.936167

>  <comRMSD>  (575) 
0.659989

>  <N_constrained_atoms>  (575) 
34.0

>  <N_unconstrained_atoms>  (575) 
0.0

>  <runtime>  (575) 
3.621504

>  <regarded>  (575) 
['6h80-a', '5k5m-a']

>  <disregarded>  (575) 
[]

>  <LE>  (575) 
2.278904

>  <outcome>  (575) 
acceptable

>  <percent_hybrid>  (575) 
50.0

$$$$
LIG
     RDKit          3D

 47 48  0  0  0  0  0  0  0  0999 V2000
  -15.2299  -43.7549  -17.2673 C   0  0  0  0  0  0  0  0  0  0  0  0
  -15.2624  -44.1016  -22.9545 O   0  0  0  0  0  0  0  0  0  0  0  0
  -17.6180  -43.2888  -17.1798 O   0  0  0  0  0  0  0  0  0  0  0  0
  -16.2941  -42.4793  -15.2936 C   0  0  0  0  0  0  0  0  0  0  0  0
  -16.3236  -42.7692  -16.8184 C   0  0  1  0  0  0  0  0  0  0  0  0
  -14.3804  -43.3422  -23.7545 C   0  0  0  0  0  0  0  0  0  0  0  0
  -19.4977  -46.2309  -24.5601 C   0  0  0  0  0  0  0  0  0  0  0  0
  -20.1263  -46.3909  -25.5722 C   0  0  0  0  0  0  0  0  0  0  0  0
  -20.8593  -46.6400  -26.8108 C   0  0  0  0  0  0  0  0  0  0  0  0
  -21.9787  -45.7712  -26.9093 O   0  0  0  0  0  0  0  0  0  0  0  0
  -15.3673  -41.3177  -14.9683 C   0  0  0  0  0  0  0  0  0  0  0  0
  -13.0184  -42.4585  -18.8620 C   0  0  0  0  0  0  0  0  0  0  0  0
  -15.8168  -43.5610  -14.5295 O   0  0  0  0  0  0  0  0  0  0  0  0
  -17.5859  -42.1421  -14.8135 O   0  0  0  0  0  0  0  0  0  0  0  0
  -15.1493  -43.8556  -18.7797 C   0  0  0  0  0  0  0  0  0  0  0  0
  -14.1343  -43.2247  -19.5199 C   0  0  0  0  0  0  0  0  0  0  0  0
  -14.1455  -43.3237  -20.9213 C   0  0  0  0  0  0  0  0  0  0  0  0
  -15.1755  -43.9865  -21.5933 C   0  0  0  0  0  0  0  0  0  0  0  0
  -16.1967  -44.6184  -20.8605 C   0  0  0  0  0  0  0  0  0  0  0  0
  -16.1501  -44.5763  -19.4629 C   0  0  0  0  0  0  0  0  0  0  0  0
  -18.7969  -46.0771  -23.3234 C   0  0  0  0  0  0  0  0  0  0  0  0
  -18.5737  -47.0744  -22.3967 C   0  0  0  0  0  0  0  0  0  0  0  0
  -17.6956  -46.6536  -21.3540 C   0  0  0  0  0  0  0  0  0  0  0  0
  -17.2728  -45.3520  -21.5397 C   0  0  0  0  0  0  0  0  0  0  0  0
  -18.1941  -44.5853  -22.7770 S   0  0  0  0  0  0  0  0  0  0  0  0
  -14.2622  -43.4605  -16.8497 H   0  0  0  0  0  0  0  0  0  0  0  0
  -15.4210  -44.7626  -16.8882 H   0  0  0  0  0  0  0  0  0  0  0  0
  -17.8173  -42.9310  -18.0646 H   0  0  0  0  0  0  0  0  0  0  0  0
  -16.2291  -41.8163  -17.3557 H   0  0  0  0  0  0  0  0  0  0  0  0
  -14.3339  -42.2940  -23.4430 H   0  0  0  0  0  0  0  0  0  0  0  0
  -13.3974  -43.8174  -23.7596 H   0  0  0  0  0  0  0  0  0  0  0  0
  -14.7663  -43.3572  -24.7768 H   0  0  0  0  0  0  0  0  0  0  0  0
  -21.1960  -47.6771  -26.8933 H   0  0  0  0  0  0  0  0  0  0  0  0
  -20.2094  -46.4248  -27.6563 H   0  0  0  0  0  0  0  0  0  0  0  0
  -22.7460  -46.2598  -26.5461 H   0  0  0  0  0  0  0  0  0  0  0  0
  -15.3568  -41.1200  -13.8896 H   0  0  0  0  0  0  0  0  0  0  0  0
  -14.3351  -41.5290  -15.2669 H   0  0  0  0  0  0  0  0  0  0  0  0
  -15.6975  -40.3951  -15.4578 H   0  0  0  0  0  0  0  0  0  0  0  0
  -12.3953  -43.1347  -18.2679 H   0  0  0  0  0  0  0  0  0  0  0  0
  -12.3698  -41.9743  -19.6000 H   0  0  0  0  0  0  0  0  0  0  0  0
  -13.4232  -41.6697  -18.2199 H   0  0  0  0  0  0  0  0  0  0  0  0
  -16.5020  -43.6447  -13.8390 H   0  0  0  0  0  0  0  0  0  0  0  0
  -18.1833  -42.8168  -15.2106 H   0  0  0  0  0  0  0  0  0  0  0  0
  -13.3220  -42.8843  -21.4775 H   0  0  0  0  0  0  0  0  0  0  0  0
  -16.9279  -45.0839  -18.8949 H   0  0  0  0  0  0  0  0  0  0  0  0
  -18.9475  -48.0856  -22.4995 H   0  0  0  0  0  0  0  0  0  0  0  0
  -17.3054  -47.3153  -20.5903 H   0  0  0  0  0  0  0  0  0  0  0  0
  2  6  1  0
  4  5  1  0
  1  5  1  0
  5  3  1  0
 10  9  1  0
  9  8  1  0
  8  7  3  0
 11  4  1  0
 13  4  1  0
 14  4  1  0
 15 20  2  0
 15  1  1  0
 15 16  1  0
 16 17  2  0
 17 18  1  0
 18 19  2  0
 18  2  1  0
 19 24  1  0
 19 20  1  0
 21 22  2  0
 21 25  1  0
 22 23  1  0
 23 24  2  0
 24 25  1  0
 12 16  1  0
  7 21  1  0
  1 26  1  0
  1 27  1  0
  3 28  1  0
  5 29  1  6
  6 30  1  0
  6 31  1  0
  6 32  1  0
  9 33  1  0
  9 34  1  0
 10 35  1  0
 11 36  1  0
 11 37  1  0
 11 38  1  0
 12 39  1  0
 12 40  1  0
 12 41  1  0
 13 42  1  0
 14 43  1  0
 17 44  1  0
 20 45  1  0
 22 46  1  0
 23 47  1  0
M  END
>  <smiles>  (576) 
[H]OC([H])([H])C#Cc1sc(-c2c([H])c(C([H])([H])[C@@]([H])(O[H])C(O[H])(O[H])C([H])([H])[H])c(C([H])([H])[H])c([H])c2OC([H])([H])[H])c([H])c1[H]

>  <error>  (576) 


>  <∆∆G>  (576) 
-38.842935

>  <∆G_bound>  (576) 
41.343711

>  <∆G_unbound>  (576) 
80.186646

>  <comRMSD>  (576) 
0.695924

>  <N_constrained_atoms>  (576) 
25.0

>  <N_unconstrained_atoms>  (576) 
0.0

>  <runtime>  (576) 
2.46256

>  <regarded>  (576) 
['6h80-a', '5hmz-a']

>  <disregarded>  (576) 
[]

>  <LE>  (576) 
1.553717

>  <outcome>  (576) 
equally sized

>  <percent_hybrid>  (576) 
32.0

$$$$
LIG
     RDKit          3D

 35 36  0  0  0  0  0  0  0  0999 V2000
  -16.1709  -43.0980  -16.9756 C   0  0  0  0  0  0  0  0  0  0  0  0
  -14.9564  -44.1365  -22.4516 O   0  0  0  0  0  0  0  0  0  0  0  0
  -16.4413  -40.7319  -17.3716 O   0  0  0  0  0  0  0  0  0  0  0  0
  -15.3173  -41.3656  -15.5243 O   0  0  0  0  0  0  0  0  0  0  0  0
  -15.9211  -41.6678  -16.5444 C   0  0  0  0  0  0  0  0  0  0  0  0
  -15.1603  -43.0240  -23.3236 C   0  0  0  0  0  0  0  0  0  0  0  0
  -14.2522  -40.3874  -21.2207 O   0  0  0  0  0  0  0  0  0  0  0  0
  -12.0466  -40.4565  -21.4661 O   0  0  0  0  0  0  0  0  0  0  0  0
  -13.2267  -41.0499  -21.1896 C   0  0  0  0  0  0  0  0  0  0  0  0
  -13.0830  -42.5195  -20.8795 C   0  0  0  0  0  0  0  0  0  0  0  0
  -15.8345  -43.4018  -18.4188 C   0  0  0  0  0  0  0  0  0  0  0  0
  -14.6535  -42.9168  -18.9864 C   0  0  0  0  0  0  0  0  0  0  0  0
  -14.3557  -43.1247  -20.3422 C   0  0  0  0  0  0  0  0  0  0  0  0
  -15.2526  -43.8541  -21.1400 C   0  0  0  0  0  0  0  0  0  0  0  0
  -16.4073  -44.4230  -20.5666 C   0  0  0  0  0  0  0  0  0  0  0  0
  -16.6866  -44.1855  -19.2084 C   0  0  0  0  0  0  0  0  0  0  0  0
  -18.7071  -46.2317  -23.1145 C   0  0  0  0  0  0  0  0  0  0  0  0
  -18.4610  -47.1502  -22.1200 C   0  0  0  0  0  0  0  0  0  0  0  0
  -17.6393  -46.6090  -21.0932 C   0  0  0  0  0  0  0  0  0  0  0  0
  -17.3101  -45.2880  -21.3309 C   0  0  0  0  0  0  0  0  0  0  0  0
  -18.1430  -44.6790  -22.7009 S   0  0  0  0  0  0  0  0  0  0  0  0
  -15.5682  -43.7565  -16.3403 H   0  0  0  0  0  0  0  0  0  0  0  0
  -17.2275  -43.3035  -16.7775 H   0  0  0  0  0  0  0  0  0  0  0  0
  -16.8590  -41.1008  -18.1750 H   0  0  0  0  0  0  0  0  0  0  0  0
  -14.2113  -42.5254  -23.5267 H   0  0  0  0  0  0  0  0  0  0  0  0
  -15.5394  -43.4082  -24.2757 H   0  0  0  0  0  0  0  0  0  0  0  0
  -15.8841  -42.3002  -22.9317 H   0  0  0  0  0  0  0  0  0  0  0  0
  -12.2962  -39.5219  -21.6180 H   0  0  0  0  0  0  0  0  0  0  0  0
  -12.7836  -43.0435  -21.7836 H   0  0  0  0  0  0  0  0  0  0  0  0
  -12.2837  -42.6462  -20.1404 H   0  0  0  0  0  0  0  0  0  0  0  0
  -13.9558  -42.3389  -18.3776 H   0  0  0  0  0  0  0  0  0  0  0  0
  -17.5957  -44.6014  -18.7770 H   0  0  0  0  0  0  0  0  0  0  0  0
  -19.2214  -46.3937  -24.0525 H   0  0  0  0  0  0  0  0  0  0  0  0
  -18.7888  -48.1806  -22.1699 H   0  0  0  0  0  0  0  0  0  0  0  0
  -17.2539  -47.1847  -20.2614 H   0  0  0  0  0  0  0  0  0  0  0  0
  2  6  1  0
  4  5  2  0
  1  5  1  0
  5  3  1  0
 10  9  1  0
  7  9  2  0
  9  8  1  0
 11 16  2  0
 11  1  1  0
 11 12  1  0
 12 13  2  0
 13 14  1  0
 14 15  2  0
 14  2  1  0
 15 20  1  0
 15 16  1  0
 17 18  2  0
 17 21  1  0
 18 19  1  0
 19 20  2  0
 20 21  1  0
 10 13  1  0
  1 22  1  0
  1 23  1  0
  3 24  1  0
  6 25  1  0
  6 26  1  0
  6 27  1  0
  8 28  1  0
 10 29  1  0
 10 30  1  0
 12 31  1  0
 16 32  1  0
 17 33  1  0
 18 34  1  0
 19 35  1  0
M  END
>  <smiles>  (577) 
[H]OC(=O)C([H])([H])c1c([H])c(-c2sc([H])c([H])c2[H])c(OC([H])([H])[H])c(C([H])([H])C(=O)O[H])c1[H]

>  <error>  (577) 


>  <∆∆G>  (577) 
-72.820283

>  <∆G_bound>  (577) 
-57.033358

>  <∆G_unbound>  (577) 
15.786925

>  <comRMSD>  (577) 
1.137616

>  <N_constrained_atoms>  (577) 
21.0

>  <N_unconstrained_atoms>  (577) 
0.0

>  <runtime>  (577) 
1.737032

>  <regarded>  (577) 
['6h80-a', '5hmw-b']

>  <disregarded>  (577) 
[]

>  <LE>  (577) 
3.467633

>  <outcome>  (577) 
too moved

>  <percent_hybrid>  (577) 
20.0

$$$$
LIG
     RDKit          3D

 29 30  0  0  0  0  0  0  0  0999 V2000
  -15.5228  -43.3915  -17.0691 C   0  0  0  0  0  0  0  0  0  0  0  0
  -14.9432  -44.2521  -22.6679 O   0  0  0  0  0  0  0  0  0  0  0  0
  -15.5378  -40.9877  -17.1891 O   0  0  0  0  0  0  0  0  0  0  0  0
  -14.1932  -41.9557  -15.6561 O   0  0  0  0  0  0  0  0  0  0  0  0
  -15.0070  -42.0633  -16.5625 C   0  0  0  0  0  0  0  0  0  0  0  0
  -14.8691  -43.0445  -23.4223 C   0  0  0  0  0  0  0  0  0  0  0  0
  -15.3634  -43.6144  -18.5566 C   0  0  0  0  0  0  0  0  0  0  0  0
  -14.1999  -43.2139  -19.2276 C   0  0  0  0  0  0  0  0  0  0  0  0
  -14.0699  -43.4114  -20.6022 C   0  0  0  0  0  0  0  0  0  0  0  0
  -15.0982  -44.0167  -21.3253 C   0  0  0  0  0  0  0  0  0  0  0  0
  -16.2366  -44.5064  -20.6634 C   0  0  0  0  0  0  0  0  0  0  0  0
  -16.3609  -44.2917  -19.2798 C   0  0  0  0  0  0  0  0  0  0  0  0
  -18.7243  -46.1641  -23.1234 C   0  0  0  0  0  0  0  0  0  0  0  0
  -18.5020  -47.0994  -22.1384 C   0  0  0  0  0  0  0  0  0  0  0  0
  -17.6422  -46.5998  -21.1214 C   0  0  0  0  0  0  0  0  0  0  0  0
  -17.2460  -45.2990  -21.3694 C   0  0  0  0  0  0  0  0  0  0  0  0
  -18.0896  -44.6388  -22.7094 S   0  0  0  0  0  0  0  0  0  0  0  0
  -14.9911  -44.1922  -16.5422 H   0  0  0  0  0  0  0  0  0  0  0  0
  -16.5789  -43.4472  -16.7823 H   0  0  0  0  0  0  0  0  0  0  0  0
  -16.1561  -41.2234  -17.9083 H   0  0  0  0  0  0  0  0  0  0  0  0
  -14.0288  -42.4177  -23.1179 H   0  0  0  0  0  0  0  0  0  0  0  0
  -14.7318  -43.3126  -24.4736 H   0  0  0  0  0  0  0  0  0  0  0  0
  -15.8005  -42.4750  -23.3348 H   0  0  0  0  0  0  0  0  0  0  0  0
  -13.3706  -42.7480  -18.6947 H   0  0  0  0  0  0  0  0  0  0  0  0
  -13.1417  -43.1329  -21.0981 H   0  0  0  0  0  0  0  0  0  0  0  0
  -17.2502  -44.6558  -18.7687 H   0  0  0  0  0  0  0  0  0  0  0  0
  -19.2565  -46.2964  -24.0558 H   0  0  0  0  0  0  0  0  0  0  0  0
  -18.8712  -48.1161  -22.1899 H   0  0  0  0  0  0  0  0  0  0  0  0
  -17.2603  -47.2006  -20.3058 H   0  0  0  0  0  0  0  0  0  0  0  0
  2  6  1  0
  4  5  2  0
  1  5  1  0
  5  3  1  0
  7 12  2  0
  7  1  1  0
  7  8  1  0
  8  9  2  0
  9 10  1  0
 10 11  2  0
 10  2  1  0
 11 16  1  0
 11 12  1  0
 13 14  2  0
 13 17  1  0
 14 15  1  0
 15 16  2  0
 16 17  1  0
  1 18  1  0
  1 19  1  0
  3 20  1  0
  6 21  1  0
  6 22  1  0
  6 23  1  0
  8 24  1  0
  9 25  1  0
 12 26  1  0
 13 27  1  0
 14 28  1  0
 15 29  1  0
M  END
>  <smiles>  (578) 
[H]OC(=O)C([H])([H])c1c([H])c([H])c(OC([H])([H])[H])c(-c2sc([H])c([H])c2[H])c1[H]

>  <error>  (578) 


>  <∆∆G>  (578) 
-47.785208

>  <∆G_bound>  (578) 
-55.470018

>  <∆G_unbound>  (578) 
-7.684811

>  <comRMSD>  (578) 
1.17988

>  <N_constrained_atoms>  (578) 
17.0

>  <N_unconstrained_atoms>  (578) 
0.0

>  <runtime>  (578) 
1.416795

>  <regarded>  (578) 
['6h80-a', '5f3z-a']

>  <disregarded>  (578) 
[]

>  <LE>  (578) 
2.810895

>  <outcome>  (578) 
equally sized

>  <percent_hybrid>  (578) 
0.0

$$$$
LIG
     RDKit          3D

 29 30  0  0  0  0  0  0  0  0999 V2000
  -15.5228  -43.3915  -17.0691 C   0  0  0  0  0  0  0  0  0  0  0  0
  -14.9432  -44.2521  -22.6679 O   0  0  0  0  0  0  0  0  0  0  0  0
  -15.5378  -40.9877  -17.1891 O   0  0  0  0  0  0  0  0  0  0  0  0
  -14.1932  -41.9557  -15.6561 O   0  0  0  0  0  0  0  0  0  0  0  0
  -15.0070  -42.0633  -16.5625 C   0  0  0  0  0  0  0  0  0  0  0  0
  -14.8691  -43.0445  -23.4223 C   0  0  0  0  0  0  0  0  0  0  0  0
  -15.3634  -43.6144  -18.5566 C   0  0  0  0  0  0  0  0  0  0  0  0
  -14.1999  -43.2139  -19.2276 C   0  0  0  0  0  0  0  0  0  0  0  0
  -14.0699  -43.4114  -20.6022 C   0  0  0  0  0  0  0  0  0  0  0  0
  -15.0982  -44.0167  -21.3253 C   0  0  0  0  0  0  0  0  0  0  0  0
  -16.2366  -44.5064  -20.6634 C   0  0  0  0  0  0  0  0  0  0  0  0
  -16.3609  -44.2917  -19.2798 C   0  0  0  0  0  0  0  0  0  0  0  0
  -18.7243  -46.1641  -23.1234 C   0  0  0  0  0  0  0  0  0  0  0  0
  -18.5020  -47.0994  -22.1384 C   0  0  0  0  0  0  0  0  0  0  0  0
  -17.6422  -46.5998  -21.1214 C   0  0  0  0  0  0  0  0  0  0  0  0
  -17.2460  -45.2990  -21.3694 C   0  0  0  0  0  0  0  0  0  0  0  0
  -18.0896  -44.6388  -22.7094 S   0  0  0  0  0  0  0  0  0  0  0  0
  -14.9911  -44.1922  -16.5422 H   0  0  0  0  0  0  0  0  0  0  0  0
  -16.5789  -43.4472  -16.7823 H   0  0  0  0  0  0  0  0  0  0  0  0
  -16.1561  -41.2234  -17.9083 H   0  0  0  0  0  0  0  0  0  0  0  0
  -14.0288  -42.4177  -23.1179 H   0  0  0  0  0  0  0  0  0  0  0  0
  -14.7318  -43.3126  -24.4736 H   0  0  0  0  0  0  0  0  0  0  0  0
  -15.8005  -42.4750  -23.3348 H   0  0  0  0  0  0  0  0  0  0  0  0
  -13.3706  -42.7480  -18.6947 H   0  0  0  0  0  0  0  0  0  0  0  0
  -13.1417  -43.1329  -21.0981 H   0  0  0  0  0  0  0  0  0  0  0  0
  -17.2502  -44.6558  -18.7687 H   0  0  0  0  0  0  0  0  0  0  0  0
  -19.2565  -46.2964  -24.0558 H   0  0  0  0  0  0  0  0  0  0  0  0
  -18.8712  -48.1161  -22.1899 H   0  0  0  0  0  0  0  0  0  0  0  0
  -17.2603  -47.2006  -20.3058 H   0  0  0  0  0  0  0  0  0  0  0  0
  2  6  1  0
  4  5  2  0
  1  5  1  0
  5  3  1  0
  7 12  2  0
  7  1  1  0
  7  8  1  0
  8  9  2  0
  9 10  1  0
 10 11  2  0
 10  2  1  0
 11 16  1  0
 11 12  1  0
 13 14  2  0
 13 17  1  0
 14 15  1  0
 15 16  2  0
 16 17  1  0
  1 18  1  0
  1 19  1  0
  3 20  1  0
  6 21  1  0
  6 22  1  0
  6 23  1  0
  8 24  1  0
  9 25  1  0
 12 26  1  0
 13 27  1  0
 14 28  1  0
 15 29  1  0
M  END
>  <smiles>  (579) 
[H]OC(=O)C([H])([H])c1c([H])c([H])c(OC([H])([H])[H])c(-c2sc([H])c([H])c2[H])c1[H]

>  <error>  (579) 


>  <∆∆G>  (579) 
-47.785208

>  <∆G_bound>  (579) 
-55.470018

>  <∆G_unbound>  (579) 
-7.684811

>  <comRMSD>  (579) 
1.17988

>  <N_constrained_atoms>  (579) 
17.0

>  <N_unconstrained_atoms>  (579) 
0.0

>  <runtime>  (579) 
1.46212

>  <regarded>  (579) 
['6h80-a', '6h9r-a']

>  <disregarded>  (579) 
[]

>  <LE>  (579) 
2.810895

>  <outcome>  (579) 
equally sized

>  <percent_hybrid>  (579) 
0.0

$$$$
LIG
     RDKit          3D

 29 30  0  0  0  0  0  0  0  0999 V2000
  -15.5228  -43.3915  -17.0691 C   0  0  0  0  0  0  0  0  0  0  0  0
  -14.9432  -44.2521  -22.6679 O   0  0  0  0  0  0  0  0  0  0  0  0
  -15.5378  -40.9877  -17.1891 O   0  0  0  0  0  0  0  0  0  0  0  0
  -14.1932  -41.9557  -15.6561 O   0  0  0  0  0  0  0  0  0  0  0  0
  -15.0070  -42.0633  -16.5625 C   0  0  0  0  0  0  0  0  0  0  0  0
  -14.8691  -43.0445  -23.4223 C   0  0  0  0  0  0  0  0  0  0  0  0
  -15.3634  -43.6144  -18.5566 C   0  0  0  0  0  0  0  0  0  0  0  0
  -14.1999  -43.2139  -19.2276 C   0  0  0  0  0  0  0  0  0  0  0  0
  -14.0699  -43.4114  -20.6022 C   0  0  0  0  0  0  0  0  0  0  0  0
  -15.0982  -44.0167  -21.3253 C   0  0  0  0  0  0  0  0  0  0  0  0
  -16.2366  -44.5064  -20.6634 C   0  0  0  0  0  0  0  0  0  0  0  0
  -16.3609  -44.2917  -19.2798 C   0  0  0  0  0  0  0  0  0  0  0  0
  -18.7243  -46.1641  -23.1234 C   0  0  0  0  0  0  0  0  0  0  0  0
  -18.5020  -47.0994  -22.1384 C   0  0  0  0  0  0  0  0  0  0  0  0
  -17.6422  -46.5998  -21.1214 C   0  0  0  0  0  0  0  0  0  0  0  0
  -17.2460  -45.2990  -21.3694 C   0  0  0  0  0  0  0  0  0  0  0  0
  -18.0896  -44.6388  -22.7094 S   0  0  0  0  0  0  0  0  0  0  0  0
  -14.9911  -44.1922  -16.5422 H   0  0  0  0  0  0  0  0  0  0  0  0
  -16.5789  -43.4472  -16.7823 H   0  0  0  0  0  0  0  0  0  0  0  0
  -16.1561  -41.2234  -17.9083 H   0  0  0  0  0  0  0  0  0  0  0  0
  -14.0288  -42.4177  -23.1179 H   0  0  0  0  0  0  0  0  0  0  0  0
  -14.7318  -43.3126  -24.4736 H   0  0  0  0  0  0  0  0  0  0  0  0
  -15.8005  -42.4750  -23.3348 H   0  0  0  0  0  0  0  0  0  0  0  0
  -13.3706  -42.7480  -18.6947 H   0  0  0  0  0  0  0  0  0  0  0  0
  -13.1417  -43.1329  -21.0981 H   0  0  0  0  0  0  0  0  0  0  0  0
  -17.2502  -44.6558  -18.7687 H   0  0  0  0  0  0  0  0  0  0  0  0
  -19.2565  -46.2964  -24.0558 H   0  0  0  0  0  0  0  0  0  0  0  0
  -18.8712  -48.1161  -22.1899 H   0  0  0  0  0  0  0  0  0  0  0  0
  -17.2603  -47.2006  -20.3058 H   0  0  0  0  0  0  0  0  0  0  0  0
  2  6  1  0
  4  5  2  0
  1  5  1  0
  5  3  1  0
  7 12  2  0
  7  1  1  0
  7  8  1  0
  8  9  2  0
  9 10  1  0
 10 11  2  0
 10  2  1  0
 11 16  1  0
 11 12  1  0
 13 14  2  0
 13 17  1  0
 14 15  1  0
 15 16  2  0
 16 17  1  0
  1 18  1  0
  1 19  1  0
  3 20  1  0
  6 21  1  0
  6 22  1  0
  6 23  1  0
  8 24  1  0
  9 25  1  0
 12 26  1  0
 13 27  1  0
 14 28  1  0
 15 29  1  0
M  END
>  <smiles>  (580) 
[H]OC(=O)C([H])([H])c1c([H])c([H])c(OC([H])([H])[H])c(-c2sc([H])c([H])c2[H])c1[H]

>  <error>  (580) 


>  <∆∆G>  (580) 
-47.785208

>  <∆G_bound>  (580) 
-55.470018

>  <∆G_unbound>  (580) 
-7.684811

>  <comRMSD>  (580) 
1.17988

>  <N_constrained_atoms>  (580) 
17.0

>  <N_unconstrained_atoms>  (580) 
0.0

>  <runtime>  (580) 
1.425652

>  <regarded>  (580) 
['6h80-a', '5f3t-a']

>  <disregarded>  (580) 
[]

>  <LE>  (580) 
2.810895

>  <outcome>  (580) 
equally sized

>  <percent_hybrid>  (580) 
0.0

$$$$

     RDKit          2D

  0  0  0  0  0  0  0  0  0  0999 V2000
M  END
>  <smiles>  (581) 
nan

>  <error>  (581) 
DistanceError 5.61 Å

>  <∆∆G>  (581) 
nan

>  <∆G_bound>  (581) 
nan

>  <∆G_unbound>  (581) 
nan

>  <comRMSD>  (581) 
nan

>  <N_constrained_atoms>  (581) 
nan

>  <N_unconstrained_atoms>  (581) 
nan

>  <runtime>  (581) 
nan

>  <regarded>  (581) 
[]

>  <disregarded>  (581) 
[]

>  <LE>  (581) 
nan

>  <outcome>  (581) 
too distant

>  <percent_hybrid>  (581) 
nan

$$$$
LIG
     RDKit          3D

 58 61  0  0  0  0  0  0  0  0999 V2000
  -13.3275  -42.4422  -20.3475 C   0  0  0  0  0  0  0  0  0  0  0  0
  -14.5362  -40.3168  -19.9485 O   0  0  0  0  0  0  0  0  0  0  0  0
  -18.6455  -41.2878  -16.0454 O   0  0  0  0  0  0  0  0  0  0  0  0
  -19.2710  -42.8724  -17.4811 O   0  0  0  0  0  0  0  0  0  0  0  0
  -19.2982  -46.2641  -24.3516 C   0  0  0  0  0  0  0  0  0  0  0  0
  -19.9242  -46.4236  -25.3687 C   0  0  0  0  0  0  0  0  0  0  0  0
  -20.6971  -46.6724  -26.5946 C   0  0  0  0  0  0  0  0  0  0  0  0
  -12.3612  -40.1944  -20.5300 O   0  0  0  0  0  0  0  0  0  0  0  0
  -13.5410  -40.9527  -20.7343 C   0  0  1  0  0  0  0  0  0  0  0  0
  -16.8997  -42.6652  -16.8820 C   0  0  0  0  0  0  0  0  0  0  0  0
  -18.3672  -42.3104  -16.8819 C   0  0  0  0  0  0  0  0  0  0  0  0
  -21.8382  -45.8280  -26.6315 O   0  0  0  0  0  0  0  0  0  0  0  0
  -14.5601  -43.1649  -19.8351 C   0  0  0  0  0  0  0  0  0  0  0  0
  -15.0973  -42.7857  -18.6011 C   0  0  0  0  0  0  0  0  0  0  0  0
  -16.3453  -43.2502  -18.1674 C   0  0  0  0  0  0  0  0  0  0  0  0
  -17.0261  -44.1850  -18.9640 C   0  0  0  0  0  0  0  0  0  0  0  0
  -16.4978  -44.5985  -20.1941 C   0  0  0  0  0  0  0  0  0  0  0  0
  -15.2340  -44.1340  -20.5820 C   0  0  0  0  0  0  0  0  0  0  0  0
  -18.4578  -47.1369  -22.1646 C   0  0  0  0  0  0  0  0  0  0  0  0
  -18.6198  -46.1286  -23.0925 C   0  0  0  0  0  0  0  0  0  0  0  0
  -17.9414  -44.6691  -22.5350 S   0  0  0  0  0  0  0  0  0  0  0  0
  -17.2990  -45.4076  -21.1179 C   0  0  0  0  0  0  0  0  0  0  0  0
  -17.6806  -46.7291  -21.0364 C   0  0  0  0  0  0  0  0  0  0  0  0
  -14.6371  -42.7793  -23.4491 C   0  0  0  0  0  0  0  0  0  0  0  0
  -14.4591  -41.3316  -23.2076 C   0  0  0  0  0  0  0  0  0  0  0  0
  -13.9328  -40.6487  -22.1293 C   0  0  0  0  0  0  0  0  0  0  0  0
  -13.8449  -39.3456  -22.5462 N   0  0  0  0  0  0  0  0  0  0  0  0
  -14.4769  -39.0965  -23.6969 N   0  0  0  0  0  0  0  0  0  0  0  0
  -14.9077  -40.3021  -24.0868 C   0  0  0  0  0  0  0  0  0  0  0  0
  -16.9775  -41.2007  -25.0617 C   0  0  0  0  0  0  0  0  0  0  0  0
  -15.7872  -40.4856  -25.2274 C   0  0  0  0  0  0  0  0  0  0  0  0
  -15.4609  -39.9781  -26.4755 C   0  0  0  0  0  0  0  0  0  0  0  0
  -16.3322  -40.2367  -27.5161 C   0  0  0  0  0  0  0  0  0  0  0  0
  -17.4845  -40.9355  -27.3922 N   0  0  0  0  0  0  0  0  0  0  0  0
  -17.7839  -41.3945  -26.1611 C   0  0  0  0  0  0  0  0  0  0  0  0
  -12.8492  -42.9981  -21.1584 H   0  0  0  0  0  0  0  0  0  0  0  0
  -12.5907  -42.4948  -19.5325 H   0  0  0  0  0  0  0  0  0  0  0  0
  -19.6251  -41.2491  -16.0392 H   0  0  0  0  0  0  0  0  0  0  0  0
  -21.0119  -47.7156  -26.6835 H   0  0  0  0  0  0  0  0  0  0  0  0
  -20.0967  -46.4410  -27.4728 H   0  0  0  0  0  0  0  0  0  0  0  0
  -12.0058  -40.4719  -19.6704 H   0  0  0  0  0  0  0  0  0  0  0  0
  -16.3589  -41.7343  -16.6644 H   0  0  0  0  0  0  0  0  0  0  0  0
  -16.6949  -43.3479  -16.0561 H   0  0  0  0  0  0  0  0  0  0  0  0
  -22.6086  -46.3649  -26.3500 H   0  0  0  0  0  0  0  0  0  0  0  0
  -14.5677  -42.0431  -18.0018 H   0  0  0  0  0  0  0  0  0  0  0  0
  -18.0126  -44.5418  -18.6742 H   0  0  0  0  0  0  0  0  0  0  0  0
  -14.7999  -44.5100  -21.5029 H   0  0  0  0  0  0  0  0  0  0  0  0
  -18.8455  -48.1393  -22.3011 H   0  0  0  0  0  0  0  0  0  0  0  0
  -17.4015  -47.3860  -20.2232 H   0  0  0  0  0  0  0  0  0  0  0  0
  -15.5948  -43.1058  -23.0537 H   0  0  0  0  0  0  0  0  0  0  0  0
  -14.6333  -43.0015  -24.5220 H   0  0  0  0  0  0  0  0  0  0  0  0
  -13.8237  -43.3706  -23.0303 H   0  0  0  0  0  0  0  0  0  0  0  0
  -17.2807  -41.5843  -24.0942 H   0  0  0  0  0  0  0  0  0  0  0  0
  -14.5487  -39.4129  -26.6314 H   0  0  0  0  0  0  0  0  0  0  0  0
  -16.1229  -39.8867  -28.5198 H   0  0  0  0  0  0  0  0  0  0  0  0
  -18.7234  -41.9316  -26.0762 H   0  0  0  0  0  0  0  0  0  0  0  0
  -15.3866  -40.4755  -20.3952 H   0  0  0  0  0  0  0  0  0  0  0  0
  -13.4351  -38.5798  -22.0193 H   0  0  0  0  0  0  0  0  0  0  0  0
 12  7  1  0
  7  6  1  0
  6  5  3  0
 10 11  1  0
  4 11  2  0
 11  3  1  0
  1  9  1  0
  9  2  1  1
  9  8  1  0
 13 18  1  0
 13 14  2  0
 13  1  1  0
 14 15  1  0
 15 16  2  0
 15 10  1  0
 16 17  1  0
 17 22  1  0
 17 18  2  0
 19 20  2  0
 19 23  1  0
 20  5  1  0
 20 21  1  0
 21 22  1  0
 22 23  2  0
 25 24  1  0
 25 26  2  0
 25 29  1  0
 26 27  1  0
 27 28  1  0
 28 29  2  0
 29 31  1  0
 30 35  2  0
 30 31  1  0
 31 32  2  0
 32 33  1  0
 33 34  2  0
 34 35  1  0
  9 26  1  0
  1 36  1  0
  1 37  1  0
  3 38  1  0
  7 39  1  0
  7 40  1  0
  8 41  1  0
 10 42  1  0
 10 43  1  0
 12 44  1  0
 14 45  1  0
 16 46  1  0
 18 47  1  0
 19 48  1  0
 23 49  1  0
 24 50  1  0
 24 51  1  0
 24 52  1  0
 30 53  1  0
 32 54  1  0
 33 55  1  0
 35 56  1  0
  2 57  1  0
 27 58  1  0
M  END
>  <smiles>  (582) 
[H]OC(=O)C([H])([H])c1c([H])c(-c2sc(C#CC([H])([H])O[H])c([H])c2[H])c([H])c(C([H])([H])[C@@](O)(O[H])c2[nH]nc(-c3c([H])c([H])nc([H])c3[H])c2C([H])([H])[H])c1[H]

>  <error>  (582) 


>  <∆∆G>  (582) 
-527.738029

>  <∆G_bound>  (582) 
194.0829

>  <∆G_unbound>  (582) 
721.82093

>  <comRMSD>  (582) 
1.154418

>  <N_constrained_atoms>  (582) 
35.0

>  <N_unconstrained_atoms>  (582) 
0.0

>  <runtime>  (582) 
3.485597

>  <regarded>  (582) 
['5hmy-a', 'd0160a']

>  <disregarded>  (582) 
[]

>  <LE>  (582) 
15.078229

>  <outcome>  (582) 
too moved

>  <percent_hybrid>  (582) 
35.0

$$$$
LIG
     RDKit          3D

 62 65  0  0  0  0  0  0  0  0999 V2000
  -13.2379  -43.2094  -20.4500 C   0  0  1  0  0  0  0  0  0  0  0  0
  -12.1921  -42.5458  -18.3155 O   0  0  0  0  0  0  0  0  0  0  0  0
  -18.5987  -41.2484  -16.1328 O   0  0  0  0  0  0  0  0  0  0  0  0
  -19.3106  -42.8692  -17.4810 O   0  0  0  0  0  0  0  0  0  0  0  0
  -19.3680  -46.3035  -24.4368 C   0  0  0  0  0  0  0  0  0  0  0  0
  -19.9844  -46.4436  -25.4608 C   0  0  0  0  0  0  0  0  0  0  0  0
  -20.7475  -46.6803  -26.6898 C   0  0  0  0  0  0  0  0  0  0  0  0
  -11.3359  -41.7061  -20.1902 O   0  0  0  0  0  0  0  0  0  0  0  0
  -12.2560  -42.4553  -19.5376 C   0  0  0  0  0  0  0  0  0  0  0  0
  -16.9074  -42.6704  -17.0009 C   0  0  0  0  0  0  0  0  0  0  0  0
  -18.3706  -42.3022  -16.9470 C   0  0  0  0  0  0  0  0  0  0  0  0
  -21.8801  -45.8257  -26.7375 O   0  0  0  0  0  0  0  0  0  0  0  0
  -14.5627  -43.6389  -19.8403 C   0  0  0  0  0  0  0  0  0  0  0  0
  -15.0985  -43.0797  -18.6753 C   0  0  0  0  0  0  0  0  0  0  0  0
  -16.4059  -43.3729  -18.2509 C   0  0  0  0  0  0  0  0  0  0  0  0
  -17.1708  -44.2723  -19.0100 C   0  0  0  0  0  0  0  0  0  0  0  0
  -16.6687  -44.8038  -20.2013 C   0  0  0  0  0  0  0  0  0  0  0  0
  -15.3582  -44.5242  -20.5803 C   0  0  0  0  0  0  0  0  0  0  0  0
  -18.5606  -47.2608  -22.2820 C   0  0  0  0  0  0  0  0  0  0  0  0
  -18.7302  -46.2080  -23.1574 C   0  0  0  0  0  0  0  0  0  0  0  0
  -18.1689  -44.7511  -22.4835 S   0  0  0  0  0  0  0  0  0  0  0  0
  -17.5036  -45.5583  -21.1227 C   0  0  0  0  0  0  0  0  0  0  0  0
  -17.8230  -46.8950  -21.1202 C   0  0  0  0  0  0  0  0  0  0  0  0
  -15.4976  -39.8140  -26.4661 C   0  0  0  0  0  0  0  0  0  0  0  0
  -14.7217  -40.5031  -24.1949 C   0  0  0  0  0  0  0  0  0  0  0  0
  -14.9066  -41.5668  -23.3399 C   0  0  0  0  0  0  0  0  0  0  0  0
  -15.5878  -42.5649  -24.1017 C   0  0  0  0  0  0  0  0  0  0  0  0
  -15.8746  -42.0368  -25.3424 C   0  0  0  0  0  0  0  0  0  0  0  0
  -15.3701  -40.7653  -25.3716 N   0  0  0  0  0  0  0  0  0  0  0  0
  -17.7286  -38.8361  -27.1173 C   0  0  0  0  0  0  0  0  0  0  0  0
  -16.6515  -38.8708  -26.2388 C   0  0  0  0  0  0  0  0  0  0  0  0
  -16.6951  -37.9858  -25.1551 C   0  0  0  0  0  0  0  0  0  0  0  0
  -17.7901  -37.1478  -24.9779 C   0  0  0  0  0  0  0  0  0  0  0  0
  -18.8120  -37.2048  -25.9081 C   0  0  0  0  0  0  0  0  0  0  0  0
  -18.8065  -38.0188  -26.9882 N   0  0  0  0  0  0  0  0  0  0  0  0
  -13.4126  -42.5795  -21.7747 N   0  0  0  0  0  0  0  0  0  0  0  0
  -14.4834  -41.6132  -21.9014 C   0  0  0  0  0  0  0  0  0  0  0  0
  -12.6998  -44.1496  -20.6342 H   0  0  0  0  0  0  0  0  0  0  0  0
  -19.5768  -41.2034  -16.0827 H   0  0  0  0  0  0  0  0  0  0  0  0
  -21.0729  -47.7199  -26.7828 H   0  0  0  0  0  0  0  0  0  0  0  0
  -20.1315  -46.4474  -27.5562 H   0  0  0  0  0  0  0  0  0  0  0  0
  -10.5441  -41.7813  -19.6048 H   0  0  0  0  0  0  0  0  0  0  0  0
  -16.3536  -41.7274  -16.8984 H   0  0  0  0  0  0  0  0  0  0  0  0
  -16.6692  -43.2830  -16.1279 H   0  0  0  0  0  0  0  0  0  0  0  0
  -22.6440  -46.3383  -26.3978 H   0  0  0  0  0  0  0  0  0  0  0  0
  -14.5234  -42.3535  -18.1029 H   0  0  0  0  0  0  0  0  0  0  0  0
  -18.1948  -44.5100  -18.7315 H   0  0  0  0  0  0  0  0  0  0  0  0
  -14.9795  -44.9276  -21.5196 H   0  0  0  0  0  0  0  0  0  0  0  0
  -18.9075  -48.2650  -22.4847 H   0  0  0  0  0  0  0  0  0  0  0  0
  -17.5070  -47.5893  -20.3536 H   0  0  0  0  0  0  0  0  0  0  0  0
  -14.5554  -39.2627  -26.5473 H   0  0  0  0  0  0  0  0  0  0  0  0
  -15.6232  -40.3910  -27.3899 H   0  0  0  0  0  0  0  0  0  0  0  0
  -14.2157  -39.5616  -24.0337 H   0  0  0  0  0  0  0  0  0  0  0  0
  -15.8495  -43.5585  -23.7705 H   0  0  0  0  0  0  0  0  0  0  0  0
  -16.3861  -42.4665  -26.1929 H   0  0  0  0  0  0  0  0  0  0  0  0
  -17.7574  -39.4834  -27.9896 H   0  0  0  0  0  0  0  0  0  0  0  0
  -15.8829  -37.9447  -24.4361 H   0  0  0  0  0  0  0  0  0  0  0  0
  -17.8439  -36.4700  -24.1335 H   0  0  0  0  0  0  0  0  0  0  0  0
  -19.6902  -36.5735  -25.8055 H   0  0  0  0  0  0  0  0  0  0  0  0
  -13.5117  -43.3221  -22.4653 H   0  0  0  0  0  0  0  0  0  0  0  0
  -15.3847  -41.8354  -21.3235 H   0  0  0  0  0  0  0  0  0  0  0  0
  -14.1280  -40.6297  -21.5736 H   0  0  0  0  0  0  0  0  0  0  0  0
 12  7  1  0
  7  6  1  0
  6  5  3  0
 10 11  1  0
  4 11  2  0
 11  3  1  0
  1  9  1  0
  2  9  2  0
  9  8  1  0
 13 18  1  0
 13 14  2  0
 13  1  1  0
 14 15  1  0
 15 16  2  0
 15 10  1  0
 16 17  1  0
 17 22  1  0
 17 18  2  0
 19 20  2  0
 19 23  1  0
 20  5  1  0
 20 21  1  0
 21 22  1  0
 22 23  2  0
 25 26  2  0
 25 29  1  0
 26 27  1  0
 27 28  2  0
 28 29  1  0
 29 24  1  0
 30 35  2  0
 30 31  1  0
 31 24  1  0
 31 32  2  0
 32 33  1  0
 33 34  2  0
 34 35  1  0
 36  1  1  0
 37 36  1  0
 37 26  1  0
  1 38  1  6
  3 39  1  0
  7 40  1  0
  7 41  1  0
  8 42  1  0
 10 43  1  0
 10 44  1  0
 12 45  1  0
 14 46  1  0
 16 47  1  0
 18 48  1  0
 19 49  1  0
 23 50  1  0
 24 51  1  0
 24 52  1  0
 25 53  1  0
 27 54  1  0
 28 55  1  0
 30 56  1  0
 32 57  1  0
 33 58  1  0
 34 59  1  0
 36 60  1  0
 37 61  1  0
 37 62  1  0
M  END
>  <smiles>  (583) 
[H]OC(=O)C([H])([H])c1c([H])c(-c2sc(C#CC([H])([H])O[H])c([H])c2[H])c([H])c([C@]([H])(C(=O)O[H])N([H])C([H])([H])c2c([H])c([H])n(C([H])([H])c3c([H])nc([H])c([H])c3[H])c2[H])c1[H]

>  <error>  (583) 


>  <∆∆G>  (583) 
-311.6281

>  <∆G_bound>  (583) 
263.561221

>  <∆G_unbound>  (583) 
575.189321

>  <comRMSD>  (583) 
1.569811

>  <N_constrained_atoms>  (583) 
35.0

>  <N_unconstrained_atoms>  (583) 
2.0

>  <runtime>  (583) 
5.482312

>  <regarded>  (583) 
['5hmy-a', 'd0191a']

>  <disregarded>  (583) 
[]

>  <LE>  (583) 
8.422381

>  <outcome>  (583) 
too moved

>  <percent_hybrid>  (583) 
35.0

$$$$

     RDKit          2D

  0  0  0  0  0  0  0  0  0  0999 V2000
M  END
>  <smiles>  (584) 
nan

>  <error>  (584) 
RuntimeError Range Error
	atomId
	Violation occurred on line 35 in file Code/GraphMol/Conformer.cpp
	Failed Expression: 70 < 70
	RDKIT: 2024.03.5
	BOOST: 1_85


>  <∆∆G>  (584) 
nan

>  <∆G_bound>  (584) 
nan

>  <∆G_unbound>  (584) 
nan

>  <comRMSD>  (584) 
nan

>  <N_constrained_atoms>  (584) 
nan

>  <N_unconstrained_atoms>  (584) 
nan

>  <runtime>  (584) 
nan

>  <regarded>  (584) 
[]

>  <disregarded>  (584) 
[]

>  <LE>  (584) 
nan

>  <outcome>  (584) 
crashed

>  <percent_hybrid>  (584) 
nan

$$$$
LIG
     RDKit          3D

 70 72  0  0  0  0  0  0  0  0999 V2000
  -12.7547  -42.1283  -20.8128 C   0  0  0  0  0  0  0  0  0  0  0  0
  -14.0271  -40.0464  -20.4945 O   0  0  0  0  0  0  0  0  0  0  0  0
  -16.0019  -42.8693  -14.6785 O   0  0  0  0  0  0  0  0  0  0  0  0
  -17.0240  -42.4460  -16.6192 O   0  0  0  0  0  0  0  0  0  0  0  0
  -19.1012  -46.3125  -24.1971 C   0  0  0  0  0  0  0  0  0  0  0  0
  -19.6564  -46.6744  -25.2060 C   0  0  0  0  0  0  0  0  0  0  0  0
  -20.3933  -46.9691  -26.4507 C   0  0  0  0  0  0  0  0  0  0  0  0
  -12.0853  -39.9845  -21.5720 O   0  0  0  0  0  0  0  0  0  0  0  0
  -13.0580  -40.6558  -20.9171 C   0  0  0  0  0  0  0  0  0  0  0  0
  -14.9211  -43.7190  -16.6043 C   0  0  0  0  0  0  0  0  0  0  0  0
  -16.0772  -42.9356  -16.0253 C   0  0  0  0  0  0  0  0  0  0  0  0
  -21.4561  -46.0325  -26.6134 O   0  0  0  0  0  0  0  0  0  0  0  0
  -23.1767  -46.4931  -18.3012 O   0  0  0  0  0  0  0  0  0  0  0  0
  -22.4623  -46.2932  -17.4035 C   0  0  0  0  0  0  0  0  0  0  0  0
  -22.3938  -47.1970  -16.1813 C   0  0  0  0  0  0  0  0  0  0  0  0
  -23.2196  -46.5734  -15.0637 C   0  0  0  0  0  0  0  0  0  0  0  0
  -22.9212  -48.5798  -16.5337 C   0  0  0  0  0  0  0  0  0  0  0  0
  -21.4517  -45.1514  -17.1645 N   0  0  0  0  0  0  0  0  0  0  0  0
  -21.1772  -43.9603  -17.9419 C   0  0  1  0  0  0  0  0  0  0  0  0
  -21.5180  -42.7573  -17.0619 C   0  0  0  0  0  0  0  0  0  0  0  0
  -20.3991  -41.8153  -19.9531 C   0  0  0  0  0  0  0  0  0  0  0  0
  -13.8345  -42.9302  -20.1388 C   0  0  0  0  0  0  0  0  0  0  0  0
  -13.8384  -43.0467  -18.7540 C   0  0  0  0  0  0  0  0  0  0  0  0
  -14.8746  -43.7163  -18.1154 C   0  0  0  0  0  0  0  0  0  0  0  0
  -15.8973  -44.3001  -18.8902 C   0  0  0  0  0  0  0  0  0  0  0  0
  -15.9622  -44.1563  -20.2844 C   0  0  0  0  0  0  0  0  0  0  0  0
  -14.8832  -43.4834  -20.8884 C   0  0  0  0  0  0  0  0  0  0  0  0
  -18.8816  -46.1516  -21.6307 C   0  0  0  0  0  0  0  0  0  0  0  0
  -18.6795  -45.5539  -23.0127 C   0  0  1  0  0  0  0  0  0  0  0  0
  -16.9795  -44.9874  -22.8374 S   0  0  0  0  0  0  0  0  0  0  0  0
  -17.2161  -44.3657  -21.1246 C   0  0  1  0  0  0  0  0  0  0  0  0
  -18.6099  -44.9792  -20.6701 C   0  0  2  0  0  0  0  0  0  0  0  0
  -19.7250  -43.8750  -18.4608 C   0  0  1  0  0  0  0  0  0  0  0  0
  -18.9679  -45.5064  -18.9461 S   0  0  0  0  0  0  0  0  0  0  0  0
  -19.6544  -43.9315  -20.8573 N   0  0  0  0  0  0  0  0  0  0  0  0
  -19.5140  -43.0221  -19.7181 C   0  0  1  0  0  0  0  0  0  0  0  0
  -12.6359  -42.5239  -21.8175 H   0  0  0  0  0  0  0  0  0  0  0  0
  -11.8077  -42.2521  -20.2775 H   0  0  0  0  0  0  0  0  0  0  0  0
  -16.8972  -42.5610  -14.4138 H   0  0  0  0  0  0  0  0  0  0  0  0
  -20.7972  -47.9815  -26.4845 H   0  0  0  0  0  0  0  0  0  0  0  0
  -19.7406  -46.8646  -27.3134 H   0  0  0  0  0  0  0  0  0  0  0  0
  -12.4088  -39.0607  -21.5739 H   0  0  0  0  0  0  0  0  0  0  0  0
  -13.9954  -43.2891  -16.2025 H   0  0  0  0  0  0  0  0  0  0  0  0
  -14.9732  -44.7551  -16.2592 H   0  0  0  0  0  0  0  0  0  0  0  0
  -22.2307  -46.4032  -26.1452 H   0  0  0  0  0  0  0  0  0  0  0  0
  -21.3500  -47.2990  -15.8675 H   0  0  0  0  0  0  0  0  0  0  0  0
  -23.2078  -47.2119  -14.1812 H   0  0  0  0  0  0  0  0  0  0  0  0
  -22.8288  -45.5931  -14.7721 H   0  0  0  0  0  0  0  0  0  0  0  0
  -24.2630  -46.4338  -15.3683 H   0  0  0  0  0  0  0  0  0  0  0  0
  -22.9389  -49.2168  -15.6495 H   0  0  0  0  0  0  0  0  0  0  0  0
  -23.9412  -48.5346  -16.9255 H   0  0  0  0  0  0  0  0  0  0  0  0
  -22.2973  -49.0575  -17.2947 H   0  0  0  0  0  0  0  0  0  0  0  0
  -21.0516  -45.2409  -16.2324 H   0  0  0  0  0  0  0  0  0  0  0  0
  -21.8726  -43.9964  -18.7883 H   0  0  0  0  0  0  0  0  0  0  0  0
  -22.5524  -42.8287  -16.7047 H   0  0  0  0  0  0  0  0  0  0  0  0
  -20.8774  -42.7193  -16.1738 H   0  0  0  0  0  0  0  0  0  0  0  0
  -21.4236  -41.8013  -17.5758 H   0  0  0  0  0  0  0  0  0  0  0  0
  -20.1534  -41.0256  -19.2344 H   0  0  0  0  0  0  0  0  0  0  0  0
  -20.2419  -41.3857  -20.9493 H   0  0  0  0  0  0  0  0  0  0  0  0
  -21.4574  -42.0419  -19.8440 H   0  0  0  0  0  0  0  0  0  0  0  0
  -13.0440  -42.5759  -18.1777 H   0  0  0  0  0  0  0  0  0  0  0  0
  -16.6858  -44.7785  -18.3359 H   0  0  0  0  0  0  0  0  0  0  0  0
  -14.8823  -43.3089  -21.9651 H   0  0  0  0  0  0  0  0  0  0  0  0
  -19.8764  -46.5450  -21.4616 H   0  0  0  0  0  0  0  0  0  0  0  0
  -18.2031  -46.9988  -21.4481 H   0  0  0  0  0  0  0  0  0  0  0  0
  -19.2691  -44.6406  -23.1356 H   0  0  0  0  0  0  0  0  0  0  0  0
  -17.4304  -43.3133  -21.3655 H   0  0  0  0  0  0  0  0  0  0  0  0
  -19.0853  -43.4726  -17.6723 H   0  0  0  0  0  0  0  0  0  0  0  0
  -19.5038  -43.4011  -21.7122 H   0  0  0  0  0  0  0  0  0  0  0  0
  -18.4965  -42.6121  -19.6756 H   0  0  0  0  0  0  0  0  0  0  0  0
 12  7  1  0
  7  6  1  0
  6  5  3  0
 10 11  1  0
  4 11  2  0
 11  3  1  0
  1  9  1  0
  2  9  2  0
  9  8  1  0
 17 15  1  0
 16 15  1  0
 15 14  1  0
 14 13  2  0
 18 14  1  0
 19 18  1  0
 19 20  1  0
 22 27  2  0
 22 23  1  0
 22  1  1  0
 23 24  2  0
 24 25  1  0
 24 10  1  0
 25 26  2  0
 26 31  1  0
 26 27  1  0
 28 29  1  0
 28 32  1  0
 29  5  1  0
 29 30  1  0
 30 31  1  0
 31 32  1  0
 33 19  1  0
 33 34  1  0
 33 36  1  0
 35 36  1  0
 36 21  1  0
 32 34  1  6
 32 35  1  0
  1 37  1  0
  1 38  1  0
  3 39  1  0
  7 40  1  0
  7 41  1  0
  8 42  1  0
 10 43  1  0
 10 44  1  0
 12 45  1  0
 15 46  1  0
 16 47  1  0
 16 48  1  0
 16 49  1  0
 17 50  1  0
 17 51  1  0
 17 52  1  0
 18 53  1  0
 19 54  1  6
 20 55  1  0
 20 56  1  0
 20 57  1  0
 21 58  1  0
 21 59  1  0
 21 60  1  0
 23 61  1  0
 25 62  1  0
 27 63  1  0
 28 64  1  0
 28 65  1  0
 29 66  1  1
 31 67  1  6
 33 68  1  1
 35 69  1  0
 36 70  1  1
M  END
>  <smiles>  (585) 
[H]OC(=O)C([H])([H])c1c([H])c(C([H])([H])C(=O)O[H])c([H])c([C@@]2([H])S[C@@]([H])(C#CC([H])([H])O[H])C([H])([H])[C@]23S[C@]([H])([C@@]([H])(N([H])C(=O)C([H])(C([H])([H])[H])C([H])([H])[H])C([H])([H])[H])[C@]([H])(C([H])([H])[H])N3[H])c1[H]

>  <error>  (585) 


>  <∆∆G>  (585) 
-91.602089

>  <∆G_bound>  (585) 
193.474639

>  <∆G_unbound>  (585) 
285.076728

>  <comRMSD>  (585) 
0.991557

>  <N_constrained_atoms>  (585) 
36.0

>  <N_unconstrained_atoms>  (585) 
0.0

>  <runtime>  (585) 
34.80595

>  <regarded>  (585) 
['5hmy-a', 'd0264a']

>  <disregarded>  (585) 
[]

>  <LE>  (585) 
2.544502

>  <outcome>  (585) 
acceptable

>  <percent_hybrid>  (585) 
37.0

$$$$
LIG
     RDKit          3D

 39 40  0  0  0  0  0  0  0  0999 V2000
  -13.1083  -42.3186  -20.8879 C   0  0  0  0  0  0  0  0  0  0  0  0
  -14.3664  -40.3748  -21.7138 O   0  0  0  0  0  0  0  0  0  0  0  0
  -17.6259  -42.2987  -15.3054 O   0  0  0  0  0  0  0  0  0  0  0  0
  -18.5192  -42.9764  -17.2404 O   0  0  0  0  0  0  0  0  0  0  0  0
  -19.3830  -46.2111  -24.4466 C   0  0  0  0  0  0  0  0  0  0  0  0
  -20.0059  -46.4091  -25.4571 C   0  0  0  0  0  0  0  0  0  0  0  0
  -20.7523  -46.6891  -26.6870 C   0  0  0  0  0  0  0  0  0  0  0  0
  -12.1514  -40.2682  -21.6020 O   0  0  0  0  0  0  0  0  0  0  0  0
  -13.3176  -40.9252  -21.4221 C   0  0  0  0  0  0  0  0  0  0  0  0
  -16.0812  -42.9398  -16.9670 C   0  0  0  0  0  0  0  0  0  0  0  0
  -17.5208  -42.7307  -16.5819 C   0  0  0  0  0  0  0  0  0  0  0  0
  -21.8863  -45.8391  -26.7795 O   0  0  0  0  0  0  0  0  0  0  0  0
  -14.9395  -43.9338  -22.5139 N   0  0  0  0  0  0  0  0  0  0  0  0
  -14.3714  -42.9513  -20.3538 C   0  0  0  0  0  0  0  0  0  0  0  0
  -14.6658  -42.7495  -18.9992 C   0  0  0  0  0  0  0  0  0  0  0  0
  -15.8132  -43.2861  -18.4137 C   0  0  0  0  0  0  0  0  0  0  0  0
  -16.6264  -44.1251  -19.1902 C   0  0  0  0  0  0  0  0  0  0  0  0
  -16.3790  -44.3128  -20.5630 C   0  0  0  0  0  0  0  0  0  0  0  0
  -15.2673  -43.6723  -21.1678 C   0  0  0  0  0  0  0  0  0  0  0  0
  -18.4742  -46.9583  -22.2407 C   0  0  0  0  0  0  0  0  0  0  0  0
  -18.6938  -46.0005  -23.2087 C   0  0  0  0  0  0  0  0  0  0  0  0
  -18.0779  -44.4861  -22.7369 S   0  0  0  0  0  0  0  0  0  0  0  0
  -17.2996  -45.1513  -21.3522 C   0  0  0  0  0  0  0  0  0  0  0  0
  -17.6700  -46.4691  -21.1661 C   0  0  0  0  0  0  0  0  0  0  0  0
  -12.6967  -42.9401  -21.6794 H   0  0  0  0  0  0  0  0  0  0  0  0
  -12.3556  -42.2785  -20.0907 H   0  0  0  0  0  0  0  0  0  0  0  0
  -18.5202  -42.6247  -15.0367 H   0  0  0  0  0  0  0  0  0  0  0  0
  -21.0728  -47.7320  -26.7546 H   0  0  0  0  0  0  0  0  0  0  0  0
  -20.1234  -46.4802  -27.5504 H   0  0  0  0  0  0  0  0  0  0  0  0
  -12.4298  -39.4067  -21.9749 H   0  0  0  0  0  0  0  0  0  0  0  0
  -15.5595  -42.0066  -16.7188 H   0  0  0  0  0  0  0  0  0  0  0  0
  -15.6656  -43.7387  -16.3439 H   0  0  0  0  0  0  0  0  0  0  0  0
  -22.6477  -46.3354  -26.4104 H   0  0  0  0  0  0  0  0  0  0  0  0
  -14.3938  -43.2133  -22.9729 H   0  0  0  0  0  0  0  0  0  0  0  0
  -15.7394  -44.2002  -23.0808 H   0  0  0  0  0  0  0  0  0  0  0  0
  -13.9920  -42.1373  -18.3996 H   0  0  0  0  0  0  0  0  0  0  0  0
  -17.5068  -44.5921  -18.7545 H   0  0  0  0  0  0  0  0  0  0  0  0
  -18.8268  -47.9802  -22.3174 H   0  0  0  0  0  0  0  0  0  0  0  0
  -17.3274  -47.0796  -20.3401 H   0  0  0  0  0  0  0  0  0  0  0  0
 12  7  1  0
  7  6  1  0
  6  5  3  0
 10 11  1  0
  4 11  2  0
 11  3  1  0
  1  9  1  0
  2  9  2  0
  9  8  1  0
 14 19  2  0
 14 15  1  0
 14  1  1  0
 15 16  2  0
 16 17  1  0
 16 10  1  0
 17 18  2  0
 18 23  1  0
 18 19  1  0
 20 21  2  0
 20 24  1  0
 21  5  1  0
 21 22  1  0
 22 23  1  0
 23 24  2  0
 13 19  1  0
  1 25  1  0
  1 26  1  0
  3 27  1  0
  7 28  1  0
  7 29  1  0
  8 30  1  0
 10 31  1  0
 10 32  1  0
 12 33  1  0
 13 34  1  0
 13 35  1  0
 15 36  1  0
 17 37  1  0
 20 38  1  0
 24 39  1  0
M  END
>  <smiles>  (586) 
[H]OC(=O)C([H])([H])c1c([H])c(-c2sc(C#CC([H])([H])O[H])c([H])c2[H])c(N([H])[H])c(C([H])([H])C(=O)O[H])c1[H]

>  <error>  (586) 


>  <∆∆G>  (586) 
-144.686304

>  <∆G_bound>  (586) 
4.85945

>  <∆G_unbound>  (586) 
149.545754

>  <comRMSD>  (586) 
0.974955

>  <N_constrained_atoms>  (586) 
24.0

>  <N_unconstrained_atoms>  (586) 
0.0

>  <runtime>  (586) 
2.211107

>  <regarded>  (586) 
['5hmy-a', 'd0472a']

>  <disregarded>  (586) 
[]

>  <LE>  (586) 
6.028596

>  <outcome>  (586) 
acceptable

>  <percent_hybrid>  (586) 
5.0

$$$$
LIG
     RDKit          3D

 59 61  0  0  0  0  0  0  0  0999 V2000
  -13.0687  -42.3043  -20.6617 C   0  0  0  0  0  0  0  0  0  0  0  0
  -12.0477  -41.9350  -18.4617 O   0  0  0  0  0  0  0  0  0  0  0  0
  -18.0054  -42.1758  -15.3006 O   0  0  0  0  0  0  0  0  0  0  0  0
  -18.9158  -42.8309  -17.2428 O   0  0  0  0  0  0  0  0  0  0  0  0
  -19.6633  -45.5248  -24.6150 C   0  0  0  0  0  0  0  0  0  0  0  0
  -20.3328  -45.8270  -25.5674 C   0  0  0  0  0  0  0  0  0  0  0  0
  -21.0687  -46.2955  -26.7425 C   0  0  0  0  0  0  0  0  0  0  0  0
  -10.8675  -41.5138  -20.3084 O   0  0  0  0  0  0  0  0  0  0  0  0
  -12.0008  -41.8867  -19.6795 C   0  0  0  0  0  0  0  0  0  0  0  0
  -16.5017  -42.6392  -17.0502 C   0  0  0  0  0  0  0  0  0  0  0  0
  -17.9235  -42.5418  -16.5939 C   0  0  0  0  0  0  0  0  0  0  0  0
  -22.2163  -45.4921  -26.9587 O   0  0  0  0  0  0  0  0  0  0  0  0
  -14.4126  -43.7700  -18.7260 F   0  0  0  0  0  0  0  0  0  0  0  0
  -14.2675  -39.3907  -22.7345 C   0  0  0  0  0  0  0  0  0  0  0  0
  -14.0590  -39.3191  -21.5822 O   0  0  0  0  0  0  0  0  0  0  0  0
  -13.5415  -38.8333  -23.8541 N   0  0  0  0  0  0  0  0  0  0  0  0
  -14.5190  -41.9652  -20.2768 C   0  0  2  0  0  0  0  0  0  0  0  0
  -14.8295  -42.4753  -18.8583 C   0  0  1  0  0  0  0  0  0  0  0  0
  -16.3171  -42.4227  -18.5531 C   0  0  1  0  0  0  0  0  0  0  0  0
  -17.0443  -43.4447  -19.4416 C   0  0  0  0  0  0  0  0  0  0  0  0
  -16.3586  -43.6719  -20.8159 C   0  0  2  0  0  0  0  0  0  0  0  0
  -15.6426  -42.3747  -21.3755 C   0  0  0  0  0  0  0  0  0  0  0  0
  -18.3718  -46.3276  -22.6579 C   0  0  0  0  0  0  0  0  0  0  0  0
  -18.8445  -45.3148  -23.4624 C   0  0  0  0  0  0  0  0  0  0  0  0
  -18.3519  -43.7921  -22.8913 S   0  0  0  0  0  0  0  0  0  0  0  0
  -17.3031  -44.4724  -21.7153 C   0  0  0  0  0  0  0  0  0  0  0  0
  -17.4749  -45.8471  -21.6642 C   0  0  0  0  0  0  0  0  0  0  0  0
  -15.0459  -42.6263  -22.7789 C   0  0  0  0  0  0  0  0  0  0  0  0
  -16.6355  -41.1917  -21.5344 C   0  0  0  0  0  0  0  0  0  0  0  0
  -16.6580  -40.5977  -22.9512 C   0  0  0  0  0  0  0  0  0  0  0  0
  -15.3885  -39.9928  -23.4577 N   0  0  0  0  0  0  0  0  0  0  0  0
  -15.0818  -41.4514  -23.7862 C   0  0  0  0  0  0  0  0  0  0  0  0
  -12.8293  -41.7878  -21.5962 H   0  0  0  0  0  0  0  0  0  0  0  0
  -12.9529  -43.3828  -20.8164 H   0  0  0  0  0  0  0  0  0  0  0  0
  -18.8153  -42.6478  -14.9841 H   0  0  0  0  0  0  0  0  0  0  0  0
  -21.3653  -47.3445  -26.6614 H   0  0  0  0  0  0  0  0  0  0  0  0
  -20.4343  -46.2080  -27.6239 H   0  0  0  0  0  0  0  0  0  0  0  0
  -10.1676  -41.7318  -19.6424 H   0  0  0  0  0  0  0  0  0  0  0  0
  -15.9281  -41.8756  -16.5092 H   0  0  0  0  0  0  0  0  0  0  0  0
  -16.1162  -43.6187  -16.7482 H   0  0  0  0  0  0  0  0  0  0  0  0
  -22.9780  -46.0091  -26.6146 H   0  0  0  0  0  0  0  0  0  0  0  0
  -14.0815  -39.0013  -24.7266 H   0  0  0  0  0  0  0  0  0  0  0  0
  -13.9479  -39.1976  -24.7371 H   0  0  0  0  0  0  0  0  0  0  0  0
  -14.5521  -40.8830  -20.1511 H   0  0  0  0  0  0  0  0  0  0  0  0
  -14.2979  -41.8765  -18.1140 H   0  0  0  0  0  0  0  0  0  0  0  0
  -16.7003  -41.4205  -18.7817 H   0  0  0  0  0  0  0  0  0  0  0  0
  -17.1138  -44.4110  -18.9233 H   0  0  0  0  0  0  0  0  0  0  0  0
  -18.0785  -43.1113  -19.5931 H   0  0  0  0  0  0  0  0  0  0  0  0
  -15.5324  -44.3803  -20.6400 H   0  0  0  0  0  0  0  0  0  0  0  0
  -18.6174  -47.3742  -22.8014 H   0  0  0  0  0  0  0  0  0  0  0  0
  -16.9575  -46.4875  -20.9590 H   0  0  0  0  0  0  0  0  0  0  0  0
  -15.5802  -43.4376  -23.2840 H   0  0  0  0  0  0  0  0  0  0  0  0
  -14.0405  -43.0515  -22.7418 H   0  0  0  0  0  0  0  0  0  0  0  0
  -16.4094  -40.3795  -20.8341 H   0  0  0  0  0  0  0  0  0  0  0  0
  -17.6588  -41.4847  -21.2780 H   0  0  0  0  0  0  0  0  0  0  0  0
  -17.2485  -41.1639  -23.6896 H   0  0  0  0  0  0  0  0  0  0  0  0
  -17.2858  -39.6989  -22.8386 H   0  0  0  0  0  0  0  0  0  0  0  0
  -14.0589  -41.4169  -24.1836 H   0  0  0  0  0  0  0  0  0  0  0  0
  -15.6398  -41.7366  -24.6969 H   0  0  0  0  0  0  0  0  0  0  0  0
 12  7  1  0
  7  6  1  0
  6  5  3  0
 10 11  1  0
  4 11  2  0
 11  3  1  0
  1  9  1  0
  2  9  2  0
  9  8  1  0
 16 14  1  0
 15 14  2  0
 17 22  1  0
 17 18  1  0
 17  1  1  0
 18 19  1  0
 19 20  1  0
 19 10  1  0
 20 21  1  0
 21 26  1  0
 21 22  1  0
 23 24  2  0
 23 27  1  0
 24  5  1  0
 24 25  1  0
 25 26  1  0
 26 27  2  0
 28 32  1  0
 29 30  1  0
 30 31  1  0
 31 14  1  0
 31 32  1  0
 22 28  1  0
 22 29  1  0
 13 18  1  0
  1 33  1  0
  1 34  1  0
  3 35  1  0
  7 36  1  0
  7 37  1  0
  8 38  1  0
 10 39  1  0
 10 40  1  0
 12 41  1  0
 16 42  1  0
 16 43  1  0
 17 44  1  1
 18 45  1  1
 19 46  1  6
 20 47  1  0
 20 48  1  0
 21 49  1  6
 23 50  1  0
 27 51  1  0
 28 52  1  0
 28 53  1  0
 29 54  1  0
 29 55  1  0
 30 56  1  0
 30 57  1  0
 32 58  1  0
 32 59  1  0
M  END
>  <smiles>  (587) 
[H]OC(=O)C([H])([H])[C@@]1([H])C2(C([H])([H])C([H])([H])N(C(=O)N([H])[H])C([H])([H])C2([H])[H])[C@@]([H])(c2sc(C#CC([H])([H])O[H])c([H])c2[H])C([H])([H])[C@@]([H])(C([H])([H])C(=O)O[H])[C@@]1([H])F

>  <error>  (587) 


>  <∆∆G>  (587) 
99.355895

>  <∆G_bound>  (587) 
343.783871

>  <∆G_unbound>  (587) 
244.427975

>  <comRMSD>  (587) 
2.303249

>  <N_constrained_atoms>  (587) 
32.0

>  <N_unconstrained_atoms>  (587) 
0.0

>  <runtime>  (587) 
11.278599

>  <regarded>  (587) 
['5hmy-a', 'd0612a']

>  <disregarded>  (587) 
[]

>  <LE>  (587) 
-3.104872

>  <outcome>  (587) 
too moved

>  <percent_hybrid>  (587) 
29.0

$$$$
LIG
     RDKit          3D

 73 76  0  0  0  0  0  0  0  0999 V2000
  -12.7434  -42.0121  -20.5960 C   0  0  0  0  0  0  0  0  0  0  0  0
  -12.6577  -40.0517  -22.0291 O   0  0  0  0  0  0  0  0  0  0  0  0
  -16.8381  -40.3495  -17.1808 O   0  0  0  0  0  0  0  0  0  0  0  0
  -18.4482  -41.3276  -18.3766 O   0  0  0  0  0  0  0  0  0  0  0  0
  -19.4767  -45.7635  -24.3722 C   0  0  0  0  0  0  0  0  0  0  0  0
  -20.0163  -46.1325  -25.3861 C   0  0  0  0  0  0  0  0  0  0  0  0
  -20.7007  -46.5901  -26.6071 C   0  0  0  0  0  0  0  0  0  0  0  0
  -13.2550  -39.7920  -19.8971 O   0  0  0  0  0  0  0  0  0  0  0  0
  -12.8810  -40.5554  -20.9386 C   0  0  0  0  0  0  0  0  0  0  0  0
  -16.6799  -42.7081  -17.4310 C   0  0  0  0  0  0  0  0  0  0  0  0
  -17.4271  -41.4333  -17.7180 C   0  0  0  0  0  0  0  0  0  0  0  0
  -21.8870  -45.8391  -26.8170 O   0  0  0  0  0  0  0  0  0  0  0  0
  -18.7293  -43.4423  -24.8805 F   0  0  0  0  0  0  0  0  0  0  0  0
  -15.0358  -40.6505  -24.0850 N   0  0  0  0  0  0  0  0  0  0  0  0
  -15.1889  -40.2020  -25.4732 C   0  0  0  0  0  0  0  0  0  0  0  0
  -18.9162  -36.4237  -24.9582 C   0  0  0  0  0  0  0  0  0  0  0  0
  -13.9997  -42.8373  -20.2693 C   0  0  1  0  0  0  0  0  0  0  0  0
  -14.8000  -42.2704  -19.0899 C   0  0  0  0  0  0  0  0  0  0  0  0
  -15.8730  -43.2567  -18.6174 C   0  0  2  0  0  0  0  0  0  0  0  0
  -16.7730  -43.7071  -19.7820 C   0  0  0  0  0  0  0  0  0  0  0  0
  -15.9452  -44.2609  -20.9721 C   0  0  2  0  0  0  0  0  0  0  0  0
  -14.9175  -43.2086  -21.4875 C   0  0  1  0  0  0  0  0  0  0  0  0
  -18.5322  -46.6568  -22.3095 C   0  0  0  0  0  0  0  0  0  0  0  0
  -19.0041  -45.3853  -23.0113 C   0  0  1  0  0  0  0  0  0  0  0  0
  -17.9126  -44.2820  -22.8348 C   0  0  1  0  0  0  0  0  0  0  0  0
  -16.7587  -44.9979  -22.0738 C   0  0  2  0  0  0  0  0  0  0  0  0
  -17.4002  -46.2426  -21.4203 C   0  0  0  0  0  0  0  0  0  0  0  0
  -17.5598  -43.5810  -24.1668 C   0  0  2  0  0  0  0  0  0  0  0  0
  -17.0255  -42.1576  -24.1763 C   0  0  0  0  0  0  0  0  0  0  0  0
  -15.5942  -41.9588  -23.6889 C   0  0  0  0  0  0  0  0  0  0  0  0
  -15.5831  -41.9765  -22.1370 C   0  0  0  0  0  0  0  0  0  0  0  0
  -17.1671  -39.0709  -26.7507 C   0  0  0  0  0  0  0  0  0  0  0  0
  -18.1527  -38.1002  -26.6295 N   0  0  0  0  0  0  0  0  0  0  0  0
  -18.0400  -37.5203  -25.4523 C   0  0  0  0  0  0  0  0  0  0  0  0
  -16.7732  -38.0977  -24.4508 S   0  0  0  0  0  0  0  0  0  0  0  0
  -16.3399  -39.2475  -25.6547 C   0  0  0  0  0  0  0  0  0  0  0  0
  -12.2424  -42.4802  -21.4407 H   0  0  0  0  0  0  0  0  0  0  0  0
  -12.0350  -42.0736  -19.7600 H   0  0  0  0  0  0  0  0  0  0  0  0
  -17.4269  -39.6076  -17.4320 H   0  0  0  0  0  0  0  0  0  0  0  0
  -20.9427  -47.6552  -26.5804 H   0  0  0  0  0  0  0  0  0  0  0  0
  -20.0646  -46.4330  -27.4762 H   0  0  0  0  0  0  0  0  0  0  0  0
  -13.3081  -38.8877  -20.2692 H   0  0  0  0  0  0  0  0  0  0  0  0
  -16.0164  -42.5426  -16.5730 H   0  0  0  0  0  0  0  0  0  0  0  0
  -17.4180  -43.4455  -17.0998 H   0  0  0  0  0  0  0  0  0  0  0  0
  -22.6213  -46.3299  -26.3934 H   0  0  0  0  0  0  0  0  0  0  0  0
  -14.0434  -40.6141  -23.8328 H   0  0  0  0  0  0  0  0  0  0  0  0
  -14.2810  -39.6556  -25.7563 H   0  0  0  0  0  0  0  0  0  0  0  0
  -15.2527  -41.0479  -26.1668 H   0  0  0  0  0  0  0  0  0  0  0  0
  -19.4480  -36.7277  -24.0511 H   0  0  0  0  0  0  0  0  0  0  0  0
  -18.3314  -35.5243  -24.7408 H   0  0  0  0  0  0  0  0  0  0  0  0
  -19.6632  -36.1636  -25.7153 H   0  0  0  0  0  0  0  0  0  0  0  0
  -14.1226  -42.0501  -18.2554 H   0  0  0  0  0  0  0  0  0  0  0  0
  -17.4601  -44.4548  -19.3809 H   0  0  0  0  0  0  0  0  0  0  0  0
  -19.3251  -47.1197  -21.7138 H   0  0  0  0  0  0  0  0  0  0  0  0
  -17.8198  -46.0454  -20.4330 H   0  0  0  0  0  0  0  0  0  0  0  0
  -17.1079  -41.8509  -25.2250 H   0  0  0  0  0  0  0  0  0  0  0  0
  -15.0904  -41.0723  -21.7770 H   0  0  0  0  0  0  0  0  0  0  0  0
  -17.0940  -39.6285  -27.6770 H   0  0  0  0  0  0  0  0  0  0  0  0
  -13.5838  -43.7959  -19.9190 H   0  0  0  0  0  0  0  0  0  0  0  0
  -15.2693  -41.3239  -19.3792 H   0  0  0  0  0  0  0  0  0  0  0  0
  -15.3551  -44.1533  -18.2467 H   0  0  0  0  0  0  0  0  0  0  0  0
  -17.4037  -42.8812  -20.1205 H   0  0  0  0  0  0  0  0  0  0  0  0
  -15.3251  -45.0619  -20.5364 H   0  0  0  0  0  0  0  0  0  0  0  0
  -14.2711  -43.6996  -22.2269 H   0  0  0  0  0  0  0  0  0  0  0  0
  -18.2192  -47.4165  -23.0245 H   0  0  0  0  0  0  0  0  0  0  0  0
  -19.8680  -44.9911  -22.4586 H   0  0  0  0  0  0  0  0  0  0  0  0
  -18.3464  -43.5221  -22.1721 H   0  0  0  0  0  0  0  0  0  0  0  0
  -16.0437  -45.3545  -22.8260 H   0  0  0  0  0  0  0  0  0  0  0  0
  -16.6710  -47.0492  -21.2893 H   0  0  0  0  0  0  0  0  0  0  0  0
  -16.8980  -44.2039  -24.7693 H   0  0  0  0  0  0  0  0  0  0  0  0
  -17.7241  -41.4976  -23.6448 H   0  0  0  0  0  0  0  0  0  0  0  0
  -14.9467  -42.7392  -24.1043 H   0  0  0  0  0  0  0  0  0  0  0  0
  -16.6018  -41.8438  -21.7592 H   0  0  0  0  0  0  0  0  0  0  0  0
 12  7  1  0
  7  6  1  0
  6  5  3  0
 10 11  1  0
  4 11  2  0
 11  3  1  0
  1  9  1  0
  2  9  2  0
  9  8  1  0
 15 14  1  0
 17 22  1  0
 17 18  1  0
 17  1  1  0
 18 19  1  0
 19 20  1  0
 19 10  1  0
 20 21  1  0
 21 26  1  0
 21 22  1  0
 23 24  1  0
 23 27  1  0
 24  5  1  0
 24 25  1  0
 25 26  1  0
 26 27  1  0
 28 13  1  0
 28 29  1  0
 29 30  1  0
 30 14  1  0
 30 31  1  0
 32 33  1  0
 32 36  2  0
 33 34  2  0
 34 16  1  0
 34 35  1  0
 35 36  1  0
 36 15  1  0
 22 31  1  0
 25 28  1  0
  1 37  1  0
  1 38  1  0
  3 39  1  0
  7 40  1  0
  7 41  1  0
  8 42  1  0
 10 43  1  0
 10 44  1  0
 12 45  1  0
 14 46  1  0
 15 47  1  0
 15 48  1  0
 16 49  1  0
 16 50  1  0
 16 51  1  0
 18 52  1  0
 20 53  1  0
 23 54  1  0
 27 55  1  0
 29 56  1  0
 31 57  1  0
 32 58  1  0
 17 59  1  6
 18 60  1  0
 19 61  1  6
 20 62  1  0
 21 63  1  6
 22 64  1  6
 23 65  1  0
 24 66  1  1
 25 67  1  1
 26 68  1  1
 27 69  1  0
 28 70  1  1
 29 71  1  0
 30 72  1  0
 31 73  1  0
M  END
>  <smiles>  (588) 
[H]OC(=O)C([H])([H])[C@@H]1C([H])[C@H]2[C@@H](C([H])C(N([H])C([H])([H])c3sc(C([H])([H])[H])nc3[H])C([H])[C@@H](F)[C@@H]3[C@H]2C([H])C([H])[C@@H]3C#CC([H])([H])O[H])[C@H](C([H])([H])C(=O)O[H])C1[H]

>  <error>  (588) 


>  <∆∆G>  (588) 
-91.597837

>  <∆G_bound>  (588) 
208.386996

>  <∆G_unbound>  (588) 
299.984833

>  <comRMSD>  (588) 
1.339817

>  <N_constrained_atoms>  (588) 
36.0

>  <N_unconstrained_atoms>  (588) 
0.0

>  <runtime>  (588) 
6.857114

>  <regarded>  (588) 
['5hmy-a', 'd0615b']

>  <disregarded>  (588) 
[]

>  <LE>  (588) 
2.544384

>  <outcome>  (588) 
too moved

>  <percent_hybrid>  (588) 
37.0

$$$$
LIG
     RDKit          3D

 72 74  0  0  0  0  0  0  0  0999 V2000
  -12.9979  -42.4265  -20.5969 C   0  0  0  0  0  0  0  0  0  0  0  0
  -13.2492  -39.9775  -21.2138 N   0  0  0  0  0  0  0  0  0  0  0  0
  -17.8769  -42.1609  -15.3179 O   0  0  0  0  0  0  0  0  0  0  0  0
  -18.6669  -42.9423  -17.2597 O   0  0  0  0  0  0  0  0  0  0  0  0
  -19.3004  -46.2250  -24.3539 C   0  0  0  0  0  0  0  0  0  0  0  0
  -19.9296  -46.4094  -25.3648 C   0  0  0  0  0  0  0  0  0  0  0  0
  -20.6880  -46.6829  -26.5939 C   0  0  0  0  0  0  0  0  0  0  0  0
  -12.4848  -40.5315  -19.2056 O   0  0  0  0  0  0  0  0  0  0  0  0
  -12.9272  -40.9237  -20.4108 C   0  0  0  0  0  0  0  0  0  0  0  0
  -16.2472  -42.8545  -16.8684 C   0  0  0  0  0  0  0  0  0  0  0  0
  -17.7050  -42.6509  -16.5664 C   0  0  0  0  0  0  0  0  0  0  0  0
  -21.8117  -45.8175  -26.6787 O   0  0  0  0  0  0  0  0  0  0  0  0
  -14.2929  -43.0334  -20.1037 C   0  0  0  0  0  0  0  0  0  0  0  0
  -14.6869  -42.7879  -18.7870 C   0  0  0  0  0  0  0  0  0  0  0  0
  -15.8873  -43.2832  -18.2734 C   0  0  0  0  0  0  0  0  0  0  0  0
  -16.6564  -44.1398  -19.0769 C   0  0  0  0  0  0  0  0  0  0  0  0
  -16.2887  -44.4131  -20.4054 C   0  0  0  0  0  0  0  0  0  0  0  0
  -15.0985  -43.8552  -20.9078 C   0  0  0  0  0  0  0  0  0  0  0  0
  -18.4193  -47.0014  -22.1413 C   0  0  0  0  0  0  0  0  0  0  0  0
  -18.5905  -46.0430  -23.1184 C   0  0  0  0  0  0  0  0  0  0  0  0
  -17.8541  -44.5756  -22.6689 S   0  0  0  0  0  0  0  0  0  0  0  0
  -17.1604  -45.2434  -21.2504 C   0  0  0  0  0  0  0  0  0  0  0  0
  -17.5903  -46.5440  -21.0674 C   0  0  0  0  0  0  0  0  0  0  0  0
  -19.9037  -39.2341  -24.6656 O   0  0  0  0  0  0  0  0  0  0  0  0
  -19.2768  -39.6508  -25.9014 S   0  0  0  0  0  0  0  0  0  0  0  0
  -19.0204  -38.6890  -26.9574 O   0  0  0  0  0  0  0  0  0  0  0  0
  -20.2724  -40.9620  -26.5745 C   0  0  0  0  0  0  0  0  0  0  0  0
  -16.3064  -40.8163  -27.4446 C   0  0  0  0  0  0  0  0  0  0  0  0
  -16.6742  -38.1267  -25.0179 C   0  0  0  0  0  0  0  0  0  0  0  0
  -16.3320  -38.0480  -26.3954 O   0  0  0  0  0  0  0  0  0  0  0  0
  -17.8170  -40.3587  -25.4789 N   0  0  0  0  0  0  0  0  0  0  0  0
  -17.1635  -41.3777  -26.3199 C   0  0  2  0  0  0  0  0  0  0  0  0
  -16.4087  -42.3839  -25.4585 C   0  0  0  0  0  0  0  0  0  0  0  0
  -15.9137  -41.8345  -24.1319 C   0  0  0  0  0  0  0  0  0  0  0  0
  -15.6441  -40.3265  -24.1695 C   0  0  1  0  0  0  0  0  0  0  0  0
  -16.9441  -39.5728  -24.5322 C   0  0  1  0  0  0  0  0  0  0  0  0
  -13.6807  -40.2730  -22.5679 C   0  0  0  0  0  0  0  0  0  0  0  0
  -15.1269  -39.8573  -22.7827 C   0  0  0  0  0  0  0  0  0  0  0  0
  -12.8146  -42.7061  -21.6325 H   0  0  0  0  0  0  0  0  0  0  0  0
  -12.1774  -42.8716  -20.0231 H   0  0  0  0  0  0  0  0  0  0  0  0
  -18.7672  -42.5063  -15.0673 H   0  0  0  0  0  0  0  0  0  0  0  0
  -21.0213  -47.7218  -26.6603 H   0  0  0  0  0  0  0  0  0  0  0  0
  -20.0676  -46.4889  -27.4672 H   0  0  0  0  0  0  0  0  0  0  0  0
  -12.4836  -39.5595  -19.2163 H   0  0  0  0  0  0  0  0  0  0  0  0
  -15.7592  -41.8947  -16.6530 H   0  0  0  0  0  0  0  0  0  0  0  0
  -15.8479  -43.6010  -16.1742 H   0  0  0  0  0  0  0  0  0  0  0  0
  -22.5848  -46.3186  -26.3425 H   0  0  0  0  0  0  0  0  0  0  0  0
  -14.0568  -42.1651  -18.1514 H   0  0  0  0  0  0  0  0  0  0  0  0
  -17.5891  -44.5543  -18.7008 H   0  0  0  0  0  0  0  0  0  0  0  0
  -14.7903  -44.0687  -21.9303 H   0  0  0  0  0  0  0  0  0  0  0  0
  -18.8313  -48.0018  -22.2055 H   0  0  0  0  0  0  0  0  0  0  0  0
  -17.3019  -47.1582  -20.2238 H   0  0  0  0  0  0  0  0  0  0  0  0
  -20.2398  -41.8215  -25.9029 H   0  0  0  0  0  0  0  0  0  0  0  0
  -21.2993  -40.5944  -26.6431 H   0  0  0  0  0  0  0  0  0  0  0  0
  -19.9185  -41.2052  -27.5729 H   0  0  0  0  0  0  0  0  0  0  0  0
  -15.4174  -40.2988  -27.0770 H   0  0  0  0  0  0  0  0  0  0  0  0
  -15.9533  -41.6246  -28.0923 H   0  0  0  0  0  0  0  0  0  0  0  0
  -16.8742  -40.1210  -28.0691 H   0  0  0  0  0  0  0  0  0  0  0  0
  -15.8701  -37.6583  -24.4457 H   0  0  0  0  0  0  0  0  0  0  0  0
  -17.5610  -37.5018  -24.8626 H   0  0  0  0  0  0  0  0  0  0  0  0
  -17.1606  -38.1978  -26.8929 H   0  0  0  0  0  0  0  0  0  0  0  0
  -17.9510  -41.9668  -26.7845 H   0  0  0  0  0  0  0  0  0  0  0  0
  -17.0598  -43.2419  -25.2552 H   0  0  0  0  0  0  0  0  0  0  0  0
  -15.5684  -42.7962  -26.0194 H   0  0  0  0  0  0  0  0  0  0  0  0
  -16.6713  -42.0217  -23.3631 H   0  0  0  0  0  0  0  0  0  0  0  0
  -15.0286  -42.4052  -23.8369 H   0  0  0  0  0  0  0  0  0  0  0  0
  -14.8744  -40.1168  -24.9220 H   0  0  0  0  0  0  0  0  0  0  0  0
  -17.5177  -39.4934  -23.5971 H   0  0  0  0  0  0  0  0  0  0  0  0
  -13.0521  -39.6919  -23.2467 H   0  0  0  0  0  0  0  0  0  0  0  0
  -13.5563  -41.3149  -22.8360 H   0  0  0  0  0  0  0  0  0  0  0  0
  -15.7595  -40.2704  -21.9864 H   0  0  0  0  0  0  0  0  0  0  0  0
  -15.1894  -38.7678  -22.6856 H   0  0  0  0  0  0  0  0  0  0  0  0
 12  7  1  0
  7  6  1  0
  6  5  3  0
 10 11  1  0
  4 11  2  0
 11  3  1  0
  1  9  1  0
  2  9  2  0
  9  8  1  0
 13 18  1  0
 13 14  2  0
 13  1  1  0
 14 15  1  0
 15 16  2  0
 15 10  1  0
 16 17  1  0
 17 22  1  0
 17 18  2  0
 19 20  2  0
 19 23  1  0
 20  5  1  0
 20 21  1  0
 21 22  1  0
 22 23  2  0
 30 29  1  0
 27 25  1  0
 26 25  2  0
 25 24  2  0
 31 36  1  0
 31 25  1  0
 31 32  1  0
 32 28  1  0
 32 33  1  0
 33 34  1  0
 34 35  1  0
 35 36  1  0
 36 29  1  0
 37  2  1  0
 38 37  1  0
 38 35  1  0
  1 39  1  0
  1 40  1  0
  3 41  1  0
  7 42  1  0
  7 43  1  0
  8 44  1  0
 10 45  1  0
 10 46  1  0
 12 47  1  0
 14 48  1  0
 16 49  1  0
 18 50  1  0
 19 51  1  0
 23 52  1  0
 27 53  1  0
 27 54  1  0
 27 55  1  0
 28 56  1  0
 28 57  1  0
 28 58  1  0
 29 59  1  0
 29 60  1  0
 30 61  1  0
 32 62  1  6
 33 63  1  0
 33 64  1  0
 34 65  1  0
 34 66  1  0
 35 67  1  6
 36 68  1  1
 37 69  1  0
 37 70  1  0
 38 71  1  0
 38 72  1  0
M  END
>  <smiles>  (589) 
[H]OC(=O)C([H])([H])c1c([H])c(-c2sc(C#CC([H])([H])O[H])c([H])c2[H])c([H])c(C([H])([H])/C(=N\C([H])([H])C([H])([H])[C@@]2([H])C([H])([H])C([H])([H])[C@]([H])(C([H])([H])[H])N(S(=O)(=O)C([H])([H])[H])[C@]2([H])C([H])([H])O[H])O[H])c1[H]

>  <error>  (589) 


>  <∆∆G>  (589) 
-119.395838

>  <∆G_bound>  (589) 
217.579453

>  <∆G_unbound>  (589) 
336.975291

>  <comRMSD>  (589) 
0.966228

>  <N_constrained_atoms>  (589) 
36.0

>  <N_unconstrained_atoms>  (589) 
2.0

>  <runtime>  (589) 
6.719165

>  <regarded>  (589) 
['5hmy-a', 'd0851a']

>  <disregarded>  (589) 
[]

>  <LE>  (589) 
3.141996

>  <outcome>  (589) 
acceptable

>  <percent_hybrid>  (589) 
37.0

$$$$
LIG
     RDKit          3D

  0  0  0  0  0  0  0  0  0  0999 V3000
M  V30 BEGIN CTAB
M  V30 COUNTS 80 83 0 0 0
M  V30 BEGIN ATOM
M  V30 1 C -13.690000 -42.074001 -20.951000 0
M  V30 2 N -15.174000 -40.219002 -21.278999 0
M  V30 3 O -16.215000 -43.769001 -14.703000 0
M  V30 4 O -17.056999 -42.785999 -16.427999 0
M  V30 5 C -19.658001 -46.481998 -24.120001 0
M  V30 6 C -20.148001 -46.591999 -25.188000 0
M  V30 7 C -20.650999 -46.667999 -26.565001 0
M  V30 8 O -13.298000 -39.838001 -20.284000 0
M  V30 9 C -14.091000 -40.618999 -20.823999 0
M  V30 10 C -15.292000 -44.382999 -16.797001 0
M  V30 11 C -16.254000 -43.592999 -15.932000 0
M  V30 12 O -22.000000 -46.228001 -26.608000 0
M  V30 13 C -14.653000 -43.035000 -20.296000 0
M  V30 14 C -14.571000 -43.235001 -18.920000 0
M  V30 15 C -15.446000 -44.119999 -18.285999 0
M  V30 16 C -16.372999 -44.848999 -19.045000 0
M  V30 17 C -16.485001 -44.644001 -20.429001 0
M  V30 18 C -15.578000 -43.769001 -21.061001 0
M  V30 19 C -18.764000 -47.269001 -22.021999 0
M  V30 20 C -18.990999 -46.293999 -22.979000 0
M  V30 21 S -18.068001 -44.875999 -22.716999 0
M  V30 22 C -17.452000 -45.486000 -21.207001 0
M  V30 23 C -17.916000 -46.797001 -21.004000 0
M  V30 24 O -19.218000 -37.455002 -26.510000 0
M  V30 25 C -18.440001 -37.272999 -25.589001 0
M  V30 26 C -18.801001 -40.066002 -25.077000 0
M  V30 27 S -16.291000 -41.674000 -23.726000 0 CFG=2
M  V30 28 N -16.832001 -41.215000 -22.487000 0
M  V30 29 O -16.914000 -42.779999 -24.382999 0
M  V30 30 C -14.601000 -42.066002 -23.476999 0
M  V30 31 C -18.129000 -36.304001 -23.285000 0
M  V30 32 C -19.089001 -35.396999 -22.541000 0
M  V30 33 C -19.528999 -34.411999 -23.573999 0
M  V30 34 C -19.582001 -35.196999 -24.878000 0
M  V30 35 N -18.677000 -36.332001 -24.648001 0
M  V30 36 C -17.472000 -39.426998 -24.688999 0 CFG=2
M  V30 37 C -17.184000 -38.118999 -25.462000 0 CFG=1
M  V30 38 C -16.631001 -38.435001 -26.855000 0
M  V30 39 C -15.402000 -39.325001 -26.764999 0
M  V30 40 C -15.742000 -40.634998 -26.099001 0
M  V30 41 N -16.350000 -40.417999 -24.764000 0
M  V30 42 C -16.003000 -40.717003 -21.882999 0
M  V30 43 H -13.626083 -42.323261 -22.020479 0
M  V30 44 H -12.726419 -42.185387 -20.432245 0
M  V30 45 H -16.830574 -43.267826 -14.111398 0
M  V30 46 H -20.594587 -47.708389 -26.917709 0
M  V30 47 H -20.037603 -46.024002 -27.212315 0
M  V30 48 H -13.533735 -38.881340 -20.187431 0
M  V30 49 H -14.265276 -44.119606 -16.502956 0
M  V30 50 H -15.517102 -45.447525 -16.635399 0
M  V30 51 H -22.340464 -46.116951 -25.685041 0
M  V30 52 H -13.815212 -42.694588 -18.331154 0
M  V30 53 H -17.019114 -45.589241 -18.550451 0
M  V30 54 H -15.593563 -43.659832 -22.155460 0
M  V30 55 H -19.191746 -48.281925 -22.053932 0
M  V30 56 H -17.640356 -47.400517 -20.126623 0
M  V30 57 H -19.358402 -40.334011 -24.167343 0
M  V30 58 H -19.390856 -39.353043 -25.671778 0
M  V30 59 H -18.612473 -40.971924 -25.671778 0
M  V30 60 H -14.390973 -42.114719 -22.398336 0
M  V30 61 H -14.378613 -43.039574 -23.938192 0
M  V30 62 H -13.972732 -41.289742 -23.938192 0
M  V30 63 H -17.236740 -36.817654 -22.897661 0
M  V30 64 H -18.745884 -37.175060 -23.019085 0
M  V30 65 H -19.391558 -35.451595 -21.484838 0
M  V30 66 H -18.252964 -34.736572 -22.267363 0
M  V30 67 H -19.764292 -33.347851 -23.424904 0
M  V30 68 H -18.478930 -34.151901 -23.773256 0
M  V30 69 H -20.163443 -34.967476 -25.783123 0
M  V30 70 H -18.740808 -34.605370 -25.268347 0
M  V30 71 H -17.554789 -39.120125 -23.635920 0
M  V30 72 H -16.433901 -37.548752 -24.894400 0
M  V30 73 H -17.065676 -38.066658 -27.795946 0
M  V30 74 H -15.989086 -37.543270 -26.802460 0
M  V30 75 H -14.402679 -39.051491 -27.134527 0
M  V30 76 H -15.158585 -38.889721 -25.784552 0
M  V30 77 H -15.562118 -41.623852 -26.546005 0
M  V30 78 H -14.742798 -40.660843 -25.639732 0
M  V30 79 H -14.723001 -39.437000 -20.602999 0
M  V30 80 H -14.713000 -39.427002 -20.592999 0
M  V30 END ATOM
M  V30 BEGIN BOND
M  V30 1 1 12 7
M  V30 2 1 7 6
M  V30 3 3 6 5
M  V30 4 1 10 11
M  V30 5 2 4 11
M  V30 6 1 11 3
M  V30 7 1 1 9
M  V30 8 2 2 9
M  V30 9 1 9 8
M  V30 10 1 13 18
M  V30 11 2 13 14
M  V30 12 1 13 1
M  V30 13 1 14 15
M  V30 14 2 15 16
M  V30 15 1 15 10
M  V30 16 1 16 17
M  V30 17 1 17 22
M  V30 18 2 17 18
M  V30 19 2 19 20
M  V30 20 1 19 23
M  V30 21 1 20 5
M  V30 22 1 20 21
M  V30 23 1 21 22
M  V30 24 2 22 23
M  V30 25 2 28 27
M  V30 26 1 27 30 CFG=1
M  V30 27 2 29 27
M  V30 28 2 25 24
M  V30 29 1 31 32
M  V30 30 1 31 35
M  V30 31 1 32 33
M  V30 32 1 33 34
M  V30 33 1 34 35
M  V30 34 1 35 25
M  V30 35 1 36 26
M  V30 36 1 36 41
M  V30 37 1 36 37
M  V30 38 1 37 38
M  V30 39 1 37 25
M  V30 40 1 38 39
M  V30 41 1 39 40
M  V30 42 1 40 41
M  V30 43 1 41 27
M  V30 44 1 42 2
M  V30 45 1 42 28
M  V30 46 1 1 43
M  V30 47 1 1 44
M  V30 48 1 3 45
M  V30 49 1 7 46
M  V30 50 1 7 47
M  V30 51 1 8 48
M  V30 52 1 10 49
M  V30 53 1 10 50
M  V30 54 1 12 51
M  V30 55 1 14 52
M  V30 56 1 16 53
M  V30 57 1 18 54
M  V30 58 1 19 55
M  V30 59 1 23 56
M  V30 60 1 26 57
M  V30 61 1 26 58
M  V30 62 1 26 59
M  V30 63 1 30 60
M  V30 64 1 30 61
M  V30 65 1 30 62
M  V30 66 1 31 63
M  V30 67 1 31 64
M  V30 68 1 32 65
M  V30 69 1 32 66
M  V30 70 1 33 67
M  V30 71 1 33 68
M  V30 72 1 34 69
M  V30 73 1 34 70
M  V30 74 1 36 71 CFG=1
M  V30 75 1 37 72 CFG=1
M  V30 76 1 38 73
M  V30 77 1 38 74
M  V30 78 1 39 75
M  V30 79 1 39 76
M  V30 80 1 40 77
M  V30 81 1 40 78
M  V30 82 1 42 79
M  V30 83 1 42 80
M  V30 END BOND
M  V30 BEGIN COLLECTION
M  V30 MDLV30/STEABS ATOMS=(0)
M  V30 END COLLECTION
M  V30 END CTAB
M  END
>  <smiles>  (590) 
[H]OC(=O)C([H])([H])c1c([H])c(-c2sc(C#CC([H])([H])O[H])c([H])c2[H])c([H])c(C([H])([H])/C(=N\C([H])([H])N=[S@@](=O)(N2C([H])([H])C([H])([H])C([H])([H])[C@@]([H])(C(=O)N3C([H])([H])C([H])([H])C([H])([H])C3([H])[H])[C@@]2([H])C([H])([H])[H])C([H])([H])[H])O[H])c1[H]

>  <error>  (590) 


>  <∆∆G>  (590) 
nan

>  <∆G_bound>  (590) 
nan

>  <∆G_unbound>  (590) 
nan

>  <comRMSD>  (590) 
0.0

>  <N_constrained_atoms>  (590) 
41.0

>  <N_unconstrained_atoms>  (590) 
1.0

>  <runtime>  (590) 
2.821788

>  <regarded>  (590) 
['5hmy-a', 'd0866a']

>  <disregarded>  (590) 
[]

>  <LE>  (590) 
nan

>  <outcome>  (590) 
crashed

>  <percent_hybrid>  (590) 
44.0

$$$$
LIG
     RDKit          3D

  0  0  0  0  0  0  0  0  0  0999 V3000
M  V30 BEGIN CTAB
M  V30 COUNTS 67 71 0 0 0
M  V30 BEGIN ATOM
M  V30 1 C -13.690000 -42.074001 -20.951000 0
M  V30 2 O -15.174000 -40.219002 -21.278999 0
M  V30 3 O -16.215000 -43.769001 -14.703000 0
M  V30 4 O -17.056999 -42.785999 -16.427999 0
M  V30 5 C -19.658001 -46.481998 -24.120001 0
M  V30 6 C -20.148001 -46.591999 -25.188000 0
M  V30 7 C -20.650999 -46.667999 -26.565001 0
M  V30 8 O -13.298000 -39.838001 -20.284000 0
M  V30 9 C -14.091000 -40.618999 -20.823999 0
M  V30 10 C -15.292000 -44.382999 -16.797001 0
M  V30 11 C -16.254000 -43.592999 -15.932000 0
M  V30 12 O -22.000000 -46.228001 -26.608000 0
M  V30 13 C -14.653000 -43.035000 -20.296000 0
M  V30 14 C -14.571000 -43.235001 -18.920000 0
M  V30 15 C -15.446000 -44.119999 -18.285999 0
M  V30 16 C -16.372999 -44.848999 -19.045000 0
M  V30 17 C -16.485001 -44.644001 -20.429001 0
M  V30 18 C -15.578000 -43.769001 -21.061001 0
M  V30 19 C -18.764000 -47.269001 -22.021999 0
M  V30 20 C -18.990999 -46.293999 -22.979000 0
M  V30 21 S -18.068001 -44.875999 -22.716999 0
M  V30 22 C -17.452000 -45.486000 -21.207001 0
M  V30 23 C -17.916000 -46.797001 -21.004000 0
M  V30 24 O -11.370000 -32.450001 -20.969999 0
M  V30 25 C -11.950000 -33.465000 -20.601000 0
M  V30 26 C -13.292000 -33.436001 -19.997999 0
M  V30 27 C -13.877000 -34.640999 -19.552999 0
M  V30 28 N -13.139000 -35.812000 -19.618000 0
M  V30 29 C -12.110000 -35.952000 -20.645000 0 CFG=1
M  V30 30 N -11.382000 -34.679001 -20.705000 0
M  V30 31 C -13.994000 -32.241001 -19.871000 0
M  V30 32 C -15.168000 -34.624001 -19.025000 0
M  V30 33 C -15.853000 -33.424000 -18.921000 0
M  V30 34 C -15.268000 -32.243000 -19.333000 0
M  V30 35 C -11.190000 -37.138000 -20.316999 0
M  V30 36 C -11.152000 -37.980999 -21.587999 0
M  V30 37 C -12.451000 -37.754002 -22.233000 0 CFG=2
M  V30 38 C -12.749000 -36.279999 -22.002001 0
M  V30 39 C -12.874500 -38.796001 -21.258499 0
M  V30 40 H -13.626083 -42.323261 -22.020479 0
M  V30 41 H -12.726419 -42.185387 -20.432245 0
M  V30 42 H -16.830574 -43.267826 -14.111398 0
M  V30 43 H -20.594587 -47.708389 -26.917709 0
M  V30 44 H -20.037603 -46.024002 -27.212315 0
M  V30 45 H -14.265276 -44.119606 -16.502956 0
M  V30 46 H -15.517102 -45.447525 -16.635399 0
M  V30 47 H -22.340464 -46.116951 -25.685041 0
M  V30 48 H -13.815212 -42.694588 -18.331154 0
M  V30 49 H -17.019114 -45.589241 -18.550451 0
M  V30 50 H -15.593563 -43.659832 -22.155460 0
M  V30 51 H -19.191746 -48.281925 -22.053932 0
M  V30 52 H -17.640356 -47.400517 -20.126623 0
M  V30 53 H -13.314224 -36.575504 -18.949228 0
M  V30 54 H -10.361188 -34.718678 -20.836409 0
M  V30 55 H -13.535987 -31.295929 -20.198202 0
M  V30 56 H -15.640623 -35.559937 -18.692352 0
M  V30 57 H -16.871866 -33.412075 -18.506548 0
M  V30 58 H -15.819530 -31.296577 -19.232512 0
M  V30 59 H -10.669828 -37.336834 -19.368376 0
M  V30 60 H -12.057853 -37.712925 -19.961624 0
M  V30 61 H -10.330162 -38.619820 -21.943655 0
M  V30 62 H -11.575160 -38.832932 -21.035601 0
M  V30 63 H -12.789337 -37.849369 -23.275322 0
M  V30 64 H -13.302277 -35.597340 -22.663710 0
M  V30 65 H -11.810613 -36.010841 -22.508938 0
M  V30 66 H -11.724501 -37.646000 -20.108500 0
M  V30 67 H -11.714500 -37.636002 -20.098499 0
M  V30 END ATOM
M  V30 BEGIN BOND
M  V30 1 1 12 7
M  V30 2 1 7 6
M  V30 3 3 6 5
M  V30 4 1 10 11
M  V30 5 2 4 11
M  V30 6 1 11 3
M  V30 7 1 1 9
M  V30 8 2 2 9
M  V30 9 1 9 8
M  V30 10 1 13 18
M  V30 11 2 13 14
M  V30 12 1 13 1
M  V30 13 1 14 15
M  V30 14 2 15 16
M  V30 15 1 15 10
M  V30 16 1 16 17
M  V30 17 1 17 22
M  V30 18 2 17 18
M  V30 19 2 19 20
M  V30 20 1 19 23
M  V30 21 1 20 5
M  V30 22 1 20 21
M  V30 23 1 21 22
M  V30 24 2 22 23
M  V30 25 2 25 24
M  V30 26 1 25 30
M  V30 27 1 25 26
M  V30 28 2 26 31
M  V30 29 1 26 27
M  V30 30 1 27 28
M  V30 31 2 27 32
M  V30 32 1 29 28 CFG=1
M  V30 33 1 29 30
M  V30 34 1 29 38
M  V30 35 1 29 35
M  V30 36 1 31 34
M  V30 37 1 32 33
M  V30 38 2 33 34
M  V30 39 1 35 36
M  V30 40 1 36 37
M  V30 41 1 37 38
M  V30 42 1 39 8
M  V30 43 1 39 37
M  V30 44 1 1 40
M  V30 45 1 1 41
M  V30 46 1 3 42
M  V30 47 1 7 43
M  V30 48 1 7 44
M  V30 49 1 10 45
M  V30 50 1 10 46
M  V30 51 1 12 47
M  V30 52 1 14 48
M  V30 53 1 16 49
M  V30 54 1 18 50
M  V30 55 1 19 51
M  V30 56 1 23 52
M  V30 57 1 28 53
M  V30 58 1 30 54
M  V30 59 1 31 55
M  V30 60 1 32 56
M  V30 61 1 33 57
M  V30 62 1 34 58
M  V30 63 1 35 59
M  V30 64 1 35 60
M  V30 65 1 36 61
M  V30 66 1 36 62
M  V30 67 1 37 63 CFG=3
M  V30 68 1 38 64
M  V30 69 1 38 65
M  V30 70 1 39 66
M  V30 71 1 39 67
M  V30 END BOND
M  V30 BEGIN COLLECTION
M  V30 MDLV30/STEABS ATOMS=(0)
M  V30 END COLLECTION
M  V30 END CTAB
M  END
>  <smiles>  (591) 
[H]OC(=O)C([H])([H])c1c([H])c(-c2sc(C#CC([H])([H])O[H])c([H])c2[H])c([H])c(C([H])([H])C(=O)OC([H])([H])[C@]2([H])C([H])([H])C([H])([H])[C@@]3(N([H])C(=O)c4c([H])c([H])c([H])c([H])c4N3[H])C2([H])[H])c1[H]

>  <error>  (591) 


>  <∆∆G>  (591) 
nan

>  <∆G_bound>  (591) 
nan

>  <∆G_unbound>  (591) 
nan

>  <comRMSD>  (591) 
0.0

>  <N_constrained_atoms>  (591) 
38.0

>  <N_unconstrained_atoms>  (591) 
1.0

>  <runtime>  (591) 
2.733374

>  <regarded>  (591) 
['5hmy-a', 'd1196a']

>  <disregarded>  (591) 
[]

>  <LE>  (591) 
nan

>  <outcome>  (591) 
crashed

>  <percent_hybrid>  (591) 
40.0

$$$$
LIG
     RDKit          3D

 57 59  0  0  0  0  0  0  0  0999 V2000
  -14.4020  -41.0405  -21.2520 C   0  0  0  0  0  0  0  0  0  0  0  0
  -12.9971  -40.4342  -19.3355 O   0  0  0  0  0  0  0  0  0  0  0  0
  -15.9141  -42.7683  -15.3675 O   0  0  0  0  0  0  0  0  0  0  0  0
  -15.9112  -40.5806  -16.0309 O   0  0  0  0  0  0  0  0  0  0  0  0
  -19.3587  -46.3282  -24.4702 C   0  0  0  0  0  0  0  0  0  0  0  0
  -19.9815  -46.5216  -25.4809 C   0  0  0  0  0  0  0  0  0  0  0  0
  -20.7385  -46.7563  -26.7119 C   0  0  0  0  0  0  0  0  0  0  0  0
  -12.1336  -40.3446  -21.3811 O   0  0  0  0  0  0  0  0  0  0  0  0
  -13.1510  -40.6039  -20.5332 C   0  0  0  0  0  0  0  0  0  0  0  0
  -17.2810  -42.2055  -17.2061 C   0  0  0  0  0  0  0  0  0  0  0  0
  -16.3074  -41.7333  -16.1442 C   0  0  0  0  0  0  0  0  0  0  0  0
  -21.8572  -45.8822  -26.7751 O   0  0  0  0  0  0  0  0  0  0  0  0
  -15.3038  -41.9999  -20.4987 C   0  0  0  0  0  0  0  0  0  0  0  0
  -15.7810  -41.7241  -19.2080 C   0  0  0  0  0  0  0  0  0  0  0  0
  -16.6837  -42.5828  -18.5525 C   0  0  0  0  0  0  0  0  0  0  0  0
  -17.1694  -43.7063  -19.2496 C   0  0  0  0  0  0  0  0  0  0  0  0
  -16.7678  -43.9613  -20.5697 C   0  0  0  0  0  0  0  0  0  0  0  0
  -15.7989  -43.1316  -21.1599 C   0  0  0  0  0  0  0  0  0  0  0  0
  -18.4386  -46.9181  -22.2109 C   0  0  0  0  0  0  0  0  0  0  0  0
  -18.6802  -46.0385  -23.2448 C   0  0  0  0  0  0  0  0  0  0  0  0
  -18.1111  -44.4788  -22.8894 S   0  0  0  0  0  0  0  0  0  0  0  0
  -17.4478  -44.9753  -21.3811 C   0  0  0  0  0  0  0  0  0  0  0  0
  -17.7229  -46.3053  -21.1327 C   0  0  0  0  0  0  0  0  0  0  0  0
  -13.8096  -44.5751  -18.7022 O   0  0  0  0  0  0  0  0  0  0  0  0
  -12.7295  -43.6807  -18.4505 C   0  0  0  0  0  0  0  0  0  0  0  0
  -13.0403  -42.7904  -17.2577 C   0  0  0  0  0  0  0  0  0  0  0  0
  -12.9775  -43.2838  -15.8726 N   0  0  0  0  0  0  0  0  0  0  0  0
  -13.6866  -44.5304  -15.5407 C   0  0  0  0  0  0  0  0  0  0  0  0
  -13.8268  -44.6102  -14.0241 C   0  0  0  0  0  0  0  0  0  0  0  0
  -14.8070  -43.6954  -13.5266 O   0  0  0  0  0  0  0  0  0  0  0  0
  -14.9138  -42.5166  -14.3611 C   0  0  1  0  0  0  0  0  0  0  0  0
  -13.5147  -42.1967  -14.9785 C   0  0  0  0  0  0  0  0  0  0  0  0
  -14.9754  -40.1438  -21.5133 H   0  0  0  0  0  0  0  0  0  0  0  0
  -14.0886  -41.5132  -22.1915 H   0  0  0  0  0  0  0  0  0  0  0  0
  -21.0797  -47.7905  -26.8042 H   0  0  0  0  0  0  0  0  0  0  0  0
  -20.1086  -46.5312  -27.5700 H   0  0  0  0  0  0  0  0  0  0  0  0
  -11.3855  -40.1241  -20.7866 H   0  0  0  0  0  0  0  0  0  0  0  0
  -17.8398  -43.0517  -16.7978 H   0  0  0  0  0  0  0  0  0  0  0  0
  -18.0217  -41.4105  -17.3577 H   0  0  0  0  0  0  0  0  0  0  0  0
  -22.6256  -46.3732  -26.4136 H   0  0  0  0  0  0  0  0  0  0  0  0
  -15.4684  -40.8029  -18.7119 H   0  0  0  0  0  0  0  0  0  0  0  0
  -17.9399  -44.3280  -18.7972 H   0  0  0  0  0  0  0  0  0  0  0  0
  -15.4711  -43.3353  -22.1800 H   0  0  0  0  0  0  0  0  0  0  0  0
  -18.7436  -47.9582  -22.2248 H   0  0  0  0  0  0  0  0  0  0  0  0
  -17.4170  -46.8272  -20.2343 H   0  0  0  0  0  0  0  0  0  0  0  0
  -14.5158  -44.0386  -19.0970 H   0  0  0  0  0  0  0  0  0  0  0  0
  -12.5724  -43.0877  -19.3550 H   0  0  0  0  0  0  0  0  0  0  0  0
  -11.8102  -44.2318  -18.2792 H   0  0  0  0  0  0  0  0  0  0  0  0
  -12.3230  -41.9613  -17.3110 H   0  0  0  0  0  0  0  0  0  0  0  0
  -14.0285  -42.3675  -17.4235 H   0  0  0  0  0  0  0  0  0  0  0  0
  -14.6502  -44.6173  -16.0499 H   0  0  0  0  0  0  0  0  0  0  0  0
  -13.1160  -45.4121  -15.7702 H   0  0  0  0  0  0  0  0  0  0  0  0
  -14.0480  -45.6353  -13.7269 H   0  0  0  0  0  0  0  0  0  0  0  0
  -12.8731  -44.3870  -13.5263 H   0  0  0  0  0  0  0  0  0  0  0  0
  -15.2521  -41.7003  -13.7136 H   0  0  0  0  0  0  0  0  0  0  0  0
  -12.7944  -42.0826  -14.1578 H   0  0  0  0  0  0  0  0  0  0  0  0
  -13.5321  -41.2283  -15.4915 H   0  0  0  0  0  0  0  0  0  0  0  0
 12  7  1  0
  7  6  1  0
  6  5  3  0
 10 11  1  0
  4 11  2  0
 11  3  1  0
  1  9  1  0
  2  9  2  0
  9  8  1  0
 13 18  2  0
 13 14  1  0
 13  1  1  0
 14 15  2  0
 15 16  1  0
 15 10  1  0
 16 17  2  0
 17 22  1  0
 17 18  1  0
 19 20  2  0
 19 23  1  0
 20  5  1  0
 20 21  1  0
 21 22  1  0
 22 23  2  0
 25 24  1  0
 26 25  1  0
 27 26  1  0
 27 32  1  0
 27 28  1  0
 28 29  1  0
 29 30  1  0
 30 31  1  0
 31 32  1  0
  3 31  1  0
  1 33  1  0
  1 34  1  0
  7 35  1  0
  7 36  1  0
  8 37  1  0
 10 38  1  0
 10 39  1  0
 12 40  1  0
 14 41  1  0
 16 42  1  0
 18 43  1  0
 19 44  1  0
 23 45  1  0
 24 46  1  0
 25 47  1  0
 25 48  1  0
 26 49  1  0
 26 50  1  0
 28 51  1  0
 28 52  1  0
 29 53  1  0
 29 54  1  0
 31 55  1  1
 32 56  1  0
 32 57  1  0
M  END
>  <smiles>  (592) 
[H]OC(=O)C([H])([H])c1c([H])c(-c2sc(C#CC([H])([H])O[H])c([H])c2[H])c([H])c(C([H])([H])C(=O)O[C@@]2([H])OC([H])([H])C([H])([H])N(C([H])([H])C([H])([H])O[H])C2([H])[H])c1[H]

>  <error>  (592) 


>  <∆∆G>  (592) 
-91.155705

>  <∆G_bound>  (592) 
156.155261

>  <∆G_unbound>  (592) 
247.310966

>  <comRMSD>  (592) 
1.544518

>  <N_constrained_atoms>  (592) 
32.0

>  <N_unconstrained_atoms>  (592) 
0.0

>  <runtime>  (592) 
6.641183

>  <regarded>  (592) 
['5hmy-a', 'z0052a']

>  <disregarded>  (592) 
[]

>  <LE>  (592) 
2.848616

>  <outcome>  (592) 
too moved

>  <percent_hybrid>  (592) 
29.0

$$$$
LIG
     RDKit          3D

 53 55  0  0  0  0  0  0  0  0999 V2000
  -13.2518  -42.1841  -20.7621 C   0  0  0  0  0  0  0  0  0  0  0  0
  -14.2624  -40.1898  -21.8051 N   0  0  0  0  0  0  0  0  0  0  0  0
  -17.8750  -42.1418  -15.3187 O   0  0  0  0  0  0  0  0  0  0  0  0
  -18.7062  -42.9194  -17.2439 O   0  0  0  0  0  0  0  0  0  0  0  0
  -19.3527  -46.1956  -24.4322 C   0  0  0  0  0  0  0  0  0  0  0  0
  -19.9869  -46.3960  -25.4358 C   0  0  0  0  0  0  0  0  0  0  0  0
  -20.7392  -46.6818  -26.6623 C   0  0  0  0  0  0  0  0  0  0  0  0
  -13.5823  -40.0269  -19.6141 O   0  0  0  0  0  0  0  0  0  0  0  0
  -13.2554  -40.6246  -20.8559 C   0  0  1  0  0  0  0  0  0  0  0  0
  -16.2800  -42.8711  -16.8928 C   0  0  0  0  0  0  0  0  0  0  0  0
  -17.7287  -42.6406  -16.5669 C   0  0  0  0  0  0  0  0  0  0  0  0
  -21.8755  -45.8347  -26.7536 O   0  0  0  0  0  0  0  0  0  0  0  0
  -11.7983  -40.2064  -21.1153 C   0  0  0  0  0  0  0  0  0  0  0  0
  -13.9302  -39.1942  -22.8139 C   0  0  0  0  0  0  0  0  0  0  0  0
  -14.4858  -42.8530  -20.2163 C   0  0  0  0  0  0  0  0  0  0  0  0
  -14.8191  -42.6637  -18.8769 C   0  0  0  0  0  0  0  0  0  0  0  0
  -15.9619  -43.2400  -18.3226 C   0  0  0  0  0  0  0  0  0  0  0  0
  -16.7271  -44.1106  -19.1171 C   0  0  0  0  0  0  0  0  0  0  0  0
  -16.4132  -44.3170  -20.4718 C   0  0  0  0  0  0  0  0  0  0  0  0
  -15.2826  -43.6846  -21.0083 C   0  0  0  0  0  0  0  0  0  0  0  0
  -18.4877  -46.9352  -22.2088 C   0  0  0  0  0  0  0  0  0  0  0  0
  -18.6428  -45.9919  -23.2033 C   0  0  0  0  0  0  0  0  0  0  0  0
  -17.8923  -44.5189  -22.7898 S   0  0  0  0  0  0  0  0  0  0  0  0
  -17.2663  -45.1571  -21.3206 C   0  0  0  0  0  0  0  0  0  0  0  0
  -17.6985  -46.4537  -21.1209 C   0  0  0  0  0  0  0  0  0  0  0  0
  -13.5219  -37.8647  -22.2656 C   0  0  0  0  0  0  0  0  0  0  0  0
  -12.2647  -37.3323  -22.4447 N   0  0  0  0  0  0  0  0  0  0  0  0
  -12.2208  -36.1322  -21.7945 C   0  0  0  0  0  0  0  0  0  0  0  0
  -13.4783  -35.9592  -21.2770 C   0  0  0  0  0  0  0  0  0  0  0  0
  -14.2712  -37.0392  -21.5641 N   0  0  0  0  0  0  0  0  0  0  0  0
  -13.0242  -42.6038  -21.7485 H   0  0  0  0  0  0  0  0  0  0  0  0
  -12.4299  -42.5097  -20.1082 H   0  0  0  0  0  0  0  0  0  0  0  0
  -18.7745  -42.4565  -15.0645 H   0  0  0  0  0  0  0  0  0  0  0  0
  -21.0574  -47.7257  -26.7255 H   0  0  0  0  0  0  0  0  0  0  0  0
  -20.1158  -46.4766  -27.5306 H   0  0  0  0  0  0  0  0  0  0  0  0
  -13.7708  -39.0923  -19.8180 H   0  0  0  0  0  0  0  0  0  0  0  0
  -15.7595  -41.9391  -16.6363 H   0  0  0  0  0  0  0  0  0  0  0  0
  -15.8922  -43.6601  -16.2414 H   0  0  0  0  0  0  0  0  0  0  0  0
  -22.6357  -46.3330  -26.3856 H   0  0  0  0  0  0  0  0  0  0  0  0
  -11.0935  -40.8327  -20.5551 H   0  0  0  0  0  0  0  0  0  0  0  0
  -11.5418  -40.2795  -22.1684 H   0  0  0  0  0  0  0  0  0  0  0  0
  -11.5935  -39.1900  -20.7671 H   0  0  0  0  0  0  0  0  0  0  0  0
  -13.1785  -39.5865  -23.4968 H   0  0  0  0  0  0  0  0  0  0  0  0
  -14.8219  -39.0371  -23.4331 H   0  0  0  0  0  0  0  0  0  0  0  0
  -14.1897  -42.0164  -18.2661 H   0  0  0  0  0  0  0  0  0  0  0  0
  -17.6198  -44.5796  -18.7100 H   0  0  0  0  0  0  0  0  0  0  0  0
  -15.0126  -43.8391  -22.0519 H   0  0  0  0  0  0  0  0  0  0  0  0
  -18.8998  -47.9363  -22.2630 H   0  0  0  0  0  0  0  0  0  0  0  0
  -17.4355  -47.0473  -20.2547 H   0  0  0  0  0  0  0  0  0  0  0  0
  -11.3238  -35.5311  -21.7637 H   0  0  0  0  0  0  0  0  0  0  0  0
  -13.8538  -35.1241  -20.6994 H   0  0  0  0  0  0  0  0  0  0  0  0
  -15.1063  -39.9282  -21.2978 H   0  0  0  0  0  0  0  0  0  0  0  0
  -11.4938  -37.7649  -22.9344 H   0  0  0  0  0  0  0  0  0  0  0  0
 12  7  1  0
  7  6  1  0
  6  5  3  0
 10 11  1  0
  4 11  2  0
 11  3  1  0
  1  9  1  0
  2  9  1  0
  9  8  1  1
 13  9  1  0
 14  2  1  0
 15 20  1  0
 15 16  2  0
 15  1  1  0
 16 17  1  0
 17 18  2  0
 17 10  1  0
 18 19  1  0
 19 24  1  0
 19 20  2  0
 21 22  2  0
 21 25  1  0
 22  5  1  0
 22 23  1  0
 23 24  1  0
 24 25  2  0
 26 14  1  0
 26 27  1  0
 26 30  2  0
 27 28  1  0
 28 29  2  0
 29 30  1  0
  1 31  1  0
  1 32  1  0
  3 33  1  0
  7 34  1  0
  7 35  1  0
  8 36  1  0
 10 37  1  0
 10 38  1  0
 12 39  1  0
 13 40  1  0
 13 41  1  0
 13 42  1  0
 14 43  1  0
 14 44  1  0
 16 45  1  0
 18 46  1  0
 20 47  1  0
 21 48  1  0
 25 49  1  0
 28 50  1  0
 29 51  1  0
  2 52  1  0
 27 53  1  0
M  END
>  <smiles>  (593) 
[H]OC(=O)C([H])([H])c1c([H])c(-c2sc(C#CC([H])([H])O[H])c([H])c2[H])c([H])c(C([H])([H])[C@@](NC([H])([H])c2nc([H])c([H])[nH]2)(O[H])C([H])([H])[H])c1[H]

>  <error>  (593) 


>  <∆∆G>  (593) 
-70.814224

>  <∆G_bound>  (593) 
47.591693

>  <∆G_unbound>  (593) 
118.405917

>  <comRMSD>  (593) 
0.942912

>  <N_constrained_atoms>  (593) 
30.0

>  <N_unconstrained_atoms>  (593) 
0.0

>  <runtime>  (593) 
2.314169

>  <regarded>  (593) 
['5hmy-a', 'z0103a']

>  <disregarded>  (593) 
[]

>  <LE>  (593) 
2.360474

>  <outcome>  (593) 
acceptable

>  <percent_hybrid>  (593) 
24.0

$$$$

     RDKit          2D

  0  0  0  0  0  0  0  0  0  0999 V2000
M  END
>  <smiles>  (594) 
nan

>  <error>  (594) 
DistanceError 5.95 Å

>  <∆∆G>  (594) 
nan

>  <∆G_bound>  (594) 
nan

>  <∆G_unbound>  (594) 
nan

>  <comRMSD>  (594) 
nan

>  <N_constrained_atoms>  (594) 
nan

>  <N_unconstrained_atoms>  (594) 
nan

>  <runtime>  (594) 
nan

>  <regarded>  (594) 
[]

>  <disregarded>  (594) 
[]

>  <LE>  (594) 
nan

>  <outcome>  (594) 
too distant

>  <percent_hybrid>  (594) 
nan

$$$$

     RDKit          2D

  0  0  0  0  0  0  0  0  0  0999 V2000
M  END
>  <smiles>  (595) 
nan

>  <error>  (595) 
RecursionError maximum recursion depth exceeded while calling a Python object

>  <∆∆G>  (595) 
nan

>  <∆G_bound>  (595) 
nan

>  <∆G_unbound>  (595) 
nan

>  <comRMSD>  (595) 
nan

>  <N_constrained_atoms>  (595) 
nan

>  <N_unconstrained_atoms>  (595) 
nan

>  <runtime>  (595) 
nan

>  <regarded>  (595) 
[]

>  <disregarded>  (595) 
[]

>  <LE>  (595) 
nan

>  <outcome>  (595) 
crashed

>  <percent_hybrid>  (595) 
nan

$$$$
LIG
     RDKit          3D

 46 48  0  0  0  0  0  0  0  0999 V2000
  -13.3824  -42.8248  -20.0092 C   0  0  1  0  0  0  0  0  0  0  0  0
  -12.4437  -41.4375  -18.1272 O   0  0  0  0  0  0  0  0  0  0  0  0
  -19.2958  -41.0797  -16.2561 O   0  0  0  0  0  0  0  0  0  0  0  0
  -19.7966  -42.8835  -17.4576 O   0  0  0  0  0  0  0  0  0  0  0  0
  -19.3910  -46.2423  -24.5009 C   0  0  0  0  0  0  0  0  0  0  0  0
  -20.0175  -46.4334  -25.5094 C   0  0  0  0  0  0  0  0  0  0  0  0
  -20.7728  -46.6987  -26.7339 C   0  0  0  0  0  0  0  0  0  0  0  0
  -12.1992  -43.6271  -18.0219 O   0  0  0  0  0  0  0  0  0  0  0  0
  -12.6243  -42.5168  -18.6773 C   0  0  0  0  0  0  0  0  0  0  0  0
  -17.4385  -42.3524  -17.0202 C   0  0  0  0  0  0  0  0  0  0  0  0
  -18.9356  -42.1612  -16.9807 C   0  0  0  0  0  0  0  0  0  0  0  0
  -21.9041  -45.8432  -26.8100 O   0  0  0  0  0  0  0  0  0  0  0  0
  -12.8867  -44.0713  -20.6246 N   0  0  0  0  0  0  0  0  0  0  0  0
  -14.8756  -43.0443  -19.7513 C   0  0  0  0  0  0  0  0  0  0  0  0
  -15.5200  -42.5590  -18.6064 C   0  0  0  0  0  0  0  0  0  0  0  0
  -16.8372  -42.9323  -18.2880 C   0  0  0  0  0  0  0  0  0  0  0  0
  -17.4995  -43.8395  -19.1297 C   0  0  0  0  0  0  0  0  0  0  0  0
  -16.9117  -44.2699  -20.3217 C   0  0  0  0  0  0  0  0  0  0  0  0
  -15.6184  -43.8591  -20.6272 C   0  0  0  0  0  0  0  0  0  0  0  0
  -18.5494  -47.0019  -22.2819 C   0  0  0  0  0  0  0  0  0  0  0  0
  -18.7338  -46.0348  -23.2482 C   0  0  0  0  0  0  0  0  0  0  0  0
  -18.1461  -44.5176  -22.7472 S   0  0  0  0  0  0  0  0  0  0  0  0
  -17.6104  -45.1493  -21.2473 C   0  0  0  0  0  0  0  0  0  0  0  0
  -17.9000  -46.4906  -21.1224 C   0  0  0  0  0  0  0  0  0  0  0  0
  -13.2069  -41.6617  -20.9648 C   0  0  0  0  0  0  0  0  0  0  0  0
  -14.0874  -41.0518  -21.8414 C   0  0  0  0  0  0  0  0  0  0  0  0
  -13.4213  -39.9766  -22.3595 N   0  0  0  0  0  0  0  0  0  0  0  0
  -12.1713  -39.9637  -21.8178 C   0  0  0  0  0  0  0  0  0  0  0  0
  -11.9788  -41.0060  -21.0462 N   0  0  0  0  0  0  0  0  0  0  0  0
  -20.2739  -41.1382  -16.2245 H   0  0  0  0  0  0  0  0  0  0  0  0
  -21.0981  -47.7396  -26.8084 H   0  0  0  0  0  0  0  0  0  0  0  0
  -20.1470  -46.4795  -27.5966 H   0  0  0  0  0  0  0  0  0  0  0  0
  -11.6536  -43.2217  -17.3175 H   0  0  0  0  0  0  0  0  0  0  0  0
  -16.9949  -41.3598  -16.8634 H   0  0  0  0  0  0  0  0  0  0  0  0
  -17.1471  -42.9762  -16.1704 H   0  0  0  0  0  0  0  0  0  0  0  0
  -22.6628  -46.3391  -26.4345 H   0  0  0  0  0  0  0  0  0  0  0  0
  -14.9966  -41.8843  -17.9292 H   0  0  0  0  0  0  0  0  0  0  0  0
  -18.5055  -44.1832  -18.9012 H   0  0  0  0  0  0  0  0  0  0  0  0
  -15.1516  -44.2270  -21.5429 H   0  0  0  0  0  0  0  0  0  0  0  0
  -18.8649  -48.0321  -22.3962 H   0  0  0  0  0  0  0  0  0  0  0  0
  -17.6388  -47.0847  -20.2564 H   0  0  0  0  0  0  0  0  0  0  0  0
  -15.1156  -41.2630  -22.1007 H   0  0  0  0  0  0  0  0  0  0  0  0
  -11.4440  -39.1936  -22.0388 H   0  0  0  0  0  0  0  0  0  0  0  0
  -12.5068  -44.6571  -19.8801 H   0  0  0  0  0  0  0  0  0  0  0  0
  -12.0868  -43.8747  -21.2402 H   0  0  0  0  0  0  0  0  0  0  0  0
  -13.7962  -39.3078  -23.0181 H   0  0  0  0  0  0  0  0  0  0  0  0
 12  7  1  0
  7  6  1  0
  6  5  3  0
 10 11  1  0
  4 11  2  0
 11  3  1  0
  1  9  1  0
  2  9  2  0
  9  8  1  0
  1 13  1  6
 14 19  1  0
 14 15  2  0
 14  1  1  0
 15 16  1  0
 16 17  2  0
 16 10  1  0
 17 18  1  0
 18 23  1  0
 18 19  2  0
 20 21  2  0
 20 24  1  0
 21  5  1  0
 21 22  1  0
 22 23  1  0
 23 24  2  0
 25 26  2  0
 25 29  1  0
 26 27  1  0
 27 28  1  0
 28 29  2  0
  1 25  1  0
  3 30  1  0
  7 31  1  0
  7 32  1  0
  8 33  1  0
 10 34  1  0
 10 35  1  0
 12 36  1  0
 15 37  1  0
 17 38  1  0
 19 39  1  0
 20 40  1  0
 24 41  1  0
 26 42  1  0
 28 43  1  0
 13 44  1  0
 13 45  1  0
 27 46  1  0
M  END
>  <smiles>  (596) 
[H]OC(=O)C([H])([H])c1c([H])c(-c2sc(C#CC([H])([H])O[H])c([H])c2[H])c([H])c([C@](N)(C(=O)O[H])c2nc([H])[nH]c2[H])c1[H]

>  <error>  (596) 


>  <∆∆G>  (596) 
-253.758573

>  <∆G_bound>  (596) 
53.566787

>  <∆G_unbound>  (596) 
307.32536

>  <comRMSD>  (596) 
1.9641

>  <N_constrained_atoms>  (596) 
29.0

>  <N_unconstrained_atoms>  (596) 
0.0

>  <runtime>  (596) 
2.854826

>  <regarded>  (596) 
['5hmy-a', 'z0875c']

>  <disregarded>  (596) 
[]

>  <LE>  (596) 
8.750296

>  <outcome>  (596) 
too moved

>  <percent_hybrid>  (596) 
21.0

$$$$

     RDKit          2D

  0  0  0  0  0  0  0  0  0  0999 V2000
M  END
>  <smiles>  (597) 
nan

>  <error>  (597) 
FragmensteinError Ideal compound failed. Something is wrong with the SMILES

>  <∆∆G>  (597) 
nan

>  <∆G_bound>  (597) 
nan

>  <∆G_unbound>  (597) 
nan

>  <comRMSD>  (597) 
nan

>  <N_constrained_atoms>  (597) 
nan

>  <N_unconstrained_atoms>  (597) 
nan

>  <runtime>  (597) 
nan

>  <regarded>  (597) 
[]

>  <disregarded>  (597) 
[]

>  <LE>  (597) 
nan

>  <outcome>  (597) 
crashed

>  <percent_hybrid>  (597) 
nan

$$$$
LIG
     RDKit          3D

 38 39  0  0  0  0  0  0  0  0999 V2000
  -13.2286  -42.3246  -21.0774 C   0  0  0  0  0  0  0  0  0  0  0  0
  -13.3472  -39.9030  -21.3197 O   0  0  0  0  0  0  0  0  0  0  0  0
  -17.3930  -42.3901  -15.2499 O   0  0  0  0  0  0  0  0  0  0  0  0
  -18.2866  -42.9283  -17.2351 O   0  0  0  0  0  0  0  0  0  0  0  0
  -19.3430  -46.2471  -24.4148 C   0  0  0  0  0  0  0  0  0  0  0  0
  -19.9754  -46.4205  -25.4247 C   0  0  0  0  0  0  0  0  0  0  0  0
  -20.7315  -46.6850  -26.6542 C   0  0  0  0  0  0  0  0  0  0  0  0
  -14.4052  -41.1845  -22.8101 O   0  0  0  0  0  0  0  0  0  0  0  0
  -13.6449  -41.0223  -21.7077 C   0  0  0  0  0  0  0  0  0  0  0  0
  -15.8672  -43.1204  -16.9041 C   0  0  0  0  0  0  0  0  0  0  0  0
  -17.2918  -42.7898  -16.5345 C   0  0  0  0  0  0  0  0  0  0  0  0
  -21.8651  -45.8326  -26.7302 O   0  0  0  0  0  0  0  0  0  0  0  0
  -17.4457  -45.0442  -18.4466 O   0  0  0  0  0  0  0  0  0  0  0  0
  -14.3511  -43.0353  -20.3752 C   0  0  0  0  0  0  0  0  0  0  0  0
  -14.5883  -42.8183  -19.0193 C   0  0  0  0  0  0  0  0  0  0  0  0
  -15.6473  -43.4599  -18.3632 C   0  0  0  0  0  0  0  0  0  0  0  0
  -16.4410  -44.3682  -19.0936 C   0  0  0  0  0  0  0  0  0  0  0  0
  -16.2689  -44.5480  -20.4759 C   0  0  0  0  0  0  0  0  0  0  0  0
  -15.1968  -43.8892  -21.0931 C   0  0  0  0  0  0  0  0  0  0  0  0
  -18.4939  -47.0533  -22.2066 C   0  0  0  0  0  0  0  0  0  0  0  0
  -18.6332  -46.0850  -23.1790 C   0  0  0  0  0  0  0  0  0  0  0  0
  -17.8625  -44.6359  -22.7264 S   0  0  0  0  0  0  0  0  0  0  0  0
  -17.1913  -45.3412  -21.3026 C   0  0  0  0  0  0  0  0  0  0  0  0
  -17.6629  -46.6265  -21.1265 C   0  0  0  0  0  0  0  0  0  0  0  0
  -12.8275  -42.9772  -21.8533 H   0  0  0  0  0  0  0  0  0  0  0  0
  -12.3979  -42.1313  -20.3883 H   0  0  0  0  0  0  0  0  0  0  0  0
  -18.3089  -42.6618  -14.9915 H   0  0  0  0  0  0  0  0  0  0  0  0
  -21.0542  -47.7267  -26.7306 H   0  0  0  0  0  0  0  0  0  0  0  0
  -20.1103  -46.4709  -27.5221 H   0  0  0  0  0  0  0  0  0  0  0  0
  -14.5704  -40.2780  -23.1411 H   0  0  0  0  0  0  0  0  0  0  0  0
  -15.2631  -42.2459  -16.6321 H   0  0  0  0  0  0  0  0  0  0  0  0
  -15.5239  -43.9650  -16.2993 H   0  0  0  0  0  0  0  0  0  0  0  0
  -22.6266  -46.3351  -26.3707 H   0  0  0  0  0  0  0  0  0  0  0  0
  -18.1365  -44.3542  -18.3100 H   0  0  0  0  0  0  0  0  0  0  0  0
  -13.9462  -42.1249  -18.4761 H   0  0  0  0  0  0  0  0  0  0  0  0
  -15.0133  -44.0288  -22.1593 H   0  0  0  0  0  0  0  0  0  0  0  0
  -18.9324  -48.0414  -22.2782 H   0  0  0  0  0  0  0  0  0  0  0  0
  -17.3934  -47.2497  -20.2830 H   0  0  0  0  0  0  0  0  0  0  0  0
 12  7  1  0
  7  6  1  0
  6  5  3  0
 10 11  1  0
  4 11  2  0
 11  3  1  0
  1  9  1  0
  2  9  2  0
  9  8  1  0
 14 19  2  0
 14 15  1  0
 14  1  1  0
 15 16  2  0
 16 17  1  0
 16 10  1  0
 17 18  2  0
 18 23  1  0
 18 19  1  0
 20 21  2  0
 20 24  1  0
 21  5  1  0
 21 22  1  0
 22 23  1  0
 23 24  2  0
 13 17  1  0
  1 25  1  0
  1 26  1  0
  3 27  1  0
  7 28  1  0
  7 29  1  0
  8 30  1  0
 10 31  1  0
 10 32  1  0
 12 33  1  0
 13 34  1  0
 15 35  1  0
 19 36  1  0
 20 37  1  0
 24 38  1  0
M  END
>  <smiles>  (598) 
[H]OC(=O)C([H])([H])c1c([H])c(-c2sc(C#CC([H])([H])O[H])c([H])c2[H])c(O[H])c(C([H])([H])C(=O)O[H])c1[H]

>  <error>  (598) 


>  <∆∆G>  (598) 
-98.582168

>  <∆G_bound>  (598) 
4.687255

>  <∆G_unbound>  (598) 
103.269422

>  <comRMSD>  (598) 
1.060183

>  <N_constrained_atoms>  (598) 
24.0

>  <N_unconstrained_atoms>  (598) 
0.0

>  <runtime>  (598) 
2.114548

>  <regarded>  (598) 
['5hmy-a', '5hn0-a']

>  <disregarded>  (598) 
[]

>  <LE>  (598) 
4.10759

>  <outcome>  (598) 
too moved

>  <percent_hybrid>  (598) 
5.0

$$$$
LIG
     RDKit          3D

 41 42  0  0  0  0  0  0  0  0999 V2000
  -13.2094  -42.2618  -20.8915 C   0  0  0  0  0  0  0  0  0  0  0  0
  -12.1592  -42.6722  -18.7057 O   0  0  0  0  0  0  0  0  0  0  0  0
  -18.0645  -42.2092  -15.4475 O   0  0  0  0  0  0  0  0  0  0  0  0
  -18.8982  -43.1009  -17.3237 O   0  0  0  0  0  0  0  0  0  0  0  0
  -19.4110  -46.2673  -24.5013 C   0  0  0  0  0  0  0  0  0  0  0  0
  -20.0358  -46.4544  -25.5113 C   0  0  0  0  0  0  0  0  0  0  0  0
  -20.7846  -46.7080  -26.7415 C   0  0  0  0  0  0  0  0  0  0  0  0
  -11.0159  -41.5858  -20.2911 O   0  0  0  0  0  0  0  0  0  0  0  0
  -12.1270  -42.2111  -19.8374 C   0  0  0  0  0  0  0  0  0  0  0  0
  -16.5330  -42.4639  -17.2092 C   0  0  0  0  0  0  0  0  0  0  0  0
  -17.9472  -42.6136  -16.7337 C   0  0  0  0  0  0  0  0  0  0  0  0
  -21.9114  -45.8467  -26.8186 O   0  0  0  0  0  0  0  0  0  0  0  0
  -14.9343  -44.0552  -22.4526 O   0  0  0  0  0  0  0  0  0  0  0  0
  -15.0686  -43.0217  -23.4293 C   0  0  0  0  0  0  0  0  0  0  0  0
  -14.5366  -42.8043  -20.4165 C   0  0  0  0  0  0  0  0  0  0  0  0
  -15.0123  -42.4205  -19.1545 C   0  0  0  0  0  0  0  0  0  0  0  0
  -16.1807  -42.9508  -18.5979 C   0  0  0  0  0  0  0  0  0  0  0  0
  -16.8895  -43.9010  -19.3406 C   0  0  0  0  0  0  0  0  0  0  0  0
  -16.5010  -44.2309  -20.6521 C   0  0  0  0  0  0  0  0  0  0  0  0
  -15.3282  -43.6627  -21.1937 C   0  0  0  0  0  0  0  0  0  0  0  0
  -18.4648  -46.9804  -22.2983 C   0  0  0  0  0  0  0  0  0  0  0  0
  -18.7210  -46.0374  -23.2712 C   0  0  0  0  0  0  0  0  0  0  0  0
  -18.1627  -44.4990  -22.8156 S   0  0  0  0  0  0  0  0  0  0  0  0
  -17.3519  -45.1265  -21.4396 C   0  0  0  0  0  0  0  0  0  0  0  0
  -17.6655  -46.4557  -21.2376 C   0  0  0  0  0  0  0  0  0  0  0  0
  -13.3672  -41.2522  -21.2863 H   0  0  0  0  0  0  0  0  0  0  0  0
  -12.8224  -42.9053  -21.6820 H   0  0  0  0  0  0  0  0  0  0  0  0
  -18.8103  -42.7629  -15.0988 H   0  0  0  0  0  0  0  0  0  0  0  0
  -21.1146  -47.7468  -26.8247 H   0  0  0  0  0  0  0  0  0  0  0  0
  -20.1519  -46.4852  -27.5982 H   0  0  0  0  0  0  0  0  0  0  0  0
  -10.3117  -41.9338  -19.6802 H   0  0  0  0  0  0  0  0  0  0  0  0
  -16.3037  -41.3924  -17.1442 H   0  0  0  0  0  0  0  0  0  0  0  0
  -15.8903  -43.0052  -16.5036 H   0  0  0  0  0  0  0  0  0  0  0  0
  -22.6726  -46.3392  -26.4433 H   0  0  0  0  0  0  0  0  0  0  0  0
  -15.9044  -42.3462  -23.2152 H   0  0  0  0  0  0  0  0  0  0  0  0
  -14.1470  -42.4441  -23.5079 H   0  0  0  0  0  0  0  0  0  0  0  0
  -15.2505  -43.4967  -24.3981 H   0  0  0  0  0  0  0  0  0  0  0  0
  -14.4422  -41.7002  -18.5657 H   0  0  0  0  0  0  0  0  0  0  0  0
  -17.7935  -44.3564  -18.9445 H   0  0  0  0  0  0  0  0  0  0  0  0
  -18.7865  -48.0130  -22.3628 H   0  0  0  0  0  0  0  0  0  0  0  0
  -17.2991  -47.0426  -20.4049 H   0  0  0  0  0  0  0  0  0  0  0  0
 12  7  1  0
  7  6  1  0
  6  5  3  0
 10 11  1  0
  4 11  2  0
 11  3  1  0
  1  9  1  0
  2  9  2  0
  9  8  1  0
 13 14  1  0
 15 20  2  0
 15 16  1  0
 15  1  1  0
 16 17  2  0
 17 18  1  0
 17 10  1  0
 18 19  2  0
 19 24  1  0
 19 20  1  0
 21 22  2  0
 21 25  1  0
 22  5  1  0
 22 23  1  0
 23 24  1  0
 24 25  2  0
 13 20  1  0
  1 26  1  0
  1 27  1  0
  3 28  1  0
  7 29  1  0
  7 30  1  0
  8 31  1  0
 10 32  1  0
 10 33  1  0
 12 34  1  0
 14 35  1  0
 14 36  1  0
 14 37  1  0
 16 38  1  0
 18 39  1  0
 21 40  1  0
 25 41  1  0
M  END
>  <smiles>  (599) 
[H]OC(=O)C([H])([H])c1c([H])c(-c2sc(C#CC([H])([H])O[H])c([H])c2[H])c(OC([H])([H])[H])c(C([H])([H])C(=O)O[H])c1[H]

>  <error>  (599) 


>  <∆∆G>  (599) 
-185.774234

>  <∆G_bound>  (599) 
10.192463

>  <∆G_unbound>  (599) 
195.966697

>  <comRMSD>  (599) 
1.62253

>  <N_constrained_atoms>  (599) 
25.0

>  <N_unconstrained_atoms>  (599) 
0.0

>  <runtime>  (599) 
2.738402

>  <regarded>  (599) 
['5hmy-a', '5f41-a']

>  <disregarded>  (599) 
[]

>  <LE>  (599) 
7.430969

>  <outcome>  (599) 
too moved

>  <percent_hybrid>  (599) 
8.0

$$$$
LIG
     RDKit          3D

 41 42  0  0  0  0  0  0  0  0999 V2000
  -13.5204  -41.4749  -21.1692 C   0  0  0  0  0  0  0  0  0  0  0  0
  -14.3727  -39.5714  -19.8544 O   0  0  0  0  0  0  0  0  0  0  0  0
  -17.0440  -42.5122  -15.2893 O   0  0  0  0  0  0  0  0  0  0  0  0
  -18.0599  -43.1000  -17.1906 O   0  0  0  0  0  0  0  0  0  0  0  0
  -19.4084  -46.1408  -24.4673 C   0  0  0  0  0  0  0  0  0  0  0  0
  -20.0379  -46.3642  -25.4681 C   0  0  0  0  0  0  0  0  0  0  0  0
  -20.7769  -46.6697  -26.6955 C   0  0  0  0  0  0  0  0  0  0  0  0
  -12.7484  -39.2350  -21.3290 O   0  0  0  0  0  0  0  0  0  0  0  0
  -13.6328  -40.0443  -20.7006 C   0  0  0  0  0  0  0  0  0  0  0  0
  -15.6247  -43.3112  -17.0164 C   0  0  0  0  0  0  0  0  0  0  0  0
  -17.0209  -42.9526  -16.5643 C   0  0  0  0  0  0  0  0  0  0  0  0
  -21.9163  -45.8297  -26.8073 O   0  0  0  0  0  0  0  0  0  0  0  0
  -15.3701  -43.0325  -22.6667 O   0  0  0  0  0  0  0  0  0  0  0  0
  -14.4707  -43.9283  -23.3062 C   0  0  0  0  0  0  0  0  0  0  0  0
  -14.5046  -42.4395  -20.5360 C   0  0  0  0  0  0  0  0  0  0  0  0
  -14.5495  -42.5549  -19.1429 C   0  0  0  0  0  0  0  0  0  0  0  0
  -15.4785  -43.3896  -18.5175 C   0  0  0  0  0  0  0  0  0  0  0  0
  -16.2982  -44.2166  -19.3066 C   0  0  0  0  0  0  0  0  0  0  0  0
  -16.2828  -44.1408  -20.7103 C   0  0  0  0  0  0  0  0  0  0  0  0
  -15.3733  -43.2372  -21.3070 C   0  0  0  0  0  0  0  0  0  0  0  0
  -18.4106  -46.8402  -22.2865 C   0  0  0  0  0  0  0  0  0  0  0  0
  -18.6884  -45.8991  -23.2538 C   0  0  0  0  0  0  0  0  0  0  0  0
  -18.0916  -44.3672  -22.8195 S   0  0  0  0  0  0  0  0  0  0  0  0
  -17.2134  -44.9963  -21.4791 C   0  0  0  0  0  0  0  0  0  0  0  0
  -17.5558  -46.3226  -21.2658 C   0  0  0  0  0  0  0  0  0  0  0  0
  -13.6445  -41.4461  -22.2554 H   0  0  0  0  0  0  0  0  0  0  0  0
  -12.5064  -41.8316  -20.9529 H   0  0  0  0  0  0  0  0  0  0  0  0
  -17.9897  -42.6365  -15.0325 H   0  0  0  0  0  0  0  0  0  0  0  0
  -21.0888  -47.7160  -26.7491 H   0  0  0  0  0  0  0  0  0  0  0  0
  -20.1445  -46.4693  -27.5585 H   0  0  0  0  0  0  0  0  0  0  0  0
  -12.9323  -38.3621  -20.9227 H   0  0  0  0  0  0  0  0  0  0  0  0
  -14.9411  -42.5537  -16.6140 H   0  0  0  0  0  0  0  0  0  0  0  0
  -15.3412  -44.2746  -16.5823 H   0  0  0  0  0  0  0  0  0  0  0  0
  -22.6751  -46.3247  -26.4310 H   0  0  0  0  0  0  0  0  0  0  0  0
  -14.3413  -43.5999  -24.3407 H   0  0  0  0  0  0  0  0  0  0  0  0
  -13.4881  -43.9526  -22.8248 H   0  0  0  0  0  0  0  0  0  0  0  0
  -14.9068  -44.9275  -23.3091 H   0  0  0  0  0  0  0  0  0  0  0  0
  -13.8955  -41.9272  -18.5379 H   0  0  0  0  0  0  0  0  0  0  0  0
  -17.0255  -44.8647  -18.8217 H   0  0  0  0  0  0  0  0  0  0  0  0
  -18.7479  -47.8693  -22.3337 H   0  0  0  0  0  0  0  0  0  0  0  0
  -17.1669  -46.9212  -20.4515 H   0  0  0  0  0  0  0  0  0  0  0  0
 12  7  1  0
  7  6  1  0
  6  5  3  0
 10 11  1  0
  4 11  2  0
 11  3  1  0
  1  9  1  0
  2  9  2  0
  9  8  1  0
 13 14  1  0
 15 20  2  0
 15 16  1  0
 15  1  1  0
 16 17  2  0
 17 18  1  0
 17 10  1  0
 18 19  2  0
 19 24  1  0
 19 20  1  0
 21 22  2  0
 21 25  1  0
 22  5  1  0
 22 23  1  0
 23 24  1  0
 24 25  2  0
 13 20  1  0
  1 26  1  0
  1 27  1  0
  3 28  1  0
  7 29  1  0
  7 30  1  0
  8 31  1  0
 10 32  1  0
 10 33  1  0
 12 34  1  0
 14 35  1  0
 14 36  1  0
 14 37  1  0
 16 38  1  0
 18 39  1  0
 21 40  1  0
 25 41  1  0
M  END
>  <smiles>  (600) 
[H]OC(=O)C([H])([H])c1c([H])c(-c2sc(C#CC([H])([H])O[H])c([H])c2[H])c(OC([H])([H])[H])c(C([H])([H])C(=O)O[H])c1[H]

>  <error>  (600) 


>  <∆∆G>  (600) 
-190.185695

>  <∆G_bound>  (600) 
5.781002

>  <∆G_unbound>  (600) 
195.966697

>  <comRMSD>  (600) 
0.888027

>  <N_constrained_atoms>  (600) 
25.0

>  <N_unconstrained_atoms>  (600) 
0.0

>  <runtime>  (600) 
2.384076

>  <regarded>  (600) 
['5hmy-a', '6h80-a']

>  <disregarded>  (600) 
[]

>  <LE>  (600) 
7.607428

>  <outcome>  (600) 
acceptable

>  <percent_hybrid>  (600) 
8.0

$$$$

     RDKit          2D

  0  0  0  0  0  0  0  0  0  0999 V2000
M  END
>  <smiles>  (601) 
nan

>  <error>  (601) 
FragmensteinError Ideal compound failed. Something is wrong with the SMILES

>  <∆∆G>  (601) 
nan

>  <∆G_bound>  (601) 
nan

>  <∆G_unbound>  (601) 
nan

>  <comRMSD>  (601) 
nan

>  <N_constrained_atoms>  (601) 
nan

>  <N_unconstrained_atoms>  (601) 
nan

>  <runtime>  (601) 
nan

>  <regarded>  (601) 
[]

>  <disregarded>  (601) 
[]

>  <LE>  (601) 
nan

>  <outcome>  (601) 
crashed

>  <percent_hybrid>  (601) 
nan

$$$$
LIG
     RDKit          3D

 62 65  0  0  0  0  0  0  0  0999 V2000
  -13.1624  -42.2614  -21.2521 C   0  0  0  0  0  0  0  0  0  0  0  0
  -14.4510  -40.1915  -21.5624 O   0  0  0  0  0  0  0  0  0  0  0  0
  -15.5607  -43.5866  -14.7655 N   0  0  0  0  0  0  0  0  0  0  0  0
  -16.5499  -42.3187  -16.4117 O   0  0  0  0  0  0  0  0  0  0  0  0
  -19.4445  -46.2213  -24.5201 C   0  0  0  0  0  0  0  0  0  0  0  0
  -20.0732  -46.4049  -25.5279 C   0  0  0  0  0  0  0  0  0  0  0  0
  -20.8179  -46.6726  -26.7565 C   0  0  0  0  0  0  0  0  0  0  0  0
  -12.2545  -40.1517  -21.8646 O   0  0  0  0  0  0  0  0  0  0  0  0
  -13.3969  -40.8048  -21.5554 C   0  0  0  0  0  0  0  0  0  0  0  0
  -15.1976  -44.1656  -17.1342 C   0  0  0  0  0  0  0  0  0  0  0  0
  -15.8374  -43.2647  -16.0971 C   0  0  0  0  0  0  0  0  0  0  0  0
  -21.9491  -45.8191  -26.8424 O   0  0  0  0  0  0  0  0  0  0  0  0
  -13.7668  -44.7051  -13.1471 O   0  0  0  0  0  0  0  0  0  0  0  0
  -14.1593  -43.8010  -14.2045 S   0  0  2  0  0  0  0  0  0  0  0  0
  -13.4404  -42.1457  -18.3606 C   0  0  0  0  0  0  0  0  0  0  0  0
  -15.0662  -43.8713  -22.7142 O   0  0  0  0  0  0  0  0  0  0  0  0
  -15.3343  -42.7187  -23.5085 C   0  0  0  0  0  0  0  0  0  0  0  0
  -14.3319  -42.9488  -20.5942 C   0  0  0  0  0  0  0  0  0  0  0  0
  -14.4218  -42.9435  -19.1900 C   0  0  0  0  0  0  0  0  0  0  0  0
  -15.3493  -43.8057  -18.5809 C   0  0  0  0  0  0  0  0  0  0  0  0
  -16.3116  -44.4826  -19.3465 C   0  0  0  0  0  0  0  0  0  0  0  0
  -16.2915  -44.4241  -20.7423 C   0  0  0  0  0  0  0  0  0  0  0  0
  -15.2668  -43.6827  -21.3628 C   0  0  0  0  0  0  0  0  0  0  0  0
  -18.4915  -47.0115  -22.3543 C   0  0  0  0  0  0  0  0  0  0  0  0
  -18.7392  -46.0334  -23.2926 C   0  0  0  0  0  0  0  0  0  0  0  0
  -18.1465  -44.5240  -22.7895 S   0  0  0  0  0  0  0  0  0  0  0  0
  -17.2588  -45.2288  -21.5001 C   0  0  0  0  0  0  0  0  0  0  0  0
  -17.6288  -46.5492  -21.3176 C   0  0  0  0  0  0  0  0  0  0  0  0
  -14.4413  -41.3694  -13.0318 C   0  0  0  0  0  0  0  0  0  0  0  0
  -14.0423  -40.0601  -12.8343 C   0  0  0  0  0  0  0  0  0  0  0  0
  -12.8400  -39.6230  -13.3908 C   0  0  0  0  0  0  0  0  0  0  0  0
  -12.0309  -40.4951  -14.1494 C   0  0  0  0  0  0  0  0  0  0  0  0
  -12.4289  -41.8229  -14.3707 C   0  0  0  0  0  0  0  0  0  0  0  0
  -13.6189  -42.2071  -13.7892 C   0  0  0  0  0  0  0  0  0  0  0  0
  -10.8131  -40.0851  -14.7035 C   0  0  0  0  0  0  0  0  0  0  0  0
  -10.0307  -40.9900  -15.4116 C   0  0  0  0  0  0  0  0  0  0  0  0
  -10.5055  -42.2758  -15.5672 C   0  0  0  0  0  0  0  0  0  0  0  0
  -11.7008  -42.6945  -15.1076 N   0  0  0  0  0  0  0  0  0  0  0  0
  -12.9365  -42.8024  -22.1630 H   0  0  0  0  0  0  0  0  0  0  0  0
  -12.2648  -42.3544  -20.6305 H   0  0  0  0  0  0  0  0  0  0  0  0
  -21.1412  -47.7143  -26.8319 H   0  0  0  0  0  0  0  0  0  0  0  0
  -20.1842  -46.4535  -27.6135 H   0  0  0  0  0  0  0  0  0  0  0  0
  -12.5717  -39.2398  -22.0320 H   0  0  0  0  0  0  0  0  0  0  0  0
  -14.1243  -44.1752  -16.9431 H   0  0  0  0  0  0  0  0  0  0  0  0
  -15.5032  -45.2023  -16.9927 H   0  0  0  0  0  0  0  0  0  0  0  0
  -22.7083  -46.3147  -26.4664 H   0  0  0  0  0  0  0  0  0  0  0  0
  -13.3602  -44.1663  -15.2289 H   0  0  0  0  0  0  0  0  0  0  0  0
  -12.5236  -42.7224  -18.2035 H   0  0  0  0  0  0  0  0  0  0  0  0
  -13.1903  -41.1921  -18.8343 H   0  0  0  0  0  0  0  0  0  0  0  0
  -13.8596  -41.8730  -17.3884 H   0  0  0  0  0  0  0  0  0  0  0  0
  -15.9910  -41.9977  -23.0094 H   0  0  0  0  0  0  0  0  0  0  0  0
  -14.4000  -42.2374  -23.8055 H   0  0  0  0  0  0  0  0  0  0  0  0
  -15.8286  -43.0506  -24.4271 H   0  0  0  0  0  0  0  0  0  0  0  0
  -17.0512  -45.1093  -18.8525 H   0  0  0  0  0  0  0  0  0  0  0  0
  -18.8454  -48.0319  -22.4402 H   0  0  0  0  0  0  0  0  0  0  0  0
  -17.2406  -47.1850  -20.5315 H   0  0  0  0  0  0  0  0  0  0  0  0
  -15.3883  -41.7282  -12.6339 H   0  0  0  0  0  0  0  0  0  0  0  0
  -14.6628  -39.3777  -12.2585 H   0  0  0  0  0  0  0  0  0  0  0  0
  -12.5314  -38.5918  -13.2272 H   0  0  0  0  0  0  0  0  0  0  0  0
  -10.4553  -39.0677  -14.5622 H   0  0  0  0  0  0  0  0  0  0  0  0
   -9.0656  -40.7005  -15.8130 H   0  0  0  0  0  0  0  0  0  0  0  0
   -9.9101  -43.0375  -16.0562 H   0  0  0  0  0  0  0  0  0  0  0  0
 12  7  1  0
  7  6  1  0
  6  5  3  0
 10 11  1  0
  4 11  2  0
 11  3  1  0
  1  9  1  0
  2  9  2  0
  9  8  1  0
 14 13  2  0
 14  3  2  0
 16 17  1  0
 18 23  2  0
 18 19  1  0
 18  1  1  0
 19 20  2  0
 20 21  1  0
 20 10  1  0
 21 22  2  0
 22 27  1  0
 22 23  1  0
 24 25  2  0
 24 28  1  0
 25  5  1  0
 25 26  1  0
 26 27  1  0
 27 28  2  0
 29 34  2  0
 29 30  1  0
 30 31  2  0
 31 32  1  0
 32 33  2  0
 32 35  1  0
 33 34  1  0
 33 38  1  0
 34 14  1  0
 35 36  2  0
 36 37  1  0
 37 38  2  0
 15 19  1  0
 16 23  1  0
  1 39  1  0
  1 40  1  0
  7 41  1  0
  7 42  1  0
  8 43  1  0
 10 44  1  0
 10 45  1  0
 12 46  1  0
 14 47  1  6
 15 48  1  0
 15 49  1  0
 15 50  1  0
 17 51  1  0
 17 52  1  0
 17 53  1  0
 21 54  1  0
 24 55  1  0
 28 56  1  0
 29 57  1  0
 30 58  1  0
 31 59  1  0
 35 60  1  0
 36 61  1  0
 37 62  1  0
M  END
>  <smiles>  (602) 
[H]OC(=O)C([H])([H])c1c(OC([H])([H])[H])c(-c2sc(C#CC([H])([H])O[H])c([H])c2[H])c([H])c(C([H])([H])C(=O)N=[S@]([H])(=O)c2c([H])c([H])c([H])c3c([H])c([H])c([H])nc23)c1C([H])([H])[H]

>  <error>  (602) 


>  <∆∆G>  (602) 
-224.968788

>  <∆G_bound>  (602) 
48.42109

>  <∆G_unbound>  (602) 
273.389878

>  <comRMSD>  (602) 
0.783125

>  <N_constrained_atoms>  (602) 
38.0

>  <N_unconstrained_atoms>  (602) 
0.0

>  <runtime>  (602) 
4.545075

>  <regarded>  (602) 
['5hmy-a', '5i3q-a']

>  <disregarded>  (602) 
[]

>  <LE>  (602) 
5.920231

>  <outcome>  (602) 
acceptable

>  <percent_hybrid>  (602) 
40.0

$$$$
LIG
     RDKit          3D

 37 38  0  0  0  0  0  0  0  0999 V2000
  -13.0623  -42.4227  -20.9081 C   0  0  0  0  0  0  0  0  0  0  0  0
  -14.0711  -40.1861  -20.6934 O   0  0  0  0  0  0  0  0  0  0  0  0
  -17.6134  -42.3009  -15.3135 O   0  0  0  0  0  0  0  0  0  0  0  0
  -18.4766  -43.0065  -17.2517 O   0  0  0  0  0  0  0  0  0  0  0  0
  -19.3448  -46.1986  -24.4179 C   0  0  0  0  0  0  0  0  0  0  0  0
  -19.9812  -46.3903  -25.4221 C   0  0  0  0  0  0  0  0  0  0  0  0
  -20.7359  -46.6730  -26.6487 C   0  0  0  0  0  0  0  0  0  0  0  0
  -12.0552  -40.3854  -21.5983 O   0  0  0  0  0  0  0  0  0  0  0  0
  -13.1598  -40.9211  -21.0369 C   0  0  0  0  0  0  0  0  0  0  0  0
  -16.0416  -42.9529  -16.9446 C   0  0  0  0  0  0  0  0  0  0  0  0
  -17.4881  -42.7478  -16.5834 C   0  0  0  0  0  0  0  0  0  0  0  0
  -21.8737  -45.8275  -26.7348 O   0  0  0  0  0  0  0  0  0  0  0  0
  -14.2789  -43.0656  -20.2936 C   0  0  0  0  0  0  0  0  0  0  0  0
  -14.5869  -42.8251  -18.9543 C   0  0  0  0  0  0  0  0  0  0  0  0
  -15.7460  -43.3507  -18.3739 C   0  0  0  0  0  0  0  0  0  0  0  0
  -16.5573  -44.2056  -19.1426 C   0  0  0  0  0  0  0  0  0  0  0  0
  -16.2782  -44.4440  -20.4974 C   0  0  0  0  0  0  0  0  0  0  0  0
  -15.1271  -43.8760  -21.0579 C   0  0  0  0  0  0  0  0  0  0  0  0
  -18.4914  -46.9686  -22.2000 C   0  0  0  0  0  0  0  0  0  0  0  0
  -18.6259  -46.0170  -23.1899 C   0  0  0  0  0  0  0  0  0  0  0  0
  -17.8274  -44.5695  -22.7744 S   0  0  0  0  0  0  0  0  0  0  0  0
  -17.1885  -45.2429  -21.3258 C   0  0  0  0  0  0  0  0  0  0  0  0
  -17.6675  -46.5220  -21.1226 C   0  0  0  0  0  0  0  0  0  0  0  0
  -12.9186  -42.8396  -21.9052 H   0  0  0  0  0  0  0  0  0  0  0  0
  -12.1864  -42.6644  -20.2972 H   0  0  0  0  0  0  0  0  0  0  0  0
  -18.5118  -42.6230  -15.0547 H   0  0  0  0  0  0  0  0  0  0  0  0
  -21.0525  -47.7173  -26.7146 H   0  0  0  0  0  0  0  0  0  0  0  0
  -20.1155  -46.4654  -27.5188 H   0  0  0  0  0  0  0  0  0  0  0  0
  -12.2522  -39.4267  -21.6231 H   0  0  0  0  0  0  0  0  0  0  0  0
  -15.5348  -42.0047  -16.7238 H   0  0  0  0  0  0  0  0  0  0  0  0
  -15.6252  -43.7237  -16.2873 H   0  0  0  0  0  0  0  0  0  0  0  0
  -22.6341  -46.3309  -26.3744 H   0  0  0  0  0  0  0  0  0  0  0  0
  -13.9360  -42.1725  -18.3725 H   0  0  0  0  0  0  0  0  0  0  0  0
  -17.4616  -44.6342  -18.7170 H   0  0  0  0  0  0  0  0  0  0  0  0
  -14.8876  -44.0584  -22.1052 H   0  0  0  0  0  0  0  0  0  0  0  0
  -18.9356  -47.9558  -22.2543 H   0  0  0  0  0  0  0  0  0  0  0  0
  -17.4086  -47.1313  -20.2662 H   0  0  0  0  0  0  0  0  0  0  0  0
 12  7  1  0
  7  6  1  0
  6  5  3  0
 10 11  1  0
  4 11  2  0
 11  3  1  0
  1  9  1  0
  2  9  2  0
  9  8  1  0
 13 18  2  0
 13 14  1  0
 13  1  1  0
 14 15  2  0
 15 16  1  0
 15 10  1  0
 16 17  2  0
 17 22  1  0
 17 18  1  0
 19 20  2  0
 19 23  1  0
 20  5  1  0
 20 21  1  0
 21 22  1  0
 22 23  2  0
  1 24  1  0
  1 25  1  0
  3 26  1  0
  7 27  1  0
  7 28  1  0
  8 29  1  0
 10 30  1  0
 10 31  1  0
 12 32  1  0
 14 33  1  0
 16 34  1  0
 18 35  1  0
 19 36  1  0
 23 37  1  0
M  END
>  <smiles>  (603) 
[H]OC(=O)C([H])([H])c1c([H])c(-c2sc(C#CC([H])([H])O[H])c([H])c2[H])c([H])c(C([H])([H])C(=O)O[H])c1[H]

>  <error>  (603) 


>  <∆∆G>  (603) 
-45.787997

>  <∆G_bound>  (603) 
-1.430154

>  <∆G_unbound>  (603) 
44.357843

>  <comRMSD>  (603) 
0.987439

>  <N_constrained_atoms>  (603) 
23.0

>  <N_unconstrained_atoms>  (603) 
0.0

>  <runtime>  (603) 
1.896146

>  <regarded>  (603) 
['5hmy-a', '5hmx-b']

>  <disregarded>  (603) 
[]

>  <LE>  (603) 
1.990782

>  <outcome>  (603) 
equally sized

>  <percent_hybrid>  (603) 
0.0

$$$$
LIG
     RDKit          3D

 61 63  0  0  0  0  0  0  0  0999 V2000
  -13.9062  -41.2359  -21.0310 C   0  0  0  0  0  0  0  0  0  0  0  0
  -14.8586  -39.6158  -19.4327 O   0  0  0  0  0  0  0  0  0  0  0  0
  -15.0224  -44.1477  -14.7601 O   0  0  0  0  0  0  0  0  0  0  0  0
  -16.0165  -42.2587  -15.7129 C   0  0  0  0  0  0  0  0  0  0  0  0
  -19.4372  -46.1403  -24.5139 C   0  0  0  0  0  0  0  0  0  0  0  0
  -20.0748  -46.3555  -25.5103 C   0  0  0  0  0  0  0  0  0  0  0  0
  -20.8179  -46.6565  -26.7336 C   0  0  0  0  0  0  0  0  0  0  0  0
  -13.2213  -38.9778  -20.7906 O   0  0  0  0  0  0  0  0  0  0  0  0
  -14.0736  -39.9158  -20.3159 C   0  0  0  0  0  0  0  0  0  0  0  0
  -15.1854  -44.2576  -17.1525 C   0  0  0  0  0  0  0  0  0  0  0  0
  -15.0214  -43.3658  -15.9565 C   0  0  2  0  0  0  0  0  0  0  0  0
  -21.9546  -45.8129  -26.8388 O   0  0  0  0  0  0  0  0  0  0  0  0
  -13.6582  -42.0966  -18.2413 O   0  0  0  0  0  0  0  0  0  0  0  0
  -12.3000  -42.3967  -18.5698 C   0  0  0  0  0  0  0  0  0  0  0  0
  -17.1659  -42.1983  -16.1154 O   0  0  0  0  0  0  0  0  0  0  0  0
  -15.0497  -45.4814  -17.0648 O   0  0  0  0  0  0  0  0  0  0  0  0
  -15.3728  -43.0407  -22.6005 O   0  0  0  0  0  0  0  0  0  0  0  0
  -14.3261  -43.8600  -23.1281 C   0  0  0  0  0  0  0  0  0  0  0  0
  -12.7465  -38.7364  -15.2982 O   0  0  0  0  0  0  0  0  0  0  0  0
  -12.8243  -38.5210  -16.7031 C   0  0  0  0  0  0  0  0  0  0  0  0
  -14.6648  -42.3992  -20.4172 C   0  0  0  0  0  0  0  0  0  0  0  0
  -14.5559  -42.7315  -19.0572 C   0  0  0  0  0  0  0  0  0  0  0  0
  -15.3690  -43.7329  -18.5163 C   0  0  0  0  0  0  0  0  0  0  0  0
  -16.2573  -44.4494  -19.3315 C   0  0  0  0  0  0  0  0  0  0  0  0
  -16.3215  -44.2194  -20.7087 C   0  0  0  0  0  0  0  0  0  0  0  0
  -15.4684  -43.2252  -21.2381 C   0  0  0  0  0  0  0  0  0  0  0  0
  -18.4403  -46.8786  -22.3540 C   0  0  0  0  0  0  0  0  0  0  0  0
  -18.7055  -45.9204  -23.3063 C   0  0  0  0  0  0  0  0  0  0  0  0
  -18.0737  -44.4060  -22.8648 S   0  0  0  0  0  0  0  0  0  0  0  0
  -17.2279  -45.0592  -21.5178 C   0  0  0  0  0  0  0  0  0  0  0  0
  -17.5783  -46.3878  -21.3303 C   0  0  0  0  0  0  0  0  0  0  0  0
  -13.5451  -39.8239  -13.3885 C   0  0  0  0  0  0  0  0  0  0  0  0
  -14.3812  -40.7342  -12.7359 C   0  0  0  0  0  0  0  0  0  0  0  0
  -15.3230  -41.4495  -13.4689 C   0  0  0  0  0  0  0  0  0  0  0  0
  -15.4251  -41.2233  -14.8456 C   0  0  0  0  0  0  0  0  0  0  0  0
  -14.6268  -40.2829  -15.4932 C   0  0  0  0  0  0  0  0  0  0  0  0
  -13.6609  -39.6004  -14.7655 C   0  0  0  0  0  0  0  0  0  0  0  0
  -14.2453  -41.0469  -22.0557 H   0  0  0  0  0  0  0  0  0  0  0  0
  -12.8433  -41.4929  -21.0834 H   0  0  0  0  0  0  0  0  0  0  0  0
  -15.9306  -44.5014  -14.7160 H   0  0  0  0  0  0  0  0  0  0  0  0
  -21.1327  -47.7020  -26.7882 H   0  0  0  0  0  0  0  0  0  0  0  0
  -20.1856  -46.4529  -27.5958 H   0  0  0  0  0  0  0  0  0  0  0  0
  -13.4764  -38.1727  -20.2924 H   0  0  0  0  0  0  0  0  0  0  0  0
  -14.0086  -42.9567  -16.0211 H   0  0  0  0  0  0  0  0  0  0  0  0
  -22.7144  -46.3107  -26.4667 H   0  0  0  0  0  0  0  0  0  0  0  0
  -11.7878  -42.6658  -17.6413 H   0  0  0  0  0  0  0  0  0  0  0  0
  -12.2066  -43.2334  -19.2684 H   0  0  0  0  0  0  0  0  0  0  0  0
  -11.8183  -41.5041  -18.9776 H   0  0  0  0  0  0  0  0  0  0  0  0
  -13.3758  -43.6835  -22.6180 H   0  0  0  0  0  0  0  0  0  0  0  0
  -14.6041  -44.9109  -23.0337 H   0  0  0  0  0  0  0  0  0  0  0  0
  -14.2072  -43.6196  -24.1877 H   0  0  0  0  0  0  0  0  0  0  0  0
  -13.7873  -38.0836  -16.9867 H   0  0  0  0  0  0  0  0  0  0  0  0
  -12.0449  -37.8010  -16.9714 H   0  0  0  0  0  0  0  0  0  0  0  0
  -12.6231  -39.4435  -17.2570 H   0  0  0  0  0  0  0  0  0  0  0  0
  -16.8702  -45.2288  -18.8828 H   0  0  0  0  0  0  0  0  0  0  0  0
  -18.7939  -47.9018  -22.4129 H   0  0  0  0  0  0  0  0  0  0  0  0
  -17.2017  -47.0072  -20.5246 H   0  0  0  0  0  0  0  0  0  0  0  0
  -12.7873  -39.2885  -12.8204 H   0  0  0  0  0  0  0  0  0  0  0  0
  -14.2698  -40.9077  -11.6689 H   0  0  0  0  0  0  0  0  0  0  0  0
  -15.9164  -42.2246  -12.9901 H   0  0  0  0  0  0  0  0  0  0  0  0
  -14.7224  -40.1726  -16.5695 H   0  0  0  0  0  0  0  0  0  0  0  0
 12  7  1  0
  7  6  1  0
  6  5  3  0
 10 11  1  0
  4 11  1  0
 11  3  1  0
  1  9  1  0
  2  9  2  0
  9  8  1  0
 13 14  1  0
 15  4  2  0
 16 10  2  0
 17 18  1  0
 20 19  1  0
 21 26  2  0
 21 22  1  0
 21  1  1  0
 22 23  2  0
 23 24  1  0
 23 10  1  0
 24 25  2  0
 25 30  1  0
 25 26  1  0
 27 28  2  0
 27 31  1  0
 28  5  1  0
 28 29  1  0
 29 30  1  0
 30 31  2  0
 32 37  2  0
 32 33  1  0
 33 34  2  0
 34 35  1  0
 35 36  2  0
 36 37  1  0
 37 19  1  0
 13 22  1  0
 17 26  1  0
  4 35  1  0
  1 38  1  0
  1 39  1  0
  3 40  1  0
  7 41  1  0
  7 42  1  0
  8 43  1  0
 11 44  1  6
 12 45  1  0
 14 46  1  0
 14 47  1  0
 14 48  1  0
 18 49  1  0
 18 50  1  0
 18 51  1  0
 20 52  1  0
 20 53  1  0
 20 54  1  0
 24 55  1  0
 27 56  1  0
 31 57  1  0
 32 58  1  0
 33 59  1  0
 34 60  1  0
 36 61  1  0
M  END
>  <smiles>  (604) 
[H]OC(=O)C([H])([H])c1c(OC([H])([H])[H])c(C(=O)[C@]([H])(O[H])C(=O)c2c([H])c([H])c([H])c(OC([H])([H])[H])c2[H])c([H])c(-c2sc(C#CC([H])([H])O[H])c([H])c2[H])c1OC([H])([H])[H]

>  <error>  (604) 


>  <∆∆G>  (604) 
-347.134795

>  <∆G_bound>  (604) 
107.607365

>  <∆G_unbound>  (604) 
454.742159

>  <comRMSD>  (604) 
0.910771

>  <N_constrained_atoms>  (604) 
37.0

>  <N_unconstrained_atoms>  (604) 
0.0

>  <runtime>  (604) 
3.337018

>  <regarded>  (604) 
['5hmy-a', '5k5m-a']

>  <disregarded>  (604) 
[]

>  <LE>  (604) 
9.382021

>  <outcome>  (604) 
acceptable

>  <percent_hybrid>  (604) 
38.0

$$$$

     RDKit          2D

  0  0  0  0  0  0  0  0  0  0999 V2000
M  END
>  <smiles>  (605) 
nan

>  <error>  (605) 
FragmensteinError Ideal compound failed. Something is wrong with the SMILES

>  <∆∆G>  (605) 
nan

>  <∆G_bound>  (605) 
nan

>  <∆G_unbound>  (605) 
nan

>  <comRMSD>  (605) 
nan

>  <N_constrained_atoms>  (605) 
nan

>  <N_unconstrained_atoms>  (605) 
nan

>  <runtime>  (605) 
nan

>  <regarded>  (605) 
[]

>  <disregarded>  (605) 
[]

>  <LE>  (605) 
nan

>  <outcome>  (605) 
crashed

>  <percent_hybrid>  (605) 
nan

$$$$
LIG
     RDKit          3D

 37 38  0  0  0  0  0  0  0  0999 V2000
  -13.0623  -42.4227  -20.9081 C   0  0  0  0  0  0  0  0  0  0  0  0
  -14.0711  -40.1861  -20.6934 O   0  0  0  0  0  0  0  0  0  0  0  0
  -17.6134  -42.3009  -15.3135 O   0  0  0  0  0  0  0  0  0  0  0  0
  -18.4766  -43.0065  -17.2517 O   0  0  0  0  0  0  0  0  0  0  0  0
  -19.3448  -46.1986  -24.4179 C   0  0  0  0  0  0  0  0  0  0  0  0
  -19.9812  -46.3903  -25.4221 C   0  0  0  0  0  0  0  0  0  0  0  0
  -20.7359  -46.6730  -26.6487 C   0  0  0  0  0  0  0  0  0  0  0  0
  -12.0552  -40.3854  -21.5983 O   0  0  0  0  0  0  0  0  0  0  0  0
  -13.1598  -40.9211  -21.0369 C   0  0  0  0  0  0  0  0  0  0  0  0
  -16.0416  -42.9529  -16.9446 C   0  0  0  0  0  0  0  0  0  0  0  0
  -17.4881  -42.7478  -16.5834 C   0  0  0  0  0  0  0  0  0  0  0  0
  -21.8737  -45.8275  -26.7348 O   0  0  0  0  0  0  0  0  0  0  0  0
  -14.2789  -43.0656  -20.2936 C   0  0  0  0  0  0  0  0  0  0  0  0
  -14.5869  -42.8251  -18.9543 C   0  0  0  0  0  0  0  0  0  0  0  0
  -15.7460  -43.3507  -18.3739 C   0  0  0  0  0  0  0  0  0  0  0  0
  -16.5573  -44.2056  -19.1426 C   0  0  0  0  0  0  0  0  0  0  0  0
  -16.2782  -44.4440  -20.4974 C   0  0  0  0  0  0  0  0  0  0  0  0
  -15.1271  -43.8760  -21.0579 C   0  0  0  0  0  0  0  0  0  0  0  0
  -18.4914  -46.9686  -22.2000 C   0  0  0  0  0  0  0  0  0  0  0  0
  -18.6259  -46.0170  -23.1899 C   0  0  0  0  0  0  0  0  0  0  0  0
  -17.8274  -44.5695  -22.7744 S   0  0  0  0  0  0  0  0  0  0  0  0
  -17.1885  -45.2429  -21.3258 C   0  0  0  0  0  0  0  0  0  0  0  0
  -17.6675  -46.5220  -21.1226 C   0  0  0  0  0  0  0  0  0  0  0  0
  -12.9186  -42.8396  -21.9052 H   0  0  0  0  0  0  0  0  0  0  0  0
  -12.1864  -42.6644  -20.2972 H   0  0  0  0  0  0  0  0  0  0  0  0
  -18.5118  -42.6230  -15.0547 H   0  0  0  0  0  0  0  0  0  0  0  0
  -21.0525  -47.7173  -26.7146 H   0  0  0  0  0  0  0  0  0  0  0  0
  -20.1155  -46.4654  -27.5188 H   0  0  0  0  0  0  0  0  0  0  0  0
  -12.2522  -39.4267  -21.6231 H   0  0  0  0  0  0  0  0  0  0  0  0
  -15.5348  -42.0047  -16.7238 H   0  0  0  0  0  0  0  0  0  0  0  0
  -15.6252  -43.7237  -16.2873 H   0  0  0  0  0  0  0  0  0  0  0  0
  -22.6341  -46.3309  -26.3744 H   0  0  0  0  0  0  0  0  0  0  0  0
  -13.9360  -42.1725  -18.3725 H   0  0  0  0  0  0  0  0  0  0  0  0
  -17.4616  -44.6342  -18.7170 H   0  0  0  0  0  0  0  0  0  0  0  0
  -14.8876  -44.0584  -22.1052 H   0  0  0  0  0  0  0  0  0  0  0  0
  -18.9356  -47.9558  -22.2543 H   0  0  0  0  0  0  0  0  0  0  0  0
  -17.4086  -47.1313  -20.2662 H   0  0  0  0  0  0  0  0  0  0  0  0
 12  7  1  0
  7  6  1  0
  6  5  3  0
 10 11  1  0
  4 11  2  0
 11  3  1  0
  1  9  1  0
  2  9  2  0
  9  8  1  0
 13 18  2  0
 13 14  1  0
 13  1  1  0
 14 15  2  0
 15 16  1  0
 15 10  1  0
 16 17  2  0
 17 22  1  0
 17 18  1  0
 19 20  2  0
 19 23  1  0
 20  5  1  0
 20 21  1  0
 21 22  1  0
 22 23  2  0
  1 24  1  0
  1 25  1  0
  3 26  1  0
  7 27  1  0
  7 28  1  0
  8 29  1  0
 10 30  1  0
 10 31  1  0
 12 32  1  0
 14 33  1  0
 16 34  1  0
 18 35  1  0
 19 36  1  0
 23 37  1  0
M  END
>  <smiles>  (606) 
[H]OC(=O)C([H])([H])c1c([H])c(-c2sc(C#CC([H])([H])O[H])c([H])c2[H])c([H])c(C([H])([H])C(=O)O[H])c1[H]

>  <error>  (606) 


>  <∆∆G>  (606) 
-45.787997

>  <∆G_bound>  (606) 
-1.430154

>  <∆G_unbound>  (606) 
44.357843

>  <comRMSD>  (606) 
0.987439

>  <N_constrained_atoms>  (606) 
23.0

>  <N_unconstrained_atoms>  (606) 
0.0

>  <runtime>  (606) 
1.81886

>  <regarded>  (606) 
['5hmy-a', '5hmw-b']

>  <disregarded>  (606) 
[]

>  <LE>  (606) 
1.990782

>  <outcome>  (606) 
equally sized

>  <percent_hybrid>  (606) 
0.0

$$$$
LIG
     RDKit          3D

 41 42  0  0  0  0  0  0  0  0999 V2000
  -13.0617  -42.4101  -20.9247 C   0  0  0  0  0  0  0  0  0  0  0  0
  -14.1930  -40.2749  -21.3771 O   0  0  0  0  0  0  0  0  0  0  0  0
  -17.6605  -42.3068  -15.3628 O   0  0  0  0  0  0  0  0  0  0  0  0
  -18.5532  -43.0316  -17.2808 O   0  0  0  0  0  0  0  0  0  0  0  0
  -19.3982  -46.2277  -24.4668 C   0  0  0  0  0  0  0  0  0  0  0  0
  -20.0227  -46.4175  -25.4774 C   0  0  0  0  0  0  0  0  0  0  0  0
  -20.7680  -46.6892  -26.7082 C   0  0  0  0  0  0  0  0  0  0  0  0
  -11.9811  -40.3684  -21.4970 O   0  0  0  0  0  0  0  0  0  0  0  0
  -13.1800  -40.9475  -21.2727 C   0  0  0  0  0  0  0  0  0  0  0  0
  -16.1150  -42.8871  -17.0432 C   0  0  0  0  0  0  0  0  0  0  0  0
  -17.5563  -42.7400  -16.6394 C   0  0  0  0  0  0  0  0  0  0  0  0
  -21.9012  -45.8374  -26.7968 O   0  0  0  0  0  0  0  0  0  0  0  0
  -14.9078  -44.0688  -22.4919 O   0  0  0  0  0  0  0  0  0  0  0  0
  -15.1008  -42.9708  -23.3843 C   0  0  0  0  0  0  0  0  0  0  0  0
  -14.3444  -42.9994  -20.3990 C   0  0  0  0  0  0  0  0  0  0  0  0
  -14.6703  -42.7520  -19.0592 C   0  0  0  0  0  0  0  0  0  0  0  0
  -15.8357  -43.2635  -18.4812 C   0  0  0  0  0  0  0  0  0  0  0  0
  -16.6461  -44.1095  -19.2545 C   0  0  0  0  0  0  0  0  0  0  0  0
  -16.3678  -44.3463  -20.6135 C   0  0  0  0  0  0  0  0  0  0  0  0
  -15.2187  -43.7649  -21.1870 C   0  0  0  0  0  0  0  0  0  0  0  0
  -18.4647  -46.9897  -22.2764 C   0  0  0  0  0  0  0  0  0  0  0  0
  -18.7035  -46.0246  -23.2322 C   0  0  0  0  0  0  0  0  0  0  0  0
  -18.1093  -44.5079  -22.7450 S   0  0  0  0  0  0  0  0  0  0  0  0
  -17.2826  -45.1843  -21.3994 C   0  0  0  0  0  0  0  0  0  0  0  0
  -17.6389  -46.5064  -21.2163 C   0  0  0  0  0  0  0  0  0  0  0  0
  -12.7467  -42.9597  -21.8070 H   0  0  0  0  0  0  0  0  0  0  0  0
  -12.2773  -42.5280  -20.1675 H   0  0  0  0  0  0  0  0  0  0  0  0
  -18.5349  -42.6708  -15.0747 H   0  0  0  0  0  0  0  0  0  0  0  0
  -21.0901  -47.7312  -26.7814 H   0  0  0  0  0  0  0  0  0  0  0  0
  -20.1373  -46.4748  -27.5688 H   0  0  0  0  0  0  0  0  0  0  0  0
  -12.2195  -39.4408  -21.7007 H   0  0  0  0  0  0  0  0  0  0  0  0
  -15.6382  -41.9218  -16.8291 H   0  0  0  0  0  0  0  0  0  0  0  0
  -15.6556  -43.6478  -16.4020 H   0  0  0  0  0  0  0  0  0  0  0  0
  -22.6607  -46.3326  -26.4223 H   0  0  0  0  0  0  0  0  0  0  0  0
  -15.8237  -42.2366  -23.0105 H   0  0  0  0  0  0  0  0  0  0  0  0
  -14.1496  -42.4790  -23.5893 H   0  0  0  0  0  0  0  0  0  0  0  0
  -15.4744  -43.3699  -24.3325 H   0  0  0  0  0  0  0  0  0  0  0  0
  -14.0040  -42.1283  -18.4625 H   0  0  0  0  0  0  0  0  0  0  0  0
  -17.5438  -44.5525  -18.8288 H   0  0  0  0  0  0  0  0  0  0  0  0
  -18.8104  -48.0134  -22.3576 H   0  0  0  0  0  0  0  0  0  0  0  0
  -17.2743  -47.1222  -20.4039 H   0  0  0  0  0  0  0  0  0  0  0  0
 12  7  1  0
  7  6  1  0
  6  5  3  0
 10 11  1  0
  4 11  2  0
 11  3  1  0
  1  9  1  0
  2  9  2  0
  9  8  1  0
 13 14  1  0
 15 20  2  0
 15 16  1  0
 15  1  1  0
 16 17  2  0
 17 18  1  0
 17 10  1  0
 18 19  2  0
 19 24  1  0
 19 20  1  0
 21 22  2  0
 21 25  1  0
 22  5  1  0
 22 23  1  0
 23 24  1  0
 24 25  2  0
 13 20  1  0
  1 26  1  0
  1 27  1  0
  3 28  1  0
  7 29  1  0
  7 30  1  0
  8 31  1  0
 10 32  1  0
 10 33  1  0
 12 34  1  0
 14 35  1  0
 14 36  1  0
 14 37  1  0
 16 38  1  0
 18 39  1  0
 21 40  1  0
 25 41  1  0
M  END
>  <smiles>  (607) 
[H]OC(=O)C([H])([H])c1c([H])c(-c2sc(C#CC([H])([H])O[H])c([H])c2[H])c(OC([H])([H])[H])c(C([H])([H])C(=O)O[H])c1[H]

>  <error>  (607) 


>  <∆∆G>  (607) 
-189.927849

>  <∆G_bound>  (607) 
6.038847

>  <∆G_unbound>  (607) 
195.966697

>  <comRMSD>  (607) 
0.990615

>  <N_constrained_atoms>  (607) 
25.0

>  <N_unconstrained_atoms>  (607) 
0.0

>  <runtime>  (607) 
1.520741

>  <regarded>  (607) 
['5hmy-a', '5f3z-a']

>  <disregarded>  (607) 
[]

>  <LE>  (607) 
7.597114

>  <outcome>  (607) 
acceptable

>  <percent_hybrid>  (607) 
8.0

$$$$
LIG
     RDKit          3D

 41 42  0  0  0  0  0  0  0  0999 V2000
  -13.5171  -41.4865  -21.1469 C   0  0  0  0  0  0  0  0  0  0  0  0
  -14.3466  -39.5737  -19.8309 O   0  0  0  0  0  0  0  0  0  0  0  0
  -17.0707  -42.4988  -15.2690 O   0  0  0  0  0  0  0  0  0  0  0  0
  -18.0800  -43.0712  -17.1786 O   0  0  0  0  0  0  0  0  0  0  0  0
  -19.4015  -46.1422  -24.4585 C   0  0  0  0  0  0  0  0  0  0  0  0
  -20.0300  -46.3656  -25.4601 C   0  0  0  0  0  0  0  0  0  0  0  0
  -20.7693  -46.6712  -26.6879 C   0  0  0  0  0  0  0  0  0  0  0  0
  -12.7185  -39.2560  -21.3054 O   0  0  0  0  0  0  0  0  0  0  0  0
  -13.6122  -40.0551  -20.6771 C   0  0  0  0  0  0  0  0  0  0  0  0
  -15.6465  -43.2923  -16.9938 C   0  0  0  0  0  0  0  0  0  0  0  0
  -17.0435  -42.9315  -16.5467 C   0  0  0  0  0  0  0  0  0  0  0  0
  -21.9090  -45.8316  -26.7995 O   0  0  0  0  0  0  0  0  0  0  0  0
  -15.3616  -43.0523  -22.6428 O   0  0  0  0  0  0  0  0  0  0  0  0
  -14.4533  -43.9545  -23.2600 C   0  0  0  0  0  0  0  0  0  0  0  0
  -14.5089  -42.4421  -20.5117 C   0  0  0  0  0  0  0  0  0  0  0  0
  -14.5610  -42.5506  -19.1190 C   0  0  0  0  0  0  0  0  0  0  0  0
  -15.4962  -43.3791  -18.4941 C   0  0  0  0  0  0  0  0  0  0  0  0
  -16.3158  -44.2076  -19.2825 C   0  0  0  0  0  0  0  0  0  0  0  0
  -16.2927  -44.1395  -20.6860 C   0  0  0  0  0  0  0  0  0  0  0  0
  -15.3763  -43.2423  -21.2815 C   0  0  0  0  0  0  0  0  0  0  0  0
  -18.4095  -46.8415  -22.2743 C   0  0  0  0  0  0  0  0  0  0  0  0
  -18.6847  -45.9005  -23.2426 C   0  0  0  0  0  0  0  0  0  0  0  0
  -18.0898  -44.3683  -22.8054 S   0  0  0  0  0  0  0  0  0  0  0  0
  -17.2193  -44.9963  -21.4590 C   0  0  0  0  0  0  0  0  0  0  0  0
  -17.5610  -46.3231  -21.2483 C   0  0  0  0  0  0  0  0  0  0  0  0
  -13.6453  -41.4546  -22.2327 H   0  0  0  0  0  0  0  0  0  0  0  0
  -12.5062  -41.8543  -20.9347 H   0  0  0  0  0  0  0  0  0  0  0  0
  -18.0167  -42.6276  -15.0158 H   0  0  0  0  0  0  0  0  0  0  0  0
  -21.0810  -47.7176  -26.7416 H   0  0  0  0  0  0  0  0  0  0  0  0
  -20.1375  -46.4712  -27.5515 H   0  0  0  0  0  0  0  0  0  0  0  0
  -12.8917  -38.3810  -20.8989 H   0  0  0  0  0  0  0  0  0  0  0  0
  -14.9646  -42.5319  -16.5938 H   0  0  0  0  0  0  0  0  0  0  0  0
  -15.3627  -44.2529  -16.5539 H   0  0  0  0  0  0  0  0  0  0  0  0
  -22.6678  -46.3268  -26.4237 H   0  0  0  0  0  0  0  0  0  0  0  0
  -14.3377  -43.6581  -24.3057 H   0  0  0  0  0  0  0  0  0  0  0  0
  -13.4668  -43.9456  -22.7868 H   0  0  0  0  0  0  0  0  0  0  0  0
  -14.8707  -44.9614  -23.2260 H   0  0  0  0  0  0  0  0  0  0  0  0
  -13.9074  -41.9228  -18.5136 H   0  0  0  0  0  0  0  0  0  0  0  0
  -17.0477  -44.8507  -18.7980 H   0  0  0  0  0  0  0  0  0  0  0  0
  -18.7454  -47.8710  -22.3233 H   0  0  0  0  0  0  0  0  0  0  0  0
  -17.1758  -46.9214  -20.4321 H   0  0  0  0  0  0  0  0  0  0  0  0
 12  7  1  0
  7  6  1  0
  6  5  3  0
 10 11  1  0
  4 11  2  0
 11  3  1  0
  1  9  1  0
  2  9  2  0
  9  8  1  0
 13 14  1  0
 15 20  2  0
 15 16  1  0
 15  1  1  0
 16 17  2  0
 17 18  1  0
 17 10  1  0
 18 19  2  0
 19 24  1  0
 19 20  1  0
 21 22  2  0
 21 25  1  0
 22  5  1  0
 22 23  1  0
 23 24  1  0
 24 25  2  0
 13 20  1  0
  1 26  1  0
  1 27  1  0
  3 28  1  0
  7 29  1  0
  7 30  1  0
  8 31  1  0
 10 32  1  0
 10 33  1  0
 12 34  1  0
 14 35  1  0
 14 36  1  0
 14 37  1  0
 16 38  1  0
 18 39  1  0
 21 40  1  0
 25 41  1  0
M  END
>  <smiles>  (608) 
[H]OC(=O)C([H])([H])c1c([H])c(-c2sc(C#CC([H])([H])O[H])c([H])c2[H])c(OC([H])([H])[H])c(C([H])([H])C(=O)O[H])c1[H]

>  <error>  (608) 


>  <∆∆G>  (608) 
-190.175435

>  <∆G_bound>  (608) 
5.791262

>  <∆G_unbound>  (608) 
195.966697

>  <comRMSD>  (608) 
0.889842

>  <N_constrained_atoms>  (608) 
25.0

>  <N_unconstrained_atoms>  (608) 
0.0

>  <runtime>  (608) 
2.286372

>  <regarded>  (608) 
['5hmy-a', '6h9r-a']

>  <disregarded>  (608) 
[]

>  <LE>  (608) 
7.607017

>  <outcome>  (608) 
acceptable

>  <percent_hybrid>  (608) 
8.0

$$$$
LIG
     RDKit          3D

 41 42  0  0  0  0  0  0  0  0999 V2000
  -13.5905  -41.3838  -21.0960 C   0  0  0  0  0  0  0  0  0  0  0  0
  -13.6988  -39.4453  -22.5495 O   0  0  0  0  0  0  0  0  0  0  0  0
  -17.1754  -42.4740  -15.3044 O   0  0  0  0  0  0  0  0  0  0  0  0
  -18.1515  -43.1136  -17.2113 O   0  0  0  0  0  0  0  0  0  0  0  0
  -19.4053  -46.1281  -24.4649 C   0  0  0  0  0  0  0  0  0  0  0  0
  -20.0379  -46.3539  -25.4633 C   0  0  0  0  0  0  0  0  0  0  0  0
  -20.7781  -46.6631  -26.6895 C   0  0  0  0  0  0  0  0  0  0  0  0
  -15.4530  -39.8616  -21.2488 O   0  0  0  0  0  0  0  0  0  0  0  0
  -14.2341  -40.1759  -21.7260 C   0  0  0  0  0  0  0  0  0  0  0  0
  -15.7168  -43.2664  -16.9988 C   0  0  0  0  0  0  0  0  0  0  0  0
  -17.1256  -42.9330  -16.5722 C   0  0  0  0  0  0  0  0  0  0  0  0
  -21.9194  -45.8258  -26.8008 O   0  0  0  0  0  0  0  0  0  0  0  0
  -15.3156  -43.0075  -22.6462 O   0  0  0  0  0  0  0  0  0  0  0  0
  -14.4467  -43.9396  -23.2786 C   0  0  0  0  0  0  0  0  0  0  0  0
  -14.5386  -42.3973  -20.4936 C   0  0  0  0  0  0  0  0  0  0  0  0
  -14.6297  -42.4818  -19.1027 C   0  0  0  0  0  0  0  0  0  0  0  0
  -15.5423  -43.3444  -18.4958 C   0  0  0  0  0  0  0  0  0  0  0  0
  -16.3197  -44.1976  -19.3011 C   0  0  0  0  0  0  0  0  0  0  0  0
  -16.2732  -44.1305  -20.7068 C   0  0  0  0  0  0  0  0  0  0  0  0
  -15.3630  -43.2190  -21.2878 C   0  0  0  0  0  0  0  0  0  0  0  0
  -18.4010  -46.8283  -22.2881 C   0  0  0  0  0  0  0  0  0  0  0  0
  -18.6775  -45.8871  -23.2557 C   0  0  0  0  0  0  0  0  0  0  0  0
  -18.0624  -44.3591  -22.8306 S   0  0  0  0  0  0  0  0  0  0  0  0
  -17.1924  -44.9893  -21.4852 C   0  0  0  0  0  0  0  0  0  0  0  0
  -17.5393  -46.3143  -21.2713 C   0  0  0  0  0  0  0  0  0  0  0  0
  -12.9798  -41.8850  -21.8479 H   0  0  0  0  0  0  0  0  0  0  0  0
  -12.8971  -41.0139  -20.3309 H   0  0  0  0  0  0  0  0  0  0  0  0
  -18.1137  -42.6470  -15.0459 H   0  0  0  0  0  0  0  0  0  0  0  0
  -21.0875  -47.7103  -26.7412 H   0  0  0  0  0  0  0  0  0  0  0  0
  -20.1476  -46.4632  -27.5541 H   0  0  0  0  0  0  0  0  0  0  0  0
  -15.7364  -39.0984  -21.7911 H   0  0  0  0  0  0  0  0  0  0  0  0
  -15.0538  -42.4967  -16.5850 H   0  0  0  0  0  0  0  0  0  0  0  0
  -15.4214  -44.2229  -16.5579 H   0  0  0  0  0  0  0  0  0  0  0  0
  -22.6782  -46.3250  -26.4301 H   0  0  0  0  0  0  0  0  0  0  0  0
  -14.9482  -44.9053  -23.3463 H   0  0  0  0  0  0  0  0  0  0  0  0
  -14.2422  -43.5813  -24.2909 H   0  0  0  0  0  0  0  0  0  0  0  0
  -13.4944  -44.0509  -22.7507 H   0  0  0  0  0  0  0  0  0  0  0  0
  -14.0199  -41.8190  -18.4899 H   0  0  0  0  0  0  0  0  0  0  0  0
  -17.0445  -44.8581  -18.8290 H   0  0  0  0  0  0  0  0  0  0  0  0
  -18.7455  -47.8552  -22.3317 H   0  0  0  0  0  0  0  0  0  0  0  0
  -17.1544  -46.9130  -20.4552 H   0  0  0  0  0  0  0  0  0  0  0  0
 12  7  1  0
  7  6  1  0
  6  5  3  0
 10 11  1  0
  4 11  2  0
 11  3  1  0
  1  9  1  0
  2  9  2  0
  9  8  1  0
 13 14  1  0
 15 20  2  0
 15 16  1  0
 15  1  1  0
 16 17  2  0
 17 18  1  0
 17 10  1  0
 18 19  2  0
 19 24  1  0
 19 20  1  0
 21 22  2  0
 21 25  1  0
 22  5  1  0
 22 23  1  0
 23 24  1  0
 24 25  2  0
 13 20  1  0
  1 26  1  0
  1 27  1  0
  3 28  1  0
  7 29  1  0
  7 30  1  0
  8 31  1  0
 10 32  1  0
 10 33  1  0
 12 34  1  0
 14 35  1  0
 14 36  1  0
 14 37  1  0
 16 38  1  0
 18 39  1  0
 21 40  1  0
 25 41  1  0
M  END
>  <smiles>  (609) 
[H]OC(=O)C([H])([H])c1c([H])c(-c2sc(C#CC([H])([H])O[H])c([H])c2[H])c(OC([H])([H])[H])c(C([H])([H])C(=O)O[H])c1[H]

>  <error>  (609) 


>  <∆∆G>  (609) 
-190.165086

>  <∆G_bound>  (609) 
5.801611

>  <∆G_unbound>  (609) 
195.966697

>  <comRMSD>  (609) 
1.030872

>  <N_constrained_atoms>  (609) 
25.0

>  <N_unconstrained_atoms>  (609) 
0.0

>  <runtime>  (609) 
2.260202

>  <regarded>  (609) 
['5hmy-a', '5f3t-a']

>  <disregarded>  (609) 
[]

>  <LE>  (609) 
7.606603

>  <outcome>  (609) 
too moved

>  <percent_hybrid>  (609) 
8.0

$$$$

     RDKit          2D

  0  0  0  0  0  0  0  0  0  0999 V2000
M  END
>  <smiles>  (610) 
nan

>  <error>  (610) 
DistanceError 7.35 Å

>  <∆∆G>  (610) 
nan

>  <∆G_bound>  (610) 
nan

>  <∆G_unbound>  (610) 
nan

>  <comRMSD>  (610) 
nan

>  <N_constrained_atoms>  (610) 
nan

>  <N_unconstrained_atoms>  (610) 
nan

>  <runtime>  (610) 
nan

>  <regarded>  (610) 
[]

>  <disregarded>  (610) 
[]

>  <LE>  (610) 
nan

>  <outcome>  (610) 
too distant

>  <percent_hybrid>  (610) 
nan

$$$$
LIG
     RDKit          3D

 29 30  0  0  0  0  0  0  0  0999 V2000
  -20.1852  -41.8245  -23.5259 O   0  0  0  0  0  0  0  0  0  0  0  0
  -19.1614  -41.6146  -22.8901 C   0  0  0  0  0  0  0  0  0  0  0  0
  -19.0313  -40.5458  -22.0737 O   0  0  0  0  0  0  0  0  0  0  0  0
  -15.5916  -41.0084  -23.1050 C   0  0  0  0  0  0  0  0  0  0  0  0
  -16.6195  -41.6328  -23.8189 C   0  0  0  0  0  0  0  0  0  0  0  0
  -17.7753  -42.6891  -22.9764 S   0  0  0  0  0  0  0  0  0  0  0  0
  -15.8271  -40.4888  -25.7984 C   0  0  0  0  0  0  0  0  0  0  0  0
  -16.7198  -41.3477  -25.1681 C   0  0  0  0  0  0  0  0  0  0  0  0
  -14.6763  -40.1363  -23.7309 C   0  0  0  0  0  0  0  0  0  0  0  0
  -14.8010  -39.8919  -25.1015 C   0  0  0  0  0  0  0  0  0  0  0  0
  -12.6778  -40.6053  -21.3120 C   0  0  0  0  0  0  0  0  0  0  0  0
  -13.6151  -39.5321  -21.6247 N   0  0  0  0  0  0  0  0  0  0  0  0
  -13.7362  -39.3750  -23.0060 N   0  0  0  0  0  0  0  0  0  0  0  0
  -16.1766  -40.3575  -27.2388 C   0  0  0  0  0  0  0  0  0  0  0  0
  -17.5325  -40.9465  -27.3549 N   0  0  0  0  0  0  0  0  0  0  0  0
  -17.6753  -41.8531  -26.1852 C   0  0  0  0  0  0  0  0  0  0  0  0
  -18.1375  -40.5720  -21.6791 H   0  0  0  0  0  0  0  0  0  0  0  0
  -15.4981  -41.1864  -22.0365 H   0  0  0  0  0  0  0  0  0  0  0  0
  -14.1243  -39.2279  -25.6225 H   0  0  0  0  0  0  0  0  0  0  0  0
  -11.6788  -40.3760  -21.6922 H   0  0  0  0  0  0  0  0  0  0  0  0
  -12.6022  -40.7108  -20.2251 H   0  0  0  0  0  0  0  0  0  0  0  0
  -13.0067  -41.5710  -21.7062 H   0  0  0  0  0  0  0  0  0  0  0  0
  -13.2841  -38.6656  -21.1920 H   0  0  0  0  0  0  0  0  0  0  0  0
  -12.9033  -39.1442  -23.5408 H   0  0  0  0  0  0  0  0  0  0  0  0
  -15.4783  -40.9212  -27.8598 H   0  0  0  0  0  0  0  0  0  0  0  0
  -16.1976  -39.3116  -27.5573 H   0  0  0  0  0  0  0  0  0  0  0  0
  -18.1867  -40.1774  -27.1980 H   0  0  0  0  0  0  0  0  0  0  0  0
  -18.7131  -41.8439  -25.8439 H   0  0  0  0  0  0  0  0  0  0  0  0
  -17.3873  -42.8691  -26.4645 H   0  0  0  0  0  0  0  0  0  0  0  0
  2  3  1  0
  2  1  2  0
  2  6  1  0
  4  9  2  0
  4  5  1  0
  5  6  1  0
  5  8  2  0
  7 10  2  0
  7  8  1  0
  9 10  1  0
 11 12  1  0
 12 13  1  0
 14 15  1  0
 15 16  1  0
  7 14  1  0
  8 16  1  0
  9 13  1  0
  3 17  1  0
  4 18  1  0
 10 19  1  0
 11 20  1  0
 11 21  1  0
 11 22  1  0
 12 23  1  0
 13 24  1  0
 14 25  1  0
 14 26  1  0
 15 27  1  0
 16 28  1  0
 16 29  1  0
M  END
>  <smiles>  (611) 
[H]OC(=O)Sc1c([H])c(N([H])N([H])C([H])([H])[H])c([H])c2c1C([H])([H])N([H])C2([H])[H]

>  <error>  (611) 


>  <∆∆G>  (611) 
-64.333149

>  <∆G_bound>  (611) 
293.879673

>  <∆G_unbound>  (611) 
358.212822

>  <comRMSD>  (611) 
2.255489

>  <N_constrained_atoms>  (611) 
16.0

>  <N_unconstrained_atoms>  (611) 
0.0

>  <runtime>  (611) 
1.291897

>  <regarded>  (611) 
['6izx-a', 'd0160a']

>  <disregarded>  (611) 
[]

>  <LE>  (611) 
4.020822

>  <outcome>  (611) 
too moved

>  <percent_hybrid>  (611) 
38.0

$$$$

     RDKit          2D

  0  0  0  0  0  0  0  0  0  0999 V2000
M  END
>  <smiles>  (612) 
nan

>  <error>  (612) 
FragmensteinError Ideal compound failed. Something is wrong with the SMILES

>  <∆∆G>  (612) 
nan

>  <∆G_bound>  (612) 
nan

>  <∆G_unbound>  (612) 
nan

>  <comRMSD>  (612) 
nan

>  <N_constrained_atoms>  (612) 
nan

>  <N_unconstrained_atoms>  (612) 
nan

>  <runtime>  (612) 
nan

>  <regarded>  (612) 
[]

>  <disregarded>  (612) 
[]

>  <LE>  (612) 
nan

>  <outcome>  (612) 
crashed

>  <percent_hybrid>  (612) 
nan

$$$$
LIG
     RDKit          3D

 34 36  0  0  0  0  0  0  0  0999 V2000
  -16.6437  -36.3570  -26.5794 C   0  0  0  0  0  0  0  0  0  0  0  0
  -16.9321  -37.7823  -26.2067 C   0  0  0  0  0  0  0  0  0  0  0  0
  -17.9546  -38.3830  -26.5062 O   0  0  0  0  0  0  0  0  0  0  0  0
  -15.8470  -38.2640  -25.4778 O   0  0  0  0  0  0  0  0  0  0  0  0
  -16.3796  -44.7638  -22.2000 N   0  0  0  0  0  0  0  0  0  0  0  0
  -18.3446  -45.5688  -23.1489 O   0  0  0  0  0  0  0  0  0  0  0  0
  -17.5195  -45.5206  -22.2392 C   0  0  0  0  0  0  0  0  0  0  0  0
  -16.1641  -43.7859  -23.0071 C   0  0  0  0  0  0  0  0  0  0  0  0
  -15.0373  -43.0148  -22.7501 O   0  0  0  0  0  0  0  0  0  0  0  0
  -15.1784  -41.8493  -23.4914 C   0  0  0  0  0  0  0  0  0  0  0  0
  -16.2239  -41.7787  -24.4076 C   0  0  0  0  0  0  0  0  0  0  0  0
  -17.1640  -43.2451  -24.3539 S   0  0  0  0  0  0  0  0  0  0  0  0
  -15.6710  -39.5325  -24.8826 C   0  0  0  0  0  0  0  0  0  0  0  0
  -16.4817  -40.6298  -25.1342 C   0  0  0  0  0  0  0  0  0  0  0  0
  -14.3509  -40.7706  -23.2622 C   0  0  0  0  0  0  0  0  0  0  0  0
  -14.6055  -39.6016  -23.9682 C   0  0  0  0  0  0  0  0  0  0  0  0
  -16.6250  -46.3234  -20.0461 O   0  0  0  0  0  0  0  0  0  0  0  0
  -16.8574  -45.3078  -19.0704 C   0  0  0  0  0  0  0  0  0  0  0  0
  -18.3410  -45.3779  -18.8070 C   0  0  0  0  0  0  0  0  0  0  0  0
  -18.9157  -45.6868  -20.1692 C   0  0  0  0  0  0  0  0  0  0  0  0
  -17.7551  -46.3150  -20.9374 C   0  0  1  0  0  0  0  0  0  0  0  0
  -16.1467  -35.8416  -25.7526 H   0  0  0  0  0  0  0  0  0  0  0  0
  -16.0174  -36.3287  -27.4737 H   0  0  0  0  0  0  0  0  0  0  0  0
  -17.5865  -35.8351  -26.7631 H   0  0  0  0  0  0  0  0  0  0  0  0
  -17.3108  -40.5905  -25.8293 H   0  0  0  0  0  0  0  0  0  0  0  0
  -13.5503  -40.8237  -22.5319 H   0  0  0  0  0  0  0  0  0  0  0  0
  -13.9856  -38.7351  -23.7769 H   0  0  0  0  0  0  0  0  0  0  0  0
  -16.2465  -45.5051  -18.1874 H   0  0  0  0  0  0  0  0  0  0  0  0
  -16.5657  -44.3357  -19.4827 H   0  0  0  0  0  0  0  0  0  0  0  0
  -18.5678  -46.2100  -18.1324 H   0  0  0  0  0  0  0  0  0  0  0  0
  -18.7403  -44.4614  -18.3655 H   0  0  0  0  0  0  0  0  0  0  0  0
  -19.7633  -46.3751  -20.0937 H   0  0  0  0  0  0  0  0  0  0  0  0
  -19.2876  -44.7740  -20.6488 H   0  0  0  0  0  0  0  0  0  0  0  0
  -17.9634  -47.3526  -21.2188 H   0  0  0  0  0  0  0  0  0  0  0  0
  4  2  1  0
  2  3  2  0
  2  1  1  0
  7  6  2  0
  7  5  1  0
  8  9  1  0
  8  5  2  0
  8 12  1  0
  9 10  1  0
 10 15  2  0
 10 11  1  0
 11 12  1  0
 11 14  2  0
 13 16  2  0
 13 14  1  0
 13  4  1  0
 15 16  1  0
 17 18  1  0
 17 21  1  0
 18 19  1  0
 19 20  1  0
 20 21  1  0
 21  7  1  0
  1 22  1  0
  1 23  1  0
  1 24  1  0
 14 25  1  0
 15 26  1  0
 16 27  1  0
 18 28  1  0
 18 29  1  0
 19 30  1  0
 19 31  1  0
 20 32  1  0
 20 33  1  0
 21 34  1  6
M  END
>  <smiles>  (613) 
[H]c1c(OC(=O)C([H])([H])[H])c([H])c2s/c(=N\C(=O)[C@@]3([H])OC([H])([H])C([H])([H])C3([H])[H])oc2c1[H]

>  <error>  (613) 


>  <∆∆G>  (613) 
-103.410255

>  <∆G_bound>  (613) 
209.745208

>  <∆G_unbound>  (613) 
313.155463

>  <comRMSD>  (613) 
1.136018

>  <N_constrained_atoms>  (613) 
21.0

>  <N_unconstrained_atoms>  (613) 
0.0

>  <runtime>  (613) 
1.75403

>  <regarded>  (613) 
['6izx-a', 'd0254a']

>  <disregarded>  (613) 
[]

>  <LE>  (613) 
4.924298

>  <outcome>  (613) 
too moved

>  <percent_hybrid>  (613) 
34.0

$$$$
LIG
     RDKit          3D

  0  0  0  0  0  0  0  0  0  0999 V3000
M  V30 BEGIN CTAB
M  V30 COUNTS 55 57 0 0 0
M  V30 BEGIN ATOM
M  V30 1 C -18.292999 -38.539001 -26.643999 0
M  V30 2 C -17.152000 -39.429001 -27.195000 0
M  V30 3 O -17.379000 -40.272999 -28.011999 0
M  V30 4 O -15.821000 -39.264000 -26.753000 0
M  V30 5 N -16.072001 -44.653999 -21.667000 0
M  V30 6 C -15.751000 -43.828999 -22.466999 0
M  V30 7 O -14.571000 -42.931999 -22.371000 0
M  V30 8 C -14.705000 -41.751999 -23.525999 0
M  V30 9 C -15.849000 -42.087002 -24.396000 0
M  V30 10 S -16.513000 -43.477001 -23.871000 0
M  V30 11 C -15.449000 -40.089001 -25.684000 0
M  V30 12 C -16.188999 -41.264000 -25.438000 0
M  V30 13 C -13.980000 -40.595001 -23.754999 0
M  V30 14 C -14.332000 -39.752998 -24.834999 0
M  V30 15 O -23.164000 -45.938000 -18.049000 0
M  V30 16 C -22.246000 -46.016998 -17.236000 0
M  V30 17 C -22.204000 -47.136002 -16.188999 0
M  V30 18 C -23.259001 -46.889000 -15.112000 0
M  V30 19 C -22.391001 -48.480999 -16.875999 0
M  V30 20 N -21.222000 -45.154999 -17.212000 0
M  V30 21 C -21.018999 -44.181000 -18.270000 0 CFG=1
M  V30 22 C -20.471001 -42.877998 -17.697001 0
M  V30 23 C -20.379999 -43.105999 -21.250999 0
M  V30 24 C -17.607000 -47.167999 -21.084000 0
M  V30 25 C -20.124001 -44.757999 -19.327999 0
M  V30 26 S -19.247999 -46.223999 -19.002001 0
M  V30 27 C -18.566000 -46.140999 -20.593000 0
M  V30 28 N -18.959000 -45.118000 -21.297001 0
M  V30 29 C -19.841000 -44.330002 -20.590000 0
M  V30 30 C -16.839500 -45.910999 -21.375500 0
M  V30 31 H -18.272194 -38.555229 -25.544315 0
M  V30 32 H -18.156292 -37.506573 -26.998123 0
M  V30 33 H -19.261084 -38.922939 -26.998123 0
M  V30 34 H -17.041410 -41.520733 -26.084129 0
M  V30 35 H -13.135477 -40.332432 -23.100904 0
M  V30 36 H -13.752116 -38.838520 -25.028555 0
M  V30 37 H -21.224400 -47.145100 -15.688701 0
M  V30 38 H -22.800341 -46.996384 -14.117969 0
M  V30 39 H -23.663401 -45.871887 -15.221285 0
M  V30 40 H -24.072884 -47.620884 -15.221285 0
M  V30 41 H -22.500528 -49.268772 -16.116119 0
M  V30 42 H -23.293409 -48.449520 -17.504227 0
M  V30 43 H -21.514233 -48.696888 -17.504227 0
M  V30 44 H -20.560917 -45.183292 -16.422653 0
M  V30 45 H -21.983677 -43.943588 -18.742264 0
M  V30 46 H -20.490307 -42.923904 -16.598129 0
M  V30 47 H -19.435837 -42.733383 -18.039818 0
M  V30 48 H -21.091650 -42.037003 -18.039818 0
M  V30 49 H -20.697660 -42.384628 -20.483721 0
M  V30 50 H -19.597904 -42.653469 -21.878328 0
M  V30 51 H -21.241858 -43.377396 -21.878328 0
M  V30 52 H -17.177290 -47.838009 -20.324764 0
M  V30 53 H -17.831579 -47.968567 -21.804178 0
M  V30 54 H -15.809501 -44.881001 -20.345499 0
M  V30 55 H -15.799500 -44.870998 -20.335499 0
M  V30 END ATOM
M  V30 BEGIN BOND
M  V30 1 1 4 2
M  V30 2 2 2 3
M  V30 3 1 2 1
M  V30 4 1 6 7
M  V30 5 2 6 5
M  V30 6 1 6 10
M  V30 7 1 7 8
M  V30 8 2 8 13
M  V30 9 1 8 9
M  V30 10 1 9 10
M  V30 11 2 9 12
M  V30 12 2 11 14
M  V30 13 1 11 12
M  V30 14 1 11 4
M  V30 15 1 13 14
M  V30 16 1 19 17
M  V30 17 1 18 17
M  V30 18 1 17 16
M  V30 19 2 16 15
M  V30 20 1 20 16
M  V30 21 1 21 20
M  V30 22 1 21 22
M  V30 23 1 25 21
M  V30 24 1 25 26
M  V30 25 2 25 29
M  V30 26 1 26 27
M  V30 27 1 27 24
M  V30 28 2 27 28
M  V30 29 1 28 29
M  V30 30 1 29 23
M  V30 31 1 30 5
M  V30 32 1 30 24
M  V30 33 1 1 31
M  V30 34 1 1 32
M  V30 35 1 1 33
M  V30 36 1 12 34
M  V30 37 1 13 35
M  V30 38 1 14 36
M  V30 39 1 17 37
M  V30 40 1 18 38
M  V30 41 1 18 39
M  V30 42 1 18 40
M  V30 43 1 19 41
M  V30 44 1 19 42
M  V30 45 1 19 43
M  V30 46 1 20 44
M  V30 47 1 21 45 CFG=3
M  V30 48 1 22 46
M  V30 49 1 22 47
M  V30 50 1 22 48
M  V30 51 1 23 49
M  V30 52 1 23 50
M  V30 53 1 23 51
M  V30 54 1 24 52
M  V30 55 1 24 53
M  V30 56 1 30 54
M  V30 57 1 30 55
M  V30 END BOND
M  V30 BEGIN COLLECTION
M  V30 MDLV30/STEABS ATOMS=(0)
M  V30 END COLLECTION
M  V30 END CTAB
M  END
>  <smiles>  (614) 
[H]c1c(OC(=O)C([H])([H])[H])c([H])c2s/c(=N\C([H])([H])C([H])([H])c3nc(C([H])([H])[H])c([C@@]([H])(N([H])C(=O)C([H])(C([H])([H])[H])C([H])([H])[H])C([H])([H])[H])s3)oc2c1[H]

>  <error>  (614) 


>  <∆∆G>  (614) 
nan

>  <∆G_bound>  (614) 
nan

>  <∆G_unbound>  (614) 
nan

>  <comRMSD>  (614) 
0.0

>  <N_constrained_atoms>  (614) 
29.0

>  <N_unconstrained_atoms>  (614) 
1.0

>  <runtime>  (614) 
2.143

>  <regarded>  (614) 
['6izx-a', 'd0264a']

>  <disregarded>  (614) 
[]

>  <LE>  (614) 
nan

>  <outcome>  (614) 
crashed

>  <percent_hybrid>  (614) 
49.0

$$$$

     RDKit          2D

  0  0  0  0  0  0  0  0  0  0999 V2000
M  END
>  <smiles>  (615) 
nan

>  <error>  (615) 
FragmensteinError Ideal compound failed. Something is wrong with the SMILES

>  <∆∆G>  (615) 
nan

>  <∆G_bound>  (615) 
nan

>  <∆G_unbound>  (615) 
nan

>  <comRMSD>  (615) 
nan

>  <N_constrained_atoms>  (615) 
nan

>  <N_unconstrained_atoms>  (615) 
nan

>  <runtime>  (615) 
nan

>  <regarded>  (615) 
[]

>  <disregarded>  (615) 
[]

>  <LE>  (615) 
nan

>  <outcome>  (615) 
crashed

>  <percent_hybrid>  (615) 
nan

$$$$
LIG
     RDKit          3D

 42 45  0  0  0  0  0  0  0  0999 V2000
  -18.8966  -38.7436  -26.7198 C   0  0  0  0  0  0  0  0  0  0  0  0
  -17.6978  -39.5239  -27.1554 C   0  0  0  0  0  0  0  0  0  0  0  0
  -17.7010  -40.4404  -27.9632 O   0  0  0  0  0  0  0  0  0  0  0  0
  -16.4449  -39.2110  -26.3972 C   0  0  0  0  0  0  0  0  0  0  0  0
  -15.7120  -45.0484  -22.3935 O   0  0  0  0  0  0  0  0  0  0  0  0
  -16.0348  -38.0603  -26.4235 O   0  0  0  0  0  0  0  0  0  0  0  0
  -14.6540  -44.3132  -18.4517 F   0  0  0  0  0  0  0  0  0  0  0  0
  -15.8670  -43.7156  -21.8910 C   0  0  0  0  0  0  0  0  0  0  0  0
  -14.7345  -42.8483  -22.2704 N   0  0  0  0  0  0  0  0  0  0  0  0
  -15.2449  -41.6853  -23.0217 C   0  0  2  0  0  0  0  0  0  0  0  0
  -16.3194  -42.2128  -23.9654 C   0  0  1  0  0  0  0  0  0  0  0  0
  -17.3671  -43.0198  -22.7505 S   0  0  0  0  0  0  0  0  0  0  0  0
  -15.8666  -40.3641  -25.6079 C   0  0  2  0  0  0  0  0  0  0  0  0
  -16.9508  -41.1036  -24.7914 C   0  0  0  0  0  0  0  0  0  0  0  0
  -14.1867  -40.9732  -23.8426 C   0  0  0  0  0  0  0  0  0  0  0  0
  -14.7683  -39.8480  -24.6814 C   0  0  0  0  0  0  0  0  0  0  0  0
  -14.6247  -44.4218  -19.8143 C   0  0  1  0  0  0  0  0  0  0  0  0
  -15.9951  -44.0075  -20.3935 C   0  0  2  0  0  0  0  0  0  0  0  0
  -13.9031  -42.4221  -21.1414 C   0  0  0  0  0  0  0  0  0  0  0  0
  -13.4506  -43.6109  -20.3204 C   0  0  0  0  0  0  0  0  0  0  0  0
  -19.0607  -38.8870  -25.6485 H   0  0  0  0  0  0  0  0  0  0  0  0
  -18.7526  -37.6825  -26.9321 H   0  0  0  0  0  0  0  0  0  0  0  0
  -19.7797  -39.1108  -27.2484 H   0  0  0  0  0  0  0  0  0  0  0  0
  -17.7075  -41.5386  -25.4548 H   0  0  0  0  0  0  0  0  0  0  0  0
  -13.4051  -40.5586  -23.1994 H   0  0  0  0  0  0  0  0  0  0  0  0
  -13.9721  -39.3965  -25.2792 H   0  0  0  0  0  0  0  0  0  0  0  0
  -14.4341  -45.4831  -19.9879 H   0  0  0  0  0  0  0  0  0  0  0  0
  -16.8592  -45.1585  -20.3413 O   0  0  0  0  0  0  0  0  0  0  0  0
  -16.4343  -43.1899  -19.8128 H   0  0  0  0  0  0  0  0  0  0  0  0
  -14.4407  -41.7137  -20.4972 H   0  0  0  0  0  0  0  0  0  0  0  0
  -13.0057  -41.9077  -21.5005 H   0  0  0  0  0  0  0  0  0  0  0  0
  -12.8238  -43.2774  -19.4860 H   0  0  0  0  0  0  0  0  0  0  0  0
  -12.8283  -44.2567  -20.9478 H   0  0  0  0  0  0  0  0  0  0  0  0
  -16.5788  -45.8397  -21.5674 C   0  0  0  0  0  0  0  0  0  0  0  0
  -15.6786  -40.9461  -22.3275 H   0  0  0  0  0  0  0  0  0  0  0  0
  -15.9181  -42.9780  -24.6440 H   0  0  0  0  0  0  0  0  0  0  0  0
  -15.4251  -41.0578  -26.3353 H   0  0  0  0  0  0  0  0  0  0  0  0
  -17.4745  -40.3861  -24.1455 H   0  0  0  0  0  0  0  0  0  0  0  0
  -13.7531  -41.7091  -24.5244 H   0  0  0  0  0  0  0  0  0  0  0  0
  -15.1571  -39.0597  -24.0240 H   0  0  0  0  0  0  0  0  0  0  0  0
  -16.0937  -46.7901  -21.3310 H   0  0  0  0  0  0  0  0  0  0  0  0
  -17.5161  -46.0452  -22.0943 H   0  0  0  0  0  0  0  0  0  0  0  0
  4  2  1  0
  2  3  2  0
  2  1  1  0
  6  4  2  0
  8  9  1  0
  8 12  1  0
  9 10  1  0
 10 15  1  0
 10 11  1  0
 11 12  1  0
 11 14  1  0
 13 16  1  0
 13 14  1  0
 13  4  1  0
 15 16  1  0
 17 20  1  0
 17  7  1  0
 17 18  1  0
 19 20  1  0
  8 18  1  0
  9 19  1  0
  1 21  1  0
  1 22  1  0
  1 23  1  0
 14 24  1  0
 15 25  1  0
 16 26  1  0
 17 27  1  1
 18 28  1  0
 18 29  1  1
 19 30  1  0
 19 31  1  0
 20 32  1  0
 20 33  1  0
  8  5  1  0
  5 34  1  0
 28 34  1  0
 10 35  1  1
 11 36  1  6
 13 37  1  6
 14 38  1  0
 15 39  1  0
 16 40  1  0
 34 41  1  0
 34 42  1  0
M  END
>  <smiles>  (616) 
[H]C1([H])OC23S[C@@]4([H])C([H])([H])[C@@]([H])(C(=O)C(=O)C([H])([H])[H])C([H])([H])C([H])([H])[C@]4([H])N2C([H])([H])C([H])([H])[C@@]([H])(F)[C@]3([H])O1

>  <error>  (616) 


>  <∆∆G>  (616) 
-89.991302

>  <∆G_bound>  (616) 
169.696133

>  <∆G_unbound>  (616) 
259.687436

>  <comRMSD>  (616) 
0.765944

>  <N_constrained_atoms>  (616) 
20.0

>  <N_unconstrained_atoms>  (616) 
2.0

>  <runtime>  (616) 
1.244986

>  <regarded>  (616) 
['6izx-a', 'd0612a']

>  <disregarded>  (616) 
[]

>  <LE>  (616) 
4.090514

>  <outcome>  (616) 
acceptable

>  <percent_hybrid>  (616) 
30.0

$$$$

     RDKit          2D

  0  0  0  0  0  0  0  0  0  0999 V2000
M  END
>  <smiles>  (617) 
nan

>  <error>  (617) 
FragmensteinError Ideal compound failed. Something is wrong with the SMILES

>  <∆∆G>  (617) 
nan

>  <∆G_bound>  (617) 
nan

>  <∆G_unbound>  (617) 
nan

>  <comRMSD>  (617) 
nan

>  <N_constrained_atoms>  (617) 
nan

>  <N_unconstrained_atoms>  (617) 
nan

>  <runtime>  (617) 
nan

>  <regarded>  (617) 
[]

>  <disregarded>  (617) 
[]

>  <LE>  (617) 
nan

>  <outcome>  (617) 
crashed

>  <percent_hybrid>  (617) 
nan

$$$$
LIG
     RDKit          3D

 27 29  0  0  0  0  0  0  0  0999 V2000
  -19.1200  -39.3283  -25.8286 C   0  0  0  0  0  0  0  0  0  0  0  0
  -18.0289  -38.9288  -26.7049 C   0  0  0  0  0  0  0  0  0  0  0  0
  -18.3748  -38.4759  -27.7809 O   0  0  0  0  0  0  0  0  0  0  0  0
  -16.7612  -39.0501  -26.1799 N   0  0  0  0  0  0  0  0  0  0  0  0
  -16.0063  -44.9200  -21.7642 O   0  0  0  0  0  0  0  0  0  0  0  0
  -19.6370  -40.5771  -23.6597 O   0  0  0  0  0  0  0  0  0  0  0  0
  -18.9061  -40.8232  -25.0977 S   0  0  1  0  0  0  0  0  0  0  0  0
  -19.8759  -41.9863  -25.8793 C   0  0  0  0  0  0  0  0  0  0  0  0
  -15.8144  -38.0857  -26.6669 C   0  0  0  0  0  0  0  0  0  0  0  0
  -16.0867  -43.9015  -22.4376 C   0  0  0  0  0  0  0  0  0  0  0  0
  -15.0396  -43.0005  -22.5719 O   0  0  0  0  0  0  0  0  0  0  0  0
  -15.4758  -41.9883  -23.4227 C   0  0  0  0  0  0  0  0  0  0  0  0
  -16.7770  -42.0384  -23.9149 C   0  0  0  0  0  0  0  0  0  0  0  0
  -17.5638  -43.4871  -23.3172 S   0  0  0  0  0  0  0  0  0  0  0  0
  -16.3687  -40.0068  -25.1824 C   0  0  0  0  0  0  0  0  0  0  0  0
  -17.2432  -41.0213  -24.7401 C   0  0  0  0  0  0  0  0  0  0  0  0
  -14.6254  -40.9499  -23.7430 C   0  0  0  0  0  0  0  0  0  0  0  0
  -15.0622  -39.9856  -24.6501 C   0  0  0  0  0  0  0  0  0  0  0  0
  -19.9804  -38.6559  -25.7281 H   0  0  0  0  0  0  0  0  0  0  0  0
  -19.5586  -42.9866  -25.5907 H   0  0  0  0  0  0  0  0  0  0  0  0
  -20.9175  -41.8400  -25.5870 H   0  0  0  0  0  0  0  0  0  0  0  0
  -19.7962  -41.8294  -26.9532 H   0  0  0  0  0  0  0  0  0  0  0  0
  -15.7460  -37.2969  -25.9149 H   0  0  0  0  0  0  0  0  0  0  0  0
  -14.8566  -38.5623  -26.8745 H   0  0  0  0  0  0  0  0  0  0  0  0
  -16.1535  -37.6098  -27.5923 H   0  0  0  0  0  0  0  0  0  0  0  0
  -13.6325  -40.8945  -23.3125 H   0  0  0  0  0  0  0  0  0  0  0  0
  -14.3479  -39.2148  -24.9176 H   0  0  0  0  0  0  0  0  0  0  0  0
  4  2  1  0
  2  3  2  0
  2  1  1  0
  7  8  1  6
  7  6  2  0
  7  1  2  0
  9  4  1  0
 10 11  1  0
 10  5  2  0
 10 14  1  0
 11 12  1  0
 12 17  2  0
 12 13  1  0
 13 14  1  0
 13 16  2  0
 15 18  2  0
 15 16  1  0
 15  4  1  0
 17 18  1  0
  7 16  1  0
  1 19  1  0
  8 20  1  0
  8 21  1  0
  8 22  1  0
  9 23  1  0
  9 24  1  0
  9 25  1  0
 17 26  1  0
 18 27  1  0
M  END
>  <smiles>  (618) 
[H]C1=[S@@](=O)(C([H])([H])[H])c2c(c([H])c([H])c3oc(=O)sc23)N(C([H])([H])[H])C1=O

>  <error>  (618) 


>  <∆∆G>  (618) 
-189.324671

>  <∆G_bound>  (618) 
297.742763

>  <∆G_unbound>  (618) 
487.067435

>  <comRMSD>  (618) 
1.149457

>  <N_constrained_atoms>  (618) 
18.0

>  <N_unconstrained_atoms>  (618) 
0.0

>  <runtime>  (618) 
0.799526

>  <regarded>  (618) 
['6izx-a', 'd0851a']

>  <disregarded>  (618) 
[]

>  <LE>  (618) 
10.518037

>  <outcome>  (618) 
too moved

>  <percent_hybrid>  (618) 
23.0

$$$$
LIG
     RDKit          3D

  0  0  0  0  0  0  0  0  0  0999 V3000
M  V30 BEGIN CTAB
M  V30 COUNTS 53 57 0 0 0
M  V30 BEGIN ATOM
M  V30 1 C -18.292999 -38.539001 -26.643999 0
M  V30 2 C -17.152000 -39.429001 -27.195000 0
M  V30 3 O -17.379000 -40.272999 -28.011999 0
M  V30 4 O -16.072001 -44.653999 -21.667000 0
M  V30 5 C -18.440001 -37.272999 -25.589001 0
M  V30 6 C -18.801001 -40.066002 -25.077000 0
M  V30 7 C -15.751000 -43.828999 -22.466999 0
M  V30 8 O -14.571000 -42.931999 -22.371000 0
M  V30 9 C -14.705000 -41.751999 -23.525999 0
M  V30 10 C -15.849000 -42.087002 -24.396000 0
M  V30 11 S -16.513000 -43.477001 -23.871000 0
M  V30 12 C -15.449000 -40.089001 -25.684000 0 CFG=1
M  V30 13 C -16.188999 -41.264000 -25.438000 0
M  V30 14 C -13.980000 -40.595001 -23.754999 0
M  V30 15 C -14.332000 -39.752998 -24.834999 0
M  V30 16 C -18.129000 -36.304001 -23.285000 0
M  V30 17 C -19.089001 -35.396999 -22.541000 0
M  V30 18 C -19.528999 -34.411999 -23.573999 0
M  V30 19 C -19.582001 -35.196999 -24.878000 0
M  V30 20 N -18.677000 -36.332001 -24.648001 0
M  V30 21 C -17.472000 -39.426998 -24.688999 0 CFG=2
M  V30 22 C -17.184000 -38.118999 -25.462000 0
M  V30 23 C -16.631001 -38.435001 -26.855000 0 CFG=1
M  V30 24 C -15.402000 -39.325001 -26.764999 0 CFG=2
M  V30 25 N -16.350000 -40.417999 -24.764000 0
M  V30 26 O -16.832001 -41.215000 -22.487000 0
M  V30 27 C -16.591000 -40.816498 -23.625500 0
M  V30 28 H -19.267012 -38.825180 -27.067556 0
M  V30 29 H -19.358402 -40.334011 -24.167343 0
M  V30 30 H -19.390856 -39.353043 -25.671778 0
M  V30 31 H -18.612473 -40.971924 -25.671778 0
M  V30 32 H -16.131853 -41.871655 -26.353144 0
M  V30 33 H -17.177103 -40.881027 -25.143072 0
M  V30 34 H -14.049913 -39.987797 -22.840443 0
M  V30 35 H -12.982752 -40.966850 -24.032892 0
M  V30 36 H -13.447977 -39.687496 -25.486317 0
M  V30 37 H -14.665631 -38.831497 -24.335476 0
M  V30 38 H -17.110168 -35.889343 -23.278488 0
M  V30 39 H -18.045275 -37.303970 -22.834385 0
M  V30 40 H -19.946302 -35.967758 -22.154648 0
M  V30 41 H -18.625710 -34.915722 -21.667082 0
M  V30 42 H -20.522223 -34.009979 -23.325226 0
M  V30 43 H -18.845905 -33.552284 -23.639366 0
M  V30 44 H -20.604527 -35.547546 -25.081858 0
M  V30 45 H -19.288511 -34.591660 -25.748306 0
M  V30 46 H -17.554789 -39.120125 -23.635920 0
M  V30 47 H -18.116703 -37.544769 -25.563614 0
M  V30 48 H -16.438358 -37.531765 -24.905968 0
M  V30 49 H -15.989086 -37.543270 -26.802460 0
M  V30 50 H -14.344764 -39.296486 -27.067387 0
M  V30 51 H -16.449593 -40.582680 -21.828186 0
M  V30 52 H -15.581000 -39.806499 -22.615499 0
M  V30 53 H -15.571000 -39.796501 -22.605499 0
M  V30 END ATOM
M  V30 BEGIN BOND
M  V30 1 2 2 3
M  V30 2 1 2 1
M  V30 3 2 5 1
M  V30 4 1 7 8
M  V30 5 2 7 4
M  V30 6 1 7 11
M  V30 7 1 8 9
M  V30 8 1 9 14
M  V30 9 2 9 10
M  V30 10 1 10 11
M  V30 11 1 10 13
M  V30 12 1 12 15
M  V30 13 1 12 13
M  V30 14 1 14 15
M  V30 15 1 16 17
M  V30 16 1 16 20
M  V30 17 1 17 18
M  V30 18 1 18 19
M  V30 19 1 19 20
M  V30 20 1 20 5
M  V30 21 1 21 6
M  V30 22 1 21 25
M  V30 23 1 21 22
M  V30 24 1 22 23
M  V30 25 1 23 24
M  V30 26 1 12 24
M  V30 27 1 12 25 CFG=1
M  V30 28 1 24 2
M  V30 29 1 27 25
M  V30 30 1 27 26
M  V30 31 1 5 23
M  V30 32 1 1 28
M  V30 33 1 6 29
M  V30 34 1 6 30
M  V30 35 1 6 31
M  V30 36 1 13 32
M  V30 37 1 13 33
M  V30 38 1 14 34
M  V30 39 1 14 35
M  V30 40 1 15 36
M  V30 41 1 15 37
M  V30 42 1 16 38
M  V30 43 1 16 39
M  V30 44 1 17 40
M  V30 45 1 17 41
M  V30 46 1 18 42
M  V30 47 1 18 43
M  V30 48 1 19 44
M  V30 49 1 19 45
M  V30 50 1 21 46 CFG=1
M  V30 51 1 22 47
M  V30 52 1 22 48
M  V30 53 1 23 49 CFG=1
M  V30 54 1 24 50 CFG=3
M  V30 55 1 26 51
M  V30 56 1 27 52
M  V30 57 1 27 53
M  V30 END BOND
M  V30 BEGIN COLLECTION
M  V30 MDLV30/STEABS ATOMS=(0)
M  V30 END COLLECTION
M  V30 END CTAB
M  END
>  <smiles>  (619) 
[H]OC([H])([H])N1[C@]([H])(C([H])([H])[H])C([H])([H])[C@]2([H])C(N3C([H])([H])C([H])([H])C([H])([H])C3([H])[H])=C([H])C(=O)[C@]2([H])[C@]12C([H])([H])c1sc(=O)oc1C([H])([H])C2([H])[H]

>  <error>  (619) 


>  <∆∆G>  (619) 
nan

>  <∆G_bound>  (619) 
nan

>  <∆G_unbound>  (619) 
nan

>  <comRMSD>  (619) 
0.0

>  <N_constrained_atoms>  (619) 
26.0

>  <N_unconstrained_atoms>  (619) 
1.0

>  <runtime>  (619) 
1.294695

>  <regarded>  (619) 
['6izx-a', 'd0866a']

>  <disregarded>  (619) 
[]

>  <LE>  (619) 
nan

>  <outcome>  (619) 
crashed

>  <percent_hybrid>  (619) 
50.0

$$$$
LIG
     RDKit          3D

 52 56  0  0  0  0  0  0  0  0999 V2000
  -17.1130  -38.2964  -27.0798 C   0  0  0  0  0  0  0  0  0  0  0  0
  -16.8746  -39.7509  -27.3593 C   0  0  0  0  0  0  0  0  0  0  0  0
  -17.7313  -40.5303  -27.7577 O   0  0  0  0  0  0  0  0  0  0  0  0
  -15.5691  -40.1046  -27.1109 O   0  0  0  0  0  0  0  0  0  0  0  0
  -15.6345  -44.2276  -21.1165 O   0  0  0  0  0  0  0  0  0  0  0  0
  -15.5870  -43.4634  -22.0713 C   0  0  0  0  0  0  0  0  0  0  0  0
  -15.1009  -42.1617  -21.9877 O   0  0  0  0  0  0  0  0  0  0  0  0
  -15.2280  -41.5796  -23.2539 C   0  0  0  0  0  0  0  0  0  0  0  0
  -15.7324  -42.3890  -24.2710 C   0  0  0  0  0  0  0  0  0  0  0  0
  -16.1782  -43.9564  -23.6520 S   0  0  0  0  0  0  0  0  0  0  0  0
  -15.5085  -40.6152  -25.8204 C   0  0  0  0  0  0  0  0  0  0  0  0
  -15.8759  -41.9288  -25.5660 C   0  0  0  0  0  0  0  0  0  0  0  0
  -14.9195  -40.2406  -23.4890 C   0  0  0  0  0  0  0  0  0  0  0  0
  -15.0279  -39.7826  -24.8042 C   0  0  0  0  0  0  0  0  0  0  0  0
  -11.6467  -32.7111  -20.7865 O   0  0  0  0  0  0  0  0  0  0  0  0
  -12.1308  -33.7499  -20.3445 C   0  0  0  0  0  0  0  0  0  0  0  0
  -13.4042  -33.7511  -19.6025 C   0  0  0  0  0  0  0  0  0  0  0  0
  -13.8161  -34.9520  -19.0190 C   0  0  0  0  0  0  0  0  0  0  0  0
  -13.0288  -36.1023  -19.0891 N   0  0  0  0  0  0  0  0  0  0  0  0
  -12.1093  -36.2325  -20.2082 C   0  0  1  0  0  0  0  0  0  0  0  0
  -11.5059  -34.9581  -20.4719 N   0  0  0  0  0  0  0  0  0  0  0  0
  -14.1155  -32.5656  -19.3974 C   0  0  0  0  0  0  0  0  0  0  0  0
  -14.9505  -34.9372  -18.2010 C   0  0  0  0  0  0  0  0  0  0  0  0
  -15.6522  -33.7530  -17.9722 C   0  0  0  0  0  0  0  0  0  0  0  0
  -15.2227  -32.5660  -18.5559 C   0  0  0  0  0  0  0  0  0  0  0  0
  -11.0395  -37.2927  -19.8436 C   0  0  0  0  0  0  0  0  0  0  0  0
  -11.2360  -38.4461  -20.8223 C   0  0  0  0  0  0  0  0  0  0  0  0
  -12.7020  -38.3387  -21.2112 C   0  0  1  0  0  0  0  0  0  0  0  0
  -12.8494  -36.8257  -21.4270 C   0  0  0  0  0  0  0  0  0  0  0  0
  -14.5118  -39.3656  -22.4622 N   0  0  0  0  0  0  0  0  0  0  0  0
  -13.0586  -39.2072  -22.4078 C   0  0  0  0  0  0  0  0  0  0  0  0
  -17.0821  -38.1019  -26.0059 H   0  0  0  0  0  0  0  0  0  0  0  0
  -16.3735  -37.6847  -27.6010 H   0  0  0  0  0  0  0  0  0  0  0  0
  -18.1075  -38.0291  -27.4415 H   0  0  0  0  0  0  0  0  0  0  0  0
  -16.2488  -42.5706  -26.3585 H   0  0  0  0  0  0  0  0  0  0  0  0
  -14.7707  -38.7629  -25.0519 H   0  0  0  0  0  0  0  0  0  0  0  0
  -13.5395  -36.9532  -18.8717 H   0  0  0  0  0  0  0  0  0  0  0  0
  -10.5780  -34.9641  -20.8873 H   0  0  0  0  0  0  0  0  0  0  0  0
  -13.7839  -31.6360  -19.8368 H   0  0  0  0  0  0  0  0  0  0  0  0
  -15.2697  -35.8420  -17.6889 H   0  0  0  0  0  0  0  0  0  0  0  0
  -16.5012  -33.7480  -17.2916 H   0  0  0  0  0  0  0  0  0  0  0  0
  -15.7325  -31.6386  -18.3110 H   0  0  0  0  0  0  0  0  0  0  0  0
  -10.0123  -36.9231  -19.9092 H   0  0  0  0  0  0  0  0  0  0  0  0
  -11.1745  -37.6590  -18.8178 H   0  0  0  0  0  0  0  0  0  0  0  0
  -10.5947  -38.3097  -21.6983 H   0  0  0  0  0  0  0  0  0  0  0  0
  -10.9903  -39.4118  -20.3697 H   0  0  0  0  0  0  0  0  0  0  0  0
  -13.3156  -38.6471  -20.3527 H   0  0  0  0  0  0  0  0  0  0  0  0
  -13.9000  -36.5229  -21.4896 H   0  0  0  0  0  0  0  0  0  0  0  0
  -12.3591  -36.5239  -22.3615 H   0  0  0  0  0  0  0  0  0  0  0  0
  -14.9574  -38.4604  -22.6069 H   0  0  0  0  0  0  0  0  0  0  0  0
  -12.5858  -40.1904  -22.2970 H   0  0  0  0  0  0  0  0  0  0  0  0
  -12.6889  -38.7406  -23.3251 H   0  0  0  0  0  0  0  0  0  0  0  0
  4  2  1  0
  2  3  2  0
  2  1  1  0
  6  7  1  0
  6  5  2  0
  6 10  1  0
  7  8  1  0
  8 13  1  0
  8  9  2  0
  9 10  1  0
  9 12  1  0
 11 14  1  0
 11 12  2  0
 11  4  1  0
 13 14  2  0
 16 15  2  0
 16 21  1  0
 16 17  1  0
 17 22  2  0
 17 18  1  0
 18 19  1  0
 18 23  2  0
 20 19  1  1
 20 21  1  0
 20 29  1  0
 20 26  1  0
 22 25  1  0
 23 24  1  0
 24 25  2  0
 26 27  1  0
 27 28  1  0
 28 29  1  0
 30 13  1  0
 31 30  1  0
 31 28  1  0
  1 32  1  0
  1 33  1  0
  1 34  1  0
 12 35  1  0
 14 36  1  0
 19 37  1  0
 21 38  1  0
 22 39  1  0
 23 40  1  0
 24 41  1  0
 25 42  1  0
 26 43  1  0
 26 44  1  0
 27 45  1  0
 27 46  1  0
 28 47  1  1
 29 48  1  0
 29 49  1  0
 30 50  1  0
 31 51  1  0
 31 52  1  0
M  END
>  <smiles>  (620) 
[H]c1c([H])c([H])c2c(c1[H])C(=O)N([H])[C@]1(N2[H])C([H])([H])C([H])([H])[C@]([H])(C([H])([H])N([H])c2c([H])c(OC(=O)C([H])([H])[H])c([H])c3sc(=O)oc23)C1([H])[H]

>  <error>  (620) 


>  <∆∆G>  (620) 
-434.395137

>  <∆G_bound>  (620) 
368.024551

>  <∆G_unbound>  (620) 
802.419688

>  <comRMSD>  (620) 
0.747999

>  <N_constrained_atoms>  (620) 
29.0

>  <N_unconstrained_atoms>  (620) 
2.0

>  <runtime>  (620) 
2.038656

>  <regarded>  (620) 
['6izx-a', 'd1196a']

>  <disregarded>  (620) 
[]

>  <LE>  (620) 
14.012746

>  <outcome>  (620) 
acceptable

>  <percent_hybrid>  (620) 
49.0

$$$$
LIG
     RDKit          3D

 47 49  0  0  0  0  0  0  0  0999 V2000
  -16.6096  -37.5282  -26.7062 C   0  0  0  0  0  0  0  0  0  0  0  0
  -17.0465  -38.8961  -27.1461 C   0  0  0  0  0  0  0  0  0  0  0  0
  -18.2043  -39.1875  -27.4277 O   0  0  0  0  0  0  0  0  0  0  0  0
  -15.9770  -39.7634  -27.2521 O   0  0  0  0  0  0  0  0  0  0  0  0
  -16.5947  -44.1961  -21.4926 N   0  0  0  0  0  0  0  0  0  0  0  0
  -16.2955  -43.4566  -22.4995 C   0  0  0  0  0  0  0  0  0  0  0  0
  -15.3038  -42.4855  -22.4779 O   0  0  0  0  0  0  0  0  0  0  0  0
  -15.4118  -41.7964  -23.6821 C   0  0  0  0  0  0  0  0  0  0  0  0
  -16.3736  -42.2286  -24.5926 C   0  0  0  0  0  0  0  0  0  0  0  0
  -17.2221  -43.6248  -23.9786 S   0  0  0  0  0  0  0  0  0  0  0  0
  -15.8109  -40.4467  -26.0504 C   0  0  0  0  0  0  0  0  0  0  0  0
  -16.5926  -41.5644  -25.7839 C   0  0  0  0  0  0  0  0  0  0  0  0
  -14.6128  -40.7002  -23.9531 C   0  0  0  0  0  0  0  0  0  0  0  0
  -14.8049  -40.0349  -25.1653 C   0  0  0  0  0  0  0  0  0  0  0  0
  -14.1812  -44.6240  -18.7568 O   0  0  0  0  0  0  0  0  0  0  0  0
  -13.2984  -43.5290  -18.5219 C   0  0  0  0  0  0  0  0  0  0  0  0
  -13.4665  -43.0286  -17.0757 C   0  0  0  0  0  0  0  0  0  0  0  0
  -13.1454  -43.9976  -16.0129 N   0  0  0  0  0  0  0  0  0  0  0  0
  -14.2786  -44.9008  -15.6931 C   0  0  0  0  0  0  0  0  0  0  0  0
  -13.7788  -45.9282  -14.6689 C   0  0  0  0  0  0  0  0  0  0  0  0
  -13.5726  -45.2513  -13.4236 O   0  0  0  0  0  0  0  0  0  0  0  0
  -12.5634  -44.2497  -13.5825 C   0  0  0  0  0  0  0  0  0  0  0  0
  -12.8521  -43.2787  -14.7443 C   0  0  0  0  0  0  0  0  0  0  0  0
  -15.9162  -43.8807  -20.2403 C   0  0  0  0  0  0  0  0  0  0  0  0
  -14.6499  -44.7085  -20.0935 C   0  0  0  0  0  0  0  0  0  0  0  0
  -16.2616  -37.5512  -25.6720 H   0  0  0  0  0  0  0  0  0  0  0  0
  -15.8307  -37.1523  -27.3735 H   0  0  0  0  0  0  0  0  0  0  0  0
  -17.4633  -36.8465  -26.7574 H   0  0  0  0  0  0  0  0  0  0  0  0
  -17.3524  -41.8969  -26.4811 H   0  0  0  0  0  0  0  0  0  0  0  0
  -13.8526  -40.3759  -23.2506 H   0  0  0  0  0  0  0  0  0  0  0  0
  -14.1661  -39.2022  -25.4307 H   0  0  0  0  0  0  0  0  0  0  0  0
  -12.2715  -43.8587  -18.6981 H   0  0  0  0  0  0  0  0  0  0  0  0
  -13.5108  -42.6980  -19.2047 H   0  0  0  0  0  0  0  0  0  0  0  0
  -12.7970  -42.1632  -16.9846 H   0  0  0  0  0  0  0  0  0  0  0  0
  -14.4882  -42.6503  -16.9400 H   0  0  0  0  0  0  0  0  0  0  0  0
  -15.1002  -44.3101  -15.2681 H   0  0  0  0  0  0  0  0  0  0  0  0
  -14.6860  -45.4212  -16.5594 H   0  0  0  0  0  0  0  0  0  0  0  0
  -14.4955  -46.7352  -14.5138 H   0  0  0  0  0  0  0  0  0  0  0  0
  -12.8515  -46.4231  -14.9677 H   0  0  0  0  0  0  0  0  0  0  0  0
  -12.4993  -43.6912  -12.6430 H   0  0  0  0  0  0  0  0  0  0  0  0
  -11.5978  -44.7485  -13.7308 H   0  0  0  0  0  0  0  0  0  0  0  0
  -11.9780  -42.6299  -14.8754 H   0  0  0  0  0  0  0  0  0  0  0  0
  -13.7021  -42.6396  -14.4696 H   0  0  0  0  0  0  0  0  0  0  0  0
  -15.7096  -42.8103  -20.1176 H   0  0  0  0  0  0  0  0  0  0  0  0
  -16.6002  -44.1210  -19.4165 H   0  0  0  0  0  0  0  0  0  0  0  0
  -14.9033  -45.7585  -20.2700 H   0  0  0  0  0  0  0  0  0  0  0  0
  -13.8740  -44.4243  -20.8134 H   0  0  0  0  0  0  0  0  0  0  0  0
  4  2  1  0
  2  3  2  0
  2  1  1  0
  6  7  1  0
  6  5  2  0
  6 10  1  0
  7  8  1  0
  8 13  2  0
  8  9  1  0
  9 10  1  0
  9 12  2  0
 11 14  2  0
 11 12  1  0
 11  4  1  0
 13 14  1  0
 16 15  1  0
 17 16  1  0
 18 17  1  0
 18 23  1  0
 18 19  1  0
 19 20  1  0
 20 21  1  0
 21 22  1  0
 22 23  1  0
 24  5  1  0
 25 24  1  0
 25 15  1  0
  1 26  1  0
  1 27  1  0
  1 28  1  0
 12 29  1  0
 13 30  1  0
 14 31  1  0
 16 32  1  0
 16 33  1  0
 17 34  1  0
 17 35  1  0
 19 36  1  0
 19 37  1  0
 20 38  1  0
 20 39  1  0
 22 40  1  0
 22 41  1  0
 23 42  1  0
 23 43  1  0
 24 44  1  0
 24 45  1  0
 25 46  1  0
 25 47  1  0
M  END
>  <smiles>  (621) 
[H]c1c(OC(=O)C([H])([H])[H])c([H])c2s/c(=N/C([H])([H])C([H])([H])OC([H])([H])C([H])([H])N3C([H])([H])C([H])([H])OC([H])([H])C3([H])[H])oc2c1[H]

>  <error>  (621) 


>  <∆∆G>  (621) 
-346.531711

>  <∆G_bound>  (621) 
238.834267

>  <∆G_unbound>  (621) 
585.365978

>  <comRMSD>  (621) 
1.219795

>  <N_constrained_atoms>  (621) 
23.0

>  <N_unconstrained_atoms>  (621) 
2.0

>  <runtime>  (621) 
2.9897

>  <regarded>  (621) 
['6izx-a', 'z0052a']

>  <disregarded>  (621) 
[]

>  <LE>  (621) 
13.861268

>  <outcome>  (621) 
too moved

>  <percent_hybrid>  (621) 
40.0

$$$$
LIG
     RDKit          3D

 40 42  0  0  0  0  0  0  0  0999 V2000
  -17.5705  -37.8184  -25.2785 C   0  0  0  0  0  0  0  0  0  0  0  0
  -17.8235  -38.4967  -26.5986 C   0  0  0  0  0  0  0  0  0  0  0  0
  -18.7411  -38.1452  -27.3408 O   0  0  0  0  0  0  0  0  0  0  0  0
  -16.9506  -39.5236  -26.9484 O   0  0  0  0  0  0  0  0  0  0  0  0
  -15.9654  -44.2789  -21.3206 O   0  0  0  0  0  0  0  0  0  0  0  0
  -15.9477  -43.3435  -22.2698 C   0  0  0  0  0  0  0  0  0  0  0  0
  -14.9893  -42.3825  -22.5294 C   0  0  0  0  0  0  0  0  0  0  0  0
  -15.2704  -41.6164  -23.7082 C   0  0  0  0  0  0  0  0  0  0  0  0
  -16.5145  -41.9697  -24.2421 C   0  0  0  0  0  0  0  0  0  0  0  0
  -17.2290  -43.2719  -23.3808 S   0  0  0  0  0  0  0  0  0  0  0  0
  -16.3516  -40.2523  -25.9089 C   0  0  0  0  0  0  0  0  0  0  0  0
  -17.0719  -41.3023  -25.3478 C   0  0  0  0  0  0  0  0  0  0  0  0
  -14.5506  -40.5892  -24.3637 C   0  0  0  0  0  0  0  0  0  0  0  0
  -15.0810  -39.9245  -25.4717 C   0  0  0  0  0  0  0  0  0  0  0  0
  -13.7845  -42.4030  -21.8286 N   0  0  0  0  0  0  0  0  0  0  0  0
  -13.5290  -41.7027  -20.8643 C   0  0  0  0  0  0  0  0  0  0  0  0
  -12.4927  -42.2242  -19.8909 C   0  0  0  0  0  0  0  0  0  0  0  0
  -14.0309  -40.2463  -20.4855 N   0  0  0  0  0  0  0  0  0  0  0  0
  -14.8462  -39.3184  -21.2183 C   0  0  0  0  0  0  0  0  0  0  0  0
  -14.0494  -38.1454  -21.7506 C   0  0  0  0  0  0  0  0  0  0  0  0
  -12.6743  -38.1712  -21.8514 N   0  0  0  0  0  0  0  0  0  0  0  0
  -12.2483  -36.8995  -22.1093 C   0  0  0  0  0  0  0  0  0  0  0  0
  -13.3954  -36.1590  -22.2452 C   0  0  0  0  0  0  0  0  0  0  0  0
  -14.5031  -36.9484  -22.0742 N   0  0  0  0  0  0  0  0  0  0  0  0
  -17.8070  -38.4817  -24.4439 H   0  0  0  0  0  0  0  0  0  0  0  0
  -16.5413  -37.4559  -25.2257 H   0  0  0  0  0  0  0  0  0  0  0  0
  -18.2243  -36.9430  -25.2049 H   0  0  0  0  0  0  0  0  0  0  0  0
  -18.0495  -41.5776  -25.7311 H   0  0  0  0  0  0  0  0  0  0  0  0
  -13.5925  -40.2892  -23.9616 H   0  0  0  0  0  0  0  0  0  0  0  0
  -14.5165  -39.1391  -25.9621 H   0  0  0  0  0  0  0  0  0  0  0  0
  -12.7020  -41.8638  -18.8805 H   0  0  0  0  0  0  0  0  0  0  0  0
  -12.5036  -43.3171  -19.8812 H   0  0  0  0  0  0  0  0  0  0  0  0
  -11.5086  -41.8662  -20.2036 H   0  0  0  0  0  0  0  0  0  0  0  0
  -13.6817  -39.9975  -19.5660 H   0  0  0  0  0  0  0  0  0  0  0  0
  -15.4337  -39.7729  -22.0069 H   0  0  0  0  0  0  0  0  0  0  0  0
  -15.5834  -38.9083  -20.5170 H   0  0  0  0  0  0  0  0  0  0  0  0
  -11.2011  -36.6363  -22.1639 H   0  0  0  0  0  0  0  0  0  0  0  0
  -13.4841  -35.1027  -22.4637 H   0  0  0  0  0  0  0  0  0  0  0  0
  -16.7716  -44.7919  -21.4944 H   0  0  0  0  0  0  0  0  0  0  0  0
  -12.1014  -38.9768  -21.6363 H   0  0  0  0  0  0  0  0  0  0  0  0
  4  2  1  0
  2  3  2  0
  2  1  1  0
  6  7  2  0
  6  5  1  0
  6 10  1  0
  7  8  1  0
  8 13  1  0
  8  9  2  0
  9 10  1  0
  9 12  1  0
 11 14  1  0
 11 12  2  0
 11  4  1  0
 13 14  2  0
 17 16  1  0
 16 15  2  0
 18 16  1  0
 19 18  1  0
 20 19  1  0
 20 21  1  0
 20 24  2  0
 21 22  1  0
 22 23  2  0
 23 24  1  0
  7 15  1  0
  1 25  1  0
  1 26  1  0
  1 27  1  0
 12 28  1  0
 13 29  1  0
 14 30  1  0
 17 31  1  0
 17 32  1  0
 17 33  1  0
 18 34  1  0
 19 35  1  0
 19 36  1  0
 22 37  1  0
 23 38  1  0
  5 39  1  0
 21 40  1  0
M  END
>  <smiles>  (622) 
[H]c1nc(C([H])([H])N([H])/C(=N\c2c(O)sc3c([H])c(OC(=O)C([H])([H])[H])c([H])c([H])c23)C([H])([H])[H])[nH]c1[H]

>  <error>  (622) 


>  <∆∆G>  (622) 
-72.733339

>  <∆G_bound>  (622) 
355.819093

>  <∆G_unbound>  (622) 
428.552431

>  <comRMSD>  (622) 
1.334671

>  <N_constrained_atoms>  (622) 
24.0

>  <N_unconstrained_atoms>  (622) 
0.0

>  <runtime>  (622) 
1.79651

>  <regarded>  (622) 
['6izx-a', 'z0103a']

>  <disregarded>  (622) 
[]

>  <LE>  (622) 
3.030556

>  <outcome>  (622) 
too moved

>  <percent_hybrid>  (622) 
42.0

$$$$

     RDKit          2D

  0  0  0  0  0  0  0  0  0  0999 V2000
M  END
>  <smiles>  (623) 
nan

>  <error>  (623) 
DistanceError 6.98 Å

>  <∆∆G>  (623) 
nan

>  <∆G_bound>  (623) 
nan

>  <∆G_unbound>  (623) 
nan

>  <comRMSD>  (623) 
nan

>  <N_constrained_atoms>  (623) 
nan

>  <N_unconstrained_atoms>  (623) 
nan

>  <runtime>  (623) 
nan

>  <regarded>  (623) 
[]

>  <disregarded>  (623) 
[]

>  <LE>  (623) 
nan

>  <outcome>  (623) 
too distant

>  <percent_hybrid>  (623) 
nan

$$$$

     RDKit          2D

  0  0  0  0  0  0  0  0  0  0999 V2000
M  END
>  <smiles>  (624) 
nan

>  <error>  (624) 
RecursionError maximum recursion depth exceeded while calling a Python object

>  <∆∆G>  (624) 
nan

>  <∆G_bound>  (624) 
nan

>  <∆G_unbound>  (624) 
nan

>  <comRMSD>  (624) 
nan

>  <N_constrained_atoms>  (624) 
nan

>  <N_unconstrained_atoms>  (624) 
nan

>  <runtime>  (624) 
nan

>  <regarded>  (624) 
[]

>  <disregarded>  (624) 
[]

>  <LE>  (624) 
nan

>  <outcome>  (624) 
crashed

>  <percent_hybrid>  (624) 
nan

$$$$
LIG
     RDKit          3D

  0  0  0  0  0  0  0  0  0  0999 V3000
M  V30 BEGIN CTAB
M  V30 COUNTS 37 39 0 0 0
M  V30 BEGIN ATOM
M  V30 1 C -18.292999 -38.539001 -26.643999 0
M  V30 2 C -17.152000 -39.429001 -27.195000 0
M  V30 3 O -17.379000 -40.272999 -28.011999 0
M  V30 4 O -15.821000 -39.264000 -26.753000 0
M  V30 5 O -16.072001 -44.653999 -21.667000 0
M  V30 6 C -15.751000 -43.828999 -22.466999 0
M  V30 7 C -14.571000 -42.931999 -22.371000 0
M  V30 8 C -14.705000 -41.751999 -23.525999 0
M  V30 9 C -15.849000 -42.087002 -24.396000 0
M  V30 10 S -16.513000 -43.477001 -23.871000 0
M  V30 11 C -15.449000 -40.089001 -25.684000 0
M  V30 12 C -16.188999 -41.264000 -25.438000 0
M  V30 13 C -13.980000 -40.595001 -23.754999 0
M  V30 14 C -14.332000 -39.752998 -24.834999 0
M  V30 15 N -13.297000 -44.498001 -20.850000 0
M  V30 16 C -12.948000 -43.432999 -21.100000 0
M  V30 17 C -12.567000 -42.085999 -21.440001 0
M  V30 18 C -13.246000 -41.202000 -22.230000 0
M  V30 19 N -12.548000 -40.040001 -22.191999 0
M  V30 20 C -11.474000 -40.242001 -21.403000 0
M  V30 21 N -11.428000 -41.477001 -20.927000 0
M  V30 22 C -13.759501 -43.182499 -21.735500 0
M  V30 23 H -18.272194 -38.555229 -25.544315 0
M  V30 24 H -18.156292 -37.506573 -26.998123 0
M  V30 25 H -19.261084 -38.922939 -26.998123 0
M  V30 26 H -17.041410 -41.520733 -26.084129 0
M  V30 27 H -13.135477 -40.332432 -23.100904 0
M  V30 28 H -13.752116 -38.838520 -25.028555 0
M  V30 29 H -14.174971 -41.394699 -22.786671 0
M  V30 30 H -10.722527 -39.470219 -21.180201 0
M  V30 31 H -12.959500 -42.382500 -20.935501 0
M  V30 32 H -12.949500 -42.372498 -20.925501 0
M  V30 33 H -16.879551 -45.205460 -21.821447 0
M  V30 34 H -13.335511 -44.615520 -19.827452 0
M  V30 35 H -14.233445 -44.655006 -21.249149 0
M  V30 36 H -12.566036 -43.785721 -22.069376 0
M  V30 37 H -12.793221 -39.164780 -22.676517 0
M  V30 END ATOM
M  V30 BEGIN BOND
M  V30 1 1 4 2
M  V30 2 2 2 3
M  V30 3 1 2 1
M  V30 4 2 6 7
M  V30 5 1 6 5
M  V30 6 1 6 10
M  V30 7 1 7 8
M  V30 8 1 8 13
M  V30 9 2 8 9
M  V30 10 1 9 10
M  V30 11 1 9 12
M  V30 12 1 11 14
M  V30 13 2 11 12
M  V30 14 1 11 4
M  V30 15 2 13 14
M  V30 16 1 16 15
M  V30 17 1 17 16
M  V30 18 2 17 18
M  V30 19 1 17 21
M  V30 20 1 18 19
M  V30 21 1 19 20
M  V30 22 2 20 21
M  V30 23 1 22 7
M  V30 24 1 22 16
M  V30 25 1 1 23
M  V30 26 1 1 24
M  V30 27 1 1 25
M  V30 28 1 12 26
M  V30 29 1 13 27
M  V30 30 1 14 28
M  V30 31 1 18 29
M  V30 32 1 20 30
M  V30 33 1 22 31
M  V30 34 1 22 32
M  V30 35 1 5 33
M  V30 36 1 15 34
M  V30 37 1 15 35
M  V30 38 1 16 36
M  V30 39 1 19 37
M  V30 END BOND
M  V30 BEGIN COLLECTION
M  V30 MDLV30/STEABS ATOMS=(0)
M  V30 END COLLECTION
M  V30 END CTAB
M  END
>  <smiles>  (625) 
[H]c1nc(C(N)C([H])([H])c2c(O)sc3c([H])c(OC(=O)C([H])([H])[H])c([H])c([H])c23)c([H])[nH]1

>  <error>  (625) 


>  <∆∆G>  (625) 
nan

>  <∆G_bound>  (625) 
nan

>  <∆G_unbound>  (625) 
nan

>  <comRMSD>  (625) 
0.0

>  <N_constrained_atoms>  (625) 
21.0

>  <N_unconstrained_atoms>  (625) 
1.0

>  <runtime>  (625) 
0.940186

>  <regarded>  (625) 
['6izx-a', 'z0875c']

>  <disregarded>  (625) 
[]

>  <LE>  (625) 
nan

>  <outcome>  (625) 
crashed

>  <percent_hybrid>  (625) 
34.0

$$$$

     RDKit          2D

  0  0  0  0  0  0  0  0  0  0999 V2000
M  END
>  <smiles>  (626) 
nan

>  <error>  (626) 
FragmensteinError Ideal compound failed. Something is wrong with the SMILES

>  <∆∆G>  (626) 
nan

>  <∆G_bound>  (626) 
nan

>  <∆G_unbound>  (626) 
nan

>  <comRMSD>  (626) 
nan

>  <N_constrained_atoms>  (626) 
nan

>  <N_unconstrained_atoms>  (626) 
nan

>  <runtime>  (626) 
nan

>  <regarded>  (626) 
[]

>  <disregarded>  (626) 
[]

>  <LE>  (626) 
nan

>  <outcome>  (626) 
crashed

>  <percent_hybrid>  (626) 
nan

$$$$
LIG
     RDKit          3D

 51 54  0  0  0  0  0  0  0  0999 V2000
  -16.1185  -37.9930  -26.7755 C   0  0  0  0  0  0  0  0  0  0  0  0
  -17.1860  -39.0175  -27.0095 C   0  0  0  0  0  0  0  0  0  0  0  0
  -18.2941  -38.7570  -27.4709 O   0  0  0  0  0  0  0  0  0  0  0  0
  -16.7952  -40.3021  -26.6511 O   0  0  0  0  0  0  0  0  0  0  0  0
  -11.4456  -40.3713  -21.0271 O   0  0  0  0  0  0  0  0  0  0  0  0
  -13.3997  -40.1898  -22.0837 O   0  0  0  0  0  0  0  0  0  0  0  0
  -12.6487  -40.8540  -21.3909 C   0  0  0  0  0  0  0  0  0  0  0  0
  -12.8821  -42.2477  -20.8605 C   0  0  0  0  0  0  0  0  0  0  0  0
  -17.5984  -44.7189  -18.8155 O   0  0  0  0  0  0  0  0  0  0  0  0
  -15.3608  -43.1536  -21.3637 C   0  0  1  0  0  0  0  0  0  0  0  0
  -16.3916  -42.1293  -21.4735 O   0  0  0  0  0  0  0  0  0  0  0  0
  -16.2831  -41.5044  -22.6995 C   0  0  0  0  0  0  0  0  0  0  0  0
  -15.6121  -42.1543  -23.7220 C   0  0  0  0  0  0  0  0  0  0  0  0
  -14.7564  -43.5388  -23.0894 S   0  0  0  0  0  0  0  0  0  0  0  0
  -16.4923  -40.5783  -25.2970 C   0  0  0  0  0  0  0  0  0  0  0  0
  -15.7318  -41.7200  -25.0371 C   0  0  0  0  0  0  0  0  0  0  0  0
  -16.9542  -40.3205  -22.9380 C   0  0  0  0  0  0  0  0  0  0  0  0
  -17.0574  -39.8486  -24.2476 C   0  0  0  0  0  0  0  0  0  0  0  0
  -16.2419  -44.5356  -19.2184 C   0  0  2  0  0  0  0  0  0  0  0  0
  -15.6645  -43.3633  -18.4601 C   0  0  0  0  0  0  0  0  0  0  0  0
  -14.2718  -43.0829  -18.9744 C   0  0  0  0  0  0  0  0  0  0  0  0
  -14.3219  -42.4567  -20.3777 C   0  0  1  0  0  0  0  0  0  0  0  0
  -15.9702  -44.5030  -20.7574 C   0  0  1  0  0  0  0  0  0  0  0  0
  -18.0927  -47.4250  -21.9621 C   0  0  0  0  0  0  0  0  0  0  0  0
  -17.2302  -46.6354  -21.2153 C   0  0  0  0  0  0  0  0  0  0  0  0
  -17.0637  -45.2695  -21.5081 C   0  0  0  0  0  0  0  0  0  0  0  0
  -17.8809  -44.7068  -22.4941 C   0  0  0  0  0  0  0  0  0  0  0  0
  -18.7027  -45.5087  -23.2799 C   0  0  0  0  0  0  0  0  0  0  0  0
  -18.7632  -46.8757  -23.0429 C   0  0  0  0  0  0  0  0  0  0  0  0
  -15.1406  -38.4785  -26.7525 H   0  0  0  0  0  0  0  0  0  0  0  0
  -16.1166  -37.2798  -27.6036 H   0  0  0  0  0  0  0  0  0  0  0  0
  -16.2997  -37.4660  -25.8370 H   0  0  0  0  0  0  0  0  0  0  0  0
  -11.3516  -39.5028  -21.4718 H   0  0  0  0  0  0  0  0  0  0  0  0
  -12.5980  -42.9768  -21.6085 H   0  0  0  0  0  0  0  0  0  0  0  0
  -12.1843  -42.3831  -20.0237 H   0  0  0  0  0  0  0  0  0  0  0  0
  -18.1581  -44.1852  -19.4106 H   0  0  0  0  0  0  0  0  0  0  0  0
  -15.2868  -42.2839  -25.8470 H   0  0  0  0  0  0  0  0  0  0  0  0
  -17.4632  -39.8081  -22.1273 H   0  0  0  0  0  0  0  0  0  0  0  0
  -17.6712  -38.9709  -24.4273 H   0  0  0  0  0  0  0  0  0  0  0  0
  -15.7360  -45.4340  -18.8364 H   0  0  0  0  0  0  0  0  0  0  0  0
  -16.3095  -42.4807  -18.5519 H   0  0  0  0  0  0  0  0  0  0  0  0
  -15.6345  -43.5999  -17.3893 H   0  0  0  0  0  0  0  0  0  0  0  0
  -13.7721  -42.3907  -18.2845 H   0  0  0  0  0  0  0  0  0  0  0  0
  -13.6733  -44.0018  -18.9867 H   0  0  0  0  0  0  0  0  0  0  0  0
  -14.7156  -41.4464  -20.1803 H   0  0  0  0  0  0  0  0  0  0  0  0
  -15.0962  -45.1727  -20.8513 H   0  0  0  0  0  0  0  0  0  0  0  0
  -18.1609  -48.4900  -21.7752 H   0  0  0  0  0  0  0  0  0  0  0  0
  -16.6509  -47.1081  -20.4280 H   0  0  0  0  0  0  0  0  0  0  0  0
  -17.8660  -43.6491  -22.7195 H   0  0  0  0  0  0  0  0  0  0  0  0
  -19.2707  -45.0713  -24.0957 H   0  0  0  0  0  0  0  0  0  0  0  0
  -19.3286  -47.5268  -23.7036 H   0  0  0  0  0  0  0  0  0  0  0  0
  4  2  1  0
  2  3  2  0
  2  1  1  0
  8  7  1  0
  6  7  2  0
  7  5  1  0
 10 11  1  1
 10 14  1  0
 11 12  1  0
 12 17  1  0
 12 13  2  0
 13 14  1  0
 13 16  1  0
 15 18  1  0
 15 16  2  0
 15  4  1  0
 17 18  2  0
 19  9  1  0
 19 23  1  0
 19 20  1  0
 20 21  1  0
 21 22  1  0
 22  8  1  0
 23 26  1  0
 24 29  2  0
 24 25  1  0
 25 26  2  0
 26 27  1  0
 27 28  2  0
 28 29  1  0
 10 22  1  0
 10 23  1  0
  1 30  1  0
  1 31  1  0
  1 32  1  0
  5 33  1  0
  8 34  1  0
  8 35  1  0
  9 36  1  0
 16 37  1  0
 17 38  1  0
 18 39  1  0
 19 40  1  1
 20 41  1  0
 20 42  1  0
 21 43  1  0
 21 44  1  0
 22 45  1  6
 23 46  1  1
 24 47  1  0
 25 48  1  0
 27 49  1  0
 28 50  1  0
 29 51  1  0
M  END
>  <smiles>  (627) 
[H]OC(=O)C([H])([H])[C@@]1([H])C([H])([H])C([H])([H])[C@@]([H])(O[H])[C@@]([H])(c2c([H])c([H])c([H])c([H])c2[H])[C@]12Oc1c([H])c([H])c(OC(=O)C([H])([H])[H])c([H])c1S2

>  <error>  (627) 


>  <∆∆G>  (627) 
-229.430184

>  <∆G_bound>  (627) 
209.600902

>  <∆G_unbound>  (627) 
439.031086

>  <comRMSD>  (627) 
1.394917

>  <N_constrained_atoms>  (627) 
29.0

>  <N_unconstrained_atoms>  (627) 
0.0

>  <runtime>  (627) 
7.063762

>  <regarded>  (627) 
['6izx-a', '5hn0-a']

>  <disregarded>  (627) 
[]

>  <LE>  (627) 
7.911386

>  <outcome>  (627) 
too moved

>  <percent_hybrid>  (627) 
45.0

$$$$
LIG
     RDKit          3D

 41 43  0  0  0  0  0  0  0  0999 V2000
  -14.4790  -43.6368  -17.7699 C   0  0  0  0  0  0  0  0  0  0  0  0
  -15.0248  -41.7071  -16.3596 O   0  0  0  0  0  0  0  0  0  0  0  0
  -14.3637  -42.7016  -16.5946 C   0  0  0  0  0  0  0  0  0  0  0  0
  -13.3999  -43.1093  -15.7421 O   0  0  0  0  0  0  0  0  0  0  0  0
  -16.3548  -42.6733  -21.7010 C   0  0  2  0  0  0  0  0  0  0  0  0
  -15.0324  -42.7798  -22.3534 N   0  0  0  0  0  0  0  0  0  0  0  0
  -14.6624  -41.6033  -23.1723 C   0  0  0  0  0  0  0  0  0  0  0  0
  -14.8458  -42.4370  -24.4393 C   0  0  0  0  0  0  0  0  0  0  0  0
  -17.7156  -42.0234  -22.7763 S   0  0  0  0  0  0  0  0  0  0  0  0
  -15.5123  -43.2168  -18.8158 C   0  0  1  0  0  0  0  0  0  0  0  0
  -15.0915  -41.9474  -19.5526 C   0  0  0  0  0  0  0  0  0  0  0  0
  -16.1365  -41.5667  -20.6081 C   0  0  0  0  0  0  0  0  0  0  0  0
  -16.8370  -43.9464  -20.8744 C   0  0  2  0  0  0  0  0  0  0  0  0
  -15.7625  -44.3527  -19.8255 C   0  0  0  0  0  0  0  0  0  0  0  0
  -17.7635  -46.3424  -20.9151 C   0  0  0  0  0  0  0  0  0  0  0  0
  -18.5824  -47.4818  -21.8682 S   0  0  0  0  0  0  0  0  0  0  0  0
  -18.6032  -46.4365  -23.1985 C   0  0  0  0  0  0  0  0  0  0  0  0
  -17.9910  -45.2405  -22.9122 C   0  0  0  0  0  0  0  0  0  0  0  0
  -17.4694  -45.1570  -21.5756 C   0  0  0  0  0  0  0  0  0  0  0  0
  -14.8978  -43.6562  -23.5166 C   0  0  0  0  0  0  0  0  0  0  0  0
  -13.4918  -43.7286  -18.2361 H   0  0  0  0  0  0  0  0  0  0  0  0
  -14.7841  -44.6037  -17.3552 H   0  0  0  0  0  0  0  0  0  0  0  0
  -13.4251  -42.4388  -15.0255 H   0  0  0  0  0  0  0  0  0  0  0  0
  -16.4579  -43.0128  -18.2938 H   0  0  0  0  0  0  0  0  0  0  0  0
  -14.9982  -41.1110  -18.8511 H   0  0  0  0  0  0  0  0  0  0  0  0
  -14.1027  -42.0736  -20.0094 H   0  0  0  0  0  0  0  0  0  0  0  0
  -17.0824  -41.3634  -20.0840 H   0  0  0  0  0  0  0  0  0  0  0  0
  -15.8421  -40.6035  -21.0436 H   0  0  0  0  0  0  0  0  0  0  0  0
  -17.6900  -43.5887  -20.2696 H   0  0  0  0  0  0  0  0  0  0  0  0
  -14.8309  -44.6395  -20.3299 H   0  0  0  0  0  0  0  0  0  0  0  0
  -16.0757  -45.2299  -19.2511 H   0  0  0  0  0  0  0  0  0  0  0  0
  -17.5594  -46.6077  -19.8889 H   0  0  0  0  0  0  0  0  0  0  0  0
  -19.0511  -46.7501  -24.1312 H   0  0  0  0  0  0  0  0  0  0  0  0
  -17.9310  -44.4771  -23.6726 H   0  0  0  0  0  0  0  0  0  0  0  0
  -15.6932  -44.3640  -23.7313 H   0  0  0  0  0  0  0  0  0  0  0  0
  -13.9552  -44.2161  -23.5017 H   0  0  0  0  0  0  0  0  0  0  0  0
  -15.2852  -40.7043  -23.1351 H   0  0  0  0  0  0  0  0  0  0  0  0
  -13.6396  -41.2675  -22.9808 H   0  0  0  0  0  0  0  0  0  0  0  0
  -15.7659  -42.2446  -24.9988 H   0  0  0  0  0  0  0  0  0  0  0  0
  -14.0015  -42.4007  -25.1233 H   0  0  0  0  0  0  0  0  0  0  0  0
  -18.6554  -41.9961  -21.8209 H   0  0  0  0  0  0  0  0  0  0  0  0
  1  3  1  0
  2  3  2  0
  3  4  1  0
  5  6  1  0
  5  9  1  6
  6  7  1  0
  7  8  1  0
 10 14  1  0
 10  1  1  0
 10 11  1  0
 11 12  1  0
 13 19  1  0
 13 14  1  0
 15 16  1  0
 15 19  2  0
 16 17  1  0
 17 18  2  0
 18 19  1  0
  5 12  1  0
  5 13  1  0
  6 20  1  0
  1 21  1  0
  1 22  1  0
  4 23  1  0
 10 24  1  1
 11 25  1  0
 11 26  1  0
 12 27  1  0
 12 28  1  0
 13 29  1  6
 14 30  1  0
 14 31  1  0
 15 32  1  0
 17 33  1  0
 18 34  1  0
 20 35  1  0
 20 36  1  0
  8 20  1  0
  7 37  1  0
  7 38  1  0
  8 39  1  0
  8 40  1  0
  9 41  1  0
M  END
>  <smiles>  (628) 
[H]OC(=O)C([H])([H])[C@@]1([H])C([H])([H])C([H])([H])[C@@](S[H])(N2C([H])([H])C([H])([H])C2([H])[H])[C@]([H])(c2c([H])sc([H])c2[H])C1([H])[H]

>  <error>  (628) 


>  <∆∆G>  (628) 
-113.982605

>  <∆G_bound>  (628) 
-24.445376

>  <∆G_unbound>  (628) 
89.537229

>  <comRMSD>  (628) 
1.536875

>  <N_constrained_atoms>  (628) 
20.0

>  <N_unconstrained_atoms>  (628) 
0.0

>  <runtime>  (628) 
2.057189

>  <regarded>  (628) 
['6izx-a', '5f41-a']

>  <disregarded>  (628) 
[]

>  <LE>  (628) 
5.69913

>  <outcome>  (628) 
too moved

>  <percent_hybrid>  (628) 
25.0

$$$$
LIG
     RDKit          3D

 47 50  0  0  0  0  0  0  0  0999 V2000
  -17.0754  -38.4953  -27.1099 C   0  0  0  0  0  0  0  0  0  0  0  0
  -16.6440  -39.9306  -27.1627 C   0  0  0  0  0  0  0  0  0  0  0  0
  -17.3567  -40.8521  -27.5439 O   0  0  0  0  0  0  0  0  0  0  0  0
  -15.3415  -40.0628  -26.7377 O   0  0  0  0  0  0  0  0  0  0  0  0
  -15.9909  -42.7183  -17.2675 C   0  0  0  0  0  0  0  0  0  0  0  0
  -17.8931  -42.0579  -15.9288 O   0  0  0  0  0  0  0  0  0  0  0  0
  -17.1191  -40.5891  -17.4351 O   0  0  0  0  0  0  0  0  0  0  0  0
  -17.0413  -41.6881  -16.9030 C   0  0  0  0  0  0  0  0  0  0  0  0
  -15.4700  -43.3885  -21.5697 C   0  0  1  0  0  0  0  0  0  0  0  0
  -15.2127  -41.9493  -21.5601 O   0  0  0  0  0  0  0  0  0  0  0  0
  -15.2127  -41.4603  -22.8402 C   0  0  0  0  0  0  0  0  0  0  0  0
  -15.3390  -42.3587  -23.8876 C   0  0  0  0  0  0  0  0  0  0  0  0
  -15.2703  -43.9968  -23.2928 S   0  0  0  0  0  0  0  0  0  0  0  0
  -15.3442  -40.5519  -25.4351 C   0  0  0  0  0  0  0  0  0  0  0  0
  -15.4449  -41.9196  -25.1957 C   0  0  0  0  0  0  0  0  0  0  0  0
  -15.0878  -40.1014  -23.0749 C   0  0  0  0  0  0  0  0  0  0  0  0
  -15.1411  -39.6447  -24.3898 C   0  0  0  0  0  0  0  0  0  0  0  0
  -15.8248  -42.8293  -18.7991 C   0  0  1  0  0  0  0  0  0  0  0  0
  -14.4582  -43.4071  -19.2046 C   0  0  0  0  0  0  0  0  0  0  0  0
  -14.4151  -43.9975  -20.6323 C   0  0  0  0  0  0  0  0  0  0  0  0
  -16.9089  -43.6555  -20.9747 C   0  0  2  0  0  0  0  0  0  0  0  0
  -16.9424  -43.6660  -19.4207 C   0  0  0  0  0  0  0  0  0  0  0  0
  -18.7170  -46.4849  -23.0222 C   0  0  0  0  0  0  0  0  0  0  0  0
  -18.1812  -47.1282  -21.9333 C   0  0  0  0  0  0  0  0  0  0  0  0
  -17.4889  -46.2292  -21.0790 C   0  0  0  0  0  0  0  0  0  0  0  0
  -17.5861  -44.9155  -21.5045 C   0  0  0  0  0  0  0  0  0  0  0  0
  -18.6319  -44.7897  -22.8684 S   0  0  0  0  0  0  0  0  0  0  0  0
  -17.2606  -38.1963  -26.0760 H   0  0  0  0  0  0  0  0  0  0  0  0
  -16.3166  -37.8527  -27.5621 H   0  0  0  0  0  0  0  0  0  0  0  0
  -18.0022  -38.3858  -27.6767 H   0  0  0  0  0  0  0  0  0  0  0  0
  -15.0558  -42.3927  -16.7976 H   0  0  0  0  0  0  0  0  0  0  0  0
  -16.2510  -43.6924  -16.8454 H   0  0  0  0  0  0  0  0  0  0  0  0
  -17.8176  -42.9518  -15.5283 H   0  0  0  0  0  0  0  0  0  0  0  0
  -15.5757  -42.6201  -26.0122 H   0  0  0  0  0  0  0  0  0  0  0  0
  -14.9602  -39.4104  -22.2477 H   0  0  0  0  0  0  0  0  0  0  0  0
  -15.0461  -38.5859  -24.5984 H   0  0  0  0  0  0  0  0  0  0  0  0
  -15.8916  -41.8162  -19.2146 H   0  0  0  0  0  0  0  0  0  0  0  0
  -13.7045  -42.6141  -19.1184 H   0  0  0  0  0  0  0  0  0  0  0  0
  -14.1564  -44.1874  -18.4998 H   0  0  0  0  0  0  0  0  0  0  0  0
  -13.4020  -43.8431  -21.0251 H   0  0  0  0  0  0  0  0  0  0  0  0
  -14.5705  -45.0799  -20.5601 H   0  0  0  0  0  0  0  0  0  0  0  0
  -17.5289  -42.7940  -21.2683 H   0  0  0  0  0  0  0  0  0  0  0  0
  -16.8627  -44.6822  -19.0173 H   0  0  0  0  0  0  0  0  0  0  0  0
  -17.9242  -43.2980  -19.0942 H   0  0  0  0  0  0  0  0  0  0  0  0
  -19.1969  -46.9400  -23.8782 H   0  0  0  0  0  0  0  0  0  0  0  0
  -18.1962  -48.2045  -21.8166 H   0  0  0  0  0  0  0  0  0  0  0  0
  -16.9078  -46.5554  -20.2266 H   0  0  0  0  0  0  0  0  0  0  0  0
  4  2  1  0
  2  3  2  0
  2  1  1  0
  7  8  2  0
  5  8  1  0
  8  6  1  0
  9 10  1  1
  9 13  1  0
 10 11  1  0
 11 16  1  0
 11 12  2  0
 12 13  1  0
 12 15  1  0
 14 17  1  0
 14 15  2  0
 14  4  1  0
 16 17  2  0
 18 22  1  0
 18  5  1  0
 18 19  1  0
 19 20  1  0
 21 26  1  0
 21 22  1  0
 23 24  2  0
 23 27  1  0
 24 25  1  0
 25 26  2  0
 26 27  1  0
  9 20  1  0
  9 21  1  0
  1 28  1  0
  1 29  1  0
  1 30  1  0
  5 31  1  0
  5 32  1  0
  6 33  1  0
 15 34  1  0
 16 35  1  0
 17 36  1  0
 18 37  1  6
 19 38  1  0
 19 39  1  0
 20 40  1  0
 20 41  1  0
 21 42  1  1
 22 43  1  0
 22 44  1  0
 23 45  1  0
 24 46  1  0
 25 47  1  0
M  END
>  <smiles>  (629) 
[H]OC(=O)C([H])([H])[C@@]1([H])C([H])([H])C([H])([H])[C@@]2(Oc3c([H])c([H])c(OC(=O)C([H])([H])[H])c([H])c3S2)[C@]([H])(c2sc([H])c([H])c2[H])C1([H])[H]

>  <error>  (629) 


>  <∆∆G>  (629) 
-64.535462

>  <∆G_bound>  (629) 
213.011091

>  <∆G_unbound>  (629) 
277.546553

>  <comRMSD>  (629) 
1.317568

>  <N_constrained_atoms>  (629) 
27.0

>  <N_unconstrained_atoms>  (629) 
0.0

>  <runtime>  (629) 
4.565276

>  <regarded>  (629) 
['6izx-a', '6h80-a']

>  <disregarded>  (629) 
[]

>  <LE>  (629) 
2.390202

>  <outcome>  (629) 
too moved

>  <percent_hybrid>  (629) 
49.0

$$$$

     RDKit          2D

  0  0  0  0  0  0  0  0  0  0999 V2000
M  END
>  <smiles>  (630) 
nan

>  <error>  (630) 
FragmensteinError Ideal compound failed. Something is wrong with the SMILES

>  <∆∆G>  (630) 
nan

>  <∆G_bound>  (630) 
nan

>  <∆G_unbound>  (630) 
nan

>  <comRMSD>  (630) 
nan

>  <N_constrained_atoms>  (630) 
nan

>  <N_unconstrained_atoms>  (630) 
nan

>  <runtime>  (630) 
nan

>  <regarded>  (630) 
[]

>  <disregarded>  (630) 
[]

>  <LE>  (630) 
nan

>  <outcome>  (630) 
crashed

>  <percent_hybrid>  (630) 
nan

$$$$

     RDKit          2D

  0  0  0  0  0  0  0  0  0  0999 V2000
M  END
>  <smiles>  (631) 
nan

>  <error>  (631) 
FragmensteinError Ideal compound failed. Something is wrong with the SMILES

>  <∆∆G>  (631) 
nan

>  <∆G_bound>  (631) 
nan

>  <∆G_unbound>  (631) 
nan

>  <comRMSD>  (631) 
nan

>  <N_constrained_atoms>  (631) 
nan

>  <N_unconstrained_atoms>  (631) 
nan

>  <runtime>  (631) 
nan

>  <regarded>  (631) 
[]

>  <disregarded>  (631) 
[]

>  <LE>  (631) 
nan

>  <outcome>  (631) 
crashed

>  <percent_hybrid>  (631) 
nan

$$$$

     RDKit          2D

  0  0  0  0  0  0  0  0  0  0999 V2000
M  END
>  <smiles>  (632) 
nan

>  <error>  (632) 
FragmensteinError Ideal compound failed. Something is wrong with the SMILES

>  <∆∆G>  (632) 
nan

>  <∆G_bound>  (632) 
nan

>  <∆G_unbound>  (632) 
nan

>  <comRMSD>  (632) 
nan

>  <N_constrained_atoms>  (632) 
nan

>  <N_unconstrained_atoms>  (632) 
nan

>  <runtime>  (632) 
nan

>  <regarded>  (632) 
[]

>  <disregarded>  (632) 
[]

>  <LE>  (632) 
nan

>  <outcome>  (632) 
crashed

>  <percent_hybrid>  (632) 
nan

$$$$

     RDKit          2D

  0  0  0  0  0  0  0  0  0  0999 V2000
M  END
>  <smiles>  (633) 
nan

>  <error>  (633) 
FragmensteinError Ideal compound failed. Something is wrong with the SMILES

>  <∆∆G>  (633) 
nan

>  <∆G_bound>  (633) 
nan

>  <∆G_unbound>  (633) 
nan

>  <comRMSD>  (633) 
nan

>  <N_constrained_atoms>  (633) 
nan

>  <N_unconstrained_atoms>  (633) 
nan

>  <runtime>  (633) 
nan

>  <regarded>  (633) 
[]

>  <disregarded>  (633) 
[]

>  <LE>  (633) 
nan

>  <outcome>  (633) 
crashed

>  <percent_hybrid>  (633) 
nan

$$$$

     RDKit          2D

  0  0  0  0  0  0  0  0  0  0999 V2000
M  END
>  <smiles>  (634) 
nan

>  <error>  (634) 
FragmensteinError Ideal compound failed. Something is wrong with the SMILES

>  <∆∆G>  (634) 
nan

>  <∆G_bound>  (634) 
nan

>  <∆G_unbound>  (634) 
nan

>  <comRMSD>  (634) 
nan

>  <N_constrained_atoms>  (634) 
nan

>  <N_unconstrained_atoms>  (634) 
nan

>  <runtime>  (634) 
nan

>  <regarded>  (634) 
[]

>  <disregarded>  (634) 
[]

>  <LE>  (634) 
nan

>  <outcome>  (634) 
crashed

>  <percent_hybrid>  (634) 
nan

$$$$
LIG
     RDKit          3D

 56 59  0  0  0  0  0  0  0  0999 V2000
  -17.0514  -38.6770  -27.2741 C   0  0  0  0  0  0  0  0  0  0  0  0
  -16.5056  -40.0752  -27.2404 C   0  0  0  0  0  0  0  0  0  0  0  0
  -17.1312  -41.0553  -27.6285 O   0  0  0  0  0  0  0  0  0  0  0  0
  -15.2371  -40.1164  -26.7057 O   0  0  0  0  0  0  0  0  0  0  0  0
  -14.9354  -43.9982  -16.8967 C   0  0  0  0  0  0  0  0  0  0  0  0
  -17.0104  -43.0108  -16.2505 O   0  0  0  0  0  0  0  0  0  0  0  0
  -13.6286  -39.5853  -20.6199 O   0  0  0  0  0  0  0  0  0  0  0  0
  -11.9755  -40.0755  -22.0188 O   0  0  0  0  0  0  0  0  0  0  0  0
  -12.9515  -40.4390  -21.1674 C   0  0  0  0  0  0  0  0  0  0  0  0
  -12.9964  -41.9348  -20.9576 C   0  0  0  0  0  0  0  0  0  0  0  0
  -15.7592  -43.2943  -15.8433 C   0  0  0  0  0  0  0  0  0  0  0  0
  -15.3862  -43.0714  -14.7029 O   0  0  0  0  0  0  0  0  0  0  0  0
  -15.4881  -42.9152  -21.2214 C   0  0  1  0  0  0  0  0  0  0  0  0
  -16.1250  -41.6240  -21.5209 O   0  0  0  0  0  0  0  0  0  0  0  0
  -15.7736  -41.2093  -22.7722 C   0  0  0  0  0  0  0  0  0  0  0  0
  -15.3578  -42.1682  -23.6729 C   0  0  0  0  0  0  0  0  0  0  0  0
  -15.0045  -43.6788  -22.8483 S   0  0  0  0  0  0  0  0  0  0  0  0
  -15.3738  -40.4908  -25.3749 C   0  0  0  0  0  0  0  0  0  0  0  0
  -15.2280  -41.8297  -25.0046 C   0  0  0  0  0  0  0  0  0  0  0  0
  -15.8683  -39.8703  -23.1134 C   0  0  0  0  0  0  0  0  0  0  0  0
  -15.6095  -39.4973  -24.4233 C   0  0  0  0  0  0  0  0  0  0  0  0
  -15.2385  -43.5136  -18.3166 C   0  0  1  0  0  0  0  0  0  0  0  0
  -13.9652  -43.3476  -19.1357 C   0  0  0  0  0  0  0  0  0  0  0  0
  -14.2998  -42.4190  -20.2940 C   0  0  1  0  0  0  0  0  0  0  0  0
  -16.6215  -43.7706  -20.4446 C   0  0  2  0  0  0  0  0  0  0  0  0
  -16.1422  -44.4398  -19.1258 C   0  0  0  0  0  0  0  0  0  0  0  0
  -18.1513  -46.9679  -22.0057 C   0  0  0  0  0  0  0  0  0  0  0  0
  -17.4997  -46.1266  -21.1052 C   0  0  0  0  0  0  0  0  0  0  0  0
  -17.4616  -44.7354  -21.3098 C   0  0  0  0  0  0  0  0  0  0  0  0
  -18.1910  -44.2164  -22.3954 C   0  0  0  0  0  0  0  0  0  0  0  0
  -18.7995  -45.0606  -23.3228 C   0  0  0  0  0  0  0  0  0  0  0  0
  -18.7420  -46.4385  -23.1450 C   0  0  0  0  0  0  0  0  0  0  0  0
  -17.4627  -38.4049  -26.3004 H   0  0  0  0  0  0  0  0  0  0  0  0
  -16.2763  -37.9672  -27.5711 H   0  0  0  0  0  0  0  0  0  0  0  0
  -17.8595  -38.6345  -28.0062 H   0  0  0  0  0  0  0  0  0  0  0  0
  -13.8912  -43.7868  -16.6369 H   0  0  0  0  0  0  0  0  0  0  0  0
  -15.0896  -45.0757  -16.8017 H   0  0  0  0  0  0  0  0  0  0  0  0
  -17.5218  -42.8535  -15.4212 H   0  0  0  0  0  0  0  0  0  0  0  0
  -11.9649  -39.0970  -21.9830 H   0  0  0  0  0  0  0  0  0  0  0  0
  -12.8293  -42.4455  -21.8969 H   0  0  0  0  0  0  0  0  0  0  0  0
  -12.1299  -42.1598  -20.3232 H   0  0  0  0  0  0  0  0  0  0  0  0
  -15.0134  -42.5870  -25.7391 H   0  0  0  0  0  0  0  0  0  0  0  0
  -16.1354  -39.1328  -22.3624 H   0  0  0  0  0  0  0  0  0  0  0  0
  -15.6494  -38.4505  -24.7069 H   0  0  0  0  0  0  0  0  0  0  0  0
  -15.7314  -42.5357  -18.2339 H   0  0  0  0  0  0  0  0  0  0  0  0
  -13.1863  -42.8868  -18.5151 H   0  0  0  0  0  0  0  0  0  0  0  0
  -13.5666  -44.3028  -19.4967 H   0  0  0  0  0  0  0  0  0  0  0  0
  -14.6979  -41.5267  -19.7857 H   0  0  0  0  0  0  0  0  0  0  0  0
  -17.3603  -43.0278  -20.1005 H   0  0  0  0  0  0  0  0  0  0  0  0
  -15.5869  -45.3623  -19.3351 H   0  0  0  0  0  0  0  0  0  0  0  0
  -17.0178  -44.7241  -18.5283 H   0  0  0  0  0  0  0  0  0  0  0  0
  -18.1462  -48.0440  -21.8532 H   0  0  0  0  0  0  0  0  0  0  0  0
  -16.9993  -46.5997  -20.2688 H   0  0  0  0  0  0  0  0  0  0  0  0
  -18.2299  -43.1426  -22.5665 H   0  0  0  0  0  0  0  0  0  0  0  0
  -19.2983  -44.6429  -24.1921 H   0  0  0  0  0  0  0  0  0  0  0  0
  -19.1694  -47.1080  -23.8880 H   0  0  0  0  0  0  0  0  0  0  0  0
  4  2  1  0
  2  3  2  0
  2  1  1  0
  5 11  1  0
 11 12  2  0
 11  6  1  0
 10  9  1  0
  7  9  2  0
  9  8  1  0
 13 14  1  1
 13 17  1  0
 14 15  1  0
 15 20  1  0
 15 16  2  0
 16 17  1  0
 16 19  1  0
 18 21  1  0
 18 19  2  0
 18  4  1  0
 20 21  2  0
 22 26  1  0
 22  5  1  0
 22 23  1  0
 23 24  1  0
 24 10  1  0
 25 29  1  0
 25 26  1  0
 27 32  2  0
 27 28  1  0
 28 29  2  0
 29 30  1  0
 30 31  2  0
 31 32  1  0
 13 24  1  0
 13 25  1  0
  1 33  1  0
  1 34  1  0
  1 35  1  0
  5 36  1  0
  5 37  1  0
  6 38  1  0
  8 39  1  0
 10 40  1  0
 10 41  1  0
 19 42  1  0
 20 43  1  0
 21 44  1  0
 22 45  1  1
 23 46  1  0
 23 47  1  0
 24 48  1  1
 25 49  1  1
 26 50  1  0
 26 51  1  0
 27 52  1  0
 28 53  1  0
 30 54  1  0
 31 55  1  0
 32 56  1  0
M  END
>  <smiles>  (635) 
[H]OC(=O)C([H])([H])[C@@]1([H])C([H])([H])[C@@]([H])(C([H])([H])C(=O)O[H])[C@@]2(Oc3c([H])c([H])c(OC(=O)C([H])([H])[H])c([H])c3S2)[C@@]([H])(c2c([H])c([H])c([H])c([H])c2[H])C1([H])[H]

>  <error>  (635) 


>  <∆∆G>  (635) 
-345.247619

>  <∆G_bound>  (635) 
206.841418

>  <∆G_unbound>  (635) 
552.089037

>  <comRMSD>  (635) 
1.212101

>  <N_constrained_atoms>  (635) 
32.0

>  <N_unconstrained_atoms>  (635) 
0.0

>  <runtime>  (635) 
3.567311

>  <regarded>  (635) 
['6izx-a', '5hmw-b']

>  <disregarded>  (635) 
[]

>  <LE>  (635) 
10.788988

>  <outcome>  (635) 
too moved

>  <percent_hybrid>  (635) 
41.0

$$$$

     RDKit          2D

  0  0  0  0  0  0  0  0  0  0999 V2000
M  END
>  <smiles>  (636) 
nan

>  <error>  (636) 
FragmensteinError Ideal compound failed. Something is wrong with the SMILES

>  <∆∆G>  (636) 
nan

>  <∆G_bound>  (636) 
nan

>  <∆G_unbound>  (636) 
nan

>  <comRMSD>  (636) 
nan

>  <N_constrained_atoms>  (636) 
nan

>  <N_unconstrained_atoms>  (636) 
nan

>  <runtime>  (636) 
nan

>  <regarded>  (636) 
[]

>  <disregarded>  (636) 
[]

>  <LE>  (636) 
nan

>  <outcome>  (636) 
crashed

>  <percent_hybrid>  (636) 
nan

$$$$
LIG
     RDKit          3D

 47 50  0  0  0  0  0  0  0  0999 V2000
  -17.0680  -38.5032  -27.1094 C   0  0  0  0  0  0  0  0  0  0  0  0
  -16.6388  -39.9395  -27.1545 C   0  0  0  0  0  0  0  0  0  0  0  0
  -17.3527  -40.8616  -27.5322 O   0  0  0  0  0  0  0  0  0  0  0  0
  -15.3373  -40.0715  -26.7263 O   0  0  0  0  0  0  0  0  0  0  0  0
  -15.9872  -42.7225  -17.2548 C   0  0  0  0  0  0  0  0  0  0  0  0
  -17.8885  -42.0620  -15.9165 O   0  0  0  0  0  0  0  0  0  0  0  0
  -17.1158  -40.5926  -17.4232 O   0  0  0  0  0  0  0  0  0  0  0  0
  -17.0372  -41.6914  -16.8913 C   0  0  0  0  0  0  0  0  0  0  0  0
  -15.4716  -43.3967  -21.5561 C   0  0  1  0  0  0  0  0  0  0  0  0
  -15.2152  -41.9569  -21.5474 O   0  0  0  0  0  0  0  0  0  0  0  0
  -15.2135  -41.4685  -22.8279 C   0  0  0  0  0  0  0  0  0  0  0  0
  -15.3388  -42.3673  -23.8750 C   0  0  0  0  0  0  0  0  0  0  0  0
  -15.2704  -44.0052  -23.2791 S   0  0  0  0  0  0  0  0  0  0  0  0
  -15.3417  -40.5608  -25.4236 C   0  0  0  0  0  0  0  0  0  0  0  0
  -15.4431  -41.9285  -25.1836 C   0  0  0  0  0  0  0  0  0  0  0  0
  -15.0874  -40.1097  -23.0632 C   0  0  0  0  0  0  0  0  0  0  0  0
  -15.1388  -39.6532  -24.3785 C   0  0  0  0  0  0  0  0  0  0  0  0
  -15.8256  -42.8391  -18.7855 C   0  0  1  0  0  0  0  0  0  0  0  0
  -14.4568  -43.4099  -19.1924 C   0  0  0  0  0  0  0  0  0  0  0  0
  -14.4158  -44.0047  -20.6182 C   0  0  0  0  0  0  0  0  0  0  0  0
  -16.9105  -43.6644  -20.9584 C   0  0  2  0  0  0  0  0  0  0  0  0
  -16.9389  -43.6842  -19.4038 C   0  0  0  0  0  0  0  0  0  0  0  0
  -18.7196  -46.4749  -23.0296 C   0  0  0  0  0  0  0  0  0  0  0  0
  -18.1944  -47.1261  -21.9401 C   0  0  0  0  0  0  0  0  0  0  0  0
  -17.5051  -46.2345  -21.0754 C   0  0  0  0  0  0  0  0  0  0  0  0
  -17.5925  -44.9184  -21.4955 C   0  0  0  0  0  0  0  0  0  0  0  0
  -18.6309  -44.7811  -22.8644 S   0  0  0  0  0  0  0  0  0  0  0  0
  -17.2560  -38.1997  -26.0773 H   0  0  0  0  0  0  0  0  0  0  0  0
  -16.3066  -37.8637  -27.5615 H   0  0  0  0  0  0  0  0  0  0  0  0
  -17.9925  -38.3943  -27.6801 H   0  0  0  0  0  0  0  0  0  0  0  0
  -15.0512  -42.3940  -16.7885 H   0  0  0  0  0  0  0  0  0  0  0  0
  -16.2446  -43.6952  -16.8283 H   0  0  0  0  0  0  0  0  0  0  0  0
  -17.8079  -42.9568  -15.5208 H   0  0  0  0  0  0  0  0  0  0  0  0
  -15.5733  -42.6293  -25.9999 H   0  0  0  0  0  0  0  0  0  0  0  0
  -14.9601  -39.4184  -22.2363 H   0  0  0  0  0  0  0  0  0  0  0  0
  -15.0420  -38.5946  -24.5875 H   0  0  0  0  0  0  0  0  0  0  0  0
  -15.8992  -41.8278  -19.2042 H   0  0  0  0  0  0  0  0  0  0  0  0
  -13.7077  -42.6119  -19.1117 H   0  0  0  0  0  0  0  0  0  0  0  0
  -14.1480  -44.1856  -18.4859 H   0  0  0  0  0  0  0  0  0  0  0  0
  -13.4030  -43.8523  -21.0126 H   0  0  0  0  0  0  0  0  0  0  0  0
  -14.5724  -45.0868  -20.5430 H   0  0  0  0  0  0  0  0  0  0  0  0
  -17.5290  -42.7994  -21.2445 H   0  0  0  0  0  0  0  0  0  0  0  0
  -16.8472  -44.7017  -19.0062 H   0  0  0  0  0  0  0  0  0  0  0  0
  -17.9225  -43.3266  -19.0715 H   0  0  0  0  0  0  0  0  0  0  0  0
  -19.1957  -46.9234  -23.8912 H   0  0  0  0  0  0  0  0  0  0  0  0
  -18.2146  -48.2030  -21.8292 H   0  0  0  0  0  0  0  0  0  0  0  0
  -16.9313  -46.5684  -20.2211 H   0  0  0  0  0  0  0  0  0  0  0  0
  4  2  1  0
  2  3  2  0
  2  1  1  0
  7  8  2  0
  5  8  1  0
  8  6  1  0
  9 10  1  1
  9 13  1  0
 10 11  1  0
 11 16  1  0
 11 12  2  0
 12 13  1  0
 12 15  1  0
 14 17  1  0
 14 15  2  0
 14  4  1  0
 16 17  2  0
 18 22  1  0
 18  5  1  0
 18 19  1  0
 19 20  1  0
 21 26  1  0
 21 22  1  0
 23 24  2  0
 23 27  1  0
 24 25  1  0
 25 26  2  0
 26 27  1  0
  9 20  1  0
  9 21  1  0
  1 28  1  0
  1 29  1  0
  1 30  1  0
  5 31  1  0
  5 32  1  0
  6 33  1  0
 15 34  1  0
 16 35  1  0
 17 36  1  0
 18 37  1  6
 19 38  1  0
 19 39  1  0
 20 40  1  0
 20 41  1  0
 21 42  1  1
 22 43  1  0
 22 44  1  0
 23 45  1  0
 24 46  1  0
 25 47  1  0
M  END
>  <smiles>  (637) 
[H]OC(=O)C([H])([H])[C@@]1([H])C([H])([H])C([H])([H])[C@@]2(Oc3c([H])c([H])c(OC(=O)C([H])([H])[H])c([H])c3S2)[C@]([H])(c2sc([H])c([H])c2[H])C1([H])[H]

>  <error>  (637) 


>  <∆∆G>  (637) 
-64.510109

>  <∆G_bound>  (637) 
204.934102

>  <∆G_unbound>  (637) 
269.444212

>  <comRMSD>  (637) 
1.316015

>  <N_constrained_atoms>  (637) 
27.0

>  <N_unconstrained_atoms>  (637) 
0.0

>  <runtime>  (637) 
3.253886

>  <regarded>  (637) 
['6izx-a', '6h9r-a']

>  <disregarded>  (637) 
[]

>  <LE>  (637) 
2.389263

>  <outcome>  (637) 
too moved

>  <percent_hybrid>  (637) 
49.0

$$$$
LIG
     RDKit          3D

 54 57  0  0  0  0  0  0  0  0999 V2000
  -17.5652  -37.4047  -25.2896 C   0  0  0  0  0  0  0  0  0  0  0  0
  -18.0003  -38.1757  -26.5062 C   0  0  0  0  0  0  0  0  0  0  0  0
  -18.9638  -37.8354  -27.1923 O   0  0  0  0  0  0  0  0  0  0  0  0
  -17.2246  -39.2803  -26.8339 O   0  0  0  0  0  0  0  0  0  0  0  0
  -13.1137  -43.9364  -16.8855 O   0  0  0  0  0  0  0  0  0  0  0  0
  -11.5801  -42.5811  -17.8106 O   0  0  0  0  0  0  0  0  0  0  0  0
  -12.6674  -43.3654  -17.8749 C   0  0  0  0  0  0  0  0  0  0  0  0
  -13.3078  -43.4860  -19.2362 C   0  0  0  0  0  0  0  0  0  0  0  0
  -16.1939  -42.7586  -21.7967 C   0  0  2  0  0  0  0  0  0  0  0  0
  -15.0552  -42.4358  -22.7425 N   0  0  0  0  0  0  0  0  0  0  0  0
  -15.5554  -41.5665  -23.7565 C   0  0  0  0  0  0  0  0  0  0  0  0
  -16.9310  -41.5330  -23.9627 C   0  0  0  0  0  0  0  0  0  0  0  0
  -17.7808  -42.4557  -22.7420 S   0  0  0  0  0  0  0  0  0  0  0  0
  -16.6665  -40.0216  -25.7821 C   0  0  0  0  0  0  0  0  0  0  0  0
  -17.5032  -40.8011  -24.9893 C   0  0  0  0  0  0  0  0  0  0  0  0
  -14.7432  -40.7563  -24.5406 C   0  0  0  0  0  0  0  0  0  0  0  0
  -15.2883  -39.9900  -25.5732 C   0  0  0  0  0  0  0  0  0  0  0  0
  -16.1831  -41.6224  -20.7300 C   0  0  0  0  0  0  0  0  0  0  0  0
  -14.9323  -41.6566  -19.8646 C   0  0  0  0  0  0  0  0  0  0  0  0
  -14.7626  -42.9854  -19.1347 C   0  0  1  0  0  0  0  0  0  0  0  0
  -15.8146  -44.0254  -19.5393 C   0  0  0  0  0  0  0  0  0  0  0  0
  -16.0702  -44.1679  -21.0635 C   0  0  1  0  0  0  0  0  0  0  0  0
  -18.3536  -46.5550  -23.0086 C   0  0  0  0  0  0  0  0  0  0  0  0
  -17.4448  -45.5543  -22.6814 C   0  0  0  0  0  0  0  0  0  0  0  0
  -17.1711  -45.1953  -21.3570 C   0  0  0  0  0  0  0  0  0  0  0  0
  -17.9175  -45.8341  -20.3675 C   0  0  0  0  0  0  0  0  0  0  0  0
  -18.8205  -46.8359  -20.6992 C   0  0  0  0  0  0  0  0  0  0  0  0
  -18.9577  -47.2681  -22.0022 C   0  0  0  0  0  0  0  0  0  0  0  0
  -14.3222  -43.5384  -23.3816 C   0  0  0  0  0  0  0  0  0  0  0  0
  -17.8539  -37.9254  -24.3744 H   0  0  0  0  0  0  0  0  0  0  0  0
  -16.4886  -37.2201  -25.3193 H   0  0  0  0  0  0  0  0  0  0  0  0
  -18.0595  -36.4278  -25.2992 H   0  0  0  0  0  0  0  0  0  0  0  0
  -11.1719  -42.3686  -18.6816 H   0  0  0  0  0  0  0  0  0  0  0  0
  -12.7210  -42.9320  -19.9753 H   0  0  0  0  0  0  0  0  0  0  0  0
  -13.2561  -44.5364  -19.5385 H   0  0  0  0  0  0  0  0  0  0  0  0
  -18.5753  -40.8172  -25.1516 H   0  0  0  0  0  0  0  0  0  0  0  0
  -13.6878  -40.7174  -24.3309 H   0  0  0  0  0  0  0  0  0  0  0  0
  -14.6441  -39.3818  -26.2021 H   0  0  0  0  0  0  0  0  0  0  0  0
  -17.0695  -41.6887  -20.0838 H   0  0  0  0  0  0  0  0  0  0  0  0
  -16.2276  -40.6279  -21.1958 H   0  0  0  0  0  0  0  0  0  0  0  0
  -14.0621  -41.4104  -20.4837 H   0  0  0  0  0  0  0  0  0  0  0  0
  -14.9929  -40.8475  -19.1252 H   0  0  0  0  0  0  0  0  0  0  0  0
  -14.9818  -42.7720  -18.0782 H   0  0  0  0  0  0  0  0  0  0  0  0
  -15.5414  -44.9971  -19.1057 H   0  0  0  0  0  0  0  0  0  0  0  0
  -16.7523  -43.7310  -19.0472 H   0  0  0  0  0  0  0  0  0  0  0  0
  -15.1635  -44.6722  -21.4129 H   0  0  0  0  0  0  0  0  0  0  0  0
  -18.5537  -46.8267  -24.0392 H   0  0  0  0  0  0  0  0  0  0  0  0
  -16.9337  -45.0457  -23.4884 H   0  0  0  0  0  0  0  0  0  0  0  0
  -17.8319  -45.5757  -19.3176 H   0  0  0  0  0  0  0  0  0  0  0  0
  -19.4399  -47.2679  -19.9292 H   0  0  0  0  0  0  0  0  0  0  0  0
  -19.5830  -48.1217  -22.2360 H   0  0  0  0  0  0  0  0  0  0  0  0
  -13.6165  -43.9776  -22.6700 H   0  0  0  0  0  0  0  0  0  0  0  0
  -14.9946  -44.3153  -23.7462 H   0  0  0  0  0  0  0  0  0  0  0  0
  -13.7337  -43.2183  -24.2460 H   0  0  0  0  0  0  0  0  0  0  0  0
  4  2  1  0
  2  3  2  0
  2  1  1  0
  5  7  2  0
  8  7  1  0
  7  6  1  0
  9 10  1  0
  9 13  1  1
 10 11  1  0
 11 16  1  0
 11 12  2  0
 12 13  1  0
 12 15  1  0
 14 17  1  0
 14 15  2  0
 14  4  1  0
 16 17  2  0
 18 19  1  0
 19 20  1  0
 20 21  1  0
 20  8  1  0
 21 22  1  0
 22 25  1  0
 23 28  2  0
 23 24  1  0
 24 25  2  0
 25 26  1  0
 26 27  2  0
 27 28  1  0
  9 22  1  0
  9 18  1  0
 10 29  1  0
  1 30  1  0
  1 31  1  0
  1 32  1  0
  6 33  1  0
  8 34  1  0
  8 35  1  0
 15 36  1  0
 16 37  1  0
 17 38  1  0
 18 39  1  0
 18 40  1  0
 19 41  1  0
 19 42  1  0
 20 43  1  1
 21 44  1  0
 21 45  1  0
 22 46  1  6
 23 47  1  0
 24 48  1  0
 26 49  1  0
 27 50  1  0
 28 51  1  0
 29 52  1  0
 29 53  1  0
 29 54  1  0
M  END
>  <smiles>  (638) 
[H]OC(=O)C([H])([H])[C@@]1([H])C([H])([H])C([H])([H])[C@@]2(Sc3c([H])c(OC(=O)C([H])([H])[H])c([H])c([H])c3N2C([H])([H])[H])[C@]([H])(c2c([H])c([H])c([H])c([H])c2[H])C1([H])[H]

>  <error>  (638) 


>  <∆∆G>  (638) 
-46.794355

>  <∆G_bound>  (638) 
172.777122

>  <∆G_unbound>  (638) 
219.571477

>  <comRMSD>  (638) 
2.057819

>  <N_constrained_atoms>  (638) 
29.0

>  <N_unconstrained_atoms>  (638) 
0.0

>  <runtime>  (638) 
3.842397

>  <regarded>  (638) 
['6izx-a', '5f3t-a']

>  <disregarded>  (638) 
[]

>  <LE>  (638) 
1.613598

>  <outcome>  (638) 
too moved

>  <percent_hybrid>  (638) 
45.0

$$$$

     RDKit          2D

  0  0  0  0  0  0  0  0  0  0999 V2000
M  END
>  <smiles>  (639) 
nan

>  <error>  (639) 
DistanceError 5.61 Å

>  <∆∆G>  (639) 
nan

>  <∆G_bound>  (639) 
nan

>  <∆G_unbound>  (639) 
nan

>  <comRMSD>  (639) 
nan

>  <N_constrained_atoms>  (639) 
nan

>  <N_unconstrained_atoms>  (639) 
nan

>  <runtime>  (639) 
nan

>  <regarded>  (639) 
[]

>  <disregarded>  (639) 
[]

>  <LE>  (639) 
nan

>  <outcome>  (639) 
too distant

>  <percent_hybrid>  (639) 
nan

$$$$
LIG
     RDKit          3D

 70 75  0  0  0  0  0  0  0  0999 V2000
  -21.9914  -45.8000  -26.8374 O   0  0  0  0  0  0  0  0  0  0  0  0
  -16.7331  -42.2613  -16.8580 O   0  0  0  0  0  0  0  0  0  0  0  0
  -15.8573  -43.5594  -13.9565 O   0  0  0  0  0  0  0  0  0  0  0  0
  -19.4704  -46.1462  -24.5341 C   0  0  0  0  0  0  0  0  0  0  0  0
  -20.0971  -46.3568  -25.5391 C   0  0  0  0  0  0  0  0  0  0  0  0
  -20.8503  -46.6414  -26.7612 C   0  0  0  0  0  0  0  0  0  0  0  0
  -15.8725  -42.9976  -17.1399 C   0  0  0  0  0  0  0  0  0  0  0  0
  -13.6669  -44.7180  -14.2979 O   0  0  0  0  0  0  0  0  0  0  0  0
  -14.5884  -43.6505  -14.6267 S   0  0  0  0  0  0  0  0  0  0  0  0
  -14.8488  -43.7447  -16.2366 N   0  0  0  0  0  0  0  0  0  0  0  0
  -13.2199  -42.4472  -18.4502 C   0  0  0  0  0  0  0  0  0  0  0  0
  -15.2952  -43.8212  -22.6562 O   0  0  0  0  0  0  0  0  0  0  0  0
  -14.2784  -43.0711  -23.3305 C   0  0  0  0  0  0  0  0  0  0  0  0
  -15.3060  -43.8169  -21.2869 C   0  0  0  0  0  0  0  0  0  0  0  0
  -14.2244  -43.4024  -20.5104 C   0  0  0  0  0  0  0  0  0  0  0  0
  -14.3818  -43.0853  -19.1606 C   0  0  0  0  0  0  0  0  0  0  0  0
  -15.6212  -43.3565  -18.5602 C   0  0  0  0  0  0  0  0  0  0  0  0
  -16.6563  -43.9711  -19.2908 C   0  0  0  0  0  0  0  0  0  0  0  0
  -16.4966  -44.2254  -20.6605 C   0  0  0  0  0  0  0  0  0  0  0  0
  -18.7997  -45.9186  -23.2892 C   0  0  0  0  0  0  0  0  0  0  0  0
  -18.5358  -46.8810  -22.3368 C   0  0  0  0  0  0  0  0  0  0  0  0
  -17.7827  -46.3635  -21.2406 C   0  0  0  0  0  0  0  0  0  0  0  0
  -17.4747  -45.0265  -21.4108 C   0  0  0  0  0  0  0  0  0  0  0  0
  -18.3081  -44.3770  -22.7607 S   0  0  0  0  0  0  0  0  0  0  0  0
  -14.6406  -41.0853  -13.7916 C   0  0  0  0  0  0  0  0  0  0  0  0
  -14.0939  -39.8506  -13.5012 C   0  0  0  0  0  0  0  0  0  0  0  0
  -12.7624  -39.6211  -13.8131 C   0  0  0  0  0  0  0  0  0  0  0  0
  -11.9799  -40.6229  -14.4163 C   0  0  0  0  0  0  0  0  0  0  0  0
  -12.5158  -41.8931  -14.7244 C   0  0  0  0  0  0  0  0  0  0  0  0
  -13.8487  -42.0845  -14.3913 C   0  0  0  0  0  0  0  0  0  0  0  0
  -10.6368  -40.3756  -14.7141 C   0  0  0  0  0  0  0  0  0  0  0  0
   -9.8523  -41.3750  -15.2681 C   0  0  0  0  0  0  0  0  0  0  0  0
  -10.4481  -42.5889  -15.5276 C   0  0  0  0  0  0  0  0  0  0  0  0
  -11.7558  -42.8469  -15.3158 N   0  0  0  0  0  0  0  0  0  0  0  0
  -14.2694  -41.5680  -23.1081 C   0  0  0  0  0  0  0  0  0  0  0  0
  -13.5437  -40.8365  -22.1800 C   0  0  0  0  0  0  0  0  0  0  0  0
  -13.7681  -39.5225  -22.4369 N   0  0  0  0  0  0  0  0  0  0  0  0
  -14.5241  -39.3188  -23.5158 N   0  0  0  0  0  0  0  0  0  0  0  0
  -14.8742  -40.5532  -23.9176 C   0  0  0  0  0  0  0  0  0  0  0  0
  -16.8714  -41.5420  -24.9520 C   0  0  0  0  0  0  0  0  0  0  0  0
  -15.7479  -40.7307  -25.0640 C   0  0  0  0  0  0  0  0  0  0  0  0
  -15.4957  -40.0726  -26.2655 C   0  0  0  0  0  0  0  0  0  0  0  0
  -16.3750  -40.2749  -27.3126 C   0  0  0  0  0  0  0  0  0  0  0  0
  -17.4701  -41.0634  -27.2353 N   0  0  0  0  0  0  0  0  0  0  0  0
  -17.6960  -41.6690  -26.0491 C   0  0  0  0  0  0  0  0  0  0  0  0
  -22.7647  -46.3352  -26.5648 H   0  0  0  0  0  0  0  0  0  0  0  0
  -21.1611  -47.6877  -26.8260 H   0  0  0  0  0  0  0  0  0  0  0  0
  -20.2268  -46.4194  -27.6251 H   0  0  0  0  0  0  0  0  0  0  0  0
  -14.1879  -44.2399  -16.8141 H   0  0  0  0  0  0  0  0  0  0  0  0
  -13.5564  -41.7214  -17.7044 H   0  0  0  0  0  0  0  0  0  0  0  0
  -12.6026  -43.2146  -17.9758 H   0  0  0  0  0  0  0  0  0  0  0  0
  -12.5841  -41.8933  -19.1489 H   0  0  0  0  0  0  0  0  0  0  0  0
  -13.3190  -43.5373  -23.0953 H   0  0  0  0  0  0  0  0  0  0  0  0
  -14.4225  -43.2592  -24.4010 H   0  0  0  0  0  0  0  0  0  0  0  0
  -13.2431  -43.2705  -20.9597 H   0  0  0  0  0  0  0  0  0  0  0  0
  -17.5914  -44.2249  -18.7950 H   0  0  0  0  0  0  0  0  0  0  0  0
  -18.8209  -47.9219  -22.4387 H   0  0  0  0  0  0  0  0  0  0  0  0
  -17.3993  -46.9751  -20.4329 H   0  0  0  0  0  0  0  0  0  0  0  0
  -15.6863  -41.2665  -13.5439 H   0  0  0  0  0  0  0  0  0  0  0  0
  -14.6973  -39.0760  -13.0348 H   0  0  0  0  0  0  0  0  0  0  0  0
  -12.3307  -38.6495  -13.5789 H   0  0  0  0  0  0  0  0  0  0  0  0
  -10.1849  -39.4120  -14.4896 H   0  0  0  0  0  0  0  0  0  0  0  0
   -8.7987  -41.2161  -15.4685 H   0  0  0  0  0  0  0  0  0  0  0  0
   -9.8656  -43.4228  -15.9071 H   0  0  0  0  0  0  0  0  0  0  0  0
  -12.8673  -41.1229  -21.3905 H   0  0  0  0  0  0  0  0  0  0  0  0
  -17.1171  -42.0329  -24.0198 H   0  0  0  0  0  0  0  0  0  0  0  0
  -14.6378  -39.4185  -26.3802 H   0  0  0  0  0  0  0  0  0  0  0  0
  -16.2242  -39.7923  -28.2724 H   0  0  0  0  0  0  0  0  0  0  0  0
  -18.5988  -42.2684  -25.9918 H   0  0  0  0  0  0  0  0  0  0  0  0
  -13.4118  -38.7157  -21.9351 H   0  0  0  0  0  0  0  0  0  0  0  0
  1  6  1  0
  6  5  1  0
  5  4  3  0
 12 13  1  0
  2  7  2  0
  7 10  1  0
  3  9  2  0
 10  9  1  0
  9  8  2  0
 14 19  1  0
 14 12  1  0
 14 15  2  0
 15 16  1  0
 16 17  2  0
 16 11  1  0
 17 18  1  0
 17  7  1  0
 18 19  2  0
 19 23  1  0
 20  4  1  0
 20 21  2  0
 20 24  1  0
 21 22  1  0
 22 23  2  0
 23 24  1  0
 25 30  2  0
 25 26  1  0
 26 27  2  0
 27 28  1  0
 28 29  2  0
 28 31  1  0
 29 30  1  0
 29 34  1  0
 30  9  1  0
 31 32  2  0
 32 33  1  0
 33 34  2  0
 35 36  2  0
 35 39  1  0
 36 37  1  0
 37 38  1  0
 38 39  2  0
 39 41  1  0
 40 45  2  0
 40 41  1  0
 41 42  2  0
 42 43  1  0
 43 44  2  0
 44 45  1  0
 13 35  1  0
  1 46  1  0
  6 47  1  0
  6 48  1  0
 10 49  1  0
 11 50  1  0
 11 51  1  0
 11 52  1  0
 13 53  1  0
 13 54  1  0
 15 55  1  0
 18 56  1  0
 21 57  1  0
 22 58  1  0
 25 59  1  0
 26 60  1  0
 27 61  1  0
 31 62  1  0
 32 63  1  0
 33 64  1  0
 36 65  1  0
 40 66  1  0
 42 67  1  0
 43 68  1  0
 45 69  1  0
 37 70  1  0
M  END
>  <smiles>  (640) 
[H]OC([H])([H])C#Cc1sc(-c2c([H])c(C(=O)N([H])S(=O)(=O)c3c([H])c([H])c([H])c4c([H])c([H])c([H])nc34)c(C([H])([H])[H])c([H])c2OC([H])([H])c2c(-c3c([H])c([H])nc([H])c3[H])n[nH]c2[H])c([H])c1[H]

>  <error>  (640) 


>  <∆∆G>  (640) 
-69.337501

>  <∆G_bound>  (640) 
180.683265

>  <∆G_unbound>  (640) 
250.020765

>  <comRMSD>  (640) 
0.646666

>  <N_constrained_atoms>  (640) 
45.0

>  <N_unconstrained_atoms>  (640) 
0.0

>  <runtime>  (640) 
5.474437

>  <regarded>  (640) 
['5i3q-a', 'd0160a']

>  <disregarded>  (640) 
[]

>  <LE>  (640) 
1.540833

>  <outcome>  (640) 
acceptable

>  <percent_hybrid>  (640) 
25.0

$$$$
LIG
     RDKit          3D

 71 76  0  0  0  0  0  0  0  0999 V2000
  -22.0179  -45.7930  -26.9055 O   0  0  0  0  0  0  0  0  0  0  0  0
  -16.7165  -42.1815  -17.1568 O   0  0  0  0  0  0  0  0  0  0  0  0
  -15.8449  -43.6288  -14.4507 O   0  0  0  0  0  0  0  0  0  0  0  0
  -19.5158  -46.1225  -24.5762 C   0  0  0  0  0  0  0  0  0  0  0  0
  -20.1465  -46.3474  -25.5745 C   0  0  0  0  0  0  0  0  0  0  0  0
  -20.8856  -46.6422  -26.7999 C   0  0  0  0  0  0  0  0  0  0  0  0
  -15.7625  -42.7676  -17.4877 C   0  0  0  0  0  0  0  0  0  0  0  0
  -13.6533  -44.7772  -14.7879 O   0  0  0  0  0  0  0  0  0  0  0  0
  -14.5233  -43.6423  -15.0144 S   0  0  0  0  0  0  0  0  0  0  0  0
  -14.6498  -43.4452  -16.6361 N   0  0  0  0  0  0  0  0  0  0  0  0
  -13.2385  -41.8755  -18.8882 C   0  0  0  0  0  0  0  0  0  0  0  0
  -15.0555  -43.8242  -22.9849 O   0  0  0  0  0  0  0  0  0  0  0  0
  -15.1646  -39.7392  -25.7243 C   0  0  0  0  0  0  0  0  0  0  0  0
  -15.2406  -43.5475  -21.6498 C   0  0  0  0  0  0  0  0  0  0  0  0
  -14.2242  -42.8829  -20.9546 C   0  0  0  0  0  0  0  0  0  0  0  0
  -14.3533  -42.6017  -19.5866 C   0  0  0  0  0  0  0  0  0  0  0  0
  -15.5171  -43.0343  -18.9278 C   0  0  0  0  0  0  0  0  0  0  0  0
  -16.5109  -43.7587  -19.6094 C   0  0  0  0  0  0  0  0  0  0  0  0
  -16.3713  -44.0437  -20.9722 C   0  0  0  0  0  0  0  0  0  0  0  0
  -18.8069  -45.8633  -23.3620 C   0  0  0  0  0  0  0  0  0  0  0  0
  -18.4543  -46.8045  -22.4177 C   0  0  0  0  0  0  0  0  0  0  0  0
  -17.6038  -46.2553  -21.4107 C   0  0  0  0  0  0  0  0  0  0  0  0
  -17.3442  -44.9160  -21.6339 C   0  0  0  0  0  0  0  0  0  0  0  0
  -18.3577  -44.2980  -22.8669 S   0  0  0  0  0  0  0  0  0  0  0  0
  -14.6028  -41.2445  -13.7654 C   0  0  0  0  0  0  0  0  0  0  0  0
  -14.0715  -40.0529  -13.3091 C   0  0  0  0  0  0  0  0  0  0  0  0
  -12.7352  -39.7780  -13.5614 C   0  0  0  0  0  0  0  0  0  0  0  0
  -11.9291  -40.6977  -14.2586 C   0  0  0  0  0  0  0  0  0  0  0  0
  -12.4485  -41.9230  -14.7300 C   0  0  0  0  0  0  0  0  0  0  0  0
  -13.7893  -42.1535  -14.4704 C   0  0  0  0  0  0  0  0  0  0  0  0
  -10.5795  -40.4173  -14.4897 C   0  0  0  0  0  0  0  0  0  0  0  0
   -9.7746  -41.3515  -15.1241 C   0  0  0  0  0  0  0  0  0  0  0  0
  -10.3561  -42.5322  -15.5291 C   0  0  0  0  0  0  0  0  0  0  0  0
  -11.6686  -42.8080  -15.3949 N   0  0  0  0  0  0  0  0  0  0  0  0
  -14.9873  -41.5701  -23.9837 C   0  0  0  0  0  0  0  0  0  0  0  0
  -15.3502  -42.8990  -23.9314 C   0  0  0  0  0  0  0  0  0  0  0  0
  -16.0562  -43.1854  -25.1163 C   0  0  0  0  0  0  0  0  0  0  0  0
  -16.1164  -42.0407  -25.8699 C   0  0  0  0  0  0  0  0  0  0  0  0
  -15.4384  -41.0664  -25.1866 N   0  0  0  0  0  0  0  0  0  0  0  0
  -17.2051  -38.6792  -26.7844 C   0  0  0  0  0  0  0  0  0  0  0  0
  -16.3835  -38.8611  -25.6723 C   0  0  0  0  0  0  0  0  0  0  0  0
  -16.7479  -38.2054  -24.4936 C   0  0  0  0  0  0  0  0  0  0  0  0
  -17.8849  -37.4054  -24.4722 C   0  0  0  0  0  0  0  0  0  0  0  0
  -18.6348  -37.2952  -25.6319 C   0  0  0  0  0  0  0  0  0  0  0  0
  -18.3276  -37.9146  -26.7933 N   0  0  0  0  0  0  0  0  0  0  0  0
  -22.7904  -46.3033  -26.5862 H   0  0  0  0  0  0  0  0  0  0  0  0
  -21.2036  -47.6867  -26.8572 H   0  0  0  0  0  0  0  0  0  0  0  0
  -20.2451  -46.4332  -27.6542 H   0  0  0  0  0  0  0  0  0  0  0  0
  -14.0102  -43.9378  -17.2452 H   0  0  0  0  0  0  0  0  0  0  0  0
  -12.5458  -42.5905  -18.4343 H   0  0  0  0  0  0  0  0  0  0  0  0
  -12.6742  -41.2568  -19.5951 H   0  0  0  0  0  0  0  0  0  0  0  0
  -13.6221  -41.1978  -18.1192 H   0  0  0  0  0  0  0  0  0  0  0  0
  -14.3483  -39.3077  -25.1368 H   0  0  0  0  0  0  0  0  0  0  0  0
  -14.7999  -39.8661  -26.7500 H   0  0  0  0  0  0  0  0  0  0  0  0
  -13.3225  -42.5957  -21.4937 H   0  0  0  0  0  0  0  0  0  0  0  0
  -17.3943  -44.0987  -19.0704 H   0  0  0  0  0  0  0  0  0  0  0  0
  -18.7210  -47.8533  -22.4827 H   0  0  0  0  0  0  0  0  0  0  0  0
  -17.1346  -46.8429  -20.6310 H   0  0  0  0  0  0  0  0  0  0  0  0
  -15.6547  -41.4580  -13.5776 H   0  0  0  0  0  0  0  0  0  0  0  0
  -14.6919  -39.3442  -12.7665 H   0  0  0  0  0  0  0  0  0  0  0  0
  -12.3167  -38.8396  -13.2016 H   0  0  0  0  0  0  0  0  0  0  0  0
  -10.1378  -39.4847  -14.1459 H   0  0  0  0  0  0  0  0  0  0  0  0
   -8.7151  -41.1728  -15.2697 H   0  0  0  0  0  0  0  0  0  0  0  0
   -9.7590  -43.3273  -15.9627 H   0  0  0  0  0  0  0  0  0  0  0  0
  -14.4176  -40.9564  -23.3014 H   0  0  0  0  0  0  0  0  0  0  0  0
  -16.4749  -44.1326  -25.3946 H   0  0  0  0  0  0  0  0  0  0  0  0
  -16.5462  -41.8566  -26.8438 H   0  0  0  0  0  0  0  0  0  0  0  0
  -16.9764  -39.1556  -27.7356 H   0  0  0  0  0  0  0  0  0  0  0  0
  -16.1549  -38.3196  -23.5896 H   0  0  0  0  0  0  0  0  0  0  0  0
  -18.1870  -36.8892  -23.5674 H   0  0  0  0  0  0  0  0  0  0  0  0
  -19.5350  -36.6875  -25.6524 H   0  0  0  0  0  0  0  0  0  0  0  0
  1  6  1  0
  6  5  1  0
  5  4  3  0
  2  7  2  0
  7 10  1  0
  3  9  2  0
 10  9  1  0
  9  8  2  0
 14 19  1  0
 14 12  1  0
 14 15  2  0
 15 16  1  0
 16 17  2  0
 16 11  1  0
 17 18  1  0
 17  7  1  0
 18 19  2  0
 19 23  1  0
 20  4  1  0
 20 21  2  0
 20 24  1  0
 21 22  1  0
 22 23  2  0
 23 24  1  0
 25 30  2  0
 25 26  1  0
 26 27  2  0
 27 28  1  0
 28 29  2  0
 28 31  1  0
 29 30  1  0
 29 34  1  0
 30  9  1  0
 31 32  2  0
 32 33  1  0
 33 34  2  0
 35 36  2  0
 35 39  1  0
 36 37  1  0
 37 38  2  0
 38 39  1  0
 39 13  1  0
 40 45  2  0
 40 41  1  0
 41 13  1  0
 41 42  2  0
 42 43  1  0
 43 44  2  0
 44 45  1  0
 36 12  1  0
  1 46  1  0
  6 47  1  0
  6 48  1  0
 10 49  1  0
 11 50  1  0
 11 51  1  0
 11 52  1  0
 13 53  1  0
 13 54  1  0
 15 55  1  0
 18 56  1  0
 21 57  1  0
 22 58  1  0
 25 59  1  0
 26 60  1  0
 27 61  1  0
 31 62  1  0
 32 63  1  0
 33 64  1  0
 35 65  1  0
 37 66  1  0
 38 67  1  0
 40 68  1  0
 42 69  1  0
 43 70  1  0
 44 71  1  0
M  END
>  <smiles>  (641) 
[H]OC([H])([H])C#Cc1sc(-c2c([H])c(C(=O)N([H])S(=O)(=O)c3c([H])c([H])c([H])c4c([H])c([H])c([H])nc34)c(C([H])([H])[H])c([H])c2Oc2c([H])c([H])n(C([H])([H])c3c([H])nc([H])c([H])c3[H])c2[H])c([H])c1[H]

>  <error>  (641) 


>  <∆∆G>  (641) 
-70.459882

>  <∆G_bound>  (641) 
232.260034

>  <∆G_unbound>  (641) 
302.719917

>  <comRMSD>  (641) 
0.675217

>  <N_constrained_atoms>  (641) 
45.0

>  <N_unconstrained_atoms>  (641) 
0.0

>  <runtime>  (641) 
5.776624

>  <regarded>  (641) 
['5i3q-a', 'd0191a']

>  <disregarded>  (641) 
[]

>  <LE>  (641) 
1.565775

>  <outcome>  (641) 
acceptable

>  <percent_hybrid>  (641) 
27.0

$$$$
LIG
     RDKit          3D

 76 79  0  0  0  0  0  0  0  0999 V2000
  -22.0154  -45.7184  -26.8628 O   0  0  0  0  0  0  0  0  0  0  0  0
  -15.7574  -40.7200  -16.3741 O   0  0  0  0  0  0  0  0  0  0  0  0
  -15.9446  -43.4175  -13.8750 O   0  0  0  0  0  0  0  0  0  0  0  0
  -19.5665  -45.7268  -24.4213 C   0  0  0  0  0  0  0  0  0  0  0  0
  -20.1273  -46.0037  -25.4532 C   0  0  0  0  0  0  0  0  0  0  0  0
  -20.8204  -46.4597  -26.6696 C   0  0  0  0  0  0  0  0  0  0  0  0
  -15.6255  -41.7865  -16.8392 C   0  0  0  0  0  0  0  0  0  0  0  0
  -13.9300  -44.6702  -14.6728 O   0  0  0  0  0  0  0  0  0  0  0  0
  -14.7285  -43.4608  -14.6457 S   0  0  0  0  0  0  0  0  0  0  0  0
  -15.1229  -43.1172  -16.1922 N   0  0  0  0  0  0  0  0  0  0  0  0
  -13.4243  -42.6754  -18.7445 C   0  0  0  0  0  0  0  0  0  0  0  0
  -14.9871  -43.7399  -22.7312 N   0  0  0  0  0  0  0  0  0  0  0  0
  -13.6263  -44.0726  -23.1248 C   0  0  0  0  0  0  0  0  0  0  0  0
  -15.8049  -39.7196  -26.6091 C   0  0  0  0  0  0  0  0  0  0  0  0
  -15.0667  -43.6164  -21.2454 C   0  0  1  0  0  0  0  0  0  0  0  0
  -14.9862  -42.1721  -20.6996 C   0  0  0  0  0  0  0  0  0  0  0  0
  -14.6720  -41.9238  -19.2056 C   0  0  1  0  0  0  0  0  0  0  0  0
  -15.9146  -42.0449  -18.3098 C   0  0  0  0  0  0  0  0  0  0  0  0
  -16.0172  -45.2349  -19.4900 C   0  0  0  0  0  0  0  0  0  0  0  0
  -16.1565  -44.4390  -20.6141 C   0  0  0  0  0  0  0  0  0  0  0  0
  -19.0737  -45.6437  -23.0210 C   0  0  1  0  0  0  0  0  0  0  0  0
  -18.5154  -47.0003  -22.5862 C   0  0  0  0  0  0  0  0  0  0  0  0
  -18.1078  -45.3740  -20.0376 C   0  0  0  0  0  0  0  0  0  0  0  0
  -17.4902  -44.6533  -21.0356 C   0  0  0  0  0  0  0  0  0  0  0  0
  -18.1588  -44.1756  -22.5748 S   0  0  0  0  0  0  0  0  0  0  0  0
  -14.4787  -41.1185  -13.3520 C   0  0  0  0  0  0  0  0  0  0  0  0
  -13.8476  -39.9505  -12.9743 C   0  0  0  0  0  0  0  0  0  0  0  0
  -12.5403  -39.7411  -13.3819 C   0  0  0  0  0  0  0  0  0  0  0  0
  -11.8603  -40.7056  -14.1469 C   0  0  0  0  0  0  0  0  0  0  0  0
  -12.4796  -41.9148  -14.5386 C   0  0  0  0  0  0  0  0  0  0  0  0
  -13.7980  -42.0717  -14.1381 C   0  0  0  0  0  0  0  0  0  0  0  0
  -10.5368  -40.4749  -14.5305 C   0  0  0  0  0  0  0  0  0  0  0  0
   -9.8420  -41.4408  -15.2386 C   0  0  0  0  0  0  0  0  0  0  0  0
  -10.5074  -42.6038  -15.5539 C   0  0  0  0  0  0  0  0  0  0  0  0
  -11.8039  -42.8389  -15.2625 N   0  0  0  0  0  0  0  0  0  0  0  0
  -17.2001  -45.7652  -19.1090 O   0  0  0  0  0  0  0  0  0  0  0  0
  -15.9747  -43.0305  -24.8028 C   0  0  0  0  0  0  0  0  0  0  0  0
  -15.3712  -42.6899  -23.5890 C   0  0  0  0  0  0  0  0  0  0  0  0
  -14.9750  -41.4273  -23.3567 N   0  0  0  0  0  0  0  0  0  0  0  0
  -15.1508  -40.5118  -24.3320 C   0  0  0  0  0  0  0  0  0  0  0  0
  -15.7114  -40.7824  -25.5690 C   0  0  0  0  0  0  0  0  0  0  0  0
  -16.1650  -42.0728  -25.7916 C   0  0  0  0  0  0  0  0  0  0  0  0
  -22.7541  -46.2688  -26.5330 H   0  0  0  0  0  0  0  0  0  0  0  0
  -21.0544  -47.5271  -26.6380 H   0  0  0  0  0  0  0  0  0  0  0  0
  -20.1913  -46.2968  -27.5428 H   0  0  0  0  0  0  0  0  0  0  0  0
  -15.0550  -43.8329  -16.9009 H   0  0  0  0  0  0  0  0  0  0  0  0
  -13.0545  -42.2763  -17.7959 H   0  0  0  0  0  0  0  0  0  0  0  0
  -13.6066  -43.7434  -18.6176 H   0  0  0  0  0  0  0  0  0  0  0  0
  -12.6119  -42.5594  -19.4709 H   0  0  0  0  0  0  0  0  0  0  0  0
  -12.9462  -43.4110  -22.5951 H   0  0  0  0  0  0  0  0  0  0  0  0
  -13.4360  -44.0429  -24.2027 H   0  0  0  0  0  0  0  0  0  0  0  0
  -13.3994  -45.0721  -22.7758 H   0  0  0  0  0  0  0  0  0  0  0  0
  -14.8476  -39.1985  -26.7031 H   0  0  0  0  0  0  0  0  0  0  0  0
  -16.0490  -40.1408  -27.5903 H   0  0  0  0  0  0  0  0  0  0  0  0
  -16.5821  -38.9962  -26.3438 H   0  0  0  0  0  0  0  0  0  0  0  0
  -14.1560  -44.1019  -20.8630 H   0  0  0  0  0  0  0  0  0  0  0  0
  -14.1611  -41.6672  -21.2176 H   0  0  0  0  0  0  0  0  0  0  0  0
  -15.9070  -41.6290  -20.9506 H   0  0  0  0  0  0  0  0  0  0  0  0
  -14.3915  -40.8603  -19.1473 H   0  0  0  0  0  0  0  0  0  0  0  0
  -16.4110  -43.0095  -18.3828 H   0  0  0  0  0  0  0  0  0  0  0  0
  -16.6632  -41.3076  -18.6285 H   0  0  0  0  0  0  0  0  0  0  0  0
  -15.1794  -45.4764  -18.8542 H   0  0  0  0  0  0  0  0  0  0  0  0
  -19.9130  -45.4304  -22.3601 H   0  0  0  0  0  0  0  0  0  0  0  0
  -18.9960  -47.3458  -21.6644 H   0  0  0  0  0  0  0  0  0  0  0  0
  -18.7154  -47.7816  -23.3262 H   0  0  0  0  0  0  0  0  0  0  0  0
  -17.4420  -46.9620  -22.3989 H   0  0  0  0  0  0  0  0  0  0  0  0
  -19.1143  -45.7378  -19.8826 H   0  0  0  0  0  0  0  0  0  0  0  0
  -15.5178  -41.2648  -13.0605 H   0  0  0  0  0  0  0  0  0  0  0  0
  -14.3725  -39.2040  -12.3846 H   0  0  0  0  0  0  0  0  0  0  0  0
  -12.0450  -38.8158  -13.0930 H   0  0  0  0  0  0  0  0  0  0  0  0
  -10.0291  -39.5531  -14.2562 H   0  0  0  0  0  0  0  0  0  0  0  0
   -8.8030  -41.2989  -15.5128 H   0  0  0  0  0  0  0  0  0  0  0  0
   -9.9894  -43.4181  -16.0466 H   0  0  0  0  0  0  0  0  0  0  0  0
  -16.2458  -44.0596  -24.9924 H   0  0  0  0  0  0  0  0  0  0  0  0
  -14.7914  -39.5159  -24.0895 H   0  0  0  0  0  0  0  0  0  0  0  0
  -16.6030  -42.3592  -26.7416 H   0  0  0  0  0  0  0  0  0  0  0  0
  1  6  1  0
  6  5  1  0
  5  4  3  0
 12 13  1  0
  2  7  2  0
  7 10  1  0
  3  9  2  0
 10  9  1  0
  9  8  2  0
 15 20  1  0
 15 12  1  0
 15 16  1  0
 16 17  1  0
 17 18  1  0
 17 11  1  0
 18  7  1  0
 19 20  2  0
 20 24  1  0
 21  4  1  0
 21 22  1  0
 21 25  1  0
 23 24  2  0
 24 25  1  0
 26 31  2  0
 26 27  1  0
 27 28  2  0
 28 29  1  0
 29 30  2  0
 29 32  1  0
 30 31  1  0
 30 35  1  0
 31  9  1  0
 32 33  2  0
 33 34  1  0
 34 35  2  0
 37 42  2  0
 37 38  1  0
 38 39  2  0
 39 40  1  0
 40 41  2  0
 41 14  1  0
 41 42  1  0
 19 36  1  0
 23 36  1  0
 12 38  1  0
  1 43  1  0
  6 44  1  0
  6 45  1  0
 10 46  1  0
 11 47  1  0
 11 48  1  0
 11 49  1  0
 13 50  1  0
 13 51  1  0
 13 52  1  0
 14 53  1  0
 14 54  1  0
 14 55  1  0
 15 56  1  6
 16 57  1  0
 16 58  1  0
 17 59  1  6
 18 60  1  0
 18 61  1  0
 19 62  1  0
 21 63  1  1
 22 64  1  0
 22 65  1  0
 22 66  1  0
 23 67  1  0
 26 68  1  0
 27 69  1  0
 28 70  1  0
 32 71  1  0
 33 72  1  0
 34 73  1  0
 37 74  1  0
 40 75  1  0
 42 76  1  0
M  END
>  <smiles>  (642) 
[H]OC([H])([H])C#C[C@]([H])(Sc1c([H])oc([H])c1[C@]([H])(N(c1nc([H])c(C([H])([H])[H])c([H])c1[H])C([H])([H])[H])C([H])([H])[C@]([H])(C([H])([H])[H])C([H])([H])C(=O)N([H])S(=O)(=O)c1c([H])c([H])c([H])c2c([H])c([H])c([H])nc12)C([H])([H])[H]

>  <error>  (642) 


>  <∆∆G>  (642) 
-97.127951

>  <∆G_bound>  (642) 
116.622357

>  <∆G_unbound>  (642) 
213.750308

>  <comRMSD>  (642) 
1.093166

>  <N_constrained_atoms>  (642) 
42.0

>  <N_unconstrained_atoms>  (642) 
0.0

>  <runtime>  (642) 
10.189833

>  <regarded>  (642) 
['5i3q-a', 'd0254a']

>  <disregarded>  (642) 
[]

>  <LE>  (642) 
2.31257

>  <outcome>  (642) 
too moved

>  <percent_hybrid>  (642) 
20.0

$$$$

     RDKit          2D

  0  0  0  0  0  0  0  0  0  0999 V2000
M  END
>  <smiles>  (643) 
nan

>  <error>  (643) 
TimeoutError

>  <∆∆G>  (643) 
nan

>  <∆G_bound>  (643) 
nan

>  <∆G_unbound>  (643) 
nan

>  <comRMSD>  (643) 
nan

>  <N_constrained_atoms>  (643) 
nan

>  <N_unconstrained_atoms>  (643) 
nan

>  <runtime>  (643) 
nan

>  <regarded>  (643) 
[]

>  <disregarded>  (643) 
[]

>  <LE>  (643) 
nan

>  <outcome>  (643) 
timeout

>  <percent_hybrid>  (643) 
nan

$$$$
LIG
     RDKit          3D

 54 57  0  0  0  0  0  0  0  0999 V2000
  -21.9981  -45.8007  -26.9071 O   0  0  0  0  0  0  0  0  0  0  0  0
  -16.6052  -42.0853  -17.1621 O   0  0  0  0  0  0  0  0  0  0  0  0
  -15.8880  -43.5836  -14.3863 O   0  0  0  0  0  0  0  0  0  0  0  0
  -19.4937  -46.1594  -24.5735 C   0  0  0  0  0  0  0  0  0  0  0  0
  -20.1287  -46.3682  -25.5730 C   0  0  0  0  0  0  0  0  0  0  0  0
  -20.8686  -46.6551  -26.7998 C   0  0  0  0  0  0  0  0  0  0  0  0
  -15.7178  -42.7844  -17.4569 C   0  0  0  0  0  0  0  0  0  0  0  0
  -13.6983  -44.7600  -14.6462 O   0  0  0  0  0  0  0  0  0  0  0  0
  -14.5612  -43.6339  -14.9366 S   0  0  0  0  0  0  0  0  0  0  0  0
  -14.6751  -43.5210  -16.5651 N   0  0  0  0  0  0  0  0  0  0  0  0
  -13.1545  -42.0904  -18.8763 C   0  0  0  0  0  0  0  0  0  0  0  0
  -15.0310  -44.3658  -22.8191 O   0  0  0  0  0  0  0  0  0  0  0  0
  -14.4396  -43.4500  -23.7292 C   0  0  0  0  0  0  0  0  0  0  0  0
  -15.1536  -43.9258  -21.5287 C   0  0  0  0  0  0  0  0  0  0  0  0
  -14.1233  -43.2532  -20.8655 C   0  0  0  0  0  0  0  0  0  0  0  0
  -14.2829  -42.8322  -19.5377 C   0  0  0  0  0  0  0  0  0  0  0  0
  -15.4840  -43.1502  -18.8775 C   0  0  0  0  0  0  0  0  0  0  0  0
  -16.5091  -43.8591  -19.5292 C   0  0  0  0  0  0  0  0  0  0  0  0
  -16.3458  -44.2577  -20.8584 C   0  0  0  0  0  0  0  0  0  0  0  0
  -18.7879  -45.9279  -23.3508 C   0  0  0  0  0  0  0  0  0  0  0  0
  -18.5548  -46.8707  -22.3703 C   0  0  0  0  0  0  0  0  0  0  0  0
  -17.7461  -46.3614  -21.3111 C   0  0  0  0  0  0  0  0  0  0  0  0
  -17.3638  -45.0561  -21.5454 C   0  0  0  0  0  0  0  0  0  0  0  0
  -18.1752  -44.4017  -22.9107 S   0  0  0  0  0  0  0  0  0  0  0  0
  -14.6199  -41.1982  -13.7630 C   0  0  0  0  0  0  0  0  0  0  0  0
  -14.0774  -39.9995  -13.3406 C   0  0  0  0  0  0  0  0  0  0  0  0
  -12.7420  -39.7389  -13.6117 C   0  0  0  0  0  0  0  0  0  0  0  0
  -11.9483  -40.6788  -14.2960 C   0  0  0  0  0  0  0  0  0  0  0  0
  -12.4795  -41.9112  -14.7351 C   0  0  0  0  0  0  0  0  0  0  0  0
  -13.8188  -42.1285  -14.4538 C   0  0  0  0  0  0  0  0  0  0  0  0
  -10.5994  -40.4108  -14.5454 C   0  0  0  0  0  0  0  0  0  0  0  0
   -9.8058  -41.3623  -15.1678 C   0  0  0  0  0  0  0  0  0  0  0  0
  -10.3982  -42.5475  -15.5431 C   0  0  0  0  0  0  0  0  0  0  0  0
  -11.7110  -42.8142  -15.3901 N   0  0  0  0  0  0  0  0  0  0  0  0
  -22.7667  -46.3015  -26.5638 H   0  0  0  0  0  0  0  0  0  0  0  0
  -21.1916  -47.6978  -26.8608 H   0  0  0  0  0  0  0  0  0  0  0  0
  -20.2261  -46.4465  -27.6528 H   0  0  0  0  0  0  0  0  0  0  0  0
  -13.9918  -43.9790  -17.1519 H   0  0  0  0  0  0  0  0  0  0  0  0
  -13.5235  -41.3643  -18.1454 H   0  0  0  0  0  0  0  0  0  0  0  0
  -12.4773  -42.7937  -18.3826 H   0  0  0  0  0  0  0  0  0  0  0  0
  -12.5786  -41.5228  -19.6158 H   0  0  0  0  0  0  0  0  0  0  0  0
  -14.4595  -42.4096  -23.3878 H   0  0  0  0  0  0  0  0  0  0  0  0
  -13.4202  -43.7797  -23.9340 H   0  0  0  0  0  0  0  0  0  0  0  0
  -15.0029  -43.4999  -24.6656 H   0  0  0  0  0  0  0  0  0  0  0  0
  -13.1792  -43.0769  -21.3788 H   0  0  0  0  0  0  0  0  0  0  0  0
  -17.4296  -44.0928  -18.9972 H   0  0  0  0  0  0  0  0  0  0  0  0
  -18.9000  -47.8967  -22.4282 H   0  0  0  0  0  0  0  0  0  0  0  0
  -17.3809  -46.9618  -20.4870 H   0  0  0  0  0  0  0  0  0  0  0  0
  -15.6705  -41.4015  -13.5578 H   0  0  0  0  0  0  0  0  0  0  0  0
  -14.6882  -39.2745  -12.8090 H   0  0  0  0  0  0  0  0  0  0  0  0
  -12.3146  -38.7950  -13.2777 H   0  0  0  0  0  0  0  0  0  0  0  0
  -10.1496  -39.4734  -14.2262 H   0  0  0  0  0  0  0  0  0  0  0  0
   -8.7471  -41.1922  -15.3282 H   0  0  0  0  0  0  0  0  0  0  0  0
   -9.8091  -43.3535  -15.9679 H   0  0  0  0  0  0  0  0  0  0  0  0
  1  6  1  0
  6  5  1  0
  5  4  3  0
 12 13  1  0
  2  7  2  0
  7 10  1  0
  3  9  2  0
 10  9  1  0
  9  8  2  0
 14 19  2  0
 14 12  1  0
 14 15  1  0
 15 16  2  0
 16 17  1  0
 16 11  1  0
 17 18  2  0
 17  7  1  0
 18 19  1  0
 19 23  1  0
 20  4  1  0
 20 21  2  0
 20 24  1  0
 21 22  1  0
 22 23  2  0
 23 24  1  0
 25 30  2  0
 25 26  1  0
 26 27  2  0
 27 28  1  0
 28 29  2  0
 28 31  1  0
 29 30  1  0
 29 34  1  0
 30  9  1  0
 31 32  2  0
 32 33  1  0
 33 34  2  0
  1 35  1  0
  6 36  1  0
  6 37  1  0
 10 38  1  0
 11 39  1  0
 11 40  1  0
 11 41  1  0
 13 42  1  0
 13 43  1  0
 13 44  1  0
 15 45  1  0
 18 46  1  0
 21 47  1  0
 22 48  1  0
 25 49  1  0
 26 50  1  0
 27 51  1  0
 31 52  1  0
 32 53  1  0
 33 54  1  0
M  END
>  <smiles>  (644) 
[H]OC([H])([H])C#Cc1sc(-c2c([H])c(C(=O)N([H])S(=O)(=O)c3c([H])c([H])c([H])c4c([H])c([H])c([H])nc34)c(C([H])([H])[H])c([H])c2OC([H])([H])[H])c([H])c1[H]

>  <error>  (644) 


>  <∆∆G>  (644) 
-59.296062

>  <∆G_bound>  (644) 
-27.994801

>  <∆G_unbound>  (644) 
31.301261

>  <comRMSD>  (644) 
0.720447

>  <N_constrained_atoms>  (644) 
34.0

>  <N_unconstrained_atoms>  (644) 
0.0

>  <runtime>  (644) 
3.773455

>  <regarded>  (644) 
['5i3q-a', 'd0472a']

>  <disregarded>  (644) 
[]

>  <LE>  (644) 
1.744002

>  <outcome>  (644) 
equally sized

>  <percent_hybrid>  (644) 
0.0

$$$$

     RDKit          2D

  0  0  0  0  0  0  0  0  0  0999 V2000
M  END
>  <smiles>  (645) 
nan

>  <error>  (645) 
FragmensteinError Ideal compound failed. Something is wrong with the SMILES

>  <∆∆G>  (645) 
nan

>  <∆G_bound>  (645) 
nan

>  <∆G_unbound>  (645) 
nan

>  <comRMSD>  (645) 
nan

>  <N_constrained_atoms>  (645) 
nan

>  <N_unconstrained_atoms>  (645) 
nan

>  <runtime>  (645) 
nan

>  <regarded>  (645) 
[]

>  <disregarded>  (645) 
[]

>  <LE>  (645) 
nan

>  <outcome>  (645) 
crashed

>  <percent_hybrid>  (645) 
nan

$$$$
LIG
     RDKit          3D

 89 94  0  0  0  0  0  0  0  0999 V2000
  -21.9749  -45.7352  -26.5582 O   0  0  0  0  0  0  0  0  0  0  0  0
  -16.2815  -41.0646  -17.1149 O   0  0  0  0  0  0  0  0  0  0  0  0
  -15.8973  -43.6326  -14.7929 O   0  0  0  0  0  0  0  0  0  0  0  0
  -19.3337  -45.9304  -24.3059 C   0  0  0  0  0  0  0  0  0  0  0  0
  -19.9995  -46.1411  -25.2921 C   0  0  0  0  0  0  0  0  0  0  0  0
  -20.7721  -46.4872  -26.5039 C   0  0  0  0  0  0  0  0  0  0  0  0
  -15.6889  -41.9267  -17.6448 C   0  0  0  0  0  0  0  0  0  0  0  0
  -13.7641  -44.7189  -15.4899 O   0  0  0  0  0  0  0  0  0  0  0  0
  -14.6326  -43.5600  -15.4728 S   0  0  0  0  0  0  0  0  0  0  0  0
  -14.9298  -43.1537  -17.0404 N   0  0  0  0  0  0  0  0  0  0  0  0
  -13.1006  -41.4187  -18.8823 C   0  0  0  0  0  0  0  0  0  0  0  0
  -18.5845  -43.3188  -24.5153 F   0  0  0  0  0  0  0  0  0  0  0  0
  -15.3915  -40.9230  -24.3246 N   0  0  0  0  0  0  0  0  0  0  0  0
  -15.8611  -40.5823  -25.6797 C   0  0  0  0  0  0  0  0  0  0  0  0
  -18.7953  -36.2093  -24.8483 C   0  0  0  0  0  0  0  0  0  0  0  0
  -14.8388  -43.6687  -21.5497 C   0  0  1  0  0  0  0  0  0  0  0  0
  -13.7811  -43.1690  -20.5355 C   0  0  0  0  0  0  0  0  0  0  0  0
  -14.2136  -41.8872  -19.8236 C   0  0  0  0  0  0  0  0  0  0  0  0
  -15.6246  -41.9333  -19.1952 C   0  0  0  0  0  0  0  0  0  0  0  0
  -16.6402  -42.9368  -19.7941 C   0  0  0  0  0  0  0  0  0  0  0  0
  -16.0793  -44.0150  -20.7279 C   0  0  0  0  0  0  0  0  0  0  0  0
  -18.5026  -45.8440  -23.0783 C   0  0  2  0  0  0  0  0  0  0  0  0
  -19.2462  -45.8697  -21.7420 C   0  0  0  0  0  0  0  0  0  0  0  0
  -18.2939  -45.3172  -20.6974 C   0  0  0  0  0  0  0  0  0  0  0  0
  -17.0455  -44.9307  -21.4798 C   0  0  0  0  0  0  0  0  0  0  0  0
  -17.5293  -44.6481  -22.9158 C   0  0  2  0  0  0  0  0  0  0  0  0
  -14.6824  -41.2508  -14.0751 C   0  0  0  0  0  0  0  0  0  0  0  0
  -14.1451  -40.1287  -13.4721 C   0  0  0  0  0  0  0  0  0  0  0  0
  -12.7819  -39.9058  -13.5793 C   0  0  0  0  0  0  0  0  0  0  0  0
  -11.9582  -40.8134  -14.2696 C   0  0  0  0  0  0  0  0  0  0  0  0
  -12.4825  -41.9781  -14.8783 C   0  0  0  0  0  0  0  0  0  0  0  0
  -13.8530  -42.1508  -14.7798 C   0  0  0  0  0  0  0  0  0  0  0  0
  -10.5838  -40.5772  -14.3546 C   0  0  0  0  0  0  0  0  0  0  0  0
   -9.7594  -41.4989  -14.9795 C   0  0  0  0  0  0  0  0  0  0  0  0
  -10.3447  -42.6246  -15.5137 C   0  0  0  0  0  0  0  0  0  0  0  0
  -11.6739  -42.8545  -15.5161 N   0  0  0  0  0  0  0  0  0  0  0  0
  -18.1605  -43.2815  -23.2067 C   0  0  1  0  0  0  0  0  0  0  0  0
  -17.2678  -42.0360  -23.1151 C   0  0  0  0  0  0  0  0  0  0  0  0
  -15.9133  -42.2165  -23.7764 C   0  0  0  0  0  0  0  0  0  0  0  0
  -14.7685  -42.7932  -22.8629 C   0  0  2  0  0  0  0  0  0  0  0  0
  -17.6721  -39.0880  -26.7686 C   0  0  0  0  0  0  0  0  0  0  0  0
  -18.4534  -37.9609  -26.5784 N   0  0  0  0  0  0  0  0  0  0  0  0
  -18.1517  -37.4260  -25.4127 C   0  0  0  0  0  0  0  0  0  0  0  0
  -16.9222  -38.2232  -24.5171 S   0  0  0  0  0  0  0  0  0  0  0  0
  -16.8082  -39.4217  -25.7394 C   0  0  0  0  0  0  0  0  0  0  0  0
  -13.9460  -43.6381  -23.8499 C   0  0  0  0  0  0  0  0  0  0  0  0
  -22.7178  -46.3570  -26.4248 H   0  0  0  0  0  0  0  0  0  0  0  0
  -21.0015  -47.5550  -26.5550 H   0  0  0  0  0  0  0  0  0  0  0  0
  -20.2023  -46.2482  -27.4012 H   0  0  0  0  0  0  0  0  0  0  0  0
  -14.4569  -43.6577  -17.7806 H   0  0  0  0  0  0  0  0  0  0  0  0
  -13.3969  -40.5216  -18.3291 H   0  0  0  0  0  0  0  0  0  0  0  0
  -12.7998  -42.1915  -18.1712 H   0  0  0  0  0  0  0  0  0  0  0  0
  -12.2054  -41.1598  -19.4602 H   0  0  0  0  0  0  0  0  0  0  0  0
  -14.3748  -40.9791  -24.3980 H   0  0  0  0  0  0  0  0  0  0  0  0
  -14.9827  -40.3099  -26.2804 H   0  0  0  0  0  0  0  0  0  0  0  0
  -16.3059  -41.4482  -26.1852 H   0  0  0  0  0  0  0  0  0  0  0  0
  -19.3030  -36.4383  -23.9060 H   0  0  0  0  0  0  0  0  0  0  0  0
  -18.0550  -35.4232  -24.6690 H   0  0  0  0  0  0  0  0  0  0  0  0
  -19.5415  -35.8149  -25.5458 H   0  0  0  0  0  0  0  0  0  0  0  0
  -13.5789  -43.9555  -19.7964 H   0  0  0  0  0  0  0  0  0  0  0  0
  -17.1609  -43.4370  -18.9654 H   0  0  0  0  0  0  0  0  0  0  0  0
  -20.1261  -45.2173  -21.7569 H   0  0  0  0  0  0  0  0  0  0  0  0
  -18.7673  -44.4614  -20.2062 H   0  0  0  0  0  0  0  0  0  0  0  0
  -15.7578  -41.4162  -14.0052 H   0  0  0  0  0  0  0  0  0  0  0  0
  -14.7831  -39.4321  -12.9347 H   0  0  0  0  0  0  0  0  0  0  0  0
  -12.3576  -39.0192  -13.1115 H   0  0  0  0  0  0  0  0  0  0  0  0
  -10.1414  -39.6907  -13.9061 H   0  0  0  0  0  0  0  0  0  0  0  0
   -8.6854  -41.3566  -15.0183 H   0  0  0  0  0  0  0  0  0  0  0  0
   -9.7372  -43.4118  -15.9483 H   0  0  0  0  0  0  0  0  0  0  0  0
  -17.8236  -41.2416  -23.6287 H   0  0  0  0  0  0  0  0  0  0  0  0
  -17.7747  -39.6444  -27.6923 H   0  0  0  0  0  0  0  0  0  0  0  0
  -13.0547  -44.0775  -23.3978 H   0  0  0  0  0  0  0  0  0  0  0  0
  -14.5737  -44.4564  -24.1911 H   0  0  0  0  0  0  0  0  0  0  0  0
  -13.6464  -43.0709  -24.7322 H   0  0  0  0  0  0  0  0  0  0  0  0
  -14.4603  -44.6608  -21.8409 H   0  0  0  0  0  0  0  0  0  0  0  0
  -12.8250  -43.0035  -21.0468 H   0  0  0  0  0  0  0  0  0  0  0  0
  -14.2722  -41.1093  -20.5983 H   0  0  0  0  0  0  0  0  0  0  0  0
  -16.0480  -40.9438  -19.4418 H   0  0  0  0  0  0  0  0  0  0  0  0
  -17.4353  -42.3766  -20.2913 H   0  0  0  0  0  0  0  0  0  0  0  0
  -15.6799  -44.7193  -19.9726 H   0  0  0  0  0  0  0  0  0  0  0  0
  -17.8976  -46.7569  -23.0857 H   0  0  0  0  0  0  0  0  0  0  0  0
  -19.5477  -46.8850  -21.4678 H   0  0  0  0  0  0  0  0  0  0  0  0
  -18.0672  -46.0586  -19.9233 H   0  0  0  0  0  0  0  0  0  0  0  0
  -16.4741  -45.8721  -21.5772 H   0  0  0  0  0  0  0  0  0  0  0  0
  -16.7033  -44.7923  -23.6117 H   0  0  0  0  0  0  0  0  0  0  0  0
  -19.0557  -43.1213  -22.5968 H   0  0  0  0  0  0  0  0  0  0  0  0
  -17.1393  -41.6777  -22.0974 H   0  0  0  0  0  0  0  0  0  0  0  0
  -16.0525  -42.8880  -24.6336 H   0  0  0  0  0  0  0  0  0  0  0  0
  -14.1308  -41.9402  -22.5987 H   0  0  0  0  0  0  0  0  0  0  0  0
  1  6  1  0
  6  5  1  0
  5  4  3  0
  2  7  2  0
  7 10  1  0
  3  9  2  0
 10  9  1  0
  9  8  2  0
 14 13  1  0
 16 21  1  0
 16 17  1  0
 17 18  1  0
 18 19  1  0
 18 11  1  0
 19 20  1  0
 19  7  1  0
 20 21  1  0
 21 25  1  0
 22  4  1  0
 22 23  1  0
 22 26  1  0
 23 24  1  0
 24 25  1  0
 25 26  1  0
 27 32  2  0
 27 28  1  0
 28 29  2  0
 29 30  1  0
 30 31  2  0
 30 33  1  0
 31 32  1  0
 31 36  1  0
 32  9  1  0
 33 34  2  0
 34 35  1  0
 35 36  2  0
 37 12  1  0
 37 38  1  0
 38 39  1  0
 39 13  1  0
 39 40  1  0
 41 42  1  0
 41 45  2  0
 42 43  2  0
 43 15  1  0
 43 44  1  0
 44 45  1  0
 45 14  1  0
 16 40  1  0
 26 37  1  0
 40 46  1  0
  1 47  1  0
  6 48  1  0
  6 49  1  0
 10 50  1  0
 11 51  1  0
 11 52  1  0
 11 53  1  0
 13 54  1  0
 14 55  1  0
 14 56  1  0
 15 57  1  0
 15 58  1  0
 15 59  1  0
 17 60  1  0
 20 61  1  0
 23 62  1  0
 24 63  1  0
 27 64  1  0
 28 65  1  0
 29 66  1  0
 33 67  1  0
 34 68  1  0
 35 69  1  0
 38 70  1  0
 41 71  1  0
 46 72  1  0
 46 73  1  0
 46 74  1  0
 16 75  1  6
 17 76  1  0
 18 77  1  0
 19 78  1  0
 20 79  1  0
 21 80  1  0
 22 81  1  6
 23 82  1  0
 24 83  1  0
 25 84  1  0
 26 85  1  1
 37 86  1  1
 38 87  1  0
 39 88  1  0
 40 89  1  1
M  END
>  <smiles>  (646) 
[H]OC([H])([H])C#C[C@H]1C([H])C([H])C2C3C([H])C(C(=O)N([H])S(=O)(=O)c4c([H])c([H])c([H])c5c([H])c([H])c([H])nc45)C(C([H])([H])[H])C([H])[C@@H]3[C@@H](C([H])([H])[H])C(N([H])C([H])([H])c3sc(C([H])([H])[H])nc3[H])C([H])[C@@H](F)[C@H]21

>  <error>  (646) 


>  <∆∆G>  (646) 
-109.223215

>  <∆G_bound>  (646) 
186.92724

>  <∆G_unbound>  (646) 
296.150455

>  <comRMSD>  (646) 
1.019283

>  <N_constrained_atoms>  (646) 
46.0

>  <N_unconstrained_atoms>  (646) 
0.0

>  <runtime>  (646) 
24.384872

>  <regarded>  (646) 
['5i3q-a', 'd0615b']

>  <disregarded>  (646) 
[]

>  <LE>  (646) 
2.374418

>  <outcome>  (646) 
too moved

>  <percent_hybrid>  (646) 
29.0

$$$$
LIG
     RDKit          3D

  0  0  0  0  0  0  0  0  0  0999 V3000
M  V30 BEGIN CTAB
M  V30 COUNTS 84 88 0 0 0
M  V30 BEGIN ATOM
M  V30 1 O -22.292000 -46.169998 -26.733999 0
M  V30 2 O -16.690001 -43.313000 -16.674999 0
M  V30 3 O -16.066999 -44.730999 -14.459000 0
M  V30 4 C -19.778999 -46.601002 -24.382000 0
M  V30 5 C -20.374001 -46.664001 -25.413000 0
M  V30 6 C -21.059999 -46.842999 -26.695000 0
M  V30 7 C -15.694000 -43.786999 -17.224001 0
M  V30 8 O -13.724000 -45.530998 -14.552000 0
M  V30 9 S -14.712000 -44.549999 -14.881000 0
M  V30 10 N -14.678000 -44.380001 -16.497999 0
M  V30 11 C -13.494000 -42.282001 -18.618000 0
M  V30 12 O -15.445000 -43.889000 -22.853001 0
M  V30 13 C -14.516000 -43.067001 -23.573999 0
M  V30 14 C -15.451000 -43.814999 -21.486000 0
M  V30 15 C -14.506000 -43.106998 -20.750000 0
M  V30 16 C -14.535000 -43.085999 -19.358000 0
M  V30 17 C -15.547000 -43.814999 -18.707001 0
M  V30 18 C -16.469999 -44.549000 -19.452999 0
M  V30 19 C -16.441999 -44.568001 -20.841000 0
M  V30 20 C -19.000000 -46.375000 -23.219000 0
M  V30 21 C -18.827999 -47.167000 -22.125999 0
M  V30 22 C -17.954000 -46.608002 -21.172001 0
M  V30 23 C -17.424000 -45.404999 -21.561001 0
M  V30 24 S -18.046000 -44.942001 -23.110001 0
M  V30 25 C -15.037000 -42.195999 -13.611000 0
M  V30 26 C -14.680000 -40.923000 -13.192000 0
M  V30 27 C -13.492000 -40.373001 -13.576000 0
M  V30 28 C -12.555000 -41.122002 -14.337000 0
M  V30 29 C -12.901000 -42.432999 -14.756000 0
M  V30 30 C -14.158000 -42.956001 -14.334000 0
M  V30 31 C -11.302000 -40.623001 -14.771000 0
M  V30 32 C -10.470000 -41.411999 -15.512000 0
M  V30 33 C -10.905000 -42.681000 -15.882000 0
M  V30 34 N -12.062000 -43.212002 -15.506000 0
M  V30 35 O -19.445000 -40.158001 -24.528000 0
M  V30 36 S -18.933001 -39.846001 -25.825001 0
M  V30 37 O -18.877001 -38.480999 -26.240999 0
M  V30 38 C -19.827000 -40.765999 -27.018000 0
M  V30 39 C -16.511999 -41.500999 -27.914000 0
M  V30 40 C -15.906000 -38.516998 -25.243999 0
M  V30 41 O -16.229000 -38.262001 -26.598000 0
M  V30 42 N -17.393000 -40.395000 -25.853001 0
M  V30 43 C -17.198999 -41.683998 -26.573000 0 CFG=2
M  V30 44 C -16.566000 -42.779999 -25.714001 0
M  V30 45 C -15.991000 -42.259998 -24.402000 0 CFG=2
M  V30 46 C -15.366000 -40.882000 -24.551001 0
M  V30 47 C -16.459999 -39.863998 -24.820000 0 CFG=1
M  V30 48 N -15.253500 -42.663498 -23.987999 0
M  V30 49 H -22.604239 -45.999432 -25.810141 0
M  V30 50 H -21.237249 -47.916702 -26.855434 0
M  V30 51 H -20.419096 -46.421791 -27.483559 0
M  V30 52 H -13.855821 -44.732903 -17.008276 0
M  V30 53 H -13.643543 -42.397499 -17.534349 0
M  V30 54 H -12.490864 -42.642075 -18.890146 0
M  V30 55 H -13.588849 -41.220428 -18.890146 0
M  V30 56 H -13.917592 -42.391712 -22.944801 0
M  V30 57 H -13.692734 -43.502975 -24.158943 0
M  V30 58 H -13.718216 -42.551319 -21.279734 0
M  V30 59 H -17.241945 -45.129215 -18.926264 0
M  V30 60 H -19.320179 -48.142643 -21.999998 0
M  V30 61 H -17.720352 -47.089180 -20.210815 0
M  V30 62 H -16.030624 -42.596390 -13.361202 0
M  V30 63 H -15.360963 -40.351559 -12.544124 0
M  V30 64 H -13.256704 -39.336460 -13.292766 0
M  V30 65 H -10.999044 -39.598141 -14.510468 0
M  V30 66 H -9.474676 -41.051456 -15.810899 0
M  V30 67 H -10.248018 -43.282570 -16.527361 0
M  V30 68 H -20.506313 -41.465069 -26.508259 0
M  V30 69 H -20.412142 -40.079388 -27.647423 0
M  V30 70 H -19.123901 -41.331223 -27.647423 0
M  V30 71 H -15.460629 -41.220943 -27.752167 0
M  V30 72 H -16.557558 -42.442596 -28.480846 0
M  V30 73 H -17.019920 -40.706833 -28.480846 0
M  V30 74 H -14.812429 -38.519810 -25.125275 0
M  V30 75 H -16.349152 -37.731411 -24.614344 0
M  V30 76 H -17.005259 -37.649174 -26.642309 0
M  V30 77 H -18.210634 -42.054550 -26.795010 0
M  V30 78 H -16.529486 -43.837841 -26.013391 0
M  V30 79 H -15.597886 -42.607105 -26.206812 0
M  V30 80 H -16.912861 -42.411068 -23.821180 0
M  V30 81 H -14.291663 -40.658054 -24.475843 0
M  V30 82 H -15.255508 -41.049068 -25.632610 0
M  V30 83 H -17.003857 -39.699589 -23.878094 0
M  V30 84 H -13.923500 -41.333500 -22.657999 0
M  V30 END ATOM
M  V30 BEGIN BOND
M  V30 1 1 1 6
M  V30 2 1 6 5
M  V30 3 3 5 4
M  V30 4 1 12 13
M  V30 5 2 2 7
M  V30 6 1 7 10
M  V30 7 2 3 9
M  V30 8 1 10 9
M  V30 9 2 9 8
M  V30 10 1 14 19
M  V30 11 1 14 12
M  V30 12 2 14 15
M  V30 13 1 15 16
M  V30 14 2 16 17
M  V30 15 1 16 11
M  V30 16 1 17 18
M  V30 17 1 17 7
M  V30 18 2 18 19
M  V30 19 1 19 23
M  V30 20 1 20 4
M  V30 21 2 20 21
M  V30 22 1 20 24
M  V30 23 1 21 22
M  V30 24 2 22 23
M  V30 25 1 23 24
M  V30 26 2 25 30
M  V30 27 1 25 26
M  V30 28 2 26 27
M  V30 29 1 27 28
M  V30 30 2 28 29
M  V30 31 1 28 31
M  V30 32 1 29 30
M  V30 33 1 29 34
M  V30 34 1 30 9
M  V30 35 2 31 32
M  V30 36 1 32 33
M  V30 37 2 33 34
M  V30 38 1 41 40
M  V30 39 1 38 36
M  V30 40 2 37 36
M  V30 41 2 36 35
M  V30 42 1 42 47
M  V30 43 1 42 36
M  V30 44 1 42 43
M  V30 45 1 43 39
M  V30 46 1 43 44
M  V30 47 1 44 45
M  V30 48 1 45 46
M  V30 49 1 46 47
M  V30 50 1 47 40
M  V30 51 1 48 13
M  V30 52 1 48 45
M  V30 53 1 1 49
M  V30 54 1 6 50
M  V30 55 1 6 51
M  V30 56 1 10 52
M  V30 57 1 11 53
M  V30 58 1 11 54
M  V30 59 1 11 55
M  V30 60 1 13 56
M  V30 61 1 13 57
M  V30 62 1 15 58
M  V30 63 1 18 59
M  V30 64 1 21 60
M  V30 65 1 22 61
M  V30 66 1 25 62
M  V30 67 1 26 63
M  V30 68 1 27 64
M  V30 69 1 31 65
M  V30 70 1 32 66
M  V30 71 1 33 67
M  V30 72 1 38 68
M  V30 73 1 38 69
M  V30 74 1 38 70
M  V30 75 1 39 71
M  V30 76 1 39 72
M  V30 77 1 39 73
M  V30 78 1 40 74
M  V30 79 1 40 75
M  V30 80 1 41 76
M  V30 81 1 43 77 CFG=3
M  V30 82 1 44 78
M  V30 83 1 44 79
M  V30 84 1 45 80 CFG=1
M  V30 85 1 46 81
M  V30 86 1 46 82
M  V30 87 1 47 83 CFG=1
M  V30 88 1 48 84
M  V30 END BOND
M  V30 BEGIN COLLECTION
M  V30 MDLV30/STEABS ATOMS=(0)
M  V30 END COLLECTION
M  V30 END CTAB
M  END
>  <smiles>  (647) 
[H]OC([H])([H])C#Cc1sc(-c2c([H])c(C(=O)N([H])S(=O)(=O)c3c([H])c([H])c([H])c4c([H])c([H])c([H])nc34)c(C([H])([H])[H])c([H])c2OC([H])([H])N([H])[C@]2([H])C([H])([H])[C@]([H])(C([H])([H])[H])N(S(=O)(=O)C([H])([H])[H])[C@]([H])(C([H])([H])O[H])C2([H])[H])c([H])c1[H]

>  <error>  (647) 


>  <∆∆G>  (647) 
nan

>  <∆G_bound>  (647) 
nan

>  <∆G_unbound>  (647) 
nan

>  <comRMSD>  (647) 
0.0

>  <N_constrained_atoms>  (647) 
47.0

>  <N_unconstrained_atoms>  (647) 
1.0

>  <runtime>  (647) 
2.993229

>  <regarded>  (647) 
['5i3q-a', 'd0851a']

>  <disregarded>  (647) 
[]

>  <LE>  (647) 
nan

>  <outcome>  (647) 
crashed

>  <percent_hybrid>  (647) 
28.0

$$$$
LIG
     RDKit          3D

 89 94  0  0  0  0  0  0  0  0999 V2000
  -21.8939  -45.8658  -26.7727 O   0  0  0  0  0  0  0  0  0  0  0  0
  -16.7167  -42.2705  -16.9916 O   0  0  0  0  0  0  0  0  0  0  0  0
  -15.7954  -43.6514  -14.1932 O   0  0  0  0  0  0  0  0  0  0  0  0
  -19.4034  -46.3425  -24.4464 C   0  0  0  0  0  0  0  0  0  0  0  0
  -20.0126  -46.4998  -25.4732 C   0  0  0  0  0  0  0  0  0  0  0  0
  -20.7602  -46.7211  -26.7150 C   0  0  0  0  0  0  0  0  0  0  0  0
  -15.7956  -42.9098  -17.3146 C   0  0  0  0  0  0  0  0  0  0  0  0
  -13.5865  -44.7588  -14.5544 O   0  0  0  0  0  0  0  0  0  0  0  0
  -14.5094  -43.6795  -14.8343 S   0  0  0  0  0  0  0  0  0  0  0  0
  -14.7329  -43.6512  -16.4548 N   0  0  0  0  0  0  0  0  0  0  0  0
  -13.3245  -41.9543  -18.7212 C   0  0  0  0  0  0  0  0  0  0  0  0
  -15.1167  -43.9489  -22.8089 O   0  0  0  0  0  0  0  0  0  0  0  0
  -15.0602  -42.7107  -23.5704 C   0  0  0  0  0  0  0  0  0  0  0  0
  -19.1526  -37.5044  -26.9166 O   0  0  0  0  0  0  0  0  0  0  0  0
  -18.4239  -37.3631  -25.9990 C   0  0  0  0  0  0  0  0  0  0  0  0
  -18.9060  -40.2091  -25.2951 C   0  0  0  0  0  0  0  0  0  0  0  0
  -16.6839  -41.9163  -23.8548 S   0  0  0  0  0  0  0  0  0  0  0  0
  -17.1777  -41.3920  -22.5963 O   0  0  0  0  0  0  0  0  0  0  0  0
  -17.4776  -42.8041  -24.6823 O   0  0  0  0  0  0  0  0  0  0  0  0
  -15.2591  -43.7443  -21.4585 C   0  0  0  0  0  0  0  0  0  0  0  0
  -14.2653  -43.0379  -20.7672 C   0  0  0  0  0  0  0  0  0  0  0  0
  -14.4062  -42.7391  -19.4078 C   0  0  0  0  0  0  0  0  0  0  0  0
  -15.5496  -43.2117  -18.7453 C   0  0  0  0  0  0  0  0  0  0  0  0
  -16.5049  -44.0021  -19.4091 C   0  0  0  0  0  0  0  0  0  0  0  0
  -16.3555  -44.3023  -20.7682 C   0  0  0  0  0  0  0  0  0  0  0  0
  -18.7455  -46.1359  -23.1880 C   0  0  0  0  0  0  0  0  0  0  0  0
  -18.3704  -47.0986  -22.2739 C   0  0  0  0  0  0  0  0  0  0  0  0
  -17.5107  -46.5627  -21.2572 C   0  0  0  0  0  0  0  0  0  0  0  0
  -17.3091  -45.2049  -21.4221 C   0  0  0  0  0  0  0  0  0  0  0  0
  -18.4374  -44.5934  -22.5455 S   0  0  0  0  0  0  0  0  0  0  0  0
  -14.6181  -41.1744  -13.8237 C   0  0  0  0  0  0  0  0  0  0  0  0
  -14.0931  -39.9510  -13.4532 C   0  0  0  0  0  0  0  0  0  0  0  0
  -12.7600  -39.6853  -13.7308 C   0  0  0  0  0  0  0  0  0  0  0  0
  -11.9535  -40.6415  -14.3763 C   0  0  0  0  0  0  0  0  0  0  0  0
  -12.4688  -41.8967  -14.7664 C   0  0  0  0  0  0  0  0  0  0  0  0
  -13.8025  -42.1240  -14.4702 C   0  0  0  0  0  0  0  0  0  0  0  0
  -10.6069  -40.3687  -14.6332 C   0  0  0  0  0  0  0  0  0  0  0  0
   -9.8019  -41.3343  -15.2186 C   0  0  0  0  0  0  0  0  0  0  0  0
  -10.3812  -42.5380  -15.5532 C   0  0  0  0  0  0  0  0  0  0  0  0
  -11.6915  -42.8116  -15.3923 N   0  0  0  0  0  0  0  0  0  0  0  0
  -19.2266  -36.5951  -23.7546 C   0  0  0  0  0  0  0  0  0  0  0  0
  -19.0828  -35.5739  -22.6458 C   0  0  0  0  0  0  0  0  0  0  0  0
  -19.0074  -34.3431  -23.4733 C   0  0  0  0  0  0  0  0  0  0  0  0
  -19.1399  -34.9824  -24.8326 C   0  0  0  0  0  0  0  0  0  0  0  0
  -18.3629  -36.2624  -24.9523 N   0  0  0  0  0  0  0  0  0  0  0  0
  -17.5798  -39.5534  -24.8839 C   0  0  2  0  0  0  0  0  0  0  0  0
  -17.2275  -38.3217  -25.7513 C   0  0  1  0  0  0  0  0  0  0  0  0
  -16.6810  -38.7386  -27.1230 C   0  0  0  0  0  0  0  0  0  0  0  0
  -15.5492  -39.7402  -26.9982 C   0  0  0  0  0  0  0  0  0  0  0  0
  -15.9648  -40.9482  -26.2072 C   0  0  0  0  0  0  0  0  0  0  0  0
  -16.4065  -40.5503  -24.8500 N   0  0  0  0  0  0  0  0  0  0  0  0
  -22.6648  -46.3848  -26.4678 H   0  0  0  0  0  0  0  0  0  0  0  0
  -21.0846  -47.7595  -26.8232 H   0  0  0  0  0  0  0  0  0  0  0  0
  -20.1299  -46.4762  -27.5676 H   0  0  0  0  0  0  0  0  0  0  0  0
  -14.0225  -44.0416  -17.0581 H   0  0  0  0  0  0  0  0  0  0  0  0
  -13.7357  -41.2895  -17.9554 H   0  0  0  0  0  0  0  0  0  0  0  0
  -12.5989  -42.6336  -18.2643 H   0  0  0  0  0  0  0  0  0  0  0  0
  -12.7925  -41.3160  -19.4354 H   0  0  0  0  0  0  0  0  0  0  0  0
  -14.3985  -41.9627  -23.1249 H   0  0  0  0  0  0  0  0  0  0  0  0
  -14.6666  -42.9882  -24.5502 H   0  0  0  0  0  0  0  0  0  0  0  0
  -19.2072  -40.9942  -24.5964 H   0  0  0  0  0  0  0  0  0  0  0  0
  -19.7286  -39.4878  -25.2854 H   0  0  0  0  0  0  0  0  0  0  0  0
  -18.8564  -40.6497  -26.2952 H   0  0  0  0  0  0  0  0  0  0  0  0
  -13.3647  -42.7251  -21.2934 H   0  0  0  0  0  0  0  0  0  0  0  0
  -17.3729  -44.3694  -18.8636 H   0  0  0  0  0  0  0  0  0  0  0  0
  -18.5923  -48.1523  -22.3838 H   0  0  0  0  0  0  0  0  0  0  0  0
  -16.9958  -47.1710  -20.5238 H   0  0  0  0  0  0  0  0  0  0  0  0
  -15.6645  -41.3862  -13.6048 H   0  0  0  0  0  0  0  0  0  0  0  0
  -14.7140  -39.2140  -12.9507 H   0  0  0  0  0  0  0  0  0  0  0  0
  -12.3443  -38.7244  -13.4326 H   0  0  0  0  0  0  0  0  0  0  0  0
  -10.1674  -39.4156  -14.3478 H   0  0  0  0  0  0  0  0  0  0  0  0
   -8.7445  -41.1593  -15.3828 H   0  0  0  0  0  0  0  0  0  0  0  0
   -9.7842  -43.3530  -15.9495 H   0  0  0  0  0  0  0  0  0  0  0  0
  -18.8766  -37.5550  -23.3642 H   0  0  0  0  0  0  0  0  0  0  0  0
  -20.2710  -36.8059  -24.0467 H   0  0  0  0  0  0  0  0  0  0  0  0
  -19.9305  -35.5903  -21.9554 H   0  0  0  0  0  0  0  0  0  0  0  0
  -18.1600  -35.7236  -22.0752 H   0  0  0  0  0  0  0  0  0  0  0  0
  -19.8056  -33.6239  -23.2706 H   0  0  0  0  0  0  0  0  0  0  0  0
  -18.0411  -33.8423  -23.3516 H   0  0  0  0  0  0  0  0  0  0  0  0
  -20.1781  -35.0965  -25.1904 H   0  0  0  0  0  0  0  0  0  0  0  0
  -18.6915  -34.3141  -25.5805 H   0  0  0  0  0  0  0  0  0  0  0  0
  -17.6894  -39.1985  -23.8536 H   0  0  0  0  0  0  0  0  0  0  0  0
  -16.4316  -37.7602  -25.2427 H   0  0  0  0  0  0  0  0  0  0  0  0
  -17.4757  -39.1793  -27.7385 H   0  0  0  0  0  0  0  0  0  0  0  0
  -16.3296  -37.8503  -27.6610 H   0  0  0  0  0  0  0  0  0  0  0  0
  -15.2680  -40.1023  -27.9890 H   0  0  0  0  0  0  0  0  0  0  0  0
  -14.6726  -39.2674  -26.5425 H   0  0  0  0  0  0  0  0  0  0  0  0
  -16.7545  -41.4893  -26.7389 H   0  0  0  0  0  0  0  0  0  0  0  0
  -15.1021  -41.6096  -26.1304 H   0  0  0  0  0  0  0  0  0  0  0  0
  1  6  1  0
  6  5  1  0
  5  4  3  0
 12 13  1  0
  2  7  2  0
  7 10  1  0
  3  9  2  0
 10  9  1  0
  9  8  2  0
 18 17  2  0
 19 17  2  0
 15 14  2  0
 17 13  1  0
 20 25  1  0
 20 12  1  0
 20 21  2  0
 21 22  1  0
 22 23  2  0
 22 11  1  0
 23 24  1  0
 23  7  1  0
 24 25  2  0
 25 29  1  0
 26  4  1  0
 26 27  2  0
 26 30  1  0
 27 28  1  0
 28 29  2  0
 29 30  1  0
 31 36  2  0
 31 32  1  0
 32 33  2  0
 33 34  1  0
 34 35  2  0
 34 37  1  0
 35 36  1  0
 35 40  1  0
 36  9  1  0
 37 38  2  0
 38 39  1  0
 39 40  2  0
 41 42  1  0
 41 45  1  0
 42 43  1  0
 43 44  1  0
 44 45  1  0
 45 15  1  0
 46 16  1  0
 46 51  1  0
 46 47  1  0
 47 48  1  0
 47 15  1  0
 48 49  1  0
 49 50  1  0
 50 51  1  0
 51 17  1  0
  1 52  1  0
  6 53  1  0
  6 54  1  0
 10 55  1  0
 11 56  1  0
 11 57  1  0
 11 58  1  0
 13 59  1  0
 13 60  1  0
 16 61  1  0
 16 62  1  0
 16 63  1  0
 21 64  1  0
 24 65  1  0
 27 66  1  0
 28 67  1  0
 31 68  1  0
 32 69  1  0
 33 70  1  0
 37 71  1  0
 38 72  1  0
 39 73  1  0
 41 74  1  0
 41 75  1  0
 42 76  1  0
 42 77  1  0
 43 78  1  0
 43 79  1  0
 44 80  1  0
 44 81  1  0
 46 82  1  1
 47 83  1  1
 48 84  1  0
 48 85  1  0
 49 86  1  0
 49 87  1  0
 50 88  1  0
 50 89  1  0
M  END
>  <smiles>  (648) 
[H]OC([H])([H])C#Cc1sc(-c2c([H])c(C(=O)N([H])S(=O)(=O)c3c([H])c([H])c([H])c4c([H])c([H])c([H])nc34)c(C([H])([H])[H])c([H])c2OC([H])([H])S(=O)(=O)N2C([H])([H])C([H])([H])C([H])([H])[C@@]([H])(C(=O)N3C([H])([H])C([H])([H])C([H])([H])C3([H])[H])[C@@]2([H])C([H])([H])[H])c([H])c1[H]

>  <error>  (648) 


>  <∆∆G>  (648) 
-147.366601

>  <∆G_bound>  (648) 
156.896741

>  <∆G_unbound>  (648) 
304.263341

>  <comRMSD>  (648) 
0.634916

>  <N_constrained_atoms>  (648) 
51.0

>  <N_unconstrained_atoms>  (648) 
0.0

>  <runtime>  (648) 
144.143176

>  <regarded>  (648) 
['5i3q-a', 'd0866a']

>  <disregarded>  (648) 
[]

>  <LE>  (648) 
2.889541

>  <outcome>  (648) 
acceptable

>  <percent_hybrid>  (648) 
34.0

$$$$

     RDKit          2D

  0  0  0  0  0  0  0  0  0  0999 V2000
M  END
>  <smiles>  (649) 
nan

>  <error>  (649) 
DistanceError 5.73 Å

>  <∆∆G>  (649) 
nan

>  <∆G_bound>  (649) 
nan

>  <∆G_unbound>  (649) 
nan

>  <comRMSD>  (649) 
nan

>  <N_constrained_atoms>  (649) 
nan

>  <N_unconstrained_atoms>  (649) 
nan

>  <runtime>  (649) 
nan

>  <regarded>  (649) 
[]

>  <disregarded>  (649) 
[]

>  <LE>  (649) 
nan

>  <outcome>  (649) 
too distant

>  <percent_hybrid>  (649) 
nan

$$$$
LIG
     RDKit          3D

 69 74  0  0  0  0  0  0  0  0999 V2000
  -21.9856  -45.8279  -26.9416 O   0  0  0  0  0  0  0  0  0  0  0  0
  -16.7426  -42.7094  -16.7830 O   0  0  0  0  0  0  0  0  0  0  0  0
  -16.0437  -43.1191  -13.9185 O   0  0  0  0  0  0  0  0  0  0  0  0
  -19.5136  -46.1891  -24.5896 C   0  0  0  0  0  0  0  0  0  0  0  0
  -20.1280  -46.4091  -25.5986 C   0  0  0  0  0  0  0  0  0  0  0  0
  -20.8594  -46.6869  -26.8306 C   0  0  0  0  0  0  0  0  0  0  0  0
  -15.6873  -42.6510  -17.4027 C   0  0  0  0  0  0  0  0  0  0  0  0
  -13.2993  -42.0476  -19.0573 C   0  0  2  0  0  0  0  0  0  0  0  0
  -15.4640  -44.0327  -22.9333 O   0  0  0  0  0  0  0  0  0  0  0  0
  -14.5364  -43.3935  -23.7953 C   0  0  0  0  0  0  0  0  0  0  0  0
  -12.3993  -43.1456  -19.1064 O   0  0  0  0  0  0  0  0  0  0  0  0
  -13.4900  -41.5608  -17.6344 C   0  0  0  0  0  0  0  0  0  0  0  0
  -15.5146  -43.6103  -21.6302 C   0  0  0  0  0  0  0  0  0  0  0  0
  -14.4918  -42.9044  -21.0263 C   0  0  0  0  0  0  0  0  0  0  0  0
  -14.5602  -42.5705  -19.6658 C   0  0  0  0  0  0  0  0  0  0  0  0
  -15.6933  -42.8990  -18.9028 C   0  0  0  0  0  0  0  0  0  0  0  0
  -16.7345  -43.6238  -19.5092 C   0  0  0  0  0  0  0  0  0  0  0  0
  -16.6363  -44.0008  -20.8654 C   0  0  0  0  0  0  0  0  0  0  0  0
  -18.8681  -45.9042  -23.3468 C   0  0  0  0  0  0  0  0  0  0  0  0
  -18.5512  -46.8246  -22.3682 C   0  0  0  0  0  0  0  0  0  0  0  0
  -17.8396  -46.2316  -21.2812 C   0  0  0  0  0  0  0  0  0  0  0  0
  -17.6121  -44.8882  -21.5027 C   0  0  0  0  0  0  0  0  0  0  0  0
  -18.5068  -44.3165  -22.8529 S   0  0  0  0  0  0  0  0  0  0  0  0
  -15.0709  -40.7969  -14.9614 C   0  0  0  0  0  0  0  0  0  0  0  0
  -14.8454  -40.1698  -13.5893 C   0  0  0  0  0  0  0  0  0  0  0  0
  -13.4187  -39.6576  -13.4885 C   0  0  0  0  0  0  0  0  0  0  0  0
  -12.3984  -40.6109  -14.0405 C   0  0  0  0  0  0  0  0  0  0  0  0
  -12.7303  -41.7325  -14.8029 C   0  0  0  0  0  0  0  0  0  0  0  0
  -14.2038  -42.0753  -15.1819 C   0  0  2  0  0  0  0  0  0  0  0  0
  -11.0397  -40.3318  -13.8320 C   0  0  0  0  0  0  0  0  0  0  0  0
  -10.0583  -41.1765  -14.3339 C   0  0  0  0  0  0  0  0  0  0  0  0
  -10.4660  -42.2865  -15.0325 C   0  0  0  0  0  0  0  0  0  0  0  0
  -11.7594  -42.5558  -15.2828 N   0  0  0  0  0  0  0  0  0  0  0  0
  -14.2917  -42.5309  -16.7165 C   0  0  1  0  0  0  0  0  0  0  0  0
  -13.7895  -43.9632  -16.8158 C   0  0  0  0  0  0  0  0  0  0  0  0
  -14.4883  -44.9021  -15.8624 C   0  0  0  0  0  0  0  0  0  0  0  0
  -14.3364  -44.5969  -14.4679 N   0  0  0  0  0  0  0  0  0  0  0  0
  -14.6530  -43.2034  -14.1731 C   0  0  2  0  0  0  0  0  0  0  0  0
  -12.9433  -44.8442  -14.1668 O   0  0  0  0  0  0  0  0  0  0  0  0
  -22.7505  -46.3138  -26.5703 H   0  0  0  0  0  0  0  0  0  0  0  0
  -16.5146  -43.4098  -14.7218 H   0  0  0  0  0  0  0  0  0  0  0  0
  -21.1860  -47.7278  -26.8996 H   0  0  0  0  0  0  0  0  0  0  0  0
  -20.2086  -46.4718  -27.6750 H   0  0  0  0  0  0  0  0  0  0  0  0
  -12.8914  -41.2363  -19.6725 H   0  0  0  0  0  0  0  0  0  0  0  0
  -14.5232  -42.3063  -23.6643 H   0  0  0  0  0  0  0  0  0  0  0  0
  -13.5441  -43.8308  -23.6612 H   0  0  0  0  0  0  0  0  0  0  0  0
  -14.8585  -43.5887  -24.8204 H   0  0  0  0  0  0  0  0  0  0  0  0
  -11.5045  -42.8134  -18.9008 H   0  0  0  0  0  0  0  0  0  0  0  0
  -12.4938  -41.3396  -17.2473 H   0  0  0  0  0  0  0  0  0  0  0  0
  -14.0220  -40.6010  -17.6783 H   0  0  0  0  0  0  0  0  0  0  0  0
  -13.5680  -42.6983  -21.5622 H   0  0  0  0  0  0  0  0  0  0  0  0
  -17.5926  -43.9348  -18.9175 H   0  0  0  0  0  0  0  0  0  0  0  0
  -18.7651  -47.8841  -22.4468 H   0  0  0  0  0  0  0  0  0  0  0  0
  -17.4054  -46.7936  -20.4637 H   0  0  0  0  0  0  0  0  0  0  0  0
  -14.8374  -40.0394  -15.7199 H   0  0  0  0  0  0  0  0  0  0  0  0
  -16.1385  -41.0073  -15.0791 H   0  0  0  0  0  0  0  0  0  0  0  0
  -15.5409  -39.3354  -13.4410 H   0  0  0  0  0  0  0  0  0  0  0  0
  -15.0502  -40.8866  -12.7872 H   0  0  0  0  0  0  0  0  0  0  0  0
  -13.3379  -38.7160  -14.0467 H   0  0  0  0  0  0  0  0  0  0  0  0
  -13.1942  -39.4359  -12.4382 H   0  0  0  0  0  0  0  0  0  0  0  0
  -10.7440  -39.4542  -13.2611 H   0  0  0  0  0  0  0  0  0  0  0  0
   -9.0069  -40.9834  -14.1581 H   0  0  0  0  0  0  0  0  0  0  0  0
   -9.7547  -43.0114  -15.4165 H   0  0  0  0  0  0  0  0  0  0  0  0
  -14.0161  -44.3380  -17.8155 H   0  0  0  0  0  0  0  0  0  0  0  0
  -12.7139  -43.9927  -16.7178 H   0  0  0  0  0  0  0  0  0  0  0  0
  -15.5205  -44.8310  -16.1601 H   0  0  0  0  0  0  0  0  0  0  0  0
  -14.2287  -45.9534  -16.0052 H   0  0  0  0  0  0  0  0  0  0  0  0
  -14.2071  -42.9896  -13.1930 H   0  0  0  0  0  0  0  0  0  0  0  0
  -12.9856  -45.6122  -13.5663 H   0  0  0  0  0  0  0  0  0  0  0  0
  1  6  1  0
  6  5  1  0
  5  4  3  0
  9 10  1  0
  2  7  2  0
 11  8  1  0
 12  8  1  0
 13 18  2  0
 13  9  1  0
 13 14  1  0
 14 15  2  0
 15 16  1  0
 15  8  1  0
 16 17  2  0
 16  7  1  0
 17 18  1  0
 18 22  1  0
 19  4  1  0
 19 20  2  0
 19 23  1  0
 20 21  1  0
 21 22  2  0
 22 23  1  0
 29 24  1  6
 24 25  1  0
 25 26  1  0
 26 27  1  0
 27 28  2  0
 27 30  1  0
 28 29  1  0
 28 33  1  0
 30 31  2  0
 31 32  1  0
 32 33  2  0
 34 12  1  6
 34 35  1  0
 35 36  1  0
 36 37  1  0
 37 38  1  0
 29 34  1  0
 29 38  1  0
 38  3  1  0
 34  7  1  0
 37 39  1  0
  1 40  1  0
  3 41  1  0
  6 42  1  0
  6 43  1  0
  8 44  1  6
 10 45  1  0
 10 46  1  0
 10 47  1  0
 11 48  1  0
 12 49  1  0
 12 50  1  0
 14 51  1  0
 17 52  1  0
 20 53  1  0
 21 54  1  0
 24 55  1  0
 24 56  1  0
 25 57  1  0
 25 58  1  0
 26 59  1  0
 26 60  1  0
 30 61  1  0
 31 62  1  0
 32 63  1  0
 35 64  1  0
 35 65  1  0
 36 66  1  0
 36 67  1  0
 38 68  1  1
 39 69  1  0
M  END
>  <smiles>  (650) 
[H]ON1C([H])([H])C([H])([H])[C@@]2(C(=O)c3c([H])c(-c4sc(C#CC([H])([H])O[H])c([H])c4[H])c(OC([H])([H])[H])c([H])c3[C@]([H])(O[H])C2([H])[H])[C@]2(c3nc([H])c([H])c([H])c3C([H])([H])C([H])([H])C2([H])[H])[C@@]1([H])O[H]

>  <error>  (650) 


>  <∆∆G>  (650) 
-74.471488

>  <∆G_bound>  (650) 
165.232463

>  <∆G_unbound>  (650) 
239.703951

>  <comRMSD>  (650) 
1.153081

>  <N_constrained_atoms>  (650) 
39.0

>  <N_unconstrained_atoms>  (650) 
0.0

>  <runtime>  (650) 
6.109816

>  <regarded>  (650) 
['5i3q-a', 'z0052a']

>  <disregarded>  (650) 
[]

>  <LE>  (650) 
1.909525

>  <outcome>  (650) 
too moved

>  <percent_hybrid>  (650) 
18.0

$$$$
LIG
     RDKit          3D

  0  0  0  0  0  0  0  0  0  0999 V3000
M  V30 BEGIN CTAB
M  V30 COUNTS 74 78 0 0 0
M  V30 BEGIN ATOM
M  V30 1 O -22.292000 -46.169998 -26.733999 0
M  V30 2 O -16.690001 -43.313000 -16.674999 0
M  V30 3 O -16.066999 -44.730999 -14.459000 0
M  V30 4 C -19.778999 -46.601002 -24.382000 0
M  V30 5 C -20.374001 -46.664001 -25.413000 0
M  V30 6 C -21.059999 -46.842999 -26.695000 0
M  V30 7 C -15.694000 -43.786999 -17.224001 0
M  V30 8 O -13.724000 -45.530998 -14.552000 0
M  V30 9 S -14.712000 -44.549999 -14.881000 0
M  V30 10 N -14.678000 -44.380001 -16.497999 0
M  V30 11 C -13.494000 -42.282001 -18.618000 0
M  V30 12 O -15.445000 -43.889000 -22.853001 0
M  V30 13 C -14.516000 -43.067001 -23.573999 0
M  V30 14 C -15.451000 -43.814999 -21.486000 0
M  V30 15 C -14.506000 -43.106998 -20.750000 0
M  V30 16 C -14.535000 -43.085999 -19.358000 0
M  V30 17 C -15.547000 -43.814999 -18.707001 0
M  V30 18 C -16.469999 -44.549000 -19.452999 0
M  V30 19 C -16.441999 -44.568001 -20.841000 0
M  V30 20 C -19.000000 -46.375000 -23.219000 0
M  V30 21 C -18.827999 -47.167000 -22.125999 0
M  V30 22 C -17.954000 -46.608002 -21.172001 0
M  V30 23 C -17.424000 -45.404999 -21.561001 0
M  V30 24 S -18.046000 -44.942001 -23.110001 0
M  V30 25 C -15.037000 -42.195999 -13.611000 0
M  V30 26 C -14.680000 -40.923000 -13.192000 0
M  V30 27 C -13.492000 -40.373001 -13.576000 0
M  V30 28 C -12.555000 -41.122002 -14.337000 0
M  V30 29 C -12.901000 -42.432999 -14.756000 0
M  V30 30 C -14.158000 -42.956001 -14.334000 0
M  V30 31 C -11.302000 -40.623001 -14.771000 0
M  V30 32 C -10.470000 -41.411999 -15.512000 0
M  V30 33 C -10.905000 -42.681000 -15.882000 0
M  V30 34 N -12.062000 -43.212002 -15.506000 0
M  V30 35 N -13.266000 -42.196999 -21.974001 0
M  V30 36 C -12.944000 -41.021999 -21.833000 0
M  V30 37 C -11.629000 -40.624001 -21.225000 0
M  V30 38 N -13.726000 -40.034000 -22.247999 0
M  V30 39 C -13.348000 -39.222000 -23.382000 0
M  V30 40 C -12.966000 -37.907001 -22.924999 0
M  V30 41 N -11.741000 -37.458000 -22.879000 0
M  V30 42 C -11.837000 -36.210999 -22.299000 0
M  V30 43 C -13.101000 -35.942001 -22.018000 0
M  V30 44 N -13.818000 -37.035000 -22.421000 0
M  V30 45 N -13.891000 -42.632000 -22.774000 0
M  V30 46 H -22.604239 -45.999432 -25.810141 0
M  V30 47 H -21.237249 -47.916702 -26.855434 0
M  V30 48 H -20.419096 -46.421791 -27.483559 0
M  V30 49 H -13.855821 -44.732903 -17.008276 0
M  V30 50 H -13.643543 -42.397499 -17.534349 0
M  V30 51 H -12.490864 -42.642075 -18.890146 0
M  V30 52 H -13.588849 -41.220428 -18.890146 0
M  V30 53 H -13.908917 -43.670425 -24.264891 0
M  V30 54 H -15.007206 -42.307007 -24.199402 0
M  V30 55 H -13.718216 -42.551319 -21.279734 0
M  V30 56 H -17.241945 -45.129215 -18.926264 0
M  V30 57 H -19.320179 -48.142643 -21.999998 0
M  V30 58 H -17.720352 -47.089180 -20.210815 0
M  V30 59 H -16.030624 -42.596390 -13.361202 0
M  V30 60 H -15.360963 -40.351559 -12.544124 0
M  V30 61 H -13.256704 -39.336460 -13.292766 0
M  V30 62 H -10.999044 -39.598141 -14.510468 0
M  V30 63 H -9.474676 -41.051456 -15.810899 0
M  V30 64 H -10.248018 -43.282570 -16.527361 0
M  V30 65 H -11.709771 -40.648445 -20.128242 0
M  V30 66 H -10.847049 -41.325714 -21.550806 0
M  V30 67 H -11.367404 -39.606445 -21.550806 0
M  V30 68 H -14.611291 -39.843807 -21.757097 0
M  V30 69 H -12.499456 -39.690483 -23.902094 0
M  V30 70 H -14.199591 -39.137444 -24.073118 0
M  V30 71 H -10.988646 -35.539764 -22.099646 0
M  V30 72 H -13.495500 -35.025738 -21.554501 0
M  V30 73 H -12.671000 -41.411999 -21.554001 0
M  V30 74 H -10.887267 -37.932812 -23.205488 0
M  V30 END ATOM
M  V30 BEGIN BOND
M  V30 1 1 1 6
M  V30 2 1 6 5
M  V30 3 3 5 4
M  V30 4 1 12 13
M  V30 5 2 2 7
M  V30 6 1 7 10
M  V30 7 2 3 9
M  V30 8 1 10 9
M  V30 9 2 9 8
M  V30 10 1 14 19
M  V30 11 1 14 12
M  V30 12 2 14 15
M  V30 13 1 15 16
M  V30 14 2 16 17
M  V30 15 1 16 11
M  V30 16 1 17 18
M  V30 17 1 17 7
M  V30 18 2 18 19
M  V30 19 1 19 23
M  V30 20 1 20 4
M  V30 21 2 20 21
M  V30 22 1 20 24
M  V30 23 1 21 22
M  V30 24 2 22 23
M  V30 25 1 23 24
M  V30 26 2 25 30
M  V30 27 1 25 26
M  V30 28 2 26 27
M  V30 29 1 27 28
M  V30 30 2 28 29
M  V30 31 1 28 31
M  V30 32 1 29 30
M  V30 33 1 29 34
M  V30 34 1 30 9
M  V30 35 2 31 32
M  V30 36 1 32 33
M  V30 37 2 33 34
M  V30 38 1 37 36
M  V30 39 2 36 35
M  V30 40 1 38 36
M  V30 41 1 39 38
M  V30 42 1 40 39
M  V30 43 1 40 41
M  V30 44 2 40 44
M  V30 45 1 41 42
M  V30 46 2 42 43
M  V30 47 1 43 44
M  V30 48 1 45 13
M  V30 49 1 45 35
M  V30 50 1 1 46
M  V30 51 1 6 47
M  V30 52 1 6 48
M  V30 53 1 10 49
M  V30 54 1 11 50
M  V30 55 1 11 51
M  V30 56 1 11 52
M  V30 57 1 13 53
M  V30 58 1 13 54
M  V30 59 1 15 55
M  V30 60 1 18 56
M  V30 61 1 21 57
M  V30 62 1 22 58
M  V30 63 1 25 59
M  V30 64 1 26 60
M  V30 65 1 27 61
M  V30 66 1 31 62
M  V30 67 1 32 63
M  V30 68 1 33 64
M  V30 69 1 37 65
M  V30 70 1 37 66
M  V30 71 1 37 67
M  V30 72 1 38 68
M  V30 73 1 39 69
M  V30 74 1 39 70
M  V30 75 1 42 71
M  V30 76 1 43 72
M  V30 77 1 45 73
M  V30 78 1 41 74
M  V30 END BOND
M  V30 BEGIN COLLECTION
M  V30 MDLV30/STEABS ATOMS=(0)
M  V30 END COLLECTION
M  V30 END CTAB
M  END
>  <smiles>  (651) 
[H]OC([H])([H])C#Cc1sc(-c2c([H])c(C(=O)N([H])S(=O)(=O)c3c([H])c([H])c([H])c4c([H])c([H])c([H])nc34)c(C([H])([H])[H])c([H])c2OC([H])([H])N([H])/N=C(\N([H])C([H])([H])c2nc([H])c([H])[nH]2)C([H])([H])[H])c([H])c1[H]

>  <error>  (651) 


>  <∆∆G>  (651) 
nan

>  <∆G_bound>  (651) 
nan

>  <∆G_unbound>  (651) 
nan

>  <comRMSD>  (651) 
0.0

>  <N_constrained_atoms>  (651) 
44.0

>  <N_unconstrained_atoms>  (651) 
1.0

>  <runtime>  (651) 
2.719052

>  <regarded>  (651) 
['5i3q-a', 'z0103a']

>  <disregarded>  (651) 
[]

>  <LE>  (651) 
nan

>  <outcome>  (651) 
crashed

>  <percent_hybrid>  (651) 
23.0

$$$$

     RDKit          2D

  0  0  0  0  0  0  0  0  0  0999 V2000
M  END
>  <smiles>  (652) 
nan

>  <error>  (652) 
DistanceError 6.19 Å

>  <∆∆G>  (652) 
nan

>  <∆G_bound>  (652) 
nan

>  <∆G_unbound>  (652) 
nan

>  <comRMSD>  (652) 
nan

>  <N_constrained_atoms>  (652) 
nan

>  <N_unconstrained_atoms>  (652) 
nan

>  <runtime>  (652) 
nan

>  <regarded>  (652) 
[]

>  <disregarded>  (652) 
[]

>  <LE>  (652) 
nan

>  <outcome>  (652) 
too distant

>  <percent_hybrid>  (652) 
nan

$$$$

     RDKit          2D

  0  0  0  0  0  0  0  0  0  0999 V2000
M  END
>  <smiles>  (653) 
nan

>  <error>  (653) 
RecursionError maximum recursion depth exceeded while calling a Python object

>  <∆∆G>  (653) 
nan

>  <∆G_bound>  (653) 
nan

>  <∆G_unbound>  (653) 
nan

>  <comRMSD>  (653) 
nan

>  <N_constrained_atoms>  (653) 
nan

>  <N_unconstrained_atoms>  (653) 
nan

>  <runtime>  (653) 
nan

>  <regarded>  (653) 
[]

>  <disregarded>  (653) 
[]

>  <LE>  (653) 
nan

>  <outcome>  (653) 
crashed

>  <percent_hybrid>  (653) 
nan

$$$$
LIG
     RDKit          3D

 66 70  0  0  0  0  0  0  0  0999 V2000
  -22.0065  -45.8186  -26.9412 O   0  0  0  0  0  0  0  0  0  0  0  0
  -17.2431  -42.2984  -16.7405 O   0  0  0  0  0  0  0  0  0  0  0  0
  -15.8569  -43.6183  -14.0986 O   0  0  0  0  0  0  0  0  0  0  0  0
  -19.5185  -46.2759  -24.6382 C   0  0  0  0  0  0  0  0  0  0  0  0
  -20.1384  -46.4636  -25.6491 C   0  0  0  0  0  0  0  0  0  0  0  0
  -20.8891  -46.6931  -26.8762 C   0  0  0  0  0  0  0  0  0  0  0  0
  -16.3396  -42.8773  -17.2039 C   0  0  0  0  0  0  0  0  0  0  0  0
  -13.7381  -44.7287  -14.8083 O   0  0  0  0  0  0  0  0  0  0  0  0
  -14.6859  -43.6403  -14.9315 S   0  0  0  0  0  0  0  0  0  0  0  0
  -15.1256  -43.5841  -16.5115 N   0  0  0  0  0  0  0  0  0  0  0  0
  -14.0775  -41.6194  -18.5219 C   0  0  0  0  0  0  0  0  0  0  0  0
  -15.4394  -44.0667  -22.6373 O   0  0  0  0  0  0  0  0  0  0  0  0
  -15.4252  -43.0236  -23.6198 C   0  0  0  0  0  0  0  0  0  0  0  0
  -15.7224  -43.6144  -21.3625 C   0  0  0  0  0  0  0  0  0  0  0  0
  -14.7627  -42.8847  -20.6369 C   0  0  0  0  0  0  0  0  0  0  0  0
  -15.0324  -42.4963  -19.2998 C   0  0  0  0  0  0  0  0  0  0  0  0
  -16.1824  -43.0172  -18.6776 C   0  0  0  0  0  0  0  0  0  0  0  0
  -17.1054  -43.8045  -19.3825 C   0  0  0  0  0  0  0  0  0  0  0  0
  -16.8817  -44.0966  -20.7330 C   0  0  0  0  0  0  0  0  0  0  0  0
  -18.8885  -46.0132  -23.3864 C   0  0  0  0  0  0  0  0  0  0  0  0
  -18.5728  -46.9515  -22.4261 C   0  0  0  0  0  0  0  0  0  0  0  0
  -17.9165  -46.3696  -21.3027 C   0  0  0  0  0  0  0  0  0  0  0  0
  -17.7417  -45.0122  -21.4726 C   0  0  0  0  0  0  0  0  0  0  0  0
  -18.5832  -44.4315  -22.8460 S   0  0  0  0  0  0  0  0  0  0  0  0
  -14.7490  -41.0965  -14.0440 C   0  0  0  0  0  0  0  0  0  0  0  0
  -14.2070  -39.8845  -13.6621 C   0  0  0  0  0  0  0  0  0  0  0  0
  -12.8554  -39.6630  -13.8753 C   0  0  0  0  0  0  0  0  0  0  0  0
  -12.0488  -40.6501  -14.4702 C   0  0  0  0  0  0  0  0  0  0  0  0
  -12.5791  -41.8988  -14.8687 C   0  0  0  0  0  0  0  0  0  0  0  0
  -13.9342  -42.0851  -14.6346 C   0  0  0  0  0  0  0  0  0  0  0  0
  -10.6857  -40.4089  -14.6651 C   0  0  0  0  0  0  0  0  0  0  0  0
   -9.8762  -41.3951  -15.2055 C   0  0  0  0  0  0  0  0  0  0  0  0
  -10.4672  -42.5882  -15.5552 C   0  0  0  0  0  0  0  0  0  0  0  0
  -11.7891  -42.8352  -15.4451 N   0  0  0  0  0  0  0  0  0  0  0  0
  -12.6595  -43.9505  -20.4754 N   0  0  0  0  0  0  0  0  0  0  0  0
  -13.3574  -42.8970  -21.1909 C   0  0  0  0  0  0  0  0  0  0  0  0
  -12.6515  -41.5972  -21.1741 C   0  0  0  0  0  0  0  0  0  0  0  0
  -12.9171  -40.4186  -21.8388 C   0  0  0  0  0  0  0  0  0  0  0  0
  -11.9654  -39.4779  -21.5593 N   0  0  0  0  0  0  0  0  0  0  0  0
  -11.1519  -40.0515  -20.7009 C   0  0  0  0  0  0  0  0  0  0  0  0
  -11.5062  -41.3470  -20.4573 N   0  0  0  0  0  0  0  0  0  0  0  0
  -22.7746  -46.3134  -26.5878 H   0  0  0  0  0  0  0  0  0  0  0  0
  -21.2280  -47.7279  -26.9733 H   0  0  0  0  0  0  0  0  0  0  0  0
  -20.2464  -46.4521  -27.7193 H   0  0  0  0  0  0  0  0  0  0  0  0
  -14.4798  -43.9200  -17.2180 H   0  0  0  0  0  0  0  0  0  0  0  0
  -14.5164  -41.2414  -17.5941 H   0  0  0  0  0  0  0  0  0  0  0  0
  -13.1615  -42.1578  -18.2658 H   0  0  0  0  0  0  0  0  0  0  0  0
  -13.8550  -40.7085  -19.0815 H   0  0  0  0  0  0  0  0  0  0  0  0
  -15.6712  -42.0358  -23.2143 H   0  0  0  0  0  0  0  0  0  0  0  0
  -14.4421  -42.9909  -24.0979 H   0  0  0  0  0  0  0  0  0  0  0  0
  -16.1544  -43.2725  -24.3964 H   0  0  0  0  0  0  0  0  0  0  0  0
  -17.9770  -44.2069  -18.8703 H   0  0  0  0  0  0  0  0  0  0  0  0
  -18.7647  -48.0120  -22.5350 H   0  0  0  0  0  0  0  0  0  0  0  0
  -17.5052  -46.9401  -20.4792 H   0  0  0  0  0  0  0  0  0  0  0  0
  -15.8106  -41.2747  -13.8692 H   0  0  0  0  0  0  0  0  0  0  0  0
  -14.8297  -39.1227  -13.2002 H   0  0  0  0  0  0  0  0  0  0  0  0
  -12.4274  -38.7098  -13.5698 H   0  0  0  0  0  0  0  0  0  0  0  0
  -10.2397  -39.4622  -14.3687 H   0  0  0  0  0  0  0  0  0  0  0  0
   -8.8093  -41.2441  -15.3239 H   0  0  0  0  0  0  0  0  0  0  0  0
   -9.8703  -43.4159  -15.9251 H   0  0  0  0  0  0  0  0  0  0  0  0
  -13.7358  -40.2056  -22.5146 H   0  0  0  0  0  0  0  0  0  0  0  0
  -10.2895  -39.5904  -20.2384 H   0  0  0  0  0  0  0  0  0  0  0  0
  -13.2636  -44.7679  -20.4429 H   0  0  0  0  0  0  0  0  0  0  0  0
  -11.9492  -44.2786  -21.1582 H   0  0  0  0  0  0  0  0  0  0  0  0
  -13.3529  -43.2059  -22.2356 H   0  0  0  0  0  0  0  0  0  0  0  0
  -11.0286  -42.0151  -19.8574 H   0  0  0  0  0  0  0  0  0  0  0  0
  1  6  1  0
  6  5  1  0
  5  4  3  0
 12 13  1  0
  2  7  2  0
  7 10  1  0
  3  9  2  0
 10  9  1  0
  9  8  2  0
 14 19  2  0
 14 12  1  0
 14 15  1  0
 15 16  2  0
 16 17  1  0
 16 11  1  0
 17 18  2  0
 17  7  1  0
 18 19  1  0
 19 23  1  0
 20  4  1  0
 20 21  2  0
 20 24  1  0
 21 22  1  0
 22 23  2  0
 23 24  1  0
 25 30  2  0
 25 26  1  0
 26 27  2  0
 27 28  1  0
 28 29  2  0
 28 31  1  0
 29 30  1  0
 29 34  1  0
 30  9  1  0
 31 32  2  0
 32 33  1  0
 33 34  2  0
 36 35  1  0
 37 36  1  0
 37 38  2  0
 37 41  1  0
 38 39  1  0
 39 40  2  0
 40 41  1  0
 15 36  1  0
  1 42  1  0
  6 43  1  0
  6 44  1  0
 10 45  1  0
 11 46  1  0
 11 47  1  0
 11 48  1  0
 13 49  1  0
 13 50  1  0
 13 51  1  0
 18 52  1  0
 21 53  1  0
 22 54  1  0
 25 55  1  0
 26 56  1  0
 27 57  1  0
 31 58  1  0
 32 59  1  0
 33 60  1  0
 38 61  1  0
 40 62  1  0
 35 63  1  0
 35 64  1  0
 36 65  1  0
 41 66  1  0
M  END
>  <smiles>  (654) 
[H]OC([H])([H])C#Cc1sc(-c2c([H])c(C(=O)N([H])S(=O)(=O)c3c([H])c([H])c([H])c4c([H])c([H])c([H])nc34)c(C([H])([H])[H])c(C(N)c3[nH]c([H])nc3[H])c2OC([H])([H])[H])c([H])c1[H]

>  <error>  (654) 


>  <∆∆G>  (654) 
-217.014405

>  <∆G_bound>  (654) 
-55.293323

>  <∆G_unbound>  (654) 
161.721081

>  <comRMSD>  (654) 
0.781688

>  <N_constrained_atoms>  (654) 
41.0

>  <N_unconstrained_atoms>  (654) 
0.0

>  <runtime>  (654) 
3.893574

>  <regarded>  (654) 
['5i3q-a', 'z0875c']

>  <disregarded>  (654) 
[]

>  <LE>  (654) 
5.293034

>  <outcome>  (654) 
acceptable

>  <percent_hybrid>  (654) 
18.0

$$$$

     RDKit          2D

  0  0  0  0  0  0  0  0  0  0999 V2000
M  END
>  <smiles>  (655) 
nan

>  <error>  (655) 
FragmensteinError Ideal compound failed. Something is wrong with the SMILES

>  <∆∆G>  (655) 
nan

>  <∆G_bound>  (655) 
nan

>  <∆G_unbound>  (655) 
nan

>  <comRMSD>  (655) 
nan

>  <N_constrained_atoms>  (655) 
nan

>  <N_unconstrained_atoms>  (655) 
nan

>  <runtime>  (655) 
nan

>  <regarded>  (655) 
[]

>  <disregarded>  (655) 
[]

>  <LE>  (655) 
nan

>  <outcome>  (655) 
crashed

>  <percent_hybrid>  (655) 
nan

$$$$
LIG
     RDKit          3D

 61 64  0  0  0  0  0  0  0  0999 V2000
  -22.0189  -45.7992  -26.9227 O   0  0  0  0  0  0  0  0  0  0  0  0
  -16.7131  -43.4109  -17.0225 O   0  0  0  0  0  0  0  0  0  0  0  0
  -15.3319  -44.1932  -14.4097 O   0  0  0  0  0  0  0  0  0  0  0  0
  -19.5103  -46.2394  -24.6121 C   0  0  0  0  0  0  0  0  0  0  0  0
  -20.1519  -46.4202  -25.6149 C   0  0  0  0  0  0  0  0  0  0  0  0
  -20.8991  -46.6717  -26.8418 C   0  0  0  0  0  0  0  0  0  0  0  0
  -15.5977  -43.4530  -17.3785 C   0  0  0  0  0  0  0  0  0  0  0  0
  -12.9353  -44.7685  -14.7841 O   0  0  0  0  0  0  0  0  0  0  0  0
  -14.0517  -43.8681  -14.9652 S   0  0  0  0  0  0  0  0  0  0  0  0
  -14.2833  -43.6071  -16.5617 N   0  0  0  0  0  0  0  0  0  0  0  0
  -13.5025  -41.7490  -18.7137 C   0  0  0  0  0  0  0  0  0  0  0  0
  -15.1876  -43.6381  -23.0031 O   0  0  0  0  0  0  0  0  0  0  0  0
  -15.6775  -42.4852  -23.7142 C   0  0  0  0  0  0  0  0  0  0  0  0
  -13.1226  -39.4133  -22.2459 O   0  0  0  0  0  0  0  0  0  0  0  0
  -14.9450  -39.7855  -21.0199 O   0  0  0  0  0  0  0  0  0  0  0  0
  -13.9597  -40.2412  -21.5709 C   0  0  0  0  0  0  0  0  0  0  0  0
  -13.5250  -41.6876  -21.6611 C   0  0  0  0  0  0  0  0  0  0  0  0
  -17.2356  -45.0329  -18.9105 O   0  0  0  0  0  0  0  0  0  0  0  0
  -15.3099  -43.5051  -21.6269 C   0  0  0  0  0  0  0  0  0  0  0  0
  -14.4369  -42.6398  -20.9091 C   0  0  0  0  0  0  0  0  0  0  0  0
  -14.4509  -42.6255  -19.4920 C   0  0  0  0  0  0  0  0  0  0  0  0
  -15.3944  -43.4458  -18.8441 C   0  0  0  0  0  0  0  0  0  0  0  0
  -16.2946  -44.2671  -19.5743 C   0  0  0  0  0  0  0  0  0  0  0  0
  -16.2605  -44.3208  -20.9709 C   0  0  0  0  0  0  0  0  0  0  0  0
  -18.7743  -46.0291  -23.4044 C   0  0  0  0  0  0  0  0  0  0  0  0
  -18.4703  -46.9943  -22.4664 C   0  0  0  0  0  0  0  0  0  0  0  0
  -17.5649  -46.5025  -21.4851 C   0  0  0  0  0  0  0  0  0  0  0  0
  -17.2223  -45.1751  -21.6941 C   0  0  0  0  0  0  0  0  0  0  0  0
  -18.2240  -44.5000  -22.9160 S   0  0  0  0  0  0  0  0  0  0  0  0
  -14.6777  -41.6068  -13.6180 C   0  0  0  0  0  0  0  0  0  0  0  0
  -14.4195  -40.3334  -13.1278 C   0  0  0  0  0  0  0  0  0  0  0  0
  -13.1877  -39.7395  -13.3972 C   0  0  0  0  0  0  0  0  0  0  0  0
  -12.2173  -40.4172  -14.1590 C   0  0  0  0  0  0  0  0  0  0  0  0
  -12.4630  -41.7101  -14.6715 C   0  0  0  0  0  0  0  0  0  0  0  0
  -13.6935  -42.2664  -14.3716 C   0  0  0  0  0  0  0  0  0  0  0  0
  -10.9723  -39.8273  -14.4098 C   0  0  0  0  0  0  0  0  0  0  0  0
  -10.0053  -40.5259  -15.1299 C   0  0  0  0  0  0  0  0  0  0  0  0
  -10.3263  -41.7773  -15.6002 C   0  0  0  0  0  0  0  0  0  0  0  0
  -11.5373  -42.3498  -15.4266 N   0  0  0  0  0  0  0  0  0  0  0  0
  -22.7905  -46.2810  -26.5608 H   0  0  0  0  0  0  0  0  0  0  0  0
  -21.2221  -47.7122  -26.9217 H   0  0  0  0  0  0  0  0  0  0  0  0
  -20.2628  -46.4437  -27.6928 H   0  0  0  0  0  0  0  0  0  0  0  0
  -13.4982  -43.6809  -17.1945 H   0  0  0  0  0  0  0  0  0  0  0  0
  -14.0192  -41.2455  -17.8845 H   0  0  0  0  0  0  0  0  0  0  0  0
  -12.6663  -42.3465  -18.3445 H   0  0  0  0  0  0  0  0  0  0  0  0
  -13.0483  -40.9639  -19.3133 H   0  0  0  0  0  0  0  0  0  0  0  0
  -16.0732  -41.6959  -23.0417 H   0  0  0  0  0  0  0  0  0  0  0  0
  -14.8832  -42.0595  -24.3427 H   0  0  0  0  0  0  0  0  0  0  0  0
  -16.4745  -42.7867  -24.4134 H   0  0  0  0  0  0  0  0  0  0  0  0
  -13.5043  -38.5158  -22.0766 H   0  0  0  0  0  0  0  0  0  0  0  0
  -13.5239  -41.9357  -22.7185 H   0  0  0  0  0  0  0  0  0  0  0  0
  -12.5024  -41.7979  -21.2952 H   0  0  0  0  0  0  0  0  0  0  0  0
  -17.5452  -44.5046  -18.1428 H   0  0  0  0  0  0  0  0  0  0  0  0
  -18.8088  -48.0207  -22.5340 H   0  0  0  0  0  0  0  0  0  0  0  0
  -17.1251  -47.1019  -20.6999 H   0  0  0  0  0  0  0  0  0  0  0  0
  -15.6497  -42.0653  -13.4327 H   0  0  0  0  0  0  0  0  0  0  0  0
  -15.1684  -39.8014  -12.5411 H   0  0  0  0  0  0  0  0  0  0  0  0
  -13.0007  -38.7521  -12.9946 H   0  0  0  0  0  0  0  0  0  0  0  0
  -10.7289  -38.8366  -14.0325 H   0  0  0  0  0  0  0  0  0  0  0  0
   -9.0239  -40.0991  -15.2958 H   0  0  0  0  0  0  0  0  0  0  0  0
   -9.5813  -42.3626  -16.1296 H   0  0  0  0  0  0  0  0  0  0  0  0
  1  6  1  0
  6  5  1  0
  5  4  3  0
 12 13  1  0
  2  7  2  0
  7 10  1  0
  3  9  2  0
 10  9  1  0
  9  8  2  0
 17 16  1  0
 15 16  2  0
 16 14  1  0
 19 24  2  0
 19 12  1  0
 19 20  1  0
 20 21  2  0
 21 22  1  0
 21 11  1  0
 22 23  2  0
 22  7  1  0
 23 24  1  0
 24 28  1  0
 25  4  1  0
 25 26  2  0
 25 29  1  0
 26 27  1  0
 27 28  2  0
 28 29  1  0
 30 35  2  0
 30 31  1  0
 31 32  2  0
 32 33  1  0
 33 34  2  0
 33 36  1  0
 34 35  1  0
 34 39  1  0
 35  9  1  0
 36 37  2  0
 37 38  1  0
 38 39  2  0
 17 20  1  0
 18 23  1  0
  1 40  1  0
  6 41  1  0
  6 42  1  0
 10 43  1  0
 11 44  1  0
 11 45  1  0
 11 46  1  0
 13 47  1  0
 13 48  1  0
 13 49  1  0
 14 50  1  0
 17 51  1  0
 17 52  1  0
 18 53  1  0
 26 54  1  0
 27 55  1  0
 30 56  1  0
 31 57  1  0
 32 58  1  0
 36 59  1  0
 37 60  1  0
 38 61  1  0
M  END
>  <smiles>  (656) 
[H]OC(=O)C([H])([H])c1c(OC([H])([H])[H])c(-c2sc(C#CC([H])([H])O[H])c([H])c2[H])c(O[H])c(C(=O)N([H])S(=O)(=O)c2c([H])c([H])c([H])c3c([H])c([H])c([H])nc23)c1C([H])([H])[H]

>  <error>  (656) 


>  <∆∆G>  (656) 
-90.504092

>  <∆G_bound>  (656) 
11.068498

>  <∆G_unbound>  (656) 
101.57259

>  <comRMSD>  (656) 
0.71326

>  <N_constrained_atoms>  (656) 
39.0

>  <N_unconstrained_atoms>  (656) 
0.0

>  <runtime>  (656) 
2.590677

>  <regarded>  (656) 
['5i3q-a', '5hn0-a']

>  <disregarded>  (656) 
[]

>  <LE>  (656) 
2.320618

>  <outcome>  (656) 
acceptable

>  <percent_hybrid>  (656) 
13.0

$$$$
LIG
     RDKit          3D

 56 59  0  0  0  0  0  0  0  0999 V2000
  -21.9844  -45.8076  -26.8881 O   0  0  0  0  0  0  0  0  0  0  0  0
  -16.7652  -42.2249  -16.9233 N   0  0  0  0  0  0  0  0  0  0  0  0
  -15.6962  -43.7453  -14.2307 O   0  0  0  0  0  0  0  0  0  0  0  0
  -19.4789  -46.1916  -24.5585 C   0  0  0  0  0  0  0  0  0  0  0  0
  -20.1111  -46.3872  -25.5626 C   0  0  0  0  0  0  0  0  0  0  0  0
  -20.8539  -46.6623  -26.7912 C   0  0  0  0  0  0  0  0  0  0  0  0
  -15.8178  -42.8869  -17.3095 C   0  0  0  0  0  0  0  0  0  0  0  0
  -13.4891  -44.8293  -14.6617 O   0  0  0  0  0  0  0  0  0  0  0  0
  -14.4091  -43.7330  -14.8719 S   0  0  0  0  0  0  0  0  0  0  0  0
  -14.6427  -43.5917  -16.4870 N   0  0  0  0  0  0  0  0  0  0  0  0
  -13.3075  -42.0350  -18.7546 C   0  0  0  0  0  0  0  0  0  0  0  0
  -15.1061  -44.3076  -22.7541 O   0  0  0  0  0  0  0  0  0  0  0  0
  -14.3002  -43.5079  -23.6002 C   0  0  0  0  0  0  0  0  0  0  0  0
  -17.5962  -41.7456  -17.9284 O   0  0  0  0  0  0  0  0  0  0  0  0
  -15.2089  -43.9234  -21.4436 C   0  0  0  0  0  0  0  0  0  0  0  0
  -14.2156  -43.2151  -20.7611 C   0  0  0  0  0  0  0  0  0  0  0  0
  -14.3958  -42.8307  -19.4220 C   0  0  0  0  0  0  0  0  0  0  0  0
  -15.5734  -43.2286  -18.7594 C   0  0  0  0  0  0  0  0  0  0  0  0
  -16.5468  -43.9960  -19.4279 C   0  0  0  0  0  0  0  0  0  0  0  0
  -16.3791  -44.3323  -20.7751 C   0  0  0  0  0  0  0  0  0  0  0  0
  -18.7843  -45.9783  -23.3252 C   0  0  0  0  0  0  0  0  0  0  0  0
  -18.5537  -46.9370  -22.3596 C   0  0  0  0  0  0  0  0  0  0  0  0
  -17.7540  -46.4440  -21.2852 C   0  0  0  0  0  0  0  0  0  0  0  0
  -17.3810  -45.1312  -21.4887 C   0  0  0  0  0  0  0  0  0  0  0  0
  -18.1959  -44.4553  -22.8444 S   0  0  0  0  0  0  0  0  0  0  0  0
  -14.5412  -41.2706  -13.7631 C   0  0  0  0  0  0  0  0  0  0  0  0
  -14.0388  -40.0427  -13.3758 C   0  0  0  0  0  0  0  0  0  0  0  0
  -12.7132  -39.7465  -13.6576 C   0  0  0  0  0  0  0  0  0  0  0  0
  -11.8905  -40.6792  -14.3179 C   0  0  0  0  0  0  0  0  0  0  0  0
  -12.3816  -41.9402  -14.7197 C   0  0  0  0  0  0  0  0  0  0  0  0
  -13.7102  -42.1947  -14.4286 C   0  0  0  0  0  0  0  0  0  0  0  0
  -10.5516  -40.3762  -14.5815 C   0  0  0  0  0  0  0  0  0  0  0  0
   -9.7309  -41.3195  -15.1822 C   0  0  0  0  0  0  0  0  0  0  0  0
  -10.2859  -42.5333  -15.5212 C   0  0  0  0  0  0  0  0  0  0  0  0
  -11.5875  -42.8354  -15.3512 N   0  0  0  0  0  0  0  0  0  0  0  0
  -22.7525  -46.3125  -26.5502 H   0  0  0  0  0  0  0  0  0  0  0  0
  -21.1771  -47.7045  -26.8604 H   0  0  0  0  0  0  0  0  0  0  0  0
  -20.2144  -46.4466  -27.6447 H   0  0  0  0  0  0  0  0  0  0  0  0
  -14.0668  -44.1296  -17.1177 H   0  0  0  0  0  0  0  0  0  0  0  0
  -13.7138  -41.3399  -18.0136 H   0  0  0  0  0  0  0  0  0  0  0  0
  -12.5892  -42.7054  -18.2733 H   0  0  0  0  0  0  0  0  0  0  0  0
  -12.7678  -41.4256  -19.4881 H   0  0  0  0  0  0  0  0  0  0  0  0
  -14.3349  -42.4439  -23.3440 H   0  0  0  0  0  0  0  0  0  0  0  0
  -13.2820  -43.8992  -23.5837 H   0  0  0  0  0  0  0  0  0  0  0  0
  -14.6845  -43.6080  -24.6184 H   0  0  0  0  0  0  0  0  0  0  0  0
  -18.3088  -41.3159  -17.4160 H   0  0  0  0  0  0  0  0  0  0  0  0
  -13.2826  -42.9655  -21.2630 H   0  0  0  0  0  0  0  0  0  0  0  0
  -17.4485  -44.2994  -18.9002 H   0  0  0  0  0  0  0  0  0  0  0  0
  -18.8924  -47.9634  -22.4391 H   0  0  0  0  0  0  0  0  0  0  0  0
  -17.3895  -47.0585  -20.4712 H   0  0  0  0  0  0  0  0  0  0  0  0
  -15.5846  -41.5027  -13.5525 H   0  0  0  0  0  0  0  0  0  0  0  0
  -14.6723  -39.3235  -12.8636 H   0  0  0  0  0  0  0  0  0  0  0  0
  -12.3157  -38.7802  -13.3523 H   0  0  0  0  0  0  0  0  0  0  0  0
  -10.1305  -39.4163  -14.2918 H   0  0  0  0  0  0  0  0  0  0  0  0
   -8.6793  -41.1200  -15.3546 H   0  0  0  0  0  0  0  0  0  0  0  0
   -9.6766  -43.3334  -15.9292 H   0  0  0  0  0  0  0  0  0  0  0  0
  1  6  1  0
  6  5  1  0
  5  4  3  0
 12 13  1  0
  2  7  2  0
  7 10  1  0
  3  9  2  0
 10  9  1  0
  9  8  2  0
 14  2  1  0
 15 20  2  0
 15 12  1  0
 15 16  1  0
 16 17  2  0
 17 18  1  0
 17 11  1  0
 18 19  2  0
 18  7  1  0
 19 20  1  0
 20 24  1  0
 21  4  1  0
 21 22  2  0
 21 25  1  0
 22 23  1  0
 23 24  2  0
 24 25  1  0
 26 31  2  0
 26 27  1  0
 27 28  2  0
 28 29  1  0
 29 30  2  0
 29 32  1  0
 30 31  1  0
 30 35  1  0
 31  9  1  0
 32 33  2  0
 33 34  1  0
 34 35  2  0
  1 36  1  0
  6 37  1  0
  6 38  1  0
 10 39  1  0
 11 40  1  0
 11 41  1  0
 11 42  1  0
 13 43  1  0
 13 44  1  0
 13 45  1  0
 14 46  1  0
 16 47  1  0
 19 48  1  0
 22 49  1  0
 23 50  1  0
 26 51  1  0
 27 52  1  0
 28 53  1  0
 32 54  1  0
 33 55  1  0
 34 56  1  0
M  END
>  <smiles>  (657) 
[H]O/N=C(\c1c([H])c(-c2sc(C#CC([H])([H])O[H])c([H])c2[H])c(OC([H])([H])[H])c([H])c1C([H])([H])[H])N([H])S(=O)(=O)c1c([H])c([H])c([H])c2c([H])c([H])c([H])nc12

>  <error>  (657) 


>  <∆∆G>  (657) 
-42.665153

>  <∆G_bound>  (657) 
12.116642

>  <∆G_unbound>  (657) 
54.781795

>  <comRMSD>  (657) 
0.716648

>  <N_constrained_atoms>  (657) 
35.0

>  <N_unconstrained_atoms>  (657) 
0.0

>  <runtime>  (657) 
3.497996

>  <regarded>  (657) 
['5i3q-a', '5f41-a']

>  <disregarded>  (657) 
[]

>  <LE>  (657) 
1.219004

>  <outcome>  (657) 
acceptable

>  <percent_hybrid>  (657) 
3.0

$$$$
LIG
     RDKit          3D

 56 59  0  0  0  0  0  0  0  0999 V2000
  -21.9830  -45.8086  -26.8874 O   0  0  0  0  0  0  0  0  0  0  0  0
  -16.7724  -42.2199  -16.9070 N   0  0  0  0  0  0  0  0  0  0  0  0
  -15.6909  -43.7498  -14.2239 O   0  0  0  0  0  0  0  0  0  0  0  0
  -19.4781  -46.1907  -24.5570 C   0  0  0  0  0  0  0  0  0  0  0  0
  -20.1097  -46.3873  -25.5614 C   0  0  0  0  0  0  0  0  0  0  0  0
  -20.8522  -46.6630  -26.7900 C   0  0  0  0  0  0  0  0  0  0  0  0
  -15.8273  -42.8815  -17.2995 C   0  0  0  0  0  0  0  0  0  0  0  0
  -13.4849  -44.8304  -14.6683 O   0  0  0  0  0  0  0  0  0  0  0  0
  -14.4070  -43.7346  -14.8712 S   0  0  0  0  0  0  0  0  0  0  0  0
  -14.6485  -43.5891  -16.4847 N   0  0  0  0  0  0  0  0  0  0  0  0
  -13.3207  -42.0229  -18.7463 C   0  0  0  0  0  0  0  0  0  0  0  0
  -15.1131  -44.2998  -22.7460 O   0  0  0  0  0  0  0  0  0  0  0  0
  -14.2960  -43.5093  -23.5897 C   0  0  0  0  0  0  0  0  0  0  0  0
  -17.6090  -41.7357  -17.9046 O   0  0  0  0  0  0  0  0  0  0  0  0
  -15.2177  -43.9139  -21.4360 C   0  0  0  0  0  0  0  0  0  0  0  0
  -14.2264  -43.2038  -20.7528 C   0  0  0  0  0  0  0  0  0  0  0  0
  -14.4086  -42.8190  -19.4141 C   0  0  0  0  0  0  0  0  0  0  0  0
  -15.5866  -43.2175  -18.7519 C   0  0  0  0  0  0  0  0  0  0  0  0
  -16.5591  -43.9851  -19.4216 C   0  0  0  0  0  0  0  0  0  0  0  0
  -16.3889  -44.3226  -20.7685 C   0  0  0  0  0  0  0  0  0  0  0  0
  -18.7850  -45.9757  -23.3230 C   0  0  0  0  0  0  0  0  0  0  0  0
  -18.5529  -46.9338  -22.3572 C   0  0  0  0  0  0  0  0  0  0  0  0
  -17.7569  -46.4385  -21.2811 C   0  0  0  0  0  0  0  0  0  0  0  0
  -17.3879  -45.1243  -21.4835 C   0  0  0  0  0  0  0  0  0  0  0  0
  -18.2019  -44.4510  -22.8410 S   0  0  0  0  0  0  0  0  0  0  0  0
  -14.5399  -41.2720  -13.7631 C   0  0  0  0  0  0  0  0  0  0  0  0
  -14.0382  -40.0438  -13.3760 C   0  0  0  0  0  0  0  0  0  0  0  0
  -12.7127  -39.7469  -13.6578 C   0  0  0  0  0  0  0  0  0  0  0  0
  -11.8895  -40.6793  -14.3179 C   0  0  0  0  0  0  0  0  0  0  0  0
  -12.3800  -41.9407  -14.7194 C   0  0  0  0  0  0  0  0  0  0  0  0
  -13.7084  -42.1959  -14.4283 C   0  0  0  0  0  0  0  0  0  0  0  0
  -10.5509  -40.3757  -14.5816 C   0  0  0  0  0  0  0  0  0  0  0  0
   -9.7296  -41.3186  -15.1822 C   0  0  0  0  0  0  0  0  0  0  0  0
  -10.2840  -42.5328  -15.5210 C   0  0  0  0  0  0  0  0  0  0  0  0
  -11.5854  -42.8354  -15.3508 N   0  0  0  0  0  0  0  0  0  0  0  0
  -22.7510  -46.3135  -26.5495 H   0  0  0  0  0  0  0  0  0  0  0  0
  -21.1752  -47.7053  -26.8588 H   0  0  0  0  0  0  0  0  0  0  0  0
  -20.2127  -46.4477  -27.6436 H   0  0  0  0  0  0  0  0  0  0  0  0
  -14.0760  -44.1258  -17.1197 H   0  0  0  0  0  0  0  0  0  0  0  0
  -13.7271  -41.3307  -18.0024 H   0  0  0  0  0  0  0  0  0  0  0  0
  -12.5999  -42.6930  -18.2683 H   0  0  0  0  0  0  0  0  0  0  0  0
  -12.7840  -41.4099  -19.4791 H   0  0  0  0  0  0  0  0  0  0  0  0
  -14.3311  -42.4433  -23.3418 H   0  0  0  0  0  0  0  0  0  0  0  0
  -13.2789  -43.9028  -23.5596 H   0  0  0  0  0  0  0  0  0  0  0  0
  -14.6698  -43.6161  -24.6112 H   0  0  0  0  0  0  0  0  0  0  0  0
  -18.3192  -41.3097  -17.3859 H   0  0  0  0  0  0  0  0  0  0  0  0
  -13.2929  -42.9532  -21.2533 H   0  0  0  0  0  0  0  0  0  0  0  0
  -17.4608  -44.2895  -18.8946 H   0  0  0  0  0  0  0  0  0  0  0  0
  -18.8883  -47.9612  -22.4374 H   0  0  0  0  0  0  0  0  0  0  0  0
  -17.3919  -47.0520  -20.4666 H   0  0  0  0  0  0  0  0  0  0  0  0
  -15.5833  -41.5046  -13.5527 H   0  0  0  0  0  0  0  0  0  0  0  0
  -14.6722  -39.3248  -12.8641 H   0  0  0  0  0  0  0  0  0  0  0  0
  -12.3158  -38.7803  -13.3527 H   0  0  0  0  0  0  0  0  0  0  0  0
  -10.1302  -39.4155  -14.2921 H   0  0  0  0  0  0  0  0  0  0  0  0
   -8.6781  -41.1186  -15.3546 H   0  0  0  0  0  0  0  0  0  0  0  0
   -9.6744  -43.3326  -15.9289 H   0  0  0  0  0  0  0  0  0  0  0  0
  1  6  1  0
  6  5  1  0
  5  4  3  0
 12 13  1  0
  2  7  2  0
  7 10  1  0
  3  9  2  0
 10  9  1  0
  9  8  2  0
 14  2  1  0
 15 20  2  0
 15 12  1  0
 15 16  1  0
 16 17  2  0
 17 18  1  0
 17 11  1  0
 18 19  2  0
 18  7  1  0
 19 20  1  0
 20 24  1  0
 21  4  1  0
 21 22  2  0
 21 25  1  0
 22 23  1  0
 23 24  2  0
 24 25  1  0
 26 31  2  0
 26 27  1  0
 27 28  2  0
 28 29  1  0
 29 30  2  0
 29 32  1  0
 30 31  1  0
 30 35  1  0
 31  9  1  0
 32 33  2  0
 33 34  1  0
 34 35  2  0
  1 36  1  0
  6 37  1  0
  6 38  1  0
 10 39  1  0
 11 40  1  0
 11 41  1  0
 11 42  1  0
 13 43  1  0
 13 44  1  0
 13 45  1  0
 14 46  1  0
 16 47  1  0
 19 48  1  0
 22 49  1  0
 23 50  1  0
 26 51  1  0
 27 52  1  0
 28 53  1  0
 32 54  1  0
 33 55  1  0
 34 56  1  0
M  END
>  <smiles>  (658) 
[H]O/N=C(\c1c([H])c(-c2sc(C#CC([H])([H])O[H])c([H])c2[H])c(OC([H])([H])[H])c([H])c1C([H])([H])[H])N([H])S(=O)(=O)c1c([H])c([H])c([H])c2c([H])c([H])c([H])nc12

>  <error>  (658) 


>  <∆∆G>  (658) 
-42.639368

>  <∆G_bound>  (658) 
12.142426

>  <∆G_unbound>  (658) 
54.781795

>  <comRMSD>  (658) 
0.717265

>  <N_constrained_atoms>  (658) 
35.0

>  <N_unconstrained_atoms>  (658) 
0.0

>  <runtime>  (658) 
4.369118

>  <regarded>  (658) 
['5i3q-a', '6h80-a']

>  <disregarded>  (658) 
[]

>  <LE>  (658) 
1.218268

>  <outcome>  (658) 
acceptable

>  <percent_hybrid>  (658) 
3.0

$$$$
LIG
     RDKit          3D

 60 63  0  0  0  0  0  0  0  0999 V2000
  -21.9751  -45.8127  -26.8748 O   0  0  0  0  0  0  0  0  0  0  0  0
  -17.0137  -42.3792  -16.8292 O   0  0  0  0  0  0  0  0  0  0  0  0
  -15.8929  -43.5743  -14.0869 O   0  0  0  0  0  0  0  0  0  0  0  0
  -19.4654  -46.1879  -24.5485 C   0  0  0  0  0  0  0  0  0  0  0  0
  -20.1003  -46.3902  -25.5498 C   0  0  0  0  0  0  0  0  0  0  0  0
  -20.8451  -46.6681  -26.7775 C   0  0  0  0  0  0  0  0  0  0  0  0
  -16.0691  -42.9639  -17.1898 C   0  0  0  0  0  0  0  0  0  0  0  0
  -13.7252  -44.7442  -14.5268 O   0  0  0  0  0  0  0  0  0  0  0  0
  -14.6266  -43.6360  -14.7626 S   0  0  0  0  0  0  0  0  0  0  0  0
  -14.8748  -43.5554  -16.3766 N   0  0  0  0  0  0  0  0  0  0  0  0
  -13.7179  -41.7075  -18.4230 C   0  0  0  0  0  0  0  0  0  0  0  0
  -14.9659  -44.0527  -22.6074 O   0  0  0  0  0  0  0  0  0  0  0  0
  -15.1612  -43.0145  -23.5690 C   0  0  0  0  0  0  0  0  0  0  0  0
  -13.1019  -42.3641  -21.1928 C   0  0  0  0  0  0  0  0  0  0  0  0
  -14.2395  -40.3185  -21.9398 O   0  0  0  0  0  0  0  0  0  0  0  0
  -12.0332  -40.2985  -21.7156 O   0  0  0  0  0  0  0  0  0  0  0  0
  -13.2247  -40.9282  -21.6448 C   0  0  0  0  0  0  0  0  0  0  0  0
  -15.2783  -43.6714  -21.3219 C   0  0  0  0  0  0  0  0  0  0  0  0
  -14.3721  -42.8888  -20.5694 C   0  0  0  0  0  0  0  0  0  0  0  0
  -14.6528  -42.5902  -19.2199 C   0  0  0  0  0  0  0  0  0  0  0  0
  -15.8008  -43.1578  -18.6362 C   0  0  0  0  0  0  0  0  0  0  0  0
  -16.6963  -43.9407  -19.3819 C   0  0  0  0  0  0  0  0  0  0  0  0
  -16.4450  -44.2044  -20.7347 C   0  0  0  0  0  0  0  0  0  0  0  0
  -18.7602  -45.9574  -23.3238 C   0  0  0  0  0  0  0  0  0  0  0  0
  -18.4941  -46.9060  -22.3584 C   0  0  0  0  0  0  0  0  0  0  0  0
  -17.6869  -46.3888  -21.2997 C   0  0  0  0  0  0  0  0  0  0  0  0
  -17.3602  -45.0615  -21.4992 C   0  0  0  0  0  0  0  0  0  0  0  0
  -18.1976  -44.4215  -22.8555 S   0  0  0  0  0  0  0  0  0  0  0  0
  -14.6446  -41.1391  -13.7284 C   0  0  0  0  0  0  0  0  0  0  0  0
  -14.0886  -39.9264  -13.3694 C   0  0  0  0  0  0  0  0  0  0  0  0
  -12.7577  -39.6861  -13.6759 C   0  0  0  0  0  0  0  0  0  0  0  0
  -11.9837  -40.6570  -14.3379 C   0  0  0  0  0  0  0  0  0  0  0  0
  -12.5292  -41.9041  -14.7159 C   0  0  0  0  0  0  0  0  0  0  0  0
  -13.8626  -42.1054  -14.3920 C   0  0  0  0  0  0  0  0  0  0  0  0
  -10.6398  -40.4021  -14.6260 C   0  0  0  0  0  0  0  0  0  0  0  0
   -9.8632  -41.3760  -15.2336 C   0  0  0  0  0  0  0  0  0  0  0  0
  -10.4683  -42.5700  -15.5563 C   0  0  0  0  0  0  0  0  0  0  0  0
  -11.7779  -42.8287  -15.3606 N   0  0  0  0  0  0  0  0  0  0  0  0
  -22.7453  -46.3190  -26.5439 H   0  0  0  0  0  0  0  0  0  0  0  0
  -21.1688  -47.7102  -26.8443 H   0  0  0  0  0  0  0  0  0  0  0  0
  -20.2070  -46.4552  -27.6328 H   0  0  0  0  0  0  0  0  0  0  0  0
  -14.1834  -43.9302  -17.0139 H   0  0  0  0  0  0  0  0  0  0  0  0
  -14.2113  -41.2555  -17.5577 H   0  0  0  0  0  0  0  0  0  0  0  0
  -12.8529  -42.2842  -18.0824 H   0  0  0  0  0  0  0  0  0  0  0  0
  -13.3676  -40.8560  -19.0123 H   0  0  0  0  0  0  0  0  0  0  0  0
  -15.8344  -42.2238  -23.2194 H   0  0  0  0  0  0  0  0  0  0  0  0
  -14.2004  -42.5855  -23.8575 H   0  0  0  0  0  0  0  0  0  0  0  0
  -15.5964  -43.4649  -24.4666 H   0  0  0  0  0  0  0  0  0  0  0  0
  -12.8376  -42.9926  -22.0371 H   0  0  0  0  0  0  0  0  0  0  0  0
  -12.2736  -42.4528  -20.4807 H   0  0  0  0  0  0  0  0  0  0  0  0
  -12.2795  -39.3947  -22.0033 H   0  0  0  0  0  0  0  0  0  0  0  0
  -17.5881  -44.3413  -18.9033 H   0  0  0  0  0  0  0  0  0  0  0  0
  -18.8138  -47.9394  -22.4265 H   0  0  0  0  0  0  0  0  0  0  0  0
  -17.3093  -46.9888  -20.4807 H   0  0  0  0  0  0  0  0  0  0  0  0
  -15.6913  -41.3270  -13.4899 H   0  0  0  0  0  0  0  0  0  0  0  0
  -14.6850  -39.1767  -12.8557 H   0  0  0  0  0  0  0  0  0  0  0  0
  -12.3190  -38.7320  -13.3887 H   0  0  0  0  0  0  0  0  0  0  0  0
  -10.1807  -39.4556  -14.3497 H   0  0  0  0  0  0  0  0  0  0  0  0
   -8.8082  -41.2154  -15.4249 H   0  0  0  0  0  0  0  0  0  0  0  0
   -9.8917  -43.3892  -15.9731 H   0  0  0  0  0  0  0  0  0  0  0  0
  1  6  1  0
  6  5  1  0
  5  4  3  0
 12 13  1  0
  2  7  2  0
  7 10  1  0
  3  9  2  0
 10  9  1  0
  9  8  2  0
 14 17  1  0
 15 17  2  0
 17 16  1  0
 18 23  2  0
 18 12  1  0
 18 19  1  0
 19 20  2  0
 20 21  1  0
 20 11  1  0
 21 22  2  0
 21  7  1  0
 22 23  1  0
 23 27  1  0
 24  4  1  0
 24 25  2  0
 24 28  1  0
 25 26  1  0
 26 27  2  0
 27 28  1  0
 29 34  2  0
 29 30  1  0
 30 31  2  0
 31 32  1  0
 32 33  2  0
 32 35  1  0
 33 34  1  0
 33 38  1  0
 34  9  1  0
 35 36  2  0
 36 37  1  0
 37 38  2  0
 14 19  1  0
  1 39  1  0
  6 40  1  0
  6 41  1  0
 10 42  1  0
 11 43  1  0
 11 44  1  0
 11 45  1  0
 13 46  1  0
 13 47  1  0
 13 48  1  0
 14 49  1  0
 14 50  1  0
 16 51  1  0
 22 52  1  0
 25 53  1  0
 26 54  1  0
 29 55  1  0
 30 56  1  0
 31 57  1  0
 35 58  1  0
 36 59  1  0
 37 60  1  0
M  END
>  <smiles>  (659) 
[H]OC(=O)C([H])([H])c1c(OC([H])([H])[H])c(-c2sc(C#CC([H])([H])O[H])c([H])c2[H])c([H])c(C(=O)N([H])S(=O)(=O)c2c([H])c([H])c([H])c3c([H])c([H])c([H])nc23)c1C([H])([H])[H]

>  <error>  (659) 


>  <∆∆G>  (659) 
-108.494328

>  <∆G_bound>  (659) 
-28.740078

>  <∆G_unbound>  (659) 
79.75425

>  <comRMSD>  (659) 
0.799157

>  <N_constrained_atoms>  (659) 
38.0

>  <N_unconstrained_atoms>  (659) 
0.0

>  <runtime>  (659) 
4.596746

>  <regarded>  (659) 
['5i3q-a', '5hmy-a']

>  <disregarded>  (659) 
[]

>  <LE>  (659) 
2.855114

>  <outcome>  (659) 
acceptable

>  <percent_hybrid>  (659) 
11.0

$$$$
LIG
     RDKit          3D

 76 81  0  0  0  0  0  0  0  0999 V2000
  -21.9500  -45.8372  -26.7810 O   0  0  0  0  0  0  0  0  0  0  0  0
  -16.8110  -41.7695  -16.7181 O   0  0  0  0  0  0  0  0  0  0  0  0
  -15.7667  -43.7193  -14.1683 O   0  0  0  0  0  0  0  0  0  0  0  0
  -19.4104  -46.2157  -24.4960 C   0  0  0  0  0  0  0  0  0  0  0  0
  -20.0560  -46.4274  -25.4898 C   0  0  0  0  0  0  0  0  0  0  0  0
  -20.8154  -46.6892  -26.7157 C   0  0  0  0  0  0  0  0  0  0  0  0
  -16.0782  -42.5397  -17.2110 C   0  0  0  0  0  0  0  0  0  0  0  0
  -13.6607  -44.7991  -14.9596 O   0  0  0  0  0  0  0  0  0  0  0  0
  -14.5898  -43.6899  -14.9920 S   0  0  0  0  0  0  0  0  0  0  0  0
  -15.0466  -43.5153  -16.5579 N   0  0  0  0  0  0  0  0  0  0  0  0
  -13.4852  -41.8323  -18.4710 C   0  0  0  0  0  0  0  0  0  0  0  0
  -17.2342  -37.2187  -25.4391 C   0  0  0  0  0  0  0  0  0  0  0  0
  -18.0001  -38.0799  -26.4006 C   0  0  0  0  0  0  0  0  0  0  0  0
  -18.9547  -37.6635  -27.0566 O   0  0  0  0  0  0  0  0  0  0  0  0
  -17.5494  -39.3880  -26.5326 O   0  0  0  0  0  0  0  0  0  0  0  0
  -15.5612  -42.6832  -21.6083 C   0  0  2  0  0  0  0  0  0  0  0  0
  -14.4345  -42.0944  -20.7299 C   0  0  0  0  0  0  0  0  0  0  0  0
  -14.7853  -41.7788  -19.2813 C   0  0  1  0  0  0  0  0  0  0  0  0
  -15.9829  -42.5951  -18.7543 C   0  0  1  0  0  0  0  0  0  0  0  0
  -16.2029  -43.9771  -19.4074 C   0  0  0  0  0  0  0  0  0  0  0  0
  -15.9914  -44.0559  -20.9652 C   0  0  1  0  0  0  0  0  0  0  0  0
  -18.6528  -45.9212  -23.3148 C   0  0  0  0  0  0  0  0  0  0  0  0
  -18.4085  -46.7655  -22.2551 C   0  0  0  0  0  0  0  0  0  0  0  0
  -17.5010  -46.1893  -21.3056 C   0  0  0  0  0  0  0  0  0  0  0  0
  -17.0849  -44.9094  -21.6540 C   0  0  0  0  0  0  0  0  0  0  0  0
  -17.9160  -44.4139  -23.0737 S   0  0  0  0  0  0  0  0  0  0  0  0
  -14.6531  -41.2007  -13.9604 C   0  0  0  0  0  0  0  0  0  0  0  0
  -14.1200  -39.9975  -13.5392 C   0  0  0  0  0  0  0  0  0  0  0  0
  -12.7710  -39.7587  -13.7490 C   0  0  0  0  0  0  0  0  0  0  0  0
  -11.9582  -40.7227  -14.3732 C   0  0  0  0  0  0  0  0  0  0  0  0
  -12.4789  -41.9647  -14.8041 C   0  0  0  0  0  0  0  0  0  0  0  0
  -13.8323  -42.1641  -14.5856 C   0  0  0  0  0  0  0  0  0  0  0  0
  -10.5994  -40.4644  -14.5722 C   0  0  0  0  0  0  0  0  0  0  0  0
   -9.7866  -41.4289  -15.1465 C   0  0  0  0  0  0  0  0  0  0  0  0
  -10.3687  -42.6194  -15.5201 C   0  0  0  0  0  0  0  0  0  0  0  0
  -11.6866  -42.8825  -15.4039 N   0  0  0  0  0  0  0  0  0  0  0  0
  -14.9260  -42.7353  -22.9441 N   0  0  0  0  0  0  0  0  0  0  0  0
  -15.4374  -41.7995  -23.8321 C   0  0  0  0  0  0  0  0  0  0  0  0
  -16.5753  -41.1097  -23.4268 C   0  0  0  0  0  0  0  0  0  0  0  0
  -16.9707  -41.4786  -21.7516 S   0  0  0  0  0  0  0  0  0  0  0  0
  -16.7865  -40.0602  -25.5548 C   0  0  0  0  0  0  0  0  0  0  0  0
  -17.2926  -40.2808  -24.2811 C   0  0  0  0  0  0  0  0  0  0  0  0
  -14.9135  -41.4905  -25.0756 C   0  0  0  0  0  0  0  0  0  0  0  0
  -15.5772  -40.6217  -25.9473 C   0  0  0  0  0  0  0  0  0  0  0  0
  -14.2063  -43.8992  -23.4033 C   0  0  0  0  0  0  0  0  0  0  0  0
  -22.7301  -46.3715  -26.5280 H   0  0  0  0  0  0  0  0  0  0  0  0
  -21.1349  -47.7318  -26.7949 H   0  0  0  0  0  0  0  0  0  0  0  0
  -20.1927  -46.4621  -27.5792 H   0  0  0  0  0  0  0  0  0  0  0  0
  -14.5187  -43.9820  -17.2807 H   0  0  0  0  0  0  0  0  0  0  0  0
  -13.6271  -41.4134  -17.4727 H   0  0  0  0  0  0  0  0  0  0  0  0
  -13.0925  -42.8504  -18.3906 H   0  0  0  0  0  0  0  0  0  0  0  0
  -12.7093  -41.2229  -18.9501 H   0  0  0  0  0  0  0  0  0  0  0  0
  -16.1603  -37.3736  -25.5577 H   0  0  0  0  0  0  0  0  0  0  0  0
  -17.4349  -36.1682  -25.6724 H   0  0  0  0  0  0  0  0  0  0  0  0
  -17.5501  -37.4134  -24.4127 H   0  0  0  0  0  0  0  0  0  0  0  0
  -13.5950  -42.8067  -20.7424 H   0  0  0  0  0  0  0  0  0  0  0  0
  -14.0213  -41.1829  -21.1888 H   0  0  0  0  0  0  0  0  0  0  0  0
  -15.1007  -40.7252  -19.2453 H   0  0  0  0  0  0  0  0  0  0  0  0
  -16.8780  -42.0300  -19.0541 H   0  0  0  0  0  0  0  0  0  0  0  0
  -15.5341  -44.7155  -18.9477 H   0  0  0  0  0  0  0  0  0  0  0  0
  -17.2142  -44.3124  -19.1409 H   0  0  0  0  0  0  0  0  0  0  0  0
  -15.1066  -44.7061  -21.0610 H   0  0  0  0  0  0  0  0  0  0  0  0
  -18.8043  -47.7724  -22.1840 H   0  0  0  0  0  0  0  0  0  0  0  0
  -17.1335  -46.7246  -20.4381 H   0  0  0  0  0  0  0  0  0  0  0  0
  -15.7157  -41.3869  -13.8009 H   0  0  0  0  0  0  0  0  0  0  0  0
  -14.7487  -39.2541  -13.0561 H   0  0  0  0  0  0  0  0  0  0  0  0
  -12.3496  -38.8108  -13.4189 H   0  0  0  0  0  0  0  0  0  0  0  0
  -10.1590  -39.5212  -14.2571 H   0  0  0  0  0  0  0  0  0  0  0  0
   -8.7229  -41.2635  -15.2750 H   0  0  0  0  0  0  0  0  0  0  0  0
   -9.7675  -43.4314  -15.9170 H   0  0  0  0  0  0  0  0  0  0  0  0
  -18.2338  -39.8488  -23.9612 H   0  0  0  0  0  0  0  0  0  0  0  0
  -13.9864  -41.9428  -25.3888 H   0  0  0  0  0  0  0  0  0  0  0  0
  -15.1772  -40.4405  -26.9412 H   0  0  0  0  0  0  0  0  0  0  0  0
  -13.5453  -44.2858  -22.6224 H   0  0  0  0  0  0  0  0  0  0  0  0
  -14.9194  -44.6798  -23.6696 H   0  0  0  0  0  0  0  0  0  0  0  0
  -13.5772  -43.7120  -24.2754 H   0  0  0  0  0  0  0  0  0  0  0  0
  1  6  1  0
  6  5  1  0
  5  4  3  0
  2  7  2  0
  7 10  1  0
  3  9  2  0
 10  9  1  0
  9  8  2  0
 15 13  1  0
 13 14  2  0
 13 12  1  0
 16 21  1  0
 16 17  1  0
 17 18  1  0
 18 19  1  0
 18 11  1  0
 19 20  1  0
 19  7  1  0
 20 21  1  0
 21 25  1  0
 22  4  1  0
 22 23  2  0
 22 26  1  0
 23 24  1  0
 24 25  2  0
 25 26  1  0
 27 32  2  0
 27 28  1  0
 28 29  2  0
 29 30  1  0
 30 31  2  0
 30 33  1  0
 31 32  1  0
 31 36  1  0
 32  9  1  0
 33 34  2  0
 34 35  1  0
 35 36  2  0
 37 38  1  0
 38 43  2  0
 38 39  1  0
 39 40  1  0
 39 42  2  0
 41 44  2  0
 41 42  1  0
 41 15  1  0
 43 44  1  0
 16 37  1  0
 16 40  1  1
 37 45  1  0
  1 46  1  0
  6 47  1  0
  6 48  1  0
 10 49  1  0
 11 50  1  0
 11 51  1  0
 11 52  1  0
 12 53  1  0
 12 54  1  0
 12 55  1  0
 17 56  1  0
 17 57  1  0
 18 58  1  6
 19 59  1  6
 20 60  1  0
 20 61  1  0
 21 62  1  1
 23 63  1  0
 24 64  1  0
 27 65  1  0
 28 66  1  0
 29 67  1  0
 33 68  1  0
 34 69  1  0
 35 70  1  0
 42 71  1  0
 43 72  1  0
 44 73  1  0
 45 74  1  0
 45 75  1  0
 45 76  1  0
M  END
>  <smiles>  (660) 
[H]OC([H])([H])C#Cc1sc([C@]2([H])C([H])([H])[C@@]([H])(C(=O)N([H])S(=O)(=O)c3c([H])c([H])c([H])c4c([H])c([H])c([H])nc34)[C@@]([H])(C([H])([H])[H])C([H])([H])[C@@]23Sc2c([H])c(OC(=O)C([H])([H])[H])c([H])c([H])c2N3C([H])([H])[H])c([H])c1[H]

>  <error>  (660) 


>  <∆∆G>  (660) 
-265.722804

>  <∆G_bound>  (660) 
216.634937

>  <∆G_unbound>  (660) 
482.357742

>  <comRMSD>  (660) 
1.249141

>  <N_constrained_atoms>  (660) 
45.0

>  <N_unconstrained_atoms>  (660) 
0.0

>  <runtime>  (660) 
18.26725

>  <regarded>  (660) 
['5i3q-a', '6izx-a']

>  <disregarded>  (660) 
[]

>  <LE>  (660) 
5.904951

>  <outcome>  (660) 
too moved

>  <percent_hybrid>  (660) 
27.0

$$$$
LIG
     RDKit          3D

 62 65  0  0  0  0  0  0  0  0999 V2000
  -22.0007  -45.8021  -26.9008 O   0  0  0  0  0  0  0  0  0  0  0  0
  -17.1148  -42.3939  -16.9573 N   0  0  0  0  0  0  0  0  0  0  0  0
  -15.9523  -43.5637  -14.1073 O   0  0  0  0  0  0  0  0  0  0  0  0
  -19.4887  -46.2094  -24.5858 C   0  0  0  0  0  0  0  0  0  0  0  0
  -20.1284  -46.4007  -25.5854 C   0  0  0  0  0  0  0  0  0  0  0  0
  -20.8752  -46.6639  -26.8125 C   0  0  0  0  0  0  0  0  0  0  0  0
  -16.0876  -42.9769  -17.2895 C   0  0  0  0  0  0  0  0  0  0  0  0
  -13.7713  -44.7066  -14.4887 O   0  0  0  0  0  0  0  0  0  0  0  0
  -14.6697  -43.6013  -14.7565 S   0  0  0  0  0  0  0  0  0  0  0  0
  -14.8601  -43.5416  -16.3905 N   0  0  0  0  0  0  0  0  0  0  0  0
  -13.7239  -41.7437  -18.4869 C   0  0  0  0  0  0  0  0  0  0  0  0
  -14.9541  -44.0881  -22.6777 O   0  0  0  0  0  0  0  0  0  0  0  0
  -15.1576  -43.0422  -23.6289 C   0  0  0  0  0  0  0  0  0  0  0  0
  -13.0997  -42.3947  -21.2512 C   0  0  0  0  0  0  0  0  0  0  0  0
  -12.0509  -40.3068  -21.7265 O   0  0  0  0  0  0  0  0  0  0  0  0
  -13.2336  -40.9568  -21.6946 C   0  0  0  0  0  0  0  0  0  0  0  0
  -14.2489  -40.3606  -22.0147 O   0  0  0  0  0  0  0  0  0  0  0  0
  -17.1985  -42.0630  -15.6178 O   0  0  0  0  0  0  0  0  0  0  0  0
  -15.2641  -43.7185  -21.3888 C   0  0  0  0  0  0  0  0  0  0  0  0
  -14.3633  -42.9330  -20.6328 C   0  0  0  0  0  0  0  0  0  0  0  0
  -14.6463  -42.6384  -19.2857 C   0  0  0  0  0  0  0  0  0  0  0  0
  -15.7934  -43.2128  -18.7128 C   0  0  0  0  0  0  0  0  0  0  0  0
  -16.6825  -44.0003  -19.4554 C   0  0  0  0  0  0  0  0  0  0  0  0
  -16.4270  -44.2594  -20.8042 C   0  0  0  0  0  0  0  0  0  0  0  0
  -18.7740  -45.9877  -23.3677 C   0  0  0  0  0  0  0  0  0  0  0  0
  -18.5118  -46.9391  -22.4046 C   0  0  0  0  0  0  0  0  0  0  0  0
  -17.6870  -46.4313  -21.3568 C   0  0  0  0  0  0  0  0  0  0  0  0
  -17.3476  -45.1088  -21.5640 C   0  0  0  0  0  0  0  0  0  0  0  0
  -18.1921  -44.4578  -22.9081 S   0  0  0  0  0  0  0  0  0  0  0  0
  -14.6703  -41.1286  -13.6594 C   0  0  0  0  0  0  0  0  0  0  0  0
  -14.1060  -39.9222  -13.2914 C   0  0  0  0  0  0  0  0  0  0  0  0
  -12.7818  -39.6754  -13.6216 C   0  0  0  0  0  0  0  0  0  0  0  0
  -12.0205  -40.6352  -14.3131 C   0  0  0  0  0  0  0  0  0  0  0  0
  -12.5752  -41.8742  -14.7032 C   0  0  0  0  0  0  0  0  0  0  0  0
  -13.9052  -42.0787  -14.3618 C   0  0  0  0  0  0  0  0  0  0  0  0
  -10.6802  -40.3782  -14.6167 C   0  0  0  0  0  0  0  0  0  0  0  0
   -9.9136  -41.3445  -15.2485 C   0  0  0  0  0  0  0  0  0  0  0  0
  -10.5256  -42.5327  -15.5787 C   0  0  0  0  0  0  0  0  0  0  0  0
  -11.8328  -42.7920  -15.3690 N   0  0  0  0  0  0  0  0  0  0  0  0
  -22.7703  -46.3046  -26.5624 H   0  0  0  0  0  0  0  0  0  0  0  0
  -21.2041  -47.7038  -26.8877 H   0  0  0  0  0  0  0  0  0  0  0  0
  -20.2353  -46.4437  -27.6643 H   0  0  0  0  0  0  0  0  0  0  0  0
  -14.1313  -43.8981  -16.9983 H   0  0  0  0  0  0  0  0  0  0  0  0
  -14.2223  -41.2932  -17.6238 H   0  0  0  0  0  0  0  0  0  0  0  0
  -12.8533  -42.3102  -18.1432 H   0  0  0  0  0  0  0  0  0  0  0  0
  -13.3807  -40.8896  -19.0763 H   0  0  0  0  0  0  0  0  0  0  0  0
  -14.1993  -42.6088  -23.9197 H   0  0  0  0  0  0  0  0  0  0  0  0
  -15.5970  -43.4861  -24.5277 H   0  0  0  0  0  0  0  0  0  0  0  0
  -15.8312  -42.2562  -23.2695 H   0  0  0  0  0  0  0  0  0  0  0  0
  -12.8358  -43.0197  -22.0970 H   0  0  0  0  0  0  0  0  0  0  0  0
  -12.2699  -42.4820  -20.5407 H   0  0  0  0  0  0  0  0  0  0  0  0
  -12.3065  -39.4039  -22.0088 H   0  0  0  0  0  0  0  0  0  0  0  0
  -17.4240  -42.9033  -15.1499 H   0  0  0  0  0  0  0  0  0  0  0  0
  -17.5774  -44.3983  -18.9816 H   0  0  0  0  0  0  0  0  0  0  0  0
  -18.8451  -47.9683  -22.4685 H   0  0  0  0  0  0  0  0  0  0  0  0
  -17.3084  -47.0332  -20.5397 H   0  0  0  0  0  0  0  0  0  0  0  0
  -15.7104  -41.3201  -13.4003 H   0  0  0  0  0  0  0  0  0  0  0  0
  -14.6915  -39.1810  -12.7534 H   0  0  0  0  0  0  0  0  0  0  0  0
  -12.3378  -38.7259  -13.3273 H   0  0  0  0  0  0  0  0  0  0  0  0
  -10.2157  -39.4365  -14.3330 H   0  0  0  0  0  0  0  0  0  0  0  0
   -8.8612  -41.1829  -15.4522 H   0  0  0  0  0  0  0  0  0  0  0  0
   -9.9566  -43.3474  -16.0130 H   0  0  0  0  0  0  0  0  0  0  0  0
  1  6  1  0
  6  5  1  0
  5  4  3  0
 12 13  1  0
  2  7  2  0
  7 10  1  0
  3  9  2  0
 10  9  1  0
  9  8  2  0
 14 16  1  0
 17 16  2  0
 16 15  1  0
 18  2  1  0
 19 24  2  0
 19 12  1  0
 19 20  1  0
 20 21  2  0
 21 22  1  0
 21 11  1  0
 22 23  2  0
 22  7  1  0
 23 24  1  0
 24 28  1  0
 25  4  1  0
 25 26  2  0
 25 29  1  0
 26 27  1  0
 27 28  2  0
 28 29  1  0
 30 35  2  0
 30 31  1  0
 31 32  2  0
 32 33  1  0
 33 34  2  0
 33 36  1  0
 34 35  1  0
 34 39  1  0
 35  9  1  0
 36 37  2  0
 37 38  1  0
 38 39  2  0
 14 20  1  0
  1 40  1  0
  6 41  1  0
  6 42  1  0
 10 43  1  0
 11 44  1  0
 11 45  1  0
 11 46  1  0
 13 47  1  0
 13 48  1  0
 13 49  1  0
 14 50  1  0
 14 51  1  0
 15 52  1  0
 18 53  1  0
 23 54  1  0
 26 55  1  0
 27 56  1  0
 30 57  1  0
 31 58  1  0
 32 59  1  0
 36 60  1  0
 37 61  1  0
 38 62  1  0
M  END
>  <smiles>  (661) 
[H]O/N=C(\c1c([H])c(-c2sc(C#CC([H])([H])O[H])c([H])c2[H])c(OC([H])([H])[H])c(C([H])([H])C(=O)O[H])c1C([H])([H])[H])N([H])S(=O)(=O)c1c([H])c([H])c([H])c2c([H])c([H])c([H])nc12

>  <error>  (661) 


>  <∆∆G>  (661) 
-237.223417

>  <∆G_bound>  (661) 
10.145239

>  <∆G_unbound>  (661) 
247.368656

>  <comRMSD>  (661) 
0.794999

>  <N_constrained_atoms>  (661) 
39.0

>  <N_unconstrained_atoms>  (661) 
0.0

>  <runtime>  (661) 
4.924316

>  <regarded>  (661) 
['5i3q-a', '5hmx-b']

>  <disregarded>  (661) 
[]

>  <LE>  (661) 
6.082652

>  <outcome>  (661) 
acceptable

>  <percent_hybrid>  (661) 
13.0

$$$$

     RDKit          2D

  0  0  0  0  0  0  0  0  0  0999 V2000
M  END
>  <smiles>  (662) 
nan

>  <error>  (662) 
FragmensteinError Ideal compound failed. Something is wrong with the SMILES

>  <∆∆G>  (662) 
nan

>  <∆G_bound>  (662) 
nan

>  <∆G_unbound>  (662) 
nan

>  <comRMSD>  (662) 
nan

>  <N_constrained_atoms>  (662) 
nan

>  <N_unconstrained_atoms>  (662) 
nan

>  <runtime>  (662) 
nan

>  <regarded>  (662) 
[]

>  <disregarded>  (662) 
[]

>  <LE>  (662) 
nan

>  <outcome>  (662) 
crashed

>  <percent_hybrid>  (662) 
nan

$$$$

     RDKit          2D

  0  0  0  0  0  0  0  0  0  0999 V2000
M  END
>  <smiles>  (663) 
nan

>  <error>  (663) 
FragmensteinError Ideal compound failed. Something is wrong with the SMILES

>  <∆∆G>  (663) 
nan

>  <∆G_bound>  (663) 
nan

>  <∆G_unbound>  (663) 
nan

>  <comRMSD>  (663) 
nan

>  <N_constrained_atoms>  (663) 
nan

>  <N_unconstrained_atoms>  (663) 
nan

>  <runtime>  (663) 
nan

>  <regarded>  (663) 
[]

>  <disregarded>  (663) 
[]

>  <LE>  (663) 
nan

>  <outcome>  (663) 
crashed

>  <percent_hybrid>  (663) 
nan

$$$$
LIG
     RDKit          3D

 60 63  0  0  0  0  0  0  0  0999 V2000
  -22.0099  -45.7968  -26.9189 O   0  0  0  0  0  0  0  0  0  0  0  0
  -16.9070  -42.7537  -16.8986 O   0  0  0  0  0  0  0  0  0  0  0  0
  -15.6484  -43.8148  -14.2068 O   0  0  0  0  0  0  0  0  0  0  0  0
  -19.4981  -46.1032  -24.5846 C   0  0  0  0  0  0  0  0  0  0  0  0
  -20.1431  -46.3399  -25.5714 C   0  0  0  0  0  0  0  0  0  0  0  0
  -20.8806  -46.6486  -26.7946 C   0  0  0  0  0  0  0  0  0  0  0  0
  -15.8665  -43.1221  -17.2776 C   0  0  0  0  0  0  0  0  0  0  0  0
  -13.4094  -44.8193  -14.6626 O   0  0  0  0  0  0  0  0  0  0  0  0
  -14.3787  -43.7678  -14.8756 S   0  0  0  0  0  0  0  0  0  0  0  0
  -14.6381  -43.6560  -16.4875 N   0  0  0  0  0  0  0  0  0  0  0  0
  -13.6861  -41.5169  -18.4726 C   0  0  0  0  0  0  0  0  0  0  0  0
  -15.3875  -42.9791  -22.8577 O   0  0  0  0  0  0  0  0  0  0  0  0
  -14.4828  -43.9261  -23.4110 C   0  0  0  0  0  0  0  0  0  0  0  0
  -15.2369  -39.4583  -20.8714 O   0  0  0  0  0  0  0  0  0  0  0  0
  -13.3809  -38.9822  -21.9919 O   0  0  0  0  0  0  0  0  0  0  0  0
  -14.2119  -39.8639  -21.3925 C   0  0  0  0  0  0  0  0  0  0  0  0
  -13.6806  -41.2765  -21.4432 C   0  0  0  0  0  0  0  0  0  0  0  0
  -15.4397  -43.1107  -21.4906 C   0  0  0  0  0  0  0  0  0  0  0  0
  -14.5739  -42.2822  -20.7315 C   0  0  0  0  0  0  0  0  0  0  0  0
  -14.6281  -42.3332  -19.3223 C   0  0  0  0  0  0  0  0  0  0  0  0
  -15.5994  -43.1638  -18.7316 C   0  0  0  0  0  0  0  0  0  0  0  0
  -16.4605  -43.9678  -19.4973 C   0  0  0  0  0  0  0  0  0  0  0  0
  -16.3872  -43.9688  -20.8921 C   0  0  0  0  0  0  0  0  0  0  0  0
  -18.7543  -45.8267  -23.3947 C   0  0  0  0  0  0  0  0  0  0  0  0
  -18.4530  -46.7403  -22.4085 C   0  0  0  0  0  0  0  0  0  0  0  0
  -17.6103  -46.1816  -21.4011 C   0  0  0  0  0  0  0  0  0  0  0  0
  -17.2912  -44.8562  -21.6499 C   0  0  0  0  0  0  0  0  0  0  0  0
  -18.1559  -44.2792  -23.0189 S   0  0  0  0  0  0  0  0  0  0  0  0
  -14.5905  -41.2891  -13.8033 C   0  0  0  0  0  0  0  0  0  0  0  0
  -14.1153  -40.0498  -13.4165 C   0  0  0  0  0  0  0  0  0  0  0  0
  -12.7934  -39.7262  -13.6887 C   0  0  0  0  0  0  0  0  0  0  0  0
  -11.9484  -40.6406  -14.3459 C   0  0  0  0  0  0  0  0  0  0  0  0
  -12.4148  -41.9081  -14.7546 C   0  0  0  0  0  0  0  0  0  0  0  0
  -13.7363  -42.1949  -14.4626 C   0  0  0  0  0  0  0  0  0  0  0  0
  -10.6123  -40.3161  -14.5986 C   0  0  0  0  0  0  0  0  0  0  0  0
   -9.7727  -41.2453  -15.1958 C   0  0  0  0  0  0  0  0  0  0  0  0
  -10.3084  -42.4637  -15.5497 C   0  0  0  0  0  0  0  0  0  0  0  0
  -11.6082  -42.7826  -15.3974 N   0  0  0  0  0  0  0  0  0  0  0  0
  -22.7797  -46.2928  -26.5714 H   0  0  0  0  0  0  0  0  0  0  0  0
  -21.2018  -47.6926  -26.8408 H   0  0  0  0  0  0  0  0  0  0  0  0
  -20.2354  -46.4531  -27.6488 H   0  0  0  0  0  0  0  0  0  0  0  0
  -13.8655  -43.8111  -17.1257 H   0  0  0  0  0  0  0  0  0  0  0  0
  -14.1621  -41.1860  -17.5447 H   0  0  0  0  0  0  0  0  0  0  0  0
  -12.7954  -42.1064  -18.2345 H   0  0  0  0  0  0  0  0  0  0  0  0
  -13.3621  -40.5959  -18.9619 H   0  0  0  0  0  0  0  0  0  0  0  0
  -13.5304  -43.9681  -22.8724 H   0  0  0  0  0  0  0  0  0  0  0  0
  -14.9550  -44.9087  -23.4049 H   0  0  0  0  0  0  0  0  0  0  0  0
  -14.2821  -43.6374  -24.4453 H   0  0  0  0  0  0  0  0  0  0  0  0
  -13.8605  -38.1356  -21.8693 H   0  0  0  0  0  0  0  0  0  0  0  0
  -13.5706  -41.5237  -22.4997 H   0  0  0  0  0  0  0  0  0  0  0  0
  -12.6756  -41.3065  -21.0075 H   0  0  0  0  0  0  0  0  0  0  0  0
  -17.2221  -44.5598  -18.9915 H   0  0  0  0  0  0  0  0  0  0  0  0
  -18.7776  -47.7748  -22.4246 H   0  0  0  0  0  0  0  0  0  0  0  0
  -17.2186  -46.7505  -20.5665 H   0  0  0  0  0  0  0  0  0  0  0  0
  -15.6282  -41.5463  -13.5907 H   0  0  0  0  0  0  0  0  0  0  0  0
  -14.7665  -39.3446  -12.9062 H   0  0  0  0  0  0  0  0  0  0  0  0
  -12.4176  -38.7530  -13.3776 H   0  0  0  0  0  0  0  0  0  0  0  0
  -10.2076  -39.3522  -14.2987 H   0  0  0  0  0  0  0  0  0  0  0  0
   -8.7214  -41.0318  -15.3536 H   0  0  0  0  0  0  0  0  0  0  0  0
   -9.6837  -43.2541  -15.9525 H   0  0  0  0  0  0  0  0  0  0  0  0
  1  6  1  0
  6  5  1  0
  5  4  3  0
 12 13  1  0
  2  7  2  0
  7 10  1  0
  3  9  2  0
 10  9  1  0
  9  8  2  0
 17 16  1  0
 14 16  2  0
 16 15  1  0
 18 23  2  0
 18 12  1  0
 18 19  1  0
 19 20  2  0
 20 21  1  0
 20 11  1  0
 21 22  2  0
 21  7  1  0
 22 23  1  0
 23 27  1  0
 24  4  1  0
 24 25  2  0
 24 28  1  0
 25 26  1  0
 26 27  2  0
 27 28  1  0
 29 34  2  0
 29 30  1  0
 30 31  2  0
 31 32  1  0
 32 33  2  0
 32 35  1  0
 33 34  1  0
 33 38  1  0
 34  9  1  0
 35 36  2  0
 36 37  1  0
 37 38  2  0
 17 19  1  0
  1 39  1  0
  6 40  1  0
  6 41  1  0
 10 42  1  0
 11 43  1  0
 11 44  1  0
 11 45  1  0
 13 46  1  0
 13 47  1  0
 13 48  1  0
 15 49  1  0
 17 50  1  0
 17 51  1  0
 22 52  1  0
 25 53  1  0
 26 54  1  0
 29 55  1  0
 30 56  1  0
 31 57  1  0
 35 58  1  0
 36 59  1  0
 37 60  1  0
M  END
>  <smiles>  (664) 
[H]OC(=O)C([H])([H])c1c(OC([H])([H])[H])c(-c2sc(C#CC([H])([H])O[H])c([H])c2[H])c([H])c(C(=O)N([H])S(=O)(=O)c2c([H])c([H])c([H])c3c([H])c([H])c([H])nc23)c1C([H])([H])[H]

>  <error>  (664) 


>  <∆∆G>  (664) 
-202.798843

>  <∆G_bound>  (664) 
-27.567209

>  <∆G_unbound>  (664) 
175.231634

>  <comRMSD>  (664) 
0.841515

>  <N_constrained_atoms>  (664) 
38.0

>  <N_unconstrained_atoms>  (664) 
0.0

>  <runtime>  (664) 
4.023114

>  <regarded>  (664) 
['5i3q-a', '5hmw-b']

>  <disregarded>  (664) 
[]

>  <LE>  (664) 
5.336812

>  <outcome>  (664) 
acceptable

>  <percent_hybrid>  (664) 
11.0

$$$$
LIG
     RDKit          3D

 56 59  0  0  0  0  0  0  0  0999 V2000
  -21.9813  -45.8093  -26.8852 O   0  0  0  0  0  0  0  0  0  0  0  0
  -16.7179  -42.2251  -16.9129 N   0  0  0  0  0  0  0  0  0  0  0  0
  -15.6382  -43.8112  -14.2419 O   0  0  0  0  0  0  0  0  0  0  0  0
  -19.4766  -46.1936  -24.5546 C   0  0  0  0  0  0  0  0  0  0  0  0
  -20.1081  -46.3891  -25.5593 C   0  0  0  0  0  0  0  0  0  0  0  0
  -20.8506  -46.6639  -26.7883 C   0  0  0  0  0  0  0  0  0  0  0  0
  -15.7837  -42.8993  -17.3108 C   0  0  0  0  0  0  0  0  0  0  0  0
  -13.4080  -44.8376  -14.6903 O   0  0  0  0  0  0  0  0  0  0  0  0
  -14.3564  -43.7649  -14.8913 S   0  0  0  0  0  0  0  0  0  0  0  0
  -14.6074  -43.6200  -16.5024 N   0  0  0  0  0  0  0  0  0  0  0  0
  -13.3052  -42.0035  -18.7824 C   0  0  0  0  0  0  0  0  0  0  0  0
  -15.1155  -44.2921  -22.7668 O   0  0  0  0  0  0  0  0  0  0  0  0
  -14.3084  -43.4979  -23.6165 C   0  0  0  0  0  0  0  0  0  0  0  0
  -17.5606  -41.7382  -17.9043 O   0  0  0  0  0  0  0  0  0  0  0  0
  -15.2101  -43.9108  -21.4547 C   0  0  0  0  0  0  0  0  0  0  0  0
  -14.2177  -43.1941  -20.7798 C   0  0  0  0  0  0  0  0  0  0  0  0
  -14.3893  -42.8145  -19.4385 C   0  0  0  0  0  0  0  0  0  0  0  0
  -15.5541  -43.2306  -18.7646 C   0  0  0  0  0  0  0  0  0  0  0  0
  -16.5287  -44.0020  -19.4266 C   0  0  0  0  0  0  0  0  0  0  0  0
  -16.3720  -44.3303  -20.7773 C   0  0  0  0  0  0  0  0  0  0  0  0
  -18.7826  -45.9795  -23.3208 C   0  0  0  0  0  0  0  0  0  0  0  0
  -18.5502  -46.9375  -22.3549 C   0  0  0  0  0  0  0  0  0  0  0  0
  -17.7485  -46.4437  -21.2820 C   0  0  0  0  0  0  0  0  0  0  0  0
  -17.3762  -45.1308  -21.4867 C   0  0  0  0  0  0  0  0  0  0  0  0
  -18.1977  -44.4555  -22.8393 S   0  0  0  0  0  0  0  0  0  0  0  0
  -14.5484  -41.3042  -13.7804 C   0  0  0  0  0  0  0  0  0  0  0  0
  -14.0703  -40.0682  -13.3872 C   0  0  0  0  0  0  0  0  0  0  0  0
  -12.7488  -39.7461  -13.6618 C   0  0  0  0  0  0  0  0  0  0  0  0
  -11.9062  -40.6607  -14.3227 C   0  0  0  0  0  0  0  0  0  0  0  0
  -12.3737  -41.9276  -14.7325 C   0  0  0  0  0  0  0  0  0  0  0  0
  -13.6973  -42.2094  -14.4459 C   0  0  0  0  0  0  0  0  0  0  0  0
  -10.5711  -40.3351  -14.5786 C   0  0  0  0  0  0  0  0  0  0  0  0
   -9.7322  -41.2628  -15.1790 C   0  0  0  0  0  0  0  0  0  0  0  0
  -10.2662  -42.4834  -15.5276 C   0  0  0  0  0  0  0  0  0  0  0  0
  -11.5638  -42.8054  -15.3674 N   0  0  0  0  0  0  0  0  0  0  0  0
  -22.7494  -46.3144  -26.5477 H   0  0  0  0  0  0  0  0  0  0  0  0
  -21.1738  -47.7061  -26.8577 H   0  0  0  0  0  0  0  0  0  0  0  0
  -20.2112  -46.4483  -27.6418 H   0  0  0  0  0  0  0  0  0  0  0  0
  -13.9521  -44.0282  -17.1544 H   0  0  0  0  0  0  0  0  0  0  0  0
  -13.7090  -41.3342  -18.0166 H   0  0  0  0  0  0  0  0  0  0  0  0
  -12.5567  -42.6632  -18.3333 H   0  0  0  0  0  0  0  0  0  0  0  0
  -12.8021  -41.3653  -19.5175 H   0  0  0  0  0  0  0  0  0  0  0  0
  -14.3406  -42.4328  -23.3646 H   0  0  0  0  0  0  0  0  0  0  0  0
  -13.2911  -43.8917  -23.6001 H   0  0  0  0  0  0  0  0  0  0  0  0
  -14.6944  -43.6010  -24.6337 H   0  0  0  0  0  0  0  0  0  0  0  0
  -18.2655  -41.3096  -17.3805 H   0  0  0  0  0  0  0  0  0  0  0  0
  -13.2922  -42.9329  -21.2893 H   0  0  0  0  0  0  0  0  0  0  0  0
  -17.4222  -44.3148  -18.8906 H   0  0  0  0  0  0  0  0  0  0  0  0
  -18.8878  -47.9643  -22.4337 H   0  0  0  0  0  0  0  0  0  0  0  0
  -17.3816  -47.0580  -20.4690 H   0  0  0  0  0  0  0  0  0  0  0  0
  -15.5876  -41.5581  -13.5740 H   0  0  0  0  0  0  0  0  0  0  0  0
  -14.7191  -39.3631  -12.8745 H   0  0  0  0  0  0  0  0  0  0  0  0
  -12.3703  -38.7742  -13.3503 H   0  0  0  0  0  0  0  0  0  0  0  0
  -10.1668  -39.3701  -14.2820 H   0  0  0  0  0  0  0  0  0  0  0  0
   -8.6827  -41.0462  -15.3439 H   0  0  0  0  0  0  0  0  0  0  0  0
   -9.6423  -43.2726  -15.9342 H   0  0  0  0  0  0  0  0  0  0  0  0
  1  6  1  0
  6  5  1  0
  5  4  3  0
 12 13  1  0
  2  7  2  0
  7 10  1  0
  3  9  2  0
 10  9  1  0
  9  8  2  0
 14  2  1  0
 15 20  2  0
 15 12  1  0
 15 16  1  0
 16 17  2  0
 17 18  1  0
 17 11  1  0
 18 19  2  0
 18  7  1  0
 19 20  1  0
 20 24  1  0
 21  4  1  0
 21 22  2  0
 21 25  1  0
 22 23  1  0
 23 24  2  0
 24 25  1  0
 26 31  2  0
 26 27  1  0
 27 28  2  0
 28 29  1  0
 29 30  2  0
 29 32  1  0
 30 31  1  0
 30 35  1  0
 31  9  1  0
 32 33  2  0
 33 34  1  0
 34 35  2  0
  1 36  1  0
  6 37  1  0
  6 38  1  0
 10 39  1  0
 11 40  1  0
 11 41  1  0
 11 42  1  0
 13 43  1  0
 13 44  1  0
 13 45  1  0
 14 46  1  0
 16 47  1  0
 19 48  1  0
 22 49  1  0
 23 50  1  0
 26 51  1  0
 27 52  1  0
 28 53  1  0
 32 54  1  0
 33 55  1  0
 34 56  1  0
M  END
>  <smiles>  (665) 
[H]O/N=C(\c1c([H])c(-c2sc(C#CC([H])([H])O[H])c([H])c2[H])c(OC([H])([H])[H])c([H])c1C([H])([H])[H])N([H])S(=O)(=O)c1c([H])c([H])c([H])c2c([H])c([H])c([H])nc12

>  <error>  (665) 


>  <∆∆G>  (665) 
-42.175571

>  <∆G_bound>  (665) 
12.606224

>  <∆G_unbound>  (665) 
54.781795

>  <comRMSD>  (665) 
0.709746

>  <N_constrained_atoms>  (665) 
35.0

>  <N_unconstrained_atoms>  (665) 
0.0

>  <runtime>  (665) 
3.468002

>  <regarded>  (665) 
['5i3q-a', '5f3z-a']

>  <disregarded>  (665) 
[]

>  <LE>  (665) 
1.205016

>  <outcome>  (665) 
acceptable

>  <percent_hybrid>  (665) 
3.0

$$$$
LIG
     RDKit          3D

 54 57  0  0  0  0  0  0  0  0999 V2000
  -21.9981  -45.8007  -26.9071 O   0  0  0  0  0  0  0  0  0  0  0  0
  -16.6052  -42.0853  -17.1621 O   0  0  0  0  0  0  0  0  0  0  0  0
  -15.8880  -43.5836  -14.3863 O   0  0  0  0  0  0  0  0  0  0  0  0
  -19.4937  -46.1594  -24.5735 C   0  0  0  0  0  0  0  0  0  0  0  0
  -20.1287  -46.3682  -25.5730 C   0  0  0  0  0  0  0  0  0  0  0  0
  -20.8686  -46.6551  -26.7998 C   0  0  0  0  0  0  0  0  0  0  0  0
  -15.7178  -42.7844  -17.4569 C   0  0  0  0  0  0  0  0  0  0  0  0
  -13.6983  -44.7600  -14.6462 O   0  0  0  0  0  0  0  0  0  0  0  0
  -14.5612  -43.6339  -14.9366 S   0  0  0  0  0  0  0  0  0  0  0  0
  -14.6751  -43.5210  -16.5651 N   0  0  0  0  0  0  0  0  0  0  0  0
  -13.1545  -42.0904  -18.8763 C   0  0  0  0  0  0  0  0  0  0  0  0
  -15.0310  -44.3658  -22.8191 O   0  0  0  0  0  0  0  0  0  0  0  0
  -14.4396  -43.4500  -23.7292 C   0  0  0  0  0  0  0  0  0  0  0  0
  -15.1536  -43.9258  -21.5287 C   0  0  0  0  0  0  0  0  0  0  0  0
  -14.1233  -43.2532  -20.8655 C   0  0  0  0  0  0  0  0  0  0  0  0
  -14.2829  -42.8322  -19.5377 C   0  0  0  0  0  0  0  0  0  0  0  0
  -15.4840  -43.1502  -18.8775 C   0  0  0  0  0  0  0  0  0  0  0  0
  -16.5091  -43.8591  -19.5292 C   0  0  0  0  0  0  0  0  0  0  0  0
  -16.3458  -44.2577  -20.8584 C   0  0  0  0  0  0  0  0  0  0  0  0
  -18.7879  -45.9279  -23.3508 C   0  0  0  0  0  0  0  0  0  0  0  0
  -18.5548  -46.8707  -22.3703 C   0  0  0  0  0  0  0  0  0  0  0  0
  -17.7461  -46.3614  -21.3111 C   0  0  0  0  0  0  0  0  0  0  0  0
  -17.3638  -45.0561  -21.5454 C   0  0  0  0  0  0  0  0  0  0  0  0
  -18.1752  -44.4017  -22.9107 S   0  0  0  0  0  0  0  0  0  0  0  0
  -14.6199  -41.1982  -13.7630 C   0  0  0  0  0  0  0  0  0  0  0  0
  -14.0774  -39.9995  -13.3406 C   0  0  0  0  0  0  0  0  0  0  0  0
  -12.7420  -39.7389  -13.6117 C   0  0  0  0  0  0  0  0  0  0  0  0
  -11.9483  -40.6788  -14.2960 C   0  0  0  0  0  0  0  0  0  0  0  0
  -12.4795  -41.9112  -14.7351 C   0  0  0  0  0  0  0  0  0  0  0  0
  -13.8188  -42.1285  -14.4538 C   0  0  0  0  0  0  0  0  0  0  0  0
  -10.5994  -40.4108  -14.5454 C   0  0  0  0  0  0  0  0  0  0  0  0
   -9.8058  -41.3623  -15.1678 C   0  0  0  0  0  0  0  0  0  0  0  0
  -10.3982  -42.5475  -15.5431 C   0  0  0  0  0  0  0  0  0  0  0  0
  -11.7110  -42.8142  -15.3901 N   0  0  0  0  0  0  0  0  0  0  0  0
  -22.7667  -46.3015  -26.5638 H   0  0  0  0  0  0  0  0  0  0  0  0
  -21.1916  -47.6978  -26.8608 H   0  0  0  0  0  0  0  0  0  0  0  0
  -20.2261  -46.4465  -27.6528 H   0  0  0  0  0  0  0  0  0  0  0  0
  -13.9918  -43.9790  -17.1519 H   0  0  0  0  0  0  0  0  0  0  0  0
  -13.5235  -41.3643  -18.1454 H   0  0  0  0  0  0  0  0  0  0  0  0
  -12.4773  -42.7937  -18.3826 H   0  0  0  0  0  0  0  0  0  0  0  0
  -12.5786  -41.5228  -19.6158 H   0  0  0  0  0  0  0  0  0  0  0  0
  -14.4595  -42.4096  -23.3878 H   0  0  0  0  0  0  0  0  0  0  0  0
  -13.4202  -43.7797  -23.9340 H   0  0  0  0  0  0  0  0  0  0  0  0
  -15.0029  -43.4999  -24.6656 H   0  0  0  0  0  0  0  0  0  0  0  0
  -13.1792  -43.0769  -21.3788 H   0  0  0  0  0  0  0  0  0  0  0  0
  -17.4296  -44.0928  -18.9972 H   0  0  0  0  0  0  0  0  0  0  0  0
  -18.9000  -47.8967  -22.4282 H   0  0  0  0  0  0  0  0  0  0  0  0
  -17.3809  -46.9618  -20.4870 H   0  0  0  0  0  0  0  0  0  0  0  0
  -15.6705  -41.4015  -13.5578 H   0  0  0  0  0  0  0  0  0  0  0  0
  -14.6882  -39.2745  -12.8090 H   0  0  0  0  0  0  0  0  0  0  0  0
  -12.3146  -38.7950  -13.2777 H   0  0  0  0  0  0  0  0  0  0  0  0
  -10.1496  -39.4734  -14.2262 H   0  0  0  0  0  0  0  0  0  0  0  0
   -8.7471  -41.1922  -15.3282 H   0  0  0  0  0  0  0  0  0  0  0  0
   -9.8091  -43.3535  -15.9679 H   0  0  0  0  0  0  0  0  0  0  0  0
  1  6  1  0
  6  5  1  0
  5  4  3  0
 12 13  1  0
  2  7  2  0
  7 10  1  0
  3  9  2  0
 10  9  1  0
  9  8  2  0
 14 19  2  0
 14 12  1  0
 14 15  1  0
 15 16  2  0
 16 17  1  0
 16 11  1  0
 17 18  2  0
 17  7  1  0
 18 19  1  0
 19 23  1  0
 20  4  1  0
 20 21  2  0
 20 24  1  0
 21 22  1  0
 22 23  2  0
 23 24  1  0
 25 30  2  0
 25 26  1  0
 26 27  2  0
 27 28  1  0
 28 29  2  0
 28 31  1  0
 29 30  1  0
 29 34  1  0
 30  9  1  0
 31 32  2  0
 32 33  1  0
 33 34  2  0
  1 35  1  0
  6 36  1  0
  6 37  1  0
 10 38  1  0
 11 39  1  0
 11 40  1  0
 11 41  1  0
 13 42  1  0
 13 43  1  0
 13 44  1  0
 15 45  1  0
 18 46  1  0
 21 47  1  0
 22 48  1  0
 25 49  1  0
 26 50  1  0
 27 51  1  0
 31 52  1  0
 32 53  1  0
 33 54  1  0
M  END
>  <smiles>  (666) 
[H]OC([H])([H])C#Cc1sc(-c2c([H])c(C(=O)N([H])S(=O)(=O)c3c([H])c([H])c([H])c4c([H])c([H])c([H])nc34)c(C([H])([H])[H])c([H])c2OC([H])([H])[H])c([H])c1[H]

>  <error>  (666) 


>  <∆∆G>  (666) 
-59.296062

>  <∆G_bound>  (666) 
-27.994801

>  <∆G_unbound>  (666) 
31.301261

>  <comRMSD>  (666) 
0.720447

>  <N_constrained_atoms>  (666) 
34.0

>  <N_unconstrained_atoms>  (666) 
0.0

>  <runtime>  (666) 
3.686084

>  <regarded>  (666) 
['5i3q-a', '6h9r-a']

>  <disregarded>  (666) 
[]

>  <LE>  (666) 
1.744002

>  <outcome>  (666) 
equally sized

>  <percent_hybrid>  (666) 
0.0

$$$$
LIG
     RDKit          3D

 56 59  0  0  0  0  0  0  0  0999 V2000
  -22.0360  -45.7811  -26.9388 O   0  0  0  0  0  0  0  0  0  0  0  0
  -16.8528  -42.3615  -17.2402 N   0  0  0  0  0  0  0  0  0  0  0  0
  -15.8857  -43.6140  -14.3843 O   0  0  0  0  0  0  0  0  0  0  0  0
  -19.5238  -46.1832  -24.6240 C   0  0  0  0  0  0  0  0  0  0  0  0
  -20.1687  -46.3768  -25.6188 C   0  0  0  0  0  0  0  0  0  0  0  0
  -20.9130  -46.6448  -26.8440 C   0  0  0  0  0  0  0  0  0  0  0  0
  -15.8006  -42.9244  -17.5225 C   0  0  0  0  0  0  0  0  0  0  0  0
  -13.6823  -44.7452  -14.6302 O   0  0  0  0  0  0  0  0  0  0  0  0
  -14.5518  -43.6244  -14.9245 S   0  0  0  0  0  0  0  0  0  0  0  0
  -14.6339  -43.5087  -16.5666 N   0  0  0  0  0  0  0  0  0  0  0  0
  -13.2077  -42.1167  -18.8850 C   0  0  0  0  0  0  0  0  0  0  0  0
  -14.9451  -44.3644  -22.8901 O   0  0  0  0  0  0  0  0  0  0  0  0
  -14.5623  -43.3335  -23.7928 C   0  0  0  0  0  0  0  0  0  0  0  0
  -17.0049  -42.0251  -15.9046 O   0  0  0  0  0  0  0  0  0  0  0  0
  -15.1201  -43.9573  -21.5961 C   0  0  0  0  0  0  0  0  0  0  0  0
  -14.1138  -43.2788  -20.9019 C   0  0  0  0  0  0  0  0  0  0  0  0
  -14.3015  -42.8892  -19.5679 C   0  0  0  0  0  0  0  0  0  0  0  0
  -15.5036  -43.2520  -18.9360 C   0  0  0  0  0  0  0  0  0  0  0  0
  -16.4969  -43.9725  -19.6197 C   0  0  0  0  0  0  0  0  0  0  0  0
  -16.3092  -44.3333  -20.9520 C   0  0  0  0  0  0  0  0  0  0  0  0
  -18.7947  -45.9667  -23.4158 C   0  0  0  0  0  0  0  0  0  0  0  0
  -18.5651  -46.9142  -22.4399 C   0  0  0  0  0  0  0  0  0  0  0  0
  -17.7215  -46.4227  -21.4027 C   0  0  0  0  0  0  0  0  0  0  0  0
  -17.3180  -45.1263  -21.6487 C   0  0  0  0  0  0  0  0  0  0  0  0
  -18.1363  -44.4554  -22.9971 S   0  0  0  0  0  0  0  0  0  0  0  0
  -14.6202  -41.2121  -13.6997 C   0  0  0  0  0  0  0  0  0  0  0  0
  -14.0824  -40.0124  -13.2733 C   0  0  0  0  0  0  0  0  0  0  0  0
  -12.7540  -39.7345  -13.5629 C   0  0  0  0  0  0  0  0  0  0  0  0
  -11.9606  -40.6599  -14.2666 C   0  0  0  0  0  0  0  0  0  0  0  0
  -12.4872  -41.8917  -14.7108 C   0  0  0  0  0  0  0  0  0  0  0  0
  -13.8224  -42.1226  -14.4175 C   0  0  0  0  0  0  0  0  0  0  0  0
  -10.6165  -40.3793  -14.5298 C   0  0  0  0  0  0  0  0  0  0  0  0
   -9.8222  -41.3198  -15.1683 C   0  0  0  0  0  0  0  0  0  0  0  0
  -10.4089  -42.5074  -15.5444 C   0  0  0  0  0  0  0  0  0  0  0  0
  -11.7172  -42.7852  -15.3776 N   0  0  0  0  0  0  0  0  0  0  0  0
  -22.8042  -46.2779  -26.5883 H   0  0  0  0  0  0  0  0  0  0  0  0
  -21.2433  -47.6846  -26.9154 H   0  0  0  0  0  0  0  0  0  0  0  0
  -20.2688  -46.4277  -27.6932 H   0  0  0  0  0  0  0  0  0  0  0  0
  -13.9423  -43.9848  -17.1306 H   0  0  0  0  0  0  0  0  0  0  0  0
  -12.5048  -42.8009  -18.4005 H   0  0  0  0  0  0  0  0  0  0  0  0
  -12.6505  -41.5132  -19.6105 H   0  0  0  0  0  0  0  0  0  0  0  0
  -13.6094  -41.4177  -18.1450 H   0  0  0  0  0  0  0  0  0  0  0  0
  -14.5305  -42.3315  -23.3516 H   0  0  0  0  0  0  0  0  0  0  0  0
  -13.5893  -43.5934  -24.2126 H   0  0  0  0  0  0  0  0  0  0  0  0
  -15.2851  -43.3173  -24.6146 H   0  0  0  0  0  0  0  0  0  0  0  0
  -17.1845  -42.8731  -15.4298 H   0  0  0  0  0  0  0  0  0  0  0  0
  -13.1698  -43.0692  -21.4029 H   0  0  0  0  0  0  0  0  0  0  0  0
  -17.4215  -44.2408  -19.1114 H   0  0  0  0  0  0  0  0  0  0  0  0
  -18.9365  -47.9312  -22.4878 H   0  0  0  0  0  0  0  0  0  0  0  0
  -17.3577  -47.0260  -20.5799 H   0  0  0  0  0  0  0  0  0  0  0  0
  -15.6645  -41.4272  -13.4794 H   0  0  0  0  0  0  0  0  0  0  0  0
  -14.6918  -39.2983  -12.7254 H   0  0  0  0  0  0  0  0  0  0  0  0
  -12.3314  -38.7894  -13.2265 H   0  0  0  0  0  0  0  0  0  0  0  0
  -10.1707  -39.4406  -14.2088 H   0  0  0  0  0  0  0  0  0  0  0  0
   -8.7671  -41.1395  -15.3402 H   0  0  0  0  0  0  0  0  0  0  0  0
   -9.8194  -43.3064  -15.9806 H   0  0  0  0  0  0  0  0  0  0  0  0
  1  6  1  0
  6  5  1  0
  5  4  3  0
 12 13  1  0
  2  7  2  0
  7 10  1  0
  3  9  2  0
 10  9  1  0
  9  8  2  0
 14  2  1  0
 15 20  2  0
 15 12  1  0
 15 16  1  0
 16 17  2  0
 17 18  1  0
 17 11  1  0
 18 19  2  0
 18  7  1  0
 19 20  1  0
 20 24  1  0
 21  4  1  0
 21 22  2  0
 21 25  1  0
 22 23  1  0
 23 24  2  0
 24 25  1  0
 26 31  2  0
 26 27  1  0
 27 28  2  0
 28 29  1  0
 29 30  2  0
 29 32  1  0
 30 31  1  0
 30 35  1  0
 31  9  1  0
 32 33  2  0
 33 34  1  0
 34 35  2  0
  1 36  1  0
  6 37  1  0
  6 38  1  0
 10 39  1  0
 11 40  1  0
 11 41  1  0
 11 42  1  0
 13 43  1  0
 13 44  1  0
 13 45  1  0
 14 46  1  0
 16 47  1  0
 19 48  1  0
 22 49  1  0
 23 50  1  0
 26 51  1  0
 27 52  1  0
 28 53  1  0
 32 54  1  0
 33 55  1  0
 34 56  1  0
M  END
>  <smiles>  (667) 
[H]O/N=C(\c1c([H])c(-c2sc(C#CC([H])([H])O[H])c([H])c2[H])c(OC([H])([H])[H])c([H])c1C([H])([H])[H])N([H])S(=O)(=O)c1c([H])c([H])c([H])c2c([H])c([H])c([H])nc12

>  <error>  (667) 


>  <∆∆G>  (667) 
-44.772588

>  <∆G_bound>  (667) 
10.009206

>  <∆G_unbound>  (667) 
54.781795

>  <comRMSD>  (667) 
0.71575

>  <N_constrained_atoms>  (667) 
35.0

>  <N_unconstrained_atoms>  (667) 
0.0

>  <runtime>  (667) 
3.909676

>  <regarded>  (667) 
['5i3q-a', '5f3t-a']

>  <disregarded>  (667) 
[]

>  <LE>  (667) 
1.279217

>  <outcome>  (667) 
acceptable

>  <percent_hybrid>  (667) 
3.0

$$$$

     RDKit          2D

  0  0  0  0  0  0  0  0  0  0999 V2000
M  END
>  <smiles>  (668) 
nan

>  <error>  (668) 
DistanceError 5.65 Å

>  <∆∆G>  (668) 
nan

>  <∆G_bound>  (668) 
nan

>  <∆G_unbound>  (668) 
nan

>  <comRMSD>  (668) 
nan

>  <N_constrained_atoms>  (668) 
nan

>  <N_unconstrained_atoms>  (668) 
nan

>  <runtime>  (668) 
nan

>  <regarded>  (668) 
[]

>  <disregarded>  (668) 
[]

>  <LE>  (668) 
nan

>  <outcome>  (668) 
too distant

>  <percent_hybrid>  (668) 
nan

$$$$
LIG
     RDKit          3D

 47 50  0  0  0  0  0  0  0  0999 V2000
  -13.3048  -42.4970  -20.7730 C   0  0  1  0  0  0  0  0  0  0  0  0
  -11.1973  -41.3554  -20.5258 O   0  0  0  0  0  0  0  0  0  0  0  0
  -18.2839  -40.6947  -17.2520 O   0  0  0  0  0  0  0  0  0  0  0  0
  -19.1511  -42.7468  -17.3728 O   0  0  0  0  0  0  0  0  0  0  0  0
  -12.2380  -41.9040  -19.8586 C   0  0  0  0  0  0  0  0  0  0  0  0
  -12.1934  -41.9484  -18.6374 O   0  0  0  0  0  0  0  0  0  0  0  0
  -16.7861  -42.6052  -17.0503 C   0  0  0  0  0  0  0  0  0  0  0  0
  -18.1065  -41.9024  -17.2282 C   0  0  0  0  0  0  0  0  0  0  0  0
  -14.5057  -43.1369  -20.0645 C   0  0  0  0  0  0  0  0  0  0  0  0
  -15.0452  -42.6459  -18.8706 C   0  0  0  0  0  0  0  0  0  0  0  0
  -16.2211  -43.1854  -18.3258 C   0  0  0  0  0  0  0  0  0  0  0  0
  -16.8950  -44.2001  -19.0205 C   0  0  0  0  0  0  0  0  0  0  0  0
  -16.4135  -44.6550  -20.2479 C   0  0  0  0  0  0  0  0  0  0  0  0
  -15.1883  -44.1785  -20.7188 C   0  0  0  0  0  0  0  0  0  0  0  0
  -18.4417  -47.2844  -21.9818 C   0  0  0  0  0  0  0  0  0  0  0  0
  -18.5886  -46.3401  -22.9714 C   0  0  0  0  0  0  0  0  0  0  0  0
  -17.8640  -44.8582  -22.5536 S   0  0  0  0  0  0  0  0  0  0  0  0
  -17.2346  -45.5107  -21.0942 C   0  0  0  0  0  0  0  0  0  0  0  0
  -17.6457  -46.8104  -20.9024 C   0  0  0  0  0  0  0  0  0  0  0  0
  -14.5548  -41.9508  -22.9821 C   0  0  0  0  0  0  0  0  0  0  0  0
  -13.7836  -41.5954  -21.8966 C   0  0  0  0  0  0  0  0  0  0  0  0
  -13.5210  -40.2651  -22.0916 N   0  0  0  0  0  0  0  0  0  0  0  0
  -14.1279  -39.7437  -23.1911 N   0  0  0  0  0  0  0  0  0  0  0  0
  -14.8015  -40.7773  -23.7233 C   0  0  0  0  0  0  0  0  0  0  0  0
  -16.8221  -41.5383  -24.9108 C   0  0  0  0  0  0  0  0  0  0  0  0
  -15.6832  -40.7224  -24.8885 C   0  0  0  0  0  0  0  0  0  0  0  0
  -15.4168  -39.9314  -25.9990 C   0  0  0  0  0  0  0  0  0  0  0  0
  -16.2849  -40.0131  -27.0816 C   0  0  0  0  0  0  0  0  0  0  0  0
  -17.3780  -40.8120  -27.1356 N   0  0  0  0  0  0  0  0  0  0  0  0
  -17.6243  -41.5465  -26.0352 C   0  0  0  0  0  0  0  0  0  0  0  0
  -12.7819  -43.3382  -21.2468 H   0  0  0  0  0  0  0  0  0  0  0  0
  -10.4713  -41.3951  -19.8559 H   0  0  0  0  0  0  0  0  0  0  0  0
  -19.9245  -42.1441  -17.4133 H   0  0  0  0  0  0  0  0  0  0  0  0
  -16.0880  -41.8804  -16.6129 H   0  0  0  0  0  0  0  0  0  0  0  0
  -16.8906  -43.3866  -16.2967 H   0  0  0  0  0  0  0  0  0  0  0  0
  -14.5735  -41.8064  -18.3617 H   0  0  0  0  0  0  0  0  0  0  0  0
  -17.8487  -44.5711  -18.6505 H   0  0  0  0  0  0  0  0  0  0  0  0
  -14.7966  -44.5680  -21.6586 H   0  0  0  0  0  0  0  0  0  0  0  0
  -18.8521  -48.2824  -22.0606 H   0  0  0  0  0  0  0  0  0  0  0  0
  -19.0942  -46.4571  -23.9199 H   0  0  0  0  0  0  0  0  0  0  0  0
  -17.3677  -47.4002  -20.0417 H   0  0  0  0  0  0  0  0  0  0  0  0
  -14.9243  -42.9394  -23.2124 H   0  0  0  0  0  0  0  0  0  0  0  0
  -17.0946  -42.1544  -24.0615 H   0  0  0  0  0  0  0  0  0  0  0  0
  -14.5480  -39.2841  -26.0338 H   0  0  0  0  0  0  0  0  0  0  0  0
  -16.1256  -39.4132  -27.9705 H   0  0  0  0  0  0  0  0  0  0  0  0
  -18.5194  -42.1577  -26.0701 H   0  0  0  0  0  0  0  0  0  0  0  0
  -12.9336  -39.6538  -21.5322 H   0  0  0  0  0  0  0  0  0  0  0  0
  7  8  1  0
  8  3  2  0
  8  4  1  0
  1  5  1  0
  6  5  2  0
  5  2  1  0
  9 14  1  0
  9 10  2  0
  9  1  1  0
 10 11  1  0
 11 12  2  0
 11  7  1  0
 12 13  1  0
 13 18  1  0
 13 14  2  0
 15 16  2  0
 15 19  1  0
 16 17  1  0
 17 18  1  0
 18 19  2  0
 20 21  2  0
 20 24  1  0
 21 22  1  0
 22 23  1  0
 23 24  2  0
 24 26  1  0
 25 30  2  0
 25 26  1  0
 26 27  2  0
 27 28  1  0
 28 29  2  0
 29 30  1  0
  1 21  1  0
  1 31  1  6
  2 32  1  0
  4 33  1  0
  7 34  1  0
  7 35  1  0
 10 36  1  0
 12 37  1  0
 14 38  1  0
 15 39  1  0
 16 40  1  0
 19 41  1  0
 20 42  1  0
 25 43  1  0
 27 44  1  0
 28 45  1  0
 30 46  1  0
 22 47  1  0
M  END
>  <smiles>  (669) 
[H]OC(=O)C([H])([H])c1c([H])c(-c2sc([H])c([H])c2[H])c([H])c([C@]([H])(C(=O)O[H])c2[nH]nc(-c3c([H])c([H])nc([H])c3[H])c2[H])c1[H]

>  <error>  (669) 


>  <∆∆G>  (669) 
-63.606745

>  <∆G_bound>  (669) 
186.191017

>  <∆G_unbound>  (669) 
249.797762

>  <comRMSD>  (669) 
1.4962

>  <N_constrained_atoms>  (669) 
30.0

>  <N_unconstrained_atoms>  (669) 
0.0

>  <runtime>  (669) 
2.943017

>  <regarded>  (669) 
['5hmx-b', 'd0160a']

>  <disregarded>  (669) 
[]

>  <LE>  (669) 
2.120225

>  <outcome>  (669) 
too moved

>  <percent_hybrid>  (669) 
37.0

$$$$
LIG
     RDKit          3D

 56 59  0  0  0  0  0  0  0  0999 V2000
  -13.4524  -43.0966  -20.9027 C   0  0  1  0  0  0  0  0  0  0  0  0
  -11.9786  -42.6426  -19.0382 O   0  0  0  0  0  0  0  0  0  0  0  0
  -17.5005  -40.1876  -17.6019 O   0  0  0  0  0  0  0  0  0  0  0  0
  -18.9896  -41.8504  -17.6068 O   0  0  0  0  0  0  0  0  0  0  0  0
  -12.3809  -42.2016  -20.2537 C   0  0  0  0  0  0  0  0  0  0  0  0
  -11.8257  -41.2262  -20.7425 O   0  0  0  0  0  0  0  0  0  0  0  0
  -16.7446  -42.4403  -17.0661 C   0  0  0  0  0  0  0  0  0  0  0  0
  -17.7386  -41.3735  -17.4379 C   0  0  0  0  0  0  0  0  0  0  0  0
  -14.5697  -43.5806  -19.9838 C   0  0  0  0  0  0  0  0  0  0  0  0
  -15.0293  -42.8831  -18.8634 C   0  0  0  0  0  0  0  0  0  0  0  0
  -16.2480  -43.2293  -18.2536 C   0  0  0  0  0  0  0  0  0  0  0  0
  -17.0605  -44.2110  -18.8451 C   0  0  0  0  0  0  0  0  0  0  0  0
  -16.6138  -44.8879  -19.9730 C   0  0  0  0  0  0  0  0  0  0  0  0
  -15.3231  -44.6654  -20.4363 C   0  0  0  0  0  0  0  0  0  0  0  0
  -18.4792  -47.3834  -22.0211 C   0  0  0  0  0  0  0  0  0  0  0  0
  -18.6897  -46.3222  -22.8708 C   0  0  0  0  0  0  0  0  0  0  0  0
  -18.2063  -44.8477  -22.1745 S   0  0  0  0  0  0  0  0  0  0  0  0
  -17.4853  -45.6590  -20.8409 C   0  0  0  0  0  0  0  0  0  0  0  0
  -17.7367  -47.0082  -20.8691 C   0  0  0  0  0  0  0  0  0  0  0  0
  -15.5754  -39.7461  -26.5162 C   0  0  0  0  0  0  0  0  0  0  0  0
  -14.8300  -41.2252  -24.6541 C   0  0  0  0  0  0  0  0  0  0  0  0
  -15.1134  -42.4984  -24.2066 C   0  0  0  0  0  0  0  0  0  0  0  0
  -16.2318  -42.9492  -24.9625 C   0  0  0  0  0  0  0  0  0  0  0  0
  -16.5537  -41.9657  -25.8668 C   0  0  0  0  0  0  0  0  0  0  0  0
  -15.6654  -40.9387  -25.6929 N   0  0  0  0  0  0  0  0  0  0  0  0
  -17.7533  -38.6236  -27.0634 C   0  0  0  0  0  0  0  0  0  0  0  0
  -16.6840  -38.7904  -26.1906 C   0  0  0  0  0  0  0  0  0  0  0  0
  -16.7031  -38.0583  -25.0013 C   0  0  0  0  0  0  0  0  0  0  0  0
  -17.7654  -37.2008  -24.7401 C   0  0  0  0  0  0  0  0  0  0  0  0
  -18.7793  -37.1055  -25.6808 C   0  0  0  0  0  0  0  0  0  0  0  0
  -18.8038  -37.7950  -26.8453 N   0  0  0  0  0  0  0  0  0  0  0  0
  -14.0554  -42.3841  -22.0551 N   0  0  0  0  0  0  0  0  0  0  0  0
  -14.3887  -43.2731  -23.1641 C   0  0  0  0  0  0  0  0  0  0  0  0
  -12.8980  -43.9762  -21.2496 H   0  0  0  0  0  0  0  0  0  0  0  0
  -11.0750  -42.2489  -18.9684 H   0  0  0  0  0  0  0  0  0  0  0  0
  -19.5166  -41.0542  -17.8286 H   0  0  0  0  0  0  0  0  0  0  0  0
  -15.9078  -41.9594  -16.5448 H   0  0  0  0  0  0  0  0  0  0  0  0
  -17.1959  -43.1062  -16.3263 H   0  0  0  0  0  0  0  0  0  0  0  0
  -14.4746  -42.0234  -18.4889 H   0  0  0  0  0  0  0  0  0  0  0  0
  -18.0716  -44.3755  -18.4786 H   0  0  0  0  0  0  0  0  0  0  0  0
  -14.9765  -45.2433  -21.2891 H   0  0  0  0  0  0  0  0  0  0  0  0
  -18.7734  -48.3954  -22.2612 H   0  0  0  0  0  0  0  0  0  0  0  0
  -19.1436  -46.3445  -23.8515 H   0  0  0  0  0  0  0  0  0  0  0  0
  -17.3531  -47.7020  -20.1372 H   0  0  0  0  0  0  0  0  0  0  0  0
  -14.5966  -39.2817  -26.3608 H   0  0  0  0  0  0  0  0  0  0  0  0
  -15.6193  -40.0776  -27.5601 H   0  0  0  0  0  0  0  0  0  0  0  0
  -14.0666  -40.5293  -24.3335 H   0  0  0  0  0  0  0  0  0  0  0  0
  -16.7290  -43.9028  -24.8689 H   0  0  0  0  0  0  0  0  0  0  0  0
  -17.3242  -41.9227  -26.6201 H   0  0  0  0  0  0  0  0  0  0  0  0
  -17.7947  -39.1714  -28.0009 H   0  0  0  0  0  0  0  0  0  0  0  0
  -15.8980  -38.1603  -24.2776 H   0  0  0  0  0  0  0  0  0  0  0  0
  -17.8038  -36.6251  -23.8220 H   0  0  0  0  0  0  0  0  0  0  0  0
  -19.6291  -36.4498  -25.5117 H   0  0  0  0  0  0  0  0  0  0  0  0
  -14.8844  -41.8776  -21.7543 H   0  0  0  0  0  0  0  0  0  0  0  0
  -13.4942  -43.7294  -23.5987 H   0  0  0  0  0  0  0  0  0  0  0  0
  -15.0511  -44.0866  -22.8786 H   0  0  0  0  0  0  0  0  0  0  0  0
  7  8  1  0
  8  3  2  0
  8  4  1  0
  1  5  1  0
  6  5  2  0
  5  2  1  0
  9 14  1  0
  9 10  2  0
  9  1  1  0
 10 11  1  0
 11 12  2  0
 11  7  1  0
 12 13  1  0
 13 18  1  0
 13 14  2  0
 15 16  2  0
 15 19  1  0
 16 17  1  0
 17 18  1  0
 18 19  2  0
 21 22  2  0
 21 25  1  0
 22 23  1  0
 23 24  2  0
 24 25  1  0
 25 20  1  0
 26 31  2  0
 26 27  1  0
 27 20  1  0
 27 28  2  0
 28 29  1  0
 29 30  2  0
 30 31  1  0
 32  1  1  0
 33 32  1  0
 33 22  1  0
  1 34  1  6
  2 35  1  0
  4 36  1  0
  7 37  1  0
  7 38  1  0
 10 39  1  0
 12 40  1  0
 14 41  1  0
 15 42  1  0
 16 43  1  0
 19 44  1  0
 20 45  1  0
 20 46  1  0
 21 47  1  0
 23 48  1  0
 24 49  1  0
 26 50  1  0
 28 51  1  0
 29 52  1  0
 30 53  1  0
 32 54  1  0
 33 55  1  0
 33 56  1  0
M  END
>  <smiles>  (670) 
[H]OC(=O)C([H])([H])c1c([H])c(-c2sc([H])c([H])c2[H])c([H])c([C@]([H])(C(=O)O[H])N([H])C([H])([H])c2c([H])c([H])n(C([H])([H])c3c([H])nc([H])c([H])c3[H])c2[H])c1[H]

>  <error>  (670) 


>  <∆∆G>  (670) 
-226.900294

>  <∆G_bound>  (670) 
248.929693

>  <∆G_unbound>  (670) 
475.829988

>  <comRMSD>  (670) 
1.513653

>  <N_constrained_atoms>  (670) 
31.0

>  <N_unconstrained_atoms>  (670) 
2.0

>  <runtime>  (670) 
5.153944

>  <regarded>  (670) 
['5hmx-b', 'd0191a']

>  <disregarded>  (670) 
[]

>  <LE>  (670) 
6.875766

>  <outcome>  (670) 
too moved

>  <percent_hybrid>  (670) 
39.0

$$$$
LIG
     RDKit          3D

 55 58  0  0  0  0  0  0  0  0999 V2000
  -12.9328  -43.2939  -19.9613 C   0  0  0  0  0  0  0  0  0  0  0  0
  -12.1862  -41.2564  -18.9699 O   0  0  0  0  0  0  0  0  0  0  0  0
  -18.0339  -40.7837  -17.8972 O   0  0  0  0  0  0  0  0  0  0  0  0
  -17.0456  -40.2187  -15.9853 O   0  0  0  0  0  0  0  0  0  0  0  0
  -12.5172  -41.8554  -20.1375 C   0  0  0  0  0  0  0  0  0  0  0  0
  -12.4643  -41.2143  -21.1750 O   0  0  0  0  0  0  0  0  0  0  0  0
  -16.6782  -42.4522  -16.7151 C   0  0  0  0  0  0  0  0  0  0  0  0
  -17.3113  -41.1062  -16.9680 C   0  0  0  0  0  0  0  0  0  0  0  0
  -16.4704  -44.3385  -23.2508 N   0  0  0  0  0  0  0  0  0  0  0  0
  -15.4554  -39.7208  -26.2954 C   0  0  0  0  0  0  0  0  0  0  0  0
  -14.3710  -43.4971  -19.5618 C   0  0  0  0  0  0  0  0  0  0  0  0
  -14.8636  -42.9256  -18.3807 C   0  0  0  0  0  0  0  0  0  0  0  0
  -16.1850  -43.1299  -17.9693 C   0  0  0  0  0  0  0  0  0  0  0  0
  -17.0111  -43.8871  -18.7978 C   0  0  0  0  0  0  0  0  0  0  0  0
  -16.5539  -44.4216  -20.0123 C   0  0  0  0  0  0  0  0  0  0  0  0
  -15.2125  -44.3007  -20.3407 C   0  0  0  0  0  0  0  0  0  0  0  0
  -18.6255  -47.1131  -21.7345 C   0  0  0  0  0  0  0  0  0  0  0  0
  -18.5126  -46.2081  -22.9500 C   0  0  0  0  0  0  0  0  0  0  0  0
  -17.8922  -44.6580  -22.4079 S   0  0  1  0  0  0  0  0  0  0  0  0
  -17.6737  -45.1208  -20.7262 C   0  0  1  0  0  0  0  0  0  0  0  0
  -17.5522  -46.6437  -20.7548 C   0  0  0  0  0  0  0  0  0  0  0  0
  -18.4330  -44.2843  -18.5482 C   0  0  0  0  0  0  0  0  0  0  0  0
  -18.9137  -44.6145  -19.9477 C   0  0  0  0  0  0  0  0  0  0  0  0
  -17.2745  -42.7404  -24.9061 C   0  0  0  0  0  0  0  0  0  0  0  0
  -16.3295  -43.1596  -23.9840 C   0  0  0  0  0  0  0  0  0  0  0  0
  -15.1807  -42.4991  -23.7651 N   0  0  0  0  0  0  0  0  0  0  0  0
  -14.9494  -41.3950  -24.5023 C   0  0  0  0  0  0  0  0  0  0  0  0
  -15.8018  -40.9309  -25.4925 C   0  0  0  0  0  0  0  0  0  0  0  0
  -17.0025  -41.6132  -25.6749 C   0  0  0  0  0  0  0  0  0  0  0  0
  -12.7225  -43.8156  -20.8989 H   0  0  0  0  0  0  0  0  0  0  0  0
  -12.3000  -43.7544  -19.1960 H   0  0  0  0  0  0  0  0  0  0  0  0
  -11.9014  -40.3663  -19.2627 H   0  0  0  0  0  0  0  0  0  0  0  0
  -17.5375  -39.4174  -16.2618 H   0  0  0  0  0  0  0  0  0  0  0  0
  -15.8384  -42.3305  -16.0195 H   0  0  0  0  0  0  0  0  0  0  0  0
  -17.4129  -43.0724  -16.2040 H   0  0  0  0  0  0  0  0  0  0  0  0
  -15.5877  -44.3553  -22.7536 H   0  0  0  0  0  0  0  0  0  0  0  0
  -15.7424  -38.8151  -25.7530 H   0  0  0  0  0  0  0  0  0  0  0  0
  -14.3817  -39.6870  -26.5062 H   0  0  0  0  0  0  0  0  0  0  0  0
  -15.9749  -39.7296  -27.2595 H   0  0  0  0  0  0  0  0  0  0  0  0
  -14.2039  -42.3123  -17.7676 H   0  0  0  0  0  0  0  0  0  0  0  0
  -14.7869  -44.8221  -21.1884 H   0  0  0  0  0  0  0  0  0  0  0  0
  -19.6066  -47.0243  -21.2670 H   0  0  0  0  0  0  0  0  0  0  0  0
  -18.4912  -48.1615  -22.0123 H   0  0  0  0  0  0  0  0  0  0  0  0
  -17.7933  -46.6392  -23.6171 H   0  0  0  0  0  0  0  0  0  0  0  0
  -19.4144  -46.0414  -23.5255 H   0  0  0  0  0  0  0  0  0  0  0  0
  -17.6800  -47.0807  -19.7636 H   0  0  0  0  0  0  0  0  0  0  0  0
  -16.5642  -46.9521  -21.1195 H   0  0  0  0  0  0  0  0  0  0  0  0
  -19.0320  -43.4861  -18.1029 H   0  0  0  0  0  0  0  0  0  0  0  0
  -18.4744  -45.1811  -17.9289 H   0  0  0  0  0  0  0  0  0  0  0  0
  -19.7523  -45.3168  -19.9243 H   0  0  0  0  0  0  0  0  0  0  0  0
  -19.3047  -43.6891  -20.3953 H   0  0  0  0  0  0  0  0  0  0  0  0
  -18.1882  -43.3004  -25.0524 H   0  0  0  0  0  0  0  0  0  0  0  0
  -14.0223  -40.8827  -24.2692 H   0  0  0  0  0  0  0  0  0  0  0  0
  -17.7205  -41.2755  -26.4165 H   0  0  0  0  0  0  0  0  0  0  0  0
  -18.8156  -43.6794  -22.5592 H   0  0  0  0  0  0  0  0  0  0  0  0
  7  8  1  0
  8  3  2  0
  8  4  1  0
  1  5  1  0
  6  5  2  0
  5  2  1  0
 11 16  2  0
 11 12  1  0
 11  1  1  0
 12 13  2  0
 13 14  1  0
 13  7  1  0
 14 15  2  0
 15 20  1  0
 15 16  1  0
 17 18  1  0
 17 21  1  0
 18 19  1  0
 19 20  1  0
 20 21  1  6
 22 23  1  0
 24 29  2  0
 24 25  1  0
 25  9  1  0
 25 26  2  0
 26 27  1  0
 27 28  2  0
 28 10  1  0
 28 29  1  0
 14 22  1  0
 20 23  1  0
 19  9  1  0
  1 30  1  0
  1 31  1  0
  2 32  1  0
  4 33  1  0
  7 34  1  0
  7 35  1  0
  9 36  1  0
 10 37  1  0
 10 38  1  0
 10 39  1  0
 12 40  1  0
 16 41  1  0
 17 42  1  0
 17 43  1  0
 18 44  1  0
 18 45  1  0
 21 46  1  0
 21 47  1  0
 22 48  1  0
 22 49  1  0
 23 50  1  0
 23 51  1  0
 24 52  1  0
 27 53  1  0
 29 54  1  0
 19 55  1  1
M  END
>  <smiles>  (671) 
[H]OC(=O)C([H])([H])c1c([H])c(C([H])([H])C(=O)O[H])c2c(c1[H])[C@]1([S@@H](N([H])c3nc([H])c(C([H])([H])[H])c([H])c3[H])C([H])([H])C([H])([H])C1([H])[H])C([H])([H])C2([H])[H]

>  <error>  (671) 


>  <∆∆G>  (671) 
-82.289633

>  <∆G_bound>  (671) 
116.317948

>  <∆G_unbound>  (671) 
198.607581

>  <comRMSD>  (671) 
1.516298

>  <N_constrained_atoms>  (671) 
29.0

>  <N_unconstrained_atoms>  (671) 
0.0

>  <runtime>  (671) 
3.374561

>  <regarded>  (671) 
['5hmx-b', 'd0254a']

>  <disregarded>  (671) 
[]

>  <LE>  (671) 
2.837574

>  <outcome>  (671) 
too moved

>  <percent_hybrid>  (671) 
35.0

$$$$
LIG
     RDKit          3D

 64 66  0  0  0  0  0  0  0  0999 V2000
  -13.1510  -41.8953  -20.7674 C   0  0  0  0  0  0  0  0  0  0  0  0
  -13.2105  -40.1389  -22.3652 O   0  0  0  0  0  0  0  0  0  0  0  0
  -15.5936  -42.4881  -14.6777 O   0  0  0  0  0  0  0  0  0  0  0  0
  -16.9611  -42.9805  -16.3717 O   0  0  0  0  0  0  0  0  0  0  0  0
  -13.9788  -40.9507  -21.6065 C   0  0  0  0  0  0  0  0  0  0  0  0
  -15.1946  -40.8572  -21.6590 O   0  0  0  0  0  0  0  0  0  0  0  0
  -14.7409  -43.8962  -16.4469 C   0  0  0  0  0  0  0  0  0  0  0  0
  -15.7661  -43.0360  -15.7571 C   0  0  0  0  0  0  0  0  0  0  0  0
  -23.5316  -44.4525  -16.5729 O   0  0  0  0  0  0  0  0  0  0  0  0
  -22.5475  -45.0745  -16.6659 C   0  0  0  0  0  0  0  0  0  0  0  0
  -22.3429  -46.4337  -15.9661 C   0  0  0  0  0  0  0  0  0  0  0  0
  -23.3768  -46.6179  -14.8609 C   0  0  0  0  0  0  0  0  0  0  0  0
  -22.4525  -47.6030  -16.9453 C   0  0  0  0  0  0  0  0  0  0  0  0
  -21.2643  -44.8089  -17.5003 N   0  0  0  0  0  0  0  0  0  0  0  0
  -20.8912  -43.6669  -18.3224 C   0  0  1  0  0  0  0  0  0  0  0  0
  -21.0544  -42.3678  -17.5372 C   0  0  0  0  0  0  0  0  0  0  0  0
  -20.3148  -42.7045  -21.0994 C   0  0  0  0  0  0  0  0  0  0  0  0
  -13.9693  -42.9333  -20.0372 C   0  0  0  0  0  0  0  0  0  0  0  0
  -14.0085  -42.9514  -18.6444 C   0  0  0  0  0  0  0  0  0  0  0  0
  -14.7726  -43.9025  -17.9580 C   0  0  0  0  0  0  0  0  0  0  0  0
  -15.5350  -44.8326  -18.6875 C   0  0  0  0  0  0  0  0  0  0  0  0
  -15.5492  -44.8049  -20.0861 C   0  0  0  0  0  0  0  0  0  0  0  0
  -14.7170  -43.8783  -20.7448 C   0  0  0  0  0  0  0  0  0  0  0  0
  -18.7386  -45.8067  -21.8796 C   0  0  0  0  0  0  0  0  0  0  0  0
  -18.3894  -47.2782  -21.6866 C   0  0  0  0  0  0  0  0  0  0  0  0
  -16.7374  -47.3054  -20.8632 S   0  0  0  0  0  0  0  0  0  0  0  0
  -16.5684  -45.5264  -20.9368 C   0  0  1  0  0  0  0  0  0  0  0  0
  -18.0285  -45.0239  -20.7766 C   0  0  2  0  0  0  0  0  0  0  0  0
  -19.4481  -43.7495  -18.8778 C   0  0  1  0  0  0  0  0  0  0  0  0
  -18.8812  -45.4295  -19.1827 S   0  0  0  0  0  0  0  0  0  0  0  0
  -18.1099  -43.5774  -20.9878 N   0  0  0  0  0  0  0  0  0  0  0  0
  -19.1570  -42.9664  -20.1712 C   0  0  1  0  0  0  0  0  0  0  0  0
  -12.4438  -42.4159  -21.4153 H   0  0  0  0  0  0  0  0  0  0  0  0
  -12.5755  -41.2922  -20.0559 H   0  0  0  0  0  0  0  0  0  0  0  0
  -13.8610  -39.6602  -22.9214 H   0  0  0  0  0  0  0  0  0  0  0  0
  -17.5779  -42.6783  -15.6651 H   0  0  0  0  0  0  0  0  0  0  0  0
  -13.7512  -43.5499  -16.1210 H   0  0  0  0  0  0  0  0  0  0  0  0
  -14.8333  -44.9200  -16.0731 H   0  0  0  0  0  0  0  0  0  0  0  0
  -21.3455  -46.4337  -15.5118 H   0  0  0  0  0  0  0  0  0  0  0  0
  -23.2883  -47.6096  -14.4128 H   0  0  0  0  0  0  0  0  0  0  0  0
  -23.2414  -45.8669  -14.0753 H   0  0  0  0  0  0  0  0  0  0  0  0
  -24.4006  -46.5193  -15.2398 H   0  0  0  0  0  0  0  0  0  0  0  0
  -22.0608  -48.5219  -16.4978 H   0  0  0  0  0  0  0  0  0  0  0  0
  -23.4992  -47.7858  -17.2064 H   0  0  0  0  0  0  0  0  0  0  0  0
  -21.9099  -47.4124  -17.8742 H   0  0  0  0  0  0  0  0  0  0  0  0
  -20.6320  -45.5982  -17.4112 H   0  0  0  0  0  0  0  0  0  0  0  0
  -21.6272  -43.6740  -19.1317 H   0  0  0  0  0  0  0  0  0  0  0  0
  -20.4276  -42.3640  -16.6386 H   0  0  0  0  0  0  0  0  0  0  0  0
  -20.7851  -41.4982  -18.1450 H   0  0  0  0  0  0  0  0  0  0  0  0
  -22.0910  -42.2312  -17.2120 H   0  0  0  0  0  0  0  0  0  0  0  0
  -20.9826  -41.9857  -20.6200 H   0  0  0  0  0  0  0  0  0  0  0  0
  -19.9909  -42.2433  -22.0403 H   0  0  0  0  0  0  0  0  0  0  0  0
  -20.8461  -43.6277  -21.3399 H   0  0  0  0  0  0  0  0  0  0  0  0
  -13.4262  -42.2200  -18.0849 H   0  0  0  0  0  0  0  0  0  0  0  0
  -16.1484  -45.5549  -18.1610 H   0  0  0  0  0  0  0  0  0  0  0  0
  -14.7000  -43.8418  -21.8355 H   0  0  0  0  0  0  0  0  0  0  0  0
  -18.4051  -45.4798  -22.8745 H   0  0  0  0  0  0  0  0  0  0  0  0
  -19.8110  -45.6318  -21.8421 H   0  0  0  0  0  0  0  0  0  0  0  0
  -19.1202  -47.7513  -21.0323 H   0  0  0  0  0  0  0  0  0  0  0  0
  -18.3834  -47.8192  -22.6336 H   0  0  0  0  0  0  0  0  0  0  0  0
  -16.2635  -45.3504  -21.9794 H   0  0  0  0  0  0  0  0  0  0  0  0
  -18.7599  -43.3865  -18.1078 H   0  0  0  0  0  0  0  0  0  0  0  0
  -17.2255  -43.1439  -20.7101 H   0  0  0  0  0  0  0  0  0  0  0  0
  -18.7937  -41.9738  -19.8697 H   0  0  0  0  0  0  0  0  0  0  0  0
  7  8  1  0
  8  3  2  0
  8  4  1  0
  1  5  1  0
  6  5  2  0
  5  2  1  0
 13 11  1  0
 12 11  1  0
 11 10  1  0
 10  9  2  0
 14 10  1  0
 15 14  1  0
 15 16  1  0
 18 23  2  0
 18 19  1  0
 18  1  1  0
 19 20  2  0
 20 21  1  0
 20  7  1  0
 21 22  2  0
 22 27  1  0
 22 23  1  0
 24 25  1  0
 24 28  1  0
 25 26  1  0
 26 27  1  0
 27 28  1  0
 29 15  1  0
 29 30  1  0
 29 32  1  0
 31 32  1  0
 32 17  1  0
 28 30  1  6
 28 31  1  0
  1 33  1  0
  1 34  1  0
  2 35  1  0
  4 36  1  0
  7 37  1  0
  7 38  1  0
 11 39  1  0
 12 40  1  0
 12 41  1  0
 12 42  1  0
 13 43  1  0
 13 44  1  0
 13 45  1  0
 14 46  1  0
 15 47  1  6
 16 48  1  0
 16 49  1  0
 16 50  1  0
 17 51  1  0
 17 52  1  0
 17 53  1  0
 19 54  1  0
 21 55  1  0
 23 56  1  0
 24 57  1  0
 24 58  1  0
 25 59  1  0
 25 60  1  0
 27 61  1  6
 29 62  1  1
 31 63  1  0
 32 64  1  1
M  END
>  <smiles>  (672) 
[H]OC(=O)C([H])([H])c1c([H])c(C([H])([H])C(=O)O[H])c([H])c([C@@]2([H])SC([H])([H])C([H])([H])[C@]23S[C@]([H])([C@@]([H])(N([H])C(=O)C([H])(C([H])([H])[H])C([H])([H])[H])C([H])([H])[H])[C@]([H])(C([H])([H])[H])N3[H])c1[H]

>  <error>  (672) 


>  <∆∆G>  (672) 
-85.277092

>  <∆G_bound>  (672) 
111.858107

>  <∆G_unbound>  (672) 
197.135199

>  <comRMSD>  (672) 
1.310269

>  <N_constrained_atoms>  (672) 
32.0

>  <N_unconstrained_atoms>  (672) 
0.0

>  <runtime>  (672) 
29.245289

>  <regarded>  (672) 
['5hmx-b', 'd0264a']

>  <disregarded>  (672) 
[]

>  <LE>  (672) 
2.664909

>  <outcome>  (672) 
too moved

>  <percent_hybrid>  (672) 
41.0

$$$$
LIG
     RDKit          3D

 33 34  0  0  0  0  0  0  0  0999 V2000
  -13.1573  -42.4757  -20.6252 C   0  0  0  0  0  0  0  0  0  0  0  0
  -12.1107  -40.4933  -21.4083 O   0  0  0  0  0  0  0  0  0  0  0  0
  -17.9569  -40.7475  -16.7807 O   0  0  0  0  0  0  0  0  0  0  0  0
  -18.9459  -42.6845  -17.2787 O   0  0  0  0  0  0  0  0  0  0  0  0
  -13.2887  -41.1492  -21.3276 C   0  0  0  0  0  0  0  0  0  0  0  0
  -14.2858  -40.6515  -21.8236 O   0  0  0  0  0  0  0  0  0  0  0  0
  -16.5714  -42.7389  -16.9829 C   0  0  0  0  0  0  0  0  0  0  0  0
  -17.8514  -41.9439  -17.0014 C   0  0  0  0  0  0  0  0  0  0  0  0
  -14.8831  -44.1775  -22.2808 N   0  0  0  0  0  0  0  0  0  0  0  0
  -14.4815  -43.0387  -20.1588 C   0  0  0  0  0  0  0  0  0  0  0  0
  -14.8992  -42.7219  -18.8557 C   0  0  0  0  0  0  0  0  0  0  0  0
  -16.1055  -43.2007  -18.3417 C   0  0  0  0  0  0  0  0  0  0  0  0
  -16.8682  -44.0724  -19.1270 C   0  0  0  0  0  0  0  0  0  0  0  0
  -16.4932  -44.3734  -20.4464 C   0  0  0  0  0  0  0  0  0  0  0  0
  -15.3170  -43.8051  -20.9956 C   0  0  0  0  0  0  0  0  0  0  0  0
  -18.4663  -47.1326  -22.0545 C   0  0  0  0  0  0  0  0  0  0  0  0
  -18.6621  -46.2304  -23.0753 C   0  0  0  0  0  0  0  0  0  0  0  0
  -18.0775  -44.6796  -22.6813 S   0  0  0  0  0  0  0  0  0  0  0  0
  -17.3557  -45.2609  -21.2354 C   0  0  0  0  0  0  0  0  0  0  0  0
  -17.7081  -46.5730  -20.9895 C   0  0  0  0  0  0  0  0  0  0  0  0
  -12.6693  -43.1835  -21.2939 H   0  0  0  0  0  0  0  0  0  0  0  0
  -12.4938  -42.3491  -19.7606 H   0  0  0  0  0  0  0  0  0  0  0  0
  -12.3360  -39.6822  -21.9087 H   0  0  0  0  0  0  0  0  0  0  0  0
  -19.6809  -42.0400  -17.1943 H   0  0  0  0  0  0  0  0  0  0  0  0
  -15.8085  -42.1055  -16.5125 H   0  0  0  0  0  0  0  0  0  0  0  0
  -16.6840  -43.5895  -16.3144 H   0  0  0  0  0  0  0  0  0  0  0  0
  -14.2613  -43.5255  -22.7456 H   0  0  0  0  0  0  0  0  0  0  0  0
  -15.6313  -44.4783  -22.9001 H   0  0  0  0  0  0  0  0  0  0  0  0
  -14.2793  -42.0644  -18.2463 H   0  0  0  0  0  0  0  0  0  0  0  0
  -17.8025  -44.4739  -18.7392 H   0  0  0  0  0  0  0  0  0  0  0  0
  -18.8054  -48.1595  -22.1037 H   0  0  0  0  0  0  0  0  0  0  0  0
  -19.1431  -46.4060  -24.0290 H   0  0  0  0  0  0  0  0  0  0  0  0
  -17.3858  -47.1229  -20.1166 H   0  0  0  0  0  0  0  0  0  0  0  0
  7  8  1  0
  8  3  2  0
  8  4  1  0
  1  5  1  0
  6  5  2  0
  5  2  1  0
 10 15  2  0
 10 11  1  0
 10  1  1  0
 11 12  2  0
 12 13  1  0
 12  7  1  0
 13 14  2  0
 14 19  1  0
 14 15  1  0
 16 17  2  0
 16 20  1  0
 17 18  1  0
 18 19  1  0
 19 20  2  0
  9 15  1  0
  1 21  1  0
  1 22  1  0
  2 23  1  0
  4 24  1  0
  7 25  1  0
  7 26  1  0
  9 27  1  0
  9 28  1  0
 11 29  1  0
 13 30  1  0
 16 31  1  0
 17 32  1  0
 20 33  1  0
M  END
>  <smiles>  (673) 
[H]OC(=O)C([H])([H])c1c([H])c(-c2sc([H])c([H])c2[H])c(N([H])[H])c(C([H])([H])C(=O)O[H])c1[H]

>  <error>  (673) 


>  <∆∆G>  (673) 
-54.762289

>  <∆G_bound>  (673) 
-54.871083

>  <∆G_unbound>  (673) 
-0.108794

>  <comRMSD>  (673) 
1.320547

>  <N_constrained_atoms>  (673) 
20.0

>  <N_unconstrained_atoms>  (673) 
0.0

>  <runtime>  (673) 
1.442639

>  <regarded>  (673) 
['5hmx-b', 'd0472a']

>  <disregarded>  (673) 
[]

>  <LE>  (673) 
2.738114

>  <outcome>  (673) 
too moved

>  <percent_hybrid>  (673) 
5.0

$$$$
LIG
     RDKit          3D

 53 55  0  0  0  0  0  0  0  0999 V2000
  -13.4212  -43.1649  -20.3432 C   0  0  0  0  0  0  0  0  0  0  0  0
  -11.4948  -41.8817  -19.8728 O   0  0  0  0  0  0  0  0  0  0  0  0
  -18.9803  -40.7345  -16.8532 O   0  0  0  0  0  0  0  0  0  0  0  0
  -19.5496  -42.8604  -17.2523 O   0  0  0  0  0  0  0  0  0  0  0  0
  -12.3641  -42.7706  -19.3491 C   0  0  0  0  0  0  0  0  0  0  0  0
  -12.2660  -43.1762  -18.2023 O   0  0  0  0  0  0  0  0  0  0  0  0
  -17.2265  -42.3675  -17.2433 C   0  0  0  0  0  0  0  0  0  0  0  0
  -18.6385  -41.8838  -17.0737 C   0  0  0  0  0  0  0  0  0  0  0  0
  -15.1349  -43.8493  -18.4990 F   0  0  0  0  0  0  0  0  0  0  0  0
  -17.3788  -41.1286  -25.4229 C   0  0  0  0  0  0  0  0  0  0  0  0
  -17.1909  -40.2013  -26.1192 O   0  0  0  0  0  0  0  0  0  0  0  0
  -18.1541  -42.3274  -25.6474 N   0  0  0  0  0  0  0  0  0  0  0  0
  -14.6610  -42.2561  -20.2076 C   0  0  2  0  0  0  0  0  0  0  0  0
  -15.2597  -42.5155  -18.7931 C   0  0  1  0  0  0  0  0  0  0  0  0
  -16.7388  -42.1898  -18.6862 C   0  0  1  0  0  0  0  0  0  0  0  0
  -17.5277  -43.0897  -19.6508 C   0  0  0  0  0  0  0  0  0  0  0  0
  -16.7603  -43.4624  -20.9462 C   0  0  2  0  0  0  0  0  0  0  0  0
  -15.7341  -42.3648  -21.4028 C   0  0  0  0  0  0  0  0  0  0  0  0
  -18.7030  -45.5825  -23.4261 C   0  0  0  0  0  0  0  0  0  0  0  0
  -19.5901  -44.5359  -23.5044 C   0  0  0  0  0  0  0  0  0  0  0  0
  -19.1445  -43.2489  -22.4825 S   0  0  0  0  0  0  0  0  0  0  0  0
  -17.7059  -44.0382  -21.9839 C   0  0  0  0  0  0  0  0  0  0  0  0
  -17.6175  -45.2938  -22.5556 C   0  0  0  0  0  0  0  0  0  0  0  0
  -15.0266  -42.6925  -22.7383 C   0  0  0  0  0  0  0  0  0  0  0  0
  -16.3994  -40.9797  -21.6226 C   0  0  0  0  0  0  0  0  0  0  0  0
  -16.2604  -40.4904  -23.0700 C   0  0  0  0  0  0  0  0  0  0  0  0
  -16.9577  -41.3783  -24.0452 N   0  0  0  0  0  0  0  0  0  0  0  0
  -15.6180  -42.0860  -24.0317 C   0  0  0  0  0  0  0  0  0  0  0  0
  -12.9469  -43.1090  -21.3235 H   0  0  0  0  0  0  0  0  0  0  0  0
  -13.6607  -44.2247  -20.2020 H   0  0  0  0  0  0  0  0  0  0  0  0
  -10.6693  -42.0092  -19.3397 H   0  0  0  0  0  0  0  0  0  0  0  0
  -20.4027  -42.4261  -17.0339 H   0  0  0  0  0  0  0  0  0  0  0  0
  -16.6030  -41.7930  -16.5476 H   0  0  0  0  0  0  0  0  0  0  0  0
  -17.1559  -43.4111  -16.9210 H   0  0  0  0  0  0  0  0  0  0  0  0
  -18.0003  -42.9815  -24.8603 H   0  0  0  0  0  0  0  0  0  0  0  0
  -18.1913  -42.8747  -24.7698 H   0  0  0  0  0  0  0  0  0  0  0  0
  -14.2915  -41.2210  -20.2105 H   0  0  0  0  0  0  0  0  0  0  0  0
  -14.6876  -41.9634  -18.0392 H   0  0  0  0  0  0  0  0  0  0  0  0
  -16.8920  -41.1400  -18.9639 H   0  0  0  0  0  0  0  0  0  0  0  0
  -17.8116  -44.0278  -19.1529 H   0  0  0  0  0  0  0  0  0  0  0  0
  -18.4726  -42.5799  -19.8700 H   0  0  0  0  0  0  0  0  0  0  0  0
  -16.1346  -44.3262  -20.6666 H   0  0  0  0  0  0  0  0  0  0  0  0
  -18.8332  -46.5199  -23.9566 H   0  0  0  0  0  0  0  0  0  0  0  0
  -20.5003  -44.4790  -24.0882 H   0  0  0  0  0  0  0  0  0  0  0  0
  -16.8143  -45.9876  -22.3380 H   0  0  0  0  0  0  0  0  0  0  0  0
  -14.8766  -43.7730  -22.8546 H   0  0  0  0  0  0  0  0  0  0  0  0
  -14.0226  -42.2567  -22.7168 H   0  0  0  0  0  0  0  0  0  0  0  0
  -15.9648  -40.2107  -20.9737 H   0  0  0  0  0  0  0  0  0  0  0  0
  -17.4641  -41.0043  -21.3684 H   0  0  0  0  0  0  0  0  0  0  0  0
  -16.8729  -39.5756  -23.1170 H   0  0  0  0  0  0  0  0  0  0  0  0
  -15.2726  -40.0749  -23.3400 H   0  0  0  0  0  0  0  0  0  0  0  0
  -14.8638  -41.5351  -24.6248 H   0  0  0  0  0  0  0  0  0  0  0  0
  -15.7761  -42.9606  -24.6836 H   0  0  0  0  0  0  0  0  0  0  0  0
  7  8  1  0
  8  3  2  0
  8  4  1  0
  1  5  1  0
  6  5  2  0
  5  2  1  0
 12 10  1  0
 11 10  2  0
 13 18  1  0
 13 14  1  0
 13  1  1  0
 14 15  1  0
 15 16  1  0
 15  7  1  0
 16 17  1  0
 17 22  1  0
 17 18  1  0
 19 20  2  0
 19 23  1  0
 20 21  1  0
 21 22  1  0
 22 23  2  0
 24 28  1  0
 25 26  1  0
 26 27  1  0
 27 10  1  0
 27 28  1  0
 18 24  1  0
 18 25  1  0
  9 14  1  0
  1 29  1  0
  1 30  1  0
  2 31  1  0
  4 32  1  0
  7 33  1  0
  7 34  1  0
 12 35  1  0
 12 36  1  0
 13 37  1  1
 14 38  1  1
 15 39  1  1
 16 40  1  0
 16 41  1  0
 17 42  1  1
 19 43  1  0
 20 44  1  0
 23 45  1  0
 24 46  1  0
 24 47  1  0
 25 48  1  0
 25 49  1  0
 26 50  1  0
 26 51  1  0
 28 52  1  0
 28 53  1  0
M  END
>  <smiles>  (674) 
[H]OC(=O)C([H])([H])[C@@]1([H])C([H])([H])[C@@]([H])(c2sc([H])c([H])c2[H])C2(C([H])([H])C([H])([H])N(C(=O)N([H])[H])C([H])([H])C2([H])[H])[C@]([H])(C([H])([H])C(=O)O[H])[C@]1([H])F

>  <error>  (674) 


>  <∆∆G>  (674) 
-182.056359

>  <∆G_bound>  (674) 
250.282433

>  <∆G_unbound>  (674) 
432.338792

>  <comRMSD>  (674) 
2.463452

>  <N_constrained_atoms>  (674) 
28.0

>  <N_unconstrained_atoms>  (674) 
0.0

>  <runtime>  (674) 
8.913308

>  <regarded>  (674) 
['5hmx-b', 'd0612a']

>  <disregarded>  (674) 
[]

>  <LE>  (674) 
6.502013

>  <outcome>  (674) 
too moved

>  <percent_hybrid>  (674) 
33.0

$$$$
LIG
     RDKit          3D

 64 67  0  0  0  0  0  0  0  0999 V2000
  -15.4701  -40.2623  -21.4781 C   0  0  0  0  0  0  0  0  0  0  0  0
  -14.6838  -38.0862  -20.9375 O   0  0  0  0  0  0  0  0  0  0  0  0
  -12.7276  -43.6029  -16.3615 O   0  0  0  0  0  0  0  0  0  0  0  0
  -13.8942  -41.7371  -16.7161 O   0  0  0  0  0  0  0  0  0  0  0  0
  -15.5642  -39.0464  -20.5897 C   0  0  0  0  0  0  0  0  0  0  0  0
  -16.3407  -38.8641  -19.6676 O   0  0  0  0  0  0  0  0  0  0  0  0
  -14.5625  -43.7171  -17.9164 C   0  0  0  0  0  0  0  0  0  0  0  0
  -13.6383  -43.0306  -16.9447 C   0  0  0  0  0  0  0  0  0  0  0  0
  -18.9536  -43.2903  -24.2789 F   0  0  0  0  0  0  0  0  0  0  0  0
  -15.0597  -40.9639  -24.3713 N   0  0  0  0  0  0  0  0  0  0  0  0
  -15.1990  -40.3424  -25.7050 C   0  0  0  0  0  0  0  0  0  0  0  0
  -18.7909  -36.4752  -24.9173 C   0  0  0  0  0  0  0  0  0  0  0  0
  -15.9372  -41.5527  -20.7884 C   0  0  2  0  0  0  0  0  0  0  0  0
  -14.9432  -41.9286  -19.6640 C   0  0  0  0  0  0  0  0  0  0  0  0
  -15.6048  -42.8542  -18.6323 C   0  0  1  0  0  0  0  0  0  0  0  0
  -16.6673  -43.7318  -19.3073 C   0  0  0  0  0  0  0  0  0  0  0  0
  -16.2803  -44.0803  -20.7660 C   0  0  2  0  0  0  0  0  0  0  0  0
  -16.2440  -42.8012  -21.7434 C   0  0  2  0  0  0  0  0  0  0  0  0
  -17.4982  -47.6061  -21.3974 C   0  0  0  0  0  0  0  0  0  0  0  0
  -18.7425  -47.0691  -21.5792 C   0  0  0  0  0  0  0  0  0  0  0  0
  -18.7578  -45.3909  -21.3267 S   0  0  0  0  0  0  0  0  0  0  0  0
  -17.0552  -45.3294  -21.1363 C   0  0  0  0  0  0  0  0  0  0  0  0
  -16.5362  -46.6094  -21.1221 C   0  0  0  0  0  0  0  0  0  0  0  0
  -17.6824  -43.3391  -23.7927 C   0  0  1  0  0  0  0  0  0  0  0  0
  -16.7620  -42.7442  -24.8351 C   0  0  0  0  0  0  0  0  0  0  0  0
  -15.3700  -42.4018  -24.2878 C   0  0  2  0  0  0  0  0  0  0  0  0
  -15.1291  -42.9972  -22.8503 C   0  0  0  0  0  0  0  0  0  0  0  0
  -17.5898  -42.5547  -22.4830 C   0  0  0  0  0  0  0  0  0  0  0  0
  -17.2368  -39.1619  -26.8257 C   0  0  0  0  0  0  0  0  0  0  0  0
  -18.1868  -38.1679  -26.6370 N   0  0  0  0  0  0  0  0  0  0  0  0
  -17.9742  -37.5889  -25.4733 C   0  0  0  0  0  0  0  0  0  0  0  0
  -16.6432  -38.1903  -24.5730 S   0  0  0  0  0  0  0  0  0  0  0  0
  -16.3363  -39.3599  -25.7924 C   0  0  0  0  0  0  0  0  0  0  0  0
  -16.1152  -40.0380  -22.3250 H   0  0  0  0  0  0  0  0  0  0  0  0
  -14.4313  -40.3662  -21.8071 H   0  0  0  0  0  0  0  0  0  0  0  0
  -14.8725  -37.3652  -20.3006 H   0  0  0  0  0  0  0  0  0  0  0  0
  -13.2261  -41.4573  -16.0560 H   0  0  0  0  0  0  0  0  0  0  0  0
  -13.9362  -44.2103  -18.6675 H   0  0  0  0  0  0  0  0  0  0  0  0
  -15.0770  -44.4899  -17.3327 H   0  0  0  0  0  0  0  0  0  0  0  0
  -14.0839  -40.8413  -24.0940 H   0  0  0  0  0  0  0  0  0  0  0  0
  -14.2771  -39.7908  -25.9266 H   0  0  0  0  0  0  0  0  0  0  0  0
  -15.2895  -41.0980  -26.4941 H   0  0  0  0  0  0  0  0  0  0  0  0
  -19.2599  -36.7697  -23.9732 H   0  0  0  0  0  0  0  0  0  0  0  0
  -18.1741  -35.5876  -24.7441 H   0  0  0  0  0  0  0  0  0  0  0  0
  -19.5862  -36.2003  -25.6178 H   0  0  0  0  0  0  0  0  0  0  0  0
  -16.8892  -41.2967  -20.2992 H   0  0  0  0  0  0  0  0  0  0  0  0
  -14.0507  -42.3909  -20.1040 H   0  0  0  0  0  0  0  0  0  0  0  0
  -14.5859  -41.0335  -19.1428 H   0  0  0  0  0  0  0  0  0  0  0  0
  -16.1233  -42.2386  -17.8853 H   0  0  0  0  0  0  0  0  0  0  0  0
  -16.8355  -44.6357  -18.7068 H   0  0  0  0  0  0  0  0  0  0  0  0
  -17.6309  -43.2040  -19.3050 H   0  0  0  0  0  0  0  0  0  0  0  0
  -15.2325  -44.4181  -20.7140 H   0  0  0  0  0  0  0  0  0  0  0  0
  -17.2943  -48.6665  -21.4793 H   0  0  0  0  0  0  0  0  0  0  0  0
  -19.6366  -47.6283  -21.7890 H   0  0  0  0  0  0  0  0  0  0  0  0
  -15.4935  -46.8131  -20.9298 H   0  0  0  0  0  0  0  0  0  0  0  0
  -17.4369  -44.3941  -23.6638 H   0  0  0  0  0  0  0  0  0  0  0  0
  -16.6614  -43.4489  -25.6688 H   0  0  0  0  0  0  0  0  0  0  0  0
  -17.2690  -41.8802  -25.2752 H   0  0  0  0  0  0  0  0  0  0  0  0
  -14.6338  -42.8993  -24.9306 H   0  0  0  0  0  0  0  0  0  0  0  0
  -15.0047  -44.0794  -23.0055 H   0  0  0  0  0  0  0  0  0  0  0  0
  -14.1562  -42.6624  -22.4708 H   0  0  0  0  0  0  0  0  0  0  0  0
  -17.7011  -41.4919  -22.7329 H   0  0  0  0  0  0  0  0  0  0  0  0
  -18.4474  -42.7437  -21.8324 H   0  0  0  0  0  0  0  0  0  0  0  0
  -17.2440  -39.7207  -27.7538 H   0  0  0  0  0  0  0  0  0  0  0  0
  7  8  1  0
  8  3  2  0
  8  4  1  0
  1  5  1  0
  6  5  2  0
  5  2  1  0
 11 10  1  0
 13 18  1  0
 13 14  1  0
 13  1  1  0
 14 15  1  0
 15 16  1  0
 15  7  1  0
 16 17  1  0
 17 22  1  0
 17 18  1  0
 19 20  2  0
 19 23  1  0
 20 21  1  0
 21 22  1  0
 22 23  2  0
 24 28  1  0
 24  9  1  0
 24 25  1  0
 25 26  1  0
 26 10  1  0
 26 27  1  0
 29 30  1  0
 29 33  2  0
 30 31  2  0
 31 12  1  0
 31 32  1  0
 32 33  1  0
 33 11  1  0
 18 27  1  1
 18 28  1  0
  1 34  1  0
  1 35  1  0
  2 36  1  0
  4 37  1  0
  7 38  1  0
  7 39  1  0
 10 40  1  0
 11 41  1  0
 11 42  1  0
 12 43  1  0
 12 44  1  0
 12 45  1  0
 13 46  1  1
 14 47  1  0
 14 48  1  0
 15 49  1  6
 16 50  1  0
 16 51  1  0
 17 52  1  1
 19 53  1  0
 20 54  1  0
 23 55  1  0
 24 56  1  1
 25 57  1  0
 25 58  1  0
 26 59  1  6
 27 60  1  0
 27 61  1  0
 28 62  1  0
 28 63  1  0
 29 64  1  0
M  END
>  <smiles>  (675) 
[H]OC(=O)C([H])([H])[C@]1([H])C([H])([H])[C@@]([H])(C([H])([H])C(=O)O[H])[C@@]2(C([H])([H])[C@@]([H])(F)C([H])([H])[C@@]([H])(N([H])C([H])([H])c3sc(C([H])([H])[H])nc3[H])C2([H])[H])[C@]([H])(c2sc([H])c([H])c2[H])C1([H])[H]

>  <error>  (675) 


>  <∆∆G>  (675) 
-294.546772

>  <∆G_bound>  (675) 
118.020372

>  <∆G_unbound>  (675) 
412.567144

>  <comRMSD>  (675) 
1.672956

>  <N_constrained_atoms>  (675) 
33.0

>  <N_unconstrained_atoms>  (675) 
0.0

>  <runtime>  (675) 
5.18277

>  <regarded>  (675) 
['5hmx-b', 'd0615b']

>  <disregarded>  (675) 
[]

>  <LE>  (675) 
8.92566

>  <outcome>  (675) 
too moved

>  <percent_hybrid>  (675) 
43.0

$$$$
LIG
     RDKit          3D

 66 68  0  0  0  0  0  0  0  0999 V2000
  -13.2196  -41.9884  -20.9207 C   0  0  0  0  0  0  0  0  0  0  0  0
  -12.3829  -40.1583  -19.6155 O   0  0  0  0  0  0  0  0  0  0  0  0
  -16.1755  -42.1300  -14.9558 O   0  0  0  0  0  0  0  0  0  0  0  0
  -17.4863  -42.9042  -16.5875 O   0  0  0  0  0  0  0  0  0  0  0  0
  -13.2941  -40.5286  -20.5273 C   0  0  0  0  0  0  0  0  0  0  0  0
  -14.0901  -39.6039  -20.9305 N   0  0  0  0  0  0  0  0  0  0  0  0
  -15.1836  -43.5867  -16.6137 C   0  0  0  0  0  0  0  0  0  0  0  0
  -16.2894  -42.7824  -15.9834 C   0  0  0  0  0  0  0  0  0  0  0  0
  -14.2136  -42.8702  -20.2049 C   0  0  0  0  0  0  0  0  0  0  0  0
  -14.2622  -42.8662  -18.8125 C   0  0  0  0  0  0  0  0  0  0  0  0
  -15.1850  -43.6538  -18.1215 C   0  0  0  0  0  0  0  0  0  0  0  0
  -16.0782  -44.4597  -18.8514 C   0  0  0  0  0  0  0  0  0  0  0  0
  -16.0447  -44.4944  -20.2533 C   0  0  0  0  0  0  0  0  0  0  0  0
  -15.0789  -43.7182  -20.9117 C   0  0  0  0  0  0  0  0  0  0  0  0
  -18.2982  -47.1028  -21.7871 C   0  0  0  0  0  0  0  0  0  0  0  0
  -18.5163  -46.1652  -22.7676 C   0  0  0  0  0  0  0  0  0  0  0  0
  -17.7701  -44.6813  -22.4054 S   0  0  0  0  0  0  0  0  0  0  0  0
  -16.9938  -45.3233  -21.0131 C   0  0  0  0  0  0  0  0  0  0  0  0
  -17.4206  -46.6174  -20.7741 C   0  0  0  0  0  0  0  0  0  0  0  0
  -19.6772  -40.8552  -24.5056 O   0  0  0  0  0  0  0  0  0  0  0  0
  -19.1840  -39.9501  -25.5191 S   0  0  0  0  0  0  0  0  0  0  0  0
  -19.3178  -38.5143  -25.3632 O   0  0  0  0  0  0  0  0  0  0  0  0
  -19.9521  -40.3697  -27.0677 C   0  0  0  0  0  0  0  0  0  0  0  0
  -16.1781  -41.2411  -27.5302 C   0  0  0  0  0  0  0  0  0  0  0  0
  -16.0910  -38.2719  -25.6477 C   0  0  0  0  0  0  0  0  0  0  0  0
  -17.0935  -37.6325  -26.4366 O   0  0  0  0  0  0  0  0  0  0  0  0
  -17.5530  -40.2677  -25.7694 N   0  0  0  0  0  0  0  0  0  0  0  0
  -17.1072  -41.5380  -26.3533 C   0  0  2  0  0  0  0  0  0  0  0  0
  -16.5190  -42.5005  -25.3366 C   0  0  0  0  0  0  0  0  0  0  0  0
  -15.8570  -41.8319  -24.1458 C   0  0  0  0  0  0  0  0  0  0  0  0
  -15.3882  -40.4126  -24.4560 C   0  0  1  0  0  0  0  0  0  0  0  0
  -16.5821  -39.5301  -24.8947 C   0  0  1  0  0  0  0  0  0  0  0  0
  -15.1293  -39.9317  -21.9046 C   0  0  0  0  0  0  0  0  0  0  0  0
  -14.5492  -39.8094  -23.3126 C   0  0  0  0  0  0  0  0  0  0  0  0
  -13.3561  -42.0714  -21.9998 H   0  0  0  0  0  0  0  0  0  0  0  0
  -12.2092  -42.3586  -20.7106 H   0  0  0  0  0  0  0  0  0  0  0  0
  -12.5300  -39.2137  -19.4394 H   0  0  0  0  0  0  0  0  0  0  0  0
  -18.1153  -42.5547  -15.9154 H   0  0  0  0  0  0  0  0  0  0  0  0
  -14.2379  -43.1441  -16.2741 H   0  0  0  0  0  0  0  0  0  0  0  0
  -15.1889  -44.6005  -16.2084 H   0  0  0  0  0  0  0  0  0  0  0  0
  -13.5694  -42.2306  -18.2600 H   0  0  0  0  0  0  0  0  0  0  0  0
  -16.8335  -45.0348  -18.3267 H   0  0  0  0  0  0  0  0  0  0  0  0
  -14.9947  -43.7707  -21.9943 H   0  0  0  0  0  0  0  0  0  0  0  0
  -18.7117  -48.1021  -21.8279 H   0  0  0  0  0  0  0  0  0  0  0  0
  -19.0864  -46.2816  -23.6774 H   0  0  0  0  0  0  0  0  0  0  0  0
  -17.0823  -47.2091  -19.9349 H   0  0  0  0  0  0  0  0  0  0  0  0
  -20.0337  -41.4514  -27.1580 H   0  0  0  0  0  0  0  0  0  0  0  0
  -20.9541  -39.9341  -27.0716 H   0  0  0  0  0  0  0  0  0  0  0  0
  -19.3622  -39.9351  -27.8738 H   0  0  0  0  0  0  0  0  0  0  0  0
  -15.2207  -40.8154  -27.2302 H   0  0  0  0  0  0  0  0  0  0  0  0
  -15.9672  -42.1583  -28.0848 H   0  0  0  0  0  0  0  0  0  0  0  0
  -16.6327  -40.5172  -28.2155 H   0  0  0  0  0  0  0  0  0  0  0  0
  -15.2814  -38.5274  -26.3360 H   0  0  0  0  0  0  0  0  0  0  0  0
  -15.7332  -37.5364  -24.9237 H   0  0  0  0  0  0  0  0  0  0  0  0
  -17.9055  -37.6114  -25.8874 H   0  0  0  0  0  0  0  0  0  0  0  0
  -17.9740  -42.0530  -26.7608 H   0  0  0  0  0  0  0  0  0  0  0  0
  -17.3208  -43.1471  -24.9619 H   0  0  0  0  0  0  0  0  0  0  0  0
  -15.8131  -43.1799  -25.8246 H   0  0  0  0  0  0  0  0  0  0  0  0
  -16.5857  -41.8097  -23.3279 H   0  0  0  0  0  0  0  0  0  0  0  0
  -15.0139  -42.4473  -23.8170 H   0  0  0  0  0  0  0  0  0  0  0  0
  -14.6850  -40.4852  -25.2932 H   0  0  0  0  0  0  0  0  0  0  0  0
  -17.1222  -39.2094  -23.9944 H   0  0  0  0  0  0  0  0  0  0  0  0
  -15.5560  -40.9137  -21.6986 H   0  0  0  0  0  0  0  0  0  0  0  0
  -15.9519  -39.2177  -21.7857 H   0  0  0  0  0  0  0  0  0  0  0  0
  -14.3278  -38.7561  -23.5165 H   0  0  0  0  0  0  0  0  0  0  0  0
  -13.5728  -40.3055  -23.3342 H   0  0  0  0  0  0  0  0  0  0  0  0
  7  8  1  0
  8  3  2  0
  8  4  1  0
  1  5  1  0
  6  5  2  0
  5  2  1  0
  9 14  1  0
  9 10  2  0
  9  1  1  0
 10 11  1  0
 11 12  2  0
 11  7  1  0
 12 13  1  0
 13 18  1  0
 13 14  2  0
 15 16  2  0
 15 19  1  0
 16 17  1  0
 17 18  1  0
 18 19  2  0
 26 25  1  0
 23 21  1  0
 22 21  2  0
 21 20  2  0
 27 32  1  0
 27 21  1  0
 27 28  1  0
 28 24  1  0
 28 29  1  0
 29 30  1  0
 30 31  1  0
 31 32  1  0
 32 25  1  0
 33  6  1  0
 34 33  1  0
 34 31  1  0
  1 35  1  0
  1 36  1  0
  2 37  1  0
  4 38  1  0
  7 39  1  0
  7 40  1  0
 10 41  1  0
 12 42  1  0
 14 43  1  0
 15 44  1  0
 16 45  1  0
 19 46  1  0
 23 47  1  0
 23 48  1  0
 23 49  1  0
 24 50  1  0
 24 51  1  0
 24 52  1  0
 25 53  1  0
 25 54  1  0
 26 55  1  0
 28 56  1  6
 29 57  1  0
 29 58  1  0
 30 59  1  0
 30 60  1  0
 31 61  1  6
 32 62  1  1
 33 63  1  0
 33 64  1  0
 34 65  1  0
 34 66  1  0
M  END
>  <smiles>  (676) 
[H]OC(=O)C([H])([H])c1c([H])c(-c2sc([H])c([H])c2[H])c([H])c(C([H])([H])/C(=N\C([H])([H])C([H])([H])[C@@]2([H])C([H])([H])C([H])([H])[C@]([H])(C([H])([H])[H])N(S(=O)(=O)C([H])([H])[H])[C@]2([H])C([H])([H])O[H])O[H])c1[H]

>  <error>  (676) 


>  <∆∆G>  (676) 
-118.566702

>  <∆G_bound>  (676) 
122.29757

>  <∆G_unbound>  (676) 
240.864272

>  <comRMSD>  (676) 
0.729937

>  <N_constrained_atoms>  (676) 
32.0

>  <N_unconstrained_atoms>  (676) 
2.0

>  <runtime>  (676) 
4.285191

>  <regarded>  (676) 
['5hmx-b', 'd0851a']

>  <disregarded>  (676) 
[]

>  <LE>  (676) 
3.487256

>  <outcome>  (676) 
acceptable

>  <percent_hybrid>  (676) 
41.0

$$$$
LIG
     RDKit          3D

  0  0  0  0  0  0  0  0  0  0999 V3000
M  V30 BEGIN CTAB
M  V30 COUNTS 74 77 0 0 0
M  V30 BEGIN ATOM
M  V30 1 C -13.722000 -42.228001 -21.142000 0
M  V30 2 O -12.997000 -40.158001 -20.322001 0
M  V30 3 O -16.903999 -43.681999 -15.132000 0
M  V30 4 O -16.912001 -42.365002 -16.922001 0
M  V30 5 C -14.011000 -40.783001 -20.846001 0
M  V30 6 N -15.075000 -40.254002 -21.090000 0
M  V30 7 C -15.465000 -44.282001 -16.898001 0
M  V30 8 C -16.490999 -43.341000 -16.322001 0
M  V30 9 C -14.649000 -43.195000 -20.447001 0
M  V30 10 C -14.590000 -43.360001 -19.069000 0
M  V30 11 C -15.458000 -44.219002 -18.408001 0
M  V30 12 C -16.391001 -44.943001 -19.150999 0
M  V30 13 C -16.458000 -44.799999 -20.537001 0
M  V30 14 C -15.580000 -43.930000 -21.177000 0
M  V30 15 C -18.871000 -47.212002 -22.100000 0
M  V30 16 C -19.099001 -46.270000 -23.020000 0
M  V30 17 S -18.201000 -44.870998 -22.716999 0
M  V30 18 C -17.466000 -45.544998 -21.313999 0
M  V30 19 C -17.933001 -46.814999 -21.103001 0
M  V30 20 O -19.218000 -37.455002 -26.510000 0
M  V30 21 C -18.440001 -37.272999 -25.589001 0
M  V30 22 C -18.801001 -40.066002 -25.077000 0
M  V30 23 S -16.291000 -41.674000 -23.726000 0 CFG=2
M  V30 24 N -16.832001 -41.215000 -22.487000 0
M  V30 25 O -16.914000 -42.779999 -24.382999 0
M  V30 26 C -14.601000 -42.066002 -23.476999 0
M  V30 27 C -18.129000 -36.304001 -23.285000 0
M  V30 28 C -19.089001 -35.396999 -22.541000 0
M  V30 29 C -19.528999 -34.411999 -23.573999 0
M  V30 30 C -19.582001 -35.196999 -24.878000 0
M  V30 31 N -18.677000 -36.332001 -24.648001 0
M  V30 32 C -17.472000 -39.426998 -24.688999 0 CFG=2
M  V30 33 C -17.184000 -38.118999 -25.462000 0 CFG=1
M  V30 34 C -16.631001 -38.435001 -26.855000 0
M  V30 35 C -15.402000 -39.325001 -26.764999 0
M  V30 36 C -15.742000 -40.634998 -26.099001 0
M  V30 37 N -16.350000 -40.417999 -24.764000 0
M  V30 38 C -15.953501 -40.734501 -21.788500 0
M  V30 39 H -13.811043 -42.383121 -22.227362 0
M  V30 40 H -12.708751 -42.433037 -20.766121 0
M  V30 41 H -13.074407 -39.199669 -20.085970 0
M  V30 42 H -17.586927 -41.777065 -16.499029 0
M  V30 43 H -14.469747 -44.002682 -16.521902 0
M  V30 44 H -15.719528 -45.307369 -16.591677 0
M  V30 45 H -13.841208 -42.799358 -18.490217 0
M  V30 46 H -17.079281 -45.632111 -18.639727 0
M  V30 47 H -15.621852 -43.821796 -22.270864 0
M  V30 48 H -19.359509 -48.197517 -22.111071 0
M  V30 49 H -19.786695 -46.390476 -23.870037 0
M  V30 50 H -17.621021 -47.453316 -20.263227 0
M  V30 51 H -19.358402 -40.334011 -24.167343 0
M  V30 52 H -19.390856 -39.353043 -25.671778 0
M  V30 53 H -18.612473 -40.971924 -25.671778 0
M  V30 54 H -14.390973 -42.114719 -22.398336 0
M  V30 55 H -14.378613 -43.039574 -23.938192 0
M  V30 56 H -13.972732 -41.289742 -23.938192 0
M  V30 57 H -17.236740 -36.817654 -22.897661 0
M  V30 58 H -18.745884 -37.175060 -23.019085 0
M  V30 59 H -19.391558 -35.451595 -21.484838 0
M  V30 60 H -18.252964 -34.736572 -22.267363 0
M  V30 61 H -19.764292 -33.347851 -23.424904 0
M  V30 62 H -18.478930 -34.151901 -23.773256 0
M  V30 63 H -20.163443 -34.967476 -25.783123 0
M  V30 64 H -18.740808 -34.605370 -25.268347 0
M  V30 65 H -17.554789 -39.120125 -23.635920 0
M  V30 66 H -16.433901 -37.548752 -24.894400 0
M  V30 67 H -17.065676 -38.066658 -27.795946 0
M  V30 68 H -15.989086 -37.543270 -26.802460 0
M  V30 69 H -14.402679 -39.051491 -27.134527 0
M  V30 70 H -15.158585 -38.889721 -25.784552 0
M  V30 71 H -15.562118 -41.623852 -26.546005 0
M  V30 72 H -14.742798 -40.660843 -25.639732 0
M  V30 73 H -14.733500 -39.514500 -20.568501 0
M  V30 74 H -14.723500 -39.504501 -20.558500 0
M  V30 END ATOM
M  V30 BEGIN BOND
M  V30 1 1 7 8
M  V30 2 2 8 3
M  V30 3 1 8 4
M  V30 4 1 1 5
M  V30 5 2 6 5
M  V30 6 1 5 2
M  V30 7 1 9 14
M  V30 8 2 9 10
M  V30 9 1 9 1
M  V30 10 1 10 11
M  V30 11 2 11 12
M  V30 12 1 11 7
M  V30 13 1 12 13
M  V30 14 1 13 18
M  V30 15 2 13 14
M  V30 16 2 15 16
M  V30 17 1 15 19
M  V30 18 1 16 17
M  V30 19 1 17 18
M  V30 20 2 18 19
M  V30 21 2 24 23
M  V30 22 1 23 26 CFG=1
M  V30 23 2 25 23
M  V30 24 2 21 20
M  V30 25 1 27 28
M  V30 26 1 27 31
M  V30 27 1 28 29
M  V30 28 1 29 30
M  V30 29 1 30 31
M  V30 30 1 31 21
M  V30 31 1 32 22
M  V30 32 1 32 37
M  V30 33 1 32 33
M  V30 34 1 33 34
M  V30 35 1 33 21
M  V30 36 1 34 35
M  V30 37 1 35 36
M  V30 38 1 36 37
M  V30 39 1 37 23
M  V30 40 1 38 6
M  V30 41 1 38 24
M  V30 42 1 1 39
M  V30 43 1 1 40
M  V30 44 1 2 41
M  V30 45 1 4 42
M  V30 46 1 7 43
M  V30 47 1 7 44
M  V30 48 1 10 45
M  V30 49 1 12 46
M  V30 50 1 14 47
M  V30 51 1 15 48
M  V30 52 1 16 49
M  V30 53 1 19 50
M  V30 54 1 22 51
M  V30 55 1 22 52
M  V30 56 1 22 53
M  V30 57 1 26 54
M  V30 58 1 26 55
M  V30 59 1 26 56
M  V30 60 1 27 57
M  V30 61 1 27 58
M  V30 62 1 28 59
M  V30 63 1 28 60
M  V30 64 1 29 61
M  V30 65 1 29 62
M  V30 66 1 30 63
M  V30 67 1 30 64
M  V30 68 1 32 65 CFG=1
M  V30 69 1 33 66 CFG=1
M  V30 70 1 34 67
M  V30 71 1 34 68
M  V30 72 1 35 69
M  V30 73 1 35 70
M  V30 74 1 36 71
M  V30 75 1 36 72
M  V30 76 1 38 73
M  V30 77 1 38 74
M  V30 END BOND
M  V30 BEGIN COLLECTION
M  V30 MDLV30/STEABS ATOMS=(0)
M  V30 END COLLECTION
M  V30 END CTAB
M  END
>  <smiles>  (677) 
[H]OC(=O)C([H])([H])c1c([H])c(-c2sc([H])c([H])c2[H])c([H])c(C([H])([H])/C(=N\C([H])([H])N=[S@@](=O)(N2C([H])([H])C([H])([H])C([H])([H])[C@@]([H])(C(=O)N3C([H])([H])C([H])([H])C([H])([H])C3([H])[H])[C@@]2([H])C([H])([H])[H])C([H])([H])[H])O[H])c1[H]

>  <error>  (677) 


>  <∆∆G>  (677) 
nan

>  <∆G_bound>  (677) 
nan

>  <∆G_unbound>  (677) 
nan

>  <comRMSD>  (677) 
0.0

>  <N_constrained_atoms>  (677) 
37.0

>  <N_unconstrained_atoms>  (677) 
1.0

>  <runtime>  (677) 
2.283659

>  <regarded>  (677) 
['5hmx-b', 'd0866a']

>  <disregarded>  (677) 
[]

>  <LE>  (677) 
nan

>  <outcome>  (677) 
crashed

>  <percent_hybrid>  (677) 
49.0

$$$$
LIG
     RDKit          3D

 64 68  0  0  0  0  0  0  0  0999 V2000
  -13.0492  -42.9669  -20.4587 C   0  0  0  0  0  0  0  0  0  0  0  0
  -13.8543  -40.8620  -21.2016 O   0  0  0  0  0  0  0  0  0  0  0  0
  -16.2614  -40.3469  -17.0989 O   0  0  0  0  0  0  0  0  0  0  0  0
  -18.3486  -41.0962  -17.3510 O   0  0  0  0  0  0  0  0  0  0  0  0
  -12.8647  -41.4734  -20.4860 C   0  0  0  0  0  0  0  0  0  0  0  0
  -11.9357  -40.8858  -19.9452 O   0  0  0  0  0  0  0  0  0  0  0  0
  -16.6724  -42.7504  -16.9887 C   0  0  0  0  0  0  0  0  0  0  0  0
  -17.0326  -41.2935  -17.1321 C   0  0  0  0  0  0  0  0  0  0  0  0
  -14.4029  -43.4004  -19.9670 C   0  0  0  0  0  0  0  0  0  0  0  0
  -14.8568  -42.9986  -18.7066 C   0  0  0  0  0  0  0  0  0  0  0  0
  -16.1392  -43.3414  -18.2687 C   0  0  0  0  0  0  0  0  0  0  0  0
  -16.9490  -44.1443  -19.0849 C   0  0  0  0  0  0  0  0  0  0  0  0
  -16.4981  -44.5646  -20.3412 C   0  0  0  0  0  0  0  0  0  0  0  0
  -15.2233  -44.1915  -20.7751 C   0  0  0  0  0  0  0  0  0  0  0  0
  -18.5408  -47.1277  -22.1391 C   0  0  0  0  0  0  0  0  0  0  0  0
  -18.6442  -46.1749  -23.1280 C   0  0  0  0  0  0  0  0  0  0  0  0
  -17.9215  -44.6977  -22.6770 S   0  0  0  0  0  0  0  0  0  0  0  0
  -17.3503  -45.3662  -21.2071 C   0  0  0  0  0  0  0  0  0  0  0  0
  -17.7929  -46.6589  -21.0259 C   0  0  0  0  0  0  0  0  0  0  0  0
  -11.6932  -32.6333  -20.6622 O   0  0  0  0  0  0  0  0  0  0  0  0
  -12.1996  -33.6492  -20.1930 C   0  0  0  0  0  0  0  0  0  0  0  0
  -13.5020  -33.6212  -19.4900 C   0  0  0  0  0  0  0  0  0  0  0  0
  -14.0241  -34.8313  -19.0254 C   0  0  0  0  0  0  0  0  0  0  0  0
  -13.3273  -36.0233  -19.1652 N   0  0  0  0  0  0  0  0  0  0  0  0
  -12.2986  -36.1165  -20.1744 C   0  0  1  0  0  0  0  0  0  0  0  0
  -11.5795  -34.8699  -20.2472 N   0  0  0  0  0  0  0  0  0  0  0  0
  -14.1368  -32.4132  -19.1945 C   0  0  0  0  0  0  0  0  0  0  0  0
  -15.1830  -34.8084  -18.2423 C   0  0  0  0  0  0  0  0  0  0  0  0
  -15.8041  -33.6037  -17.9238 C   0  0  0  0  0  0  0  0  0  0  0  0
  -15.2722  -32.4066  -18.3884 C   0  0  0  0  0  0  0  0  0  0  0  0
  -11.3684  -37.2662  -19.7786 C   0  0  0  0  0  0  0  0  0  0  0  0
  -10.8812  -37.8197  -21.0957 C   0  0  0  0  0  0  0  0  0  0  0  0
  -12.0469  -37.6699  -22.0761 C   0  0  2  0  0  0  0  0  0  0  0  0
  -12.8969  -36.5088  -21.5432 C   0  0  0  0  0  0  0  0  0  0  0  0
  -13.7724  -39.4317  -21.2175 C   0  0  0  0  0  0  0  0  0  0  0  0
  -12.8089  -38.9818  -22.3127 C   0  0  0  0  0  0  0  0  0  0  0  0
  -12.8629  -43.3446  -21.4664 H   0  0  0  0  0  0  0  0  0  0  0  0
  -12.3013  -43.3936  -19.7871 H   0  0  0  0  0  0  0  0  0  0  0  0
  -18.4368  -40.1246  -17.4357 H   0  0  0  0  0  0  0  0  0  0  0  0
  -15.9401  -42.8535  -16.1796 H   0  0  0  0  0  0  0  0  0  0  0  0
  -17.5603  -43.2927  -16.6611 H   0  0  0  0  0  0  0  0  0  0  0  0
  -14.2273  -42.3620  -18.0833 H   0  0  0  0  0  0  0  0  0  0  0  0
  -17.9617  -44.3916  -18.7716 H   0  0  0  0  0  0  0  0  0  0  0  0
  -14.8713  -44.5058  -21.7580 H   0  0  0  0  0  0  0  0  0  0  0  0
  -18.9528  -48.1247  -22.2346 H   0  0  0  0  0  0  0  0  0  0  0  0
  -19.1148  -46.2773  -24.0975 H   0  0  0  0  0  0  0  0  0  0  0  0
  -17.5528  -47.2559  -20.1583 H   0  0  0  0  0  0  0  0  0  0  0  0
  -13.8905  -36.8596  -19.0496 H   0  0  0  0  0  0  0  0  0  0  0  0
  -10.6598  -34.8988  -20.6794 H   0  0  0  0  0  0  0  0  0  0  0  0
  -13.7216  -31.4721  -19.5198 H   0  0  0  0  0  0  0  0  0  0  0  0
  -15.5785  -35.7304  -17.8222 H   0  0  0  0  0  0  0  0  0  0  0  0
  -16.6696  -33.5948  -17.2651 H   0  0  0  0  0  0  0  0  0  0  0  0
  -15.7256  -31.4694  -18.0756 H   0  0  0  0  0  0  0  0  0  0  0  0
  -10.5339  -36.9397  -19.1469 H   0  0  0  0  0  0  0  0  0  0  0  0
  -11.8937  -38.0486  -19.2200 H   0  0  0  0  0  0  0  0  0  0  0  0
  -10.0434  -37.1969  -21.4158 H   0  0  0  0  0  0  0  0  0  0  0  0
  -10.5113  -38.8440  -21.0046 H   0  0  0  0  0  0  0  0  0  0  0  0
  -11.6256  -37.3889  -23.0475 H   0  0  0  0  0  0  0  0  0  0  0  0
  -13.9550  -36.7833  -21.4727 H   0  0  0  0  0  0  0  0  0  0  0  0
  -12.8518  -35.6704  -22.2502 H   0  0  0  0  0  0  0  0  0  0  0  0
  -14.7794  -39.0571  -21.4323 H   0  0  0  0  0  0  0  0  0  0  0  0
  -13.5152  -39.0623  -20.2225 H   0  0  0  0  0  0  0  0  0  0  0  0
  -12.0793  -39.7730  -22.5169 H   0  0  0  0  0  0  0  0  0  0  0  0
  -13.3905  -38.8844  -23.2388 H   0  0  0  0  0  0  0  0  0  0  0  0
  7  8  1  0
  8  3  2  0
  8  4  1  0
  1  5  1  0
  6  5  2  0
  5  2  1  0
  9 14  1  0
  9 10  2  0
  9  1  1  0
 10 11  1  0
 11 12  2  0
 11  7  1  0
 12 13  1  0
 13 18  1  0
 13 14  2  0
 15 16  2  0
 15 19  1  0
 16 17  1  0
 17 18  1  0
 18 19  2  0
 21 20  2  0
 21 26  1  0
 21 22  1  0
 22 27  2  0
 22 23  1  0
 23 24  1  0
 23 28  2  0
 25 24  1  1
 25 26  1  0
 25 34  1  0
 25 31  1  0
 27 30  1  0
 28 29  1  0
 29 30  2  0
 31 32  1  0
 32 33  1  0
 33 34  1  0
 35  2  1  0
 36 35  1  0
 36 33  1  0
  1 37  1  0
  1 38  1  0
  4 39  1  0
  7 40  1  0
  7 41  1  0
 10 42  1  0
 12 43  1  0
 14 44  1  0
 15 45  1  0
 16 46  1  0
 19 47  1  0
 24 48  1  0
 26 49  1  0
 27 50  1  0
 28 51  1  0
 29 52  1  0
 30 53  1  0
 31 54  1  0
 31 55  1  0
 32 56  1  0
 32 57  1  0
 33 58  1  6
 34 59  1  0
 34 60  1  0
 35 61  1  0
 35 62  1  0
 36 63  1  0
 36 64  1  0
M  END
>  <smiles>  (678) 
[H]OC(=O)C([H])([H])c1c([H])c(-c2sc([H])c([H])c2[H])c([H])c(C([H])([H])C(=O)OC([H])([H])C([H])([H])[C@]2([H])C([H])([H])C([H])([H])[C@@]3(N([H])C(=O)c4c([H])c([H])c([H])c([H])c4N3[H])C2([H])[H])c1[H]

>  <error>  (678) 


>  <∆∆G>  (678) 
-108.115024

>  <∆G_bound>  (678) 
51.396723

>  <∆G_unbound>  (678) 
159.511747

>  <comRMSD>  (678) 
1.275829

>  <N_constrained_atoms>  (678) 
34.0

>  <N_unconstrained_atoms>  (678) 
2.0

>  <runtime>  (678) 
9.765123

>  <regarded>  (678) 
['5hmx-b', 'd1196a']

>  <disregarded>  (678) 
[]

>  <LE>  (678) 
3.003195

>  <outcome>  (678) 
too moved

>  <percent_hybrid>  (678) 
45.0

$$$$
LIG
     RDKit          3D

 52 54  0  0  0  0  0  0  0  0999 V2000
  -14.4380  -41.2937  -21.6224 C   0  0  0  0  0  0  0  0  0  0  0  0
  -14.3206  -39.8735  -23.5094 O   0  0  0  0  0  0  0  0  0  0  0  0
  -15.9697  -40.6300  -16.5883 O   0  0  0  0  0  0  0  0  0  0  0  0
  -17.7154  -42.0059  -16.4324 O   0  0  0  0  0  0  0  0  0  0  0  0
  -15.1220  -40.7454  -22.8514 C   0  0  0  0  0  0  0  0  0  0  0  0
  -16.2369  -40.9900  -23.2800 O   0  0  0  0  0  0  0  0  0  0  0  0
  -15.6489  -43.0399  -17.0634 C   0  0  1  0  0  0  0  0  0  0  0  0
  -16.4072  -41.7676  -16.6586 C   0  0  0  0  0  0  0  0  0  0  0  0
  -15.2129  -42.3048  -20.8070 C   0  0  0  0  0  0  0  0  0  0  0  0
  -15.2826  -42.1736  -19.4194 C   0  0  0  0  0  0  0  0  0  0  0  0
  -15.7734  -43.1909  -18.5859 C   0  0  0  0  0  0  0  0  0  0  0  0
  -16.4123  -44.2804  -19.1968 C   0  0  0  0  0  0  0  0  0  0  0  0
  -16.4849  -44.3694  -20.6002 C   0  0  0  0  0  0  0  0  0  0  0  0
  -15.7922  -43.4287  -21.3812 C   0  0  0  0  0  0  0  0  0  0  0  0
  -18.3160  -47.3893  -21.8969 C   0  0  0  0  0  0  0  0  0  0  0  0
  -18.6347  -46.5842  -22.9630 C   0  0  0  0  0  0  0  0  0  0  0  0
  -18.1613  -44.9766  -22.7013 S   0  0  0  0  0  0  0  0  0  0  0  0
  -17.2938  -45.3959  -21.2676 C   0  0  0  0  0  0  0  0  0  0  0  0
  -17.5391  -46.7087  -20.9177 C   0  0  0  0  0  0  0  0  0  0  0  0
  -12.1897  -42.3794  -19.4904 O   0  0  0  0  0  0  0  0  0  0  0  0
  -12.4775  -42.0852  -18.1323 C   0  0  0  0  0  0  0  0  0  0  0  0
  -13.0522  -43.3364  -17.5130 C   0  0  0  0  0  0  0  0  0  0  0  0
  -14.1676  -43.2379  -16.4226 C   0  0  0  0  0  0  0  0  0  0  0  0
  -14.0946  -44.6084  -15.6472 C   0  0  0  0  0  0  0  0  0  0  0  0
  -13.9042  -44.4905  -14.1516 C   0  0  0  0  0  0  0  0  0  0  0  0
  -14.8610  -43.5886  -13.6534 O   0  0  0  0  0  0  0  0  0  0  0  0
  -14.5902  -42.2535  -14.0697 C   0  0  0  0  0  0  0  0  0  0  0  0
  -13.7878  -42.1577  -15.3788 C   0  0  0  0  0  0  0  0  0  0  0  0
  -13.5024  -41.7688  -21.9372 H   0  0  0  0  0  0  0  0  0  0  0  0
  -14.1853  -40.4314  -20.9933 H   0  0  0  0  0  0  0  0  0  0  0  0
  -14.8115  -39.6522  -24.3304 H   0  0  0  0  0  0  0  0  0  0  0  0
  -18.1027  -41.1467  -16.1701 H   0  0  0  0  0  0  0  0  0  0  0  0
  -16.2620  -43.8358  -16.6324 H   0  0  0  0  0  0  0  0  0  0  0  0
  -14.9054  -41.2541  -18.9807 H   0  0  0  0  0  0  0  0  0  0  0  0
  -16.9049  -45.0286  -18.5848 H   0  0  0  0  0  0  0  0  0  0  0  0
  -15.7403  -43.5478  -22.4625 H   0  0  0  0  0  0  0  0  0  0  0  0
  -18.5715  -48.4375  -21.8733 H   0  0  0  0  0  0  0  0  0  0  0  0
  -19.1403  -46.8678  -23.8766 H   0  0  0  0  0  0  0  0  0  0  0  0
  -17.1337  -47.1777  -20.0327 H   0  0  0  0  0  0  0  0  0  0  0  0
  -11.2321  -42.5644  -19.5499 H   0  0  0  0  0  0  0  0  0  0  0  0
  -13.1344  -41.2186  -18.0795 H   0  0  0  0  0  0  0  0  0  0  0  0
  -11.5492  -41.7874  -17.6302 H   0  0  0  0  0  0  0  0  0  0  0  0
  -13.3620  -44.0264  -18.3033 H   0  0  0  0  0  0  0  0  0  0  0  0
  -12.1708  -43.7809  -17.0649 H   0  0  0  0  0  0  0  0  0  0  0  0
  -14.9339  -45.2428  -15.9080 H   0  0  0  0  0  0  0  0  0  0  0  0
  -13.2273  -45.1872  -15.9051 H   0  0  0  0  0  0  0  0  0  0  0  0
  -13.9889  -45.4703  -13.6786 H   0  0  0  0  0  0  0  0  0  0  0  0
  -12.8933  -44.1486  -13.8921 H   0  0  0  0  0  0  0  0  0  0  0  0
  -15.5507  -41.7380  -14.1483 H   0  0  0  0  0  0  0  0  0  0  0  0
  -14.0358  -41.7529  -13.2676 H   0  0  0  0  0  0  0  0  0  0  0  0
  -12.7255  -42.2861  -15.1227 H   0  0  0  0  0  0  0  0  0  0  0  0
  -13.8347  -41.1419  -15.7806 H   0  0  0  0  0  0  0  0  0  0  0  0
  7  8  1  0
  8  3  2  0
  8  4  1  0
  1  5  1  0
  6  5  2  0
  5  2  1  0
  9 14  2  0
  9 10  1  0
  9  1  1  0
 10 11  2  0
 11 12  1  0
 11  7  1  0
 12 13  2  0
 13 18  1  0
 13 14  1  0
 15 16  2  0
 15 19  1  0
 16 17  1  0
 17 18  1  0
 18 19  2  0
 21 20  1  0
 22 21  1  0
 23 22  1  0
 23 28  1  0
 23 24  1  0
 24 25  1  0
 25 26  1  0
 26 27  1  0
 27 28  1  0
  7 23  1  0
  1 29  1  0
  1 30  1  0
  2 31  1  0
  4 32  1  0
  7 33  1  1
 10 34  1  0
 12 35  1  0
 14 36  1  0
 15 37  1  0
 16 38  1  0
 19 39  1  0
 20 40  1  0
 21 41  1  0
 21 42  1  0
 22 43  1  0
 22 44  1  0
 24 45  1  0
 24 46  1  0
 25 47  1  0
 25 48  1  0
 27 49  1  0
 27 50  1  0
 28 51  1  0
 28 52  1  0
M  END
>  <smiles>  (679) 
[H]OC(=O)C([H])([H])c1c([H])c(-c2sc([H])c([H])c2[H])c([H])c([C@]([H])(C(=O)O[H])C2(C([H])([H])C([H])([H])O[H])C([H])([H])C([H])([H])OC([H])([H])C2([H])[H])c1[H]

>  <error>  (679) 


>  <∆∆G>  (679) 
-74.078253

>  <∆G_bound>  (679) 
69.529381

>  <∆G_unbound>  (679) 
143.607634

>  <comRMSD>  (679) 
1.74926

>  <N_constrained_atoms>  (679) 
28.0

>  <N_unconstrained_atoms>  (679) 
0.0

>  <runtime>  (679) 
3.78038

>  <regarded>  (679) 
['5hmx-b', 'z0052a']

>  <disregarded>  (679) 
[]

>  <LE>  (679) 
2.645652

>  <outcome>  (679) 
too moved

>  <percent_hybrid>  (679) 
33.0

$$$$
LIG
     RDKit          3D

 42 44  0  0  0  0  0  0  0  0999 V2000
  -15.8063  -40.5522  -20.1023 C   0  0  0  0  0  0  0  0  0  0  0  0
  -13.4822  -40.2322  -20.4497 O   0  0  0  0  0  0  0  0  0  0  0  0
  -15.0372  -43.3644  -14.4482 O   0  0  0  0  0  0  0  0  0  0  0  0
  -16.6694  -42.8115  -15.8715 O   0  0  0  0  0  0  0  0  0  0  0  0
  -14.6997  -40.1432  -21.0194 C   0  0  0  0  0  0  0  0  0  0  0  0
  -14.9514  -39.7161  -22.2028 N   0  0  0  0  0  0  0  0  0  0  0  0
  -14.8149  -44.0754  -16.7497 C   0  0  0  0  0  0  0  0  0  0  0  0
  -15.4800  -43.3707  -15.5887 C   0  0  0  0  0  0  0  0  0  0  0  0
  -13.8493  -39.3421  -23.0743 C   0  0  0  0  0  0  0  0  0  0  0  0
  -15.7769  -42.0152  -19.7590 C   0  0  0  0  0  0  0  0  0  0  0  0
  -15.2073  -42.4239  -18.5603 C   0  0  0  0  0  0  0  0  0  0  0  0
  -15.3407  -43.7406  -18.1256 C   0  0  0  0  0  0  0  0  0  0  0  0
  -15.9919  -44.6757  -18.9567 C   0  0  0  0  0  0  0  0  0  0  0  0
  -16.5278  -44.3022  -20.2084 C   0  0  0  0  0  0  0  0  0  0  0  0
  -16.3872  -42.9588  -20.5917 C   0  0  0  0  0  0  0  0  0  0  0  0
  -18.3380  -47.1967  -21.8677 C   0  0  0  0  0  0  0  0  0  0  0  0
  -18.5296  -46.3364  -22.9191 C   0  0  0  0  0  0  0  0  0  0  0  0
  -17.8970  -44.7954  -22.5986 S   0  0  0  0  0  0  0  0  0  0  0  0
  -17.2709  -45.2679  -21.0570 C   0  0  0  0  0  0  0  0  0  0  0  0
  -17.6026  -46.5909  -20.8087 C   0  0  0  0  0  0  0  0  0  0  0  0
  -13.2119  -38.0893  -22.5848 C   0  0  0  0  0  0  0  0  0  0  0  0
  -11.9247  -37.8650  -22.4384 N   0  0  0  0  0  0  0  0  0  0  0  0
  -11.8325  -36.5989  -21.9160 C   0  0  0  0  0  0  0  0  0  0  0  0
  -13.0796  -36.0476  -21.7455 C   0  0  0  0  0  0  0  0  0  0  0  0
  -13.9519  -37.0104  -22.1638 N   0  0  0  0  0  0  0  0  0  0  0  0
  -15.7457  -39.9382  -19.1948 H   0  0  0  0  0  0  0  0  0  0  0  0
  -16.7717  -40.3033  -20.5612 H   0  0  0  0  0  0  0  0  0  0  0  0
  -12.7604  -39.9019  -21.0086 H   0  0  0  0  0  0  0  0  0  0  0  0
  -17.1022  -42.6514  -15.0049 H   0  0  0  0  0  0  0  0  0  0  0  0
  -13.7494  -43.8167  -16.7209 H   0  0  0  0  0  0  0  0  0  0  0  0
  -14.9064  -45.1504  -16.5715 H   0  0  0  0  0  0  0  0  0  0  0  0
  -13.1196  -40.1538  -23.1298 H   0  0  0  0  0  0  0  0  0  0  0  0
  -14.2339  -39.1890  -24.0876 H   0  0  0  0  0  0  0  0  0  0  0  0
  -14.7178  -41.6865  -17.9247 H   0  0  0  0  0  0  0  0  0  0  0  0
  -16.0906  -45.6996  -18.6112 H   0  0  0  0  0  0  0  0  0  0  0  0
  -16.8014  -42.5962  -21.5299 H   0  0  0  0  0  0  0  0  0  0  0  0
  -18.6763  -48.2237  -21.8872 H   0  0  0  0  0  0  0  0  0  0  0  0
  -19.0049  -46.5492  -23.8679 H   0  0  0  0  0  0  0  0  0  0  0  0
  -17.3298  -47.1177  -19.9069 H   0  0  0  0  0  0  0  0  0  0  0  0
  -10.8709  -36.1525  -21.6962 H   0  0  0  0  0  0  0  0  0  0  0  0
  -13.4096  -35.0924  -21.3638 H   0  0  0  0  0  0  0  0  0  0  0  0
  -14.9637  -36.9755  -22.1489 H   0  0  0  0  0  0  0  0  0  0  0  0
  7  8  1  0
  8  3  2  0
  8  4  1  0
  1  5  1  0
  6  5  2  0
  5  2  1  0
  9  6  1  0
 10 15  1  0
 10 11  2  0
 10  1  1  0
 11 12  1  0
 12 13  2  0
 12  7  1  0
 13 14  1  0
 14 19  1  0
 14 15  2  0
 16 17  2  0
 16 20  1  0
 17 18  1  0
 18 19  1  0
 19 20  2  0
 21  9  1  0
 21 22  2  0
 21 25  1  0
 22 23  1  0
 23 24  2  0
 24 25  1  0
  1 26  1  0
  1 27  1  0
  2 28  1  0
  4 29  1  0
  7 30  1  0
  7 31  1  0
  9 32  1  0
  9 33  1  0
 11 34  1  0
 13 35  1  0
 15 36  1  0
 16 37  1  0
 17 38  1  0
 20 39  1  0
 23 40  1  0
 24 41  1  0
 25 42  1  0
M  END
>  <smiles>  (680) 
[H]OC(=O)C([H])([H])c1c([H])c(-c2sc([H])c([H])c2[H])c([H])c(C([H])([H])/C(=N/C([H])([H])c2nc([H])c([H])[nH]2)O[H])c1[H]

>  <error>  (680) 


>  <∆∆G>  (680) 
-91.156642

>  <∆G_bound>  (680) 
-37.34598

>  <∆G_unbound>  (680) 
53.810662

>  <comRMSD>  (680) 
1.069588

>  <N_constrained_atoms>  (680) 
25.0

>  <N_unconstrained_atoms>  (680) 
0.0

>  <runtime>  (680) 
2.871694

>  <regarded>  (680) 
['5hmx-b', 'z0103a']

>  <disregarded>  (680) 
[]

>  <LE>  (680) 
3.646266

>  <outcome>  (680) 
too moved

>  <percent_hybrid>  (680) 
24.0

$$$$

     RDKit          2D

  0  0  0  0  0  0  0  0  0  0999 V2000
M  END
>  <smiles>  (681) 
nan

>  <error>  (681) 
DistanceError 5.86 Å

>  <∆∆G>  (681) 
nan

>  <∆G_bound>  (681) 
nan

>  <∆G_unbound>  (681) 
nan

>  <comRMSD>  (681) 
nan

>  <N_constrained_atoms>  (681) 
nan

>  <N_unconstrained_atoms>  (681) 
nan

>  <runtime>  (681) 
nan

>  <regarded>  (681) 
[]

>  <disregarded>  (681) 
[]

>  <LE>  (681) 
nan

>  <outcome>  (681) 
too distant

>  <percent_hybrid>  (681) 
nan

$$$$

     RDKit          2D

  0  0  0  0  0  0  0  0  0  0999 V2000
M  END
>  <smiles>  (682) 
nan

>  <error>  (682) 
RecursionError maximum recursion depth exceeded while calling a Python object

>  <∆∆G>  (682) 
nan

>  <∆G_bound>  (682) 
nan

>  <∆G_unbound>  (682) 
nan

>  <comRMSD>  (682) 
nan

>  <N_constrained_atoms>  (682) 
nan

>  <N_unconstrained_atoms>  (682) 
nan

>  <runtime>  (682) 
nan

>  <regarded>  (682) 
[]

>  <disregarded>  (682) 
[]

>  <LE>  (682) 
nan

>  <outcome>  (682) 
crashed

>  <percent_hybrid>  (682) 
nan

$$$$
LIG
     RDKit          3D

 40 42  0  0  0  0  0  0  0  0999 V2000
  -13.1341  -41.6094  -20.2345 C   0  0  1  0  0  0  0  0  0  0  0  0
  -11.5799  -40.3578  -18.7260 O   0  0  0  0  0  0  0  0  0  0  0  0
  -15.6196  -42.8584  -14.5225 O   0  0  0  0  0  0  0  0  0  0  0  0
  -17.0578  -42.8942  -16.2383 O   0  0  0  0  0  0  0  0  0  0  0  0
  -12.8882  -40.5598  -19.0331 C   0  0  0  0  0  0  0  0  0  0  0  0
  -13.7325  -39.9276  -18.4122 O   0  0  0  0  0  0  0  0  0  0  0  0
  -15.0092  -44.1147  -16.4981 C   0  0  0  0  0  0  0  0  0  0  0  0
  -15.8839  -43.2134  -15.6623 C   0  0  0  0  0  0  0  0  0  0  0  0
  -11.9273  -42.3955  -20.4696 N   0  0  0  0  0  0  0  0  0  0  0  0
  -14.2374  -42.5926  -19.8593 C   0  0  0  0  0  0  0  0  0  0  0  0
  -14.2506  -42.9578  -18.5071 C   0  0  0  0  0  0  0  0  0  0  0  0
  -15.1112  -43.9023  -17.9829 C   0  0  0  0  0  0  0  0  0  0  0  0
  -15.9979  -44.5480  -18.8459 C   0  0  0  0  0  0  0  0  0  0  0  0
  -16.0027  -44.2679  -20.2303 C   0  0  0  0  0  0  0  0  0  0  0  0
  -15.1000  -43.2905  -20.7251 C   0  0  0  0  0  0  0  0  0  0  0  0
  -18.3050  -46.7160  -21.9860 C   0  0  0  0  0  0  0  0  0  0  0  0
  -18.4782  -45.7185  -22.9155 C   0  0  0  0  0  0  0  0  0  0  0  0
  -17.6106  -44.3053  -22.5121 S   0  0  0  0  0  0  0  0  0  0  0  0
  -16.9302  -45.0244  -21.1058 C   0  0  0  0  0  0  0  0  0  0  0  0
  -17.4111  -46.3180  -20.9502 C   0  0  0  0  0  0  0  0  0  0  0  0
  -13.2332  -40.7037  -21.4007 C   0  0  0  0  0  0  0  0  0  0  0  0
  -14.1966  -40.2839  -22.2816 C   0  0  0  0  0  0  0  0  0  0  0  0
  -13.7409  -39.2053  -23.0068 N   0  0  0  0  0  0  0  0  0  0  0  0
  -12.5215  -38.9741  -22.5843 C   0  0  0  0  0  0  0  0  0  0  0  0
  -12.1343  -39.9153  -21.6940 N   0  0  0  0  0  0  0  0  0  0  0  0
  -11.6187  -39.6992  -18.0016 H   0  0  0  0  0  0  0  0  0  0  0  0
  -17.6125  -42.5530  -15.5019 H   0  0  0  0  0  0  0  0  0  0  0  0
  -13.9750  -43.9229  -16.1786 H   0  0  0  0  0  0  0  0  0  0  0  0
  -15.1643  -45.1664  -16.2742 H   0  0  0  0  0  0  0  0  0  0  0  0
  -13.5495  -42.4962  -17.8111 H   0  0  0  0  0  0  0  0  0  0  0  0
  -16.7030  -45.2671  -18.4428 H   0  0  0  0  0  0  0  0  0  0  0  0
  -15.0433  -43.0985  -21.7947 H   0  0  0  0  0  0  0  0  0  0  0  0
  -18.7702  -47.6919  -22.0642 H   0  0  0  0  0  0  0  0  0  0  0  0
  -19.0640  -45.7528  -23.8242 H   0  0  0  0  0  0  0  0  0  0  0  0
  -17.1232  -46.9687  -20.1359 H   0  0  0  0  0  0  0  0  0  0  0  0
  -15.2132  -40.6381  -22.3957 H   0  0  0  0  0  0  0  0  0  0  0  0
  -11.8772  -38.1667  -22.9061 H   0  0  0  0  0  0  0  0  0  0  0  0
  -11.5831  -42.7750  -19.5907 H   0  0  0  0  0  0  0  0  0  0  0  0
  -12.1194  -43.1944  -21.0841 H   0  0  0  0  0  0  0  0  0  0  0  0
  -11.2443  -39.9725  -21.2130 H   0  0  0  0  0  0  0  0  0  0  0  0
  7  8  1  0
  8  3  2  0
  8  4  1  0
  1  5  1  0
  6  5  2  0
  5  2  1  0
  1  9  1  6
 10 15  1  0
 10 11  2  0
 10  1  1  0
 11 12  1  0
 12 13  2  0
 12  7  1  0
 13 14  1  0
 14 19  1  0
 14 15  2  0
 16 17  2  0
 16 20  1  0
 17 18  1  0
 18 19  1  0
 19 20  2  0
 21 22  2  0
 21 25  1  0
 22 23  1  0
 23 24  2  0
 24 25  1  0
  1 21  1  0
  2 26  1  0
  4 27  1  0
  7 28  1  0
  7 29  1  0
 11 30  1  0
 13 31  1  0
 15 32  1  0
 16 33  1  0
 17 34  1  0
 20 35  1  0
 22 36  1  0
 24 37  1  0
  9 38  1  0
  9 39  1  0
 25 40  1  0
M  END
>  <smiles>  (683) 
[H]OC(=O)C([H])([H])c1c([H])c(-c2sc([H])c([H])c2[H])c([H])c([C@](N)(C(=O)O[H])c2[nH]c([H])nc2[H])c1[H]

>  <error>  (683) 


>  <∆∆G>  (683) 
-59.949217

>  <∆G_bound>  (683) 
-25.459387

>  <∆G_unbound>  (683) 
34.48983

>  <comRMSD>  (683) 
1.446396

>  <N_constrained_atoms>  (683) 
25.0

>  <N_unconstrained_atoms>  (683) 
0.0

>  <runtime>  (683) 
2.010842

>  <regarded>  (683) 
['5hmx-b', 'z0875c']

>  <disregarded>  (683) 
[]

>  <LE>  (683) 
2.397969

>  <outcome>  (683) 
too moved

>  <percent_hybrid>  (683) 
24.0

$$$$
LIG
     RDKit          3D

 55 58  0  0  0  0  0  0  0  0999 V2000
  -13.9233  -41.6995  -21.3753 C   0  0  0  0  0  0  0  0  0  0  0  0
  -13.0131  -41.1968  -19.3035 O   0  0  0  0  0  0  0  0  0  0  0  0
  -15.3790  -43.9209  -14.8707 O   0  0  0  0  0  0  0  0  0  0  0  0
  -16.6084  -42.2944  -16.0392 C   0  0  0  0  0  0  0  0  0  0  0  0
  -13.5838  -40.6310  -20.3980 C   0  0  0  0  0  0  0  0  0  0  0  0
  -13.7487  -39.4342  -20.5816 O   0  0  0  0  0  0  0  0  0  0  0  0
  -15.1248  -44.1250  -17.1969 C   0  0  0  0  0  0  0  0  0  0  0  0
  -15.7257  -43.5160  -15.9819 C   0  0  0  0  0  0  0  0  0  0  0  0
  -14.0808  -41.8629  -18.5428 O   0  0  0  0  0  0  0  0  0  0  0  0
  -19.4719  -46.3358  -24.5693 C   0  0  0  0  0  0  0  0  0  0  0  0
  -20.1007  -46.4722  -25.5846 C   0  0  0  0  0  0  0  0  0  0  0  0
  -20.8550  -46.6716  -26.8194 C   0  0  0  0  0  0  0  0  0  0  0  0
  -21.9411  -45.7576  -26.8914 O   0  0  0  0  0  0  0  0  0  0  0  0
  -17.6342  -42.2524  -16.6906 O   0  0  0  0  0  0  0  0  0  0  0  0
  -15.2582  -43.9948  -22.7466 O   0  0  0  0  0  0  0  0  0  0  0  0
  -15.3267  -42.9617  -23.7172 C   0  0  0  0  0  0  0  0  0  0  0  0
  -14.1154  -38.1204  -16.0432 O   0  0  0  0  0  0  0  0  0  0  0  0
  -14.3962  -37.9627  -17.4297 C   0  0  0  0  0  0  0  0  0  0  0  0
  -14.7538  -42.7455  -20.7128 C   0  0  0  0  0  0  0  0  0  0  0  0
  -14.7524  -42.7990  -19.3093 C   0  0  0  0  0  0  0  0  0  0  0  0
  -15.4798  -43.7770  -18.6154 C   0  0  0  0  0  0  0  0  0  0  0  0
  -16.3650  -44.5885  -19.3407 C   0  0  0  0  0  0  0  0  0  0  0  0
  -16.3989  -44.5364  -20.7448 C   0  0  0  0  0  0  0  0  0  0  0  0
  -15.4964  -43.6891  -21.4276 C   0  0  0  0  0  0  0  0  0  0  0  0
  -18.5472  -47.1499  -22.3896 C   0  0  0  0  0  0  0  0  0  0  0  0
  -18.7878  -46.1666  -23.3255 C   0  0  0  0  0  0  0  0  0  0  0  0
  -18.2571  -44.6535  -22.7725 S   0  0  0  0  0  0  0  0  0  0  0  0
  -17.3504  -45.3697  -21.4921 C   0  0  0  0  0  0  0  0  0  0  0  0
  -17.7111  -46.6918  -21.3265 C   0  0  0  0  0  0  0  0  0  0  0  0
  -14.4320  -39.2895  -14.0492 C   0  0  0  0  0  0  0  0  0  0  0  0
  -14.9697  -40.3307  -13.2927 C   0  0  0  0  0  0  0  0  0  0  0  0
  -15.7833  -41.2728  -13.9113 C   0  0  0  0  0  0  0  0  0  0  0  0
  -16.0455  -41.1610  -15.2832 C   0  0  0  0  0  0  0  0  0  0  0  0
  -15.5499  -40.0990  -16.0310 C   0  0  0  0  0  0  0  0  0  0  0  0
  -14.7231  -39.1681  -15.4133 C   0  0  0  0  0  0  0  0  0  0  0  0
  -14.4772  -41.1946  -22.1690 H   0  0  0  0  0  0  0  0  0  0  0  0
  -12.9990  -42.1251  -21.7697 H   0  0  0  0  0  0  0  0  0  0  0  0
  -14.0457  -43.9467  -17.0860 H   0  0  0  0  0  0  0  0  0  0  0  0
  -15.2380  -45.2112  -17.0915 H   0  0  0  0  0  0  0  0  0  0  0  0
  -21.2317  -47.6932  -26.9187 H   0  0  0  0  0  0  0  0  0  0  0  0
  -20.2038  -46.4608  -27.6646 H   0  0  0  0  0  0  0  0  0  0  0  0
  -22.7142  -46.2189  -26.4995 H   0  0  0  0  0  0  0  0  0  0  0  0
  -15.6921  -43.4048  -24.6494 H   0  0  0  0  0  0  0  0  0  0  0  0
  -14.3299  -42.5648  -23.9213 H   0  0  0  0  0  0  0  0  0  0  0  0
  -16.0253  -42.1678  -23.4335 H   0  0  0  0  0  0  0  0  0  0  0  0
  -15.4637  -37.7922  -17.6040 H   0  0  0  0  0  0  0  0  0  0  0  0
  -13.8576  -37.0768  -17.7798 H   0  0  0  0  0  0  0  0  0  0  0  0
  -14.0284  -38.8195  -17.9991 H   0  0  0  0  0  0  0  0  0  0  0  0
  -16.9949  -45.3061  -18.8206 H   0  0  0  0  0  0  0  0  0  0  0  0
  -18.8917  -48.1707  -22.4943 H   0  0  0  0  0  0  0  0  0  0  0  0
  -17.3327  -47.3316  -20.5415 H   0  0  0  0  0  0  0  0  0  0  0  0
  -13.7812  -38.5589  -13.5734 H   0  0  0  0  0  0  0  0  0  0  0  0
  -14.7389  -40.4134  -12.2341 H   0  0  0  0  0  0  0  0  0  0  0  0
  -16.1687  -42.1134  -13.3374 H   0  0  0  0  0  0  0  0  0  0  0  0
  -15.7714  -40.0568  -17.0921 H   0  0  0  0  0  0  0  0  0  0  0  0
  7  8  1  0
  8  3  2  0
  8  4  1  0
  1  5  1  0
  6  5  2  0
  5  2  1  0
  9  2  1  0
 12 13  1  0
 12 11  1  0
 11 10  3  0
 14  4  2  0
 15 16  1  0
 18 17  1  0
 19 24  2  0
 19 20  1  0
 19  1  1  0
 20 21  2  0
 21 22  1  0
 21  7  1  0
 22 23  2  0
 23 28  1  0
 23 24  1  0
 25 26  2  0
 25 29  1  0
 26 27  1  0
 27 28  1  0
 28 29  2  0
 30 35  2  0
 30 31  1  0
 31 32  2  0
 32 33  1  0
 33 34  2  0
 34 35  1  0
 35 17  1  0
  9 20  1  0
 15 24  1  0
 10 26  1  0
  4 33  1  0
  1 36  1  0
  1 37  1  0
  7 38  1  0
  7 39  1  0
 12 40  1  0
 12 41  1  0
 13 42  1  0
 16 43  1  0
 16 44  1  0
 16 45  1  0
 18 46  1  0
 18 47  1  0
 18 48  1  0
 22 49  1  0
 25 50  1  0
 29 51  1  0
 30 52  1  0
 31 53  1  0
 32 54  1  0
 34 55  1  0
M  END
>  <smiles>  (684) 
[H]OC([H])([H])C#Cc1sc(-c2c([H])c(C([H])([H])C(=O)C(=O)c3c([H])c([H])c([H])c(OC([H])([H])[H])c3[H])c3c(c2OC([H])([H])[H])C([H])([H])C(=O)OO3)c([H])c1[H]

>  <error>  (684) 


>  <∆∆G>  (684) 
-210.022759

>  <∆G_bound>  (684) 
122.056236

>  <∆G_unbound>  (684) 
332.078995

>  <comRMSD>  (684) 
0.809126

>  <N_constrained_atoms>  (684) 
35.0

>  <N_unconstrained_atoms>  (684) 
0.0

>  <runtime>  (684) 
2.142966

>  <regarded>  (684) 
['5hmx-b', '5i3p-a']

>  <disregarded>  (684) 
[]

>  <LE>  (684) 
6.00065

>  <outcome>  (684) 
acceptable

>  <percent_hybrid>  (684) 
46.0

$$$$
LIG
     RDKit          3D

 32 33  0  0  0  0  0  0  0  0999 V2000
  -13.1020  -42.3838  -21.0066 C   0  0  0  0  0  0  0  0  0  0  0  0
  -12.2921  -40.2767  -21.7415 O   0  0  0  0  0  0  0  0  0  0  0  0
  -16.5034  -41.7621  -15.2914 O   0  0  0  0  0  0  0  0  0  0  0  0
  -17.7647  -42.8656  -16.7638 O   0  0  0  0  0  0  0  0  0  0  0  0
  -13.3110  -40.8928  -21.1045 C   0  0  0  0  0  0  0  0  0  0  0  0
  -14.2441  -40.2291  -20.6828 O   0  0  0  0  0  0  0  0  0  0  0  0
  -15.4191  -43.4049  -16.7056 C   0  0  0  0  0  0  0  0  0  0  0  0
  -16.5708  -42.5773  -16.1990 C   0  0  0  0  0  0  0  0  0  0  0  0
  -17.2950  -45.0172  -18.2466 O   0  0  0  0  0  0  0  0  0  0  0  0
  -14.2032  -43.1095  -20.2789 C   0  0  0  0  0  0  0  0  0  0  0  0
  -14.3306  -42.9713  -18.8979 C   0  0  0  0  0  0  0  0  0  0  0  0
  -15.3566  -43.6162  -18.2001 C   0  0  0  0  0  0  0  0  0  0  0  0
  -16.2607  -44.4188  -18.9233 C   0  0  0  0  0  0  0  0  0  0  0  0
  -16.1658  -44.5663  -20.3179 C   0  0  0  0  0  0  0  0  0  0  0  0
  -15.1127  -43.9129  -20.9762 C   0  0  0  0  0  0  0  0  0  0  0  0
  -18.4354  -47.0953  -21.9430 C   0  0  0  0  0  0  0  0  0  0  0  0
  -18.5757  -46.1529  -22.9347 C   0  0  0  0  0  0  0  0  0  0  0  0
  -17.8072  -44.6863  -22.5380 S   0  0  0  0  0  0  0  0  0  0  0  0
  -17.1220  -45.3564  -21.1072 C   0  0  0  0  0  0  0  0  0  0  0  0
  -17.5988  -46.6345  -20.8877 C   0  0  0  0  0  0  0  0  0  0  0  0
  -13.0370  -42.7865  -22.0179 H   0  0  0  0  0  0  0  0  0  0  0  0
  -12.1526  -42.5701  -20.4936 H   0  0  0  0  0  0  0  0  0  0  0  0
  -12.5577  -39.3343  -21.7379 H   0  0  0  0  0  0  0  0  0  0  0  0
  -18.3914  -42.4188  -16.1445 H   0  0  0  0  0  0  0  0  0  0  0  0
  -14.5048  -42.8956  -16.3728 H   0  0  0  0  0  0  0  0  0  0  0  0
  -15.4043  -44.3709  -16.1997 H   0  0  0  0  0  0  0  0  0  0  0  0
  -17.7696  -44.2519  -17.8473 H   0  0  0  0  0  0  0  0  0  0  0  0
  -13.6223  -42.3351  -18.3669 H   0  0  0  0  0  0  0  0  0  0  0  0
  -14.9930  -44.0269  -22.0537 H   0  0  0  0  0  0  0  0  0  0  0  0
  -18.8756  -48.0824  -22.0015 H   0  0  0  0  0  0  0  0  0  0  0  0
  -19.1001  -46.2538  -23.8755 H   0  0  0  0  0  0  0  0  0  0  0  0
  -17.3195  -47.2271  -20.0280 H   0  0  0  0  0  0  0  0  0  0  0  0
  7  8  1  0
  8  3  2  0
  8  4  1  0
  1  5  1  0
  6  5  2  0
  5  2  1  0
 10 15  2  0
 10 11  1  0
 10  1  1  0
 11 12  2  0
 12 13  1  0
 12  7  1  0
 13 14  2  0
 14 19  1  0
 14 15  1  0
 16 17  2  0
 16 20  1  0
 17 18  1  0
 18 19  1  0
 19 20  2  0
  9 13  1  0
  1 21  1  0
  1 22  1  0
  2 23  1  0
  4 24  1  0
  7 25  1  0
  7 26  1  0
  9 27  1  0
 11 28  1  0
 15 29  1  0
 16 30  1  0
 17 31  1  0
 20 32  1  0
M  END
>  <smiles>  (685) 
[H]OC(=O)C([H])([H])c1c([H])c(-c2sc([H])c([H])c2[H])c(O[H])c(C([H])([H])C(=O)O[H])c1[H]

>  <error>  (685) 


>  <∆∆G>  (685) 
-111.590403

>  <∆G_bound>  (685) 
-53.516632

>  <∆G_unbound>  (685) 
58.073771

>  <comRMSD>  (685) 
0.838813

>  <N_constrained_atoms>  (685) 
20.0

>  <N_unconstrained_atoms>  (685) 
0.0

>  <runtime>  (685) 
1.626215

>  <regarded>  (685) 
['5hmx-b', '5hn0-a']

>  <disregarded>  (685) 
[]

>  <LE>  (685) 
5.57952

>  <outcome>  (685) 
acceptable

>  <percent_hybrid>  (685) 
5.0

$$$$
LIG
     RDKit          3D

 35 36  0  0  0  0  0  0  0  0999 V2000
  -13.7371  -41.3050  -21.0059 C   0  0  0  0  0  0  0  0  0  0  0  0
  -11.8434  -42.1760  -19.7670 O   0  0  0  0  0  0  0  0  0  0  0  0
  -16.0022  -42.3223  -15.0412 O   0  0  0  0  0  0  0  0  0  0  0  0
  -17.4652  -42.9764  -16.6004 O   0  0  0  0  0  0  0  0  0  0  0  0
  -12.2608  -41.2665  -20.6624 C   0  0  0  0  0  0  0  0  0  0  0  0
  -11.4730  -40.4535  -21.1294 O   0  0  0  0  0  0  0  0  0  0  0  0
  -15.1948  -43.6858  -16.8716 C   0  0  0  0  0  0  0  0  0  0  0  0
  -16.2198  -42.9060  -16.0923 C   0  0  0  0  0  0  0  0  0  0  0  0
  -15.4345  -43.0557  -22.5193 O   0  0  0  0  0  0  0  0  0  0  0  0
  -14.4872  -43.8741  -23.2027 C   0  0  0  0  0  0  0  0  0  0  0  0
  -14.5629  -42.4240  -20.3955 C   0  0  0  0  0  0  0  0  0  0  0  0
  -14.5621  -42.5685  -19.0031 C   0  0  0  0  0  0  0  0  0  0  0  0
  -15.2969  -43.5676  -18.3695 C   0  0  0  0  0  0  0  0  0  0  0  0
  -16.1181  -44.3990  -19.1438 C   0  0  0  0  0  0  0  0  0  0  0  0
  -16.1991  -44.2593  -20.5459 C   0  0  0  0  0  0  0  0  0  0  0  0
  -15.3827  -43.2779  -21.1612 C   0  0  0  0  0  0  0  0  0  0  0  0
  -18.3046  -47.0466  -21.9942 C   0  0  0  0  0  0  0  0  0  0  0  0
  -18.6268  -46.1389  -22.9734 C   0  0  0  0  0  0  0  0  0  0  0  0
  -18.0491  -44.5798  -22.6143 S   0  0  0  0  0  0  0  0  0  0  0  0
  -17.1204  -45.1530  -21.2834 C   0  0  0  0  0  0  0  0  0  0  0  0
  -17.4243  -46.4828  -21.0285 C   0  0  0  0  0  0  0  0  0  0  0  0
  -14.1751  -40.3542  -20.6785 H   0  0  0  0  0  0  0  0  0  0  0  0
  -13.7948  -41.3326  -22.0983 H   0  0  0  0  0  0  0  0  0  0  0  0
  -10.8564  -42.1493  -19.7235 H   0  0  0  0  0  0  0  0  0  0  0  0
  -18.0377  -42.6756  -15.8565 H   0  0  0  0  0  0  0  0  0  0  0  0
  -14.2037  -43.3375  -16.5522 H   0  0  0  0  0  0  0  0  0  0  0  0
  -15.2398  -44.7384  -16.5827 H   0  0  0  0  0  0  0  0  0  0  0  0
  -14.8300  -44.9094  -23.1900 H   0  0  0  0  0  0  0  0  0  0  0  0
  -14.4306  -43.5364  -24.2410 H   0  0  0  0  0  0  0  0  0  0  0  0
  -13.4894  -43.8080  -22.7589 H   0  0  0  0  0  0  0  0  0  0  0  0
  -13.9583  -41.8902  -18.3994 H   0  0  0  0  0  0  0  0  0  0  0  0
  -16.7372  -45.1376  -18.6422 H   0  0  0  0  0  0  0  0  0  0  0  0
  -18.6265  -48.0804  -22.0135 H   0  0  0  0  0  0  0  0  0  0  0  0
  -19.2011  -46.3125  -23.8715 H   0  0  0  0  0  0  0  0  0  0  0  0
  -16.9953  -47.0474  -20.2122 H   0  0  0  0  0  0  0  0  0  0  0  0
  7  8  1  0
  8  3  2  0
  8  4  1  0
  1  5  1  0
  6  5  2  0
  5  2  1  0
  9 10  1  0
 11 16  2  0
 11 12  1  0
 11  1  1  0
 12 13  2  0
 13 14  1  0
 13  7  1  0
 14 15  2  0
 15 20  1  0
 15 16  1  0
 17 18  2  0
 17 21  1  0
 18 19  1  0
 19 20  1  0
 20 21  2  0
  9 16  1  0
  1 22  1  0
  1 23  1  0
  2 24  1  0
  4 25  1  0
  7 26  1  0
  7 27  1  0
 10 28  1  0
 10 29  1  0
 10 30  1  0
 12 31  1  0
 14 32  1  0
 17 33  1  0
 18 34  1  0
 21 35  1  0
M  END
>  <smiles>  (686) 
[H]OC(=O)C([H])([H])c1c([H])c(-c2sc([H])c([H])c2[H])c(OC([H])([H])[H])c(C([H])([H])C(=O)O[H])c1[H]

>  <error>  (686) 


>  <∆∆G>  (686) 
-217.524558

>  <∆G_bound>  (686) 
-57.303401

>  <∆G_unbound>  (686) 
160.221157

>  <comRMSD>  (686) 
1.259794

>  <N_constrained_atoms>  (686) 
21.0

>  <N_unconstrained_atoms>  (686) 
0.0

>  <runtime>  (686) 
2.019449

>  <regarded>  (686) 
['5hmx-b', '5f41-a']

>  <disregarded>  (686) 
[]

>  <LE>  (686) 
10.358312

>  <outcome>  (686) 
too moved

>  <percent_hybrid>  (686) 
10.0

$$$$
LIG
     RDKit          3D

 35 36  0  0  0  0  0  0  0  0999 V2000
  -13.1384  -42.4751  -20.8133 C   0  0  0  0  0  0  0  0  0  0  0  0
  -12.0262  -40.4621  -21.4279 O   0  0  0  0  0  0  0  0  0  0  0  0
  -17.8047  -40.8023  -16.7734 O   0  0  0  0  0  0  0  0  0  0  0  0
  -18.8200  -42.7212  -17.2897 O   0  0  0  0  0  0  0  0  0  0  0  0
  -13.2354  -41.0274  -21.2239 C   0  0  0  0  0  0  0  0  0  0  0  0
  -14.2410  -40.3562  -21.3918 O   0  0  0  0  0  0  0  0  0  0  0  0
  -16.4391  -42.7967  -17.0622 C   0  0  0  0  0  0  0  0  0  0  0  0
  -17.7134  -41.9935  -17.0264 C   0  0  0  0  0  0  0  0  0  0  0  0
  -14.9377  -44.1736  -22.3815 O   0  0  0  0  0  0  0  0  0  0  0  0
  -15.1235  -43.1046  -23.3108 C   0  0  0  0  0  0  0  0  0  0  0  0
  -14.4447  -43.0367  -20.3067 C   0  0  0  0  0  0  0  0  0  0  0  0
  -14.8286  -42.7318  -18.9907 C   0  0  0  0  0  0  0  0  0  0  0  0
  -16.0145  -43.2302  -18.4437 C   0  0  0  0  0  0  0  0  0  0  0  0
  -16.7976  -44.0987  -19.2155 C   0  0  0  0  0  0  0  0  0  0  0  0
  -16.4567  -44.3966  -20.5448 C   0  0  0  0  0  0  0  0  0  0  0  0
  -15.2893  -43.8335  -21.0974 C   0  0  0  0  0  0  0  0  0  0  0  0
  -18.4440  -47.1813  -22.0797 C   0  0  0  0  0  0  0  0  0  0  0  0
  -18.6843  -46.2845  -23.0951 C   0  0  0  0  0  0  0  0  0  0  0  0
  -18.1374  -44.7194  -22.7066 S   0  0  0  0  0  0  0  0  0  0  0  0
  -17.3262  -45.2932  -21.3088 C   0  0  0  0  0  0  0  0  0  0  0  0
  -17.6500  -46.6106  -21.0477 C   0  0  0  0  0  0  0  0  0  0  0  0
  -12.7893  -43.0576  -21.6641 H   0  0  0  0  0  0  0  0  0  0  0  0
  -12.3836  -42.5660  -20.0230 H   0  0  0  0  0  0  0  0  0  0  0  0
  -12.2530  -39.5435  -21.6795 H   0  0  0  0  0  0  0  0  0  0  0  0
  -19.5484  -42.0758  -17.1627 H   0  0  0  0  0  0  0  0  0  0  0  0
  -15.6581  -42.1812  -16.5980 H   0  0  0  0  0  0  0  0  0  0  0  0
  -16.5408  -43.6638  -16.4116 H   0  0  0  0  0  0  0  0  0  0  0  0
  -15.8695  -42.3731  -22.9795 H   0  0  0  0  0  0  0  0  0  0  0  0
  -14.1734  -42.6035  -23.5010 H   0  0  0  0  0  0  0  0  0  0  0  0
  -15.4626  -43.5370  -24.2572 H   0  0  0  0  0  0  0  0  0  0  0  0
  -14.1973  -42.0717  -18.3957 H   0  0  0  0  0  0  0  0  0  0  0  0
  -17.7187  -44.5068  -18.8029 H   0  0  0  0  0  0  0  0  0  0  0  0
  -18.7652  -48.2139  -22.1174 H   0  0  0  0  0  0  0  0  0  0  0  0
  -19.1851  -46.4697  -24.0361 H   0  0  0  0  0  0  0  0  0  0  0  0
  -17.2838  -47.1565  -20.1895 H   0  0  0  0  0  0  0  0  0  0  0  0
  7  8  1  0
  8  3  2  0
  8  4  1  0
  1  5  1  0
  6  5  2  0
  5  2  1  0
  9 10  1  0
 11 16  2  0
 11 12  1  0
 11  1  1  0
 12 13  2  0
 13 14  1  0
 13  7  1  0
 14 15  2  0
 15 20  1  0
 15 16  1  0
 17 18  2  0
 17 21  1  0
 18 19  1  0
 19 20  1  0
 20 21  2  0
  9 16  1  0
  1 22  1  0
  1 23  1  0
  2 24  1  0
  4 25  1  0
  7 26  1  0
  7 27  1  0
 10 28  1  0
 10 29  1  0
 10 30  1  0
 12 31  1  0
 14 32  1  0
 17 33  1  0
 18 34  1  0
 21 35  1  0
M  END
>  <smiles>  (687) 
[H]OC(=O)C([H])([H])c1c([H])c(-c2sc([H])c([H])c2[H])c(OC([H])([H])[H])c(C([H])([H])C(=O)O[H])c1[H]

>  <error>  (687) 


>  <∆∆G>  (687) 
-222.978648

>  <∆G_bound>  (687) 
-75.759304

>  <∆G_unbound>  (687) 
147.219344

>  <comRMSD>  (687) 
1.226851

>  <N_constrained_atoms>  (687) 
21.0

>  <N_unconstrained_atoms>  (687) 
0.0

>  <runtime>  (687) 
1.825924

>  <regarded>  (687) 
['5hmx-b', '6h80-a']

>  <disregarded>  (687) 
[]

>  <LE>  (687) 
10.618031

>  <outcome>  (687) 
too moved

>  <percent_hybrid>  (687) 
10.0

$$$$
LIG
     RDKit          3D

 37 38  0  0  0  0  0  0  0  0999 V2000
  -13.3840  -41.9452  -21.2869 C   0  0  0  0  0  0  0  0  0  0  0  0
  -12.4339  -39.7867  -21.5309 O   0  0  0  0  0  0  0  0  0  0  0  0
  -15.9816  -42.2434  -15.2723 O   0  0  0  0  0  0  0  0  0  0  0  0
  -17.4512  -43.0531  -16.7471 O   0  0  0  0  0  0  0  0  0  0  0  0
  -13.3659  -40.4986  -20.8582 C   0  0  0  0  0  0  0  0  0  0  0  0
  -14.0591  -39.9416  -20.0234 O   0  0  0  0  0  0  0  0  0  0  0  0
  -15.1750  -43.7692  -16.9713 C   0  0  0  0  0  0  0  0  0  0  0  0
  -16.2010  -42.9268  -16.2613 C   0  0  0  0  0  0  0  0  0  0  0  0
  -19.3775  -46.2012  -24.4473 C   0  0  0  0  0  0  0  0  0  0  0  0
  -20.0106  -46.3940  -25.4526 C   0  0  0  0  0  0  0  0  0  0  0  0
  -20.7625  -46.6729  -26.6799 C   0  0  0  0  0  0  0  0  0  0  0  0
  -21.9009  -45.8280  -26.7620 O   0  0  0  0  0  0  0  0  0  0  0  0
  -14.3640  -42.8278  -20.5519 C   0  0  0  0  0  0  0  0  0  0  0  0
  -14.3378  -42.9188  -19.1608 C   0  0  0  0  0  0  0  0  0  0  0  0
  -15.2371  -43.7424  -18.4770 C   0  0  0  0  0  0  0  0  0  0  0  0
  -16.1744  -44.4959  -19.2095 C   0  0  0  0  0  0  0  0  0  0  0  0
  -16.2160  -44.4314  -20.6115 C   0  0  0  0  0  0  0  0  0  0  0  0
  -15.2847  -43.6076  -21.2643 C   0  0  0  0  0  0  0  0  0  0  0  0
  -18.5043  -46.9564  -22.2321 C   0  0  0  0  0  0  0  0  0  0  0  0
  -18.6633  -46.0086  -23.2205 C   0  0  0  0  0  0  0  0  0  0  0  0
  -17.9123  -44.5415  -22.8009 S   0  0  0  0  0  0  0  0  0  0  0  0
  -17.1886  -45.2179  -21.3901 C   0  0  0  0  0  0  0  0  0  0  0  0
  -17.6641  -46.4983  -21.1719 C   0  0  0  0  0  0  0  0  0  0  0  0
  -13.6304  -41.9497  -22.3535 H   0  0  0  0  0  0  0  0  0  0  0  0
  -12.3806  -42.3587  -21.1471 H   0  0  0  0  0  0  0  0  0  0  0  0
  -12.5182  -38.8881  -21.1504 H   0  0  0  0  0  0  0  0  0  0  0  0
  -18.0084  -42.6373  -16.0494 H   0  0  0  0  0  0  0  0  0  0  0  0
  -14.1870  -43.4206  -16.6429 H   0  0  0  0  0  0  0  0  0  0  0  0
  -15.2454  -44.8024  -16.6242 H   0  0  0  0  0  0  0  0  0  0  0  0
  -21.0780  -47.7173  -26.7494 H   0  0  0  0  0  0  0  0  0  0  0  0
  -20.1399  -46.4584  -27.5467 H   0  0  0  0  0  0  0  0  0  0  0  0
  -22.6637  -46.3387  -26.4159 H   0  0  0  0  0  0  0  0  0  0  0  0
  -13.6138  -42.3239  -18.6037 H   0  0  0  0  0  0  0  0  0  0  0  0
  -16.8989  -45.1081  -18.6799 H   0  0  0  0  0  0  0  0  0  0  0  0
  -15.2629  -43.5684  -22.3528 H   0  0  0  0  0  0  0  0  0  0  0  0
  -18.9317  -47.9512  -22.2836 H   0  0  0  0  0  0  0  0  0  0  0  0
  -17.3762  -47.1103  -20.3281 H   0  0  0  0  0  0  0  0  0  0  0  0
  7  8  1  0
  8  3  2  0
  8  4  1  0
  1  5  1  0
  6  5  2  0
  5  2  1  0
 12 11  1  0
 11 10  1  0
 10  9  3  0
 13 18  2  0
 13 14  1  0
 13  1  1  0
 14 15  2  0
 15 16  1  0
 15  7  1  0
 16 17  2  0
 17 22  1  0
 17 18  1  0
 19 20  2  0
 19 23  1  0
 20 21  1  0
 21 22  1  0
 22 23  2  0
  9 20  1  0
  1 24  1  0
  1 25  1  0
  2 26  1  0
  4 27  1  0
  7 28  1  0
  7 29  1  0
 11 30  1  0
 11 31  1  0
 12 32  1  0
 14 33  1  0
 16 34  1  0
 18 35  1  0
 19 36  1  0
 23 37  1  0
M  END
>  <smiles>  (688) 
[H]OC(=O)C([H])([H])c1c([H])c(-c2sc(C#CC([H])([H])O[H])c([H])c2[H])c([H])c(C([H])([H])C(=O)O[H])c1[H]

>  <error>  (688) 


>  <∆∆G>  (688) 
-129.269545

>  <∆G_bound>  (688) 
-14.415695

>  <∆G_unbound>  (688) 
114.85385

>  <comRMSD>  (688) 
0.733061

>  <N_constrained_atoms>  (688) 
23.0

>  <N_unconstrained_atoms>  (688) 
0.0

>  <runtime>  (688) 
1.406776

>  <regarded>  (688) 
['5hmx-b', '5hmy-a']

>  <disregarded>  (688) 
[]

>  <LE>  (688) 
5.620415

>  <outcome>  (688) 
equally sized

>  <percent_hybrid>  (688) 
18.0

$$$$

     RDKit          2D

  0  0  0  0  0  0  0  0  0  0999 V2000
M  END
>  <smiles>  (689) 
nan

>  <error>  (689) 
FragmensteinError Ideal compound failed. Something is wrong with the SMILES

>  <∆∆G>  (689) 
nan

>  <∆G_bound>  (689) 
nan

>  <∆G_unbound>  (689) 
nan

>  <comRMSD>  (689) 
nan

>  <N_constrained_atoms>  (689) 
nan

>  <N_unconstrained_atoms>  (689) 
nan

>  <runtime>  (689) 
nan

>  <regarded>  (689) 
[]

>  <disregarded>  (689) 
[]

>  <LE>  (689) 
nan

>  <outcome>  (689) 
crashed

>  <percent_hybrid>  (689) 
nan

$$$$

     RDKit          2D

  0  0  0  0  0  0  0  0  0  0999 V2000
M  END
>  <smiles>  (690) 
nan

>  <error>  (690) 
FragmensteinError Ideal compound failed. Something is wrong with the SMILES

>  <∆∆G>  (690) 
nan

>  <∆G_bound>  (690) 
nan

>  <∆G_unbound>  (690) 
nan

>  <comRMSD>  (690) 
nan

>  <N_constrained_atoms>  (690) 
nan

>  <N_unconstrained_atoms>  (690) 
nan

>  <runtime>  (690) 
nan

>  <regarded>  (690) 
[]

>  <disregarded>  (690) 
[]

>  <LE>  (690) 
nan

>  <outcome>  (690) 
crashed

>  <percent_hybrid>  (690) 
nan

$$$$
LIG
     RDKit          3D

 64 66  0  0  0  0  0  0  0  0999 V2000
  -13.5949  -41.4503  -21.2323 C   0  0  0  0  0  0  0  0  0  0  0  0
  -12.3094  -39.6703  -20.2552 O   0  0  0  0  0  0  0  0  0  0  0  0
  -16.0024  -42.4295  -14.9151 C   0  0  0  0  0  0  0  0  0  0  0  0
  -16.7773  -41.7527  -17.1423 O   0  0  0  0  0  0  0  0  0  0  0  0
  -13.5606  -40.0814  -20.5881 C   0  0  0  0  0  0  0  0  0  0  0  0
  -14.5339  -39.3623  -20.4144 O   0  0  0  0  0  0  0  0  0  0  0  0
  -15.2604  -43.7076  -17.0740 C   0  0  0  0  0  0  0  0  0  0  0  0
  -16.3327  -42.8753  -16.3639 C   0  0  1  0  0  0  0  0  0  0  0  0
  -13.5523  -41.9340  -18.3902 O   0  0  0  0  0  0  0  0  0  0  0  0
  -12.2451  -42.4916  -18.3295 C   0  0  0  0  0  0  0  0  0  0  0  0
  -17.0708  -41.5489  -14.5261 O   0  0  0  0  0  0  0  0  0  0  0  0
  -19.3682  -46.1738  -24.4620 C   0  0  0  0  0  0  0  0  0  0  0  0
  -19.9896  -46.3983  -25.4678 C   0  0  0  0  0  0  0  0  0  0  0  0
  -20.7246  -46.7024  -26.6987 C   0  0  0  0  0  0  0  0  0  0  0  0
  -21.8362  -45.8281  -26.8357 O   0  0  0  0  0  0  0  0  0  0  0  0
  -14.4913  -44.5176  -16.5631 O   0  0  0  0  0  0  0  0  0  0  0  0
  -16.0775  -43.4800  -13.9965 O   0  0  0  0  0  0  0  0  0  0  0  0
  -15.2896  -43.1527  -22.6560 O   0  0  0  0  0  0  0  0  0  0  0  0
  -14.2986  -44.0132  -23.2097 C   0  0  0  0  0  0  0  0  0  0  0  0
  -12.5608  -38.9224  -15.8056 O   0  0  0  0  0  0  0  0  0  0  0  0
  -13.2417  -38.5510  -16.9981 C   0  0  0  0  0  0  0  0  0  0  0  0
  -14.4586  -42.4825  -20.5377 C   0  0  0  0  0  0  0  0  0  0  0  0
  -14.3882  -42.6960  -19.1591 C   0  0  0  0  0  0  0  0  0  0  0  0
  -15.2510  -43.6068  -18.5452 C   0  0  0  0  0  0  0  0  0  0  0  0
  -16.1556  -44.3745  -19.2929 C   0  0  0  0  0  0  0  0  0  0  0  0
  -16.2141  -44.2369  -20.6881 C   0  0  0  0  0  0  0  0  0  0  0  0
  -15.3257  -43.3077  -21.2884 C   0  0  0  0  0  0  0  0  0  0  0  0
  -18.4220  -46.8792  -22.2617 C   0  0  0  0  0  0  0  0  0  0  0  0
  -18.6608  -45.9384  -23.2394 C   0  0  0  0  0  0  0  0  0  0  0  0
  -18.0234  -44.4223  -22.8068 S   0  0  0  0  0  0  0  0  0  0  0  0
  -17.1705  -45.0685  -21.4559 C   0  0  0  0  0  0  0  0  0  0  0  0
  -17.5613  -46.3806  -21.2360 C   0  0  0  0  0  0  0  0  0  0  0  0
  -12.3828  -40.2868  -13.9378 C   0  0  0  0  0  0  0  0  0  0  0  0
  -12.8104  -41.3194  -13.1163 C   0  0  0  0  0  0  0  0  0  0  0  0
  -13.9567  -42.0259  -13.4573 C   0  0  0  0  0  0  0  0  0  0  0  0
  -14.6961  -41.7185  -14.6227 C   0  0  0  0  0  0  0  0  0  0  0  0
  -14.2457  -40.6705  -15.4326 C   0  0  0  0  0  0  0  0  0  0  0  0
  -13.0924  -39.9605  -15.0950 C   0  0  0  0  0  0  0  0  0  0  0  0
  -13.9310  -41.2597  -22.2581 H   0  0  0  0  0  0  0  0  0  0  0  0
  -12.5834  -41.8581  -21.3266 H   0  0  0  0  0  0  0  0  0  0  0  0
  -11.6298  -40.3649  -20.3457 H   0  0  0  0  0  0  0  0  0  0  0  0
  -17.3405  -41.2354  -16.5288 H   0  0  0  0  0  0  0  0  0  0  0  0
  -17.2120  -43.5153  -16.3411 H   0  0  0  0  0  0  0  0  0  0  0  0
  -11.6295  -41.8373  -17.7056 H   0  0  0  0  0  0  0  0  0  0  0  0
  -12.2582  -43.4849  -17.8721 H   0  0  0  0  0  0  0  0  0  0  0  0
  -11.7950  -42.5404  -19.3222 H   0  0  0  0  0  0  0  0  0  0  0  0
  -16.6812  -40.9132  -13.8998 H   0  0  0  0  0  0  0  0  0  0  0  0
  -21.0692  -47.7388  -26.7397 H   0  0  0  0  0  0  0  0  0  0  0  0
  -20.0775  -46.5346  -27.5570 H   0  0  0  0  0  0  0  0  0  0  0  0
  -22.6061  -46.2866  -26.4367 H   0  0  0  0  0  0  0  0  0  0  0  0
  -17.0308  -43.5444  -13.8090 H   0  0  0  0  0  0  0  0  0  0  0  0
  -13.3161  -43.8604  -22.7585 H   0  0  0  0  0  0  0  0  0  0  0  0
  -14.6126  -45.0454  -23.0599 H   0  0  0  0  0  0  0  0  0  0  0  0
  -14.2288  -43.8064  -24.2801 H   0  0  0  0  0  0  0  0  0  0  0  0
  -14.2498  -38.1839  -16.7792 H   0  0  0  0  0  0  0  0  0  0  0  0
  -12.6829  -37.7315  -17.4602 H   0  0  0  0  0  0  0  0  0  0  0  0
  -13.2664  -39.3775  -17.7105 H   0  0  0  0  0  0  0  0  0  0  0  0
  -16.8297  -45.0539  -18.7806 H   0  0  0  0  0  0  0  0  0  0  0  0
  -18.7887  -47.8983  -22.3088 H   0  0  0  0  0  0  0  0  0  0  0  0
  -17.2010  -46.9869  -20.4156 H   0  0  0  0  0  0  0  0  0  0  0  0
  -11.4867  -39.7275  -13.6808 H   0  0  0  0  0  0  0  0  0  0  0  0
  -12.2544  -41.5730  -12.2184 H   0  0  0  0  0  0  0  0  0  0  0  0
  -14.2728  -42.8270  -12.7910 H   0  0  0  0  0  0  0  0  0  0  0  0
  -14.8128  -40.4085  -16.3205 H   0  0  0  0  0  0  0  0  0  0  0  0
  7  8  1  0
  8  3  1  0
  8  4  1  0
  1  5  1  0
  6  5  2  0
  5  2  1  0
  9 10  1  0
 11  3  1  0
 14 15  1  0
 14 13  1  0
 13 12  3  0
 16  7  2  0
 17  3  1  0
 18 19  1  0
 21 20  1  0
 22 27  2  0
 22 23  1  0
 22  1  1  0
 23 24  2  0
 24 25  1  0
 24  7  1  0
 25 26  2  0
 26 31  1  0
 26 27  1  0
 28 29  2  0
 28 32  1  0
 29 30  1  0
 30 31  1  0
 31 32  2  0
 33 38  2  0
 33 34  1  0
 34 35  2  0
 35 36  1  0
 36 37  2  0
 37 38  1  0
 38 20  1  0
  9 23  1  0
 18 27  1  0
 12 29  1  0
  3 36  1  0
  1 39  1  0
  1 40  1  0
  2 41  1  0
  4 42  1  0
  8 43  1  1
 10 44  1  0
 10 45  1  0
 10 46  1  0
 11 47  1  0
 14 48  1  0
 14 49  1  0
 15 50  1  0
 17 51  1  0
 19 52  1  0
 19 53  1  0
 19 54  1  0
 21 55  1  0
 21 56  1  0
 21 57  1  0
 25 58  1  0
 28 59  1  0
 32 60  1  0
 33 61  1  0
 34 62  1  0
 35 63  1  0
 37 64  1  0
M  END
>  <smiles>  (691) 
[H]OC(=O)C([H])([H])c1c(OC([H])([H])[H])c(C(=O)[C@]([H])(O[H])C(O[H])(O[H])c2c([H])c([H])c([H])c(OC([H])([H])[H])c2[H])c([H])c(-c2sc(C#CC([H])([H])O[H])c([H])c2[H])c1OC([H])([H])[H]

>  <error>  (691) 


>  <∆∆G>  (691) 
-324.749976

>  <∆G_bound>  (691) 
107.905901

>  <∆G_unbound>  (691) 
432.655877

>  <comRMSD>  (691) 
0.778389

>  <N_constrained_atoms>  (691) 
38.0

>  <N_unconstrained_atoms>  (691) 
0.0

>  <runtime>  (691) 
4.526114

>  <regarded>  (691) 
['5hmx-b', '5k5m-a']

>  <disregarded>  (691) 
[]

>  <LE>  (691) 
8.546052

>  <outcome>  (691) 
acceptable

>  <percent_hybrid>  (691) 
50.0

$$$$
LIG
     RDKit          3D

 52 53  0  0  0  0  0  0  0  0999 V2000
  -13.5099  -41.6150  -21.2289 C   0  0  0  0  0  0  0  0  0  0  0  0
  -11.7246  -42.3726  -19.8134 O   0  0  0  0  0  0  0  0  0  0  0  0
  -16.5674  -42.2952  -15.1102 C   0  0  0  0  0  0  0  0  0  0  0  0
  -17.3390  -41.9280  -17.4010 O   0  0  0  0  0  0  0  0  0  0  0  0
  -12.1169  -41.4368  -20.6814 C   0  0  0  0  0  0  0  0  0  0  0  0
  -11.3666  -40.5223  -20.9974 O   0  0  0  0  0  0  0  0  0  0  0  0
  -15.6035  -43.6655  -17.1474 C   0  0  0  0  0  0  0  0  0  0  0  0
  -16.7864  -42.9221  -16.5183 C   0  0  1  0  0  0  0  0  0  0  0  0
  -19.4484  -46.1836  -24.5133 C   0  0  0  0  0  0  0  0  0  0  0  0
  -20.0896  -46.3671  -25.5148 C   0  0  0  0  0  0  0  0  0  0  0  0
  -20.8272  -46.6385  -26.7497 C   0  0  0  0  0  0  0  0  0  0  0  0
  -21.9527  -45.7777  -26.8539 O   0  0  0  0  0  0  0  0  0  0  0  0
  -15.2270  -42.5369  -14.4390 C   0  0  0  0  0  0  0  0  0  0  0  0
  -13.9589  -41.6228  -18.2566 C   0  0  0  0  0  0  0  0  0  0  0  0
  -14.9614  -43.7112  -22.7053 O   0  0  0  0  0  0  0  0  0  0  0  0
  -15.3111  -42.6375  -23.5728 C   0  0  0  0  0  0  0  0  0  0  0  0
  -14.8098  -44.4082  -16.5760 O   0  0  0  0  0  0  0  0  0  0  0  0
  -17.5673  -42.5817  -14.1593 O   0  0  0  0  0  0  0  0  0  0  0  0
  -16.7235  -40.8829  -15.2784 O   0  0  0  0  0  0  0  0  0  0  0  0
  -14.4530  -42.6156  -20.5770 C   0  0  0  0  0  0  0  0  0  0  0  0
  -14.6440  -42.6056  -19.1753 C   0  0  0  0  0  0  0  0  0  0  0  0
  -15.4899  -43.5705  -18.6105 C   0  0  0  0  0  0  0  0  0  0  0  0
  -16.2734  -44.4282  -19.3850 C   0  0  0  0  0  0  0  0  0  0  0  0
  -16.1932  -44.3798  -20.7784 C   0  0  0  0  0  0  0  0  0  0  0  0
  -15.2324  -43.5153  -21.3670 C   0  0  0  0  0  0  0  0  0  0  0  0
  -18.4427  -46.9721  -22.3640 C   0  0  0  0  0  0  0  0  0  0  0  0
  -18.7044  -45.9982  -23.3033 C   0  0  0  0  0  0  0  0  0  0  0  0
  -18.0548  -44.5005  -22.8303 S   0  0  0  0  0  0  0  0  0  0  0  0
  -17.1385  -45.2066  -21.5553 C   0  0  0  0  0  0  0  0  0  0  0  0
  -17.5312  -46.5199  -21.3605 C   0  0  0  0  0  0  0  0  0  0  0  0
  -14.0057  -40.6370  -21.2074 H   0  0  0  0  0  0  0  0  0  0  0  0
  -13.3491  -41.8799  -22.2665 H   0  0  0  0  0  0  0  0  0  0  0  0
  -10.7611  -42.2556  -19.6279 H   0  0  0  0  0  0  0  0  0  0  0  0
  -17.2024  -41.0762  -16.9278 H   0  0  0  0  0  0  0  0  0  0  0  0
  -17.5676  -43.6633  -16.4995 H   0  0  0  0  0  0  0  0  0  0  0  0
  -21.1571  -47.6788  -26.8181 H   0  0  0  0  0  0  0  0  0  0  0  0
  -20.1852  -46.4341  -27.6044 H   0  0  0  0  0  0  0  0  0  0  0  0
  -22.7250  -46.2807  -26.5232 H   0  0  0  0  0  0  0  0  0  0  0  0
  -15.1610  -41.9812  -13.4953 H   0  0  0  0  0  0  0  0  0  0  0  0
  -15.0884  -43.5921  -14.1856 H   0  0  0  0  0  0  0  0  0  0  0  0
  -14.3936  -42.1930  -15.0597 H   0  0  0  0  0  0  0  0  0  0  0  0
  -14.6510  -41.2574  -17.4913 H   0  0  0  0  0  0  0  0  0  0  0  0
  -13.1078  -42.0889  -17.7516 H   0  0  0  0  0  0  0  0  0  0  0  0
  -13.6341  -40.7159  -18.7714 H   0  0  0  0  0  0  0  0  0  0  0  0
  -15.9498  -43.0285  -24.3703 H   0  0  0  0  0  0  0  0  0  0  0  0
  -14.4118  -42.2490  -24.0580 H   0  0  0  0  0  0  0  0  0  0  0  0
  -15.8428  -41.8246  -23.0659 H   0  0  0  0  0  0  0  0  0  0  0  0
  -18.3161  -43.0455  -14.5911 H   0  0  0  0  0  0  0  0  0  0  0  0
  -16.8225  -40.5670  -14.3606 H   0  0  0  0  0  0  0  0  0  0  0  0
  -16.9726  -45.1025  -18.9000 H   0  0  0  0  0  0  0  0  0  0  0  0
  -18.8203  -47.9858  -22.4294 H   0  0  0  0  0  0  0  0  0  0  0  0
  -17.1436  -47.1530  -20.5736 H   0  0  0  0  0  0  0  0  0  0  0  0
  7  8  1  0
  8  3  1  0
  8  4  1  0
  1  5  1  0
  6  5  2  0
  5  2  1  0
 12 11  1  0
 11 10  1  0
 10  9  3  0
 13  3  1  0
 15 16  1  0
 17  7  2  0
 18  3  1  0
 19  3  1  0
 20 25  2  0
 20 21  1  0
 20  1  1  0
 21 22  2  0
 22 23  1  0
 22  7  1  0
 23 24  2  0
 24 29  1  0
 24 25  1  0
 26 27  2  0
 26 30  1  0
 27 28  1  0
 28 29  1  0
 29 30  2  0
 14 21  1  0
 15 25  1  0
  9 27  1  0
  1 31  1  0
  1 32  1  0
  2 33  1  0
  4 34  1  0
  8 35  1  1
 11 36  1  0
 11 37  1  0
 12 38  1  0
 13 39  1  0
 13 40  1  0
 13 41  1  0
 14 42  1  0
 14 43  1  0
 14 44  1  0
 16 45  1  0
 16 46  1  0
 16 47  1  0
 18 48  1  0
 19 49  1  0
 23 50  1  0
 26 51  1  0
 30 52  1  0
M  END
>  <smiles>  (692) 
[H]OC(=O)C([H])([H])c1c(OC([H])([H])[H])c(-c2sc(C#CC([H])([H])O[H])c([H])c2[H])c([H])c(C(=O)[C@]([H])(O[H])C(O[H])(O[H])C([H])([H])[H])c1C([H])([H])[H]

>  <error>  (692) 


>  <∆∆G>  (692) 
-289.770558

>  <∆G_bound>  (692) 
86.126343

>  <∆G_unbound>  (692) 
375.8969

>  <comRMSD>  (692) 
1.216276

>  <N_constrained_atoms>  (692) 
30.0

>  <N_unconstrained_atoms>  (692) 
0.0

>  <runtime>  (692) 
3.717437

>  <regarded>  (692) 
['5hmx-b', '5hmz-a']

>  <disregarded>  (692) 
[]

>  <LE>  (692) 
9.659019

>  <outcome>  (692) 
too moved

>  <percent_hybrid>  (692) 
37.0

$$$$
LIG
     RDKit          3D

 31 32  0  0  0  0  0  0  0  0999 V2000
  -13.3104  -42.0080  -21.1950 C   0  0  0  0  0  0  0  0  0  0  0  0
  -12.3828  -39.8561  -21.5546 O   0  0  0  0  0  0  0  0  0  0  0  0
  -16.0234  -42.1933  -15.1213 O   0  0  0  0  0  0  0  0  0  0  0  0
  -17.4286  -42.9875  -16.6637 O   0  0  0  0  0  0  0  0  0  0  0  0
  -13.2940  -40.5441  -20.8301 C   0  0  0  0  0  0  0  0  0  0  0  0
  -13.9684  -39.9557  -20.0016 O   0  0  0  0  0  0  0  0  0  0  0  0
  -15.1329  -43.6695  -16.8205 C   0  0  0  0  0  0  0  0  0  0  0  0
  -16.1982  -42.8574  -16.1325 C   0  0  0  0  0  0  0  0  0  0  0  0
  -14.2985  -42.8575  -20.4328 C   0  0  0  0  0  0  0  0  0  0  0  0
  -14.2825  -42.8944  -19.0381 C   0  0  0  0  0  0  0  0  0  0  0  0
  -15.1857  -43.6913  -18.3280 C   0  0  0  0  0  0  0  0  0  0  0  0
  -16.1142  -44.4730  -19.0394 C   0  0  0  0  0  0  0  0  0  0  0  0
  -16.1457  -44.4628  -20.4424 C   0  0  0  0  0  0  0  0  0  0  0  0
  -15.2140  -43.6634  -21.1220 C   0  0  0  0  0  0  0  0  0  0  0  0
  -18.4162  -47.0706  -21.9421 C   0  0  0  0  0  0  0  0  0  0  0  0
  -18.5891  -46.1619  -22.9593 C   0  0  0  0  0  0  0  0  0  0  0  0
  -17.8466  -44.6697  -22.6171 S   0  0  0  0  0  0  0  0  0  0  0  0
  -17.1097  -45.2862  -21.1882 C   0  0  0  0  0  0  0  0  0  0  0  0
  -17.5651  -46.5647  -20.9184 C   0  0  0  0  0  0  0  0  0  0  0  0
  -13.5482  -42.0604  -22.2618 H   0  0  0  0  0  0  0  0  0  0  0  0
  -12.3085  -42.4151  -21.0288 H   0  0  0  0  0  0  0  0  0  0  0  0
  -12.4674  -38.9424  -21.2125 H   0  0  0  0  0  0  0  0  0  0  0  0
  -18.0179  -42.6075  -15.9726 H   0  0  0  0  0  0  0  0  0  0  0  0
  -14.1638  -43.2662  -16.4989 H   0  0  0  0  0  0  0  0  0  0  0  0
  -15.1612  -44.6951  -16.4436 H   0  0  0  0  0  0  0  0  0  0  0  0
  -13.5619  -42.2785  -18.4999 H   0  0  0  0  0  0  0  0  0  0  0  0
  -16.8424  -45.0663  -18.4950 H   0  0  0  0  0  0  0  0  0  0  0  0
  -15.1875  -43.6679  -22.2111 H   0  0  0  0  0  0  0  0  0  0  0  0
  -18.8382  -48.0673  -21.9658 H   0  0  0  0  0  0  0  0  0  0  0  0
  -19.1242  -46.3011  -23.8892 H   0  0  0  0  0  0  0  0  0  0  0  0
  -17.2559  -47.1382  -20.0560 H   0  0  0  0  0  0  0  0  0  0  0  0
  7  8  1  0
  8  3  2  0
  8  4  1  0
  1  5  1  0
  6  5  2  0
  5  2  1  0
  9 14  2  0
  9 10  1  0
  9  1  1  0
 10 11  2  0
 11 12  1  0
 11  7  1  0
 12 13  2  0
 13 18  1  0
 13 14  1  0
 15 16  2  0
 15 19  1  0
 16 17  1  0
 17 18  1  0
 18 19  2  0
  1 20  1  0
  1 21  1  0
  2 22  1  0
  4 23  1  0
  7 24  1  0
  7 25  1  0
 10 26  1  0
 12 27  1  0
 14 28  1  0
 15 29  1  0
 16 30  1  0
 19 31  1  0
M  END
>  <smiles>  (693) 
[H]OC(=O)C([H])([H])c1c([H])c(-c2sc([H])c([H])c2[H])c([H])c(C([H])([H])C(=O)O[H])c1[H]

>  <error>  (693) 


>  <∆∆G>  (693) 
-49.569967

>  <∆G_bound>  (693) 
-59.834962

>  <∆G_unbound>  (693) 
-10.264995

>  <comRMSD>  (693) 
0.815294

>  <N_constrained_atoms>  (693) 
19.0

>  <N_unconstrained_atoms>  (693) 
0.0

>  <runtime>  (693) 
1.273387

>  <regarded>  (693) 
['5hmx-b', '5hmw-b']

>  <disregarded>  (693) 
[]

>  <LE>  (693) 
2.608946

>  <outcome>  (693) 
equally sized

>  <percent_hybrid>  (693) 
0.0

$$$$
LIG
     RDKit          3D

 35 36  0  0  0  0  0  0  0  0999 V2000
  -13.7350  -41.3351  -21.1137 C   0  0  0  0  0  0  0  0  0  0  0  0
  -13.8507  -39.9909  -23.0676 O   0  0  0  0  0  0  0  0  0  0  0  0
  -15.8612  -42.3433  -15.0887 O   0  0  0  0  0  0  0  0  0  0  0  0
  -17.3550  -43.0196  -16.6103 O   0  0  0  0  0  0  0  0  0  0  0  0
  -14.5285  -40.3716  -21.9621 C   0  0  0  0  0  0  0  0  0  0  0  0
  -15.6278  -39.8977  -21.7248 O   0  0  0  0  0  0  0  0  0  0  0  0
  -15.0871  -43.7166  -16.9268 C   0  0  0  0  0  0  0  0  0  0  0  0
  -16.0997  -42.9365  -16.1300 C   0  0  0  0  0  0  0  0  0  0  0  0
  -15.4459  -43.0605  -22.5603 O   0  0  0  0  0  0  0  0  0  0  0  0
  -14.5167  -43.8968  -23.2434 C   0  0  0  0  0  0  0  0  0  0  0  0
  -14.5607  -42.4201  -20.4581 C   0  0  0  0  0  0  0  0  0  0  0  0
  -14.4614  -42.6024  -19.0758 C   0  0  0  0  0  0  0  0  0  0  0  0
  -15.2070  -43.5867  -18.4240 C   0  0  0  0  0  0  0  0  0  0  0  0
  -16.0749  -44.3974  -19.1753 C   0  0  0  0  0  0  0  0  0  0  0  0
  -16.1971  -44.2561  -20.5728 C   0  0  0  0  0  0  0  0  0  0  0  0
  -15.3960  -43.2766  -21.2024 C   0  0  0  0  0  0  0  0  0  0  0  0
  -18.3184  -47.0366  -22.0085 C   0  0  0  0  0  0  0  0  0  0  0  0
  -18.6340  -46.1290  -22.9904 C   0  0  0  0  0  0  0  0  0  0  0  0
  -18.0695  -44.5680  -22.6192 S   0  0  0  0  0  0  0  0  0  0  0  0
  -17.1337  -45.1453  -21.2946 C   0  0  0  0  0  0  0  0  0  0  0  0
  -17.4430  -46.4732  -21.0372 C   0  0  0  0  0  0  0  0  0  0  0  0
  -12.9617  -41.8167  -21.7186 H   0  0  0  0  0  0  0  0  0  0  0  0
  -13.2128  -40.7308  -20.3622 H   0  0  0  0  0  0  0  0  0  0  0  0
  -14.5097  -39.4866  -23.5904 H   0  0  0  0  0  0  0  0  0  0  0  0
  -17.9191  -42.6967  -15.8698 H   0  0  0  0  0  0  0  0  0  0  0  0
  -14.0895  -43.3804  -16.6160 H   0  0  0  0  0  0  0  0  0  0  0  0
  -15.1466  -44.7709  -16.6420 H   0  0  0  0  0  0  0  0  0  0  0  0
  -13.5308  -43.9075  -22.7688 H   0  0  0  0  0  0  0  0  0  0  0  0
  -14.9169  -44.9102  -23.2869 H   0  0  0  0  0  0  0  0  0  0  0  0
  -14.4068  -43.5212  -24.2643 H   0  0  0  0  0  0  0  0  0  0  0  0
  -13.8016  -41.9552  -18.4987 H   0  0  0  0  0  0  0  0  0  0  0  0
  -16.6929  -45.1255  -18.6566 H   0  0  0  0  0  0  0  0  0  0  0  0
  -18.6378  -48.0710  -22.0333 H   0  0  0  0  0  0  0  0  0  0  0  0
  -19.1964  -46.3013  -23.8977 H   0  0  0  0  0  0  0  0  0  0  0  0
  -17.0151  -47.0397  -20.2218 H   0  0  0  0  0  0  0  0  0  0  0  0
  7  8  1  0
  8  3  2  0
  8  4  1  0
  1  5  1  0
  6  5  2  0
  5  2  1  0
  9 10  1  0
 11 16  2  0
 11 12  1  0
 11  1  1  0
 12 13  2  0
 13 14  1  0
 13  7  1  0
 14 15  2  0
 15 20  1  0
 15 16  1  0
 17 18  2  0
 17 21  1  0
 18 19  1  0
 19 20  1  0
 20 21  2  0
  9 16  1  0
  1 22  1  0
  1 23  1  0
  2 24  1  0
  4 25  1  0
  7 26  1  0
  7 27  1  0
 10 28  1  0
 10 29  1  0
 10 30  1  0
 12 31  1  0
 14 32  1  0
 17 33  1  0
 18 34  1  0
 21 35  1  0
M  END
>  <smiles>  (694) 
[H]OC(=O)C([H])([H])c1c([H])c(-c2sc([H])c([H])c2[H])c(OC([H])([H])[H])c(C([H])([H])C(=O)O[H])c1[H]

>  <error>  (694) 


>  <∆∆G>  (694) 
-221.404979

>  <∆G_bound>  (694) 
-74.185635

>  <∆G_unbound>  (694) 
147.219344

>  <comRMSD>  (694) 
1.017617

>  <N_constrained_atoms>  (694) 
21.0

>  <N_unconstrained_atoms>  (694) 
0.0

>  <runtime>  (694) 
2.209166

>  <regarded>  (694) 
['5hmx-b', '5f3z-a']

>  <disregarded>  (694) 
[]

>  <LE>  (694) 
10.543094

>  <outcome>  (694) 
too moved

>  <percent_hybrid>  (694) 
10.0

$$$$
LIG
     RDKit          3D

 35 36  0  0  0  0  0  0  0  0999 V2000
  -13.7413  -41.3508  -21.0884 C   0  0  0  0  0  0  0  0  0  0  0  0
  -13.8680  -40.0202  -23.0513 O   0  0  0  0  0  0  0  0  0  0  0  0
  -15.8598  -42.3616  -15.0383 O   0  0  0  0  0  0  0  0  0  0  0  0
  -17.3482  -43.0012  -16.5810 O   0  0  0  0  0  0  0  0  0  0  0  0
  -14.5361  -40.3872  -21.9352 C   0  0  0  0  0  0  0  0  0  0  0  0
  -15.6285  -39.9023  -21.6888 O   0  0  0  0  0  0  0  0  0  0  0  0
  -15.0838  -43.7154  -16.8895 C   0  0  0  0  0  0  0  0  0  0  0  0
  -16.0960  -42.9373  -16.0900 C   0  0  0  0  0  0  0  0  0  0  0  0
  -15.4598  -43.0806  -22.5210 O   0  0  0  0  0  0  0  0  0  0  0  0
  -14.5343  -43.9254  -23.1967 C   0  0  0  0  0  0  0  0  0  0  0  0
  -14.5677  -42.4306  -20.4253 C   0  0  0  0  0  0  0  0  0  0  0  0
  -14.4648  -42.6088  -19.0435 C   0  0  0  0  0  0  0  0  0  0  0  0
  -15.2098  -43.5908  -18.3869 C   0  0  0  0  0  0  0  0  0  0  0  0
  -16.0812  -44.4037  -19.1329 C   0  0  0  0  0  0  0  0  0  0  0  0
  -16.2079  -44.2654  -20.5296 C   0  0  0  0  0  0  0  0  0  0  0  0
  -15.4074  -43.2882  -21.1628 C   0  0  0  0  0  0  0  0  0  0  0  0
  -18.3093  -47.0534  -21.9794 C   0  0  0  0  0  0  0  0  0  0  0  0
  -18.6268  -46.1444  -22.9595 C   0  0  0  0  0  0  0  0  0  0  0  0
  -18.0804  -44.5801  -22.5760 S   0  0  0  0  0  0  0  0  0  0  0  0
  -17.1423  -45.1568  -21.2519 C   0  0  0  0  0  0  0  0  0  0  0  0
  -17.4440  -46.4873  -21.0004 C   0  0  0  0  0  0  0  0  0  0  0  0
  -12.9723  -41.8362  -21.6961 H   0  0  0  0  0  0  0  0  0  0  0  0
  -13.2130  -40.7462  -20.3414 H   0  0  0  0  0  0  0  0  0  0  0  0
  -14.5286  -39.5109  -23.5673 H   0  0  0  0  0  0  0  0  0  0  0  0
  -17.9163  -42.6886  -15.8393 H   0  0  0  0  0  0  0  0  0  0  0  0
  -14.0865  -43.3735  -16.5839 H   0  0  0  0  0  0  0  0  0  0  0  0
  -15.1369  -44.7692  -16.6021 H   0  0  0  0  0  0  0  0  0  0  0  0
  -14.4506  -43.5796  -24.2306 H   0  0  0  0  0  0  0  0  0  0  0  0
  -13.5384  -43.9052  -22.7437 H   0  0  0  0  0  0  0  0  0  0  0  0
  -14.9163  -44.9470  -23.2025 H   0  0  0  0  0  0  0  0  0  0  0  0
  -13.8026  -41.9607  -18.4701 H   0  0  0  0  0  0  0  0  0  0  0  0
  -16.6973  -45.1309  -18.6113 H   0  0  0  0  0  0  0  0  0  0  0  0
  -18.6196  -48.0902  -22.0122 H   0  0  0  0  0  0  0  0  0  0  0  0
  -19.1812  -46.3184  -23.8717 H   0  0  0  0  0  0  0  0  0  0  0  0
  -17.0148  -47.0541  -20.1860 H   0  0  0  0  0  0  0  0  0  0  0  0
  7  8  1  0
  8  3  2  0
  8  4  1  0
  1  5  1  0
  6  5  2  0
  5  2  1  0
  9 10  1  0
 11 16  2  0
 11 12  1  0
 11  1  1  0
 12 13  2  0
 13 14  1  0
 13  7  1  0
 14 15  2  0
 15 20  1  0
 15 16  1  0
 17 18  2  0
 17 21  1  0
 18 19  1  0
 19 20  1  0
 20 21  2  0
  9 16  1  0
  1 22  1  0
  1 23  1  0
  2 24  1  0
  4 25  1  0
  7 26  1  0
  7 27  1  0
 10 28  1  0
 10 29  1  0
 10 30  1  0
 12 31  1  0
 14 32  1  0
 17 33  1  0
 18 34  1  0
 21 35  1  0
M  END
>  <smiles>  (695) 
[H]OC(=O)C([H])([H])c1c([H])c(-c2sc([H])c([H])c2[H])c(OC([H])([H])[H])c(C([H])([H])C(=O)O[H])c1[H]

>  <error>  (695) 


>  <∆∆G>  (695) 
-221.313406

>  <∆G_bound>  (695) 
-52.058476

>  <∆G_unbound>  (695) 
169.25493

>  <comRMSD>  (695) 
1.01122

>  <N_constrained_atoms>  (695) 
21.0

>  <N_unconstrained_atoms>  (695) 
0.0

>  <runtime>  (695) 
2.642394

>  <regarded>  (695) 
['5hmx-b', '6h9r-a']

>  <disregarded>  (695) 
[]

>  <LE>  (695) 
10.538734

>  <outcome>  (695) 
too moved

>  <percent_hybrid>  (695) 
10.0

$$$$
LIG
     RDKit          3D

 35 36  0  0  0  0  0  0  0  0999 V2000
  -13.7592  -41.3425  -21.1400 C   0  0  0  0  0  0  0  0  0  0  0  0
  -13.8727  -39.9954  -23.0916 O   0  0  0  0  0  0  0  0  0  0  0  0
  -15.8706  -42.3323  -15.1032 O   0  0  0  0  0  0  0  0  0  0  0  0
  -17.3664  -43.0205  -16.6174 O   0  0  0  0  0  0  0  0  0  0  0  0
  -14.5555  -40.3846  -21.9920 C   0  0  0  0  0  0  0  0  0  0  0  0
  -15.6603  -39.9202  -21.7616 O   0  0  0  0  0  0  0  0  0  0  0  0
  -15.0965  -43.7087  -16.9390 C   0  0  0  0  0  0  0  0  0  0  0  0
  -16.1098  -42.9302  -16.1416 C   0  0  0  0  0  0  0  0  0  0  0  0
  -15.4647  -43.0843  -22.5764 O   0  0  0  0  0  0  0  0  0  0  0  0
  -14.5394  -43.9326  -23.2507 C   0  0  0  0  0  0  0  0  0  0  0  0
  -14.5812  -42.4259  -20.4776 C   0  0  0  0  0  0  0  0  0  0  0  0
  -14.4792  -42.6012  -19.0944 C   0  0  0  0  0  0  0  0  0  0  0  0
  -15.2211  -43.5843  -18.4362 C   0  0  0  0  0  0  0  0  0  0  0  0
  -16.0892  -44.3998  -19.1819 C   0  0  0  0  0  0  0  0  0  0  0  0
  -16.2139  -44.2652  -20.5797 C   0  0  0  0  0  0  0  0  0  0  0  0
  -15.4150  -43.2885  -21.2162 C   0  0  0  0  0  0  0  0  0  0  0  0
  -18.3233  -47.0567  -22.0081 C   0  0  0  0  0  0  0  0  0  0  0  0
  -18.6397  -46.1533  -22.9937 C   0  0  0  0  0  0  0  0  0  0  0  0
  -18.0878  -44.5880  -22.6221 S   0  0  0  0  0  0  0  0  0  0  0  0
  -17.1490  -45.1591  -21.2967 C   0  0  0  0  0  0  0  0  0  0  0  0
  -17.4533  -46.4872  -21.0358 C   0  0  0  0  0  0  0  0  0  0  0  0
  -12.9864  -41.8260  -21.7438 H   0  0  0  0  0  0  0  0  0  0  0  0
  -13.2369  -40.7337  -20.3923 H   0  0  0  0  0  0  0  0  0  0  0  0
  -14.5313  -39.4939  -23.6177 H   0  0  0  0  0  0  0  0  0  0  0  0
  -17.9292  -42.6974  -15.8761 H   0  0  0  0  0  0  0  0  0  0  0  0
  -14.0993  -43.3677  -16.6321 H   0  0  0  0  0  0  0  0  0  0  0  0
  -15.1511  -44.7623  -16.6505 H   0  0  0  0  0  0  0  0  0  0  0  0
  -13.5458  -43.9180  -22.7926 H   0  0  0  0  0  0  0  0  0  0  0  0
  -14.9296  -44.9507  -23.2574 H   0  0  0  0  0  0  0  0  0  0  0  0
  -14.4505  -43.5851  -24.2835 H   0  0  0  0  0  0  0  0  0  0  0  0
  -13.8196  -41.9499  -18.5217 H   0  0  0  0  0  0  0  0  0  0  0  0
  -16.7048  -45.1268  -18.6589 H   0  0  0  0  0  0  0  0  0  0  0  0
  -18.6373  -48.0927  -22.0321 H   0  0  0  0  0  0  0  0  0  0  0  0
  -19.1975  -46.3311  -23.9028 H   0  0  0  0  0  0  0  0  0  0  0  0
  -17.0239  -47.0498  -20.2186 H   0  0  0  0  0  0  0  0  0  0  0  0
  7  8  1  0
  8  3  2  0
  8  4  1  0
  1  5  1  0
  6  5  2  0
  5  2  1  0
  9 10  1  0
 11 16  2  0
 11 12  1  0
 11  1  1  0
 12 13  2  0
 13 14  1  0
 13  7  1  0
 14 15  2  0
 15 20  1  0
 15 16  1  0
 17 18  2  0
 17 21  1  0
 18 19  1  0
 19 20  1  0
 20 21  2  0
  9 16  1  0
  1 22  1  0
  1 23  1  0
  2 24  1  0
  4 25  1  0
  7 26  1  0
  7 27  1  0
 10 28  1  0
 10 29  1  0
 10 30  1  0
 12 31  1  0
 14 32  1  0
 17 33  1  0
 18 34  1  0
 21 35  1  0
M  END
>  <smiles>  (696) 
[H]OC(=O)C([H])([H])c1c([H])c(-c2sc([H])c([H])c2[H])c(OC([H])([H])[H])c(C([H])([H])C(=O)O[H])c1[H]

>  <error>  (696) 


>  <∆∆G>  (696) 
-221.40374

>  <∆G_bound>  (696) 
-74.184396

>  <∆G_unbound>  (696) 
147.219344

>  <comRMSD>  (696) 
1.02058

>  <N_constrained_atoms>  (696) 
21.0

>  <N_unconstrained_atoms>  (696) 
0.0

>  <runtime>  (696) 
2.346387

>  <regarded>  (696) 
['5hmx-b', '5f3t-a']

>  <disregarded>  (696) 
[]

>  <LE>  (696) 
10.543035

>  <outcome>  (696) 
too moved

>  <percent_hybrid>  (696) 
10.0

$$$$

     RDKit          2D

  0  0  0  0  0  0  0  0  0  0999 V2000
M  END
>  <smiles>  (697) 
nan

>  <error>  (697) 
DistanceError 6.01 Å

>  <∆∆G>  (697) 
nan

>  <∆G_bound>  (697) 
nan

>  <∆G_unbound>  (697) 
nan

>  <comRMSD>  (697) 
nan

>  <N_constrained_atoms>  (697) 
nan

>  <N_unconstrained_atoms>  (697) 
nan

>  <runtime>  (697) 
nan

>  <regarded>  (697) 
[]

>  <disregarded>  (697) 
[]

>  <LE>  (697) 
nan

>  <outcome>  (697) 
too distant

>  <percent_hybrid>  (697) 
nan

$$$$
LIG
     RDKit          3D

 71 75  0  0  0  0  0  0  0  0999 V2000
  -12.8378  -42.8162  -18.1964 O   0  0  0  0  0  0  0  0  0  0  0  0
  -17.2094  -41.4990  -14.8383 O   0  0  0  0  0  0  0  0  0  0  0  0
  -12.4457  -38.8610  -15.8025 O   0  0  0  0  0  0  0  0  0  0  0  0
  -19.3162  -46.0115  -24.3959 C   0  0  0  0  0  0  0  0  0  0  0  0
  -19.9580  -46.2701  -25.3824 C   0  0  0  0  0  0  0  0  0  0  0  0
  -20.7077  -46.6229  -26.5972 C   0  0  0  0  0  0  0  0  0  0  0  0
  -14.3637  -44.8389  -16.4929 O   0  0  0  0  0  0  0  0  0  0  0  0
  -14.9771  -43.9966  -17.0208 C   0  0  0  0  0  0  0  0  0  0  0  0
  -15.8462  -42.8547  -16.4191 N   0  0  0  0  0  0  0  0  0  0  0  0
  -16.0872  -42.4088  -14.8580 S   0  0  0  0  0  0  0  0  0  0  0  0
  -15.9741  -43.5614  -14.0089 O   0  0  0  0  0  0  0  0  0  0  0  0
  -13.2622  -38.2974  -16.8191 C   0  0  0  0  0  0  0  0  0  0  0  0
  -12.0540  -41.7134  -18.6421 C   0  0  0  0  0  0  0  0  0  0  0  0
  -14.9360  -42.7777  -22.5377 N   0  0  0  0  0  0  0  0  0  0  0  0
  -14.3659  -43.7228  -23.5164 C   0  0  0  0  0  0  0  0  0  0  0  0
  -21.8433  -45.7810  -26.7275 O   0  0  0  0  0  0  0  0  0  0  0  0
  -14.8909  -43.4087  -21.2368 C   0  0  0  0  0  0  0  0  0  0  0  0
  -13.7748  -43.1106  -20.4202 C   0  0  0  0  0  0  0  0  0  0  0  0
  -13.8136  -43.2533  -19.0447 C   0  0  0  0  0  0  0  0  0  0  0  0
  -14.9306  -43.8612  -18.4871 C   0  0  0  0  0  0  0  0  0  0  0  0
  -15.9494  -44.3882  -19.2914 C   0  0  0  0  0  0  0  0  0  0  0  0
  -15.9404  -44.2005  -20.6935 C   0  0  0  0  0  0  0  0  0  0  0  0
  -12.3279  -40.1221  -13.8465 C   0  0  0  0  0  0  0  0  0  0  0  0
  -12.7979  -41.0907  -12.9633 C   0  0  0  0  0  0  0  0  0  0  0  0
  -13.9634  -41.7754  -13.2698 C   0  0  0  0  0  0  0  0  0  0  0  0
  -14.6474  -41.4780  -14.4571 C   0  0  0  0  0  0  0  0  0  0  0  0
  -14.1949  -40.5004  -15.3347 C   0  0  0  0  0  0  0  0  0  0  0  0
  -13.0242  -39.8209  -15.0236 C   0  0  0  0  0  0  0  0  0  0  0  0
  -17.3810  -46.2584  -21.2528 C   0  0  0  0  0  0  0  0  0  0  0  0
  -18.3056  -46.7271  -22.2343 C   0  0  0  0  0  0  0  0  0  0  0  0
  -18.5544  -45.7793  -23.2013 C   0  0  0  0  0  0  0  0  0  0  0  0
  -17.8238  -44.2915  -22.7977 S   0  0  0  0  0  0  0  0  0  0  0  0
  -16.9613  -44.9511  -21.4726 C   0  0  0  0  0  0  0  0  0  0  0  0
  -14.6180  -41.4326  -22.7450 C   0  0  0  0  0  0  0  0  0  0  0  0
  -14.1105  -40.5395  -21.8220 C   0  0  0  0  0  0  0  0  0  0  0  0
  -13.8483  -39.3810  -22.4777 N   0  0  0  0  0  0  0  0  0  0  0  0
  -14.2652  -39.3814  -23.7403 N   0  0  0  0  0  0  0  0  0  0  0  0
  -14.8287  -40.5962  -23.9043 C   0  0  0  0  0  0  0  0  0  0  0  0
  -16.8640  -41.4872  -24.9641 C   0  0  0  0  0  0  0  0  0  0  0  0
  -15.6380  -40.8412  -25.0922 C   0  0  0  0  0  0  0  0  0  0  0  0
  -15.2771  -40.3271  -26.3356 C   0  0  0  0  0  0  0  0  0  0  0  0
  -16.1442  -40.5146  -27.3970 C   0  0  0  0  0  0  0  0  0  0  0  0
  -17.3300  -41.1546  -27.2997 N   0  0  0  0  0  0  0  0  0  0  0  0
  -17.6636  -41.6214  -26.0793 C   0  0  0  0  0  0  0  0  0  0  0  0
  -21.0215  -47.6696  -26.6130 H   0  0  0  0  0  0  0  0  0  0  0  0
  -20.0874  -46.4636  -27.4777 H   0  0  0  0  0  0  0  0  0  0  0  0
  -16.1732  -42.2481  -17.1643 H   0  0  0  0  0  0  0  0  0  0  0  0
  -14.1941  -37.8952  -16.4068 H   0  0  0  0  0  0  0  0  0  0  0  0
  -12.7111  -37.4638  -17.2652 H   0  0  0  0  0  0  0  0  0  0  0  0
  -13.4647  -39.0205  -17.6140 H   0  0  0  0  0  0  0  0  0  0  0  0
  -11.3662  -41.4454  -17.8346 H   0  0  0  0  0  0  0  0  0  0  0  0
  -11.4609  -41.9555  -19.5262 H   0  0  0  0  0  0  0  0  0  0  0  0
  -12.6894  -40.8456  -18.8364 H   0  0  0  0  0  0  0  0  0  0  0  0
  -13.3303  -43.9826  -23.2739 H   0  0  0  0  0  0  0  0  0  0  0  0
  -14.9470  -44.6477  -23.5390 H   0  0  0  0  0  0  0  0  0  0  0  0
  -14.3835  -43.3218  -24.5336 H   0  0  0  0  0  0  0  0  0  0  0  0
  -22.6164  -46.2885  -26.4008 H   0  0  0  0  0  0  0  0  0  0  0  0
  -12.8896  -42.7031  -20.9018 H   0  0  0  0  0  0  0  0  0  0  0  0
  -16.7613  -44.9380  -18.8193 H   0  0  0  0  0  0  0  0  0  0  0  0
  -11.4079  -39.5890  -13.6163 H   0  0  0  0  0  0  0  0  0  0  0  0
  -12.2507  -41.3145  -12.0516 H   0  0  0  0  0  0  0  0  0  0  0  0
  -14.3251  -42.5426  -12.5882 H   0  0  0  0  0  0  0  0  0  0  0  0
  -14.7541  -40.2953  -16.2383 H   0  0  0  0  0  0  0  0  0  0  0  0
  -17.0031  -46.8867  -20.4545 H   0  0  0  0  0  0  0  0  0  0  0  0
  -18.7048  -47.7354  -22.2620 H   0  0  0  0  0  0  0  0  0  0  0  0
  -13.8789  -40.6093  -20.7750 H   0  0  0  0  0  0  0  0  0  0  0  0
  -17.2164  -41.8262  -23.9999 H   0  0  0  0  0  0  0  0  0  0  0  0
  -14.3496  -39.7808  -26.4722 H   0  0  0  0  0  0  0  0  0  0  0  0
  -15.9086  -40.1416  -28.3880 H   0  0  0  0  0  0  0  0  0  0  0  0
  -18.6353  -42.1004  -26.0094 H   0  0  0  0  0  0  0  0  0  0  0  0
  -13.4259  -38.5362  -22.1079 H   0  0  0  0  0  0  0  0  0  0  0  0
  6 16  1  0
  6  5  1  0
  5  4  3  0
 14 15  1  0
  9  8  1  0
  9 10  1  0
  8  7  2  0
  2 10  2  0
 11 10  2  0
  1 13  1  0
 12  3  1  0
 17 22  1  0
 17 14  1  0
 17 18  2  0
 18 19  1  0
 19 20  2  0
 19  1  1  0
 20 21  1  0
 20  8  1  0
 21 22  2  0
 22 33  1  0
 23 28  2  0
 23 24  1  0
 24 25  2  0
 25 26  1  0
 26 10  1  0
 26 27  2  0
 27 28  1  0
 28  3  1  0
 29 30  1  0
 29 33  2  0
 30 31  2  0
 31  4  1  0
 31 32  1  0
 32 33  1  0
 34 35  2  0
 34 38  1  0
 35 36  1  0
 36 37  1  0
 37 38  2  0
 38 40  1  0
 39 44  2  0
 39 40  1  0
 40 41  2  0
 41 42  1  0
 42 43  2  0
 43 44  1  0
 14 34  1  0
  6 45  1  0
  6 46  1  0
  9 47  1  0
 12 48  1  0
 12 49  1  0
 12 50  1  0
 13 51  1  0
 13 52  1  0
 13 53  1  0
 15 54  1  0
 15 55  1  0
 15 56  1  0
 16 57  1  0
 18 58  1  0
 21 59  1  0
 23 60  1  0
 24 61  1  0
 25 62  1  0
 27 63  1  0
 29 64  1  0
 30 65  1  0
 35 66  1  0
 39 67  1  0
 41 68  1  0
 42 69  1  0
 44 70  1  0
 36 71  1  0
M  END
>  <smiles>  (698) 
[H]OC([H])([H])C#Cc1sc(-c2c([H])c(C(=O)N([H])S(=O)(=O)c3c([H])c([H])c([H])c(OC([H])([H])[H])c3[H])c(OC([H])([H])[H])c([H])c2N(c2c(-c3c([H])c([H])nc([H])c3[H])n[nH]c2[H])C([H])([H])[H])c([H])c1[H]

>  <error>  (698) 


>  <∆∆G>  (698) 
-97.192264

>  <∆G_bound>  (698) 
223.239977

>  <∆G_unbound>  (698) 
320.432241

>  <comRMSD>  (698) 
0.63163

>  <N_constrained_atoms>  (698) 
44.0

>  <N_unconstrained_atoms>  (698) 
0.0

>  <runtime>  (698) 
7.565306

>  <regarded>  (698) 
['5k5m-a', 'd0160a']

>  <disregarded>  (698) 
[]

>  <LE>  (698) 
2.208915

>  <outcome>  (698) 
acceptable

>  <percent_hybrid>  (698) 
25.0

$$$$
LIG
     RDKit          3D

 74 78  0  0  0  0  0  0  0  0999 V2000
  -13.0359  -42.7444  -18.3716 O   0  0  0  0  0  0  0  0  0  0  0  0
  -17.2718  -41.4227  -14.7801 O   0  0  0  0  0  0  0  0  0  0  0  0
  -12.4405  -38.8818  -15.8250 O   0  0  0  0  0  0  0  0  0  0  0  0
  -19.3139  -46.2051  -24.3670 C   0  0  0  0  0  0  0  0  0  0  0  0
  -19.9238  -46.3973  -25.3879 C   0  0  0  0  0  0  0  0  0  0  0  0
  -20.6671  -46.6872  -26.6217 C   0  0  0  0  0  0  0  0  0  0  0  0
  -14.3787  -44.7189  -16.4514 O   0  0  0  0  0  0  0  0  0  0  0  0
  -15.0479  -43.9152  -16.9728 C   0  0  0  0  0  0  0  0  0  0  0  0
  -15.9467  -42.8033  -16.3625 N   0  0  0  0  0  0  0  0  0  0  0  0
  -16.1549  -42.3390  -14.8043 S   0  0  0  0  0  0  0  0  0  0  0  0
  -16.0476  -43.4865  -13.9467 O   0  0  0  0  0  0  0  0  0  0  0  0
  -13.1734  -38.4456  -16.9606 C   0  0  0  0  0  0  0  0  0  0  0  0
  -12.2520  -41.7608  -19.0420 C   0  0  0  0  0  0  0  0  0  0  0  0
  -14.9498  -44.3232  -22.5638 O   0  0  0  0  0  0  0  0  0  0  0  0
  -14.1898  -43.4118  -23.3462 C   0  0  0  0  0  0  0  0  0  0  0  0
  -21.7749  -45.8065  -26.7437 O   0  0  0  0  0  0  0  0  0  0  0  0
  -14.9796  -44.1210  -21.2084 C   0  0  0  0  0  0  0  0  0  0  0  0
  -13.9215  -43.5373  -20.4971 C   0  0  0  0  0  0  0  0  0  0  0  0
  -14.0019  -43.3575  -19.1219 C   0  0  0  0  0  0  0  0  0  0  0  0
  -15.1075  -43.8780  -18.4455 C   0  0  0  0  0  0  0  0  0  0  0  0
  -16.1551  -44.5152  -19.1287 C   0  0  0  0  0  0  0  0  0  0  0  0
  -16.1089  -44.6233  -20.5259 C   0  0  0  0  0  0  0  0  0  0  0  0
  -12.3642  -40.0886  -13.8358 C   0  0  0  0  0  0  0  0  0  0  0  0
  -12.8568  -41.0233  -12.9291 C   0  0  0  0  0  0  0  0  0  0  0  0
  -14.0322  -41.6950  -13.2251 C   0  0  0  0  0  0  0  0  0  0  0  0
  -14.7032  -41.4196  -14.4256 C   0  0  0  0  0  0  0  0  0  0  0  0
  -14.2235  -40.4814  -15.3308 C   0  0  0  0  0  0  0  0  0  0  0  0
  -13.0428  -39.8135  -15.0301 C   0  0  0  0  0  0  0  0  0  0  0  0
  -17.5711  -46.6581  -21.1234 C   0  0  0  0  0  0  0  0  0  0  0  0
  -18.4315  -47.0609  -22.1915 C   0  0  0  0  0  0  0  0  0  0  0  0
  -18.6403  -46.0510  -23.1083 C   0  0  0  0  0  0  0  0  0  0  0  0
  -18.0369  -44.5696  -22.5192 S   0  0  0  0  0  0  0  0  0  0  0  0
  -17.1604  -45.3465  -21.2593 C   0  0  0  0  0  0  0  0  0  0  0  0
  -15.5863  -39.7714  -26.4588 C   0  0  0  0  0  0  0  0  0  0  0  0
  -14.8293  -41.2959  -24.6292 C   0  0  0  0  0  0  0  0  0  0  0  0
  -15.0257  -42.6235  -24.2980 C   0  0  0  0  0  0  0  0  0  0  0  0
  -16.1212  -43.0681  -25.0797 C   0  0  0  0  0  0  0  0  0  0  0  0
  -16.5137  -42.0326  -25.8941 C   0  0  0  0  0  0  0  0  0  0  0  0
  -15.6709  -40.9823  -25.6593 N   0  0  0  0  0  0  0  0  0  0  0  0
  -17.7479  -38.6385  -27.0392 C   0  0  0  0  0  0  0  0  0  0  0  0
  -16.7029  -38.8251  -26.1404 C   0  0  0  0  0  0  0  0  0  0  0  0
  -16.7464  -38.1065  -24.9436 C   0  0  0  0  0  0  0  0  0  0  0  0
  -17.8088  -37.2437  -24.6996 C   0  0  0  0  0  0  0  0  0  0  0  0
  -18.7972  -37.1281  -25.6650 C   0  0  0  0  0  0  0  0  0  0  0  0
  -18.7947  -37.8018  -26.8382 N   0  0  0  0  0  0  0  0  0  0  0  0
  -21.0174  -47.7214  -26.6687 H   0  0  0  0  0  0  0  0  0  0  0  0
  -20.0301  -46.5236  -27.4885 H   0  0  0  0  0  0  0  0  0  0  0  0
  -16.4554  -42.3329  -17.1041 H   0  0  0  0  0  0  0  0  0  0  0  0
  -14.1359  -38.0105  -16.6705 H   0  0  0  0  0  0  0  0  0  0  0  0
  -12.5906  -37.6606  -17.4524 H   0  0  0  0  0  0  0  0  0  0  0  0
  -13.3082  -39.2567  -17.6823 H   0  0  0  0  0  0  0  0  0  0  0  0
  -11.6300  -41.2620  -18.2929 H   0  0  0  0  0  0  0  0  0  0  0  0
  -11.5894  -42.2077  -19.7856 H   0  0  0  0  0  0  0  0  0  0  0  0
  -12.8913  -41.0035  -19.5087 H   0  0  0  0  0  0  0  0  0  0  0  0
  -13.6605  -42.6772  -22.7401 H   0  0  0  0  0  0  0  0  0  0  0  0
  -13.4520  -43.9938  -23.9075 H   0  0  0  0  0  0  0  0  0  0  0  0
  -22.5501  -46.2719  -26.3652 H   0  0  0  0  0  0  0  0  0  0  0  0
  -12.9939  -43.2946  -21.0038 H   0  0  0  0  0  0  0  0  0  0  0  0
  -16.9863  -44.9458  -18.5775 H   0  0  0  0  0  0  0  0  0  0  0  0
  -11.4379  -39.5632  -13.6127 H   0  0  0  0  0  0  0  0  0  0  0  0
  -12.3210  -41.2293  -12.0067 H   0  0  0  0  0  0  0  0  0  0  0  0
  -14.4134  -42.4350  -12.5243 H   0  0  0  0  0  0  0  0  0  0  0  0
  -14.7727  -40.2964  -16.2451 H   0  0  0  0  0  0  0  0  0  0  0  0
  -17.1949  -47.3374  -20.3682 H   0  0  0  0  0  0  0  0  0  0  0  0
  -18.8003  -48.0715  -22.3218 H   0  0  0  0  0  0  0  0  0  0  0  0
  -14.6135  -39.3017  -26.2813 H   0  0  0  0  0  0  0  0  0  0  0  0
  -15.6080  -40.0840  -27.5095 H   0  0  0  0  0  0  0  0  0  0  0  0
  -14.1042  -40.5811  -24.2673 H   0  0  0  0  0  0  0  0  0  0  0  0
  -16.5553  -44.0540  -25.0718 H   0  0  0  0  0  0  0  0  0  0  0  0
  -17.2933  -41.9788  -26.6376 H   0  0  0  0  0  0  0  0  0  0  0  0
  -17.7706  -39.1726  -27.9855 H   0  0  0  0  0  0  0  0  0  0  0  0
  -15.9611  -38.2206  -24.2014 H   0  0  0  0  0  0  0  0  0  0  0  0
  -17.8696  -36.6787  -23.7761 H   0  0  0  0  0  0  0  0  0  0  0  0
  -19.6473  -36.4692  -25.5100 H   0  0  0  0  0  0  0  0  0  0  0  0
  6 16  1  0
  6  5  1  0
  5  4  3  0
 14 15  1  0
  9  8  1  0
  9 10  1  0
  8  7  2  0
  2 10  2  0
 11 10  2  0
  1 13  1  0
 12  3  1  0
 17 22  1  0
 17 14  1  0
 17 18  2  0
 18 19  1  0
 19 20  2  0
 19  1  1  0
 20 21  1  0
 20  8  1  0
 21 22  2  0
 22 33  1  0
 23 28  2  0
 23 24  1  0
 24 25  2  0
 25 26  1  0
 26 10  1  0
 26 27  2  0
 27 28  1  0
 28  3  1  0
 29 30  1  0
 29 33  2  0
 30 31  2  0
 31  4  1  0
 31 32  1  0
 32 33  1  0
 35 36  2  0
 35 39  1  0
 36 37  1  0
 37 38  2  0
 38 39  1  0
 39 34  1  0
 40 45  2  0
 40 41  1  0
 41 34  1  0
 41 42  2  0
 42 43  1  0
 43 44  2  0
 44 45  1  0
 15 36  1  0
  6 46  1  0
  6 47  1  0
  9 48  1  0
 12 49  1  0
 12 50  1  0
 12 51  1  0
 13 52  1  0
 13 53  1  0
 13 54  1  0
 15 55  1  0
 15 56  1  0
 16 57  1  0
 18 58  1  0
 21 59  1  0
 23 60  1  0
 24 61  1  0
 25 62  1  0
 27 63  1  0
 29 64  1  0
 30 65  1  0
 34 66  1  0
 34 67  1  0
 35 68  1  0
 37 69  1  0
 38 70  1  0
 40 71  1  0
 42 72  1  0
 43 73  1  0
 44 74  1  0
M  END
>  <smiles>  (699) 
[H]OC([H])([H])C#Cc1sc(-c2c([H])c(C(=O)N([H])S(=O)(=O)c3c([H])c([H])c([H])c(OC([H])([H])[H])c3[H])c(OC([H])([H])[H])c([H])c2OC([H])([H])c2c([H])c([H])n(C([H])([H])c3c([H])nc([H])c([H])c3[H])c2[H])c([H])c1[H]

>  <error>  (699) 


>  <∆∆G>  (699) 
-132.23963

>  <∆G_bound>  (699) 
236.567105

>  <∆G_unbound>  (699) 
368.806735

>  <comRMSD>  (699) 
0.585156

>  <N_constrained_atoms>  (699) 
45.0

>  <N_unconstrained_atoms>  (699) 
0.0

>  <runtime>  (699) 
5.206933

>  <regarded>  (699) 
['5k5m-a', 'd0191a']

>  <disregarded>  (699) 
[]

>  <LE>  (699) 
2.938658

>  <outcome>  (699) 
acceptable

>  <percent_hybrid>  (699) 
27.0

$$$$
LIG
     RDKit          3D

 77 81  0  0  0  0  0  0  0  0999 V2000
  -13.2949  -41.8526  -18.6112 O   0  0  0  0  0  0  0  0  0  0  0  0
  -17.2384  -41.7903  -14.6045 O   0  0  0  0  0  0  0  0  0  0  0  0
  -12.4685  -38.8190  -15.6334 O   0  0  0  0  0  0  0  0  0  0  0  0
  -19.2762  -46.2386  -24.3160 C   0  0  0  0  0  0  0  0  0  0  0  0
  -19.9167  -46.4180  -25.3225 C   0  0  0  0  0  0  0  0  0  0  0  0
  -20.6506  -46.6901  -26.5705 C   0  0  0  0  0  0  0  0  0  0  0  0
  -14.0585  -44.3604  -16.9009 O   0  0  0  0  0  0  0  0  0  0  0  0
  -14.8535  -43.5822  -17.2590 C   0  0  0  0  0  0  0  0  0  0  0  0
  -15.8432  -42.7041  -16.4413 N   0  0  0  0  0  0  0  0  0  0  0  0
  -16.0083  -42.5144  -14.8260 S   0  0  0  0  0  0  0  0  0  0  0  0
  -15.6786  -43.7677  -14.1994 O   0  0  0  0  0  0  0  0  0  0  0  0
  -13.1125  -38.4730  -16.8520 C   0  0  0  0  0  0  0  0  0  0  0  0
  -12.0988  -41.4742  -19.2870 C   0  0  0  0  0  0  0  0  0  0  0  0
  -15.0421  -43.3672  -22.8563 N   0  0  0  0  0  0  0  0  0  0  0  0
  -13.7641  -44.0559  -23.0443 C   0  0  0  0  0  0  0  0  0  0  0  0
  -21.7368  -45.7872  -26.7155 O   0  0  0  0  0  0  0  0  0  0  0  0
  -19.5232  -43.8664  -22.3704 O   0  0  0  0  0  0  0  0  0  0  0  0
  -15.6374  -38.9844  -25.1540 C   0  0  0  0  0  0  0  0  0  0  0  0
  -15.2959  -43.1543  -21.4703 C   0  0  0  0  0  0  0  0  0  0  0  0
  -14.3560  -42.3853  -20.7417 C   0  0  0  0  0  0  0  0  0  0  0  0
  -14.2280  -42.5063  -19.3655 C   0  0  0  0  0  0  0  0  0  0  0  0
  -15.0891  -43.3711  -18.6994 C   0  0  0  0  0  0  0  0  0  0  0  0
  -16.0626  -44.1251  -19.3864 C   0  0  0  0  0  0  0  0  0  0  0  0
  -16.2358  -43.9477  -20.7765 C   0  0  0  0  0  0  0  0  0  0  0  0
  -12.4895  -39.9735  -13.6101 C   0  0  0  0  0  0  0  0  0  0  0  0
  -13.0011  -40.9171  -12.7214 C   0  0  0  0  0  0  0  0  0  0  0  0
  -14.1065  -41.6661  -13.0930 C   0  0  0  0  0  0  0  0  0  0  0  0
  -14.6893  -41.4564  -14.3499 C   0  0  0  0  0  0  0  0  0  0  0  0
  -14.1909  -40.5099  -15.2382 C   0  0  0  0  0  0  0  0  0  0  0  0
  -13.0803  -39.7652  -14.8627 C   0  0  0  0  0  0  0  0  0  0  0  0
  -17.8036  -45.8828  -20.8571 C   0  0  0  0  0  0  0  0  0  0  0  0
  -18.7214  -46.6644  -21.7788 C   0  0  0  0  0  0  0  0  0  0  0  0
  -18.3994  -46.0770  -23.1554 C   0  0  2  0  0  0  0  0  0  0  0  0
  -18.0538  -44.3873  -22.8170 S   0  0  2  0  0  0  0  0  0  0  0  0
  -17.2848  -44.7601  -21.3636 C   0  0  0  0  0  0  0  0  0  0  0  0
  -16.8923  -45.1540  -18.6476 C   0  0  0  0  0  0  0  0  0  0  0  0
  -17.5038  -46.2928  -19.4760 C   0  0  0  0  0  0  0  0  0  0  0  0
  -16.3349  -42.4701  -26.2083 C   0  0  0  0  0  0  0  0  0  0  0  0
  -15.8692  -43.2001  -25.0714 C   0  0  0  0  0  0  0  0  0  0  0  0
  -15.4724  -42.5717  -23.8966 N   0  0  0  0  0  0  0  0  0  0  0  0
  -15.3836  -41.1790  -23.9500 C   0  0  0  0  0  0  0  0  0  0  0  0
  -15.7594  -40.4554  -25.0254 C   0  0  0  0  0  0  0  0  0  0  0  0
  -16.2940  -41.1358  -26.1914 C   0  0  0  0  0  0  0  0  0  0  0  0
  -21.0242  -47.7156  -26.6252 H   0  0  0  0  0  0  0  0  0  0  0  0
  -19.9974  -46.5468  -27.4293 H   0  0  0  0  0  0  0  0  0  0  0  0
  -16.4525  -42.1973  -17.0768 H   0  0  0  0  0  0  0  0  0  0  0  0
  -14.1260  -38.0977  -16.6745 H   0  0  0  0  0  0  0  0  0  0  0  0
  -12.5374  -37.6653  -17.3150 H   0  0  0  0  0  0  0  0  0  0  0  0
  -13.1188  -39.3141  -17.5498 H   0  0  0  0  0  0  0  0  0  0  0  0
  -11.3481  -41.2363  -18.5281 H   0  0  0  0  0  0  0  0  0  0  0  0
  -11.7127  -42.2835  -19.9132 H   0  0  0  0  0  0  0  0  0  0  0  0
  -12.2684  -40.5719  -19.8832 H   0  0  0  0  0  0  0  0  0  0  0  0
  -12.9647  -43.5713  -22.4926 H   0  0  0  0  0  0  0  0  0  0  0  0
  -13.8604  -45.0675  -22.6549 H   0  0  0  0  0  0  0  0  0  0  0  0
  -13.4677  -44.1125  -24.0954 H   0  0  0  0  0  0  0  0  0  0  0  0
  -22.4797  -46.1656  -26.2034 H   0  0  0  0  0  0  0  0  0  0  0  0
  -19.6836  -43.7927  -21.4006 H   0  0  0  0  0  0  0  0  0  0  0  0
  -15.1160  -38.5507  -24.2951 H   0  0  0  0  0  0  0  0  0  0  0  0
  -15.0877  -38.7298  -26.0646 H   0  0  0  0  0  0  0  0  0  0  0  0
  -16.6266  -38.5171  -25.2107 H   0  0  0  0  0  0  0  0  0  0  0  0
  -13.6656  -41.7634  -21.3044 H   0  0  0  0  0  0  0  0  0  0  0  0
  -11.6163  -39.3896  -13.3268 H   0  0  0  0  0  0  0  0  0  0  0  0
  -12.5304  -41.0709  -11.7543 H   0  0  0  0  0  0  0  0  0  0  0  0
  -14.4997  -42.4205  -12.4145 H   0  0  0  0  0  0  0  0  0  0  0  0
  -14.6607  -40.3810  -16.2046 H   0  0  0  0  0  0  0  0  0  0  0  0
  -18.5103  -47.7372  -21.7555 H   0  0  0  0  0  0  0  0  0  0  0  0
  -19.7409  -46.4907  -21.4419 H   0  0  0  0  0  0  0  0  0  0  0  0
  -17.4248  -46.4776  -23.3925 H   0  0  0  0  0  0  0  0  0  0  0  0
  -17.6897  -44.6168  -18.1197 H   0  0  0  0  0  0  0  0  0  0  0  0
  -16.2400  -45.6424  -17.9189 H   0  0  0  0  0  0  0  0  0  0  0  0
  -16.8218  -47.1510  -19.4969 H   0  0  0  0  0  0  0  0  0  0  0  0
  -18.4270  -46.5982  -18.9764 H   0  0  0  0  0  0  0  0  0  0  0  0
  -16.6541  -43.0082  -27.0839 H   0  0  0  0  0  0  0  0  0  0  0  0
  -15.8445  -44.2742  -25.0585 H   0  0  0  0  0  0  0  0  0  0  0  0
  -14.9774  -40.7194  -23.0602 H   0  0  0  0  0  0  0  0  0  0  0  0
  -16.6078  -40.5538  -27.0530 H   0  0  0  0  0  0  0  0  0  0  0  0
  -17.4795  -43.5919  -23.7210 H   0  0  0  0  0  0  0  0  0  0  0  0
  6 16  1  0
  6  5  1  0
  5  4  3  0
 14 15  1  0
  9  8  1  0
  9 10  1  0
  8  7  2  0
  2 10  2  0
 11 10  2  0
  1 13  1  0
 12  3  1  0
 19 24  1  0
 19 14  1  0
 19 20  2  0
 20 21  1  0
 21 22  2  0
 21  1  1  0
 22 23  1  0
 22  8  1  0
 23 24  2  0
 24 35  1  0
 25 30  2  0
 25 26  1  0
 26 27  2  0
 27 28  1  0
 28 10  1  0
 28 29  2  0
 29 30  1  0
 30  3  1  0
 31 32  1  0
 31 35  2  0
 32 33  1  0
 33  4  1  0
 33 34  1  0
 34 35  1  0
 36 37  1  0
 38 43  2  0
 38 39  1  0
 39 40  4  0
 40 41  1  0
 41 42  2  0
 42 18  1  0
 42 43  1  0
 23 36  1  0
 31 37  1  0
 34 17  1  0
 14 40  1  0
  6 44  1  0
  6 45  1  0
  9 46  1  0
 12 47  1  0
 12 48  1  0
 12 49  1  0
 13 50  1  0
 13 51  1  0
 13 52  1  0
 15 53  1  0
 15 54  1  0
 15 55  1  0
 16 56  1  0
 17 57  1  0
 18 58  1  0
 18 59  1  0
 18 60  1  0
 20 61  1  0
 25 62  1  0
 26 63  1  0
 27 64  1  0
 29 65  1  0
 32 66  1  0
 32 67  1  0
 33 68  1  1
 36 69  1  0
 36 70  1  0
 37 71  1  0
 37 72  1  0
 38 73  1  0
 39 74  1  0
 41 75  1  0
 43 76  1  0
 34 77  1  6
M  END
>  <smiles>  (700) 
[H]O[S@H]1C2=C(C([H])([H])C([H])([H])c3c(C(=O)N([H])S(=O)(=O)c4c([H])c([H])c([H])c(OC([H])([H])[H])c4[H])c(OC([H])([H])[H])c([H])c(N(N4:C([H])C([H])=C([H])C(C([H])([H])[H])=C4[H])C([H])([H])[H])c32)C([H])([H])[C@]1([H])C#CC([H])([H])O[H]

>  <error>  (700) 


>  <∆∆G>  (700) 
-83.118072

>  <∆G_bound>  (700) 
242.358783

>  <∆G_unbound>  (700) 
325.476854

>  <comRMSD>  (700) 
0.939004

>  <N_constrained_atoms>  (700) 
43.0

>  <N_unconstrained_atoms>  (700) 
0.0

>  <runtime>  (700) 
18.133208

>  <regarded>  (700) 
['5k5m-a', 'd0254a']

>  <disregarded>  (700) 
[]

>  <LE>  (700) 
1.932978

>  <outcome>  (700) 
acceptable

>  <percent_hybrid>  (700) 
24.0

$$$$

     RDKit          2D

  0  0  0  0  0  0  0  0  0  0999 V2000
M  END
>  <smiles>  (701) 
nan

>  <error>  (701) 
TimeoutError

>  <∆∆G>  (701) 
nan

>  <∆G_bound>  (701) 
nan

>  <∆G_unbound>  (701) 
nan

>  <comRMSD>  (701) 
nan

>  <N_constrained_atoms>  (701) 
nan

>  <N_unconstrained_atoms>  (701) 
nan

>  <runtime>  (701) 
nan

>  <regarded>  (701) 
[]

>  <disregarded>  (701) 
[]

>  <LE>  (701) 
nan

>  <outcome>  (701) 
timeout

>  <percent_hybrid>  (701) 
nan

$$$$
LIG
     RDKit          3D

 54 56  0  0  0  0  0  0  0  0999 V2000
  -13.1181  -42.3858  -18.6776 O   0  0  0  0  0  0  0  0  0  0  0  0
  -17.2759  -41.6518  -14.8290 O   0  0  0  0  0  0  0  0  0  0  0  0
  -12.4423  -38.8426  -15.7104 O   0  0  0  0  0  0  0  0  0  0  0  0
  -19.3561  -46.2431  -24.4414 C   0  0  0  0  0  0  0  0  0  0  0  0
  -19.9713  -46.4353  -25.4578 C   0  0  0  0  0  0  0  0  0  0  0  0
  -20.7105  -46.7120  -26.6928 C   0  0  0  0  0  0  0  0  0  0  0  0
  -14.1399  -44.5529  -16.7617 O   0  0  0  0  0  0  0  0  0  0  0  0
  -14.9076  -43.7989  -17.2166 C   0  0  0  0  0  0  0  0  0  0  0  0
  -15.8213  -42.7513  -16.5226 N   0  0  0  0  0  0  0  0  0  0  0  0
  -16.0756  -42.4485  -14.9318 S   0  0  0  0  0  0  0  0  0  0  0  0
  -15.8439  -43.6655  -14.2008 O   0  0  0  0  0  0  0  0  0  0  0  0
  -13.0572  -38.5076  -16.9467 C   0  0  0  0  0  0  0  0  0  0  0  0
  -12.1489  -41.6265  -19.3890 C   0  0  0  0  0  0  0  0  0  0  0  0
  -15.1198  -44.0965  -22.8057 O   0  0  0  0  0  0  0  0  0  0  0  0
  -14.1403  -43.4972  -23.6245 C   0  0  0  0  0  0  0  0  0  0  0  0
  -21.8139  -45.8246  -26.8142 O   0  0  0  0  0  0  0  0  0  0  0  0
  -15.0647  -43.9010  -21.4515 C   0  0  0  0  0  0  0  0  0  0  0  0
  -14.0485  -43.1883  -20.8014 C   0  0  0  0  0  0  0  0  0  0  0  0
  -14.0424  -43.0791  -19.4114 C   0  0  0  0  0  0  0  0  0  0  0  0
  -15.0497  -43.7248  -18.6831 C   0  0  0  0  0  0  0  0  0  0  0  0
  -16.0778  -44.4374  -19.3153 C   0  0  0  0  0  0  0  0  0  0  0  0
  -16.1083  -44.5087  -20.7134 C   0  0  0  0  0  0  0  0  0  0  0  0
  -12.4987  -39.9965  -13.6874 C   0  0  0  0  0  0  0  0  0  0  0  0
  -13.0359  -40.9286  -12.8024 C   0  0  0  0  0  0  0  0  0  0  0  0
  -14.1553  -41.6528  -13.1819 C   0  0  0  0  0  0  0  0  0  0  0  0
  -14.7261  -41.4316  -14.4434 C   0  0  0  0  0  0  0  0  0  0  0  0
  -14.2015  -40.4972  -15.3276 C   0  0  0  0  0  0  0  0  0  0  0  0
  -13.0774  -39.7769  -14.9441 C   0  0  0  0  0  0  0  0  0  0  0  0
  -17.5803  -46.5738  -21.2024 C   0  0  0  0  0  0  0  0  0  0  0  0
  -18.4511  -47.0220  -22.2439 C   0  0  0  0  0  0  0  0  0  0  0  0
  -18.6670  -46.0518  -23.2001 C   0  0  0  0  0  0  0  0  0  0  0  0
  -18.0452  -44.5498  -22.6988 S   0  0  0  0  0  0  0  0  0  0  0  0
  -17.1619  -45.2728  -21.4045 C   0  0  0  0  0  0  0  0  0  0  0  0
  -21.0664  -47.7440  -26.7482 H   0  0  0  0  0  0  0  0  0  0  0  0
  -20.0641  -46.5384  -27.5503 H   0  0  0  0  0  0  0  0  0  0  0  0
  -16.3060  -42.2040  -17.2271 H   0  0  0  0  0  0  0  0  0  0  0  0
  -14.0639  -38.1042  -16.7938 H   0  0  0  0  0  0  0  0  0  0  0  0
  -12.4551  -37.7240  -17.4169 H   0  0  0  0  0  0  0  0  0  0  0  0
  -13.0729  -39.3640  -17.6273 H   0  0  0  0  0  0  0  0  0  0  0  0
  -11.4758  -41.1704  -18.6573 H   0  0  0  0  0  0  0  0  0  0  0  0
  -11.5512  -42.2535  -20.0534 H   0  0  0  0  0  0  0  0  0  0  0  0
  -12.6295  -40.8195  -19.9521 H   0  0  0  0  0  0  0  0  0  0  0  0
  -14.0915  -42.4173  -23.4571 H   0  0  0  0  0  0  0  0  0  0  0  0
  -13.1810  -43.9972  -23.4788 H   0  0  0  0  0  0  0  0  0  0  0  0
  -14.4427  -43.6432  -24.6630 H   0  0  0  0  0  0  0  0  0  0  0  0
  -22.5850  -46.2802  -26.4142 H   0  0  0  0  0  0  0  0  0  0  0  0
  -13.2436  -42.7569  -21.3832 H   0  0  0  0  0  0  0  0  0  0  0  0
  -16.8327  -44.9476  -18.7235 H   0  0  0  0  0  0  0  0  0  0  0  0
  -11.6155  -39.4309  -13.3984 H   0  0  0  0  0  0  0  0  0  0  0  0
  -12.5759  -41.0924  -11.8319 H   0  0  0  0  0  0  0  0  0  0  0  0
  -14.5696  -42.3957  -12.5031 H   0  0  0  0  0  0  0  0  0  0  0  0
  -14.6672  -40.3573  -16.2943 H   0  0  0  0  0  0  0  0  0  0  0  0
  -17.2041  -47.2186  -20.4174 H   0  0  0  0  0  0  0  0  0  0  0  0
  -18.8258  -48.0357  -22.3244 H   0  0  0  0  0  0  0  0  0  0  0  0
  6 16  1  0
  6  5  1  0
  5  4  3  0
 14 15  1  0
  9  8  1  0
  9 10  1  0
  8  7  2  0
  2 10  2  0
 11 10  2  0
  1 13  1  0
 12  3  1  0
 17 22  2  0
 17 14  1  0
 17 18  1  0
 18 19  2  0
 19 20  1  0
 19  1  1  0
 20 21  2  0
 20  8  1  0
 21 22  1  0
 22 33  1  0
 23 28  2  0
 23 24  1  0
 24 25  2  0
 25 26  1  0
 26 10  1  0
 26 27  2  0
 27 28  1  0
 28  3  1  0
 29 30  1  0
 29 33  2  0
 30 31  2  0
 31  4  1  0
 31 32  1  0
 32 33  1  0
  6 34  1  0
  6 35  1  0
  9 36  1  0
 12 37  1  0
 12 38  1  0
 12 39  1  0
 13 40  1  0
 13 41  1  0
 13 42  1  0
 15 43  1  0
 15 44  1  0
 15 45  1  0
 16 46  1  0
 18 47  1  0
 21 48  1  0
 23 49  1  0
 24 50  1  0
 25 51  1  0
 27 52  1  0
 29 53  1  0
 30 54  1  0
M  END
>  <smiles>  (702) 
[H]OC([H])([H])C#Cc1sc(-c2c([H])c(C(=O)N([H])S(=O)(=O)c3c([H])c([H])c([H])c(OC([H])([H])[H])c3[H])c(OC([H])([H])[H])c([H])c2OC([H])([H])[H])c([H])c1[H]

>  <error>  (702) 


>  <∆∆G>  (702) 
-291.265059

>  <∆G_bound>  (702) 
-15.217521

>  <∆G_unbound>  (702) 
276.047538

>  <comRMSD>  (702) 
0.584808

>  <N_constrained_atoms>  (702) 
33.0

>  <N_unconstrained_atoms>  (702) 
0.0

>  <runtime>  (702) 
4.547431

>  <regarded>  (702) 
['5k5m-a', 'd0472a']

>  <disregarded>  (702) 
[]

>  <LE>  (702) 
8.826214

>  <outcome>  (702) 
equally sized

>  <percent_hybrid>  (702) 
0.0

$$$$

     RDKit          2D

  0  0  0  0  0  0  0  0  0  0999 V2000
M  END
>  <smiles>  (703) 
nan

>  <error>  (703) 
FragmensteinError Ideal compound failed. Something is wrong with the SMILES

>  <∆∆G>  (703) 
nan

>  <∆G_bound>  (703) 
nan

>  <∆G_unbound>  (703) 
nan

>  <comRMSD>  (703) 
nan

>  <N_constrained_atoms>  (703) 
nan

>  <N_unconstrained_atoms>  (703) 
nan

>  <runtime>  (703) 
nan

>  <regarded>  (703) 
[]

>  <disregarded>  (703) 
[]

>  <LE>  (703) 
nan

>  <outcome>  (703) 
crashed

>  <percent_hybrid>  (703) 
nan

$$$$
LIG
     RDKit          3D

 86 90  0  0  0  0  0  0  0  0999 V2000
  -13.3563  -41.3847  -18.1356 O   0  0  0  0  0  0  0  0  0  0  0  0
  -16.7980  -40.9536  -14.2730 O   0  0  0  0  0  0  0  0  0  0  0  0
  -12.1029  -38.4699  -15.5258 O   0  0  0  0  0  0  0  0  0  0  0  0
  -19.6062  -44.9440  -24.3400 C   0  0  0  0  0  0  0  0  0  0  0  0
  -20.3061  -45.2454  -25.2754 C   0  0  0  0  0  0  0  0  0  0  0  0
  -21.0551  -45.8511  -26.3937 C   0  0  0  0  0  0  0  0  0  0  0  0
  -14.4938  -44.1641  -16.6744 O   0  0  0  0  0  0  0  0  0  0  0  0
  -15.1260  -43.1936  -16.9852 C   0  0  0  0  0  0  0  0  0  0  0  0
  -15.7850  -42.1905  -16.1696 N   0  0  0  0  0  0  0  0  0  0  0  0
  -15.8068  -41.9705  -14.5464 S   0  0  0  0  0  0  0  0  0  0  0  0
  -15.7891  -43.2451  -13.8744 O   0  0  0  0  0  0  0  0  0  0  0  0
  -12.9330  -37.9125  -16.5373 C   0  0  0  0  0  0  0  0  0  0  0  0
  -11.9925  -41.7864  -18.2717 C   0  0  0  0  0  0  0  0  0  0  0  0
  -14.4625  -42.9930  -22.4354 O   0  0  0  0  0  0  0  0  0  0  0  0
  -13.6434  -44.1651  -22.5087 C   0  0  0  0  0  0  0  0  0  0  0  0
  -22.2676  -45.1650  -26.6360 O   0  0  0  0  0  0  0  0  0  0  0  0
  -15.6016  -44.5729  -24.2716 F   0  0  0  0  0  0  0  0  0  0  0  0
  -15.7223  -39.8520  -24.5348 N   0  0  0  0  0  0  0  0  0  0  0  0
  -16.0189  -39.4427  -25.9072 C   0  0  0  0  0  0  0  0  0  0  0  0
  -20.0031  -35.9676  -25.4602 C   0  0  0  0  0  0  0  0  0  0  0  0
  -14.8759  -42.8295  -21.1445 C   0  0  0  0  0  0  0  0  0  0  0  0
  -14.0323  -42.0528  -20.3409 C   0  0  0  0  0  0  0  0  0  0  0  0
  -14.1800  -42.0896  -18.9662 C   0  0  0  0  0  0  0  0  0  0  0  0
  -15.1990  -42.8634  -18.4206 C   0  0  0  0  0  0  0  0  0  0  0  0
  -16.1131  -43.5374  -19.2440 C   0  0  0  0  0  0  0  0  0  0  0  0
  -16.0072  -43.4930  -20.6523 C   0  0  0  0  0  0  0  0  0  0  0  0
  -11.7141  -40.1169  -13.9230 C   0  0  0  0  0  0  0  0  0  0  0  0
  -12.0785  -41.2402  -13.1775 C   0  0  0  0  0  0  0  0  0  0  0  0
  -13.3349  -41.8087  -13.3559 C   0  0  0  0  0  0  0  0  0  0  0  0
  -14.2185  -41.2327  -14.2716 C   0  0  0  0  0  0  0  0  0  0  0  0
  -13.8649  -40.0979  -15.0091 C   0  0  0  0  0  0  0  0  0  0  0  0
  -12.5978  -39.5474  -14.8460 C   0  0  0  0  0  0  0  0  0  0  0  0
  -18.1812  -44.8661  -20.7977 C   0  0  0  0  0  0  0  0  0  0  0  0
  -19.2324  -45.2790  -21.8340 C   0  0  0  0  0  0  0  0  0  0  0  0
  -18.6710  -44.9912  -23.2141 C   0  0  2  0  0  0  0  0  0  0  0  0
  -17.6021  -43.6228  -22.9958 S   0  0  1  0  0  0  0  0  0  0  0  0
  -16.9102  -44.3450  -21.5190 C   0  0  1  0  0  0  0  0  0  0  0  0
  -16.5631  -43.6430  -24.4054 C   0  0  1  0  0  0  0  0  0  0  0  0
  -15.9600  -42.3157  -24.8332 C   0  0  0  0  0  0  0  0  0  0  0  0
  -16.3714  -41.0765  -24.0191 C   0  0  2  0  0  0  0  0  0  0  0  0
  -17.9001  -41.0239  -23.7524 C   0  0  0  0  0  0  0  0  0  0  0  0
  -18.3271  -42.0921  -22.8093 N   0  0  0  0  0  0  0  0  0  0  0  0
  -18.2880  -38.8023  -26.9694 C   0  0  0  0  0  0  0  0  0  0  0  0
  -19.3129  -37.8730  -26.9037 N   0  0  0  0  0  0  0  0  0  0  0  0
  -19.0893  -37.0594  -25.8902 C   0  0  0  0  0  0  0  0  0  0  0  0
  -17.6129  -37.3001  -25.0494 S   0  0  0  0  0  0  0  0  0  0  0  0
  -17.2768  -38.6567  -26.0425 C   0  0  0  0  0  0  0  0  0  0  0  0
  -21.2674  -46.9049  -26.2096 H   0  0  0  0  0  0  0  0  0  0  0  0
  -20.4708  -45.8235  -27.3132 H   0  0  0  0  0  0  0  0  0  0  0  0
  -16.2979  -41.5550  -16.7737 H   0  0  0  0  0  0  0  0  0  0  0  0
  -13.8500  -37.4949  -16.1086 H   0  0  0  0  0  0  0  0  0  0  0  0
  -12.3820  -37.0909  -17.0052 H   0  0  0  0  0  0  0  0  0  0  0  0
  -13.1581  -38.6470  -17.3171 H   0  0  0  0  0  0  0  0  0  0  0  0
  -11.4396  -41.3868  -17.4165 H   0  0  0  0  0  0  0  0  0  0  0  0
  -11.9009  -42.8779  -18.2538 H   0  0  0  0  0  0  0  0  0  0  0  0
  -11.5521  -41.3693  -19.1825 H   0  0  0  0  0  0  0  0  0  0  0  0
  -14.2649  -45.0598  -22.4602 H   0  0  0  0  0  0  0  0  0  0  0  0
  -13.1261  -44.1670  -23.4699 H   0  0  0  0  0  0  0  0  0  0  0  0
  -12.9216  -44.2002  -21.6899 H   0  0  0  0  0  0  0  0  0  0  0  0
  -22.9889  -45.8019  -26.4429 H   0  0  0  0  0  0  0  0  0  0  0  0
  -14.7135  -40.0072  -24.4855 H   0  0  0  0  0  0  0  0  0  0  0  0
  -15.2012  -38.7939  -26.2429 H   0  0  0  0  0  0  0  0  0  0  0  0
  -16.0068  -40.2808  -26.6097 H   0  0  0  0  0  0  0  0  0  0  0  0
  -20.2632  -36.0659  -24.4015 H   0  0  0  0  0  0  0  0  0  0  0  0
  -19.5401  -34.9889  -25.6209 H   0  0  0  0  0  0  0  0  0  0  0  0
  -20.9328  -35.9997  -26.0375 H   0  0  0  0  0  0  0  0  0  0  0  0
  -13.2145  -41.5075  -20.8021 H   0  0  0  0  0  0  0  0  0  0  0  0
  -16.8579  -44.1600  -18.7542 H   0  0  0  0  0  0  0  0  0  0  0  0
  -10.7261  -39.6821  -13.7873 H   0  0  0  0  0  0  0  0  0  0  0  0
  -11.3779  -41.6734  -12.4680 H   0  0  0  0  0  0  0  0  0  0  0  0
  -13.6134  -42.6932  -12.7874 H   0  0  0  0  0  0  0  0  0  0  0  0
  -14.5835  -39.6756  -15.7020 H   0  0  0  0  0  0  0  0  0  0  0  0
  -18.6291  -44.0800  -20.1755 H   0  0  0  0  0  0  0  0  0  0  0  0
  -17.9415  -45.7053  -20.1340 H   0  0  0  0  0  0  0  0  0  0  0  0
  -19.4471  -46.3451  -21.7124 H   0  0  0  0  0  0  0  0  0  0  0  0
  -20.1614  -44.7249  -21.6542 H   0  0  0  0  0  0  0  0  0  0  0  0
  -17.9961  -45.8290  -23.4313 H   0  0  0  0  0  0  0  0  0  0  0  0
  -16.3377  -45.2220  -21.8427 H   0  0  0  0  0  0  0  0  0  0  0  0
  -17.2008  -43.9739  -25.2268 H   0  0  0  0  0  0  0  0  0  0  0  0
  -14.8667  -42.3991  -24.8635 H   0  0  0  0  0  0  0  0  0  0  0  0
  -16.2559  -42.1803  -25.8804 H   0  0  0  0  0  0  0  0  0  0  0  0
  -15.9246  -41.1641  -23.0255 H   0  0  0  0  0  0  0  0  0  0  0  0
  -18.4547  -41.1370  -24.6904 H   0  0  0  0  0  0  0  0  0  0  0  0
  -18.1828  -40.0602  -23.3157 H   0  0  0  0  0  0  0  0  0  0  0  0
  -18.1577  -41.7384  -21.8648 H   0  0  0  0  0  0  0  0  0  0  0  0
  -18.3164  -39.5643  -27.7387 H   0  0  0  0  0  0  0  0  0  0  0  0
  6 16  1  0
  6  5  1  0
  5  4  3  0
 14 15  1  0
  9  8  1  0
  9 10  1  0
  8  7  2  0
  2 10  2  0
 11 10  2  0
  1 13  1  0
 12  3  1  0
 19 18  1  0
 21 26  2  0
 21 14  1  0
 21 22  1  0
 22 23  2  0
 23 24  1  0
 23  1  1  0
 24 25  2  0
 24  8  1  0
 25 26  1  0
 26 37  1  0
 27 32  2  0
 27 28  1  0
 28 29  2  0
 29 30  1  0
 30 10  1  0
 30 31  2  0
 31 32  1  0
 32  3  1  0
 33 34  1  0
 33 37  1  0
 34 35  1  0
 35  4  1  0
 35 36  1  0
 36 37  1  0
 38 17  1  0
 38 39  1  0
 39 40  1  0
 40 18  1  0
 40 41  1  0
 41 42  1  0
 43 44  1  0
 43 47  2  0
 44 45  2  0
 45 20  1  0
 45 46  1  0
 46 47  1  0
 47 19  1  0
 36 38  1  0
 36 42  1  0
  6 48  1  0
  6 49  1  0
  9 50  1  0
 12 51  1  0
 12 52  1  0
 12 53  1  0
 13 54  1  0
 13 55  1  0
 13 56  1  0
 15 57  1  0
 15 58  1  0
 15 59  1  0
 16 60  1  0
 18 61  1  0
 19 62  1  0
 19 63  1  0
 20 64  1  0
 20 65  1  0
 20 66  1  0
 22 67  1  0
 25 68  1  0
 27 69  1  0
 28 70  1  0
 29 71  1  0
 31 72  1  0
 33 73  1  0
 33 74  1  0
 34 75  1  0
 34 76  1  0
 35 77  1  1
 37 78  1  1
 38 79  1  6
 39 80  1  0
 39 81  1  0
 40 82  1  1
 41 83  1  0
 41 84  1  0
 42 85  1  0
 43 86  1  0
M  END
>  <smiles>  (704) 
[H]OC([H])([H])C#C[C@@]1([H])C([H])([H])C([H])([H])[C@@]([H])(c2c([H])c(C(=O)N([H])S(=O)(=O)c3c([H])c([H])c([H])c(OC([H])([H])[H])c3[H])c(OC([H])([H])[H])c([H])c2OC([H])([H])[H])[S@TB10]12N([H])C([H])([H])[C@]([H])(N([H])C([H])([H])c1sc(C([H])([H])[H])nc1[H])C([H])([H])[C@@]2([H])F

>  <error>  (704) 


>  <∆∆G>  (704) 
-152.619408

>  <∆G_bound>  (704) 
249.959067

>  <∆G_unbound>  (704) 
402.578475

>  <comRMSD>  (704) 
1.479722

>  <N_constrained_atoms>  (704) 
47.0

>  <N_unconstrained_atoms>  (704) 
0.0

>  <runtime>  (704) 
177.439034

>  <regarded>  (704) 
['5k5m-a', 'd0615b']

>  <disregarded>  (704) 
[]

>  <LE>  (704) 
3.247221

>  <outcome>  (704) 
too moved

>  <percent_hybrid>  (704) 
30.0

$$$$
LIG
     RDKit          3D

  0  0  0  0  0  0  0  0  0  0999 V3000
M  V30 BEGIN CTAB
M  V30 COUNTS 84 87 0 0 0
M  V30 BEGIN ATOM
M  V30 1 O -13.059000 -42.610001 -18.479000 0
M  V30 2 O -17.714001 -42.296001 -15.013000 0
M  V30 3 O -12.865000 -39.470001 -15.427000 0
M  V30 4 C -19.211000 -46.504002 -24.429001 0
M  V30 5 C -19.791000 -46.613998 -25.464001 0
M  V30 6 C -20.584000 -46.872002 -26.666000 0
M  V30 7 O -14.229000 -44.429001 -16.355000 0
M  V30 8 C -15.110000 -44.029999 -17.115999 0
M  V30 9 N -16.246000 -43.403999 -16.635000 0
M  V30 10 S -16.552000 -43.130001 -15.039000 0
M  V30 11 O -16.562000 -44.383999 -14.350000 0
M  V30 12 C -13.292000 -39.081001 -16.736000 0
M  V30 13 C -12.190000 -41.643002 -19.082001 0
M  V30 14 O -14.855000 -43.950001 -22.778999 0
M  V30 15 C -13.814000 -43.257999 -23.455000 0
M  V30 16 O -21.716999 -46.032001 -26.728001 0
M  V30 17 C -14.858000 -43.925999 -21.408001 0
M  V30 18 C -13.929000 -43.228001 -20.659000 0
M  V30 19 C -13.952000 -43.272999 -19.278000 0
M  V30 20 C -14.929000 -44.015999 -18.607000 0
M  V30 21 C -15.863000 -44.723999 -19.375999 0
M  V30 22 C -15.855000 -44.689999 -20.777000 0
M  V30 23 C -13.047000 -40.689999 -13.506000 0
M  V30 24 C -13.619000 -41.672001 -12.707000 0
M  V30 25 C -14.700000 -42.417000 -13.158000 0
M  V30 26 C -15.198000 -42.176998 -14.430000 0
M  V30 27 C -14.650000 -41.188000 -15.231000 0
M  V30 28 C -13.567000 -40.449001 -14.768000 0
M  V30 29 C -17.482000 -46.637001 -21.159000 0
M  V30 30 C -18.358999 -47.137001 -22.125999 0
M  V30 31 C -18.469000 -46.320000 -23.235001 0
M  V30 32 S -17.472000 -44.923000 -23.080999 0
M  V30 33 C -16.886000 -45.438000 -21.525999 0
M  V30 34 O -19.445000 -40.158001 -24.528000 0
M  V30 35 S -18.933001 -39.846001 -25.825001 0
M  V30 36 O -18.877001 -38.480999 -26.240999 0
M  V30 37 C -19.827000 -40.765999 -27.018000 0
M  V30 38 C -16.511999 -41.500999 -27.914000 0
M  V30 39 C -15.906000 -38.516998 -25.243999 0
M  V30 40 O -16.229000 -38.262001 -26.598000 0
M  V30 41 N -17.393000 -40.395000 -25.853001 0
M  V30 42 C -17.198999 -41.683998 -26.573000 0 CFG=2
M  V30 43 C -16.566000 -42.779999 -25.714001 0
M  V30 44 C -15.991000 -42.259998 -24.402000 0 CFG=2
M  V30 45 C -15.366000 -40.882000 -24.551001 0
M  V30 46 C -16.459999 -39.863998 -24.820000 0 CFG=1
M  V30 47 N -14.902500 -42.758999 -23.928501 0
M  V30 48 H -20.916389 -47.920540 -26.656790 0
M  V30 49 H -19.954803 -46.668625 -27.545063 0
M  V30 50 H -16.947315 -43.088100 -17.320030 0
M  V30 51 H -14.102827 -38.342331 -16.652767 0
M  V30 52 H -12.445873 -38.636864 -17.280804 0
M  V30 53 H -13.655581 -39.964741 -17.280804 0
M  V30 54 H -11.675996 -41.071033 -18.295456 0
M  V30 55 H -11.445468 -42.158207 -19.706690 0
M  V30 56 H -12.781532 -40.957542 -19.706690 0
M  V30 57 H -13.176738 -42.594337 -22.852131 0
M  V30 58 H -12.966917 -43.685474 -24.011520 0
M  V30 59 H -22.014759 -45.811245 -25.810011 0
M  V30 60 H -13.160841 -42.628475 -21.169395 0
M  V30 61 H -16.627356 -45.326077 -18.862907 0
M  V30 62 H -12.188149 -40.108269 -13.139984 0
M  V30 63 H -13.209904 -41.861725 -11.703683 0
M  V30 64 H -15.154731 -43.186031 -12.516273 0
M  V30 65 H -15.069595 -40.988525 -16.228071 0
M  V30 66 H -17.283876 -47.143093 -20.202644 0
M  V30 67 H -18.906128 -48.084839 -22.015305 0
M  V30 68 H -20.506313 -41.465069 -26.508259 0
M  V30 69 H -20.412142 -40.079388 -27.647423 0
M  V30 70 H -19.123901 -41.331223 -27.647423 0
M  V30 71 H -15.460629 -41.220943 -27.752167 0
M  V30 72 H -16.557558 -42.442596 -28.480846 0
M  V30 73 H -17.019920 -40.706833 -28.480846 0
M  V30 74 H -14.812429 -38.519810 -25.125275 0
M  V30 75 H -16.349152 -37.731411 -24.614344 0
M  V30 76 H -17.005259 -37.649174 -26.642309 0
M  V30 77 H -18.210634 -42.054550 -26.795010 0
M  V30 78 H -16.529486 -43.837841 -26.013391 0
M  V30 79 H -15.597886 -42.607105 -26.206812 0
M  V30 80 H -16.891226 -42.441837 -23.796585 0
M  V30 81 H -14.291663 -40.658054 -24.475843 0
M  V30 82 H -15.255508 -41.049068 -25.632610 0
M  V30 83 H -17.003857 -39.699589 -23.878094 0
M  V30 84 H -13.572500 -41.428997 -22.598499 0
M  V30 END ATOM
M  V30 BEGIN BOND
M  V30 1 1 6 16
M  V30 2 1 6 5
M  V30 3 3 5 4
M  V30 4 1 14 15
M  V30 5 1 9 8
M  V30 6 1 9 10
M  V30 7 2 8 7
M  V30 8 2 2 10
M  V30 9 2 11 10
M  V30 10 1 1 13
M  V30 11 1 12 3
M  V30 12 1 17 22
M  V30 13 1 17 14
M  V30 14 2 17 18
M  V30 15 1 18 19
M  V30 16 2 19 20
M  V30 17 1 19 1
M  V30 18 1 20 21
M  V30 19 1 20 8
M  V30 20 2 21 22
M  V30 21 1 22 33
M  V30 22 2 23 28
M  V30 23 1 23 24
M  V30 24 2 24 25
M  V30 25 1 25 26
M  V30 26 1 26 10
M  V30 27 2 26 27
M  V30 28 1 27 28
M  V30 29 1 28 3
M  V30 30 1 29 30
M  V30 31 2 29 33
M  V30 32 2 30 31
M  V30 33 1 31 4
M  V30 34 1 31 32
M  V30 35 1 32 33
M  V30 36 1 40 39
M  V30 37 1 37 35
M  V30 38 2 36 35
M  V30 39 2 35 34
M  V30 40 1 41 46
M  V30 41 1 41 35
M  V30 42 1 41 42
M  V30 43 1 42 38
M  V30 44 1 42 43
M  V30 45 1 43 44
M  V30 46 1 44 45
M  V30 47 1 45 46
M  V30 48 1 46 39
M  V30 49 1 47 15
M  V30 50 1 47 44
M  V30 51 1 6 48
M  V30 52 1 6 49
M  V30 53 1 9 50
M  V30 54 1 12 51
M  V30 55 1 12 52
M  V30 56 1 12 53
M  V30 57 1 13 54
M  V30 58 1 13 55
M  V30 59 1 13 56
M  V30 60 1 15 57
M  V30 61 1 15 58
M  V30 62 1 16 59
M  V30 63 1 18 60
M  V30 64 1 21 61
M  V30 65 1 23 62
M  V30 66 1 24 63
M  V30 67 1 25 64
M  V30 68 1 27 65
M  V30 69 1 29 66
M  V30 70 1 30 67
M  V30 71 1 37 68
M  V30 72 1 37 69
M  V30 73 1 37 70
M  V30 74 1 38 71
M  V30 75 1 38 72
M  V30 76 1 38 73
M  V30 77 1 39 74
M  V30 78 1 39 75
M  V30 79 1 40 76
M  V30 80 1 42 77 CFG=3
M  V30 81 1 43 78
M  V30 82 1 43 79
M  V30 83 1 44 80 CFG=1
M  V30 84 1 45 81
M  V30 85 1 45 82
M  V30 86 1 46 83 CFG=1
M  V30 87 1 47 84
M  V30 END BOND
M  V30 BEGIN COLLECTION
M  V30 MDLV30/STEABS ATOMS=(0)
M  V30 END COLLECTION
M  V30 END CTAB
M  END
>  <smiles>  (705) 
[H]OC([H])([H])C#Cc1sc(-c2c([H])c(C(=O)N([H])S(=O)(=O)c3c([H])c([H])c([H])c(OC([H])([H])[H])c3[H])c(OC([H])([H])[H])c([H])c2OC([H])([H])N([H])[C@]2([H])C([H])([H])[C@]([H])(C([H])([H])[H])N(S(=O)(=O)C([H])([H])[H])[C@]([H])(C([H])([H])O[H])C2([H])[H])c([H])c1[H]

>  <error>  (705) 


>  <∆∆G>  (705) 
nan

>  <∆G_bound>  (705) 
nan

>  <∆G_unbound>  (705) 
nan

>  <comRMSD>  (705) 
0.0

>  <N_constrained_atoms>  (705) 
46.0

>  <N_unconstrained_atoms>  (705) 
1.0

>  <runtime>  (705) 
2.899661

>  <regarded>  (705) 
['5k5m-a', 'd0851a']

>  <disregarded>  (705) 
[]

>  <LE>  (705) 
nan

>  <outcome>  (705) 
crashed

>  <percent_hybrid>  (705) 
29.0

$$$$

     RDKit          2D

  0  0  0  0  0  0  0  0  0  0999 V2000
M  END
>  <smiles>  (706) 
nan

>  <error>  (706) 
TimeoutError

>  <∆∆G>  (706) 
nan

>  <∆G_bound>  (706) 
nan

>  <∆G_unbound>  (706) 
nan

>  <comRMSD>  (706) 
nan

>  <N_constrained_atoms>  (706) 
nan

>  <N_unconstrained_atoms>  (706) 
nan

>  <runtime>  (706) 
nan

>  <regarded>  (706) 
[]

>  <disregarded>  (706) 
[]

>  <LE>  (706) 
nan

>  <outcome>  (706) 
timeout

>  <percent_hybrid>  (706) 
nan

$$$$
LIG
     RDKit          3D

  0  0  0  0  0  0  0  0  0  0999 V3000
M  V30 BEGIN CTAB
M  V30 COUNTS 89 94 0 0 0
M  V30 BEGIN ATOM
M  V30 1 O -13.059000 -42.610001 -18.479000 0
M  V30 2 O -17.714001 -42.296001 -15.013000 0
M  V30 3 O -12.865000 -39.470001 -15.427000 0
M  V30 4 C -19.211000 -46.504002 -24.429001 0
M  V30 5 C -19.791000 -46.613998 -25.464001 0
M  V30 6 C -20.584000 -46.872002 -26.666000 0
M  V30 7 O -14.229000 -44.429001 -16.355000 0
M  V30 8 C -15.110000 -44.029999 -17.115999 0
M  V30 9 N -16.246000 -43.403999 -16.635000 0
M  V30 10 S -16.552000 -43.130001 -15.039000 0
M  V30 11 O -16.562000 -44.383999 -14.350000 0
M  V30 12 C -13.292000 -39.081001 -16.736000 0
M  V30 13 C -12.190000 -41.643002 -19.082001 0
M  V30 14 O -14.855000 -43.950001 -22.778999 0
M  V30 15 C -13.814000 -43.257999 -23.455000 0
M  V30 16 O -21.716999 -46.032001 -26.728001 0
M  V30 17 C -14.858000 -43.925999 -21.408001 0
M  V30 18 C -13.929000 -43.228001 -20.659000 0
M  V30 19 C -13.952000 -43.272999 -19.278000 0
M  V30 20 C -14.929000 -44.015999 -18.607000 0
M  V30 21 C -15.863000 -44.723999 -19.375999 0
M  V30 22 C -15.855000 -44.689999 -20.777000 0
M  V30 23 C -13.047000 -40.689999 -13.506000 0
M  V30 24 C -13.619000 -41.672001 -12.707000 0
M  V30 25 C -14.700000 -42.417000 -13.158000 0
M  V30 26 C -15.198000 -42.176998 -14.430000 0
M  V30 27 C -14.650000 -41.188000 -15.231000 0
M  V30 28 C -13.567000 -40.449001 -14.768000 0
M  V30 29 C -17.482000 -46.637001 -21.159000 0
M  V30 30 C -18.358999 -47.137001 -22.125999 0
M  V30 31 C -18.469000 -46.320000 -23.235001 0
M  V30 32 S -17.472000 -44.923000 -23.080999 0
M  V30 33 C -16.886000 -45.438000 -21.525999 0
M  V30 34 O -11.370000 -32.450001 -20.969999 0
M  V30 35 C -11.950000 -33.465000 -20.601000 0
M  V30 36 C -13.292000 -33.436001 -19.997999 0
M  V30 37 C -13.877000 -34.640999 -19.552999 0
M  V30 38 N -13.139000 -35.812000 -19.618000 0
M  V30 39 C -12.110000 -35.952000 -20.645000 0
M  V30 40 N -11.382000 -34.679001 -20.705000 0
M  V30 41 C -13.994000 -32.241001 -19.871000 0
M  V30 42 C -15.168000 -34.624001 -19.025000 0
M  V30 43 C -15.853000 -33.424000 -18.921000 0
M  V30 44 C -15.268000 -32.243000 -19.333000 0
M  V30 45 C -11.190000 -37.138000 -20.316999 0
M  V30 46 C -11.152000 -37.980999 -21.587999 0
M  V30 47 C -12.451000 -37.754002 -22.233000 0
M  V30 48 C -12.749000 -36.279999 -22.002001 0
M  V30 49 N -13.253750 -38.263752 -17.456501 0
M  V30 50 C -13.215500 -37.446503 -18.177000 0
M  V30 51 C -13.177250 -36.629250 -18.897499 0
M  V30 52 H -20.916389 -47.920540 -26.656790 0
M  V30 53 H -19.954803 -46.668625 -27.545063 0
M  V30 54 H -16.947315 -43.088100 -17.320030 0
M  V30 55 H -12.870923 -39.900154 -17.337400 0
M  V30 56 H -14.254596 -38.722321 -16.342607 0
M  V30 57 H -11.675996 -41.071033 -18.295456 0
M  V30 58 H -11.445468 -42.158207 -19.706690 0
M  V30 59 H -12.781532 -40.957542 -19.706690 0
M  V30 60 H -13.134567 -42.806347 -22.717176 0
M  V30 61 H -13.253617 -43.963966 -24.085541 0
M  V30 62 H -14.248032 -42.468040 -24.085541 0
M  V30 63 H -22.014759 -45.811245 -25.810011 0
M  V30 64 H -13.160841 -42.628475 -21.169395 0
M  V30 65 H -16.627356 -45.326077 -18.862907 0
M  V30 66 H -12.188149 -40.108269 -13.139984 0
M  V30 67 H -13.209904 -41.861725 -11.703683 0
M  V30 68 H -15.154731 -43.186031 -12.516273 0
M  V30 69 H -15.069595 -40.988525 -16.228071 0
M  V30 70 H -17.283876 -47.143093 -20.202644 0
M  V30 71 H -18.906128 -48.084839 -22.015305 0
M  V30 72 H -10.361188 -34.718678 -20.836409 0
M  V30 73 H -13.535987 -31.295929 -20.198202 0
M  V30 74 H -15.640623 -35.559937 -18.692352 0
M  V30 75 H -16.871866 -33.412075 -18.506548 0
M  V30 76 H -15.819530 -31.296577 -19.232512 0
M  V30 77 H -10.669828 -37.336834 -19.368376 0
M  V30 78 H -12.057853 -37.712925 -19.961624 0
M  V30 79 H -10.330162 -38.619820 -21.943655 0
M  V30 80 H -11.575160 -38.832932 -21.035601 0
M  V30 81 H -13.072513 -38.488396 -22.766277 0
M  V30 82 H -12.962158 -38.004837 -21.291830 0
M  V30 83 H -13.302277 -35.597340 -22.663710 0
M  V30 84 H -11.810613 -36.010841 -22.508938 0
M  V30 85 H -11.913750 -36.923752 -16.116501 0
M  V30 86 H -11.865499 -36.096500 -16.827000 0
M  V30 87 H -11.855500 -36.086502 -16.816999 0
M  V30 88 H -11.807250 -35.259251 -17.527500 0
M  V30 89 H -11.797250 -35.249252 -17.517500 0
M  V30 END ATOM
M  V30 BEGIN BOND
M  V30 1 1 6 16
M  V30 2 1 6 5
M  V30 3 3 5 4
M  V30 4 1 14 15
M  V30 5 1 9 8
M  V30 6 1 9 10
M  V30 7 2 8 7
M  V30 8 2 2 10
M  V30 9 2 11 10
M  V30 10 1 1 13
M  V30 11 1 12 3
M  V30 12 2 17 22
M  V30 13 1 17 14
M  V30 14 1 17 18
M  V30 15 2 18 19
M  V30 16 1 19 20
M  V30 17 1 19 1
M  V30 18 2 20 21
M  V30 19 1 20 8
M  V30 20 1 21 22
M  V30 21 1 22 33
M  V30 22 2 23 28
M  V30 23 1 23 24
M  V30 24 2 24 25
M  V30 25 1 25 26
M  V30 26 1 26 10
M  V30 27 2 26 27
M  V30 28 1 27 28
M  V30 29 1 28 3
M  V30 30 1 29 30
M  V30 31 2 29 33
M  V30 32 2 30 31
M  V30 33 1 31 4
M  V30 34 1 31 32
M  V30 35 1 32 33
M  V30 36 2 35 34
M  V30 37 1 35 40
M  V30 38 1 35 36
M  V30 39 2 36 41
M  V30 40 1 36 37
M  V30 41 1 37 38
M  V30 42 2 37 42
M  V30 43 1 38 39
M  V30 44 1 39 40
M  V30 45 1 39 48
M  V30 46 1 39 45
M  V30 47 1 41 44
M  V30 48 1 42 43
M  V30 49 2 43 44
M  V30 50 1 45 46
M  V30 51 1 46 47
M  V30 52 1 47 48
M  V30 53 1 49 12
M  V30 54 1 50 49
M  V30 55 1 51 50
M  V30 56 1 51 38
M  V30 57 1 6 52
M  V30 58 1 6 53
M  V30 59 1 9 54
M  V30 60 1 12 55
M  V30 61 1 12 56
M  V30 62 1 13 57
M  V30 63 1 13 58
M  V30 64 1 13 59
M  V30 65 1 15 60
M  V30 66 1 15 61
M  V30 67 1 15 62
M  V30 68 1 16 63
M  V30 69 1 18 64
M  V30 70 1 21 65
M  V30 71 1 23 66
M  V30 72 1 24 67
M  V30 73 1 25 68
M  V30 74 1 27 69
M  V30 75 1 29 70
M  V30 76 1 30 71
M  V30 77 1 40 72
M  V30 78 1 41 73
M  V30 79 1 42 74
M  V30 80 1 43 75
M  V30 81 1 44 76
M  V30 82 1 45 77
M  V30 83 1 45 78
M  V30 84 1 46 79
M  V30 85 1 46 80
M  V30 86 1 47 81
M  V30 87 1 47 82
M  V30 88 1 48 83
M  V30 89 1 48 84
M  V30 90 1 49 85
M  V30 91 1 50 86
M  V30 92 1 50 87
M  V30 93 1 51 88
M  V30 94 1 51 89
M  V30 END BOND
M  V30 BEGIN COLLECTION
M  V30 MDLV30/STEABS ATOMS=(0)
M  V30 END COLLECTION
M  V30 END CTAB
M  END
>  <smiles>  (707) 
[H]OC([H])([H])C#Cc1sc(-c2c([H])c(C(=O)N([H])S(=O)(=O)c3c([H])c([H])c([H])c(OC([H])([H])N([H])C([H])([H])C([H])([H])N4c5c([H])c([H])c([H])c([H])c5C(=O)N([H])C45C([H])([H])C([H])([H])C([H])([H])C5([H])[H])c3[H])c(OC([H])([H])[H])c([H])c2OC([H])([H])[H])c([H])c1[H]

>  <error>  (707) 


>  <∆∆G>  (707) 
nan

>  <∆G_bound>  (707) 
nan

>  <∆G_unbound>  (707) 
nan

>  <comRMSD>  (707) 
0.0

>  <N_constrained_atoms>  (707) 
48.0

>  <N_unconstrained_atoms>  (707) 
3.0

>  <runtime>  (707) 
3.836646

>  <regarded>  (707) 
['5k5m-a', 'd1196a']

>  <disregarded>  (707) 
[]

>  <LE>  (707) 
nan

>  <outcome>  (707) 
crashed

>  <percent_hybrid>  (707) 
32.0

$$$$
LIG
     RDKit          3D

 70 73  0  0  0  0  0  0  0  0999 V2000
  -13.2101  -42.6053  -18.7026 N   0  0  0  0  0  0  0  0  0  0  0  0
  -17.0325  -41.2320  -16.0008 O   0  0  0  0  0  0  0  0  0  0  0  0
  -12.3322  -38.6500  -15.3156 O   0  0  0  0  0  0  0  0  0  0  0  0
  -19.4685  -46.2759  -24.6183 C   0  0  0  0  0  0  0  0  0  0  0  0
  -20.0947  -46.4586  -25.6256 C   0  0  0  0  0  0  0  0  0  0  0  0
  -20.8363  -46.7046  -26.8542 C   0  0  0  0  0  0  0  0  0  0  0  0
  -15.4636  -43.9474  -17.2330 C   0  0  1  0  0  0  0  0  0  0  0  0
  -15.0600  -42.7492  -16.5319 N   0  0  0  0  0  0  0  0  0  0  0  0
  -16.0917  -42.1144  -15.3571 S   0  0  0  0  0  0  0  0  0  0  0  0
  -16.4845  -43.1244  -14.4192 O   0  0  0  0  0  0  0  0  0  0  0  0
  -12.6759  -38.3575  -16.6660 C   0  0  0  0  0  0  0  0  0  0  0  0
  -12.3087  -41.6768  -19.3900 C   0  0  0  0  0  0  0  0  0  0  0  0
  -15.1702  -44.1271  -22.9225 O   0  0  0  0  0  0  0  0  0  0  0  0
  -14.1501  -43.4940  -23.6634 C   0  0  0  0  0  0  0  0  0  0  0  0
  -21.9406  -45.8166  -26.9477 O   0  0  0  0  0  0  0  0  0  0  0  0
  -12.4407  -43.5324  -17.9976 O   0  0  0  0  0  0  0  0  0  0  0  0
  -15.2050  -43.9262  -21.5701 C   0  0  0  0  0  0  0  0  0  0  0  0
  -14.2079  -43.2820  -20.8408 C   0  0  0  0  0  0  0  0  0  0  0  0
  -14.2646  -43.1907  -19.4391 C   0  0  0  0  0  0  0  0  0  0  0  0
  -15.3691  -43.7758  -18.7612 C   0  0  0  0  0  0  0  0  0  0  0  0
  -16.4004  -44.3613  -19.5175 C   0  0  0  0  0  0  0  0  0  0  0  0
  -16.3125  -44.4669  -20.9032 C   0  0  0  0  0  0  0  0  0  0  0  0
  -12.6860  -39.9322  -13.3898 C   0  0  0  0  0  0  0  0  0  0  0  0
  -13.3708  -40.9014  -12.6530 C   0  0  0  0  0  0  0  0  0  0  0  0
  -14.4738  -41.5318  -13.2135 C   0  0  0  0  0  0  0  0  0  0  0  0
  -14.8852  -41.1583  -14.4972 C   0  0  0  0  0  0  0  0  0  0  0  0
  -14.2377  -40.1602  -15.2162 C   0  0  0  0  0  0  0  0  0  0  0  0
  -13.1094  -39.5695  -14.6738 C   0  0  0  0  0  0  0  0  0  0  0  0
  -17.7044  -46.5536  -21.3942 C   0  0  0  0  0  0  0  0  0  0  0  0
  -18.5479  -47.0306  -22.4338 C   0  0  0  0  0  0  0  0  0  0  0  0
  -18.7716  -46.0693  -23.3951 C   0  0  0  0  0  0  0  0  0  0  0  0
  -18.1651  -44.5531  -22.9326 S   0  0  0  0  0  0  0  0  0  0  0  0
  -17.3181  -45.2469  -21.6163 C   0  0  0  0  0  0  0  0  0  0  0  0
  -14.6195  -45.1069  -16.8473 N   0  0  0  0  0  0  0  0  0  0  0  0
  -15.2207  -46.4001  -17.3048 C   0  0  0  0  0  0  0  0  0  0  0  0
  -14.9868  -47.6345  -16.4124 C   0  0  0  0  0  0  0  0  0  0  0  0
  -14.9129  -47.3187  -15.0225 O   0  0  0  0  0  0  0  0  0  0  0  0
  -13.8293  -46.4165  -14.7944 C   0  0  0  0  0  0  0  0  0  0  0  0
  -14.1894  -45.0768  -15.4233 C   0  0  0  0  0  0  0  0  0  0  0  0
  -21.1895  -47.7360  -26.9341 H   0  0  0  0  0  0  0  0  0  0  0  0
  -20.1845  -46.4920  -27.6977 H   0  0  0  0  0  0  0  0  0  0  0  0
  -16.5157  -44.1180  -16.9955 H   0  0  0  0  0  0  0  0  0  0  0  0
  -14.7561  -42.0355  -17.1960 H   0  0  0  0  0  0  0  0  0  0  0  0
  -13.6544  -37.8697  -16.7274 H   0  0  0  0  0  0  0  0  0  0  0  0
  -11.9323  -37.6533  -17.0518 H   0  0  0  0  0  0  0  0  0  0  0  0
  -12.6356  -39.2546  -17.2921 H   0  0  0  0  0  0  0  0  0  0  0  0
  -11.6566  -41.1924  -18.6550 H   0  0  0  0  0  0  0  0  0  0  0  0
  -11.6692  -42.1836  -20.1187 H   0  0  0  0  0  0  0  0  0  0  0  0
  -12.8734  -40.8829  -19.8911 H   0  0  0  0  0  0  0  0  0  0  0  0
  -14.1072  -42.4218  -23.4487 H   0  0  0  0  0  0  0  0  0  0  0  0
  -13.1990  -44.0011  -23.4894 H   0  0  0  0  0  0  0  0  0  0  0  0
  -14.3991  -43.5952  -24.7204 H   0  0  0  0  0  0  0  0  0  0  0  0
  -22.7022  -46.2750  -26.5305 H   0  0  0  0  0  0  0  0  0  0  0  0
  -13.0189  -43.7508  -17.2446 H   0  0  0  0  0  0  0  0  0  0  0  0
  -13.3252  -42.9261  -21.3588 H   0  0  0  0  0  0  0  0  0  0  0  0
  -17.2648  -44.7934  -19.0163 H   0  0  0  0  0  0  0  0  0  0  0  0
  -11.8052  -39.4573  -12.9629 H   0  0  0  0  0  0  0  0  0  0  0  0
  -13.0265  -41.1761  -11.6594 H   0  0  0  0  0  0  0  0  0  0  0  0
  -14.9814  -42.3235  -12.6673 H   0  0  0  0  0  0  0  0  0  0  0  0
  -14.6025  -39.9022  -16.2037 H   0  0  0  0  0  0  0  0  0  0  0  0
  -17.3285  -47.1718  -20.5887 H   0  0  0  0  0  0  0  0  0  0  0  0
  -18.9129  -48.0481  -22.5036 H   0  0  0  0  0  0  0  0  0  0  0  0
  -16.2759  -46.3393  -17.5522 H   0  0  0  0  0  0  0  0  0  0  0  0
  -14.8764  -46.6311  -18.3204 H   0  0  0  0  0  0  0  0  0  0  0  0
  -15.8092  -48.3450  -16.5486 H   0  0  0  0  0  0  0  0  0  0  0  0
  -14.0673  -48.1475  -16.6878 H   0  0  0  0  0  0  0  0  0  0  0  0
  -13.7002  -46.3012  -13.7137 H   0  0  0  0  0  0  0  0  0  0  0  0
  -12.9003  -46.8481  -15.1670 H   0  0  0  0  0  0  0  0  0  0  0  0
  -13.3413  -44.3952  -15.2994 H   0  0  0  0  0  0  0  0  0  0  0  0
  -14.9845  -44.6889  -14.8033 H   0  0  0  0  0  0  0  0  0  0  0  0
  6 15  1  0
  6  5  1  0
  5  4  3  0
 13 14  1  0
  8  7  1  0
  8  9  1  0
  2  9  2  0
 10  9  2  0
  1 12  1  0
 11  3  1  0
 16  1  1  0
 17 22  2  0
 17 13  1  0
 17 18  1  0
 18 19  2  0
 19 20  1  0
 19  1  1  0
 20 21  2  0
 20  7  1  0
 21 22  1  0
 22 33  1  0
 23 28  2  0
 23 24  1  0
 24 25  2  0
 25 26  1  0
 26  9  1  0
 26 27  2  0
 27 28  1  0
 28  3  1  0
 29 30  1  0
 29 33  2  0
 30 31  2  0
 31  4  1  0
 31 32  1  0
 32 33  1  0
 34 39  1  0
 34 35  1  0
 35 36  1  0
 36 37  1  0
 37 38  1  0
 38 39  1  0
 34  7  1  0
  6 40  1  0
  6 41  1  0
  7 42  1  6
  8 43  1  0
 11 44  1  0
 11 45  1  0
 11 46  1  0
 12 47  1  0
 12 48  1  0
 12 49  1  0
 14 50  1  0
 14 51  1  0
 14 52  1  0
 15 53  1  0
 16 54  1  0
 18 55  1  0
 21 56  1  0
 23 57  1  0
 24 58  1  0
 25 59  1  0
 27 60  1  0
 29 61  1  0
 30 62  1  0
 35 63  1  0
 35 64  1  0
 36 65  1  0
 36 66  1  0
 38 67  1  0
 38 68  1  0
 39 69  1  0
 39 70  1  0
M  END
>  <smiles>  (708) 
[H]ON(c1c([H])c(OC([H])([H])[H])c(-c2sc(C#CC([H])([H])O[H])c([H])c2[H])c([H])c1[C@@]([H])(N1C([H])([H])C([H])([H])OC([H])([H])C1([H])[H])N([H])S(=O)(=O)c1c([H])c([H])c([H])c(OC([H])([H])[H])c1[H])C([H])([H])[H]

>  <error>  (708) 


>  <∆∆G>  (708) 
-81.952732

>  <∆G_bound>  (708) 
44.073334

>  <∆G_unbound>  (708) 
126.026066

>  <comRMSD>  (708) 
1.036954

>  <N_constrained_atoms>  (708) 
39.0

>  <N_unconstrained_atoms>  (708) 
0.0

>  <runtime>  (708) 
9.223827

>  <regarded>  (708) 
['5k5m-a', 'z0052a']

>  <disregarded>  (708) 
[]

>  <LE>  (708) 
2.101352

>  <outcome>  (708) 
too moved

>  <percent_hybrid>  (708) 
18.0

$$$$
LIG
     RDKit          3D

 70 73  0  0  0  0  0  0  0  0999 V2000
  -12.8126  -43.1939  -17.9328 O   0  0  0  0  0  0  0  0  0  0  0  0
  -17.2736  -41.0986  -15.0316 O   0  0  0  0  0  0  0  0  0  0  0  0
  -12.3985  -38.8906  -15.7256 O   0  0  0  0  0  0  0  0  0  0  0  0
  -19.2584  -46.0279  -24.3504 C   0  0  0  0  0  0  0  0  0  0  0  0
  -19.9089  -46.2720  -25.3361 C   0  0  0  0  0  0  0  0  0  0  0  0
  -20.6601  -46.6253  -26.5522 C   0  0  0  0  0  0  0  0  0  0  0  0
  -14.5649  -44.7675  -16.1844 O   0  0  0  0  0  0  0  0  0  0  0  0
  -15.1477  -43.9771  -16.8180 C   0  0  0  0  0  0  0  0  0  0  0  0
  -16.0197  -42.7697  -16.3686 N   0  0  0  0  0  0  0  0  0  0  0  0
  -16.3074  -42.1614  -14.8705 S   0  0  0  0  0  0  0  0  0  0  0  0
  -16.4506  -43.2015  -13.8938 O   0  0  0  0  0  0  0  0  0  0  0  0
  -13.1384  -38.3116  -16.7914 C   0  0  0  0  0  0  0  0  0  0  0  0
  -12.2009  -41.9538  -18.2801 C   0  0  0  0  0  0  0  0  0  0  0  0
  -14.3609  -43.6731  -22.3584 O   0  0  0  0  0  0  0  0  0  0  0  0
  -14.6457  -42.3541  -22.6645 C   0  0  0  0  0  0  0  0  0  0  0  0
  -21.7890  -45.7751  -26.6955 O   0  0  0  0  0  0  0  0  0  0  0  0
  -14.0563  -41.1978  -22.2716 C   0  0  0  0  0  0  0  0  0  0  0  0
  -12.7313  -40.9965  -21.5738 C   0  0  0  0  0  0  0  0  0  0  0  0
  -14.7854  -40.0182  -22.4554 N   0  0  0  0  0  0  0  0  0  0  0  0
  -14.2780  -38.9677  -23.3348 C   0  0  0  0  0  0  0  0  0  0  0  0
  -14.6239  -43.9699  -21.0352 C   0  0  0  0  0  0  0  0  0  0  0  0
  -13.5757  -43.6834  -20.1569 C   0  0  0  0  0  0  0  0  0  0  0  0
  -13.7918  -43.5897  -18.7988 C   0  0  0  0  0  0  0  0  0  0  0  0
  -15.0251  -43.9816  -18.2898 C   0  0  0  0  0  0  0  0  0  0  0  0
  -16.0370  -44.4527  -19.1418 C   0  0  0  0  0  0  0  0  0  0  0  0
  -15.8506  -44.4645  -20.5468 C   0  0  0  0  0  0  0  0  0  0  0  0
  -12.3041  -40.3128  -13.8830 C   0  0  0  0  0  0  0  0  0  0  0  0
  -12.8106  -41.3168  -13.0599 C   0  0  0  0  0  0  0  0  0  0  0  0
  -14.0407  -41.8826  -13.3593 C   0  0  0  0  0  0  0  0  0  0  0  0
  -14.7538  -41.4252  -14.4749 C   0  0  0  0  0  0  0  0  0  0  0  0
  -14.2630  -40.4111  -15.2910 C   0  0  0  0  0  0  0  0  0  0  0  0
  -13.0230  -39.8606  -14.9966 C   0  0  0  0  0  0  0  0  0  0  0  0
  -17.4279  -46.3923  -21.1504 C   0  0  0  0  0  0  0  0  0  0  0  0
  -18.3535  -46.7896  -22.1604 C   0  0  0  0  0  0  0  0  0  0  0  0
  -18.4834  -45.8419  -23.1523 C   0  0  0  0  0  0  0  0  0  0  0  0
  -17.5670  -44.4428  -22.7863 S   0  0  0  0  0  0  0  0  0  0  0  0
  -16.8736  -45.1410  -21.3792 C   0  0  0  0  0  0  0  0  0  0  0  0
  -13.5120  -37.8898  -22.6280 C   0  0  0  0  0  0  0  0  0  0  0  0
  -12.2068  -37.7087  -22.6349 N   0  0  0  0  0  0  0  0  0  0  0  0
  -11.9831  -36.5669  -21.9100 C   0  0  0  0  0  0  0  0  0  0  0  0
  -13.1709  -36.0282  -21.4805 C   0  0  0  0  0  0  0  0  0  0  0  0
  -14.1371  -36.8792  -21.9389 N   0  0  0  0  0  0  0  0  0  0  0  0
  -20.9827  -47.6691  -26.5645 H   0  0  0  0  0  0  0  0  0  0  0  0
  -20.0386  -46.4813  -27.4345 H   0  0  0  0  0  0  0  0  0  0  0  0
  -16.3119  -42.2401  -17.1833 H   0  0  0  0  0  0  0  0  0  0  0  0
  -14.0578  -37.8412  -16.4264 H   0  0  0  0  0  0  0  0  0  0  0  0
  -12.5206  -37.5263  -17.2378 H   0  0  0  0  0  0  0  0  0  0  0  0
  -13.3545  -39.0442  -17.5740 H   0  0  0  0  0  0  0  0  0  0  0  0
  -11.5476  -41.6612  -17.4528 H   0  0  0  0  0  0  0  0  0  0  0  0
  -11.5869  -42.0405  -19.1767 H   0  0  0  0  0  0  0  0  0  0  0  0
  -12.9597  -41.1757  -18.3995 H   0  0  0  0  0  0  0  0  0  0  0  0
  -15.5750  -42.3305  -23.2234 H   0  0  0  0  0  0  0  0  0  0  0  0
  -22.5569  -46.2590  -26.3254 H   0  0  0  0  0  0  0  0  0  0  0  0
  -12.8915  -40.5758  -20.5795 H   0  0  0  0  0  0  0  0  0  0  0  0
  -12.1371  -41.8991  -21.5021 H   0  0  0  0  0  0  0  0  0  0  0  0
  -12.1083  -40.2923  -22.1312 H   0  0  0  0  0  0  0  0  0  0  0  0
  -14.9316  -39.6051  -21.5349 H   0  0  0  0  0  0  0  0  0  0  0  0
  -13.6719  -39.3974  -24.1374 H   0  0  0  0  0  0  0  0  0  0  0  0
  -15.1443  -38.5093  -23.8272 H   0  0  0  0  0  0  0  0  0  0  0  0
  -12.5829  -43.5328  -20.5605 H   0  0  0  0  0  0  0  0  0  0  0  0
  -16.9660  -44.8228  -18.7133 H   0  0  0  0  0  0  0  0  0  0  0  0
  -11.3332  -39.8765  -13.6580 H   0  0  0  0  0  0  0  0  0  0  0  0
  -12.2410  -41.6612  -12.2009 H   0  0  0  0  0  0  0  0  0  0  0  0
  -14.4303  -42.6776  -12.7271 H   0  0  0  0  0  0  0  0  0  0  0  0
  -14.8558  -40.0788  -16.1344 H   0  0  0  0  0  0  0  0  0  0  0  0
  -17.1521  -47.0282  -20.3171 H   0  0  0  0  0  0  0  0  0  0  0  0
  -18.8534  -47.7519  -22.1801 H   0  0  0  0  0  0  0  0  0  0  0  0
  -10.9803  -36.1886  -21.7513 H   0  0  0  0  0  0  0  0  0  0  0  0
  -13.4036  -35.1429  -20.9061 H   0  0  0  0  0  0  0  0  0  0  0  0
  -15.1365  -36.7759  -21.8174 H   0  0  0  0  0  0  0  0  0  0  0  0
  6 16  1  0
  6  5  1  0
  5  4  3  0
 14 15  1  0
  9  8  1  0
  9 10  1  0
  8  7  2  0
  2 10  2  0
 11 10  2  0
  1 13  1  0
 12  3  1  0
 18 17  1  0
 19 17  1  0
 20 19  1  0
 17 15  2  0
 21 26  1  0
 21 14  1  0
 21 22  2  0
 22 23  1  0
 23 24  2  0
 23  1  1  0
 24 25  1  0
 24  8  1  0
 25 26  2  0
 26 37  1  0
 27 32  2  0
 27 28  1  0
 28 29  2  0
 29 30  1  0
 30 10  1  0
 30 31  2  0
 31 32  1  0
 32  3  1  0
 33 34  1  0
 33 37  2  0
 34 35  2  0
 35  4  1  0
 35 36  1  0
 36 37  1  0
 38 20  1  0
 38 39  2  0
 38 42  1  0
 39 40  1  0
 40 41  2  0
 41 42  1  0
  6 43  1  0
  6 44  1  0
  9 45  1  0
 12 46  1  0
 12 47  1  0
 12 48  1  0
 13 49  1  0
 13 50  1  0
 13 51  1  0
 15 52  1  0
 16 53  1  0
 18 54  1  0
 18 55  1  0
 18 56  1  0
 19 57  1  0
 20 58  1  0
 20 59  1  0
 22 60  1  0
 25 61  1  0
 27 62  1  0
 28 63  1  0
 29 64  1  0
 31 65  1  0
 33 66  1  0
 34 67  1  0
 40 68  1  0
 41 69  1  0
 42 70  1  0
M  END
>  <smiles>  (709) 
[H]OC([H])([H])C#Cc1sc(-c2c([H])c(C(=O)N([H])S(=O)(=O)c3c([H])c([H])c([H])c(OC([H])([H])[H])c3[H])c(OC([H])([H])[H])c([H])c2O/C([H])=C(\N([H])C([H])([H])c2nc([H])c([H])[nH]2)C([H])([H])[H])c([H])c1[H]

>  <error>  (709) 


>  <∆∆G>  (709) 
-54.642204

>  <∆G_bound>  (709) 
82.432542

>  <∆G_unbound>  (709) 
137.074746

>  <comRMSD>  (709) 
0.768662

>  <N_constrained_atoms>  (709) 
42.0

>  <N_unconstrained_atoms>  (709) 
0.0

>  <runtime>  (709) 
9.124599

>  <regarded>  (709) 
['5k5m-a', 'z0103a']

>  <disregarded>  (709) 
[]

>  <LE>  (709) 
1.301005

>  <outcome>  (709) 
acceptable

>  <percent_hybrid>  (709) 
22.0

$$$$

     RDKit          2D

  0  0  0  0  0  0  0  0  0  0999 V2000
M  END
>  <smiles>  (710) 
nan

>  <error>  (710) 
DistanceError 6.19 Å

>  <∆∆G>  (710) 
nan

>  <∆G_bound>  (710) 
nan

>  <∆G_unbound>  (710) 
nan

>  <comRMSD>  (710) 
nan

>  <N_constrained_atoms>  (710) 
nan

>  <N_unconstrained_atoms>  (710) 
nan

>  <runtime>  (710) 
nan

>  <regarded>  (710) 
[]

>  <disregarded>  (710) 
[]

>  <LE>  (710) 
nan

>  <outcome>  (710) 
too distant

>  <percent_hybrid>  (710) 
nan

$$$$

     RDKit          2D

  0  0  0  0  0  0  0  0  0  0999 V2000
M  END
>  <smiles>  (711) 
nan

>  <error>  (711) 
RecursionError maximum recursion depth exceeded while calling a Python object

>  <∆∆G>  (711) 
nan

>  <∆G_bound>  (711) 
nan

>  <∆G_unbound>  (711) 
nan

>  <comRMSD>  (711) 
nan

>  <N_constrained_atoms>  (711) 
nan

>  <N_unconstrained_atoms>  (711) 
nan

>  <runtime>  (711) 
nan

>  <regarded>  (711) 
[]

>  <disregarded>  (711) 
[]

>  <LE>  (711) 
nan

>  <outcome>  (711) 
crashed

>  <percent_hybrid>  (711) 
nan

$$$$
LIG
     RDKit          3D

 66 69  0  0  0  0  0  0  0  0999 V2000
  -13.8633  -42.1590  -18.2924 O   0  0  0  0  0  0  0  0  0  0  0  0
  -17.3553  -40.6431  -14.8982 O   0  0  0  0  0  0  0  0  0  0  0  0
  -12.3785  -38.8865  -15.2247 O   0  0  0  0  0  0  0  0  0  0  0  0
  -19.3851  -46.3201  -24.5131 C   0  0  0  0  0  0  0  0  0  0  0  0
  -20.0009  -46.4911  -25.5312 C   0  0  0  0  0  0  0  0  0  0  0  0
  -20.7500  -46.7307  -26.7636 C   0  0  0  0  0  0  0  0  0  0  0  0
  -15.0392  -44.4107  -16.4762 O   0  0  0  0  0  0  0  0  0  0  0  0
  -15.6990  -43.5949  -16.9931 C   0  0  0  0  0  0  0  0  0  0  0  0
  -16.5033  -42.4105  -16.3800 N   0  0  0  0  0  0  0  0  0  0  0  0
  -16.5913  -41.8694  -14.8317 S   0  0  0  0  0  0  0  0  0  0  0  0
  -16.9272  -42.9021  -13.8950 O   0  0  0  0  0  0  0  0  0  0  0  0
  -13.0883  -38.0050  -16.0810 C   0  0  0  0  0  0  0  0  0  0  0  0
  -13.9089  -40.7567  -18.5166 C   0  0  0  0  0  0  0  0  0  0  0  0
  -14.9997  -44.3321  -22.4755 O   0  0  0  0  0  0  0  0  0  0  0  0
  -15.0386  -43.3583  -23.5129 C   0  0  0  0  0  0  0  0  0  0  0  0
  -21.8485  -45.8335  -26.8516 O   0  0  0  0  0  0  0  0  0  0  0  0
  -15.3347  -43.8729  -21.2180 C   0  0  0  0  0  0  0  0  0  0  0  0
  -14.4497  -43.0753  -20.4739 C   0  0  0  0  0  0  0  0  0  0  0  0
  -14.7329  -42.8518  -19.1064 C   0  0  0  0  0  0  0  0  0  0  0  0
  -15.7675  -43.5381  -18.4721 C   0  0  0  0  0  0  0  0  0  0  0  0
  -16.6427  -44.3348  -19.2090 C   0  0  0  0  0  0  0  0  0  0  0  0
  -16.4570  -44.4683  -20.5972 C   0  0  0  0  0  0  0  0  0  0  0  0
  -12.3090  -40.7752  -13.8675 C   0  0  0  0  0  0  0  0  0  0  0  0
  -12.8628  -41.9259  -13.3074 C   0  0  0  0  0  0  0  0  0  0  0  0
  -14.1699  -42.2751  -13.6184 C   0  0  0  0  0  0  0  0  0  0  0  0
  -14.9161  -41.4493  -14.4665 C   0  0  0  0  0  0  0  0  0  0  0  0
  -14.3833  -40.2732  -14.9873 C   0  0  0  0  0  0  0  0  0  0  0  0
  -13.0586  -39.9550  -14.7177 C   0  0  0  0  0  0  0  0  0  0  0  0
  -17.7049  -46.6283  -21.2267 C   0  0  0  0  0  0  0  0  0  0  0  0
  -18.4978  -47.1023  -22.3134 C   0  0  0  0  0  0  0  0  0  0  0  0
  -18.7195  -46.1282  -23.2635 C   0  0  0  0  0  0  0  0  0  0  0  0
  -18.1674  -44.6103  -22.7386 S   0  0  0  0  0  0  0  0  0  0  0  0
  -17.3662  -45.3012  -21.3845 C   0  0  0  0  0  0  0  0  0  0  0  0
  -12.1032  -43.0500  -20.0190 N   0  0  0  0  0  0  0  0  0  0  0  0
  -13.0886  -42.7695  -21.0295 C   0  0  0  0  0  0  0  0  0  0  0  0
  -12.9688  -41.3216  -21.4260 C   0  0  0  0  0  0  0  0  0  0  0  0
  -13.8314  -40.4770  -22.0958 C   0  0  0  0  0  0  0  0  0  0  0  0
  -13.1657  -39.2890  -22.2258 N   0  0  0  0  0  0  0  0  0  0  0  0
  -11.9407  -39.4287  -21.6468 C   0  0  0  0  0  0  0  0  0  0  0  0
  -11.7812  -40.6374  -21.1688 N   0  0  0  0  0  0  0  0  0  0  0  0
  -21.1128  -47.7588  -26.8418 H   0  0  0  0  0  0  0  0  0  0  0  0
  -20.1053  -46.5307  -27.6161 H   0  0  0  0  0  0  0  0  0  0  0  0
  -16.8984  -41.8470  -17.1251 H   0  0  0  0  0  0  0  0  0  0  0  0
  -13.9577  -37.5708  -15.5762 H   0  0  0  0  0  0  0  0  0  0  0  0
  -12.4157  -37.1804  -16.3375 H   0  0  0  0  0  0  0  0  0  0  0  0
  -13.3743  -38.4915  -17.0136 H   0  0  0  0  0  0  0  0  0  0  0  0
  -14.4542  -40.3064  -17.6890 H   0  0  0  0  0  0  0  0  0  0  0  0
  -12.8919  -40.3575  -18.5278 H   0  0  0  0  0  0  0  0  0  0  0  0
  -14.4468  -40.4587  -19.4196 H   0  0  0  0  0  0  0  0  0  0  0  0
  -15.7149  -42.5292  -23.2844 H   0  0  0  0  0  0  0  0  0  0  0  0
  -14.0376  -42.9933  -23.7390 H   0  0  0  0  0  0  0  0  0  0  0  0
  -15.4127  -43.8489  -24.4169 H   0  0  0  0  0  0  0  0  0  0  0  0
  -22.6198  -46.2965  -26.4592 H   0  0  0  0  0  0  0  0  0  0  0  0
  -17.4394  -44.8782  -18.7086 H   0  0  0  0  0  0  0  0  0  0  0  0
  -11.2750  -40.5181  -13.6477 H   0  0  0  0  0  0  0  0  0  0  0  0
  -12.2667  -42.5571  -12.6536 H   0  0  0  0  0  0  0  0  0  0  0  0
  -14.5972  -43.1859  -13.2045 H   0  0  0  0  0  0  0  0  0  0  0  0
  -15.0127  -39.6354  -15.5966 H   0  0  0  0  0  0  0  0  0  0  0  0
  -17.3439  -47.2574  -20.4221 H   0  0  0  0  0  0  0  0  0  0  0  0
  -18.8315  -48.1275  -22.4170 H   0  0  0  0  0  0  0  0  0  0  0  0
  -14.8320  -40.6048  -22.4794 H   0  0  0  0  0  0  0  0  0  0  0  0
  -11.2120  -38.6287  -21.6096 H   0  0  0  0  0  0  0  0  0  0  0  0
  -11.2310  -42.6174  -20.3341 H   0  0  0  0  0  0  0  0  0  0  0  0
  -12.2966  -42.5452  -19.1598 H   0  0  0  0  0  0  0  0  0  0  0  0
  -12.8763  -43.3966  -21.8913 H   0  0  0  0  0  0  0  0  0  0  0  0
  -13.5217  -38.4533  -22.6676 H   0  0  0  0  0  0  0  0  0  0  0  0
  6 16  1  0
  6  5  1  0
  5  4  3  0
 14 15  1  0
  9  8  1  0
  9 10  1  0
  8  7  2  0
  2 10  2  0
 11 10  2  0
  1 13  1  0
 12  3  1  0
 17 22  2  0
 17 14  1  0
 17 18  1  0
 18 19  2  0
 19 20  1  0
 19  1  1  0
 20 21  2  0
 20  8  1  0
 21 22  1  0
 22 33  1  0
 23 28  2  0
 23 24  1  0
 24 25  2  0
 25 26  1  0
 26 10  1  0
 26 27  2  0
 27 28  1  0
 28  3  1  0
 29 30  1  0
 29 33  2  0
 30 31  2  0
 31  4  1  0
 31 32  1  0
 32 33  1  0
 35 34  1  0
 36 35  1  0
 36 37  2  0
 36 40  1  0
 37 38  1  0
 38 39  1  0
 39 40  2  0
 18 35  1  0
  6 41  1  0
  6 42  1  0
  9 43  1  0
 12 44  1  0
 12 45  1  0
 12 46  1  0
 13 47  1  0
 13 48  1  0
 13 49  1  0
 15 50  1  0
 15 51  1  0
 15 52  1  0
 16 53  1  0
 21 54  1  0
 23 55  1  0
 24 56  1  0
 25 57  1  0
 27 58  1  0
 29 59  1  0
 30 60  1  0
 37 61  1  0
 39 62  1  0
 34 63  1  0
 34 64  1  0
 35 65  1  0
 38 66  1  0
M  END
>  <smiles>  (712) 
[H]OC([H])([H])C#Cc1sc(-c2c([H])c(C(=O)N([H])S(=O)(=O)c3c([H])c([H])c([H])c(OC([H])([H])[H])c3[H])c(OC([H])([H])[H])c(C(N)c3nc([H])[nH]c3[H])c2OC([H])([H])[H])c([H])c1[H]

>  <error>  (712) 


>  <∆∆G>  (712) 
-74.798462

>  <∆G_bound>  (712) 
9.223461

>  <∆G_unbound>  (712) 
84.021923

>  <comRMSD>  (712) 
0.958407

>  <N_constrained_atoms>  (712) 
40.0

>  <N_unconstrained_atoms>  (712) 
0.0

>  <runtime>  (712) 
8.77831

>  <regarded>  (712) 
['5k5m-a', 'z0875c']

>  <disregarded>  (712) 
[]

>  <LE>  (712) 
1.869962

>  <outcome>  (712) 
acceptable

>  <percent_hybrid>  (712) 
18.0

$$$$
LIG
     RDKit          3D

 57 59  0  0  0  0  0  0  0  0999 V2000
  -13.1181  -42.3833  -18.6702 O   0  0  0  0  0  0  0  0  0  0  0  0
  -17.2925  -41.7848  -14.7245 O   0  0  0  0  0  0  0  0  0  0  0  0
  -12.6849  -38.7570  -15.8159 O   0  0  0  0  0  0  0  0  0  0  0  0
  -19.3549  -46.2416  -24.4391 C   0  0  0  0  0  0  0  0  0  0  0  0
  -19.9693  -46.4354  -25.4557 C   0  0  0  0  0  0  0  0  0  0  0  0
  -20.7083  -46.7129  -26.6908 C   0  0  0  0  0  0  0  0  0  0  0  0
  -14.1416  -44.5841  -16.7800 O   0  0  0  0  0  0  0  0  0  0  0  0
  -14.9052  -43.8107  -17.2078 C   0  0  0  0  0  0  0  0  0  0  0  0
  -15.8810  -42.8493  -16.4753 N   0  0  0  0  0  0  0  0  0  0  0  0
  -16.0702  -42.5395  -14.8755 S   0  0  0  0  0  0  0  0  0  0  0  0
  -15.7563  -43.7392  -14.1466 O   0  0  0  0  0  0  0  0  0  0  0  0
  -13.1294  -38.6850  -17.1696 C   0  0  0  0  0  0  0  0  0  0  0  0
  -12.1328  -41.6491  -19.3869 C   0  0  0  0  0  0  0  0  0  0  0  0
  -15.1338  -44.0743  -22.7987 O   0  0  0  0  0  0  0  0  0  0  0  0
  -14.1420  -43.4923  -23.6150 C   0  0  0  0  0  0  0  0  0  0  0  0
  -21.8116  -45.8256  -26.8130 O   0  0  0  0  0  0  0  0  0  0  0  0
  -14.4036  -37.8667  -17.3109 C   0  0  0  0  0  0  0  0  0  0  0  0
  -15.0786  -43.8813  -21.4441 C   0  0  0  0  0  0  0  0  0  0  0  0
  -14.0624  -43.1700  -20.7930 C   0  0  0  0  0  0  0  0  0  0  0  0
  -14.0513  -43.0670  -19.4019 C   0  0  0  0  0  0  0  0  0  0  0  0
  -15.0592  -43.7103  -18.6726 C   0  0  0  0  0  0  0  0  0  0  0  0
  -16.0892  -44.4201  -19.3075 C   0  0  0  0  0  0  0  0  0  0  0  0
  -16.1210  -44.4904  -20.7061 C   0  0  0  0  0  0  0  0  0  0  0  0
  -12.6158  -39.8658  -13.7633 C   0  0  0  0  0  0  0  0  0  0  0  0
  -13.0744  -40.8105  -12.8464 C   0  0  0  0  0  0  0  0  0  0  0  0
  -14.1483  -41.6183  -13.1878 C   0  0  0  0  0  0  0  0  0  0  0  0
  -14.7477  -41.4691  -14.4452 C   0  0  0  0  0  0  0  0  0  0  0  0
  -14.2884  -40.5408  -15.3656 C   0  0  0  0  0  0  0  0  0  0  0  0
  -13.2172  -39.7297  -15.0207 C   0  0  0  0  0  0  0  0  0  0  0  0
  -17.5817  -46.5633  -21.1972 C   0  0  0  0  0  0  0  0  0  0  0  0
  -18.4479  -47.0163  -22.2406 C   0  0  0  0  0  0  0  0  0  0  0  0
  -18.6678  -46.0472  -23.1970 C   0  0  0  0  0  0  0  0  0  0  0  0
  -18.0554  -44.5418  -22.6943 S   0  0  0  0  0  0  0  0  0  0  0  0
  -17.1705  -45.2597  -21.3981 C   0  0  0  0  0  0  0  0  0  0  0  0
  -21.0642  -47.7449  -26.7457 H   0  0  0  0  0  0  0  0  0  0  0  0
  -20.0618  -46.5400  -27.5484 H   0  0  0  0  0  0  0  0  0  0  0  0
  -16.4624  -42.3715  -17.1569 H   0  0  0  0  0  0  0  0  0  0  0  0
  -12.3334  -38.1796  -17.7286 H   0  0  0  0  0  0  0  0  0  0  0  0
  -13.2269  -39.6758  -17.6237 H   0  0  0  0  0  0  0  0  0  0  0  0
  -11.4453  -41.2090  -18.6588 H   0  0  0  0  0  0  0  0  0  0  0  0
  -11.5541  -42.2908  -20.0537 H   0  0  0  0  0  0  0  0  0  0  0  0
  -12.5958  -40.8311  -19.9489 H   0  0  0  0  0  0  0  0  0  0  0  0
  -14.0881  -42.4110  -23.4589 H   0  0  0  0  0  0  0  0  0  0  0  0
  -13.1872  -43.9964  -23.4547 H   0  0  0  0  0  0  0  0  0  0  0  0
  -14.4354  -43.6481  -24.6548 H   0  0  0  0  0  0  0  0  0  0  0  0
  -22.5829  -46.2809  -26.4131 H   0  0  0  0  0  0  0  0  0  0  0  0
  -15.2402  -38.2921  -16.7511 H   0  0  0  0  0  0  0  0  0  0  0  0
  -14.2474  -36.8568  -16.9166 H   0  0  0  0  0  0  0  0  0  0  0  0
  -14.6940  -37.7881  -18.3627 H   0  0  0  0  0  0  0  0  0  0  0  0
  -13.2600  -42.7358  -21.3760 H   0  0  0  0  0  0  0  0  0  0  0  0
  -16.8408  -44.9366  -18.7168 H   0  0  0  0  0  0  0  0  0  0  0  0
  -11.7775  -39.2250  -13.4985 H   0  0  0  0  0  0  0  0  0  0  0  0
  -12.5955  -40.9108  -11.8763 H   0  0  0  0  0  0  0  0  0  0  0  0
  -14.5112  -42.3608  -12.4801 H   0  0  0  0  0  0  0  0  0  0  0  0
  -14.7844  -40.4634  -16.3230 H   0  0  0  0  0  0  0  0  0  0  0  0
  -17.2031  -47.2062  -20.4119 H   0  0  0  0  0  0  0  0  0  0  0  0
  -18.8169  -48.0321  -22.3219 H   0  0  0  0  0  0  0  0  0  0  0  0
  6 16  1  0
  6  5  1  0
  5  4  3  0
 14 15  1  0
  9  8  1  0
  9 10  1  0
  8  7  2  0
  2 10  2  0
 11 10  2  0
  1 13  1  0
 12  3  1  0
 17 12  1  0
 18 23  2  0
 18 14  1  0
 18 19  1  0
 19 20  2  0
 20 21  1  0
 20  1  1  0
 21 22  2  0
 21  8  1  0
 22 23  1  0
 23 34  1  0
 24 29  2  0
 24 25  1  0
 25 26  2  0
 26 27  1  0
 27 10  1  0
 27 28  2  0
 28 29  1  0
 29  3  1  0
 30 31  1  0
 30 34  2  0
 31 32  2  0
 32  4  1  0
 32 33  1  0
 33 34  1  0
  6 35  1  0
  6 36  1  0
  9 37  1  0
 12 38  1  0
 12 39  1  0
 13 40  1  0
 13 41  1  0
 13 42  1  0
 15 43  1  0
 15 44  1  0
 15 45  1  0
 16 46  1  0
 17 47  1  0
 17 48  1  0
 17 49  1  0
 19 50  1  0
 22 51  1  0
 24 52  1  0
 25 53  1  0
 26 54  1  0
 28 55  1  0
 30 56  1  0
 31 57  1  0
M  END
>  <smiles>  (713) 
[H]OC([H])([H])C#Cc1sc(-c2c([H])c(C(=O)N([H])S(=O)(=O)c3c([H])c([H])c([H])c(OC([H])([H])C([H])([H])[H])c3[H])c(OC([H])([H])[H])c([H])c2OC([H])([H])[H])c([H])c1[H]

>  <error>  (713) 


>  <∆∆G>  (713) 
-51.233426

>  <∆G_bound>  (713) 
-14.796097

>  <∆G_unbound>  (713) 
36.437328

>  <comRMSD>  (713) 
0.596126

>  <N_constrained_atoms>  (713) 
34.0

>  <N_unconstrained_atoms>  (713) 
0.0

>  <runtime>  (713) 
3.255735

>  <regarded>  (713) 
['5k5m-a', '5i3p-a']

>  <disregarded>  (713) 
[]

>  <LE>  (713) 
1.506865

>  <outcome>  (713) 
acceptable

>  <percent_hybrid>  (713) 
3.0

$$$$
LIG
     RDKit          3D

 61 63  0  0  0  0  0  0  0  0999 V2000
  -13.5526  -41.9887  -18.4786 O   0  0  0  0  0  0  0  0  0  0  0  0
  -17.3071  -41.6389  -14.6225 O   0  0  0  0  0  0  0  0  0  0  0  0
  -12.4707  -38.8696  -15.7538 O   0  0  0  0  0  0  0  0  0  0  0  0
  -19.3504  -46.2203  -24.4448 C   0  0  0  0  0  0  0  0  0  0  0  0
  -19.9805  -46.4112  -25.4524 C   0  0  0  0  0  0  0  0  0  0  0  0
  -20.7253  -46.6934  -26.6834 C   0  0  0  0  0  0  0  0  0  0  0  0
  -14.2935  -44.5647  -16.7052 O   0  0  0  0  0  0  0  0  0  0  0  0
  -15.0621  -43.7884  -17.1242 C   0  0  0  0  0  0  0  0  0  0  0  0
  -15.9262  -42.7263  -16.3858 N   0  0  0  0  0  0  0  0  0  0  0  0
  -16.1126  -42.4341  -14.7877 S   0  0  0  0  0  0  0  0  0  0  0  0
  -15.8370  -43.6448  -14.0612 O   0  0  0  0  0  0  0  0  0  0  0  0
  -13.0850  -38.5946  -17.0064 C   0  0  0  0  0  0  0  0  0  0  0  0
  -12.2030  -42.4233  -18.3335 C   0  0  0  0  0  0  0  0  0  0  0  0
  -14.7833  -44.0401  -22.6608 O   0  0  0  0  0  0  0  0  0  0  0  0
  -15.0627  -43.0521  -23.6452 C   0  0  0  0  0  0  0  0  0  0  0  0
  -21.8303  -45.8084  -26.8015 O   0  0  0  0  0  0  0  0  0  0  0  0
  -12.3085  -39.7205  -21.3045 O   0  0  0  0  0  0  0  0  0  0  0  0
  -14.3735  -39.8610  -20.4731 O   0  0  0  0  0  0  0  0  0  0  0  0
  -13.4053  -40.4280  -20.9526 C   0  0  0  0  0  0  0  0  0  0  0  0
  -13.2557  -41.8895  -21.3032 C   0  0  0  0  0  0  0  0  0  0  0  0
  -17.0626  -45.1746  -18.5732 O   0  0  0  0  0  0  0  0  0  0  0  0
  -15.0733  -43.7079  -21.3544 C   0  0  0  0  0  0  0  0  0  0  0  0
  -14.2429  -42.8154  -20.6378 C   0  0  0  0  0  0  0  0  0  0  0  0
  -14.3108  -42.8436  -19.2389 C   0  0  0  0  0  0  0  0  0  0  0  0
  -15.2270  -43.6678  -18.5792 C   0  0  0  0  0  0  0  0  0  0  0  0
  -16.1332  -44.4561  -19.2901 C   0  0  0  0  0  0  0  0  0  0  0  0
  -16.0777  -44.4818  -20.6988 C   0  0  0  0  0  0  0  0  0  0  0  0
  -12.4831  -39.9776  -13.7058 C   0  0  0  0  0  0  0  0  0  0  0  0
  -13.0026  -40.8848  -12.7851 C   0  0  0  0  0  0  0  0  0  0  0  0
  -14.1382  -41.6071  -13.1163 C   0  0  0  0  0  0  0  0  0  0  0  0
  -14.7435  -41.4091  -14.3654 C   0  0  0  0  0  0  0  0  0  0  0  0
  -14.2347  -40.5003  -15.2865 C   0  0  0  0  0  0  0  0  0  0  0  0
  -13.0936  -39.7820  -14.9515 C   0  0  0  0  0  0  0  0  0  0  0  0
  -17.4004  -46.6217  -21.3256 C   0  0  0  0  0  0  0  0  0  0  0  0
  -18.3496  -47.0389  -22.3086 C   0  0  0  0  0  0  0  0  0  0  0  0
  -18.6159  -46.0471  -23.2273 C   0  0  0  0  0  0  0  0  0  0  0  0
  -17.9675  -44.5579  -22.7234 S   0  0  0  0  0  0  0  0  0  0  0  0
  -17.0363  -45.2956  -21.4756 C   0  0  0  0  0  0  0  0  0  0  0  0
  -21.0786  -47.7265  -26.7350 H   0  0  0  0  0  0  0  0  0  0  0  0
  -20.0832  -46.5213  -27.5449 H   0  0  0  0  0  0  0  0  0  0  0  0
  -16.4250  -42.1617  -17.0664 H   0  0  0  0  0  0  0  0  0  0  0  0
  -14.1000  -38.2043  -16.8766 H   0  0  0  0  0  0  0  0  0  0  0  0
  -12.4945  -37.8182  -17.5027 H   0  0  0  0  0  0  0  0  0  0  0  0
  -13.0765  -39.4762  -17.6528 H   0  0  0  0  0  0  0  0  0  0  0  0
  -11.9236  -42.3102  -17.2815 H   0  0  0  0  0  0  0  0  0  0  0  0
  -12.0627  -43.4724  -18.6112 H   0  0  0  0  0  0  0  0  0  0  0  0
  -11.5542  -41.7741  -18.9256 H   0  0  0  0  0  0  0  0  0  0  0  0
  -15.5430  -42.1551  -23.2387 H   0  0  0  0  0  0  0  0  0  0  0  0
  -14.1403  -42.7850  -24.1656 H   0  0  0  0  0  0  0  0  0  0  0  0
  -15.7253  -43.4896  -24.3980 H   0  0  0  0  0  0  0  0  0  0  0  0
  -22.6052  -46.2742  -26.4204 H   0  0  0  0  0  0  0  0  0  0  0  0
  -12.5060  -38.7992  -21.0349 H   0  0  0  0  0  0  0  0  0  0  0  0
  -13.3757  -41.9092  -22.3771 H   0  0  0  0  0  0  0  0  0  0  0  0
  -12.2404  -42.2234  -21.0735 H   0  0  0  0  0  0  0  0  0  0  0  0
  -17.7953  -45.4243  -19.1662 H   0  0  0  0  0  0  0  0  0  0  0  0
  -11.5883  -39.4124  -13.4541 H   0  0  0  0  0  0  0  0  0  0  0  0
  -12.5175  -41.0300  -11.8240 H   0  0  0  0  0  0  0  0  0  0  0  0
  -14.5398  -42.3306  -12.4096 H   0  0  0  0  0  0  0  0  0  0  0  0
  -14.7243  -40.3769  -16.2444 H   0  0  0  0  0  0  0  0  0  0  0  0
  -16.9786  -47.2874  -20.5800 H   0  0  0  0  0  0  0  0  0  0  0  0
  -18.7277  -48.0514  -22.3929 H   0  0  0  0  0  0  0  0  0  0  0  0
  6 16  1  0
  6  5  1  0
  5  4  3  0
 14 15  1  0
  9  8  1  0
  9 10  1  0
  8  7  2  0
  2 10  2  0
 11 10  2  0
  1 13  1  0
 12  3  1  0
 20 19  1  0
 18 19  2  0
 19 17  1  0
 22 27  2  0
 22 14  1  0
 22 23  1  0
 23 24  2  0
 24 25  1  0
 24  1  1  0
 25 26  2  0
 25  8  1  0
 26 27  1  0
 27 38  1  0
 28 33  2  0
 28 29  1  0
 29 30  2  0
 30 31  1  0
 31 10  1  0
 31 32  2  0
 32 33  1  0
 33  3  1  0
 34 35  1  0
 34 38  2  0
 35 36  2  0
 36  4  1  0
 36 37  1  0
 37 38  1  0
 20 23  1  0
 21 26  1  0
  6 39  1  0
  6 40  1  0
  9 41  1  0
 12 42  1  0
 12 43  1  0
 12 44  1  0
 13 45  1  0
 13 46  1  0
 13 47  1  0
 15 48  1  0
 15 49  1  0
 15 50  1  0
 16 51  1  0
 17 52  1  0
 20 53  1  0
 20 54  1  0
 21 55  1  0
 28 56  1  0
 29 57  1  0
 30 58  1  0
 32 59  1  0
 34 60  1  0
 35 61  1  0
M  END
>  <smiles>  (714) 
[H]OC(=O)C([H])([H])c1c(OC([H])([H])[H])c(C(=O)N([H])S(=O)(=O)c2c([H])c([H])c([H])c(OC([H])([H])[H])c2[H])c(O[H])c(-c2sc(C#CC([H])([H])O[H])c([H])c2[H])c1OC([H])([H])[H]

>  <error>  (714) 


>  <∆∆G>  (714) 
-102.338567

>  <∆G_bound>  (714) 
13.55111

>  <∆G_unbound>  (714) 
115.889677

>  <comRMSD>  (714) 
0.688963

>  <N_constrained_atoms>  (714) 
38.0

>  <N_unconstrained_atoms>  (714) 
0.0

>  <runtime>  (714) 
6.177562

>  <regarded>  (714) 
['5k5m-a', '5hn0-a']

>  <disregarded>  (714) 
[]

>  <LE>  (714) 
2.69312

>  <outcome>  (714) 
acceptable

>  <percent_hybrid>  (714) 
14.0

$$$$
LIG
     RDKit          3D

 55 57  0  0  0  0  0  0  0  0999 V2000
  -12.8460  -42.1843  -19.0893 O   0  0  0  0  0  0  0  0  0  0  0  0
  -17.4523  -41.7690  -14.8489 O   0  0  0  0  0  0  0  0  0  0  0  0
  -12.2586  -39.0077  -15.3510 O   0  0  0  0  0  0  0  0  0  0  0  0
  -19.2938  -46.2162  -24.3397 C   0  0  0  0  0  0  0  0  0  0  0  0
  -19.9010  -46.4217  -25.3602 C   0  0  0  0  0  0  0  0  0  0  0  0
  -20.6369  -46.7137  -26.5987 C   0  0  0  0  0  0  0  0  0  0  0  0
  -13.4401  -43.2700  -16.9340 O   0  0  0  0  0  0  0  0  0  0  0  0
  -14.5436  -43.2646  -17.3455 C   0  0  0  0  0  0  0  0  0  0  0  0
  -15.8453  -42.9029  -16.6567 N   0  0  0  0  0  0  0  0  0  0  0  0
  -16.1841  -42.4711  -14.9371 S   0  0  0  0  0  0  0  0  0  0  0  0
  -15.8876  -43.6724  -14.1921 O   0  0  0  0  0  0  0  0  0  0  0  0
  -12.6182  -38.7814  -16.7099 C   0  0  0  0  0  0  0  0  0  0  0  0
  -11.9780  -41.4422  -19.9236 C   0  0  0  0  0  0  0  0  0  0  0  0
  -15.0039  -44.3085  -22.8801 O   0  0  0  0  0  0  0  0  0  0  0  0
  -14.2819  -43.5168  -23.8061 C   0  0  0  0  0  0  0  0  0  0  0  0
  -21.7355  -45.8222  -26.7377 O   0  0  0  0  0  0  0  0  0  0  0  0
  -16.1643  -41.4205  -16.8168 O   0  0  0  0  0  0  0  0  0  0  0  0
  -14.9074  -43.9938  -21.5503 C   0  0  0  0  0  0  0  0  0  0  0  0
  -13.8391  -43.2729  -21.0221 C   0  0  0  0  0  0  0  0  0  0  0  0
  -13.7833  -43.0033  -19.6618 C   0  0  0  0  0  0  0  0  0  0  0  0
  -14.7516  -43.5577  -18.7971 C   0  0  0  0  0  0  0  0  0  0  0  0
  -15.8451  -44.2738  -19.3213 C   0  0  0  0  0  0  0  0  0  0  0  0
  -15.9410  -44.4801  -20.7127 C   0  0  0  0  0  0  0  0  0  0  0  0
  -12.7889  -39.9225  -13.2682 C   0  0  0  0  0  0  0  0  0  0  0  0
  -13.5560  -40.7304  -12.4314 C   0  0  0  0  0  0  0  0  0  0  0  0
  -14.6137  -41.4579  -12.9645 C   0  0  0  0  0  0  0  0  0  0  0  0
  -14.8889  -41.3918  -14.3398 C   0  0  0  0  0  0  0  0  0  0  0  0
  -14.0960  -40.6075  -15.1734 C   0  0  0  0  0  0  0  0  0  0  0  0
  -13.0645  -39.8472  -14.6347 C   0  0  0  0  0  0  0  0  0  0  0  0
  -17.5022  -46.5146  -21.0930 C   0  0  0  0  0  0  0  0  0  0  0  0
  -18.3924  -46.9673  -22.1225 C   0  0  0  0  0  0  0  0  0  0  0  0
  -18.6065  -46.0109  -23.0946 C   0  0  0  0  0  0  0  0  0  0  0  0
  -17.9689  -44.5066  -22.6100 S   0  0  0  0  0  0  0  0  0  0  0  0
  -17.0600  -45.2267  -21.3247 C   0  0  0  0  0  0  0  0  0  0  0  0
  -20.9977  -47.7442  -26.6431 H   0  0  0  0  0  0  0  0  0  0  0  0
  -19.9919  -46.5639  -27.4621 H   0  0  0  0  0  0  0  0  0  0  0  0
  -13.6368  -38.3881  -16.7951 H   0  0  0  0  0  0  0  0  0  0  0  0
  -11.9375  -38.0243  -17.1112 H   0  0  0  0  0  0  0  0  0  0  0  0
  -12.4883  -39.6897  -17.3061 H   0  0  0  0  0  0  0  0  0  0  0  0
  -11.3446  -40.8183  -19.2862 H   0  0  0  0  0  0  0  0  0  0  0  0
  -11.3239  -42.0956  -20.5009 H   0  0  0  0  0  0  0  0  0  0  0  0
  -12.5419  -40.7775  -20.5865 H   0  0  0  0  0  0  0  0  0  0  0  0
  -14.2759  -42.4545  -23.5415 H   0  0  0  0  0  0  0  0  0  0  0  0
  -13.2759  -43.9238  -23.9204 H   0  0  0  0  0  0  0  0  0  0  0  0
  -14.7914  -43.5975  -24.7695 H   0  0  0  0  0  0  0  0  0  0  0  0
  -22.5090  -46.2654  -26.3306 H   0  0  0  0  0  0  0  0  0  0  0  0
  -17.1482  -41.3595  -16.7383 H   0  0  0  0  0  0  0  0  0  0  0  0
  -13.0394  -42.9469  -21.6729 H   0  0  0  0  0  0  0  0  0  0  0  0
  -16.6143  -44.6599  -18.6593 H   0  0  0  0  0  0  0  0  0  0  0  0
  -11.9680  -39.3426  -12.8529 H   0  0  0  0  0  0  0  0  0  0  0  0
  -13.3307  -40.7866  -11.3699 H   0  0  0  0  0  0  0  0  0  0  0  0
  -15.2092  -42.0915  -12.3095 H   0  0  0  0  0  0  0  0  0  0  0  0
  -14.2459  -40.5968  -16.2409 H   0  0  0  0  0  0  0  0  0  0  0  0
  -17.1168  -47.1570  -20.3109 H   0  0  0  0  0  0  0  0  0  0  0  0
  -18.7730  -47.9801  -22.1882 H   0  0  0  0  0  0  0  0  0  0  0  0
  6 16  1  0
  6  5  1  0
  5  4  3  0
 14 15  1  0
  9  8  1  0
  9 10  1  0
  8  7  2  0
  2 10  2  0
 11 10  2  0
  1 13  1  0
 12  3  1  0
 17  9  1  0
 18 23  2  0
 18 14  1  0
 18 19  1  0
 19 20  2  0
 20 21  1  0
 20  1  1  0
 21 22  2  0
 21  8  1  0
 22 23  1  0
 23 34  1  0
 24 29  2  0
 24 25  1  0
 25 26  2  0
 26 27  1  0
 27 10  1  0
 27 28  2  0
 28 29  1  0
 29  3  1  0
 30 31  1  0
 30 34  2  0
 31 32  2  0
 32  4  1  0
 32 33  1  0
 33 34  1  0
  6 35  1  0
  6 36  1  0
 12 37  1  0
 12 38  1  0
 12 39  1  0
 13 40  1  0
 13 41  1  0
 13 42  1  0
 15 43  1  0
 15 44  1  0
 15 45  1  0
 16 46  1  0
 17 47  1  0
 19 48  1  0
 22 49  1  0
 24 50  1  0
 25 51  1  0
 26 52  1  0
 28 53  1  0
 30 54  1  0
 31 55  1  0
M  END
>  <smiles>  (715) 
[H]ON(C(=O)c1c([H])c(-c2sc(C#CC([H])([H])O[H])c([H])c2[H])c(OC([H])([H])[H])c([H])c1OC([H])([H])[H])S(=O)(=O)c1c([H])c([H])c([H])c(OC([H])([H])[H])c1[H]

>  <error>  (715) 


>  <∆∆G>  (715) 
-42.095551

>  <∆G_bound>  (715) 
149.271765

>  <∆G_unbound>  (715) 
191.367316

>  <comRMSD>  (715) 
0.706424

>  <N_constrained_atoms>  (715) 
34.0

>  <N_unconstrained_atoms>  (715) 
0.0

>  <runtime>  (715) 
2.369007

>  <regarded>  (715) 
['5k5m-a', '5f41-a']

>  <disregarded>  (715) 
[]

>  <LE>  (715) 
1.238104

>  <outcome>  (715) 
acceptable

>  <percent_hybrid>  (715) 
3.0

$$$$
LIG
     RDKit          3D

 55 57  0  0  0  0  0  0  0  0999 V2000
  -13.0713  -42.1079  -18.8181 O   0  0  0  0  0  0  0  0  0  0  0  0
  -17.1902  -41.6170  -14.8180 O   0  0  0  0  0  0  0  0  0  0  0  0
  -12.5394  -38.6582  -15.5599 O   0  0  0  0  0  0  0  0  0  0  0  0
  -19.3701  -46.1139  -24.4761 C   0  0  0  0  0  0  0  0  0  0  0  0
  -20.0006  -46.3649  -25.4699 C   0  0  0  0  0  0  0  0  0  0  0  0
  -20.7353  -46.6928  -26.6948 C   0  0  0  0  0  0  0  0  0  0  0  0
  -15.7700  -40.7331  -17.9801 O   0  0  0  0  0  0  0  0  0  0  0  0
  -15.6289  -41.8987  -17.8994 C   0  0  0  0  0  0  0  0  0  0  0  0
  -15.7393  -42.8189  -16.7005 N   0  0  0  0  0  0  0  0  0  0  0  0
  -16.0059  -42.4467  -14.9474 S   0  0  0  0  0  0  0  0  0  0  0  0
  -15.8090  -43.6766  -14.2156 O   0  0  0  0  0  0  0  0  0  0  0  0
  -13.0960  -38.4217  -16.8495 C   0  0  0  0  0  0  0  0  0  0  0  0
  -12.0549  -41.4315  -19.5481 C   0  0  0  0  0  0  0  0  0  0  0  0
  -14.5903  -44.6032  -22.6652 O   0  0  0  0  0  0  0  0  0  0  0  0
  -14.2395  -43.6650  -23.6797 C   0  0  0  0  0  0  0  0  0  0  0  0
  -21.8496  -45.8242  -26.8453 O   0  0  0  0  0  0  0  0  0  0  0  0
  -17.1593  -43.3429  -16.5351 O   0  0  0  0  0  0  0  0  0  0  0  0
  -14.8217  -44.0084  -21.4573 C   0  0  0  0  0  0  0  0  0  0  0  0
  -13.7791  -43.3605  -20.7858 C   0  0  0  0  0  0  0  0  0  0  0  0
  -14.0306  -42.7099  -19.5850 C   0  0  0  0  0  0  0  0  0  0  0  0
  -15.3302  -42.7332  -19.0760 C   0  0  0  0  0  0  0  0  0  0  0  0
  -16.3563  -43.4713  -19.6904 C   0  0  0  0  0  0  0  0  0  0  0  0
  -16.0993  -44.1320  -20.8904 C   0  0  0  0  0  0  0  0  0  0  0  0
  -12.3296  -40.1044  -13.7401 C   0  0  0  0  0  0  0  0  0  0  0  0
  -12.7375  -41.1886  -12.9681 C   0  0  0  0  0  0  0  0  0  0  0  0
  -13.8732  -41.8936  -13.3395 C   0  0  0  0  0  0  0  0  0  0  0  0
  -14.6076  -41.4886  -14.4652 C   0  0  0  0  0  0  0  0  0  0  0  0
  -14.2362  -40.3729  -15.1965 C   0  0  0  0  0  0  0  0  0  0  0  0
  -13.0638  -39.7081  -14.8625 C   0  0  0  0  0  0  0  0  0  0  0  0
  -17.5615  -46.2114  -21.2421 C   0  0  0  0  0  0  0  0  0  0  0  0
  -18.4306  -46.7356  -22.2466 C   0  0  0  0  0  0  0  0  0  0  0  0
  -18.6370  -45.8411  -23.2768 C   0  0  0  0  0  0  0  0  0  0  0  0
  -17.8975  -44.3367  -22.9596 S   0  0  0  0  0  0  0  0  0  0  0  0
  -17.1263  -44.9382  -21.5514 C   0  0  0  0  0  0  0  0  0  0  0  0
  -21.0750  -47.7312  -26.7208 H   0  0  0  0  0  0  0  0  0  0  0  0
  -20.0882  -46.5356  -27.5553 H   0  0  0  0  0  0  0  0  0  0  0  0
  -12.4807  -37.6622  -17.3417 H   0  0  0  0  0  0  0  0  0  0  0  0
  -13.0702  -39.3215  -17.4725 H   0  0  0  0  0  0  0  0  0  0  0  0
  -14.1120  -38.0219  -16.7694 H   0  0  0  0  0  0  0  0  0  0  0  0
  -11.4195  -42.1247  -20.1006 H   0  0  0  0  0  0  0  0  0  0  0  0
  -12.4909  -40.6926  -20.2295 H   0  0  0  0  0  0  0  0  0  0  0  0
  -11.4250  -40.8971  -18.8308 H   0  0  0  0  0  0  0  0  0  0  0  0
  -14.1934  -42.6248  -23.3387 H   0  0  0  0  0  0  0  0  0  0  0  0
  -13.2796  -43.9664  -24.1028 H   0  0  0  0  0  0  0  0  0  0  0  0
  -14.9904  -43.7232  -24.4735 H   0  0  0  0  0  0  0  0  0  0  0  0
  -22.6201  -46.2851  -26.4495 H   0  0  0  0  0  0  0  0  0  0  0  0
  -17.7516  -42.5763  -16.3284 H   0  0  0  0  0  0  0  0  0  0  0  0
  -12.7832  -43.4102  -21.2108 H   0  0  0  0  0  0  0  0  0  0  0  0
  -17.3516  -43.4956  -19.2550 H   0  0  0  0  0  0  0  0  0  0  0  0
  -11.4246  -39.5634  -13.4731 H   0  0  0  0  0  0  0  0  0  0  0  0
  -12.1596  -41.4911  -12.0990 H   0  0  0  0  0  0  0  0  0  0  0  0
  -14.1751  -42.7554  -12.7475 H   0  0  0  0  0  0  0  0  0  0  0  0
  -14.8619  -40.0258  -16.0049 H   0  0  0  0  0  0  0  0  0  0  0  0
  -17.2147  -46.7767  -20.3856 H   0  0  0  0  0  0  0  0  0  0  0  0
  -18.8338  -47.7423  -22.2351 H   0  0  0  0  0  0  0  0  0  0  0  0
  6 16  1  0
  6  5  1  0
  5  4  3  0
 14 15  1  0
  9  8  1  0
  9 10  1  0
  8  7  2  0
  2 10  2  0
 11 10  2  0
  1 13  1  0
 12  3  1  0
 17  9  1  0
 18 23  2  0
 18 14  1  0
 18 19  1  0
 19 20  2  0
 20 21  1  0
 20  1  1  0
 21 22  2  0
 21  8  1  0
 22 23  1  0
 23 34  1  0
 24 29  2  0
 24 25  1  0
 25 26  2  0
 26 27  1  0
 27 10  1  0
 27 28  2  0
 28 29  1  0
 29  3  1  0
 30 31  1  0
 30 34  2  0
 31 32  2  0
 32  4  1  0
 32 33  1  0
 33 34  1  0
  6 35  1  0
  6 36  1  0
 12 37  1  0
 12 38  1  0
 12 39  1  0
 13 40  1  0
 13 41  1  0
 13 42  1  0
 15 43  1  0
 15 44  1  0
 15 45  1  0
 16 46  1  0
 17 47  1  0
 19 48  1  0
 22 49  1  0
 24 50  1  0
 25 51  1  0
 26 52  1  0
 28 53  1  0
 30 54  1  0
 31 55  1  0
M  END
>  <smiles>  (716) 
[H]ON(C(=O)c1c([H])c(-c2sc(C#CC([H])([H])O[H])c([H])c2[H])c(OC([H])([H])[H])c([H])c1OC([H])([H])[H])S(=O)(=O)c1c([H])c([H])c([H])c(OC([H])([H])[H])c1[H]

>  <error>  (716) 


>  <∆∆G>  (716) 
-56.081412

>  <∆G_bound>  (716) 
135.285904

>  <∆G_unbound>  (716) 
191.367316

>  <comRMSD>  (716) 
1.133192

>  <N_constrained_atoms>  (716) 
34.0

>  <N_unconstrained_atoms>  (716) 
0.0

>  <runtime>  (716) 
4.623992

>  <regarded>  (716) 
['5k5m-a', '6h80-a']

>  <disregarded>  (716) 
[]

>  <LE>  (716) 
1.649453

>  <outcome>  (716) 
too moved

>  <percent_hybrid>  (716) 
3.0

$$$$
LIG
     RDKit          3D

 60 62  0  0  0  0  0  0  0  0999 V2000
  -13.4712  -41.7475  -18.5477 O   0  0  0  0  0  0  0  0  0  0  0  0
  -17.2326  -41.7250  -14.7167 O   0  0  0  0  0  0  0  0  0  0  0  0
  -12.4655  -38.8280  -15.7235 O   0  0  0  0  0  0  0  0  0  0  0  0
  -19.3470  -46.1526  -24.4512 C   0  0  0  0  0  0  0  0  0  0  0  0
  -19.9832  -46.3834  -25.4467 C   0  0  0  0  0  0  0  0  0  0  0  0
  -20.7231  -46.6943  -26.6742 C   0  0  0  0  0  0  0  0  0  0  0  0
  -14.1818  -44.5750  -16.8459 O   0  0  0  0  0  0  0  0  0  0  0  0
  -14.9004  -43.7498  -17.2546 C   0  0  0  0  0  0  0  0  0  0  0  0
  -15.8350  -42.7644  -16.4991 N   0  0  0  0  0  0  0  0  0  0  0  0
  -16.0264  -42.4992  -14.8933 S   0  0  0  0  0  0  0  0  0  0  0  0
  -15.7437  -43.7303  -14.2030 O   0  0  0  0  0  0  0  0  0  0  0  0
  -13.1285  -38.4661  -16.9280 C   0  0  0  0  0  0  0  0  0  0  0  0
  -12.1174  -42.1973  -18.5434 C   0  0  0  0  0  0  0  0  0  0  0  0
  -15.2563  -42.9642  -22.7849 O   0  0  0  0  0  0  0  0  0  0  0  0
  -14.3262  -43.8234  -23.4392 C   0  0  0  0  0  0  0  0  0  0  0  0
  -21.8325  -45.8181  -26.8142 O   0  0  0  0  0  0  0  0  0  0  0  0
  -13.7512  -41.1055  -21.3216 C   0  0  0  0  0  0  0  0  0  0  0  0
  -15.3280  -39.6545  -20.1077 O   0  0  0  0  0  0  0  0  0  0  0  0
  -13.8152  -38.7327  -21.4516 O   0  0  0  0  0  0  0  0  0  0  0  0
  -14.3977  -39.8119  -20.8819 C   0  0  0  0  0  0  0  0  0  0  0  0
  -15.2213  -43.1875  -21.4304 C   0  0  0  0  0  0  0  0  0  0  0  0
  -14.3899  -42.3251  -20.6837 C   0  0  0  0  0  0  0  0  0  0  0  0
  -14.2543  -42.5652  -19.3157 C   0  0  0  0  0  0  0  0  0  0  0  0
  -15.0240  -43.5518  -18.7041 C   0  0  0  0  0  0  0  0  0  0  0  0
  -15.8882  -44.3702  -19.4408 C   0  0  0  0  0  0  0  0  0  0  0  0
  -16.0192  -44.1933  -20.8271 C   0  0  0  0  0  0  0  0  0  0  0  0
  -12.4587  -40.0036  -13.7128 C   0  0  0  0  0  0  0  0  0  0  0  0
  -12.9609  -40.9526  -12.8252 C   0  0  0  0  0  0  0  0  0  0  0  0
  -14.0755  -41.6923  -13.1877 C   0  0  0  0  0  0  0  0  0  0  0  0
  -14.6768  -41.4692  -14.4346 C   0  0  0  0  0  0  0  0  0  0  0  0
  -14.1883  -40.5165  -15.3209 C   0  0  0  0  0  0  0  0  0  0  0  0
  -13.0685  -39.7809  -14.9542 C   0  0  0  0  0  0  0  0  0  0  0  0
  -17.3904  -46.3400  -21.3117 C   0  0  0  0  0  0  0  0  0  0  0  0
  -18.3224  -46.8345  -22.2770 C   0  0  0  0  0  0  0  0  0  0  0  0
  -18.5906  -45.9078  -23.2594 C   0  0  0  0  0  0  0  0  0  0  0  0
  -17.8974  -44.3995  -22.8885 S   0  0  0  0  0  0  0  0  0  0  0  0
  -16.9946  -45.0345  -21.5630 C   0  0  0  0  0  0  0  0  0  0  0  0
  -21.0693  -47.7303  -26.7094 H   0  0  0  0  0  0  0  0  0  0  0  0
  -20.0785  -46.5346  -27.5363 H   0  0  0  0  0  0  0  0  0  0  0  0
  -16.2604  -42.1216  -17.1637 H   0  0  0  0  0  0  0  0  0  0  0  0
  -14.1456  -38.1092  -16.7344 H   0  0  0  0  0  0  0  0  0  0  0  0
  -12.5702  -37.6398  -17.3788 H   0  0  0  0  0  0  0  0  0  0  0  0
  -13.1263  -39.2914  -17.6443 H   0  0  0  0  0  0  0  0  0  0  0  0
  -12.0292  -43.1467  -18.0051 H   0  0  0  0  0  0  0  0  0  0  0  0
  -11.7218  -42.3005  -19.5570 H   0  0  0  0  0  0  0  0  0  0  0  0
  -11.5183  -41.4497  -18.0153 H   0  0  0  0  0  0  0  0  0  0  0  0
  -13.3850  -43.9317  -22.8917 H   0  0  0  0  0  0  0  0  0  0  0  0
  -14.7986  -44.7954  -23.5640 H   0  0  0  0  0  0  0  0  0  0  0  0
  -14.1144  -43.4076  -24.4271 H   0  0  0  0  0  0  0  0  0  0  0  0
  -22.6047  -46.2768  -26.4198 H   0  0  0  0  0  0  0  0  0  0  0  0
  -13.8159  -41.1430  -22.4133 H   0  0  0  0  0  0  0  0  0  0  0  0
  -12.6865  -41.0669  -21.0741 H   0  0  0  0  0  0  0  0  0  0  0  0
  -14.3449  -37.9859  -21.0997 H   0  0  0  0  0  0  0  0  0  0  0  0
  -16.4764  -45.1215  -18.9196 H   0  0  0  0  0  0  0  0  0  0  0  0
  -11.5802  -39.4243  -13.4366 H   0  0  0  0  0  0  0  0  0  0  0  0
  -12.4788  -41.1157  -11.8654 H   0  0  0  0  0  0  0  0  0  0  0  0
  -14.4651  -42.4460  -12.5062 H   0  0  0  0  0  0  0  0  0  0  0  0
  -14.6773  -40.3702  -16.2759 H   0  0  0  0  0  0  0  0  0  0  0  0
  -17.0013  -46.9474  -20.5033 H   0  0  0  0  0  0  0  0  0  0  0  0
  -18.7099  -47.8474  -22.2838 H   0  0  0  0  0  0  0  0  0  0  0  0
  6 16  1  0
  6  5  1  0
  5  4  3  0
 14 15  1  0
  9  8  1  0
  9 10  1  0
  8  7  2  0
  2 10  2  0
 11 10  2  0
  1 13  1  0
 12  3  1  0
 17 20  1  0
 18 20  2  0
 20 19  1  0
 21 26  2  0
 21 14  1  0
 21 22  1  0
 22 23  2  0
 23 24  1  0
 23  1  1  0
 24 25  2  0
 24  8  1  0
 25 26  1  0
 26 37  1  0
 27 32  2  0
 27 28  1  0
 28 29  2  0
 29 30  1  0
 30 10  1  0
 30 31  2  0
 31 32  1  0
 32  3  1  0
 33 34  1  0
 33 37  2  0
 34 35  2  0
 35  4  1  0
 35 36  1  0
 36 37  1  0
 17 22  1  0
  6 38  1  0
  6 39  1  0
  9 40  1  0
 12 41  1  0
 12 42  1  0
 12 43  1  0
 13 44  1  0
 13 45  1  0
 13 46  1  0
 15 47  1  0
 15 48  1  0
 15 49  1  0
 16 50  1  0
 17 51  1  0
 17 52  1  0
 19 53  1  0
 25 54  1  0
 27 55  1  0
 28 56  1  0
 29 57  1  0
 31 58  1  0
 33 59  1  0
 34 60  1  0
M  END
>  <smiles>  (717) 
[H]OC(=O)C([H])([H])c1c(OC([H])([H])[H])c(C(=O)N([H])S(=O)(=O)c2c([H])c([H])c([H])c(OC([H])([H])[H])c2[H])c([H])c(-c2sc(C#CC([H])([H])O[H])c([H])c2[H])c1OC([H])([H])[H]

>  <error>  (717) 


>  <∆∆G>  (717) 
-87.902614

>  <∆G_bound>  (717) 
-28.17792

>  <∆G_unbound>  (717) 
59.724693

>  <comRMSD>  (717) 
0.796759

>  <N_constrained_atoms>  (717) 
37.0

>  <N_unconstrained_atoms>  (717) 
0.0

>  <runtime>  (717) 
4.081891

>  <regarded>  (717) 
['5k5m-a', '5hmy-a']

>  <disregarded>  (717) 
[]

>  <LE>  (717) 
2.375746

>  <outcome>  (717) 
acceptable

>  <percent_hybrid>  (717) 
11.0

$$$$
LIG
     RDKit          3D

 76 80  0  0  0  0  0  0  0  0999 V2000
  -13.0114  -42.4900  -18.5464 O   0  0  0  0  0  0  0  0  0  0  0  0
  -17.0947  -42.2082  -14.3273 O   0  0  0  0  0  0  0  0  0  0  0  0
  -12.4534  -38.8814  -15.3811 O   0  0  0  0  0  0  0  0  0  0  0  0
  -19.4522  -45.9713  -24.5043 C   0  0  0  0  0  0  0  0  0  0  0  0
  -20.0711  -46.2528  -25.4967 C   0  0  0  0  0  0  0  0  0  0  0  0
  -20.7804  -46.6361  -26.7187 C   0  0  0  0  0  0  0  0  0  0  0  0
  -14.8340  -44.5075  -17.5887 O   0  0  0  0  0  0  0  0  0  0  0  0
  -15.3295  -43.4432  -17.6238 C   0  0  0  0  0  0  0  0  0  0  0  0
  -15.8924  -42.5448  -16.4642 N   0  0  0  0  0  0  0  0  0  0  0  0
  -15.8659  -42.7633  -14.8454 S   0  0  0  0  0  0  0  0  0  0  0  0
  -15.3475  -44.0744  -14.5510 O   0  0  0  0  0  0  0  0  0  0  0  0
  -13.1020  -38.4757  -16.5795 C   0  0  0  0  0  0  0  0  0  0  0  0
  -11.9044  -41.6495  -18.8494 C   0  0  0  0  0  0  0  0  0  0  0  0
  -21.8990  -45.7855  -26.9226 O   0  0  0  0  0  0  0  0  0  0  0  0
  -20.4180  -40.8712  -27.2724 C   0  0  0  0  0  0  0  0  0  0  0  0
  -19.5082  -41.2191  -26.1346 C   0  0  0  0  0  0  0  0  0  0  0  0
  -19.9171  -41.4041  -24.9937 O   0  0  0  0  0  0  0  0  0  0  0  0
  -18.1835  -41.2796  -26.5844 O   0  0  0  0  0  0  0  0  0  0  0  0
  -14.8762  -43.2261  -21.7982 C   0  0  1  0  0  0  0  0  0  0  0  0
  -13.6930  -43.3525  -20.7916 C   0  0  0  0  0  0  0  0  0  0  0  0
  -14.0210  -42.4572  -19.5555 C   0  0  1  0  0  0  0  0  0  0  0  0
  -15.4209  -42.6429  -18.9246 C   0  0  1  0  0  0  0  0  0  0  0  0
  -16.5484  -43.1588  -19.8244 C   0  0  0  0  0  0  0  0  0  0  0  0
  -16.0255  -43.9912  -20.9863 C   0  0  1  0  0  0  0  0  0  0  0  0
  -12.5074  -40.1095  -13.3963 C   0  0  0  0  0  0  0  0  0  0  0  0
  -13.0149  -41.1112  -12.5676 C   0  0  0  0  0  0  0  0  0  0  0  0
  -14.0631  -41.9024  -13.0158 C   0  0  0  0  0  0  0  0  0  0  0  0
  -14.5920  -41.6764  -14.2906 C   0  0  0  0  0  0  0  0  0  0  0  0
  -14.0945  -40.6728  -15.1197 C   0  0  0  0  0  0  0  0  0  0  0  0
  -13.0461  -39.8835  -14.6674 C   0  0  0  0  0  0  0  0  0  0  0  0
  -17.3833  -46.1487  -21.4658 C   0  0  0  0  0  0  0  0  0  0  0  0
  -18.3197  -46.6705  -22.4028 C   0  0  0  0  0  0  0  0  0  0  0  0
  -18.7167  -45.7103  -23.3064 C   0  0  0  0  0  0  0  0  0  0  0  0
  -18.2536  -44.1571  -22.7787 S   0  0  0  0  0  0  0  0  0  0  0  0
  -17.1171  -44.8012  -21.6753 C   0  0  0  0  0  0  0  0  0  0  0  0
  -15.0829  -41.7254  -22.0036 N   0  0  0  0  0  0  0  0  0  0  0  0
  -15.8345  -41.5490  -23.2077 C   0  0  0  0  0  0  0  0  0  0  0  0
  -15.7726  -42.5795  -24.1477 C   0  0  0  0  0  0  0  0  0  0  0  0
  -14.7369  -43.8821  -23.5136 S   0  0  0  0  0  0  0  0  0  0  0  0
  -17.2652  -41.3348  -25.5288 C   0  0  0  0  0  0  0  0  0  0  0  0
  -16.4930  -42.4851  -25.3302 C   0  0  0  0  0  0  0  0  0  0  0  0
  -16.4698  -40.3451  -23.4914 C   0  0  0  0  0  0  0  0  0  0  0  0
  -17.1706  -40.2273  -24.6769 C   0  0  0  0  0  0  0  0  0  0  0  0
  -13.8707  -40.9171  -22.3207 C   0  0  0  0  0  0  0  0  0  0  0  0
  -21.1096  -47.6781  -26.7114 H   0  0  0  0  0  0  0  0  0  0  0  0
  -20.1183  -46.5064  -27.5726 H   0  0  0  0  0  0  0  0  0  0  0  0
  -16.3262  -41.7175  -16.8560 H   0  0  0  0  0  0  0  0  0  0  0  0
  -14.1273  -38.1443  -16.3829 H   0  0  0  0  0  0  0  0  0  0  0  0
  -12.5495  -37.6231  -16.9859 H   0  0  0  0  0  0  0  0  0  0  0  0
  -13.0828  -39.2702  -17.3292 H   0  0  0  0  0  0  0  0  0  0  0  0
  -11.2088  -41.6886  -18.0086 H   0  0  0  0  0  0  0  0  0  0  0  0
  -11.4064  -41.9732  -19.7648 H   0  0  0  0  0  0  0  0  0  0  0  0
  -12.2279  -40.6113  -18.9665 H   0  0  0  0  0  0  0  0  0  0  0  0
  -22.6669  -46.2304  -26.5034 H   0  0  0  0  0  0  0  0  0  0  0  0
  -20.7571  -41.7748  -27.7793 H   0  0  0  0  0  0  0  0  0  0  0  0
  -21.2841  -40.3277  -26.8832 H   0  0  0  0  0  0  0  0  0  0  0  0
  -19.9015  -40.2037  -27.9633 H   0  0  0  0  0  0  0  0  0  0  0  0
  -13.5125  -44.3853  -20.4687 H   0  0  0  0  0  0  0  0  0  0  0  0
  -12.7429  -43.0568  -21.2395 H   0  0  0  0  0  0  0  0  0  0  0  0
  -14.0455  -41.4132  -19.8814 H   0  0  0  0  0  0  0  0  0  0  0  0
  -15.7251  -41.6258  -18.6414 H   0  0  0  0  0  0  0  0  0  0  0  0
  -17.2747  -43.7321  -19.2329 H   0  0  0  0  0  0  0  0  0  0  0  0
  -17.1088  -42.3028  -20.2234 H   0  0  0  0  0  0  0  0  0  0  0  0
  -15.4938  -44.8217  -20.4896 H   0  0  0  0  0  0  0  0  0  0  0  0
  -11.6799  -39.4950  -13.0480 H   0  0  0  0  0  0  0  0  0  0  0  0
  -12.5840  -41.2758  -11.5835 H   0  0  0  0  0  0  0  0  0  0  0  0
  -14.4548  -42.6979  -12.3853 H   0  0  0  0  0  0  0  0  0  0  0  0
  -14.5082  -40.5262  -16.1063 H   0  0  0  0  0  0  0  0  0  0  0  0
  -16.8647  -46.7605  -20.7363 H   0  0  0  0  0  0  0  0  0  0  0  0
  -18.5969  -47.7165  -22.4709 H   0  0  0  0  0  0  0  0  0  0  0  0
  -16.5098  -43.3060  -26.0346 H   0  0  0  0  0  0  0  0  0  0  0  0
  -16.4610  -39.5300  -22.7759 H   0  0  0  0  0  0  0  0  0  0  0  0
  -17.7277  -39.3188  -24.8829 H   0  0  0  0  0  0  0  0  0  0  0  0
  -14.0918  -39.8590  -22.1245 H   0  0  0  0  0  0  0  0  0  0  0  0
  -12.9999  -41.1291  -21.7003 H   0  0  0  0  0  0  0  0  0  0  0  0
  -13.5508  -40.9885  -23.3644 H   0  0  0  0  0  0  0  0  0  0  0  0
  6 14  1  0
  6  5  1  0
  5  4  3  0
  9  8  1  0
  9 10  1  0
  8  7  2  0
  2 10  2  0
 11 10  2  0
  1 13  1  0
 12  3  1  0
 18 16  1  0
 16 17  2  0
 16 15  1  0
 19 24  1  0
 19 20  1  0
 20 21  1  0
 21 22  1  0
 21  1  1  0
 22 23  1  0
 22  8  1  0
 23 24  1  0
 24 35  1  0
 25 30  2  0
 25 26  1  0
 26 27  2  0
 27 28  1  0
 28 10  1  0
 28 29  2  0
 29 30  1  0
 30  3  1  0
 31 32  1  0
 31 35  2  0
 32 33  2  0
 33  4  1  0
 33 34  1  0
 34 35  1  0
 36 37  1  0
 37 42  2  0
 37 38  1  0
 38 39  1  0
 38 41  2  0
 40 43  2  0
 40 41  1  0
 40 18  1  0
 42 43  1  0
 19 36  1  0
 19 39  1  6
 36 44  1  0
  6 45  1  0
  6 46  1  0
  9 47  1  0
 12 48  1  0
 12 49  1  0
 12 50  1  0
 13 51  1  0
 13 52  1  0
 13 53  1  0
 14 54  1  0
 15 55  1  0
 15 56  1  0
 15 57  1  0
 20 58  1  0
 20 59  1  0
 21 60  1  6
 22 61  1  6
 23 62  1  0
 23 63  1  0
 24 64  1  1
 25 65  1  0
 26 66  1  0
 27 67  1  0
 29 68  1  0
 31 69  1  0
 32 70  1  0
 41 71  1  0
 42 72  1  0
 43 73  1  0
 44 74  1  0
 44 75  1  0
 44 76  1  0
M  END
>  <smiles>  (718) 
[H]OC([H])([H])C#Cc1sc([C@]2([H])C([H])([H])[C@]([H])(C(=O)N([H])S(=O)(=O)c3c([H])c([H])c([H])c(OC([H])([H])[H])c3[H])[C@@]([H])(OC([H])([H])[H])C([H])([H])[C@@]23Sc2c([H])c(OC(=O)C([H])([H])[H])c([H])c([H])c2N3C([H])([H])[H])c([H])c1[H]

>  <error>  (718) 


>  <∆∆G>  (718) 
-90.15728

>  <∆G_bound>  (718) 
256.234017

>  <∆G_unbound>  (718) 
346.391297

>  <comRMSD>  (718) 
1.538663

>  <N_constrained_atoms>  (718) 
44.0

>  <N_unconstrained_atoms>  (718) 
0.0

>  <runtime>  (718) 
15.877346

>  <regarded>  (718) 
['5k5m-a', '6izx-a']

>  <disregarded>  (718) 
[]

>  <LE>  (718) 
2.049029

>  <outcome>  (718) 
too moved

>  <percent_hybrid>  (718) 
28.0

$$$$

     RDKit          2D

  0  0  0  0  0  0  0  0  0  0999 V2000
M  END
>  <smiles>  (719) 
nan

>  <error>  (719) 
FragmensteinError Ideal compound failed. Something is wrong with the SMILES

>  <∆∆G>  (719) 
nan

>  <∆G_bound>  (719) 
nan

>  <∆G_unbound>  (719) 
nan

>  <comRMSD>  (719) 
nan

>  <N_constrained_atoms>  (719) 
nan

>  <N_unconstrained_atoms>  (719) 
nan

>  <runtime>  (719) 
nan

>  <regarded>  (719) 
[]

>  <disregarded>  (719) 
[]

>  <LE>  (719) 
nan

>  <outcome>  (719) 
crashed

>  <percent_hybrid>  (719) 
nan

$$$$
LIG
     RDKit          3D

 61 63  0  0  0  0  0  0  0  0999 V2000
  -12.5659  -42.5428  -19.0143 O   0  0  0  0  0  0  0  0  0  0  0  0
  -17.2010  -41.4082  -15.0313 O   0  0  0  0  0  0  0  0  0  0  0  0
  -12.5669  -38.5276  -15.0190 O   0  0  0  0  0  0  0  0  0  0  0  0
  -19.3054  -46.1566  -24.3715 C   0  0  0  0  0  0  0  0  0  0  0  0
  -19.9250  -46.3897  -25.3783 C   0  0  0  0  0  0  0  0  0  0  0  0
  -20.6607  -46.7031  -26.6113 C   0  0  0  0  0  0  0  0  0  0  0  0
  -13.4522  -43.8377  -16.7875 O   0  0  0  0  0  0  0  0  0  0  0  0
  -14.4663  -43.5340  -17.3042 C   0  0  0  0  0  0  0  0  0  0  0  0
  -15.6935  -42.8401  -16.7315 N   0  0  0  0  0  0  0  0  0  0  0  0
  -16.0867  -42.3393  -15.0148 S   0  0  0  0  0  0  0  0  0  0  0  0
  -16.0962  -43.5400  -14.2218 O   0  0  0  0  0  0  0  0  0  0  0  0
  -13.1392  -38.0960  -16.2501 C   0  0  0  0  0  0  0  0  0  0  0  0
  -12.5319  -41.2713  -18.3879 C   0  0  0  0  0  0  0  0  0  0  0  0
  -15.3298  -43.0422  -22.7890 O   0  0  0  0  0  0  0  0  0  0  0  0
  -14.4595  -43.8127  -23.6134 C   0  0  0  0  0  0  0  0  0  0  0  0
  -21.7664  -45.8228  -26.7601 O   0  0  0  0  0  0  0  0  0  0  0  0
  -13.3588  -41.4844  -21.5454 C   0  0  0  0  0  0  0  0  0  0  0  0
  -13.1852  -39.1224  -21.7434 O   0  0  0  0  0  0  0  0  0  0  0  0
  -13.8605  -40.1214  -21.1313 C   0  0  0  0  0  0  0  0  0  0  0  0
  -14.7500  -39.8470  -20.3416 O   0  0  0  0  0  0  0  0  0  0  0  0
  -15.5911  -41.3556  -16.8675 O   0  0  0  0  0  0  0  0  0  0  0  0
  -15.1222  -43.3171  -21.4614 C   0  0  0  0  0  0  0  0  0  0  0  0
  -14.0735  -42.6170  -20.8424 C   0  0  0  0  0  0  0  0  0  0  0  0
  -13.7805  -42.9221  -19.5194 C   0  0  0  0  0  0  0  0  0  0  0  0
  -14.6542  -43.7222  -18.7618 C   0  0  0  0  0  0  0  0  0  0  0  0
  -15.7534  -44.3511  -19.3665 C   0  0  0  0  0  0  0  0  0  0  0  0
  -15.9667  -44.2148  -20.7566 C   0  0  0  0  0  0  0  0  0  0  0  0
  -12.2467  -40.3445  -13.5838 C   0  0  0  0  0  0  0  0  0  0  0  0
  -12.6167  -41.5814  -13.0601 C   0  0  0  0  0  0  0  0  0  0  0  0
  -13.7935  -42.1815  -13.4906 C   0  0  0  0  0  0  0  0  0  0  0  0
  -14.6204  -41.5098  -14.4013 C   0  0  0  0  0  0  0  0  0  0  0  0
  -14.3037  -40.2231  -14.8293 C   0  0  0  0  0  0  0  0  0  0  0  0
  -13.0698  -39.6843  -14.4975 C   0  0  0  0  0  0  0  0  0  0  0  0
  -17.4088  -46.3279  -21.1838 C   0  0  0  0  0  0  0  0  0  0  0  0
  -18.3139  -46.8345  -22.1726 C   0  0  0  0  0  0  0  0  0  0  0  0
  -18.5834  -45.9071  -23.1556 C   0  0  0  0  0  0  0  0  0  0  0  0
  -17.9549  -44.3820  -22.7355 S   0  0  0  0  0  0  0  0  0  0  0  0
  -17.0172  -45.0209  -21.4334 C   0  0  0  0  0  0  0  0  0  0  0  0
  -21.0116  -47.7375  -26.6445 H   0  0  0  0  0  0  0  0  0  0  0  0
  -20.0161  -46.5557  -27.4756 H   0  0  0  0  0  0  0  0  0  0  0  0
  -14.1351  -37.6717  -16.0870 H   0  0  0  0  0  0  0  0  0  0  0  0
  -12.5035  -37.2999  -16.6497 H   0  0  0  0  0  0  0  0  0  0  0  0
  -13.1684  -38.8982  -16.9908 H   0  0  0  0  0  0  0  0  0  0  0  0
  -12.0858  -41.3853  -17.3954 H   0  0  0  0  0  0  0  0  0  0  0  0
  -11.8911  -40.6027  -18.9699 H   0  0  0  0  0  0  0  0  0  0  0  0
  -13.5193  -40.8185  -18.2753 H   0  0  0  0  0  0  0  0  0  0  0  0
  -13.5654  -44.1861  -23.1021 H   0  0  0  0  0  0  0  0  0  0  0  0
  -15.0450  -44.6466  -23.9947 H   0  0  0  0  0  0  0  0  0  0  0  0
  -14.1519  -43.1938  -24.4600 H   0  0  0  0  0  0  0  0  0  0  0  0
  -22.5395  -46.2716  -26.3576 H   0  0  0  0  0  0  0  0  0  0  0  0
  -13.5167  -41.5299  -22.6231 H   0  0  0  0  0  0  0  0  0  0  0  0
  -12.2819  -41.5452  -21.3583 H   0  0  0  0  0  0  0  0  0  0  0  0
  -13.6279  -38.3170  -21.4029 H   0  0  0  0  0  0  0  0  0  0  0  0
  -16.5156  -41.0612  -17.0427 H   0  0  0  0  0  0  0  0  0  0  0  0
  -16.4370  -44.9368  -18.7593 H   0  0  0  0  0  0  0  0  0  0  0  0
  -11.2966  -39.9006  -13.2957 H   0  0  0  0  0  0  0  0  0  0  0  0
  -11.9645  -42.0945  -12.3580 H   0  0  0  0  0  0  0  0  0  0  0  0
  -14.0418  -43.1746  -13.1234 H   0  0  0  0  0  0  0  0  0  0  0  0
  -14.9968  -39.6672  -15.4481 H   0  0  0  0  0  0  0  0  0  0  0  0
  -17.0043  -46.9382  -20.3853 H   0  0  0  0  0  0  0  0  0  0  0  0
  -18.6739  -47.8571  -22.1977 H   0  0  0  0  0  0  0  0  0  0  0  0
  6 16  1  0
  6  5  1  0
  5  4  3  0
 14 15  1  0
  9  8  1  0
  9 10  1  0
  8  7  2  0
  2 10  2  0
 11 10  2  0
  1 13  1  0
 12  3  1  0
 17 19  1  0
 20 19  2  0
 19 18  1  0
 21  9  1  0
 22 27  2  0
 22 14  1  0
 22 23  1  0
 23 24  2  0
 24 25  1  0
 24  1  1  0
 25 26  2  0
 25  8  1  0
 26 27  1  0
 27 38  1  0
 28 33  2  0
 28 29  1  0
 29 30  2  0
 30 31  1  0
 31 10  1  0
 31 32  2  0
 32 33  1  0
 33  3  1  0
 34 35  1  0
 34 38  2  0
 35 36  2  0
 36  4  1  0
 36 37  1  0
 37 38  1  0
 17 23  1  0
  6 39  1  0
  6 40  1  0
 12 41  1  0
 12 42  1  0
 12 43  1  0
 13 44  1  0
 13 45  1  0
 13 46  1  0
 15 47  1  0
 15 48  1  0
 15 49  1  0
 16 50  1  0
 17 51  1  0
 17 52  1  0
 18 53  1  0
 21 54  1  0
 26 55  1  0
 28 56  1  0
 29 57  1  0
 30 58  1  0
 32 59  1  0
 34 60  1  0
 35 61  1  0
M  END
>  <smiles>  (720) 
[H]OC(=O)C([H])([H])c1c(OC([H])([H])[H])c(C(=O)N(O[H])S(=O)(=O)c2c([H])c([H])c([H])c(OC([H])([H])[H])c2[H])c([H])c(-c2sc(C#CC([H])([H])O[H])c([H])c2[H])c1OC([H])([H])[H]

>  <error>  (720) 


>  <∆∆G>  (720) 
-55.788917

>  <∆G_bound>  (720) 
147.620846

>  <∆G_unbound>  (720) 
203.409764

>  <comRMSD>  (720) 
0.855916

>  <N_constrained_atoms>  (720) 
38.0

>  <N_unconstrained_atoms>  (720) 
0.0

>  <runtime>  (720) 
3.681338

>  <regarded>  (720) 
['5k5m-a', '5hmx-b']

>  <disregarded>  (720) 
[]

>  <LE>  (720) 
1.468129

>  <outcome>  (720) 
acceptable

>  <percent_hybrid>  (720) 
14.0

$$$$
LIG
     RDKit          3D

 54 56  0  0  0  0  0  0  0  0999 V2000
  -13.1181  -42.3858  -18.6776 O   0  0  0  0  0  0  0  0  0  0  0  0
  -17.2759  -41.6518  -14.8290 O   0  0  0  0  0  0  0  0  0  0  0  0
  -12.4423  -38.8426  -15.7104 O   0  0  0  0  0  0  0  0  0  0  0  0
  -19.3561  -46.2431  -24.4414 C   0  0  0  0  0  0  0  0  0  0  0  0
  -19.9713  -46.4353  -25.4578 C   0  0  0  0  0  0  0  0  0  0  0  0
  -20.7105  -46.7120  -26.6928 C   0  0  0  0  0  0  0  0  0  0  0  0
  -14.1399  -44.5529  -16.7617 O   0  0  0  0  0  0  0  0  0  0  0  0
  -14.9076  -43.7989  -17.2166 C   0  0  0  0  0  0  0  0  0  0  0  0
  -15.8213  -42.7513  -16.5226 N   0  0  0  0  0  0  0  0  0  0  0  0
  -16.0756  -42.4485  -14.9318 S   0  0  0  0  0  0  0  0  0  0  0  0
  -15.8439  -43.6655  -14.2008 O   0  0  0  0  0  0  0  0  0  0  0  0
  -13.0572  -38.5076  -16.9467 C   0  0  0  0  0  0  0  0  0  0  0  0
  -12.1489  -41.6265  -19.3890 C   0  0  0  0  0  0  0  0  0  0  0  0
  -15.1198  -44.0965  -22.8057 O   0  0  0  0  0  0  0  0  0  0  0  0
  -14.1403  -43.4972  -23.6245 C   0  0  0  0  0  0  0  0  0  0  0  0
  -21.8139  -45.8246  -26.8142 O   0  0  0  0  0  0  0  0  0  0  0  0
  -15.0647  -43.9010  -21.4515 C   0  0  0  0  0  0  0  0  0  0  0  0
  -14.0485  -43.1883  -20.8014 C   0  0  0  0  0  0  0  0  0  0  0  0
  -14.0424  -43.0791  -19.4114 C   0  0  0  0  0  0  0  0  0  0  0  0
  -15.0497  -43.7248  -18.6831 C   0  0  0  0  0  0  0  0  0  0  0  0
  -16.0778  -44.4374  -19.3153 C   0  0  0  0  0  0  0  0  0  0  0  0
  -16.1083  -44.5087  -20.7134 C   0  0  0  0  0  0  0  0  0  0  0  0
  -12.4987  -39.9965  -13.6874 C   0  0  0  0  0  0  0  0  0  0  0  0
  -13.0359  -40.9286  -12.8024 C   0  0  0  0  0  0  0  0  0  0  0  0
  -14.1553  -41.6528  -13.1819 C   0  0  0  0  0  0  0  0  0  0  0  0
  -14.7261  -41.4316  -14.4434 C   0  0  0  0  0  0  0  0  0  0  0  0
  -14.2015  -40.4972  -15.3276 C   0  0  0  0  0  0  0  0  0  0  0  0
  -13.0774  -39.7769  -14.9441 C   0  0  0  0  0  0  0  0  0  0  0  0
  -17.5803  -46.5738  -21.2024 C   0  0  0  0  0  0  0  0  0  0  0  0
  -18.4511  -47.0220  -22.2439 C   0  0  0  0  0  0  0  0  0  0  0  0
  -18.6670  -46.0518  -23.2001 C   0  0  0  0  0  0  0  0  0  0  0  0
  -18.0452  -44.5498  -22.6988 S   0  0  0  0  0  0  0  0  0  0  0  0
  -17.1619  -45.2728  -21.4045 C   0  0  0  0  0  0  0  0  0  0  0  0
  -21.0664  -47.7440  -26.7482 H   0  0  0  0  0  0  0  0  0  0  0  0
  -20.0641  -46.5384  -27.5503 H   0  0  0  0  0  0  0  0  0  0  0  0
  -16.3060  -42.2040  -17.2271 H   0  0  0  0  0  0  0  0  0  0  0  0
  -14.0639  -38.1042  -16.7938 H   0  0  0  0  0  0  0  0  0  0  0  0
  -12.4551  -37.7240  -17.4169 H   0  0  0  0  0  0  0  0  0  0  0  0
  -13.0729  -39.3640  -17.6273 H   0  0  0  0  0  0  0  0  0  0  0  0
  -11.4758  -41.1704  -18.6573 H   0  0  0  0  0  0  0  0  0  0  0  0
  -11.5512  -42.2535  -20.0534 H   0  0  0  0  0  0  0  0  0  0  0  0
  -12.6295  -40.8195  -19.9521 H   0  0  0  0  0  0  0  0  0  0  0  0
  -14.0915  -42.4173  -23.4571 H   0  0  0  0  0  0  0  0  0  0  0  0
  -13.1810  -43.9972  -23.4788 H   0  0  0  0  0  0  0  0  0  0  0  0
  -14.4427  -43.6432  -24.6630 H   0  0  0  0  0  0  0  0  0  0  0  0
  -22.5850  -46.2802  -26.4142 H   0  0  0  0  0  0  0  0  0  0  0  0
  -13.2436  -42.7569  -21.3832 H   0  0  0  0  0  0  0  0  0  0  0  0
  -16.8327  -44.9476  -18.7235 H   0  0  0  0  0  0  0  0  0  0  0  0
  -11.6155  -39.4309  -13.3984 H   0  0  0  0  0  0  0  0  0  0  0  0
  -12.5759  -41.0924  -11.8319 H   0  0  0  0  0  0  0  0  0  0  0  0
  -14.5696  -42.3957  -12.5031 H   0  0  0  0  0  0  0  0  0  0  0  0
  -14.6672  -40.3573  -16.2943 H   0  0  0  0  0  0  0  0  0  0  0  0
  -17.2041  -47.2186  -20.4174 H   0  0  0  0  0  0  0  0  0  0  0  0
  -18.8258  -48.0357  -22.3244 H   0  0  0  0  0  0  0  0  0  0  0  0
  6 16  1  0
  6  5  1  0
  5  4  3  0
 14 15  1  0
  9  8  1  0
  9 10  1  0
  8  7  2  0
  2 10  2  0
 11 10  2  0
  1 13  1  0
 12  3  1  0
 17 22  2  0
 17 14  1  0
 17 18  1  0
 18 19  2  0
 19 20  1  0
 19  1  1  0
 20 21  2  0
 20  8  1  0
 21 22  1  0
 22 33  1  0
 23 28  2  0
 23 24  1  0
 24 25  2  0
 25 26  1  0
 26 10  1  0
 26 27  2  0
 27 28  1  0
 28  3  1  0
 29 30  1  0
 29 33  2  0
 30 31  2  0
 31  4  1  0
 31 32  1  0
 32 33  1  0
  6 34  1  0
  6 35  1  0
  9 36  1  0
 12 37  1  0
 12 38  1  0
 12 39  1  0
 13 40  1  0
 13 41  1  0
 13 42  1  0
 15 43  1  0
 15 44  1  0
 15 45  1  0
 16 46  1  0
 18 47  1  0
 21 48  1  0
 23 49  1  0
 24 50  1  0
 25 51  1  0
 27 52  1  0
 29 53  1  0
 30 54  1  0
M  END
>  <smiles>  (721) 
[H]OC([H])([H])C#Cc1sc(-c2c([H])c(C(=O)N([H])S(=O)(=O)c3c([H])c([H])c([H])c(OC([H])([H])[H])c3[H])c(OC([H])([H])[H])c([H])c2OC([H])([H])[H])c([H])c1[H]

>  <error>  (721) 


>  <∆∆G>  (721) 
-291.265059

>  <∆G_bound>  (721) 
-15.217521

>  <∆G_unbound>  (721) 
276.047538

>  <comRMSD>  (721) 
0.584808

>  <N_constrained_atoms>  (721) 
33.0

>  <N_unconstrained_atoms>  (721) 
0.0

>  <runtime>  (721) 
3.291299

>  <regarded>  (721) 
['5k5m-a', '5hmz-a']

>  <disregarded>  (721) 
[]

>  <LE>  (721) 
8.826214

>  <outcome>  (721) 
equally sized

>  <percent_hybrid>  (721) 
0.0

$$$$
LIG
     RDKit          3D

 60 62  0  0  0  0  0  0  0  0999 V2000
  -13.4688  -41.7487  -18.5487 O   0  0  0  0  0  0  0  0  0  0  0  0
  -17.2333  -41.7261  -14.7166 O   0  0  0  0  0  0  0  0  0  0  0  0
  -12.4661  -38.8287  -15.7252 O   0  0  0  0  0  0  0  0  0  0  0  0
  -19.3470  -46.1528  -24.4512 C   0  0  0  0  0  0  0  0  0  0  0  0
  -19.9830  -46.3838  -25.4468 C   0  0  0  0  0  0  0  0  0  0  0  0
  -20.7227  -46.6948  -26.6743 C   0  0  0  0  0  0  0  0  0  0  0  0
  -14.1776  -44.5710  -16.8465 O   0  0  0  0  0  0  0  0  0  0  0  0
  -14.8992  -43.7484  -17.2551 C   0  0  0  0  0  0  0  0  0  0  0  0
  -15.8362  -42.7656  -16.4993 N   0  0  0  0  0  0  0  0  0  0  0  0
  -16.0268  -42.4998  -14.8935 S   0  0  0  0  0  0  0  0  0  0  0  0
  -15.7434  -43.7307  -14.2032 O   0  0  0  0  0  0  0  0  0  0  0  0
  -13.1290  -38.4674  -16.9298 C   0  0  0  0  0  0  0  0  0  0  0  0
  -12.1160  -42.2013  -18.5431 C   0  0  0  0  0  0  0  0  0  0  0  0
  -15.2572  -42.9643  -22.7853 O   0  0  0  0  0  0  0  0  0  0  0  0
  -14.3269  -43.8230  -23.4400 C   0  0  0  0  0  0  0  0  0  0  0  0
  -21.8321  -45.8185  -26.8145 O   0  0  0  0  0  0  0  0  0  0  0  0
  -15.3038  -39.6464  -20.0958 O   0  0  0  0  0  0  0  0  0  0  0  0
  -13.7792  -38.7334  -21.4325 O   0  0  0  0  0  0  0  0  0  0  0  0
  -14.3757  -39.8097  -20.8716 C   0  0  0  0  0  0  0  0  0  0  0  0
  -13.7473  -41.1078  -21.3241 C   0  0  0  0  0  0  0  0  0  0  0  0
  -15.2216  -43.1870  -21.4308 C   0  0  0  0  0  0  0  0  0  0  0  0
  -14.3894  -42.3249  -20.6847 C   0  0  0  0  0  0  0  0  0  0  0  0
  -14.2532  -42.5652  -19.3168 C   0  0  0  0  0  0  0  0  0  0  0  0
  -15.0239  -43.5508  -18.7046 C   0  0  0  0  0  0  0  0  0  0  0  0
  -15.8891  -44.3687  -19.4407 C   0  0  0  0  0  0  0  0  0  0  0  0
  -16.0200  -44.1923  -20.8271 C   0  0  0  0  0  0  0  0  0  0  0  0
  -12.4600  -40.0028  -13.7136 C   0  0  0  0  0  0  0  0  0  0  0  0
  -12.9626  -40.9511  -12.8255 C   0  0  0  0  0  0  0  0  0  0  0  0
  -14.0770  -41.6911  -13.1879 C   0  0  0  0  0  0  0  0  0  0  0  0
  -14.6776  -41.4693  -14.4354 C   0  0  0  0  0  0  0  0  0  0  0  0
  -14.1887  -40.5175  -15.3223 C   0  0  0  0  0  0  0  0  0  0  0  0
  -13.0692  -39.7813  -14.9556 C   0  0  0  0  0  0  0  0  0  0  0  0
  -17.3907  -46.3394  -21.3114 C   0  0  0  0  0  0  0  0  0  0  0  0
  -18.3224  -46.8343  -22.2768 C   0  0  0  0  0  0  0  0  0  0  0  0
  -18.5908  -45.9077  -23.2593 C   0  0  0  0  0  0  0  0  0  0  0  0
  -17.8984  -44.3991  -22.8883 S   0  0  0  0  0  0  0  0  0  0  0  0
  -16.9953  -45.0338  -21.5628 C   0  0  0  0  0  0  0  0  0  0  0  0
  -21.0691  -47.7308  -26.7094 H   0  0  0  0  0  0  0  0  0  0  0  0
  -20.0780  -46.5353  -27.5363 H   0  0  0  0  0  0  0  0  0  0  0  0
  -16.2644  -42.1247  -17.1639 H   0  0  0  0  0  0  0  0  0  0  0  0
  -14.1468  -38.1118  -16.7367 H   0  0  0  0  0  0  0  0  0  0  0  0
  -12.5716  -37.6402  -17.3802 H   0  0  0  0  0  0  0  0  0  0  0  0
  -13.1253  -39.2926  -17.6462 H   0  0  0  0  0  0  0  0  0  0  0  0
  -11.5210  -41.4687  -17.9901 H   0  0  0  0  0  0  0  0  0  0  0  0
  -12.0332  -43.1646  -18.0297 H   0  0  0  0  0  0  0  0  0  0  0  0
  -11.7117  -42.2775  -19.5554 H   0  0  0  0  0  0  0  0  0  0  0  0
  -13.3859  -43.9321  -22.8923 H   0  0  0  0  0  0  0  0  0  0  0  0
  -14.7996  -44.7946  -23.5661 H   0  0  0  0  0  0  0  0  0  0  0  0
  -14.1146  -43.4062  -24.4274 H   0  0  0  0  0  0  0  0  0  0  0  0
  -22.6043  -46.2770  -26.4199 H   0  0  0  0  0  0  0  0  0  0  0  0
  -14.2977  -37.9825  -21.0730 H   0  0  0  0  0  0  0  0  0  0  0  0
  -13.8261  -41.1384  -22.4151 H   0  0  0  0  0  0  0  0  0  0  0  0
  -12.6794  -41.0816  -21.0896 H   0  0  0  0  0  0  0  0  0  0  0  0
  -16.4778  -45.1194  -18.9192 H   0  0  0  0  0  0  0  0  0  0  0  0
  -11.5818  -39.4231  -13.4375 H   0  0  0  0  0  0  0  0  0  0  0  0
  -12.4810  -41.1132  -11.8652 H   0  0  0  0  0  0  0  0  0  0  0  0
  -14.4669  -42.4442  -12.5059 H   0  0  0  0  0  0  0  0  0  0  0  0
  -14.6770  -40.3722  -16.2778 H   0  0  0  0  0  0  0  0  0  0  0  0
  -17.0013  -46.9466  -20.5030 H   0  0  0  0  0  0  0  0  0  0  0  0
  -18.7095  -47.8473  -22.2836 H   0  0  0  0  0  0  0  0  0  0  0  0
  6 16  1  0
  6  5  1  0
  5  4  3  0
 14 15  1  0
  9  8  1  0
  9 10  1  0
  8  7  2  0
  2 10  2  0
 11 10  2  0
  1 13  1  0
 12  3  1  0
 20 19  1  0
 17 19  2  0
 19 18  1  0
 21 26  2  0
 21 14  1  0
 21 22  1  0
 22 23  2  0
 23 24  1  0
 23  1  1  0
 24 25  2  0
 24  8  1  0
 25 26  1  0
 26 37  1  0
 27 32  2  0
 27 28  1  0
 28 29  2  0
 29 30  1  0
 30 10  1  0
 30 31  2  0
 31 32  1  0
 32  3  1  0
 33 34  1  0
 33 37  2  0
 34 35  2  0
 35  4  1  0
 35 36  1  0
 36 37  1  0
 20 22  1  0
  6 38  1  0
  6 39  1  0
  9 40  1  0
 12 41  1  0
 12 42  1  0
 12 43  1  0
 13 44  1  0
 13 45  1  0
 13 46  1  0
 15 47  1  0
 15 48  1  0
 15 49  1  0
 16 50  1  0
 18 51  1  0
 20 52  1  0
 20 53  1  0
 25 54  1  0
 27 55  1  0
 28 56  1  0
 29 57  1  0
 31 58  1  0
 33 59  1  0
 34 60  1  0
M  END
>  <smiles>  (722) 
[H]OC(=O)C([H])([H])c1c(OC([H])([H])[H])c(C(=O)N([H])S(=O)(=O)c2c([H])c([H])c([H])c(OC([H])([H])[H])c2[H])c([H])c(-c2sc(C#CC([H])([H])O[H])c([H])c2[H])c1OC([H])([H])[H]

>  <error>  (722) 


>  <∆∆G>  (722) 
-210.212811

>  <∆G_bound>  (722) 
-28.17073

>  <∆G_unbound>  (722) 
182.042081

>  <comRMSD>  (722) 
0.841983

>  <N_constrained_atoms>  (722) 
37.0

>  <N_unconstrained_atoms>  (722) 
0.0

>  <runtime>  (722) 
3.575259

>  <regarded>  (722) 
['5k5m-a', '5hmw-b']

>  <disregarded>  (722) 
[]

>  <LE>  (722) 
5.681427

>  <outcome>  (722) 
acceptable

>  <percent_hybrid>  (722) 
11.0

$$$$
LIG
     RDKit          3D

 55 57  0  0  0  0  0  0  0  0999 V2000
  -12.8446  -42.6474  -18.8089 O   0  0  0  0  0  0  0  0  0  0  0  0
  -17.3435  -40.9074  -15.2600 O   0  0  0  0  0  0  0  0  0  0  0  0
  -12.4148  -38.7188  -15.1228 O   0  0  0  0  0  0  0  0  0  0  0  0
  -19.3356  -46.2139  -24.4030 C   0  0  0  0  0  0  0  0  0  0  0  0
  -19.9481  -46.4103  -25.4210 C   0  0  0  0  0  0  0  0  0  0  0  0
  -20.6860  -46.7001  -26.6560 C   0  0  0  0  0  0  0  0  0  0  0  0
  -13.8251  -43.8462  -16.6375 O   0  0  0  0  0  0  0  0  0  0  0  0
  -14.7918  -43.5077  -17.2221 C   0  0  0  0  0  0  0  0  0  0  0  0
  -15.9803  -42.6749  -16.7613 N   0  0  0  0  0  0  0  0  0  0  0  0
  -16.3999  -42.0003  -15.0970 S   0  0  0  0  0  0  0  0  0  0  0  0
  -16.6828  -43.0949  -14.2100 O   0  0  0  0  0  0  0  0  0  0  0  0
  -12.7395  -38.4768  -16.4921 C   0  0  0  0  0  0  0  0  0  0  0  0
  -12.1603  -41.6432  -19.5456 C   0  0  0  0  0  0  0  0  0  0  0  0
  -15.0010  -44.3898  -22.7871 O   0  0  0  0  0  0  0  0  0  0  0  0
  -14.1850  -43.6026  -23.6363 C   0  0  0  0  0  0  0  0  0  0  0  0
  -21.7913  -45.8164  -26.7868 O   0  0  0  0  0  0  0  0  0  0  0  0
  -15.7501  -41.2063  -17.0120 O   0  0  0  0  0  0  0  0  0  0  0  0
  -14.9424  -44.1437  -21.4402 C   0  0  0  0  0  0  0  0  0  0  0  0
  -13.8526  -43.5248  -20.8322 C   0  0  0  0  0  0  0  0  0  0  0  0
  -13.8486  -43.3201  -19.4583 C   0  0  0  0  0  0  0  0  0  0  0  0
  -14.9099  -43.8157  -18.6704 C   0  0  0  0  0  0  0  0  0  0  0  0
  -16.0142  -44.4375  -19.2683 C   0  0  0  0  0  0  0  0  0  0  0  0
  -16.0374  -44.6037  -20.6669 C   0  0  0  0  0  0  0  0  0  0  0  0
  -12.3580  -40.5160  -13.6101 C   0  0  0  0  0  0  0  0  0  0  0  0
  -12.9046  -41.6777  -13.0659 C   0  0  0  0  0  0  0  0  0  0  0  0
  -14.1414  -42.1298  -13.5150 C   0  0  0  0  0  0  0  0  0  0  0  0
  -14.8456  -41.3814  -14.4680 C   0  0  0  0  0  0  0  0  0  0  0  0
  -14.3438  -40.1704  -14.9307 C   0  0  0  0  0  0  0  0  0  0  0  0
  -13.0594  -39.7903  -14.5732 C   0  0  0  0  0  0  0  0  0  0  0  0
  -17.6038  -46.5956  -21.1425 C   0  0  0  0  0  0  0  0  0  0  0  0
  -18.4711  -47.0165  -22.1985 C   0  0  0  0  0  0  0  0  0  0  0  0
  -18.6525  -46.0374  -23.1540 C   0  0  0  0  0  0  0  0  0  0  0  0
  -17.9893  -44.5545  -22.6410 S   0  0  0  0  0  0  0  0  0  0  0  0
  -17.1425  -45.3092  -21.3394 C   0  0  0  0  0  0  0  0  0  0  0  0
  -21.0395  -47.7333  -26.7031 H   0  0  0  0  0  0  0  0  0  0  0  0
  -20.0417  -46.5368  -27.5174 H   0  0  0  0  0  0  0  0  0  0  0  0
  -13.6918  -37.9437  -16.5748 H   0  0  0  0  0  0  0  0  0  0  0  0
  -11.9612  -37.8284  -16.9063 H   0  0  0  0  0  0  0  0  0  0  0  0
  -12.7506  -39.4004  -17.0816 H   0  0  0  0  0  0  0  0  0  0  0  0
  -11.5496  -41.0691  -18.8425 H   0  0  0  0  0  0  0  0  0  0  0  0
  -11.4905  -42.0795  -20.2901 H   0  0  0  0  0  0  0  0  0  0  0  0
  -12.8641  -40.9506  -20.0201 H   0  0  0  0  0  0  0  0  0  0  0  0
  -14.1737  -42.5490  -23.3390 H   0  0  0  0  0  0  0  0  0  0  0  0
  -13.1837  -44.0350  -23.6791 H   0  0  0  0  0  0  0  0  0  0  0  0
  -14.6153  -43.6448  -24.6398 H   0  0  0  0  0  0  0  0  0  0  0  0
  -22.5622  -46.2707  -26.3855 H   0  0  0  0  0  0  0  0  0  0  0  0
  -16.6541  -40.8294  -17.1338 H   0  0  0  0  0  0  0  0  0  0  0  0
  -12.9905  -43.2422  -21.4236 H   0  0  0  0  0  0  0  0  0  0  0  0
  -16.8466  -44.7789  -18.6609 H   0  0  0  0  0  0  0  0  0  0  0  0
  -11.3670  -40.1902  -13.3041 H   0  0  0  0  0  0  0  0  0  0  0  0
  -12.3468  -42.2499  -12.3293 H   0  0  0  0  0  0  0  0  0  0  0  0
  -14.5368  -43.0669  -13.1298 H   0  0  0  0  0  0  0  0  0  0  0  0
  -14.9327  -39.5492  -15.5942 H   0  0  0  0  0  0  0  0  0  0  0  0
  -17.2477  -47.2550  -20.3606 H   0  0  0  0  0  0  0  0  0  0  0  0
  -18.8685  -48.0207  -22.2894 H   0  0  0  0  0  0  0  0  0  0  0  0
  6 16  1  0
  6  5  1  0
  5  4  3  0
 14 15  1  0
  9  8  1  0
  9 10  1  0
  8  7  2  0
  2 10  2  0
 11 10  2  0
  1 13  1  0
 12  3  1  0
 17  9  1  0
 18 23  2  0
 18 14  1  0
 18 19  1  0
 19 20  2  0
 20 21  1  0
 20  1  1  0
 21 22  2  0
 21  8  1  0
 22 23  1  0
 23 34  1  0
 24 29  2  0
 24 25  1  0
 25 26  2  0
 26 27  1  0
 27 10  1  0
 27 28  2  0
 28 29  1  0
 29  3  1  0
 30 31  1  0
 30 34  2  0
 31 32  2  0
 32  4  1  0
 32 33  1  0
 33 34  1  0
  6 35  1  0
  6 36  1  0
 12 37  1  0
 12 38  1  0
 12 39  1  0
 13 40  1  0
 13 41  1  0
 13 42  1  0
 15 43  1  0
 15 44  1  0
 15 45  1  0
 16 46  1  0
 17 47  1  0
 19 48  1  0
 22 49  1  0
 24 50  1  0
 25 51  1  0
 26 52  1  0
 28 53  1  0
 30 54  1  0
 31 55  1  0
M  END
>  <smiles>  (723) 
[H]ON(C(=O)c1c([H])c(-c2sc(C#CC([H])([H])O[H])c([H])c2[H])c(OC([H])([H])[H])c([H])c1OC([H])([H])[H])S(=O)(=O)c1c([H])c([H])c([H])c(OC([H])([H])[H])c1[H]

>  <error>  (723) 


>  <∆∆G>  (723) 
-45.277683

>  <∆G_bound>  (723) 
146.089633

>  <∆G_unbound>  (723) 
191.367316

>  <comRMSD>  (723) 
0.721074

>  <N_constrained_atoms>  (723) 
34.0

>  <N_unconstrained_atoms>  (723) 
0.0

>  <runtime>  (723) 
1.982299

>  <regarded>  (723) 
['5k5m-a', '5f3z-a']

>  <disregarded>  (723) 
[]

>  <LE>  (723) 
1.331697

>  <outcome>  (723) 
acceptable

>  <percent_hybrid>  (723) 
3.0

$$$$
LIG
     RDKit          3D

 55 57  0  0  0  0  0  0  0  0999 V2000
  -12.8432  -42.6459  -18.8109 O   0  0  0  0  0  0  0  0  0  0  0  0
  -17.3415  -40.9136  -15.2568 O   0  0  0  0  0  0  0  0  0  0  0  0
  -12.4185  -38.7136  -15.1239 O   0  0  0  0  0  0  0  0  0  0  0  0
  -19.3349  -46.2146  -24.4021 C   0  0  0  0  0  0  0  0  0  0  0  0
  -19.9473  -46.4110  -25.4202 C   0  0  0  0  0  0  0  0  0  0  0  0
  -20.6851  -46.7007  -26.6553 C   0  0  0  0  0  0  0  0  0  0  0  0
  -13.8206  -43.8472  -16.6395 O   0  0  0  0  0  0  0  0  0  0  0  0
  -14.7881  -43.5091  -17.2229 C   0  0  0  0  0  0  0  0  0  0  0  0
  -15.9768  -42.6777  -16.7605 N   0  0  0  0  0  0  0  0  0  0  0  0
  -16.3954  -42.0045  -15.0955 S   0  0  0  0  0  0  0  0  0  0  0  0
  -16.6745  -43.1002  -14.2086 O   0  0  0  0  0  0  0  0  0  0  0  0
  -12.7433  -38.4745  -16.4937 C   0  0  0  0  0  0  0  0  0  0  0  0
  -12.1596  -41.6418  -19.5481 C   0  0  0  0  0  0  0  0  0  0  0  0
  -15.0005  -44.3900  -22.7880 O   0  0  0  0  0  0  0  0  0  0  0  0
  -14.1870  -43.6009  -23.6378 C   0  0  0  0  0  0  0  0  0  0  0  0
  -21.7903  -45.8168  -26.7861 O   0  0  0  0  0  0  0  0  0  0  0  0
  -15.7480  -41.2087  -17.0105 O   0  0  0  0  0  0  0  0  0  0  0  0
  -14.9413  -44.1439  -21.4411 C   0  0  0  0  0  0  0  0  0  0  0  0
  -13.8514  -43.5245  -20.8337 C   0  0  0  0  0  0  0  0  0  0  0  0
  -13.8468  -43.3197  -19.4599 C   0  0  0  0  0  0  0  0  0  0  0  0
  -14.9071  -43.8164  -18.6713 C   0  0  0  0  0  0  0  0  0  0  0  0
  -16.0114  -44.4388  -19.2686 C   0  0  0  0  0  0  0  0  0  0  0  0
  -16.0355  -44.6047  -20.6672 C   0  0  0  0  0  0  0  0  0  0  0  0
  -12.3544  -40.5126  -13.6136 C   0  0  0  0  0  0  0  0  0  0  0  0
  -12.8972  -41.6767  -13.0704 C   0  0  0  0  0  0  0  0  0  0  0  0
  -14.1337  -42.1311  -13.5180 C   0  0  0  0  0  0  0  0  0  0  0  0
  -14.8416  -41.3827  -14.4683 C   0  0  0  0  0  0  0  0  0  0  0  0
  -14.3438  -40.1697  -14.9298 C   0  0  0  0  0  0  0  0  0  0  0  0
  -13.0595  -39.7872  -14.5742 C   0  0  0  0  0  0  0  0  0  0  0  0
  -17.6028  -46.5964  -21.1416 C   0  0  0  0  0  0  0  0  0  0  0  0
  -18.4705  -47.0172  -22.1974 C   0  0  0  0  0  0  0  0  0  0  0  0
  -18.6517  -46.0382  -23.1530 C   0  0  0  0  0  0  0  0  0  0  0  0
  -17.9883  -44.5554  -22.6403 S   0  0  0  0  0  0  0  0  0  0  0  0
  -17.1410  -45.3102  -21.3390 C   0  0  0  0  0  0  0  0  0  0  0  0
  -21.0387  -47.7338  -26.7023 H   0  0  0  0  0  0  0  0  0  0  0  0
  -20.0406  -46.5375  -27.5166 H   0  0  0  0  0  0  0  0  0  0  0  0
  -13.6974  -37.9448  -16.5777 H   0  0  0  0  0  0  0  0  0  0  0  0
  -11.9670  -37.8240  -16.9084 H   0  0  0  0  0  0  0  0  0  0  0  0
  -12.7510  -39.3989  -17.0821 H   0  0  0  0  0  0  0  0  0  0  0  0
  -11.5500  -41.0661  -18.8453 H   0  0  0  0  0  0  0  0  0  0  0  0
  -11.4887  -42.0782  -20.2917 H   0  0  0  0  0  0  0  0  0  0  0  0
  -12.8636  -40.9505  -20.0241 H   0  0  0  0  0  0  0  0  0  0  0  0
  -14.1758  -42.5477  -23.3392 H   0  0  0  0  0  0  0  0  0  0  0  0
  -13.1855  -44.0325  -23.6834 H   0  0  0  0  0  0  0  0  0  0  0  0
  -14.6193  -43.6422  -24.6405 H   0  0  0  0  0  0  0  0  0  0  0  0
  -22.5611  -46.2707  -26.3844 H   0  0  0  0  0  0  0  0  0  0  0  0
  -16.6525  -40.8327  -17.1320 H   0  0  0  0  0  0  0  0  0  0  0  0
  -12.9899  -43.2413  -21.4256 H   0  0  0  0  0  0  0  0  0  0  0  0
  -16.8430  -44.7811  -18.6606 H   0  0  0  0  0  0  0  0  0  0  0  0
  -11.3636  -40.1850  -13.3091 H   0  0  0  0  0  0  0  0  0  0  0  0
  -12.3364  -42.2488  -12.3360 H   0  0  0  0  0  0  0  0  0  0  0  0
  -14.5258  -43.0700  -13.1341 H   0  0  0  0  0  0  0  0  0  0  0  0
  -14.9354  -39.5487  -15.5910 H   0  0  0  0  0  0  0  0  0  0  0  0
  -17.2468  -47.2556  -20.3596 H   0  0  0  0  0  0  0  0  0  0  0  0
  -18.8682  -48.0213  -22.2880 H   0  0  0  0  0  0  0  0  0  0  0  0
  6 16  1  0
  6  5  1  0
  5  4  3  0
 14 15  1  0
  9  8  1  0
  9 10  1  0
  8  7  2  0
  2 10  2  0
 11 10  2  0
  1 13  1  0
 12  3  1  0
 17  9  1  0
 18 23  2  0
 18 14  1  0
 18 19  1  0
 19 20  2  0
 20 21  1  0
 20  1  1  0
 21 22  2  0
 21  8  1  0
 22 23  1  0
 23 34  1  0
 24 29  2  0
 24 25  1  0
 25 26  2  0
 26 27  1  0
 27 10  1  0
 27 28  2  0
 28 29  1  0
 29  3  1  0
 30 31  1  0
 30 34  2  0
 31 32  2  0
 32  4  1  0
 32 33  1  0
 33 34  1  0
  6 35  1  0
  6 36  1  0
 12 37  1  0
 12 38  1  0
 12 39  1  0
 13 40  1  0
 13 41  1  0
 13 42  1  0
 15 43  1  0
 15 44  1  0
 15 45  1  0
 16 46  1  0
 17 47  1  0
 19 48  1  0
 22 49  1  0
 24 50  1  0
 25 51  1  0
 26 52  1  0
 28 53  1  0
 30 54  1  0
 31 55  1  0
M  END
>  <smiles>  (724) 
[H]ON(C(=O)c1c([H])c(-c2sc(C#CC([H])([H])O[H])c([H])c2[H])c(OC([H])([H])[H])c([H])c1OC([H])([H])[H])S(=O)(=O)c1c([H])c([H])c([H])c(OC([H])([H])[H])c1[H]

>  <error>  (724) 


>  <∆∆G>  (724) 
-45.260482

>  <∆G_bound>  (724) 
146.106834

>  <∆G_unbound>  (724) 
191.367316

>  <comRMSD>  (724) 
0.698991

>  <N_constrained_atoms>  (724) 
34.0

>  <N_unconstrained_atoms>  (724) 
0.0

>  <runtime>  (724) 
2.587851

>  <regarded>  (724) 
['5k5m-a', '6h9r-a']

>  <disregarded>  (724) 
[]

>  <LE>  (724) 
1.331191

>  <outcome>  (724) 
acceptable

>  <percent_hybrid>  (724) 
3.0

$$$$
LIG
     RDKit          3D

 55 57  0  0  0  0  0  0  0  0999 V2000
  -12.8488  -42.1866  -19.0862 O   0  0  0  0  0  0  0  0  0  0  0  0
  -17.4522  -41.7663  -14.8475 O   0  0  0  0  0  0  0  0  0  0  0  0
  -12.2514  -39.0148  -15.3501 O   0  0  0  0  0  0  0  0  0  0  0  0
  -19.2952  -46.2155  -24.3411 C   0  0  0  0  0  0  0  0  0  0  0  0
  -19.9024  -46.4211  -25.3615 C   0  0  0  0  0  0  0  0  0  0  0  0
  -20.6380  -46.7135  -26.6001 C   0  0  0  0  0  0  0  0  0  0  0  0
  -13.4430  -43.2770  -16.9324 O   0  0  0  0  0  0  0  0  0  0  0  0
  -14.5465  -43.2678  -17.3441 C   0  0  0  0  0  0  0  0  0  0  0  0
  -15.8471  -42.9021  -16.6552 N   0  0  0  0  0  0  0  0  0  0  0  0
  -16.1847  -42.4696  -14.9355 S   0  0  0  0  0  0  0  0  0  0  0  0
  -15.8890  -43.6707  -14.1899 O   0  0  0  0  0  0  0  0  0  0  0  0
  -12.6133  -38.7845  -16.7078 C   0  0  0  0  0  0  0  0  0  0  0  0
  -11.9780  -41.4467  -19.9196 C   0  0  0  0  0  0  0  0  0  0  0  0
  -15.0053  -44.3085  -22.8792 O   0  0  0  0  0  0  0  0  0  0  0  0
  -14.2788  -43.5198  -23.8042 C   0  0  0  0  0  0  0  0  0  0  0  0
  -21.7369  -45.8225  -26.7398 O   0  0  0  0  0  0  0  0  0  0  0  0
  -16.1612  -41.4185  -16.8149 O   0  0  0  0  0  0  0  0  0  0  0  0
  -14.9093  -43.9945  -21.5492 C   0  0  0  0  0  0  0  0  0  0  0  0
  -13.8413  -43.2738  -21.0202 C   0  0  0  0  0  0  0  0  0  0  0  0
  -13.7859  -43.0052  -19.6596 C   0  0  0  0  0  0  0  0  0  0  0  0
  -14.7547  -43.5599  -18.7957 C   0  0  0  0  0  0  0  0  0  0  0  0
  -15.8483  -44.2752  -19.3206 C   0  0  0  0  0  0  0  0  0  0  0  0
  -15.9435  -44.4809  -20.7122 C   0  0  0  0  0  0  0  0  0  0  0  0
  -12.7891  -39.9218  -13.2657 C   0  0  0  0  0  0  0  0  0  0  0  0
  -13.5604  -40.7252  -12.4285 C   0  0  0  0  0  0  0  0  0  0  0  0
  -14.6179  -41.4526  -12.9621 C   0  0  0  0  0  0  0  0  0  0  0  0
  -14.8885  -41.3912  -14.3386 C   0  0  0  0  0  0  0  0  0  0  0  0
  -14.0911  -40.6120  -15.1727 C   0  0  0  0  0  0  0  0  0  0  0  0
  -13.0606  -39.8508  -14.6334 C   0  0  0  0  0  0  0  0  0  0  0  0
  -17.5051  -46.5148  -21.0936 C   0  0  0  0  0  0  0  0  0  0  0  0
  -18.3947  -46.9672  -22.1238 C   0  0  0  0  0  0  0  0  0  0  0  0
  -18.6081  -46.0105  -23.0959 C   0  0  0  0  0  0  0  0  0  0  0  0
  -17.9701  -44.5065  -22.6109 S   0  0  0  0  0  0  0  0  0  0  0  0
  -17.0623  -45.2270  -21.3250 C   0  0  0  0  0  0  0  0  0  0  0  0
  -20.9985  -47.7442  -26.6444 H   0  0  0  0  0  0  0  0  0  0  0  0
  -19.9927  -46.5635  -27.4633 H   0  0  0  0  0  0  0  0  0  0  0  0
  -13.6316  -38.3896  -16.7903 H   0  0  0  0  0  0  0  0  0  0  0  0
  -11.9322  -38.0275  -17.1086 H   0  0  0  0  0  0  0  0  0  0  0  0
  -12.4858  -39.6915  -17.3063 H   0  0  0  0  0  0  0  0  0  0  0  0
  -11.3432  -40.8251  -19.2816 H   0  0  0  0  0  0  0  0  0  0  0  0
  -11.3256  -42.1017  -20.4971 H   0  0  0  0  0  0  0  0  0  0  0  0
  -12.5399  -40.7801  -20.5824 H   0  0  0  0  0  0  0  0  0  0  0  0
  -14.2730  -42.4569  -23.5419 H   0  0  0  0  0  0  0  0  0  0  0  0
  -13.2729  -43.9280  -23.9137 H   0  0  0  0  0  0  0  0  0  0  0  0
  -14.7848  -43.6020  -24.7692 H   0  0  0  0  0  0  0  0  0  0  0  0
  -22.5105  -46.2660  -26.3330 H   0  0  0  0  0  0  0  0  0  0  0  0
  -17.1450  -41.3547  -16.7373 H   0  0  0  0  0  0  0  0  0  0  0  0
  -13.0414  -42.9469  -21.6704 H   0  0  0  0  0  0  0  0  0  0  0  0
  -16.6180  -44.6611  -18.6592 H   0  0  0  0  0  0  0  0  0  0  0  0
  -11.9685  -39.3418  -12.8501 H   0  0  0  0  0  0  0  0  0  0  0  0
  -13.3385  -40.7777  -11.3660 H   0  0  0  0  0  0  0  0  0  0  0  0
  -15.2168  -42.0826  -12.3066 H   0  0  0  0  0  0  0  0  0  0  0  0
  -14.2366  -40.6060  -16.2409 H   0  0  0  0  0  0  0  0  0  0  0  0
  -17.1208  -47.1573  -20.3111 H   0  0  0  0  0  0  0  0  0  0  0  0
  -18.7757  -47.9798  -22.1897 H   0  0  0  0  0  0  0  0  0  0  0  0
  6 16  1  0
  6  5  1  0
  5  4  3  0
 14 15  1  0
  9  8  1  0
  9 10  1  0
  8  7  2  0
  2 10  2  0
 11 10  2  0
  1 13  1  0
 12  3  1  0
 17  9  1  0
 18 23  2  0
 18 14  1  0
 18 19  1  0
 19 20  2  0
 20 21  1  0
 20  1  1  0
 21 22  2  0
 21  8  1  0
 22 23  1  0
 23 34  1  0
 24 29  2  0
 24 25  1  0
 25 26  2  0
 26 27  1  0
 27 10  1  0
 27 28  2  0
 28 29  1  0
 29  3  1  0
 30 31  1  0
 30 34  2  0
 31 32  2  0
 32  4  1  0
 32 33  1  0
 33 34  1  0
  6 35  1  0
  6 36  1  0
 12 37  1  0
 12 38  1  0
 12 39  1  0
 13 40  1  0
 13 41  1  0
 13 42  1  0
 15 43  1  0
 15 44  1  0
 15 45  1  0
 16 46  1  0
 17 47  1  0
 19 48  1  0
 22 49  1  0
 24 50  1  0
 25 51  1  0
 26 52  1  0
 28 53  1  0
 30 54  1  0
 31 55  1  0
M  END
>  <smiles>  (725) 
[H]ON(C(=O)c1c([H])c(-c2sc(C#CC([H])([H])O[H])c([H])c2[H])c(OC([H])([H])[H])c([H])c1OC([H])([H])[H])S(=O)(=O)c1c([H])c([H])c([H])c(OC([H])([H])[H])c1[H]

>  <error>  (725) 


>  <∆∆G>  (725) 
-42.057227

>  <∆G_bound>  (725) 
149.310088

>  <∆G_unbound>  (725) 
191.367316

>  <comRMSD>  (725) 
0.70582

>  <N_constrained_atoms>  (725) 
34.0

>  <N_unconstrained_atoms>  (725) 
0.0

>  <runtime>  (725) 
3.19603

>  <regarded>  (725) 
['5k5m-a', '5f3t-a']

>  <disregarded>  (725) 
[]

>  <LE>  (725) 
1.236977

>  <outcome>  (725) 
acceptable

>  <percent_hybrid>  (725) 
3.0

$$$$

     RDKit          2D

  0  0  0  0  0  0  0  0  0  0999 V2000
M  END
>  <smiles>  (726) 
nan

>  <error>  (726) 
DistanceError 6.04 Å

>  <∆∆G>  (726) 
nan

>  <∆G_bound>  (726) 
nan

>  <∆G_unbound>  (726) 
nan

>  <comRMSD>  (726) 
nan

>  <N_constrained_atoms>  (726) 
nan

>  <N_unconstrained_atoms>  (726) 
nan

>  <runtime>  (726) 
nan

>  <regarded>  (726) 
[]

>  <disregarded>  (726) 
[]

>  <LE>  (726) 
nan

>  <outcome>  (726) 
too distant

>  <percent_hybrid>  (726) 
nan

$$$$
LIG
     RDKit          3D

 59 62  0  0  0  0  0  0  0  0999 V2000
  -19.4718  -45.9358  -24.4975 C   0  0  0  0  0  0  0  0  0  0  0  0
  -15.2309  -41.0186  -14.9223 C   0  0  0  0  0  0  0  0  0  0  0  0
  -20.1204  -46.1892  -25.4796 C   0  0  0  0  0  0  0  0  0  0  0  0
  -20.8630  -46.5407  -26.6941 C   0  0  0  0  0  0  0  0  0  0  0  0
  -15.0682  -43.8808  -17.1539 C   0  0  0  0  0  0  0  0  0  0  0  0
  -12.7136  -42.7826  -18.4506 C   0  0  0  0  0  0  0  0  0  0  0  0
  -15.1095  -42.7327  -22.6576 N   0  0  0  0  0  0  0  0  0  0  0  0
  -14.5955  -43.6659  -23.6765 C   0  0  0  0  0  0  0  0  0  0  0  0
  -14.3293  -44.5881  -16.5884 O   0  0  0  0  0  0  0  0  0  0  0  0
  -16.0940  -42.8462  -16.6043 N   0  0  0  0  0  0  0  0  0  0  0  0
  -16.3837  -42.3461  -15.0682 S   0  0  0  0  0  0  0  0  0  0  0  0
  -15.9370  -43.3493  -14.1354 O   0  0  0  0  0  0  0  0  0  0  0  0
  -17.7067  -41.7631  -15.0573 O   0  0  0  0  0  0  0  0  0  0  0  0
  -22.0138  -45.7197  -26.8164 O   0  0  0  0  0  0  0  0  0  0  0  0
  -16.1109  -44.2834  -19.3956 C   0  0  0  0  0  0  0  0  0  0  0  0
  -15.0377  -43.8122  -18.6258 C   0  0  0  0  0  0  0  0  0  0  0  0
  -13.8942  -43.2888  -19.2258 C   0  0  0  0  0  0  0  0  0  0  0  0
  -13.8874  -43.1762  -20.6071 C   0  0  0  0  0  0  0  0  0  0  0  0
  -15.0451  -43.3978  -21.3790 C   0  0  0  0  0  0  0  0  0  0  0  0
  -16.1199  -44.1214  -20.7994 C   0  0  0  0  0  0  0  0  0  0  0  0
  -18.7122  -45.7055  -23.3032 C   0  0  0  0  0  0  0  0  0  0  0  0
  -18.4431  -46.6620  -22.3496 C   0  0  0  0  0  0  0  0  0  0  0  0
  -17.5509  -46.1791  -21.3483 C   0  0  0  0  0  0  0  0  0  0  0  0
  -17.1539  -44.8645  -21.5615 C   0  0  0  0  0  0  0  0  0  0  0  0
  -18.0304  -44.2021  -22.8752 S   0  0  0  0  0  0  0  0  0  0  0  0
  -14.7266  -41.3984  -22.8260 C   0  0  0  0  0  0  0  0  0  0  0  0
  -14.1577  -40.5559  -21.8898 C   0  0  0  0  0  0  0  0  0  0  0  0
  -13.8651  -39.3900  -22.5206 N   0  0  0  0  0  0  0  0  0  0  0  0
  -14.3038  -39.3415  -23.7767 N   0  0  0  0  0  0  0  0  0  0  0  0
  -14.9118  -40.5306  -23.9611 C   0  0  0  0  0  0  0  0  0  0  0  0
  -16.9788  -41.3455  -25.0167 C   0  0  0  0  0  0  0  0  0  0  0  0
  -15.7298  -40.7419  -25.1468 C   0  0  0  0  0  0  0  0  0  0  0  0
  -15.3335  -40.2699  -26.3943 C   0  0  0  0  0  0  0  0  0  0  0  0
  -16.1928  -40.4567  -27.4607 C   0  0  0  0  0  0  0  0  0  0  0  0
  -17.3998  -41.0569  -27.3639 N   0  0  0  0  0  0  0  0  0  0  0  0
  -17.7670  -41.4817  -26.1382 C   0  0  0  0  0  0  0  0  0  0  0  0
  -15.3410  -40.5787  -13.9285 H   0  0  0  0  0  0  0  0  0  0  0  0
  -14.2175  -41.4069  -15.0425 H   0  0  0  0  0  0  0  0  0  0  0  0
  -15.4510  -40.2667  -15.6828 H   0  0  0  0  0  0  0  0  0  0  0  0
  -21.1585  -47.5932  -26.7143 H   0  0  0  0  0  0  0  0  0  0  0  0
  -20.2400  -46.3595  -27.5687 H   0  0  0  0  0  0  0  0  0  0  0  0
  -12.1603  -43.6144  -18.0082 H   0  0  0  0  0  0  0  0  0  0  0  0
  -12.0236  -42.2232  -19.0912 H   0  0  0  0  0  0  0  0  0  0  0  0
  -13.0341  -42.0963  -17.6599 H   0  0  0  0  0  0  0  0  0  0  0  0
  -14.7378  -43.2838  -24.6904 H   0  0  0  0  0  0  0  0  0  0  0  0
  -13.5277  -43.8669  -23.5373 H   0  0  0  0  0  0  0  0  0  0  0  0
  -15.1236  -44.6227  -23.6338 H   0  0  0  0  0  0  0  0  0  0  0  0
  -16.5170  -42.3412  -17.3800 H   0  0  0  0  0  0  0  0  0  0  0  0
  -22.7857  -46.2654  -26.5597 H   0  0  0  0  0  0  0  0  0  0  0  0
  -16.9444  -44.7775  -18.8999 H   0  0  0  0  0  0  0  0  0  0  0  0
  -12.9911  -42.7956  -21.0992 H   0  0  0  0  0  0  0  0  0  0  0  0
  -18.8115  -47.6813  -22.3950 H   0  0  0  0  0  0  0  0  0  0  0  0
  -17.1602  -46.8052  -20.5545 H   0  0  0  0  0  0  0  0  0  0  0  0
  -13.8971  -40.6666  -20.8506 H   0  0  0  0  0  0  0  0  0  0  0  0
  -17.3491  -41.6613  -24.0503 H   0  0  0  0  0  0  0  0  0  0  0  0
  -14.3836  -39.7639  -26.5306 H   0  0  0  0  0  0  0  0  0  0  0  0
  -15.9321  -40.1200  -28.4582 H   0  0  0  0  0  0  0  0  0  0  0  0
  -18.7531  -41.9312  -26.0735 H   0  0  0  0  0  0  0  0  0  0  0  0
  -13.4015  -38.5736  -22.1365 H   0  0  0  0  0  0  0  0  0  0  0  0
 14  4  1  0
  4  3  1  0
  3  1  3  0
  7  8  1  0
 12 11  2  0
 10  5  1  0
 10 11  1  0
  5  9  2  0
 13 11  2  0
 11  2  1  0
 15 20  2  0
 15 16  1  0
 16  5  1  0
 16 17  2  0
 17 18  1  0
 17  6  1  0
 18 19  2  0
 19 20  1  0
 19  7  1  0
 20 24  1  0
 21  1  1  0
 21 22  2  0
 21 25  1  0
 22 23  1  0
 23 24  2  0
 24 25  1  0
 26 27  2  0
 26 30  1  0
 27 28  1  0
 28 29  1  0
 29 30  2  0
 30 32  1  0
 31 36  2  0
 31 32  1  0
 32 33  2  0
 33 34  1  0
 34 35  2  0
 35 36  1  0
  7 26  1  0
  2 37  1  0
  2 38  1  0
  2 39  1  0
  4 40  1  0
  4 41  1  0
  6 42  1  0
  6 43  1  0
  6 44  1  0
  8 45  1  0
  8 46  1  0
  8 47  1  0
 10 48  1  0
 14 49  1  0
 15 50  1  0
 18 51  1  0
 22 52  1  0
 23 53  1  0
 27 54  1  0
 31 55  1  0
 33 56  1  0
 34 57  1  0
 36 58  1  0
 28 59  1  0
M  END
>  <smiles>  (727) 
[H]OC([H])([H])C#Cc1sc(-c2c([H])c(C(=O)N([H])S(=O)(=O)C([H])([H])[H])c(C([H])([H])[H])c([H])c2N(c2c(-c3c([H])c([H])nc([H])c3[H])n[nH]c2[H])C([H])([H])[H])c([H])c1[H]

>  <error>  (727) 


>  <∆∆G>  (727) 
-73.073364

>  <∆G_bound>  (727) 
162.917001

>  <∆G_unbound>  (727) 
235.990365

>  <comRMSD>  (727) 
0.69728

>  <N_constrained_atoms>  (727) 
36.0

>  <N_unconstrained_atoms>  (727) 
0.0

>  <runtime>  (727) 
4.318613

>  <regarded>  (727) 
['5hmz-a', 'd0160a']

>  <disregarded>  (727) 
[]

>  <LE>  (727) 
2.029816

>  <outcome>  (727) 
acceptable

>  <percent_hybrid>  (727) 
31.0

$$$$
LIG
     RDKit          3D

 59 62  0  0  0  0  0  0  0  0999 V2000
  -19.5014  -46.1345  -24.5420 C   0  0  0  0  0  0  0  0  0  0  0  0
  -15.1969  -41.0067  -14.9617 C   0  0  0  0  0  0  0  0  0  0  0  0
  -20.1277  -46.3408  -25.5475 C   0  0  0  0  0  0  0  0  0  0  0  0
  -20.8597  -46.6255  -26.7809 C   0  0  0  0  0  0  0  0  0  0  0  0
  -14.9706  -43.5748  -17.4729 C   0  0  0  0  0  0  0  0  0  0  0  0
  -12.8866  -42.2526  -19.0449 C   0  0  0  0  0  0  0  0  0  0  0  0
  -15.1524  -43.8342  -23.0760 O   0  0  0  0  0  0  0  0  0  0  0  0
  -14.1250  -44.2330  -17.0046 O   0  0  0  0  0  0  0  0  0  0  0  0
  -16.0668  -42.7042  -16.7893 N   0  0  0  0  0  0  0  0  0  0  0  0
  -16.3125  -42.3512  -15.2070 S   0  0  0  0  0  0  0  0  0  0  0  0
  -15.8208  -43.4354  -14.3936 O   0  0  0  0  0  0  0  0  0  0  0  0
  -17.6530  -41.8175  -15.1104 O   0  0  0  0  0  0  0  0  0  0  0  0
  -21.9867  -45.7695  -26.8920 O   0  0  0  0  0  0  0  0  0  0  0  0
  -15.1764  -39.6995  -25.7374 C   0  0  0  0  0  0  0  0  0  0  0  0
  -16.1798  -44.1434  -19.5628 C   0  0  0  0  0  0  0  0  0  0  0  0
  -15.1024  -43.4918  -18.9447 C   0  0  0  0  0  0  0  0  0  0  0  0
  -14.0793  -42.8926  -19.6975 C   0  0  0  0  0  0  0  0  0  0  0  0
  -14.1464  -42.9675  -21.0929 C   0  0  0  0  0  0  0  0  0  0  0  0
  -15.2186  -43.6068  -21.7207 C   0  0  0  0  0  0  0  0  0  0  0  0
  -16.2425  -44.2179  -20.9617 C   0  0  0  0  0  0  0  0  0  0  0  0
  -18.7947  -45.9117  -23.3186 C   0  0  0  0  0  0  0  0  0  0  0  0
  -18.4709  -46.8756  -22.3869 C   0  0  0  0  0  0  0  0  0  0  0  0
  -17.5912  -46.3703  -21.3815 C   0  0  0  0  0  0  0  0  0  0  0  0
  -17.2792  -45.0403  -21.5962 C   0  0  0  0  0  0  0  0  0  0  0  0
  -18.3103  -44.3687  -22.7904 S   0  0  0  0  0  0  0  0  0  0  0  0
  -15.0325  -41.5572  -24.0226 C   0  0  0  0  0  0  0  0  0  0  0  0
  -15.4255  -42.8768  -23.9907 C   0  0  0  0  0  0  0  0  0  0  0  0
  -16.1449  -43.1314  -25.1753 C   0  0  0  0  0  0  0  0  0  0  0  0
  -16.1701  -41.9791  -25.9171 C   0  0  0  0  0  0  0  0  0  0  0  0
  -15.4712  -41.0296  -25.2200 N   0  0  0  0  0  0  0  0  0  0  0  0
  -17.2223  -38.6426  -26.7895 C   0  0  0  0  0  0  0  0  0  0  0  0
  -16.3896  -38.8133  -25.6839 C   0  0  0  0  0  0  0  0  0  0  0  0
  -16.7421  -38.1464  -24.5079 C   0  0  0  0  0  0  0  0  0  0  0  0
  -17.8791  -37.3466  -24.4829 C   0  0  0  0  0  0  0  0  0  0  0  0
  -18.6411  -37.2485  -25.6360 C   0  0  0  0  0  0  0  0  0  0  0  0
  -18.3455  -37.8794  -26.7940 N   0  0  0  0  0  0  0  0  0  0  0  0
  -15.2929  -40.6680  -13.9276 H   0  0  0  0  0  0  0  0  0  0  0  0
  -14.1761  -41.3489  -15.1436 H   0  0  0  0  0  0  0  0  0  0  0  0
  -15.4605  -40.1934  -15.6407 H   0  0  0  0  0  0  0  0  0  0  0  0
  -21.1850  -47.6677  -26.8421 H   0  0  0  0  0  0  0  0  0  0  0  0
  -20.2143  -46.4226  -27.6331 H   0  0  0  0  0  0  0  0  0  0  0  0
  -13.2024  -41.5538  -18.2635 H   0  0  0  0  0  0  0  0  0  0  0  0
  -12.2377  -43.0180  -18.6091 H   0  0  0  0  0  0  0  0  0  0  0  0
  -12.2963  -41.6802  -19.7687 H   0  0  0  0  0  0  0  0  0  0  0  0
  -16.6933  -42.3281  -17.4973 H   0  0  0  0  0  0  0  0  0  0  0  0
  -22.7612  -46.2742  -26.5684 H   0  0  0  0  0  0  0  0  0  0  0  0
  -14.3620  -39.2852  -25.1353 H   0  0  0  0  0  0  0  0  0  0  0  0
  -14.8036  -39.8162  -26.7612 H   0  0  0  0  0  0  0  0  0  0  0  0
  -16.9340  -44.6421  -18.9577 H   0  0  0  0  0  0  0  0  0  0  0  0
  -13.3244  -42.5945  -21.7001 H   0  0  0  0  0  0  0  0  0  0  0  0
  -18.7670  -47.9153  -22.4676 H   0  0  0  0  0  0  0  0  0  0  0  0
  -17.1269  -46.9907  -20.6242 H   0  0  0  0  0  0  0  0  0  0  0  0
  -14.4460  -40.9653  -23.3356 H   0  0  0  0  0  0  0  0  0  0  0  0
  -16.5872  -44.0664  -25.4614 H   0  0  0  0  0  0  0  0  0  0  0  0
  -16.5920  -41.7725  -26.8897 H   0  0  0  0  0  0  0  0  0  0  0  0
  -17.0033  -39.1288  -27.7380 H   0  0  0  0  0  0  0  0  0  0  0  0
  -16.1393  -38.2514  -23.6095 H   0  0  0  0  0  0  0  0  0  0  0  0
  -18.1718  -36.8201  -23.5811 H   0  0  0  0  0  0  0  0  0  0  0  0
  -19.5416  -36.6410  -25.6537 H   0  0  0  0  0  0  0  0  0  0  0  0
 13  4  1  0
  4  3  1  0
  3  1  3  0
 11 10  2  0
  9  5  1  0
  9 10  1  0
  5  8  2  0
 12 10  2  0
 10  2  1  0
 15 20  2  0
 15 16  1  0
 16  5  1  0
 16 17  2  0
 17 18  1  0
 17  6  1  0
 18 19  2  0
 19 20  1  0
 19  7  1  0
 20 24  1  0
 21  1  1  0
 21 22  2  0
 21 25  1  0
 22 23  1  0
 23 24  2  0
 24 25  1  0
 26 27  2  0
 26 30  1  0
 27 28  1  0
 28 29  2  0
 29 30  1  0
 30 14  1  0
 31 36  2  0
 31 32  1  0
 32 14  1  0
 32 33  2  0
 33 34  1  0
 34 35  2  0
 35 36  1  0
 27  7  1  0
  2 37  1  0
  2 38  1  0
  2 39  1  0
  4 40  1  0
  4 41  1  0
  6 42  1  0
  6 43  1  0
  6 44  1  0
  9 45  1  0
 13 46  1  0
 14 47  1  0
 14 48  1  0
 15 49  1  0
 18 50  1  0
 22 51  1  0
 23 52  1  0
 26 53  1  0
 28 54  1  0
 29 55  1  0
 31 56  1  0
 33 57  1  0
 34 58  1  0
 35 59  1  0
M  END
>  <smiles>  (728) 
[H]OC([H])([H])C#Cc1sc(-c2c([H])c(C(=O)N([H])S(=O)(=O)C([H])([H])[H])c(C([H])([H])[H])c([H])c2Oc2c([H])c([H])n(C([H])([H])c3c([H])nc([H])c([H])c3[H])c2[H])c([H])c1[H]

>  <error>  (728) 


>  <∆∆G>  (728) 
-110.652726

>  <∆G_bound>  (728) 
183.326502

>  <∆G_unbound>  (728) 
293.979228

>  <comRMSD>  (728) 
0.595973

>  <N_constrained_atoms>  (728) 
36.0

>  <N_unconstrained_atoms>  (728) 
0.0

>  <runtime>  (728) 
3.726614

>  <regarded>  (728) 
['5hmz-a', 'd0191a']

>  <disregarded>  (728) 
[]

>  <LE>  (728) 
3.073687

>  <outcome>  (728) 
acceptable

>  <percent_hybrid>  (728) 
34.0

$$$$
LIG
     RDKit          3D

 64 65  0  0  0  0  0  0  0  0999 V2000
  -19.5930  -45.5837  -24.5233 C   0  0  0  0  0  0  0  0  0  0  0  0
  -15.6256  -41.0374  -13.9350 C   0  0  0  0  0  0  0  0  0  0  0  0
  -20.1719  -46.0500  -25.4725 C   0  0  0  0  0  0  0  0  0  0  0  0
  -20.8211  -46.5693  -26.6832 C   0  0  0  0  0  0  0  0  0  0  0  0
  -14.2137  -41.3810  -16.9759 C   0  0  0  0  0  0  0  0  0  0  0  0
  -12.7413  -42.9009  -19.4376 C   0  0  0  0  0  0  0  0  0  0  0  0
  -15.2784  -43.8096  -22.6349 N   0  0  0  0  0  0  0  0  0  0  0  0
  -13.8770  -44.0031  -23.0440 C   0  0  0  0  0  0  0  0  0  0  0  0
  -13.2185  -41.4419  -16.3626 O   0  0  0  0  0  0  0  0  0  0  0  0
  -15.6901  -41.6353  -16.5348 N   0  0  0  0  0  0  0  0  0  0  0  0
  -16.2944  -42.1674  -15.1172 S   0  0  0  0  0  0  0  0  0  0  0  0
  -15.7209  -43.4713  -14.8806 O   0  0  0  0  0  0  0  0  0  0  0  0
  -17.7169  -41.9274  -15.2097 O   0  0  0  0  0  0  0  0  0  0  0  0
  -21.9767  -45.7990  -26.9829 O   0  0  0  0  0  0  0  0  0  0  0  0
  -15.8908  -39.6638  -26.3529 C   0  0  0  0  0  0  0  0  0  0  0  0
  -16.9292  -44.3727  -19.1476 C   0  0  0  0  0  0  0  0  0  0  0  0
  -14.2005  -41.1152  -18.4750 C   0  0  0  0  0  0  0  0  0  0  0  0
  -14.1875  -42.4800  -19.1995 C   0  0  1  0  0  0  0  0  0  0  0  0
  -14.9889  -42.4104  -20.5177 C   0  0  0  0  0  0  0  0  0  0  0  0
  -15.3822  -43.7805  -21.1481 C   0  0  1  0  0  0  0  0  0  0  0  0
  -16.5852  -44.4559  -20.4914 C   0  0  0  0  0  0  0  0  0  0  0  0
  -18.8959  -44.9357  -23.3823 C   0  0  1  0  0  0  0  0  0  0  0  0
  -19.8675  -44.3420  -22.3818 C   0  0  0  0  0  0  0  0  0  0  0  0
  -18.2590  -45.8774  -19.9480 C   0  0  0  0  0  0  0  0  0  0  0  0
  -17.5116  -45.4152  -21.0030 C   0  0  0  0  0  0  0  0  0  0  0  0
  -17.7237  -46.0452  -22.5944 S   0  0  0  0  0  0  0  0  0  0  0  0
  -17.9062  -45.2450  -18.8134 O   0  0  0  0  0  0  0  0  0  0  0  0
  -16.0650  -43.0801  -24.7777 C   0  0  0  0  0  0  0  0  0  0  0  0
  -15.7725  -42.7701  -23.4446 C   0  0  0  0  0  0  0  0  0  0  0  0
  -15.7161  -41.4903  -23.0468 N   0  0  0  0  0  0  0  0  0  0  0  0
  -15.7921  -40.5268  -23.9951 C   0  0  0  0  0  0  0  0  0  0  0  0
  -15.9919  -40.7626  -25.3471 C   0  0  0  0  0  0  0  0  0  0  0  0
  -16.1784  -42.0788  -25.7346 C   0  0  0  0  0  0  0  0  0  0  0  0
  -16.0371  -41.2923  -12.9556 H   0  0  0  0  0  0  0  0  0  0  0  0
  -14.5394  -41.1369  -13.9117 H   0  0  0  0  0  0  0  0  0  0  0  0
  -15.9210  -40.0216  -14.2041 H   0  0  0  0  0  0  0  0  0  0  0  0
  -21.0920  -47.6246  -26.6089 H   0  0  0  0  0  0  0  0  0  0  0  0
  -20.1406  -46.4709  -27.5277 H   0  0  0  0  0  0  0  0  0  0  0  0
  -12.1850  -42.9441  -18.4956 H   0  0  0  0  0  0  0  0  0  0  0  0
  -12.6941  -43.8966  -19.8868 H   0  0  0  0  0  0  0  0  0  0  0  0
  -12.2228  -42.2051  -20.1060 H   0  0  0  0  0  0  0  0  0  0  0  0
  -13.5264  -44.9652  -22.6786 H   0  0  0  0  0  0  0  0  0  0  0  0
  -13.7129  -43.9933  -24.1264 H   0  0  0  0  0  0  0  0  0  0  0  0
  -13.2480  -43.2450  -22.5763 H   0  0  0  0  0  0  0  0  0  0  0  0
  -16.3178  -41.4126  -17.3031 H   0  0  0  0  0  0  0  0  0  0  0  0
  -22.7387  -46.2652  -26.5821 H   0  0  0  0  0  0  0  0  0  0  0  0
  -16.2750  -38.7234  -25.9443 H   0  0  0  0  0  0  0  0  0  0  0  0
  -14.8460  -39.5220  -26.6455 H   0  0  0  0  0  0  0  0  0  0  0  0
  -16.4786  -39.8938  -27.2481 H   0  0  0  0  0  0  0  0  0  0  0  0
  -16.5640  -43.8062  -18.3057 H   0  0  0  0  0  0  0  0  0  0  0  0
  -13.3221  -40.5080  -18.7224 H   0  0  0  0  0  0  0  0  0  0  0  0
  -15.0798  -40.5155  -18.7340 H   0  0  0  0  0  0  0  0  0  0  0  0
  -14.6136  -43.2417  -18.5451 H   0  0  0  0  0  0  0  0  0  0  0  0
  -15.9083  -41.8320  -20.3576 H   0  0  0  0  0  0  0  0  0  0  0  0
  -14.3599  -41.8249  -21.1960 H   0  0  0  0  0  0  0  0  0  0  0  0
  -14.5959  -44.4762  -20.8174 H   0  0  0  0  0  0  0  0  0  0  0  0
  -18.3290  -44.1019  -23.7999 H   0  0  0  0  0  0  0  0  0  0  0  0
  -20.3232  -45.0626  -21.7013 H   0  0  0  0  0  0  0  0  0  0  0  0
  -19.3813  -43.5748  -21.7671 H   0  0  0  0  0  0  0  0  0  0  0  0
  -20.6739  -43.8289  -22.9095 H   0  0  0  0  0  0  0  0  0  0  0  0
  -19.0504  -46.6079  -19.8574 H   0  0  0  0  0  0  0  0  0  0  0  0
  -16.0890  -44.1157  -25.0883 H   0  0  0  0  0  0  0  0  0  0  0  0
  -15.6520  -39.5161  -23.6214 H   0  0  0  0  0  0  0  0  0  0  0  0
  -16.3162  -42.3437  -26.7791 H   0  0  0  0  0  0  0  0  0  0  0  0
 14  4  1  0
  4  3  1  0
  3  1  3  0
  7  8  1  0
 12 11  2  0
 10  5  1  0
 10 11  1  0
  5  9  2  0
 13 11  2  0
 11  2  1  0
 16 21  2  0
 17  5  1  0
 17 18  1  0
 18 19  1  0
 18  6  1  0
 19 20  1  0
 20 21  1  0
 20  7  1  0
 21 25  1  0
 22  1  1  0
 22 23  1  0
 22 26  1  0
 24 25  2  0
 25 26  1  0
 28 33  2  0
 28 29  1  0
 29 30  2  0
 30 31  1  0
 31 32  2  0
 32 15  1  0
 32 33  1  0
 16 27  1  0
 24 27  1  0
  7 29  1  0
  2 34  1  0
  2 35  1  0
  2 36  1  0
  4 37  1  0
  4 38  1  0
  6 39  1  0
  6 40  1  0
  6 41  1  0
  8 42  1  0
  8 43  1  0
  8 44  1  0
 10 45  1  0
 14 46  1  0
 15 47  1  0
 15 48  1  0
 15 49  1  0
 16 50  1  0
 17 51  1  0
 17 52  1  0
 18 53  1  1
 19 54  1  0
 19 55  1  0
 20 56  1  6
 22 57  1  6
 23 58  1  0
 23 59  1  0
 23 60  1  0
 24 61  1  0
 28 62  1  0
 31 63  1  0
 33 64  1  0
M  END
>  <smiles>  (729) 
[H]OC([H])([H])C#C[C@]([H])(Sc1c([H])oc([H])c1[C@]([H])(N(c1nc([H])c(C([H])([H])[H])c([H])c1[H])C([H])([H])[H])C([H])([H])[C@@]([H])(C([H])([H])[H])C([H])([H])C(=O)N([H])S(=O)(=O)C([H])([H])[H])C([H])([H])[H]

>  <error>  (729) 


>  <∆∆G>  (729) 
-48.010201

>  <∆G_bound>  (729) 
58.563944

>  <∆G_unbound>  (729) 
106.574145

>  <comRMSD>  (729) 
1.423796

>  <N_constrained_atoms>  (729) 
33.0

>  <N_unconstrained_atoms>  (729) 
0.0

>  <runtime>  (729) 
76.769659

>  <regarded>  (729) 
['5hmz-a', 'd0254a']

>  <disregarded>  (729) 
[]

>  <LE>  (729) 
1.454855

>  <outcome>  (729) 
too moved

>  <percent_hybrid>  (729) 
25.0

$$$$

     RDKit          2D

  0  0  0  0  0  0  0  0  0  0999 V2000
M  END
>  <smiles>  (730) 
nan

>  <error>  (730) 
TimeoutError

>  <∆∆G>  (730) 
nan

>  <∆G_bound>  (730) 
nan

>  <∆G_unbound>  (730) 
nan

>  <comRMSD>  (730) 
nan

>  <N_constrained_atoms>  (730) 
nan

>  <N_unconstrained_atoms>  (730) 
nan

>  <runtime>  (730) 
nan

>  <regarded>  (730) 
[]

>  <disregarded>  (730) 
[]

>  <LE>  (730) 
nan

>  <outcome>  (730) 
timeout

>  <percent_hybrid>  (730) 
nan

$$$$
LIG
     RDKit          3D

 42 43  0  0  0  0  0  0  0  0999 V2000
  -19.4950  -46.1730  -24.5472 C   0  0  0  0  0  0  0  0  0  0  0  0
  -15.2215  -40.9965  -14.9199 C   0  0  0  0  0  0  0  0  0  0  0  0
  -20.1201  -46.3654  -25.5562 C   0  0  0  0  0  0  0  0  0  0  0  0
  -20.8479  -46.6418  -26.7932 C   0  0  0  0  0  0  0  0  0  0  0  0
  -14.9792  -43.6584  -17.4006 C   0  0  0  0  0  0  0  0  0  0  0  0
  -12.8845  -42.4114  -18.9963 C   0  0  0  0  0  0  0  0  0  0  0  0
  -15.3163  -43.9812  -23.0086 O   0  0  0  0  0  0  0  0  0  0  0  0
  -14.4119  -43.2961  -23.8522 C   0  0  0  0  0  0  0  0  0  0  0  0
  -14.1237  -44.2800  -16.9016 O   0  0  0  0  0  0  0  0  0  0  0  0
  -16.0283  -42.6972  -16.7681 N   0  0  0  0  0  0  0  0  0  0  0  0
  -16.3326  -42.3386  -15.1972 S   0  0  0  0  0  0  0  0  0  0  0  0
  -15.8670  -43.4172  -14.3617 O   0  0  0  0  0  0  0  0  0  0  0  0
  -17.6747  -41.8028  -15.1482 O   0  0  0  0  0  0  0  0  0  0  0  0
  -21.9702  -45.7789  -26.9109 O   0  0  0  0  0  0  0  0  0  0  0  0
  -16.1917  -44.2894  -19.4807 C   0  0  0  0  0  0  0  0  0  0  0  0
  -15.1053  -43.6442  -18.8743 C   0  0  0  0  0  0  0  0  0  0  0  0
  -14.0723  -43.0756  -19.6369 C   0  0  0  0  0  0  0  0  0  0  0  0
  -14.1340  -43.1785  -21.0308 C   0  0  0  0  0  0  0  0  0  0  0  0
  -15.2115  -43.8129  -21.6539 C   0  0  0  0  0  0  0  0  0  0  0  0
  -16.2528  -44.3770  -20.8785 C   0  0  0  0  0  0  0  0  0  0  0  0
  -18.7990  -45.9702  -23.3139 C   0  0  0  0  0  0  0  0  0  0  0  0
  -18.5398  -46.9408  -22.3682 C   0  0  0  0  0  0  0  0  0  0  0  0
  -17.6934  -46.4624  -21.3232 C   0  0  0  0  0  0  0  0  0  0  0  0
  -17.3204  -45.1485  -21.5314 C   0  0  0  0  0  0  0  0  0  0  0  0
  -18.2503  -44.4453  -22.7981 S   0  0  0  0  0  0  0  0  0  0  0  0
  -15.3501  -40.6542  -13.8906 H   0  0  0  0  0  0  0  0  0  0  0  0
  -14.1964  -41.3422  -15.0675 H   0  0  0  0  0  0  0  0  0  0  0  0
  -15.4606  -40.1846  -15.6097 H   0  0  0  0  0  0  0  0  0  0  0  0
  -21.1798  -47.6816  -26.8589 H   0  0  0  0  0  0  0  0  0  0  0  0
  -20.1963  -46.4399  -27.6407 H   0  0  0  0  0  0  0  0  0  0  0  0
  -13.2080  -41.6765  -18.2520 H   0  0  0  0  0  0  0  0  0  0  0  0
  -12.2450  -43.1591  -18.5178 H   0  0  0  0  0  0  0  0  0  0  0  0
  -12.2800  -41.8746  -19.7354 H   0  0  0  0  0  0  0  0  0  0  0  0
  -14.3213  -42.2377  -23.5886 H   0  0  0  0  0  0  0  0  0  0  0  0
  -13.4475  -43.8085  -23.8493 H   0  0  0  0  0  0  0  0  0  0  0  0
  -14.8157  -43.3401  -24.8663 H   0  0  0  0  0  0  0  0  0  0  0  0
  -16.5751  -42.2575  -17.5051 H   0  0  0  0  0  0  0  0  0  0  0  0
  -22.7397  -46.2673  -26.5518 H   0  0  0  0  0  0  0  0  0  0  0  0
  -16.9640  -44.7515  -18.8709 H   0  0  0  0  0  0  0  0  0  0  0  0
  -13.3010  -42.7987  -21.6160 H   0  0  0  0  0  0  0  0  0  0  0  0
  -18.8703  -47.9692  -22.4559 H   0  0  0  0  0  0  0  0  0  0  0  0
  -17.2834  -47.0962  -20.5460 H   0  0  0  0  0  0  0  0  0  0  0  0
 14  4  1  0
  4  3  1  0
  3  1  3  0
  7  8  1  0
 12 11  2  0
 10  5  1  0
 10 11  1  0
  5  9  2  0
 13 11  2  0
 11  2  1  0
 15 20  2  0
 15 16  1  0
 16  5  1  0
 16 17  2  0
 17 18  1  0
 17  6  1  0
 18 19  2  0
 19 20  1  0
 19  7  1  0
 20 24  1  0
 21  1  1  0
 21 22  2  0
 21 25  1  0
 22 23  1  0
 23 24  2  0
 24 25  1  0
  2 26  1  0
  2 27  1  0
  2 28  1  0
  4 29  1  0
  4 30  1  0
  6 31  1  0
  6 32  1  0
  6 33  1  0
  8 34  1  0
  8 35  1  0
  8 36  1  0
 10 37  1  0
 14 38  1  0
 15 39  1  0
 18 40  1  0
 22 41  1  0
 23 42  1  0
M  END
>  <smiles>  (731) 
[H]OC([H])([H])C#Cc1sc(-c2c([H])c(C(=O)N([H])S(=O)(=O)C([H])([H])[H])c(C([H])([H])[H])c([H])c2OC([H])([H])[H])c([H])c1[H]

>  <error>  (731) 


>  <∆∆G>  (731) 
-63.388461

>  <∆G_bound>  (731) 
-77.016186

>  <∆G_unbound>  (731) 
-13.627725

>  <comRMSD>  (731) 
0.632065

>  <N_constrained_atoms>  (731) 
25.0

>  <N_unconstrained_atoms>  (731) 
0.0

>  <runtime>  (731) 
2.902525

>  <regarded>  (731) 
['5hmz-a', 'd0472a']

>  <disregarded>  (731) 
[]

>  <LE>  (731) 
2.535538

>  <outcome>  (731) 
equally sized

>  <percent_hybrid>  (731) 
0.0

$$$$

     RDKit          2D

  0  0  0  0  0  0  0  0  0  0999 V2000
M  END
>  <smiles>  (732) 
nan

>  <error>  (732) 
FragmensteinError Ideal compound failed. Something is wrong with the SMILES

>  <∆∆G>  (732) 
nan

>  <∆G_bound>  (732) 
nan

>  <∆G_unbound>  (732) 
nan

>  <comRMSD>  (732) 
nan

>  <N_constrained_atoms>  (732) 
nan

>  <N_unconstrained_atoms>  (732) 
nan

>  <runtime>  (732) 
nan

>  <regarded>  (732) 
[]

>  <disregarded>  (732) 
[]

>  <LE>  (732) 
nan

>  <outcome>  (732) 
crashed

>  <percent_hybrid>  (732) 
nan

$$$$

     RDKit          2D

  0  0  0  0  0  0  0  0  0  0999 V2000
M  END
>  <smiles>  (733) 
nan

>  <error>  (733) 
TimeoutError

>  <∆∆G>  (733) 
nan

>  <∆G_bound>  (733) 
nan

>  <∆G_unbound>  (733) 
nan

>  <comRMSD>  (733) 
nan

>  <N_constrained_atoms>  (733) 
nan

>  <N_unconstrained_atoms>  (733) 
nan

>  <runtime>  (733) 
nan

>  <regarded>  (733) 
[]

>  <disregarded>  (733) 
[]

>  <LE>  (733) 
nan

>  <outcome>  (733) 
timeout

>  <percent_hybrid>  (733) 
nan

$$$$
LIG
     RDKit          3D

  0  0  0  0  0  0  0  0  0  0999 V3000
M  V30 BEGIN CTAB
M  V30 COUNTS 72 74 0 0 0
M  V30 BEGIN ATOM
M  V30 1 C -19.818001 -46.580002 -24.270000 0
M  V30 2 C -15.760000 -42.192001 -14.503000 0
M  V30 3 C -20.392000 -46.660000 -25.309999 0
M  V30 4 C -20.905001 -46.700001 -26.679001 0
M  V30 5 C -15.534000 -43.762001 -17.311001 0
M  V30 6 C -13.321000 -42.277000 -18.820999 0
M  V30 7 O -15.426000 -43.787998 -22.948000 0
M  V30 8 C -14.415000 -43.044998 -23.643000 0
M  V30 9 O -14.665000 -44.292999 -16.621000 0
M  V30 10 N -16.653000 -43.152000 -16.789000 0
M  V30 11 S -17.031000 -43.102001 -15.230000 0
M  V30 12 O -16.983999 -44.417999 -14.750000 0
M  V30 13 O -18.233000 -42.353001 -15.150000 0
M  V30 14 O -22.167000 -46.080002 -26.768999 0
M  V30 15 C -16.385000 -44.480000 -19.483999 0
M  V30 16 C -15.409000 -43.759998 -18.796000 0
M  V30 17 C -14.430000 -43.042999 -19.507999 0
M  V30 18 C -14.493000 -43.049999 -20.900000 0
M  V30 19 C -15.471000 -43.773998 -21.576000 0
M  V30 20 C -16.426001 -44.507999 -20.872999 0
M  V30 21 C -19.028000 -46.348000 -23.115999 0
M  V30 22 C -18.854000 -47.084000 -22.014999 0
M  V30 23 C -17.948000 -46.509998 -21.113001 0
M  V30 24 C -17.434999 -45.320000 -21.558001 0
M  V30 25 S -18.084999 -44.922001 -23.068001 0
M  V30 26 O -19.445000 -40.158001 -24.528000 0
M  V30 27 S -18.933001 -39.846001 -25.825001 0
M  V30 28 O -18.877001 -38.480999 -26.240999 0
M  V30 29 C -19.827000 -40.765999 -27.018000 0
M  V30 30 C -16.511999 -41.500999 -27.914000 0
M  V30 31 C -15.906000 -38.516998 -25.243999 0
M  V30 32 O -16.229000 -38.262001 -26.598000 0
M  V30 33 N -17.393000 -40.395000 -25.853001 0
M  V30 34 C -17.198999 -41.683998 -26.573000 0 CFG=2
M  V30 35 C -16.566000 -42.779999 -25.714001 0
M  V30 36 C -15.991000 -42.259998 -24.402000 0 CFG=2
M  V30 37 C -15.366000 -40.882000 -24.551001 0
M  V30 38 C -16.459999 -39.863998 -24.820000 0 CFG=1
M  V30 39 N -15.203000 -42.652496 -24.022499 0
M  V30 40 H -15.845274 -42.253056 -13.408011 0
M  V30 41 H -14.789023 -42.601425 -14.818560 0
M  V30 42 H -15.834725 -41.140888 -14.818560 0
M  V30 43 H -20.997185 -47.748981 -26.997023 0
M  V30 44 H -20.203392 -46.157421 -27.329655 0
M  V30 45 H -13.439723 -42.359005 -17.730503 0
M  V30 46 H -12.348014 -42.696510 -19.116480 0
M  V30 47 H -13.368885 -41.218513 -19.116480 0
M  V30 48 H -13.788666 -42.382080 -23.027983 0
M  V30 49 H -13.577234 -43.477287 -24.209810 0
M  V30 50 H -17.296339 -42.692879 -17.449469 0
M  V30 51 H -22.516090 -45.908501 -25.858603 0
M  V30 52 H -17.140970 -45.039505 -18.913506 0
M  V30 53 H -13.755346 -42.472004 -21.476011 0
M  V30 54 H -19.367716 -48.039921 -21.835253 0
M  V30 55 H -17.677311 -46.966576 -20.149536 0
M  V30 56 H -20.506313 -41.465069 -26.508259 0
M  V30 57 H -20.412142 -40.079388 -27.647423 0
M  V30 58 H -19.123901 -41.331223 -27.647423 0
M  V30 59 H -15.460629 -41.220943 -27.752167 0
M  V30 60 H -16.557558 -42.442596 -28.480846 0
M  V30 61 H -17.019920 -40.706833 -28.480846 0
M  V30 62 H -14.812429 -38.519810 -25.125275 0
M  V30 63 H -16.349152 -37.731411 -24.614344 0
M  V30 64 H -17.005259 -37.649174 -26.642309 0
M  V30 65 H -18.210634 -42.054550 -26.795010 0
M  V30 66 H -16.529486 -43.837841 -26.013391 0
M  V30 67 H -15.597886 -42.607105 -26.206812 0
M  V30 68 H -16.899490 -42.425266 -23.804228 0
M  V30 69 H -14.291663 -40.658054 -24.475843 0
M  V30 70 H -15.255508 -41.049068 -25.632610 0
M  V30 71 H -17.003857 -39.699589 -23.878094 0
M  V30 72 H -13.993000 -41.442497 -22.812500 0
M  V30 END ATOM
M  V30 BEGIN BOND
M  V30 1 1 14 4
M  V30 2 1 4 3
M  V30 3 3 3 1
M  V30 4 1 7 8
M  V30 5 2 12 11
M  V30 6 1 10 5
M  V30 7 1 10 11
M  V30 8 2 5 9
M  V30 9 2 13 11
M  V30 10 1 11 2
M  V30 11 2 15 20
M  V30 12 1 15 16
M  V30 13 1 16 5
M  V30 14 2 16 17
M  V30 15 1 17 18
M  V30 16 1 17 6
M  V30 17 2 18 19
M  V30 18 1 19 20
M  V30 19 1 19 7
M  V30 20 1 20 24
M  V30 21 1 21 1
M  V30 22 2 21 22
M  V30 23 1 21 25
M  V30 24 1 22 23
M  V30 25 2 23 24
M  V30 26 1 24 25
M  V30 27 1 32 31
M  V30 28 1 29 27
M  V30 29 2 28 27
M  V30 30 2 27 26
M  V30 31 1 33 38
M  V30 32 1 33 27
M  V30 33 1 33 34
M  V30 34 1 34 30
M  V30 35 1 34 35
M  V30 36 1 35 36
M  V30 37 1 36 37
M  V30 38 1 37 38
M  V30 39 1 38 31
M  V30 40 1 39 8
M  V30 41 1 39 36
M  V30 42 1 2 40
M  V30 43 1 2 41
M  V30 44 1 2 42
M  V30 45 1 4 43
M  V30 46 1 4 44
M  V30 47 1 6 45
M  V30 48 1 6 46
M  V30 49 1 6 47
M  V30 50 1 8 48
M  V30 51 1 8 49
M  V30 52 1 10 50
M  V30 53 1 14 51
M  V30 54 1 15 52
M  V30 55 1 18 53
M  V30 56 1 22 54
M  V30 57 1 23 55
M  V30 58 1 29 56
M  V30 59 1 29 57
M  V30 60 1 29 58
M  V30 61 1 30 59
M  V30 62 1 30 60
M  V30 63 1 30 61
M  V30 64 1 31 62
M  V30 65 1 31 63
M  V30 66 1 32 64
M  V30 67 1 34 65 CFG=3
M  V30 68 1 35 66
M  V30 69 1 35 67
M  V30 70 1 36 68 CFG=1
M  V30 71 1 37 69
M  V30 72 1 37 70
M  V30 73 1 38 71 CFG=1
M  V30 74 1 39 72
M  V30 END BOND
M  V30 BEGIN COLLECTION
M  V30 MDLV30/STEABS ATOMS=(0)
M  V30 END COLLECTION
M  V30 END CTAB
M  END
>  <smiles>  (734) 
[H]OC([H])([H])C#Cc1sc(-c2c([H])c(C(=O)N([H])S(=O)(=O)C([H])([H])[H])c(C([H])([H])[H])c([H])c2OC([H])([H])N([H])[C@]2([H])C([H])([H])[C@]([H])(C([H])([H])[H])N(S(=O)(=O)C([H])([H])[H])[C@]([H])(C([H])([H])O[H])C2([H])[H])c([H])c1[H]

>  <error>  (734) 


>  <∆∆G>  (734) 
nan

>  <∆G_bound>  (734) 
nan

>  <∆G_unbound>  (734) 
nan

>  <comRMSD>  (734) 
0.0

>  <N_constrained_atoms>  (734) 
38.0

>  <N_unconstrained_atoms>  (734) 
1.0

>  <runtime>  (734) 
2.487708

>  <regarded>  (734) 
['5hmz-a', 'd0851a']

>  <disregarded>  (734) 
[]

>  <LE>  (734) 
nan

>  <outcome>  (734) 
crashed

>  <percent_hybrid>  (734) 
35.0

$$$$

     RDKit          2D

  0  0  0  0  0  0  0  0  0  0999 V2000
M  END
>  <smiles>  (735) 
nan

>  <error>  (735) 
TimeoutError

>  <∆∆G>  (735) 
nan

>  <∆G_bound>  (735) 
nan

>  <∆G_unbound>  (735) 
nan

>  <comRMSD>  (735) 
nan

>  <N_constrained_atoms>  (735) 
nan

>  <N_unconstrained_atoms>  (735) 
nan

>  <runtime>  (735) 
nan

>  <regarded>  (735) 
[]

>  <disregarded>  (735) 
[]

>  <LE>  (735) 
nan

>  <outcome>  (735) 
timeout

>  <percent_hybrid>  (735) 
nan

$$$$

     RDKit          2D

  0  0  0  0  0  0  0  0  0  0999 V2000
M  END
>  <smiles>  (736) 
nan

>  <error>  (736) 
DistanceError 5.55 Å

>  <∆∆G>  (736) 
nan

>  <∆G_bound>  (736) 
nan

>  <∆G_unbound>  (736) 
nan

>  <comRMSD>  (736) 
nan

>  <N_constrained_atoms>  (736) 
nan

>  <N_unconstrained_atoms>  (736) 
nan

>  <runtime>  (736) 
nan

>  <regarded>  (736) 
[]

>  <disregarded>  (736) 
[]

>  <LE>  (736) 
nan

>  <outcome>  (736) 
too distant

>  <percent_hybrid>  (736) 
nan

$$$$
LIG
     RDKit          3D

 59 62  0  0  0  0  0  0  0  0999 V2000
  -19.4550  -46.1240  -24.4851 C   0  0  0  0  0  0  0  0  0  0  0  0
  -17.0382  -40.1311  -14.7882 C   0  0  0  0  0  0  0  0  0  0  0  0
  -20.0646  -46.3424  -25.4998 C   0  0  0  0  0  0  0  0  0  0  0  0
  -20.7856  -46.6505  -26.7370 C   0  0  0  0  0  0  0  0  0  0  0  0
  -15.7798  -43.1429  -16.8680 C   0  0  1  0  0  0  0  0  0  0  0  0
  -13.2052  -42.7395  -18.3554 C   0  0  2  0  0  0  0  0  0  0  0  0
  -15.3555  -44.0106  -22.5702 O   0  0  0  0  0  0  0  0  0  0  0  0
  -14.2991  -43.4336  -23.3169 C   0  0  0  0  0  0  0  0  0  0  0  0
  -16.4312  -41.8308  -16.7152 N   0  0  0  0  0  0  0  0  0  0  0  0
  -17.5661  -41.6731  -15.4667 S   0  0  0  0  0  0  0  0  0  0  0  0
  -17.3546  -42.6512  -14.4397 O   0  0  0  0  0  0  0  0  0  0  0  0
  -18.8356  -41.4827  -16.1248 O   0  0  0  0  0  0  0  0  0  0  0  0
  -21.9146  -45.7992  -26.8788 O   0  0  0  0  0  0  0  0  0  0  0  0
  -12.4348  -43.9284  -18.4004 O   0  0  0  0  0  0  0  0  0  0  0  0
  -13.3805  -42.3465  -16.8945 C   0  0  0  0  0  0  0  0  0  0  0  0
  -16.6785  -44.0223  -19.1421 C   0  0  0  0  0  0  0  0  0  0  0  0
  -15.6338  -43.4333  -18.3892 C   0  0  0  0  0  0  0  0  0  0  0  0
  -14.4683  -43.0729  -19.0834 C   0  0  0  0  0  0  0  0  0  0  0  0
  -14.3832  -43.2000  -20.4887 C   0  0  0  0  0  0  0  0  0  0  0  0
  -15.4117  -43.7754  -21.2199 C   0  0  0  0  0  0  0  0  0  0  0  0
  -16.5610  -44.2295  -20.5411 C   0  0  0  0  0  0  0  0  0  0  0  0
  -18.8110  -45.9027  -23.2227 C   0  0  0  0  0  0  0  0  0  0  0  0
  -18.5537  -46.8772  -22.2793 C   0  0  0  0  0  0  0  0  0  0  0  0
  -17.8393  -46.3699  -21.1524 C   0  0  0  0  0  0  0  0  0  0  0  0
  -17.5431  -45.0283  -21.2940 C   0  0  0  0  0  0  0  0  0  0  0  0
  -18.3598  -44.3601  -22.6553 S   0  0  0  0  0  0  0  0  0  0  0  0
  -14.4219  -43.1767  -16.0561 C   0  0  0  0  0  0  0  0  0  0  0  0
  -14.0085  -44.6452  -15.8951 C   0  0  0  0  0  0  0  0  0  0  0  0
  -13.7169  -45.3233  -14.5626 C   0  0  0  0  0  0  0  0  0  0  0  0
  -13.8574  -44.4909  -13.4350 O   0  0  0  0  0  0  0  0  0  0  0  0
  -13.3906  -43.1779  -13.7003 C   0  0  0  0  0  0  0  0  0  0  0  0
  -14.3846  -42.5323  -14.6474 C   0  0  0  0  0  0  0  0  0  0  0  0
  -17.7461  -39.8506  -14.0044 H   0  0  0  0  0  0  0  0  0  0  0  0
  -16.0431  -40.2262  -14.3573 H   0  0  0  0  0  0  0  0  0  0  0  0
  -17.0507  -39.3726  -15.5736 H   0  0  0  0  0  0  0  0  0  0  0  0
  -21.1095  -47.6936  -26.7834 H   0  0  0  0  0  0  0  0  0  0  0  0
  -20.1349  -46.4663  -27.5894 H   0  0  0  0  0  0  0  0  0  0  0  0
  -16.4511  -43.9043  -16.4848 H   0  0  0  0  0  0  0  0  0  0  0  0
  -12.6490  -41.9499  -18.8741 H   0  0  0  0  0  0  0  0  0  0  0  0
  -14.2309  -42.3548  -23.1442 H   0  0  0  0  0  0  0  0  0  0  0  0
  -13.3594  -43.9429  -23.0893 H   0  0  0  0  0  0  0  0  0  0  0  0
  -14.5145  -43.5858  -24.3781 H   0  0  0  0  0  0  0  0  0  0  0  0
  -16.8881  -41.5218  -17.5772 H   0  0  0  0  0  0  0  0  0  0  0  0
  -22.6803  -46.2796  -26.5029 H   0  0  0  0  0  0  0  0  0  0  0  0
  -12.3481  -44.2239  -19.3238 H   0  0  0  0  0  0  0  0  0  0  0  0
  -12.4007  -42.3797  -16.3987 H   0  0  0  0  0  0  0  0  0  0  0  0
  -13.6967  -41.2934  -16.8811 H   0  0  0  0  0  0  0  0  0  0  0  0
  -17.5896  -44.3405  -18.6372 H   0  0  0  0  0  0  0  0  0  0  0  0
  -13.4519  -42.9208  -20.9771 H   0  0  0  0  0  0  0  0  0  0  0  0
  -18.8182  -47.9205  -22.4075 H   0  0  0  0  0  0  0  0  0  0  0  0
  -17.4594  -46.9907  -20.3506 H   0  0  0  0  0  0  0  0  0  0  0  0
  -14.6348  -45.3132  -16.4935 H   0  0  0  0  0  0  0  0  0  0  0  0
  -13.0255  -44.6123  -16.3142 H   0  0  0  0  0  0  0  0  0  0  0  0
  -14.3288  -46.2195  -14.4462 H   0  0  0  0  0  0  0  0  0  0  0  0
  -12.6908  -45.7087  -14.5493 H   0  0  0  0  0  0  0  0  0  0  0  0
  -13.3776  -42.6345  -12.7499 H   0  0  0  0  0  0  0  0  0  0  0  0
  -12.3664  -43.1917  -14.0903 H   0  0  0  0  0  0  0  0  0  0  0  0
  -14.1906  -41.4563  -14.7025 H   0  0  0  0  0  0  0  0  0  0  0  0
  -15.3231  -42.6687  -14.1368 H   0  0  0  0  0  0  0  0  0  0  0  0
 13  4  1  0
  4  3  1  0
  3  1  3  0
  7  8  1  0
 11 10  2  0
  9  5  1  0
  9 10  1  0
 12 10  2  0
 10  2  1  0
 14  6  1  0
 15  6  1  0
 16 21  2  0
 16 17  1  0
 17  5  1  0
 17 18  2  0
 18 19  1  0
 18  6  1  0
 19 20  2  0
 20 21  1  0
 20  7  1  0
 21 25  1  0
 22  1  1  0
 22 23  2  0
 22 26  1  0
 23 24  1  0
 24 25  2  0
 25 26  1  0
 27 15  1  0
 27 32  1  0
 27 28  1  0
 28 29  1  0
 29 30  1  0
 30 31  1  0
 31 32  1  0
 27  5  1  0
  2 33  1  0
  2 34  1  0
  2 35  1  0
  4 36  1  0
  4 37  1  0
  5 38  1  1
  6 39  1  6
  8 40  1  0
  8 41  1  0
  8 42  1  0
  9 43  1  0
 13 44  1  0
 14 45  1  0
 15 46  1  0
 15 47  1  0
 16 48  1  0
 19 49  1  0
 23 50  1  0
 24 51  1  0
 28 52  1  0
 28 53  1  0
 29 54  1  0
 29 55  1  0
 31 56  1  0
 31 57  1  0
 32 58  1  0
 32 59  1  0
M  END
>  <smiles>  (737) 
[H]OC([H])([H])C#Cc1sc(-c2c([H])c3c(c([H])c2OC([H])([H])[H])[C@]([H])(O[H])C([H])([H])C2(C([H])([H])C([H])([H])OC([H])([H])C2([H])[H])[C@@]3([H])N([H])S(=O)(=O)C([H])([H])[H])c([H])c1[H]

>  <error>  (737) 


>  <∆∆G>  (737) 
-52.703334

>  <∆G_bound>  (737) 
32.020036

>  <∆G_unbound>  (737) 
84.72337

>  <comRMSD>  (737) 
1.234246

>  <N_constrained_atoms>  (737) 
32.0

>  <N_unconstrained_atoms>  (737) 
0.0

>  <runtime>  (737) 
3.742157

>  <regarded>  (737) 
['5hmz-a', 'z0052a']

>  <disregarded>  (737) 
[]

>  <LE>  (737) 
1.646979

>  <outcome>  (737) 
too moved

>  <percent_hybrid>  (737) 
25.0

$$$$
LIG
     RDKit          3D

  0  0  0  0  0  0  0  0  0  0999 V3000
M  V30 BEGIN CTAB
M  V30 COUNTS 62 64 0 0 0
M  V30 BEGIN ATOM
M  V30 1 C -19.818001 -46.580002 -24.270000 0
M  V30 2 C -15.760000 -42.192001 -14.503000 0
M  V30 3 C -20.392000 -46.660000 -25.309999 0
M  V30 4 C -20.905001 -46.700001 -26.679001 0
M  V30 5 C -15.534000 -43.762001 -17.311001 0
M  V30 6 C -13.321000 -42.277000 -18.820999 0
M  V30 7 O -15.426000 -43.787998 -22.948000 0
M  V30 8 C -14.415000 -43.044998 -23.643000 0
M  V30 9 O -14.665000 -44.292999 -16.621000 0
M  V30 10 N -16.653000 -43.152000 -16.789000 0
M  V30 11 S -17.031000 -43.102001 -15.230000 0
M  V30 12 O -16.983999 -44.417999 -14.750000 0
M  V30 13 O -18.233000 -42.353001 -15.150000 0
M  V30 14 O -22.167000 -46.080002 -26.768999 0
M  V30 15 C -16.385000 -44.480000 -19.483999 0
M  V30 16 C -15.409000 -43.759998 -18.796000 0
M  V30 17 C -14.430000 -43.042999 -19.507999 0
M  V30 18 C -14.493000 -43.049999 -20.900000 0
M  V30 19 C -15.471000 -43.773998 -21.576000 0
M  V30 20 C -16.426001 -44.507999 -20.872999 0
M  V30 21 C -19.028000 -46.348000 -23.115999 0
M  V30 22 C -18.854000 -47.084000 -22.014999 0
M  V30 23 C -17.948000 -46.509998 -21.113001 0
M  V30 24 C -17.434999 -45.320000 -21.558001 0
M  V30 25 S -18.084999 -44.922001 -23.068001 0
M  V30 26 N -13.266000 -42.196999 -21.974001 0
M  V30 27 C -12.944000 -41.021999 -21.833000 0
M  V30 28 C -11.629000 -40.624001 -21.225000 0
M  V30 29 N -13.726000 -40.034000 -22.247999 0
M  V30 30 C -13.348000 -39.222000 -23.382000 0
M  V30 31 C -12.966000 -37.907001 -22.924999 0
M  V30 32 N -11.741000 -37.458000 -22.879000 0
M  V30 33 C -11.837000 -36.210999 -22.299000 0
M  V30 34 C -13.101000 -35.942001 -22.018000 0
M  V30 35 N -13.818000 -37.035000 -22.421000 0
M  V30 36 N -13.840500 -42.620998 -22.808500 0
M  V30 37 H -15.845274 -42.253056 -13.408011 0
M  V30 38 H -14.789023 -42.601425 -14.818560 0
M  V30 39 H -15.834725 -41.140888 -14.818560 0
M  V30 40 H -20.997185 -47.748981 -26.997023 0
M  V30 41 H -20.203392 -46.157421 -27.329655 0
M  V30 42 H -13.439723 -42.359005 -17.730503 0
M  V30 43 H -12.348014 -42.696510 -19.116480 0
M  V30 44 H -13.368885 -41.218513 -19.116480 0
M  V30 45 H -13.791354 -43.702095 -24.266932 0
M  V30 46 H -14.812017 -42.293228 -24.341011 0
M  V30 47 H -17.296339 -42.692879 -17.449469 0
M  V30 48 H -22.516090 -45.908501 -25.858603 0
M  V30 49 H -17.140970 -45.039505 -18.913506 0
M  V30 50 H -13.755346 -42.472004 -21.476011 0
M  V30 51 H -19.367716 -48.039921 -21.835253 0
M  V30 52 H -17.677311 -46.966576 -20.149536 0
M  V30 53 H -11.709771 -40.648445 -20.128242 0
M  V30 54 H -10.847049 -41.325714 -21.550806 0
M  V30 55 H -11.367404 -39.606445 -21.550806 0
M  V30 56 H -14.611291 -39.843807 -21.757097 0
M  V30 57 H -12.499456 -39.690483 -23.902094 0
M  V30 58 H -14.199591 -39.137444 -24.073118 0
M  V30 59 H -10.988646 -35.539764 -22.099646 0
M  V30 60 H -13.495500 -35.025738 -21.554501 0
M  V30 61 H -12.740499 -41.521000 -21.708500 0
M  V30 62 H -14.838100 -37.155346 -22.344767 0
M  V30 END ATOM
M  V30 BEGIN BOND
M  V30 1 1 14 4
M  V30 2 1 4 3
M  V30 3 3 3 1
M  V30 4 1 7 8
M  V30 5 2 12 11
M  V30 6 1 10 5
M  V30 7 1 10 11
M  V30 8 2 5 9
M  V30 9 2 13 11
M  V30 10 1 11 2
M  V30 11 2 15 20
M  V30 12 1 15 16
M  V30 13 1 16 5
M  V30 14 2 16 17
M  V30 15 1 17 18
M  V30 16 1 17 6
M  V30 17 2 18 19
M  V30 18 1 19 20
M  V30 19 1 19 7
M  V30 20 1 20 24
M  V30 21 1 21 1
M  V30 22 2 21 22
M  V30 23 1 21 25
M  V30 24 1 22 23
M  V30 25 2 23 24
M  V30 26 1 24 25
M  V30 27 1 28 27
M  V30 28 2 27 26
M  V30 29 1 29 27
M  V30 30 1 30 29
M  V30 31 1 31 30
M  V30 32 2 31 32
M  V30 33 1 31 35
M  V30 34 1 32 33
M  V30 35 2 33 34
M  V30 36 1 34 35
M  V30 37 1 36 8
M  V30 38 1 36 26
M  V30 39 1 2 37
M  V30 40 1 2 38
M  V30 41 1 2 39
M  V30 42 1 4 40
M  V30 43 1 4 41
M  V30 44 1 6 42
M  V30 45 1 6 43
M  V30 46 1 6 44
M  V30 47 1 8 45
M  V30 48 1 8 46
M  V30 49 1 10 47
M  V30 50 1 14 48
M  V30 51 1 15 49
M  V30 52 1 18 50
M  V30 53 1 22 51
M  V30 54 1 23 52
M  V30 55 1 28 53
M  V30 56 1 28 54
M  V30 57 1 28 55
M  V30 58 1 29 56
M  V30 59 1 30 57
M  V30 60 1 30 58
M  V30 61 1 33 59
M  V30 62 1 34 60
M  V30 63 1 36 61
M  V30 64 1 35 62
M  V30 END BOND
M  V30 BEGIN COLLECTION
M  V30 MDLV30/STEABS ATOMS=(0)
M  V30 END COLLECTION
M  V30 END CTAB
M  END
>  <smiles>  (738) 
[H]OC([H])([H])C#Cc1sc(-c2c([H])c(C(=O)N([H])S(=O)(=O)C([H])([H])[H])c(C([H])([H])[H])c([H])c2OC([H])([H])N([H])/N=C(\N([H])C([H])([H])c2nc([H])c([H])[nH]2)C([H])([H])[H])c([H])c1[H]

>  <error>  (738) 


>  <∆∆G>  (738) 
nan

>  <∆G_bound>  (738) 
nan

>  <∆G_unbound>  (738) 
nan

>  <comRMSD>  (738) 
0.0

>  <N_constrained_atoms>  (738) 
35.0

>  <N_unconstrained_atoms>  (738) 
1.0

>  <runtime>  (738) 
2.061065

>  <regarded>  (738) 
['5hmz-a', 'z0103a']

>  <disregarded>  (738) 
[]

>  <LE>  (738) 
nan

>  <outcome>  (738) 
crashed

>  <percent_hybrid>  (738) 
29.0

$$$$

     RDKit          2D

  0  0  0  0  0  0  0  0  0  0999 V2000
M  END
>  <smiles>  (739) 
nan

>  <error>  (739) 
DistanceError 5.69 Å

>  <∆∆G>  (739) 
nan

>  <∆G_bound>  (739) 
nan

>  <∆G_unbound>  (739) 
nan

>  <comRMSD>  (739) 
nan

>  <N_constrained_atoms>  (739) 
nan

>  <N_unconstrained_atoms>  (739) 
nan

>  <runtime>  (739) 
nan

>  <regarded>  (739) 
[]

>  <disregarded>  (739) 
[]

>  <LE>  (739) 
nan

>  <outcome>  (739) 
too distant

>  <percent_hybrid>  (739) 
nan

$$$$

     RDKit          2D

  0  0  0  0  0  0  0  0  0  0999 V2000
M  END
>  <smiles>  (740) 
nan

>  <error>  (740) 
RecursionError maximum recursion depth exceeded while calling a Python object

>  <∆∆G>  (740) 
nan

>  <∆G_bound>  (740) 
nan

>  <∆G_unbound>  (740) 
nan

>  <comRMSD>  (740) 
nan

>  <N_constrained_atoms>  (740) 
nan

>  <N_unconstrained_atoms>  (740) 
nan

>  <runtime>  (740) 
nan

>  <regarded>  (740) 
[]

>  <disregarded>  (740) 
[]

>  <LE>  (740) 
nan

>  <outcome>  (740) 
crashed

>  <percent_hybrid>  (740) 
nan

$$$$
LIG
     RDKit          3D

 54 56  0  0  0  0  0  0  0  0999 V2000
  -19.5396  -46.3002  -24.6591 C   0  0  0  0  0  0  0  0  0  0  0  0
  -15.4501  -40.8754  -14.7868 C   0  0  0  0  0  0  0  0  0  0  0  0
  -20.1623  -46.4635  -25.6717 C   0  0  0  0  0  0  0  0  0  0  0  0
  -20.9061  -46.6709  -26.9045 C   0  0  0  0  0  0  0  0  0  0  0  0
  -15.7813  -43.6037  -17.2306 C   0  0  0  0  0  0  0  0  0  0  0  0
  -13.8981  -41.9324  -18.4971 C   0  0  0  0  0  0  0  0  0  0  0  0
  -15.5307  -43.9232  -22.7800 O   0  0  0  0  0  0  0  0  0  0  0  0
  -15.5688  -42.8062  -23.6675 C   0  0  0  0  0  0  0  0  0  0  0  0
  -15.0499  -44.4295  -16.8445 O   0  0  0  0  0  0  0  0  0  0  0  0
  -16.6081  -42.5450  -16.4485 N   0  0  0  0  0  0  0  0  0  0  0  0
  -16.6325  -42.1829  -14.8521 S   0  0  0  0  0  0  0  0  0  0  0  0
  -16.0528  -43.2551  -14.0825 O   0  0  0  0  0  0  0  0  0  0  0  0
  -17.9277  -41.6028  -14.5766 O   0  0  0  0  0  0  0  0  0  0  0  0
  -22.0130  -45.7830  -26.9690 O   0  0  0  0  0  0  0  0  0  0  0  0
  -16.8757  -44.1552  -19.3844 C   0  0  0  0  0  0  0  0  0  0  0  0
  -15.9407  -43.3907  -18.6827 C   0  0  0  0  0  0  0  0  0  0  0  0
  -14.9205  -42.6777  -19.3318 C   0  0  0  0  0  0  0  0  0  0  0  0
  -14.7568  -42.8909  -20.7282 C   0  0  0  0  0  0  0  0  0  0  0  0
  -15.7345  -43.5962  -21.4522 C   0  0  0  0  0  0  0  0  0  0  0  0
  -16.7945  -44.2320  -20.7790 C   0  0  0  0  0  0  0  0  0  0  0  0
  -18.8948  -46.0685  -23.4115 C   0  0  0  0  0  0  0  0  0  0  0  0
  -18.5847  -47.0259  -22.4699 C   0  0  0  0  0  0  0  0  0  0  0  0
  -17.8785  -46.4765  -21.3635 C   0  0  0  0  0  0  0  0  0  0  0  0
  -17.6768  -45.1216  -21.5225 C   0  0  0  0  0  0  0  0  0  0  0  0
  -18.5614  -44.5020  -22.8513 S   0  0  0  0  0  0  0  0  0  0  0  0
  -12.5526  -43.6821  -20.5364 N   0  0  0  0  0  0  0  0  0  0  0  0
  -13.3886  -42.8323  -21.3548 C   0  0  0  0  0  0  0  0  0  0  0  0
  -12.9132  -41.4097  -21.4141 C   0  0  0  0  0  0  0  0  0  0  0  0
  -13.5117  -40.3041  -21.9886 C   0  0  0  0  0  0  0  0  0  0  0  0
  -12.6426  -39.2687  -21.7905 N   0  0  0  0  0  0  0  0  0  0  0  0
  -11.5553  -39.7587  -21.1303 C   0  0  0  0  0  0  0  0  0  0  0  0
  -11.6700  -41.0470  -20.9130 N   0  0  0  0  0  0  0  0  0  0  0  0
  -15.4075  -40.5058  -13.7596 H   0  0  0  0  0  0  0  0  0  0  0  0
  -14.4707  -41.2595  -15.0785 H   0  0  0  0  0  0  0  0  0  0  0  0
  -15.7670  -40.0701  -15.4525 H   0  0  0  0  0  0  0  0  0  0  0  0
  -21.2572  -47.7006  -27.0126 H   0  0  0  0  0  0  0  0  0  0  0  0
  -20.2546  -46.4296  -27.7406 H   0  0  0  0  0  0  0  0  0  0  0  0
  -14.3570  -41.5179  -17.5944 H   0  0  0  0  0  0  0  0  0  0  0  0
  -13.0766  -42.5843  -18.1882 H   0  0  0  0  0  0  0  0  0  0  0  0
  -13.5126  -41.0527  -19.0106 H   0  0  0  0  0  0  0  0  0  0  0  0
  -14.5601  -42.5265  -23.9804 H   0  0  0  0  0  0  0  0  0  0  0  0
  -16.1110  -43.1136  -24.5674 H   0  0  0  0  0  0  0  0  0  0  0  0
  -16.0884  -41.9415  -23.2400 H   0  0  0  0  0  0  0  0  0  0  0  0
  -17.2050  -42.0352  -17.0941 H   0  0  0  0  0  0  0  0  0  0  0  0
  -22.7799  -46.2659  -26.5961 H   0  0  0  0  0  0  0  0  0  0  0  0
  -17.6159  -44.7416  -18.8462 H   0  0  0  0  0  0  0  0  0  0  0  0
  -18.8023  -48.0799  -22.5878 H   0  0  0  0  0  0  0  0  0  0  0  0
  -17.4518  -47.0682  -20.5625 H   0  0  0  0  0  0  0  0  0  0  0  0
  -14.4556  -40.1687  -22.4962 H   0  0  0  0  0  0  0  0  0  0  0  0
  -10.7160  -39.1379  -20.8440 H   0  0  0  0  0  0  0  0  0  0  0  0
  -12.0153  -44.2596  -21.2050 H   0  0  0  0  0  0  0  0  0  0  0  0
  -11.8330  -43.0600  -20.1525 H   0  0  0  0  0  0  0  0  0  0  0  0
  -13.3602  -43.2388  -22.3649 H   0  0  0  0  0  0  0  0  0  0  0  0
  -12.7804  -38.3060  -22.0646 H   0  0  0  0  0  0  0  0  0  0  0  0
 14  4  1  0
  4  3  1  0
  3  1  3  0
  7  8  1  0
 12 11  2  0
 10  5  1  0
 10 11  1  0
  5  9  2  0
 13 11  2  0
 11  2  1  0
 15 20  2  0
 15 16  1  0
 16  5  1  0
 16 17  2  0
 17 18  1  0
 17  6  1  0
 18 19  2  0
 19 20  1  0
 19  7  1  0
 20 24  1  0
 21  1  1  0
 21 22  2  0
 21 25  1  0
 22 23  1  0
 23 24  2  0
 24 25  1  0
 27 26  1  0
 28 27  1  0
 28 29  2  0
 28 32  1  0
 29 30  1  0
 30 31  1  0
 31 32  2  0
 18 27  1  0
  2 33  1  0
  2 34  1  0
  2 35  1  0
  4 36  1  0
  4 37  1  0
  6 38  1  0
  6 39  1  0
  6 40  1  0
  8 41  1  0
  8 42  1  0
  8 43  1  0
 10 44  1  0
 14 45  1  0
 15 46  1  0
 22 47  1  0
 23 48  1  0
 29 49  1  0
 31 50  1  0
 26 51  1  0
 26 52  1  0
 27 53  1  0
 30 54  1  0
M  END
>  <smiles>  (741) 
[H]OC([H])([H])C#Cc1sc(-c2c([H])c(C(=O)N([H])S(=O)(=O)C([H])([H])[H])c(C([H])([H])[H])c(C(N)c3nc([H])[nH]c3[H])c2OC([H])([H])[H])c([H])c1[H]

>  <error>  (741) 


>  <∆∆G>  (741) 
-102.595546

>  <∆G_bound>  (741) 
-44.944143

>  <∆G_unbound>  (741) 
57.651404

>  <comRMSD>  (741) 
0.7448

>  <N_constrained_atoms>  (741) 
32.0

>  <N_unconstrained_atoms>  (741) 
0.0

>  <runtime>  (741) 
4.673423

>  <regarded>  (741) 
['5hmz-a', 'z0875c']

>  <disregarded>  (741) 
[]

>  <LE>  (741) 
3.206111

>  <outcome>  (741) 
acceptable

>  <percent_hybrid>  (741) 
22.0

$$$$
LIG
     RDKit          3D

 56 58  0  0  0  0  0  0  0  0999 V2000
  -19.5004  -46.1729  -24.5510 C   0  0  0  0  0  0  0  0  0  0  0  0
  -20.1250  -46.3638  -25.5604 C   0  0  0  0  0  0  0  0  0  0  0  0
  -20.8526  -46.6392  -26.7976 C   0  0  0  0  0  0  0  0  0  0  0  0
  -14.9249  -43.7022  -17.4299 C   0  0  0  0  0  0  0  0  0  0  0  0
  -12.7753  -42.4927  -19.1182 C   0  0  0  0  0  0  0  0  0  0  0  0
  -15.3326  -43.9996  -23.0500 O   0  0  0  0  0  0  0  0  0  0  0  0
  -14.4535  -43.2839  -23.8974 C   0  0  0  0  0  0  0  0  0  0  0  0
  -14.0439  -44.2811  -16.9257 O   0  0  0  0  0  0  0  0  0  0  0  0
  -16.0315  -42.8059  -16.8028 N   0  0  0  0  0  0  0  0  0  0  0  0
  -16.3750  -42.4789  -15.2293 S   0  0  0  0  0  0  0  0  0  0  0  0
  -15.9249  -43.5877  -14.4281 O   0  0  0  0  0  0  0  0  0  0  0  0
  -17.6999  -41.9045  -15.1857 O   0  0  0  0  0  0  0  0  0  0  0  0
  -21.9752  -45.7766  -26.9141 O   0  0  0  0  0  0  0  0  0  0  0  0
  -13.9411  -38.0572  -16.2509 O   0  0  0  0  0  0  0  0  0  0  0  0
  -14.8270  -37.8426  -17.3427 C   0  0  0  0  0  0  0  0  0  0  0  0
  -12.9953  -41.0067  -18.9190 C   0  0  0  0  0  0  0  0  0  0  0  0
  -16.1506  -44.3122  -19.5050 C   0  0  0  0  0  0  0  0  0  0  0  0
  -15.0399  -43.6939  -18.9084 C   0  0  0  0  0  0  0  0  0  0  0  0
  -13.9995  -43.1665  -19.6919 C   0  0  0  0  0  0  0  0  0  0  0  0
  -14.1030  -43.2488  -21.0877 C   0  0  0  0  0  0  0  0  0  0  0  0
  -15.2037  -43.8506  -21.6954 C   0  0  0  0  0  0  0  0  0  0  0  0
  -16.2367  -44.3998  -20.9027 C   0  0  0  0  0  0  0  0  0  0  0  0
  -18.8061  -45.9734  -23.3165 C   0  0  0  0  0  0  0  0  0  0  0  0
  -18.5471  -46.9468  -22.3736 C   0  0  0  0  0  0  0  0  0  0  0  0
  -17.6977  -46.4724  -21.3293 C   0  0  0  0  0  0  0  0  0  0  0  0
  -17.3213  -45.1598  -21.5389 C   0  0  0  0  0  0  0  0  0  0  0  0
  -18.2617  -44.4494  -22.7933 S   0  0  0  0  0  0  0  0  0  0  0  0
  -13.3909  -39.2340  -14.3113 C   0  0  0  0  0  0  0  0  0  0  0  0
  -13.5288  -40.3014  -13.4240 C   0  0  0  0  0  0  0  0  0  0  0  0
  -14.4639  -41.2890  -13.6906 C   0  0  0  0  0  0  0  0  0  0  0  0
  -15.2561  -41.1835  -14.8381 C   0  0  0  0  0  0  0  0  0  0  0  0
  -15.1516  -40.1042  -15.7083 C   0  0  0  0  0  0  0  0  0  0  0  0
  -14.1972  -39.1325  -15.4516 C   0  0  0  0  0  0  0  0  0  0  0  0
  -21.1841  -47.6790  -26.8641 H   0  0  0  0  0  0  0  0  0  0  0  0
  -20.2010  -46.4359  -27.6447 H   0  0  0  0  0  0  0  0  0  0  0  0
  -11.9356  -42.6268  -19.8088 H   0  0  0  0  0  0  0  0  0  0  0  0
  -12.4552  -42.9606  -18.1834 H   0  0  0  0  0  0  0  0  0  0  0  0
  -14.3607  -42.2329  -23.6059 H   0  0  0  0  0  0  0  0  0  0  0  0
  -13.4857  -43.7888  -23.9351 H   0  0  0  0  0  0  0  0  0  0  0  0
  -14.8842  -43.3011  -24.9013 H   0  0  0  0  0  0  0  0  0  0  0  0
  -16.5910  -42.3900  -17.5415 H   0  0  0  0  0  0  0  0  0  0  0  0
  -22.7446  -46.2663  -26.5567 H   0  0  0  0  0  0  0  0  0  0  0  0
  -15.8595  -37.7179  -16.9991 H   0  0  0  0  0  0  0  0  0  0  0  0
  -14.5286  -36.9111  -17.8337 H   0  0  0  0  0  0  0  0  0  0  0  0
  -14.7499  -38.6433  -18.0836 H   0  0  0  0  0  0  0  0  0  0  0  0
  -12.0978  -40.5406  -18.5005 H   0  0  0  0  0  0  0  0  0  0  0  0
  -13.2277  -40.5056  -19.8648 H   0  0  0  0  0  0  0  0  0  0  0  0
  -13.8252  -40.8257  -18.2321 H   0  0  0  0  0  0  0  0  0  0  0  0
  -16.9254  -44.7590  -18.8863 H   0  0  0  0  0  0  0  0  0  0  0  0
  -13.2759  -42.8781  -21.6876 H   0  0  0  0  0  0  0  0  0  0  0  0
  -18.8774  -47.9750  -22.4644 H   0  0  0  0  0  0  0  0  0  0  0  0
  -17.2831  -47.1099  -20.5577 H   0  0  0  0  0  0  0  0  0  0  0  0
  -12.6448  -38.4671  -14.1138 H   0  0  0  0  0  0  0  0  0  0  0  0
  -12.8971  -40.3650  -12.5420 H   0  0  0  0  0  0  0  0  0  0  0  0
  -14.5599  -42.1362  -13.0150 H   0  0  0  0  0  0  0  0  0  0  0  0
  -15.8011  -40.0555  -16.5734 H   0  0  0  0  0  0  0  0  0  0  0  0
 13  3  1  0
  3  2  1  0
  2  1  3  0
  6  7  1  0
 11 10  2  0
  9  4  1  0
  9 10  1  0
  4  8  2  0
 12 10  2  0
 15 14  1  0
 16  5  1  0
 17 22  2  0
 17 18  1  0
 18  4  1  0
 18 19  2  0
 19 20  1  0
 19  5  1  0
 20 21  2  0
 21 22  1  0
 21  6  1  0
 22 26  1  0
 23  1  1  0
 23 24  2  0
 23 27  1  0
 24 25  1  0
 25 26  2  0
 26 27  1  0
 28 33  2  0
 28 29  1  0
 29 30  2  0
 30 31  1  0
 31 32  2  0
 32 33  1  0
 33 14  1  0
 31 10  1  0
  3 34  1  0
  3 35  1  0
  5 36  1  0
  5 37  1  0
  7 38  1  0
  7 39  1  0
  7 40  1  0
  9 41  1  0
 13 42  1  0
 15 43  1  0
 15 44  1  0
 15 45  1  0
 16 46  1  0
 16 47  1  0
 16 48  1  0
 17 49  1  0
 20 50  1  0
 24 51  1  0
 25 52  1  0
 28 53  1  0
 29 54  1  0
 30 55  1  0
 32 56  1  0
M  END
>  <smiles>  (742) 
[H]OC([H])([H])C#Cc1sc(-c2c([H])c(C(=O)N([H])S(=O)(=O)c3c([H])c([H])c([H])c(OC([H])([H])[H])c3[H])c(C([H])([H])C([H])([H])[H])c([H])c2OC([H])([H])[H])c([H])c1[H]

>  <error>  (742) 


>  <∆∆G>  (742) 
-49.512095

>  <∆G_bound>  (742) 
-33.931165

>  <∆G_unbound>  (742) 
15.580931

>  <comRMSD>  (742) 
0.688531

>  <N_constrained_atoms>  (742) 
33.0

>  <N_unconstrained_atoms>  (742) 
0.0

>  <runtime>  (742) 
3.152372

>  <regarded>  (742) 
['5hmz-a', '5i3p-a']

>  <disregarded>  (742) 
[]

>  <LE>  (742) 
1.500367

>  <outcome>  (742) 
equally sized

>  <percent_hybrid>  (742) 
28.0

$$$$
LIG
     RDKit          3D

 49 50  0  0  0  0  0  0  0  0999 V2000
  -19.4763  -46.1699  -24.5334 C   0  0  0  0  0  0  0  0  0  0  0  0
  -15.3243  -40.9740  -14.8291 C   0  0  0  0  0  0  0  0  0  0  0  0
  -20.1105  -46.3493  -25.5396 C   0  0  0  0  0  0  0  0  0  0  0  0
  -20.8474  -46.6241  -26.7730 C   0  0  0  0  0  0  0  0  0  0  0  0
  -15.3329  -43.8364  -17.0739 C   0  0  0  0  0  0  0  0  0  0  0  0
  -13.3040  -42.3349  -18.3587 C   0  0  0  0  0  0  0  0  0  0  0  0
  -15.0965  -43.9845  -22.6757 O   0  0  0  0  0  0  0  0  0  0  0  0
  -15.3038  -42.8194  -23.4736 C   0  0  0  0  0  0  0  0  0  0  0  0
  -14.5651  -44.5603  -16.5677 O   0  0  0  0  0  0  0  0  0  0  0  0
  -16.3041  -42.7931  -16.4433 N   0  0  0  0  0  0  0  0  0  0  0  0
  -16.4783  -42.3065  -14.8900 S   0  0  0  0  0  0  0  0  0  0  0  0
  -15.9581  -43.3052  -13.9902 O   0  0  0  0  0  0  0  0  0  0  0  0
  -17.7968  -41.7239  -14.7731 O   0  0  0  0  0  0  0  0  0  0  0  0
  -21.9721  -45.7632  -26.8794 O   0  0  0  0  0  0  0  0  0  0  0  0
  -12.1437  -40.3346  -21.8073 O   0  0  0  0  0  0  0  0  0  0  0  0
  -14.3318  -40.3198  -21.4060 O   0  0  0  0  0  0  0  0  0  0  0  0
  -13.2950  -40.9592  -21.4864 C   0  0  0  0  0  0  0  0  0  0  0  0
  -13.1040  -42.4393  -21.2560 C   0  0  0  0  0  0  0  0  0  0  0  0
  -17.3572  -45.1094  -18.5615 O   0  0  0  0  0  0  0  0  0  0  0  0
  -16.3800  -44.4491  -19.2697 C   0  0  0  0  0  0  0  0  0  0  0  0
  -15.4017  -43.7554  -18.5429 C   0  0  0  0  0  0  0  0  0  0  0  0
  -14.3673  -43.0410  -19.1737 C   0  0  0  0  0  0  0  0  0  0  0  0
  -14.2829  -43.0892  -20.5769 C   0  0  0  0  0  0  0  0  0  0  0  0
  -15.2654  -43.7854  -21.3202 C   0  0  0  0  0  0  0  0  0  0  0  0
  -16.3303  -44.4678  -20.6778 C   0  0  0  0  0  0  0  0  0  0  0  0
  -18.7639  -46.0096  -23.3023 C   0  0  0  0  0  0  0  0  0  0  0  0
  -18.4939  -47.0195  -22.4038 C   0  0  0  0  0  0  0  0  0  0  0  0
  -17.6228  -46.5926  -21.3592 C   0  0  0  0  0  0  0  0  0  0  0  0
  -17.2929  -45.2547  -21.4709 C   0  0  0  0  0  0  0  0  0  0  0  0
  -18.1980  -44.5113  -22.7310 S   0  0  0  0  0  0  0  0  0  0  0  0
  -15.3756  -40.5240  -13.8349 H   0  0  0  0  0  0  0  0  0  0  0  0
  -14.3182  -41.3594  -15.0048 H   0  0  0  0  0  0  0  0  0  0  0  0
  -15.5930  -40.2301  -15.5818 H   0  0  0  0  0  0  0  0  0  0  0  0
  -21.1776  -47.6645  -26.8382 H   0  0  0  0  0  0  0  0  0  0  0  0
  -20.2040  -46.4213  -27.6268 H   0  0  0  0  0  0  0  0  0  0  0  0
  -13.6789  -42.0033  -17.3866 H   0  0  0  0  0  0  0  0  0  0  0  0
  -12.4532  -43.0044  -18.1965 H   0  0  0  0  0  0  0  0  0  0  0  0
  -12.9554  -41.4200  -18.8450 H   0  0  0  0  0  0  0  0  0  0  0  0
  -15.8956  -42.0522  -22.9624 H   0  0  0  0  0  0  0  0  0  0  0  0
  -14.3477  -42.4057  -23.8001 H   0  0  0  0  0  0  0  0  0  0  0  0
  -15.8450  -43.1222  -24.3756 H   0  0  0  0  0  0  0  0  0  0  0  0
  -16.8917  -42.3928  -17.1699 H   0  0  0  0  0  0  0  0  0  0  0  0
  -22.7443  -46.2648  -26.5451 H   0  0  0  0  0  0  0  0  0  0  0  0
  -12.3830  -39.3862  -21.8698 H   0  0  0  0  0  0  0  0  0  0  0  0
  -12.9341  -42.9517  -22.1951 H   0  0  0  0  0  0  0  0  0  0  0  0
  -12.1959  -42.5914  -20.6633 H   0  0  0  0  0  0  0  0  0  0  0  0
  -18.0798  -45.3532  -19.1698 H   0  0  0  0  0  0  0  0  0  0  0  0
  -18.8286  -48.0422  -22.5317 H   0  0  0  0  0  0  0  0  0  0  0  0
  -17.2046  -47.2620  -20.6151 H   0  0  0  0  0  0  0  0  0  0  0  0
 14  4  1  0
  4  3  1  0
  3  1  3  0
  7  8  1  0
 12 11  2  0
 10  5  1  0
 10 11  1  0
  5  9  2  0
 13 11  2  0
 11  2  1  0
 18 17  1  0
 16 17  2  0
 17 15  1  0
 20 25  2  0
 20 21  1  0
 21  5  1  0
 21 22  2  0
 22 23  1  0
 22  6  1  0
 23 24  2  0
 24 25  1  0
 24  7  1  0
 25 29  1  0
 26  1  1  0
 26 27  2  0
 26 30  1  0
 27 28  1  0
 28 29  2  0
 29 30  1  0
 18 23  1  0
 19 20  1  0
  2 31  1  0
  2 32  1  0
  2 33  1  0
  4 34  1  0
  4 35  1  0
  6 36  1  0
  6 37  1  0
  6 38  1  0
  8 39  1  0
  8 40  1  0
  8 41  1  0
 10 42  1  0
 14 43  1  0
 15 44  1  0
 18 45  1  0
 18 46  1  0
 19 47  1  0
 27 48  1  0
 28 49  1  0
M  END
>  <smiles>  (743) 
[H]OC(=O)C([H])([H])c1c(OC([H])([H])[H])c(-c2sc(C#CC([H])([H])O[H])c([H])c2[H])c(O[H])c(C(=O)N([H])S(=O)(=O)C([H])([H])[H])c1C([H])([H])[H]

>  <error>  (743) 


>  <∆∆G>  (743) 
-85.791902

>  <∆G_bound>  (743) 
-45.25527

>  <∆G_unbound>  (743) 
40.536632

>  <comRMSD>  (743) 
0.664152

>  <N_constrained_atoms>  (743) 
30.0

>  <N_unconstrained_atoms>  (743) 
0.0

>  <runtime>  (743) 
4.227345

>  <regarded>  (743) 
['5hmz-a', '5hn0-a']

>  <disregarded>  (743) 
[]

>  <LE>  (743) 
2.85973

>  <outcome>  (743) 
acceptable

>  <percent_hybrid>  (743) 
17.0

$$$$
LIG
     RDKit          3D

 42 43  0  0  0  0  0  0  0  0999 V2000
  -19.4950  -46.1730  -24.5472 C   0  0  0  0  0  0  0  0  0  0  0  0
  -15.2215  -40.9965  -14.9199 C   0  0  0  0  0  0  0  0  0  0  0  0
  -20.1201  -46.3654  -25.5562 C   0  0  0  0  0  0  0  0  0  0  0  0
  -20.8479  -46.6418  -26.7932 C   0  0  0  0  0  0  0  0  0  0  0  0
  -14.9792  -43.6584  -17.4006 C   0  0  0  0  0  0  0  0  0  0  0  0
  -12.8845  -42.4114  -18.9963 C   0  0  0  0  0  0  0  0  0  0  0  0
  -15.3163  -43.9812  -23.0086 O   0  0  0  0  0  0  0  0  0  0  0  0
  -14.4119  -43.2961  -23.8522 C   0  0  0  0  0  0  0  0  0  0  0  0
  -14.1237  -44.2800  -16.9016 O   0  0  0  0  0  0  0  0  0  0  0  0
  -16.0283  -42.6972  -16.7681 N   0  0  0  0  0  0  0  0  0  0  0  0
  -16.3326  -42.3386  -15.1972 S   0  0  0  0  0  0  0  0  0  0  0  0
  -15.8670  -43.4172  -14.3617 O   0  0  0  0  0  0  0  0  0  0  0  0
  -17.6747  -41.8028  -15.1482 O   0  0  0  0  0  0  0  0  0  0  0  0
  -21.9702  -45.7789  -26.9109 O   0  0  0  0  0  0  0  0  0  0  0  0
  -16.1917  -44.2894  -19.4807 C   0  0  0  0  0  0  0  0  0  0  0  0
  -15.1053  -43.6442  -18.8743 C   0  0  0  0  0  0  0  0  0  0  0  0
  -14.0723  -43.0756  -19.6369 C   0  0  0  0  0  0  0  0  0  0  0  0
  -14.1340  -43.1785  -21.0308 C   0  0  0  0  0  0  0  0  0  0  0  0
  -15.2115  -43.8129  -21.6539 C   0  0  0  0  0  0  0  0  0  0  0  0
  -16.2528  -44.3770  -20.8785 C   0  0  0  0  0  0  0  0  0  0  0  0
  -18.7990  -45.9702  -23.3139 C   0  0  0  0  0  0  0  0  0  0  0  0
  -18.5398  -46.9408  -22.3682 C   0  0  0  0  0  0  0  0  0  0  0  0
  -17.6934  -46.4624  -21.3232 C   0  0  0  0  0  0  0  0  0  0  0  0
  -17.3204  -45.1485  -21.5314 C   0  0  0  0  0  0  0  0  0  0  0  0
  -18.2503  -44.4453  -22.7981 S   0  0  0  0  0  0  0  0  0  0  0  0
  -15.3501  -40.6542  -13.8906 H   0  0  0  0  0  0  0  0  0  0  0  0
  -14.1964  -41.3422  -15.0675 H   0  0  0  0  0  0  0  0  0  0  0  0
  -15.4606  -40.1846  -15.6097 H   0  0  0  0  0  0  0  0  0  0  0  0
  -21.1798  -47.6816  -26.8589 H   0  0  0  0  0  0  0  0  0  0  0  0
  -20.1963  -46.4399  -27.6407 H   0  0  0  0  0  0  0  0  0  0  0  0
  -13.2080  -41.6765  -18.2520 H   0  0  0  0  0  0  0  0  0  0  0  0
  -12.2450  -43.1591  -18.5178 H   0  0  0  0  0  0  0  0  0  0  0  0
  -12.2800  -41.8746  -19.7354 H   0  0  0  0  0  0  0  0  0  0  0  0
  -14.3213  -42.2377  -23.5886 H   0  0  0  0  0  0  0  0  0  0  0  0
  -13.4475  -43.8085  -23.8493 H   0  0  0  0  0  0  0  0  0  0  0  0
  -14.8157  -43.3401  -24.8663 H   0  0  0  0  0  0  0  0  0  0  0  0
  -16.5751  -42.2575  -17.5051 H   0  0  0  0  0  0  0  0  0  0  0  0
  -22.7397  -46.2673  -26.5518 H   0  0  0  0  0  0  0  0  0  0  0  0
  -16.9640  -44.7515  -18.8709 H   0  0  0  0  0  0  0  0  0  0  0  0
  -13.3010  -42.7987  -21.6160 H   0  0  0  0  0  0  0  0  0  0  0  0
  -18.8703  -47.9692  -22.4559 H   0  0  0  0  0  0  0  0  0  0  0  0
  -17.2834  -47.0962  -20.5460 H   0  0  0  0  0  0  0  0  0  0  0  0
 14  4  1  0
  4  3  1  0
  3  1  3  0
  7  8  1  0
 12 11  2  0
 10  5  1  0
 10 11  1  0
  5  9  2  0
 13 11  2  0
 11  2  1  0
 15 20  2  0
 15 16  1  0
 16  5  1  0
 16 17  2  0
 17 18  1  0
 17  6  1  0
 18 19  2  0
 19 20  1  0
 19  7  1  0
 20 24  1  0
 21  1  1  0
 21 22  2  0
 21 25  1  0
 22 23  1  0
 23 24  2  0
 24 25  1  0
  2 26  1  0
  2 27  1  0
  2 28  1  0
  4 29  1  0
  4 30  1  0
  6 31  1  0
  6 32  1  0
  6 33  1  0
  8 34  1  0
  8 35  1  0
  8 36  1  0
 10 37  1  0
 14 38  1  0
 15 39  1  0
 18 40  1  0
 22 41  1  0
 23 42  1  0
M  END
>  <smiles>  (744) 
[H]OC([H])([H])C#Cc1sc(-c2c([H])c(C(=O)N([H])S(=O)(=O)C([H])([H])[H])c(C([H])([H])[H])c([H])c2OC([H])([H])[H])c([H])c1[H]

>  <error>  (744) 


>  <∆∆G>  (744) 
-63.388461

>  <∆G_bound>  (744) 
-77.016186

>  <∆G_unbound>  (744) 
-13.627725

>  <comRMSD>  (744) 
0.632065

>  <N_constrained_atoms>  (744) 
25.0

>  <N_unconstrained_atoms>  (744) 
0.0

>  <runtime>  (744) 
2.469593

>  <regarded>  (744) 
['5hmz-a', '5f41-a']

>  <disregarded>  (744) 
[]

>  <LE>  (744) 
2.535538

>  <outcome>  (744) 
equally sized

>  <percent_hybrid>  (744) 
0.0

$$$$
LIG
     RDKit          3D

 43 44  0  0  0  0  0  0  0  0999 V2000
  -19.4465  -46.1446  -24.4655 C   0  0  0  0  0  0  0  0  0  0  0  0
  -15.2847  -40.9749  -14.7318 C   0  0  0  0  0  0  0  0  0  0  0  0
  -20.0614  -46.3541  -25.4791 C   0  0  0  0  0  0  0  0  0  0  0  0
  -20.7837  -46.6522  -26.7190 C   0  0  0  0  0  0  0  0  0  0  0  0
  -14.7718  -43.1211  -17.4808 C   0  0  0  0  0  0  0  0  0  0  0  0
  -12.7140  -42.1889  -19.3339 C   0  0  0  0  0  0  0  0  0  0  0  0
  -15.2444  -44.1651  -23.0399 O   0  0  0  0  0  0  0  0  0  0  0  0
  -14.5573  -43.3255  -23.9547 C   0  0  0  0  0  0  0  0  0  0  0  0
  -13.6927  -43.1865  -17.0124 O   0  0  0  0  0  0  0  0  0  0  0  0
  -16.0871  -42.6832  -16.8599 N   0  0  0  0  0  0  0  0  0  0  0  0
  -16.4887  -42.2264  -15.1652 S   0  0  0  0  0  0  0  0  0  0  0  0
  -16.1137  -43.3523  -14.3396 O   0  0  0  0  0  0  0  0  0  0  0  0
  -17.8194  -41.6447  -15.1536 O   0  0  0  0  0  0  0  0  0  0  0  0
  -21.9124  -45.7989  -26.8524 O   0  0  0  0  0  0  0  0  0  0  0  0
  -16.3120  -41.1935  -17.0380 O   0  0  0  0  0  0  0  0  0  0  0  0
  -16.0662  -44.0758  -19.4692 C   0  0  0  0  0  0  0  0  0  0  0  0
  -14.9394  -43.4068  -18.9440 C   0  0  0  0  0  0  0  0  0  0  0  0
  -13.9219  -42.9524  -19.8122 C   0  0  0  0  0  0  0  0  0  0  0  0
  -14.0179  -43.2199  -21.1800 C   0  0  0  0  0  0  0  0  0  0  0  0
  -15.1290  -43.8691  -21.7065 C   0  0  0  0  0  0  0  0  0  0  0  0
  -16.1675  -44.3116  -20.8560 C   0  0  0  0  0  0  0  0  0  0  0  0
  -18.7637  -45.9237  -23.2231 C   0  0  0  0  0  0  0  0  0  0  0  0
  -18.5056  -46.8801  -22.2611 C   0  0  0  0  0  0  0  0  0  0  0  0
  -17.6593  -46.3877  -21.2165 C   0  0  0  0  0  0  0  0  0  0  0  0
  -17.2788  -45.0795  -21.4449 C   0  0  0  0  0  0  0  0  0  0  0  0
  -18.2219  -44.3901  -22.7159 S   0  0  0  0  0  0  0  0  0  0  0  0
  -15.3334  -40.8432  -13.6472 H   0  0  0  0  0  0  0  0  0  0  0  0
  -14.2880  -41.3271  -15.0023 H   0  0  0  0  0  0  0  0  0  0  0  0
  -15.5149  -40.0198  -15.2054 H   0  0  0  0  0  0  0  0  0  0  0  0
  -21.1083  -47.6948  -26.7731 H   0  0  0  0  0  0  0  0  0  0  0  0
  -20.1347  -46.4628  -27.5717 H   0  0  0  0  0  0  0  0  0  0  0  0
  -13.0111  -41.3423  -18.7065 H   0  0  0  0  0  0  0  0  0  0  0  0
  -12.0386  -42.8489  -18.7840 H   0  0  0  0  0  0  0  0  0  0  0  0
  -12.1477  -41.7686  -20.1730 H   0  0  0  0  0  0  0  0  0  0  0  0
  -14.5535  -42.2740  -23.6485 H   0  0  0  0  0  0  0  0  0  0  0  0
  -13.5455  -43.7061  -24.1077 H   0  0  0  0  0  0  0  0  0  0  0  0
  -15.0868  -43.3815  -24.9098 H   0  0  0  0  0  0  0  0  0  0  0  0
  -22.6823  -46.2904  -26.5000 H   0  0  0  0  0  0  0  0  0  0  0  0
  -17.2938  -41.1023  -17.0985 H   0  0  0  0  0  0  0  0  0  0  0  0
  -16.8543  -44.4217  -18.8057 H   0  0  0  0  0  0  0  0  0  0  0  0
  -13.1902  -42.9424  -21.8255 H   0  0  0  0  0  0  0  0  0  0  0  0
  -18.8296  -47.9117  -22.3389 H   0  0  0  0  0  0  0  0  0  0  0  0
  -17.2423  -47.0145  -20.4379 H   0  0  0  0  0  0  0  0  0  0  0  0
 14  4  1  0
  4  3  1  0
  3  1  3  0
  7  8  1  0
 12 11  2  0
 10  5  1  0
 10 11  1  0
  5  9  2  0
 13 11  2  0
 11  2  1  0
 15 10  1  0
 16 21  2  0
 16 17  1  0
 17  5  1  0
 17 18  2  0
 18 19  1  0
 18  6  1  0
 19 20  2  0
 20 21  1  0
 20  7  1  0
 21 25  1  0
 22  1  1  0
 22 23  2  0
 22 26  1  0
 23 24  1  0
 24 25  2  0
 25 26  1  0
  2 27  1  0
  2 28  1  0
  2 29  1  0
  4 30  1  0
  4 31  1  0
  6 32  1  0
  6 33  1  0
  6 34  1  0
  8 35  1  0
  8 36  1  0
  8 37  1  0
 14 38  1  0
 15 39  1  0
 16 40  1  0
 19 41  1  0
 23 42  1  0
 24 43  1  0
M  END
>  <smiles>  (745) 
[H]ON(C(=O)c1c([H])c(-c2sc(C#CC([H])([H])O[H])c([H])c2[H])c(OC([H])([H])[H])c([H])c1C([H])([H])[H])S(=O)(=O)C([H])([H])[H]

>  <error>  (745) 


>  <∆∆G>  (745) 
-341.896532

>  <∆G_bound>  (745) 
72.230515

>  <∆G_unbound>  (745) 
414.127047

>  <comRMSD>  (745) 
0.773348

>  <N_constrained_atoms>  (745) 
26.0

>  <N_unconstrained_atoms>  (745) 
0.0

>  <runtime>  (745) 
2.252267

>  <regarded>  (745) 
['5hmz-a', '6h80-a']

>  <disregarded>  (745) 
[]

>  <LE>  (745) 
13.149867

>  <outcome>  (745) 
acceptable

>  <percent_hybrid>  (745) 
4.0

$$$$
LIG
     RDKit          3D

 48 49  0  0  0  0  0  0  0  0999 V2000
  -19.4987  -46.0939  -24.5566 C   0  0  0  0  0  0  0  0  0  0  0  0
  -15.1008  -41.0673  -14.7523 C   0  0  0  0  0  0  0  0  0  0  0  0
  -20.1383  -46.3182  -25.5499 C   0  0  0  0  0  0  0  0  0  0  0  0
  -20.8656  -46.6238  -26.7810 C   0  0  0  0  0  0  0  0  0  0  0  0
  -15.0340  -43.7202  -17.3806 C   0  0  0  0  0  0  0  0  0  0  0  0
  -13.2069  -41.8687  -18.6931 C   0  0  0  0  0  0  0  0  0  0  0  0
  -15.5149  -42.8924  -22.9003 O   0  0  0  0  0  0  0  0  0  0  0  0
  -14.6268  -43.7289  -23.6391 C   0  0  0  0  0  0  0  0  0  0  0  0
  -14.3177  -44.5215  -16.9207 O   0  0  0  0  0  0  0  0  0  0  0  0
  -15.9284  -42.6482  -16.6866 N   0  0  0  0  0  0  0  0  0  0  0  0
  -16.2280  -42.3793  -15.0977 S   0  0  0  0  0  0  0  0  0  0  0  0
  -15.7689  -43.5045  -14.3232 O   0  0  0  0  0  0  0  0  0  0  0  0
  -17.5626  -41.8295  -15.0124 O   0  0  0  0  0  0  0  0  0  0  0  0
  -21.9898  -45.7668  -26.9168 O   0  0  0  0  0  0  0  0  0  0  0  0
  -13.7204  -41.2314  -21.5443 C   0  0  0  0  0  0  0  0  0  0  0  0
  -13.8474  -38.8298  -21.8520 O   0  0  0  0  0  0  0  0  0  0  0  0
  -15.3510  -39.7668  -20.5127 O   0  0  0  0  0  0  0  0  0  0  0  0
  -14.2915  -39.8491  -21.3396 C   0  0  0  0  0  0  0  0  0  0  0  0
  -16.0747  -44.2790  -19.5451 C   0  0  0  0  0  0  0  0  0  0  0  0
  -15.1197  -43.5344  -18.8399 C   0  0  0  0  0  0  0  0  0  0  0  0
  -14.2697  -42.6075  -19.4670 C   0  0  0  0  0  0  0  0  0  0  0  0
  -14.4600  -42.3621  -20.8403 C   0  0  0  0  0  0  0  0  0  0  0  0
  -15.4023  -43.1441  -21.5542 C   0  0  0  0  0  0  0  0  0  0  0  0
  -16.2297  -44.1050  -20.9260 C   0  0  0  0  0  0  0  0  0  0  0  0
  -18.7533  -45.8482  -23.3608 C   0  0  0  0  0  0  0  0  0  0  0  0
  -18.4468  -46.7870  -22.4009 C   0  0  0  0  0  0  0  0  0  0  0  0
  -17.5564  -46.2685  -21.4127 C   0  0  0  0  0  0  0  0  0  0  0  0
  -17.2139  -44.9448  -21.6442 C   0  0  0  0  0  0  0  0  0  0  0  0
  -18.1587  -44.3132  -22.9376 S   0  0  0  0  0  0  0  0  0  0  0  0
  -15.2204  -40.7813  -13.7048 H   0  0  0  0  0  0  0  0  0  0  0  0
  -14.0804  -41.4155  -14.9246 H   0  0  0  0  0  0  0  0  0  0  0  0
  -15.3337  -40.2156  -15.3945 H   0  0  0  0  0  0  0  0  0  0  0  0
  -21.1929  -47.6660  -26.8272 H   0  0  0  0  0  0  0  0  0  0  0  0
  -20.2138  -46.4375  -27.6322 H   0  0  0  0  0  0  0  0  0  0  0  0
  -13.0438  -42.2719  -17.6902 H   0  0  0  0  0  0  0  0  0  0  0  0
  -12.2408  -41.9455  -19.2021 H   0  0  0  0  0  0  0  0  0  0  0  0
  -13.4808  -40.8150  -18.5843 H   0  0  0  0  0  0  0  0  0  0  0  0
  -13.6675  -43.8945  -23.1366 H   0  0  0  0  0  0  0  0  0  0  0  0
  -15.1198  -44.6840  -23.8197 H   0  0  0  0  0  0  0  0  0  0  0  0
  -14.4353  -43.2485  -24.6015 H   0  0  0  0  0  0  0  0  0  0  0  0
  -16.3632  -42.0577  -17.3936 H   0  0  0  0  0  0  0  0  0  0  0  0
  -22.7616  -46.2563  -26.5638 H   0  0  0  0  0  0  0  0  0  0  0  0
  -13.7081  -41.3909  -22.6250 H   0  0  0  0  0  0  0  0  0  0  0  0
  -12.6719  -41.2198  -21.2302 H   0  0  0  0  0  0  0  0  0  0  0  0
  -15.6055  -38.8208  -20.5483 H   0  0  0  0  0  0  0  0  0  0  0  0
  -16.7013  -44.9856  -19.0055 H   0  0  0  0  0  0  0  0  0  0  0  0
  -18.7802  -47.8182  -22.4368 H   0  0  0  0  0  0  0  0  0  0  0  0
  -17.1347  -46.8747  -20.6197 H   0  0  0  0  0  0  0  0  0  0  0  0
 14  4  1  0
  4  3  1  0
  3  1  3  0
  7  8  1  0
 12 11  2  0
 10  5  1  0
 10 11  1  0
  5  9  2  0
 13 11  2  0
 11  2  1  0
 15 18  1  0
 16 18  2  0
 18 17  1  0
 19 24  2  0
 19 20  1  0
 20  5  1  0
 20 21  2  0
 21 22  1  0
 21  6  1  0
 22 23  2  0
 23 24  1  0
 23  7  1  0
 24 28  1  0
 25  1  1  0
 25 26  2  0
 25 29  1  0
 26 27  1  0
 27 28  2  0
 28 29  1  0
 15 22  1  0
  2 30  1  0
  2 31  1  0
  2 32  1  0
  4 33  1  0
  4 34  1  0
  6 35  1  0
  6 36  1  0
  6 37  1  0
  8 38  1  0
  8 39  1  0
  8 40  1  0
 10 41  1  0
 14 42  1  0
 15 43  1  0
 15 44  1  0
 17 45  1  0
 19 46  1  0
 26 47  1  0
 27 48  1  0
M  END
>  <smiles>  (746) 
[H]OC(=O)C([H])([H])c1c(OC([H])([H])[H])c(-c2sc(C#CC([H])([H])O[H])c([H])c2[H])c([H])c(C(=O)N([H])S(=O)(=O)C([H])([H])[H])c1C([H])([H])[H]

>  <error>  (746) 


>  <∆∆G>  (746) 
-48.394094

>  <∆G_bound>  (746) 
-77.200968

>  <∆G_unbound>  (746) 
-28.806873

>  <comRMSD>  (746) 
0.897279

>  <N_constrained_atoms>  (746) 
29.0

>  <N_unconstrained_atoms>  (746) 
0.0

>  <runtime>  (746) 
3.94377

>  <regarded>  (746) 
['5hmz-a', '5hmy-a']

>  <disregarded>  (746) 
[]

>  <LE>  (746) 
1.668762

>  <outcome>  (746) 
acceptable

>  <percent_hybrid>  (746) 
14.0

$$$$

     RDKit          2D

  0  0  0  0  0  0  0  0  0  0999 V2000
M  END
>  <smiles>  (747) 
nan

>  <error>  (747) 
TimeoutError

>  <∆∆G>  (747) 
nan

>  <∆G_bound>  (747) 
nan

>  <∆G_unbound>  (747) 
nan

>  <comRMSD>  (747) 
nan

>  <N_constrained_atoms>  (747) 
nan

>  <N_unconstrained_atoms>  (747) 
nan

>  <runtime>  (747) 
nan

>  <regarded>  (747) 
[]

>  <disregarded>  (747) 
[]

>  <LE>  (747) 
nan

>  <outcome>  (747) 
timeout

>  <percent_hybrid>  (747) 
nan

$$$$

     RDKit          2D

  0  0  0  0  0  0  0  0  0  0999 V2000
M  END
>  <smiles>  (748) 
nan

>  <error>  (748) 
FragmensteinError Ideal compound failed. Something is wrong with the SMILES

>  <∆∆G>  (748) 
nan

>  <∆G_bound>  (748) 
nan

>  <∆G_unbound>  (748) 
nan

>  <comRMSD>  (748) 
nan

>  <N_constrained_atoms>  (748) 
nan

>  <N_unconstrained_atoms>  (748) 
nan

>  <runtime>  (748) 
nan

>  <regarded>  (748) 
[]

>  <disregarded>  (748) 
[]

>  <LE>  (748) 
nan

>  <outcome>  (748) 
crashed

>  <percent_hybrid>  (748) 
nan

$$$$
LIG
     RDKit          3D

 49 50  0  0  0  0  0  0  0  0999 V2000
  -19.4068  -46.1955  -24.4315 C   0  0  0  0  0  0  0  0  0  0  0  0
  -15.3227  -40.9465  -14.3520 C   0  0  0  0  0  0  0  0  0  0  0  0
  -20.0200  -46.3884  -25.4501 C   0  0  0  0  0  0  0  0  0  0  0  0
  -20.7498  -46.6698  -26.6912 C   0  0  0  0  0  0  0  0  0  0  0  0
  -15.2060  -43.3242  -17.0827 C   0  0  0  0  0  0  0  0  0  0  0  0
  -13.2098  -42.0762  -18.5649 C   0  0  0  0  0  0  0  0  0  0  0  0
  -15.1277  -44.0681  -22.6645 O   0  0  0  0  0  0  0  0  0  0  0  0
  -15.3482  -42.9753  -23.5570 C   0  0  0  0  0  0  0  0  0  0  0  0
  -14.2611  -43.7620  -16.5287 O   0  0  0  0  0  0  0  0  0  0  0  0
  -16.3473  -42.4725  -16.5551 N   0  0  0  0  0  0  0  0  0  0  0  0
  -16.7276  -41.9322  -14.8861 S   0  0  0  0  0  0  0  0  0  0  0  0
  -16.6335  -43.0789  -14.0187 O   0  0  0  0  0  0  0  0  0  0  0  0
  -17.9157  -41.1025  -14.9527 O   0  0  0  0  0  0  0  0  0  0  0  0
  -21.8762  -45.8107  -26.8102 O   0  0  0  0  0  0  0  0  0  0  0  0
  -13.1196  -42.4102  -21.4276 C   0  0  0  0  0  0  0  0  0  0  0  0
  -12.2118  -40.2679  -21.9611 O   0  0  0  0  0  0  0  0  0  0  0  0
  -13.3561  -40.9519  -21.7505 C   0  0  0  0  0  0  0  0  0  0  0  0
  -14.4231  -40.3643  -21.8310 O   0  0  0  0  0  0  0  0  0  0  0  0
  -16.0384  -41.0033  -16.6818 O   0  0  0  0  0  0  0  0  0  0  0  0
  -16.3496  -44.2183  -19.1982 C   0  0  0  0  0  0  0  0  0  0  0  0
  -15.3279  -43.5060  -18.5470 C   0  0  0  0  0  0  0  0  0  0  0  0
  -14.3013  -42.8629  -19.2732 C   0  0  0  0  0  0  0  0  0  0  0  0
  -14.2598  -43.0207  -20.6666 C   0  0  0  0  0  0  0  0  0  0  0  0
  -15.2650  -43.7549  -21.3272 C   0  0  0  0  0  0  0  0  0  0  0  0
  -16.3259  -44.3509  -20.6042 C   0  0  0  0  0  0  0  0  0  0  0  0
  -18.7384  -45.9968  -23.1760 C   0  0  0  0  0  0  0  0  0  0  0  0
  -18.4727  -46.9745  -22.2388 C   0  0  0  0  0  0  0  0  0  0  0  0
  -17.6609  -46.4931  -21.1621 C   0  0  0  0  0  0  0  0  0  0  0  0
  -17.3291  -45.1615  -21.3204 C   0  0  0  0  0  0  0  0  0  0  0  0
  -18.2408  -44.4695  -22.6109 S   0  0  0  0  0  0  0  0  0  0  0  0
  -15.3897  -40.8561  -13.2639 H   0  0  0  0  0  0  0  0  0  0  0  0
  -14.3998  -41.4710  -14.6076 H   0  0  0  0  0  0  0  0  0  0  0  0
  -15.3534  -39.9424  -14.7783 H   0  0  0  0  0  0  0  0  0  0  0  0
  -21.0791  -47.7105  -26.7545 H   0  0  0  0  0  0  0  0  0  0  0  0
  -20.1060  -46.4756  -27.5468 H   0  0  0  0  0  0  0  0  0  0  0  0
  -13.5638  -41.5920  -17.6506 H   0  0  0  0  0  0  0  0  0  0  0  0
  -12.3742  -42.7393  -18.3196 H   0  0  0  0  0  0  0  0  0  0  0  0
  -12.8369  -41.2442  -19.1669 H   0  0  0  0  0  0  0  0  0  0  0  0
  -15.9449  -42.1733  -23.1094 H   0  0  0  0  0  0  0  0  0  0  0  0
  -14.3981  -42.5842  -23.9273 H   0  0  0  0  0  0  0  0  0  0  0  0
  -15.8922  -43.3587  -24.4262 H   0  0  0  0  0  0  0  0  0  0  0  0
  -22.6473  -46.3040  -26.4639 H   0  0  0  0  0  0  0  0  0  0  0  0
  -12.9784  -42.9963  -22.3271 H   0  0  0  0  0  0  0  0  0  0  0  0
  -12.1871  -42.5077  -20.8622 H   0  0  0  0  0  0  0  0  0  0  0  0
  -12.5291  -39.3592  -22.1437 H   0  0  0  0  0  0  0  0  0  0  0  0
  -16.9010  -40.6077  -16.9486 H   0  0  0  0  0  0  0  0  0  0  0  0
  -17.1446  -44.6790  -18.6195 H   0  0  0  0  0  0  0  0  0  0  0  0
  -18.7731  -48.0097  -22.3513 H   0  0  0  0  0  0  0  0  0  0  0  0
  -17.2549  -47.1307  -20.3863 H   0  0  0  0  0  0  0  0  0  0  0  0
 14  4  1  0
  4  3  1  0
  3  1  3  0
  7  8  1  0
 12 11  2  0
 10  5  1  0
 10 11  1  0
  5  9  2  0
 13 11  2  0
 11  2  1  0
 15 17  1  0
 18 17  2  0
 17 16  1  0
 19 10  1  0
 20 25  2  0
 20 21  1  0
 21  5  1  0
 21 22  2  0
 22 23  1  0
 22  6  1  0
 23 24  2  0
 24 25  1  0
 24  7  1  0
 25 29  1  0
 26  1  1  0
 26 27  2  0
 26 30  1  0
 27 28  1  0
 28 29  2  0
 29 30  1  0
 15 23  1  0
  2 31  1  0
  2 32  1  0
  2 33  1  0
  4 34  1  0
  4 35  1  0
  6 36  1  0
  6 37  1  0
  6 38  1  0
  8 39  1  0
  8 40  1  0
  8 41  1  0
 14 42  1  0
 15 43  1  0
 15 44  1  0
 16 45  1  0
 19 46  1  0
 20 47  1  0
 27 48  1  0
 28 49  1  0
M  END
>  <smiles>  (749) 
[H]OC(=O)C([H])([H])c1c(OC([H])([H])[H])c(-c2sc(C#CC([H])([H])O[H])c([H])c2[H])c([H])c(C(=O)N(O[H])S(=O)(=O)C([H])([H])[H])c1C([H])([H])[H]

>  <error>  (749) 


>  <∆∆G>  (749) 
-168.943094

>  <∆G_bound>  (749) 
78.814387

>  <∆G_unbound>  (749) 
247.757482

>  <comRMSD>  (749) 
0.844493

>  <N_constrained_atoms>  (749) 
30.0

>  <N_unconstrained_atoms>  (749) 
0.0

>  <runtime>  (749) 
2.820348

>  <regarded>  (749) 
['5hmz-a', '5hmx-b']

>  <disregarded>  (749) 
[]

>  <LE>  (749) 
5.631436

>  <outcome>  (749) 
acceptable

>  <percent_hybrid>  (749) 
17.0

$$$$
LIG
     RDKit          3D

 56 58  0  0  0  0  0  0  0  0999 V2000
  -19.4861  -46.1622  -24.5342 C   0  0  0  0  0  0  0  0  0  0  0  0
  -20.1099  -46.3600  -25.5433 C   0  0  0  0  0  0  0  0  0  0  0  0
  -20.8366  -46.6428  -26.7803 C   0  0  0  0  0  0  0  0  0  0  0  0
  -15.0017  -43.7469  -17.3454 C   0  0  0  0  0  0  0  0  0  0  0  0
  -12.9125  -42.4210  -18.8396 C   0  0  0  0  0  0  0  0  0  0  0  0
  -15.3359  -43.9033  -22.9482 O   0  0  0  0  0  0  0  0  0  0  0  0
  -14.3574  -43.3105  -23.7770 C   0  0  0  0  0  0  0  0  0  0  0  0
  -14.2450  -44.5221  -16.9079 O   0  0  0  0  0  0  0  0  0  0  0  0
  -15.9061  -42.7067  -16.6269 N   0  0  0  0  0  0  0  0  0  0  0  0
  -16.1639  -42.4435  -15.0278 S   0  0  0  0  0  0  0  0  0  0  0  0
  -15.8894  -43.6750  -14.3379 O   0  0  0  0  0  0  0  0  0  0  0  0
  -17.3937  -41.6945  -14.9104 O   0  0  0  0  0  0  0  0  0  0  0  0
  -21.9610  -45.7829  -26.9019 O   0  0  0  0  0  0  0  0  0  0  0  0
  -12.5039  -38.8391  -15.7143 O   0  0  0  0  0  0  0  0  0  0  0  0
  -13.0945  -38.4772  -16.9544 C   0  0  0  0  0  0  0  0  0  0  0  0
  -12.1202  -41.3759  -19.6108 C   0  0  0  0  0  0  0  0  0  0  0  0
  -16.2203  -44.2759  -19.4359 C   0  0  0  0  0  0  0  0  0  0  0  0
  -15.1424  -43.6290  -18.8122 C   0  0  0  0  0  0  0  0  0  0  0  0
  -14.1039  -43.0321  -19.5511 C   0  0  0  0  0  0  0  0  0  0  0  0
  -14.1670  -43.1168  -20.9490 C   0  0  0  0  0  0  0  0  0  0  0  0
  -15.2376  -43.7525  -21.5905 C   0  0  0  0  0  0  0  0  0  0  0  0
  -16.2790  -44.3381  -20.8340 C   0  0  0  0  0  0  0  0  0  0  0  0
  -18.7930  -45.9547  -23.2992 C   0  0  0  0  0  0  0  0  0  0  0  0
  -18.5277  -46.9244  -22.3545 C   0  0  0  0  0  0  0  0  0  0  0  0
  -17.6901  -46.4400  -21.3046 C   0  0  0  0  0  0  0  0  0  0  0  0
  -17.3307  -45.1205  -21.5041 C   0  0  0  0  0  0  0  0  0  0  0  0
  -18.2562  -44.4262  -22.7798 S   0  0  0  0  0  0  0  0  0  0  0  0
  -12.6143  -39.9962  -13.6980 C   0  0  0  0  0  0  0  0  0  0  0  0
  -13.1780  -40.9244  -12.8266 C   0  0  0  0  0  0  0  0  0  0  0  0
  -14.2978  -41.6347  -13.2311 C   0  0  0  0  0  0  0  0  0  0  0  0
  -14.8457  -41.4030  -14.5024 C   0  0  0  0  0  0  0  0  0  0  0  0
  -14.2987  -40.4662  -15.3697 C   0  0  0  0  0  0  0  0  0  0  0  0
  -13.1702  -39.7635  -14.9628 C   0  0  0  0  0  0  0  0  0  0  0  0
  -21.1661  -47.6835  -26.8424 H   0  0  0  0  0  0  0  0  0  0  0  0
  -20.1858  -46.4437  -27.6292 H   0  0  0  0  0  0  0  0  0  0  0  0
  -12.2383  -43.2321  -18.5407 H   0  0  0  0  0  0  0  0  0  0  0  0
  -13.2578  -41.9299  -17.9232 H   0  0  0  0  0  0  0  0  0  0  0  0
  -14.2436  -42.2424  -23.5683 H   0  0  0  0  0  0  0  0  0  0  0  0
  -13.4152  -43.8565  -23.6885 H   0  0  0  0  0  0  0  0  0  0  0  0
  -14.7048  -43.4010  -24.8083 H   0  0  0  0  0  0  0  0  0  0  0  0
  -16.5044  -42.2480  -17.3087 H   0  0  0  0  0  0  0  0  0  0  0  0
  -22.7303  -46.2728  -26.5449 H   0  0  0  0  0  0  0  0  0  0  0  0
  -14.0956  -38.0569  -16.8105 H   0  0  0  0  0  0  0  0  0  0  0  0
  -12.4711  -37.6999  -17.4067 H   0  0  0  0  0  0  0  0  0  0  0  0
  -13.1173  -39.3250  -17.6449 H   0  0  0  0  0  0  0  0  0  0  0  0
  -11.3597  -40.9275  -18.9630 H   0  0  0  0  0  0  0  0  0  0  0  0
  -11.6008  -41.8126  -20.4688 H   0  0  0  0  0  0  0  0  0  0  0  0
  -12.7700  -40.5735  -19.9756 H   0  0  0  0  0  0  0  0  0  0  0  0
  -16.9818  -44.7692  -18.8369 H   0  0  0  0  0  0  0  0  0  0  0  0
  -13.3388  -42.7351  -21.5374 H   0  0  0  0  0  0  0  0  0  0  0  0
  -18.8487  -47.9557  -22.4450 H   0  0  0  0  0  0  0  0  0  0  0  0
  -17.2787  -47.0717  -20.5265 H   0  0  0  0  0  0  0  0  0  0  0  0
  -11.7285  -39.4433  -13.3920 H   0  0  0  0  0  0  0  0  0  0  0  0
  -12.7369  -41.0987  -11.8491 H   0  0  0  0  0  0  0  0  0  0  0  0
  -14.7285  -42.3806  -12.5655 H   0  0  0  0  0  0  0  0  0  0  0  0
  -14.7473  -40.3142  -16.3427 H   0  0  0  0  0  0  0  0  0  0  0  0
 13  3  1  0
  3  2  1  0
  2  1  3  0
  6  7  1  0
 11 10  2  0
  9  4  1  0
  9 10  1  0
  4  8  2  0
 12 10  2  0
 15 14  1  0
 16  5  1  0
 17 22  2  0
 17 18  1  0
 18  4  1  0
 18 19  2  0
 19 20  1  0
 19  5  1  0
 20 21  2  0
 21 22  1  0
 21  6  1  0
 22 26  1  0
 23  1  1  0
 23 24  2  0
 23 27  1  0
 24 25  1  0
 25 26  2  0
 26 27  1  0
 28 33  2  0
 28 29  1  0
 29 30  2  0
 30 31  1  0
 31 32  2  0
 32 33  1  0
 33 14  1  0
 31 10  1  0
  3 34  1  0
  3 35  1  0
  5 36  1  0
  5 37  1  0
  7 38  1  0
  7 39  1  0
  7 40  1  0
  9 41  1  0
 13 42  1  0
 15 43  1  0
 15 44  1  0
 15 45  1  0
 16 46  1  0
 16 47  1  0
 16 48  1  0
 17 49  1  0
 20 50  1  0
 24 51  1  0
 25 52  1  0
 28 53  1  0
 29 54  1  0
 30 55  1  0
 32 56  1  0
M  END
>  <smiles>  (750) 
[H]OC([H])([H])C#Cc1sc(-c2c([H])c(C(=O)N([H])S(=O)(=O)c3c([H])c([H])c([H])c(OC([H])([H])[H])c3[H])c(C([H])([H])C([H])([H])[H])c([H])c2OC([H])([H])[H])c([H])c1[H]

>  <error>  (750) 


>  <∆∆G>  (750) 
-47.123474

>  <∆G_bound>  (750) 
-55.943861

>  <∆G_unbound>  (750) 
-8.820387

>  <comRMSD>  (750) 
0.651167

>  <N_constrained_atoms>  (750) 
33.0

>  <N_unconstrained_atoms>  (750) 
0.0

>  <runtime>  (750) 
2.31858

>  <regarded>  (750) 
['5hmz-a', '5k5m-a']

>  <disregarded>  (750) 
[]

>  <LE>  (750) 
1.427984

>  <outcome>  (750) 
equally sized

>  <percent_hybrid>  (750) 
28.0

$$$$
LIG
     RDKit          3D

 48 49  0  0  0  0  0  0  0  0999 V2000
  -19.5057  -46.0821  -24.5656 C   0  0  0  0  0  0  0  0  0  0  0  0
  -15.1124  -41.0625  -14.8694 C   0  0  0  0  0  0  0  0  0  0  0  0
  -20.1478  -46.3071  -25.5570 C   0  0  0  0  0  0  0  0  0  0  0  0
  -20.8750  -46.6164  -26.7868 C   0  0  0  0  0  0  0  0  0  0  0  0
  -15.0883  -43.7844  -17.3513 C   0  0  0  0  0  0  0  0  0  0  0  0
  -13.2017  -42.0009  -18.5932 C   0  0  0  0  0  0  0  0  0  0  0  0
  -15.4846  -42.9080  -22.8681 O   0  0  0  0  0  0  0  0  0  0  0  0
  -14.5898  -43.7316  -23.6120 C   0  0  0  0  0  0  0  0  0  0  0  0
  -14.3857  -44.5912  -16.8805 O   0  0  0  0  0  0  0  0  0  0  0  0
  -16.0321  -42.7468  -16.6715 N   0  0  0  0  0  0  0  0  0  0  0  0
  -16.2546  -42.3888  -15.0876 S   0  0  0  0  0  0  0  0  0  0  0  0
  -15.7644  -43.4719  -14.2721 O   0  0  0  0  0  0  0  0  0  0  0  0
  -17.5829  -41.8300  -14.9679 O   0  0  0  0  0  0  0  0  0  0  0  0
  -21.9990  -45.7599  -26.9255 O   0  0  0  0  0  0  0  0  0  0  0  0
  -14.8571  -39.6291  -20.1252 O   0  0  0  0  0  0  0  0  0  0  0  0
  -13.3154  -38.9488  -21.5765 O   0  0  0  0  0  0  0  0  0  0  0  0
  -14.0337  -39.9238  -20.9766 C   0  0  0  0  0  0  0  0  0  0  0  0
  -13.6577  -41.2999  -21.4746 C   0  0  0  0  0  0  0  0  0  0  0  0
  -16.1053  -44.3111  -19.5332 C   0  0  0  0  0  0  0  0  0  0  0  0
  -15.1437  -43.5940  -18.8116 C   0  0  0  0  0  0  0  0  0  0  0  0
  -14.2551  -42.6928  -19.4221 C   0  0  0  0  0  0  0  0  0  0  0  0
  -14.4317  -42.4193  -20.7920 C   0  0  0  0  0  0  0  0  0  0  0  0
  -15.3815  -43.1764  -21.5245 C   0  0  0  0  0  0  0  0  0  0  0  0
  -16.2331  -44.1285  -20.9148 C   0  0  0  0  0  0  0  0  0  0  0  0
  -18.7559  -45.8430  -23.3716 C   0  0  0  0  0  0  0  0  0  0  0  0
  -18.4574  -46.7874  -22.4149 C   0  0  0  0  0  0  0  0  0  0  0  0
  -17.5668  -46.2786  -21.4234 C   0  0  0  0  0  0  0  0  0  0  0  0
  -17.2153  -44.9560  -21.6485 C   0  0  0  0  0  0  0  0  0  0  0  0
  -18.1425  -44.3151  -22.9487 S   0  0  0  0  0  0  0  0  0  0  0  0
  -15.1841  -40.7167  -13.8357 H   0  0  0  0  0  0  0  0  0  0  0  0
  -14.1010  -41.4231  -15.0675 H   0  0  0  0  0  0  0  0  0  0  0  0
  -15.3738  -40.2483  -15.5482 H   0  0  0  0  0  0  0  0  0  0  0  0
  -21.2023  -47.6588  -26.8299 H   0  0  0  0  0  0  0  0  0  0  0  0
  -20.2226  -46.4325  -27.6381 H   0  0  0  0  0  0  0  0  0  0  0  0
  -13.6416  -41.1583  -18.0509 H   0  0  0  0  0  0  0  0  0  0  0  0
  -12.7502  -42.6914  -17.8731 H   0  0  0  0  0  0  0  0  0  0  0  0
  -12.3686  -41.6316  -19.1960 H   0  0  0  0  0  0  0  0  0  0  0  0
  -15.0796  -44.6858  -23.8047 H   0  0  0  0  0  0  0  0  0  0  0  0
  -14.3958  -43.2405  -24.5685 H   0  0  0  0  0  0  0  0  0  0  0  0
  -13.6326  -43.8994  -23.1067 H   0  0  0  0  0  0  0  0  0  0  0  0
  -16.5635  -42.2503  -17.3852 H   0  0  0  0  0  0  0  0  0  0  0  0
  -22.7703  -46.2476  -26.5691 H   0  0  0  0  0  0  0  0  0  0  0  0
  -13.6647  -38.1307  -21.1634 H   0  0  0  0  0  0  0  0  0  0  0  0
  -13.8309  -41.2899  -22.5544 H   0  0  0  0  0  0  0  0  0  0  0  0
  -12.5842  -41.4599  -21.3301 H   0  0  0  0  0  0  0  0  0  0  0  0
  -16.7562  -45.0056  -19.0067 H   0  0  0  0  0  0  0  0  0  0  0  0
  -18.7993  -47.8158  -22.4540 H   0  0  0  0  0  0  0  0  0  0  0  0
  -17.1533  -46.8897  -20.6298 H   0  0  0  0  0  0  0  0  0  0  0  0
 14  4  1  0
  4  3  1  0
  3  1  3  0
  7  8  1  0
 12 11  2  0
 10  5  1  0
 10 11  1  0
  5  9  2  0
 13 11  2  0
 11  2  1  0
 18 17  1  0
 15 17  2  0
 17 16  1  0
 19 24  2  0
 19 20  1  0
 20  5  1  0
 20 21  2  0
 21 22  1  0
 21  6  1  0
 22 23  2  0
 23 24  1  0
 23  7  1  0
 24 28  1  0
 25  1  1  0
 25 26  2  0
 25 29  1  0
 26 27  1  0
 27 28  2  0
 28 29  1  0
 18 22  1  0
  2 30  1  0
  2 31  1  0
  2 32  1  0
  4 33  1  0
  4 34  1  0
  6 35  1  0
  6 36  1  0
  6 37  1  0
  8 38  1  0
  8 39  1  0
  8 40  1  0
 10 41  1  0
 14 42  1  0
 16 43  1  0
 18 44  1  0
 18 45  1  0
 19 46  1  0
 26 47  1  0
 27 48  1  0
M  END
>  <smiles>  (751) 
[H]OC(=O)C([H])([H])c1c(OC([H])([H])[H])c(-c2sc(C#CC([H])([H])O[H])c([H])c2[H])c([H])c(C(=O)N([H])S(=O)(=O)C([H])([H])[H])c1C([H])([H])[H]

>  <error>  (751) 


>  <∆∆G>  (751) 
-166.176791

>  <∆G_bound>  (751) 
-80.271011

>  <∆G_unbound>  (751) 
85.905781

>  <comRMSD>  (751) 
0.835146

>  <N_constrained_atoms>  (751) 
29.0

>  <N_unconstrained_atoms>  (751) 
0.0

>  <runtime>  (751) 
4.816914

>  <regarded>  (751) 
['5hmz-a', '5hmw-b']

>  <disregarded>  (751) 
[]

>  <LE>  (751) 
5.730234

>  <outcome>  (751) 
acceptable

>  <percent_hybrid>  (751) 
14.0

$$$$
LIG
     RDKit          3D

 42 43  0  0  0  0  0  0  0  0999 V2000
  -19.4950  -46.1730  -24.5472 C   0  0  0  0  0  0  0  0  0  0  0  0
  -15.2215  -40.9965  -14.9199 C   0  0  0  0  0  0  0  0  0  0  0  0
  -20.1201  -46.3654  -25.5562 C   0  0  0  0  0  0  0  0  0  0  0  0
  -20.8479  -46.6418  -26.7932 C   0  0  0  0  0  0  0  0  0  0  0  0
  -14.9792  -43.6584  -17.4006 C   0  0  0  0  0  0  0  0  0  0  0  0
  -12.8845  -42.4114  -18.9963 C   0  0  0  0  0  0  0  0  0  0  0  0
  -15.3163  -43.9812  -23.0086 O   0  0  0  0  0  0  0  0  0  0  0  0
  -14.4119  -43.2961  -23.8522 C   0  0  0  0  0  0  0  0  0  0  0  0
  -14.1237  -44.2800  -16.9016 O   0  0  0  0  0  0  0  0  0  0  0  0
  -16.0283  -42.6972  -16.7681 N   0  0  0  0  0  0  0  0  0  0  0  0
  -16.3326  -42.3386  -15.1972 S   0  0  0  0  0  0  0  0  0  0  0  0
  -15.8670  -43.4172  -14.3617 O   0  0  0  0  0  0  0  0  0  0  0  0
  -17.6747  -41.8028  -15.1482 O   0  0  0  0  0  0  0  0  0  0  0  0
  -21.9702  -45.7789  -26.9109 O   0  0  0  0  0  0  0  0  0  0  0  0
  -16.1917  -44.2894  -19.4807 C   0  0  0  0  0  0  0  0  0  0  0  0
  -15.1053  -43.6442  -18.8743 C   0  0  0  0  0  0  0  0  0  0  0  0
  -14.0723  -43.0756  -19.6369 C   0  0  0  0  0  0  0  0  0  0  0  0
  -14.1340  -43.1785  -21.0308 C   0  0  0  0  0  0  0  0  0  0  0  0
  -15.2115  -43.8129  -21.6539 C   0  0  0  0  0  0  0  0  0  0  0  0
  -16.2528  -44.3770  -20.8785 C   0  0  0  0  0  0  0  0  0  0  0  0
  -18.7990  -45.9702  -23.3139 C   0  0  0  0  0  0  0  0  0  0  0  0
  -18.5398  -46.9408  -22.3682 C   0  0  0  0  0  0  0  0  0  0  0  0
  -17.6934  -46.4624  -21.3232 C   0  0  0  0  0  0  0  0  0  0  0  0
  -17.3204  -45.1485  -21.5314 C   0  0  0  0  0  0  0  0  0  0  0  0
  -18.2503  -44.4453  -22.7981 S   0  0  0  0  0  0  0  0  0  0  0  0
  -15.3501  -40.6542  -13.8906 H   0  0  0  0  0  0  0  0  0  0  0  0
  -14.1964  -41.3422  -15.0675 H   0  0  0  0  0  0  0  0  0  0  0  0
  -15.4606  -40.1846  -15.6097 H   0  0  0  0  0  0  0  0  0  0  0  0
  -21.1798  -47.6816  -26.8589 H   0  0  0  0  0  0  0  0  0  0  0  0
  -20.1963  -46.4399  -27.6407 H   0  0  0  0  0  0  0  0  0  0  0  0
  -13.2080  -41.6765  -18.2520 H   0  0  0  0  0  0  0  0  0  0  0  0
  -12.2450  -43.1591  -18.5178 H   0  0  0  0  0  0  0  0  0  0  0  0
  -12.2800  -41.8746  -19.7354 H   0  0  0  0  0  0  0  0  0  0  0  0
  -14.3213  -42.2377  -23.5886 H   0  0  0  0  0  0  0  0  0  0  0  0
  -13.4475  -43.8085  -23.8493 H   0  0  0  0  0  0  0  0  0  0  0  0
  -14.8157  -43.3401  -24.8663 H   0  0  0  0  0  0  0  0  0  0  0  0
  -16.5751  -42.2575  -17.5051 H   0  0  0  0  0  0  0  0  0  0  0  0
  -22.7397  -46.2673  -26.5518 H   0  0  0  0  0  0  0  0  0  0  0  0
  -16.9640  -44.7515  -18.8709 H   0  0  0  0  0  0  0  0  0  0  0  0
  -13.3010  -42.7987  -21.6160 H   0  0  0  0  0  0  0  0  0  0  0  0
  -18.8703  -47.9692  -22.4559 H   0  0  0  0  0  0  0  0  0  0  0  0
  -17.2834  -47.0962  -20.5460 H   0  0  0  0  0  0  0  0  0  0  0  0
 14  4  1  0
  4  3  1  0
  3  1  3  0
  7  8  1  0
 12 11  2  0
 10  5  1  0
 10 11  1  0
  5  9  2  0
 13 11  2  0
 11  2  1  0
 15 20  2  0
 15 16  1  0
 16  5  1  0
 16 17  2  0
 17 18  1  0
 17  6  1  0
 18 19  2  0
 19 20  1  0
 19  7  1  0
 20 24  1  0
 21  1  1  0
 21 22  2  0
 21 25  1  0
 22 23  1  0
 23 24  2  0
 24 25  1  0
  2 26  1  0
  2 27  1  0
  2 28  1  0
  4 29  1  0
  4 30  1  0
  6 31  1  0
  6 32  1  0
  6 33  1  0
  8 34  1  0
  8 35  1  0
  8 36  1  0
 10 37  1  0
 14 38  1  0
 15 39  1  0
 18 40  1  0
 22 41  1  0
 23 42  1  0
M  END
>  <smiles>  (752) 
[H]OC([H])([H])C#Cc1sc(-c2c([H])c(C(=O)N([H])S(=O)(=O)C([H])([H])[H])c(C([H])([H])[H])c([H])c2OC([H])([H])[H])c([H])c1[H]

>  <error>  (752) 


>  <∆∆G>  (752) 
-63.388461

>  <∆G_bound>  (752) 
-77.016186

>  <∆G_unbound>  (752) 
-13.627725

>  <comRMSD>  (752) 
0.632065

>  <N_constrained_atoms>  (752) 
25.0

>  <N_unconstrained_atoms>  (752) 
0.0

>  <runtime>  (752) 
3.189558

>  <regarded>  (752) 
['5hmz-a', '5f3z-a']

>  <disregarded>  (752) 
[]

>  <LE>  (752) 
2.535538

>  <outcome>  (752) 
equally sized

>  <percent_hybrid>  (752) 
0.0

$$$$
LIG
     RDKit          3D

 42 43  0  0  0  0  0  0  0  0999 V2000
  -19.4950  -46.1730  -24.5472 C   0  0  0  0  0  0  0  0  0  0  0  0
  -15.2215  -40.9965  -14.9199 C   0  0  0  0  0  0  0  0  0  0  0  0
  -20.1201  -46.3654  -25.5562 C   0  0  0  0  0  0  0  0  0  0  0  0
  -20.8479  -46.6418  -26.7932 C   0  0  0  0  0  0  0  0  0  0  0  0
  -14.9792  -43.6584  -17.4006 C   0  0  0  0  0  0  0  0  0  0  0  0
  -12.8845  -42.4114  -18.9963 C   0  0  0  0  0  0  0  0  0  0  0  0
  -15.3163  -43.9812  -23.0086 O   0  0  0  0  0  0  0  0  0  0  0  0
  -14.4119  -43.2961  -23.8522 C   0  0  0  0  0  0  0  0  0  0  0  0
  -14.1237  -44.2800  -16.9016 O   0  0  0  0  0  0  0  0  0  0  0  0
  -16.0283  -42.6972  -16.7681 N   0  0  0  0  0  0  0  0  0  0  0  0
  -16.3326  -42.3386  -15.1972 S   0  0  0  0  0  0  0  0  0  0  0  0
  -15.8670  -43.4172  -14.3617 O   0  0  0  0  0  0  0  0  0  0  0  0
  -17.6747  -41.8028  -15.1482 O   0  0  0  0  0  0  0  0  0  0  0  0
  -21.9702  -45.7789  -26.9109 O   0  0  0  0  0  0  0  0  0  0  0  0
  -16.1917  -44.2894  -19.4807 C   0  0  0  0  0  0  0  0  0  0  0  0
  -15.1053  -43.6442  -18.8743 C   0  0  0  0  0  0  0  0  0  0  0  0
  -14.0723  -43.0756  -19.6369 C   0  0  0  0  0  0  0  0  0  0  0  0
  -14.1340  -43.1785  -21.0308 C   0  0  0  0  0  0  0  0  0  0  0  0
  -15.2115  -43.8129  -21.6539 C   0  0  0  0  0  0  0  0  0  0  0  0
  -16.2528  -44.3770  -20.8785 C   0  0  0  0  0  0  0  0  0  0  0  0
  -18.7990  -45.9702  -23.3139 C   0  0  0  0  0  0  0  0  0  0  0  0
  -18.5398  -46.9408  -22.3682 C   0  0  0  0  0  0  0  0  0  0  0  0
  -17.6934  -46.4624  -21.3232 C   0  0  0  0  0  0  0  0  0  0  0  0
  -17.3204  -45.1485  -21.5314 C   0  0  0  0  0  0  0  0  0  0  0  0
  -18.2503  -44.4453  -22.7981 S   0  0  0  0  0  0  0  0  0  0  0  0
  -15.3501  -40.6542  -13.8906 H   0  0  0  0  0  0  0  0  0  0  0  0
  -14.1964  -41.3422  -15.0675 H   0  0  0  0  0  0  0  0  0  0  0  0
  -15.4606  -40.1846  -15.6097 H   0  0  0  0  0  0  0  0  0  0  0  0
  -21.1798  -47.6816  -26.8589 H   0  0  0  0  0  0  0  0  0  0  0  0
  -20.1963  -46.4399  -27.6407 H   0  0  0  0  0  0  0  0  0  0  0  0
  -13.2080  -41.6765  -18.2520 H   0  0  0  0  0  0  0  0  0  0  0  0
  -12.2450  -43.1591  -18.5178 H   0  0  0  0  0  0  0  0  0  0  0  0
  -12.2800  -41.8746  -19.7354 H   0  0  0  0  0  0  0  0  0  0  0  0
  -14.3213  -42.2377  -23.5886 H   0  0  0  0  0  0  0  0  0  0  0  0
  -13.4475  -43.8085  -23.8493 H   0  0  0  0  0  0  0  0  0  0  0  0
  -14.8157  -43.3401  -24.8663 H   0  0  0  0  0  0  0  0  0  0  0  0
  -16.5751  -42.2575  -17.5051 H   0  0  0  0  0  0  0  0  0  0  0  0
  -22.7397  -46.2673  -26.5518 H   0  0  0  0  0  0  0  0  0  0  0  0
  -16.9640  -44.7515  -18.8709 H   0  0  0  0  0  0  0  0  0  0  0  0
  -13.3010  -42.7987  -21.6160 H   0  0  0  0  0  0  0  0  0  0  0  0
  -18.8703  -47.9692  -22.4559 H   0  0  0  0  0  0  0  0  0  0  0  0
  -17.2834  -47.0962  -20.5460 H   0  0  0  0  0  0  0  0  0  0  0  0
 14  4  1  0
  4  3  1  0
  3  1  3  0
  7  8  1  0
 12 11  2  0
 10  5  1  0
 10 11  1  0
  5  9  2  0
 13 11  2  0
 11  2  1  0
 15 20  2  0
 15 16  1  0
 16  5  1  0
 16 17  2  0
 17 18  1  0
 17  6  1  0
 18 19  2  0
 19 20  1  0
 19  7  1  0
 20 24  1  0
 21  1  1  0
 21 22  2  0
 21 25  1  0
 22 23  1  0
 23 24  2  0
 24 25  1  0
  2 26  1  0
  2 27  1  0
  2 28  1  0
  4 29  1  0
  4 30  1  0
  6 31  1  0
  6 32  1  0
  6 33  1  0
  8 34  1  0
  8 35  1  0
  8 36  1  0
 10 37  1  0
 14 38  1  0
 15 39  1  0
 18 40  1  0
 22 41  1  0
 23 42  1  0
M  END
>  <smiles>  (753) 
[H]OC([H])([H])C#Cc1sc(-c2c([H])c(C(=O)N([H])S(=O)(=O)C([H])([H])[H])c(C([H])([H])[H])c([H])c2OC([H])([H])[H])c([H])c1[H]

>  <error>  (753) 


>  <∆∆G>  (753) 
-63.388461

>  <∆G_bound>  (753) 
-77.016186

>  <∆G_unbound>  (753) 
-13.627725

>  <comRMSD>  (753) 
0.632065

>  <N_constrained_atoms>  (753) 
25.0

>  <N_unconstrained_atoms>  (753) 
0.0

>  <runtime>  (753) 
3.021975

>  <regarded>  (753) 
['5hmz-a', '6h9r-a']

>  <disregarded>  (753) 
[]

>  <LE>  (753) 
2.535538

>  <outcome>  (753) 
equally sized

>  <percent_hybrid>  (753) 
0.0

$$$$
LIG
     RDKit          3D

 42 43  0  0  0  0  0  0  0  0999 V2000
  -19.4950  -46.1730  -24.5472 C   0  0  0  0  0  0  0  0  0  0  0  0
  -15.2215  -40.9965  -14.9199 C   0  0  0  0  0  0  0  0  0  0  0  0
  -20.1201  -46.3654  -25.5562 C   0  0  0  0  0  0  0  0  0  0  0  0
  -20.8479  -46.6418  -26.7932 C   0  0  0  0  0  0  0  0  0  0  0  0
  -14.9792  -43.6584  -17.4006 C   0  0  0  0  0  0  0  0  0  0  0  0
  -12.8845  -42.4114  -18.9963 C   0  0  0  0  0  0  0  0  0  0  0  0
  -15.3163  -43.9812  -23.0086 O   0  0  0  0  0  0  0  0  0  0  0  0
  -14.4119  -43.2961  -23.8522 C   0  0  0  0  0  0  0  0  0  0  0  0
  -14.1237  -44.2800  -16.9016 O   0  0  0  0  0  0  0  0  0  0  0  0
  -16.0283  -42.6972  -16.7681 N   0  0  0  0  0  0  0  0  0  0  0  0
  -16.3326  -42.3386  -15.1972 S   0  0  0  0  0  0  0  0  0  0  0  0
  -15.8670  -43.4172  -14.3617 O   0  0  0  0  0  0  0  0  0  0  0  0
  -17.6747  -41.8028  -15.1482 O   0  0  0  0  0  0  0  0  0  0  0  0
  -21.9702  -45.7789  -26.9109 O   0  0  0  0  0  0  0  0  0  0  0  0
  -16.1917  -44.2894  -19.4807 C   0  0  0  0  0  0  0  0  0  0  0  0
  -15.1053  -43.6442  -18.8743 C   0  0  0  0  0  0  0  0  0  0  0  0
  -14.0723  -43.0756  -19.6369 C   0  0  0  0  0  0  0  0  0  0  0  0
  -14.1340  -43.1785  -21.0308 C   0  0  0  0  0  0  0  0  0  0  0  0
  -15.2115  -43.8129  -21.6539 C   0  0  0  0  0  0  0  0  0  0  0  0
  -16.2528  -44.3770  -20.8785 C   0  0  0  0  0  0  0  0  0  0  0  0
  -18.7990  -45.9702  -23.3139 C   0  0  0  0  0  0  0  0  0  0  0  0
  -18.5398  -46.9408  -22.3682 C   0  0  0  0  0  0  0  0  0  0  0  0
  -17.6934  -46.4624  -21.3232 C   0  0  0  0  0  0  0  0  0  0  0  0
  -17.3204  -45.1485  -21.5314 C   0  0  0  0  0  0  0  0  0  0  0  0
  -18.2503  -44.4453  -22.7981 S   0  0  0  0  0  0  0  0  0  0  0  0
  -15.3501  -40.6542  -13.8906 H   0  0  0  0  0  0  0  0  0  0  0  0
  -14.1964  -41.3422  -15.0675 H   0  0  0  0  0  0  0  0  0  0  0  0
  -15.4606  -40.1846  -15.6097 H   0  0  0  0  0  0  0  0  0  0  0  0
  -21.1798  -47.6816  -26.8589 H   0  0  0  0  0  0  0  0  0  0  0  0
  -20.1963  -46.4399  -27.6407 H   0  0  0  0  0  0  0  0  0  0  0  0
  -13.2080  -41.6765  -18.2520 H   0  0  0  0  0  0  0  0  0  0  0  0
  -12.2450  -43.1591  -18.5178 H   0  0  0  0  0  0  0  0  0  0  0  0
  -12.2800  -41.8746  -19.7354 H   0  0  0  0  0  0  0  0  0  0  0  0
  -14.3213  -42.2377  -23.5886 H   0  0  0  0  0  0  0  0  0  0  0  0
  -13.4475  -43.8085  -23.8493 H   0  0  0  0  0  0  0  0  0  0  0  0
  -14.8157  -43.3401  -24.8663 H   0  0  0  0  0  0  0  0  0  0  0  0
  -16.5751  -42.2575  -17.5051 H   0  0  0  0  0  0  0  0  0  0  0  0
  -22.7397  -46.2673  -26.5518 H   0  0  0  0  0  0  0  0  0  0  0  0
  -16.9640  -44.7515  -18.8709 H   0  0  0  0  0  0  0  0  0  0  0  0
  -13.3010  -42.7987  -21.6160 H   0  0  0  0  0  0  0  0  0  0  0  0
  -18.8703  -47.9692  -22.4559 H   0  0  0  0  0  0  0  0  0  0  0  0
  -17.2834  -47.0962  -20.5460 H   0  0  0  0  0  0  0  0  0  0  0  0
 14  4  1  0
  4  3  1  0
  3  1  3  0
  7  8  1  0
 12 11  2  0
 10  5  1  0
 10 11  1  0
  5  9  2  0
 13 11  2  0
 11  2  1  0
 15 20  2  0
 15 16  1  0
 16  5  1  0
 16 17  2  0
 17 18  1  0
 17  6  1  0
 18 19  2  0
 19 20  1  0
 19  7  1  0
 20 24  1  0
 21  1  1  0
 21 22  2  0
 21 25  1  0
 22 23  1  0
 23 24  2  0
 24 25  1  0
  2 26  1  0
  2 27  1  0
  2 28  1  0
  4 29  1  0
  4 30  1  0
  6 31  1  0
  6 32  1  0
  6 33  1  0
  8 34  1  0
  8 35  1  0
  8 36  1  0
 10 37  1  0
 14 38  1  0
 15 39  1  0
 18 40  1  0
 22 41  1  0
 23 42  1  0
M  END
>  <smiles>  (754) 
[H]OC([H])([H])C#Cc1sc(-c2c([H])c(C(=O)N([H])S(=O)(=O)C([H])([H])[H])c(C([H])([H])[H])c([H])c2OC([H])([H])[H])c([H])c1[H]

>  <error>  (754) 


>  <∆∆G>  (754) 
-63.388461

>  <∆G_bound>  (754) 
-77.016186

>  <∆G_unbound>  (754) 
-13.627725

>  <comRMSD>  (754) 
0.632065

>  <N_constrained_atoms>  (754) 
25.0

>  <N_unconstrained_atoms>  (754) 
0.0

>  <runtime>  (754) 
2.934313

>  <regarded>  (754) 
['5hmz-a', '5f3t-a']

>  <disregarded>  (754) 
[]

>  <LE>  (754) 
2.535538

>  <outcome>  (754) 
equally sized

>  <percent_hybrid>  (754) 
0.0

$$$$

     RDKit          2D

  0  0  0  0  0  0  0  0  0  0999 V2000
M  END
>  <smiles>  (755) 
nan

>  <error>  (755) 
DistanceError 6.30 Å

>  <∆∆G>  (755) 
nan

>  <∆G_bound>  (755) 
nan

>  <∆G_unbound>  (755) 
nan

>  <comRMSD>  (755) 
nan

>  <N_constrained_atoms>  (755) 
nan

>  <N_unconstrained_atoms>  (755) 
nan

>  <runtime>  (755) 
nan

>  <regarded>  (755) 
[]

>  <disregarded>  (755) 
[]

>  <LE>  (755) 
nan

>  <outcome>  (755) 
too distant

>  <percent_hybrid>  (755) 
nan

$$$$
LIG
     RDKit          3D

 50 53  0  0  0  0  0  0  0  0999 V2000
  -16.5264  -42.6449  -16.9615 C   0  0  0  0  0  0  0  0  0  0  0  0
  -18.3122  -41.1393  -17.4373 O   0  0  0  0  0  0  0  0  0  0  0  0
  -11.6744  -40.6689  -20.4351 O   0  0  0  0  0  0  0  0  0  0  0  0
  -11.8637  -42.3990  -19.0432 O   0  0  0  0  0  0  0  0  0  0  0  0
  -12.2507  -41.7063  -20.1323 C   0  0  0  0  0  0  0  0  0  0  0  0
  -13.3425  -42.3975  -20.9347 C   0  0  1  0  0  0  0  0  0  0  0  0
  -17.0307  -41.2284  -17.0273 C   0  0  0  0  0  0  0  0  0  0  0  0
  -16.3860  -40.2214  -16.7797 O   0  0  0  0  0  0  0  0  0  0  0  0
  -16.0654  -43.1672  -18.3008 C   0  0  0  0  0  0  0  0  0  0  0  0
  -14.9023  -42.6361  -18.8876 C   0  0  0  0  0  0  0  0  0  0  0  0
  -14.4845  -43.0504  -20.1533 C   0  0  0  0  0  0  0  0  0  0  0  0
  -15.2413  -44.0424  -20.8004 C   0  0  0  0  0  0  0  0  0  0  0  0
  -16.4582  -44.5079  -20.2870 C   0  0  0  0  0  0  0  0  0  0  0  0
  -16.8473  -44.0906  -19.0144 C   0  0  0  0  0  0  0  0  0  0  0  0
  -18.2350  -47.3874  -21.9285 C   0  0  0  0  0  0  0  0  0  0  0  0
  -17.5319  -46.6562  -20.9753 C   0  0  0  0  0  0  0  0  0  0  0  0
  -17.3296  -45.2891  -21.1628 C   0  0  0  0  0  0  0  0  0  0  0  0
  -17.9085  -44.6615  -22.2830 C   0  0  0  0  0  0  0  0  0  0  0  0
  -18.6036  -45.3941  -23.2372 C   0  0  0  0  0  0  0  0  0  0  0  0
  -18.7281  -46.7673  -23.0743 C   0  0  0  0  0  0  0  0  0  0  0  0
  -14.6315  -41.9003  -23.1464 C   0  0  0  0  0  0  0  0  0  0  0  0
  -13.8831  -41.5257  -22.0545 C   0  0  0  0  0  0  0  0  0  0  0  0
  -13.6668  -40.1821  -22.2310 N   0  0  0  0  0  0  0  0  0  0  0  0
  -14.2878  -39.6704  -23.3215 N   0  0  0  0  0  0  0  0  0  0  0  0
  -14.9158  -40.7231  -23.8674 C   0  0  0  0  0  0  0  0  0  0  0  0
  -16.9522  -41.4648  -25.0224 C   0  0  0  0  0  0  0  0  0  0  0  0
  -15.7979  -40.6732  -25.0252 C   0  0  0  0  0  0  0  0  0  0  0  0
  -15.5158  -39.9051  -26.1467 C   0  0  0  0  0  0  0  0  0  0  0  0
  -16.3891  -39.9870  -27.2215 C   0  0  0  0  0  0  0  0  0  0  0  0
  -17.5021  -40.7587  -27.2518 N   0  0  0  0  0  0  0  0  0  0  0  0
  -17.7634  -41.4660  -26.1373 C   0  0  0  0  0  0  0  0  0  0  0  0
  -15.7034  -42.6911  -16.2383 H   0  0  0  0  0  0  0  0  0  0  0  0
  -17.3201  -43.2707  -16.5486 H   0  0  0  0  0  0  0  0  0  0  0  0
  -18.4952  -40.1767  -17.4340 H   0  0  0  0  0  0  0  0  0  0  0  0
  -10.9254  -42.1273  -18.8996 H   0  0  0  0  0  0  0  0  0  0  0  0
  -12.8126  -43.2245  -21.4241 H   0  0  0  0  0  0  0  0  0  0  0  0
  -14.3527  -41.8595  -18.3560 H   0  0  0  0  0  0  0  0  0  0  0  0
  -14.9188  -44.4045  -21.7771 H   0  0  0  0  0  0  0  0  0  0  0  0
  -17.8016  -44.4213  -18.6097 H   0  0  0  0  0  0  0  0  0  0  0  0
  -18.3436  -48.4607  -21.8236 H   0  0  0  0  0  0  0  0  0  0  0  0
  -17.0997  -47.1660  -20.1205 H   0  0  0  0  0  0  0  0  0  0  0  0
  -17.7813  -43.5906  -22.4211 H   0  0  0  0  0  0  0  0  0  0  0  0
  -19.0159  -44.9062  -24.1140 H   0  0  0  0  0  0  0  0  0  0  0  0
  -19.2059  -47.3707  -23.8433 H   0  0  0  0  0  0  0  0  0  0  0  0
  -14.9596  -42.8987  -23.3961 H   0  0  0  0  0  0  0  0  0  0  0  0
  -17.2280  -42.0602  -24.1611 H   0  0  0  0  0  0  0  0  0  0  0  0
  -14.6334  -39.2764  -26.1929 H   0  0  0  0  0  0  0  0  0  0  0  0
  -16.2184  -39.4110  -28.1233 H   0  0  0  0  0  0  0  0  0  0  0  0
  -18.6784  -42.0476  -26.1568 H   0  0  0  0  0  0  0  0  0  0  0  0
  -13.0893  -39.5677  -21.6597 H   0  0  0  0  0  0  0  0  0  0  0  0
  1  7  1  0
  7  8  2  0
  7  2  1  0
  6  5  1  0
  3  5  2  0
  5  4  1  0
  9 14  2  0
  9  1  1  0
  9 10  1  0
 10 11  2  0
 11 12  1  0
 11  6  1  0
 12 13  2  0
 13 17  1  0
 13 14  1  0
 15 20  2  0
 15 16  1  0
 16 17  2  0
 17 18  1  0
 18 19  2  0
 19 20  1  0
 21 22  2  0
 21 25  1  0
 22 23  1  0
 23 24  1  0
 24 25  2  0
 25 27  1  0
 26 31  2  0
 26 27  1  0
 27 28  2  0
 28 29  1  0
 29 30  2  0
 30 31  1  0
  6 22  1  0
  1 32  1  0
  1 33  1  0
  2 34  1  0
  4 35  1  0
  6 36  1  6
 10 37  1  0
 12 38  1  0
 14 39  1  0
 15 40  1  0
 16 41  1  0
 18 42  1  0
 19 43  1  0
 20 44  1  0
 21 45  1  0
 26 46  1  0
 28 47  1  0
 29 48  1  0
 31 49  1  0
 23 50  1  0
M  END
>  <smiles>  (756) 
[H]OC(=O)C([H])([H])c1c([H])c(-c2c([H])c([H])c([H])c([H])c2[H])c([H])c([C@]([H])(C(=O)O[H])c2[nH]nc(-c3c([H])c([H])nc([H])c3[H])c2[H])c1[H]

>  <error>  (756) 


>  <∆∆G>  (756) 
-321.390787

>  <∆G_bound>  (756) 
214.972119

>  <∆G_unbound>  (756) 
536.362907

>  <comRMSD>  (756) 
1.515641

>  <N_constrained_atoms>  (756) 
31.0

>  <N_unconstrained_atoms>  (756) 
0.0

>  <runtime>  (756) 
5.639313

>  <regarded>  (756) 
['5hmw-b', 'd0160a']

>  <disregarded>  (756) 
[]

>  <LE>  (756) 
10.367445

>  <outcome>  (756) 
too moved

>  <percent_hybrid>  (756) 
36.0

$$$$
LIG
     RDKit          3D

 61 64  0  0  0  0  0  0  0  0999 V2000
  -16.9927  -42.5287  -16.8997 C   0  0  0  0  0  0  0  0  0  0  0  0
  -19.3483  -42.7137  -17.2823 O   0  0  0  0  0  0  0  0  0  0  0  0
  -13.2813  -40.7776  -20.9883 N   0  0  0  0  0  0  0  0  0  0  0  0
  -12.0295  -40.9153  -19.1463 O   0  0  0  0  0  0  0  0  0  0  0  0
  -12.7946  -41.5300  -20.0604 C   0  0  0  0  0  0  0  0  0  0  0  0
  -12.9593  -43.0202  -19.8262 C   0  0  0  0  0  0  0  0  0  0  0  0
  -18.3106  -41.8554  -17.1859 C   0  0  0  0  0  0  0  0  0  0  0  0
  -18.4914  -40.6561  -17.3309 O   0  0  0  0  0  0  0  0  0  0  0  0
  -16.3412  -43.1895  -18.0930 C   0  0  0  0  0  0  0  0  0  0  0  0
  -14.9948  -42.9253  -18.3637 C   0  0  0  0  0  0  0  0  0  0  0  0
  -14.3776  -43.4349  -19.5085 C   0  0  0  0  0  0  0  0  0  0  0  0
  -15.1147  -44.2597  -20.3733 C   0  0  0  0  0  0  0  0  0  0  0  0
  -16.4635  -44.5470  -20.1191 C   0  0  0  0  0  0  0  0  0  0  0  0
  -17.0521  -44.0353  -18.9567 C   0  0  0  0  0  0  0  0  0  0  0  0
  -18.1892  -47.3467  -21.9476 C   0  0  0  0  0  0  0  0  0  0  0  0
  -17.4667  -46.6600  -20.9762 C   0  0  0  0  0  0  0  0  0  0  0  0
  -17.2739  -45.2810  -21.0900 C   0  0  0  0  0  0  0  0  0  0  0  0
  -17.8732  -44.6000  -22.1626 C   0  0  0  0  0  0  0  0  0  0  0  0
  -18.5765  -45.2903  -23.1457 C   0  0  0  0  0  0  0  0  0  0  0  0
  -18.6998  -46.6709  -23.0524 C   0  0  0  0  0  0  0  0  0  0  0  0
  -15.3140  -39.6218  -25.9931 C   0  0  0  0  0  0  0  0  0  0  0  0
  -15.2133  -41.4203  -24.1974 C   0  0  0  0  0  0  0  0  0  0  0  0
  -15.6385  -42.7372  -24.1436 C   0  0  0  0  0  0  0  0  0  0  0  0
  -16.3660  -43.0157  -25.3100 C   0  0  0  0  0  0  0  0  0  0  0  0
  -16.3060  -41.9012  -26.1021 C   0  0  0  0  0  0  0  0  0  0  0  0
  -15.6057  -40.9319  -25.4260 N   0  0  0  0  0  0  0  0  0  0  0  0
  -17.4519  -38.6375  -26.9148 C   0  0  0  0  0  0  0  0  0  0  0  0
  -16.5081  -38.7138  -25.8920 C   0  0  0  0  0  0  0  0  0  0  0  0
  -16.7394  -37.9408  -24.7520 C   0  0  0  0  0  0  0  0  0  0  0  0
  -17.8759  -37.1444  -24.6750 C   0  0  0  0  0  0  0  0  0  0  0  0
  -18.7546  -37.1478  -25.7457 C   0  0  0  0  0  0  0  0  0  0  0  0
  -18.5740  -37.8736  -26.8722 N   0  0  0  0  0  0  0  0  0  0  0  0
  -14.1581  -41.4710  -21.9332 C   0  0  0  0  0  0  0  0  0  0  0  0
  -14.4614  -40.6222  -23.1658 C   0  0  0  0  0  0  0  0  0  0  0  0
  -16.3344  -41.7495  -16.4934 H   0  0  0  0  0  0  0  0  0  0  0  0
  -17.1138  -43.2475  -16.0913 H   0  0  0  0  0  0  0  0  0  0  0  0
  -20.1273  -42.1267  -17.3830 H   0  0  0  0  0  0  0  0  0  0  0  0
  -11.9881  -39.9787  -19.3999 H   0  0  0  0  0  0  0  0  0  0  0  0
  -12.5924  -43.5556  -20.7049 H   0  0  0  0  0  0  0  0  0  0  0  0
  -12.3205  -43.3252  -18.9887 H   0  0  0  0  0  0  0  0  0  0  0  0
  -14.4303  -42.2674  -17.7024 H   0  0  0  0  0  0  0  0  0  0  0  0
  -14.6479  -44.6376  -21.2828 H   0  0  0  0  0  0  0  0  0  0  0  0
  -18.1023  -44.2518  -18.7682 H   0  0  0  0  0  0  0  0  0  0  0  0
  -18.3045  -48.4233  -21.8827 H   0  0  0  0  0  0  0  0  0  0  0  0
  -17.0344  -47.2079  -20.1449 H   0  0  0  0  0  0  0  0  0  0  0  0
  -17.7677  -43.5196  -22.2451 H   0  0  0  0  0  0  0  0  0  0  0  0
  -19.0040  -44.7535  -23.9866 H   0  0  0  0  0  0  0  0  0  0  0  0
  -19.1922  -47.2344  -23.8413 H   0  0  0  0  0  0  0  0  0  0  0  0
  -14.4498  -39.2086  -25.4705 H   0  0  0  0  0  0  0  0  0  0  0  0
  -15.0153  -39.7751  -27.0355 H   0  0  0  0  0  0  0  0  0  0  0  0
  -15.4624  -43.4346  -23.3370 H   0  0  0  0  0  0  0  0  0  0  0  0
  -16.8436  -43.9457  -25.5554 H   0  0  0  0  0  0  0  0  0  0  0  0
  -16.6817  -41.7201  -27.0960 H   0  0  0  0  0  0  0  0  0  0  0  0
  -17.3285  -39.2082  -27.8325 H   0  0  0  0  0  0  0  0  0  0  0  0
  -16.0421  -37.9554  -23.9195 H   0  0  0  0  0  0  0  0  0  0  0  0
  -18.0754  -36.5410  -23.7962 H   0  0  0  0  0  0  0  0  0  0  0  0
  -19.6582  -36.5453  -25.7203 H   0  0  0  0  0  0  0  0  0  0  0  0
  -15.1142  -41.6884  -21.4441 H   0  0  0  0  0  0  0  0  0  0  0  0
  -13.6938  -42.4071  -22.2591 H   0  0  0  0  0  0  0  0  0  0  0  0
  -15.0584  -39.7563  -22.8613 H   0  0  0  0  0  0  0  0  0  0  0  0
  -13.5312  -40.2355  -23.5873 H   0  0  0  0  0  0  0  0  0  0  0  0
  1  7  1  0
  7  8  2  0
  7  2  1  0
  6  5  1  0
  3  5  2  0
  5  4  1  0
  9 14  2  0
  9  1  1  0
  9 10  1  0
 10 11  2  0
 11 12  1  0
 11  6  1  0
 12 13  2  0
 13 17  1  0
 13 14  1  0
 15 20  2  0
 15 16  1  0
 16 17  2  0
 17 18  1  0
 18 19  2  0
 19 20  1  0
 22 23  2  0
 22 26  1  0
 23 24  1  0
 24 25  2  0
 25 26  1  0
 26 21  1  0
 27 32  2  0
 27 28  1  0
 28 21  1  0
 28 29  2  0
 29 30  1  0
 30 31  2  0
 31 32  1  0
 33  3  1  0
 34 33  1  0
 34 22  1  0
  1 35  1  0
  1 36  1  0
  2 37  1  0
  4 38  1  0
  6 39  1  0
  6 40  1  0
 10 41  1  0
 12 42  1  0
 14 43  1  0
 15 44  1  0
 16 45  1  0
 18 46  1  0
 19 47  1  0
 20 48  1  0
 21 49  1  0
 21 50  1  0
 23 51  1  0
 24 52  1  0
 25 53  1  0
 27 54  1  0
 29 55  1  0
 30 56  1  0
 31 57  1  0
 33 58  1  0
 33 59  1  0
 34 60  1  0
 34 61  1  0
M  END
>  <smiles>  (757) 
[H]OC(=O)C([H])([H])c1c([H])c(-c2c([H])c([H])c([H])c([H])c2[H])c([H])c(C([H])([H])/C(=N\C([H])([H])C([H])([H])c2c([H])c([H])c([H])n2C([H])([H])c2c([H])nc([H])c([H])c2[H])O[H])c1[H]

>  <error>  (757) 


>  <∆∆G>  (757) 
-57.953242

>  <∆G_bound>  (757) 
216.68472

>  <∆G_unbound>  (757) 
274.637962

>  <comRMSD>  (757) 
1.419693

>  <N_constrained_atoms>  (757) 
32.0

>  <N_unconstrained_atoms>  (757) 
2.0

>  <runtime>  (757) 
6.249933

>  <regarded>  (757) 
['5hmw-b', 'd0191a']

>  <disregarded>  (757) 
[]

>  <LE>  (757) 
1.704507

>  <outcome>  (757) 
too moved

>  <percent_hybrid>  (757) 
38.0

$$$$
LIG
     RDKit          3D

 62 65  0  0  0  0  0  0  0  0999 V2000
  -16.3946  -42.5519  -16.6717 C   0  0  0  0  0  0  0  0  0  0  0  0
  -18.2730  -41.1092  -16.9344 O   0  0  0  0  0  0  0  0  0  0  0  0
  -12.2597  -41.2997  -18.9892 O   0  0  0  0  0  0  0  0  0  0  0  0
  -12.1423  -40.8604  -21.1603 O   0  0  0  0  0  0  0  0  0  0  0  0
  -12.6832  -41.5157  -20.1125 C   0  0  0  0  0  0  0  0  0  0  0  0
  -13.8274  -42.4130  -20.5067 C   0  0  0  0  0  0  0  0  0  0  0  0
  -17.0213  -41.2044  -16.4491 C   0  0  0  0  0  0  0  0  0  0  0  0
  -16.4991  -40.2497  -15.8972 O   0  0  0  0  0  0  0  0  0  0  0  0
  -16.5090  -44.2308  -22.8333 N   0  0  0  0  0  0  0  0  0  0  0  0
  -15.2850  -39.7614  -26.0548 C   0  0  0  0  0  0  0  0  0  0  0  0
  -15.9434  -42.7332  -18.1289 C   0  0  1  0  0  0  0  0  0  0  0  0
  -14.4966  -43.2634  -18.1612 C   0  0  0  0  0  0  0  0  0  0  0  0
  -13.9945  -43.6259  -19.5734 C   0  0  1  0  0  0  0  0  0  0  0  0
  -14.9287  -44.6872  -20.1932 C   0  0  0  0  0  0  0  0  0  0  0  0
  -16.3808  -44.4623  -19.9011 C   0  0  0  0  0  0  0  0  0  0  0  0
  -16.8311  -43.6257  -18.9545 C   0  0  0  0  0  0  0  0  0  0  0  0
  -18.5011  -47.1717  -21.7180 C   0  0  0  0  0  0  0  0  0  0  0  0
  -17.3466  -46.5787  -20.9197 C   0  0  0  0  0  0  0  0  0  0  0  0
  -17.5165  -45.0641  -20.7090 C   0  0  2  0  0  0  0  0  0  0  0  0
  -17.7501  -44.2861  -22.0583 C   0  0  2  0  0  0  0  0  0  0  0  0
  -18.8614  -44.9484  -22.8948 C   0  0  0  0  0  0  0  0  0  0  0  0
  -18.6391  -46.4475  -23.0423 C   0  0  0  0  0  0  0  0  0  0  0  0
  -18.3231  -43.5734  -18.9350 C   0  0  0  0  0  0  0  0  0  0  0  0
  -18.7004  -44.8149  -19.7335 C   0  0  0  0  0  0  0  0  0  0  0  0
  -16.5570  -43.1492  -24.9782 C   0  0  0  0  0  0  0  0  0  0  0  0
  -16.2803  -43.1103  -23.6196 C   0  0  0  0  0  0  0  0  0  0  0  0
  -15.7708  -42.0106  -23.0455 N   0  0  0  0  0  0  0  0  0  0  0  0
  -15.4536  -40.9671  -23.8502 C   0  0  0  0  0  0  0  0  0  0  0  0
  -15.6854  -40.9317  -25.2182 C   0  0  0  0  0  0  0  0  0  0  0  0
  -16.2565  -42.0599  -25.7875 C   0  0  0  0  0  0  0  0  0  0  0  0
  -15.5468  -42.6133  -15.9777 H   0  0  0  0  0  0  0  0  0  0  0  0
  -17.0991  -43.3182  -16.3497 H   0  0  0  0  0  0  0  0  0  0  0  0
  -18.5475  -40.2026  -16.6845 H   0  0  0  0  0  0  0  0  0  0  0  0
  -11.4193  -40.3542  -20.7363 H   0  0  0  0  0  0  0  0  0  0  0  0
  -14.7345  -41.8051  -20.5559 H   0  0  0  0  0  0  0  0  0  0  0  0
  -13.6047  -42.7826  -21.5150 H   0  0  0  0  0  0  0  0  0  0  0  0
  -16.2101  -45.0884  -23.2771 H   0  0  0  0  0  0  0  0  0  0  0  0
  -15.4726  -38.8269  -25.5171 H   0  0  0  0  0  0  0  0  0  0  0  0
  -14.2247  -39.8219  -26.3135 H   0  0  0  0  0  0  0  0  0  0  0  0
  -15.8671  -39.7220  -26.9819 H   0  0  0  0  0  0  0  0  0  0  0  0
  -15.9495  -41.7489  -18.6165 H   0  0  0  0  0  0  0  0  0  0  0  0
  -13.8324  -42.5373  -17.6828 H   0  0  0  0  0  0  0  0  0  0  0  0
  -14.4458  -44.1626  -17.5341 H   0  0  0  0  0  0  0  0  0  0  0  0
  -13.0026  -44.0851  -19.4637 H   0  0  0  0  0  0  0  0  0  0  0  0
  -14.7258  -44.7728  -21.2621 H   0  0  0  0  0  0  0  0  0  0  0  0
  -14.6727  -45.6625  -19.7603 H   0  0  0  0  0  0  0  0  0  0  0  0
  -19.4305  -47.1131  -21.1442 H   0  0  0  0  0  0  0  0  0  0  0  0
  -18.3016  -48.2305  -21.9069 H   0  0  0  0  0  0  0  0  0  0  0  0
  -17.2620  -47.1005  -19.9587 H   0  0  0  0  0  0  0  0  0  0  0  0
  -16.4067  -46.7787  -21.4448 H   0  0  0  0  0  0  0  0  0  0  0  0
  -18.0677  -43.2604  -21.8232 H   0  0  0  0  0  0  0  0  0  0  0  0
  -19.8293  -44.7621  -22.4188 H   0  0  0  0  0  0  0  0  0  0  0  0
  -18.9227  -44.4933  -23.8896 H   0  0  0  0  0  0  0  0  0  0  0  0
  -17.7078  -46.5850  -23.5586 H   0  0  0  0  0  0  0  0  0  0  0  0
  -19.3812  -46.9148  -23.6898 H   0  0  0  0  0  0  0  0  0  0  0  0
  -18.6798  -42.6585  -19.4197 H   0  0  0  0  0  0  0  0  0  0  0  0
  -18.7466  -43.6301  -17.9313 H   0  0  0  0  0  0  0  0  0  0  0  0
  -18.8165  -45.6568  -19.0358 H   0  0  0  0  0  0  0  0  0  0  0  0
  -19.6683  -44.6853  -20.2263 H   0  0  0  0  0  0  0  0  0  0  0  0
  -16.9810  -44.0342  -25.4180 H   0  0  0  0  0  0  0  0  0  0  0  0
  -14.9900  -40.1293  -23.3368 H   0  0  0  0  0  0  0  0  0  0  0  0
  -16.4343  -42.1133  -26.8573 H   0  0  0  0  0  0  0  0  0  0  0  0
  1  7  1  0
  7  8  2  0
  7  2  1  0
  6  5  1  0
  3  5  2  0
  5  4  1  0
 11 16  1  0
 11  1  1  0
 11 12  1  0
 12 13  1  0
 13 14  1  0
 13  6  1  0
 14 15  1  0
 15 19  1  0
 15 16  2  0
 17 22  1  0
 17 18  1  0
 19 18  1  6
 19 20  1  0
 20 21  1  0
 21 22  1  0
 23 24  1  0
 25 30  2  0
 25 26  1  0
 26  9  1  0
 26 27  2  0
 27 28  1  0
 28 29  2  0
 29 10  1  0
 29 30  1  0
 16 23  1  0
 19 24  1  0
 20  9  1  0
  1 31  1  0
  1 32  1  0
  2 33  1  0
  4 34  1  0
  6 35  1  0
  6 36  1  0
  9 37  1  0
 10 38  1  0
 10 39  1  0
 10 40  1  0
 11 41  1  6
 12 42  1  0
 12 43  1  0
 13 44  1  6
 14 45  1  0
 14 46  1  0
 17 47  1  0
 17 48  1  0
 18 49  1  0
 18 50  1  0
 20 51  1  1
 21 52  1  0
 21 53  1  0
 22 54  1  0
 22 55  1  0
 23 56  1  0
 23 57  1  0
 24 58  1  0
 24 59  1  0
 25 60  1  0
 28 61  1  0
 30 62  1  0
M  END
>  <smiles>  (758) 
[H]OC(=O)C([H])([H])[C@]1([H])C2=C(C([H])([H])[C@]([H])(C([H])([H])C(=O)O[H])C1([H])[H])[C@]1(C([H])([H])C2([H])[H])C([H])([H])C([H])([H])C([H])([H])C([H])([H])[C@]1([H])N([H])c1nc([H])c(C([H])([H])[H])c([H])c1[H]

>  <error>  (758) 


>  <∆∆G>  (758) 
-89.849719

>  <∆G_bound>  (758) 
73.904884

>  <∆G_unbound>  (758) 
163.754603

>  <comRMSD>  (758) 
1.560114

>  <N_constrained_atoms>  (758) 
30.0

>  <N_unconstrained_atoms>  (758) 
0.0

>  <runtime>  (758) 
7.51274

>  <regarded>  (758) 
['5hmw-b', 'd0254a']

>  <disregarded>  (758) 
[]

>  <LE>  (758) 
2.994991

>  <outcome>  (758) 
too moved

>  <percent_hybrid>  (758) 
34.0

$$$$

     RDKit          2D

  0  0  0  0  0  0  0  0  0  0999 V2000
M  END
>  <smiles>  (759) 
nan

>  <error>  (759) 
TimeoutError

>  <∆∆G>  (759) 
nan

>  <∆G_bound>  (759) 
nan

>  <∆G_unbound>  (759) 
nan

>  <comRMSD>  (759) 
nan

>  <N_constrained_atoms>  (759) 
nan

>  <N_unconstrained_atoms>  (759) 
nan

>  <runtime>  (759) 
nan

>  <regarded>  (759) 
[]

>  <disregarded>  (759) 
[]

>  <LE>  (759) 
nan

>  <outcome>  (759) 
timeout

>  <percent_hybrid>  (759) 
nan

$$$$
LIG
     RDKit          3D

 36 37  0  0  0  0  0  0  0  0999 V2000
  -15.9782  -42.9514  -16.9674 C   0  0  0  0  0  0  0  0  0  0  0  0
  -17.5144  -42.3684  -15.2722 O   0  0  0  0  0  0  0  0  0  0  0  0
  -15.1372  -40.8055  -22.5955 O   0  0  0  0  0  0  0  0  0  0  0  0
  -13.0685  -40.0004  -22.5852 O   0  0  0  0  0  0  0  0  0  0  0  0
  -14.0046  -40.8705  -22.1416 C   0  0  0  0  0  0  0  0  0  0  0  0
  -13.4443  -41.8406  -21.1244 C   0  0  0  0  0  0  0  0  0  0  0  0
  -17.4165  -42.7536  -16.5635 C   0  0  0  0  0  0  0  0  0  0  0  0
  -18.4170  -42.9751  -17.2278 O   0  0  0  0  0  0  0  0  0  0  0  0
  -15.0484  -43.7076  -22.5842 N   0  0  0  0  0  0  0  0  0  0  0  0
  -15.7448  -43.2360  -18.4343 C   0  0  0  0  0  0  0  0  0  0  0  0
  -14.7241  -42.5393  -19.0850 C   0  0  0  0  0  0  0  0  0  0  0  0
  -14.4967  -42.6979  -20.4560 C   0  0  0  0  0  0  0  0  0  0  0  0
  -15.2537  -43.6327  -21.1861 C   0  0  0  0  0  0  0  0  0  0  0  0
  -16.3235  -44.3158  -20.5578 C   0  0  0  0  0  0  0  0  0  0  0  0
  -16.5174  -44.1443  -19.1745 C   0  0  0  0  0  0  0  0  0  0  0  0
  -18.1282  -47.3382  -21.9096 C   0  0  0  0  0  0  0  0  0  0  0  0
  -17.3778  -46.5274  -21.0645 C   0  0  0  0  0  0  0  0  0  0  0  0
  -17.2507  -45.1595  -21.3315 C   0  0  0  0  0  0  0  0  0  0  0  0
  -17.9737  -44.6134  -22.4091 C   0  0  0  0  0  0  0  0  0  0  0  0
  -18.6976  -45.4288  -23.2706 C   0  0  0  0  0  0  0  0  0  0  0  0
  -18.7357  -46.7987  -23.0388 C   0  0  0  0  0  0  0  0  0  0  0  0
  -15.4420  -42.0384  -16.6800 H   0  0  0  0  0  0  0  0  0  0  0  0
  -15.5633  -43.7839  -16.3892 H   0  0  0  0  0  0  0  0  0  0  0  0
  -18.4062  -42.7078  -15.0047 H   0  0  0  0  0  0  0  0  0  0  0  0
  -13.5370  -39.5369  -23.3125 H   0  0  0  0  0  0  0  0  0  0  0  0
  -12.7165  -42.4956  -21.6074 H   0  0  0  0  0  0  0  0  0  0  0  0
  -12.9060  -41.2536  -20.3705 H   0  0  0  0  0  0  0  0  0  0  0  0
  -15.4734  -42.8997  -23.0437 H   0  0  0  0  0  0  0  0  0  0  0  0
  -15.4013  -44.5699  -22.9917 H   0  0  0  0  0  0  0  0  0  0  0  0
  -14.1202  -41.8243  -18.5276 H   0  0  0  0  0  0  0  0  0  0  0  0
  -17.3413  -44.6708  -18.6971 H   0  0  0  0  0  0  0  0  0  0  0  0
  -18.1727  -48.4086  -21.7423 H   0  0  0  0  0  0  0  0  0  0  0  0
  -16.8439  -46.9767  -20.2330 H   0  0  0  0  0  0  0  0  0  0  0  0
  -17.9252  -43.5437  -22.6064 H   0  0  0  0  0  0  0  0  0  0  0  0
  -19.2061  -45.0023  -24.1293 H   0  0  0  0  0  0  0  0  0  0  0  0
  -19.2369  -47.4612  -23.7405 H   0  0  0  0  0  0  0  0  0  0  0  0
  1  7  1  0
  7  8  2  0
  7  2  1  0
  6  5  1  0
  3  5  2  0
  5  4  1  0
 10 15  2  0
 10  1  1  0
 10 11  1  0
 11 12  2  0
 12 13  1  0
 12  6  1  0
 13 14  2  0
 14 18  1  0
 14 15  1  0
 16 21  2  0
 16 17  1  0
 17 18  2  0
 18 19  1  0
 19 20  2  0
 20 21  1  0
  9 13  1  0
  1 22  1  0
  1 23  1  0
  2 24  1  0
  4 25  1  0
  6 26  1  0
  6 27  1  0
  9 28  1  0
  9 29  1  0
 11 30  1  0
 15 31  1  0
 16 32  1  0
 17 33  1  0
 19 34  1  0
 20 35  1  0
 21 36  1  0
M  END
>  <smiles>  (760) 
[H]OC(=O)C([H])([H])c1c([H])c(-c2c([H])c([H])c([H])c([H])c2[H])c(N([H])[H])c(C([H])([H])C(=O)O[H])c1[H]

>  <error>  (760) 


>  <∆∆G>  (760) 
-53.844486

>  <∆G_bound>  (760) 
-5.304018

>  <∆G_unbound>  (760) 
48.540469

>  <comRMSD>  (760) 
1.182301

>  <N_constrained_atoms>  (760) 
21.0

>  <N_unconstrained_atoms>  (760) 
0.0

>  <runtime>  (760) 
2.916831

>  <regarded>  (760) 
['5hmw-b', 'd0472a']

>  <disregarded>  (760) 
[]

>  <LE>  (760) 
2.564023

>  <outcome>  (760) 
too moved

>  <percent_hybrid>  (760) 
5.0

$$$$
LIG
     RDKit          3D

 56 58  0  0  0  0  0  0  0  0999 V2000
  -15.0602  -42.8240  -16.2600 C   0  0  0  0  0  0  0  0  0  0  0  0
  -17.4422  -42.6402  -16.0654 O   0  0  0  0  0  0  0  0  0  0  0  0
  -12.7106  -39.8058  -19.9787 O   0  0  0  0  0  0  0  0  0  0  0  0
  -10.7952  -40.8641  -19.4350 O   0  0  0  0  0  0  0  0  0  0  0  0
  -12.0338  -40.8244  -19.9691 C   0  0  0  0  0  0  0  0  0  0  0  0
  -12.5083  -42.1323  -20.5514 C   0  0  0  0  0  0  0  0  0  0  0  0
  -16.2735  -42.5398  -15.4121 C   0  0  0  0  0  0  0  0  0  0  0  0
  -16.2356  -42.3218  -14.2111 O   0  0  0  0  0  0  0  0  0  0  0  0
  -12.9791  -43.3183  -17.8067 F   0  0  0  0  0  0  0  0  0  0  0  0
  -17.8834  -42.5123  -24.1709 C   0  0  0  0  0  0  0  0  0  0  0  0
  -18.2245  -41.6846  -24.9331 O   0  0  0  0  0  0  0  0  0  0  0  0
  -18.1867  -43.9360  -24.1266 N   0  0  0  0  0  0  0  0  0  0  0  0
  -15.2230  -42.6310  -17.7776 C   0  0  1  0  0  0  0  0  0  0  0  0
  -13.8525  -42.4535  -18.4225 C   0  0  2  0  0  0  0  0  0  0  0  0
  -13.7590  -42.7995  -19.9240 C   0  0  1  0  0  0  0  0  0  0  0  0
  -15.0924  -42.7375  -20.7633 C   0  0  0  0  0  0  0  0  0  0  0  0
  -16.2844  -43.4023  -19.9204 C   0  0  2  0  0  0  0  0  0  0  0  0
  -15.9138  -43.7968  -18.4679 C   0  0  0  0  0  0  0  0  0  0  0  0
  -17.3192  -46.8986  -21.1192 C   0  0  0  0  0  0  0  0  0  0  0  0
  -16.5272  -45.8435  -20.6705 C   0  0  0  0  0  0  0  0  0  0  0  0
  -17.0769  -44.5661  -20.4890 C   0  0  0  0  0  0  0  0  0  0  0  0
  -18.4441  -44.3831  -20.7284 C   0  0  0  0  0  0  0  0  0  0  0  0
  -19.2306  -45.4378  -21.1692 C   0  0  0  0  0  0  0  0  0  0  0  0
  -18.6688  -46.6937  -21.3760 C   0  0  0  0  0  0  0  0  0  0  0  0
  -14.8675  -43.3691  -22.1722 C   0  0  0  0  0  0  0  0  0  0  0  0
  -15.4832  -41.2835  -21.0998 C   0  0  0  0  0  0  0  0  0  0  0  0
  -16.5198  -41.1869  -22.2487 C   0  0  0  0  0  0  0  0  0  0  0  0
  -17.0708  -42.4041  -22.9546 N   0  0  0  0  0  0  0  0  0  0  0  0
  -15.6084  -42.6076  -23.2872 C   0  0  0  0  0  0  0  0  0  0  0  0
  -14.2841  -42.1367  -15.8993 H   0  0  0  0  0  0  0  0  0  0  0  0
  -14.7351  -43.8474  -16.0387 H   0  0  0  0  0  0  0  0  0  0  0  0
  -18.1088  -42.7882  -15.3468 H   0  0  0  0  0  0  0  0  0  0  0  0
  -10.3444  -41.7466  -19.4160 H   0  0  0  0  0  0  0  0  0  0  0  0
  -12.6195  -41.9544  -21.6207 H   0  0  0  0  0  0  0  0  0  0  0  0
  -11.6932  -42.8404  -20.4537 H   0  0  0  0  0  0  0  0  0  0  0  0
  -17.8105  -44.3356  -23.2469 H   0  0  0  0  0  0  0  0  0  0  0  0
  -17.6199  -44.3805  -23.3804 H   0  0  0  0  0  0  0  0  0  0  0  0
  -15.8109  -41.7203  -17.9523 H   0  0  0  0  0  0  0  0  0  0  0  0
  -13.5112  -41.4449  -18.1822 H   0  0  0  0  0  0  0  0  0  0  0  0
  -13.5107  -43.8745  -19.9486 H   0  0  0  0  0  0  0  0  0  0  0  0
  -17.0211  -42.5959  -19.7844 H   0  0  0  0  0  0  0  0  0  0  0  0
  -15.2686  -44.6848  -18.4448 H   0  0  0  0  0  0  0  0  0  0  0  0
  -16.8268  -44.0787  -17.9317 H   0  0  0  0  0  0  0  0  0  0  0  0
  -16.8950  -47.8878  -21.2664 H   0  0  0  0  0  0  0  0  0  0  0  0
  -15.4765  -46.0230  -20.4591 H   0  0  0  0  0  0  0  0  0  0  0  0
  -18.9156  -43.4144  -20.5668 H   0  0  0  0  0  0  0  0  0  0  0  0
  -20.2866  -45.2571  -21.3381 H   0  0  0  0  0  0  0  0  0  0  0  0
  -19.2797  -47.5246  -21.7196 H   0  0  0  0  0  0  0  0  0  0  0  0
  -15.1519  -44.4205  -22.2028 H   0  0  0  0  0  0  0  0  0  0  0  0
  -13.8104  -43.3917  -22.4518 H   0  0  0  0  0  0  0  0  0  0  0  0
  -14.6049  -40.7231  -21.4394 H   0  0  0  0  0  0  0  0  0  0  0  0
  -15.8406  -40.7406  -20.2165 H   0  0  0  0  0  0  0  0  0  0  0  0
  -17.4313  -40.7943  -21.7709 H   0  0  0  0  0  0  0  0  0  0  0  0
  -16.2945  -40.3740  -22.9611 H   0  0  0  0  0  0  0  0  0  0  0  0
  -15.5920  -43.2991  -24.1458 H   0  0  0  0  0  0  0  0  0  0  0  0
  -15.0554  -41.7507  -23.7140 H   0  0  0  0  0  0  0  0  0  0  0  0
  1  7  1  0
  7  8  2  0
  7  2  1  0
  6  5  1  0
  3  5  2  0
  5  4  1  0
 12 10  1  0
 11 10  2  0
 13 18  1  0
 13  1  1  0
 13 14  1  0
 14 15  1  0
 15 16  1  0
 15  6  1  0
 16 17  1  0
 17 21  1  0
 17 18  1  0
 19 24  2  0
 19 20  1  0
 20 21  2  0
 21 22  1  0
 22 23  2  0
 23 24  1  0
 25 29  1  0
 26 27  1  0
 27 28  1  0
 28 10  1  0
 28 29  1  0
 16 25  1  0
 16 26  1  0
  9 14  1  0
  1 30  1  0
  1 31  1  0
  2 32  1  0
  4 33  1  0
  6 34  1  0
  6 35  1  0
 12 36  1  0
 12 37  1  0
 13 38  1  1
 14 39  1  6
 15 40  1  6
 17 41  1  1
 18 42  1  0
 18 43  1  0
 19 44  1  0
 20 45  1  0
 22 46  1  0
 23 47  1  0
 24 48  1  0
 25 49  1  0
 25 50  1  0
 26 51  1  0
 26 52  1  0
 27 53  1  0
 27 54  1  0
 29 55  1  0
 29 56  1  0
M  END
>  <smiles>  (761) 
[H]OC(=O)C([H])([H])[C@@]1([H])C2(C([H])([H])C([H])([H])N(C(=O)N([H])[H])C([H])([H])C2([H])[H])[C@@]([H])(c2c([H])c([H])c([H])c([H])c2[H])C([H])([H])[C@@]([H])(C([H])([H])C(=O)O[H])[C@@]1([H])F

>  <error>  (761) 


>  <∆∆G>  (761) 
-4.029608

>  <∆G_bound>  (761) 
272.797728

>  <∆G_unbound>  (761) 
276.827336

>  <comRMSD>  (761) 
2.609918

>  <N_constrained_atoms>  (761) 
29.0

>  <N_unconstrained_atoms>  (761) 
0.0

>  <runtime>  (761) 
19.388121

>  <regarded>  (761) 
['5hmw-b', 'd0612a']

>  <disregarded>  (761) 
[]

>  <LE>  (761) 
0.138952

>  <outcome>  (761) 
too moved

>  <percent_hybrid>  (761) 
32.0

$$$$
LIG
     RDKit          3D

 58 61  0  0  0  0  0  0  0  0999 V2000
  -16.1415  -42.6835  -17.3925 C   0  0  0  0  0  0  0  0  0  0  0  0
  -17.6603  -42.3962  -15.6127 O   0  0  0  0  0  0  0  0  0  0  0  0
  -14.9784  -39.3060  -20.8044 O   0  0  0  0  0  0  0  0  0  0  0  0
  -13.2920  -39.0447  -22.2219 O   0  0  0  0  0  0  0  0  0  0  0  0
  -14.0493  -39.8168  -21.4084 C   0  0  0  0  0  0  0  0  0  0  0  0
  -13.5436  -41.2389  -21.3237 C   0  0  0  0  0  0  0  0  0  0  0  0
  -17.5377  -42.8819  -16.8696 C   0  0  0  0  0  0  0  0  0  0  0  0
  -18.4664  -43.4676  -17.4048 O   0  0  0  0  0  0  0  0  0  0  0  0
  -19.2768  -43.1431  -24.1542 F   0  0  0  0  0  0  0  0  0  0  0  0
  -15.0261  -41.0376  -24.3192 N   0  0  0  0  0  0  0  0  0  0  0  0
  -15.2777  -40.3782  -25.6211 C   0  0  0  0  0  0  0  0  0  0  0  0
  -18.8355  -36.5266  -24.6807 C   0  0  0  0  0  0  0  0  0  0  0  0
  -15.9009  -42.8785  -18.8713 C   0  0  0  0  0  0  0  0  0  0  0  0
  -14.8631  -42.1596  -19.4527 C   0  0  0  0  0  0  0  0  0  0  0  0
  -14.5856  -42.2224  -20.8309 C   0  0  0  0  0  0  0  0  0  0  0  0
  -15.3113  -43.1127  -21.6646 C   0  0  0  0  0  0  0  0  0  0  0  0
  -16.3596  -43.8764  -21.0924 C   0  0  0  0  0  0  0  0  0  0  0  0
  -16.6240  -43.7342  -19.7008 C   0  0  0  0  0  0  0  0  0  0  0  0
  -17.9714  -47.2216  -21.7258 C   0  0  0  0  0  0  0  0  0  0  0  0
  -17.2167  -46.1750  -21.2175 C   0  0  0  0  0  0  0  0  0  0  0  0
  -17.1676  -44.8864  -21.8220 C   0  0  0  0  0  0  0  0  0  0  0  0
  -17.9000  -44.6934  -23.0121 C   0  0  0  0  0  0  0  0  0  0  0  0
  -18.6855  -45.7754  -23.4879 C   0  0  0  0  0  0  0  0  0  0  0  0
  -18.7018  -47.0219  -22.8733 C   0  0  0  0  0  0  0  0  0  0  0  0
  -17.9650  -43.4978  -23.9456 C   0  0  2  0  0  0  0  0  0  0  0  0
  -17.1918  -42.1946  -23.7749 C   0  0  0  0  0  0  0  0  0  0  0  0
  -15.7094  -42.3450  -24.1442 C   0  0  2  0  0  0  0  0  0  0  0  0
  -14.9703  -43.2733  -23.1376 C   0  0  0  0  0  0  0  0  0  0  0  0
  -17.2847  -39.1331  -26.6926 C   0  0  0  0  0  0  0  0  0  0  0  0
  -18.2220  -38.1385  -26.4699 N   0  0  0  0  0  0  0  0  0  0  0  0
  -18.0292  -37.6304  -25.2697 C   0  0  0  0  0  0  0  0  0  0  0  0
  -16.7369  -38.3136  -24.3646 S   0  0  0  0  0  0  0  0  0  0  0  0
  -16.4120  -39.4007  -25.6516 C   0  0  0  0  0  0  0  0  0  0  0  0
  -15.8571  -41.6566  -17.1276 H   0  0  0  0  0  0  0  0  0  0  0  0
  -15.4853  -43.3739  -16.8490 H   0  0  0  0  0  0  0  0  0  0  0  0
  -18.4487  -42.8720  -15.2397 H   0  0  0  0  0  0  0  0  0  0  0  0
  -13.7865  -38.1987  -22.1821 H   0  0  0  0  0  0  0  0  0  0  0  0
  -13.1767  -41.5231  -22.3008 H   0  0  0  0  0  0  0  0  0  0  0  0
  -12.6768  -41.2534  -20.6517 H   0  0  0  0  0  0  0  0  0  0  0  0
  -14.0198  -41.2164  -24.3090 H   0  0  0  0  0  0  0  0  0  0  0  0
  -14.3744  -39.8089  -25.8767 H   0  0  0  0  0  0  0  0  0  0  0  0
  -15.3917  -41.1200  -26.4205 H   0  0  0  0  0  0  0  0  0  0  0  0
  -19.3386  -36.8570  -23.7664 H   0  0  0  0  0  0  0  0  0  0  0  0
  -18.2033  -35.6647  -24.4445 H   0  0  0  0  0  0  0  0  0  0  0  0
  -19.6035  -36.1965  -25.3878 H   0  0  0  0  0  0  0  0  0  0  0  0
  -14.2860  -41.4715  -18.8329 H   0  0  0  0  0  0  0  0  0  0  0  0
  -17.4435  -44.3142  -19.2799 H   0  0  0  0  0  0  0  0  0  0  0  0
  -17.9505  -48.1947  -21.2537 H   0  0  0  0  0  0  0  0  0  0  0  0
  -16.6306  -46.3714  -20.3207 H   0  0  0  0  0  0  0  0  0  0  0  0
  -19.2812  -45.6526  -24.3929 H   0  0  0  0  0  0  0  0  0  0  0  0
  -19.2603  -47.8452  -23.3081 H   0  0  0  0  0  0  0  0  0  0  0  0
  -17.6460  -43.8893  -24.9211 H   0  0  0  0  0  0  0  0  0  0  0  0
  -17.6611  -41.4756  -24.4552 H   0  0  0  0  0  0  0  0  0  0  0  0
  -17.3380  -41.7718  -22.7750 H   0  0  0  0  0  0  0  0  0  0  0  0
  -15.6333  -42.8631  -25.1101 H   0  0  0  0  0  0  0  0  0  0  0  0
  -15.1677  -44.3139  -23.4282 H   0  0  0  0  0  0  0  0  0  0  0  0
  -13.8874  -43.2154  -23.2815 H   0  0  0  0  0  0  0  0  0  0  0  0
  -17.2724  -39.6330  -27.6540 H   0  0  0  0  0  0  0  0  0  0  0  0
  1  7  1  0
  7  8  2  0
  7  2  1  0
  6  5  1  0
  3  5  2  0
  5  4  1  0
 11 10  1  0
 13 18  2  0
 13  1  1  0
 13 14  1  0
 14 15  2  0
 15 16  1  0
 15  6  1  0
 16 17  2  0
 17 21  1  0
 17 18  1  0
 19 24  2  0
 19 20  1  0
 20 21  2  0
 21 22  1  0
 22 23  2  0
 23 24  1  0
 25  9  1  0
 25 26  1  0
 26 27  1  0
 27 10  1  0
 27 28  1  0
 29 30  1  0
 29 33  2  0
 30 31  2  0
 31 12  1  0
 31 32  1  0
 32 33  1  0
 33 11  1  0
 16 28  1  0
 22 25  1  0
  1 34  1  0
  1 35  1  0
  2 36  1  0
  4 37  1  0
  6 38  1  0
  6 39  1  0
 10 40  1  0
 11 41  1  0
 11 42  1  0
 12 43  1  0
 12 44  1  0
 12 45  1  0
 14 46  1  0
 18 47  1  0
 19 48  1  0
 20 49  1  0
 23 50  1  0
 24 51  1  0
 25 52  1  1
 26 53  1  0
 26 54  1  0
 27 55  1  6
 28 56  1  0
 28 57  1  0
 29 58  1  0
M  END
>  <smiles>  (762) 
[H]OC(=O)C([H])([H])c1c([H])c2c(c(C([H])([H])C(=O)O[H])c1[H])C([H])([H])[C@]([H])(N([H])C([H])([H])c1sc(C([H])([H])[H])nc1[H])C([H])([H])[C@@]([H])(F)c1c([H])c([H])c([H])c([H])c1-2

>  <error>  (762) 


>  <∆∆G>  (762) 
-201.279643

>  <∆G_bound>  (762) 
188.362896

>  <∆G_unbound>  (762) 
389.642538

>  <comRMSD>  (762) 
1.136686

>  <N_constrained_atoms>  (762) 
33.0

>  <N_unconstrained_atoms>  (762) 
0.0

>  <runtime>  (762) 
6.613495

>  <regarded>  (762) 
['5hmw-b', 'd0615b']

>  <disregarded>  (762) 
[]

>  <LE>  (762) 
6.099383

>  <outcome>  (762) 
too moved

>  <percent_hybrid>  (762) 
40.0

$$$$
LIG
     RDKit          3D

  0  0  0  0  0  0  0  0  0  0999 V3000
M  V30 BEGIN CTAB
M  V30 COUNTS 69 71 0 0 0
M  V30 BEGIN ATOM
M  V30 1 C -15.477000 -44.540001 -16.980000 0
M  V30 2 O -17.010000 -42.716000 -16.606001 0
M  V30 3 N -15.054000 -40.509998 -21.433001 0
M  V30 4 O -13.165000 -40.166000 -20.434000 0
M  V30 5 C -13.969000 -40.924999 -20.995001 0
M  V30 6 C -13.607000 -42.386002 -21.129000 0
M  V30 7 C -16.496000 -43.761002 -16.164000 0
M  V30 8 O -16.778999 -44.183998 -15.025000 0
M  V30 9 C -15.554000 -44.304001 -18.476999 0
M  V30 10 C -14.594000 -43.481998 -19.080999 0
M  V30 11 C -14.629000 -43.272999 -20.458000 0
M  V30 12 C -15.579000 -43.944000 -21.237000 0
M  V30 13 C -16.555000 -44.757999 -20.648001 0
M  V30 14 C -16.523001 -44.955002 -19.259001 0
M  V30 15 C -18.702999 -47.500000 -22.153999 0
M  V30 16 C -17.832001 -46.813999 -21.304001 0
M  V30 17 C -17.535000 -45.466000 -21.531000 0
M  V30 18 C -18.084999 -44.828999 -22.653999 0
M  V30 19 C -18.951000 -45.514999 -23.506001 0
M  V30 20 C -19.274000 -46.852001 -23.253000 0
M  V30 21 O -19.445000 -40.158001 -24.528000 0
M  V30 22 S -18.933001 -39.846001 -25.825001 0
M  V30 23 O -18.877001 -38.480999 -26.240999 0
M  V30 24 C -19.827000 -40.765999 -27.018000 0
M  V30 25 C -16.511999 -41.500999 -27.914000 0
M  V30 26 C -15.906000 -38.516998 -25.243999 0
M  V30 27 O -16.229000 -38.262001 -26.598000 0
M  V30 28 N -17.393000 -40.395000 -25.853001 0
M  V30 29 C -17.198999 -41.683998 -26.573000 0 CFG=2
M  V30 30 C -16.566000 -42.779999 -25.714001 0
M  V30 31 C -15.991000 -42.259998 -24.402000 0
M  V30 32 C -15.366000 -40.882000 -24.551001 0 CFG=1
M  V30 33 C -16.459999 -39.863998 -24.820000 0 CFG=1
M  V30 34 C -15.158000 -40.633999 -22.472334 0
M  V30 35 C -15.262000 -40.757999 -23.511667 0
M  V30 36 H -14.471663 -44.252506 -16.638466 0
M  V30 37 H -15.698196 -45.605629 -16.820292 0
M  V30 38 H -17.672047 -42.221134 -16.061113 0
M  V30 39 H -13.379087 -39.204624 -20.333879 0
M  V30 40 H -13.554997 -42.644939 -22.196823 0
M  V30 41 H -12.635282 -42.547256 -20.639347 0
M  V30 42 H -13.814822 -43.002937 -18.469948 0
M  V30 43 H -15.558703 -43.830040 -22.330893 0
M  V30 44 H -17.257669 -45.620121 -18.781635 0
M  V30 45 H -18.940735 -48.555840 -21.957317 0
M  V30 46 H -17.376627 -47.337437 -20.450392 0
M  V30 47 H -17.831081 -43.779579 -22.864347 0
M  V30 48 H -19.381012 -45.002758 -24.379328 0
M  V30 49 H -19.971224 -47.388878 -23.913031 0
M  V30 50 H -20.506313 -41.465069 -26.508259 0
M  V30 51 H -20.412142 -40.079388 -27.647423 0
M  V30 52 H -19.123901 -41.331223 -27.647423 0
M  V30 53 H -15.460629 -41.220943 -27.752167 0
M  V30 54 H -16.557558 -42.442596 -28.480846 0
M  V30 55 H -17.019920 -40.706833 -28.480846 0
M  V30 56 H -14.812429 -38.519810 -25.125275 0
M  V30 57 H -16.349152 -37.731411 -24.614344 0
M  V30 58 H -17.005259 -37.649174 -26.642309 0
M  V30 59 H -18.210634 -42.054550 -26.795010 0
M  V30 60 H -16.529486 -43.837841 -26.013391 0
M  V30 61 H -15.597886 -42.607105 -26.206812 0
M  V30 62 H -16.024343 -42.818214 -23.454750 0
M  V30 63 H -15.023324 -42.724831 -24.641865 0
M  V30 64 H -14.543300 -40.788002 -25.275106 0
M  V30 65 H -17.003857 -39.699589 -23.878094 0
M  V30 66 H -14.008000 -39.483997 -21.322334 0
M  V30 67 H -13.998000 -39.473999 -21.312334 0
M  V30 68 H -14.092000 -39.588001 -22.341667 0
M  V30 69 H -14.082000 -39.577999 -22.331667 0
M  V30 END ATOM
M  V30 BEGIN BOND
M  V30 1 1 1 7
M  V30 2 2 7 8
M  V30 3 1 7 2
M  V30 4 1 6 5
M  V30 5 2 3 5
M  V30 6 1 5 4
M  V30 7 2 9 14
M  V30 8 1 9 1
M  V30 9 1 9 10
M  V30 10 2 10 11
M  V30 11 1 11 12
M  V30 12 1 11 6
M  V30 13 2 12 13
M  V30 14 1 13 17
M  V30 15 1 13 14
M  V30 16 2 15 20
M  V30 17 1 15 16
M  V30 18 2 16 17
M  V30 19 1 17 18
M  V30 20 2 18 19
M  V30 21 1 19 20
M  V30 22 1 27 26
M  V30 23 1 24 22
M  V30 24 2 23 22
M  V30 25 2 22 21
M  V30 26 1 28 33
M  V30 27 1 28 22
M  V30 28 1 28 29
M  V30 29 1 29 25
M  V30 30 1 29 30
M  V30 31 1 30 31
M  V30 32 1 31 32
M  V30 33 1 32 33
M  V30 34 1 33 26
M  V30 35 1 34 3
M  V30 36 1 35 34
M  V30 37 1 35 32
M  V30 38 1 1 36
M  V30 39 1 1 37
M  V30 40 1 2 38
M  V30 41 1 4 39
M  V30 42 1 6 40
M  V30 43 1 6 41
M  V30 44 1 10 42
M  V30 45 1 12 43
M  V30 46 1 14 44
M  V30 47 1 15 45
M  V30 48 1 16 46
M  V30 49 1 18 47
M  V30 50 1 19 48
M  V30 51 1 20 49
M  V30 52 1 24 50
M  V30 53 1 24 51
M  V30 54 1 24 52
M  V30 55 1 25 53
M  V30 56 1 25 54
M  V30 57 1 25 55
M  V30 58 1 26 56
M  V30 59 1 26 57
M  V30 60 1 27 58
M  V30 61 1 29 59 CFG=3
M  V30 62 1 30 60
M  V30 63 1 30 61
M  V30 64 1 31 62
M  V30 65 1 31 63
M  V30 66 1 32 64 CFG=3
M  V30 67 1 33 65 CFG=1
M  V30 68 1 34 66
M  V30 69 1 34 67
M  V30 70 1 35 68
M  V30 71 1 35 69
M  V30 END BOND
M  V30 BEGIN COLLECTION
M  V30 MDLV30/STEABS ATOMS=(0)
M  V30 END COLLECTION
M  V30 END CTAB
M  END
>  <smiles>  (763) 
[H]OC(=O)C([H])([H])c1c([H])c(-c2c([H])c([H])c([H])c([H])c2[H])c([H])c(C([H])([H])/C(=N\C([H])([H])C([H])([H])[C@@]2([H])C([H])([H])C([H])([H])[C@]([H])(C([H])([H])[H])N(S(=O)(=O)C([H])([H])[H])[C@]2([H])C([H])([H])O[H])O[H])c1[H]

>  <error>  (763) 


>  <∆∆G>  (763) 
nan

>  <∆G_bound>  (763) 
nan

>  <∆G_unbound>  (763) 
nan

>  <comRMSD>  (763) 
0.0

>  <N_constrained_atoms>  (763) 
33.0

>  <N_unconstrained_atoms>  (763) 
2.0

>  <runtime>  (763) 
2.32834

>  <regarded>  (763) 
['5hmw-b', 'd0851a']

>  <disregarded>  (763) 
[]

>  <LE>  (763) 
nan

>  <outcome>  (763) 
crashed

>  <percent_hybrid>  (763) 
40.0

$$$$
LIG
     RDKit          3D

  0  0  0  0  0  0  0  0  0  0999 V3000
M  V30 BEGIN CTAB
M  V30 COUNTS 77 80 0 0 0
M  V30 BEGIN ATOM
M  V30 1 C -15.477000 -44.540001 -16.980000 0
M  V30 2 O -17.010000 -42.716000 -16.606001 0
M  V30 3 N -15.054000 -40.509998 -21.433001 0
M  V30 4 O -13.165000 -40.166000 -20.434000 0
M  V30 5 C -13.969000 -40.924999 -20.995001 0
M  V30 6 C -13.607000 -42.386002 -21.129000 0
M  V30 7 C -16.496000 -43.761002 -16.164000 0
M  V30 8 O -16.778999 -44.183998 -15.025000 0
M  V30 9 C -15.554000 -44.304001 -18.476999 0
M  V30 10 C -14.594000 -43.481998 -19.080999 0
M  V30 11 C -14.629000 -43.272999 -20.458000 0
M  V30 12 C -15.579000 -43.944000 -21.237000 0
M  V30 13 C -16.555000 -44.757999 -20.648001 0
M  V30 14 C -16.523001 -44.955002 -19.259001 0
M  V30 15 C -18.702999 -47.500000 -22.153999 0
M  V30 16 C -17.832001 -46.813999 -21.304001 0
M  V30 17 C -17.535000 -45.466000 -21.531000 0
M  V30 18 C -18.084999 -44.828999 -22.653999 0
M  V30 19 C -18.951000 -45.514999 -23.506001 0
M  V30 20 C -19.274000 -46.852001 -23.253000 0
M  V30 21 O -19.218000 -37.455002 -26.510000 0
M  V30 22 C -18.440001 -37.272999 -25.589001 0
M  V30 23 C -18.801001 -40.066002 -25.077000 0
M  V30 24 S -16.291000 -41.674000 -23.726000 0 CFG=2
M  V30 25 N -16.832001 -41.215000 -22.487000 0
M  V30 26 O -16.914000 -42.779999 -24.382999 0
M  V30 27 C -14.601000 -42.066002 -23.476999 0
M  V30 28 C -18.129000 -36.304001 -23.285000 0
M  V30 29 C -19.089001 -35.396999 -22.541000 0
M  V30 30 C -19.528999 -34.411999 -23.573999 0
M  V30 31 C -19.582001 -35.196999 -24.878000 0
M  V30 32 N -18.677000 -36.332001 -24.648001 0
M  V30 33 C -17.472000 -39.426998 -24.688999 0 CFG=2
M  V30 34 C -17.184000 -38.118999 -25.462000 0 CFG=1
M  V30 35 C -16.631001 -38.435001 -26.855000 0
M  V30 36 C -15.402000 -39.325001 -26.764999 0
M  V30 37 C -15.742000 -40.634998 -26.099001 0
M  V30 38 N -16.350000 -40.417999 -24.764000 0
M  V30 39 C -15.943001 -40.862499 -21.959999 0
M  V30 40 H -14.471663 -44.252506 -16.638466 0
M  V30 41 H -15.698196 -45.605629 -16.820292 0
M  V30 42 H -17.672047 -42.221134 -16.061113 0
M  V30 43 H -13.379087 -39.204624 -20.333879 0
M  V30 44 H -13.554997 -42.644939 -22.196823 0
M  V30 45 H -12.635282 -42.547256 -20.639347 0
M  V30 46 H -13.814822 -43.002937 -18.469948 0
M  V30 47 H -15.558703 -43.830040 -22.330893 0
M  V30 48 H -17.257669 -45.620121 -18.781635 0
M  V30 49 H -18.940735 -48.555840 -21.957317 0
M  V30 50 H -17.376627 -47.337437 -20.450392 0
M  V30 51 H -17.831081 -43.779579 -22.864347 0
M  V30 52 H -19.381012 -45.002758 -24.379328 0
M  V30 53 H -19.971224 -47.388878 -23.913031 0
M  V30 54 H -19.358402 -40.334011 -24.167343 0
M  V30 55 H -19.390856 -39.353043 -25.671778 0
M  V30 56 H -18.612473 -40.971924 -25.671778 0
M  V30 57 H -14.390973 -42.114719 -22.398336 0
M  V30 58 H -14.378613 -43.039574 -23.938192 0
M  V30 59 H -13.972732 -41.289742 -23.938192 0
M  V30 60 H -17.236740 -36.817654 -22.897661 0
M  V30 61 H -18.745884 -37.175060 -23.019085 0
M  V30 62 H -19.391558 -35.451595 -21.484838 0
M  V30 63 H -18.252964 -34.736572 -22.267363 0
M  V30 64 H -19.764292 -33.347851 -23.424904 0
M  V30 65 H -18.478930 -34.151901 -23.773256 0
M  V30 66 H -20.163443 -34.967476 -25.783123 0
M  V30 67 H -18.740808 -34.605370 -25.268347 0
M  V30 68 H -17.554789 -39.120125 -23.635920 0
M  V30 69 H -16.433901 -37.548752 -24.894400 0
M  V30 70 H -17.065676 -38.066658 -27.795946 0
M  V30 71 H -15.989086 -37.543270 -26.802460 0
M  V30 72 H -14.402679 -39.051491 -27.134527 0
M  V30 73 H -15.158585 -38.889721 -25.784552 0
M  V30 74 H -15.562118 -41.623852 -26.546005 0
M  V30 75 H -14.742798 -40.660843 -25.639732 0
M  V30 76 H -14.693001 -39.612499 -20.709999 0
M  V30 77 H -14.683001 -39.602501 -20.700001 0
M  V30 END ATOM
M  V30 BEGIN BOND
M  V30 1 1 1 7
M  V30 2 2 7 8
M  V30 3 1 7 2
M  V30 4 1 6 5
M  V30 5 2 3 5
M  V30 6 1 5 4
M  V30 7 2 9 14
M  V30 8 1 9 1
M  V30 9 1 9 10
M  V30 10 2 10 11
M  V30 11 1 11 12
M  V30 12 1 11 6
M  V30 13 2 12 13
M  V30 14 1 13 17
M  V30 15 1 13 14
M  V30 16 2 15 20
M  V30 17 1 15 16
M  V30 18 2 16 17
M  V30 19 1 17 18
M  V30 20 2 18 19
M  V30 21 1 19 20
M  V30 22 2 25 24
M  V30 23 1 24 27 CFG=1
M  V30 24 2 26 24
M  V30 25 2 22 21
M  V30 26 1 28 29
M  V30 27 1 28 32
M  V30 28 1 29 30
M  V30 29 1 30 31
M  V30 30 1 31 32
M  V30 31 1 32 22
M  V30 32 1 33 23
M  V30 33 1 33 38
M  V30 34 1 33 34
M  V30 35 1 34 35
M  V30 36 1 34 22
M  V30 37 1 35 36
M  V30 38 1 36 37
M  V30 39 1 37 38
M  V30 40 1 38 24
M  V30 41 1 39 3
M  V30 42 1 39 25
M  V30 43 1 1 40
M  V30 44 1 1 41
M  V30 45 1 2 42
M  V30 46 1 4 43
M  V30 47 1 6 44
M  V30 48 1 6 45
M  V30 49 1 10 46
M  V30 50 1 12 47
M  V30 51 1 14 48
M  V30 52 1 15 49
M  V30 53 1 16 50
M  V30 54 1 18 51
M  V30 55 1 19 52
M  V30 56 1 20 53
M  V30 57 1 23 54
M  V30 58 1 23 55
M  V30 59 1 23 56
M  V30 60 1 27 57
M  V30 61 1 27 58
M  V30 62 1 27 59
M  V30 63 1 28 60
M  V30 64 1 28 61
M  V30 65 1 29 62
M  V30 66 1 29 63
M  V30 67 1 30 64
M  V30 68 1 30 65
M  V30 69 1 31 66
M  V30 70 1 31 67
M  V30 71 1 33 68 CFG=1
M  V30 72 1 34 69 CFG=1
M  V30 73 1 35 70
M  V30 74 1 35 71
M  V30 75 1 36 72
M  V30 76 1 36 73
M  V30 77 1 37 74
M  V30 78 1 37 75
M  V30 79 1 39 76
M  V30 80 1 39 77
M  V30 END BOND
M  V30 BEGIN COLLECTION
M  V30 MDLV30/STEABS ATOMS=(0)
M  V30 END COLLECTION
M  V30 END CTAB
M  END
>  <smiles>  (764) 
[H]OC(=O)C([H])([H])c1c([H])c(-c2c([H])c([H])c([H])c([H])c2[H])c([H])c(C([H])([H])/C(=N\C([H])([H])N=[S@@](=O)(N2C([H])([H])C([H])([H])C([H])([H])[C@@]([H])(C(=O)N3C([H])([H])C([H])([H])C([H])([H])C3([H])[H])[C@@]2([H])C([H])([H])[H])C([H])([H])[H])O[H])c1[H]

>  <error>  (764) 


>  <∆∆G>  (764) 
nan

>  <∆G_bound>  (764) 
nan

>  <∆G_unbound>  (764) 
nan

>  <comRMSD>  (764) 
0.0

>  <N_constrained_atoms>  (764) 
38.0

>  <N_unconstrained_atoms>  (764) 
1.0

>  <runtime>  (764) 
2.575356

>  <regarded>  (764) 
['5hmw-b', 'd0866a']

>  <disregarded>  (764) 
[]

>  <LE>  (764) 
nan

>  <outcome>  (764) 
crashed

>  <percent_hybrid>  (764) 
48.0

$$$$
LIG
     RDKit          3D

 67 71  0  0  0  0  0  0  0  0999 V2000
  -15.8996  -43.1373  -16.8335 C   0  0  0  0  0  0  0  0  0  0  0  0
  -17.4487  -42.3630  -15.2297 O   0  0  0  0  0  0  0  0  0  0  0  0
  -15.0117  -40.5693  -20.8829 O   0  0  0  0  0  0  0  0  0  0  0  0
  -13.4385  -40.5308  -22.5371 O   0  0  0  0  0  0  0  0  0  0  0  0
  -14.0327  -41.0606  -21.4328 C   0  0  0  0  0  0  0  0  0  0  0  0
  -13.3116  -42.3176  -20.9820 C   0  0  0  0  0  0  0  0  0  0  0  0
  -17.3307  -42.7974  -16.5042 C   0  0  0  0  0  0  0  0  0  0  0  0
  -18.3190  -42.9476  -17.2055 O   0  0  0  0  0  0  0  0  0  0  0  0
  -15.6314  -43.5503  -18.2646 C   0  0  0  0  0  0  0  0  0  0  0  0
  -14.5082  -42.9987  -18.8869 C   0  0  0  0  0  0  0  0  0  0  0  0
  -14.2820  -43.2009  -20.2456 C   0  0  0  0  0  0  0  0  0  0  0  0
  -15.1359  -44.0311  -20.9741 C   0  0  0  0  0  0  0  0  0  0  0  0
  -16.2611  -44.6118  -20.3784 C   0  0  0  0  0  0  0  0  0  0  0  0
  -16.4783  -44.3953  -19.0092 C   0  0  0  0  0  0  0  0  0  0  0  0
  -18.2745  -47.3643  -21.9724 C   0  0  0  0  0  0  0  0  0  0  0  0
  -17.5094  -46.6749  -21.0358 C   0  0  0  0  0  0  0  0  0  0  0  0
  -17.2165  -45.3235  -21.2329 C   0  0  0  0  0  0  0  0  0  0  0  0
  -17.7874  -44.6624  -22.3391 C   0  0  0  0  0  0  0  0  0  0  0  0
  -18.5506  -45.3526  -23.2738 C   0  0  0  0  0  0  0  0  0  0  0  0
  -18.7453  -46.7174  -23.1118 C   0  0  0  0  0  0  0  0  0  0  0  0
  -11.6117  -32.5349  -20.5825 O   0  0  0  0  0  0  0  0  0  0  0  0
  -12.0916  -33.5860  -20.1701 C   0  0  0  0  0  0  0  0  0  0  0  0
  -13.4066  -33.6500  -19.4992 C   0  0  0  0  0  0  0  0  0  0  0  0
  -13.9080  -34.9143  -19.1605 C   0  0  0  0  0  0  0  0  0  0  0  0
  -13.1679  -36.0827  -19.3926 N   0  0  0  0  0  0  0  0  0  0  0  0
  -12.1567  -36.0120  -20.4340 C   0  0  1  0  0  0  0  0  0  0  0  0
  -11.4391  -34.7831  -20.2822 N   0  0  0  0  0  0  0  0  0  0  0  0
  -14.0834  -32.4828  -19.1367 C   0  0  0  0  0  0  0  0  0  0  0  0
  -15.0971  -34.9819  -18.4286 C   0  0  0  0  0  0  0  0  0  0  0  0
  -15.7724  -33.8179  -18.0558 C   0  0  0  0  0  0  0  0  0  0  0  0
  -15.2592  -32.5700  -18.3987 C   0  0  0  0  0  0  0  0  0  0  0  0
  -11.2255  -37.2233  -20.3527 C   0  0  0  0  0  0  0  0  0  0  0  0
  -12.0018  -38.3312  -21.0464 C   0  0  0  0  0  0  0  0  0  0  0  0
  -12.7472  -37.6364  -22.1924 C   0  0  2  0  0  0  0  0  0  0  0  0
  -12.7918  -36.1441  -21.8226 C   0  0  0  0  0  0  0  0  0  0  0  0
  -14.2042  -39.5062  -23.1779 C   0  0  0  0  0  0  0  0  0  0  0  0
  -14.1642  -38.1700  -22.4397 C   0  0  0  0  0  0  0  0  0  0  0  0
  -15.3105  -42.2426  -16.5948 H   0  0  0  0  0  0  0  0  0  0  0  0
  -15.5602  -43.9440  -16.1771 H   0  0  0  0  0  0  0  0  0  0  0  0
  -18.3722  -42.6277  -14.9934 H   0  0  0  0  0  0  0  0  0  0  0  0
  -12.9428  -42.8627  -21.8523 H   0  0  0  0  0  0  0  0  0  0  0  0
  -12.4574  -42.0431  -20.3551 H   0  0  0  0  0  0  0  0  0  0  0  0
  -13.8652  -42.3097  -18.3405 H   0  0  0  0  0  0  0  0  0  0  0  0
  -14.9648  -44.1644  -22.0431 H   0  0  0  0  0  0  0  0  0  0  0  0
  -17.3777  -44.8068  -18.5570 H   0  0  0  0  0  0  0  0  0  0  0  0
  -18.4474  -48.4283  -21.8611 H   0  0  0  0  0  0  0  0  0  0  0  0
  -17.0918  -47.2122  -20.1906 H   0  0  0  0  0  0  0  0  0  0  0  0
  -17.5977  -43.6014  -22.4932 H   0  0  0  0  0  0  0  0  0  0  0  0
  -18.9487  -44.8382  -24.1420 H   0  0  0  0  0  0  0  0  0  0  0  0
  -19.2606  -47.2925  -23.8772 H   0  0  0  0  0  0  0  0  0  0  0  0
  -13.7507  -36.9146  -19.4313 H   0  0  0  0  0  0  0  0  0  0  0  0
  -10.5037  -34.7659  -20.6744 H   0  0  0  0  0  0  0  0  0  0  0  0
  -13.6734  -31.5079  -19.3575 H   0  0  0  0  0  0  0  0  0  0  0  0
  -15.4883  -35.9437  -18.1049 H   0  0  0  0  0  0  0  0  0  0  0  0
  -16.6737  -33.8864  -17.4504 H   0  0  0  0  0  0  0  0  0  0  0  0
  -15.7562  -31.6686  -18.0462 H   0  0  0  0  0  0  0  0  0  0  0  0
  -10.2940  -37.0448  -20.9030 H   0  0  0  0  0  0  0  0  0  0  0  0
  -10.9573  -37.4938  -19.3258 H   0  0  0  0  0  0  0  0  0  0  0  0
  -11.3354  -39.1201  -21.4102 H   0  0  0  0  0  0  0  0  0  0  0  0
  -12.6976  -38.7880  -20.3341 H   0  0  0  0  0  0  0  0  0  0  0  0
  -12.1528  -37.7456  -23.1072 H   0  0  0  0  0  0  0  0  0  0  0  0
  -13.8025  -35.7228  -21.8716 H   0  0  0  0  0  0  0  0  0  0  0  0
  -12.2012  -35.5900  -22.5562 H   0  0  0  0  0  0  0  0  0  0  0  0
  -13.7918  -39.3801  -24.1831 H   0  0  0  0  0  0  0  0  0  0  0  0
  -15.2401  -39.8414  -23.3155 H   0  0  0  0  0  0  0  0  0  0  0  0
  -14.6905  -38.2388  -21.4815 H   0  0  0  0  0  0  0  0  0  0  0  0
  -14.7374  -37.4514  -23.0380 H   0  0  0  0  0  0  0  0  0  0  0  0
  1  7  1  0
  7  8  2  0
  7  2  1  0
  6  5  1  0
  3  5  2  0
  5  4  1  0
  9 14  2  0
  9  1  1  0
  9 10  1  0
 10 11  2  0
 11 12  1  0
 11  6  1  0
 12 13  2  0
 13 17  1  0
 13 14  1  0
 15 20  2  0
 15 16  1  0
 16 17  2  0
 17 18  1  0
 18 19  2  0
 19 20  1  0
 22 21  2  0
 22 27  1  0
 22 23  1  0
 23 28  2  0
 23 24  1  0
 24 25  1  0
 24 29  2  0
 26 25  1  1
 26 27  1  0
 26 35  1  0
 26 32  1  0
 28 31  1  0
 29 30  1  0
 30 31  2  0
 32 33  1  0
 33 34  1  0
 34 35  1  0
 36  4  1  0
 37 36  1  0
 37 34  1  0
  1 38  1  0
  1 39  1  0
  2 40  1  0
  6 41  1  0
  6 42  1  0
 10 43  1  0
 12 44  1  0
 14 45  1  0
 15 46  1  0
 16 47  1  0
 18 48  1  0
 19 49  1  0
 20 50  1  0
 25 51  1  0
 27 52  1  0
 28 53  1  0
 29 54  1  0
 30 55  1  0
 31 56  1  0
 32 57  1  0
 32 58  1  0
 33 59  1  0
 33 60  1  0
 34 61  1  6
 35 62  1  0
 35 63  1  0
 36 64  1  0
 36 65  1  0
 37 66  1  0
 37 67  1  0
M  END
>  <smiles>  (765) 
[H]OC(=O)C([H])([H])c1c([H])c(-c2c([H])c([H])c([H])c([H])c2[H])c([H])c(C([H])([H])C(=O)OC([H])([H])C([H])([H])[C@]2([H])C([H])([H])C([H])([H])[C@@]3(N([H])C(=O)c4c([H])c([H])c([H])c([H])c4N3[H])C2([H])[H])c1[H]

>  <error>  (765) 


>  <∆∆G>  (765) 
-180.004197

>  <∆G_bound>  (765) 
51.031069

>  <∆G_unbound>  (765) 
231.035266

>  <comRMSD>  (765) 
0.910033

>  <N_constrained_atoms>  (765) 
35.0

>  <N_unconstrained_atoms>  (765) 
2.0

>  <runtime>  (765) 
6.557966

>  <regarded>  (765) 
['5hmw-b', 'd1196a']

>  <disregarded>  (765) 
[]

>  <LE>  (765) 
4.864978

>  <outcome>  (765) 
acceptable

>  <percent_hybrid>  (765) 
43.0

$$$$
LIG
     RDKit          3D

 55 57  0  0  0  0  0  0  0  0999 V2000
  -15.7294  -42.7184  -17.1007 C   0  0  1  0  0  0  0  0  0  0  0  0
  -17.6900  -41.5403  -16.3567 O   0  0  0  0  0  0  0  0  0  0  0  0
  -15.8764  -40.9166  -23.4276 O   0  0  0  0  0  0  0  0  0  0  0  0
  -14.0013  -39.7103  -23.5142 O   0  0  0  0  0  0  0  0  0  0  0  0
  -14.8100  -40.6185  -22.9170 C   0  0  0  0  0  0  0  0  0  0  0  0
  -14.1874  -41.1475  -21.6436 C   0  0  0  0  0  0  0  0  0  0  0  0
  -16.4312  -41.3800  -16.8109 C   0  0  0  0  0  0  0  0  0  0  0  0
  -15.9767  -40.2574  -16.9744 O   0  0  0  0  0  0  0  0  0  0  0  0
  -15.7485  -42.9045  -18.6203 C   0  0  0  0  0  0  0  0  0  0  0  0
  -15.0942  -41.9690  -19.4444 C   0  0  0  0  0  0  0  0  0  0  0  0
  -15.0186  -42.1150  -20.8310 C   0  0  0  0  0  0  0  0  0  0  0  0
  -15.6696  -43.2022  -21.4062 C   0  0  0  0  0  0  0  0  0  0  0  0
  -16.4622  -44.0818  -20.6426 C   0  0  0  0  0  0  0  0  0  0  0  0
  -16.4629  -43.9445  -19.2410 C   0  0  0  0  0  0  0  0  0  0  0  0
  -18.0241  -47.3456  -21.7326 C   0  0  0  0  0  0  0  0  0  0  0  0
  -17.3255  -46.4174  -20.9649 C   0  0  0  0  0  0  0  0  0  0  0  0
  -17.2857  -45.0739  -21.3501 C   0  0  0  0  0  0  0  0  0  0  0  0
  -18.0173  -44.6833  -22.4910 C   0  0  0  0  0  0  0  0  0  0  0  0
  -18.7048  -45.6120  -23.2617 C   0  0  0  0  0  0  0  0  0  0  0  0
  -18.6869  -46.9492  -22.8899 C   0  0  0  0  0  0  0  0  0  0  0  0
  -13.3832  -44.3352  -18.7374 O   0  0  0  0  0  0  0  0  0  0  0  0
  -12.5339  -43.2959  -18.3027 C   0  0  0  0  0  0  0  0  0  0  0  0
  -13.0542  -42.4917  -17.1030 C   0  0  0  0  0  0  0  0  0  0  0  0
  -14.3339  -42.9063  -16.3015 C   0  0  0  0  0  0  0  0  0  0  0  0
  -14.1518  -44.3680  -15.8188 C   0  0  0  0  0  0  0  0  0  0  0  0
  -13.8754  -44.5638  -14.3382 C   0  0  0  0  0  0  0  0  0  0  0  0
  -14.7902  -43.9082  -13.4881 O   0  0  0  0  0  0  0  0  0  0  0  0
  -15.2297  -42.6354  -13.9292 C   0  0  0  0  0  0  0  0  0  0  0  0
  -14.3209  -42.0438  -14.9957 C   0  0  0  0  0  0  0  0  0  0  0  0
  -16.4094  -43.4738  -16.6843 H   0  0  0  0  0  0  0  0  0  0  0  0
  -18.0381  -40.6342  -16.2315 H   0  0  0  0  0  0  0  0  0  0  0  0
  -14.4348  -39.5107  -24.3745 H   0  0  0  0  0  0  0  0  0  0  0  0
  -13.2476  -41.6479  -21.8978 H   0  0  0  0  0  0  0  0  0  0  0  0
  -13.9485  -40.2716  -21.0275 H   0  0  0  0  0  0  0  0  0  0  0  0
  -14.6048  -41.1074  -18.9932 H   0  0  0  0  0  0  0  0  0  0  0  0
  -15.5995  -43.3490  -22.4842 H   0  0  0  0  0  0  0  0  0  0  0  0
  -17.0521  -44.6263  -18.6348 H   0  0  0  0  0  0  0  0  0  0  0  0
  -17.9932  -48.3971  -21.4751 H   0  0  0  0  0  0  0  0  0  0  0  0
  -16.7688  -46.7573  -20.0971 H   0  0  0  0  0  0  0  0  0  0  0  0
  -18.0283  -43.6393  -22.8023 H   0  0  0  0  0  0  0  0  0  0  0  0
  -19.2319  -45.2970  -24.1564 H   0  0  0  0  0  0  0  0  0  0  0  0
  -19.1725  -47.6976  -23.5110 H   0  0  0  0  0  0  0  0  0  0  0  0
  -13.0422  -44.6089  -19.6121 H   0  0  0  0  0  0  0  0  0  0  0  0
  -12.3193  -42.6251  -19.1417 H   0  0  0  0  0  0  0  0  0  0  0  0
  -11.5909  -43.7577  -18.0144 H   0  0  0  0  0  0  0  0  0  0  0  0
  -12.2063  -42.4475  -16.4022 H   0  0  0  0  0  0  0  0  0  0  0  0
  -13.1596  -41.4425  -17.4073 H   0  0  0  0  0  0  0  0  0  0  0  0
  -14.9565  -45.0139  -16.1659 H   0  0  0  0  0  0  0  0  0  0  0  0
  -13.2372  -44.7328  -16.2374 H   0  0  0  0  0  0  0  0  0  0  0  0
  -13.8635  -45.6323  -14.0983 H   0  0  0  0  0  0  0  0  0  0  0  0
  -12.8692  -44.2014  -14.0907 H   0  0  0  0  0  0  0  0  0  0  0  0
  -16.2606  -42.7316  -14.2806 H   0  0  0  0  0  0  0  0  0  0  0  0
  -15.2549  -41.9773  -13.0545 H   0  0  0  0  0  0  0  0  0  0  0  0
  -13.3028  -42.0024  -14.5839 H   0  0  0  0  0  0  0  0  0  0  0  0
  -14.5791  -40.9994  -15.1834 H   0  0  0  0  0  0  0  0  0  0  0  0
  1  7  1  0
  7  8  2  0
  7  2  1  0
  6  5  1  0
  3  5  2  0
  5  4  1  0
  9 14  1  0
  9  1  1  0
  9 10  2  0
 10 11  1  0
 11 12  2  0
 11  6  1  0
 12 13  1  0
 13 17  1  0
 13 14  2  0
 15 20  2  0
 15 16  1  0
 16 17  2  0
 17 18  1  0
 18 19  2  0
 19 20  1  0
 22 21  1  0
 23 22  1  0
 24 23  1  0
 24 29  1  0
 24 25  1  0
 25 26  1  0
 26 27  1  0
 27 28  1  0
 28 29  1  0
  1 24  1  0
  1 30  1  1
  2 31  1  0
  4 32  1  0
  6 33  1  0
  6 34  1  0
 10 35  1  0
 12 36  1  0
 14 37  1  0
 15 38  1  0
 16 39  1  0
 18 40  1  0
 19 41  1  0
 20 42  1  0
 21 43  1  0
 22 44  1  0
 22 45  1  0
 23 46  1  0
 23 47  1  0
 25 48  1  0
 25 49  1  0
 26 50  1  0
 26 51  1  0
 28 52  1  0
 28 53  1  0
 29 54  1  0
 29 55  1  0
M  END
>  <smiles>  (766) 
[H]OC(=O)C([H])([H])c1c([H])c(-c2c([H])c([H])c([H])c([H])c2[H])c([H])c([C@]([H])(C(=O)O[H])C2(C([H])([H])C([H])([H])O[H])C([H])([H])C([H])([H])OC([H])([H])C2([H])[H])c1[H]

>  <error>  (766) 


>  <∆∆G>  (766) 
-144.903176

>  <∆G_bound>  (766) 
91.178333

>  <∆G_unbound>  (766) 
236.081509

>  <comRMSD>  (766) 
1.781625

>  <N_constrained_atoms>  (766) 
29.0

>  <N_unconstrained_atoms>  (766) 
0.0

>  <runtime>  (766) 
3.795675

>  <regarded>  (766) 
['5hmw-b', 'z0052a']

>  <disregarded>  (766) 
[]

>  <LE>  (766) 
4.996661

>  <outcome>  (766) 
too moved

>  <percent_hybrid>  (766) 
32.0

$$$$
LIG
     RDKit          3D

 45 47  0  0  0  0  0  0  0  0999 V2000
  -15.0430  -43.8472  -16.8456 C   0  0  0  0  0  0  0  0  0  0  0  0
  -17.2748  -43.0311  -16.5297 O   0  0  0  0  0  0  0  0  0  0  0  0
  -15.1912  -39.4571  -22.3704 N   0  0  0  0  0  0  0  0  0  0  0  0
  -16.3316  -40.4389  -20.7618 O   0  0  0  0  0  0  0  0  0  0  0  0
  -15.2014  -40.3795  -21.4812 C   0  0  0  0  0  0  0  0  0  0  0  0
  -14.1215  -41.3708  -21.0939 C   0  0  0  0  0  0  0  0  0  0  0  0
  -16.0203  -43.0308  -16.0392 C   0  0  0  0  0  0  0  0  0  0  0  0
  -15.7576  -42.4769  -14.9818 O   0  0  0  0  0  0  0  0  0  0  0  0
  -13.9652  -39.2515  -23.1368 C   0  0  0  0  0  0  0  0  0  0  0  0
  -15.2064  -43.7543  -18.3413 C   0  0  0  0  0  0  0  0  0  0  0  0
  -14.5229  -42.7390  -19.0139 C   0  0  0  0  0  0  0  0  0  0  0  0
  -14.6778  -42.5790  -20.3858 C   0  0  0  0  0  0  0  0  0  0  0  0
  -15.4807  -43.4758  -21.0971 C   0  0  0  0  0  0  0  0  0  0  0  0
  -16.2372  -44.4638  -20.4518 C   0  0  0  0  0  0  0  0  0  0  0  0
  -16.0729  -44.6005  -19.0625 C   0  0  0  0  0  0  0  0  0  0  0  0
  -18.1111  -47.4250  -21.8738 C   0  0  0  0  0  0  0  0  0  0  0  0
  -17.3377  -46.6499  -21.0133 C   0  0  0  0  0  0  0  0  0  0  0  0
  -17.1772  -45.2795  -21.2443 C   0  0  0  0  0  0  0  0  0  0  0  0
  -17.8930  -44.7046  -22.3170 C   0  0  0  0  0  0  0  0  0  0  0  0
  -18.6472  -45.4823  -23.1893 C   0  0  0  0  0  0  0  0  0  0  0  0
  -18.7193  -46.8521  -22.9847 C   0  0  0  0  0  0  0  0  0  0  0  0
  -13.2317  -38.0876  -22.5670 C   0  0  0  0  0  0  0  0  0  0  0  0
  -11.9341  -37.8712  -22.5819 N   0  0  0  0  0  0  0  0  0  0  0  0
  -11.7582  -36.6667  -21.9447 C   0  0  0  0  0  0  0  0  0  0  0  0
  -12.9648  -36.1260  -21.5732 C   0  0  0  0  0  0  0  0  0  0  0  0
  -13.8936  -37.0421  -21.9684 N   0  0  0  0  0  0  0  0  0  0  0  0
  -14.0325  -43.5123  -16.5772 H   0  0  0  0  0  0  0  0  0  0  0  0
  -15.1017  -44.8924  -16.5320 H   0  0  0  0  0  0  0  0  0  0  0  0
  -17.8335  -42.7450  -15.7699 H   0  0  0  0  0  0  0  0  0  0  0  0
  -16.9392  -39.7674  -21.1097 H   0  0  0  0  0  0  0  0  0  0  0  0
  -13.6012  -41.7353  -21.9834 H   0  0  0  0  0  0  0  0  0  0  0  0
  -13.3863  -40.8508  -20.4700 H   0  0  0  0  0  0  0  0  0  0  0  0
  -13.3090  -40.1209  -23.1723 H   0  0  0  0  0  0  0  0  0  0  0  0
  -14.2439  -39.0409  -24.1738 H   0  0  0  0  0  0  0  0  0  0  0  0
  -13.9018  -42.0374  -18.4592 H   0  0  0  0  0  0  0  0  0  0  0  0
  -15.5568  -43.3530  -22.1768 H   0  0  0  0  0  0  0  0  0  0  0  0
  -16.6575  -45.3425  -18.5281 H   0  0  0  0  0  0  0  0  0  0  0  0
  -18.1675  -48.4985  -21.7366 H   0  0  0  0  0  0  0  0  0  0  0  0
  -16.8093  -47.1414  -20.2031 H   0  0  0  0  0  0  0  0  0  0  0  0
  -17.8368  -43.6337  -22.5022 H   0  0  0  0  0  0  0  0  0  0  0  0
  -19.1481  -45.0257  -24.0367 H   0  0  0  0  0  0  0  0  0  0  0  0
  -19.2369  -47.4901  -23.6965 H   0  0  0  0  0  0  0  0  0  0  0  0
  -10.7713  -36.2476  -21.7973 H   0  0  0  0  0  0  0  0  0  0  0  0
  -13.2297  -35.2105  -21.0650 H   0  0  0  0  0  0  0  0  0  0  0  0
  -14.8961  -37.0044  -21.8363 H   0  0  0  0  0  0  0  0  0  0  0  0
  1  7  1  0
  7  8  2  0
  7  2  1  0
  6  5  1  0
  3  5  2  0
  5  4  1  0
  9  3  1  0
 10 15  2  0
 10  1  1  0
 10 11  1  0
 11 12  2  0
 12 13  1  0
 12  6  1  0
 13 14  2  0
 14 18  1  0
 14 15  1  0
 16 21  2  0
 16 17  1  0
 17 18  2  0
 18 19  1  0
 19 20  2  0
 20 21  1  0
 22  9  1  0
 22 23  2  0
 22 26  1  0
 23 24  1  0
 24 25  2  0
 25 26  1  0
  1 27  1  0
  1 28  1  0
  2 29  1  0
  4 30  1  0
  6 31  1  0
  6 32  1  0
  9 33  1  0
  9 34  1  0
 11 35  1  0
 13 36  1  0
 15 37  1  0
 16 38  1  0
 17 39  1  0
 19 40  1  0
 20 41  1  0
 21 42  1  0
 24 43  1  0
 25 44  1  0
 26 45  1  0
M  END
>  <smiles>  (767) 
[H]OC(=O)C([H])([H])c1c([H])c(-c2c([H])c([H])c([H])c([H])c2[H])c([H])c(C([H])([H])/C(=N/C([H])([H])c2nc([H])c([H])[nH]2)O[H])c1[H]

>  <error>  (767) 


>  <∆∆G>  (767) 
-77.278491

>  <∆G_bound>  (767) 
6.60694

>  <∆G_unbound>  (767) 
83.88543

>  <comRMSD>  (767) 
1.019777

>  <N_constrained_atoms>  (767) 
26.0

>  <N_unconstrained_atoms>  (767) 
0.0

>  <runtime>  (767) 
3.541261

>  <regarded>  (767) 
['5hmw-b', 'z0103a']

>  <disregarded>  (767) 
[]

>  <LE>  (767) 
2.97225

>  <outcome>  (767) 
too moved

>  <percent_hybrid>  (767) 
24.0

$$$$

     RDKit          2D

  0  0  0  0  0  0  0  0  0  0999 V2000
M  END
>  <smiles>  (768) 
nan

>  <error>  (768) 
DistanceError 5.91 Å

>  <∆∆G>  (768) 
nan

>  <∆G_bound>  (768) 
nan

>  <∆G_unbound>  (768) 
nan

>  <comRMSD>  (768) 
nan

>  <N_constrained_atoms>  (768) 
nan

>  <N_unconstrained_atoms>  (768) 
nan

>  <runtime>  (768) 
nan

>  <regarded>  (768) 
[]

>  <disregarded>  (768) 
[]

>  <LE>  (768) 
nan

>  <outcome>  (768) 
too distant

>  <percent_hybrid>  (768) 
nan

$$$$

     RDKit          2D

  0  0  0  0  0  0  0  0  0  0999 V2000
M  END
>  <smiles>  (769) 
nan

>  <error>  (769) 
RecursionError maximum recursion depth exceeded while calling a Python object

>  <∆∆G>  (769) 
nan

>  <∆G_bound>  (769) 
nan

>  <∆G_unbound>  (769) 
nan

>  <comRMSD>  (769) 
nan

>  <N_constrained_atoms>  (769) 
nan

>  <N_unconstrained_atoms>  (769) 
nan

>  <runtime>  (769) 
nan

>  <regarded>  (769) 
[]

>  <disregarded>  (769) 
[]

>  <LE>  (769) 
nan

>  <outcome>  (769) 
crashed

>  <percent_hybrid>  (769) 
nan

$$$$
LIG
     RDKit          3D

 43 45  0  0  0  0  0  0  0  0999 V2000
  -17.5758  -42.3069  -17.1694 C   0  0  0  0  0  0  0  0  0  0  0  0
  -17.9891  -40.1990  -16.1511 O   0  0  0  0  0  0  0  0  0  0  0  0
  -12.5353  -41.7203  -17.9831 O   0  0  0  0  0  0  0  0  0  0  0  0
  -12.3126  -43.9508  -18.1946 O   0  0  0  0  0  0  0  0  0  0  0  0
  -12.7117  -42.7369  -18.6429 C   0  0  0  0  0  0  0  0  0  0  0  0
  -13.4323  -42.8433  -20.0557 C   0  0  1  0  0  0  0  0  0  0  0  0
  -17.9048  -40.8421  -17.3342 C   0  0  0  0  0  0  0  0  0  0  0  0
  -18.1285  -40.2405  -18.3719 O   0  0  0  0  0  0  0  0  0  0  0  0
  -12.8951  -44.0734  -20.6868 N   0  0  0  0  0  0  0  0  0  0  0  0
  -16.9050  -42.9114  -18.3839 C   0  0  0  0  0  0  0  0  0  0  0  0
  -15.5752  -42.5761  -18.6784 C   0  0  0  0  0  0  0  0  0  0  0  0
  -14.9358  -43.0549  -19.8304 C   0  0  0  0  0  0  0  0  0  0  0  0
  -15.7116  -43.8104  -20.7285 C   0  0  0  0  0  0  0  0  0  0  0  0
  -17.0288  -44.1889  -20.4408 C   0  0  0  0  0  0  0  0  0  0  0  0
  -17.6132  -43.7494  -19.2535 C   0  0  0  0  0  0  0  0  0  0  0  0
  -18.4331  -47.2178  -22.1540 C   0  0  0  0  0  0  0  0  0  0  0  0
  -17.8918  -46.4015  -21.1677 C   0  0  0  0  0  0  0  0  0  0  0  0
  -17.7423  -45.0280  -21.3968 C   0  0  0  0  0  0  0  0  0  0  0  0
  -18.1975  -44.4802  -22.6054 C   0  0  0  0  0  0  0  0  0  0  0  0
  -18.7435  -45.2967  -23.5884 C   0  0  0  0  0  0  0  0  0  0  0  0
  -18.8192  -46.6707  -23.3758 C   0  0  0  0  0  0  0  0  0  0  0  0
  -13.0626  -41.6430  -20.8746 C   0  0  0  0  0  0  0  0  0  0  0  0
  -13.6448  -41.0192  -21.9594 C   0  0  0  0  0  0  0  0  0  0  0  0
  -12.9183  -39.9184  -22.3470 N   0  0  0  0  0  0  0  0  0  0  0  0
  -11.9302  -39.8302  -21.4904 C   0  0  0  0  0  0  0  0  0  0  0  0
  -11.9483  -40.8665  -20.6061 N   0  0  0  0  0  0  0  0  0  0  0  0
  -16.9172  -42.4399  -16.3031 H   0  0  0  0  0  0  0  0  0  0  0  0
  -18.5169  -42.8215  -16.9604 H   0  0  0  0  0  0  0  0  0  0  0  0
  -18.2269  -39.2806  -16.3965 H   0  0  0  0  0  0  0  0  0  0  0  0
  -12.3910  -44.5719  -18.9695 H   0  0  0  0  0  0  0  0  0  0  0  0
  -15.0494  -41.9216  -17.9827 H   0  0  0  0  0  0  0  0  0  0  0  0
  -15.2931  -44.1596  -21.6702 H   0  0  0  0  0  0  0  0  0  0  0  0
  -18.6488  -44.0080  -19.0400 H   0  0  0  0  0  0  0  0  0  0  0  0
  -18.5200  -48.2875  -21.9939 H   0  0  0  0  0  0  0  0  0  0  0  0
  -17.5475  -46.8445  -20.2380 H   0  0  0  0  0  0  0  0  0  0  0  0
  -18.0961  -43.4127  -22.7920 H   0  0  0  0  0  0  0  0  0  0  0  0
  -19.0814  -44.8667  -24.5252 H   0  0  0  0  0  0  0  0  0  0  0  0
  -19.1972  -47.3245  -24.1594 H   0  0  0  0  0  0  0  0  0  0  0  0
  -14.5479  -41.3022  -22.4864 H   0  0  0  0  0  0  0  0  0  0  0  0
  -11.1777  -39.0525  -21.4622 H   0  0  0  0  0  0  0  0  0  0  0  0
  -13.3539  -44.2228  -21.5879 H   0  0  0  0  0  0  0  0  0  0  0  0
  -11.9541  -43.8847  -21.0645 H   0  0  0  0  0  0  0  0  0  0  0  0
  -11.3100  -40.9832  -19.8254 H   0  0  0  0  0  0  0  0  0  0  0  0
  1  7  1  0
  7  8  2  0
  7  2  1  0
  6  5  1  0
  3  5  2  0
  5  4  1  0
  6  9  1  6
 10 15  2  0
 10  1  1  0
 10 11  1  0
 11 12  2  0
 12 13  1  0
 12  6  1  0
 13 14  2  0
 14 18  1  0
 14 15  1  0
 16 21  2  0
 16 17  1  0
 17 18  2  0
 18 19  1  0
 19 20  2  0
 20 21  1  0
 22 23  2  0
 22 26  1  0
 23 24  1  0
 24 25  2  0
 25 26  1  0
  6 22  1  0
  1 27  1  0
  1 28  1  0
  2 29  1  0
  4 30  1  0
 11 31  1  0
 13 32  1  0
 15 33  1  0
 16 34  1  0
 17 35  1  0
 19 36  1  0
 20 37  1  0
 21 38  1  0
 23 39  1  0
 25 40  1  0
  9 41  1  0
  9 42  1  0
 26 43  1  0
M  END
>  <smiles>  (770) 
[H]OC(=O)C([H])([H])c1c([H])c(-c2c([H])c([H])c([H])c([H])c2[H])c([H])c([C@](N)(C(=O)O[H])c2[nH]c([H])nc2[H])c1[H]

>  <error>  (770) 


>  <∆∆G>  (770) 
-41.539223

>  <∆G_bound>  (770) 
-9.249562

>  <∆G_unbound>  (770) 
32.289662

>  <comRMSD>  (770) 
2.170722

>  <N_constrained_atoms>  (770) 
26.0

>  <N_unconstrained_atoms>  (770) 
0.0

>  <runtime>  (770) 
3.723821

>  <regarded>  (770) 
['5hmw-b', 'z0875c']

>  <disregarded>  (770) 
[]

>  <LE>  (770) 
1.597662

>  <outcome>  (770) 
too moved

>  <percent_hybrid>  (770) 
24.0

$$$$
LIG
     RDKit          3D

 60 63  0  0  0  0  0  0  0  0999 V2000
  -15.0653  -44.1270  -17.2552 C   0  0  0  0  0  0  0  0  0  0  0  0
  -16.9481  -42.6183  -17.3200 O   0  0  0  0  0  0  0  0  0  0  0  0
  -13.8308  -39.4619  -20.8262 O   0  0  0  0  0  0  0  0  0  0  0  0
  -13.7026  -40.8457  -19.0207 O   0  0  0  0  0  0  0  0  0  0  0  0
  -13.6355  -40.5840  -20.3665 C   0  0  0  0  0  0  0  0  0  0  0  0
  -13.4012  -41.7766  -21.2401 C   0  0  0  0  0  0  0  0  0  0  0  0
  -16.0572  -43.2569  -16.5427 C   0  0  0  0  0  0  0  0  0  0  0  0
  -16.0173  -43.1913  -15.2607 N   0  0  0  0  0  0  0  0  0  0  0  0
  -13.3559  -42.2570  -18.7018 O   0  0  0  0  0  0  0  0  0  0  0  0
  -19.6682  -46.3100  -24.7970 C   0  0  0  0  0  0  0  0  0  0  0  0
  -20.2942  -46.5189  -25.7952 C   0  0  0  0  0  0  0  0  0  0  0  0
  -21.0324  -46.6833  -27.0276 C   0  0  0  0  0  0  0  0  0  0  0  0
  -22.0953  -45.7433  -27.0943 O   0  0  0  0  0  0  0  0  0  0  0  0
  -13.9052  -38.3323  -16.1418 O   0  0  0  0  0  0  0  0  0  0  0  0
  -16.9561  -42.1184  -14.3258 S   0  0  0  0  0  0  0  0  0  0  0  0
  -18.0726  -41.5863  -15.1947 O   0  0  0  0  0  0  0  0  0  0  0  0
  -14.8070  -38.1279  -17.2251 C   0  0  0  0  0  0  0  0  0  0  0  0
  -15.4439  -43.0493  -22.7758 O   0  0  0  0  0  0  0  0  0  0  0  0
  -14.6357  -43.7949  -23.6734 C   0  0  0  0  0  0  0  0  0  0  0  0
  -15.0770  -43.9811  -18.7432 C   0  0  0  0  0  0  0  0  0  0  0  0
  -14.2465  -43.0623  -19.3723 C   0  0  0  0  0  0  0  0  0  0  0  0
  -14.3044  -42.8472  -20.7365 C   0  0  0  0  0  0  0  0  0  0  0  0
  -15.2791  -43.4798  -21.4833 C   0  0  0  0  0  0  0  0  0  0  0  0
  -16.1969  -44.3662  -20.8775 C   0  0  0  0  0  0  0  0  0  0  0  0
  -16.0471  -44.6483  -19.5118 C   0  0  0  0  0  0  0  0  0  0  0  0
  -18.4356  -46.7633  -22.7130 C   0  0  0  0  0  0  0  0  0  0  0  0
  -17.5813  -46.2806  -21.7249 C   0  0  0  0  0  0  0  0  0  0  0  0
  -17.3172  -44.9079  -21.6504 C   0  0  0  0  0  0  0  0  0  0  0  0
  -18.0687  -44.0266  -22.4455 C   0  0  0  0  0  0  0  0  0  0  0  0
  -18.8711  -44.5034  -23.4593 C   0  0  0  0  0  0  0  0  0  0  0  0
  -18.9804  -45.8726  -23.6360 C   0  0  0  0  0  0  0  0  0  0  0  0
  -13.5023  -39.1941  -14.0091 C   0  0  0  0  0  0  0  0  0  0  0  0
  -13.7981  -40.0289  -12.9292 C   0  0  0  0  0  0  0  0  0  0  0  0
  -14.9191  -40.8474  -12.9788 C   0  0  0  0  0  0  0  0  0  0  0  0
  -15.7415  -40.8071  -14.1040 C   0  0  0  0  0  0  0  0  0  0  0  0
  -15.4557  -39.9608  -15.1795 C   0  0  0  0  0  0  0  0  0  0  0  0
  -14.3270  -39.1551  -15.1369 C   0  0  0  0  0  0  0  0  0  0  0  0
  -14.0699  -43.8920  -16.8582 H   0  0  0  0  0  0  0  0  0  0  0  0
  -15.2545  -45.1728  -16.9967 H   0  0  0  0  0  0  0  0  0  0  0  0
  -17.6128  -42.1652  -16.7660 H   0  0  0  0  0  0  0  0  0  0  0  0
  -13.6257  -41.4895  -22.2708 H   0  0  0  0  0  0  0  0  0  0  0  0
  -12.3494  -42.0723  -21.1840 H   0  0  0  0  0  0  0  0  0  0  0  0
  -21.4236  -47.6954  -27.1574 H   0  0  0  0  0  0  0  0  0  0  0  0
  -20.3511  -46.4414  -27.8380 H   0  0  0  0  0  0  0  0  0  0  0  0
  -22.8593  -46.1763  -26.6522 H   0  0  0  0  0  0  0  0  0  0  0  0
  -15.7420  -37.6776  -16.8750 H   0  0  0  0  0  0  0  0  0  0  0  0
  -14.3382  -37.4263  -17.9216 H   0  0  0  0  0  0  0  0  0  0  0  0
  -15.0019  -39.0552  -17.7685 H   0  0  0  0  0  0  0  0  0  0  0  0
  -14.4337  -43.1711  -24.5479 H   0  0  0  0  0  0  0  0  0  0  0  0
  -13.6785  -44.1090  -23.2430 H   0  0  0  0  0  0  0  0  0  0  0  0
  -15.2106  -44.6629  -23.9943 H   0  0  0  0  0  0  0  0  0  0  0  0
  -16.7623  -45.3059  -19.0225 H   0  0  0  0  0  0  0  0  0  0  0  0
  -18.6038  -47.8319  -22.8142 H   0  0  0  0  0  0  0  0  0  0  0  0
  -17.0528  -46.9884  -21.0938 H   0  0  0  0  0  0  0  0  0  0  0  0
  -17.9370  -42.9496  -22.3502 H   0  0  0  0  0  0  0  0  0  0  0  0
  -19.3574  -43.8057  -24.1351 H   0  0  0  0  0  0  0  0  0  0  0  0
  -12.6123  -38.5692  -13.9765 H   0  0  0  0  0  0  0  0  0  0  0  0
  -13.1380  -40.0533  -12.0663 H   0  0  0  0  0  0  0  0  0  0  0  0
  -15.1147  -41.5409  -12.1654 H   0  0  0  0  0  0  0  0  0  0  0  0
  -16.0891  -39.9952  -16.0589 H   0  0  0  0  0  0  0  0  0  0  0  0
  1  7  1  0
  7  8  2  0
  7  2  1  0
  6  5  1  0
  3  5  2  0
  5  4  1  0
  9  4  1  0
 12 13  1  0
 12 11  1  0
 11 10  3  0
 16 15  2  0
 17 14  1  0
 15  8  1  0
 18 19  1  0
 20 25  1  0
 20  1  1  0
 20 21  2  0
 21 22  1  0
 22 23  2  0
 22  6  1  0
 23 24  1  0
 24 28  1  0
 24 25  2  0
 26 31  2  0
 26 27  1  0
 27 28  2  0
 28 29  1  0
 29 30  2  0
 30 31  1  0
 32 37  2  0
 32 33  1  0
 33 34  2  0
 34 35  1  0
 15 35  1  1
 35 36  2  0
 36 37  1  0
 37 14  1  0
  9 21  1  0
 18 23  1  0
 10 31  1  0
  1 38  1  0
  1 39  1  0
  2 40  1  0
  6 41  1  0
  6 42  1  0
 12 43  1  0
 12 44  1  0
 13 45  1  0
 17 46  1  0
 17 47  1  0
 17 48  1  0
 19 49  1  0
 19 50  1  0
 19 51  1  0
 25 52  1  0
 26 53  1  0
 27 54  1  0
 29 55  1  0
 30 56  1  0
 32 57  1  0
 33 58  1  0
 34 59  1  0
 36 60  1  0
M  END
>  <smiles>  (771) 
[H]O/C(=N\[S@@](=O)c1c([H])c([H])c([H])c(OC([H])([H])[H])c1[H])C([H])([H])c1c([H])c(-c2c([H])c([H])c(C#CC([H])([H])O[H])c([H])c2[H])c(OC([H])([H])[H])c2c1OOC(=O)C2([H])[H]

>  <error>  (771) 


>  <∆∆G>  (771) 
-41.60102

>  <∆G_bound>  (771) 
85.225584

>  <∆G_unbound>  (771) 
126.826604

>  <comRMSD>  (771) 
0.894684

>  <N_constrained_atoms>  (771) 
37.0

>  <N_unconstrained_atoms>  (771) 
0.0

>  <runtime>  (771) 
4.44353

>  <regarded>  (771) 
['5hmw-b', '5i3p-a']

>  <disregarded>  (771) 
[]

>  <LE>  (771) 
1.124352

>  <outcome>  (771) 
acceptable

>  <percent_hybrid>  (771) 
46.0

$$$$
LIG
     RDKit          3D

 35 36  0  0  0  0  0  0  0  0999 V2000
  -15.4001  -43.4593  -16.7176 C   0  0  0  0  0  0  0  0  0  0  0  0
  -17.7366  -42.8814  -16.7237 O   0  0  0  0  0  0  0  0  0  0  0  0
  -14.3320  -40.2634  -20.9360 O   0  0  0  0  0  0  0  0  0  0  0  0
  -12.2489  -40.2772  -21.7078 O   0  0  0  0  0  0  0  0  0  0  0  0
  -13.3256  -40.9055  -21.1869 C   0  0  0  0  0  0  0  0  0  0  0  0
  -13.0855  -42.3823  -20.9995 C   0  0  0  0  0  0  0  0  0  0  0  0
  -16.5297  -42.6276  -16.1704 C   0  0  0  0  0  0  0  0  0  0  0  0
  -16.4343  -41.8390  -15.2421 O   0  0  0  0  0  0  0  0  0  0  0  0
  -17.3300  -44.9834  -18.2911 O   0  0  0  0  0  0  0  0  0  0  0  0
  -15.3597  -43.6261  -18.2181 C   0  0  0  0  0  0  0  0  0  0  0  0
  -14.3192  -42.9895  -18.9019 C   0  0  0  0  0  0  0  0  0  0  0  0
  -14.2025  -43.0928  -20.2848 C   0  0  0  0  0  0  0  0  0  0  0  0
  -15.1444  -43.8408  -20.9975 C   0  0  0  0  0  0  0  0  0  0  0  0
  -16.2167  -44.4883  -20.3578 C   0  0  0  0  0  0  0  0  0  0  0  0
  -16.2914  -44.3827  -18.9578 C   0  0  0  0  0  0  0  0  0  0  0  0
  -18.2275  -47.2802  -21.9161 C   0  0  0  0  0  0  0  0  0  0  0  0
  -17.4652  -46.5682  -20.9927 C   0  0  0  0  0  0  0  0  0  0  0  0
  -17.1873  -45.2120  -21.1987 C   0  0  0  0  0  0  0  0  0  0  0  0
  -17.7737  -44.5739  -22.3106 C   0  0  0  0  0  0  0  0  0  0  0  0
  -18.5344  -45.2857  -23.2341 C   0  0  0  0  0  0  0  0  0  0  0  0
  -18.7150  -46.6510  -23.0572 C   0  0  0  0  0  0  0  0  0  0  0  0
  -14.4736  -42.9751  -16.3808 H   0  0  0  0  0  0  0  0  0  0  0  0
  -15.3922  -44.4406  -16.2428 H   0  0  0  0  0  0  0  0  0  0  0  0
  -18.3487  -42.4637  -16.0696 H   0  0  0  0  0  0  0  0  0  0  0  0
  -12.5465  -39.3468  -21.7805 H   0  0  0  0  0  0  0  0  0  0  0  0
  -12.9650  -42.8385  -21.9822 H   0  0  0  0  0  0  0  0  0  0  0  0
  -12.1548  -42.5192  -20.4380 H   0  0  0  0  0  0  0  0  0  0  0  0
  -17.7803  -44.2258  -17.8524 H   0  0  0  0  0  0  0  0  0  0  0  0
  -13.5876  -42.3941  -18.3561 H   0  0  0  0  0  0  0  0  0  0  0  0
  -15.0378  -43.9244  -22.0798 H   0  0  0  0  0  0  0  0  0  0  0  0
  -18.3866  -48.3448  -21.7883 H   0  0  0  0  0  0  0  0  0  0  0  0
  -17.0414  -47.0889  -20.1391 H   0  0  0  0  0  0  0  0  0  0  0  0
  -17.5970  -43.5136  -22.4832 H   0  0  0  0  0  0  0  0  0  0  0  0
  -18.9414  -44.7854  -24.1067 H   0  0  0  0  0  0  0  0  0  0  0  0
  -19.2291  -47.2399  -23.8126 H   0  0  0  0  0  0  0  0  0  0  0  0
  1  7  1  0
  7  8  2  0
  7  2  1  0
  6  5  1  0
  3  5  2  0
  5  4  1  0
 10 15  2  0
 10  1  1  0
 10 11  1  0
 11 12  2  0
 12 13  1  0
 12  6  1  0
 13 14  2  0
 14 18  1  0
 14 15  1  0
 16 21  2  0
 16 17  1  0
 17 18  2  0
 18 19  1  0
 19 20  2  0
 20 21  1  0
  9 15  1  0
  1 22  1  0
  1 23  1  0
  2 24  1  0
  4 25  1  0
  6 26  1  0
  6 27  1  0
  9 28  1  0
 11 29  1  0
 13 30  1  0
 16 31  1  0
 17 32  1  0
 19 33  1  0
 20 34  1  0
 21 35  1  0
M  END
>  <smiles>  (772) 
[H]OC(=O)C([H])([H])c1c([H])c(-c2c([H])c([H])c([H])c([H])c2[H])c(O[H])c(C([H])([H])C(=O)O[H])c1[H]

>  <error>  (772) 


>  <∆∆G>  (772) 
-48.090407

>  <∆G_bound>  (772) 
-11.565866

>  <∆G_unbound>  (772) 
36.524541

>  <comRMSD>  (772) 
0.911535

>  <N_constrained_atoms>  (772) 
21.0

>  <N_unconstrained_atoms>  (772) 
0.0

>  <runtime>  (772) 
1.14177

>  <regarded>  (772) 
['5hmw-b', '5hn0-a']

>  <disregarded>  (772) 
[]

>  <LE>  (772) 
2.290019

>  <outcome>  (772) 
acceptable

>  <percent_hybrid>  (772) 
5.0

$$$$
LIG
     RDKit          3D

 38 39  0  0  0  0  0  0  0  0999 V2000
  -16.4945  -42.8085  -17.1330 C   0  0  0  0  0  0  0  0  0  0  0  0
  -18.8803  -42.7510  -17.2868 O   0  0  0  0  0  0  0  0  0  0  0  0
  -14.1906  -40.3800  -21.4834 O   0  0  0  0  0  0  0  0  0  0  0  0
  -11.9794  -40.5044  -21.3716 O   0  0  0  0  0  0  0  0  0  0  0  0
  -13.2042  -41.0603  -21.2503 C   0  0  0  0  0  0  0  0  0  0  0  0
  -13.1471  -42.5120  -20.8466 C   0  0  0  0  0  0  0  0  0  0  0  0
  -17.7708  -42.0099  -17.0780 C   0  0  0  0  0  0  0  0  0  0  0  0
  -17.8612  -40.8119  -16.8597 O   0  0  0  0  0  0  0  0  0  0  0  0
  -14.9809  -44.1293  -22.4626 O   0  0  0  0  0  0  0  0  0  0  0  0
  -15.1198  -43.0582  -23.3950 C   0  0  0  0  0  0  0  0  0  0  0  0
  -16.0732  -43.2171  -18.5230 C   0  0  0  0  0  0  0  0  0  0  0  0
  -14.8607  -42.7542  -19.0430 C   0  0  0  0  0  0  0  0  0  0  0  0
  -14.4731  -43.0412  -20.3617 C   0  0  0  0  0  0  0  0  0  0  0  0
  -15.3365  -43.7872  -21.1780 C   0  0  0  0  0  0  0  0  0  0  0  0
  -16.5375  -44.3156  -20.6578 C   0  0  0  0  0  0  0  0  0  0  0  0
  -16.8819  -44.0324  -19.3256 C   0  0  0  0  0  0  0  0  0  0  0  0
  -18.2978  -47.3112  -22.0911 C   0  0  0  0  0  0  0  0  0  0  0  0
  -17.5922  -46.5027  -21.2085 C   0  0  0  0  0  0  0  0  0  0  0  0
  -17.4248  -45.1401  -21.4840 C   0  0  0  0  0  0  0  0  0  0  0  0
  -18.0633  -44.5908  -22.6076 C   0  0  0  0  0  0  0  0  0  0  0  0
  -18.7494  -45.4031  -23.5014 C   0  0  0  0  0  0  0  0  0  0  0  0
  -18.8165  -46.7722  -23.2647 C   0  0  0  0  0  0  0  0  0  0  0  0
  -15.7149  -42.1987  -16.6589 H   0  0  0  0  0  0  0  0  0  0  0  0
  -16.5914  -43.6886  -16.4995 H   0  0  0  0  0  0  0  0  0  0  0  0
  -19.6101  -42.1153  -17.1249 H   0  0  0  0  0  0  0  0  0  0  0  0
  -12.1826  -39.5788  -21.6182 H   0  0  0  0  0  0  0  0  0  0  0  0
  -12.8042  -43.0979  -21.6974 H   0  0  0  0  0  0  0  0  0  0  0  0
  -12.4046  -42.6276  -20.0479 H   0  0  0  0  0  0  0  0  0  0  0  0
  -15.7974  -42.2705  -23.0465 H   0  0  0  0  0  0  0  0  0  0  0  0
  -14.1416  -42.6313  -23.6187 H   0  0  0  0  0  0  0  0  0  0  0  0
  -15.5240  -43.4713  -24.3243 H   0  0  0  0  0  0  0  0  0  0  0  0
  -14.2107  -42.1366  -18.4233 H   0  0  0  0  0  0  0  0  0  0  0  0
  -17.8231  -44.4154  -18.9341 H   0  0  0  0  0  0  0  0  0  0  0  0
  -18.3774  -48.3774  -21.9104 H   0  0  0  0  0  0  0  0  0  0  0  0
  -17.1192  -46.9499  -20.3395 H   0  0  0  0  0  0  0  0  0  0  0  0
  -17.9772  -43.5269  -22.8143 H   0  0  0  0  0  0  0  0  0  0  0  0
  -19.1985  -44.9769  -24.3919 H   0  0  0  0  0  0  0  0  0  0  0  0
  -19.2839  -47.4315  -23.9921 H   0  0  0  0  0  0  0  0  0  0  0  0
  1  7  1  0
  7  8  2  0
  7  2  1  0
  6  5  1  0
  3  5  2  0
  5  4  1  0
  9 10  1  0
 11 16  2  0
 11  1  1  0
 11 12  1  0
 12 13  2  0
 13 14  1  0
 13  6  1  0
 14 15  2  0
 15 19  1  0
 15 16  1  0
 17 22  2  0
 17 18  1  0
 18 19  2  0
 19 20  1  0
 20 21  2  0
 21 22  1  0
  9 14  1  0
  1 23  1  0
  1 24  1  0
  2 25  1  0
  4 26  1  0
  6 27  1  0
  6 28  1  0
 10 29  1  0
 10 30  1  0
 10 31  1  0
 12 32  1  0
 16 33  1  0
 17 34  1  0
 18 35  1  0
 20 36  1  0
 21 37  1  0
 22 38  1  0
M  END
>  <smiles>  (773) 
[H]OC(=O)C([H])([H])c1c([H])c(-c2c([H])c([H])c([H])c([H])c2[H])c(OC([H])([H])[H])c(C([H])([H])C(=O)O[H])c1[H]

>  <error>  (773) 


>  <∆∆G>  (773) 
-51.265325

>  <∆G_bound>  (773) 
-31.325467

>  <∆G_unbound>  (773) 
19.939858

>  <comRMSD>  (773) 
1.335392

>  <N_constrained_atoms>  (773) 
22.0

>  <N_unconstrained_atoms>  (773) 
0.0

>  <runtime>  (773) 
2.368442

>  <regarded>  (773) 
['5hmw-b', '5f41-a']

>  <disregarded>  (773) 
[]

>  <LE>  (773) 
2.330242

>  <outcome>  (773) 
too moved

>  <percent_hybrid>  (773) 
10.0

$$$$
LIG
     RDKit          3D

 38 39  0  0  0  0  0  0  0  0999 V2000
  -16.5192  -42.7855  -17.0858 C   0  0  0  0  0  0  0  0  0  0  0  0
  -18.9026  -42.7188  -17.2759 O   0  0  0  0  0  0  0  0  0  0  0  0
  -14.1627  -40.3880  -21.4016 O   0  0  0  0  0  0  0  0  0  0  0  0
  -11.9516  -40.5337  -21.3204 O   0  0  0  0  0  0  0  0  0  0  0  0
  -13.1798  -41.0770  -21.1789 C   0  0  0  0  0  0  0  0  0  0  0  0
  -13.1313  -42.5267  -20.7669 C   0  0  0  0  0  0  0  0  0  0  0  0
  -17.7933  -41.9820  -17.0520 C   0  0  0  0  0  0  0  0  0  0  0  0
  -17.8823  -40.7832  -16.8371 O   0  0  0  0  0  0  0  0  0  0  0  0
  -14.9608  -44.1298  -22.3911 O   0  0  0  0  0  0  0  0  0  0  0  0
  -15.1135  -43.0513  -23.3130 C   0  0  0  0  0  0  0  0  0  0  0  0
  -16.0836  -43.2090  -18.4672 C   0  0  0  0  0  0  0  0  0  0  0  0
  -14.8624  -42.7548  -18.9757 C   0  0  0  0  0  0  0  0  0  0  0  0
  -14.4629  -43.0494  -20.2881 C   0  0  0  0  0  0  0  0  0  0  0  0
  -15.3238  -43.7942  -21.1079 C   0  0  0  0  0  0  0  0  0  0  0  0
  -16.5321  -44.3170  -20.5999 C   0  0  0  0  0  0  0  0  0  0  0  0
  -16.8878  -44.0266  -19.2730 C   0  0  0  0  0  0  0  0  0  0  0  0
  -18.2794  -47.3081  -22.0612 C   0  0  0  0  0  0  0  0  0  0  0  0
  -17.5770  -46.5041  -21.1714 C   0  0  0  0  0  0  0  0  0  0  0  0
  -17.4147  -45.1385  -21.4348 C   0  0  0  0  0  0  0  0  0  0  0  0
  -18.0530  -44.5833  -22.5559 C   0  0  0  0  0  0  0  0  0  0  0  0
  -18.7355  -45.3910  -23.4572 C   0  0  0  0  0  0  0  0  0  0  0  0
  -18.8011  -46.7617  -23.2301 C   0  0  0  0  0  0  0  0  0  0  0  0
  -15.7428  -42.1734  -16.6094 H   0  0  0  0  0  0  0  0  0  0  0  0
  -16.6258  -43.6583  -16.4444 H   0  0  0  0  0  0  0  0  0  0  0  0
  -19.6322  -42.0797  -17.1275 H   0  0  0  0  0  0  0  0  0  0  0  0
  -12.1489  -39.6077  -21.5699 H   0  0  0  0  0  0  0  0  0  0  0  0
  -12.7841  -43.1172  -21.6132 H   0  0  0  0  0  0  0  0  0  0  0  0
  -12.3951  -42.6402  -19.9623 H   0  0  0  0  0  0  0  0  0  0  0  0
  -15.5098  -43.4611  -24.2472 H   0  0  0  0  0  0  0  0  0  0  0  0
  -15.8020  -42.2752  -22.9595 H   0  0  0  0  0  0  0  0  0  0  0  0
  -14.1407  -42.6091  -23.5307 H   0  0  0  0  0  0  0  0  0  0  0  0
  -14.2170  -42.1358  -18.3526 H   0  0  0  0  0  0  0  0  0  0  0  0
  -17.8349  -44.4027  -18.8892 H   0  0  0  0  0  0  0  0  0  0  0  0
  -18.3547  -48.3761  -21.8897 H   0  0  0  0  0  0  0  0  0  0  0  0
  -17.1032  -46.9564  -20.3056 H   0  0  0  0  0  0  0  0  0  0  0  0
  -17.9704  -43.5177  -22.7545 H   0  0  0  0  0  0  0  0  0  0  0  0
  -19.1837  -44.9594  -24.3456 H   0  0  0  0  0  0  0  0  0  0  0  0
  -19.2671  -47.4170  -23.9620 H   0  0  0  0  0  0  0  0  0  0  0  0
  1  7  1  0
  7  8  2  0
  7  2  1  0
  6  5  1  0
  3  5  2  0
  5  4  1  0
  9 10  1  0
 11 16  2  0
 11  1  1  0
 11 12  1  0
 12 13  2  0
 13 14  1  0
 13  6  1  0
 14 15  2  0
 15 19  1  0
 15 16  1  0
 17 22  2  0
 17 18  1  0
 18 19  2  0
 19 20  1  0
 20 21  2  0
 21 22  1  0
  9 14  1  0
  1 23  1  0
  1 24  1  0
  2 25  1  0
  4 26  1  0
  6 27  1  0
  6 28  1  0
 10 29  1  0
 10 30  1  0
 10 31  1  0
 12 32  1  0
 16 33  1  0
 17 34  1  0
 18 35  1  0
 20 36  1  0
 21 37  1  0
 22 38  1  0
M  END
>  <smiles>  (774) 
[H]OC(=O)C([H])([H])c1c([H])c(-c2c([H])c([H])c([H])c([H])c2[H])c(OC([H])([H])[H])c(C([H])([H])C(=O)O[H])c1[H]

>  <error>  (774) 


>  <∆∆G>  (774) 
-51.412098

>  <∆G_bound>  (774) 
-31.47224

>  <∆G_unbound>  (774) 
19.939858

>  <comRMSD>  (774) 
1.339393

>  <N_constrained_atoms>  (774) 
22.0

>  <N_unconstrained_atoms>  (774) 
0.0

>  <runtime>  (774) 
2.286942

>  <regarded>  (774) 
['5hmw-b', '6h80-a']

>  <disregarded>  (774) 
[]

>  <LE>  (774) 
2.336914

>  <outcome>  (774) 
too moved

>  <percent_hybrid>  (774) 
10.0

$$$$
LIG
     RDKit          3D

 40 41  0  0  0  0  0  0  0  0999 V2000
  -16.6377  -42.7399  -16.9047 C   0  0  0  0  0  0  0  0  0  0  0  0
  -18.9960  -42.6907  -17.3103 O   0  0  0  0  0  0  0  0  0  0  0  0
  -13.9881  -40.7060  -21.1642 O   0  0  0  0  0  0  0  0  0  0  0  0
  -11.7740  -40.7957  -21.0569 O   0  0  0  0  0  0  0  0  0  0  0  0
  -12.9929  -41.3406  -20.8547 C   0  0  0  0  0  0  0  0  0  0  0  0
  -12.9139  -42.7238  -20.2561 C   0  0  0  0  0  0  0  0  0  0  0  0
  -17.9022  -41.9367  -17.0676 C   0  0  0  0  0  0  0  0  0  0  0  0
  -17.9986  -40.7217  -16.9900 O   0  0  0  0  0  0  0  0  0  0  0  0
  -19.4950  -46.3107  -24.6368 C   0  0  0  0  0  0  0  0  0  0  0  0
  -20.1273  -46.5378  -25.6304 C   0  0  0  0  0  0  0  0  0  0  0  0
  -20.8777  -46.7524  -26.8581 C   0  0  0  0  0  0  0  0  0  0  0  0
  -21.9842  -45.8637  -26.9138 O   0  0  0  0  0  0  0  0  0  0  0  0
  -16.0630  -43.2833  -18.1920 C   0  0  0  0  0  0  0  0  0  0  0  0
  -14.7689  -42.9042  -18.5676 C   0  0  0  0  0  0  0  0  0  0  0  0
  -14.2511  -43.2605  -19.8141 C   0  0  0  0  0  0  0  0  0  0  0  0
  -15.0351  -44.0200  -20.6876 C   0  0  0  0  0  0  0  0  0  0  0  0
  -16.3328  -44.4183  -20.3331 C   0  0  0  0  0  0  0  0  0  0  0  0
  -16.8192  -44.0850  -19.0626 C   0  0  0  0  0  0  0  0  0  0  0  0
  -18.4453  -46.7508  -22.4383 C   0  0  0  0  0  0  0  0  0  0  0  0
  -17.6663  -46.2883  -21.3729 C   0  0  0  0  0  0  0  0  0  0  0  0
  -17.2175  -44.9625  -21.3617 C   0  0  0  0  0  0  0  0  0  0  0  0
  -17.6100  -44.0979  -22.3981 C   0  0  0  0  0  0  0  0  0  0  0  0
  -18.3859  -44.5507  -23.4502 C   0  0  0  0  0  0  0  0  0  0  0  0
  -18.7731  -45.8838  -23.4854 C   0  0  0  0  0  0  0  0  0  0  0  0
  -15.9111  -42.0834  -16.4087 H   0  0  0  0  0  0  0  0  0  0  0  0
  -16.8106  -43.5474  -16.1999 H   0  0  0  0  0  0  0  0  0  0  0  0
  -19.7260  -42.0354  -17.3117 H   0  0  0  0  0  0  0  0  0  0  0  0
  -11.9826  -39.9208  -21.4449 H   0  0  0  0  0  0  0  0  0  0  0  0
  -12.5017  -43.3989  -21.0040 H   0  0  0  0  0  0  0  0  0  0  0  0
  -12.2329  -42.7014  -19.3982 H   0  0  0  0  0  0  0  0  0  0  0  0
  -21.2282  -47.7817  -26.9664 H   0  0  0  0  0  0  0  0  0  0  0  0
  -20.2320  -46.5070  -27.6978 H   0  0  0  0  0  0  0  0  0  0  0  0
  -22.7496  -46.3439  -26.5292 H   0  0  0  0  0  0  0  0  0  0  0  0
  -14.1799  -42.2651  -17.9105 H   0  0  0  0  0  0  0  0  0  0  0  0
  -14.6565  -44.2451  -21.6859 H   0  0  0  0  0  0  0  0  0  0  0  0
  -17.8420  -44.3541  -18.8046 H   0  0  0  0  0  0  0  0  0  0  0  0
  -18.7671  -47.7893  -22.4619 H   0  0  0  0  0  0  0  0  0  0  0  0
  -17.3875  -46.9729  -20.5776 H   0  0  0  0  0  0  0  0  0  0  0  0
  -17.2841  -43.0578  -22.3924 H   0  0  0  0  0  0  0  0  0  0  0  0
  -18.6538  -43.8656  -24.2499 H   0  0  0  0  0  0  0  0  0  0  0  0
  1  7  1  0
  7  8  2  0
  7  2  1  0
  6  5  1  0
  3  5  2  0
  5  4  1  0
 12 11  1  0
 11 10  1  0
 10  9  3  0
 13 18  2  0
 13  1  1  0
 13 14  1  0
 14 15  2  0
 15 16  1  0
 15  6  1  0
 16 17  2  0
 17 21  1  0
 17 18  1  0
 19 24  2  0
 19 20  1  0
 20 21  2  0
 21 22  1  0
 22 23  2  0
 23 24  1  0
  9 24  1  0
  1 25  1  0
  1 26  1  0
  2 27  1  0
  4 28  1  0
  6 29  1  0
  6 30  1  0
 11 31  1  0
 11 32  1  0
 12 33  1  0
 14 34  1  0
 16 35  1  0
 18 36  1  0
 19 37  1  0
 20 38  1  0
 22 39  1  0
 23 40  1  0
M  END
>  <smiles>  (775) 
[H]OC(=O)C([H])([H])c1c([H])c(-c2c([H])c([H])c(C#CC([H])([H])O[H])c([H])c2[H])c([H])c(C([H])([H])C(=O)O[H])c1[H]

>  <error>  (775) 


>  <∆∆G>  (775) 
-56.156809

>  <∆G_bound>  (775) 
26.430795

>  <∆G_unbound>  (775) 
82.587604

>  <comRMSD>  (775) 
1.427292

>  <N_constrained_atoms>  (775) 
24.0

>  <N_unconstrained_atoms>  (775) 
0.0

>  <runtime>  (775) 
2.576344

>  <regarded>  (775) 
['5hmw-b', '5hmy-a']

>  <disregarded>  (775) 
[]

>  <LE>  (775) 
2.339867

>  <outcome>  (775) 
too moved

>  <percent_hybrid>  (775) 
17.0

$$$$

     RDKit          2D

  0  0  0  0  0  0  0  0  0  0999 V2000
M  END
>  <smiles>  (776) 
nan

>  <error>  (776) 
FragmensteinError Ideal compound failed. Something is wrong with the SMILES

>  <∆∆G>  (776) 
nan

>  <∆G_bound>  (776) 
nan

>  <∆G_unbound>  (776) 
nan

>  <comRMSD>  (776) 
nan

>  <N_constrained_atoms>  (776) 
nan

>  <N_unconstrained_atoms>  (776) 
nan

>  <runtime>  (776) 
nan

>  <regarded>  (776) 
[]

>  <disregarded>  (776) 
[]

>  <LE>  (776) 
nan

>  <outcome>  (776) 
crashed

>  <percent_hybrid>  (776) 
nan

$$$$
LIG
     RDKit          3D

 65 68  0  0  0  0  0  0  0  0999 V2000
  -15.1788  -44.0917  -17.0688 C   0  0  0  0  0  0  0  0  0  0  0  0
  -17.2647  -42.9359  -16.7586 O   0  0  0  0  0  0  0  0  0  0  0  0
  -14.2967  -40.2071  -21.4492 O   0  0  0  0  0  0  0  0  0  0  0  0
  -12.1061  -40.1852  -21.7831 O   0  0  0  0  0  0  0  0  0  0  0  0
  -13.2494  -40.8333  -21.4670 C   0  0  0  0  0  0  0  0  0  0  0  0
  -13.0258  -42.2979  -21.1908 C   0  0  0  0  0  0  0  0  0  0  0  0
  -16.1159  -43.3349  -16.1868 C   0  0  0  0  0  0  0  0  0  0  0  0
  -16.0033  -43.0927  -14.9305 N   0  0  0  0  0  0  0  0  0  0  0  0
  -22.0742  -45.8116  -27.0397 O   0  0  0  0  0  0  0  0  0  0  0  0
  -19.6200  -46.2765  -24.7363 C   0  0  0  0  0  0  0  0  0  0  0  0
  -20.2420  -46.5030  -25.7351 C   0  0  0  0  0  0  0  0  0  0  0  0
  -20.9757  -46.7093  -26.9683 C   0  0  0  0  0  0  0  0  0  0  0  0
  -13.9242  -44.7129  -14.6003 O   0  0  0  0  0  0  0  0  0  0  0  0
  -14.6698  -43.5606  -13.9813 S   0  0  0  0  0  0  0  0  0  0  0  0
  -13.3210  -42.1912  -18.2970 C   0  0  0  0  0  0  0  0  0  0  0  0
  -14.9930  -43.8426  -22.6658 O   0  0  0  0  0  0  0  0  0  0  0  0
  -15.2256  -42.6793  -23.4510 C   0  0  0  0  0  0  0  0  0  0  0  0
  -15.2586  -43.8120  -18.5396 C   0  0  0  0  0  0  0  0  0  0  0  0
  -14.2978  -42.9798  -19.1404 C   0  0  0  0  0  0  0  0  0  0  0  0
  -14.1961  -42.9803  -20.5394 C   0  0  0  0  0  0  0  0  0  0  0  0
  -15.1584  -43.6644  -21.3074 C   0  0  0  0  0  0  0  0  0  0  0  0
  -16.2338  -44.3480  -20.6992 C   0  0  0  0  0  0  0  0  0  0  0  0
  -16.2460  -44.4495  -19.3110 C   0  0  0  0  0  0  0  0  0  0  0  0
  -18.4066  -46.7423  -22.6360 C   0  0  0  0  0  0  0  0  0  0  0  0
  -17.5738  -46.2690  -21.6208 C   0  0  0  0  0  0  0  0  0  0  0  0
  -17.3138  -44.8979  -21.5229 C   0  0  0  0  0  0  0  0  0  0  0  0
  -18.0284  -44.0092  -22.3434 C   0  0  0  0  0  0  0  0  0  0  0  0
  -18.8127  -44.4770  -23.3799 C   0  0  0  0  0  0  0  0  0  0  0  0
  -18.9362  -45.8453  -23.5652 C   0  0  0  0  0  0  0  0  0  0  0  0
  -14.3864  -41.0313  -13.1393 C   0  0  0  0  0  0  0  0  0  0  0  0
  -13.8204  -39.7780  -13.0188 C   0  0  0  0  0  0  0  0  0  0  0  0
  -12.5728  -39.5557  -13.5787 C   0  0  0  0  0  0  0  0  0  0  0  0
  -11.8878  -40.5850  -14.2483 C   0  0  0  0  0  0  0  0  0  0  0  0
  -12.4440  -41.8771  -14.3840 C   0  0  0  0  0  0  0  0  0  0  0  0
  -13.7075  -42.0633  -13.8184 C   0  0  0  0  0  0  0  0  0  0  0  0
  -10.6241  -40.3360  -14.7927 C   0  0  0  0  0  0  0  0  0  0  0  0
   -9.9250  -41.3529  -15.4221 C   0  0  0  0  0  0  0  0  0  0  0  0
  -10.5250  -42.5892  -15.4969 C   0  0  0  0  0  0  0  0  0  0  0  0
  -11.7619  -42.8563  -15.0293 N   0  0  0  0  0  0  0  0  0  0  0  0
  -14.1515  -43.9163  -16.7500 H   0  0  0  0  0  0  0  0  0  0  0  0
  -15.3331  -45.1646  -16.9229 H   0  0  0  0  0  0  0  0  0  0  0  0
  -17.8419  -42.6315  -16.0326 H   0  0  0  0  0  0  0  0  0  0  0  0
  -12.4135  -39.2649  -21.9163 H   0  0  0  0  0  0  0  0  0  0  0  0
  -12.8227  -42.8238  -22.1139 H   0  0  0  0  0  0  0  0  0  0  0  0
  -12.1251  -42.4121  -20.5779 H   0  0  0  0  0  0  0  0  0  0  0  0
  -22.8400  -46.2807  -26.6474 H   0  0  0  0  0  0  0  0  0  0  0  0
  -21.3306  -47.7365  -27.0839 H   0  0  0  0  0  0  0  0  0  0  0  0
  -20.3096  -46.4583  -27.7892 H   0  0  0  0  0  0  0  0  0  0  0  0
  -13.7848  -41.8480  -17.3668 H   0  0  0  0  0  0  0  0  0  0  0  0
  -12.4442  -42.8035  -18.0657 H   0  0  0  0  0  0  0  0  0  0  0  0
  -12.9932  -41.2735  -18.7926 H   0  0  0  0  0  0  0  0  0  0  0  0
  -15.7797  -41.9006  -22.9167 H   0  0  0  0  0  0  0  0  0  0  0  0
  -14.2785  -42.2792  -23.8183 H   0  0  0  0  0  0  0  0  0  0  0  0
  -15.8144  -42.9755  -24.3249 H   0  0  0  0  0  0  0  0  0  0  0  0
  -17.0327  -45.0177  -18.8216 H   0  0  0  0  0  0  0  0  0  0  0  0
  -18.5712  -47.8106  -22.7461 H   0  0  0  0  0  0  0  0  0  0  0  0
  -17.0607  -46.9780  -20.9782 H   0  0  0  0  0  0  0  0  0  0  0  0
  -17.8893  -42.9357  -22.2312 H   0  0  0  0  0  0  0  0  0  0  0  0
  -19.2779  -43.7721  -24.0627 H   0  0  0  0  0  0  0  0  0  0  0  0
  -15.3792  -41.1988  -12.7231 H   0  0  0  0  0  0  0  0  0  0  0  0
  -14.3468  -38.9792  -12.5035 H   0  0  0  0  0  0  0  0  0  0  0  0
  -12.1269  -38.5668  -13.4862 H   0  0  0  0  0  0  0  0  0  0  0  0
  -10.1659  -39.3531  -14.7110 H   0  0  0  0  0  0  0  0  0  0  0  0
   -8.9323  -41.1891  -15.8250 H   0  0  0  0  0  0  0  0  0  0  0  0
  -10.0028  -43.4335  -15.9341 H   0  0  0  0  0  0  0  0  0  0  0  0
  1  7  1  0
  7  8  2  0
  7  2  1  0
  6  5  1  0
  3  5  2  0
  5  4  1  0
  9 12  1  0
 12 11  1  0
 11 10  3  0
 14 13  2  0
 14  8  1  0
 16 17  1  0
 18 23  1  0
 18  1  1  0
 18 19  2  0
 19 20  1  0
 20 21  2  0
 20  6  1  0
 21 22  1  0
 22 26  1  0
 22 23  2  0
 24 29  2  0
 24 25  1  0
 25 26  2  0
 26 27  1  0
 27 28  2  0
 28 29  1  0
 30 35  2  0
 30 31  1  0
 31 32  2  0
 32 33  1  0
 33 34  2  0
 33 36  1  0
 34 35  1  0
 34 39  1  0
 14 35  1  1
 36 37  2  0
 37 38  1  0
 38 39  2  0
 15 19  1  0
 16 21  1  0
 10 29  1  0
  1 40  1  0
  1 41  1  0
  2 42  1  0
  4 43  1  0
  6 44  1  0
  6 45  1  0
  9 46  1  0
 12 47  1  0
 12 48  1  0
 15 49  1  0
 15 50  1  0
 15 51  1  0
 17 52  1  0
 17 53  1  0
 17 54  1  0
 23 55  1  0
 24 56  1  0
 25 57  1  0
 27 58  1  0
 28 59  1  0
 30 60  1  0
 31 61  1  0
 32 62  1  0
 36 63  1  0
 37 64  1  0
 38 65  1  0
M  END
>  <smiles>  (777) 
[H]OC(=O)C([H])([H])c1c(OC([H])([H])[H])c(-c2c([H])c([H])c(C#CC([H])([H])O[H])c([H])c2[H])c([H])c(C([H])([H])/C(=N\[S@](=O)c2c([H])c([H])c([H])c3c([H])c([H])c([H])nc23)O[H])c1C([H])([H])[H]

>  <error>  (777) 


>  <∆∆G>  (777) 
-49.307549

>  <∆G_bound>  (777) 
84.563277

>  <∆G_unbound>  (777) 
133.870825

>  <comRMSD>  (777) 
0.849024

>  <N_constrained_atoms>  (777) 
39.0

>  <N_unconstrained_atoms>  (777) 
0.0

>  <runtime>  (777) 
4.444987

>  <regarded>  (777) 
['5hmw-b', '5i3q-a']

>  <disregarded>  (777) 
[]

>  <LE>  (777) 
1.264296

>  <outcome>  (777) 
acceptable

>  <percent_hybrid>  (777) 
49.0

$$$$
LIG
     RDKit          3D

 34 35  0  0  0  0  0  0  0  0999 V2000
  -15.9631  -43.0760  -16.8637 C   0  0  0  0  0  0  0  0  0  0  0  0
  -14.8353  -43.0827  -14.7701 O   0  0  0  0  0  0  0  0  0  0  0  0
  -12.6387  -40.1416  -21.3454 O   0  0  0  0  0  0  0  0  0  0  0  0
  -14.4191  -41.0191  -22.3545 O   0  0  0  0  0  0  0  0  0  0  0  0
  -13.3582  -41.1129  -21.5267 C   0  0  0  0  0  0  0  0  0  0  0  0
  -13.1370  -42.4945  -20.9700 C   0  0  0  0  0  0  0  0  0  0  0  0
  -14.9433  -43.7201  -15.9536 C   0  0  0  0  0  0  0  0  0  0  0  0
  -14.2641  -44.7101  -16.1856 O   0  0  0  0  0  0  0  0  0  0  0  0
  -15.7265  -43.3908  -18.3230 C   0  0  0  0  0  0  0  0  0  0  0  0
  -14.5875  -42.8590  -18.9436 C   0  0  0  0  0  0  0  0  0  0  0  0
  -14.3416  -43.0877  -20.2945 C   0  0  0  0  0  0  0  0  0  0  0  0
  -15.2486  -43.8544  -21.0298 C   0  0  0  0  0  0  0  0  0  0  0  0
  -16.4045  -44.3906  -20.4425 C   0  0  0  0  0  0  0  0  0  0  0  0
  -16.6278  -44.1630  -19.0767 C   0  0  0  0  0  0  0  0  0  0  0  0
  -18.2911  -47.2651  -21.9707 C   0  0  0  0  0  0  0  0  0  0  0  0
  -17.5779  -46.5095  -21.0444 C   0  0  0  0  0  0  0  0  0  0  0  0
  -17.3277  -45.1540  -21.2869 C   0  0  0  0  0  0  0  0  0  0  0  0
  -17.8838  -44.5584  -22.4341 C   0  0  0  0  0  0  0  0  0  0  0  0
  -18.5999  -45.3135  -23.3565 C   0  0  0  0  0  0  0  0  0  0  0  0
  -18.7552  -46.6780  -23.1444 C   0  0  0  0  0  0  0  0  0  0  0  0
  -16.9633  -43.3913  -16.5580 H   0  0  0  0  0  0  0  0  0  0  0  0
  -15.9136  -41.9872  -16.7384 H   0  0  0  0  0  0  0  0  0  0  0  0
  -14.1736  -43.5975  -14.2645 H   0  0  0  0  0  0  0  0  0  0  0  0
  -14.3909  -40.0991  -22.6873 H   0  0  0  0  0  0  0  0  0  0  0  0
  -12.8377  -43.1439  -21.7939 H   0  0  0  0  0  0  0  0  0  0  0  0
  -12.2951  -42.4591  -20.2690 H   0  0  0  0  0  0  0  0  0  0  0  0
  -13.8884  -42.2510  -18.3701 H   0  0  0  0  0  0  0  0  0  0  0  0
  -15.0509  -44.0325  -22.0880 H   0  0  0  0  0  0  0  0  0  0  0  0
  -17.5296  -44.5541  -18.6122 H   0  0  0  0  0  0  0  0  0  0  0  0
  -18.4297  -48.3298  -21.8196 H   0  0  0  0  0  0  0  0  0  0  0  0
  -17.1592  -46.9983  -20.1699 H   0  0  0  0  0  0  0  0  0  0  0  0
  -17.7119  -43.5021  -22.6344 H   0  0  0  0  0  0  0  0  0  0  0  0
  -18.9893  -44.8492  -24.2564 H   0  0  0  0  0  0  0  0  0  0  0  0
  -19.2361  -47.2980  -23.8977 H   0  0  0  0  0  0  0  0  0  0  0  0
  1  7  1  0
  7  8  2  0
  7  2  1  0
  6  5  1  0
  3  5  2  0
  5  4  1  0
  9 14  2  0
  9  1  1  0
  9 10  1  0
 10 11  2  0
 11 12  1  0
 11  6  1  0
 12 13  2  0
 13 17  1  0
 13 14  1  0
 15 20  2  0
 15 16  1  0
 16 17  2  0
 17 18  1  0
 18 19  2  0
 19 20  1  0
  1 21  1  0
  1 22  1  0
  2 23  1  0
  4 24  1  0
  6 25  1  0
  6 26  1  0
 10 27  1  0
 12 28  1  0
 14 29  1  0
 15 30  1  0
 16 31  1  0
 18 32  1  0
 19 33  1  0
 20 34  1  0
M  END
>  <smiles>  (778) 
[H]OC(=O)C([H])([H])c1c([H])c(-c2c([H])c([H])c([H])c([H])c2[H])c([H])c(C([H])([H])C(=O)O[H])c1[H]

>  <error>  (778) 


>  <∆∆G>  (778) 
-160.394297

>  <∆G_bound>  (778) 
-9.845012

>  <∆G_unbound>  (778) 
150.549285

>  <comRMSD>  (778) 
1.374038

>  <N_constrained_atoms>  (778) 
20.0

>  <N_unconstrained_atoms>  (778) 
0.0

>  <runtime>  (778) 
2.283964

>  <regarded>  (778) 
['5hmw-b', '5hmx-b']

>  <disregarded>  (778) 
[]

>  <LE>  (778) 
8.019715

>  <outcome>  (778) 
equally sized

>  <percent_hybrid>  (778) 
0.0

$$$$
LIG
     RDKit          3D

 62 64  0  0  0  0  0  0  0  0999 V2000
  -15.2862  -44.3298  -17.1132 C   0  0  0  0  0  0  0  0  0  0  0  0
  -16.1780  -42.2941  -15.6358 C   0  0  0  0  0  0  0  0  0  0  0  0
  -15.4760  -39.9303  -21.6539 O   0  0  0  0  0  0  0  0  0  0  0  0
  -13.5447  -39.9895  -22.7678 O   0  0  0  0  0  0  0  0  0  0  0  0
  -14.3423  -40.3725  -21.7470 C   0  0  0  0  0  0  0  0  0  0  0  0
  -13.6400  -41.3069  -20.7892 C   0  0  0  0  0  0  0  0  0  0  0  0
  -15.5074  -43.6193  -15.8229 C   0  0  0  0  0  0  0  0  0  0  0  0
  -15.0390  -44.1566  -14.8191 O   0  0  0  0  0  0  0  0  0  0  0  0
  -13.6468  -42.2289  -17.9973 O   0  0  0  0  0  0  0  0  0  0  0  0
  -12.2849  -42.5748  -18.2677 C   0  0  0  0  0  0  0  0  0  0  0  0
  -17.2038  -41.9976  -16.2170 O   0  0  0  0  0  0  0  0  0  0  0  0
  -19.5312  -46.3374  -24.7121 C   0  0  0  0  0  0  0  0  0  0  0  0
  -20.1416  -46.5939  -25.7098 C   0  0  0  0  0  0  0  0  0  0  0  0
  -20.8805  -46.7944  -26.9406 C   0  0  0  0  0  0  0  0  0  0  0  0
  -21.9640  -45.8776  -27.0106 O   0  0  0  0  0  0  0  0  0  0  0  0
  -14.9186  -45.5024  -17.0783 O   0  0  0  0  0  0  0  0  0  0  0  0
  -15.1593  -42.9548  -22.4814 O   0  0  0  0  0  0  0  0  0  0  0  0
  -14.2546  -43.9074  -23.0429 C   0  0  0  0  0  0  0  0  0  0  0  0
  -12.7376  -38.8694  -15.3479 O   0  0  0  0  0  0  0  0  0  0  0  0
  -12.9125  -38.5871  -16.7316 C   0  0  0  0  0  0  0  0  0  0  0  0
  -15.4260  -43.7404  -18.4352 C   0  0  0  0  0  0  0  0  0  0  0  0
  -14.5144  -42.7847  -18.8995 C   0  0  0  0  0  0  0  0  0  0  0  0
  -14.5092  -42.4261  -20.2531 C   0  0  0  0  0  0  0  0  0  0  0  0
  -15.3157  -43.1792  -21.1285 C   0  0  0  0  0  0  0  0  0  0  0  0
  -16.2881  -44.1015  -20.6679 C   0  0  0  0  0  0  0  0  0  0  0  0
  -16.3179  -44.3805  -19.3027 C   0  0  0  0  0  0  0  0  0  0  0  0
  -18.3543  -46.6493  -22.5672 C   0  0  0  0  0  0  0  0  0  0  0  0
  -17.5407  -46.0962  -21.5775 C   0  0  0  0  0  0  0  0  0  0  0  0
  -17.2607  -44.7193  -21.5801 C   0  0  0  0  0  0  0  0  0  0  0  0
  -17.9080  -43.9034  -22.5219 C   0  0  0  0  0  0  0  0  0  0  0  0
  -18.6856  -44.4505  -23.5233 C   0  0  0  0  0  0  0  0  0  0  0  0
  -18.8560  -45.8261  -23.5732 C   0  0  0  0  0  0  0  0  0  0  0  0
  -13.4010  -40.0245  -13.4302 C   0  0  0  0  0  0  0  0  0  0  0  0
  -14.1952  -40.9503  -12.7498 C   0  0  0  0  0  0  0  0  0  0  0  0
  -15.1921  -41.6360  -13.4368 C   0  0  0  0  0  0  0  0  0  0  0  0
  -15.3880  -41.3732  -14.7974 C   0  0  0  0  0  0  0  0  0  0  0  0
  -14.6261  -40.4201  -15.4699 C   0  0  0  0  0  0  0  0  0  0  0  0
  -13.6100  -39.7596  -14.7887 C   0  0  0  0  0  0  0  0  0  0  0  0
  -14.1525  -39.5144  -23.3745 H   0  0  0  0  0  0  0  0  0  0  0  0
  -13.2865  -40.6578  -19.9815 H   0  0  0  0  0  0  0  0  0  0  0  0
  -12.7641  -41.7507  -21.2756 H   0  0  0  0  0  0  0  0  0  0  0  0
  -11.7774  -42.6797  -17.3039 H   0  0  0  0  0  0  0  0  0  0  0  0
  -12.1974  -43.5283  -18.7982 H   0  0  0  0  0  0  0  0  0  0  0  0
  -11.7872  -41.7744  -18.8198 H   0  0  0  0  0  0  0  0  0  0  0  0
  -21.2535  -47.8147  -27.0549 H   0  0  0  0  0  0  0  0  0  0  0  0
  -20.2134  -46.5515  -27.7625 H   0  0  0  0  0  0  0  0  0  0  0  0
  -22.7292  -46.3224  -26.5841 H   0  0  0  0  0  0  0  0  0  0  0  0
  -13.3095  -43.9374  -22.4951 H   0  0  0  0  0  0  0  0  0  0  0  0
  -14.7165  -44.8966  -23.0448 H   0  0  0  0  0  0  0  0  0  0  0  0
  -14.0535  -43.6160  -24.0772 H   0  0  0  0  0  0  0  0  0  0  0  0
  -13.8944  -38.1429  -16.9259 H   0  0  0  0  0  0  0  0  0  0  0  0
  -12.1549  -37.8515  -17.0188 H   0  0  0  0  0  0  0  0  0  0  0  0
  -12.7511  -39.4816  -17.3418 H   0  0  0  0  0  0  0  0  0  0  0  0
  -17.0151  -45.1189  -18.9132 H   0  0  0  0  0  0  0  0  0  0  0  0
  -18.5385  -47.7206  -22.5863 H   0  0  0  0  0  0  0  0  0  0  0  0
  -17.0812  -46.7580  -20.8489 H   0  0  0  0  0  0  0  0  0  0  0  0
  -17.7536  -42.8247  -22.5155 H   0  0  0  0  0  0  0  0  0  0  0  0
  -19.1171  -43.8018  -24.2807 H   0  0  0  0  0  0  0  0  0  0  0  0
  -12.6050  -39.5071  -12.8988 H   0  0  0  0  0  0  0  0  0  0  0  0
  -14.0151  -41.1542  -11.6975 H   0  0  0  0  0  0  0  0  0  0  0  0
  -15.7698  -42.4077  -12.9319 H   0  0  0  0  0  0  0  0  0  0  0  0
  -14.8026  -40.2624  -16.5287 H   0  0  0  0  0  0  0  0  0  0  0  0
  1  7  1  0
  7  8  2  0
  7  2  1  0
  6  5  1  0
  3  5  2  0
  5  4  1  0
  9 10  1  0
 11  2  2  0
 14 15  1  0
 14 13  1  0
 13 12  3  0
 16  1  2  0
 17 18  1  0
 20 19  1  0
 21 26  1  0
 21  1  1  0
 21 22  2  0
 22 23  1  0
 23 24  2  0
 23  6  1  0
 24 25  1  0
 25 29  1  0
 25 26  2  0
 27 32  2  0
 27 28  1  0
 28 29  2  0
 29 30  1  0
 30 31  2  0
 31 32  1  0
 33 38  2  0
 33 34  1  0
 34 35  2  0
 35 36  1  0
 36 37  2  0
 37 38  1  0
 38 19  1  0
  9 22  1  0
 17 24  1  0
 12 32  1  0
  2 36  1  0
  4 39  1  0
  6 40  1  0
  6 41  1  0
 10 42  1  0
 10 43  1  0
 10 44  1  0
 14 45  1  0
 14 46  1  0
 15 47  1  0
 18 48  1  0
 18 49  1  0
 18 50  1  0
 20 51  1  0
 20 52  1  0
 20 53  1  0
 26 54  1  0
 27 55  1  0
 28 56  1  0
 30 57  1  0
 31 58  1  0
 33 59  1  0
 34 60  1  0
 35 61  1  0
 37 62  1  0
M  END
>  <smiles>  (779) 
[H]OC(=O)C([H])([H])c1c(OC([H])([H])[H])c(C(=O)C(=O)C(=O)c2c([H])c([H])c([H])c(OC([H])([H])[H])c2[H])c([H])c(-c2c([H])c([H])c(C#CC([H])([H])O[H])c([H])c2[H])c1OC([H])([H])[H]

>  <error>  (779) 


>  <∆∆G>  (779) 
-71.931725

>  <∆G_bound>  (779) 
131.645632

>  <∆G_unbound>  (779) 
203.577357

>  <comRMSD>  (779) 
0.993179

>  <N_constrained_atoms>  (779) 
38.0

>  <N_unconstrained_atoms>  (779) 
0.0

>  <runtime>  (779) 
4.02128

>  <regarded>  (779) 
['5hmw-b', '5k5m-a']

>  <disregarded>  (779) 
[]

>  <LE>  (779) 
1.89294

>  <outcome>  (779) 
acceptable

>  <percent_hybrid>  (779) 
48.0

$$$$

     RDKit          2D

  0  0  0  0  0  0  0  0  0  0999 V2000
M  END
>  <smiles>  (780) 
nan

>  <error>  (780) 
FragmensteinError Ideal compound failed. Something is wrong with the SMILES

>  <∆∆G>  (780) 
nan

>  <∆G_bound>  (780) 
nan

>  <∆G_unbound>  (780) 
nan

>  <comRMSD>  (780) 
nan

>  <N_constrained_atoms>  (780) 
nan

>  <N_unconstrained_atoms>  (780) 
nan

>  <runtime>  (780) 
nan

>  <regarded>  (780) 
[]

>  <disregarded>  (780) 
[]

>  <LE>  (780) 
nan

>  <outcome>  (780) 
crashed

>  <percent_hybrid>  (780) 
nan

$$$$
LIG
     RDKit          3D

 38 39  0  0  0  0  0  0  0  0999 V2000
  -15.1306  -43.6867  -16.9441 C   0  0  0  0  0  0  0  0  0  0  0  0
  -17.4054  -43.0267  -16.6083 O   0  0  0  0  0  0  0  0  0  0  0  0
  -15.5754  -39.9189  -21.8257 O   0  0  0  0  0  0  0  0  0  0  0  0
  -13.7099  -39.9442  -23.0434 O   0  0  0  0  0  0  0  0  0  0  0  0
  -14.4514  -40.3633  -21.9934 C   0  0  0  0  0  0  0  0  0  0  0  0
  -13.6922  -41.3288  -21.1150 C   0  0  0  0  0  0  0  0  0  0  0  0
  -16.1455  -42.9112  -16.1463 C   0  0  0  0  0  0  0  0  0  0  0  0
  -15.9037  -42.2953  -15.1192 O   0  0  0  0  0  0  0  0  0  0  0  0
  -15.4344  -43.0236  -22.5772 O   0  0  0  0  0  0  0  0  0  0  0  0
  -14.5237  -43.8890  -23.2496 C   0  0  0  0  0  0  0  0  0  0  0  0
  -15.2420  -43.5463  -18.4407 C   0  0  0  0  0  0  0  0  0  0  0  0
  -14.4616  -42.5844  -19.0855 C   0  0  0  0  0  0  0  0  0  0  0  0
  -14.5464  -42.3953  -20.4671 C   0  0  0  0  0  0  0  0  0  0  0  0
  -15.3948  -43.2318  -21.2158 C   0  0  0  0  0  0  0  0  0  0  0  0
  -16.2323  -44.1920  -20.5991 C   0  0  0  0  0  0  0  0  0  0  0  0
  -16.1303  -44.3279  -19.1987 C   0  0  0  0  0  0  0  0  0  0  0  0
  -18.0739  -47.2403  -21.9014 C   0  0  0  0  0  0  0  0  0  0  0  0
  -17.2941  -46.4155  -21.0948 C   0  0  0  0  0  0  0  0  0  0  0  0
  -17.1733  -45.0419  -21.3662 C   0  0  0  0  0  0  0  0  0  0  0  0
  -17.9337  -44.5184  -22.4278 C   0  0  0  0  0  0  0  0  0  0  0  0
  -18.6848  -45.3465  -23.2583 C   0  0  0  0  0  0  0  0  0  0  0  0
  -18.7166  -46.7141  -23.0145 C   0  0  0  0  0  0  0  0  0  0  0  0
  -14.1343  -43.3551  -16.6239 H   0  0  0  0  0  0  0  0  0  0  0  0
  -15.1909  -44.7433  -16.6682 H   0  0  0  0  0  0  0  0  0  0  0  0
  -17.9668  -42.7353  -15.8516 H   0  0  0  0  0  0  0  0  0  0  0  0
  -14.3453  -39.4416  -23.5967 H   0  0  0  0  0  0  0  0  0  0  0  0
  -12.9141  -41.8295  -21.6979 H   0  0  0  0  0  0  0  0  0  0  0  0
  -13.1809  -40.7235  -20.3569 H   0  0  0  0  0  0  0  0  0  0  0  0
  -14.3723  -43.5030  -24.2613 H   0  0  0  0  0  0  0  0  0  0  0  0
  -13.5507  -43.9486  -22.7519 H   0  0  0  0  0  0  0  0  0  0  0  0
  -14.9668  -44.8833  -23.3213 H   0  0  0  0  0  0  0  0  0  0  0  0
  -13.7869  -41.9589  -18.5017 H   0  0  0  0  0  0  0  0  0  0  0  0
  -16.7784  -45.0327  -18.6834 H   0  0  0  0  0  0  0  0  0  0  0  0
  -18.1124  -48.3086  -21.7161 H   0  0  0  0  0  0  0  0  0  0  0  0
  -16.7308  -46.8692  -20.2850 H   0  0  0  0  0  0  0  0  0  0  0  0
  -17.9045  -43.4515  -22.6439 H   0  0  0  0  0  0  0  0  0  0  0  0
  -19.2189  -44.9255  -24.1041 H   0  0  0  0  0  0  0  0  0  0  0  0
  -19.2361  -47.3842  -23.6944 H   0  0  0  0  0  0  0  0  0  0  0  0
  1  7  1  0
  7  8  2  0
  7  2  1  0
  6  5  1  0
  3  5  2  0
  5  4  1  0
  9 10  1  0
 11 16  2  0
 11  1  1  0
 11 12  1  0
 12 13  2  0
 13 14  1  0
 13  6  1  0
 14 15  2  0
 15 19  1  0
 15 16  1  0
 17 22  2  0
 17 18  1  0
 18 19  2  0
 19 20  1  0
 20 21  2  0
 21 22  1  0
  9 14  1  0
  1 23  1  0
  1 24  1  0
  2 25  1  0
  4 26  1  0
  6 27  1  0
  6 28  1  0
 10 29  1  0
 10 30  1  0
 10 31  1  0
 12 32  1  0
 16 33  1  0
 17 34  1  0
 18 35  1  0
 20 36  1  0
 21 37  1  0
 22 38  1  0
M  END
>  <smiles>  (781) 
[H]OC(=O)C([H])([H])c1c([H])c(-c2c([H])c([H])c([H])c([H])c2[H])c(OC([H])([H])[H])c(C([H])([H])C(=O)O[H])c1[H]

>  <error>  (781) 


>  <∆∆G>  (781) 
-51.562238

>  <∆G_bound>  (781) 
-31.62238

>  <∆G_unbound>  (781) 
19.939858

>  <comRMSD>  (781) 
1.050547

>  <N_constrained_atoms>  (781) 
22.0

>  <N_unconstrained_atoms>  (781) 
0.0

>  <runtime>  (781) 
2.51507

>  <regarded>  (781) 
['5hmw-b', '5f3z-a']

>  <disregarded>  (781) 
[]

>  <LE>  (781) 
2.343738

>  <outcome>  (781) 
too moved

>  <percent_hybrid>  (781) 
10.0

$$$$
LIG
     RDKit          3D

 38 39  0  0  0  0  0  0  0  0999 V2000
  -16.5473  -42.7683  -17.0654 C   0  0  0  0  0  0  0  0  0  0  0  0
  -18.9290  -42.6992  -17.2737 O   0  0  0  0  0  0  0  0  0  0  0  0
  -14.1477  -40.4106  -21.3745 O   0  0  0  0  0  0  0  0  0  0  0  0
  -11.9377  -40.5652  -21.2868 O   0  0  0  0  0  0  0  0  0  0  0  0
  -13.1685  -41.1023  -21.1442 C   0  0  0  0  0  0  0  0  0  0  0  0
  -13.1273  -42.5490  -20.7209 C   0  0  0  0  0  0  0  0  0  0  0  0
  -17.8201  -41.9621  -17.0490 C   0  0  0  0  0  0  0  0  0  0  0  0
  -17.9083  -40.7609  -16.8474 O   0  0  0  0  0  0  0  0  0  0  0  0
  -14.9506  -44.1512  -22.3464 O   0  0  0  0  0  0  0  0  0  0  0  0
  -15.1087  -43.0771  -23.2722 C   0  0  0  0  0  0  0  0  0  0  0  0
  -16.1011  -43.2045  -18.4398 C   0  0  0  0  0  0  0  0  0  0  0  0
  -14.8728  -42.7594  -18.9401 C   0  0  0  0  0  0  0  0  0  0  0  0
  -14.4638  -43.0641  -20.2467 C   0  0  0  0  0  0  0  0  0  0  0  0
  -15.3223  -43.8100  -21.0679 C   0  0  0  0  0  0  0  0  0  0  0  0
  -16.5378  -44.3235  -20.5685 C   0  0  0  0  0  0  0  0  0  0  0  0
  -16.9029  -44.0237  -19.2469 C   0  0  0  0  0  0  0  0  0  0  0  0
  -18.2762  -47.3102  -22.0496 C   0  0  0  0  0  0  0  0  0  0  0  0
  -17.5785  -46.5094  -21.1530 C   0  0  0  0  0  0  0  0  0  0  0  0
  -17.4178  -45.1424  -21.4090 C   0  0  0  0  0  0  0  0  0  0  0  0
  -18.0526  -44.5830  -22.5302 C   0  0  0  0  0  0  0  0  0  0  0  0
  -18.7294  -45.3877  -23.4385 C   0  0  0  0  0  0  0  0  0  0  0  0
  -18.7948  -46.7592  -23.2177 C   0  0  0  0  0  0  0  0  0  0  0  0
  -15.7737  -42.1531  -16.5882 H   0  0  0  0  0  0  0  0  0  0  0  0
  -16.6606  -43.6349  -16.4172 H   0  0  0  0  0  0  0  0  0  0  0  0
  -19.6590  -42.0575  -17.1397 H   0  0  0  0  0  0  0  0  0  0  0  0
  -12.1312  -39.6396  -21.5408 H   0  0  0  0  0  0  0  0  0  0  0  0
  -12.7762  -43.1465  -21.5609 H   0  0  0  0  0  0  0  0  0  0  0  0
  -12.3969  -42.6585  -19.9105 H   0  0  0  0  0  0  0  0  0  0  0  0
  -15.7983  -42.3006  -22.9218 H   0  0  0  0  0  0  0  0  0  0  0  0
  -14.1370  -42.6332  -23.4924 H   0  0  0  0  0  0  0  0  0  0  0  0
  -15.5043  -43.4918  -24.2046 H   0  0  0  0  0  0  0  0  0  0  0  0
  -14.2305  -42.1389  -18.3154 H   0  0  0  0  0  0  0  0  0  0  0  0
  -17.8554  -44.3923  -18.8691 H   0  0  0  0  0  0  0  0  0  0  0  0
  -18.3502  -48.3794  -21.8846 H   0  0  0  0  0  0  0  0  0  0  0  0
  -17.1072  -46.9652  -20.2877 H   0  0  0  0  0  0  0  0  0  0  0  0
  -17.9708  -43.5165  -22.7243 H   0  0  0  0  0  0  0  0  0  0  0  0
  -19.1726  -44.9538  -24.3285 H   0  0  0  0  0  0  0  0  0  0  0  0
  -19.2566  -47.4113  -23.9555 H   0  0  0  0  0  0  0  0  0  0  0  0
  1  7  1  0
  7  8  2  0
  7  2  1  0
  6  5  1  0
  3  5  2  0
  5  4  1  0
  9 10  1  0
 11 16  2  0
 11  1  1  0
 11 12  1  0
 12 13  2  0
 13 14  1  0
 13  6  1  0
 14 15  2  0
 15 19  1  0
 15 16  1  0
 17 22  2  0
 17 18  1  0
 18 19  2  0
 19 20  1  0
 20 21  2  0
 21 22  1  0
  9 14  1  0
  1 23  1  0
  1 24  1  0
  2 25  1  0
  4 26  1  0
  6 27  1  0
  6 28  1  0
 10 29  1  0
 10 30  1  0
 10 31  1  0
 12 32  1  0
 16 33  1  0
 17 34  1  0
 18 35  1  0
 20 36  1  0
 21 37  1  0
 22 38  1  0
M  END
>  <smiles>  (782) 
[H]OC(=O)C([H])([H])c1c([H])c(-c2c([H])c([H])c([H])c([H])c2[H])c(OC([H])([H])[H])c(C([H])([H])C(=O)O[H])c1[H]

>  <error>  (782) 


>  <∆∆G>  (782) 
-51.446172

>  <∆G_bound>  (782) 
-10.402745

>  <∆G_unbound>  (782) 
41.043426

>  <comRMSD>  (782) 
1.35085

>  <N_constrained_atoms>  (782) 
22.0

>  <N_unconstrained_atoms>  (782) 
0.0

>  <runtime>  (782) 
1.966471

>  <regarded>  (782) 
['5hmw-b', '6h9r-a']

>  <disregarded>  (782) 
[]

>  <LE>  (782) 
2.338462

>  <outcome>  (782) 
too moved

>  <percent_hybrid>  (782) 
10.0

$$$$
LIG
     RDKit          3D

 38 39  0  0  0  0  0  0  0  0999 V2000
  -15.1390  -43.6808  -16.9556 C   0  0  0  0  0  0  0  0  0  0  0  0
  -17.4152  -43.0278  -16.6152 O   0  0  0  0  0  0  0  0  0  0  0  0
  -15.6019  -39.9410  -21.8600 O   0  0  0  0  0  0  0  0  0  0  0  0
  -13.7271  -39.9477  -23.0637 O   0  0  0  0  0  0  0  0  0  0  0  0
  -14.4731  -40.3759  -22.0205 C   0  0  0  0  0  0  0  0  0  0  0  0
  -13.7118  -41.3369  -21.1389 C   0  0  0  0  0  0  0  0  0  0  0  0
  -16.1543  -42.9061  -16.1576 C   0  0  0  0  0  0  0  0  0  0  0  0
  -15.9116  -42.2856  -15.1334 O   0  0  0  0  0  0  0  0  0  0  0  0
  -15.4498  -43.0458  -22.5925 O   0  0  0  0  0  0  0  0  0  0  0  0
  -14.5442  -43.9232  -23.2568 C   0  0  0  0  0  0  0  0  0  0  0  0
  -15.2543  -43.5451  -18.4524 C   0  0  0  0  0  0  0  0  0  0  0  0
  -14.4765  -42.5847  -19.1026 C   0  0  0  0  0  0  0  0  0  0  0  0
  -14.5632  -42.4018  -20.4852 C   0  0  0  0  0  0  0  0  0  0  0  0
  -15.4107  -43.2432  -21.2290 C   0  0  0  0  0  0  0  0  0  0  0  0
  -16.2474  -44.2000  -20.6062 C   0  0  0  0  0  0  0  0  0  0  0  0
  -16.1435  -44.3303  -19.2056 C   0  0  0  0  0  0  0  0  0  0  0  0
  -18.0809  -47.2528  -21.9052 C   0  0  0  0  0  0  0  0  0  0  0  0
  -17.3055  -46.4256  -21.0971 C   0  0  0  0  0  0  0  0  0  0  0  0
  -17.1885  -45.0522  -21.3697 C   0  0  0  0  0  0  0  0  0  0  0  0
  -17.9492  -44.5310  -22.4322 C   0  0  0  0  0  0  0  0  0  0  0  0
  -18.6949  -45.3616  -23.2644 C   0  0  0  0  0  0  0  0  0  0  0  0
  -18.7224  -46.7292  -23.0202 C   0  0  0  0  0  0  0  0  0  0  0  0
  -14.1430  -43.3454  -16.6388 H   0  0  0  0  0  0  0  0  0  0  0  0
  -15.1958  -44.7367  -16.6766 H   0  0  0  0  0  0  0  0  0  0  0  0
  -17.9751  -42.7354  -15.8577 H   0  0  0  0  0  0  0  0  0  0  0  0
  -14.3618  -39.4480  -23.6203 H   0  0  0  0  0  0  0  0  0  0  0  0
  -12.9344  -41.8395  -21.7209 H   0  0  0  0  0  0  0  0  0  0  0  0
  -13.2001  -40.7279  -20.3841 H   0  0  0  0  0  0  0  0  0  0  0  0
  -13.5646  -43.9652  -22.7701 H   0  0  0  0  0  0  0  0  0  0  0  0
  -14.9828  -44.9208  -23.3000 H   0  0  0  0  0  0  0  0  0  0  0  0
  -14.4074  -43.5588  -24.2785 H   0  0  0  0  0  0  0  0  0  0  0  0
  -13.8015  -41.9559  -18.5226 H   0  0  0  0  0  0  0  0  0  0  0  0
  -16.7902  -45.0337  -18.6867 H   0  0  0  0  0  0  0  0  0  0  0  0
  -18.1160  -48.3213  -21.7200 H   0  0  0  0  0  0  0  0  0  0  0  0
  -16.7419  -46.8771  -20.2863 H   0  0  0  0  0  0  0  0  0  0  0  0
  -17.9225  -43.4641  -22.6487 H   0  0  0  0  0  0  0  0  0  0  0  0
  -19.2285  -44.9428  -24.1116 H   0  0  0  0  0  0  0  0  0  0  0  0
  -19.2384  -47.4012  -23.7009 H   0  0  0  0  0  0  0  0  0  0  0  0
  1  7  1  0
  7  8  2  0
  7  2  1  0
  6  5  1  0
  3  5  2  0
  5  4  1  0
  9 10  1  0
 11 16  2  0
 11  1  1  0
 11 12  1  0
 12 13  2  0
 13 14  1  0
 13  6  1  0
 14 15  2  0
 15 19  1  0
 15 16  1  0
 17 22  2  0
 17 18  1  0
 18 19  2  0
 19 20  1  0
 20 21  2  0
 21 22  1  0
  9 14  1  0
  1 23  1  0
  1 24  1  0
  2 25  1  0
  4 26  1  0
  6 27  1  0
  6 28  1  0
 10 29  1  0
 10 30  1  0
 10 31  1  0
 12 32  1  0
 16 33  1  0
 17 34  1  0
 18 35  1  0
 20 36  1  0
 21 37  1  0
 22 38  1  0
M  END
>  <smiles>  (783) 
[H]OC(=O)C([H])([H])c1c([H])c(-c2c([H])c([H])c([H])c([H])c2[H])c(OC([H])([H])[H])c(C([H])([H])C(=O)O[H])c1[H]

>  <error>  (783) 


>  <∆∆G>  (783) 
-51.557148

>  <∆G_bound>  (783) 
-31.61729

>  <∆G_unbound>  (783) 
19.939858

>  <comRMSD>  (783) 
1.051059

>  <N_constrained_atoms>  (783) 
22.0

>  <N_unconstrained_atoms>  (783) 
0.0

>  <runtime>  (783) 
2.112749

>  <regarded>  (783) 
['5hmw-b', '5f3t-a']

>  <disregarded>  (783) 
[]

>  <LE>  (783) 
2.343507

>  <outcome>  (783) 
too moved

>  <percent_hybrid>  (783) 
10.0

$$$$

     RDKit          2D

  0  0  0  0  0  0  0  0  0  0999 V2000
M  END
>  <smiles>  (784) 
nan

>  <error>  (784) 
DistanceError 5.44 Å

>  <∆∆G>  (784) 
nan

>  <∆G_bound>  (784) 
nan

>  <∆G_unbound>  (784) 
nan

>  <comRMSD>  (784) 
nan

>  <N_constrained_atoms>  (784) 
nan

>  <N_unconstrained_atoms>  (784) 
nan

>  <runtime>  (784) 
nan

>  <regarded>  (784) 
[]

>  <disregarded>  (784) 
[]

>  <LE>  (784) 
nan

>  <outcome>  (784) 
too distant

>  <percent_hybrid>  (784) 
nan

$$$$
LIG
     RDKit          3D

 46 49  0  0  0  0  0  0  0  0999 V2000
  -15.1186  -44.0674  -16.9527 C   0  0  0  0  0  0  0  0  0  0  0  0
  -15.0374  -42.7797  -22.5192 N   0  0  0  0  0  0  0  0  0  0  0  0
  -14.2821  -42.0679  -15.9154 O   0  0  0  0  0  0  0  0  0  0  0  0
  -13.0057  -43.9293  -15.8070 O   0  0  0  0  0  0  0  0  0  0  0  0
  -14.0385  -43.3738  -16.1584 C   0  0  0  0  0  0  0  0  0  0  0  0
  -14.5578  -43.7347  -23.5337 C   0  0  0  0  0  0  0  0  0  0  0  0
  -15.0073  -43.9406  -18.4494 C   0  0  0  0  0  0  0  0  0  0  0  0
  -13.8432  -43.5043  -19.0739 C   0  0  0  0  0  0  0  0  0  0  0  0
  -13.8317  -43.2782  -20.4450 C   0  0  0  0  0  0  0  0  0  0  0  0
  -14.9860  -43.4320  -21.2323 C   0  0  0  0  0  0  0  0  0  0  0  0
  -16.0701  -44.1423  -20.6636 C   0  0  0  0  0  0  0  0  0  0  0  0
  -16.0788  -44.3396  -19.2638 C   0  0  0  0  0  0  0  0  0  0  0  0
  -18.8052  -45.4788  -23.1099 C   0  0  0  0  0  0  0  0  0  0  0  0
  -18.4331  -46.5497  -22.3314 C   0  0  0  0  0  0  0  0  0  0  0  0
  -17.4628  -46.1728  -21.3619 C   0  0  0  0  0  0  0  0  0  0  0  0
  -17.1216  -44.8287  -21.4359 C   0  0  0  0  0  0  0  0  0  0  0  0
  -18.1143  -44.0216  -22.5623 S   0  0  0  0  0  0  0  0  0  0  0  0
  -14.6414  -41.4558  -22.7138 C   0  0  0  0  0  0  0  0  0  0  0  0
  -14.0259  -40.6252  -21.7990 C   0  0  0  0  0  0  0  0  0  0  0  0
  -13.7435  -39.4616  -22.4376 N   0  0  0  0  0  0  0  0  0  0  0  0
  -14.2240  -39.4018  -23.6800 N   0  0  0  0  0  0  0  0  0  0  0  0
  -14.8387  -40.5901  -23.8555 C   0  0  0  0  0  0  0  0  0  0  0  0
  -16.9003  -41.4203  -24.9240 C   0  0  0  0  0  0  0  0  0  0  0  0
  -15.6609  -40.7984  -25.0444 C   0  0  0  0  0  0  0  0  0  0  0  0
  -15.2793  -40.3079  -26.2911 C   0  0  0  0  0  0  0  0  0  0  0  0
  -16.1376  -40.4986  -27.3612 C   0  0  0  0  0  0  0  0  0  0  0  0
  -17.3357  -41.1190  -27.2717 N   0  0  0  0  0  0  0  0  0  0  0  0
  -17.6891  -41.5594  -26.0476 C   0  0  0  0  0  0  0  0  0  0  0  0
  -15.0775  -45.1286  -16.6887 H   0  0  0  0  0  0  0  0  0  0  0  0
  -16.0878  -43.6814  -16.6164 H   0  0  0  0  0  0  0  0  0  0  0  0
  -15.1227  -41.7438  -16.2948 H   0  0  0  0  0  0  0  0  0  0  0  0
  -14.6598  -43.3439  -24.5497 H   0  0  0  0  0  0  0  0  0  0  0  0
  -13.5029  -43.9883  -23.3782 H   0  0  0  0  0  0  0  0  0  0  0  0
  -15.1389  -44.6614  -23.5038 H   0  0  0  0  0  0  0  0  0  0  0  0
  -12.9272  -43.2945  -18.5223 H   0  0  0  0  0  0  0  0  0  0  0  0
  -12.9089  -42.9157  -20.8982 H   0  0  0  0  0  0  0  0  0  0  0  0
  -16.9499  -44.8067  -18.8064 H   0  0  0  0  0  0  0  0  0  0  0  0
  -19.4769  -45.4709  -23.9557 H   0  0  0  0  0  0  0  0  0  0  0  0
  -18.7938  -47.5614  -22.4800 H   0  0  0  0  0  0  0  0  0  0  0  0
  -16.9862  -46.8753  -20.6881 H   0  0  0  0  0  0  0  0  0  0  0  0
  -13.7265  -40.7490  -20.7711 H   0  0  0  0  0  0  0  0  0  0  0  0
  -17.2618  -41.7485  -23.9600 H   0  0  0  0  0  0  0  0  0  0  0  0
  -14.3373  -39.7865  -26.4264 H   0  0  0  0  0  0  0  0  0  0  0  0
  -15.8809  -40.1478  -28.3552 H   0  0  0  0  0  0  0  0  0  0  0  0
  -18.6669  -42.0250  -25.9825 H   0  0  0  0  0  0  0  0  0  0  0  0
  -13.2527  -38.6548  -22.0675 H   0  0  0  0  0  0  0  0  0  0  0  0
  2  6  1  0
  4  5  2  0
  1  5  1  0
  5  3  1  0
  7 12  2  0
  7  1  1  0
  7  8  1  0
  8  9  2  0
  9 10  1  0
 10 11  2  0
 10  2  1  0
 11 16  1  0
 11 12  1  0
 13 14  2  0
 13 17  1  0
 14 15  1  0
 15 16  2  0
 16 17  1  0
 18 19  2  0
 18 22  1  0
 19 20  1  0
 20 21  1  0
 21 22  2  0
 22 24  1  0
 23 28  2  0
 23 24  1  0
 24 25  2  0
 25 26  1  0
 26 27  2  0
 27 28  1  0
  2 18  1  0
  1 29  1  0
  1 30  1  0
  3 31  1  0
  6 32  1  0
  6 33  1  0
  6 34  1  0
  8 35  1  0
  9 36  1  0
 12 37  1  0
 13 38  1  0
 14 39  1  0
 15 40  1  0
 19 41  1  0
 23 42  1  0
 25 43  1  0
 26 44  1  0
 28 45  1  0
 20 46  1  0
M  END
>  <smiles>  (785) 
[H]OC(=O)C([H])([H])c1c([H])c([H])c(N(c2c(-c3c([H])c([H])nc([H])c3[H])n[nH]c2[H])C([H])([H])[H])c(-c2sc([H])c([H])c2[H])c1[H]

>  <error>  (785) 


>  <∆∆G>  (785) 
-56.605867

>  <∆G_bound>  (785) 
166.03265

>  <∆G_unbound>  (785) 
222.638517

>  <comRMSD>  (785) 
1.148545

>  <N_constrained_atoms>  (785) 
28.0

>  <N_unconstrained_atoms>  (785) 
0.0

>  <runtime>  (785) 
3.160025

>  <regarded>  (785) 
['5f3z-a', 'd0160a']

>  <disregarded>  (785) 
[]

>  <LE>  (785) 
2.021638

>  <outcome>  (785) 
too moved

>  <percent_hybrid>  (785) 
40.0

$$$$
LIG
     RDKit          3D

 46 49  0  0  0  0  0  0  0  0999 V2000
  -15.2905  -43.1332  -17.3001 C   0  0  0  0  0  0  0  0  0  0  0  0
  -15.1492  -43.8743  -22.9500 O   0  0  0  0  0  0  0  0  0  0  0  0
  -15.8411  -40.7913  -17.5167 O   0  0  0  0  0  0  0  0  0  0  0  0
  -14.3923  -41.3899  -15.8967 O   0  0  0  0  0  0  0  0  0  0  0  0
  -15.1084  -41.7035  -16.8375 C   0  0  0  0  0  0  0  0  0  0  0  0
  -15.1541  -39.7667  -25.6694 C   0  0  0  0  0  0  0  0  0  0  0  0
  -15.2608  -43.3270  -18.7995 C   0  0  0  0  0  0  0  0  0  0  0  0
  -14.2128  -42.8022  -19.5683 C   0  0  0  0  0  0  0  0  0  0  0  0
  -14.2008  -42.9554  -20.9565 C   0  0  0  0  0  0  0  0  0  0  0  0
  -15.2337  -43.6390  -21.5973 C   0  0  0  0  0  0  0  0  0  0  0  0
  -16.2526  -44.2515  -20.8370 C   0  0  0  0  0  0  0  0  0  0  0  0
  -16.2608  -44.0729  -19.4411 C   0  0  0  0  0  0  0  0  0  0  0  0
  -18.7282  -46.2350  -23.0500 C   0  0  0  0  0  0  0  0  0  0  0  0
  -18.3771  -47.0988  -22.0393 C   0  0  0  0  0  0  0  0  0  0  0  0
  -17.5015  -46.4790  -21.1048 C   0  0  0  0  0  0  0  0  0  0  0  0
  -17.2369  -45.1609  -21.4340 C   0  0  0  0  0  0  0  0  0  0  0  0
  -18.2657  -44.6347  -22.6983 S   0  0  0  0  0  0  0  0  0  0  0  0
  -15.0238  -41.6057  -23.9273 C   0  0  0  0  0  0  0  0  0  0  0  0
  -15.4264  -42.9233  -23.8749 C   0  0  0  0  0  0  0  0  0  0  0  0
  -16.1495  -43.1843  -25.0573 C   0  0  0  0  0  0  0  0  0  0  0  0
  -16.1698  -42.0403  -25.8133 C   0  0  0  0  0  0  0  0  0  0  0  0
  -15.4614  -41.0870  -25.1304 N   0  0  0  0  0  0  0  0  0  0  0  0
  -17.1769  -38.6948  -26.7560 C   0  0  0  0  0  0  0  0  0  0  0  0
  -16.3603  -38.8683  -25.6386 C   0  0  0  0  0  0  0  0  0  0  0  0
  -16.7189  -38.1874  -24.4725 C   0  0  0  0  0  0  0  0  0  0  0  0
  -17.8455  -37.3724  -24.4678 C   0  0  0  0  0  0  0  0  0  0  0  0
  -18.5925  -37.2743  -25.6305 C   0  0  0  0  0  0  0  0  0  0  0  0
  -18.2921  -37.9194  -26.7794 N   0  0  0  0  0  0  0  0  0  0  0  0
  -14.4928  -43.7442  -16.8614 H   0  0  0  0  0  0  0  0  0  0  0  0
  -16.2409  -43.4826  -16.8819 H   0  0  0  0  0  0  0  0  0  0  0  0
  -16.3620  -41.1720  -18.2506 H   0  0  0  0  0  0  0  0  0  0  0  0
  -14.3392  -39.3459  -25.0717 H   0  0  0  0  0  0  0  0  0  0  0  0
  -14.7780  -39.9044  -26.6897 H   0  0  0  0  0  0  0  0  0  0  0  0
  -13.3835  -42.2720  -19.0991 H   0  0  0  0  0  0  0  0  0  0  0  0
  -13.3580  -42.5808  -21.5330 H   0  0  0  0  0  0  0  0  0  0  0  0
  -17.0558  -44.5304  -18.8548 H   0  0  0  0  0  0  0  0  0  0  0  0
  -19.2833  -46.4616  -23.9489 H   0  0  0  0  0  0  0  0  0  0  0  0
  -18.6512  -48.1464  -22.0294 H   0  0  0  0  0  0  0  0  0  0  0  0
  -17.0155  -47.0082  -20.2945 H   0  0  0  0  0  0  0  0  0  0  0  0
  -14.4270  -41.0113  -23.2510 H   0  0  0  0  0  0  0  0  0  0  0  0
  -16.5946  -44.1195  -25.3372 H   0  0  0  0  0  0  0  0  0  0  0  0
  -16.5900  -41.8444  -26.7891 H   0  0  0  0  0  0  0  0  0  0  0  0
  -16.9505  -39.1879  -27.6993 H   0  0  0  0  0  0  0  0  0  0  0  0
  -16.1272  -38.2915  -23.5663 H   0  0  0  0  0  0  0  0  0  0  0  0
  -18.1401  -36.8333  -23.5740 H   0  0  0  0  0  0  0  0  0  0  0  0
  -19.4837  -36.6540  -25.6641 H   0  0  0  0  0  0  0  0  0  0  0  0
  4  5  2  0
  1  5  1  0
  5  3  1  0
  7 12  2  0
  7  1  1  0
  7  8  1  0
  8  9  2  0
  9 10  1  0
 10 11  2  0
 10  2  1  0
 11 16  1  0
 11 12  1  0
 13 14  2  0
 13 17  1  0
 14 15  1  0
 15 16  2  0
 16 17  1  0
 18 19  2  0
 18 22  1  0
 19 20  1  0
 20 21  2  0
 21 22  1  0
 22  6  1  0
 23 28  2  0
 23 24  1  0
 24  6  1  0
 24 25  2  0
 25 26  1  0
 26 27  2  0
 27 28  1  0
 19  2  1  0
  1 29  1  0
  1 30  1  0
  3 31  1  0
  6 32  1  0
  6 33  1  0
  8 34  1  0
  9 35  1  0
 12 36  1  0
 13 37  1  0
 14 38  1  0
 15 39  1  0
 18 40  1  0
 20 41  1  0
 21 42  1  0
 23 43  1  0
 25 44  1  0
 26 45  1  0
 27 46  1  0
M  END
>  <smiles>  (786) 
[H]OC(=O)C([H])([H])c1c([H])c([H])c(Oc2c([H])c([H])n(C([H])([H])c3c([H])nc([H])c([H])c3[H])c2[H])c(-c2sc([H])c([H])c2[H])c1[H]

>  <error>  (786) 


>  <∆∆G>  (786) 
-125.45703

>  <∆G_bound>  (786) 
185.452604

>  <∆G_unbound>  (786) 
310.909633

>  <comRMSD>  (786) 
0.977007

>  <N_constrained_atoms>  (786) 
28.0

>  <N_unconstrained_atoms>  (786) 
0.0

>  <runtime>  (786) 
2.914474

>  <regarded>  (786) 
['5f3z-a', 'd0191a']

>  <disregarded>  (786) 
[]

>  <LE>  (786) 
4.480608

>  <outcome>  (786) 
acceptable

>  <percent_hybrid>  (786) 
43.0

$$$$
LIG
     RDKit          3D

 52 54  0  0  0  0  0  0  0  0999 V2000
  -14.6600  -43.1296  -16.5017 C   0  0  0  0  0  0  0  0  0  0  0  0
  -16.1669  -43.5744  -22.4777 C   0  0  2  0  0  0  0  0  0  0  0  0
  -16.2375  -42.4472  -14.8237 O   0  0  0  0  0  0  0  0  0  0  0  0
  -14.2893  -41.3267  -14.9525 O   0  0  0  0  0  0  0  0  0  0  0  0
  -15.0236  -42.2153  -15.3595 C   0  0  0  0  0  0  0  0  0  0  0  0
  -15.5375  -44.5282  -23.4790 C   0  0  0  0  0  0  0  0  0  0  0  0
  -15.3826  -39.5128  -26.3846 C   0  0  0  0  0  0  0  0  0  0  0  0
  -15.2990  -42.6755  -17.8126 C   0  0  0  0  0  0  0  0  0  0  0  0
  -14.3204  -42.7470  -18.9909 C   0  0  0  0  0  0  0  0  0  0  0  0
  -15.0087  -42.4896  -20.3420 C   0  0  0  0  0  0  0  0  0  0  0  0
  -15.3247  -43.7715  -21.1224 C   0  0  1  0  0  0  0  0  0  0  0  0
  -16.1474  -44.7349  -20.3128 C   0  0  0  0  0  0  0  0  0  0  0  0
  -15.9398  -45.6028  -19.2736 C   0  0  0  0  0  0  0  0  0  0  0  0
  -18.6579  -45.1817  -23.1628 C   0  0  0  0  0  0  0  0  0  0  0  0
  -18.5780  -46.6410  -22.7655 C   0  0  0  0  0  0  0  0  0  0  0  0
  -18.0817  -45.7314  -19.7617 C   0  0  0  0  0  0  0  0  0  0  0  0
  -17.4911  -44.8805  -20.6399 C   0  0  0  0  0  0  0  0  0  0  0  0
  -17.9194  -44.0446  -22.0281 S   0  0  1  0  0  0  0  0  0  0  0  0
  -17.1183  -46.1846  -18.9021 O   0  0  0  0  0  0  0  0  0  0  0  0
  -17.1643  -42.0654  -24.2546 C   0  0  0  0  0  0  0  0  0  0  0  0
  -16.2055  -42.2688  -23.2496 C   0  0  0  0  0  0  0  0  0  0  0  0
  -15.0820  -41.5203  -23.2028 N   0  0  0  0  0  0  0  0  0  0  0  0
  -14.8729  -40.6304  -24.1966 C   0  0  0  0  0  0  0  0  0  0  0  0
  -15.7214  -40.4513  -25.2770 C   0  0  0  0  0  0  0  0  0  0  0  0
  -16.9159  -41.1559  -25.2744 C   0  0  0  0  0  0  0  0  0  0  0  0
  -13.5651  -43.1306  -16.5710 H   0  0  0  0  0  0  0  0  0  0  0  0
  -14.9445  -44.1576  -16.2540 H   0  0  0  0  0  0  0  0  0  0  0  0
  -16.7474  -43.1926  -15.2025 H   0  0  0  0  0  0  0  0  0  0  0  0
  -15.6452  -45.5476  -23.1218 H   0  0  0  0  0  0  0  0  0  0  0  0
  -14.4693  -44.3165  -23.6139 H   0  0  0  0  0  0  0  0  0  0  0  0
  -15.9902  -44.4552  -24.4700 H   0  0  0  0  0  0  0  0  0  0  0  0
  -15.7442  -38.5070  -26.1517 H   0  0  0  0  0  0  0  0  0  0  0  0
  -14.3011  -39.4788  -26.5491 H   0  0  0  0  0  0  0  0  0  0  0  0
  -15.8407  -39.8398  -27.3243 H   0  0  0  0  0  0  0  0  0  0  0  0
  -15.6445  -41.6368  -17.7246 H   0  0  0  0  0  0  0  0  0  0  0  0
  -16.2028  -43.2644  -17.9879 H   0  0  0  0  0  0  0  0  0  0  0  0
  -13.5643  -41.9655  -18.8372 H   0  0  0  0  0  0  0  0  0  0  0  0
  -13.7724  -43.6959  -19.0000 H   0  0  0  0  0  0  0  0  0  0  0  0
  -15.9126  -41.8841  -20.2022 H   0  0  0  0  0  0  0  0  0  0  0  0
  -14.3107  -41.8879  -20.9334 H   0  0  0  0  0  0  0  0  0  0  0  0
  -14.3624  -44.2508  -21.3503 H   0  0  0  0  0  0  0  0  0  0  0  0
  -15.0824  -45.8885  -18.6893 H   0  0  0  0  0  0  0  0  0  0  0  0
  -18.2045  -45.0167  -24.1391 H   0  0  0  0  0  0  0  0  0  0  0  0
  -19.7003  -44.8638  -23.2523 H   0  0  0  0  0  0  0  0  0  0  0  0
  -18.8826  -47.2789  -23.6008 H   0  0  0  0  0  0  0  0  0  0  0  0
  -19.2314  -46.8680  -21.9211 H   0  0  0  0  0  0  0  0  0  0  0  0
  -17.5659  -46.9158  -22.4693 H   0  0  0  0  0  0  0  0  0  0  0  0
  -19.0737  -46.1362  -19.6230 H   0  0  0  0  0  0  0  0  0  0  0  0
  -18.0574  -42.6723  -24.3276 H   0  0  0  0  0  0  0  0  0  0  0  0
  -13.9527  -40.0625  -24.1095 H   0  0  0  0  0  0  0  0  0  0  0  0
  -17.6320  -41.0332  -26.0825 H   0  0  0  0  0  0  0  0  0  0  0  0
  -18.6680  -42.9512  -21.7541 H   0  0  0  0  0  0  0  0  0  0  0  0
  2  6  1  1
  4  5  2  0
  1  5  1  0
  5  3  1  0
  8  1  1  0
  8  9  1  0
  9 10  1  0
 10 11  1  0
 11 12  1  0
 11  2  1  0
 12 17  1  0
 12 13  2  0
 14 15  1  0
 14 18  1  0
 16 17  2  0
 17 18  1  0
 20 25  2  0
 20 21  1  0
 21 22  2  0
 22 23  1  0
 23 24  2  0
 24  7  1  0
 24 25  1  0
 13 19  1  0
 16 19  1  0
 18  2  1  0
  2 21  1  0
  1 26  1  0
  1 27  1  0
  3 28  1  0
  6 29  1  0
  6 30  1  0
  6 31  1  0
  7 32  1  0
  7 33  1  0
  7 34  1  0
  8 35  1  0
  8 36  1  0
  9 37  1  0
  9 38  1  0
 10 39  1  0
 10 40  1  0
 11 41  1  1
 13 42  1  0
 14 43  1  0
 14 44  1  0
 15 45  1  0
 15 46  1  0
 15 47  1  0
 16 48  1  0
 20 49  1  0
 23 50  1  0
 25 51  1  0
 18 52  1  1
M  END
>  <smiles>  (787) 
[H]OC(=O)C([H])([H])C([H])([H])C([H])([H])C([H])([H])[C@]1([H])c2c([H])oc([H])c2[S@H](C([H])([H])C([H])([H])[H])[C@@]1(c1nc([H])c(C([H])([H])[H])c([H])c1[H])C([H])([H])[H]

>  <error>  (787) 


>  <∆∆G>  (787) 
-199.239711

>  <∆G_bound>  (787) 
128.685778

>  <∆G_unbound>  (787) 
327.925489

>  <comRMSD>  (787) 
1.420269

>  <N_constrained_atoms>  (787) 
25.0

>  <N_unconstrained_atoms>  (787) 
0.0

>  <runtime>  (787) 
3.475415

>  <regarded>  (787) 
['5f3z-a', 'd0254a']

>  <disregarded>  (787) 
[]

>  <LE>  (787) 
7.969588

>  <outcome>  (787) 
too moved

>  <percent_hybrid>  (787) 
32.0

$$$$
LIG
     RDKit          3D

 62 64  0  0  0  0  0  0  0  0999 V2000
  -14.3864  -43.4415  -16.8892 C   0  0  0  0  0  0  0  0  0  0  0  0
  -15.7668  -43.1257  -22.3961 O   0  0  0  0  0  0  0  0  0  0  0  0
  -15.9261  -41.6051  -16.5194 O   0  0  0  0  0  0  0  0  0  0  0  0
  -14.1310  -41.7740  -15.1718 O   0  0  0  0  0  0  0  0  0  0  0  0
  -14.7778  -42.1960  -16.1215 C   0  0  0  0  0  0  0  0  0  0  0  0
  -14.6682  -43.1771  -23.3131 C   0  0  0  0  0  0  0  0  0  0  0  0
  -23.0889  -46.4737  -18.3922 O   0  0  0  0  0  0  0  0  0  0  0  0
  -22.4166  -46.1884  -17.4847 C   0  0  0  0  0  0  0  0  0  0  0  0
  -22.3431  -47.0392  -16.2159 C   0  0  0  0  0  0  0  0  0  0  0  0
  -23.1591  -46.3824  -15.1094 C   0  0  0  0  0  0  0  0  0  0  0  0
  -22.8707  -48.4423  -16.5039 C   0  0  0  0  0  0  0  0  0  0  0  0
  -21.4749  -44.9812  -17.2769 N   0  0  0  0  0  0  0  0  0  0  0  0
  -21.0887  -43.9119  -18.1923 C   0  0  1  0  0  0  0  0  0  0  0  0
  -21.5451  -42.6034  -17.5479 C   0  0  0  0  0  0  0  0  0  0  0  0
  -19.9469  -42.0419  -20.3665 C   0  0  0  0  0  0  0  0  0  0  0  0
  -14.7084  -43.4211  -18.3665 C   0  0  0  0  0  0  0  0  0  0  0  0
  -14.1472  -42.4460  -19.1892 C   0  0  0  0  0  0  0  0  0  0  0  0
  -14.4898  -42.3830  -20.5361 C   0  0  0  0  0  0  0  0  0  0  0  0
  -15.3861  -43.3022  -21.0920 C   0  0  0  0  0  0  0  0  0  0  0  0
  -15.9537  -44.3188  -20.2999 C   0  0  0  0  0  0  0  0  0  0  0  0
  -15.5703  -44.3667  -18.9376 C   0  0  0  0  0  0  0  0  0  0  0  0
  -18.5941  -46.5224  -22.5498 C   0  0  0  0  0  0  0  0  0  0  0  0
  -18.9220  -46.6711  -21.0769 C   0  0  0  0  0  0  0  0  0  0  0  0
  -18.4043  -45.4127  -20.3762 C   0  0  2  0  0  0  0  0  0  0  0  0
  -16.8913  -45.4177  -20.7762 C   0  0  1  0  0  0  0  0  0  0  0  0
  -17.0150  -45.6559  -22.5638 S   0  0  0  0  0  0  0  0  0  0  0  0
  -19.5703  -43.8547  -18.5120 C   0  0  1  0  0  0  0  0  0  0  0  0
  -18.7593  -45.5095  -18.5844 S   0  0  0  0  0  0  0  0  0  0  0  0
  -19.1696  -44.2556  -20.8730 N   0  0  0  0  0  0  0  0  0  0  0  0
  -19.1412  -43.2183  -19.8523 C   0  0  1  0  0  0  0  0  0  0  0  0
  -13.3029  -43.5742  -16.7834 H   0  0  0  0  0  0  0  0  0  0  0  0
  -14.8707  -44.2924  -16.3982 H   0  0  0  0  0  0  0  0  0  0  0  0
  -16.3544  -42.0449  -17.2780 H   0  0  0  0  0  0  0  0  0  0  0  0
  -14.2305  -42.1808  -23.4187 H   0  0  0  0  0  0  0  0  0  0  0  0
  -13.9095  -43.9088  -23.0126 H   0  0  0  0  0  0  0  0  0  0  0  0
  -15.0601  -43.4750  -24.2904 H   0  0  0  0  0  0  0  0  0  0  0  0
  -21.2954  -47.1258  -15.9080 H   0  0  0  0  0  0  0  0  0  0  0  0
  -23.1276  -46.9816  -14.1979 H   0  0  0  0  0  0  0  0  0  0  0  0
  -22.7750  -45.3865  -14.8654 H   0  0  0  0  0  0  0  0  0  0  0  0
  -24.2080  -46.2653  -15.4047 H   0  0  0  0  0  0  0  0  0  0  0  0
  -22.8660  -49.0514  -15.5990 H   0  0  0  0  0  0  0  0  0  0  0  0
  -23.9003  -48.4153  -16.8739 H   0  0  0  0  0  0  0  0  0  0  0  0
  -22.2620  -48.9450  -17.2613 H   0  0  0  0  0  0  0  0  0  0  0  0
  -20.9767  -45.0870  -16.3979 H   0  0  0  0  0  0  0  0  0  0  0  0
  -21.6576  -44.0837  -19.1130 H   0  0  0  0  0  0  0  0  0  0  0  0
  -21.0260  -42.4272  -16.5985 H   0  0  0  0  0  0  0  0  0  0  0  0
  -21.3834  -41.7337  -18.1850 H   0  0  0  0  0  0  0  0  0  0  0  0
  -22.6179  -42.6421  -17.3236 H   0  0  0  0  0  0  0  0  0  0  0  0
  -21.0018  -42.2822  -20.4521 H   0  0  0  0  0  0  0  0  0  0  0  0
  -19.8408  -41.1840  -19.6947 H   0  0  0  0  0  0  0  0  0  0  0  0
  -19.5943  -41.7158  -21.3521 H   0  0  0  0  0  0  0  0  0  0  0  0
  -13.4481  -41.7118  -18.7904 H   0  0  0  0  0  0  0  0  0  0  0  0
  -14.0675  -41.5896  -21.1472 H   0  0  0  0  0  0  0  0  0  0  0  0
  -15.9471  -45.1695  -18.3068 H   0  0  0  0  0  0  0  0  0  0  0  0
  -18.5533  -47.4870  -23.0592 H   0  0  0  0  0  0  0  0  0  0  0  0
  -19.2877  -45.8744  -23.0847 H   0  0  0  0  0  0  0  0  0  0  0  0
  -19.9831  -46.8308  -20.9052 H   0  0  0  0  0  0  0  0  0  0  0  0
  -18.4104  -47.5609  -20.6915 H   0  0  0  0  0  0  0  0  0  0  0  0
  -16.4368  -46.3531  -20.4162 H   0  0  0  0  0  0  0  0  0  0  0  0
  -19.0623  -43.3114  -17.7062 H   0  0  0  0  0  0  0  0  0  0  0  0
  -18.7170  -43.9199  -21.7293 H   0  0  0  0  0  0  0  0  0  0  0  0
  -18.1164  -42.8451  -19.7376 H   0  0  0  0  0  0  0  0  0  0  0  0
  2  6  1  0
  4  5  2  0
  1  5  1  0
  5  3  1  0
 11  9  1  0
 10  9  1  0
  9  8  1  0
  8  7  2  0
 12  8  1  0
 13 12  1  0
 13 14  1  0
 16 21  2  0
 16  1  1  0
 16 17  1  0
 17 18  2  0
 18 19  1  0
 19 20  2  0
 19  2  1  0
 20 25  1  0
 20 21  1  0
 22 23  1  0
 22 26  1  0
 23 24  1  0
 24 25  1  0
 25 26  1  0
 27 13  1  0
 27 28  1  0
 27 30  1  0
 29 30  1  0
 30 15  1  0
 24 28  1  6
 24 29  1  0
  1 31  1  0
  1 32  1  0
  3 33  1  0
  6 34  1  0
  6 35  1  0
  6 36  1  0
  9 37  1  0
 10 38  1  0
 10 39  1  0
 10 40  1  0
 11 41  1  0
 11 42  1  0
 11 43  1  0
 12 44  1  0
 13 45  1  6
 14 46  1  0
 14 47  1  0
 14 48  1  0
 15 49  1  0
 15 50  1  0
 15 51  1  0
 17 52  1  0
 18 53  1  0
 21 54  1  0
 22 55  1  0
 22 56  1  0
 23 57  1  0
 23 58  1  0
 25 59  1  1
 27 60  1  1
 29 61  1  0
 30 62  1  1
M  END
>  <smiles>  (788) 
[H]OC(=O)C([H])([H])c1c([H])c([H])c(OC([H])([H])[H])c([C@]2([H])SC([H])([H])C([H])([H])[C@]23S[C@]([H])([C@@]([H])(N([H])C(=O)C([H])(C([H])([H])[H])C([H])([H])[H])C([H])([H])[H])[C@]([H])(C([H])([H])[H])N3[H])c1[H]

>  <error>  (788) 


>  <∆∆G>  (788) 
-292.937186

>  <∆G_bound>  (788) 
97.915879

>  <∆G_unbound>  (788) 
390.853066

>  <comRMSD>  (788) 
1.176844

>  <N_constrained_atoms>  (788) 
30.0

>  <N_unconstrained_atoms>  (788) 
0.0

>  <runtime>  (788) 
62.127633

>  <regarded>  (788) 
['5f3z-a', 'd0264a']

>  <disregarded>  (788) 
[]

>  <LE>  (788) 
9.764573

>  <outcome>  (788) 
too moved

>  <percent_hybrid>  (788) 
44.0

$$$$
LIG
     RDKit          3D

 29 30  0  0  0  0  0  0  0  0999 V2000
  -15.4535  -43.4098  -17.0925 C   0  0  0  0  0  0  0  0  0  0  0  0
  -15.1987  -44.2064  -22.7304 O   0  0  0  0  0  0  0  0  0  0  0  0
  -15.4023  -41.0047  -17.1997 O   0  0  0  0  0  0  0  0  0  0  0  0
  -14.0849  -42.0197  -15.6739 O   0  0  0  0  0  0  0  0  0  0  0  0
  -14.8998  -42.0988  -16.5824 C   0  0  0  0  0  0  0  0  0  0  0  0
  -14.2622  -43.4994  -23.5208 C   0  0  0  0  0  0  0  0  0  0  0  0
  -15.3500  -43.6163  -18.5870 C   0  0  0  0  0  0  0  0  0  0  0  0
  -14.2145  -43.2113  -19.3017 C   0  0  0  0  0  0  0  0  0  0  0  0
  -14.1370  -43.3908  -20.6857 C   0  0  0  0  0  0  0  0  0  0  0  0
  -15.1864  -43.9953  -21.3774 C   0  0  0  0  0  0  0  0  0  0  0  0
  -16.3029  -44.4793  -20.6642 C   0  0  0  0  0  0  0  0  0  0  0  0
  -16.3757  -44.2825  -19.2758 C   0  0  0  0  0  0  0  0  0  0  0  0
  -18.7621  -46.1462  -23.1288 C   0  0  0  0  0  0  0  0  0  0  0  0
  -18.5342  -47.0867  -22.1494 C   0  0  0  0  0  0  0  0  0  0  0  0
  -17.7069  -46.5773  -21.1108 C   0  0  0  0  0  0  0  0  0  0  0  0
  -17.3344  -45.2676  -21.3461 C   0  0  0  0  0  0  0  0  0  0  0  0
  -18.2044  -44.6034  -22.6702 S   0  0  0  0  0  0  0  0  0  0  0  0
  -14.9183  -44.2270  -16.5953 H   0  0  0  0  0  0  0  0  0  0  0  0
  -16.5002  -43.4519  -16.7708 H   0  0  0  0  0  0  0  0  0  0  0  0
  -16.0264  -41.2160  -17.9219 H   0  0  0  0  0  0  0  0  0  0  0  0
  -14.2312  -42.4359  -23.2634 H   0  0  0  0  0  0  0  0  0  0  0  0
  -13.2815  -43.9722  -23.4346 H   0  0  0  0  0  0  0  0  0  0  0  0
  -14.5812  -43.5731  -24.5636 H   0  0  0  0  0  0  0  0  0  0  0  0
  -13.3657  -42.7479  -18.7975 H   0  0  0  0  0  0  0  0  0  0  0  0
  -13.2271  -43.0818  -21.1946 H   0  0  0  0  0  0  0  0  0  0  0  0
  -17.2466  -44.6504  -18.7370 H   0  0  0  0  0  0  0  0  0  0  0  0
  -19.2706  -46.2823  -24.0739 H   0  0  0  0  0  0  0  0  0  0  0  0
  -18.8708  -48.1134  -22.2217 H   0  0  0  0  0  0  0  0  0  0  0  0
  -17.3122  -47.1816  -20.3041 H   0  0  0  0  0  0  0  0  0  0  0  0
  2  6  1  0
  4  5  2  0
  1  5  1  0
  5  3  1  0
  7 12  2  0
  7  1  1  0
  7  8  1  0
  8  9  2  0
  9 10  1  0
 10 11  2  0
 10  2  1  0
 11 16  1  0
 11 12  1  0
 13 14  2  0
 13 17  1  0
 14 15  1  0
 15 16  2  0
 16 17  1  0
  1 18  1  0
  1 19  1  0
  3 20  1  0
  6 21  1  0
  6 22  1  0
  6 23  1  0
  8 24  1  0
  9 25  1  0
 12 26  1  0
 13 27  1  0
 14 28  1  0
 15 29  1  0
M  END
>  <smiles>  (789) 
[H]OC(=O)C([H])([H])c1c([H])c([H])c(OC([H])([H])[H])c(-c2sc([H])c([H])c2[H])c1[H]

>  <error>  (789) 


>  <∆∆G>  (789) 
-46.90676

>  <∆G_bound>  (789) 
-62.693912

>  <∆G_unbound>  (789) 
-15.787152

>  <comRMSD>  (789) 
1.125184

>  <N_constrained_atoms>  (789) 
17.0

>  <N_unconstrained_atoms>  (789) 
0.0

>  <runtime>  (789) 
1.044036

>  <regarded>  (789) 
['5f3z-a', 'd0472a']

>  <disregarded>  (789) 
[]

>  <LE>  (789) 
2.759221

>  <outcome>  (789) 
equally sized

>  <percent_hybrid>  (789) 
0.0

$$$$

     RDKit          2D

  0  0  0  0  0  0  0  0  0  0999 V2000
M  END
>  <smiles>  (790) 
nan

>  <error>  (790) 
FragmensteinError Ideal compound failed. Something is wrong with the SMILES

>  <∆∆G>  (790) 
nan

>  <∆G_bound>  (790) 
nan

>  <∆G_unbound>  (790) 
nan

>  <comRMSD>  (790) 
nan

>  <N_constrained_atoms>  (790) 
nan

>  <N_unconstrained_atoms>  (790) 
nan

>  <runtime>  (790) 
nan

>  <regarded>  (790) 
[]

>  <disregarded>  (790) 
[]

>  <LE>  (790) 
nan

>  <outcome>  (790) 
crashed

>  <percent_hybrid>  (790) 
nan

$$$$
LIG
     RDKit          3D

 61 64  0  0  0  0  0  0  0  0999 V2000
  -14.1185  -42.6147  -17.9450 C   0  0  0  0  0  0  0  0  0  0  0  0
  -15.1291  -42.8286  -15.7856 O   0  0  0  0  0  0  0  0  0  0  0  0
  -14.1740  -44.6603  -16.6881 O   0  0  0  0  0  0  0  0  0  0  0  0
  -14.4599  -43.4739  -16.7587 C   0  0  0  0  0  0  0  0  0  0  0  0
  -18.7583  -43.1533  -24.6808 F   0  0  0  0  0  0  0  0  0  0  0  0
  -15.3266  -40.7620  -24.2667 N   0  0  0  0  0  0  0  0  0  0  0  0
  -15.2769  -40.0969  -25.5792 C   0  0  0  0  0  0  0  0  0  0  0  0
  -18.9452  -36.3006  -24.9175 C   0  0  0  0  0  0  0  0  0  0  0  0
  -15.2716  -42.5382  -18.9519 C   0  0  1  0  0  0  0  0  0  0  0  0
  -14.9691  -41.4561  -19.9851 C   0  0  0  0  0  0  0  0  0  0  0  0
  -16.0565  -41.3537  -21.0605 C   0  0  0  0  0  0  0  0  0  0  0  0
  -16.2937  -42.6692  -21.8863 C   0  0  2  0  0  0  0  0  0  0  0  0
  -16.6173  -43.7488  -20.7528 C   0  0  2  0  0  0  0  0  0  0  0  0
  -15.5278  -43.8723  -19.6571 C   0  0  0  0  0  0  0  0  0  0  0  0
  -18.6168  -47.0192  -21.7593 C   0  0  0  0  0  0  0  0  0  0  0  0
  -17.3893  -47.4423  -21.3247 C   0  0  0  0  0  0  0  0  0  0  0  0
  -16.5393  -46.3567  -20.9933 C   0  0  0  0  0  0  0  0  0  0  0  0
  -17.1445  -45.1229  -21.1433 C   0  0  0  0  0  0  0  0  0  0  0  0
  -18.7888  -45.3365  -21.6093 S   0  0  0  0  0  0  0  0  0  0  0  0
  -17.5583  -43.2632  -24.0450 C   0  0  1  0  0  0  0  0  0  0  0  0
  -16.4602  -42.8451  -25.0043 C   0  0  0  0  0  0  0  0  0  0  0  0
  -15.2378  -42.2267  -24.3056 C   0  0  2  0  0  0  0  0  0  0  0  0
  -15.0386  -42.8265  -22.8542 C   0  0  2  0  0  0  0  0  0  0  0  0
  -17.5654  -42.4303  -22.7698 C   0  0  0  0  0  0  0  0  0  0  0  0
  -17.2660  -38.9329  -26.7935 C   0  0  0  0  0  0  0  0  0  0  0  0
  -18.2357  -37.9537  -26.6343 N   0  0  0  0  0  0  0  0  0  0  0  0
  -18.0851  -37.3898  -25.4532 C   0  0  0  0  0  0  0  0  0  0  0  0
  -16.7869  -37.9815  -24.4991 S   0  0  0  0  0  0  0  0  0  0  0  0
  -16.4061  -39.1215  -25.7265 C   0  0  0  0  0  0  0  0  0  0  0  0
  -14.5329  -44.2466  -23.0114 C   0  0  0  0  0  0  0  0  0  0  0  0
  -13.8440  -41.6181  -17.5779 H   0  0  0  0  0  0  0  0  0  0  0  0
  -13.2119  -43.0214  -18.4103 H   0  0  0  0  0  0  0  0  0  0  0  0
  -15.3365  -41.8945  -15.9759 H   0  0  0  0  0  0  0  0  0  0  0  0
  -14.5696  -40.3866  -23.6987 H   0  0  0  0  0  0  0  0  0  0  0  0
  -14.3260  -39.5602  -25.6711 H   0  0  0  0  0  0  0  0  0  0  0  0
  -15.2945  -40.8098  -26.4118 H   0  0  0  0  0  0  0  0  0  0  0  0
  -18.3538  -35.4042  -24.7054 H   0  0  0  0  0  0  0  0  0  0  0  0
  -19.7151  -36.0298  -25.6474 H   0  0  0  0  0  0  0  0  0  0  0  0
  -19.4490  -36.6173  -23.9988 H   0  0  0  0  0  0  0  0  0  0  0  0
  -16.1868  -42.2554  -18.4137 H   0  0  0  0  0  0  0  0  0  0  0  0
  -14.8968  -40.4847  -19.4791 H   0  0  0  0  0  0  0  0  0  0  0  0
  -13.9881  -41.6311  -20.4398 H   0  0  0  0  0  0  0  0  0  0  0  0
  -16.9961  -41.0622  -20.5696 H   0  0  0  0  0  0  0  0  0  0  0  0
  -15.8088  -40.5160  -21.7202 H   0  0  0  0  0  0  0  0  0  0  0  0
  -17.4726  -43.3154  -20.2033 H   0  0  0  0  0  0  0  0  0  0  0  0
  -14.5908  -44.2537  -20.0734 H   0  0  0  0  0  0  0  0  0  0  0  0
  -15.8483  -44.6033  -18.9031 H   0  0  0  0  0  0  0  0  0  0  0  0
  -19.4210  -47.6557  -22.0921 H   0  0  0  0  0  0  0  0  0  0  0  0
  -17.1034  -48.4870  -21.2755 H   0  0  0  0  0  0  0  0  0  0  0  0
  -15.5286  -46.4859  -20.6314 H   0  0  0  0  0  0  0  0  0  0  0  0
  -17.4372  -44.3227  -23.8248 H   0  0  0  0  0  0  0  0  0  0  0  0
  -16.1312  -43.7332  -25.5554 H   0  0  0  0  0  0  0  0  0  0  0  0
  -16.8831  -42.1929  -25.7759 H   0  0  0  0  0  0  0  0  0  0  0  0
  -14.3430  -42.4667  -24.8926 H   0  0  0  0  0  0  0  0  0  0  0  0
  -14.1884  -42.2847  -22.4236 H   0  0  0  0  0  0  0  0  0  0  0  0
  -17.6432  -41.3727  -23.0562 H   0  0  0  0  0  0  0  0  0  0  0  0
  -18.4871  -42.5961  -22.2029 H   0  0  0  0  0  0  0  0  0  0  0  0
  -17.2316  -39.4899  -27.7224 H   0  0  0  0  0  0  0  0  0  0  0  0
  -14.1691  -44.6527  -22.0686 H   0  0  0  0  0  0  0  0  0  0  0  0
  -15.3011  -44.9152  -23.4003 H   0  0  0  0  0  0  0  0  0  0  0  0
  -13.6781  -44.2702  -23.6958 H   0  0  0  0  0  0  0  0  0  0  0  0
  3  4  2  0
  1  4  1  0
  4  2  1  0
  7  6  1  0
  9 14  1  0
  9  1  1  0
  9 10  1  0
 10 11  1  0
 12 11  1  6
 12 13  1  0
 13 18  1  0
 13 14  1  0
 15 16  2  0
 15 19  1  0
 16 17  1  0
 17 18  2  0
 18 19  1  0
 20 24  1  0
 20  5  1  0
 20 21  1  0
 21 22  1  0
 22  6  1  0
 22 23  1  0
 25 26  1  0
 25 29  2  0
 26 27  2  0
 27  8  1  0
 27 28  1  0
 28 29  1  0
 29  7  1  0
 12 23  1  0
 12 24  1  0
 23 30  1  0
  1 31  1  0
  1 32  1  0
  2 33  1  0
  6 34  1  0
  7 35  1  0
  7 36  1  0
  8 37  1  0
  8 38  1  0
  8 39  1  0
  9 40  1  1
 10 41  1  0
 10 42  1  0
 11 43  1  0
 11 44  1  0
 13 45  1  1
 14 46  1  0
 14 47  1  0
 15 48  1  0
 16 49  1  0
 17 50  1  0
 20 51  1  1
 21 52  1  0
 21 53  1  0
 22 54  1  6
 23 55  1  1
 24 56  1  0
 24 57  1  0
 25 58  1  0
 30 59  1  0
 30 60  1  0
 30 61  1  0
M  END
>  <smiles>  (791) 
[H]OC(=O)C([H])([H])[C@@]1([H])C([H])([H])C([H])([H])[C@@]2(C([H])([H])[C@@]([H])(F)C([H])([H])[C@@]([H])(N([H])C([H])([H])c3sc(C([H])([H])[H])nc3[H])[C@]2([H])C([H])([H])[H])[C@@]([H])(c2sc([H])c([H])c2[H])C1([H])[H]

>  <error>  (791) 


>  <∆∆G>  (791) 
-112.223451

>  <∆G_bound>  (791) 
100.045761

>  <∆G_unbound>  (791) 
212.269212

>  <comRMSD>  (791) 
1.369205

>  <N_constrained_atoms>  (791) 
30.0

>  <N_unconstrained_atoms>  (791) 
0.0

>  <runtime>  (791) 
5.540399

>  <regarded>  (791) 
['5f3z-a', 'd0615b']

>  <disregarded>  (791) 
[]

>  <LE>  (791) 
3.740782

>  <outcome>  (791) 
too moved

>  <percent_hybrid>  (791) 
47.0

$$$$
LIG
     RDKit          3D

  0  0  0  0  0  0  0  0  0  0999 V3000
M  V30 BEGIN CTAB
M  V30 COUNTS 59 61 0 0 0
M  V30 BEGIN ATOM
M  V30 1 C -15.214000 -44.195999 -17.205000 0
M  V30 2 O -15.494000 -43.783001 -22.902000 0
M  V30 3 O -16.777000 -42.421001 -17.035999 0
M  V30 4 O -16.753000 -43.901001 -15.424000 0
M  V30 5 C -16.329000 -43.459000 -16.510000 0
M  V30 6 C -14.517000 -43.076000 -23.669001 0
M  V30 7 C -15.306000 -44.067001 -18.719000 0
M  V30 8 C -14.378000 -43.289001 -19.424000 0
M  V30 9 C -14.418000 -43.181999 -20.811001 0
M  V30 10 C -15.437000 -43.837002 -21.528000 0
M  V30 11 C -16.427999 -44.655998 -20.771000 0
M  V30 12 C -16.327000 -44.730000 -19.385000 0
M  V30 13 C -19.254999 -46.200001 -23.139999 0
M  V30 14 C -19.083000 -47.027000 -22.037001 0
M  V30 15 C -18.115999 -46.647999 -21.094999 0
M  V30 16 C -17.504000 -45.448002 -21.427000 0
M  V30 17 S -18.162001 -44.875000 -22.916000 0
M  V30 18 O -19.445000 -40.158001 -24.528000 0
M  V30 19 S -18.933001 -39.846001 -25.825001 0
M  V30 20 O -18.877001 -38.480999 -26.240999 0
M  V30 21 C -19.827000 -40.765999 -27.018000 0
M  V30 22 C -16.511999 -41.500999 -27.914000 0
M  V30 23 C -15.906000 -38.516998 -25.243999 0
M  V30 24 O -16.229000 -38.262001 -26.598000 0
M  V30 25 N -17.393000 -40.395000 -25.853001 0
M  V30 26 C -17.198999 -41.683998 -26.573000 0 CFG=2
M  V30 27 C -16.566000 -42.779999 -25.714001 0
M  V30 28 C -15.991000 -42.259998 -24.402000 0 CFG=2
M  V30 29 C -15.366000 -40.882000 -24.551001 0
M  V30 30 C -16.459999 -39.863998 -24.820000 0 CFG=1
M  V30 31 N -15.254000 -42.667999 -24.035500 0
M  V30 32 H -14.251321 -43.781971 -16.870588 0
M  V30 33 H -15.297673 -45.262238 -16.947838 0
M  V30 34 H -16.410524 -42.106056 -17.900063 0
M  V30 35 H -13.847925 -42.418690 -23.094299 0
M  V30 36 H -13.730159 -43.566441 -24.260904 0
M  V30 37 H -13.598079 -42.749119 -18.866999 0
M  V30 38 H -13.658869 -42.589901 -21.343107 0
M  V30 39 H -17.060936 -45.317593 -18.813972 0
M  V30 40 H -19.944296 -46.354939 -23.983126 0
M  V30 41 H -19.680742 -47.941364 -21.907997 0
M  V30 42 H -17.871052 -47.234116 -20.196964 0
M  V30 43 H -20.506313 -41.465069 -26.508259 0
M  V30 44 H -20.412142 -40.079388 -27.647423 0
M  V30 45 H -19.123901 -41.331223 -27.647423 0
M  V30 46 H -15.460629 -41.220943 -27.752167 0
M  V30 47 H -16.557558 -42.442596 -28.480846 0
M  V30 48 H -17.019920 -40.706833 -28.480846 0
M  V30 49 H -14.812429 -38.519810 -25.125275 0
M  V30 50 H -16.349152 -37.731411 -24.614344 0
M  V30 51 H -17.005259 -37.649174 -26.642309 0
M  V30 52 H -18.210634 -42.054550 -26.795010 0
M  V30 53 H -16.529486 -43.837841 -26.013391 0
M  V30 54 H -15.597886 -42.607105 -26.206812 0
M  V30 55 H -16.898382 -42.391304 -23.794203 0
M  V30 56 H -14.291663 -40.658054 -24.475843 0
M  V30 57 H -15.255508 -41.049068 -25.632610 0
M  V30 58 H -17.003857 -39.699589 -23.878094 0
M  V30 59 H -14.174000 -41.587997 -22.955500 0
M  V30 END ATOM
M  V30 BEGIN BOND
M  V30 1 1 2 6
M  V30 2 2 4 5
M  V30 3 1 1 5
M  V30 4 1 5 3
M  V30 5 2 7 12
M  V30 6 1 7 1
M  V30 7 1 7 8
M  V30 8 2 8 9
M  V30 9 1 9 10
M  V30 10 2 10 11
M  V30 11 1 10 2
M  V30 12 1 11 16
M  V30 13 1 11 12
M  V30 14 2 13 14
M  V30 15 1 13 17
M  V30 16 1 14 15
M  V30 17 2 15 16
M  V30 18 1 16 17
M  V30 19 1 24 23
M  V30 20 1 21 19
M  V30 21 2 20 19
M  V30 22 2 19 18
M  V30 23 1 25 30
M  V30 24 1 25 19
M  V30 25 1 25 26
M  V30 26 1 26 22
M  V30 27 1 26 27
M  V30 28 1 27 28
M  V30 29 1 28 29
M  V30 30 1 29 30
M  V30 31 1 30 23
M  V30 32 1 31 6
M  V30 33 1 31 28
M  V30 34 1 1 32
M  V30 35 1 1 33
M  V30 36 1 3 34
M  V30 37 1 6 35
M  V30 38 1 6 36
M  V30 39 1 8 37
M  V30 40 1 9 38
M  V30 41 1 12 39
M  V30 42 1 13 40
M  V30 43 1 14 41
M  V30 44 1 15 42
M  V30 45 1 21 43
M  V30 46 1 21 44
M  V30 47 1 21 45
M  V30 48 1 22 46
M  V30 49 1 22 47
M  V30 50 1 22 48
M  V30 51 1 23 49
M  V30 52 1 23 50
M  V30 53 1 24 51
M  V30 54 1 26 52 CFG=3
M  V30 55 1 27 53
M  V30 56 1 27 54
M  V30 57 1 28 55 CFG=1
M  V30 58 1 29 56
M  V30 59 1 29 57
M  V30 60 1 30 58 CFG=1
M  V30 61 1 31 59
M  V30 END BOND
M  V30 BEGIN COLLECTION
M  V30 MDLV30/STEABS ATOMS=(0)
M  V30 END COLLECTION
M  V30 END CTAB
M  END
>  <smiles>  (792) 
[H]OC(=O)C([H])([H])c1c([H])c([H])c(OC([H])([H])N([H])[C@]2([H])C([H])([H])[C@]([H])(C([H])([H])[H])N(S(=O)(=O)C([H])([H])[H])[C@]([H])(C([H])([H])O[H])C2([H])[H])c(-c2sc([H])c([H])c2[H])c1[H]

>  <error>  (792) 


>  <∆∆G>  (792) 
nan

>  <∆G_bound>  (792) 
nan

>  <∆G_unbound>  (792) 
nan

>  <comRMSD>  (792) 
0.0

>  <N_constrained_atoms>  (792) 
30.0

>  <N_unconstrained_atoms>  (792) 
1.0

>  <runtime>  (792) 
2.016162

>  <regarded>  (792) 
['5f3z-a', 'd0851a']

>  <disregarded>  (792) 
[]

>  <LE>  (792) 
nan

>  <outcome>  (792) 
crashed

>  <percent_hybrid>  (792) 
44.0

$$$$
LIG
     RDKit          3D

 64 67  0  0  0  0  0  0  0  0999 V2000
  -15.0926  -43.4821  -17.1072 C   0  0  0  0  0  0  0  0  0  0  0  0
  -15.1310  -43.9792  -22.7865 O   0  0  0  0  0  0  0  0  0  0  0  0
  -17.4354  -43.0819  -16.8334 O   0  0  0  0  0  0  0  0  0  0  0  0
  -16.0454  -41.7431  -15.7090 O   0  0  0  0  0  0  0  0  0  0  0  0
  -16.2001  -42.6597  -16.5018 C   0  0  0  0  0  0  0  0  0  0  0  0
  -15.0735  -42.7482  -23.5429 C   0  0  0  0  0  0  0  0  0  0  0  0
  -18.8225  -37.0269  -26.2175 O   0  0  0  0  0  0  0  0  0  0  0  0
  -17.8818  -37.0511  -25.5058 C   0  0  0  0  0  0  0  0  0  0  0  0
  -18.8011  -39.9119  -25.0882 C   0  0  0  0  0  0  0  0  0  0  0  0
  -16.6858  -41.9136  -23.7607 S   0  0  0  0  0  0  0  0  0  0  0  0
  -17.1086  -41.3641  -22.4871 O   0  0  0  0  0  0  0  0  0  0  0  0
  -17.5617  -42.7618  -24.5463 O   0  0  0  0  0  0  0  0  0  0  0  0
  -15.1208  -43.6111  -18.6105 C   0  0  0  0  0  0  0  0  0  0  0  0
  -14.1493  -42.9715  -19.3859 C   0  0  0  0  0  0  0  0  0  0  0  0
  -14.1578  -43.0893  -20.7766 C   0  0  0  0  0  0  0  0  0  0  0  0
  -15.1557  -43.8241  -21.4229 C   0  0  0  0  0  0  0  0  0  0  0  0
  -16.1128  -44.5244  -20.6590 C   0  0  0  0  0  0  0  0  0  0  0  0
  -16.0847  -44.3987  -19.2579 C   0  0  0  0  0  0  0  0  0  0  0  0
  -18.6428  -46.4958  -22.8375 C   0  0  0  0  0  0  0  0  0  0  0  0
  -18.2375  -47.3757  -21.8653 C   0  0  0  0  0  0  0  0  0  0  0  0
  -17.3295  -46.7709  -20.9508 C   0  0  0  0  0  0  0  0  0  0  0  0
  -17.0917  -45.4421  -21.2546 C   0  0  0  0  0  0  0  0  0  0  0  0
  -18.1726  -44.9095  -22.4653 S   0  0  0  0  0  0  0  0  0  0  0  0
  -17.9400  -36.1389  -23.1680 C   0  0  0  0  0  0  0  0  0  0  0  0
  -19.3656  -35.6397  -23.0740 C   0  0  0  0  0  0  0  0  0  0  0  0
  -19.2441  -34.4493  -23.9519 C   0  0  0  0  0  0  0  0  0  0  0  0
  -17.7785  -34.5738  -24.3113 C   0  0  0  0  0  0  0  0  0  0  0  0
  -17.3391  -35.9921  -24.5521 N   0  0  0  0  0  0  0  0  0  0  0  0
  -17.3941  -39.4463  -24.6878 C   0  0  2  0  0  0  0  0  0  0  0  0
  -16.8862  -38.2287  -25.4900 C   0  0  1  0  0  0  0  0  0  0  0  0
  -16.5539  -38.6130  -26.9364 C   0  0  0  0  0  0  0  0  0  0  0  0
  -15.5761  -39.7785  -26.9742 C   0  0  0  0  0  0  0  0  0  0  0  0
  -16.0687  -40.9639  -26.1774 C   0  0  0  0  0  0  0  0  0  0  0  0
  -16.3617  -40.5677  -24.7743 N   0  0  0  0  0  0  0  0  0  0  0  0
  -14.1434  -43.0284  -16.7950 H   0  0  0  0  0  0  0  0  0  0  0  0
  -15.1074  -44.4781  -16.6515 H   0  0  0  0  0  0  0  0  0  0  0  0
  -18.0269  -42.6245  -16.1937 H   0  0  0  0  0  0  0  0  0  0  0  0
  -14.3782  -42.0143  -23.1277 H   0  0  0  0  0  0  0  0  0  0  0  0
  -14.7280  -43.0279  -24.5404 H   0  0  0  0  0  0  0  0  0  0  0  0
  -19.1466  -40.7422  -24.4664 H   0  0  0  0  0  0  0  0  0  0  0  0
  -19.5350  -39.1126  -24.9465 H   0  0  0  0  0  0  0  0  0  0  0  0
  -18.8541  -40.2361  -26.1313 H   0  0  0  0  0  0  0  0  0  0  0  0
  -13.3572  -42.3888  -18.9182 H   0  0  0  0  0  0  0  0  0  0  0  0
  -13.3416  -42.6405  -21.3361 H   0  0  0  0  0  0  0  0  0  0  0  0
  -16.8367  -44.9177  -18.6672 H   0  0  0  0  0  0  0  0  0  0  0  0
  -19.2216  -46.7113  -23.7230 H   0  0  0  0  0  0  0  0  0  0  0  0
  -18.4899  -48.4256  -21.8834 H   0  0  0  0  0  0  0  0  0  0  0  0
  -16.8071  -47.3150  -20.1741 H   0  0  0  0  0  0  0  0  0  0  0  0
  -17.9476  -37.2064  -22.9260 H   0  0  0  0  0  0  0  0  0  0  0  0
  -17.2708  -35.7038  -22.4052 H   0  0  0  0  0  0  0  0  0  0  0  0
  -20.0797  -36.3631  -23.4814 H   0  0  0  0  0  0  0  0  0  0  0  0
  -19.6536  -35.4021  -22.0463 H   0  0  0  0  0  0  0  0  0  0  0  0
  -19.8873  -34.5397  -24.8338 H   0  0  0  0  0  0  0  0  0  0  0  0
  -19.4687  -33.5044  -23.4493 H   0  0  0  0  0  0  0  0  0  0  0  0
  -17.6304  -34.0679  -25.2749 H   0  0  0  0  0  0  0  0  0  0  0  0
  -17.0965  -34.0531  -23.6183 H   0  0  0  0  0  0  0  0  0  0  0  0
  -17.4342  -39.1432  -23.6363 H   0  0  0  0  0  0  0  0  0  0  0  0
  -15.9527  -37.8884  -25.0224 H   0  0  0  0  0  0  0  0  0  0  0  0
  -17.4629  -38.8815  -27.4890 H   0  0  0  0  0  0  0  0  0  0  0  0
  -16.1233  -37.7506  -27.4594 H   0  0  0  0  0  0  0  0  0  0  0  0
  -15.4424  -40.1133  -28.0067 H   0  0  0  0  0  0  0  0  0  0  0  0
  -14.5995  -39.4549  -26.5955 H   0  0  0  0  0  0  0  0  0  0  0  0
  -16.9583  -41.3877  -26.6550 H   0  0  0  0  0  0  0  0  0  0  0  0
  -15.2922  -41.7301  -26.1916 H   0  0  0  0  0  0  0  0  0  0  0  0
  2  6  1  0
  4  5  2  0
  1  5  1  0
  5  3  1  0
 11 10  2  0
 12 10  2  0
  8  7  2  0
 10  6  1  0
 13 18  2  0
 13  1  1  0
 13 14  1  0
 14 15  2  0
 15 16  1  0
 16 17  2  0
 16  2  1  0
 17 22  1  0
 17 18  1  0
 19 20  2  0
 19 23  1  0
 20 21  1  0
 21 22  2  0
 22 23  1  0
 24 25  1  0
 24 28  1  0
 25 26  1  0
 26 27  1  0
 27 28  1  0
 28  8  1  0
 29  9  1  0
 29 34  1  0
 29 30  1  0
 30 31  1  0
 30  8  1  0
 31 32  1  0
 32 33  1  0
 33 34  1  0
 34 10  1  0
  1 35  1  0
  1 36  1  0
  3 37  1  0
  6 38  1  0
  6 39  1  0
  9 40  1  0
  9 41  1  0
  9 42  1  0
 14 43  1  0
 15 44  1  0
 18 45  1  0
 19 46  1  0
 20 47  1  0
 21 48  1  0
 24 49  1  0
 24 50  1  0
 25 51  1  0
 25 52  1  0
 26 53  1  0
 26 54  1  0
 27 55  1  0
 27 56  1  0
 29 57  1  1
 30 58  1  1
 31 59  1  0
 31 60  1  0
 32 61  1  0
 32 62  1  0
 33 63  1  0
 33 64  1  0
M  END
>  <smiles>  (793) 
[H]OC(=O)C([H])([H])c1c([H])c([H])c(OC([H])([H])S(=O)(=O)N2C([H])([H])C([H])([H])C([H])([H])[C@@]([H])(C(=O)N3C([H])([H])C([H])([H])C([H])([H])C3([H])[H])[C@@]2([H])C([H])([H])[H])c(-c2sc([H])c([H])c2[H])c1[H]

>  <error>  (793) 


>  <∆∆G>  (793) 
-102.354274

>  <∆G_bound>  (793) 
104.120824

>  <∆G_unbound>  (793) 
206.475098

>  <comRMSD>  (793) 
0.770315

>  <N_constrained_atoms>  (793) 
34.0

>  <N_unconstrained_atoms>  (793) 
0.0

>  <runtime>  (793) 
9.743467

>  <regarded>  (793) 
['5f3z-a', 'd0866a']

>  <disregarded>  (793) 
[]

>  <LE>  (793) 
3.01042

>  <outcome>  (793) 
acceptable

>  <percent_hybrid>  (793) 
50.0

$$$$

     RDKit          2D

  0  0  0  0  0  0  0  0  0  0999 V2000
M  END
>  <smiles>  (794) 
nan

>  <error>  (794) 
DistanceError 5.89 Å

>  <∆∆G>  (794) 
nan

>  <∆G_bound>  (794) 
nan

>  <∆G_unbound>  (794) 
nan

>  <comRMSD>  (794) 
nan

>  <N_constrained_atoms>  (794) 
nan

>  <N_unconstrained_atoms>  (794) 
nan

>  <runtime>  (794) 
nan

>  <regarded>  (794) 
[]

>  <disregarded>  (794) 
[]

>  <LE>  (794) 
nan

>  <outcome>  (794) 
too distant

>  <percent_hybrid>  (794) 
nan

$$$$
LIG
     RDKit          3D

 50 52  0  0  0  0  0  0  0  0999 V2000
  -15.8054  -42.8364  -17.1373 C   0  0  1  0  0  0  0  0  0  0  0  0
  -15.7427  -43.4979  -22.8318 O   0  0  0  0  0  0  0  0  0  0  0  0
  -17.6641  -41.8975  -15.8695 O   0  0  0  0  0  0  0  0  0  0  0  0
  -16.3842  -40.4630  -17.0324 O   0  0  0  0  0  0  0  0  0  0  0  0
  -16.6294  -41.6159  -16.6971 C   0  0  0  0  0  0  0  0  0  0  0  0
  -14.4660  -43.2574  -23.4079 C   0  0  0  0  0  0  0  0  0  0  0  0
  -15.8844  -42.9657  -18.6668 C   0  0  0  0  0  0  0  0  0  0  0  0
  -15.3090  -41.9969  -19.5028 C   0  0  0  0  0  0  0  0  0  0  0  0
  -15.2311  -42.1746  -20.8832 C   0  0  0  0  0  0  0  0  0  0  0  0
  -15.8166  -43.2871  -21.4773 C   0  0  0  0  0  0  0  0  0  0  0  0
  -16.5699  -44.1834  -20.6917 C   0  0  0  0  0  0  0  0  0  0  0  0
  -16.5536  -44.0390  -19.2857 C   0  0  0  0  0  0  0  0  0  0  0  0
  -18.6641  -46.5815  -22.9225 C   0  0  0  0  0  0  0  0  0  0  0  0
  -18.2333  -47.3458  -21.8659 C   0  0  0  0  0  0  0  0  0  0  0  0
  -17.4697  -46.5907  -20.9331 C   0  0  0  0  0  0  0  0  0  0  0  0
  -17.3566  -45.2645  -21.3048 C   0  0  0  0  0  0  0  0  0  0  0  0
  -18.3599  -44.9296  -22.6678 S   0  0  0  0  0  0  0  0  0  0  0  0
  -13.5029  -44.4159  -18.9046 O   0  0  0  0  0  0  0  0  0  0  0  0
  -12.6338  -43.3734  -18.5209 C   0  0  0  0  0  0  0  0  0  0  0  0
  -13.1395  -42.4981  -17.3704 C   0  0  0  0  0  0  0  0  0  0  0  0
  -14.3450  -42.9136  -16.4554 C   0  0  0  0  0  0  0  0  0  0  0  0
  -14.0700  -44.3487  -15.9539 C   0  0  0  0  0  0  0  0  0  0  0  0
  -14.0912  -44.5385  -14.4590 C   0  0  0  0  0  0  0  0  0  0  0  0
  -15.2028  -43.8419  -13.9451 O   0  0  0  0  0  0  0  0  0  0  0  0
  -15.0291  -42.4376  -13.9837 C   0  0  0  0  0  0  0  0  0  0  0  0
  -14.2297  -41.9831  -15.2009 C   0  0  0  0  0  0  0  0  0  0  0  0
  -16.3646  -43.6941  -16.7480 H   0  0  0  0  0  0  0  0  0  0  0  0
  -17.7813  -42.8275  -15.5646 H   0  0  0  0  0  0  0  0  0  0  0  0
  -13.6641  -43.6954  -22.8039 H   0  0  0  0  0  0  0  0  0  0  0  0
  -14.4470  -43.7349  -24.3906 H   0  0  0  0  0  0  0  0  0  0  0  0
  -14.3090  -42.1856  -23.5600 H   0  0  0  0  0  0  0  0  0  0  0  0
  -14.8879  -41.0844  -19.0861 H   0  0  0  0  0  0  0  0  0  0  0  0
  -14.7400  -41.4126  -21.4790 H   0  0  0  0  0  0  0  0  0  0  0  0
  -17.0815  -44.7654  -18.6748 H   0  0  0  0  0  0  0  0  0  0  0  0
  -19.1705  -46.9197  -23.8162 H   0  0  0  0  0  0  0  0  0  0  0  0
  -18.3766  -48.4155  -21.8239 H   0  0  0  0  0  0  0  0  0  0  0  0
  -16.9641  -47.0216  -20.0786 H   0  0  0  0  0  0  0  0  0  0  0  0
  -13.1436  -44.7537  -19.7487 H   0  0  0  0  0  0  0  0  0  0  0  0
  -12.4053  -42.7513  -19.3932 H   0  0  0  0  0  0  0  0  0  0  0  0
  -11.7025  -43.8405  -18.2018 H   0  0  0  0  0  0  0  0  0  0  0  0
  -12.2529  -42.3489  -16.7343 H   0  0  0  0  0  0  0  0  0  0  0  0
  -13.3153  -41.4828  -17.7443 H   0  0  0  0  0  0  0  0  0  0  0  0
  -14.7359  -45.0701  -16.4360 H   0  0  0  0  0  0  0  0  0  0  0  0
  -13.0575  -44.5986  -16.2067 H   0  0  0  0  0  0  0  0  0  0  0  0
  -14.1497  -45.6068  -14.2348 H   0  0  0  0  0  0  0  0  0  0  0  0
  -13.1692  -44.1808  -13.9825 H   0  0  0  0  0  0  0  0  0  0  0  0
  -16.0190  -41.9769  -13.9590 H   0  0  0  0  0  0  0  0  0  0  0  0
  -14.5222  -42.1212  -13.0644 H   0  0  0  0  0  0  0  0  0  0  0  0
  -13.1786  -41.9620  -14.8759 H   0  0  0  0  0  0  0  0  0  0  0  0
  -14.4493  -40.9360  -15.4361 H   0  0  0  0  0  0  0  0  0  0  0  0
  2  6  1  0
  4  5  2  0
  1  5  1  0
  5  3  1  0
  7 12  1  0
  7  1  1  0
  7  8  2  0
  8  9  1  0
  9 10  2  0
 10 11  1  0
 10  2  1  0
 11 16  1  0
 11 12  2  0
 13 14  2  0
 13 17  1  0
 14 15  1  0
 15 16  2  0
 16 17  1  0
 19 18  1  0
 20 19  1  0
 21 20  1  0
 21 26  1  0
 21 22  1  0
 22 23  1  0
 23 24  1  0
 24 25  1  0
 25 26  1  0
  1 21  1  0
  1 27  1  1
  3 28  1  0
  6 29  1  0
  6 30  1  0
  6 31  1  0
  8 32  1  0
  9 33  1  0
 12 34  1  0
 13 35  1  0
 14 36  1  0
 15 37  1  0
 18 38  1  0
 19 39  1  0
 19 40  1  0
 20 41  1  0
 20 42  1  0
 22 43  1  0
 22 44  1  0
 23 45  1  0
 23 46  1  0
 25 47  1  0
 25 48  1  0
 26 49  1  0
 26 50  1  0
M  END
>  <smiles>  (795) 
[H]OC(=O)[C@@]([H])(c1c([H])c([H])c(OC([H])([H])[H])c(-c2sc([H])c([H])c2[H])c1[H])C1(C([H])([H])C([H])([H])O[H])C([H])([H])C([H])([H])OC([H])([H])C1([H])[H]

>  <error>  (795) 


>  <∆∆G>  (795) 
-53.509886

>  <∆G_bound>  (795) 
50.490962

>  <∆G_unbound>  (795) 
104.000848

>  <comRMSD>  (795) 
1.50903

>  <N_constrained_atoms>  (795) 
26.0

>  <N_unconstrained_atoms>  (795) 
0.0

>  <runtime>  (795) 
2.818614

>  <regarded>  (795) 
['5f3z-a', 'z0052a']

>  <disregarded>  (795) 
[]

>  <LE>  (795) 
2.058073

>  <outcome>  (795) 
too moved

>  <percent_hybrid>  (795) 
35.0

$$$$
LIG
     RDKit          3D

  0  0  0  0  0  0  0  0  0  0999 V3000
M  V30 BEGIN CTAB
M  V30 COUNTS 49 51 0 0 0
M  V30 BEGIN ATOM
M  V30 1 C -15.214000 -44.195999 -17.205000 0
M  V30 2 O -15.494000 -43.783001 -22.902000 0
M  V30 3 O -16.777000 -42.421001 -17.035999 0
M  V30 4 O -16.753000 -43.901001 -15.424000 0
M  V30 5 C -16.329000 -43.459000 -16.510000 0
M  V30 6 C -14.517000 -43.076000 -23.669001 0
M  V30 7 C -15.306000 -44.067001 -18.719000 0
M  V30 8 C -14.378000 -43.289001 -19.424000 0
M  V30 9 C -14.418000 -43.181999 -20.811001 0
M  V30 10 C -15.437000 -43.837002 -21.528000 0
M  V30 11 C -16.427999 -44.655998 -20.771000 0
M  V30 12 C -16.327000 -44.730000 -19.385000 0
M  V30 13 C -19.254999 -46.200001 -23.139999 0
M  V30 14 C -19.083000 -47.027000 -22.037001 0
M  V30 15 C -18.115999 -46.647999 -21.094999 0
M  V30 16 C -17.504000 -45.448002 -21.427000 0
M  V30 17 S -18.162001 -44.875000 -22.916000 0
M  V30 18 N -13.266000 -42.196999 -21.974001 0
M  V30 19 C -12.944000 -41.021999 -21.833000 0
M  V30 20 C -11.629000 -40.624001 -21.225000 0
M  V30 21 N -13.726000 -40.034000 -22.247999 0
M  V30 22 C -13.348000 -39.222000 -23.382000 0
M  V30 23 C -12.966000 -37.907001 -22.924999 0
M  V30 24 N -11.741000 -37.458000 -22.879000 0
M  V30 25 C -11.837000 -36.210999 -22.299000 0
M  V30 26 C -13.101000 -35.942001 -22.018000 0
M  V30 27 N -13.818000 -37.035000 -22.421000 0
M  V30 28 N -13.891500 -42.636497 -22.821501 0
M  V30 29 H -14.251321 -43.781971 -16.870588 0
M  V30 30 H -15.297673 -45.262238 -16.947838 0
M  V30 31 H -16.410524 -42.106056 -17.900063 0
M  V30 32 H -13.927501 -43.752338 -24.305439 0
M  V30 33 H -14.923104 -42.341145 -24.379679 0
M  V30 34 H -13.598079 -42.749119 -18.866999 0
M  V30 35 H -13.658869 -42.589901 -21.343107 0
M  V30 36 H -17.060936 -45.317593 -18.813972 0
M  V30 37 H -19.944296 -46.354939 -23.983126 0
M  V30 38 H -19.680742 -47.941364 -21.907997 0
M  V30 39 H -17.871052 -47.234116 -20.196964 0
M  V30 40 H -11.709771 -40.648445 -20.128242 0
M  V30 41 H -10.847049 -41.325714 -21.550806 0
M  V30 42 H -11.367404 -39.606445 -21.550806 0
M  V30 43 H -14.611291 -39.843807 -21.757097 0
M  V30 44 H -12.499456 -39.690483 -23.902094 0
M  V30 45 H -14.199591 -39.137444 -24.073118 0
M  V30 46 H -10.988646 -35.539764 -22.099646 0
M  V30 47 H -13.495500 -35.025738 -21.554501 0
M  V30 48 H -12.921500 -41.666500 -21.851501 0
M  V30 49 H -14.838100 -37.155346 -22.344767 0
M  V30 END ATOM
M  V30 BEGIN BOND
M  V30 1 1 2 6
M  V30 2 2 4 5
M  V30 3 1 1 5
M  V30 4 1 5 3
M  V30 5 2 7 12
M  V30 6 1 7 1
M  V30 7 1 7 8
M  V30 8 2 8 9
M  V30 9 1 9 10
M  V30 10 2 10 11
M  V30 11 1 10 2
M  V30 12 1 11 16
M  V30 13 1 11 12
M  V30 14 2 13 14
M  V30 15 1 13 17
M  V30 16 1 14 15
M  V30 17 2 15 16
M  V30 18 1 16 17
M  V30 19 1 20 19
M  V30 20 2 19 18
M  V30 21 1 21 19
M  V30 22 1 22 21
M  V30 23 1 23 22
M  V30 24 2 23 24
M  V30 25 1 23 27
M  V30 26 1 24 25
M  V30 27 2 25 26
M  V30 28 1 26 27
M  V30 29 1 28 6
M  V30 30 1 28 18
M  V30 31 1 1 29
M  V30 32 1 1 30
M  V30 33 1 3 31
M  V30 34 1 6 32
M  V30 35 1 6 33
M  V30 36 1 8 34
M  V30 37 1 9 35
M  V30 38 1 12 36
M  V30 39 1 13 37
M  V30 40 1 14 38
M  V30 41 1 15 39
M  V30 42 1 20 40
M  V30 43 1 20 41
M  V30 44 1 20 42
M  V30 45 1 21 43
M  V30 46 1 22 44
M  V30 47 1 22 45
M  V30 48 1 25 46
M  V30 49 1 26 47
M  V30 50 1 28 48
M  V30 51 1 27 49
M  V30 END BOND
M  V30 BEGIN COLLECTION
M  V30 MDLV30/STEABS ATOMS=(0)
M  V30 END COLLECTION
M  V30 END CTAB
M  END
>  <smiles>  (796) 
[H]OC(=O)C([H])([H])c1c([H])c([H])c(OC([H])([H])N([H])/N=C(\N([H])C([H])([H])c2nc([H])c([H])[nH]2)C([H])([H])[H])c(-c2sc([H])c([H])c2[H])c1[H]

>  <error>  (796) 


>  <∆∆G>  (796) 
nan

>  <∆G_bound>  (796) 
nan

>  <∆G_unbound>  (796) 
nan

>  <comRMSD>  (796) 
0.0

>  <N_constrained_atoms>  (796) 
27.0

>  <N_unconstrained_atoms>  (796) 
1.0

>  <runtime>  (796) 
1.694727

>  <regarded>  (796) 
['5f3z-a', 'z0103a']

>  <disregarded>  (796) 
[]

>  <LE>  (796) 
nan

>  <outcome>  (796) 
crashed

>  <percent_hybrid>  (796) 
38.0

$$$$

     RDKit          2D

  0  0  0  0  0  0  0  0  0  0999 V2000
M  END
>  <smiles>  (797) 
nan

>  <error>  (797) 
DistanceError 5.94 Å

>  <∆∆G>  (797) 
nan

>  <∆G_bound>  (797) 
nan

>  <∆G_unbound>  (797) 
nan

>  <comRMSD>  (797) 
nan

>  <N_constrained_atoms>  (797) 
nan

>  <N_unconstrained_atoms>  (797) 
nan

>  <runtime>  (797) 
nan

>  <regarded>  (797) 
[]

>  <disregarded>  (797) 
[]

>  <LE>  (797) 
nan

>  <outcome>  (797) 
too distant

>  <percent_hybrid>  (797) 
nan

$$$$

     RDKit          2D

  0  0  0  0  0  0  0  0  0  0999 V2000
M  END
>  <smiles>  (798) 
nan

>  <error>  (798) 
RecursionError maximum recursion depth exceeded while calling a Python object

>  <∆∆G>  (798) 
nan

>  <∆G_bound>  (798) 
nan

>  <∆G_unbound>  (798) 
nan

>  <comRMSD>  (798) 
nan

>  <N_constrained_atoms>  (798) 
nan

>  <N_unconstrained_atoms>  (798) 
nan

>  <runtime>  (798) 
nan

>  <regarded>  (798) 
[]

>  <disregarded>  (798) 
[]

>  <LE>  (798) 
nan

>  <outcome>  (798) 
crashed

>  <percent_hybrid>  (798) 
nan

$$$$
LIG
     RDKit          3D

 41 43  0  0  0  0  0  0  0  0999 V2000
  -17.0945  -42.4660  -17.4973 C   0  0  0  0  0  0  0  0  0  0  0  0
  -15.1507  -44.4313  -22.4898 O   0  0  0  0  0  0  0  0  0  0  0  0
  -17.6547  -40.4043  -18.6500 O   0  0  0  0  0  0  0  0  0  0  0  0
  -17.1240  -40.2789  -16.4692 O   0  0  0  0  0  0  0  0  0  0  0  0
  -17.2638  -40.9583  -17.4773 C   0  0  0  0  0  0  0  0  0  0  0  0
  -15.0662  -43.4312  -23.5068 C   0  0  0  0  0  0  0  0  0  0  0  0
  -16.5703  -43.0280  -18.7992 C   0  0  0  0  0  0  0  0  0  0  0  0
  -15.2846  -42.7053  -19.2347 C   0  0  0  0  0  0  0  0  0  0  0  0
  -14.7684  -43.1884  -20.4590 C   0  0  0  0  0  0  0  0  0  0  0  0
  -15.6032  -43.9332  -21.2935 C   0  0  0  0  0  0  0  0  0  0  0  0
  -16.8767  -44.3160  -20.8399 C   0  0  0  0  0  0  0  0  0  0  0  0
  -17.3497  -43.8674  -19.5966 C   0  0  0  0  0  0  0  0  0  0  0  0
  -18.8402  -46.3567  -23.4507 C   0  0  0  0  0  0  0  0  0  0  0  0
  -18.6392  -47.2067  -22.3847 C   0  0  0  0  0  0  0  0  0  0  0  0
  -17.9632  -46.5675  -21.3154 C   0  0  0  0  0  0  0  0  0  0  0  0
  -17.6847  -45.2497  -21.6080 C   0  0  0  0  0  0  0  0  0  0  0  0
  -18.3949  -44.7518  -23.0814 S   0  0  0  0  0  0  0  0  0  0  0  0
  -12.5956  -43.4416  -19.5129 N   0  0  0  0  0  0  0  0  0  0  0  0
  -13.2926  -43.0606  -20.7410 C   0  0  0  0  0  0  0  0  0  0  0  0
  -12.9794  -41.6230  -21.0838 C   0  0  0  0  0  0  0  0  0  0  0  0
  -13.7478  -40.6453  -21.6897 C   0  0  0  0  0  0  0  0  0  0  0  0
  -12.9569  -39.5327  -21.7532 N   0  0  0  0  0  0  0  0  0  0  0  0
  -11.7455  -39.8531  -21.2186 C   0  0  0  0  0  0  0  0  0  0  0  0
  -11.7078  -41.1091  -20.8435 N   0  0  0  0  0  0  0  0  0  0  0  0
  -16.3998  -42.7470  -16.6968 H   0  0  0  0  0  0  0  0  0  0  0  0
  -18.0692  -42.9037  -17.2566 H   0  0  0  0  0  0  0  0  0  0  0  0
  -17.7149  -41.0432  -19.3858 H   0  0  0  0  0  0  0  0  0  0  0  0
  -15.7253  -42.5756  -23.3221 H   0  0  0  0  0  0  0  0  0  0  0  0
  -14.0332  -43.0982  -23.6129 H   0  0  0  0  0  0  0  0  0  0  0  0
  -15.3679  -43.8882  -24.4537 H   0  0  0  0  0  0  0  0  0  0  0  0
  -14.6328  -42.1100  -18.5905 H   0  0  0  0  0  0  0  0  0  0  0  0
  -18.3421  -44.1709  -19.2659 H   0  0  0  0  0  0  0  0  0  0  0  0
  -19.2738  -46.5974  -24.4131 H   0  0  0  0  0  0  0  0  0  0  0  0
  -18.9153  -48.2527  -22.3984 H   0  0  0  0  0  0  0  0  0  0  0  0
  -17.6319  -47.0709  -20.4161 H   0  0  0  0  0  0  0  0  0  0  0  0
  -14.7677  -40.6386  -22.0452 H   0  0  0  0  0  0  0  0  0  0  0  0
  -10.9357  -39.1401  -21.1343 H   0  0  0  0  0  0  0  0  0  0  0  0
  -12.3665  -44.4302  -19.5980 H   0  0  0  0  0  0  0  0  0  0  0  0
  -11.6992  -42.9411  -19.5436 H   0  0  0  0  0  0  0  0  0  0  0  0
  -12.9724  -43.7076  -21.5586 H   0  0  0  0  0  0  0  0  0  0  0  0
  -13.2292  -38.6245  -22.1018 H   0  0  0  0  0  0  0  0  0  0  0  0
  2  6  1  0
  4  5  2  0
  1  5  1  0
  5  3  1  0
  7 12  2  0
  7  1  1  0
  7  8  1  0
  8  9  2  0
  9 10  1  0
 10 11  2  0
 10  2  1  0
 11 16  1  0
 11 12  1  0
 13 14  2  0
 13 17  1  0
 14 15  1  0
 15 16  2  0
 16 17  1  0
 19 18  1  0
 20 19  1  0
 20 21  2  0
 20 24  1  0
 21 22  1  0
 22 23  1  0
 23 24  2  0
  9 19  1  0
  1 25  1  0
  1 26  1  0
  3 27  1  0
  6 28  1  0
  6 29  1  0
  6 30  1  0
  8 31  1  0
 12 32  1  0
 13 33  1  0
 14 34  1  0
 15 35  1  0
 21 36  1  0
 23 37  1  0
 18 38  1  0
 18 39  1  0
 19 40  1  0
 22 41  1  0
M  END
>  <smiles>  (799) 
[H]OC(=O)C([H])([H])c1c([H])c(-c2sc([H])c([H])c2[H])c(OC([H])([H])[H])c(C(N)c2nc([H])[nH]c2[H])c1[H]

>  <error>  (799) 


>  <∆∆G>  (799) 
-84.696285

>  <∆G_bound>  (799) 
-42.761403

>  <∆G_unbound>  (799) 
41.934882

>  <comRMSD>  (799) 
1.460261

>  <N_constrained_atoms>  (799) 
24.0

>  <N_unconstrained_atoms>  (799) 
0.0

>  <runtime>  (799) 
2.197569

>  <regarded>  (799) 
['5f3z-a', 'z0875c']

>  <disregarded>  (799) 
[]

>  <LE>  (799) 
3.529012

>  <outcome>  (799) 
too moved

>  <percent_hybrid>  (799) 
30.0

$$$$
LIG
     RDKit          3D

 54 56  0  0  0  0  0  0  0  0999 V2000
  -15.0462  -44.0612  -17.3293 C   0  0  0  0  0  0  0  0  0  0  0  0
  -15.6413  -43.3609  -22.8919 O   0  0  0  0  0  0  0  0  0  0  0  0
  -16.3791  -42.0701  -16.2129 C   0  0  0  0  0  0  0  0  0  0  0  0
  -15.3589  -43.8239  -15.0205 O   0  0  0  0  0  0  0  0  0  0  0  0
  -15.6068  -43.3733  -16.1425 C   0  0  0  0  0  0  0  0  0  0  0  0
  -14.4204  -43.2208  -23.5989 C   0  0  0  0  0  0  0  0  0  0  0  0
  -13.5785  -42.1468  -18.6542 O   0  0  0  0  0  0  0  0  0  0  0  0
  -12.5168  -41.4796  -19.3266 C   0  0  0  0  0  0  0  0  0  0  0  0
  -19.5261  -46.2139  -24.6102 C   0  0  0  0  0  0  0  0  0  0  0  0
  -20.1554  -46.3985  -25.6168 C   0  0  0  0  0  0  0  0  0  0  0  0
  -20.8934  -46.6478  -26.8502 C   0  0  0  0  0  0  0  0  0  0  0  0
  -21.9856  -45.7467  -26.9689 O   0  0  0  0  0  0  0  0  0  0  0  0
  -17.3894  -41.9400  -16.8802 O   0  0  0  0  0  0  0  0  0  0  0  0
  -14.3421  -39.9192  -16.5996 O   0  0  0  0  0  0  0  0  0  0  0  0
  -15.1877  -39.0467  -17.3504 C   0  0  0  0  0  0  0  0  0  0  0  0
  -15.3499  -43.6787  -18.7462 C   0  0  0  0  0  0  0  0  0  0  0  0
  -14.5004  -42.7958  -19.4304 C   0  0  0  0  0  0  0  0  0  0  0  0
  -14.6139  -42.6583  -20.8125 C   0  0  0  0  0  0  0  0  0  0  0  0
  -15.5515  -43.4146  -21.5239 C   0  0  0  0  0  0  0  0  0  0  0  0
  -16.4625  -44.2516  -20.8462 C   0  0  0  0  0  0  0  0  0  0  0  0
  -16.3513  -44.3680  -19.4527 C   0  0  0  0  0  0  0  0  0  0  0  0
  -18.8361  -45.9908  -23.3801 C   0  0  0  0  0  0  0  0  0  0  0  0
  -18.5409  -46.9506  -22.4366 C   0  0  0  0  0  0  0  0  0  0  0  0
  -17.7263  -46.4344  -21.3860 C   0  0  0  0  0  0  0  0  0  0  0  0
  -17.4258  -45.0965  -21.5726 C   0  0  0  0  0  0  0  0  0  0  0  0
  -18.3638  -44.4461  -22.8600 S   0  0  0  0  0  0  0  0  0  0  0  0
  -14.2801  -39.6083  -14.2734 C   0  0  0  0  0  0  0  0  0  0  0  0
  -14.7386  -39.8876  -12.9853 C   0  0  0  0  0  0  0  0  0  0  0  0
  -15.8253  -40.7396  -12.7978 C   0  0  0  0  0  0  0  0  0  0  0  0
  -16.4355  -41.3382  -13.8959 C   0  0  0  0  0  0  0  0  0  0  0  0
  -15.9447  -41.0972  -15.1863 C   0  0  0  0  0  0  0  0  0  0  0  0
  -14.8930  -40.1984  -15.3810 C   0  0  0  0  0  0  0  0  0  0  0  0
  -13.9598  -44.0006  -17.1875 H   0  0  0  0  0  0  0  0  0  0  0  0
  -15.2844  -45.1267  -17.2186 H   0  0  0  0  0  0  0  0  0  0  0  0
  -14.1290  -42.1677  -23.6254 H   0  0  0  0  0  0  0  0  0  0  0  0
  -13.6300  -43.8523  -23.1801 H   0  0  0  0  0  0  0  0  0  0  0  0
  -14.5959  -43.5402  -24.6287 H   0  0  0  0  0  0  0  0  0  0  0  0
  -11.8038  -41.1401  -18.5692 H   0  0  0  0  0  0  0  0  0  0  0  0
  -11.9860  -42.1539  -20.0067 H   0  0  0  0  0  0  0  0  0  0  0  0
  -12.8867  -40.5953  -19.8554 H   0  0  0  0  0  0  0  0  0  0  0  0
  -21.2589  -47.6758  -26.9207 H   0  0  0  0  0  0  0  0  0  0  0  0
  -20.2303  -46.4583  -27.6911 H   0  0  0  0  0  0  0  0  0  0  0  0
  -22.7532  -46.1926  -26.5486 H   0  0  0  0  0  0  0  0  0  0  0  0
  -15.4387  -38.1454  -16.7799 H   0  0  0  0  0  0  0  0  0  0  0  0
  -14.6390  -38.7397  -18.2458 H   0  0  0  0  0  0  0  0  0  0  0  0
  -16.0985  -39.5600  -17.6735 H   0  0  0  0  0  0  0  0  0  0  0  0
  -13.9659  -41.9796  -21.3525 H   0  0  0  0  0  0  0  0  0  0  0  0
  -17.0134  -45.0475  -18.9210 H   0  0  0  0  0  0  0  0  0  0  0  0
  -18.8317  -47.9906  -22.5249 H   0  0  0  0  0  0  0  0  0  0  0  0
  -17.3062  -47.0474  -20.5985 H   0  0  0  0  0  0  0  0  0  0  0  0
  -13.4332  -38.9414  -14.4131 H   0  0  0  0  0  0  0  0  0  0  0  0
  -14.2513  -39.4328  -12.1262 H   0  0  0  0  0  0  0  0  0  0  0  0
  -16.1809  -40.9575  -11.7938 H   0  0  0  0  0  0  0  0  0  0  0  0
  -17.2355  -42.0615  -13.7386 H   0  0  0  0  0  0  0  0  0  0  0  0
  2  6  1  0
  4  5  2  0
  1  5  1  0
  5  3  1  0
  7  8  1  0
 11 12  1  0
 11 10  1  0
 10  9  3  0
 13  3  2  0
 15 14  1  0
 16 21  1  0
 16  1  1  0
 16 17  2  0
 17 18  1  0
 18 19  2  0
 19 20  1  0
 19  2  1  0
 20 25  1  0
 20 21  2  0
 22 23  2  0
 22 26  1  0
 23 24  1  0
 24 25  2  0
 25 26  1  0
 27 32  2  0
 27 28  1  0
 28 29  2  0
 29 30  1  0
 30 31  2  0
 31 32  1  0
 32 14  1  0
  7 17  1  0
  9 22  1  0
  3 31  1  0
  1 33  1  0
  1 34  1  0
  6 35  1  0
  6 36  1  0
  6 37  1  0
  8 38  1  0
  8 39  1  0
  8 40  1  0
 11 41  1  0
 11 42  1  0
 12 43  1  0
 15 44  1  0
 15 45  1  0
 15 46  1  0
 18 47  1  0
 21 48  1  0
 23 49  1  0
 24 50  1  0
 27 51  1  0
 28 52  1  0
 29 53  1  0
 30 54  1  0
M  END
>  <smiles>  (800) 
[H]OC([H])([H])C#Cc1sc(-c2c([H])c(C([H])([H])C(=O)C(=O)c3c([H])c([H])c([H])c([H])c3OC([H])([H])[H])c(OC([H])([H])[H])c([H])c2OC([H])([H])[H])c([H])c1[H]

>  <error>  (800) 


>  <∆∆G>  (800) 
-156.686485

>  <∆G_bound>  (800) 
103.473938

>  <∆G_unbound>  (800) 
260.160423

>  <comRMSD>  (800) 
0.789236

>  <N_constrained_atoms>  (800) 
32.0

>  <N_unconstrained_atoms>  (800) 
0.0

>  <runtime>  (800) 
2.355738

>  <regarded>  (800) 
['5f3z-a', '5i3p-a']

>  <disregarded>  (800) 
[]

>  <LE>  (800) 
4.896453

>  <outcome>  (800) 
equally sized

>  <percent_hybrid>  (800) 
47.0

$$$$
LIG
     RDKit          3D

 36 37  0  0  0  0  0  0  0  0999 V2000
  -15.9459  -43.0221  -16.8981 C   0  0  0  0  0  0  0  0  0  0  0  0
  -15.4379  -43.1875  -22.5606 O   0  0  0  0  0  0  0  0  0  0  0  0
  -17.8396  -42.0778  -15.7162 O   0  0  0  0  0  0  0  0  0  0  0  0
  -16.5723  -40.6876  -16.9390 O   0  0  0  0  0  0  0  0  0  0  0  0
  -16.8050  -41.8249  -16.5473 C   0  0  0  0  0  0  0  0  0  0  0  0
  -14.4122  -44.0323  -23.0665 C   0  0  0  0  0  0  0  0  0  0  0  0
  -13.8085  -39.9678  -23.0661 O   0  0  0  0  0  0  0  0  0  0  0  0
  -15.7510  -40.0061  -21.9831 O   0  0  0  0  0  0  0  0  0  0  0  0
  -14.5995  -40.4022  -22.0595 C   0  0  0  0  0  0  0  0  0  0  0  0
  -13.8656  -41.3215  -21.1110 C   0  0  0  0  0  0  0  0  0  0  0  0
  -17.4200  -44.9015  -18.4564 O   0  0  0  0  0  0  0  0  0  0  0  0
  -15.7538  -43.2125  -18.3877 C   0  0  0  0  0  0  0  0  0  0  0  0
  -14.8557  -42.3637  -19.0514 C   0  0  0  0  0  0  0  0  0  0  0  0
  -14.7531  -42.3534  -20.4464 C   0  0  0  0  0  0  0  0  0  0  0  0
  -15.5165  -43.2730  -21.1883 C   0  0  0  0  0  0  0  0  0  0  0  0
  -16.4249  -44.1610  -20.5595 C   0  0  0  0  0  0  0  0  0  0  0  0
  -16.5241  -44.1096  -19.1468 C   0  0  0  0  0  0  0  0  0  0  0  0
  -18.6687  -46.1424  -23.0701 C   0  0  0  0  0  0  0  0  0  0  0  0
  -18.3216  -47.0447  -22.0929 C   0  0  0  0  0  0  0  0  0  0  0  0
  -17.4698  -46.4581  -21.1159 C   0  0  0  0  0  0  0  0  0  0  0  0
  -17.2548  -45.1068  -21.3358 C   0  0  0  0  0  0  0  0  0  0  0  0
  -18.1728  -44.5609  -22.6842 S   0  0  0  0  0  0  0  0  0  0  0  0
  -14.9731  -42.8887  -16.4086 H   0  0  0  0  0  0  0  0  0  0  0  0
  -16.3636  -43.9188  -16.4591 H   0  0  0  0  0  0  0  0  0  0  0  0
  -17.9919  -43.0059  -15.4231 H   0  0  0  0  0  0  0  0  0  0  0  0
  -14.3039  -43.8330  -24.1357 H   0  0  0  0  0  0  0  0  0  0  0  0
  -13.4484  -43.8579  -22.5819 H   0  0  0  0  0  0  0  0  0  0  0  0
  -14.7051  -45.0737  -22.9263 H   0  0  0  0  0  0  0  0  0  0  0  0
  -14.4292  -39.4649  -23.6356 H   0  0  0  0  0  0  0  0  0  0  0  0
  -13.0645  -41.8417  -21.6437 H   0  0  0  0  0  0  0  0  0  0  0  0
  -13.3817  -40.6830  -20.3623 H   0  0  0  0  0  0  0  0  0  0  0  0
  -18.1514  -45.0915  -19.0757 H   0  0  0  0  0  0  0  0  0  0  0  0
  -14.2884  -41.6347  -18.4710 H   0  0  0  0  0  0  0  0  0  0  0  0
  -19.2161  -46.3331  -23.9834 H   0  0  0  0  0  0  0  0  0  0  0  0
  -18.5914  -48.0932  -22.1287 H   0  0  0  0  0  0  0  0  0  0  0  0
  -17.0104  -47.0156  -20.3080 H   0  0  0  0  0  0  0  0  0  0  0  0
  2  6  1  0
  4  5  2  0
  1  5  1  0
  5  3  1  0
 10  9  1  0
  8  9  2  0
  9  7  1  0
 12 17  2  0
 12  1  1  0
 12 13  1  0
 13 14  2  0
 14 15  1  0
 15 16  2  0
 15  2  1  0
 16 21  1  0
 16 17  1  0
 18 19  2  0
 18 22  1  0
 19 20  1  0
 20 21  2  0
 21 22  1  0
 10 14  1  0
 11 17  1  0
  1 23  1  0
  1 24  1  0
  3 25  1  0
  6 26  1  0
  6 27  1  0
  6 28  1  0
  7 29  1  0
 10 30  1  0
 10 31  1  0
 11 32  1  0
 13 33  1  0
 18 34  1  0
 19 35  1  0
 20 36  1  0
M  END
>  <smiles>  (801) 
[H]OC(=O)C([H])([H])c1c([H])c(C([H])([H])C(=O)O[H])c(OC([H])([H])[H])c(-c2sc([H])c([H])c2[H])c1O[H]

>  <error>  (801) 


>  <∆∆G>  (801) 
-82.195268

>  <∆G_bound>  (801) 
-37.550128

>  <∆G_unbound>  (801) 
44.64514

>  <comRMSD>  (801) 
1.27996

>  <N_constrained_atoms>  (801) 
22.0

>  <N_unconstrained_atoms>  (801) 
0.0

>  <runtime>  (801) 
3.156536

>  <regarded>  (801) 
['5f3z-a', '5hn0-a']

>  <disregarded>  (801) 
[]

>  <LE>  (801) 
3.736149

>  <outcome>  (801) 
too moved

>  <percent_hybrid>  (801) 
23.0

$$$$
LIG
     RDKit          3D

 29 30  0  0  0  0  0  0  0  0999 V2000
  -15.4535  -43.4098  -17.0925 C   0  0  0  0  0  0  0  0  0  0  0  0
  -15.1987  -44.2064  -22.7304 O   0  0  0  0  0  0  0  0  0  0  0  0
  -15.4023  -41.0047  -17.1997 O   0  0  0  0  0  0  0  0  0  0  0  0
  -14.0849  -42.0197  -15.6739 O   0  0  0  0  0  0  0  0  0  0  0  0
  -14.8998  -42.0988  -16.5824 C   0  0  0  0  0  0  0  0  0  0  0  0
  -14.2622  -43.4994  -23.5208 C   0  0  0  0  0  0  0  0  0  0  0  0
  -15.3500  -43.6163  -18.5870 C   0  0  0  0  0  0  0  0  0  0  0  0
  -14.2145  -43.2113  -19.3017 C   0  0  0  0  0  0  0  0  0  0  0  0
  -14.1370  -43.3908  -20.6857 C   0  0  0  0  0  0  0  0  0  0  0  0
  -15.1864  -43.9953  -21.3774 C   0  0  0  0  0  0  0  0  0  0  0  0
  -16.3029  -44.4793  -20.6642 C   0  0  0  0  0  0  0  0  0  0  0  0
  -16.3757  -44.2825  -19.2758 C   0  0  0  0  0  0  0  0  0  0  0  0
  -18.7621  -46.1462  -23.1288 C   0  0  0  0  0  0  0  0  0  0  0  0
  -18.5342  -47.0867  -22.1494 C   0  0  0  0  0  0  0  0  0  0  0  0
  -17.7069  -46.5773  -21.1108 C   0  0  0  0  0  0  0  0  0  0  0  0
  -17.3344  -45.2676  -21.3461 C   0  0  0  0  0  0  0  0  0  0  0  0
  -18.2044  -44.6034  -22.6702 S   0  0  0  0  0  0  0  0  0  0  0  0
  -14.9183  -44.2270  -16.5953 H   0  0  0  0  0  0  0  0  0  0  0  0
  -16.5002  -43.4519  -16.7708 H   0  0  0  0  0  0  0  0  0  0  0  0
  -16.0264  -41.2160  -17.9219 H   0  0  0  0  0  0  0  0  0  0  0  0
  -14.2312  -42.4359  -23.2634 H   0  0  0  0  0  0  0  0  0  0  0  0
  -13.2815  -43.9722  -23.4346 H   0  0  0  0  0  0  0  0  0  0  0  0
  -14.5812  -43.5731  -24.5636 H   0  0  0  0  0  0  0  0  0  0  0  0
  -13.3657  -42.7479  -18.7975 H   0  0  0  0  0  0  0  0  0  0  0  0
  -13.2271  -43.0818  -21.1946 H   0  0  0  0  0  0  0  0  0  0  0  0
  -17.2466  -44.6504  -18.7370 H   0  0  0  0  0  0  0  0  0  0  0  0
  -19.2706  -46.2823  -24.0739 H   0  0  0  0  0  0  0  0  0  0  0  0
  -18.8708  -48.1134  -22.2217 H   0  0  0  0  0  0  0  0  0  0  0  0
  -17.3122  -47.1816  -20.3041 H   0  0  0  0  0  0  0  0  0  0  0  0
  2  6  1  0
  4  5  2  0
  1  5  1  0
  5  3  1  0
  7 12  2  0
  7  1  1  0
  7  8  1  0
  8  9  2  0
  9 10  1  0
 10 11  2  0
 10  2  1  0
 11 16  1  0
 11 12  1  0
 13 14  2  0
 13 17  1  0
 14 15  1  0
 15 16  2  0
 16 17  1  0
  1 18  1  0
  1 19  1  0
  3 20  1  0
  6 21  1  0
  6 22  1  0
  6 23  1  0
  8 24  1  0
  9 25  1  0
 12 26  1  0
 13 27  1  0
 14 28  1  0
 15 29  1  0
M  END
>  <smiles>  (802) 
[H]OC(=O)C([H])([H])c1c([H])c([H])c(OC([H])([H])[H])c(-c2sc([H])c([H])c2[H])c1[H]

>  <error>  (802) 


>  <∆∆G>  (802) 
-46.90676

>  <∆G_bound>  (802) 
-62.693912

>  <∆G_unbound>  (802) 
-15.787152

>  <comRMSD>  (802) 
1.125184

>  <N_constrained_atoms>  (802) 
17.0

>  <N_unconstrained_atoms>  (802) 
0.0

>  <runtime>  (802) 
1.044774

>  <regarded>  (802) 
['5f3z-a', '5f41-a']

>  <disregarded>  (802) 
[]

>  <LE>  (802) 
2.759221

>  <outcome>  (802) 
equally sized

>  <percent_hybrid>  (802) 
0.0

$$$$
LIG
     RDKit          3D

 29 30  0  0  0  0  0  0  0  0999 V2000
  -15.4535  -43.4098  -17.0925 C   0  0  0  0  0  0  0  0  0  0  0  0
  -15.1987  -44.2064  -22.7304 O   0  0  0  0  0  0  0  0  0  0  0  0
  -15.4023  -41.0047  -17.1997 O   0  0  0  0  0  0  0  0  0  0  0  0
  -14.0849  -42.0197  -15.6739 O   0  0  0  0  0  0  0  0  0  0  0  0
  -14.8998  -42.0988  -16.5824 C   0  0  0  0  0  0  0  0  0  0  0  0
  -14.2622  -43.4994  -23.5208 C   0  0  0  0  0  0  0  0  0  0  0  0
  -15.3500  -43.6163  -18.5870 C   0  0  0  0  0  0  0  0  0  0  0  0
  -14.2145  -43.2113  -19.3017 C   0  0  0  0  0  0  0  0  0  0  0  0
  -14.1370  -43.3908  -20.6857 C   0  0  0  0  0  0  0  0  0  0  0  0
  -15.1864  -43.9953  -21.3774 C   0  0  0  0  0  0  0  0  0  0  0  0
  -16.3029  -44.4793  -20.6642 C   0  0  0  0  0  0  0  0  0  0  0  0
  -16.3757  -44.2825  -19.2758 C   0  0  0  0  0  0  0  0  0  0  0  0
  -18.7621  -46.1462  -23.1288 C   0  0  0  0  0  0  0  0  0  0  0  0
  -18.5342  -47.0867  -22.1494 C   0  0  0  0  0  0  0  0  0  0  0  0
  -17.7069  -46.5773  -21.1108 C   0  0  0  0  0  0  0  0  0  0  0  0
  -17.3344  -45.2676  -21.3461 C   0  0  0  0  0  0  0  0  0  0  0  0
  -18.2044  -44.6034  -22.6702 S   0  0  0  0  0  0  0  0  0  0  0  0
  -14.9183  -44.2270  -16.5953 H   0  0  0  0  0  0  0  0  0  0  0  0
  -16.5002  -43.4519  -16.7708 H   0  0  0  0  0  0  0  0  0  0  0  0
  -16.0264  -41.2160  -17.9219 H   0  0  0  0  0  0  0  0  0  0  0  0
  -14.2312  -42.4359  -23.2634 H   0  0  0  0  0  0  0  0  0  0  0  0
  -13.2815  -43.9722  -23.4346 H   0  0  0  0  0  0  0  0  0  0  0  0
  -14.5812  -43.5731  -24.5636 H   0  0  0  0  0  0  0  0  0  0  0  0
  -13.3657  -42.7479  -18.7975 H   0  0  0  0  0  0  0  0  0  0  0  0
  -13.2271  -43.0818  -21.1946 H   0  0  0  0  0  0  0  0  0  0  0  0
  -17.2466  -44.6504  -18.7370 H   0  0  0  0  0  0  0  0  0  0  0  0
  -19.2706  -46.2823  -24.0739 H   0  0  0  0  0  0  0  0  0  0  0  0
  -18.8708  -48.1134  -22.2217 H   0  0  0  0  0  0  0  0  0  0  0  0
  -17.3122  -47.1816  -20.3041 H   0  0  0  0  0  0  0  0  0  0  0  0
  2  6  1  0
  4  5  2  0
  1  5  1  0
  5  3  1  0
  7 12  2  0
  7  1  1  0
  7  8  1  0
  8  9  2  0
  9 10  1  0
 10 11  2  0
 10  2  1  0
 11 16  1  0
 11 12  1  0
 13 14  2  0
 13 17  1  0
 14 15  1  0
 15 16  2  0
 16 17  1  0
  1 18  1  0
  1 19  1  0
  3 20  1  0
  6 21  1  0
  6 22  1  0
  6 23  1  0
  8 24  1  0
  9 25  1  0
 12 26  1  0
 13 27  1  0
 14 28  1  0
 15 29  1  0
M  END
>  <smiles>  (803) 
[H]OC(=O)C([H])([H])c1c([H])c([H])c(OC([H])([H])[H])c(-c2sc([H])c([H])c2[H])c1[H]

>  <error>  (803) 


>  <∆∆G>  (803) 
-46.90676

>  <∆G_bound>  (803) 
-62.693912

>  <∆G_unbound>  (803) 
-15.787152

>  <comRMSD>  (803) 
1.125184

>  <N_constrained_atoms>  (803) 
17.0

>  <N_unconstrained_atoms>  (803) 
0.0

>  <runtime>  (803) 
1.052094

>  <regarded>  (803) 
['5f3z-a', '6h80-a']

>  <disregarded>  (803) 
[]

>  <LE>  (803) 
2.759221

>  <outcome>  (803) 
equally sized

>  <percent_hybrid>  (803) 
0.0

$$$$
LIG
     RDKit          3D

 41 42  0  0  0  0  0  0  0  0999 V2000
  -15.3130  -43.9143  -17.0763 C   0  0  0  0  0  0  0  0  0  0  0  0
  -15.4218  -42.9303  -22.6772 O   0  0  0  0  0  0  0  0  0  0  0  0
  -14.3170  -42.1309  -15.8135 O   0  0  0  0  0  0  0  0  0  0  0  0
  -13.0961  -44.0030  -16.1418 O   0  0  0  0  0  0  0  0  0  0  0  0
  -14.1374  -43.3792  -16.2983 C   0  0  0  0  0  0  0  0  0  0  0  0
  -14.5451  -43.7784  -23.4158 C   0  0  0  0  0  0  0  0  0  0  0  0
  -13.6499  -41.3786  -21.1074 C   0  0  0  0  0  0  0  0  0  0  0  0
  -14.0141  -39.2017  -22.1213 O   0  0  0  0  0  0  0  0  0  0  0  0
  -15.3953  -39.8305  -20.4988 O   0  0  0  0  0  0  0  0  0  0  0  0
  -14.3590  -40.0671  -21.3278 C   0  0  0  0  0  0  0  0  0  0  0  0
  -19.4624  -46.0839  -24.5208 C   0  0  0  0  0  0  0  0  0  0  0  0
  -20.0975  -46.3137  -25.5154 C   0  0  0  0  0  0  0  0  0  0  0  0
  -20.8338  -46.6346  -26.7375 C   0  0  0  0  0  0  0  0  0  0  0  0
  -21.9773  -45.8021  -26.8539 O   0  0  0  0  0  0  0  0  0  0  0  0
  -15.2914  -43.6807  -18.5652 C   0  0  0  0  0  0  0  0  0  0  0  0
  -14.4606  -42.7296  -19.1581 C   0  0  0  0  0  0  0  0  0  0  0  0
  -14.5095  -42.4866  -20.5362 C   0  0  0  0  0  0  0  0  0  0  0  0
  -15.3900  -43.2376  -21.3388 C   0  0  0  0  0  0  0  0  0  0  0  0
  -16.2562  -44.1984  -20.7749 C   0  0  0  0  0  0  0  0  0  0  0  0
  -16.1830  -44.4009  -19.3823 C   0  0  0  0  0  0  0  0  0  0  0  0
  -18.7306  -45.8611  -23.3143 C   0  0  0  0  0  0  0  0  0  0  0  0
  -18.4576  -46.8227  -22.3675 C   0  0  0  0  0  0  0  0  0  0  0  0
  -17.5778  -46.3384  -21.3560 C   0  0  0  0  0  0  0  0  0  0  0  0
  -17.2159  -45.0138  -21.5510 C   0  0  0  0  0  0  0  0  0  0  0  0
  -18.1080  -44.3458  -22.8624 S   0  0  0  0  0  0  0  0  0  0  0  0
  -15.3122  -44.9952  -16.9012 H   0  0  0  0  0  0  0  0  0  0  0  0
  -16.2402  -43.5133  -16.6522 H   0  0  0  0  0  0  0  0  0  0  0  0
  -15.1867  -41.7393  -16.0293 H   0  0  0  0  0  0  0  0  0  0  0  0
  -15.0498  -44.7248  -23.6143 H   0  0  0  0  0  0  0  0  0  0  0  0
  -14.3315  -43.2944  -24.3726 H   0  0  0  0  0  0  0  0  0  0  0  0
  -13.5966  -43.9641  -22.9007 H   0  0  0  0  0  0  0  0  0  0  0  0
  -13.2359  -41.6994  -22.0640 H   0  0  0  0  0  0  0  0  0  0  0  0
  -12.7949  -41.1859  -20.4483 H   0  0  0  0  0  0  0  0  0  0  0  0
  -15.7334  -38.9603  -20.7940 H   0  0  0  0  0  0  0  0  0  0  0  0
  -21.1390  -47.6834  -26.7819 H   0  0  0  0  0  0  0  0  0  0  0  0
  -20.2007  -46.4350  -27.6001 H   0  0  0  0  0  0  0  0  0  0  0  0
  -22.7360  -46.3068  -26.4888 H   0  0  0  0  0  0  0  0  0  0  0  0
  -13.7693  -42.1404  -18.5564 H   0  0  0  0  0  0  0  0  0  0  0  0
  -16.8532  -45.1215  -18.9172 H   0  0  0  0  0  0  0  0  0  0  0  0
  -18.8081  -47.8468  -22.4297 H   0  0  0  0  0  0  0  0  0  0  0  0
  -17.1811  -46.9639  -20.5657 H   0  0  0  0  0  0  0  0  0  0  0  0
  2  6  1  0
  4  5  2  0
  1  5  1  0
  5  3  1  0
  7 10  1  0
  8 10  2  0
 10  9  1  0
 14 13  1  0
 13 12  1  0
 12 11  3  0
 15 20  2  0
 15  1  1  0
 15 16  1  0
 16 17  2  0
 17 18  1  0
 18 19  2  0
 18  2  1  0
 19 24  1  0
 19 20  1  0
 21 22  2  0
 21 25  1  0
 22 23  1  0
 23 24  2  0
 24 25  1  0
  7 17  1  0
 11 21  1  0
  1 26  1  0
  1 27  1  0
  3 28  1  0
  6 29  1  0
  6 30  1  0
  6 31  1  0
  7 32  1  0
  7 33  1  0
  9 34  1  0
 13 35  1  0
 13 36  1  0
 14 37  1  0
 16 38  1  0
 20 39  1  0
 22 40  1  0
 23 41  1  0
M  END
>  <smiles>  (804) 
[H]OC(=O)C([H])([H])c1c([H])c(-c2sc(C#CC([H])([H])O[H])c([H])c2[H])c(OC([H])([H])[H])c(C([H])([H])C(=O)O[H])c1[H]

>  <error>  (804) 


>  <∆∆G>  (804) 
-61.029306

>  <∆G_bound>  (804) 
2.883916

>  <∆G_unbound>  (804) 
63.913221

>  <comRMSD>  (804) 
1.284374

>  <N_constrained_atoms>  (804) 
25.0

>  <N_unconstrained_atoms>  (804) 
0.0

>  <runtime>  (804) 
3.292467

>  <regarded>  (804) 
['5f3z-a', '5hmy-a']

>  <disregarded>  (804) 
[]

>  <LE>  (804) 
2.441172

>  <outcome>  (804) 
too moved

>  <percent_hybrid>  (804) 
32.0

$$$$
LIG
     RDKit          3D

 51 54  0  0  0  0  0  0  0  0999 V2000
  -14.6672  -43.6867  -17.3567 C   0  0  0  0  0  0  0  0  0  0  0  0
  -15.7267  -42.7961  -15.3895 O   0  0  0  0  0  0  0  0  0  0  0  0
  -13.8270  -41.8156  -16.0927 O   0  0  0  0  0  0  0  0  0  0  0  0
  -14.6819  -42.6770  -16.2319 C   0  0  0  0  0  0  0  0  0  0  0  0
  -16.6345  -37.6113  -26.2510 C   0  0  0  0  0  0  0  0  0  0  0  0
  -17.6517  -38.5308  -26.8610 C   0  0  0  0  0  0  0  0  0  0  0  0
  -18.7317  -38.1425  -27.3030 O   0  0  0  0  0  0  0  0  0  0  0  0
  -17.2478  -39.8549  -26.9495 O   0  0  0  0  0  0  0  0  0  0  0  0
  -15.4582  -43.2066  -18.5743 C   0  0  1  0  0  0  0  0  0  0  0  0
  -14.6483  -42.2155  -19.4054 C   0  0  0  0  0  0  0  0  0  0  0  0
  -15.5548  -41.5774  -20.4472 C   0  0  0  0  0  0  0  0  0  0  0  0
  -16.2397  -42.5832  -21.4200 C   0  0  2  0  0  0  0  0  0  0  0  0
  -16.8042  -43.8487  -20.6554 C   0  0  2  0  0  0  0  0  0  0  0  0
  -15.8878  -44.3520  -19.5000 C   0  0  0  0  0  0  0  0  0  0  0  0
  -18.6095  -46.4463  -23.0899 C   0  0  0  0  0  0  0  0  0  0  0  0
  -18.2579  -47.1517  -21.9683 C   0  0  0  0  0  0  0  0  0  0  0  0
  -17.5393  -46.3483  -21.0416 C   0  0  0  0  0  0  0  0  0  0  0  0
  -17.3983  -45.0272  -21.4500 C   0  0  0  0  0  0  0  0  0  0  0  0
  -18.1791  -44.8111  -22.9684 S   0  0  0  0  0  0  0  0  0  0  0  0
  -15.3049  -42.7468  -22.5656 N   0  0  0  0  0  0  0  0  0  0  0  0
  -15.6596  -41.9626  -23.6698 C   0  0  0  0  0  0  0  0  0  0  0  0
  -16.9052  -41.3350  -23.6145 C   0  0  0  0  0  0  0  0  0  0  0  0
  -17.7049  -41.6139  -22.0800 S   0  0  0  0  0  0  0  0  0  0  0  0
  -16.6821  -40.4358  -25.8041 C   0  0  0  0  0  0  0  0  0  0  0  0
  -17.4508  -40.6111  -24.6677 C   0  0  0  0  0  0  0  0  0  0  0  0
  -14.8953  -41.7329  -24.8069 C   0  0  0  0  0  0  0  0  0  0  0  0
  -15.3938  -40.9531  -25.8670 C   0  0  0  0  0  0  0  0  0  0  0  0
  -14.4501  -43.8997  -22.7379 C   0  0  0  0  0  0  0  0  0  0  0  0
  -13.6182  -43.8506  -17.6231 H   0  0  0  0  0  0  0  0  0  0  0  0
  -15.0522  -44.6364  -16.9709 H   0  0  0  0  0  0  0  0  0  0  0  0
  -16.3608  -43.5230  -15.5541 H   0  0  0  0  0  0  0  0  0  0  0  0
  -15.6621  -37.7951  -26.7124 H   0  0  0  0  0  0  0  0  0  0  0  0
  -16.9130  -36.5764  -26.4725 H   0  0  0  0  0  0  0  0  0  0  0  0
  -16.5915  -37.7351  -25.1674 H   0  0  0  0  0  0  0  0  0  0  0  0
  -16.3654  -42.7073  -18.2057 H   0  0  0  0  0  0  0  0  0  0  0  0
  -14.2419  -41.4214  -18.7686 H   0  0  0  0  0  0  0  0  0  0  0  0
  -13.7922  -42.7046  -19.8847 H   0  0  0  0  0  0  0  0  0  0  0  0
  -16.3134  -41.0105  -19.8876 H   0  0  0  0  0  0  0  0  0  0  0  0
  -14.9706  -40.8283  -20.9998 H   0  0  0  0  0  0  0  0  0  0  0  0
  -17.6852  -43.4755  -20.1028 H   0  0  0  0  0  0  0  0  0  0  0  0
  -15.0135  -44.8791  -19.8987 H   0  0  0  0  0  0  0  0  0  0  0  0
  -16.4337  -45.0785  -18.8855 H   0  0  0  0  0  0  0  0  0  0  0  0
  -19.1085  -46.8250  -23.9714 H   0  0  0  0  0  0  0  0  0  0  0  0
  -18.4642  -48.2068  -21.8460 H   0  0  0  0  0  0  0  0  0  0  0  0
  -17.1640  -46.7437  -20.1073 H   0  0  0  0  0  0  0  0  0  0  0  0
  -18.4591  -40.2176  -24.6016 H   0  0  0  0  0  0  0  0  0  0  0  0
  -13.9122  -42.1728  -24.9071 H   0  0  0  0  0  0  0  0  0  0  0  0
  -14.7972  -40.7955  -26.7594 H   0  0  0  0  0  0  0  0  0  0  0  0
  -14.0217  -44.2116  -21.7828 H   0  0  0  0  0  0  0  0  0  0  0  0
  -15.0151  -44.7388  -23.1509 H   0  0  0  0  0  0  0  0  0  0  0  0
  -13.6036  -43.7096  -23.4000 H   0  0  0  0  0  0  0  0  0  0  0  0
  3  4  2  0
  1  4  1  0
  4  2  1  0
  8  6  1  0
  6  7  2  0
  6  5  1  0
  9 14  1  0
  9  1  1  0
  9 10  1  0
 10 11  1  0
 11 12  1  0
 12 13  1  0
 13 18  1  0
 13 14  1  0
 15 16  2  0
 15 19  1  0
 16 17  1  0
 17 18  2  0
 18 19  1  0
 20 21  1  0
 21 26  2  0
 21 22  1  0
 22 23  1  0
 22 25  2  0
 24 27  2  0
 24 25  1  0
 24  8  1  0
 26 27  1  0
 12 20  1  0
 12 23  1  1
 20 28  1  0
  1 29  1  0
  1 30  1  0
  2 31  1  0
  5 32  1  0
  5 33  1  0
  5 34  1  0
  9 35  1  1
 10 36  1  0
 10 37  1  0
 11 38  1  0
 11 39  1  0
 13 40  1  1
 14 41  1  0
 14 42  1  0
 15 43  1  0
 16 44  1  0
 17 45  1  0
 25 46  1  0
 26 47  1  0
 27 48  1  0
 28 49  1  0
 28 50  1  0
 28 51  1  0
M  END
>  <smiles>  (805) 
[H]OC(=O)C([H])([H])[C@@]1([H])C([H])([H])C([H])([H])[C@@]2(Sc3c([H])c(OC(=O)C([H])([H])[H])c([H])c([H])c3N2C([H])([H])[H])[C@@]([H])(c2sc([H])c([H])c2[H])C1([H])[H]

>  <error>  (805) 


>  <∆∆G>  (805) 
-76.801809

>  <∆G_bound>  (805) 
166.361063

>  <∆G_unbound>  (805) 
243.162872

>  <comRMSD>  (805) 
1.596719

>  <N_constrained_atoms>  (805) 
28.0

>  <N_unconstrained_atoms>  (805) 
0.0

>  <runtime>  (805) 
4.676241

>  <regarded>  (805) 
['5f3z-a', '6izx-a']

>  <disregarded>  (805) 
[]

>  <LE>  (805) 
2.742922

>  <outcome>  (805) 
too moved

>  <percent_hybrid>  (805) 
43.0

$$$$

     RDKit          2D

  0  0  0  0  0  0  0  0  0  0999 V2000
M  END
>  <smiles>  (806) 
nan

>  <error>  (806) 
FragmensteinError Ideal compound failed. Something is wrong with the SMILES

>  <∆∆G>  (806) 
nan

>  <∆G_bound>  (806) 
nan

>  <∆G_unbound>  (806) 
nan

>  <comRMSD>  (806) 
nan

>  <N_constrained_atoms>  (806) 
nan

>  <N_unconstrained_atoms>  (806) 
nan

>  <runtime>  (806) 
nan

>  <regarded>  (806) 
[]

>  <disregarded>  (806) 
[]

>  <LE>  (806) 
nan

>  <outcome>  (806) 
crashed

>  <percent_hybrid>  (806) 
nan

$$$$
LIG
     RDKit          3D

 35 36  0  0  0  0  0  0  0  0999 V2000
  -15.1983  -43.8615  -17.0382 C   0  0  0  0  0  0  0  0  0  0  0  0
  -15.4152  -42.9992  -22.6567 O   0  0  0  0  0  0  0  0  0  0  0  0
  -14.0956  -41.9988  -15.9971 O   0  0  0  0  0  0  0  0  0  0  0  0
  -13.0292  -43.9905  -16.0013 O   0  0  0  0  0  0  0  0  0  0  0  0
  -14.0080  -43.3149  -16.2908 C   0  0  0  0  0  0  0  0  0  0  0  0
  -14.5480  -43.8432  -23.4082 C   0  0  0  0  0  0  0  0  0  0  0  0
  -13.4772  -41.5279  -21.1726 C   0  0  0  0  0  0  0  0  0  0  0  0
  -12.7988  -39.2505  -21.1893 O   0  0  0  0  0  0  0  0  0  0  0  0
  -13.6147  -40.1433  -20.5836 C   0  0  0  0  0  0  0  0  0  0  0  0
  -14.3266  -39.7758  -19.6624 O   0  0  0  0  0  0  0  0  0  0  0  0
  -15.1854  -43.6838  -18.5361 C   0  0  0  0  0  0  0  0  0  0  0  0
  -14.3124  -42.8033  -19.1772 C   0  0  0  0  0  0  0  0  0  0  0  0
  -14.4010  -42.5602  -20.5551 C   0  0  0  0  0  0  0  0  0  0  0  0
  -15.3354  -43.2871  -21.3160 C   0  0  0  0  0  0  0  0  0  0  0  0
  -16.2122  -44.2139  -20.7105 C   0  0  0  0  0  0  0  0  0  0  0  0
  -16.1233  -44.3833  -19.3149 C   0  0  0  0  0  0  0  0  0  0  0  0
  -18.7228  -45.9312  -23.1631 C   0  0  0  0  0  0  0  0  0  0  0  0
  -18.4227  -46.8787  -22.2133 C   0  0  0  0  0  0  0  0  0  0  0  0
  -17.5267  -46.3695  -21.2320 C   0  0  0  0  0  0  0  0  0  0  0  0
  -17.1858  -45.0424  -21.4515 C   0  0  0  0  0  0  0  0  0  0  0  0
  -18.1087  -44.3986  -22.7512 S   0  0  0  0  0  0  0  0  0  0  0  0
  -15.2236  -44.9342  -16.8192 H   0  0  0  0  0  0  0  0  0  0  0  0
  -16.1105  -43.4225  -16.6179 H   0  0  0  0  0  0  0  0  0  0  0  0
  -14.8995  -41.5647  -16.3489 H   0  0  0  0  0  0  0  0  0  0  0  0
  -13.5627  -43.9613  -22.9457 H   0  0  0  0  0  0  0  0  0  0  0  0
  -15.0226  -44.8175  -23.5283 H   0  0  0  0  0  0  0  0  0  0  0  0
  -14.4150  -43.3981  -24.3978 H   0  0  0  0  0  0  0  0  0  0  0  0
  -13.6608  -41.4259  -22.2459 H   0  0  0  0  0  0  0  0  0  0  0  0
  -12.4430  -41.8639  -21.0342 H   0  0  0  0  0  0  0  0  0  0  0  0
  -12.9793  -38.4203  -20.7006 H   0  0  0  0  0  0  0  0  0  0  0  0
  -13.5599  -42.2547  -18.6105 H   0  0  0  0  0  0  0  0  0  0  0  0
  -16.8139  -45.0643  -18.8209 H   0  0  0  0  0  0  0  0  0  0  0  0
  -19.3015  -46.0572  -24.0681 H   0  0  0  0  0  0  0  0  0  0  0  0
  -18.7668  -47.9053  -22.2619 H   0  0  0  0  0  0  0  0  0  0  0  0
  -17.1019  -46.9784  -20.4436 H   0  0  0  0  0  0  0  0  0  0  0  0
  2  6  1  0
  4  5  2  0
  1  5  1  0
  5  3  1  0
  7  9  1  0
 10  9  2  0
  9  8  1  0
 11 16  2  0
 11  1  1  0
 11 12  1  0
 12 13  2  0
 13 14  1  0
 14 15  2  0
 14  2  1  0
 15 20  1  0
 15 16  1  0
 17 18  2  0
 17 21  1  0
 18 19  1  0
 19 20  2  0
 20 21  1  0
  7 13  1  0
  1 22  1  0
  1 23  1  0
  3 24  1  0
  6 25  1  0
  6 26  1  0
  6 27  1  0
  7 28  1  0
  7 29  1  0
  8 30  1  0
 12 31  1  0
 16 32  1  0
 17 33  1  0
 18 34  1  0
 19 35  1  0
M  END
>  <smiles>  (807) 
[H]OC(=O)C([H])([H])c1c([H])c(-c2sc([H])c([H])c2[H])c(OC([H])([H])[H])c(C([H])([H])C(=O)O[H])c1[H]

>  <error>  (807) 


>  <∆∆G>  (807) 
-106.523963

>  <∆G_bound>  (807) 
-61.939104

>  <∆G_unbound>  (807) 
44.584859

>  <comRMSD>  (807) 
1.358367

>  <N_constrained_atoms>  (807) 
21.0

>  <N_unconstrained_atoms>  (807) 
0.0

>  <runtime>  (807) 
1.842681

>  <regarded>  (807) 
['5f3z-a', '5hmx-b']

>  <disregarded>  (807) 
[]

>  <LE>  (807) 
5.07257

>  <outcome>  (807) 
too moved

>  <percent_hybrid>  (807) 
20.0

$$$$
LIG
     RDKit          3D

 58 60  0  0  0  0  0  0  0  0999 V2000
  -15.1538  -43.7939  -17.3021 C   0  0  0  0  0  0  0  0  0  0  0  0
  -15.3274  -43.9325  -22.9106 O   0  0  0  0  0  0  0  0  0  0  0  0
  -17.4687  -43.1344  -17.0409 O   0  0  0  0  0  0  0  0  0  0  0  0
  -15.9877  -42.6238  -15.1189 C   0  0  0  0  0  0  0  0  0  0  0  0
  -16.1170  -42.7930  -16.6601 C   0  0  1  0  0  0  0  0  0  0  0  0
  -14.3191  -43.3516  -23.7097 C   0  0  0  0  0  0  0  0  0  0  0  0
  -13.2925  -42.4050  -18.7212 O   0  0  0  0  0  0  0  0  0  0  0  0
  -12.2401  -41.7359  -19.4043 C   0  0  0  0  0  0  0  0  0  0  0  0
  -17.2561  -42.1780  -14.6209 O   0  0  0  0  0  0  0  0  0  0  0  0
  -19.4378  -46.2669  -24.5418 C   0  0  0  0  0  0  0  0  0  0  0  0
  -20.0482  -46.4496  -25.5603 C   0  0  0  0  0  0  0  0  0  0  0  0
  -20.7825  -46.7098  -26.7951 C   0  0  0  0  0  0  0  0  0  0  0  0
  -21.8895  -45.8260  -26.9040 O   0  0  0  0  0  0  0  0  0  0  0  0
  -14.3664  -44.5513  -16.7453 O   0  0  0  0  0  0  0  0  0  0  0  0
  -15.7077  -43.8211  -14.4478 O   0  0  0  0  0  0  0  0  0  0  0  0
  -12.4325  -39.1076  -15.5792 O   0  0  0  0  0  0  0  0  0  0  0  0
  -12.9792  -38.6850  -16.8223 C   0  0  0  0  0  0  0  0  0  0  0  0
  -15.1724  -43.8141  -18.7750 C   0  0  0  0  0  0  0  0  0  0  0  0
  -14.1913  -43.1080  -19.4787 C   0  0  0  0  0  0  0  0  0  0  0  0
  -14.2166  -43.1477  -20.8735 C   0  0  0  0  0  0  0  0  0  0  0  0
  -15.2283  -43.8486  -21.5467 C   0  0  0  0  0  0  0  0  0  0  0  0
  -16.2326  -44.5331  -20.8219 C   0  0  0  0  0  0  0  0  0  0  0  0
  -16.1796  -44.5307  -19.4272 C   0  0  0  0  0  0  0  0  0  0  0  0
  -18.7689  -46.0783  -23.2954 C   0  0  0  0  0  0  0  0  0  0  0  0
  -18.5478  -47.0548  -22.3479 C   0  0  0  0  0  0  0  0  0  0  0  0
  -17.6892  -46.6012  -21.3040 C   0  0  0  0  0  0  0  0  0  0  0  0
  -17.2846  -45.2955  -21.5074 C   0  0  0  0  0  0  0  0  0  0  0  0
  -18.2047  -44.5665  -22.7666 S   0  0  0  0  0  0  0  0  0  0  0  0
  -12.9404  -40.0050  -13.4892 C   0  0  0  0  0  0  0  0  0  0  0  0
  -13.6842  -40.8257  -12.6521 C   0  0  0  0  0  0  0  0  0  0  0  0
  -14.6845  -41.6277  -13.1941 C   0  0  0  0  0  0  0  0  0  0  0  0
  -14.9365  -41.6631  -14.5861 C   0  0  0  0  0  0  0  0  0  0  0  0
  -14.1711  -40.8230  -15.4045 C   0  0  0  0  0  0  0  0  0  0  0  0
  -13.2010  -39.9790  -14.8580 C   0  0  0  0  0  0  0  0  0  0  0  0
  -18.0203  -42.3867  -16.7383 H   0  0  0  0  0  0  0  0  0  0  0  0
  -15.9602  -41.8261  -17.1485 H   0  0  0  0  0  0  0  0  0  0  0  0
  -14.2255  -42.2786  -23.5180 H   0  0  0  0  0  0  0  0  0  0  0  0
  -13.3762  -43.8855  -23.5689 H   0  0  0  0  0  0  0  0  0  0  0  0
  -14.6195  -43.4667  -24.7530 H   0  0  0  0  0  0  0  0  0  0  0  0
  -11.5491  -41.3415  -18.6538 H   0  0  0  0  0  0  0  0  0  0  0  0
  -11.6837  -42.4138  -20.0546 H   0  0  0  0  0  0  0  0  0  0  0  0
  -12.6333  -40.8898  -19.9772 H   0  0  0  0  0  0  0  0  0  0  0  0
  -17.8852  -42.8998  -14.8386 H   0  0  0  0  0  0  0  0  0  0  0  0
  -21.1334  -47.7426  -26.8658 H   0  0  0  0  0  0  0  0  0  0  0  0
  -20.1301  -46.5108  -27.6420 H   0  0  0  0  0  0  0  0  0  0  0  0
  -22.6539  -46.2846  -26.4931 H   0  0  0  0  0  0  0  0  0  0  0  0
  -16.3830  -43.8459  -13.7502 H   0  0  0  0  0  0  0  0  0  0  0  0
  -14.0161  -38.3471  -16.7162 H   0  0  0  0  0  0  0  0  0  0  0  0
  -12.3879  -37.8337  -17.1734 H   0  0  0  0  0  0  0  0  0  0  0  0
  -12.8972  -39.4746  -17.5739 H   0  0  0  0  0  0  0  0  0  0  0  0
  -13.4477  -42.6416  -21.4428 H   0  0  0  0  0  0  0  0  0  0  0  0
  -16.9296  -45.0619  -18.8476 H   0  0  0  0  0  0  0  0  0  0  0  0
  -18.9045  -48.0736  -22.4393 H   0  0  0  0  0  0  0  0  0  0  0  0
  -17.2995  -47.2438  -20.5238 H   0  0  0  0  0  0  0  0  0  0  0  0
  -12.1650  -39.3672  -13.0737 H   0  0  0  0  0  0  0  0  0  0  0  0
  -13.4930  -40.8355  -11.5832 H   0  0  0  0  0  0  0  0  0  0  0  0
  -15.2639  -42.2551  -12.5198 H   0  0  0  0  0  0  0  0  0  0  0  0
  -14.3016  -40.8350  -16.4777 H   0  0  0  0  0  0  0  0  0  0  0  0
  2  6  1  0
  4  5  1  0
  1  5  1  0
  5  3  1  0
  7  8  1  0
  9  4  1  0
 12 13  1  0
 12 11  1  0
 11 10  3  0
 14  1  2  0
 15  4  1  0
 17 16  1  0
 18 23  1  0
 18  1  1  0
 18 19  2  0
 19 20  1  0
 20 21  2  0
 21 22  1  0
 21  2  1  0
 22 27  1  0
 22 23  2  0
 24 25  2  0
 24 28  1  0
 25 26  1  0
 26 27  2  0
 27 28  1  0
 29 34  2  0
 29 30  1  0
 30 31  2  0
 31 32  1  0
 32 33  2  0
 33 34  1  0
 34 16  1  0
  7 19  1  0
 10 24  1  0
  4 32  1  0
  3 35  1  0
  5 36  1  6
  6 37  1  0
  6 38  1  0
  6 39  1  0
  8 40  1  0
  8 41  1  0
  8 42  1  0
  9 43  1  0
 12 44  1  0
 12 45  1  0
 13 46  1  0
 15 47  1  0
 17 48  1  0
 17 49  1  0
 17 50  1  0
 20 51  1  0
 23 52  1  0
 25 53  1  0
 26 54  1  0
 29 55  1  0
 30 56  1  0
 31 57  1  0
 33 58  1  0
M  END
>  <smiles>  (808) 
[H]OC([H])([H])C#Cc1sc(-c2c([H])c(C(=O)[C@@]([H])(O[H])C(O[H])(O[H])c3c([H])c([H])c([H])c(OC([H])([H])[H])c3[H])c(OC([H])([H])[H])c([H])c2OC([H])([H])[H])c([H])c1[H]

>  <error>  (808) 


>  <∆∆G>  (808) 
-66.040171

>  <∆G_bound>  (808) 
119.767083

>  <∆G_unbound>  (808) 
185.807255

>  <comRMSD>  (808) 
0.580118

>  <N_constrained_atoms>  (808) 
34.0

>  <N_unconstrained_atoms>  (808) 
0.0

>  <runtime>  (808) 
3.132373

>  <regarded>  (808) 
['5f3z-a', '5k5m-a']

>  <disregarded>  (808) 
[]

>  <LE>  (808) 
1.942358

>  <outcome>  (808) 
acceptable

>  <percent_hybrid>  (808) 
50.0

$$$$
LIG
     RDKit          3D

 46 47  0  0  0  0  0  0  0  0999 V2000
  -15.0797  -43.6999  -17.3885 C   0  0  0  0  0  0  0  0  0  0  0  0
  -15.2983  -44.0774  -22.9938 O   0  0  0  0  0  0  0  0  0  0  0  0
  -15.9331  -41.3676  -17.5689 O   0  0  0  0  0  0  0  0  0  0  0  0
  -16.3435  -42.5186  -15.4829 C   0  0  0  0  0  0  0  0  0  0  0  0
  -15.3971  -42.3632  -16.6901 C   0  0  1  0  0  0  0  0  0  0  0  0
  -14.4235  -43.3354  -23.8215 C   0  0  0  0  0  0  0  0  0  0  0  0
  -19.5135  -46.1681  -24.5664 C   0  0  0  0  0  0  0  0  0  0  0  0
  -20.1387  -46.3558  -25.5758 C   0  0  0  0  0  0  0  0  0  0  0  0
  -20.8636  -46.6328  -26.8130 C   0  0  0  0  0  0  0  0  0  0  0  0
  -21.9858  -45.7707  -26.9349 O   0  0  0  0  0  0  0  0  0  0  0  0
  -16.4169  -41.2279  -14.6745 C   0  0  0  0  0  0  0  0  0  0  0  0
  -12.8476  -42.6111  -18.9604 C   0  0  0  0  0  0  0  0  0  0  0  0
  -14.6282  -44.7096  -16.8507 O   0  0  0  0  0  0  0  0  0  0  0  0
  -15.8647  -43.5182  -14.6132 O   0  0  0  0  0  0  0  0  0  0  0  0
  -17.6321  -42.8017  -15.9954 O   0  0  0  0  0  0  0  0  0  0  0  0
  -15.1353  -43.7324  -18.8603 C   0  0  0  0  0  0  0  0  0  0  0  0
  -14.0585  -43.2241  -19.6069 C   0  0  0  0  0  0  0  0  0  0  0  0
  -14.1105  -43.3228  -21.0018 C   0  0  0  0  0  0  0  0  0  0  0  0
  -15.2037  -43.9182  -21.6364 C   0  0  0  0  0  0  0  0  0  0  0  0
  -16.2663  -44.4553  -20.8719 C   0  0  0  0  0  0  0  0  0  0  0  0
  -16.2238  -44.3592  -19.4761 C   0  0  0  0  0  0  0  0  0  0  0  0
  -18.8208  -45.9823  -23.3297 C   0  0  0  0  0  0  0  0  0  0  0  0
  -18.5804  -46.9657  -22.3921 C   0  0  0  0  0  0  0  0  0  0  0  0
  -17.7393  -46.5084  -21.3354 C   0  0  0  0  0  0  0  0  0  0  0  0
  -17.3449  -45.1996  -21.5332 C   0  0  0  0  0  0  0  0  0  0  0  0
  -18.2559  -44.4695  -22.7971 S   0  0  0  0  0  0  0  0  0  0  0  0
  -15.2500  -41.1249  -18.2133 H   0  0  0  0  0  0  0  0  0  0  0  0
  -14.4268  -41.9921  -16.3343 H   0  0  0  0  0  0  0  0  0  0  0  0
  -14.3513  -42.2869  -23.5153 H   0  0  0  0  0  0  0  0  0  0  0  0
  -13.4469  -43.8235  -23.8516 H   0  0  0  0  0  0  0  0  0  0  0  0
  -14.8390  -43.3480  -24.8321 H   0  0  0  0  0  0  0  0  0  0  0  0
  -21.1951  -47.6728  -26.8784 H   0  0  0  0  0  0  0  0  0  0  0  0
  -20.2091  -46.4308  -27.6581 H   0  0  0  0  0  0  0  0  0  0  0  0
  -22.7514  -46.2523  -26.5588 H   0  0  0  0  0  0  0  0  0  0  0  0
  -17.0921  -41.3488  -13.8188 H   0  0  0  0  0  0  0  0  0  0  0  0
  -15.4363  -40.9513  -14.2725 H   0  0  0  0  0  0  0  0  0  0  0  0
  -16.8089  -40.3964  -15.2694 H   0  0  0  0  0  0  0  0  0  0  0  0
  -12.4049  -43.3037  -18.2376 H   0  0  0  0  0  0  0  0  0  0  0  0
  -12.0756  -42.3778  -19.7013 H   0  0  0  0  0  0  0  0  0  0  0  0
  -13.1066  -41.6751  -18.4587 H   0  0  0  0  0  0  0  0  0  0  0  0
  -16.5098  -43.6017  -13.8916 H   0  0  0  0  0  0  0  0  0  0  0  0
  -18.2161  -43.0305  -15.2460 H   0  0  0  0  0  0  0  0  0  0  0  0
  -13.2584  -42.9786  -21.5815 H   0  0  0  0  0  0  0  0  0  0  0  0
  -17.0257  -44.7725  -18.8700 H   0  0  0  0  0  0  0  0  0  0  0  0
  -18.9227  -47.9889  -22.4916 H   0  0  0  0  0  0  0  0  0  0  0  0
  -17.3424  -47.1513  -20.5589 H   0  0  0  0  0  0  0  0  0  0  0  0
  2  6  1  0
  4  5  1  0
  1  5  1  0
  5  3  1  0
 10  9  1  0
  9  8  1  0
  8  7  3  0
 11  4  1  0
 13  1  2  0
 14  4  1  0
 15  4  1  0
 16 21  2  0
 16  1  1  0
 16 17  1  0
 17 18  2  0
 18 19  1  0
 19 20  2  0
 19  2  1  0
 20 25  1  0
 20 21  1  0
 22 23  2  0
 22 26  1  0
 23 24  1  0
 24 25  2  0
 25 26  1  0
 12 17  1  0
  7 22  1  0
  3 27  1  0
  5 28  1  1
  6 29  1  0
  6 30  1  0
  6 31  1  0
  9 32  1  0
  9 33  1  0
 10 34  1  0
 11 35  1  0
 11 36  1  0
 11 37  1  0
 12 38  1  0
 12 39  1  0
 12 40  1  0
 14 41  1  0
 15 42  1  0
 18 43  1  0
 21 44  1  0
 23 45  1  0
 24 46  1  0
M  END
>  <smiles>  (809) 
[H]OC([H])([H])C#Cc1sc(-c2c([H])c(C(=O)[C@@]([H])(O[H])C(O[H])(O[H])C([H])([H])[H])c(C([H])([H])[H])c([H])c2OC([H])([H])[H])c([H])c1[H]

>  <error>  (809) 


>  <∆∆G>  (809) 
-53.337449

>  <∆G_bound>  (809) 
72.575998

>  <∆G_unbound>  (809) 
125.913446

>  <comRMSD>  (809) 
0.755136

>  <N_constrained_atoms>  (809) 
26.0

>  <N_unconstrained_atoms>  (809) 
0.0

>  <runtime>  (809) 
1.498986

>  <regarded>  (809) 
['5f3z-a', '5hmz-a']

>  <disregarded>  (809) 
[]

>  <LE>  (809) 
2.05144

>  <outcome>  (809) 
acceptable

>  <percent_hybrid>  (809) 
35.0

$$$$
LIG
     RDKit          3D

 35 36  0  0  0  0  0  0  0  0999 V2000
  -15.9758  -43.1168  -17.1570 C   0  0  0  0  0  0  0  0  0  0  0  0
  -15.3102  -43.0216  -22.7405 O   0  0  0  0  0  0  0  0  0  0  0  0
  -17.4043  -41.2294  -16.6829 O   0  0  0  0  0  0  0  0  0  0  0  0
  -18.3956  -43.1726  -17.2663 O   0  0  0  0  0  0  0  0  0  0  0  0
  -17.3760  -42.5383  -17.0223 C   0  0  0  0  0  0  0  0  0  0  0  0
  -14.4300  -43.9442  -23.3651 C   0  0  0  0  0  0  0  0  0  0  0  0
  -14.1350  -39.6266  -19.7469 O   0  0  0  0  0  0  0  0  0  0  0  0
  -12.6244  -39.2984  -21.3417 O   0  0  0  0  0  0  0  0  0  0  0  0
  -13.4875  -40.0952  -20.6695 C   0  0  0  0  0  0  0  0  0  0  0  0
  -13.4662  -41.5146  -21.1878 C   0  0  0  0  0  0  0  0  0  0  0  0
  -15.6203  -43.3082  -18.6081 C   0  0  0  0  0  0  0  0  0  0  0  0
  -14.6190  -42.5319  -19.1899 C   0  0  0  0  0  0  0  0  0  0  0  0
  -14.4998  -42.4459  -20.5823 C   0  0  0  0  0  0  0  0  0  0  0  0
  -15.3518  -43.2354  -21.3843 C   0  0  0  0  0  0  0  0  0  0  0  0
  -16.2977  -44.1156  -20.8155 C   0  0  0  0  0  0  0  0  0  0  0  0
  -16.4011  -44.1446  -19.4181 C   0  0  0  0  0  0  0  0  0  0  0  0
  -18.7285  -45.9246  -23.2794 C   0  0  0  0  0  0  0  0  0  0  0  0
  -18.4404  -46.8408  -22.2950 C   0  0  0  0  0  0  0  0  0  0  0  0
  -17.5569  -46.3011  -21.3201 C   0  0  0  0  0  0  0  0  0  0  0  0
  -17.2109  -44.9836  -21.5805 C   0  0  0  0  0  0  0  0  0  0  0  0
  -18.0791  -44.3878  -22.9364 S   0  0  0  0  0  0  0  0  0  0  0  0
  -15.2537  -42.4660  -16.6508 H   0  0  0  0  0  0  0  0  0  0  0  0
  -15.9223  -44.0708  -16.6317 H   0  0  0  0  0  0  0  0  0  0  0  0
  -16.5271  -40.8062  -16.6323 H   0  0  0  0  0  0  0  0  0  0  0  0
  -13.4641  -44.0151  -22.8556 H   0  0  0  0  0  0  0  0  0  0  0  0
  -14.9098  -44.9220  -23.3923 H   0  0  0  0  0  0  0  0  0  0  0  0
  -14.2569  -43.6088  -24.3907 H   0  0  0  0  0  0  0  0  0  0  0  0
  -12.7414  -38.4288  -20.9055 H   0  0  0  0  0  0  0  0  0  0  0  0
  -13.6051  -41.4377  -22.2700 H   0  0  0  0  0  0  0  0  0  0  0  0
  -12.4725  -41.9360  -20.9970 H   0  0  0  0  0  0  0  0  0  0  0  0
  -13.9862  -41.9090  -18.5594 H   0  0  0  0  0  0  0  0  0  0  0  0
  -17.1837  -44.7491  -18.9595 H   0  0  0  0  0  0  0  0  0  0  0  0
  -19.3108  -46.0769  -24.1781 H   0  0  0  0  0  0  0  0  0  0  0  0
  -18.7990  -47.8634  -22.3046 H   0  0  0  0  0  0  0  0  0  0  0  0
  -17.1629  -46.8723  -20.4888 H   0  0  0  0  0  0  0  0  0  0  0  0
  2  6  1  0
  4  5  2  0
  1  5  1  0
  5  3  1  0
 10  9  1  0
  7  9  2  0
  9  8  1  0
 11 16  2  0
 11  1  1  0
 11 12  1  0
 12 13  2  0
 13 14  1  0
 14 15  2  0
 14  2  1  0
 15 20  1  0
 15 16  1  0
 17 18  2  0
 17 21  1  0
 18 19  1  0
 19 20  2  0
 20 21  1  0
 10 13  1  0
  1 22  1  0
  1 23  1  0
  3 24  1  0
  6 25  1  0
  6 26  1  0
  6 27  1  0
  8 28  1  0
 10 29  1  0
 10 30  1  0
 12 31  1  0
 16 32  1  0
 17 33  1  0
 18 34  1  0
 19 35  1  0
M  END
>  <smiles>  (810) 
[H]OC(=O)C([H])([H])c1c([H])c(-c2sc([H])c([H])c2[H])c(OC([H])([H])[H])c(C([H])([H])C(=O)O[H])c1[H]

>  <error>  (810) 


>  <∆∆G>  (810) 
-66.917533

>  <∆G_bound>  (810) 
-59.23295

>  <∆G_unbound>  (810) 
7.684584

>  <comRMSD>  (810) 
1.136363

>  <N_constrained_atoms>  (810) 
21.0

>  <N_unconstrained_atoms>  (810) 
0.0

>  <runtime>  (810) 
1.708794

>  <regarded>  (810) 
['5f3z-a', '5hmw-b']

>  <disregarded>  (810) 
[]

>  <LE>  (810) 
3.186549

>  <outcome>  (810) 
too moved

>  <percent_hybrid>  (810) 
20.0

$$$$
LIG
     RDKit          3D

 29 30  0  0  0  0  0  0  0  0999 V2000
  -15.4535  -43.4098  -17.0925 C   0  0  0  0  0  0  0  0  0  0  0  0
  -15.1987  -44.2064  -22.7304 O   0  0  0  0  0  0  0  0  0  0  0  0
  -15.4023  -41.0047  -17.1997 O   0  0  0  0  0  0  0  0  0  0  0  0
  -14.0849  -42.0197  -15.6739 O   0  0  0  0  0  0  0  0  0  0  0  0
  -14.8998  -42.0988  -16.5824 C   0  0  0  0  0  0  0  0  0  0  0  0
  -14.2622  -43.4994  -23.5208 C   0  0  0  0  0  0  0  0  0  0  0  0
  -15.3500  -43.6163  -18.5870 C   0  0  0  0  0  0  0  0  0  0  0  0
  -14.2145  -43.2113  -19.3017 C   0  0  0  0  0  0  0  0  0  0  0  0
  -14.1370  -43.3908  -20.6857 C   0  0  0  0  0  0  0  0  0  0  0  0
  -15.1864  -43.9953  -21.3774 C   0  0  0  0  0  0  0  0  0  0  0  0
  -16.3029  -44.4793  -20.6642 C   0  0  0  0  0  0  0  0  0  0  0  0
  -16.3757  -44.2825  -19.2758 C   0  0  0  0  0  0  0  0  0  0  0  0
  -18.7621  -46.1462  -23.1288 C   0  0  0  0  0  0  0  0  0  0  0  0
  -18.5342  -47.0867  -22.1494 C   0  0  0  0  0  0  0  0  0  0  0  0
  -17.7069  -46.5773  -21.1108 C   0  0  0  0  0  0  0  0  0  0  0  0
  -17.3344  -45.2676  -21.3461 C   0  0  0  0  0  0  0  0  0  0  0  0
  -18.2044  -44.6034  -22.6702 S   0  0  0  0  0  0  0  0  0  0  0  0
  -14.9183  -44.2270  -16.5953 H   0  0  0  0  0  0  0  0  0  0  0  0
  -16.5002  -43.4519  -16.7708 H   0  0  0  0  0  0  0  0  0  0  0  0
  -16.0264  -41.2160  -17.9219 H   0  0  0  0  0  0  0  0  0  0  0  0
  -14.2312  -42.4359  -23.2634 H   0  0  0  0  0  0  0  0  0  0  0  0
  -13.2815  -43.9722  -23.4346 H   0  0  0  0  0  0  0  0  0  0  0  0
  -14.5812  -43.5731  -24.5636 H   0  0  0  0  0  0  0  0  0  0  0  0
  -13.3657  -42.7479  -18.7975 H   0  0  0  0  0  0  0  0  0  0  0  0
  -13.2271  -43.0818  -21.1946 H   0  0  0  0  0  0  0  0  0  0  0  0
  -17.2466  -44.6504  -18.7370 H   0  0  0  0  0  0  0  0  0  0  0  0
  -19.2706  -46.2823  -24.0739 H   0  0  0  0  0  0  0  0  0  0  0  0
  -18.8708  -48.1134  -22.2217 H   0  0  0  0  0  0  0  0  0  0  0  0
  -17.3122  -47.1816  -20.3041 H   0  0  0  0  0  0  0  0  0  0  0  0
  2  6  1  0
  4  5  2  0
  1  5  1  0
  5  3  1  0
  7 12  2  0
  7  1  1  0
  7  8  1  0
  8  9  2  0
  9 10  1  0
 10 11  2  0
 10  2  1  0
 11 16  1  0
 11 12  1  0
 13 14  2  0
 13 17  1  0
 14 15  1  0
 15 16  2  0
 16 17  1  0
  1 18  1  0
  1 19  1  0
  3 20  1  0
  6 21  1  0
  6 22  1  0
  6 23  1  0
  8 24  1  0
  9 25  1  0
 12 26  1  0
 13 27  1  0
 14 28  1  0
 15 29  1  0
M  END
>  <smiles>  (811) 
[H]OC(=O)C([H])([H])c1c([H])c([H])c(OC([H])([H])[H])c(-c2sc([H])c([H])c2[H])c1[H]

>  <error>  (811) 


>  <∆∆G>  (811) 
-46.90676

>  <∆G_bound>  (811) 
-62.693912

>  <∆G_unbound>  (811) 
-15.787152

>  <comRMSD>  (811) 
1.125184

>  <N_constrained_atoms>  (811) 
17.0

>  <N_unconstrained_atoms>  (811) 
0.0

>  <runtime>  (811) 
1.06942

>  <regarded>  (811) 
['5f3z-a', '6h9r-a']

>  <disregarded>  (811) 
[]

>  <LE>  (811) 
2.759221

>  <outcome>  (811) 
equally sized

>  <percent_hybrid>  (811) 
0.0

$$$$
LIG
     RDKit          3D

 29 30  0  0  0  0  0  0  0  0999 V2000
  -15.4535  -43.4098  -17.0925 C   0  0  0  0  0  0  0  0  0  0  0  0
  -15.1987  -44.2064  -22.7304 O   0  0  0  0  0  0  0  0  0  0  0  0
  -15.4023  -41.0047  -17.1997 O   0  0  0  0  0  0  0  0  0  0  0  0
  -14.0849  -42.0197  -15.6739 O   0  0  0  0  0  0  0  0  0  0  0  0
  -14.8998  -42.0988  -16.5824 C   0  0  0  0  0  0  0  0  0  0  0  0
  -14.2622  -43.4994  -23.5208 C   0  0  0  0  0  0  0  0  0  0  0  0
  -15.3500  -43.6163  -18.5870 C   0  0  0  0  0  0  0  0  0  0  0  0
  -14.2145  -43.2113  -19.3017 C   0  0  0  0  0  0  0  0  0  0  0  0
  -14.1370  -43.3908  -20.6857 C   0  0  0  0  0  0  0  0  0  0  0  0
  -15.1864  -43.9953  -21.3774 C   0  0  0  0  0  0  0  0  0  0  0  0
  -16.3029  -44.4793  -20.6642 C   0  0  0  0  0  0  0  0  0  0  0  0
  -16.3757  -44.2825  -19.2758 C   0  0  0  0  0  0  0  0  0  0  0  0
  -18.7621  -46.1462  -23.1288 C   0  0  0  0  0  0  0  0  0  0  0  0
  -18.5342  -47.0867  -22.1494 C   0  0  0  0  0  0  0  0  0  0  0  0
  -17.7069  -46.5773  -21.1108 C   0  0  0  0  0  0  0  0  0  0  0  0
  -17.3344  -45.2676  -21.3461 C   0  0  0  0  0  0  0  0  0  0  0  0
  -18.2044  -44.6034  -22.6702 S   0  0  0  0  0  0  0  0  0  0  0  0
  -14.9183  -44.2270  -16.5953 H   0  0  0  0  0  0  0  0  0  0  0  0
  -16.5002  -43.4519  -16.7708 H   0  0  0  0  0  0  0  0  0  0  0  0
  -16.0264  -41.2160  -17.9219 H   0  0  0  0  0  0  0  0  0  0  0  0
  -14.2312  -42.4359  -23.2634 H   0  0  0  0  0  0  0  0  0  0  0  0
  -13.2815  -43.9722  -23.4346 H   0  0  0  0  0  0  0  0  0  0  0  0
  -14.5812  -43.5731  -24.5636 H   0  0  0  0  0  0  0  0  0  0  0  0
  -13.3657  -42.7479  -18.7975 H   0  0  0  0  0  0  0  0  0  0  0  0
  -13.2271  -43.0818  -21.1946 H   0  0  0  0  0  0  0  0  0  0  0  0
  -17.2466  -44.6504  -18.7370 H   0  0  0  0  0  0  0  0  0  0  0  0
  -19.2706  -46.2823  -24.0739 H   0  0  0  0  0  0  0  0  0  0  0  0
  -18.8708  -48.1134  -22.2217 H   0  0  0  0  0  0  0  0  0  0  0  0
  -17.3122  -47.1816  -20.3041 H   0  0  0  0  0  0  0  0  0  0  0  0
  2  6  1  0
  4  5  2  0
  1  5  1  0
  5  3  1  0
  7 12  2  0
  7  1  1  0
  7  8  1  0
  8  9  2  0
  9 10  1  0
 10 11  2  0
 10  2  1  0
 11 16  1  0
 11 12  1  0
 13 14  2  0
 13 17  1  0
 14 15  1  0
 15 16  2  0
 16 17  1  0
  1 18  1  0
  1 19  1  0
  3 20  1  0
  6 21  1  0
  6 22  1  0
  6 23  1  0
  8 24  1  0
  9 25  1  0
 12 26  1  0
 13 27  1  0
 14 28  1  0
 15 29  1  0
M  END
>  <smiles>  (812) 
[H]OC(=O)C([H])([H])c1c([H])c([H])c(OC([H])([H])[H])c(-c2sc([H])c([H])c2[H])c1[H]

>  <error>  (812) 


>  <∆∆G>  (812) 
-46.90676

>  <∆G_bound>  (812) 
-62.693912

>  <∆G_unbound>  (812) 
-15.787152

>  <comRMSD>  (812) 
1.125184

>  <N_constrained_atoms>  (812) 
17.0

>  <N_unconstrained_atoms>  (812) 
0.0

>  <runtime>  (812) 
1.052098

>  <regarded>  (812) 
['5f3z-a', '5f3t-a']

>  <disregarded>  (812) 
[]

>  <LE>  (812) 
2.759221

>  <outcome>  (812) 
equally sized

>  <percent_hybrid>  (812) 
0.0

$$$$

     RDKit          2D

  0  0  0  0  0  0  0  0  0  0999 V2000
M  END
>  <smiles>  (813) 
nan

>  <error>  (813) 
DistanceError 5.53 Å

>  <∆∆G>  (813) 
nan

>  <∆G_bound>  (813) 
nan

>  <∆G_unbound>  (813) 
nan

>  <comRMSD>  (813) 
nan

>  <N_constrained_atoms>  (813) 
nan

>  <N_unconstrained_atoms>  (813) 
nan

>  <runtime>  (813) 
nan

>  <regarded>  (813) 
[]

>  <disregarded>  (813) 
[]

>  <LE>  (813) 
nan

>  <outcome>  (813) 
too distant

>  <percent_hybrid>  (813) 
nan

$$$$
LIG
     RDKit          3D

 45 48  0  0  0  0  0  0  0  0999 V2000
  -15.6299  -43.4923  -16.8030 C   0  0  0  0  0  0  0  0  0  0  0  0
  -15.2819  -43.8382  -22.4430 O   0  0  0  0  0  0  0  0  0  0  0  0
  -15.5259  -41.0916  -16.9570 O   0  0  0  0  0  0  0  0  0  0  0  0
  -14.2107  -42.1051  -15.4277 O   0  0  0  0  0  0  0  0  0  0  0  0
  -15.0442  -42.1836  -16.3191 C   0  0  0  0  0  0  0  0  0  0  0  0
  -14.2460  -43.1227  -23.1198 C   0  0  0  0  0  0  0  0  0  0  0  0
  -15.4675  -43.7440  -18.2830 C   0  0  0  0  0  0  0  0  0  0  0  0
  -14.2580  -43.4535  -18.9163 C   0  0  0  0  0  0  0  0  0  0  0  0
  -14.1443  -43.5634  -20.2989 C   0  0  0  0  0  0  0  0  0  0  0  0
  -15.2392  -43.9331  -21.0780 C   0  0  0  0  0  0  0  0  0  0  0  0
  -16.3879  -44.4364  -20.4400 C   0  0  0  0  0  0  0  0  0  0  0  0
  -16.5014  -44.3145  -19.0434 C   0  0  0  0  0  0  0  0  0  0  0  0
  -18.7410  -46.1004  -23.0307 C   0  0  0  0  0  0  0  0  0  0  0  0
  -18.4963  -47.0611  -22.0767 C   0  0  0  0  0  0  0  0  0  0  0  0
  -17.7059  -46.5517  -21.0101 C   0  0  0  0  0  0  0  0  0  0  0  0
  -17.3791  -45.2193  -21.1912 C   0  0  0  0  0  0  0  0  0  0  0  0
  -18.2303  -44.5569  -22.5230 S   0  0  0  0  0  0  0  0  0  0  0  0
  -14.2438  -41.6198  -22.9356 C   0  0  0  0  0  0  0  0  0  0  0  0
  -13.5468  -40.8792  -21.9949 C   0  0  0  0  0  0  0  0  0  0  0  0
  -13.7298  -39.5695  -22.3030 N   0  0  0  0  0  0  0  0  0  0  0  0
  -14.4666  -39.3801  -23.4002 N   0  0  0  0  0  0  0  0  0  0  0  0
  -14.8216  -40.6192  -23.7862 C   0  0  0  0  0  0  0  0  0  0  0  0
  -16.7522  -41.6889  -24.8847 C   0  0  0  0  0  0  0  0  0  0  0  0
  -15.6778  -40.8077  -24.9500 C   0  0  0  0  0  0  0  0  0  0  0  0
  -15.4669  -40.0837  -26.1234 C   0  0  0  0  0  0  0  0  0  0  0  0
  -16.3339  -40.2855  -27.1837 C   0  0  0  0  0  0  0  0  0  0  0  0
  -17.3833  -41.1368  -27.1477 N   0  0  0  0  0  0  0  0  0  0  0  0
  -17.5670  -41.8113  -25.9917 C   0  0  0  0  0  0  0  0  0  0  0  0
  -15.1422  -44.3072  -16.2572 H   0  0  0  0  0  0  0  0  0  0  0  0
  -16.6898  -43.4757  -16.5306 H   0  0  0  0  0  0  0  0  0  0  0  0
  -16.1671  -41.3043  -17.6637 H   0  0  0  0  0  0  0  0  0  0  0  0
  -13.2844  -43.5739  -22.8624 H   0  0  0  0  0  0  0  0  0  0  0  0
  -14.3728  -43.3404  -24.1871 H   0  0  0  0  0  0  0  0  0  0  0  0
  -13.3921  -43.1032  -18.3540 H   0  0  0  0  0  0  0  0  0  0  0  0
  -13.1766  -43.3420  -20.7396 H   0  0  0  0  0  0  0  0  0  0  0  0
  -17.4161  -44.6500  -18.5590 H   0  0  0  0  0  0  0  0  0  0  0  0
  -19.2391  -46.2277  -23.9816 H   0  0  0  0  0  0  0  0  0  0  0  0
  -18.8006  -48.0956  -22.1802 H   0  0  0  0  0  0  0  0  0  0  0  0
  -17.3084  -47.1651  -20.2112 H   0  0  0  0  0  0  0  0  0  0  0  0
  -12.9096  -41.1594  -21.1693 H   0  0  0  0  0  0  0  0  0  0  0  0
  -16.9725  -42.2447  -23.9824 H   0  0  0  0  0  0  0  0  0  0  0  0
  -14.6481  -39.3767  -26.2083 H   0  0  0  0  0  0  0  0  0  0  0  0
  -16.2103  -39.7473  -28.1182 H   0  0  0  0  0  0  0  0  0  0  0  0
  -18.4290  -42.4681  -25.9628 H   0  0  0  0  0  0  0  0  0  0  0  0
  -13.3629  -38.7569  -21.8180 H   0  0  0  0  0  0  0  0  0  0  0  0
  2  6  1  0
  4  5  2  0
  1  5  1  0
  5  3  1  0
  7 12  2  0
  7  1  1  0
  7  8  1  0
  8  9  2  0
  9 10  1  0
 10 11  2  0
 10  2  1  0
 11 16  1  0
 11 12  1  0
 13 14  2  0
 13 17  1  0
 14 15  1  0
 15 16  2  0
 16 17  1  0
 18 19  2  0
 18 22  1  0
 19 20  1  0
 20 21  1  0
 21 22  2  0
 22 24  1  0
 23 28  2  0
 23 24  1  0
 24 25  2  0
 25 26  1  0
 26 27  2  0
 27 28  1  0
  6 18  1  0
  1 29  1  0
  1 30  1  0
  3 31  1  0
  6 32  1  0
  6 33  1  0
  8 34  1  0
  9 35  1  0
 12 36  1  0
 13 37  1  0
 14 38  1  0
 15 39  1  0
 19 40  1  0
 23 41  1  0
 25 42  1  0
 26 43  1  0
 28 44  1  0
 20 45  1  0
M  END
>  <smiles>  (814) 
[H]OC(=O)C([H])([H])c1c([H])c([H])c(OC([H])([H])c2c(-c3c([H])c([H])nc([H])c3[H])n[nH]c2[H])c(-c2sc([H])c([H])c2[H])c1[H]

>  <error>  (814) 


>  <∆∆G>  (814) 
-46.030213

>  <∆G_bound>  (814) 
141.382878

>  <∆G_unbound>  (814) 
187.413091

>  <comRMSD>  (814) 
0.893956

>  <N_constrained_atoms>  (814) 
28.0

>  <N_unconstrained_atoms>  (814) 
0.0

>  <runtime>  (814) 
1.747462

>  <regarded>  (814) 
['6h9r-a', 'd0160a']

>  <disregarded>  (814) 
[]

>  <LE>  (814) 
1.643936

>  <outcome>  (814) 
acceptable

>  <percent_hybrid>  (814) 
40.0

$$$$
LIG
     RDKit          3D

 46 49  0  0  0  0  0  0  0  0999 V2000
  -15.3268  -43.2531  -17.2333 C   0  0  0  0  0  0  0  0  0  0  0  0
  -15.1678  -43.9081  -22.8966 O   0  0  0  0  0  0  0  0  0  0  0  0
  -15.7046  -40.8739  -17.3587 O   0  0  0  0  0  0  0  0  0  0  0  0
  -14.2468  -41.6306  -15.8128 O   0  0  0  0  0  0  0  0  0  0  0  0
  -15.0199  -41.8588  -16.7326 C   0  0  0  0  0  0  0  0  0  0  0  0
  -15.1393  -39.7926  -25.6137 C   0  0  0  0  0  0  0  0  0  0  0  0
  -15.2895  -43.4176  -18.7361 C   0  0  0  0  0  0  0  0  0  0  0  0
  -14.2397  -42.8829  -19.4957 C   0  0  0  0  0  0  0  0  0  0  0  0
  -14.2260  -43.0130  -20.8872 C   0  0  0  0  0  0  0  0  0  0  0  0
  -15.2561  -43.6880  -21.5412 C   0  0  0  0  0  0  0  0  0  0  0  0
  -16.2723  -44.3169  -20.7909 C   0  0  0  0  0  0  0  0  0  0  0  0
  -16.2837  -44.1593  -19.3920 C   0  0  0  0  0  0  0  0  0  0  0  0
  -18.7255  -46.2915  -23.0377 C   0  0  0  0  0  0  0  0  0  0  0  0
  -18.3747  -47.1627  -22.0335 C   0  0  0  0  0  0  0  0  0  0  0  0
  -17.5054  -46.5483  -21.0899 C   0  0  0  0  0  0  0  0  0  0  0  0
  -17.2486  -45.2249  -21.4031 C   0  0  0  0  0  0  0  0  0  0  0  0
  -18.2744  -44.6921  -22.6672 S   0  0  0  0  0  0  0  0  0  0  0  0
  -15.0260  -41.6349  -23.8691 C   0  0  0  0  0  0  0  0  0  0  0  0
  -15.4367  -42.9507  -23.8188 C   0  0  0  0  0  0  0  0  0  0  0  0
  -16.1547  -43.2053  -25.0065 C   0  0  0  0  0  0  0  0  0  0  0  0
  -16.1651  -42.0607  -25.7617 C   0  0  0  0  0  0  0  0  0  0  0  0
  -15.4554  -41.1115  -25.0743 N   0  0  0  0  0  0  0  0  0  0  0  0
  -17.1443  -38.7143  -26.7294 C   0  0  0  0  0  0  0  0  0  0  0  0
  -16.3435  -38.8904  -25.6008 C   0  0  0  0  0  0  0  0  0  0  0  0
  -16.7150  -38.2064  -24.4405 C   0  0  0  0  0  0  0  0  0  0  0  0
  -17.8379  -37.3862  -24.4518 C   0  0  0  0  0  0  0  0  0  0  0  0
  -18.5690  -37.2863  -25.6244 C   0  0  0  0  0  0  0  0  0  0  0  0
  -18.2560  -37.9342  -26.7682 N   0  0  0  0  0  0  0  0  0  0  0  0
  -14.6011  -43.9473  -16.7940 H   0  0  0  0  0  0  0  0  0  0  0  0
  -16.3154  -43.5155  -16.8409 H   0  0  0  0  0  0  0  0  0  0  0  0
  -16.2782  -41.1943  -18.0821 H   0  0  0  0  0  0  0  0  0  0  0  0
  -14.3308  -39.3708  -25.0078 H   0  0  0  0  0  0  0  0  0  0  0  0
  -14.7515  -39.9343  -26.6291 H   0  0  0  0  0  0  0  0  0  0  0  0
  -13.4097  -42.3603  -19.0190 H   0  0  0  0  0  0  0  0  0  0  0  0
  -13.3824  -42.6284  -21.4565 H   0  0  0  0  0  0  0  0  0  0  0  0
  -17.0781  -44.6292  -18.8148 H   0  0  0  0  0  0  0  0  0  0  0  0
  -19.2752  -46.5135  -23.9411 H   0  0  0  0  0  0  0  0  0  0  0  0
  -18.6431  -48.2113  -22.0357 H   0  0  0  0  0  0  0  0  0  0  0  0
  -17.0191  -47.0836  -20.2838 H   0  0  0  0  0  0  0  0  0  0  0  0
  -14.4279  -41.0450  -23.1899 H   0  0  0  0  0  0  0  0  0  0  0  0
  -16.6040  -44.1369  -25.2916 H   0  0  0  0  0  0  0  0  0  0  0  0
  -16.5796  -41.8621  -26.7396 H   0  0  0  0  0  0  0  0  0  0  0  0
  -16.9073  -39.2084  -27.6696 H   0  0  0  0  0  0  0  0  0  0  0  0
  -16.1359  -38.3117  -23.5263 H   0  0  0  0  0  0  0  0  0  0  0  0
  -18.1419  -36.8446  -23.5628 H   0  0  0  0  0  0  0  0  0  0  0  0
  -19.4568  -36.6621  -25.6708 H   0  0  0  0  0  0  0  0  0  0  0  0
  4  5  2  0
  1  5  1  0
  5  3  1  0
  7 12  2  0
  7  1  1  0
  7  8  1  0
  8  9  2  0
  9 10  1  0
 10 11  2  0
 10  2  1  0
 11 16  1  0
 11 12  1  0
 13 14  2  0
 13 17  1  0
 14 15  1  0
 15 16  2  0
 16 17  1  0
 18 19  2  0
 18 22  1  0
 19 20  1  0
 20 21  2  0
 21 22  1  0
 22  6  1  0
 23 28  2  0
 23 24  1  0
 24  6  1  0
 24 25  2  0
 25 26  1  0
 26 27  2  0
 27 28  1  0
 19  2  1  0
  1 29  1  0
  1 30  1  0
  3 31  1  0
  6 32  1  0
  6 33  1  0
  8 34  1  0
  9 35  1  0
 12 36  1  0
 13 37  1  0
 14 38  1  0
 15 39  1  0
 18 40  1  0
 20 41  1  0
 21 42  1  0
 23 43  1  0
 25 44  1  0
 26 45  1  0
 27 46  1  0
M  END
>  <smiles>  (815) 
[H]OC(=O)C([H])([H])c1c([H])c([H])c(Oc2c([H])c([H])n(C([H])([H])c3c([H])nc([H])c([H])c3[H])c2[H])c(-c2sc([H])c([H])c2[H])c1[H]

>  <error>  (815) 


>  <∆∆G>  (815) 
-124.923482

>  <∆G_bound>  (815) 
185.986152

>  <∆G_unbound>  (815) 
310.909633

>  <comRMSD>  (815) 
0.975911

>  <N_constrained_atoms>  (815) 
28.0

>  <N_unconstrained_atoms>  (815) 
0.0

>  <runtime>  (815) 
2.772705

>  <regarded>  (815) 
['6h9r-a', 'd0191a']

>  <disregarded>  (815) 
[]

>  <LE>  (815) 
4.461553

>  <outcome>  (815) 
acceptable

>  <percent_hybrid>  (815) 
43.0

$$$$
LIG
     RDKit          3D

 49 51  0  0  0  0  0  0  0  0999 V2000
  -15.2698  -43.8486  -17.2834 C   0  0  0  0  0  0  0  0  0  0  0  0
  -16.6792  -43.6370  -22.7969 C   0  0  0  0  0  0  0  0  0  0  0  0
  -13.9236  -41.8503  -17.2032 O   0  0  0  0  0  0  0  0  0  0  0  0
  -13.0142  -43.7751  -16.4358 O   0  0  0  0  0  0  0  0  0  0  0  0
  -13.9582  -43.1714  -16.9303 C   0  0  0  0  0  0  0  0  0  0  0  0
  -15.0683  -39.8126  -26.6284 C   0  0  0  0  0  0  0  0  0  0  0  0
  -15.6674  -43.8784  -18.7446 C   0  0  0  0  0  0  0  0  0  0  0  0
  -14.5981  -43.6915  -19.7447 C   0  0  0  0  0  0  0  0  0  0  0  0
  -14.8446  -43.6113  -21.0648 C   0  0  0  0  0  0  0  0  0  0  0  0
  -16.2009  -43.7851  -21.5474 C   0  0  0  0  0  0  0  0  0  0  0  0
  -17.2635  -44.0235  -20.5752 C   0  0  0  0  0  0  0  0  0  0  0  0
  -16.9561  -44.0696  -19.1517 C   0  0  0  0  0  0  0  0  0  0  0  0
  -18.2328  -45.8929  -23.1216 C   0  0  0  0  0  0  0  0  0  0  0  0
  -18.6978  -46.8628  -22.0477 C   0  0  0  0  0  0  0  0  0  0  0  0
  -17.5447  -47.3574  -21.1887 C   0  0  0  0  0  0  0  0  0  0  0  0
  -18.4966  -44.0898  -21.1045 C   0  0  0  0  0  0  0  0  0  0  0  0
  -18.4516  -44.0936  -22.8647 S   0  0  0  0  0  0  0  0  0  0  0  0
  -18.1511  -44.2999  -18.2657 C   0  0  0  0  0  0  0  0  0  0  0  0
  -18.7290  -45.7072  -18.3805 C   0  0  0  0  0  0  0  0  0  0  0  0
  -16.5695  -42.9526  -25.1729 C   0  0  0  0  0  0  0  0  0  0  0  0
  -16.0792  -42.8591  -23.8798 C   0  0  0  0  0  0  0  0  0  0  0  0
  -15.2214  -41.8822  -23.4978 N   0  0  0  0  0  0  0  0  0  0  0  0
  -14.9003  -40.9447  -24.4073 C   0  0  0  0  0  0  0  0  0  0  0  0
  -15.3964  -40.9279  -25.6990 C   0  0  0  0  0  0  0  0  0  0  0  0
  -16.2185  -41.9774  -26.0924 C   0  0  0  0  0  0  0  0  0  0  0  0
  -15.1890  -44.8842  -16.9341 H   0  0  0  0  0  0  0  0  0  0  0  0
  -16.0253  -43.3531  -16.6647 H   0  0  0  0  0  0  0  0  0  0  0  0
  -14.7198  -41.5257  -17.6702 H   0  0  0  0  0  0  0  0  0  0  0  0
  -15.4093  -38.8597  -26.2125 H   0  0  0  0  0  0  0  0  0  0  0  0
  -13.9914  -39.7656  -26.8103 H   0  0  0  0  0  0  0  0  0  0  0  0
  -15.5719  -39.9504  -27.5905 H   0  0  0  0  0  0  0  0  0  0  0  0
  -13.5602  -43.6094  -19.4262 H   0  0  0  0  0  0  0  0  0  0  0  0
  -14.0352  -43.4649  -21.7761 H   0  0  0  0  0  0  0  0  0  0  0  0
  -17.1689  -46.0496  -23.2688 H   0  0  0  0  0  0  0  0  0  0  0  0
  -18.7635  -46.1081  -24.0546 H   0  0  0  0  0  0  0  0  0  0  0  0
  -19.4889  -46.4451  -21.4246 H   0  0  0  0  0  0  0  0  0  0  0  0
  -19.1208  -47.7491  -22.5355 H   0  0  0  0  0  0  0  0  0  0  0  0
  -17.9035  -47.6245  -20.2031 H   0  0  0  0  0  0  0  0  0  0  0  0
  -16.7399  -46.6324  -21.0649 H   0  0  0  0  0  0  0  0  0  0  0  0
  -17.1083  -48.2654  -21.6117 H   0  0  0  0  0  0  0  0  0  0  0  0
  -19.4233  -44.1507  -20.5533 H   0  0  0  0  0  0  0  0  0  0  0  0
  -18.9351  -43.5577  -18.4630 H   0  0  0  0  0  0  0  0  0  0  0  0
  -17.8599  -44.0900  -17.2427 H   0  0  0  0  0  0  0  0  0  0  0  0
  -17.9345  -46.4522  -18.2952 H   0  0  0  0  0  0  0  0  0  0  0  0
  -19.4547  -45.9005  -17.5859 H   0  0  0  0  0  0  0  0  0  0  0  0
  -19.2689  -45.8819  -19.3084 H   0  0  0  0  0  0  0  0  0  0  0  0
  -17.2645  -43.7285  -25.4551 H   0  0  0  0  0  0  0  0  0  0  0  0
  -14.2336  -40.1662  -24.0494 H   0  0  0  0  0  0  0  0  0  0  0  0
  -16.5994  -42.0258  -27.1055 H   0  0  0  0  0  0  0  0  0  0  0  0
  4  5  2  0
  1  5  1  0
  5  3  1  0
  7 12  2  0
  7  1  1  0
  7  8  1  0
  8  9  2  0
  9 10  1  0
 10 11  1  0
 10  2  4  0
 11 16  4  0
 11 12  1  0
 13 14  1  0
 13 17  1  0
 14 15  1  0
 16 17  1  0
 18 19  1  0
 20 25  2  0
 20 21  1  0
 21 22  2  0
 22 23  1  0
 23 24  2  0
 24  6  1  0
 24 25  1  0
 12 18  1  0
 17  2  4  0
  2 21  1  0
  1 26  1  0
  1 27  1  0
  3 28  1  0
  6 29  1  0
  6 30  1  0
  6 31  1  0
  8 32  1  0
  9 33  1  0
 13 34  1  0
 13 35  1  0
 14 36  1  0
 14 37  1  0
 15 38  1  0
 15 39  1  0
 15 40  1  0
 16 41  1  0
 18 42  1  0
 18 43  1  0
 19 44  1  0
 19 45  1  0
 19 46  1  0
 20 47  1  0
 23 48  1  0
 25 49  1  0
M  END
>  <smiles>  (816) 
[H]OC(=O)C([H])([H])c1c([H])c([H])c2:C(c3nc([H])c(C([H])([H])[H])c([H])c3[H]):S(C([H])([H])C([H])([H])C([H])([H])[H])C([H]):c2c1C([H])([H])C([H])([H])[H]

>  <error>  (816) 


>  <∆∆G>  (816) 
-83.41685

>  <∆G_bound>  (816) 
162.281987

>  <∆G_unbound>  (816) 
245.698837

>  <comRMSD>  (816) 
1.410381

>  <N_constrained_atoms>  (816) 
25.0

>  <N_unconstrained_atoms>  (816) 
0.0

>  <runtime>  (816) 
3.908119

>  <regarded>  (816) 
['6h9r-a', 'd0254a']

>  <disregarded>  (816) 
[]

>  <LE>  (816) 
3.336674

>  <outcome>  (816) 
too moved

>  <percent_hybrid>  (816) 
36.0

$$$$
LIG
     RDKit          3D

 62 64  0  0  0  0  0  0  0  0999 V2000
  -14.7686  -43.2365  -16.8308 C   0  0  0  0  0  0  0  0  0  0  0  0
  -14.7722  -43.9171  -22.4661 O   0  0  0  0  0  0  0  0  0  0  0  0
  -15.6036  -40.9728  -17.0726 O   0  0  0  0  0  0  0  0  0  0  0  0
  -14.2630  -41.4267  -15.3225 O   0  0  0  0  0  0  0  0  0  0  0  0
  -14.8279  -41.8043  -16.3403 C   0  0  0  0  0  0  0  0  0  0  0  0
  -14.9483  -42.7282  -23.2315 C   0  0  0  0  0  0  0  0  0  0  0  0
  -23.1558  -46.4813  -18.3446 O   0  0  0  0  0  0  0  0  0  0  0  0
  -22.4457  -46.2367  -17.4544 C   0  0  0  0  0  0  0  0  0  0  0  0
  -22.3877  -47.0839  -16.1859 C   0  0  0  0  0  0  0  0  0  0  0  0
  -23.2001  -46.4076  -15.0904 C   0  0  0  0  0  0  0  0  0  0  0  0
  -22.9241  -48.4808  -16.4766 C   0  0  0  0  0  0  0  0  0  0  0  0
  -21.3826  -45.1275  -17.2979 N   0  0  0  0  0  0  0  0  0  0  0  0
  -21.0357  -44.0193  -18.1771 C   0  0  1  0  0  0  0  0  0  0  0  0
  -21.4770  -42.7329  -17.4804 C   0  0  0  0  0  0  0  0  0  0  0  0
  -19.9565  -42.1044  -20.3256 C   0  0  0  0  0  0  0  0  0  0  0  0
  -14.7938  -43.4113  -18.3332 C   0  0  0  0  0  0  0  0  0  0  0  0
  -13.8447  -42.7814  -19.1302 C   0  0  0  0  0  0  0  0  0  0  0  0
  -13.8826  -42.9464  -20.5082 C   0  0  0  0  0  0  0  0  0  0  0  0
  -14.8820  -43.7167  -21.1174 C   0  0  0  0  0  0  0  0  0  0  0  0
  -15.8511  -44.3966  -20.3516 C   0  0  0  0  0  0  0  0  0  0  0  0
  -15.7425  -44.2441  -18.9492 C   0  0  0  0  0  0  0  0  0  0  0  0
  -18.5953  -46.4319  -22.7060 C   0  0  0  0  0  0  0  0  0  0  0  0
  -18.8698  -46.6912  -21.2352 C   0  0  0  0  0  0  0  0  0  0  0  0
  -18.3722  -45.4603  -20.4660 C   0  0  2  0  0  0  0  0  0  0  0  0
  -16.8540  -45.4114  -20.9041 C   0  0  1  0  0  0  0  0  0  0  0  0
  -17.1214  -45.3943  -22.7091 S   0  0  0  0  0  0  0  0  0  0  0  0
  -19.5276  -43.9682  -18.5355 C   0  0  1  0  0  0  0  0  0  0  0  0
  -18.7598  -45.6490  -18.6923 S   0  0  0  0  0  0  0  0  0  0  0  0
  -19.1827  -44.3016  -20.8990 N   0  0  0  0  0  0  0  0  0  0  0  0
  -19.1303  -43.2882  -19.8613 C   0  0  1  0  0  0  0  0  0  0  0  0
  -13.8455  -43.6911  -16.4521 H   0  0  0  0  0  0  0  0  0  0  0  0
  -15.6107  -43.7609  -16.3685 H   0  0  0  0  0  0  0  0  0  0  0  0
  -15.9811  -41.3860  -17.8725 H   0  0  0  0  0  0  0  0  0  0  0  0
  -14.1342  -42.0159  -23.0751 H   0  0  0  0  0  0  0  0  0  0  0  0
  -14.9530  -43.0070  -24.2897 H   0  0  0  0  0  0  0  0  0  0  0  0
  -15.9081  -42.2531  -22.9996 H   0  0  0  0  0  0  0  0  0  0  0  0
  -21.3439  -47.1820  -15.8686 H   0  0  0  0  0  0  0  0  0  0  0  0
  -23.1533  -46.9845  -14.1658 H   0  0  0  0  0  0  0  0  0  0  0  0
  -22.8232  -45.4023  -14.8749 H   0  0  0  0  0  0  0  0  0  0  0  0
  -24.2526  -46.3080  -15.3786 H   0  0  0  0  0  0  0  0  0  0  0  0
  -22.9422  -49.0844  -15.5683 H   0  0  0  0  0  0  0  0  0  0  0  0
  -23.9453  -48.4456  -16.8672 H   0  0  0  0  0  0  0  0  0  0  0  0
  -22.3052  -48.9921  -17.2202 H   0  0  0  0  0  0  0  0  0  0  0  0
  -21.0016  -45.1527  -16.3549 H   0  0  0  0  0  0  0  0  0  0  0  0
  -21.6317  -44.1604  -19.0859 H   0  0  0  0  0  0  0  0  0  0  0  0
  -20.9270  -42.5802  -16.5447 H   0  0  0  0  0  0  0  0  0  0  0  0
  -21.3405  -41.8449  -18.0980 H   0  0  0  0  0  0  0  0  0  0  0  0
  -22.5413  -42.7849  -17.2214 H   0  0  0  0  0  0  0  0  0  0  0  0
  -19.8364  -41.2623  -19.6364 H   0  0  0  0  0  0  0  0  0  0  0  0
  -19.6323  -41.7530  -21.3123 H   0  0  0  0  0  0  0  0  0  0  0  0
  -21.0131  -42.3480  -20.3886 H   0  0  0  0  0  0  0  0  0  0  0  0
  -13.0441  -42.1843  -18.6953 H   0  0  0  0  0  0  0  0  0  0  0  0
  -13.0832  -42.5191  -21.1105 H   0  0  0  0  0  0  0  0  0  0  0  0
  -16.3795  -44.8157  -18.2883 H   0  0  0  0  0  0  0  0  0  0  0  0
  -18.4775  -47.3574  -23.2710 H   0  0  0  0  0  0  0  0  0  0  0  0
  -19.3584  -45.8285  -23.1941 H   0  0  0  0  0  0  0  0  0  0  0  0
  -19.9189  -46.9019  -21.0439 H   0  0  0  0  0  0  0  0  0  0  0  0
  -18.3191  -47.5879  -20.9226 H   0  0  0  0  0  0  0  0  0  0  0  0
  -16.3930  -46.3857  -20.6839 H   0  0  0  0  0  0  0  0  0  0  0  0
  -18.9849  -43.4643  -17.7277 H   0  0  0  0  0  0  0  0  0  0  0  0
  -18.7849  -43.9474  -21.7735 H   0  0  0  0  0  0  0  0  0  0  0  0
  -18.1038  -42.9144  -19.7676 H   0  0  0  0  0  0  0  0  0  0  0  0
  2  6  1  0
  4  5  2  0
  1  5  1  0
  5  3  1  0
 11  9  1  0
 10  9  1  0
  9  8  1  0
  8  7  2  0
 12  8  1  0
 13 12  1  0
 13 14  1  0
 16 21  2  0
 16  1  1  0
 16 17  1  0
 17 18  2  0
 18 19  1  0
 19 20  2  0
 19  2  1  0
 20 25  1  0
 20 21  1  0
 22 23  1  0
 22 26  1  0
 23 24  1  0
 24 25  1  0
 25 26  1  0
 27 13  1  0
 27 28  1  0
 27 30  1  0
 29 30  1  0
 30 15  1  0
 24 28  1  6
 24 29  1  0
  1 31  1  0
  1 32  1  0
  3 33  1  0
  6 34  1  0
  6 35  1  0
  6 36  1  0
  9 37  1  0
 10 38  1  0
 10 39  1  0
 10 40  1  0
 11 41  1  0
 11 42  1  0
 11 43  1  0
 12 44  1  0
 13 45  1  6
 14 46  1  0
 14 47  1  0
 14 48  1  0
 15 49  1  0
 15 50  1  0
 15 51  1  0
 17 52  1  0
 18 53  1  0
 21 54  1  0
 22 55  1  0
 22 56  1  0
 23 57  1  0
 23 58  1  0
 25 59  1  6
 27 60  1  1
 29 61  1  0
 30 62  1  1
M  END
>  <smiles>  (817) 
[H]OC(=O)C([H])([H])c1c([H])c([H])c(OC([H])([H])[H])c([C@]2([H])SC([H])([H])C([H])([H])[C@]23S[C@]([H])([C@@]([H])(N([H])C(=O)C([H])(C([H])([H])[H])C([H])([H])[H])C([H])([H])[H])[C@]([H])(C([H])([H])[H])N3[H])c1[H]

>  <error>  (817) 


>  <∆∆G>  (817) 
-281.812189

>  <∆G_bound>  (817) 
130.949431

>  <∆G_unbound>  (817) 
412.76162

>  <comRMSD>  (817) 
1.198122

>  <N_constrained_atoms>  (817) 
30.0

>  <N_unconstrained_atoms>  (817) 
0.0

>  <runtime>  (817) 
66.253077

>  <regarded>  (817) 
['6h9r-a', 'd0264a']

>  <disregarded>  (817) 
[]

>  <LE>  (817) 
9.39374

>  <outcome>  (817) 
too moved

>  <percent_hybrid>  (817) 
44.0

$$$$
LIG
     RDKit          3D

 29 30  0  0  0  0  0  0  0  0999 V2000
  -15.5113  -43.4330  -17.0014 C   0  0  0  0  0  0  0  0  0  0  0  0
  -15.1639  -44.2986  -22.6206 O   0  0  0  0  0  0  0  0  0  0  0  0
  -15.4682  -41.0304  -17.1478 O   0  0  0  0  0  0  0  0  0  0  0  0
  -14.1457  -42.0150  -15.6065 O   0  0  0  0  0  0  0  0  0  0  0  0
  -14.9624  -42.1121  -16.5116 C   0  0  0  0  0  0  0  0  0  0  0  0
  -14.2663  -43.5327  -23.4018 C   0  0  0  0  0  0  0  0  0  0  0  0
  -15.3823  -43.6711  -18.4891 C   0  0  0  0  0  0  0  0  0  0  0  0
  -14.2303  -43.2830  -19.1869 C   0  0  0  0  0  0  0  0  0  0  0  0
  -14.1303  -43.4771  -20.5665 C   0  0  0  0  0  0  0  0  0  0  0  0
  -15.1746  -44.0774  -21.2692 C   0  0  0  0  0  0  0  0  0  0  0  0
  -16.3059  -44.5486  -20.5729 C   0  0  0  0  0  0  0  0  0  0  0  0
  -16.4008  -44.3396  -19.1880 C   0  0  0  0  0  0  0  0  0  0  0  0
  -18.7461  -46.1739  -23.0848 C   0  0  0  0  0  0  0  0  0  0  0  0
  -18.5250  -47.1308  -22.1199 C   0  0  0  0  0  0  0  0  0  0  0  0
  -17.7029  -46.6404  -21.0677 C   0  0  0  0  0  0  0  0  0  0  0  0
  -17.3324  -45.3258  -21.2747 C   0  0  0  0  0  0  0  0  0  0  0  0
  -18.1893  -44.6397  -22.5967 S   0  0  0  0  0  0  0  0  0  0  0  0
  -14.9864  -44.2399  -16.4774 H   0  0  0  0  0  0  0  0  0  0  0  0
  -16.5636  -43.4632  -16.6982 H   0  0  0  0  0  0  0  0  0  0  0  0
  -16.0925  -41.2567  -17.8653 H   0  0  0  0  0  0  0  0  0  0  0  0
  -14.2723  -42.4747  -23.1200 H   0  0  0  0  0  0  0  0  0  0  0  0
  -13.2669  -43.9671  -23.3342 H   0  0  0  0  0  0  0  0  0  0  0  0
  -14.5893  -43.5962  -24.4446 H   0  0  0  0  0  0  0  0  0  0  0  0
  -13.3884  -42.8177  -18.6731 H   0  0  0  0  0  0  0  0  0  0  0  0
  -13.2102  -43.1809  -21.0651 H   0  0  0  0  0  0  0  0  0  0  0  0
  -17.2854  -44.6928  -18.6623 H   0  0  0  0  0  0  0  0  0  0  0  0
  -19.2469  -46.2947  -24.0363 H   0  0  0  0  0  0  0  0  0  0  0  0
  -18.8616  -48.1555  -22.2133 H   0  0  0  0  0  0  0  0  0  0  0  0
  -17.3113  -47.2592  -20.2708 H   0  0  0  0  0  0  0  0  0  0  0  0
  2  6  1  0
  4  5  2  0
  1  5  1  0
  5  3  1  0
  7 12  2  0
  7  1  1  0
  7  8  1  0
  8  9  2  0
  9 10  1  0
 10 11  2  0
 10  2  1  0
 11 16  1  0
 11 12  1  0
 13 14  2  0
 13 17  1  0
 14 15  1  0
 15 16  2  0
 16 17  1  0
  1 18  1  0
  1 19  1  0
  3 20  1  0
  6 21  1  0
  6 22  1  0
  6 23  1  0
  8 24  1  0
  9 25  1  0
 12 26  1  0
 13 27  1  0
 14 28  1  0
 15 29  1  0
M  END
>  <smiles>  (818) 
[H]OC(=O)C([H])([H])c1c([H])c([H])c(OC([H])([H])[H])c(-c2sc([H])c([H])c2[H])c1[H]

>  <error>  (818) 


>  <∆∆G>  (818) 
-46.882474

>  <∆G_bound>  (818) 
-40.63404

>  <∆G_unbound>  (818) 
6.248434

>  <comRMSD>  (818) 
1.129031

>  <N_constrained_atoms>  (818) 
17.0

>  <N_unconstrained_atoms>  (818) 
0.0

>  <runtime>  (818) 
1.170169

>  <regarded>  (818) 
['6h9r-a', 'd0472a']

>  <disregarded>  (818) 
[]

>  <LE>  (818) 
2.757793

>  <outcome>  (818) 
equally sized

>  <percent_hybrid>  (818) 
0.0

$$$$

     RDKit          2D

  0  0  0  0  0  0  0  0  0  0999 V2000
M  END
>  <smiles>  (819) 
nan

>  <error>  (819) 
FragmensteinError Ideal compound failed. Something is wrong with the SMILES

>  <∆∆G>  (819) 
nan

>  <∆G_bound>  (819) 
nan

>  <∆G_unbound>  (819) 
nan

>  <comRMSD>  (819) 
nan

>  <N_constrained_atoms>  (819) 
nan

>  <N_unconstrained_atoms>  (819) 
nan

>  <runtime>  (819) 
nan

>  <regarded>  (819) 
[]

>  <disregarded>  (819) 
[]

>  <LE>  (819) 
nan

>  <outcome>  (819) 
crashed

>  <percent_hybrid>  (819) 
nan

$$$$
LIG
     RDKit          3D

 61 64  0  0  0  0  0  0  0  0999 V2000
  -14.1633  -42.6812  -17.8633 C   0  0  0  0  0  0  0  0  0  0  0  0
  -15.1691  -42.9109  -15.7032 O   0  0  0  0  0  0  0  0  0  0  0  0
  -14.2211  -44.7364  -16.6260 O   0  0  0  0  0  0  0  0  0  0  0  0
  -14.5051  -43.5489  -16.6840 C   0  0  0  0  0  0  0  0  0  0  0  0
  -18.7612  -43.1776  -24.6365 F   0  0  0  0  0  0  0  0  0  0  0  0
  -15.3458  -40.7870  -24.2047 N   0  0  0  0  0  0  0  0  0  0  0  0
  -15.2764  -40.1243  -25.5186 C   0  0  0  0  0  0  0  0  0  0  0  0
  -18.9283  -36.3018  -24.9157 C   0  0  0  0  0  0  0  0  0  0  0  0
  -15.3101  -42.6061  -18.8769 C   0  0  1  0  0  0  0  0  0  0  0  0
  -15.0036  -41.5158  -19.9004 C   0  0  0  0  0  0  0  0  0  0  0  0
  -16.0836  -41.4057  -20.9825 C   0  0  0  0  0  0  0  0  0  0  0  0
  -16.3116  -42.7129  -21.8227 C   0  0  2  0  0  0  0  0  0  0  0  0
  -16.6369  -43.8053  -20.6997 C   0  0  2  0  0  0  0  0  0  0  0  0
  -15.5562  -43.9356  -19.5949 C   0  0  0  0  0  0  0  0  0  0  0  0
  -18.6167  -47.0692  -21.7626 C   0  0  0  0  0  0  0  0  0  0  0  0
  -17.3898  -47.4935  -21.3267 C   0  0  0  0  0  0  0  0  0  0  0  0
  -16.5462  -46.4099  -20.9726 C   0  0  0  0  0  0  0  0  0  0  0  0
  -17.1559  -45.1768  -21.1083 C   0  0  0  0  0  0  0  0  0  0  0  0
  -18.7980  -45.3907  -21.5817 S   0  0  0  0  0  0  0  0  0  0  0  0
  -17.5649  -43.2943  -23.9945 C   0  0  1  0  0  0  0  0  0  0  0  0
  -16.4614  -42.8741  -24.9467 C   0  0  0  0  0  0  0  0  0  0  0  0
  -15.2460  -42.2517  -24.2403 C   0  0  2  0  0  0  0  0  0  0  0  0
  -15.0518  -42.8544  -22.7877 C   0  0  2  0  0  0  0  0  0  0  0  0
  -17.5785  -42.4701  -22.7128 C   0  0  0  0  0  0  0  0  0  0  0  0
  -17.2461  -38.9546  -26.7598 C   0  0  0  0  0  0  0  0  0  0  0  0
  -18.2116  -37.9689  -26.6157 N   0  0  0  0  0  0  0  0  0  0  0  0
  -18.0692  -37.3990  -25.4365 C   0  0  0  0  0  0  0  0  0  0  0  0
  -16.7840  -37.9932  -24.4661 S   0  0  0  0  0  0  0  0  0  0  0  0
  -16.3983  -39.1429  -25.6830 C   0  0  0  0  0  0  0  0  0  0  0  0
  -14.5396  -44.2717  -22.9442 C   0  0  0  0  0  0  0  0  0  0  0  0
  -13.8972  -41.6849  -17.4892 H   0  0  0  0  0  0  0  0  0  0  0  0
  -13.2510  -43.0791  -18.3253 H   0  0  0  0  0  0  0  0  0  0  0  0
  -15.3798  -41.9759  -15.8851 H   0  0  0  0  0  0  0  0  0  0  0  0
  -14.6027  -40.4048  -23.6230 H   0  0  0  0  0  0  0  0  0  0  0  0
  -14.3215  -39.5928  -25.5995 H   0  0  0  0  0  0  0  0  0  0  0  0
  -15.2885  -40.8390  -26.3496 H   0  0  0  0  0  0  0  0  0  0  0  0
  -19.4428  -36.6101  -24.0001 H   0  0  0  0  0  0  0  0  0  0  0  0
  -18.3338  -35.4076  -24.7031 H   0  0  0  0  0  0  0  0  0  0  0  0
  -19.6894  -36.0310  -25.6547 H   0  0  0  0  0  0  0  0  0  0  0  0
  -16.2303  -42.3306  -18.3434 H   0  0  0  0  0  0  0  0  0  0  0  0
  -14.9356  -40.5480  -19.3870 H   0  0  0  0  0  0  0  0  0  0  0  0
  -14.0196  -41.6863  -20.3509 H   0  0  0  0  0  0  0  0  0  0  0  0
  -17.0273  -41.1205  -20.4959 H   0  0  0  0  0  0  0  0  0  0  0  0
  -15.8325  -40.5620  -21.6338 H   0  0  0  0  0  0  0  0  0  0  0  0
  -17.4980  -43.3801  -20.1529 H   0  0  0  0  0  0  0  0  0  0  0  0
  -14.6145  -44.3111  -20.0056 H   0  0  0  0  0  0  0  0  0  0  0  0
  -15.8815  -44.6735  -18.8498 H   0  0  0  0  0  0  0  0  0  0  0  0
  -19.4166  -47.7028  -22.1117 H   0  0  0  0  0  0  0  0  0  0  0  0
  -17.0996  -48.5375  -21.2928 H   0  0  0  0  0  0  0  0  0  0  0  0
  -15.5370  -46.5406  -20.6070 H   0  0  0  0  0  0  0  0  0  0  0  0
  -17.4469  -44.3554  -23.7808 H   0  0  0  0  0  0  0  0  0  0  0  0
  -16.1259  -43.7616  -25.4951 H   0  0  0  0  0  0  0  0  0  0  0  0
  -16.8809  -42.2237  -25.7219 H   0  0  0  0  0  0  0  0  0  0  0  0
  -14.3467  -42.4873  -24.8229 H   0  0  0  0  0  0  0  0  0  0  0  0
  -14.2070  -42.3083  -22.3517 H   0  0  0  0  0  0  0  0  0  0  0  0
  -17.6560  -41.4106  -22.9921 H   0  0  0  0  0  0  0  0  0  0  0  0
  -18.5030  -42.6414  -22.1519 H   0  0  0  0  0  0  0  0  0  0  0  0
  -17.2058  -39.5166  -27.6856 H   0  0  0  0  0  0  0  0  0  0  0  0
  -14.1804  -44.6775  -21.9999 H   0  0  0  0  0  0  0  0  0  0  0  0
  -15.3015  -44.9428  -23.3414 H   0  0  0  0  0  0  0  0  0  0  0  0
  -13.6798  -44.2904  -23.6226 H   0  0  0  0  0  0  0  0  0  0  0  0
  3  4  2  0
  1  4  1  0
  4  2  1  0
  7  6  1  0
  9 14  1  0
  9  1  1  0
  9 10  1  0
 10 11  1  0
 12 11  1  6
 12 13  1  0
 13 18  1  0
 13 14  1  0
 15 16  2  0
 15 19  1  0
 16 17  1  0
 17 18  2  0
 18 19  1  0
 20 24  1  0
 20  5  1  0
 20 21  1  0
 21 22  1  0
 22  6  1  0
 22 23  1  0
 25 26  1  0
 25 29  2  0
 26 27  2  0
 27  8  1  0
 27 28  1  0
 28 29  1  0
 29  7  1  0
 12 23  1  0
 12 24  1  0
 23 30  1  0
  1 31  1  0
  1 32  1  0
  2 33  1  0
  6 34  1  0
  7 35  1  0
  7 36  1  0
  8 37  1  0
  8 38  1  0
  8 39  1  0
  9 40  1  1
 10 41  1  0
 10 42  1  0
 11 43  1  0
 11 44  1  0
 13 45  1  1
 14 46  1  0
 14 47  1  0
 15 48  1  0
 16 49  1  0
 17 50  1  0
 20 51  1  1
 21 52  1  0
 21 53  1  0
 22 54  1  6
 23 55  1  1
 24 56  1  0
 24 57  1  0
 25 58  1  0
 30 59  1  0
 30 60  1  0
 30 61  1  0
M  END
>  <smiles>  (820) 
[H]OC(=O)C([H])([H])[C@@]1([H])C([H])([H])C([H])([H])[C@@]2(C([H])([H])[C@@]([H])(F)C([H])([H])[C@@]([H])(N([H])C([H])([H])c3sc(C([H])([H])[H])nc3[H])[C@]2([H])C([H])([H])[H])[C@@]([H])(c2sc([H])c([H])c2[H])C1([H])[H]

>  <error>  (820) 


>  <∆∆G>  (820) 
-112.104536

>  <∆G_bound>  (820) 
100.167758

>  <∆G_unbound>  (820) 
212.272294

>  <comRMSD>  (820) 
1.402672

>  <N_constrained_atoms>  (820) 
30.0

>  <N_unconstrained_atoms>  (820) 
0.0

>  <runtime>  (820) 
3.702799

>  <regarded>  (820) 
['6h9r-a', 'd0615b']

>  <disregarded>  (820) 
[]

>  <LE>  (820) 
3.736818

>  <outcome>  (820) 
too moved

>  <percent_hybrid>  (820) 
47.0

$$$$
LIG
     RDKit          3D

  0  0  0  0  0  0  0  0  0  0999 V3000
M  V30 BEGIN CTAB
M  V30 COUNTS 59 61 0 0 0
M  V30 BEGIN ATOM
M  V30 1 C -15.252000 -44.404999 -17.011999 0
M  V30 2 O -15.579000 -43.901001 -22.724001 0
M  V30 3 O -16.296000 -42.285999 -17.075001 0
M  V30 4 O -17.195999 -43.696999 -15.687000 0
M  V30 5 C -16.305000 -43.417999 -16.535000 0
M  V30 6 C -14.680000 -43.063000 -23.400999 0
M  V30 7 C -15.307000 -44.250999 -18.534000 0
M  V30 8 C -14.393000 -43.445000 -19.209999 0
M  V30 9 C -14.463000 -43.299999 -20.600000 0
M  V30 10 C -15.472000 -43.971001 -21.318001 0
M  V30 11 C -16.393000 -44.764000 -20.646999 0
M  V30 12 C -16.316000 -44.900002 -19.266001 0
M  V30 13 C -19.268999 -46.298000 -23.153999 0
M  V30 14 C -19.041000 -47.146000 -22.066999 0
M  V30 15 C -18.048000 -46.724998 -21.127001 0
M  V30 16 C -17.474001 -45.493999 -21.451000 0
M  V30 17 S -18.218000 -44.983002 -22.896000 0
M  V30 18 O -19.445000 -40.158001 -24.528000 0
M  V30 19 S -18.933001 -39.846001 -25.825001 0
M  V30 20 O -18.877001 -38.480999 -26.240999 0
M  V30 21 C -19.827000 -40.765999 -27.018000 0
M  V30 22 C -16.511999 -41.500999 -27.914000 0
M  V30 23 C -15.906000 -38.516998 -25.243999 0
M  V30 24 O -16.229000 -38.262001 -26.598000 0
M  V30 25 N -17.393000 -40.395000 -25.853001 0
M  V30 26 C -17.198999 -41.683998 -26.573000 0 CFG=2
M  V30 27 C -16.566000 -42.779999 -25.714001 0
M  V30 28 C -15.991000 -42.259998 -24.402000 0 CFG=2
M  V30 29 C -15.366000 -40.882000 -24.551001 0
M  V30 30 C -16.459999 -39.863998 -24.820000 0 CFG=1
M  V30 31 N -15.335501 -42.661499 -23.901501 0
M  V30 32 H -14.257314 -44.141945 -16.622892 0
M  V30 33 H -15.434840 -45.434952 -16.671757 0
M  V30 34 H -15.599265 -42.060955 -17.741346 0
M  V30 35 H -14.153175 -42.363773 -22.735010 0
M  V30 36 H -13.830836 -43.524338 -23.926439 0
M  V30 37 H -13.609434 -42.918015 -18.645807 0
M  V30 38 H -13.735208 -42.666489 -21.128189 0
M  V30 39 H -17.053814 -45.523232 -18.739487 0
M  V30 40 H -19.969831 -46.446461 -23.988741 0
M  V30 41 H -19.595686 -48.087475 -21.940722 0
M  V30 42 H -17.765636 -47.310997 -20.239941 0
M  V30 43 H -20.506313 -41.465069 -26.508259 0
M  V30 44 H -20.412142 -40.079388 -27.647423 0
M  V30 45 H -19.123901 -41.331223 -27.647423 0
M  V30 46 H -15.460629 -41.220943 -27.752167 0
M  V30 47 H -16.557558 -42.442596 -28.480846 0
M  V30 48 H -17.019920 -40.706833 -28.480846 0
M  V30 49 H -14.812429 -38.519810 -25.125275 0
M  V30 50 H -16.349152 -37.731411 -24.614344 0
M  V30 51 H -17.005259 -37.649174 -26.642309 0
M  V30 52 H -18.210634 -42.054550 -26.795010 0
M  V30 53 H -16.529486 -43.837841 -26.013391 0
M  V30 54 H -15.597886 -42.607105 -26.206812 0
M  V30 55 H -16.943407 -42.422115 -23.876036 0
M  V30 56 H -14.291663 -40.658054 -24.475843 0
M  V30 57 H -15.255508 -41.049068 -25.632610 0
M  V30 58 H -17.003857 -39.699589 -23.878094 0
M  V30 59 H -14.255500 -41.581497 -22.821499 0
M  V30 END ATOM
M  V30 BEGIN BOND
M  V30 1 1 2 6
M  V30 2 2 4 5
M  V30 3 1 1 5
M  V30 4 1 5 3
M  V30 5 2 7 12
M  V30 6 1 7 1
M  V30 7 1 7 8
M  V30 8 2 8 9
M  V30 9 1 9 10
M  V30 10 2 10 11
M  V30 11 1 10 2
M  V30 12 1 11 16
M  V30 13 1 11 12
M  V30 14 2 13 14
M  V30 15 1 13 17
M  V30 16 1 14 15
M  V30 17 2 15 16
M  V30 18 1 16 17
M  V30 19 1 24 23
M  V30 20 1 21 19
M  V30 21 2 20 19
M  V30 22 2 19 18
M  V30 23 1 25 30
M  V30 24 1 25 19
M  V30 25 1 25 26
M  V30 26 1 26 22
M  V30 27 1 26 27
M  V30 28 1 27 28
M  V30 29 1 28 29
M  V30 30 1 29 30
M  V30 31 1 30 23
M  V30 32 1 31 6
M  V30 33 1 31 28
M  V30 34 1 1 32
M  V30 35 1 1 33
M  V30 36 1 3 34
M  V30 37 1 6 35
M  V30 38 1 6 36
M  V30 39 1 8 37
M  V30 40 1 9 38
M  V30 41 1 12 39
M  V30 42 1 13 40
M  V30 43 1 14 41
M  V30 44 1 15 42
M  V30 45 1 21 43
M  V30 46 1 21 44
M  V30 47 1 21 45
M  V30 48 1 22 46
M  V30 49 1 22 47
M  V30 50 1 22 48
M  V30 51 1 23 49
M  V30 52 1 23 50
M  V30 53 1 24 51
M  V30 54 1 26 52 CFG=3
M  V30 55 1 27 53
M  V30 56 1 27 54
M  V30 57 1 28 55 CFG=1
M  V30 58 1 29 56
M  V30 59 1 29 57
M  V30 60 1 30 58 CFG=1
M  V30 61 1 31 59
M  V30 END BOND
M  V30 BEGIN COLLECTION
M  V30 MDLV30/STEABS ATOMS=(0)
M  V30 END COLLECTION
M  V30 END CTAB
M  END
>  <smiles>  (821) 
[H]OC(=O)C([H])([H])c1c([H])c([H])c(OC([H])([H])N([H])[C@]2([H])C([H])([H])[C@]([H])(C([H])([H])[H])N(S(=O)(=O)C([H])([H])[H])[C@]([H])(C([H])([H])O[H])C2([H])[H])c(-c2sc([H])c([H])c2[H])c1[H]

>  <error>  (821) 


>  <∆∆G>  (821) 
nan

>  <∆G_bound>  (821) 
nan

>  <∆G_unbound>  (821) 
nan

>  <comRMSD>  (821) 
0.0

>  <N_constrained_atoms>  (821) 
30.0

>  <N_unconstrained_atoms>  (821) 
1.0

>  <runtime>  (821) 
1.938111

>  <regarded>  (821) 
['6h9r-a', 'd0851a']

>  <disregarded>  (821) 
[]

>  <LE>  (821) 
nan

>  <outcome>  (821) 
crashed

>  <percent_hybrid>  (821) 
44.0

$$$$
LIG
     RDKit          3D

 64 67  0  0  0  0  0  0  0  0999 V2000
  -15.4862  -43.2029  -17.0462 C   0  0  0  0  0  0  0  0  0  0  0  0
  -15.1305  -43.9849  -22.6778 O   0  0  0  0  0  0  0  0  0  0  0  0
  -16.0749  -40.8885  -17.4051 O   0  0  0  0  0  0  0  0  0  0  0  0
  -14.6475  -41.3641  -15.7258 O   0  0  0  0  0  0  0  0  0  0  0  0
  -15.3417  -41.7465  -16.6576 C   0  0  0  0  0  0  0  0  0  0  0  0
  -15.0950  -42.7411  -23.4279 C   0  0  0  0  0  0  0  0  0  0  0  0
  -19.4523  -37.6245  -27.1308 O   0  0  0  0  0  0  0  0  0  0  0  0
  -18.6914  -37.6292  -26.2283 C   0  0  0  0  0  0  0  0  0  0  0  0
  -19.1013  -40.3712  -24.7388 C   0  0  0  0  0  0  0  0  0  0  0  0
  -16.7410  -41.9926  -23.7206 S   0  0  0  0  0  0  0  0  0  0  0  0
  -17.2388  -41.4819  -22.4561 O   0  0  0  0  0  0  0  0  0  0  0  0
  -17.5236  -42.9033  -24.5339 O   0  0  0  0  0  0  0  0  0  0  0  0
  -15.3531  -43.4749  -18.5271 C   0  0  0  0  0  0  0  0  0  0  0  0
  -14.2849  -42.9416  -19.2571 C   0  0  0  0  0  0  0  0  0  0  0  0
  -14.2136  -43.1145  -20.6397 C   0  0  0  0  0  0  0  0  0  0  0  0
  -15.2055  -43.8273  -21.3168 C   0  0  0  0  0  0  0  0  0  0  0  0
  -16.2130  -44.4856  -20.5829 C   0  0  0  0  0  0  0  0  0  0  0  0
  -16.2852  -44.2835  -19.1925 C   0  0  0  0  0  0  0  0  0  0  0  0
  -18.6390  -46.5423  -22.7926 C   0  0  0  0  0  0  0  0  0  0  0  0
  -18.1834  -47.4163  -21.8373 C   0  0  0  0  0  0  0  0  0  0  0  0
  -17.3060  -46.7812  -20.9147 C   0  0  0  0  0  0  0  0  0  0  0  0
  -17.1443  -45.4369  -21.1948 C   0  0  0  0  0  0  0  0  0  0  0  0
  -18.2535  -44.9388  -22.3917 S   0  0  0  0  0  0  0  0  0  0  0  0
  -19.3008  -36.7631  -23.9577 C   0  0  0  0  0  0  0  0  0  0  0  0
  -18.9521  -35.7975  -22.8440 C   0  0  0  0  0  0  0  0  0  0  0  0
  -18.6839  -34.5878  -23.6622 C   0  0  0  0  0  0  0  0  0  0  0  0
  -18.9425  -35.1772  -25.0266 C   0  0  0  0  0  0  0  0  0  0  0  0
  -18.4122  -36.5753  -25.1765 N   0  0  0  0  0  0  0  0  0  0  0  0
  -17.7405  -39.6653  -24.8016 C   0  0  2  0  0  0  0  0  0  0  0  0
  -17.7205  -38.8308  -26.0961 C   0  0  2  0  0  0  0  0  0  0  0  0
  -16.2931  -38.4166  -26.4232 C   0  0  0  0  0  0  0  0  0  0  0  0
  -15.4438  -39.6564  -26.7042 C   0  0  0  0  0  0  0  0  0  0  0  0
  -15.9591  -40.9279  -26.0488 C   0  0  0  0  0  0  0  0  0  0  0  0
  -16.5276  -40.6246  -24.7171 N   0  0  0  0  0  0  0  0  0  0  0  0
  -14.7234  -43.7857  -16.5170 H   0  0  0  0  0  0  0  0  0  0  0  0
  -16.4664  -43.5249  -16.6809 H   0  0  0  0  0  0  0  0  0  0  0  0
  -16.5725  -41.3196  -18.1289 H   0  0  0  0  0  0  0  0  0  0  0  0
  -14.4607  -41.9777  -22.9689 H   0  0  0  0  0  0  0  0  0  0  0  0
  -14.6853  -43.0006  -24.4059 H   0  0  0  0  0  0  0  0  0  0  0  0
  -19.2804  -40.8475  -23.7717 H   0  0  0  0  0  0  0  0  0  0  0  0
  -19.9252  -39.6637  -24.8802 H   0  0  0  0  0  0  0  0  0  0  0  0
  -19.1923  -41.1350  -25.5187 H   0  0  0  0  0  0  0  0  0  0  0  0
  -13.4988  -42.3692  -18.7639 H   0  0  0  0  0  0  0  0  0  0  0  0
  -13.3540  -42.7151  -21.1733 H   0  0  0  0  0  0  0  0  0  0  0  0
  -17.0922  -44.7549  -18.6347 H   0  0  0  0  0  0  0  0  0  0  0  0
  -19.2068  -46.7757  -23.6813 H   0  0  0  0  0  0  0  0  0  0  0  0
  -18.3756  -48.4785  -21.8759 H   0  0  0  0  0  0  0  0  0  0  0  0
  -16.7513  -47.3109  -20.1503 H   0  0  0  0  0  0  0  0  0  0  0  0
  -20.3708  -36.7611  -24.2347 H   0  0  0  0  0  0  0  0  0  0  0  0
  -19.1558  -37.7743  -23.5756 H   0  0  0  0  0  0  0  0  0  0  0  0
  -19.7712  -35.6744  -22.1302 H   0  0  0  0  0  0  0  0  0  0  0  0
  -18.0551  -36.1150  -22.3019 H   0  0  0  0  0  0  0  0  0  0  0  0
  -19.3465  -33.7470  -23.4395 H   0  0  0  0  0  0  0  0  0  0  0  0
  -17.6455  -34.2579  -23.5523 H   0  0  0  0  0  0  0  0  0  0  0  0
  -19.9883  -35.0975  -25.3714 H   0  0  0  0  0  0  0  0  0  0  0  0
  -18.3904  -34.5898  -25.7731 H   0  0  0  0  0  0  0  0  0  0  0  0
  -17.6187  -39.0133  -23.9322 H   0  0  0  0  0  0  0  0  0  0  0  0
  -18.0390  -39.4966  -26.9160 H   0  0  0  0  0  0  0  0  0  0  0  0
  -16.2534  -37.7349  -27.2808 H   0  0  0  0  0  0  0  0  0  0  0  0
  -15.8760  -37.8684  -25.5706 H   0  0  0  0  0  0  0  0  0  0  0  0
  -15.4370  -39.8618  -27.7775 H   0  0  0  0  0  0  0  0  0  0  0  0
  -14.4077  -39.4624  -26.4064 H   0  0  0  0  0  0  0  0  0  0  0  0
  -16.7213  -41.4020  -26.6789 H   0  0  0  0  0  0  0  0  0  0  0  0
  -15.1261  -41.6268  -25.9700 H   0  0  0  0  0  0  0  0  0  0  0  0
  2  6  1  0
  4  5  2  0
  1  5  1  0
  5  3  1  0
 11 10  2  0
 12 10  2  0
  8  7  2  0
 10  6  1  0
 13 18  2  0
 13  1  1  0
 13 14  1  0
 14 15  2  0
 15 16  1  0
 16 17  2  0
 16  2  1  0
 17 22  1  0
 17 18  1  0
 19 20  2  0
 19 23  1  0
 20 21  1  0
 21 22  2  0
 22 23  1  0
 24 25  1  0
 24 28  1  0
 25 26  1  0
 26 27  1  0
 27 28  1  0
 28  8  1  0
 29  9  1  0
 29 34  1  0
 29 30  1  0
 30 31  1  0
 30  8  1  0
 31 32  1  0
 32 33  1  0
 33 34  1  0
 34 10  1  0
  1 35  1  0
  1 36  1  0
  3 37  1  0
  6 38  1  0
  6 39  1  0
  9 40  1  0
  9 41  1  0
  9 42  1  0
 14 43  1  0
 15 44  1  0
 18 45  1  0
 19 46  1  0
 20 47  1  0
 21 48  1  0
 24 49  1  0
 24 50  1  0
 25 51  1  0
 25 52  1  0
 26 53  1  0
 26 54  1  0
 27 55  1  0
 27 56  1  0
 29 57  1  1
 30 58  1  1
 31 59  1  0
 31 60  1  0
 32 61  1  0
 32 62  1  0
 33 63  1  0
 33 64  1  0
M  END
>  <smiles>  (822) 
[H]OC(=O)C([H])([H])c1c([H])c([H])c(OC([H])([H])S(=O)(=O)N2C([H])([H])C([H])([H])C([H])([H])[C@@]([H])(C(=O)N3C([H])([H])C([H])([H])C([H])([H])C3([H])[H])[C@@]2([H])C([H])([H])[H])c(-c2sc([H])c([H])c2[H])c1[H]

>  <error>  (822) 


>  <∆∆G>  (822) 
-91.828064

>  <∆G_bound>  (822) 
136.086618

>  <∆G_unbound>  (822) 
227.914682

>  <comRMSD>  (822) 
0.970182

>  <N_constrained_atoms>  (822) 
34.0

>  <N_unconstrained_atoms>  (822) 
0.0

>  <runtime>  (822) 
8.214698

>  <regarded>  (822) 
['6h9r-a', 'd0866a']

>  <disregarded>  (822) 
[]

>  <LE>  (822) 
2.700825

>  <outcome>  (822) 
acceptable

>  <percent_hybrid>  (822) 
50.0

$$$$

     RDKit          2D

  0  0  0  0  0  0  0  0  0  0999 V2000
M  END
>  <smiles>  (823) 
nan

>  <error>  (823) 
DistanceError 5.88 Å

>  <∆∆G>  (823) 
nan

>  <∆G_bound>  (823) 
nan

>  <∆G_unbound>  (823) 
nan

>  <comRMSD>  (823) 
nan

>  <N_constrained_atoms>  (823) 
nan

>  <N_unconstrained_atoms>  (823) 
nan

>  <runtime>  (823) 
nan

>  <regarded>  (823) 
[]

>  <disregarded>  (823) 
[]

>  <LE>  (823) 
nan

>  <outcome>  (823) 
too distant

>  <percent_hybrid>  (823) 
nan

$$$$
LIG
     RDKit          3D

 50 52  0  0  0  0  0  0  0  0999 V2000
  -15.7301  -42.7200  -17.2054 C   0  0  1  0  0  0  0  0  0  0  0  0
  -15.6254  -43.7495  -22.8468 O   0  0  0  0  0  0  0  0  0  0  0  0
  -15.9081  -40.2682  -17.1808 O   0  0  0  0  0  0  0  0  0  0  0  0
  -17.7224  -41.4414  -16.5946 O   0  0  0  0  0  0  0  0  0  0  0  0
  -16.5515  -41.4354  -16.9487 C   0  0  0  0  0  0  0  0  0  0  0  0
  -14.4721  -43.3507  -23.5665 C   0  0  0  0  0  0  0  0  0  0  0  0
  -15.7187  -42.9784  -18.7160 C   0  0  0  0  0  0  0  0  0  0  0  0
  -15.0132  -42.1397  -19.5921 C   0  0  0  0  0  0  0  0  0  0  0  0
  -14.9468  -42.3948  -20.9591 C   0  0  0  0  0  0  0  0  0  0  0  0
  -15.6552  -43.4556  -21.5080 C   0  0  0  0  0  0  0  0  0  0  0  0
  -16.4853  -44.2421  -20.6813 C   0  0  0  0  0  0  0  0  0  0  0  0
  -16.4771  -44.0202  -19.2869 C   0  0  0  0  0  0  0  0  0  0  0  0
  -18.6670  -46.5723  -22.8814 C   0  0  0  0  0  0  0  0  0  0  0  0
  -18.2362  -47.3554  -21.8381 C   0  0  0  0  0  0  0  0  0  0  0  0
  -17.4640  -46.6195  -20.8961 C   0  0  0  0  0  0  0  0  0  0  0  0
  -17.3349  -45.2932  -21.2593 C   0  0  0  0  0  0  0  0  0  0  0  0
  -18.3639  -44.9244  -22.5943 S   0  0  0  0  0  0  0  0  0  0  0  0
  -13.2954  -44.3076  -18.7361 O   0  0  0  0  0  0  0  0  0  0  0  0
  -12.4635  -43.2746  -18.2620 C   0  0  0  0  0  0  0  0  0  0  0  0
  -13.0572  -42.4493  -17.1100 C   0  0  0  0  0  0  0  0  0  0  0  0
  -14.3612  -42.8763  -16.3527 C   0  0  0  0  0  0  0  0  0  0  0  0
  -14.1689  -44.3356  -15.8554 C   0  0  0  0  0  0  0  0  0  0  0  0
  -13.9026  -44.5187  -14.3711 C   0  0  0  0  0  0  0  0  0  0  0  0
  -14.8280  -43.8713  -13.5270 O   0  0  0  0  0  0  0  0  0  0  0  0
  -15.3419  -42.6421  -14.0107 C   0  0  0  0  0  0  0  0  0  0  0  0
  -14.4250  -42.0119  -15.0495 C   0  0  0  0  0  0  0  0  0  0  0  0
  -16.3944  -43.4878  -16.7822 H   0  0  0  0  0  0  0  0  0  0  0  0
  -14.9823  -40.3694  -17.4514 H   0  0  0  0  0  0  0  0  0  0  0  0
  -13.5645  -43.7315  -23.0888 H   0  0  0  0  0  0  0  0  0  0  0  0
  -14.5361  -43.7886  -24.5642 H   0  0  0  0  0  0  0  0  0  0  0  0
  -14.4388  -42.2647  -23.6958 H   0  0  0  0  0  0  0  0  0  0  0  0
  -14.4601  -41.2775  -19.2413 H   0  0  0  0  0  0  0  0  0  0  0  0
  -14.3530  -41.7287  -21.5749 H   0  0  0  0  0  0  0  0  0  0  0  0
  -17.0984  -44.6448  -18.6493 H   0  0  0  0  0  0  0  0  0  0  0  0
  -19.1742  -46.8940  -23.7807 H   0  0  0  0  0  0  0  0  0  0  0  0
  -18.3828  -48.4250  -21.8151 H   0  0  0  0  0  0  0  0  0  0  0  0
  -16.9497  -47.0666  -20.0554 H   0  0  0  0  0  0  0  0  0  0  0  0
  -12.8440  -44.6872  -19.5173 H   0  0  0  0  0  0  0  0  0  0  0  0
  -12.1934  -42.6164  -19.0947 H   0  0  0  0  0  0  0  0  0  0  0  0
  -11.5445  -43.7373  -17.9063 H   0  0  0  0  0  0  0  0  0  0  0  0
  -12.2429  -42.3635  -16.3742 H   0  0  0  0  0  0  0  0  0  0  0  0
  -13.1697  -41.4143  -17.4528 H   0  0  0  0  0  0  0  0  0  0  0  0
  -14.9665  -44.9917  -16.2005 H   0  0  0  0  0  0  0  0  0  0  0  0
  -13.2479  -44.6974  -16.2641 H   0  0  0  0  0  0  0  0  0  0  0  0
  -13.8750  -45.5852  -14.1240 H   0  0  0  0  0  0  0  0  0  0  0  0
  -12.9037  -44.1381  -14.1212 H   0  0  0  0  0  0  0  0  0  0  0  0
  -16.3469  -42.8133  -14.4058 H   0  0  0  0  0  0  0  0  0  0  0  0
  -15.4486  -41.9725  -13.1511 H   0  0  0  0  0  0  0  0  0  0  0  0
  -13.4228  -41.9260  -14.6068 H   0  0  0  0  0  0  0  0  0  0  0  0
  -14.7269  -40.9815  -15.2441 H   0  0  0  0  0  0  0  0  0  0  0  0
  2  6  1  0
  4  5  2  0
  1  5  1  0
  5  3  1  0
  7 12  1  0
  7  1  1  0
  7  8  2  0
  8  9  1  0
  9 10  2  0
 10 11  1  0
 10  2  1  0
 11 16  1  0
 11 12  2  0
 13 14  2  0
 13 17  1  0
 14 15  1  0
 15 16  2  0
 16 17  1  0
 19 18  1  0
 20 19  1  0
 21 20  1  0
 21 26  1  0
 21 22  1  0
 22 23  1  0
 23 24  1  0
 24 25  1  0
 25 26  1  0
  1 21  1  0
  1 27  1  1
  3 28  1  0
  6 29  1  0
  6 30  1  0
  6 31  1  0
  8 32  1  0
  9 33  1  0
 12 34  1  0
 13 35  1  0
 14 36  1  0
 15 37  1  0
 18 38  1  0
 19 39  1  0
 19 40  1  0
 20 41  1  0
 20 42  1  0
 22 43  1  0
 22 44  1  0
 23 45  1  0
 23 46  1  0
 25 47  1  0
 25 48  1  0
 26 49  1  0
 26 50  1  0
M  END
>  <smiles>  (824) 
[H]OC(=O)[C@@]([H])(c1c([H])c([H])c(OC([H])([H])[H])c(-c2sc([H])c([H])c2[H])c1[H])C1(C([H])([H])C([H])([H])O[H])C([H])([H])C([H])([H])OC([H])([H])C1([H])[H]

>  <error>  (824) 


>  <∆∆G>  (824) 
-43.871788

>  <∆G_bound>  (824) 
82.164646

>  <∆G_unbound>  (824) 
126.036435

>  <comRMSD>  (824) 
1.462146

>  <N_constrained_atoms>  (824) 
26.0

>  <N_unconstrained_atoms>  (824) 
0.0

>  <runtime>  (824) 
2.923448

>  <regarded>  (824) 
['6h9r-a', 'z0052a']

>  <disregarded>  (824) 
[]

>  <LE>  (824) 
1.687376

>  <outcome>  (824) 
too moved

>  <percent_hybrid>  (824) 
35.0

$$$$
LIG
     RDKit          3D

  0  0  0  0  0  0  0  0  0  0999 V3000
M  V30 BEGIN CTAB
M  V30 COUNTS 49 51 0 0 0
M  V30 BEGIN ATOM
M  V30 1 C -15.252000 -44.404999 -17.011999 0
M  V30 2 O -15.579000 -43.901001 -22.724001 0
M  V30 3 O -16.296000 -42.285999 -17.075001 0
M  V30 4 O -17.195999 -43.696999 -15.687000 0
M  V30 5 C -16.305000 -43.417999 -16.535000 0
M  V30 6 C -14.680000 -43.063000 -23.400999 0
M  V30 7 C -15.307000 -44.250999 -18.534000 0
M  V30 8 C -14.393000 -43.445000 -19.209999 0
M  V30 9 C -14.463000 -43.299999 -20.600000 0
M  V30 10 C -15.472000 -43.971001 -21.318001 0
M  V30 11 C -16.393000 -44.764000 -20.646999 0
M  V30 12 C -16.316000 -44.900002 -19.266001 0
M  V30 13 C -19.268999 -46.298000 -23.153999 0
M  V30 14 C -19.041000 -47.146000 -22.066999 0
M  V30 15 C -18.048000 -46.724998 -21.127001 0
M  V30 16 C -17.474001 -45.493999 -21.451000 0
M  V30 17 S -18.218000 -44.983002 -22.896000 0
M  V30 18 N -13.266000 -42.196999 -21.974001 0
M  V30 19 C -12.944000 -41.021999 -21.833000 0
M  V30 20 C -11.629000 -40.624001 -21.225000 0
M  V30 21 N -13.726000 -40.034000 -22.247999 0
M  V30 22 C -13.348000 -39.222000 -23.382000 0
M  V30 23 C -12.966000 -37.907001 -22.924999 0
M  V30 24 N -11.741000 -37.458000 -22.879000 0
M  V30 25 C -11.837000 -36.210999 -22.299000 0
M  V30 26 C -13.101000 -35.942001 -22.018000 0
M  V30 27 N -13.818000 -37.035000 -22.421000 0
M  V30 28 N -13.973000 -42.629997 -22.687500 0
M  V30 29 H -14.257314 -44.141945 -16.622892 0
M  V30 30 H -15.434840 -45.434952 -16.671757 0
M  V30 31 H -15.599265 -42.060955 -17.741346 0
M  V30 32 H -14.129518 -43.647923 -24.152554 0
M  V30 33 H -15.237398 -42.255562 -23.898342 0
M  V30 34 H -13.609434 -42.918015 -18.645807 0
M  V30 35 H -13.735208 -42.666489 -21.128189 0
M  V30 36 H -17.053814 -45.523232 -18.739487 0
M  V30 37 H -19.969831 -46.446461 -23.988741 0
M  V30 38 H -19.595686 -48.087475 -21.940722 0
M  V30 39 H -17.765636 -47.310997 -20.239941 0
M  V30 40 H -11.709771 -40.648445 -20.128242 0
M  V30 41 H -10.847049 -41.325714 -21.550806 0
M  V30 42 H -11.367404 -39.606445 -21.550806 0
M  V30 43 H -14.611291 -39.843807 -21.757097 0
M  V30 44 H -12.499456 -39.690483 -23.902094 0
M  V30 45 H -14.199591 -39.137444 -24.073118 0
M  V30 46 H -10.988646 -35.539764 -22.099646 0
M  V30 47 H -13.495500 -35.025738 -21.554501 0
M  V30 48 H -13.003000 -41.660000 -21.717501 0
M  V30 49 H -14.838100 -37.155346 -22.344767 0
M  V30 END ATOM
M  V30 BEGIN BOND
M  V30 1 1 2 6
M  V30 2 2 4 5
M  V30 3 1 1 5
M  V30 4 1 5 3
M  V30 5 2 7 12
M  V30 6 1 7 1
M  V30 7 1 7 8
M  V30 8 2 8 9
M  V30 9 1 9 10
M  V30 10 2 10 11
M  V30 11 1 10 2
M  V30 12 1 11 16
M  V30 13 1 11 12
M  V30 14 2 13 14
M  V30 15 1 13 17
M  V30 16 1 14 15
M  V30 17 2 15 16
M  V30 18 1 16 17
M  V30 19 1 20 19
M  V30 20 2 19 18
M  V30 21 1 21 19
M  V30 22 1 22 21
M  V30 23 1 23 22
M  V30 24 2 23 24
M  V30 25 1 23 27
M  V30 26 1 24 25
M  V30 27 2 25 26
M  V30 28 1 26 27
M  V30 29 1 28 6
M  V30 30 1 28 18
M  V30 31 1 1 29
M  V30 32 1 1 30
M  V30 33 1 3 31
M  V30 34 1 6 32
M  V30 35 1 6 33
M  V30 36 1 8 34
M  V30 37 1 9 35
M  V30 38 1 12 36
M  V30 39 1 13 37
M  V30 40 1 14 38
M  V30 41 1 15 39
M  V30 42 1 20 40
M  V30 43 1 20 41
M  V30 44 1 20 42
M  V30 45 1 21 43
M  V30 46 1 22 44
M  V30 47 1 22 45
M  V30 48 1 25 46
M  V30 49 1 26 47
M  V30 50 1 28 48
M  V30 51 1 27 49
M  V30 END BOND
M  V30 BEGIN COLLECTION
M  V30 MDLV30/STEABS ATOMS=(0)
M  V30 END COLLECTION
M  V30 END CTAB
M  END
>  <smiles>  (825) 
[H]OC(=O)C([H])([H])c1c([H])c([H])c(OC([H])([H])N([H])/N=C(\N([H])C([H])([H])c2nc([H])c([H])[nH]2)C([H])([H])[H])c(-c2sc([H])c([H])c2[H])c1[H]

>  <error>  (825) 


>  <∆∆G>  (825) 
nan

>  <∆G_bound>  (825) 
nan

>  <∆G_unbound>  (825) 
nan

>  <comRMSD>  (825) 
0.0

>  <N_constrained_atoms>  (825) 
27.0

>  <N_unconstrained_atoms>  (825) 
1.0

>  <runtime>  (825) 
1.647222

>  <regarded>  (825) 
['6h9r-a', 'z0103a']

>  <disregarded>  (825) 
[]

>  <LE>  (825) 
nan

>  <outcome>  (825) 
crashed

>  <percent_hybrid>  (825) 
38.0

$$$$

     RDKit          2D

  0  0  0  0  0  0  0  0  0  0999 V2000
M  END
>  <smiles>  (826) 
nan

>  <error>  (826) 
DistanceError 6.01 Å

>  <∆∆G>  (826) 
nan

>  <∆G_bound>  (826) 
nan

>  <∆G_unbound>  (826) 
nan

>  <comRMSD>  (826) 
nan

>  <N_constrained_atoms>  (826) 
nan

>  <N_unconstrained_atoms>  (826) 
nan

>  <runtime>  (826) 
nan

>  <regarded>  (826) 
[]

>  <disregarded>  (826) 
[]

>  <LE>  (826) 
nan

>  <outcome>  (826) 
too distant

>  <percent_hybrid>  (826) 
nan

$$$$

     RDKit          2D

  0  0  0  0  0  0  0  0  0  0999 V2000
M  END
>  <smiles>  (827) 
nan

>  <error>  (827) 
RecursionError maximum recursion depth exceeded while calling a Python object

>  <∆∆G>  (827) 
nan

>  <∆G_bound>  (827) 
nan

>  <∆G_unbound>  (827) 
nan

>  <comRMSD>  (827) 
nan

>  <N_constrained_atoms>  (827) 
nan

>  <N_unconstrained_atoms>  (827) 
nan

>  <runtime>  (827) 
nan

>  <regarded>  (827) 
[]

>  <disregarded>  (827) 
[]

>  <LE>  (827) 
nan

>  <outcome>  (827) 
crashed

>  <percent_hybrid>  (827) 
nan

$$$$
LIG
     RDKit          3D

 41 43  0  0  0  0  0  0  0  0999 V2000
  -17.1698  -42.4383  -17.5108 C   0  0  0  0  0  0  0  0  0  0  0  0
  -15.0900  -44.5159  -22.3844 O   0  0  0  0  0  0  0  0  0  0  0  0
  -17.3769  -40.2356  -18.4706 O   0  0  0  0  0  0  0  0  0  0  0  0
  -19.1967  -41.1158  -17.4760 O   0  0  0  0  0  0  0  0  0  0  0  0
  -18.0255  -41.2248  -17.8094 C   0  0  0  0  0  0  0  0  0  0  0  0
  -15.0601  -43.5280  -23.4162 C   0  0  0  0  0  0  0  0  0  0  0  0
  -16.5849  -43.0636  -18.7521 C   0  0  0  0  0  0  0  0  0  0  0  0
  -15.2765  -42.7797  -19.1430 C   0  0  0  0  0  0  0  0  0  0  0  0
  -14.7409  -43.2696  -20.3545 C   0  0  0  0  0  0  0  0  0  0  0  0
  -15.5671  -44.0139  -21.2002 C   0  0  0  0  0  0  0  0  0  0  0  0
  -16.8592  -44.3715  -20.7835 C   0  0  0  0  0  0  0  0  0  0  0  0
  -17.3606  -43.8918  -19.5662 C   0  0  0  0  0  0  0  0  0  0  0  0
  -18.8270  -46.3722  -23.4251 C   0  0  0  0  0  0  0  0  0  0  0  0
  -18.6320  -47.2353  -22.3688 C   0  0  0  0  0  0  0  0  0  0  0  0
  -17.9483  -46.6137  -21.2938 C   0  0  0  0  0  0  0  0  0  0  0  0
  -17.6647  -45.2932  -21.5685 C   0  0  0  0  0  0  0  0  0  0  0  0
  -18.3703  -44.7750  -23.0368 S   0  0  0  0  0  0  0  0  0  0  0  0
  -12.5604  -43.4136  -19.3918 N   0  0  0  0  0  0  0  0  0  0  0  0
  -13.2680  -43.1104  -20.6365 C   0  0  0  0  0  0  0  0  0  0  0  0
  -12.9959  -41.6757  -21.0343 C   0  0  0  0  0  0  0  0  0  0  0  0
  -13.7923  -40.7398  -21.6698 C   0  0  0  0  0  0  0  0  0  0  0  0
  -13.0249  -39.6161  -21.7983 N   0  0  0  0  0  0  0  0  0  0  0  0
  -11.8048  -39.8827  -21.2538 C   0  0  0  0  0  0  0  0  0  0  0  0
  -11.7380  -41.1175  -20.8173 N   0  0  0  0  0  0  0  0  0  0  0  0
  -16.3860  -42.1457  -16.8028 H   0  0  0  0  0  0  0  0  0  0  0  0
  -17.7884  -43.1782  -16.9954 H   0  0  0  0  0  0  0  0  0  0  0  0
  -16.4572  -40.4670  -18.7038 H   0  0  0  0  0  0  0  0  0  0  0  0
  -15.7454  -42.6923  -23.2352 H   0  0  0  0  0  0  0  0  0  0  0  0
  -14.0405  -43.1603  -23.5410 H   0  0  0  0  0  0  0  0  0  0  0  0
  -15.3576  -44.0081  -24.3526 H   0  0  0  0  0  0  0  0  0  0  0  0
  -14.6303  -42.1937  -18.4870 H   0  0  0  0  0  0  0  0  0  0  0  0
  -18.3787  -44.1457  -19.2719 H   0  0  0  0  0  0  0  0  0  0  0  0
  -19.2625  -46.5982  -24.3904 H   0  0  0  0  0  0  0  0  0  0  0  0
  -18.9183  -48.2779  -22.3935 H   0  0  0  0  0  0  0  0  0  0  0  0
  -17.6219  -47.1284  -20.3995 H   0  0  0  0  0  0  0  0  0  0  0  0
  -14.8135  -40.7727  -22.0215 H   0  0  0  0  0  0  0  0  0  0  0  0
  -11.0096  -39.1496  -21.2110 H   0  0  0  0  0  0  0  0  0  0  0  0
  -12.3331  -44.4066  -19.4145 H   0  0  0  0  0  0  0  0  0  0  0  0
  -11.6620  -42.9198  -19.4626 H   0  0  0  0  0  0  0  0  0  0  0  0
  -12.9267  -43.7817  -21.4256 H   0  0  0  0  0  0  0  0  0  0  0  0
  -13.3161  -38.7366  -22.2015 H   0  0  0  0  0  0  0  0  0  0  0  0
  2  6  1  0
  4  5  2  0
  1  5  1  0
  5  3  1  0
  7 12  2  0
  7  1  1  0
  7  8  1  0
  8  9  2  0
  9 10  1  0
 10 11  2  0
 10  2  1  0
 11 16  1  0
 11 12  1  0
 13 14  2  0
 13 17  1  0
 14 15  1  0
 15 16  2  0
 16 17  1  0
 19 18  1  0
 20 19  1  0
 20 21  2  0
 20 24  1  0
 21 22  1  0
 22 23  1  0
 23 24  2  0
  9 19  1  0
  1 25  1  0
  1 26  1  0
  3 27  1  0
  6 28  1  0
  6 29  1  0
  6 30  1  0
  8 31  1  0
 12 32  1  0
 13 33  1  0
 14 34  1  0
 15 35  1  0
 21 36  1  0
 23 37  1  0
 18 38  1  0
 18 39  1  0
 19 40  1  0
 22 41  1  0
M  END
>  <smiles>  (828) 
[H]OC(=O)C([H])([H])c1c([H])c(-c2sc([H])c([H])c2[H])c(OC([H])([H])[H])c(C(N)c2nc([H])[nH]c2[H])c1[H]

>  <error>  (828) 


>  <∆∆G>  (828) 
-85.562304

>  <∆G_bound>  (828) 
-21.591836

>  <∆G_unbound>  (828) 
63.970468

>  <comRMSD>  (828) 
1.499655

>  <N_constrained_atoms>  (828) 
24.0

>  <N_unconstrained_atoms>  (828) 
0.0

>  <runtime>  (828) 
2.606076

>  <regarded>  (828) 
['6h9r-a', 'z0875c']

>  <disregarded>  (828) 
[]

>  <LE>  (828) 
3.565096

>  <outcome>  (828) 
too moved

>  <percent_hybrid>  (828) 
30.0

$$$$
LIG
     RDKit          3D

 59 61  0  0  0  0  0  0  0  0999 V2000
  -15.7735  -43.8924  -17.2824 C   0  0  0  0  0  0  0  0  0  0  0  0
  -15.2009  -44.2910  -22.9081 O   0  0  0  0  0  0  0  0  0  0  0  0
  -16.5090  -41.6039  -17.6222 O   0  0  0  0  0  0  0  0  0  0  0  0
  -16.1934  -42.3132  -15.2722 C   0  0  0  0  0  0  0  0  0  0  0  0
  -15.7275  -42.4635  -16.7623 C   0  0  1  0  0  0  0  0  0  0  0  0
  -14.2906  -43.4709  -23.6133 C   0  0  0  0  0  0  0  0  0  0  0  0
  -13.4131  -42.9044  -18.5881 O   0  0  0  0  0  0  0  0  0  0  0  0
  -12.6118  -41.8926  -19.1973 C   0  0  0  0  0  0  0  0  0  0  0  0
  -15.8655  -43.4608  -14.5237 O   0  0  0  0  0  0  0  0  0  0  0  0
  -19.5807  -46.2471  -24.6950 C   0  0  0  0  0  0  0  0  0  0  0  0
  -20.2284  -46.3826  -25.6956 C   0  0  0  0  0  0  0  0  0  0  0  0
  -20.9777  -46.5984  -26.9230 C   0  0  0  0  0  0  0  0  0  0  0  0
  -22.0643  -45.6888  -27.0112 O   0  0  0  0  0  0  0  0  0  0  0  0
  -17.5902  -42.1204  -15.1672 O   0  0  0  0  0  0  0  0  0  0  0  0
  -14.0946  -37.8899  -15.7377 O   0  0  0  0  0  0  0  0  0  0  0  0
  -14.5206  -37.9221  -17.0992 C   0  0  0  0  0  0  0  0  0  0  0  0
  -15.4782  -44.0406  -18.7583 C   0  0  0  0  0  0  0  0  0  0  0  0
  -14.3433  -43.5057  -19.3916 C   0  0  0  0  0  0  0  0  0  0  0  0
  -14.2095  -43.6087  -20.7787 C   0  0  0  0  0  0  0  0  0  0  0  0
  -15.2226  -44.1900  -21.5440 C   0  0  0  0  0  0  0  0  0  0  0  0
  -16.3407  -44.7558  -20.9110 C   0  0  0  0  0  0  0  0  0  0  0  0
  -16.4494  -44.6939  -19.5260 C   0  0  0  0  0  0  0  0  0  0  0  0
  -18.8629  -46.1240  -23.4722 C   0  0  0  0  0  0  0  0  0  0  0  0
  -18.6681  -47.1425  -22.5639 C   0  0  0  0  0  0  0  0  0  0  0  0
  -17.8144  -46.7523  -21.5001 C   0  0  0  0  0  0  0  0  0  0  0  0
  -17.3755  -45.4547  -21.6614 C   0  0  0  0  0  0  0  0  0  0  0  0
  -18.2152  -44.6550  -22.9228 S   0  0  0  0  0  0  0  0  0  0  0  0
  -13.7138  -39.1302  -13.7838 C   0  0  0  0  0  0  0  0  0  0  0  0
  -13.9061  -40.2592  -12.9879 C   0  0  0  0  0  0  0  0  0  0  0  0
  -14.7553  -41.2737  -13.4199 C   0  0  0  0  0  0  0  0  0  0  0  0
  -15.4420  -41.1505  -14.6374 C   0  0  0  0  0  0  0  0  0  0  0  0
  -15.3258  -39.9519  -15.3557 C   0  0  0  0  0  0  0  0  0  0  0  0
  -14.4054  -38.9854  -14.9841 C   0  0  0  0  0  0  0  0  0  0  0  0
  -15.1120  -44.5562  -16.7172 H   0  0  0  0  0  0  0  0  0  0  0  0
  -16.8086  -44.2018  -17.1415 H   0  0  0  0  0  0  0  0  0  0  0  0
  -16.1879  -41.7308  -18.5308 H   0  0  0  0  0  0  0  0  0  0  0  0
  -14.6905  -42.1197  -16.8258 H   0  0  0  0  0  0  0  0  0  0  0  0
  -14.2877  -42.4401  -23.2444 H   0  0  0  0  0  0  0  0  0  0  0  0
  -13.2976  -43.9234  -23.5766 H   0  0  0  0  0  0  0  0  0  0  0  0
  -14.6089  -43.4410  -24.6583 H   0  0  0  0  0  0  0  0  0  0  0  0
  -12.0775  -41.3678  -18.3996 H   0  0  0  0  0  0  0  0  0  0  0  0
  -11.8665  -42.3302  -19.8665 H   0  0  0  0  0  0  0  0  0  0  0  0
  -13.2306  -41.1589  -19.7252 H   0  0  0  0  0  0  0  0  0  0  0  0
  -16.7174  -43.6482  -14.0886 H   0  0  0  0  0  0  0  0  0  0  0  0
  -21.3493  -47.6230  -27.0122 H   0  0  0  0  0  0  0  0  0  0  0  0
  -20.3179  -46.3900  -27.7614 H   0  0  0  0  0  0  0  0  0  0  0  0
  -22.8274  -46.1408  -26.5881 H   0  0  0  0  0  0  0  0  0  0  0  0
  -17.7404  -41.3141  -14.6513 H   0  0  0  0  0  0  0  0  0  0  0  0
  -15.6059  -37.7985  -17.1717 H   0  0  0  0  0  0  0  0  0  0  0  0
  -14.0581  -37.0714  -17.6092 H   0  0  0  0  0  0  0  0  0  0  0  0
  -14.1849  -38.8333  -17.6067 H   0  0  0  0  0  0  0  0  0  0  0  0
  -13.3032  -43.2646  -21.2650 H   0  0  0  0  0  0  0  0  0  0  0  0
  -17.3329  -45.1152  -19.0493 H   0  0  0  0  0  0  0  0  0  0  0  0
  -19.0688  -48.1406  -22.6843 H   0  0  0  0  0  0  0  0  0  0  0  0
  -17.4597  -47.4239  -20.7280 H   0  0  0  0  0  0  0  0  0  0  0  0
  -13.0092  -38.3635  -13.4724 H   0  0  0  0  0  0  0  0  0  0  0  0
  -13.3592  -40.3653  -12.0548 H   0  0  0  0  0  0  0  0  0  0  0  0
  -14.8342  -42.1791  -12.8223 H   0  0  0  0  0  0  0  0  0  0  0  0
  -15.9145  -39.8226  -16.2572 H   0  0  0  0  0  0  0  0  0  0  0  0
  2  6  1  0
  4  5  1  0
  1  5  1  0
  5  3  1  0
  7  8  1  0
  9  4  1  0
 12 13  1  0
 12 11  1  0
 11 10  3  0
 14  4  1  0
 16 15  1  0
 17 22  1  0
 17  1  1  0
 17 18  2  0
 18 19  1  0
 19 20  2  0
 20 21  1  0
 20  2  1  0
 21 26  1  0
 21 22  2  0
 23 24  2  0
 23 27  1  0
 24 25  1  0
 25 26  2  0
 26 27  1  0
 28 33  2  0
 28 29  1  0
 29 30  2  0
 30 31  1  0
 31 32  2  0
 32 33  1  0
 33 15  1  0
  7 18  1  0
 10 23  1  0
  4 31  1  0
  1 34  1  0
  1 35  1  0
  3 36  1  0
  5 37  1  1
  6 38  1  0
  6 39  1  0
  6 40  1  0
  8 41  1  0
  8 42  1  0
  8 43  1  0
  9 44  1  0
 12 45  1  0
 12 46  1  0
 13 47  1  0
 14 48  1  0
 16 49  1  0
 16 50  1  0
 16 51  1  0
 19 52  1  0
 22 53  1  0
 24 54  1  0
 25 55  1  0
 28 56  1  0
 29 57  1  0
 30 58  1  0
 32 59  1  0
M  END
>  <smiles>  (829) 
[H]OC([H])([H])C#Cc1sc(-c2c([H])c(C([H])([H])[C@@]([H])(O[H])C(O[H])(O[H])c3c([H])c([H])c([H])c(OC([H])([H])[H])c3[H])c(OC([H])([H])[H])c([H])c2OC([H])([H])[H])c([H])c1[H]

>  <error>  (829) 


>  <∆∆G>  (829) 
-40.831753

>  <∆G_bound>  (829) 
78.668662

>  <∆G_unbound>  (829) 
119.500415

>  <comRMSD>  (829) 
0.776595

>  <N_constrained_atoms>  (829) 
33.0

>  <N_unconstrained_atoms>  (829) 
0.0

>  <runtime>  (829) 
2.296826

>  <regarded>  (829) 
['6h9r-a', '5i3p-a']

>  <disregarded>  (829) 
[]

>  <LE>  (829) 
1.237326

>  <outcome>  (829) 
equally sized

>  <percent_hybrid>  (829) 
49.0

$$$$
LIG
     RDKit          3D

 36 37  0  0  0  0  0  0  0  0999 V2000
  -16.2637  -42.8091  -17.0818 C   0  0  0  0  0  0  0  0  0  0  0  0
  -15.0367  -44.2570  -22.4460 O   0  0  0  0  0  0  0  0  0  0  0  0
  -18.5200  -42.1272  -17.5431 O   0  0  0  0  0  0  0  0  0  0  0  0
  -17.0979  -40.5640  -16.7441 O   0  0  0  0  0  0  0  0  0  0  0  0
  -17.3101  -41.7171  -17.0924 C   0  0  0  0  0  0  0  0  0  0  0  0
  -15.2251  -43.2153  -23.4052 C   0  0  0  0  0  0  0  0  0  0  0  0
  -11.8969  -42.4659  -19.2310 O   0  0  0  0  0  0  0  0  0  0  0  0
  -11.4336  -40.9086  -20.7521 O   0  0  0  0  0  0  0  0  0  0  0  0
  -12.1709  -41.8067  -20.3672 C   0  0  0  0  0  0  0  0  0  0  0  0
  -13.3442  -42.3160  -21.1505 C   0  0  0  0  0  0  0  0  0  0  0  0
  -17.7535  -44.7721  -18.4885 O   0  0  0  0  0  0  0  0  0  0  0  0
  -15.9105  -43.2856  -18.4721 C   0  0  0  0  0  0  0  0  0  0  0  0
  -14.8351  -42.6719  -19.1294 C   0  0  0  0  0  0  0  0  0  0  0  0
  -14.5005  -42.9892  -20.4508 C   0  0  0  0  0  0  0  0  0  0  0  0
  -15.3290  -43.8887  -21.1509 C   0  0  0  0  0  0  0  0  0  0  0  0
  -16.4254  -44.5194  -20.5190 C   0  0  0  0  0  0  0  0  0  0  0  0
  -16.6871  -44.2221  -19.1684 C   0  0  0  0  0  0  0  0  0  0  0  0
  -18.7007  -46.3797  -23.0456 C   0  0  0  0  0  0  0  0  0  0  0  0
  -18.3935  -47.3095  -22.0797 C   0  0  0  0  0  0  0  0  0  0  0  0
  -17.5391  -46.7722  -21.0780 C   0  0  0  0  0  0  0  0  0  0  0  0
  -17.2924  -45.4284  -21.2769 C   0  0  0  0  0  0  0  0  0  0  0  0
  -18.2121  -44.8146  -22.5925 S   0  0  0  0  0  0  0  0  0  0  0  0
  -15.3701  -42.4222  -16.5761 H   0  0  0  0  0  0  0  0  0  0  0  0
  -16.6126  -43.6284  -16.4552 H   0  0  0  0  0  0  0  0  0  0  0  0
  -18.5051  -43.0768  -17.7839 H   0  0  0  0  0  0  0  0  0  0  0  0
  -14.2556  -42.8398  -23.7401 H   0  0  0  0  0  0  0  0  0  0  0  0
  -15.7245  -43.6468  -24.2782 H   0  0  0  0  0  0  0  0  0  0  0  0
  -15.8403  -42.3893  -23.0306 H   0  0  0  0  0  0  0  0  0  0  0  0
  -10.9342  -42.2803  -19.0927 H   0  0  0  0  0  0  0  0  0  0  0  0
  -13.7484  -41.4610  -21.7054 H   0  0  0  0  0  0  0  0  0  0  0  0
  -12.9161  -43.0313  -21.8546 H   0  0  0  0  0  0  0  0  0  0  0  0
  -18.2748  -45.2992  -19.1263 H   0  0  0  0  0  0  0  0  0  0  0  0
  -14.2599  -41.9155  -18.5942 H   0  0  0  0  0  0  0  0  0  0  0  0
  -19.2250  -46.5436  -23.9780 H   0  0  0  0  0  0  0  0  0  0  0  0
  -18.6800  -48.3500  -22.1523 H   0  0  0  0  0  0  0  0  0  0  0  0
  -17.0863  -47.3615  -20.2896 H   0  0  0  0  0  0  0  0  0  0  0  0
  2  6  1  0
  4  5  2  0
  1  5  1  0
  5  3  1  0
 10  9  1  0
  8  9  2  0
  9  7  1  0
 12 17  2  0
 12  1  1  0
 12 13  1  0
 13 14  2  0
 14 15  1  0
 15 16  2  0
 15  2  1  0
 16 21  1  0
 16 17  1  0
 18 19  2  0
 18 22  1  0
 19 20  1  0
 20 21  2  0
 21 22  1  0
 10 14  1  0
 11 17  1  0
  1 23  1  0
  1 24  1  0
  3 25  1  0
  6 26  1  0
  6 27  1  0
  6 28  1  0
  7 29  1  0
 10 30  1  0
 10 31  1  0
 11 32  1  0
 13 33  1  0
 18 34  1  0
 19 35  1  0
 20 36  1  0
M  END
>  <smiles>  (830) 
[H]OC(=O)C([H])([H])c1c([H])c(C([H])([H])C(=O)O[H])c(OC([H])([H])[H])c(-c2sc([H])c([H])c2[H])c1O[H]

>  <error>  (830) 


>  <∆∆G>  (830) 
-82.646649

>  <∆G_bound>  (830) 
-15.965924

>  <∆G_unbound>  (830) 
66.680726

>  <comRMSD>  (830) 
1.65888

>  <N_constrained_atoms>  (830) 
22.0

>  <N_unconstrained_atoms>  (830) 
0.0

>  <runtime>  (830) 
2.269325

>  <regarded>  (830) 
['6h9r-a', '5hn0-a']

>  <disregarded>  (830) 
[]

>  <LE>  (830) 
3.756666

>  <outcome>  (830) 
too moved

>  <percent_hybrid>  (830) 
23.0

$$$$
LIG
     RDKit          3D

 29 30  0  0  0  0  0  0  0  0999 V2000
  -15.5113  -43.4330  -17.0014 C   0  0  0  0  0  0  0  0  0  0  0  0
  -15.1639  -44.2986  -22.6206 O   0  0  0  0  0  0  0  0  0  0  0  0
  -15.4682  -41.0304  -17.1478 O   0  0  0  0  0  0  0  0  0  0  0  0
  -14.1457  -42.0150  -15.6065 O   0  0  0  0  0  0  0  0  0  0  0  0
  -14.9624  -42.1121  -16.5116 C   0  0  0  0  0  0  0  0  0  0  0  0
  -14.2663  -43.5327  -23.4018 C   0  0  0  0  0  0  0  0  0  0  0  0
  -15.3823  -43.6711  -18.4891 C   0  0  0  0  0  0  0  0  0  0  0  0
  -14.2303  -43.2830  -19.1869 C   0  0  0  0  0  0  0  0  0  0  0  0
  -14.1303  -43.4771  -20.5665 C   0  0  0  0  0  0  0  0  0  0  0  0
  -15.1746  -44.0774  -21.2692 C   0  0  0  0  0  0  0  0  0  0  0  0
  -16.3059  -44.5486  -20.5729 C   0  0  0  0  0  0  0  0  0  0  0  0
  -16.4008  -44.3396  -19.1880 C   0  0  0  0  0  0  0  0  0  0  0  0
  -18.7461  -46.1739  -23.0848 C   0  0  0  0  0  0  0  0  0  0  0  0
  -18.5250  -47.1308  -22.1199 C   0  0  0  0  0  0  0  0  0  0  0  0
  -17.7029  -46.6404  -21.0677 C   0  0  0  0  0  0  0  0  0  0  0  0
  -17.3324  -45.3258  -21.2747 C   0  0  0  0  0  0  0  0  0  0  0  0
  -18.1893  -44.6397  -22.5967 S   0  0  0  0  0  0  0  0  0  0  0  0
  -14.9864  -44.2399  -16.4774 H   0  0  0  0  0  0  0  0  0  0  0  0
  -16.5636  -43.4632  -16.6982 H   0  0  0  0  0  0  0  0  0  0  0  0
  -16.0925  -41.2567  -17.8653 H   0  0  0  0  0  0  0  0  0  0  0  0
  -14.2723  -42.4747  -23.1200 H   0  0  0  0  0  0  0  0  0  0  0  0
  -13.2669  -43.9671  -23.3342 H   0  0  0  0  0  0  0  0  0  0  0  0
  -14.5893  -43.5962  -24.4446 H   0  0  0  0  0  0  0  0  0  0  0  0
  -13.3884  -42.8177  -18.6731 H   0  0  0  0  0  0  0  0  0  0  0  0
  -13.2102  -43.1809  -21.0651 H   0  0  0  0  0  0  0  0  0  0  0  0
  -17.2854  -44.6928  -18.6623 H   0  0  0  0  0  0  0  0  0  0  0  0
  -19.2469  -46.2947  -24.0363 H   0  0  0  0  0  0  0  0  0  0  0  0
  -18.8616  -48.1555  -22.2133 H   0  0  0  0  0  0  0  0  0  0  0  0
  -17.3113  -47.2592  -20.2708 H   0  0  0  0  0  0  0  0  0  0  0  0
  2  6  1  0
  4  5  2  0
  1  5  1  0
  5  3  1  0
  7 12  2  0
  7  1  1  0
  7  8  1  0
  8  9  2  0
  9 10  1  0
 10 11  2  0
 10  2  1  0
 11 16  1  0
 11 12  1  0
 13 14  2  0
 13 17  1  0
 14 15  1  0
 15 16  2  0
 16 17  1  0
  1 18  1  0
  1 19  1  0
  3 20  1  0
  6 21  1  0
  6 22  1  0
  6 23  1  0
  8 24  1  0
  9 25  1  0
 12 26  1  0
 13 27  1  0
 14 28  1  0
 15 29  1  0
M  END
>  <smiles>  (831) 
[H]OC(=O)C([H])([H])c1c([H])c([H])c(OC([H])([H])[H])c(-c2sc([H])c([H])c2[H])c1[H]

>  <error>  (831) 


>  <∆∆G>  (831) 
-46.882474

>  <∆G_bound>  (831) 
-40.63404

>  <∆G_unbound>  (831) 
6.248434

>  <comRMSD>  (831) 
1.129031

>  <N_constrained_atoms>  (831) 
17.0

>  <N_unconstrained_atoms>  (831) 
0.0

>  <runtime>  (831) 
1.115222

>  <regarded>  (831) 
['6h9r-a', '5f41-a']

>  <disregarded>  (831) 
[]

>  <LE>  (831) 
2.757793

>  <outcome>  (831) 
equally sized

>  <percent_hybrid>  (831) 
0.0

$$$$
LIG
     RDKit          3D

 29 30  0  0  0  0  0  0  0  0999 V2000
  -15.5113  -43.4330  -17.0014 C   0  0  0  0  0  0  0  0  0  0  0  0
  -15.1639  -44.2986  -22.6206 O   0  0  0  0  0  0  0  0  0  0  0  0
  -15.4682  -41.0304  -17.1478 O   0  0  0  0  0  0  0  0  0  0  0  0
  -14.1457  -42.0150  -15.6065 O   0  0  0  0  0  0  0  0  0  0  0  0
  -14.9624  -42.1121  -16.5116 C   0  0  0  0  0  0  0  0  0  0  0  0
  -14.2663  -43.5327  -23.4018 C   0  0  0  0  0  0  0  0  0  0  0  0
  -15.3823  -43.6711  -18.4891 C   0  0  0  0  0  0  0  0  0  0  0  0
  -14.2303  -43.2830  -19.1869 C   0  0  0  0  0  0  0  0  0  0  0  0
  -14.1303  -43.4771  -20.5665 C   0  0  0  0  0  0  0  0  0  0  0  0
  -15.1746  -44.0774  -21.2692 C   0  0  0  0  0  0  0  0  0  0  0  0
  -16.3059  -44.5486  -20.5729 C   0  0  0  0  0  0  0  0  0  0  0  0
  -16.4008  -44.3396  -19.1880 C   0  0  0  0  0  0  0  0  0  0  0  0
  -18.7461  -46.1739  -23.0848 C   0  0  0  0  0  0  0  0  0  0  0  0
  -18.5250  -47.1308  -22.1199 C   0  0  0  0  0  0  0  0  0  0  0  0
  -17.7029  -46.6404  -21.0677 C   0  0  0  0  0  0  0  0  0  0  0  0
  -17.3324  -45.3258  -21.2747 C   0  0  0  0  0  0  0  0  0  0  0  0
  -18.1893  -44.6397  -22.5967 S   0  0  0  0  0  0  0  0  0  0  0  0
  -14.9864  -44.2399  -16.4774 H   0  0  0  0  0  0  0  0  0  0  0  0
  -16.5636  -43.4632  -16.6982 H   0  0  0  0  0  0  0  0  0  0  0  0
  -16.0925  -41.2567  -17.8653 H   0  0  0  0  0  0  0  0  0  0  0  0
  -14.2723  -42.4747  -23.1200 H   0  0  0  0  0  0  0  0  0  0  0  0
  -13.2669  -43.9671  -23.3342 H   0  0  0  0  0  0  0  0  0  0  0  0
  -14.5893  -43.5962  -24.4446 H   0  0  0  0  0  0  0  0  0  0  0  0
  -13.3884  -42.8177  -18.6731 H   0  0  0  0  0  0  0  0  0  0  0  0
  -13.2102  -43.1809  -21.0651 H   0  0  0  0  0  0  0  0  0  0  0  0
  -17.2854  -44.6928  -18.6623 H   0  0  0  0  0  0  0  0  0  0  0  0
  -19.2469  -46.2947  -24.0363 H   0  0  0  0  0  0  0  0  0  0  0  0
  -18.8616  -48.1555  -22.2133 H   0  0  0  0  0  0  0  0  0  0  0  0
  -17.3113  -47.2592  -20.2708 H   0  0  0  0  0  0  0  0  0  0  0  0
  2  6  1  0
  4  5  2  0
  1  5  1  0
  5  3  1  0
  7 12  2  0
  7  1  1  0
  7  8  1  0
  8  9  2  0
  9 10  1  0
 10 11  2  0
 10  2  1  0
 11 16  1  0
 11 12  1  0
 13 14  2  0
 13 17  1  0
 14 15  1  0
 15 16  2  0
 16 17  1  0
  1 18  1  0
  1 19  1  0
  3 20  1  0
  6 21  1  0
  6 22  1  0
  6 23  1  0
  8 24  1  0
  9 25  1  0
 12 26  1  0
 13 27  1  0
 14 28  1  0
 15 29  1  0
M  END
>  <smiles>  (832) 
[H]OC(=O)C([H])([H])c1c([H])c([H])c(OC([H])([H])[H])c(-c2sc([H])c([H])c2[H])c1[H]

>  <error>  (832) 


>  <∆∆G>  (832) 
-46.882474

>  <∆G_bound>  (832) 
-40.63404

>  <∆G_unbound>  (832) 
6.248434

>  <comRMSD>  (832) 
1.129031

>  <N_constrained_atoms>  (832) 
17.0

>  <N_unconstrained_atoms>  (832) 
0.0

>  <runtime>  (832) 
1.123597

>  <regarded>  (832) 
['6h9r-a', '6h80-a']

>  <disregarded>  (832) 
[]

>  <LE>  (832) 
2.757793

>  <outcome>  (832) 
equally sized

>  <percent_hybrid>  (832) 
0.0

$$$$
LIG
     RDKit          3D

 41 42  0  0  0  0  0  0  0  0999 V2000
  -16.2567  -43.1162  -16.9882 C   0  0  0  0  0  0  0  0  0  0  0  0
  -14.9522  -44.1436  -22.4391 O   0  0  0  0  0  0  0  0  0  0  0  0
  -16.4872  -40.7528  -17.4392 O   0  0  0  0  0  0  0  0  0  0  0  0
  -15.4921  -41.3640  -15.5133 O   0  0  0  0  0  0  0  0  0  0  0  0
  -16.0265  -41.6792  -16.5678 C   0  0  0  0  0  0  0  0  0  0  0  0
  -15.1231  -43.0135  -23.2956 C   0  0  0  0  0  0  0  0  0  0  0  0
  -13.0756  -42.5807  -20.8172 C   0  0  0  0  0  0  0  0  0  0  0  0
  -14.2146  -40.4298  -21.1372 O   0  0  0  0  0  0  0  0  0  0  0  0
  -12.0097  -40.5264  -21.3830 O   0  0  0  0  0  0  0  0  0  0  0  0
  -13.1976  -41.1059  -21.1129 C   0  0  0  0  0  0  0  0  0  0  0  0
  -19.4333  -46.2151  -24.5093 C   0  0  0  0  0  0  0  0  0  0  0  0
  -20.0591  -46.4008  -25.5188 C   0  0  0  0  0  0  0  0  0  0  0  0
  -20.8075  -46.6708  -26.7456 C   0  0  0  0  0  0  0  0  0  0  0  0
  -21.9423  -45.8211  -26.8251 O   0  0  0  0  0  0  0  0  0  0  0  0
  -15.8921  -43.4368  -18.4207 C   0  0  0  0  0  0  0  0  0  0  0  0
  -14.6854  -42.9767  -18.9553 C   0  0  0  0  0  0  0  0  0  0  0  0
  -14.3645  -43.1755  -20.3059 C   0  0  0  0  0  0  0  0  0  0  0  0
  -15.2631  -43.8741  -21.1284 C   0  0  0  0  0  0  0  0  0  0  0  0
  -16.4461  -44.4186  -20.5897 C   0  0  0  0  0  0  0  0  0  0  0  0
  -16.7481  -44.1927  -19.2354 C   0  0  0  0  0  0  0  0  0  0  0  0
  -18.7482  -46.0302  -23.2692 C   0  0  0  0  0  0  0  0  0  0  0  0
  -18.5222  -47.0140  -22.3300 C   0  0  0  0  0  0  0  0  0  0  0  0
  -17.7146  -46.5514  -21.2502 C   0  0  0  0  0  0  0  0  0  0  0  0
  -17.3595  -45.2259  -21.4036 C   0  0  0  0  0  0  0  0  0  0  0  0
  -18.1640  -44.5223  -22.7460 S   0  0  0  0  0  0  0  0  0  0  0  0
  -15.6579  -43.7607  -16.3354 H   0  0  0  0  0  0  0  0  0  0  0  0
  -17.3149  -43.3275  -16.8080 H   0  0  0  0  0  0  0  0  0  0  0  0
  -16.8514  -41.1264  -18.2660 H   0  0  0  0  0  0  0  0  0  0  0  0
  -14.1614  -42.5345  -23.4827 H   0  0  0  0  0  0  0  0  0  0  0  0
  -15.5017  -43.3743  -24.2570 H   0  0  0  0  0  0  0  0  0  0  0  0
  -15.8323  -42.2775  -22.8996 H   0  0  0  0  0  0  0  0  0  0  0  0
  -12.7700  -43.0965  -21.7241 H   0  0  0  0  0  0  0  0  0  0  0  0
  -12.2898  -42.7247  -20.0672 H   0  0  0  0  0  0  0  0  0  0  0  0
  -12.2432  -39.5859  -21.5234 H   0  0  0  0  0  0  0  0  0  0  0  0
  -21.1272  -47.7136  -26.8201 H   0  0  0  0  0  0  0  0  0  0  0  0
  -20.1790  -46.4494  -27.6059 H   0  0  0  0  0  0  0  0  0  0  0  0
  -22.7032  -46.3269  -26.4666 H   0  0  0  0  0  0  0  0  0  0  0  0
  -13.9908  -42.4173  -18.3259 H   0  0  0  0  0  0  0  0  0  0  0  0
  -17.6791  -44.5852  -18.8298 H   0  0  0  0  0  0  0  0  0  0  0  0
  -18.8647  -48.0364  -22.4368 H   0  0  0  0  0  0  0  0  0  0  0  0
  -17.3559  -47.1849  -20.4484 H   0  0  0  0  0  0  0  0  0  0  0  0
  2  6  1  0
  4  5  2  0
  1  5  1  0
  5  3  1  0
  7 10  1  0
  8 10  2  0
 10  9  1  0
 14 13  1  0
 13 12  1  0
 12 11  3  0
 15 20  2  0
 15  1  1  0
 15 16  1  0
 16 17  2  0
 17 18  1  0
 18 19  2  0
 18  2  1  0
 19 24  1  0
 19 20  1  0
 21 22  2  0
 21 25  1  0
 22 23  1  0
 23 24  2  0
 24 25  1  0
  7 17  1  0
 11 21  1  0
  1 26  1  0
  1 27  1  0
  3 28  1  0
  6 29  1  0
  6 30  1  0
  6 31  1  0
  7 32  1  0
  7 33  1  0
  9 34  1  0
 13 35  1  0
 13 36  1  0
 14 37  1  0
 16 38  1  0
 20 39  1  0
 22 40  1  0
 23 41  1  0
M  END
>  <smiles>  (833) 
[H]OC(=O)C([H])([H])c1c([H])c(-c2sc(C#CC([H])([H])O[H])c([H])c2[H])c(OC([H])([H])[H])c(C([H])([H])C(=O)O[H])c1[H]

>  <error>  (833) 


>  <∆∆G>  (833) 
-65.923428

>  <∆G_bound>  (833) 
-2.010207

>  <∆G_unbound>  (833) 
63.913221

>  <comRMSD>  (833) 
1.054601

>  <N_constrained_atoms>  (833) 
25.0

>  <N_unconstrained_atoms>  (833) 
0.0

>  <runtime>  (833) 
3.77165

>  <regarded>  (833) 
['6h9r-a', '5hmy-a']

>  <disregarded>  (833) 
[]

>  <LE>  (833) 
2.636937

>  <outcome>  (833) 
too moved

>  <percent_hybrid>  (833) 
32.0

$$$$
LIG
     RDKit          3D

 47 50  0  0  0  0  0  0  0  0999 V2000
  -12.9691  -43.6774  -19.2426 C   0  0  0  0  0  0  0  0  0  0  0  0
  -11.5295  -42.4577  -17.7463 O   0  0  0  0  0  0  0  0  0  0  0  0
  -13.0790  -43.8215  -16.8482 O   0  0  0  0  0  0  0  0  0  0  0  0
  -12.5444  -43.3356  -17.8377 C   0  0  0  0  0  0  0  0  0  0  0  0
  -16.6926  -37.5794  -26.2418 C   0  0  0  0  0  0  0  0  0  0  0  0
  -17.6827  -38.5143  -26.8742 C   0  0  0  0  0  0  0  0  0  0  0  0
  -18.7700  -38.1452  -27.3142 O   0  0  0  0  0  0  0  0  0  0  0  0
  -17.2438  -39.8249  -26.9845 O   0  0  0  0  0  0  0  0  0  0  0  0
  -14.4541  -43.3399  -19.4347 C   0  0  1  0  0  0  0  0  0  0  0  0
  -14.5147  -41.9052  -19.9618 C   0  0  0  0  0  0  0  0  0  0  0  0
  -15.8811  -41.5126  -20.4894 C   0  0  0  0  0  0  0  0  0  0  0  0
  -16.4040  -42.5265  -21.5331 C   0  0  2  0  0  0  0  0  0  0  0  0
  -16.5590  -43.8919  -20.7899 C   0  0  2  0  0  0  0  0  0  0  0  0
  -15.1578  -44.3697  -20.3402 C   0  0  0  0  0  0  0  0  0  0  0  0
  -18.5652  -46.5164  -22.9993 C   0  0  0  0  0  0  0  0  0  0  0  0
  -18.4332  -47.0684  -21.7507 C   0  0  0  0  0  0  0  0  0  0  0  0
  -17.7216  -46.2151  -20.8646 C   0  0  0  0  0  0  0  0  0  0  0  0
  -17.3209  -45.0287  -21.4628 C   0  0  0  0  0  0  0  0  0  0  0  0
  -17.8681  -44.9734  -23.0789 S   0  0  0  0  0  0  0  0  0  0  0  0
  -15.3845  -42.5970  -22.5770 O   0  0  0  0  0  0  0  0  0  0  0  0
  -15.7791  -41.8261  -23.6422 C   0  0  0  0  0  0  0  0  0  0  0  0
  -17.0905  -41.3749  -23.6681 C   0  0  0  0  0  0  0  0  0  0  0  0
  -17.9486  -41.7925  -22.1985 S   0  0  0  0  0  0  0  0  0  0  0  0
  -16.7288  -40.4044  -25.8150 C   0  0  0  0  0  0  0  0  0  0  0  0
  -17.5927  -40.6864  -24.7601 C   0  0  0  0  0  0  0  0  0  0  0  0
  -14.9181  -41.5353  -24.6862 C   0  0  0  0  0  0  0  0  0  0  0  0
  -15.3900  -40.7990  -25.7789 C   0  0  0  0  0  0  0  0  0  0  0  0
  -12.3464  -43.1427  -19.9672 H   0  0  0  0  0  0  0  0  0  0  0  0
  -12.7721  -44.7350  -19.4193 H   0  0  0  0  0  0  0  0  0  0  0  0
  -11.0629  -42.2924  -18.5984 H   0  0  0  0  0  0  0  0  0  0  0  0
  -16.6448  -37.7287  -25.1615 H   0  0  0  0  0  0  0  0  0  0  0  0
  -15.7153  -37.7211  -26.7077 H   0  0  0  0  0  0  0  0  0  0  0  0
  -17.0034  -36.5483  -26.4366 H   0  0  0  0  0  0  0  0  0  0  0  0
  -14.9847  -43.3592  -18.4730 H   0  0  0  0  0  0  0  0  0  0  0  0
  -14.2215  -41.2069  -19.1676 H   0  0  0  0  0  0  0  0  0  0  0  0
  -13.7852  -41.7621  -20.7700 H   0  0  0  0  0  0  0  0  0  0  0  0
  -16.5816  -41.4201  -19.6485 H   0  0  0  0  0  0  0  0  0  0  0  0
  -15.7767  -40.5113  -20.9295 H   0  0  0  0  0  0  0  0  0  0  0  0
  -17.1410  -43.6933  -19.8749 H   0  0  0  0  0  0  0  0  0  0  0  0
  -14.5389  -44.5805  -21.2224 H   0  0  0  0  0  0  0  0  0  0  0  0
  -15.2296  -45.3176  -19.7914 H   0  0  0  0  0  0  0  0  0  0  0  0
  -19.0295  -46.9616  -23.8691 H   0  0  0  0  0  0  0  0  0  0  0  0
  -18.8169  -48.0464  -21.5038 H   0  0  0  0  0  0  0  0  0  0  0  0
  -17.5056  -46.4658  -19.8335 H   0  0  0  0  0  0  0  0  0  0  0  0
  -18.6362  -40.3914  -24.7954 H   0  0  0  0  0  0  0  0  0  0  0  0
  -13.9078  -41.9187  -24.6771 H   0  0  0  0  0  0  0  0  0  0  0  0
  -14.7336  -40.5828  -26.6170 H   0  0  0  0  0  0  0  0  0  0  0  0
  3  4  2  0
  1  4  1  0
  4  2  1  0
  8  6  1  0
  6  7  2  0
  6  5  1  0
  9 14  1  0
  9  1  1  0
  9 10  1  0
 10 11  1  0
 11 12  1  0
 12 13  1  0
 13 18  1  0
 13 14  1  0
 15 16  2  0
 15 19  1  0
 16 17  1  0
 17 18  2  0
 18 19  1  0
 20 21  1  0
 21 26  2  0
 21 22  1  0
 22 23  1  0
 22 25  2  0
 24 27  2  0
 24 25  1  0
 24  8  1  0
 26 27  1  0
 12 20  1  1
 12 23  1  0
  1 28  1  0
  1 29  1  0
  2 30  1  0
  5 31  1  0
  5 32  1  0
  5 33  1  0
  9 34  1  1
 10 35  1  0
 10 36  1  0
 11 37  1  0
 11 38  1  0
 13 39  1  1
 14 40  1  0
 14 41  1  0
 15 42  1  0
 16 43  1  0
 17 44  1  0
 25 45  1  0
 26 46  1  0
 27 47  1  0
M  END
>  <smiles>  (834) 
[H]OC(=O)C([H])([H])[C@@]1([H])C([H])([H])C([H])([H])[C@]2(Oc3c([H])c([H])c(OC(=O)C([H])([H])[H])c([H])c3S2)[C@@]([H])(c2sc([H])c([H])c2[H])C1([H])[H]

>  <error>  (834) 


>  <∆∆G>  (834) 
-329.55919

>  <∆G_bound>  (834) 
191.458703

>  <∆G_unbound>  (834) 
521.017893

>  <comRMSD>  (834) 
2.141287

>  <N_constrained_atoms>  (834) 
27.0

>  <N_unconstrained_atoms>  (834) 
0.0

>  <runtime>  (834) 
4.908637

>  <regarded>  (834) 
['6h9r-a', '6izx-a']

>  <disregarded>  (834) 
[]

>  <LE>  (834) 
12.205896

>  <outcome>  (834) 
too moved

>  <percent_hybrid>  (834) 
45.0

$$$$
LIG
     RDKit          3D

 55 58  0  0  0  0  0  0  0  0999 V2000
  -15.4319  -43.2941  -17.1030 C   0  0  2  0  0  0  0  0  0  0  0  0
  -15.1991  -44.3850  -22.7482 O   0  0  0  0  0  0  0  0  0  0  0  0
  -14.7409  -40.9350  -16.8770 O   0  0  0  0  0  0  0  0  0  0  0  0
  -16.9187  -41.4020  -16.9630 O   0  0  0  0  0  0  0  0  0  0  0  0
  -15.7625  -41.8148  -16.9516 C   0  0  0  0  0  0  0  0  0  0  0  0
  -14.4324  -43.5197  -23.5711 C   0  0  0  0  0  0  0  0  0  0  0  0
  -21.9418  -45.8153  -26.8397 O   0  0  0  0  0  0  0  0  0  0  0  0
  -19.4475  -46.1932  -24.4868 C   0  0  0  0  0  0  0  0  0  0  0  0
  -20.0659  -46.3779  -25.5030 C   0  0  0  0  0  0  0  0  0  0  0  0
  -20.8041  -46.6605  -26.7367 C   0  0  0  0  0  0  0  0  0  0  0  0
  -14.5844  -45.2680  -15.3409 O   0  0  0  0  0  0  0  0  0  0  0  0
  -14.1586  -43.9911  -15.9948 S   0  0  0  0  0  0  0  0  0  0  0  0
  -12.8942  -42.5724  -18.8625 C   0  0  0  0  0  0  0  0  0  0  0  0
  -15.2390  -43.6612  -18.5937 C   0  0  0  0  0  0  0  0  0  0  0  0
  -14.1110  -43.2934  -19.3693 C   0  0  0  0  0  0  0  0  0  0  0  0
  -14.1011  -43.5480  -20.7549 C   0  0  0  0  0  0  0  0  0  0  0  0
  -15.1799  -44.1370  -21.4006 C   0  0  0  0  0  0  0  0  0  0  0  0
  -16.2912  -44.5578  -20.6551 C   0  0  0  0  0  0  0  0  0  0  0  0
  -16.3093  -44.3216  -19.2644 C   0  0  0  0  0  0  0  0  0  0  0  0
  -18.7838  -46.0264  -23.2250 C   0  0  0  0  0  0  0  0  0  0  0  0
  -18.5747  -47.0256  -22.2948 C   0  0  0  0  0  0  0  0  0  0  0  0
  -17.7702  -46.5919  -21.1965 C   0  0  0  0  0  0  0  0  0  0  0  0
  -17.3715  -45.2791  -21.3459 C   0  0  0  0  0  0  0  0  0  0  0  0
  -18.2250  -44.5257  -22.6425 S   0  0  0  0  0  0  0  0  0  0  0  0
  -14.9956  -42.5053  -13.7799 C   0  0  0  0  0  0  0  0  0  0  0  0
  -14.8274  -41.4788  -12.8560 C   0  0  0  0  0  0  0  0  0  0  0  0
  -13.6461  -40.7367  -12.8468 C   0  0  0  0  0  0  0  0  0  0  0  0
  -12.6172  -41.0208  -13.7598 C   0  0  0  0  0  0  0  0  0  0  0  0
  -12.7772  -42.0515  -14.7006 C   0  0  0  0  0  0  0  0  0  0  0  0
  -13.9800  -42.7681  -14.7028 C   0  0  0  0  0  0  0  0  0  0  0  0
  -11.4201  -40.2906  -13.7816 C   0  0  0  0  0  0  0  0  0  0  0  0
  -10.4319  -40.5919  -14.7104 C   0  0  0  0  0  0  0  0  0  0  0  0
  -10.6795  -41.6063  -15.6059 C   0  0  0  0  0  0  0  0  0  0  0  0
  -11.8276  -42.3130  -15.6287 N   0  0  0  0  0  0  0  0  0  0  0  0
  -16.3407  -43.7975  -16.7566 H   0  0  0  0  0  0  0  0  0  0  0  0
  -13.8363  -41.3007  -16.8730 H   0  0  0  0  0  0  0  0  0  0  0  0
  -14.4718  -42.4768  -23.2390 H   0  0  0  0  0  0  0  0  0  0  0  0
  -13.4058  -43.8882  -23.6233 H   0  0  0  0  0  0  0  0  0  0  0  0
  -14.8543  -43.5585  -24.5794 H   0  0  0  0  0  0  0  0  0  0  0  0
  -22.7079  -46.3253  -26.5061 H   0  0  0  0  0  0  0  0  0  0  0  0
  -21.1199  -47.7051  -26.8034 H   0  0  0  0  0  0  0  0  0  0  0  0
  -20.1676  -46.4484  -27.5935 H   0  0  0  0  0  0  0  0  0  0  0  0
  -13.1035  -41.5107  -18.7239 H   0  0  0  0  0  0  0  0  0  0  0  0
  -12.5084  -43.0301  -17.9562 H   0  0  0  0  0  0  0  0  0  0  0  0
  -12.0705  -42.6262  -19.5831 H   0  0  0  0  0  0  0  0  0  0  0  0
  -13.2134  -43.2919  -21.3313 H   0  0  0  0  0  0  0  0  0  0  0  0
  -17.1969  -44.6181  -18.7065 H   0  0  0  0  0  0  0  0  0  0  0  0
  -18.9140  -48.0461  -22.4257 H   0  0  0  0  0  0  0  0  0  0  0  0
  -17.3957  -47.2541  -20.4257 H   0  0  0  0  0  0  0  0  0  0  0  0
  -15.9212  -43.0781  -13.7920 H   0  0  0  0  0  0  0  0  0  0  0  0
  -15.6195  -41.2538  -12.1448 H   0  0  0  0  0  0  0  0  0  0  0  0
  -13.5337  -39.9350  -12.1192 H   0  0  0  0  0  0  0  0  0  0  0  0
  -11.2521  -39.4856  -13.0692 H   0  0  0  0  0  0  0  0  0  0  0  0
   -9.4973  -40.0424  -14.7319 H   0  0  0  0  0  0  0  0  0  0  0  0
   -9.9430  -41.8748  -16.3555 H   0  0  0  0  0  0  0  0  0  0  0  0
  2  6  1  0
  4  5  2  0
  1  5  1  0
  5  3  1  0
  7 10  1  0
 10  9  1  0
  9  8  3  0
 12 11  2  0
 12  1  1  0
 14 19  1  0
 14  1  1  0
 14 15  2  0
 15 16  1  0
 16 17  2  0
 17 18  1  0
 17  2  1  0
 18 23  1  0
 18 19  2  0
 20 21  2  0
 20 24  1  0
 21 22  1  0
 22 23  2  0
 23 24  1  0
 25 30  2  0
 25 26  1  0
 26 27  2  0
 27 28  1  0
 28 29  2  0
 28 31  1  0
 29 30  1  0
 29 34  1  0
 12 30  1  6
 31 32  2  0
 32 33  1  0
 33 34  2  0
 13 15  1  0
  8 20  1  0
  1 35  1  1
  3 36  1  0
  6 37  1  0
  6 38  1  0
  6 39  1  0
  7 40  1  0
 10 41  1  0
 10 42  1  0
 13 43  1  0
 13 44  1  0
 13 45  1  0
 16 46  1  0
 19 47  1  0
 21 48  1  0
 22 49  1  0
 25 50  1  0
 26 51  1  0
 27 52  1  0
 31 53  1  0
 32 54  1  0
 33 55  1  0
M  END
>  <smiles>  (835) 
[H]OC(=O)[C@@]([H])(c1c([H])c(-c2sc(C#CC([H])([H])O[H])c([H])c2[H])c(OC([H])([H])[H])c([H])c1C([H])([H])[H])[S@@](=O)c1c([H])c([H])c([H])c2c([H])c([H])c([H])nc12

>  <error>  (835) 


>  <∆∆G>  (835) 
-61.930928

>  <∆G_bound>  (835) 
102.304379

>  <∆G_unbound>  (835) 
164.235306

>  <comRMSD>  (835) 
0.934169

>  <N_constrained_atoms>  (835) 
34.0

>  <N_unconstrained_atoms>  (835) 
0.0

>  <runtime>  (835) 
4.018535

>  <regarded>  (835) 
['6h9r-a', '5i3q-a']

>  <disregarded>  (835) 
[]

>  <LE>  (835) 
1.821498

>  <outcome>  (835) 
equally sized

>  <percent_hybrid>  (835) 
50.0

$$$$
LIG
     RDKit          3D

 35 36  0  0  0  0  0  0  0  0999 V2000
  -16.1913  -43.0986  -16.9342 C   0  0  0  0  0  0  0  0  0  0  0  0
  -14.9456  -44.1592  -22.3949 O   0  0  0  0  0  0  0  0  0  0  0  0
  -16.4261  -40.7346  -17.3764 O   0  0  0  0  0  0  0  0  0  0  0  0
  -15.3980  -41.3508  -15.4692 O   0  0  0  0  0  0  0  0  0  0  0  0
  -15.9514  -41.6632  -16.5147 C   0  0  0  0  0  0  0  0  0  0  0  0
  -15.1541  -43.0443  -23.2627 C   0  0  0  0  0  0  0  0  0  0  0  0
  -13.0734  -42.5522  -20.8182 C   0  0  0  0  0  0  0  0  0  0  0  0
  -12.0376  -40.4953  -21.4283 O   0  0  0  0  0  0  0  0  0  0  0  0
  -13.2144  -41.0814  -21.1242 C   0  0  0  0  0  0  0  0  0  0  0  0
  -14.2360  -40.4120  -21.1288 O   0  0  0  0  0  0  0  0  0  0  0  0
  -15.8425  -43.4199  -18.3705 C   0  0  0  0  0  0  0  0  0  0  0  0
  -14.6524  -42.9462  -18.9291 C   0  0  0  0  0  0  0  0  0  0  0  0
  -14.3482  -43.1561  -20.2825 C   0  0  0  0  0  0  0  0  0  0  0  0
  -15.2463  -43.8800  -21.0840 C   0  0  0  0  0  0  0  0  0  0  0  0
  -16.4090  -44.4412  -20.5193 C   0  0  0  0  0  0  0  0  0  0  0  0
  -16.6955  -44.2001  -19.1638 C   0  0  0  0  0  0  0  0  0  0  0  0
  -18.7001  -46.2218  -23.0955 C   0  0  0  0  0  0  0  0  0  0  0  0
  -18.4612  -47.1498  -22.1081 C   0  0  0  0  0  0  0  0  0  0  0  0
  -17.6456  -46.6195  -21.0704 C   0  0  0  0  0  0  0  0  0  0  0  0
  -17.3126  -45.2970  -21.2935 C   0  0  0  0  0  0  0  0  0  0  0  0
  -18.1376  -44.6740  -22.6625 S   0  0  0  0  0  0  0  0  0  0  0  0
  -15.5907  -43.7473  -16.2869 H   0  0  0  0  0  0  0  0  0  0  0  0
  -17.2490  -43.3042  -16.7442 H   0  0  0  0  0  0  0  0  0  0  0  0
  -16.8068  -41.1079  -18.1961 H   0  0  0  0  0  0  0  0  0  0  0  0
  -15.5315  -43.4262  -24.2164 H   0  0  0  0  0  0  0  0  0  0  0  0
  -14.2066  -42.5418  -23.4639 H   0  0  0  0  0  0  0  0  0  0  0  0
  -15.8795  -42.3233  -22.8685 H   0  0  0  0  0  0  0  0  0  0  0  0
  -12.7744  -43.0723  -21.7252 H   0  0  0  0  0  0  0  0  0  0  0  0
  -12.2750  -42.6818  -20.0788 H   0  0  0  0  0  0  0  0  0  0  0  0
  -12.2844  -39.5586  -21.5718 H   0  0  0  0  0  0  0  0  0  0  0  0
  -13.9563  -42.3700  -18.3168 H   0  0  0  0  0  0  0  0  0  0  0  0
  -17.6119  -44.6066  -18.7392 H   0  0  0  0  0  0  0  0  0  0  0  0
  -19.2081  -46.3748  -24.0386 H   0  0  0  0  0  0  0  0  0  0  0  0
  -18.7893  -48.1795  -22.1707 H   0  0  0  0  0  0  0  0  0  0  0  0
  -17.2651  -47.2044  -20.2428 H   0  0  0  0  0  0  0  0  0  0  0  0
  2  6  1  0
  4  5  2  0
  1  5  1  0
  5  3  1  0
  7  9  1  0
 10  9  2  0
  9  8  1  0
 11 16  2  0
 11  1  1  0
 11 12  1  0
 12 13  2  0
 13 14  1  0
 14 15  2  0
 14  2  1  0
 15 20  1  0
 15 16  1  0
 17 18  2  0
 17 21  1  0
 18 19  1  0
 19 20  2  0
 20 21  1  0
  7 13  1  0
  1 22  1  0
  1 23  1  0
  3 24  1  0
  6 25  1  0
  6 26  1  0
  6 27  1  0
  7 28  1  0
  7 29  1  0
  8 30  1  0
 12 31  1  0
 16 32  1  0
 17 33  1  0
 18 34  1  0
 19 35  1  0
M  END
>  <smiles>  (836) 
[H]OC(=O)C([H])([H])c1c([H])c(-c2sc([H])c([H])c2[H])c(OC([H])([H])[H])c(C([H])([H])C(=O)O[H])c1[H]

>  <error>  (836) 


>  <∆∆G>  (836) 
-109.726595

>  <∆G_bound>  (836) 
-43.10615

>  <∆G_unbound>  (836) 
66.620445

>  <comRMSD>  (836) 
1.109396

>  <N_constrained_atoms>  (836) 
21.0

>  <N_unconstrained_atoms>  (836) 
0.0

>  <runtime>  (836) 
1.683769

>  <regarded>  (836) 
['6h9r-a', '5hmx-b']

>  <disregarded>  (836) 
[]

>  <LE>  (836) 
5.225076

>  <outcome>  (836) 
too moved

>  <percent_hybrid>  (836) 
20.0

$$$$
LIG
     RDKit          3D

 58 60  0  0  0  0  0  0  0  0999 V2000
  -15.1759  -43.8523  -17.1663 C   0  0  0  0  0  0  0  0  0  0  0  0
  -15.2811  -44.0631  -22.7832 O   0  0  0  0  0  0  0  0  0  0  0  0
  -17.4412  -43.0873  -16.8923 O   0  0  0  0  0  0  0  0  0  0  0  0
  -15.8917  -42.4578  -15.0731 C   0  0  0  0  0  0  0  0  0  0  0  0
  -16.0724  -42.7617  -16.5867 C   0  0  1  0  0  0  0  0  0  0  0  0
  -14.3095  -43.4106  -23.5731 C   0  0  0  0  0  0  0  0  0  0  0  0
  -13.2692  -42.5355  -18.5858 O   0  0  0  0  0  0  0  0  0  0  0  0
  -12.2877  -41.7687  -19.2726 C   0  0  0  0  0  0  0  0  0  0  0  0
  -17.0355  -41.6958  -14.6628 O   0  0  0  0  0  0  0  0  0  0  0  0
  -19.4061  -46.2798  -24.4968 C   0  0  0  0  0  0  0  0  0  0  0  0
  -20.0127  -46.4540  -25.5202 C   0  0  0  0  0  0  0  0  0  0  0  0
  -20.7481  -46.7132  -26.7572 C   0  0  0  0  0  0  0  0  0  0  0  0
  -21.8528  -45.8264  -26.8684 O   0  0  0  0  0  0  0  0  0  0  0  0
  -14.4567  -44.6377  -16.5593 O   0  0  0  0  0  0  0  0  0  0  0  0
  -15.9540  -43.5953  -14.2671 O   0  0  0  0  0  0  0  0  0  0  0  0
  -12.5166  -38.8270  -15.6198 O   0  0  0  0  0  0  0  0  0  0  0  0
  -13.0795  -38.4945  -16.8814 C   0  0  0  0  0  0  0  0  0  0  0  0
  -15.1732  -43.9166  -18.6427 C   0  0  0  0  0  0  0  0  0  0  0  0
  -14.1745  -43.2305  -19.3436 C   0  0  0  0  0  0  0  0  0  0  0  0
  -14.1827  -43.2847  -20.7380 C   0  0  0  0  0  0  0  0  0  0  0  0
  -15.2014  -43.9671  -21.4183 C   0  0  0  0  0  0  0  0  0  0  0  0
  -16.2273  -44.6274  -20.7022 C   0  0  0  0  0  0  0  0  0  0  0  0
  -16.1897  -44.6169  -19.3042 C   0  0  0  0  0  0  0  0  0  0  0  0
  -18.7480  -46.1135  -23.2387 C   0  0  0  0  0  0  0  0  0  0  0  0
  -18.5436  -47.1061  -22.3036 C   0  0  0  0  0  0  0  0  0  0  0  0
  -17.6946  -46.6768  -21.2398 C   0  0  0  0  0  0  0  0  0  0  0  0
  -17.2822  -45.3694  -21.4103 C   0  0  0  0  0  0  0  0  0  0  0  0
  -18.1797  -44.6147  -22.6741 S   0  0  0  0  0  0  0  0  0  0  0  0
  -12.4121  -40.2479  -13.7821 C   0  0  0  0  0  0  0  0  0  0  0  0
  -12.8641  -41.3192  -13.0231 C   0  0  0  0  0  0  0  0  0  0  0  0
  -13.9697  -42.0420  -13.4557 C   0  0  0  0  0  0  0  0  0  0  0  0
  -14.6453  -41.7064  -14.6492 C   0  0  0  0  0  0  0  0  0  0  0  0
  -14.1846  -40.6067  -15.3826 C   0  0  0  0  0  0  0  0  0  0  0  0
  -13.0627  -39.8930  -14.9642 C   0  0  0  0  0  0  0  0  0  0  0  0
  -17.9041  -43.0919  -16.0238 H   0  0  0  0  0  0  0  0  0  0  0  0
  -15.8857  -41.8463  -17.1571 H   0  0  0  0  0  0  0  0  0  0  0  0
  -14.2571  -42.3412  -23.3468 H   0  0  0  0  0  0  0  0  0  0  0  0
  -13.3433  -43.9072  -23.4568 H   0  0  0  0  0  0  0  0  0  0  0  0
  -14.6112  -43.5061  -24.6192 H   0  0  0  0  0  0  0  0  0  0  0  0
  -11.6189  -41.3326  -18.5249 H   0  0  0  0  0  0  0  0  0  0  0  0
  -11.6876  -42.3874  -19.9428 H   0  0  0  0  0  0  0  0  0  0  0  0
  -12.7576  -40.9473  -19.8236 H   0  0  0  0  0  0  0  0  0  0  0  0
  -16.7190  -41.0450  -14.0126 H   0  0  0  0  0  0  0  0  0  0  0  0
  -21.1028  -47.7449  -26.8261 H   0  0  0  0  0  0  0  0  0  0  0  0
  -20.0973  -46.5218  -27.6073 H   0  0  0  0  0  0  0  0  0  0  0  0
  -22.6179  -46.2806  -26.4547 H   0  0  0  0  0  0  0  0  0  0  0  0
  -16.8738  -43.5967  -13.9519 H   0  0  0  0  0  0  0  0  0  0  0  0
  -14.1093  -38.1389  -16.7714 H   0  0  0  0  0  0  0  0  0  0  0  0
  -12.4907  -37.6738  -17.3028 H   0  0  0  0  0  0  0  0  0  0  0  0
  -13.0217  -39.3345  -17.5805 H   0  0  0  0  0  0  0  0  0  0  0  0
  -13.3904  -42.8099  -21.3028 H   0  0  0  0  0  0  0  0  0  0  0  0
  -16.9634  -45.1202  -18.7316 H   0  0  0  0  0  0  0  0  0  0  0  0
  -18.9056  -48.1206  -22.4162 H   0  0  0  0  0  0  0  0  0  0  0  0
  -17.3168  -47.3366  -20.4683 H   0  0  0  0  0  0  0  0  0  0  0  0
  -11.5404  -39.6858  -13.4563 H   0  0  0  0  0  0  0  0  0  0  0  0
  -12.3504  -41.5979  -12.1073 H   0  0  0  0  0  0  0  0  0  0  0  0
  -14.2973  -42.8843  -12.8482 H   0  0  0  0  0  0  0  0  0  0  0  0
  -14.7186  -40.3030  -16.2750 H   0  0  0  0  0  0  0  0  0  0  0  0
  2  6  1  0
  4  5  1  0
  1  5  1  0
  5  3  1  0
  7  8  1  0
  9  4  1  0
 12 13  1  0
 12 11  1  0
 11 10  3  0
 14  1  2  0
 15  4  1  0
 17 16  1  0
 18 23  1  0
 18  1  1  0
 18 19  2  0
 19 20  1  0
 20 21  2  0
 21 22  1  0
 21  2  1  0
 22 27  1  0
 22 23  2  0
 24 25  2  0
 24 28  1  0
 25 26  1  0
 26 27  2  0
 27 28  1  0
 29 34  2  0
 29 30  1  0
 30 31  2  0
 31 32  1  0
 32 33  2  0
 33 34  1  0
 34 16  1  0
  7 19  1  0
 10 24  1  0
  4 32  1  0
  3 35  1  0
  5 36  1  6
  6 37  1  0
  6 38  1  0
  6 39  1  0
  8 40  1  0
  8 41  1  0
  8 42  1  0
  9 43  1  0
 12 44  1  0
 12 45  1  0
 13 46  1  0
 15 47  1  0
 17 48  1  0
 17 49  1  0
 17 50  1  0
 20 51  1  0
 23 52  1  0
 25 53  1  0
 26 54  1  0
 29 55  1  0
 30 56  1  0
 31 57  1  0
 33 58  1  0
M  END
>  <smiles>  (837) 
[H]OC([H])([H])C#Cc1sc(-c2c([H])c(C(=O)[C@@]([H])(O[H])C(O[H])(O[H])c3c([H])c([H])c([H])c(OC([H])([H])[H])c3[H])c(OC([H])([H])[H])c([H])c2OC([H])([H])[H])c([H])c1[H]

>  <error>  (837) 


>  <∆∆G>  (837) 
-77.537596

>  <∆G_bound>  (837) 
109.398572

>  <∆G_unbound>  (837) 
186.936167

>  <comRMSD>  (837) 
0.683637

>  <N_constrained_atoms>  (837) 
34.0

>  <N_unconstrained_atoms>  (837) 
0.0

>  <runtime>  (837) 
3.323435

>  <regarded>  (837) 
['6h9r-a', '5k5m-a']

>  <disregarded>  (837) 
[]

>  <LE>  (837) 
2.280518

>  <outcome>  (837) 
acceptable

>  <percent_hybrid>  (837) 
50.0

$$$$
LIG
     RDKit          3D

 47 48  0  0  0  0  0  0  0  0999 V2000
  -15.7742  -43.7511  -17.1849 C   0  0  0  0  0  0  0  0  0  0  0  0
  -15.2029  -44.2380  -22.8258 O   0  0  0  0  0  0  0  0  0  0  0  0
  -16.5941  -41.4694  -17.3732 O   0  0  0  0  0  0  0  0  0  0  0  0
  -16.2467  -42.3159  -15.1016 C   0  0  0  0  0  0  0  0  0  0  0  0
  -15.7775  -42.3435  -16.5873 C   0  0  1  0  0  0  0  0  0  0  0  0
  -14.2638  -43.4660  -23.5450 C   0  0  0  0  0  0  0  0  0  0  0  0
  -19.5458  -46.2122  -24.6354 C   0  0  0  0  0  0  0  0  0  0  0  0
  -20.1839  -46.3713  -25.6400 C   0  0  0  0  0  0  0  0  0  0  0  0
  -20.9201  -46.6170  -26.8728 C   0  0  0  0  0  0  0  0  0  0  0  0
  -22.0361  -45.7445  -26.9671 O   0  0  0  0  0  0  0  0  0  0  0  0
  -15.6649  -41.0970  -14.3967 C   0  0  0  0  0  0  0  0  0  0  0  0
  -13.1869  -42.7475  -18.5730 C   0  0  0  0  0  0  0  0  0  0  0  0
  -15.7878  -43.4477  -14.3944 O   0  0  0  0  0  0  0  0  0  0  0  0
  -17.6462  -42.2301  -14.9234 O   0  0  0  0  0  0  0  0  0  0  0  0
  -15.4917  -43.8680  -18.6680 C   0  0  0  0  0  0  0  0  0  0  0  0
  -14.3246  -43.4056  -19.3036 C   0  0  0  0  0  0  0  0  0  0  0  0
  -14.2172  -43.5164  -20.7035 C   0  0  0  0  0  0  0  0  0  0  0  0
  -15.2334  -44.0958  -21.4657 C   0  0  0  0  0  0  0  0  0  0  0  0
  -16.3642  -44.6210  -20.8260 C   0  0  0  0  0  0  0  0  0  0  0  0
  -16.4811  -44.5039  -19.4414 C   0  0  0  0  0  0  0  0  0  0  0  0
  -18.8401  -46.0651  -23.4052 C   0  0  0  0  0  0  0  0  0  0  0  0
  -18.6287  -47.0729  -22.4880 C   0  0  0  0  0  0  0  0  0  0  0  0
  -17.7962  -46.6542  -21.4149 C   0  0  0  0  0  0  0  0  0  0  0  0
  -17.3883  -45.3458  -21.5744 C   0  0  0  0  0  0  0  0  0  0  0  0
  -18.2256  -44.5786  -22.8598 S   0  0  0  0  0  0  0  0  0  0  0  0
  -15.0900  -44.4156  -16.6465 H   0  0  0  0  0  0  0  0  0  0  0  0
  -16.7924  -44.1112  -17.0398 H   0  0  0  0  0  0  0  0  0  0  0  0
  -16.2679  -41.4970  -18.2896 H   0  0  0  0  0  0  0  0  0  0  0  0
  -14.7574  -41.9509  -16.6221 H   0  0  0  0  0  0  0  0  0  0  0  0
  -14.2533  -42.4205  -23.2206 H   0  0  0  0  0  0  0  0  0  0  0  0
  -13.2792  -43.9316  -23.4655 H   0  0  0  0  0  0  0  0  0  0  0  0
  -14.5565  -43.4775  -24.5980 H   0  0  0  0  0  0  0  0  0  0  0  0
  -21.2594  -47.6532  -26.9560 H   0  0  0  0  0  0  0  0  0  0  0  0
  -20.2682  -46.3977  -27.7151 H   0  0  0  0  0  0  0  0  0  0  0  0
  -22.8006  -46.2281  -26.5905 H   0  0  0  0  0  0  0  0  0  0  0  0
  -15.9861  -41.0642  -13.3484 H   0  0  0  0  0  0  0  0  0  0  0  0
  -14.5696  -41.1187  -14.3933 H   0  0  0  0  0  0  0  0  0  0  0  0
  -16.0022  -40.1658  -14.8645 H   0  0  0  0  0  0  0  0  0  0  0  0
  -13.0246  -43.2117  -17.5956 H   0  0  0  0  0  0  0  0  0  0  0  0
  -12.2489  -42.8558  -19.1270 H   0  0  0  0  0  0  0  0  0  0  0  0
  -13.3861  -41.6791  -18.4485 H   0  0  0  0  0  0  0  0  0  0  0  0
  -16.4430  -43.5287  -13.6745 H   0  0  0  0  0  0  0  0  0  0  0  0
  -18.0640  -42.9769  -15.3872 H   0  0  0  0  0  0  0  0  0  0  0  0
  -13.3050  -43.1693  -21.1847 H   0  0  0  0  0  0  0  0  0  0  0  0
  -17.3791  -44.8954  -18.9658 H   0  0  0  0  0  0  0  0  0  0  0  0
  -18.9996  -48.0831  -22.6075 H   0  0  0  0  0  0  0  0  0  0  0  0
  -17.4313  -47.3136  -20.6370 H   0  0  0  0  0  0  0  0  0  0  0  0
  2  6  1  0
  4  5  1  0
  1  5  1  0
  5  3  1  0
 10  9  1  0
  9  8  1  0
  8  7  3  0
 11  4  1  0
 13  4  1  0
 14  4  1  0
 15 20  2  0
 15  1  1  0
 15 16  1  0
 16 17  2  0
 17 18  1  0
 18 19  2  0
 18  2  1  0
 19 24  1  0
 19 20  1  0
 21 22  2  0
 21 25  1  0
 22 23  1  0
 23 24  2  0
 24 25  1  0
 12 16  1  0
  7 21  1  0
  1 26  1  0
  1 27  1  0
  3 28  1  0
  5 29  1  1
  6 30  1  0
  6 31  1  0
  6 32  1  0
  9 33  1  0
  9 34  1  0
 10 35  1  0
 11 36  1  0
 11 37  1  0
 11 38  1  0
 12 39  1  0
 12 40  1  0
 12 41  1  0
 13 42  1  0
 14 43  1  0
 17 44  1  0
 20 45  1  0
 22 46  1  0
 23 47  1  0
M  END
>  <smiles>  (838) 
[H]OC([H])([H])C#Cc1sc(-c2c([H])c(C([H])([H])[C@@]([H])(O[H])C(O[H])(O[H])C([H])([H])[H])c(C([H])([H])[H])c([H])c2OC([H])([H])[H])c([H])c1[H]

>  <error>  (838) 


>  <∆∆G>  (838) 
-33.106857

>  <∆G_bound>  (838) 
52.410476

>  <∆G_unbound>  (838) 
85.517333

>  <comRMSD>  (838) 
0.740655

>  <N_constrained_atoms>  (838) 
25.0

>  <N_unconstrained_atoms>  (838) 
0.0

>  <runtime>  (838) 
1.65451

>  <regarded>  (838) 
['6h9r-a', '5hmz-a']

>  <disregarded>  (838) 
[]

>  <LE>  (838) 
1.324274

>  <outcome>  (838) 
equally sized

>  <percent_hybrid>  (838) 
32.0

$$$$
LIG
     RDKit          3D

 35 36  0  0  0  0  0  0  0  0999 V2000
  -16.5113  -42.8010  -17.0082 C   0  0  0  0  0  0  0  0  0  0  0  0
  -14.9262  -44.1943  -22.3054 O   0  0  0  0  0  0  0  0  0  0  0  0
  -18.5695  -42.0505  -16.0061 O   0  0  0  0  0  0  0  0  0  0  0  0
  -17.7896  -40.8833  -17.7609 O   0  0  0  0  0  0  0  0  0  0  0  0
  -17.6691  -41.8269  -16.9923 C   0  0  0  0  0  0  0  0  0  0  0  0
  -15.1113  -43.1266  -23.2371 C   0  0  0  0  0  0  0  0  0  0  0  0
  -14.1457  -40.4242  -21.3948 O   0  0  0  0  0  0  0  0  0  0  0  0
  -11.9380  -40.5607  -21.2636 O   0  0  0  0  0  0  0  0  0  0  0  0
  -13.1674  -41.1065  -21.1387 C   0  0  0  0  0  0  0  0  0  0  0  0
  -13.1210  -42.5494  -20.7054 C   0  0  0  0  0  0  0  0  0  0  0  0
  -16.0664  -43.2239  -18.3914 C   0  0  0  0  0  0  0  0  0  0  0  0
  -14.8535  -42.7597  -18.9116 C   0  0  0  0  0  0  0  0  0  0  0  0
  -14.4513  -43.0730  -20.2213 C   0  0  0  0  0  0  0  0  0  0  0  0
  -15.3010  -43.8464  -21.0300 C   0  0  0  0  0  0  0  0  0  0  0  0
  -16.4993  -44.3715  -20.5075 C   0  0  0  0  0  0  0  0  0  0  0  0
  -16.8687  -44.0536  -19.1890 C   0  0  0  0  0  0  0  0  0  0  0  0
  -18.6952  -46.2431  -23.1014 C   0  0  0  0  0  0  0  0  0  0  0  0
  -18.4537  -47.1508  -22.0958 C   0  0  0  0  0  0  0  0  0  0  0  0
  -17.6671  -46.5881  -21.0529 C   0  0  0  0  0  0  0  0  0  0  0  0
  -17.3597  -45.2623  -21.2898 C   0  0  0  0  0  0  0  0  0  0  0  0
  -18.1591  -44.6795  -22.6906 S   0  0  0  0  0  0  0  0  0  0  0  0
  -15.6855  -42.3387  -16.4549 H   0  0  0  0  0  0  0  0  0  0  0  0
  -16.7800  -43.6999  -16.4626 H   0  0  0  0  0  0  0  0  0  0  0  0
  -18.4506  -42.8467  -15.4349 H   0  0  0  0  0  0  0  0  0  0  0  0
  -15.8666  -42.3999  -22.9162 H   0  0  0  0  0  0  0  0  0  0  0  0
  -14.1624  -42.6181  -23.4137 H   0  0  0  0  0  0  0  0  0  0  0  0
  -15.4337  -43.5621  -24.1880 H   0  0  0  0  0  0  0  0  0  0  0  0
  -12.1403  -39.6401  -21.5304 H   0  0  0  0  0  0  0  0  0  0  0  0
  -12.7675  -43.1504  -21.5419 H   0  0  0  0  0  0  0  0  0  0  0  0
  -12.3870  -42.6504  -19.8969 H   0  0  0  0  0  0  0  0  0  0  0  0
  -14.2182  -42.1185  -18.3011 H   0  0  0  0  0  0  0  0  0  0  0  0
  -17.8174  -44.4231  -18.8046 H   0  0  0  0  0  0  0  0  0  0  0  0
  -19.1894  -46.4200  -24.0477 H   0  0  0  0  0  0  0  0  0  0  0  0
  -18.7632  -48.1867  -22.1466 H   0  0  0  0  0  0  0  0  0  0  0  0
  -17.2926  -47.1495  -20.2069 H   0  0  0  0  0  0  0  0  0  0  0  0
  2  6  1  0
  4  5  2  0
  1  5  1  0
  5  3  1  0
 10  9  1  0
  7  9  2  0
  9  8  1  0
 11 16  2  0
 11  1  1  0
 11 12  1  0
 12 13  2  0
 13 14  1  0
 14 15  2  0
 14  2  1  0
 15 20  1  0
 15 16  1  0
 17 18  2  0
 17 21  1  0
 18 19  1  0
 19 20  2  0
 20 21  1  0
 10 13  1  0
  1 22  1  0
  1 23  1  0
  3 24  1  0
  6 25  1  0
  6 26  1  0
  6 27  1  0
  8 28  1  0
 10 29  1  0
 10 30  1  0
 12 31  1  0
 16 32  1  0
 17 33  1  0
 18 34  1  0
 19 35  1  0
M  END
>  <smiles>  (839) 
[H]OC(=O)C([H])([H])c1c([H])c(-c2sc([H])c([H])c2[H])c(OC([H])([H])[H])c(C([H])([H])C(=O)O[H])c1[H]

>  <error>  (839) 


>  <∆∆G>  (839) 
-68.474203

>  <∆G_bound>  (839) 
-23.650832

>  <∆G_unbound>  (839) 
44.823371

>  <comRMSD>  (839) 
1.344511

>  <N_constrained_atoms>  (839) 
21.0

>  <N_unconstrained_atoms>  (839) 
0.0

>  <runtime>  (839) 
1.704085

>  <regarded>  (839) 
['6h9r-a', '5hmw-b']

>  <disregarded>  (839) 
[]

>  <LE>  (839) 
3.260676

>  <outcome>  (839) 
too moved

>  <percent_hybrid>  (839) 
20.0

$$$$
LIG
     RDKit          3D

 29 30  0  0  0  0  0  0  0  0999 V2000
  -15.5113  -43.4330  -17.0014 C   0  0  0  0  0  0  0  0  0  0  0  0
  -15.1639  -44.2986  -22.6206 O   0  0  0  0  0  0  0  0  0  0  0  0
  -15.4682  -41.0304  -17.1478 O   0  0  0  0  0  0  0  0  0  0  0  0
  -14.1457  -42.0150  -15.6065 O   0  0  0  0  0  0  0  0  0  0  0  0
  -14.9624  -42.1121  -16.5116 C   0  0  0  0  0  0  0  0  0  0  0  0
  -14.2663  -43.5327  -23.4018 C   0  0  0  0  0  0  0  0  0  0  0  0
  -15.3823  -43.6711  -18.4891 C   0  0  0  0  0  0  0  0  0  0  0  0
  -14.2303  -43.2830  -19.1869 C   0  0  0  0  0  0  0  0  0  0  0  0
  -14.1303  -43.4771  -20.5665 C   0  0  0  0  0  0  0  0  0  0  0  0
  -15.1746  -44.0774  -21.2692 C   0  0  0  0  0  0  0  0  0  0  0  0
  -16.3059  -44.5486  -20.5729 C   0  0  0  0  0  0  0  0  0  0  0  0
  -16.4008  -44.3396  -19.1880 C   0  0  0  0  0  0  0  0  0  0  0  0
  -18.7461  -46.1739  -23.0848 C   0  0  0  0  0  0  0  0  0  0  0  0
  -18.5250  -47.1308  -22.1199 C   0  0  0  0  0  0  0  0  0  0  0  0
  -17.7029  -46.6404  -21.0677 C   0  0  0  0  0  0  0  0  0  0  0  0
  -17.3324  -45.3258  -21.2747 C   0  0  0  0  0  0  0  0  0  0  0  0
  -18.1893  -44.6397  -22.5967 S   0  0  0  0  0  0  0  0  0  0  0  0
  -14.9864  -44.2399  -16.4774 H   0  0  0  0  0  0  0  0  0  0  0  0
  -16.5636  -43.4632  -16.6982 H   0  0  0  0  0  0  0  0  0  0  0  0
  -16.0925  -41.2567  -17.8653 H   0  0  0  0  0  0  0  0  0  0  0  0
  -14.2723  -42.4747  -23.1200 H   0  0  0  0  0  0  0  0  0  0  0  0
  -13.2669  -43.9671  -23.3342 H   0  0  0  0  0  0  0  0  0  0  0  0
  -14.5893  -43.5962  -24.4446 H   0  0  0  0  0  0  0  0  0  0  0  0
  -13.3884  -42.8177  -18.6731 H   0  0  0  0  0  0  0  0  0  0  0  0
  -13.2102  -43.1809  -21.0651 H   0  0  0  0  0  0  0  0  0  0  0  0
  -17.2854  -44.6928  -18.6623 H   0  0  0  0  0  0  0  0  0  0  0  0
  -19.2469  -46.2947  -24.0363 H   0  0  0  0  0  0  0  0  0  0  0  0
  -18.8616  -48.1555  -22.2133 H   0  0  0  0  0  0  0  0  0  0  0  0
  -17.3113  -47.2592  -20.2708 H   0  0  0  0  0  0  0  0  0  0  0  0
  2  6  1  0
  4  5  2  0
  1  5  1  0
  5  3  1  0
  7 12  2  0
  7  1  1  0
  7  8  1  0
  8  9  2  0
  9 10  1  0
 10 11  2  0
 10  2  1  0
 11 16  1  0
 11 12  1  0
 13 14  2  0
 13 17  1  0
 14 15  1  0
 15 16  2  0
 16 17  1  0
  1 18  1  0
  1 19  1  0
  3 20  1  0
  6 21  1  0
  6 22  1  0
  6 23  1  0
  8 24  1  0
  9 25  1  0
 12 26  1  0
 13 27  1  0
 14 28  1  0
 15 29  1  0
M  END
>  <smiles>  (840) 
[H]OC(=O)C([H])([H])c1c([H])c([H])c(OC([H])([H])[H])c(-c2sc([H])c([H])c2[H])c1[H]

>  <error>  (840) 


>  <∆∆G>  (840) 
-46.882474

>  <∆G_bound>  (840) 
-40.63404

>  <∆G_unbound>  (840) 
6.248434

>  <comRMSD>  (840) 
1.129031

>  <N_constrained_atoms>  (840) 
17.0

>  <N_unconstrained_atoms>  (840) 
0.0

>  <runtime>  (840) 
1.07937

>  <regarded>  (840) 
['6h9r-a', '5f3z-a']

>  <disregarded>  (840) 
[]

>  <LE>  (840) 
2.757793

>  <outcome>  (840) 
equally sized

>  <percent_hybrid>  (840) 
0.0

$$$$
LIG
     RDKit          3D

 29 30  0  0  0  0  0  0  0  0999 V2000
  -15.5113  -43.4330  -17.0014 C   0  0  0  0  0  0  0  0  0  0  0  0
  -15.1639  -44.2986  -22.6206 O   0  0  0  0  0  0  0  0  0  0  0  0
  -15.4682  -41.0304  -17.1478 O   0  0  0  0  0  0  0  0  0  0  0  0
  -14.1457  -42.0150  -15.6065 O   0  0  0  0  0  0  0  0  0  0  0  0
  -14.9624  -42.1121  -16.5116 C   0  0  0  0  0  0  0  0  0  0  0  0
  -14.2663  -43.5327  -23.4018 C   0  0  0  0  0  0  0  0  0  0  0  0
  -15.3823  -43.6711  -18.4891 C   0  0  0  0  0  0  0  0  0  0  0  0
  -14.2303  -43.2830  -19.1869 C   0  0  0  0  0  0  0  0  0  0  0  0
  -14.1303  -43.4771  -20.5665 C   0  0  0  0  0  0  0  0  0  0  0  0
  -15.1746  -44.0774  -21.2692 C   0  0  0  0  0  0  0  0  0  0  0  0
  -16.3059  -44.5486  -20.5729 C   0  0  0  0  0  0  0  0  0  0  0  0
  -16.4008  -44.3396  -19.1880 C   0  0  0  0  0  0  0  0  0  0  0  0
  -18.7461  -46.1739  -23.0848 C   0  0  0  0  0  0  0  0  0  0  0  0
  -18.5250  -47.1308  -22.1199 C   0  0  0  0  0  0  0  0  0  0  0  0
  -17.7029  -46.6404  -21.0677 C   0  0  0  0  0  0  0  0  0  0  0  0
  -17.3324  -45.3258  -21.2747 C   0  0  0  0  0  0  0  0  0  0  0  0
  -18.1893  -44.6397  -22.5967 S   0  0  0  0  0  0  0  0  0  0  0  0
  -14.9864  -44.2399  -16.4774 H   0  0  0  0  0  0  0  0  0  0  0  0
  -16.5636  -43.4632  -16.6982 H   0  0  0  0  0  0  0  0  0  0  0  0
  -16.0925  -41.2567  -17.8653 H   0  0  0  0  0  0  0  0  0  0  0  0
  -14.2723  -42.4747  -23.1200 H   0  0  0  0  0  0  0  0  0  0  0  0
  -13.2669  -43.9671  -23.3342 H   0  0  0  0  0  0  0  0  0  0  0  0
  -14.5893  -43.5962  -24.4446 H   0  0  0  0  0  0  0  0  0  0  0  0
  -13.3884  -42.8177  -18.6731 H   0  0  0  0  0  0  0  0  0  0  0  0
  -13.2102  -43.1809  -21.0651 H   0  0  0  0  0  0  0  0  0  0  0  0
  -17.2854  -44.6928  -18.6623 H   0  0  0  0  0  0  0  0  0  0  0  0
  -19.2469  -46.2947  -24.0363 H   0  0  0  0  0  0  0  0  0  0  0  0
  -18.8616  -48.1555  -22.2133 H   0  0  0  0  0  0  0  0  0  0  0  0
  -17.3113  -47.2592  -20.2708 H   0  0  0  0  0  0  0  0  0  0  0  0
  2  6  1  0
  4  5  2  0
  1  5  1  0
  5  3  1  0
  7 12  2  0
  7  1  1  0
  7  8  1  0
  8  9  2  0
  9 10  1  0
 10 11  2  0
 10  2  1  0
 11 16  1  0
 11 12  1  0
 13 14  2  0
 13 17  1  0
 14 15  1  0
 15 16  2  0
 16 17  1  0
  1 18  1  0
  1 19  1  0
  3 20  1  0
  6 21  1  0
  6 22  1  0
  6 23  1  0
  8 24  1  0
  9 25  1  0
 12 26  1  0
 13 27  1  0
 14 28  1  0
 15 29  1  0
M  END
>  <smiles>  (841) 
[H]OC(=O)C([H])([H])c1c([H])c([H])c(OC([H])([H])[H])c(-c2sc([H])c([H])c2[H])c1[H]

>  <error>  (841) 


>  <∆∆G>  (841) 
-46.882474

>  <∆G_bound>  (841) 
-40.63404

>  <∆G_unbound>  (841) 
6.248434

>  <comRMSD>  (841) 
1.129031

>  <N_constrained_atoms>  (841) 
17.0

>  <N_unconstrained_atoms>  (841) 
0.0

>  <runtime>  (841) 
1.024888

>  <regarded>  (841) 
['6h9r-a', '5f3t-a']

>  <disregarded>  (841) 
[]

>  <LE>  (841) 
2.757793

>  <outcome>  (841) 
equally sized

>  <percent_hybrid>  (841) 
0.0

$$$$

     RDKit          2D

  0  0  0  0  0  0  0  0  0  0999 V2000
M  END
>  <smiles>  (842) 
nan

>  <error>  (842) 
DistanceError 6.38 Å

>  <∆∆G>  (842) 
nan

>  <∆G_bound>  (842) 
nan

>  <∆G_unbound>  (842) 
nan

>  <comRMSD>  (842) 
nan

>  <N_constrained_atoms>  (842) 
nan

>  <N_unconstrained_atoms>  (842) 
nan

>  <runtime>  (842) 
nan

>  <regarded>  (842) 
[]

>  <disregarded>  (842) 
[]

>  <LE>  (842) 
nan

>  <outcome>  (842) 
too distant

>  <percent_hybrid>  (842) 
nan

$$$$
LIG
     RDKit          3D

 49 52  0  0  0  0  0  0  0  0999 V2000
  -13.0124  -43.9097  -15.8164 O   0  0  0  0  0  0  0  0  0  0  0  0
  -14.2894  -42.0473  -15.9102 O   0  0  0  0  0  0  0  0  0  0  0  0
  -14.0502  -43.3539  -16.1530 C   0  0  0  0  0  0  0  0  0  0  0  0
  -15.1433  -44.0504  -16.9266 C   0  0  0  0  0  0  0  0  0  0  0  0
  -15.1139  -42.8381  -22.5074 N   0  0  0  0  0  0  0  0  0  0  0  0
  -14.6103  -43.7980  -23.5091 C   0  0  0  0  0  0  0  0  0  0  0  0
  -15.0496  -43.4844  -21.2129 C   0  0  0  0  0  0  0  0  0  0  0  0
  -13.8882  -43.3206  -20.4393 C   0  0  0  0  0  0  0  0  0  0  0  0
  -13.8898  -43.5243  -19.0662 C   0  0  0  0  0  0  0  0  0  0  0  0
  -15.0512  -43.9421  -18.4260 C   0  0  0  0  0  0  0  0  0  0  0  0
  -16.1314  -44.3501  -19.2255 C   0  0  0  0  0  0  0  0  0  0  0  0
  -16.1303  -44.1988  -20.6335 C   0  0  0  0  0  0  0  0  0  0  0  0
  -18.6880  -45.1156  -23.2894 C   0  0  0  0  0  0  0  0  0  0  0  0
  -17.9125  -44.3402  -22.4257 C   0  0  0  0  0  0  0  0  0  0  0  0
  -17.1540  -44.9318  -21.4136 C   0  0  0  0  0  0  0  0  0  0  0  0
  -17.3177  -46.3178  -21.2000 C   0  0  0  0  0  0  0  0  0  0  0  0
  -18.1268  -47.0899  -22.0276 C   0  0  0  0  0  0  0  0  0  0  0  0
  -18.7466  -46.4960  -23.1171 C   0  0  0  0  0  0  0  0  0  0  0  0
  -14.7067  -41.5152  -22.7063 C   0  0  0  0  0  0  0  0  0  0  0  0
  -14.1004  -40.6817  -21.7870 C   0  0  0  0  0  0  0  0  0  0  0  0
  -13.7921  -39.5271  -22.4296 N   0  0  0  0  0  0  0  0  0  0  0  0
  -14.2587  -39.4690  -23.6767 N   0  0  0  0  0  0  0  0  0  0  0  0
  -14.8793  -40.6540  -23.8555 C   0  0  0  0  0  0  0  0  0  0  0  0
  -16.9236  -41.4884  -24.9575 C   0  0  0  0  0  0  0  0  0  0  0  0
  -15.6886  -40.8537  -25.0550 C   0  0  0  0  0  0  0  0  0  0  0  0
  -15.3039  -40.3278  -26.2870 C   0  0  0  0  0  0  0  0  0  0  0  0
  -16.1581  -40.4886  -27.3643 C   0  0  0  0  0  0  0  0  0  0  0  0
  -17.3566  -41.1096  -27.2936 N   0  0  0  0  0  0  0  0  0  0  0  0
  -17.7108  -41.5891  -26.0852 C   0  0  0  0  0  0  0  0  0  0  0  0
  -15.1384  -41.7256  -16.2722 H   0  0  0  0  0  0  0  0  0  0  0  0
  -15.0955  -45.1092  -16.6544 H   0  0  0  0  0  0  0  0  0  0  0  0
  -16.1075  -43.6611  -16.5809 H   0  0  0  0  0  0  0  0  0  0  0  0
  -15.1588  -44.7429  -23.4541 H   0  0  0  0  0  0  0  0  0  0  0  0
  -13.5445  -44.0086  -23.3626 H   0  0  0  0  0  0  0  0  0  0  0  0
  -14.7408  -43.4296  -24.5304 H   0  0  0  0  0  0  0  0  0  0  0  0
  -12.9687  -42.9662  -20.9057 H   0  0  0  0  0  0  0  0  0  0  0  0
  -12.9681  -43.3099  -18.5261 H   0  0  0  0  0  0  0  0  0  0  0  0
  -17.0015  -44.8023  -18.7513 H   0  0  0  0  0  0  0  0  0  0  0  0
  -19.2204  -44.6461  -24.1106 H   0  0  0  0  0  0  0  0  0  0  0  0
  -17.8581  -43.2675  -22.5665 H   0  0  0  0  0  0  0  0  0  0  0  0
  -16.7544  -46.8217  -20.4189 H   0  0  0  0  0  0  0  0  0  0  0  0
  -18.2017  -48.1633  -21.8789 H   0  0  0  0  0  0  0  0  0  0  0  0
  -19.2763  -47.1196  -23.8329 H   0  0  0  0  0  0  0  0  0  0  0  0
  -13.8195  -40.8003  -20.7533 H   0  0  0  0  0  0  0  0  0  0  0  0
  -17.2872  -41.8528  -24.0090 H   0  0  0  0  0  0  0  0  0  0  0  0
  -14.3638  -39.7982  -26.4046 H   0  0  0  0  0  0  0  0  0  0  0  0
  -15.9000  -40.1095  -28.3473 H   0  0  0  0  0  0  0  0  0  0  0  0
  -18.6897  -42.0540  -26.0371 H   0  0  0  0  0  0  0  0  0  0  0  0
  -13.2953  -38.7243  -22.0586 H   0  0  0  0  0  0  0  0  0  0  0  0
  5  6  1  0
  1  3  2  0
  4  3  1  0
  3  2  1  0
  7 12  1  0
  7  5  1  0
  7  8  2  0
  8  9  1  0
  9 10  2  0
 10 11  1  0
 10  4  1  0
 11 12  2  0
 12 15  1  0
 13 18  2  0
 13 14  1  0
 14 15  2  0
 15 16  1  0
 16 17  2  0
 17 18  1  0
 19 20  2  0
 19 23  1  0
 20 21  1  0
 21 22  1  0
 22 23  2  0
 23 25  1  0
 24 29  2  0
 24 25  1  0
 25 26  2  0
 26 27  1  0
 27 28  2  0
 28 29  1  0
  5 19  1  0
  2 30  1  0
  4 31  1  0
  4 32  1  0
  6 33  1  0
  6 34  1  0
  6 35  1  0
  8 36  1  0
  9 37  1  0
 11 38  1  0
 13 39  1  0
 14 40  1  0
 16 41  1  0
 17 42  1  0
 18 43  1  0
 20 44  1  0
 24 45  1  0
 26 46  1  0
 27 47  1  0
 29 48  1  0
 21 49  1  0
M  END
>  <smiles>  (843) 
[H]OC(=O)C([H])([H])c1c([H])c([H])c(N(c2c(-c3c([H])c([H])nc([H])c3[H])n[nH]c2[H])C([H])([H])[H])c(-c2c([H])c([H])c([H])c([H])c2[H])c1[H]

>  <error>  (843) 


>  <∆∆G>  (843) 
-75.658054

>  <∆G_bound>  (843) 
159.973418

>  <∆G_unbound>  (843) 
235.631472

>  <comRMSD>  (843) 
1.185225

>  <N_constrained_atoms>  (843) 
29.0

>  <N_unconstrained_atoms>  (843) 
0.0

>  <runtime>  (843) 
3.645523

>  <regarded>  (843) 
['5f3t-a', 'd0160a']

>  <disregarded>  (843) 
[]

>  <LE>  (843) 
2.608898

>  <outcome>  (843) 
too moved

>  <percent_hybrid>  (843) 
38.0

$$$$
LIG
     RDKit          3D

 49 52  0  0  0  0  0  0  0  0999 V2000
  -13.9326  -44.4316  -16.7504 O   0  0  0  0  0  0  0  0  0  0  0  0
  -15.1431  -43.6197  -15.0428 O   0  0  0  0  0  0  0  0  0  0  0  0
  -14.8673  -43.7458  -16.3627 C   0  0  0  0  0  0  0  0  0  0  0  0
  -15.8174  -42.9666  -17.2465 C   0  0  0  0  0  0  0  0  0  0  0  0
  -15.1578  -43.8123  -22.8491 O   0  0  0  0  0  0  0  0  0  0  0  0
  -15.1742  -39.8023  -25.6996 C   0  0  0  0  0  0  0  0  0  0  0  0
  -15.3589  -43.5610  -21.5091 C   0  0  0  0  0  0  0  0  0  0  0  0
  -14.4092  -42.8293  -20.7984 C   0  0  0  0  0  0  0  0  0  0  0  0
  -14.5506  -42.6506  -19.4192 C   0  0  0  0  0  0  0  0  0  0  0  0
  -15.6357  -43.2102  -18.7294 C   0  0  0  0  0  0  0  0  0  0  0  0
  -16.5517  -43.9973  -19.4418 C   0  0  0  0  0  0  0  0  0  0  0  0
  -16.4220  -44.1975  -20.8300 C   0  0  0  0  0  0  0  0  0  0  0  0
  -18.8194  -45.5833  -23.3814 C   0  0  0  0  0  0  0  0  0  0  0  0
  -18.1265  -44.6732  -22.5928 C   0  0  0  0  0  0  0  0  0  0  0  0
  -17.3405  -45.1125  -21.5195 C   0  0  0  0  0  0  0  0  0  0  0  0
  -17.3834  -46.4689  -21.1638 C   0  0  0  0  0  0  0  0  0  0  0  0
  -18.1150  -47.3725  -21.9238 C   0  0  0  0  0  0  0  0  0  0  0  0
  -18.7790  -46.9376  -23.0641 C   0  0  0  0  0  0  0  0  0  0  0  0
  -15.0398  -41.5868  -23.9044 C   0  0  0  0  0  0  0  0  0  0  0  0
  -15.4524  -42.8982  -23.8044 C   0  0  0  0  0  0  0  0  0  0  0  0
  -16.1808  -43.1975  -24.9746 C   0  0  0  0  0  0  0  0  0  0  0  0
  -16.2018  -42.0769  -25.7663 C   0  0  0  0  0  0  0  0  0  0  0  0
  -15.4837  -41.1048  -25.1194 N   0  0  0  0  0  0  0  0  0  0  0  0
  -17.1960  -38.7161  -26.7730 C   0  0  0  0  0  0  0  0  0  0  0  0
  -16.3706  -38.8910  -25.6626 C   0  0  0  0  0  0  0  0  0  0  0  0
  -16.7117  -38.2000  -24.4969 C   0  0  0  0  0  0  0  0  0  0  0  0
  -17.8307  -37.3747  -24.4858 C   0  0  0  0  0  0  0  0  0  0  0  0
  -18.5879  -37.2765  -25.6418 C   0  0  0  0  0  0  0  0  0  0  0  0
  -18.3046  -37.9309  -26.7900 N   0  0  0  0  0  0  0  0  0  0  0  0
  -15.9966  -43.1807  -14.8455 H   0  0  0  0  0  0  0  0  0  0  0  0
  -16.8439  -43.2252  -16.9616 H   0  0  0  0  0  0  0  0  0  0  0  0
  -15.6776  -41.8982  -17.0441 H   0  0  0  0  0  0  0  0  0  0  0  0
  -14.3408  -39.3747  -25.1332 H   0  0  0  0  0  0  0  0  0  0  0  0
  -14.8247  -39.9707  -26.7247 H   0  0  0  0  0  0  0  0  0  0  0  0
  -13.5367  -42.4307  -21.3103 H   0  0  0  0  0  0  0  0  0  0  0  0
  -13.7920  -42.0783  -18.8874 H   0  0  0  0  0  0  0  0  0  0  0  0
  -17.3869  -44.4608  -18.9204 H   0  0  0  0  0  0  0  0  0  0  0  0
  -19.3698  -45.2408  -24.2520 H   0  0  0  0  0  0  0  0  0  0  0  0
  -18.1448  -43.6184  -22.8569 H   0  0  0  0  0  0  0  0  0  0  0  0
  -16.7879  -46.8371  -20.3334 H   0  0  0  0  0  0  0  0  0  0  0  0
  -18.0878  -48.4309  -21.6919 H   0  0  0  0  0  0  0  0  0  0  0  0
  -19.2629  -47.6668  -23.7087 H   0  0  0  0  0  0  0  0  0  0  0  0
  -14.4296  -40.9791  -23.2521 H   0  0  0  0  0  0  0  0  0  0  0  0
  -16.6255  -44.1427  -25.2214 H   0  0  0  0  0  0  0  0  0  0  0  0
  -16.6244  -41.9108  -26.7466 H   0  0  0  0  0  0  0  0  0  0  0  0
  -16.9828  -39.2165  -27.7155 H   0  0  0  0  0  0  0  0  0  0  0  0
  -16.1120  -38.3054  -23.5960 H   0  0  0  0  0  0  0  0  0  0  0  0
  -18.1116  -36.8283  -23.5922 H   0  0  0  0  0  0  0  0  0  0  0  0
  -19.4737  -36.6484  -25.6706 H   0  0  0  0  0  0  0  0  0  0  0  0
  1  3  2  0
  4  3  1  0
  3  2  1  0
  7 12  1  0
  7  5  1  0
  7  8  2  0
  8  9  1  0
  9 10  2  0
 10 11  1  0
 10  4  1  0
 11 12  2  0
 12 15  1  0
 13 18  2  0
 13 14  1  0
 14 15  2  0
 15 16  1  0
 16 17  2  0
 17 18  1  0
 19 20  2  0
 19 23  1  0
 20 21  1  0
 21 22  2  0
 22 23  1  0
 23  6  1  0
 24 29  2  0
 24 25  1  0
 25  6  1  0
 25 26  2  0
 26 27  1  0
 27 28  2  0
 28 29  1  0
 20  5  1  0
  2 30  1  0
  4 31  1  0
  4 32  1  0
  6 33  1  0
  6 34  1  0
  8 35  1  0
  9 36  1  0
 11 37  1  0
 13 38  1  0
 14 39  1  0
 16 40  1  0
 17 41  1  0
 18 42  1  0
 19 43  1  0
 21 44  1  0
 22 45  1  0
 24 46  1  0
 26 47  1  0
 27 48  1  0
 28 49  1  0
M  END
>  <smiles>  (844) 
[H]OC(=O)C([H])([H])c1c([H])c([H])c(Oc2c([H])c([H])n(C([H])([H])c3c([H])nc([H])c([H])c3[H])c2[H])c(-c2c([H])c([H])c([H])c([H])c2[H])c1[H]

>  <error>  (844) 


>  <∆∆G>  (844) 
-66.778784

>  <∆G_bound>  (844) 
180.647328

>  <∆G_unbound>  (844) 
247.426113

>  <comRMSD>  (844) 
1.013834

>  <N_constrained_atoms>  (844) 
29.0

>  <N_unconstrained_atoms>  (844) 
0.0

>  <runtime>  (844) 
3.257247

>  <regarded>  (844) 
['5f3t-a', 'd0191a']

>  <disregarded>  (844) 
[]

>  <LE>  (844) 
2.302717

>  <outcome>  (844) 
too moved

>  <percent_hybrid>  (844) 
42.0

$$$$

     RDKit          2D

  0  0  0  0  0  0  0  0  0  0999 V2000
M  END
>  <smiles>  (845) 
nan

>  <error>  (845) 
TimeoutError

>  <∆∆G>  (845) 
nan

>  <∆G_bound>  (845) 
nan

>  <∆G_unbound>  (845) 
nan

>  <comRMSD>  (845) 
nan

>  <N_constrained_atoms>  (845) 
nan

>  <N_unconstrained_atoms>  (845) 
nan

>  <runtime>  (845) 
nan

>  <regarded>  (845) 
[]

>  <disregarded>  (845) 
[]

>  <LE>  (845) 
nan

>  <outcome>  (845) 
timeout

>  <percent_hybrid>  (845) 
nan

$$$$

     RDKit          2D

  0  0  0  0  0  0  0  0  0  0999 V2000
M  END
>  <smiles>  (846) 
nan

>  <error>  (846) 
TimeoutError

>  <∆∆G>  (846) 
nan

>  <∆G_bound>  (846) 
nan

>  <∆G_unbound>  (846) 
nan

>  <comRMSD>  (846) 
nan

>  <N_constrained_atoms>  (846) 
nan

>  <N_unconstrained_atoms>  (846) 
nan

>  <runtime>  (846) 
nan

>  <regarded>  (846) 
[]

>  <disregarded>  (846) 
[]

>  <LE>  (846) 
nan

>  <outcome>  (846) 
timeout

>  <percent_hybrid>  (846) 
nan

$$$$
LIG
     RDKit          3D

 32 33  0  0  0  0  0  0  0  0999 V2000
  -17.3742  -40.8513  -17.7598 O   0  0  0  0  0  0  0  0  0  0  0  0
  -18.2211  -42.0467  -16.0565 O   0  0  0  0  0  0  0  0  0  0  0  0
  -17.3203  -41.8433  -17.0455 C   0  0  0  0  0  0  0  0  0  0  0  0
  -16.2490  -42.9086  -17.1481 C   0  0  0  0  0  0  0  0  0  0  0  0
  -15.2926  -44.1398  -22.6270 O   0  0  0  0  0  0  0  0  0  0  0  0
  -14.2296  -43.5306  -23.3354 C   0  0  0  0  0  0  0  0  0  0  0  0
  -15.4154  -43.8662  -21.2874 C   0  0  0  0  0  0  0  0  0  0  0  0
  -14.4936  -43.1390  -20.5347 C   0  0  0  0  0  0  0  0  0  0  0  0
  -14.7494  -42.8597  -19.1880 C   0  0  0  0  0  0  0  0  0  0  0  0
  -15.9223  -43.3121  -18.5702 C   0  0  0  0  0  0  0  0  0  0  0  0
  -16.8167  -44.0981  -19.3132 C   0  0  0  0  0  0  0  0  0  0  0  0
  -16.5774  -44.3817  -20.6688 C   0  0  0  0  0  0  0  0  0  0  0  0
  -18.7978  -45.5454  -23.4708 C   0  0  0  0  0  0  0  0  0  0  0  0
  -18.1472  -44.7018  -22.5802 C   0  0  0  0  0  0  0  0  0  0  0  0
  -17.5063  -45.2184  -21.4410 C   0  0  0  0  0  0  0  0  0  0  0  0
  -17.6395  -46.5809  -21.1473 C   0  0  0  0  0  0  0  0  0  0  0  0
  -18.3082  -47.4198  -22.0300 C   0  0  0  0  0  0  0  0  0  0  0  0
  -18.8311  -46.9121  -23.2150 C   0  0  0  0  0  0  0  0  0  0  0  0
  -18.1616  -42.8690  -15.5162 H   0  0  0  0  0  0  0  0  0  0  0  0
  -15.3569  -42.5361  -16.6318 H   0  0  0  0  0  0  0  0  0  0  0  0
  -16.5646  -43.8008  -16.6128 H   0  0  0  0  0  0  0  0  0  0  0  0
  -14.3735  -43.7312  -24.3999 H   0  0  0  0  0  0  0  0  0  0  0  0
  -14.2326  -42.4438  -23.2042 H   0  0  0  0  0  0  0  0  0  0  0  0
  -13.2789  -43.9749  -23.0334 H   0  0  0  0  0  0  0  0  0  0  0  0
  -13.5707  -42.7674  -20.9707 H   0  0  0  0  0  0  0  0  0  0  0  0
  -14.0335  -42.2506  -18.6386 H   0  0  0  0  0  0  0  0  0  0  0  0
  -17.7382  -44.4539  -18.8572 H   0  0  0  0  0  0  0  0  0  0  0  0
  -19.2382  -45.1449  -24.3773 H   0  0  0  0  0  0  0  0  0  0  0  0
  -18.0572  -43.6435  -22.8173 H   0  0  0  0  0  0  0  0  0  0  0  0
  -17.1497  -47.0075  -20.2781 H   0  0  0  0  0  0  0  0  0  0  0  0
  -18.3464  -48.4867  -21.8478 H   0  0  0  0  0  0  0  0  0  0  0  0
  -19.2704  -47.5929  -23.9397 H   0  0  0  0  0  0  0  0  0  0  0  0
  5  6  1  0
  1  3  2  0
  4  3  1  0
  3  2  1  0
  7 12  2  0
  7  5  1  0
  7  8  1  0
  8  9  2  0
  9 10  1  0
 10 11  2  0
 10  4  1  0
 11 12  1  0
 12 15  1  0
 13 18  2  0
 13 14  1  0
 14 15  2  0
 15 16  1  0
 16 17  2  0
 17 18  1  0
  2 19  1  0
  4 20  1  0
  4 21  1  0
  6 22  1  0
  6 23  1  0
  6 24  1  0
  8 25  1  0
  9 26  1  0
 11 27  1  0
 13 28  1  0
 14 29  1  0
 16 30  1  0
 17 31  1  0
 18 32  1  0
M  END
>  <smiles>  (847) 
[H]OC(=O)C([H])([H])c1c([H])c([H])c(OC([H])([H])[H])c(-c2c([H])c([H])c([H])c([H])c2[H])c1[H]

>  <error>  (847) 


>  <∆∆G>  (847) 
-16.641476

>  <∆G_bound>  (847) 
-54.300013

>  <∆G_unbound>  (847) 
-37.658537

>  <comRMSD>  (847) 
1.280374

>  <N_constrained_atoms>  (847) 
18.0

>  <N_unconstrained_atoms>  (847) 
0.0

>  <runtime>  (847) 
2.872256

>  <regarded>  (847) 
['5f3t-a', 'd0472a']

>  <disregarded>  (847) 
[]

>  <LE>  (847) 
0.924526

>  <outcome>  (847) 
equally sized

>  <percent_hybrid>  (847) 
0.0

$$$$

     RDKit          2D

  0  0  0  0  0  0  0  0  0  0999 V2000
M  END
>  <smiles>  (848) 
nan

>  <error>  (848) 
FragmensteinError Ideal compound failed. Something is wrong with the SMILES

>  <∆∆G>  (848) 
nan

>  <∆G_bound>  (848) 
nan

>  <∆G_unbound>  (848) 
nan

>  <comRMSD>  (848) 
nan

>  <N_constrained_atoms>  (848) 
nan

>  <N_unconstrained_atoms>  (848) 
nan

>  <runtime>  (848) 
nan

>  <regarded>  (848) 
[]

>  <disregarded>  (848) 
[]

>  <LE>  (848) 
nan

>  <outcome>  (848) 
crashed

>  <percent_hybrid>  (848) 
nan

$$$$
LIG
     RDKit          3D

 64 67  0  0  0  0  0  0  0  0999 V2000
  -13.1479  -43.7120  -16.8173 O   0  0  0  0  0  0  0  0  0  0  0  0
  -14.6136  -42.0767  -16.3139 O   0  0  0  0  0  0  0  0  0  0  0  0
  -14.2300  -43.1685  -16.9989 C   0  0  0  0  0  0  0  0  0  0  0  0
  -15.2663  -43.7454  -17.9285 C   0  0  0  0  0  0  0  0  0  0  0  0
  -18.6025  -42.8527  -24.7986 F   0  0  0  0  0  0  0  0  0  0  0  0
  -15.1162  -40.5875  -24.2598 N   0  0  0  0  0  0  0  0  0  0  0  0
  -15.1028  -39.8660  -25.5458 C   0  0  0  0  0  0  0  0  0  0  0  0
  -19.0224  -36.3349  -24.8800 C   0  0  0  0  0  0  0  0  0  0  0  0
  -16.1213  -42.6770  -22.0052 C   0  0  2  0  0  0  0  0  0  0  0  0
  -15.8082  -41.4888  -21.0129 C   0  0  0  0  0  0  0  0  0  0  0  0
  -15.0734  -41.9447  -19.7408 C   0  0  0  0  0  0  0  0  0  0  0  0
  -16.0123  -42.7722  -18.8485 C   0  0  1  0  0  0  0  0  0  0  0  0
  -17.0249  -43.5476  -19.7103 C   0  0  0  0  0  0  0  0  0  0  0  0
  -16.3940  -43.9704  -21.0620 C   0  0  1  0  0  0  0  0  0  0  0  0
  -18.7773  -46.3929  -22.8327 C   0  0  0  0  0  0  0  0  0  0  0  0
  -18.2636  -45.2125  -22.3332 C   0  0  0  0  0  0  0  0  0  0  0  0
  -17.1559  -45.2124  -21.4969 C   0  0  0  0  0  0  0  0  0  0  0  0
  -16.7777  -46.4491  -20.9469 C   0  0  0  0  0  0  0  0  0  0  0  0
  -17.4655  -47.6146  -21.2667 C   0  0  0  0  0  0  0  0  0  0  0  0
  -18.4655  -47.5856  -22.2228 C   0  0  0  0  0  0  0  0  0  0  0  0
  -17.3864  -42.9998  -24.2085 C   0  0  1  0  0  0  0  0  0  0  0  0
  -16.2966  -42.5612  -25.1504 C   0  0  0  0  0  0  0  0  0  0  0  0
  -15.0608  -42.0473  -24.4008 C   0  0  2  0  0  0  0  0  0  0  0  0
  -14.8700  -42.7555  -22.9971 C   0  0  2  0  0  0  0  0  0  0  0  0
  -17.3606  -42.2775  -22.8567 C   0  0  0  0  0  0  0  0  0  0  0  0
  -17.1685  -38.8434  -26.7601 C   0  0  0  0  0  0  0  0  0  0  0  0
  -18.2025  -37.9325  -26.5998 N   0  0  0  0  0  0  0  0  0  0  0  0
  -18.0971  -37.3702  -25.4131 C   0  0  0  0  0  0  0  0  0  0  0  0
  -16.7781  -37.8940  -24.4480 S   0  0  0  0  0  0  0  0  0  0  0  0
  -16.3047  -38.9826  -25.6885 C   0  0  0  0  0  0  0  0  0  0  0  0
  -14.3785  -44.1686  -23.2461 C   0  0  0  0  0  0  0  0  0  0  0  0
  -15.5423  -41.8090  -16.4449 H   0  0  0  0  0  0  0  0  0  0  0  0
  -14.7606  -44.4998  -18.5432 H   0  0  0  0  0  0  0  0  0  0  0  0
  -15.9821  -44.2816  -17.2985 H   0  0  0  0  0  0  0  0  0  0  0  0
  -14.3114  -40.2759  -23.7184 H   0  0  0  0  0  0  0  0  0  0  0  0
  -14.1983  -39.2550  -25.5843 H   0  0  0  0  0  0  0  0  0  0  0  0
  -15.0237  -40.5369  -26.4097 H   0  0  0  0  0  0  0  0  0  0  0  0
  -19.5182  -36.6862  -23.9695 H   0  0  0  0  0  0  0  0  0  0  0  0
  -18.4845  -35.4086  -24.6547 H   0  0  0  0  0  0  0  0  0  0  0  0
  -19.7979  -36.1018  -25.6170 H   0  0  0  0  0  0  0  0  0  0  0  0
  -15.2168  -40.7088  -21.5053 H   0  0  0  0  0  0  0  0  0  0  0  0
  -16.7423  -40.9926  -20.7152 H   0  0  0  0  0  0  0  0  0  0  0  0
  -14.1732  -42.5098  -20.0112 H   0  0  0  0  0  0  0  0  0  0  0  0
  -14.7313  -41.0650  -19.1826 H   0  0  0  0  0  0  0  0  0  0  0  0
  -16.5919  -42.0794  -18.2254 H   0  0  0  0  0  0  0  0  0  0  0  0
  -17.4084  -44.4021  -19.1372 H   0  0  0  0  0  0  0  0  0  0  0  0
  -17.9053  -42.9196  -19.9032 H   0  0  0  0  0  0  0  0  0  0  0  0
  -15.3914  -44.3441  -20.8168 H   0  0  0  0  0  0  0  0  0  0  0  0
  -19.4411  -46.3684  -23.6871 H   0  0  0  0  0  0  0  0  0  0  0  0
  -18.7574  -44.3165  -22.6722 H   0  0  0  0  0  0  0  0  0  0  0  0
  -15.9476  -46.5049  -20.2474 H   0  0  0  0  0  0  0  0  0  0  0  0
  -17.1752  -48.5606  -20.8293 H   0  0  0  0  0  0  0  0  0  0  0  0
  -18.9760  -48.4919  -22.5179 H   0  0  0  0  0  0  0  0  0  0  0  0
  -17.2424  -44.0704  -24.1043 H   0  0  0  0  0  0  0  0  0  0  0  0
  -16.0031  -43.4219  -25.7642 H   0  0  0  0  0  0  0  0  0  0  0  0
  -16.7057  -41.8504  -25.8740 H   0  0  0  0  0  0  0  0  0  0  0  0
  -14.1741  -42.2664  -25.0053 H   0  0  0  0  0  0  0  0  0  0  0  0
  -14.0189  -42.2580  -22.5111 H   0  0  0  0  0  0  0  0  0  0  0  0
  -17.3639  -41.1969  -23.0518 H   0  0  0  0  0  0  0  0  0  0  0  0
  -18.2887  -42.4167  -22.2938 H   0  0  0  0  0  0  0  0  0  0  0  0
  -17.0875  -39.3860  -27.6949 H   0  0  0  0  0  0  0  0  0  0  0  0
  -13.9583  -44.6088  -22.3383 H   0  0  0  0  0  0  0  0  0  0  0  0
  -15.1808  -44.8132  -23.6053 H   0  0  0  0  0  0  0  0  0  0  0  0
  -13.5699  -44.1727  -23.9841 H   0  0  0  0  0  0  0  0  0  0  0  0
  1  3  2  0
  4  3  1  0
  3  2  1  0
  7  6  1  0
  9 14  1  0
  9 10  1  6
 10 11  1  0
 11 12  1  0
 12 13  1  0
 12  4  1  0
 13 14  1  0
 14 17  1  0
 15 20  2  0
 15 16  1  0
 16 17  2  0
 17 18  1  0
 18 19  2  0
 19 20  1  0
 21 25  1  0
 21  5  1  0
 21 22  1  0
 22 23  1  0
 23  6  1  0
 23 24  1  0
 26 27  1  0
 26 30  2  0
 27 28  2  0
 28  8  1  0
 28 29  1  0
 29 30  1  0
 30  7  1  0
  9 24  1  0
  9 25  1  0
 24 31  1  0
  2 32  1  0
  4 33  1  0
  4 34  1  0
  6 35  1  0
  7 36  1  0
  7 37  1  0
  8 38  1  0
  8 39  1  0
  8 40  1  0
 10 41  1  0
 10 42  1  0
 11 43  1  0
 11 44  1  0
 12 45  1  1
 13 46  1  0
 13 47  1  0
 14 48  1  6
 15 49  1  0
 16 50  1  0
 18 51  1  0
 19 52  1  0
 20 53  1  0
 21 54  1  1
 22 55  1  0
 22 56  1  0
 23 57  1  6
 24 58  1  1
 25 59  1  0
 25 60  1  0
 26 61  1  0
 31 62  1  0
 31 63  1  0
 31 64  1  0
M  END
>  <smiles>  (849) 
[H]OC(=O)C([H])([H])[C@@]1([H])C([H])([H])C([H])([H])[C@@]2(C([H])([H])[C@@]([H])(F)C([H])([H])[C@@]([H])(N([H])C([H])([H])c3sc(C([H])([H])[H])nc3[H])[C@]2([H])C([H])([H])[H])[C@@]([H])(c2c([H])c([H])c([H])c([H])c2[H])C1([H])[H]

>  <error>  (849) 


>  <∆∆G>  (849) 
-95.017229

>  <∆G_bound>  (849) 
114.291968

>  <∆G_unbound>  (849) 
209.309197

>  <comRMSD>  (849) 
1.329069

>  <N_constrained_atoms>  (849) 
31.0

>  <N_unconstrained_atoms>  (849) 
0.0

>  <runtime>  (849) 
5.277135

>  <regarded>  (849) 
['5f3t-a', 'd0615b']

>  <disregarded>  (849) 
[]

>  <LE>  (849) 
3.065072

>  <outcome>  (849) 
too moved

>  <percent_hybrid>  (849) 
46.0

$$$$
LIG
     RDKit          3D

  0  0  0  0  0  0  0  0  0  0999 V3000
M  V30 BEGIN CTAB
M  V30 COUNTS 62 64 0 0 0
M  V30 BEGIN ATOM
M  V30 1 O -16.907000 -44.019001 -15.496000 0
M  V30 2 O -16.811001 -42.425999 -17.010000 0
M  V30 3 C -16.437000 -43.527000 -16.546000 0
M  V30 4 C -15.354000 -44.278999 -17.271999 0
M  V30 5 O -15.603000 -43.844002 -22.983999 0
M  V30 6 C -14.536000 -43.268002 -23.743000 0
M  V30 7 C -15.548000 -43.933998 -21.607000 0
M  V30 8 C -14.598000 -43.216999 -20.856001 0
M  V30 9 C -14.567000 -43.341000 -19.464001 0
M  V30 10 C -15.475000 -44.154999 -18.780001 0
M  V30 11 C -16.433001 -44.903000 -19.485001 0
M  V30 12 C -16.520000 -44.813999 -20.886000 0
M  V30 13 C -19.094999 -45.862999 -23.488001 0
M  V30 14 C -18.218000 -45.069000 -22.740999 0
M  V30 15 C -17.518000 -45.618999 -21.659000 0
M  V30 16 C -17.726999 -46.964001 -21.326000 0
M  V30 17 C -18.639999 -47.737999 -22.048000 0
M  V30 18 C -19.325001 -47.188999 -23.134001 0
M  V30 19 O -19.445000 -40.158001 -24.528000 0
M  V30 20 S -18.933001 -39.846001 -25.825001 0
M  V30 21 O -18.877001 -38.480999 -26.240999 0
M  V30 22 C -19.827000 -40.765999 -27.018000 0
M  V30 23 C -16.511999 -41.500999 -27.914000 0
M  V30 24 C -15.906000 -38.516998 -25.243999 0
M  V30 25 O -16.229000 -38.262001 -26.598000 0
M  V30 26 N -17.393000 -40.395000 -25.853001 0
M  V30 27 C -17.198999 -41.683998 -26.573000 0 CFG=2
M  V30 28 C -16.566000 -42.779999 -25.714001 0
M  V30 29 C -15.991000 -42.259998 -24.402000 0 CFG=2
M  V30 30 C -15.366000 -40.882000 -24.551001 0
M  V30 31 C -16.459999 -39.863998 -24.820000 0 CFG=1
M  V30 32 N -15.263500 -42.764000 -24.072500 0
M  V30 33 H -16.408537 -42.078323 -17.845013 0
M  V30 34 H -14.377348 -43.879055 -16.961843 0
M  V30 35 H -15.453846 -45.343597 -17.013807 0
M  V30 36 H -13.777590 -42.712082 -23.172239 0
M  V30 37 H -13.812328 -43.825050 -24.356184 0
M  V30 38 H -13.879010 -42.558228 -21.364994 0
M  V30 39 H -13.809538 -42.784428 -18.892620 0
M  V30 40 H -17.120651 -45.563671 -18.936686 0
M  V30 41 H -19.607077 -45.435417 -24.362616 0
M  V30 42 H -18.077675 -44.010124 -23.003855 0
M  V30 43 H -17.169151 -47.413506 -20.491283 0
M  V30 44 H -18.819672 -48.784157 -21.759430 0
M  V30 45 H -20.040258 -47.799461 -23.704741 0
M  V30 46 H -20.506313 -41.465069 -26.508259 0
M  V30 47 H -20.412142 -40.079388 -27.647423 0
M  V30 48 H -19.123901 -41.331223 -27.647423 0
M  V30 49 H -15.460629 -41.220943 -27.752167 0
M  V30 50 H -16.557558 -42.442596 -28.480846 0
M  V30 51 H -17.019920 -40.706833 -28.480846 0
M  V30 52 H -14.812429 -38.519810 -25.125275 0
M  V30 53 H -16.349152 -37.731411 -24.614344 0
M  V30 54 H -17.005259 -37.649174 -26.642309 0
M  V30 55 H -18.210634 -42.054550 -26.795010 0
M  V30 56 H -16.529486 -43.837841 -26.013391 0
M  V30 57 H -15.597886 -42.607105 -26.206812 0
M  V30 58 H -16.866932 -42.294216 -23.737490 0
M  V30 59 H -14.291663 -40.658054 -24.475843 0
M  V30 60 H -15.255508 -41.049068 -25.632610 0
M  V30 61 H -17.003857 -39.699589 -23.878094 0
M  V30 62 H -14.153501 -41.653999 -22.962500 0
M  V30 END ATOM
M  V30 BEGIN BOND
M  V30 1 1 5 6
M  V30 2 2 1 3
M  V30 3 1 4 3
M  V30 4 1 3 2
M  V30 5 1 7 12
M  V30 6 1 7 5
M  V30 7 2 7 8
M  V30 8 1 8 9
M  V30 9 2 9 10
M  V30 10 1 10 11
M  V30 11 1 10 4
M  V30 12 2 11 12
M  V30 13 1 12 15
M  V30 14 2 13 18
M  V30 15 1 13 14
M  V30 16 2 14 15
M  V30 17 1 15 16
M  V30 18 2 16 17
M  V30 19 1 17 18
M  V30 20 1 25 24
M  V30 21 1 22 20
M  V30 22 2 21 20
M  V30 23 2 20 19
M  V30 24 1 26 31
M  V30 25 1 26 20
M  V30 26 1 26 27
M  V30 27 1 27 23
M  V30 28 1 27 28
M  V30 29 1 28 29
M  V30 30 1 29 30
M  V30 31 1 30 31
M  V30 32 1 31 24
M  V30 33 1 32 6
M  V30 34 1 32 29
M  V30 35 1 2 33
M  V30 36 1 4 34
M  V30 37 1 4 35
M  V30 38 1 6 36
M  V30 39 1 6 37
M  V30 40 1 8 38
M  V30 41 1 9 39
M  V30 42 1 11 40
M  V30 43 1 13 41
M  V30 44 1 14 42
M  V30 45 1 16 43
M  V30 46 1 17 44
M  V30 47 1 18 45
M  V30 48 1 22 46
M  V30 49 1 22 47
M  V30 50 1 22 48
M  V30 51 1 23 49
M  V30 52 1 23 50
M  V30 53 1 23 51
M  V30 54 1 24 52
M  V30 55 1 24 53
M  V30 56 1 25 54
M  V30 57 1 27 55 CFG=3
M  V30 58 1 28 56
M  V30 59 1 28 57
M  V30 60 1 29 58 CFG=1
M  V30 61 1 30 59
M  V30 62 1 30 60
M  V30 63 1 31 61 CFG=1
M  V30 64 1 32 62
M  V30 END BOND
M  V30 BEGIN COLLECTION
M  V30 MDLV30/STEABS ATOMS=(0)
M  V30 END COLLECTION
M  V30 END CTAB
M  END
>  <smiles>  (850) 
[H]OC(=O)C([H])([H])c1c([H])c([H])c(OC([H])([H])N([H])[C@]2([H])C([H])([H])[C@]([H])(C([H])([H])[H])N(S(=O)(=O)C([H])([H])[H])[C@]([H])(C([H])([H])O[H])C2([H])[H])c(-c2c([H])c([H])c([H])c([H])c2[H])c1[H]

>  <error>  (850) 


>  <∆∆G>  (850) 
nan

>  <∆G_bound>  (850) 
nan

>  <∆G_unbound>  (850) 
nan

>  <comRMSD>  (850) 
0.0

>  <N_constrained_atoms>  (850) 
31.0

>  <N_unconstrained_atoms>  (850) 
1.0

>  <runtime>  (850) 
2.268968

>  <regarded>  (850) 
['5f3t-a', 'd0851a']

>  <disregarded>  (850) 
[]

>  <LE>  (850) 
nan

>  <outcome>  (850) 
crashed

>  <percent_hybrid>  (850) 
42.0

$$$$
LIG
     RDKit          3D

 67 70  0  0  0  0  0  0  0  0999 V2000
  -14.8721  -41.0383  -15.8858 O   0  0  0  0  0  0  0  0  0  0  0  0
  -16.2155  -40.7724  -17.6740 O   0  0  0  0  0  0  0  0  0  0  0  0
  -15.4625  -41.5268  -16.8397 C   0  0  0  0  0  0  0  0  0  0  0  0
  -15.4528  -43.0098  -17.1509 C   0  0  0  0  0  0  0  0  0  0  0  0
  -15.1099  -44.0009  -22.7492 O   0  0  0  0  0  0  0  0  0  0  0  0
  -15.0629  -42.7979  -23.5588 C   0  0  0  0  0  0  0  0  0  0  0  0
  -19.3327  -37.2742  -26.7568 O   0  0  0  0  0  0  0  0  0  0  0  0
  -18.3926  -37.4214  -26.0556 C   0  0  0  0  0  0  0  0  0  0  0  0
  -19.0274  -40.2345  -24.7002 C   0  0  0  0  0  0  0  0  0  0  0  0
  -16.6943  -41.9968  -23.7855 S   0  0  0  0  0  0  0  0  0  0  0  0
  -17.0928  -41.4157  -22.5153 O   0  0  0  0  0  0  0  0  0  0  0  0
  -17.5722  -42.9134  -24.4894 O   0  0  0  0  0  0  0  0  0  0  0  0
  -15.1791  -43.7810  -21.3942 C   0  0  0  0  0  0  0  0  0  0  0  0
  -14.1779  -43.0617  -20.7439 C   0  0  0  0  0  0  0  0  0  0  0  0
  -14.2509  -42.8435  -19.3677 C   0  0  0  0  0  0  0  0  0  0  0  0
  -15.3260  -43.3406  -18.6204 C   0  0  0  0  0  0  0  0  0  0  0  0
  -16.2792  -44.1431  -19.2595 C   0  0  0  0  0  0  0  0  0  0  0  0
  -16.2086  -44.3912  -20.6417 C   0  0  0  0  0  0  0  0  0  0  0  0
  -18.8131  -45.7310  -22.9812 C   0  0  0  0  0  0  0  0  0  0  0  0
  -18.1056  -44.8450  -22.1840 C   0  0  0  0  0  0  0  0  0  0  0  0
  -17.1707  -45.3068  -21.2580 C   0  0  0  0  0  0  0  0  0  0  0  0
  -17.1103  -46.6797  -20.9966 C   0  0  0  0  0  0  0  0  0  0  0  0
  -17.8925  -47.5661  -21.7269 C   0  0  0  0  0  0  0  0  0  0  0  0
  -18.7009  -47.0963  -22.7544 C   0  0  0  0  0  0  0  0  0  0  0  0
  -18.3000  -36.4984  -23.7164 C   0  0  0  0  0  0  0  0  0  0  0  0
  -19.6171  -35.7633  -23.5689 C   0  0  0  0  0  0  0  0  0  0  0  0
  -19.3585  -34.6310  -24.4867 C   0  0  0  0  0  0  0  0  0  0  0  0
  -17.9409  -34.9754  -24.8804 C   0  0  0  0  0  0  0  0  0  0  0  0
  -17.7002  -36.4414  -25.1172 N   0  0  0  0  0  0  0  0  0  0  0  0
  -17.6205  -39.6393  -24.8342 C   0  0  2  0  0  0  0  0  0  0  0  0
  -17.6075  -38.7600  -26.1001 C   0  0  2  0  0  0  0  0  0  0  0  0
  -16.1743  -38.5343  -26.5610 C   0  0  0  0  0  0  0  0  0  0  0  0
  -15.5140  -39.8595  -26.9403 C   0  0  0  0  0  0  0  0  0  0  0  0
  -16.1047  -41.0653  -26.2274 C   0  0  0  0  0  0  0  0  0  0  0  0
  -16.4989  -40.6920  -24.8533 N   0  0  0  0  0  0  0  0  0  0  0  0
  -16.6222  -41.2747  -18.4085 H   0  0  0  0  0  0  0  0  0  0  0  0
  -14.6111  -43.4722  -16.6217 H   0  0  0  0  0  0  0  0  0  0  0  0
  -16.3749  -43.4290  -16.7348 H   0  0  0  0  0  0  0  0  0  0  0  0
  -14.3739  -42.0457  -23.1657 H   0  0  0  0  0  0  0  0  0  0  0  0
  -14.7224  -43.1115  -24.5474 H   0  0  0  0  0  0  0  0  0  0  0  0
  -19.1827  -40.7290  -23.7380 H   0  0  0  0  0  0  0  0  0  0  0  0
  -19.7931  -39.4538  -24.7644 H   0  0  0  0  0  0  0  0  0  0  0  0
  -19.2292  -40.9652  -25.4910 H   0  0  0  0  0  0  0  0  0  0  0  0
  -13.3112  -42.6963  -21.2895 H   0  0  0  0  0  0  0  0  0  0  0  0
  -13.4583  -42.2674  -18.8897 H   0  0  0  0  0  0  0  0  0  0  0  0
  -17.1010  -44.5734  -18.6896 H   0  0  0  0  0  0  0  0  0  0  0  0
  -19.4399  -45.3457  -23.7799 H   0  0  0  0  0  0  0  0  0  0  0  0
  -18.2518  -43.7821  -22.3249 H   0  0  0  0  0  0  0  0  0  0  0  0
  -16.4006  -47.0681  -20.2734 H   0  0  0  0  0  0  0  0  0  0  0  0
  -17.7819  -48.6348  -21.5824 H   0  0  0  0  0  0  0  0  0  0  0  0
  -19.2234  -47.8055  -23.3898 H   0  0  0  0  0  0  0  0  0  0  0  0
  -18.5188  -37.5379  -23.4698 H   0  0  0  0  0  0  0  0  0  0  0  0
  -17.5447  -36.1931  -22.9723 H   0  0  0  0  0  0  0  0  0  0  0  0
  -20.4623  -36.3680  -23.9149 H   0  0  0  0  0  0  0  0  0  0  0  0
  -19.8046  -35.4600  -22.5350 H   0  0  0  0  0  0  0  0  0  0  0  0
  -20.0342  -34.6560  -25.3484 H   0  0  0  0  0  0  0  0  0  0  0  0
  -19.4326  -33.6492  -24.0113 H   0  0  0  0  0  0  0  0  0  0  0  0
  -17.7436  -34.5017  -25.8517 H   0  0  0  0  0  0  0  0  0  0  0  0
  -17.1749  -34.5547  -24.2073 H   0  0  0  0  0  0  0  0  0  0  0  0
  -17.3878  -39.0396  -23.9530 H   0  0  0  0  0  0  0  0  0  0  0  0
  -18.1004  -39.3242  -26.9091 H   0  0  0  0  0  0  0  0  0  0  0  0
  -16.1242  -37.8313  -27.4001 H   0  0  0  0  0  0  0  0  0  0  0  0
  -15.6134  -38.0814  -25.7384 H   0  0  0  0  0  0  0  0  0  0  0  0
  -15.6330  -40.0413  -28.0139 H   0  0  0  0  0  0  0  0  0  0  0  0
  -14.4377  -39.7901  -26.7440 H   0  0  0  0  0  0  0  0  0  0  0  0
  -16.9801  -41.4383  -26.7713 H   0  0  0  0  0  0  0  0  0  0  0  0
  -15.3656  -41.8667  -26.2238 H   0  0  0  0  0  0  0  0  0  0  0  0
  5  6  1  0
  1  3  2  0
  4  3  1  0
  3  2  1  0
 11 10  2  0
 12 10  2  0
  8  7  2  0
 10  6  1  0
 13 18  1  0
 13  5  1  0
 13 14  2  0
 14 15  1  0
 15 16  2  0
 16 17  1  0
 16  4  1  0
 17 18  2  0
 18 21  1  0
 19 24  2  0
 19 20  1  0
 20 21  2  0
 21 22  1  0
 22 23  2  0
 23 24  1  0
 25 26  1  0
 25 29  1  0
 26 27  1  0
 27 28  1  0
 28 29  1  0
 29  8  1  0
 30  9  1  0
 30 35  1  0
 30 31  1  0
 31 32  1  0
 31  8  1  0
 32 33  1  0
 33 34  1  0
 34 35  1  0
 35 10  1  0
  2 36  1  0
  4 37  1  0
  4 38  1  0
  6 39  1  0
  6 40  1  0
  9 41  1  0
  9 42  1  0
  9 43  1  0
 14 44  1  0
 15 45  1  0
 17 46  1  0
 19 47  1  0
 20 48  1  0
 22 49  1  0
 23 50  1  0
 24 51  1  0
 25 52  1  0
 25 53  1  0
 26 54  1  0
 26 55  1  0
 27 56  1  0
 27 57  1  0
 28 58  1  0
 28 59  1  0
 30 60  1  1
 31 61  1  1
 32 62  1  0
 32 63  1  0
 33 64  1  0
 33 65  1  0
 34 66  1  0
 34 67  1  0
M  END
>  <smiles>  (851) 
[H]OC(=O)C([H])([H])c1c([H])c([H])c(OC([H])([H])S(=O)(=O)N2C([H])([H])C([H])([H])C([H])([H])[C@@]([H])(C(=O)N3C([H])([H])C([H])([H])C([H])([H])C3([H])[H])[C@@]2([H])C([H])([H])[H])c(-c2c([H])c([H])c([H])c([H])c2[H])c1[H]

>  <error>  (851) 


>  <∆∆G>  (851) 
-67.122801

>  <∆G_bound>  (851) 
105.327397

>  <∆G_unbound>  (851) 
172.450198

>  <comRMSD>  (851) 
1.065676

>  <N_constrained_atoms>  (851) 
35.0

>  <N_unconstrained_atoms>  (851) 
0.0

>  <runtime>  (851) 
11.757457

>  <regarded>  (851) 
['5f3t-a', 'd0866a']

>  <disregarded>  (851) 
[]

>  <LE>  (851) 
1.917794

>  <outcome>  (851) 
too moved

>  <percent_hybrid>  (851) 
49.0

$$$$

     RDKit          2D

  0  0  0  0  0  0  0  0  0  0999 V2000
M  END
>  <smiles>  (852) 
nan

>  <error>  (852) 
DistanceError 6.09 Å

>  <∆∆G>  (852) 
nan

>  <∆G_bound>  (852) 
nan

>  <∆G_unbound>  (852) 
nan

>  <comRMSD>  (852) 
nan

>  <N_constrained_atoms>  (852) 
nan

>  <N_unconstrained_atoms>  (852) 
nan

>  <runtime>  (852) 
nan

>  <regarded>  (852) 
[]

>  <disregarded>  (852) 
[]

>  <LE>  (852) 
nan

>  <outcome>  (852) 
too distant

>  <percent_hybrid>  (852) 
nan

$$$$
LIG
     RDKit          3D

 53 55  0  0  0  0  0  0  0  0999 V2000
  -16.4099  -40.4721  -17.0417 O   0  0  0  0  0  0  0  0  0  0  0  0
  -17.6671  -41.9201  -15.8724 O   0  0  0  0  0  0  0  0  0  0  0  0
  -16.6409  -41.6278  -16.7065 C   0  0  0  0  0  0  0  0  0  0  0  0
  -15.8085  -42.8400  -17.1557 C   0  0  1  0  0  0  0  0  0  0  0  0
  -15.7733  -43.4003  -22.8608 O   0  0  0  0  0  0  0  0  0  0  0  0
  -14.4696  -43.2787  -23.4167 C   0  0  0  0  0  0  0  0  0  0  0  0
  -15.8190  -43.2291  -21.4971 C   0  0  0  0  0  0  0  0  0  0  0  0
  -15.2249  -42.1299  -20.8915 C   0  0  0  0  0  0  0  0  0  0  0  0
  -15.3012  -41.9744  -19.5092 C   0  0  0  0  0  0  0  0  0  0  0  0
  -15.8830  -42.9524  -18.6875 C   0  0  0  0  0  0  0  0  0  0  0  0
  -16.5574  -44.0141  -19.3215 C   0  0  0  0  0  0  0  0  0  0  0  0
  -16.5744  -44.1424  -20.7303 C   0  0  0  0  0  0  0  0  0  0  0  0
  -18.8082  -45.8346  -23.2544 C   0  0  0  0  0  0  0  0  0  0  0  0
  -18.1752  -44.8564  -22.5043 C   0  0  0  0  0  0  0  0  0  0  0  0
  -17.3719  -45.1878  -21.3952 C   0  0  0  0  0  0  0  0  0  0  0  0
  -17.3080  -46.5271  -20.9993 C   0  0  0  0  0  0  0  0  0  0  0  0
  -17.9830  -47.5028  -21.7254 C   0  0  0  0  0  0  0  0  0  0  0  0
  -18.7129  -47.1607  -22.8591 C   0  0  0  0  0  0  0  0  0  0  0  0
  -13.5178  -44.4294  -18.9119 O   0  0  0  0  0  0  0  0  0  0  0  0
  -12.6446  -43.3866  -18.5358 C   0  0  0  0  0  0  0  0  0  0  0  0
  -13.1394  -42.5108  -17.3811 C   0  0  0  0  0  0  0  0  0  0  0  0
  -14.3497  -42.9171  -16.4683 C   0  0  0  0  0  0  0  0  0  0  0  0
  -14.0762  -44.3502  -15.9593 C   0  0  0  0  0  0  0  0  0  0  0  0
  -14.0996  -44.5330  -14.4638 C   0  0  0  0  0  0  0  0  0  0  0  0
  -15.2128  -43.8343  -13.9566 O   0  0  0  0  0  0  0  0  0  0  0  0
  -15.0334  -42.4303  -13.9972 C   0  0  0  0  0  0  0  0  0  0  0  0
  -14.2357  -41.9804  -15.2180 C   0  0  0  0  0  0  0  0  0  0  0  0
  -17.7717  -42.8497  -15.5626 H   0  0  0  0  0  0  0  0  0  0  0  0
  -16.3654  -43.7047  -16.7786 H   0  0  0  0  0  0  0  0  0  0  0  0
  -13.7182  -43.7956  -22.8097 H   0  0  0  0  0  0  0  0  0  0  0  0
  -14.4837  -43.7415  -24.4063 H   0  0  0  0  0  0  0  0  0  0  0  0
  -14.2144  -42.2237  -23.5490 H   0  0  0  0  0  0  0  0  0  0  0  0
  -14.7334  -41.3630  -21.4810 H   0  0  0  0  0  0  0  0  0  0  0  0
  -14.8767  -41.0700  -19.0787 H   0  0  0  0  0  0  0  0  0  0  0  0
  -17.0961  -44.7402  -18.7195 H   0  0  0  0  0  0  0  0  0  0  0  0
  -19.3668  -45.5623  -24.1439 H   0  0  0  0  0  0  0  0  0  0  0  0
  -18.2634  -43.8191  -22.8224 H   0  0  0  0  0  0  0  0  0  0  0  0
  -16.6866  -46.8242  -20.1605 H   0  0  0  0  0  0  0  0  0  0  0  0
  -17.8667  -48.5475  -21.4666 H   0  0  0  0  0  0  0  0  0  0  0  0
  -19.1846  -47.9393  -23.4508 H   0  0  0  0  0  0  0  0  0  0  0  0
  -13.1692  -44.7581  -19.7647 H   0  0  0  0  0  0  0  0  0  0  0  0
  -12.4224  -42.7653  -19.4103 H   0  0  0  0  0  0  0  0  0  0  0  0
  -11.7111  -43.8544  -18.2242 H   0  0  0  0  0  0  0  0  0  0  0  0
  -12.2515  -42.3752  -16.7437 H   0  0  0  0  0  0  0  0  0  0  0  0
  -13.3022  -41.4916  -17.7501 H   0  0  0  0  0  0  0  0  0  0  0  0
  -14.7411  -45.0737  -16.4396 H   0  0  0  0  0  0  0  0  0  0  0  0
  -13.0629  -44.6020  -16.2077 H   0  0  0  0  0  0  0  0  0  0  0  0
  -14.1573  -45.6003  -14.2353 H   0  0  0  0  0  0  0  0  0  0  0  0
  -13.1786  -44.1726  -13.9873 H   0  0  0  0  0  0  0  0  0  0  0  0
  -16.0210  -41.9650  -13.9694 H   0  0  0  0  0  0  0  0  0  0  0  0
  -14.5220  -42.1151  -13.0799 H   0  0  0  0  0  0  0  0  0  0  0  0
  -13.1845  -41.9556  -14.8937 H   0  0  0  0  0  0  0  0  0  0  0  0
  -14.4571  -40.9349  -15.4583 H   0  0  0  0  0  0  0  0  0  0  0  0
  5  6  1  0
  1  3  2  0
  4  3  1  0
  3  2  1  0
  7 12  2  0
  7  5  1  0
  7  8  1  0
  8  9  2  0
  9 10  1  0
 10 11  2  0
 10  4  1  0
 11 12  1  0
 12 15  1  0
 13 18  2  0
 13 14  1  0
 14 15  2  0
 15 16  1  0
 16 17  2  0
 17 18  1  0
 20 19  1  0
 21 20  1  0
 22 21  1  0
 22 27  1  0
 22 23  1  0
 23 24  1  0
 24 25  1  0
 25 26  1  0
 26 27  1  0
  4 22  1  0
  2 28  1  0
  4 29  1  1
  6 30  1  0
  6 31  1  0
  6 32  1  0
  8 33  1  0
  9 34  1  0
 11 35  1  0
 13 36  1  0
 14 37  1  0
 16 38  1  0
 17 39  1  0
 18 40  1  0
 19 41  1  0
 20 42  1  0
 20 43  1  0
 21 44  1  0
 21 45  1  0
 23 46  1  0
 23 47  1  0
 24 48  1  0
 24 49  1  0
 26 50  1  0
 26 51  1  0
 27 52  1  0
 27 53  1  0
M  END
>  <smiles>  (853) 
[H]OC(=O)[C@@]([H])(c1c([H])c([H])c(OC([H])([H])[H])c(-c2c([H])c([H])c([H])c([H])c2[H])c1[H])C1(C([H])([H])C([H])([H])O[H])C([H])([H])C([H])([H])OC([H])([H])C1([H])[H]

>  <error>  (853) 


>  <∆∆G>  (853) 
-32.160549

>  <∆G_bound>  (853) 
47.24103

>  <∆G_unbound>  (853) 
79.40158

>  <comRMSD>  (853) 
1.497065

>  <N_constrained_atoms>  (853) 
27.0

>  <N_unconstrained_atoms>  (853) 
0.0

>  <runtime>  (853) 
3.840173

>  <regarded>  (853) 
['5f3t-a', 'z0052a']

>  <disregarded>  (853) 
[]

>  <LE>  (853) 
1.191131

>  <outcome>  (853) 
too moved

>  <percent_hybrid>  (853) 
34.0

$$$$
LIG
     RDKit          3D

  0  0  0  0  0  0  0  0  0  0999 V3000
M  V30 BEGIN CTAB
M  V30 COUNTS 52 54 0 0 0
M  V30 BEGIN ATOM
M  V30 1 O -16.907000 -44.019001 -15.496000 0
M  V30 2 O -16.811001 -42.425999 -17.010000 0
M  V30 3 C -16.437000 -43.527000 -16.546000 0
M  V30 4 C -15.354000 -44.278999 -17.271999 0
M  V30 5 O -15.603000 -43.844002 -22.983999 0
M  V30 6 C -14.536000 -43.268002 -23.743000 0
M  V30 7 C -15.548000 -43.933998 -21.607000 0
M  V30 8 C -14.598000 -43.216999 -20.856001 0
M  V30 9 C -14.567000 -43.341000 -19.464001 0
M  V30 10 C -15.475000 -44.154999 -18.780001 0
M  V30 11 C -16.433001 -44.903000 -19.485001 0
M  V30 12 C -16.520000 -44.813999 -20.886000 0
M  V30 13 C -19.094999 -45.862999 -23.488001 0
M  V30 14 C -18.218000 -45.069000 -22.740999 0
M  V30 15 C -17.518000 -45.618999 -21.659000 0
M  V30 16 C -17.726999 -46.964001 -21.326000 0
M  V30 17 C -18.639999 -47.737999 -22.048000 0
M  V30 18 C -19.325001 -47.188999 -23.134001 0
M  V30 19 N -13.266000 -42.196999 -21.974001 0
M  V30 20 C -12.944000 -41.021999 -21.833000 0
M  V30 21 C -11.629000 -40.624001 -21.225000 0
M  V30 22 N -13.726000 -40.034000 -22.247999 0
M  V30 23 C -13.348000 -39.222000 -23.382000 0
M  V30 24 C -12.966000 -37.907001 -22.924999 0
M  V30 25 N -11.741000 -37.458000 -22.879000 0
M  V30 26 C -11.837000 -36.210999 -22.299000 0
M  V30 27 C -13.101000 -35.942001 -22.018000 0
M  V30 28 N -13.818000 -37.035000 -22.421000 0
M  V30 29 N -13.901000 -42.732498 -22.858501 0
M  V30 30 H -16.408537 -42.078323 -17.845013 0
M  V30 31 H -14.377348 -43.879055 -16.961843 0
M  V30 32 H -15.453846 -45.343597 -17.013807 0
M  V30 33 H -13.943628 -44.037342 -24.259926 0
M  V30 34 H -14.858713 -42.593140 -24.549484 0
M  V30 35 H -13.879010 -42.558228 -21.364994 0
M  V30 36 H -13.809538 -42.784428 -18.892620 0
M  V30 37 H -17.120651 -45.563671 -18.936686 0
M  V30 38 H -19.607077 -45.435417 -24.362616 0
M  V30 39 H -18.077675 -44.010124 -23.003855 0
M  V30 40 H -17.169151 -47.413506 -20.491283 0
M  V30 41 H -18.819672 -48.784157 -21.759430 0
M  V30 42 H -20.040258 -47.799461 -23.704741 0
M  V30 43 H -11.709771 -40.648445 -20.128242 0
M  V30 44 H -10.847049 -41.325714 -21.550806 0
M  V30 45 H -11.367404 -39.606445 -21.550806 0
M  V30 46 H -14.611291 -39.843807 -21.757097 0
M  V30 47 H -12.499456 -39.690483 -23.902094 0
M  V30 48 H -14.199591 -39.137444 -24.073118 0
M  V30 49 H -10.988646 -35.539764 -22.099646 0
M  V30 50 H -13.495500 -35.025738 -21.554501 0
M  V30 51 H -12.901000 -41.732498 -21.858501 0
M  V30 52 H -10.887267 -37.932812 -23.205488 0
M  V30 END ATOM
M  V30 BEGIN BOND
M  V30 1 1 5 6
M  V30 2 2 1 3
M  V30 3 1 4 3
M  V30 4 1 3 2
M  V30 5 1 7 12
M  V30 6 1 7 5
M  V30 7 2 7 8
M  V30 8 1 8 9
M  V30 9 2 9 10
M  V30 10 1 10 11
M  V30 11 1 10 4
M  V30 12 2 11 12
M  V30 13 1 12 15
M  V30 14 2 13 18
M  V30 15 1 13 14
M  V30 16 2 14 15
M  V30 17 1 15 16
M  V30 18 2 16 17
M  V30 19 1 17 18
M  V30 20 1 21 20
M  V30 21 2 20 19
M  V30 22 1 22 20
M  V30 23 1 23 22
M  V30 24 1 24 23
M  V30 25 1 24 25
M  V30 26 2 24 28
M  V30 27 1 25 26
M  V30 28 2 26 27
M  V30 29 1 27 28
M  V30 30 1 29 6
M  V30 31 1 29 19
M  V30 32 1 2 30
M  V30 33 1 4 31
M  V30 34 1 4 32
M  V30 35 1 6 33
M  V30 36 1 6 34
M  V30 37 1 8 35
M  V30 38 1 9 36
M  V30 39 1 11 37
M  V30 40 1 13 38
M  V30 41 1 14 39
M  V30 42 1 16 40
M  V30 43 1 17 41
M  V30 44 1 18 42
M  V30 45 1 21 43
M  V30 46 1 21 44
M  V30 47 1 21 45
M  V30 48 1 22 46
M  V30 49 1 23 47
M  V30 50 1 23 48
M  V30 51 1 26 49
M  V30 52 1 27 50
M  V30 53 1 29 51
M  V30 54 1 25 52
M  V30 END BOND
M  V30 BEGIN COLLECTION
M  V30 MDLV30/STEABS ATOMS=(0)
M  V30 END COLLECTION
M  V30 END CTAB
M  END
>  <smiles>  (854) 
[H]OC(=O)C([H])([H])c1c([H])c([H])c(OC([H])([H])N([H])/N=C(\N([H])C([H])([H])c2nc([H])c([H])[nH]2)C([H])([H])[H])c(-c2c([H])c([H])c([H])c([H])c2[H])c1[H]

>  <error>  (854) 


>  <∆∆G>  (854) 
nan

>  <∆G_bound>  (854) 
nan

>  <∆G_unbound>  (854) 
nan

>  <comRMSD>  (854) 
0.0

>  <N_constrained_atoms>  (854) 
28.0

>  <N_unconstrained_atoms>  (854) 
1.0

>  <runtime>  (854) 
1.999391

>  <regarded>  (854) 
['5f3t-a', 'z0103a']

>  <disregarded>  (854) 
[]

>  <LE>  (854) 
nan

>  <outcome>  (854) 
crashed

>  <percent_hybrid>  (854) 
36.0

$$$$

     RDKit          2D

  0  0  0  0  0  0  0  0  0  0999 V2000
M  END
>  <smiles>  (855) 
nan

>  <error>  (855) 
DistanceError 5.92 Å

>  <∆∆G>  (855) 
nan

>  <∆G_bound>  (855) 
nan

>  <∆G_unbound>  (855) 
nan

>  <comRMSD>  (855) 
nan

>  <N_constrained_atoms>  (855) 
nan

>  <N_unconstrained_atoms>  (855) 
nan

>  <runtime>  (855) 
nan

>  <regarded>  (855) 
[]

>  <disregarded>  (855) 
[]

>  <LE>  (855) 
nan

>  <outcome>  (855) 
too distant

>  <percent_hybrid>  (855) 
nan

$$$$

     RDKit          2D

  0  0  0  0  0  0  0  0  0  0999 V2000
M  END
>  <smiles>  (856) 
nan

>  <error>  (856) 
RecursionError maximum recursion depth exceeded while calling a Python object

>  <∆∆G>  (856) 
nan

>  <∆G_bound>  (856) 
nan

>  <∆G_unbound>  (856) 
nan

>  <comRMSD>  (856) 
nan

>  <N_constrained_atoms>  (856) 
nan

>  <N_unconstrained_atoms>  (856) 
nan

>  <runtime>  (856) 
nan

>  <regarded>  (856) 
[]

>  <disregarded>  (856) 
[]

>  <LE>  (856) 
nan

>  <outcome>  (856) 
crashed

>  <percent_hybrid>  (856) 
nan

$$$$
LIG
     RDKit          3D

 44 46  0  0  0  0  0  0  0  0999 V2000
  -16.0087  -40.9131  -16.0490 O   0  0  0  0  0  0  0  0  0  0  0  0
  -17.0707  -40.4311  -17.9768 O   0  0  0  0  0  0  0  0  0  0  0  0
  -16.5596  -41.2973  -17.0711 C   0  0  0  0  0  0  0  0  0  0  0  0
  -16.7747  -42.7583  -17.4074 C   0  0  0  0  0  0  0  0  0  0  0  0
  -15.4948  -44.2693  -22.7567 O   0  0  0  0  0  0  0  0  0  0  0  0
  -15.4018  -43.2234  -23.7278 C   0  0  0  0  0  0  0  0  0  0  0  0
  -15.8177  -43.8256  -21.4931 C   0  0  0  0  0  0  0  0  0  0  0  0
  -14.8785  -43.1496  -20.7117 C   0  0  0  0  0  0  0  0  0  0  0  0
  -15.2106  -42.7890  -19.3925 C   0  0  0  0  0  0  0  0  0  0  0  0
  -16.4444  -43.1397  -18.8341 C   0  0  0  0  0  0  0  0  0  0  0  0
  -17.3328  -43.9077  -19.5994 C   0  0  0  0  0  0  0  0  0  0  0  0
  -17.0281  -44.2601  -20.9251 C   0  0  0  0  0  0  0  0  0  0  0  0
  -18.9836  -45.6499  -23.7912 C   0  0  0  0  0  0  0  0  0  0  0  0
  -18.4705  -44.7294  -22.8896 C   0  0  0  0  0  0  0  0  0  0  0  0
  -17.8798  -45.1647  -21.6939 C   0  0  0  0  0  0  0  0  0  0  0  0
  -17.9381  -46.5210  -21.3502 C   0  0  0  0  0  0  0  0  0  0  0  0
  -18.4765  -47.4358  -22.2422 C   0  0  0  0  0  0  0  0  0  0  0  0
  -18.9348  -47.0077  -23.4856 C   0  0  0  0  0  0  0  0  0  0  0  0
  -12.7088  -44.0707  -20.4186 N   0  0  0  0  0  0  0  0  0  0  0  0
  -13.4497  -43.0805  -21.1792 C   0  0  0  0  0  0  0  0  0  0  0  0
  -12.8358  -41.7333  -21.1017 C   0  0  0  0  0  0  0  0  0  0  0  0
  -13.1300  -40.5615  -21.7660 C   0  0  0  0  0  0  0  0  0  0  0  0
  -12.2065  -39.5926  -21.4819 N   0  0  0  0  0  0  0  0  0  0  0  0
  -11.3859  -40.1427  -20.6149 C   0  0  0  0  0  0  0  0  0  0  0  0
  -11.7220  -41.4396  -20.3538 N   0  0  0  0  0  0  0  0  0  0  0  0
  -17.4490  -40.8651  -18.7653 H   0  0  0  0  0  0  0  0  0  0  0  0
  -16.1486  -43.3620  -16.7402 H   0  0  0  0  0  0  0  0  0  0  0  0
  -17.8211  -42.9873  -17.1780 H   0  0  0  0  0  0  0  0  0  0  0  0
  -16.1372  -43.4210  -24.5137 H   0  0  0  0  0  0  0  0  0  0  0  0
  -15.5927  -42.2255  -23.3181 H   0  0  0  0  0  0  0  0  0  0  0  0
  -14.4099  -43.2486  -24.1878 H   0  0  0  0  0  0  0  0  0  0  0  0
  -14.4596  -42.2839  -18.7825 H   0  0  0  0  0  0  0  0  0  0  0  0
  -18.2743  -44.2453  -19.1681 H   0  0  0  0  0  0  0  0  0  0  0  0
  -19.4042  -45.3175  -24.7334 H   0  0  0  0  0  0  0  0  0  0  0  0
  -18.4474  -43.6763  -23.1582 H   0  0  0  0  0  0  0  0  0  0  0  0
  -17.4855  -46.8804  -20.4310 H   0  0  0  0  0  0  0  0  0  0  0  0
  -18.4704  -48.4933  -22.0070 H   0  0  0  0  0  0  0  0  0  0  0  0
  -19.2871  -47.7399  -24.2077 H   0  0  0  0  0  0  0  0  0  0  0  0
  -13.9361  -40.3774  -22.4644 H   0  0  0  0  0  0  0  0  0  0  0  0
  -10.5330  -39.6629  -20.1536 H   0  0  0  0  0  0  0  0  0  0  0  0
  -13.2900  -44.8971  -20.3168 H   0  0  0  0  0  0  0  0  0  0  0  0
  -11.9992  -44.4105  -21.0962 H   0  0  0  0  0  0  0  0  0  0  0  0
  -13.3739  -43.3841  -22.2246 H   0  0  0  0  0  0  0  0  0  0  0  0
  -11.2224  -42.0985  -19.7633 H   0  0  0  0  0  0  0  0  0  0  0  0
  5  6  1  0
  1  3  2  0
  4  3  1  0
  3  2  1  0
  7 12  2  0
  7  5  1  0
  7  8  1  0
  8  9  2  0
  9 10  1  0
 10 11  2  0
 10  4  1  0
 11 12  1  0
 12 15  1  0
 13 18  2  0
 13 14  1  0
 14 15  2  0
 15 16  1  0
 16 17  2  0
 17 18  1  0
 20 19  1  0
 21 20  1  0
 21 22  2  0
 21 25  1  0
 22 23  1  0
 23 24  2  0
 24 25  1  0
  8 20  1  0
  2 26  1  0
  4 27  1  0
  4 28  1  0
  6 29  1  0
  6 30  1  0
  6 31  1  0
  9 32  1  0
 11 33  1  0
 13 34  1  0
 14 35  1  0
 16 36  1  0
 17 37  1  0
 18 38  1  0
 22 39  1  0
 24 40  1  0
 19 41  1  0
 19 42  1  0
 20 43  1  0
 25 44  1  0
M  END
>  <smiles>  (857) 
[H]OC(=O)C([H])([H])c1c([H])c(-c2c([H])c([H])c([H])c([H])c2[H])c(OC([H])([H])[H])c(C(N)c2[nH]c([H])nc2[H])c1[H]

>  <error>  (857) 


>  <∆∆G>  (857) 
-79.629805

>  <∆G_bound>  (857) 
-74.624143

>  <∆G_unbound>  (857) 
5.005661

>  <comRMSD>  (857) 
1.215675

>  <N_constrained_atoms>  (857) 
25.0

>  <N_unconstrained_atoms>  (857) 
0.0

>  <runtime>  (857) 
2.9199

>  <regarded>  (857) 
['5f3t-a', 'z0875c']

>  <disregarded>  (857) 
[]

>  <LE>  (857) 
3.185192

>  <outcome>  (857) 
too moved

>  <percent_hybrid>  (857) 
28.0

$$$$
LIG
     RDKit          3D

 56 58  0  0  0  0  0  0  0  0999 V2000
  -15.1824  -43.8779  -15.1017 O   0  0  0  0  0  0  0  0  0  0  0  0
  -16.6205  -42.2687  -15.9996 C   0  0  0  0  0  0  0  0  0  0  0  0
  -15.7369  -43.4724  -16.1219 C   0  0  0  0  0  0  0  0  0  0  0  0
  -15.4440  -44.2142  -17.3784 C   0  0  0  0  0  0  0  0  0  0  0  0
  -15.7739  -43.3722  -22.8626 O   0  0  0  0  0  0  0  0  0  0  0  0
  -14.5043  -43.2943  -23.5009 C   0  0  0  0  0  0  0  0  0  0  0  0
  -13.8898  -42.1931  -18.5116 O   0  0  0  0  0  0  0  0  0  0  0  0
  -12.7015  -41.7058  -19.1363 C   0  0  0  0  0  0  0  0  0  0  0  0
  -19.6084  -45.8392  -24.6644 C   0  0  0  0  0  0  0  0  0  0  0  0
  -20.2909  -45.9904  -25.6425 C   0  0  0  0  0  0  0  0  0  0  0  0
  -21.0346  -46.3754  -26.8393 C   0  0  0  0  0  0  0  0  0  0  0  0
  -22.1570  -45.5299  -27.0252 O   0  0  0  0  0  0  0  0  0  0  0  0
  -14.9895  -45.3532  -17.2893 O   0  0  0  0  0  0  0  0  0  0  0  0
  -17.6843  -42.1813  -16.5855 O   0  0  0  0  0  0  0  0  0  0  0  0
  -14.0292  -38.1762  -16.0341 O   0  0  0  0  0  0  0  0  0  0  0  0
  -14.3985  -37.9677  -17.3929 C   0  0  0  0  0  0  0  0  0  0  0  0
  -15.7370  -43.4424  -21.4925 C   0  0  0  0  0  0  0  0  0  0  0  0
  -14.8500  -42.6673  -20.7218 C   0  0  0  0  0  0  0  0  0  0  0  0
  -14.7845  -42.8248  -19.3317 C   0  0  0  0  0  0  0  0  0  0  0  0
  -15.6833  -43.6974  -18.7210 C   0  0  0  0  0  0  0  0  0  0  0  0
  -16.6231  -44.4034  -19.4719 C   0  0  0  0  0  0  0  0  0  0  0  0
  -16.6395  -44.3271  -20.8737 C   0  0  0  0  0  0  0  0  0  0  0  0
  -18.8495  -46.0211  -23.4641 C   0  0  0  0  0  0  0  0  0  0  0  0
  -18.2026  -45.0029  -22.7680 C   0  0  0  0  0  0  0  0  0  0  0  0
  -17.4494  -45.3115  -21.6175 C   0  0  0  0  0  0  0  0  0  0  0  0
  -17.4045  -46.6515  -21.1804 C   0  0  0  0  0  0  0  0  0  0  0  0
  -18.0795  -47.6477  -21.8528 C   0  0  0  0  0  0  0  0  0  0  0  0
  -18.7897  -47.3318  -22.9920 C   0  0  0  0  0  0  0  0  0  0  0  0
  -14.3138  -39.3582  -14.0359 C   0  0  0  0  0  0  0  0  0  0  0  0
  -14.8480  -40.4022  -13.2768 C   0  0  0  0  0  0  0  0  0  0  0  0
  -15.6990  -41.3219  -13.8796 C   0  0  0  0  0  0  0  0  0  0  0  0
  -16.0053  -41.1754  -15.2365 C   0  0  0  0  0  0  0  0  0  0  0  0
  -15.5068  -40.1170  -15.9888 C   0  0  0  0  0  0  0  0  0  0  0  0
  -14.6420  -39.2118  -15.3890 C   0  0  0  0  0  0  0  0  0  0  0  0
  -13.7661  -43.9551  -23.0337 H   0  0  0  0  0  0  0  0  0  0  0  0
  -14.6344  -43.6105  -24.5388 H   0  0  0  0  0  0  0  0  0  0  0  0
  -14.1614  -42.2565  -23.5103 H   0  0  0  0  0  0  0  0  0  0  0  0
  -11.9976  -41.4342  -18.3439 H   0  0  0  0  0  0  0  0  0  0  0  0
  -12.2291  -42.4742  -19.7572 H   0  0  0  0  0  0  0  0  0  0  0  0
  -12.9148  -40.8035  -19.7179 H   0  0  0  0  0  0  0  0  0  0  0  0
  -21.3636  -47.4181  -26.8075 H   0  0  0  0  0  0  0  0  0  0  0  0
  -20.3887  -46.2597  -27.7074 H   0  0  0  0  0  0  0  0  0  0  0  0
  -22.9142  -45.9999  -26.6113 H   0  0  0  0  0  0  0  0  0  0  0  0
  -15.4712  -37.7693  -17.4895 H   0  0  0  0  0  0  0  0  0  0  0  0
  -13.8661  -37.0800  -17.7483 H   0  0  0  0  0  0  0  0  0  0  0  0
  -14.0886  -38.8101  -18.0203 H   0  0  0  0  0  0  0  0  0  0  0  0
  -14.1910  -41.9701  -21.2269 H   0  0  0  0  0  0  0  0  0  0  0  0
  -17.2834  -45.1039  -18.9625 H   0  0  0  0  0  0  0  0  0  0  0  0
  -18.2547  -43.9808  -23.1326 H   0  0  0  0  0  0  0  0  0  0  0  0
  -16.7908  -46.9425  -20.3313 H   0  0  0  0  0  0  0  0  0  0  0  0
  -17.9700  -48.6811  -21.5583 H   0  0  0  0  0  0  0  0  0  0  0  0
  -19.2836  -48.1280  -23.5409 H   0  0  0  0  0  0  0  0  0  0  0  0
  -13.6316  -38.6502  -13.5700 H   0  0  0  0  0  0  0  0  0  0  0  0
  -14.5799  -40.5079  -12.2288 H   0  0  0  0  0  0  0  0  0  0  0  0
  -16.0733  -42.1723  -13.3129 H   0  0  0  0  0  0  0  0  0  0  0  0
  -15.7549  -40.0636  -17.0436 H   0  0  0  0  0  0  0  0  0  0  0  0
  5  6  1  0
  1  3  2  0
  4  3  1  0
  3  2  1  0
  7  8  1  0
 11 12  1  0
 11 10  1  0
 10  9  3  0
 13  4  2  0
 14  2  2  0
 16 15  1  0
 17 22  2  0
 17  5  1  0
 17 18  1  0
 18 19  2  0
 19 20  1  0
 20 21  2  0
 20  4  1  0
 21 22  1  0
 22 25  1  0
 23 28  2  0
 23 24  1  0
 24 25  2  0
 25 26  1  0
 26 27  2  0
 27 28  1  0
 29 34  2  0
 29 30  1  0
 30 31  2  0
 31 32  1  0
 32 33  2  0
 33 34  1  0
 34 15  1  0
  7 19  1  0
  9 23  1  0
  2 32  1  0
  6 35  1  0
  6 36  1  0
  6 37  1  0
  8 38  1  0
  8 39  1  0
  8 40  1  0
 11 41  1  0
 11 42  1  0
 12 43  1  0
 16 44  1  0
 16 45  1  0
 16 46  1  0
 18 47  1  0
 21 48  1  0
 24 49  1  0
 26 50  1  0
 27 51  1  0
 28 52  1  0
 29 53  1  0
 30 54  1  0
 31 55  1  0
 33 56  1  0
M  END
>  <smiles>  (858) 
[H]OC([H])([H])C#Cc1c([H])c([H])c([H])c(-c2c([H])c(C(=O)C(=O)C(=O)c3c([H])c([H])c([H])c(OC([H])([H])[H])c3[H])c(OC([H])([H])[H])c([H])c2OC([H])([H])[H])c1[H]

>  <error>  (858) 


>  <∆∆G>  (858) 
-36.566489

>  <∆G_bound>  (858) 
98.488152

>  <∆G_unbound>  (858) 
135.054641

>  <comRMSD>  (858) 
0.768513

>  <N_constrained_atoms>  (858) 
34.0

>  <N_unconstrained_atoms>  (858) 
0.0

>  <runtime>  (858) 
2.208216

>  <regarded>  (858) 
['5f3t-a', '5i3p-a']

>  <disregarded>  (858) 
[]

>  <LE>  (858) 
1.075485

>  <outcome>  (858) 
acceptable

>  <percent_hybrid>  (858) 
48.0

$$$$
LIG
     RDKit          3D

 39 40  0  0  0  0  0  0  0  0999 V2000
  -18.5566  -41.6288  -16.8370 O   0  0  0  0  0  0  0  0  0  0  0  0
  -17.1376  -40.7424  -18.3325 O   0  0  0  0  0  0  0  0  0  0  0  0
  -17.4931  -41.6963  -17.4369 C   0  0  0  0  0  0  0  0  0  0  0  0
  -16.4584  -42.7875  -17.2151 C   0  0  0  0  0  0  0  0  0  0  0  0
  -14.9610  -44.2570  -22.4765 O   0  0  0  0  0  0  0  0  0  0  0  0
  -15.0490  -43.1688  -23.3942 C   0  0  0  0  0  0  0  0  0  0  0  0
  -12.0669  -40.5528  -21.5567 O   0  0  0  0  0  0  0  0  0  0  0  0
  -14.0450  -40.3449  -20.5546 O   0  0  0  0  0  0  0  0  0  0  0  0
  -13.1620  -41.0795  -20.9748 C   0  0  0  0  0  0  0  0  0  0  0  0
  -13.1087  -42.5881  -20.8848 C   0  0  0  0  0  0  0  0  0  0  0  0
  -17.8504  -44.7848  -18.6613 O   0  0  0  0  0  0  0  0  0  0  0  0
  -15.2780  -43.9354  -21.1780 C   0  0  0  0  0  0  0  0  0  0  0  0
  -14.4017  -43.1824  -20.3789 C   0  0  0  0  0  0  0  0  0  0  0  0
  -14.7520  -42.9225  -19.0463 C   0  0  0  0  0  0  0  0  0  0  0  0
  -15.9563  -43.3825  -18.5117 C   0  0  0  0  0  0  0  0  0  0  0  0
  -16.7533  -44.2372  -19.2791 C   0  0  0  0  0  0  0  0  0  0  0  0
  -16.4516  -44.5051  -20.6274 C   0  0  0  0  0  0  0  0  0  0  0  0
  -18.7388  -45.5582  -23.4296 C   0  0  0  0  0  0  0  0  0  0  0  0
  -18.0151  -44.7610  -22.5528 C   0  0  0  0  0  0  0  0  0  0  0  0
  -17.3388  -45.3279  -21.4595 C   0  0  0  0  0  0  0  0  0  0  0  0
  -17.4999  -46.6927  -21.1967 C   0  0  0  0  0  0  0  0  0  0  0  0
  -18.2515  -47.4819  -22.0560 C   0  0  0  0  0  0  0  0  0  0  0  0
  -18.8129  -46.9274  -23.2011 C   0  0  0  0  0  0  0  0  0  0  0  0
  -16.2756  -40.8804  -18.7730 H   0  0  0  0  0  0  0  0  0  0  0  0
  -15.6361  -42.3634  -16.6275 H   0  0  0  0  0  0  0  0  0  0  0  0
  -16.9059  -43.5676  -16.5999 H   0  0  0  0  0  0  0  0  0  0  0  0
  -15.3547  -42.2251  -22.9290 H   0  0  0  0  0  0  0  0  0  0  0  0
  -14.0821  -43.0403  -23.8850 H   0  0  0  0  0  0  0  0  0  0  0  0
  -15.7789  -43.4280  -24.1670 H   0  0  0  0  0  0  0  0  0  0  0  0
  -12.1812  -39.5822  -21.4853 H   0  0  0  0  0  0  0  0  0  0  0  0
  -12.8713  -42.9944  -21.8642 H   0  0  0  0  0  0  0  0  0  0  0  0
  -12.2996  -42.8619  -20.1995 H   0  0  0  0  0  0  0  0  0  0  0  0
  -18.4945  -45.0344  -19.3503 H   0  0  0  0  0  0  0  0  0  0  0  0
  -14.1017  -42.2888  -18.4415 H   0  0  0  0  0  0  0  0  0  0  0  0
  -19.2154  -45.1208  -24.3007 H   0  0  0  0  0  0  0  0  0  0  0  0
  -17.9334  -43.6946  -22.7502 H   0  0  0  0  0  0  0  0  0  0  0  0
  -16.9979  -47.1552  -20.3516 H   0  0  0  0  0  0  0  0  0  0  0  0
  -18.3249  -48.5499  -21.8904 H   0  0  0  0  0  0  0  0  0  0  0  0
  -19.3096  -47.5767  -23.9178 H   0  0  0  0  0  0  0  0  0  0  0  0
  5  6  1  0
  1  3  2  0
  4  3  1  0
  3  2  1  0
 10  9  1  0
  8  9  2  0
  9  7  1  0
 12 17  2  0
 12  5  1  0
 12 13  1  0
 13 14  2  0
 14 15  1  0
 15 16  2  0
 15  4  1  0
 16 17  1  0
 17 20  1  0
 18 23  2  0
 18 19  1  0
 19 20  2  0
 20 21  1  0
 21 22  2  0
 22 23  1  0
 10 13  1  0
 11 16  1  0
  2 24  1  0
  4 25  1  0
  4 26  1  0
  6 27  1  0
  6 28  1  0
  6 29  1  0
  7 30  1  0
 10 31  1  0
 10 32  1  0
 11 33  1  0
 14 34  1  0
 18 35  1  0
 19 36  1  0
 21 37  1  0
 22 38  1  0
 23 39  1  0
M  END
>  <smiles>  (859) 
[H]OC(=O)C([H])([H])c1c([H])c(C([H])([H])C(=O)O[H])c(OC([H])([H])[H])c(-c2c([H])c([H])c([H])c([H])c2[H])c1O[H]

>  <error>  (859) 


>  <∆∆G>  (859) 
-50.068517

>  <∆G_bound>  (859) 
-43.017938

>  <∆G_unbound>  (859) 
7.050579

>  <comRMSD>  (859) 
1.210418

>  <N_constrained_atoms>  (859) 
23.0

>  <N_unconstrained_atoms>  (859) 
0.0

>  <runtime>  (859) 
2.592882

>  <regarded>  (859) 
['5f3t-a', '5hn0-a']

>  <disregarded>  (859) 
[]

>  <LE>  (859) 
2.176892

>  <outcome>  (859) 
too moved

>  <percent_hybrid>  (859) 
22.0

$$$$
LIG
     RDKit          3D

 32 33  0  0  0  0  0  0  0  0999 V2000
  -17.3742  -40.8513  -17.7598 O   0  0  0  0  0  0  0  0  0  0  0  0
  -18.2211  -42.0467  -16.0565 O   0  0  0  0  0  0  0  0  0  0  0  0
  -17.3203  -41.8433  -17.0455 C   0  0  0  0  0  0  0  0  0  0  0  0
  -16.2490  -42.9086  -17.1481 C   0  0  0  0  0  0  0  0  0  0  0  0
  -15.2926  -44.1398  -22.6270 O   0  0  0  0  0  0  0  0  0  0  0  0
  -14.2296  -43.5306  -23.3354 C   0  0  0  0  0  0  0  0  0  0  0  0
  -15.4154  -43.8662  -21.2874 C   0  0  0  0  0  0  0  0  0  0  0  0
  -14.4936  -43.1390  -20.5347 C   0  0  0  0  0  0  0  0  0  0  0  0
  -14.7494  -42.8597  -19.1880 C   0  0  0  0  0  0  0  0  0  0  0  0
  -15.9223  -43.3121  -18.5702 C   0  0  0  0  0  0  0  0  0  0  0  0
  -16.8167  -44.0981  -19.3132 C   0  0  0  0  0  0  0  0  0  0  0  0
  -16.5774  -44.3817  -20.6688 C   0  0  0  0  0  0  0  0  0  0  0  0
  -18.7978  -45.5454  -23.4708 C   0  0  0  0  0  0  0  0  0  0  0  0
  -18.1472  -44.7018  -22.5802 C   0  0  0  0  0  0  0  0  0  0  0  0
  -17.5063  -45.2184  -21.4410 C   0  0  0  0  0  0  0  0  0  0  0  0
  -17.6395  -46.5809  -21.1473 C   0  0  0  0  0  0  0  0  0  0  0  0
  -18.3082  -47.4198  -22.0300 C   0  0  0  0  0  0  0  0  0  0  0  0
  -18.8311  -46.9121  -23.2150 C   0  0  0  0  0  0  0  0  0  0  0  0
  -18.1616  -42.8690  -15.5162 H   0  0  0  0  0  0  0  0  0  0  0  0
  -15.3569  -42.5361  -16.6318 H   0  0  0  0  0  0  0  0  0  0  0  0
  -16.5646  -43.8008  -16.6128 H   0  0  0  0  0  0  0  0  0  0  0  0
  -14.3735  -43.7312  -24.3999 H   0  0  0  0  0  0  0  0  0  0  0  0
  -14.2326  -42.4438  -23.2042 H   0  0  0  0  0  0  0  0  0  0  0  0
  -13.2789  -43.9749  -23.0334 H   0  0  0  0  0  0  0  0  0  0  0  0
  -13.5707  -42.7674  -20.9707 H   0  0  0  0  0  0  0  0  0  0  0  0
  -14.0335  -42.2506  -18.6386 H   0  0  0  0  0  0  0  0  0  0  0  0
  -17.7382  -44.4539  -18.8572 H   0  0  0  0  0  0  0  0  0  0  0  0
  -19.2382  -45.1449  -24.3773 H   0  0  0  0  0  0  0  0  0  0  0  0
  -18.0572  -43.6435  -22.8173 H   0  0  0  0  0  0  0  0  0  0  0  0
  -17.1497  -47.0075  -20.2781 H   0  0  0  0  0  0  0  0  0  0  0  0
  -18.3464  -48.4867  -21.8478 H   0  0  0  0  0  0  0  0  0  0  0  0
  -19.2704  -47.5929  -23.9397 H   0  0  0  0  0  0  0  0  0  0  0  0
  5  6  1  0
  1  3  2  0
  4  3  1  0
  3  2  1  0
  7 12  2  0
  7  5  1  0
  7  8  1  0
  8  9  2  0
  9 10  1  0
 10 11  2  0
 10  4  1  0
 11 12  1  0
 12 15  1  0
 13 18  2  0
 13 14  1  0
 14 15  2  0
 15 16  1  0
 16 17  2  0
 17 18  1  0
  2 19  1  0
  4 20  1  0
  4 21  1  0
  6 22  1  0
  6 23  1  0
  6 24  1  0
  8 25  1  0
  9 26  1  0
 11 27  1  0
 13 28  1  0
 14 29  1  0
 16 30  1  0
 17 31  1  0
 18 32  1  0
M  END
>  <smiles>  (860) 
[H]OC(=O)C([H])([H])c1c([H])c([H])c(OC([H])([H])[H])c(-c2c([H])c([H])c([H])c([H])c2[H])c1[H]

>  <error>  (860) 


>  <∆∆G>  (860) 
-16.641476

>  <∆G_bound>  (860) 
-54.300013

>  <∆G_unbound>  (860) 
-37.658537

>  <comRMSD>  (860) 
1.280374

>  <N_constrained_atoms>  (860) 
18.0

>  <N_unconstrained_atoms>  (860) 
0.0

>  <runtime>  (860) 
2.805869

>  <regarded>  (860) 
['5f3t-a', '5f41-a']

>  <disregarded>  (860) 
[]

>  <LE>  (860) 
0.924526

>  <outcome>  (860) 
equally sized

>  <percent_hybrid>  (860) 
0.0

$$$$
LIG
     RDKit          3D

 32 33  0  0  0  0  0  0  0  0999 V2000
  -17.3742  -40.8513  -17.7598 O   0  0  0  0  0  0  0  0  0  0  0  0
  -18.2211  -42.0467  -16.0565 O   0  0  0  0  0  0  0  0  0  0  0  0
  -17.3203  -41.8433  -17.0455 C   0  0  0  0  0  0  0  0  0  0  0  0
  -16.2490  -42.9086  -17.1481 C   0  0  0  0  0  0  0  0  0  0  0  0
  -15.2926  -44.1398  -22.6270 O   0  0  0  0  0  0  0  0  0  0  0  0
  -14.2296  -43.5306  -23.3354 C   0  0  0  0  0  0  0  0  0  0  0  0
  -15.4154  -43.8662  -21.2874 C   0  0  0  0  0  0  0  0  0  0  0  0
  -14.4936  -43.1390  -20.5347 C   0  0  0  0  0  0  0  0  0  0  0  0
  -14.7494  -42.8597  -19.1880 C   0  0  0  0  0  0  0  0  0  0  0  0
  -15.9223  -43.3121  -18.5702 C   0  0  0  0  0  0  0  0  0  0  0  0
  -16.8167  -44.0981  -19.3132 C   0  0  0  0  0  0  0  0  0  0  0  0
  -16.5774  -44.3817  -20.6688 C   0  0  0  0  0  0  0  0  0  0  0  0
  -18.7978  -45.5454  -23.4708 C   0  0  0  0  0  0  0  0  0  0  0  0
  -18.1472  -44.7018  -22.5802 C   0  0  0  0  0  0  0  0  0  0  0  0
  -17.5063  -45.2184  -21.4410 C   0  0  0  0  0  0  0  0  0  0  0  0
  -17.6395  -46.5809  -21.1473 C   0  0  0  0  0  0  0  0  0  0  0  0
  -18.3082  -47.4198  -22.0300 C   0  0  0  0  0  0  0  0  0  0  0  0
  -18.8311  -46.9121  -23.2150 C   0  0  0  0  0  0  0  0  0  0  0  0
  -18.1616  -42.8690  -15.5162 H   0  0  0  0  0  0  0  0  0  0  0  0
  -15.3569  -42.5361  -16.6318 H   0  0  0  0  0  0  0  0  0  0  0  0
  -16.5646  -43.8008  -16.6128 H   0  0  0  0  0  0  0  0  0  0  0  0
  -14.3735  -43.7312  -24.3999 H   0  0  0  0  0  0  0  0  0  0  0  0
  -14.2326  -42.4438  -23.2042 H   0  0  0  0  0  0  0  0  0  0  0  0
  -13.2789  -43.9749  -23.0334 H   0  0  0  0  0  0  0  0  0  0  0  0
  -13.5707  -42.7674  -20.9707 H   0  0  0  0  0  0  0  0  0  0  0  0
  -14.0335  -42.2506  -18.6386 H   0  0  0  0  0  0  0  0  0  0  0  0
  -17.7382  -44.4539  -18.8572 H   0  0  0  0  0  0  0  0  0  0  0  0
  -19.2382  -45.1449  -24.3773 H   0  0  0  0  0  0  0  0  0  0  0  0
  -18.0572  -43.6435  -22.8173 H   0  0  0  0  0  0  0  0  0  0  0  0
  -17.1497  -47.0075  -20.2781 H   0  0  0  0  0  0  0  0  0  0  0  0
  -18.3464  -48.4867  -21.8478 H   0  0  0  0  0  0  0  0  0  0  0  0
  -19.2704  -47.5929  -23.9397 H   0  0  0  0  0  0  0  0  0  0  0  0
  5  6  1  0
  1  3  2  0
  4  3  1  0
  3  2  1  0
  7 12  2  0
  7  5  1  0
  7  8  1  0
  8  9  2  0
  9 10  1  0
 10 11  2  0
 10  4  1  0
 11 12  1  0
 12 15  1  0
 13 18  2  0
 13 14  1  0
 14 15  2  0
 15 16  1  0
 16 17  2  0
 17 18  1  0
  2 19  1  0
  4 20  1  0
  4 21  1  0
  6 22  1  0
  6 23  1  0
  6 24  1  0
  8 25  1  0
  9 26  1  0
 11 27  1  0
 13 28  1  0
 14 29  1  0
 16 30  1  0
 17 31  1  0
 18 32  1  0
M  END
>  <smiles>  (861) 
[H]OC(=O)C([H])([H])c1c([H])c([H])c(OC([H])([H])[H])c(-c2c([H])c([H])c([H])c([H])c2[H])c1[H]

>  <error>  (861) 


>  <∆∆G>  (861) 
-16.641476

>  <∆G_bound>  (861) 
-54.300013

>  <∆G_unbound>  (861) 
-37.658537

>  <comRMSD>  (861) 
1.280374

>  <N_constrained_atoms>  (861) 
18.0

>  <N_unconstrained_atoms>  (861) 
0.0

>  <runtime>  (861) 
2.909142

>  <regarded>  (861) 
['5f3t-a', '6h80-a']

>  <disregarded>  (861) 
[]

>  <LE>  (861) 
0.924526

>  <outcome>  (861) 
equally sized

>  <percent_hybrid>  (861) 
0.0

$$$$
LIG
     RDKit          3D

 44 45  0  0  0  0  0  0  0  0999 V2000
  -14.0409  -44.4628  -16.8167 O   0  0  0  0  0  0  0  0  0  0  0  0
  -15.1088  -43.6868  -14.9983 O   0  0  0  0  0  0  0  0  0  0  0  0
  -14.9457  -43.7931  -16.3391 C   0  0  0  0  0  0  0  0  0  0  0  0
  -15.9919  -43.0323  -17.1233 C   0  0  0  0  0  0  0  0  0  0  0  0
  -15.5972  -43.1528  -22.7994 O   0  0  0  0  0  0  0  0  0  0  0  0
  -14.5346  -43.9759  -23.2737 C   0  0  0  0  0  0  0  0  0  0  0  0
  -13.8978  -41.3266  -21.3694 C   0  0  0  0  0  0  0  0  0  0  0  0
  -14.8891  -39.3842  -20.2197 O   0  0  0  0  0  0  0  0  0  0  0  0
  -13.1056  -39.0913  -21.5090 O   0  0  0  0  0  0  0  0  0  0  0  0
  -14.0539  -39.8825  -20.9563 C   0  0  0  0  0  0  0  0  0  0  0  0
  -19.4797  -45.8319  -24.5061 C   0  0  0  0  0  0  0  0  0  0  0  0
  -20.1496  -46.0119  -25.4900 C   0  0  0  0  0  0  0  0  0  0  0  0
  -20.8993  -46.4123  -26.6844 C   0  0  0  0  0  0  0  0  0  0  0  0
  -22.0813  -45.6409  -26.8097 O   0  0  0  0  0  0  0  0  0  0  0  0
  -15.6491  -43.1949  -21.4260 C   0  0  0  0  0  0  0  0  0  0  0  0
  -14.8532  -42.2920  -20.6934 C   0  0  0  0  0  0  0  0  0  0  0  0
  -14.9263  -42.3149  -19.2913 C   0  0  0  0  0  0  0  0  0  0  0  0
  -15.8400  -43.1345  -18.6238 C   0  0  0  0  0  0  0  0  0  0  0  0
  -16.6251  -44.0159  -19.3759 C   0  0  0  0  0  0  0  0  0  0  0  0
  -16.5351  -44.0860  -20.7848 C   0  0  0  0  0  0  0  0  0  0  0  0
  -18.7308  -45.9520  -23.2877 C   0  0  0  0  0  0  0  0  0  0  0  0
  -18.0680  -44.8960  -22.6578 C   0  0  0  0  0  0  0  0  0  0  0  0
  -17.3056  -45.1319  -21.4934 C   0  0  0  0  0  0  0  0  0  0  0  0
  -17.2386  -46.4470  -20.9934 C   0  0  0  0  0  0  0  0  0  0  0  0
  -17.9159  -47.4846  -21.6063 C   0  0  0  0  0  0  0  0  0  0  0  0
  -18.6675  -47.2338  -22.7390 C   0  0  0  0  0  0  0  0  0  0  0  0
  -15.9498  -43.2581  -14.7334 H   0  0  0  0  0  0  0  0  0  0  0  0
  -16.9828  -43.3983  -16.8358 H   0  0  0  0  0  0  0  0  0  0  0  0
  -15.9381  -41.9759  -16.8332 H   0  0  0  0  0  0  0  0  0  0  0  0
  -13.5734  -43.7294  -22.8140 H   0  0  0  0  0  0  0  0  0  0  0  0
  -14.7762  -45.0208  -23.0753 H   0  0  0  0  0  0  0  0  0  0  0  0
  -14.4496  -43.8247  -24.3521 H   0  0  0  0  0  0  0  0  0  0  0  0
  -14.0260  -41.3418  -22.4562 H   0  0  0  0  0  0  0  0  0  0  0  0
  -12.8747  -41.6470  -21.1396 H   0  0  0  0  0  0  0  0  0  0  0  0
  -13.3207  -38.2078  -21.1437 H   0  0  0  0  0  0  0  0  0  0  0  0
  -21.1562  -47.4752  -26.6762 H   0  0  0  0  0  0  0  0  0  0  0  0
  -20.2982  -46.2365  -27.5752 H   0  0  0  0  0  0  0  0  0  0  0  0
  -22.8174  -46.1909  -26.4643 H   0  0  0  0  0  0  0  0  0  0  0  0
  -14.2958  -41.6399  -18.7126 H   0  0  0  0  0  0  0  0  0  0  0  0
  -17.3378  -44.6566  -18.8600 H   0  0  0  0  0  0  0  0  0  0  0  0
  -18.1221  -43.8947  -23.0780 H   0  0  0  0  0  0  0  0  0  0  0  0
  -16.6167  -46.6748  -20.1308 H   0  0  0  0  0  0  0  0  0  0  0  0
  -17.7978  -48.4981  -21.2513 H   0  0  0  0  0  0  0  0  0  0  0  0
  -19.1726  -48.0627  -23.2271 H   0  0  0  0  0  0  0  0  0  0  0  0
  5  6  1  0
  1  3  2  0
  4  3  1  0
  3  2  1  0
  7 10  1  0
  8 10  2  0
 10  9  1  0
 14 13  1  0
 13 12  1  0
 12 11  3  0
 15 20  2  0
 15  5  1  0
 15 16  1  0
 16 17  2  0
 17 18  1  0
 18 19  2  0
 18  4  1  0
 19 20  1  0
 20 23  1  0
 21 26  2  0
 21 22  1  0
 22 23  2  0
 23 24  1  0
 24 25  2  0
 25 26  1  0
  7 16  1  0
 11 21  1  0
  2 27  1  0
  4 28  1  0
  4 29  1  0
  6 30  1  0
  6 31  1  0
  6 32  1  0
  7 33  1  0
  7 34  1  0
  9 35  1  0
 13 36  1  0
 13 37  1  0
 14 38  1  0
 17 39  1  0
 19 40  1  0
 22 41  1  0
 24 42  1  0
 25 43  1  0
 26 44  1  0
M  END
>  <smiles>  (862) 
[H]OC(=O)C([H])([H])c1c([H])c(-c2c([H])c([H])c([H])c(C#CC([H])([H])O[H])c2[H])c(OC([H])([H])[H])c(C([H])([H])C(=O)O[H])c1[H]

>  <error>  (862) 


>  <∆∆G>  (862) 
-36.000558

>  <∆G_bound>  (862) 
-5.082848

>  <∆G_unbound>  (862) 
30.91771

>  <comRMSD>  (862) 
1.224832

>  <N_constrained_atoms>  (862) 
26.0

>  <N_unconstrained_atoms>  (862) 
0.0

>  <runtime>  (862) 
4.707727

>  <regarded>  (862) 
['5f3t-a', '5hmy-a']

>  <disregarded>  (862) 
[]

>  <LE>  (862) 
1.384637

>  <outcome>  (862) 
too moved

>  <percent_hybrid>  (862) 
31.0

$$$$
LIG
     RDKit          3D

 54 57  0  0  0  0  0  0  0  0999 V2000
  -16.1528  -40.8399  -16.5133 O   0  0  0  0  0  0  0  0  0  0  0  0
  -17.5625  -42.0272  -15.2162 O   0  0  0  0  0  0  0  0  0  0  0  0
  -16.7463  -41.8829  -16.2847 C   0  0  0  0  0  0  0  0  0  0  0  0
  -16.6243  -43.1337  -17.1258 C   0  0  0  0  0  0  0  0  0  0  0  0
  -17.1754  -37.3505  -25.4012 C   0  0  0  0  0  0  0  0  0  0  0  0
  -17.9015  -38.2167  -26.3891 C   0  0  0  0  0  0  0  0  0  0  0  0
  -18.8418  -37.8091  -27.0712 O   0  0  0  0  0  0  0  0  0  0  0  0
  -17.4349  -39.5220  -26.5040 O   0  0  0  0  0  0  0  0  0  0  0  0
  -15.7402  -42.7967  -21.4388 C   0  0  2  0  0  0  0  0  0  0  0  0
  -14.7487  -42.1505  -20.4141 C   0  0  0  0  0  0  0  0  0  0  0  0
  -14.9060  -42.5981  -18.9552 C   0  0  0  0  0  0  0  0  0  0  0  0
  -16.3662  -42.8633  -18.6175 C   0  0  1  0  0  0  0  0  0  0  0  0
  -16.8729  -44.0440  -19.4613 C   0  0  0  0  0  0  0  0  0  0  0  0
  -16.2294  -44.1855  -20.8769 C   0  0  1  0  0  0  0  0  0  0  0  0
  -18.6712  -45.6926  -23.4701 C   0  0  0  0  0  0  0  0  0  0  0  0
  -17.8609  -44.7727  -22.8078 C   0  0  0  0  0  0  0  0  0  0  0  0
  -17.1313  -45.1365  -21.6717 C   0  0  0  0  0  0  0  0  0  0  0  0
  -17.2572  -46.4627  -21.2117 C   0  0  0  0  0  0  0  0  0  0  0  0
  -18.0608  -47.3817  -21.8749 C   0  0  0  0  0  0  0  0  0  0  0  0
  -18.7401  -47.0043  -23.0220 C   0  0  0  0  0  0  0  0  0  0  0  0
  -14.9968  -42.8191  -22.7233 N   0  0  0  0  0  0  0  0  0  0  0  0
  -15.4681  -41.9093  -23.6625 C   0  0  0  0  0  0  0  0  0  0  0  0
  -16.6457  -41.2385  -23.3419 C   0  0  0  0  0  0  0  0  0  0  0  0
  -17.1858  -41.6431  -21.7135 S   0  0  0  0  0  0  0  0  0  0  0  0
  -16.7285  -40.1918  -25.4820 C   0  0  0  0  0  0  0  0  0  0  0  0
  -17.3138  -40.4171  -24.2439 C   0  0  0  0  0  0  0  0  0  0  0  0
  -14.8783  -41.6159  -24.8846 C   0  0  0  0  0  0  0  0  0  0  0  0
  -15.4964  -40.7527  -25.7988 C   0  0  0  0  0  0  0  0  0  0  0  0
  -14.2390  -43.9822  -23.1318 C   0  0  0  0  0  0  0  0  0  0  0  0
  -18.0075  -42.9010  -15.1036 H   0  0  0  0  0  0  0  0  0  0  0  0
  -15.8446  -43.7696  -16.6955 H   0  0  0  0  0  0  0  0  0  0  0  0
  -17.5848  -43.6505  -17.0597 H   0  0  0  0  0  0  0  0  0  0  0  0
  -16.0987  -37.5165  -25.4638 H   0  0  0  0  0  0  0  0  0  0  0  0
  -17.3541  -36.3012  -25.6565 H   0  0  0  0  0  0  0  0  0  0  0  0
  -17.5428  -37.5323  -24.3896 H   0  0  0  0  0  0  0  0  0  0  0  0
  -13.7111  -42.3803  -20.6962 H   0  0  0  0  0  0  0  0  0  0  0  0
  -14.8096  -41.0546  -20.4615 H   0  0  0  0  0  0  0  0  0  0  0  0
  -14.3141  -43.5071  -18.7852 H   0  0  0  0  0  0  0  0  0  0  0  0
  -14.4790  -41.8296  -18.3015 H   0  0  0  0  0  0  0  0  0  0  0  0
  -16.9466  -41.9711  -18.8830 H   0  0  0  0  0  0  0  0  0  0  0  0
  -16.6937  -44.9759  -18.9068 H   0  0  0  0  0  0  0  0  0  0  0  0
  -17.9655  -43.9542  -19.5434 H   0  0  0  0  0  0  0  0  0  0  0  0
  -15.3040  -44.7644  -20.7277 H   0  0  0  0  0  0  0  0  0  0  0  0
  -19.2147  -45.3939  -24.3612 H   0  0  0  0  0  0  0  0  0  0  0  0
  -17.8024  -43.7818  -23.2361 H   0  0  0  0  0  0  0  0  0  0  0  0
  -16.7019  -46.8001  -20.3414 H   0  0  0  0  0  0  0  0  0  0  0  0
  -18.0977  -48.4131  -21.5496 H   0  0  0  0  0  0  0  0  0  0  0  0
  -19.2986  -47.7482  -23.5824 H   0  0  0  0  0  0  0  0  0  0  0  0
  -18.2778  -39.9934  -23.9873 H   0  0  0  0  0  0  0  0  0  0  0  0
  -13.9407  -42.0785  -25.1595 H   0  0  0  0  0  0  0  0  0  0  0  0
  -15.0409  -40.5751  -26.7693 H   0  0  0  0  0  0  0  0  0  0  0  0
  -13.6617  -44.3799  -22.2921 H   0  0  0  0  0  0  0  0  0  0  0  0
  -14.9254  -44.7556  -23.4800 H   0  0  0  0  0  0  0  0  0  0  0  0
  -13.5257  -43.7831  -23.9331 H   0  0  0  0  0  0  0  0  0  0  0  0
  1  3  2  0
  4  3  1  0
  3  2  1  0
  8  6  1  0
  6  7  2  0
  6  5  1  0
  9 14  1  0
  9 10  1  0
 10 11  1  0
 11 12  1  0
 12 13  1  0
 12  4  1  0
 13 14  1  0
 14 17  1  0
 15 20  2  0
 15 16  1  0
 16 17  2  0
 17 18  1  0
 18 19  2  0
 19 20  1  0
 21 22  1  0
 22 27  2  0
 22 23  1  0
 23 24  1  0
 23 26  2  0
 25 28  2  0
 25 26  1  0
 25  8  1  0
 27 28  1  0
  9 21  1  0
  9 24  1  1
 21 29  1  0
  2 30  1  0
  4 31  1  0
  4 32  1  0
  5 33  1  0
  5 34  1  0
  5 35  1  0
 10 36  1  0
 10 37  1  0
 11 38  1  0
 11 39  1  0
 12 40  1  6
 13 41  1  0
 13 42  1  0
 14 43  1  6
 15 44  1  0
 16 45  1  0
 18 46  1  0
 19 47  1  0
 20 48  1  0
 26 49  1  0
 27 50  1  0
 28 51  1  0
 29 52  1  0
 29 53  1  0
 29 54  1  0
M  END
>  <smiles>  (863) 
[H]OC(=O)C([H])([H])[C@@]1([H])C([H])([H])C([H])([H])[C@@]2(Sc3c([H])c(OC(=O)C([H])([H])[H])c([H])c([H])c3N2C([H])([H])[H])[C@@]([H])(c2c([H])c([H])c([H])c([H])c2[H])C1([H])[H]

>  <error>  (863) 


>  <∆∆G>  (863) 
-74.424368

>  <∆G_bound>  (863) 
158.23857

>  <∆G_unbound>  (863) 
232.662938

>  <comRMSD>  (863) 
1.600197

>  <N_constrained_atoms>  (863) 
29.0

>  <N_unconstrained_atoms>  (863) 
0.0

>  <runtime>  (863) 
6.797744

>  <regarded>  (863) 
['5f3t-a', '6izx-a']

>  <disregarded>  (863) 
[]

>  <LE>  (863) 
2.566358

>  <outcome>  (863) 
too moved

>  <percent_hybrid>  (863) 
42.0

$$$$

     RDKit          2D

  0  0  0  0  0  0  0  0  0  0999 V2000
M  END
>  <smiles>  (864) 
nan

>  <error>  (864) 
FragmensteinError Ideal compound failed. Something is wrong with the SMILES

>  <∆∆G>  (864) 
nan

>  <∆G_bound>  (864) 
nan

>  <∆G_unbound>  (864) 
nan

>  <comRMSD>  (864) 
nan

>  <N_constrained_atoms>  (864) 
nan

>  <N_unconstrained_atoms>  (864) 
nan

>  <runtime>  (864) 
nan

>  <regarded>  (864) 
[]

>  <disregarded>  (864) 
[]

>  <LE>  (864) 
nan

>  <outcome>  (864) 
crashed

>  <percent_hybrid>  (864) 
nan

$$$$
LIG
     RDKit          3D

 38 39  0  0  0  0  0  0  0  0999 V2000
  -13.0619  -43.9920  -16.0721 O   0  0  0  0  0  0  0  0  0  0  0  0
  -14.0785  -41.9744  -16.0239 O   0  0  0  0  0  0  0  0  0  0  0  0
  -14.0304  -43.2893  -16.3310 C   0  0  0  0  0  0  0  0  0  0  0  0
  -15.2526  -43.8010  -17.0505 C   0  0  0  0  0  0  0  0  0  0  0  0
  -15.5161  -43.0547  -22.6832 O   0  0  0  0  0  0  0  0  0  0  0  0
  -14.6264  -43.8987  -23.4104 C   0  0  0  0  0  0  0  0  0  0  0  0
  -13.5805  -41.5264  -21.2389 C   0  0  0  0  0  0  0  0  0  0  0  0
  -12.8781  -39.2567  -21.2799 O   0  0  0  0  0  0  0  0  0  0  0  0
  -13.7110  -40.1320  -20.6721 C   0  0  0  0  0  0  0  0  0  0  0  0
  -14.4341  -39.7431  -19.7686 O   0  0  0  0  0  0  0  0  0  0  0  0
  -15.4238  -43.3035  -21.3333 C   0  0  0  0  0  0  0  0  0  0  0  0
  -14.4962  -42.5486  -20.5937 C   0  0  0  0  0  0  0  0  0  0  0  0
  -14.3999  -42.7637  -19.2121 C   0  0  0  0  0  0  0  0  0  0  0  0
  -15.2606  -43.6407  -18.5502 C   0  0  0  0  0  0  0  0  0  0  0  0
  -16.2013  -44.3573  -19.3094 C   0  0  0  0  0  0  0  0  0  0  0  0
  -16.2921  -44.2312  -20.7108 C   0  0  0  0  0  0  0  0  0  0  0  0
  -18.7358  -45.4467  -23.3517 C   0  0  0  0  0  0  0  0  0  0  0  0
  -17.9953  -44.5929  -22.5377 C   0  0  0  0  0  0  0  0  0  0  0  0
  -17.2371  -45.0886  -21.4639 C   0  0  0  0  0  0  0  0  0  0  0  0
  -17.3492  -46.4588  -21.1633 C   0  0  0  0  0  0  0  0  0  0  0  0
  -18.1199  -47.3072  -21.9516 C   0  0  0  0  0  0  0  0  0  0  0  0
  -18.7584  -46.8099  -23.0788 C   0  0  0  0  0  0  0  0  0  0  0  0
  -14.8848  -41.5200  -16.3426 H   0  0  0  0  0  0  0  0  0  0  0  0
  -15.3006  -44.8708  -16.8224 H   0  0  0  0  0  0  0  0  0  0  0  0
  -16.1449  -43.3351  -16.6170 H   0  0  0  0  0  0  0  0  0  0  0  0
  -13.6319  -43.9620  -22.9565 H   0  0  0  0  0  0  0  0  0  0  0  0
  -15.0697  -44.8920  -23.4833 H   0  0  0  0  0  0  0  0  0  0  0  0
  -14.5211  -43.4898  -24.4187 H   0  0  0  0  0  0  0  0  0  0  0  0
  -13.7764  -41.4422  -22.3118 H   0  0  0  0  0  0  0  0  0  0  0  0
  -12.5449  -41.8608  -21.1062 H   0  0  0  0  0  0  0  0  0  0  0  0
  -13.0527  -38.4178  -20.8044 H   0  0  0  0  0  0  0  0  0  0  0  0
  -13.6490  -42.1993  -18.6594 H   0  0  0  0  0  0  0  0  0  0  0  0
  -16.8904  -45.0248  -18.7952 H   0  0  0  0  0  0  0  0  0  0  0  0
  -19.2684  -45.0505  -24.2104 H   0  0  0  0  0  0  0  0  0  0  0  0
  -17.9693  -43.5325  -22.7809 H   0  0  0  0  0  0  0  0  0  0  0  0
  -16.7814  -46.8935  -20.3460 H   0  0  0  0  0  0  0  0  0  0  0  0
  -18.1479  -48.3717  -21.7456 H   0  0  0  0  0  0  0  0  0  0  0  0
  -19.2693  -47.4975  -23.7479 H   0  0  0  0  0  0  0  0  0  0  0  0
  5  6  1  0
  1  3  2  0
  4  3  1  0
  3  2  1  0
  7  9  1  0
 10  9  2  0
  9  8  1  0
 11 16  2  0
 11  5  1  0
 11 12  1  0
 12 13  2  0
 13 14  1  0
 14 15  2  0
 14  4  1  0
 15 16  1  0
 16 19  1  0
 17 22  2  0
 17 18  1  0
 18 19  2  0
 19 20  1  0
 20 21  2  0
 21 22  1  0
  7 12  1  0
  2 23  1  0
  4 24  1  0
  4 25  1  0
  6 26  1  0
  6 27  1  0
  6 28  1  0
  7 29  1  0
  7 30  1  0
  8 31  1  0
 13 32  1  0
 15 33  1  0
 17 34  1  0
 18 35  1  0
 20 36  1  0
 21 37  1  0
 22 38  1  0
M  END
>  <smiles>  (865) 
[H]OC(=O)C([H])([H])c1c([H])c(-c2c([H])c([H])c([H])c([H])c2[H])c(OC([H])([H])[H])c(C([H])([H])C(=O)O[H])c1[H]

>  <error>  (865) 


>  <∆∆G>  (865) 
-66.447829

>  <∆G_bound>  (865) 
-57.25841

>  <∆G_unbound>  (865) 
9.189419

>  <comRMSD>  (865) 
1.371938

>  <N_constrained_atoms>  (865) 
22.0

>  <N_unconstrained_atoms>  (865) 
0.0

>  <runtime>  (865) 
2.447355

>  <regarded>  (865) 
['5f3t-a', '5hmx-b']

>  <disregarded>  (865) 
[]

>  <LE>  (865) 
3.020356

>  <outcome>  (865) 
too moved

>  <percent_hybrid>  (865) 
19.0

$$$$
LIG
     RDKit          3D

 61 63  0  0  0  0  0  0  0  0999 V2000
  -15.8683  -42.5216  -15.0801 C   0  0  0  0  0  0  0  0  0  0  0  0
  -17.4879  -43.1287  -16.8507 O   0  0  0  0  0  0  0  0  0  0  0  0
  -16.1241  -42.7308  -16.5999 C   0  0  2  0  0  0  0  0  0  0  0  0
  -15.1987  -43.7214  -17.3006 C   0  0  0  0  0  0  0  0  0  0  0  0
  -15.5694  -43.6094  -22.9181 O   0  0  0  0  0  0  0  0  0  0  0  0
  -14.4091  -43.3434  -23.6872 C   0  0  0  0  0  0  0  0  0  0  0  0
  -13.4318  -42.2025  -18.7402 O   0  0  0  0  0  0  0  0  0  0  0  0
  -12.2762  -41.7298  -19.4233 C   0  0  0  0  0  0  0  0  0  0  0  0
  -17.0449  -41.8797  -14.5639 O   0  0  0  0  0  0  0  0  0  0  0  0
  -19.4648  -45.8763  -24.5305 C   0  0  0  0  0  0  0  0  0  0  0  0
  -20.1210  -46.0459  -25.5251 C   0  0  0  0  0  0  0  0  0  0  0  0
  -20.8568  -46.4520  -26.7256 C   0  0  0  0  0  0  0  0  0  0  0  0
  -22.0096  -45.6448  -26.8967 O   0  0  0  0  0  0  0  0  0  0  0  0
  -14.4360  -44.5322  -16.7849 O   0  0  0  0  0  0  0  0  0  0  0  0
  -15.7944  -43.7231  -14.3693 O   0  0  0  0  0  0  0  0  0  0  0  0
  -12.4769  -38.8894  -15.6422 O   0  0  0  0  0  0  0  0  0  0  0  0
  -13.0185  -38.5705  -16.9165 C   0  0  0  0  0  0  0  0  0  0  0  0
  -15.4233  -43.6147  -21.5541 C   0  0  0  0  0  0  0  0  0  0  0  0
  -14.4429  -42.8632  -20.8805 C   0  0  0  0  0  0  0  0  0  0  0  0
  -14.3417  -42.9038  -19.4863 C   0  0  0  0  0  0  0  0  0  0  0  0
  -15.2615  -43.6734  -18.7755 C   0  0  0  0  0  0  0  0  0  0  0  0
  -16.2532  -44.4057  -19.4307 C   0  0  0  0  0  0  0  0  0  0  0  0
  -16.3393  -44.4113  -20.8353 C   0  0  0  0  0  0  0  0  0  0  0  0
  -18.7443  -46.0492  -23.3024 C   0  0  0  0  0  0  0  0  0  0  0  0
  -18.0386  -45.0462  -22.6380 C   0  0  0  0  0  0  0  0  0  0  0  0
  -17.2591  -45.3603  -21.5007 C   0  0  0  0  0  0  0  0  0  0  0  0
  -17.2587  -46.6873  -21.0368 C   0  0  0  0  0  0  0  0  0  0  0  0
  -17.9831  -47.6673  -21.6832 C   0  0  0  0  0  0  0  0  0  0  0  0
  -18.7294  -47.3480  -22.7995 C   0  0  0  0  0  0  0  0  0  0  0  0
  -12.5185  -40.1664  -13.7008 C   0  0  0  0  0  0  0  0  0  0  0  0
  -13.0336  -41.1737  -12.8964 C   0  0  0  0  0  0  0  0  0  0  0  0
  -14.1014  -41.9331  -13.3593 C   0  0  0  0  0  0  0  0  0  0  0  0
  -14.6665  -41.7113  -14.6366 C   0  0  0  0  0  0  0  0  0  0  0  0
  -14.1388  -40.6794  -15.4197 C   0  0  0  0  0  0  0  0  0  0  0  0
  -13.0677  -39.9137  -14.9586 C   0  0  0  0  0  0  0  0  0  0  0  0
  -17.9194  -43.1198  -15.9643 H   0  0  0  0  0  0  0  0  0  0  0  0
  -16.0376  -41.7674  -17.1114 H   0  0  0  0  0  0  0  0  0  0  0  0
  -14.1818  -42.2740  -23.6707 H   0  0  0  0  0  0  0  0  0  0  0  0
  -13.5588  -43.9480  -23.3566 H   0  0  0  0  0  0  0  0  0  0  0  0
  -14.6342  -43.6114  -24.7210 H   0  0  0  0  0  0  0  0  0  0  0  0
  -11.5442  -41.4234  -18.6708 H   0  0  0  0  0  0  0  0  0  0  0  0
  -11.8258  -42.5078  -20.0444 H   0  0  0  0  0  0  0  0  0  0  0  0
  -12.5243  -40.8506  -20.0266 H   0  0  0  0  0  0  0  0  0  0  0  0
  -16.7486  -41.2089  -13.9250 H   0  0  0  0  0  0  0  0  0  0  0  0
  -21.1501  -47.5051  -26.6986 H   0  0  0  0  0  0  0  0  0  0  0  0
  -20.2292  -46.3152  -27.6043 H   0  0  0  0  0  0  0  0  0  0  0  0
  -22.7565  -46.1392  -26.4950 H   0  0  0  0  0  0  0  0  0  0  0  0
  -16.6688  -43.7713  -13.9463 H   0  0  0  0  0  0  0  0  0  0  0  0
  -14.0604  -38.2434  -16.8344 H   0  0  0  0  0  0  0  0  0  0  0  0
  -12.4417  -37.7342  -17.3235 H   0  0  0  0  0  0  0  0  0  0  0  0
  -12.9182  -39.4088  -17.6121 H   0  0  0  0  0  0  0  0  0  0  0  0
  -13.7626  -42.2441  -21.4521 H   0  0  0  0  0  0  0  0  0  0  0  0
  -16.9551  -44.9885  -18.8382 H   0  0  0  0  0  0  0  0  0  0  0  0
  -18.0450  -44.0340  -23.0331 H   0  0  0  0  0  0  0  0  0  0  0  0
  -16.6284  -46.9847  -20.2027 H   0  0  0  0  0  0  0  0  0  0  0  0
  -17.8775  -48.7000  -21.3901 H   0  0  0  0  0  0  0  0  0  0  0  0
  -19.2597  -48.1400  -23.3193 H   0  0  0  0  0  0  0  0  0  0  0  0
  -11.6808  -39.5697  -13.3485 H   0  0  0  0  0  0  0  0  0  0  0  0
  -12.6025  -41.3693  -11.9187 H   0  0  0  0  0  0  0  0  0  0  0  0
  -14.4883  -42.7187  -12.7118 H   0  0  0  0  0  0  0  0  0  0  0  0
  -14.5694  -40.4680  -16.3899 H   0  0  0  0  0  0  0  0  0  0  0  0
  5  6  1  0
  1  3  1  0
  4  3  1  0
  3  2  1  0
  7  8  1  0
  9  1  1  0
 12 13  1  0
 12 11  1  0
 11 10  3  0
 14  4  2  0
 15  1  1  0
 17 16  1  0
 18 23  2  0
 18  5  1  0
 18 19  1  0
 19 20  2  0
 20 21  1  0
 21 22  2  0
 21  4  1  0
 22 23  1  0
 23 26  1  0
 24 29  2  0
 24 25  1  0
 25 26  2  0
 26 27  1  0
 27 28  2  0
 28 29  1  0
 30 35  2  0
 30 31  1  0
 31 32  2  0
 32 33  1  0
 33 34  2  0
 34 35  1  0
 35 16  1  0
  7 20  1  0
 10 24  1  0
  1 33  1  0
  2 36  1  0
  3 37  1  6
  6 38  1  0
  6 39  1  0
  6 40  1  0
  8 41  1  0
  8 42  1  0
  8 43  1  0
  9 44  1  0
 12 45  1  0
 12 46  1  0
 13 47  1  0
 15 48  1  0
 17 49  1  0
 17 50  1  0
 17 51  1  0
 19 52  1  0
 22 53  1  0
 25 54  1  0
 27 55  1  0
 28 56  1  0
 29 57  1  0
 30 58  1  0
 31 59  1  0
 32 60  1  0
 34 61  1  0
M  END
>  <smiles>  (866) 
[H]OC([H])([H])C#Cc1c([H])c([H])c([H])c(-c2c([H])c(C(=O)[C@@]([H])(O[H])C(O[H])(O[H])c3c([H])c([H])c([H])c(OC([H])([H])[H])c3[H])c(OC([H])([H])[H])c([H])c2OC([H])([H])[H])c1[H]

>  <error>  (866) 


>  <∆∆G>  (866) 
-49.155634

>  <∆G_bound>  (866) 
96.571841

>  <∆G_unbound>  (866) 
145.727476

>  <comRMSD>  (866) 
0.700418

>  <N_constrained_atoms>  (866) 
35.0

>  <N_unconstrained_atoms>  (866) 
0.0

>  <runtime>  (866) 
4.26387

>  <regarded>  (866) 
['5f3t-a', '5k5m-a']

>  <disregarded>  (866) 
[]

>  <LE>  (866) 
1.404447

>  <outcome>  (866) 
acceptable

>  <percent_hybrid>  (866) 
49.0

$$$$
LIG
     RDKit          3D

 44 45  0  0  0  0  0  0  0  0999 V2000
  -15.1233  -43.3188  -15.1086 O   0  0  0  0  0  0  0  0  0  0  0  0
  -17.0135  -42.3506  -16.0522 C   0  0  0  0  0  0  0  0  0  0  0  0
  -15.8044  -43.2293  -16.1275 C   0  0  0  0  0  0  0  0  0  0  0  0
  -15.3584  -44.0335  -17.3078 C   0  0  0  0  0  0  0  0  0  0  0  0
  -15.7036  -43.4827  -22.8687 O   0  0  0  0  0  0  0  0  0  0  0  0
  -14.4754  -43.3017  -23.5585 C   0  0  0  0  0  0  0  0  0  0  0  0
  -19.5732  -45.8197  -24.5978 C   0  0  0  0  0  0  0  0  0  0  0  0
  -20.2491  -45.9768  -25.5808 C   0  0  0  0  0  0  0  0  0  0  0  0
  -20.9884  -46.3714  -26.7802 C   0  0  0  0  0  0  0  0  0  0  0  0
  -22.1455  -45.5690  -26.9416 O   0  0  0  0  0  0  0  0  0  0  0  0
  -17.0837  -41.4697  -14.8381 C   0  0  0  0  0  0  0  0  0  0  0  0
  -13.4663  -42.1806  -18.6537 C   0  0  0  0  0  0  0  0  0  0  0  0
  -14.7683  -45.0923  -17.1083 O   0  0  0  0  0  0  0  0  0  0  0  0
  -17.8648  -42.4006  -16.9260 O   0  0  0  0  0  0  0  0  0  0  0  0
  -15.6385  -43.4877  -21.4984 C   0  0  0  0  0  0  0  0  0  0  0  0
  -14.6905  -42.7496  -20.7718 C   0  0  0  0  0  0  0  0  0  0  0  0
  -14.6154  -42.8337  -19.3696 C   0  0  0  0  0  0  0  0  0  0  0  0
  -15.5581  -43.6239  -18.7010 C   0  0  0  0  0  0  0  0  0  0  0  0
  -16.5378  -44.3205  -19.4161 C   0  0  0  0  0  0  0  0  0  0  0  0
  -16.5734  -44.2982  -20.8251 C   0  0  0  0  0  0  0  0  0  0  0  0
  -18.8245  -45.9960  -23.3871 C   0  0  0  0  0  0  0  0  0  0  0  0
  -18.1800  -44.9759  -22.6891 C   0  0  0  0  0  0  0  0  0  0  0  0
  -17.4224  -45.2788  -21.5365 C   0  0  0  0  0  0  0  0  0  0  0  0
  -17.3776  -46.6151  -21.0937 C   0  0  0  0  0  0  0  0  0  0  0  0
  -18.0445  -47.6150  -21.7714 C   0  0  0  0  0  0  0  0  0  0  0  0
  -18.7598  -47.3051  -22.9108 C   0  0  0  0  0  0  0  0  0  0  0  0
  -13.6788  -43.9272  -23.1423 H   0  0  0  0  0  0  0  0  0  0  0  0
  -14.6322  -43.6016  -24.5973 H   0  0  0  0  0  0  0  0  0  0  0  0
  -14.1990  -42.2437  -23.5596 H   0  0  0  0  0  0  0  0  0  0  0  0
  -21.2770  -47.4263  -26.7587 H   0  0  0  0  0  0  0  0  0  0  0  0
  -20.3608  -46.2246  -27.6574 H   0  0  0  0  0  0  0  0  0  0  0  0
  -22.8972  -46.0929  -26.5941 H   0  0  0  0  0  0  0  0  0  0  0  0
  -17.1805  -42.0789  -13.9361 H   0  0  0  0  0  0  0  0  0  0  0  0
  -16.1939  -40.8374  -14.7818 H   0  0  0  0  0  0  0  0  0  0  0  0
  -17.9612  -40.8210  -14.9162 H   0  0  0  0  0  0  0  0  0  0  0  0
  -13.8150  -41.6638  -17.7540 H   0  0  0  0  0  0  0  0  0  0  0  0
  -12.7206  -42.9321  -18.3751 H   0  0  0  0  0  0  0  0  0  0  0  0
  -12.9779  -41.4304  -19.2846 H   0  0  0  0  0  0  0  0  0  0  0  0
  -13.9590  -42.1403  -21.2967 H   0  0  0  0  0  0  0  0  0  0  0  0
  -17.2293  -44.9648  -18.8756 H   0  0  0  0  0  0  0  0  0  0  0  0
  -18.2242  -43.9554  -23.0603 H   0  0  0  0  0  0  0  0  0  0  0  0
  -16.7608  -46.8997  -20.2450 H   0  0  0  0  0  0  0  0  0  0  0  0
  -17.9251  -48.6479  -21.4787 H   0  0  0  0  0  0  0  0  0  0  0  0
  -19.2465  -48.1067  -23.4581 H   0  0  0  0  0  0  0  0  0  0  0  0
  5  6  1  0
  1  3  2  0
  4  3  1  0
  3  2  1  0
 10  9  1  0
  9  8  1  0
  8  7  3  0
 11  2  1  0
 13  4  2  0
 14  2  2  0
 15 20  2  0
 15  5  1  0
 15 16  1  0
 16 17  2  0
 17 18  1  0
 18 19  2  0
 18  4  1  0
 19 20  1  0
 20 23  1  0
 21 26  2  0
 21 22  1  0
 22 23  2  0
 23 24  1  0
 24 25  2  0
 25 26  1  0
 12 17  1  0
  7 21  1  0
  6 27  1  0
  6 28  1  0
  6 29  1  0
  9 30  1  0
  9 31  1  0
 10 32  1  0
 11 33  1  0
 11 34  1  0
 11 35  1  0
 12 36  1  0
 12 37  1  0
 12 38  1  0
 16 39  1  0
 19 40  1  0
 22 41  1  0
 24 42  1  0
 25 43  1  0
 26 44  1  0
M  END
>  <smiles>  (867) 
[H]OC([H])([H])C#Cc1c([H])c([H])c([H])c(-c2c([H])c(C(=O)C(=O)C(=O)C([H])([H])[H])c(C([H])([H])[H])c([H])c2OC([H])([H])[H])c1[H]

>  <error>  (867) 


>  <∆∆G>  (867) 
-36.689568

>  <∆G_bound>  (867) 
53.196149

>  <∆G_unbound>  (867) 
89.885717

>  <comRMSD>  (867) 
0.810403

>  <N_constrained_atoms>  (867) 
26.0

>  <N_unconstrained_atoms>  (867) 
0.0

>  <runtime>  (867) 
1.902434

>  <regarded>  (867) 
['5f3t-a', '5hmz-a']

>  <disregarded>  (867) 
[]

>  <LE>  (867) 
1.411137

>  <outcome>  (867) 
acceptable

>  <percent_hybrid>  (867) 
31.0

$$$$
LIG
     RDKit          3D

 38 39  0  0  0  0  0  0  0  0999 V2000
  -15.7229  -41.0602  -15.7499 O   0  0  0  0  0  0  0  0  0  0  0  0
  -16.8001  -40.6693  -17.6901 O   0  0  0  0  0  0  0  0  0  0  0  0
  -16.2440  -41.4913  -16.7688 C   0  0  0  0  0  0  0  0  0  0  0  0
  -16.3554  -42.9675  -17.0933 C   0  0  0  0  0  0  0  0  0  0  0  0
  -15.0190  -44.2107  -22.4914 O   0  0  0  0  0  0  0  0  0  0  0  0
  -15.1292  -43.1396  -23.4256 C   0  0  0  0  0  0  0  0  0  0  0  0
  -12.1341  -40.4659  -21.5104 O   0  0  0  0  0  0  0  0  0  0  0  0
  -14.3417  -40.5604  -21.3542 O   0  0  0  0  0  0  0  0  0  0  0  0
  -13.1266  -41.1395  -21.2710 C   0  0  0  0  0  0  0  0  0  0  0  0
  -13.1290  -42.6065  -20.9162 C   0  0  0  0  0  0  0  0  0  0  0  0
  -15.3412  -43.8586  -21.2022 C   0  0  0  0  0  0  0  0  0  0  0  0
  -14.4446  -43.1366  -20.4002 C   0  0  0  0  0  0  0  0  0  0  0  0
  -14.7779  -42.8852  -19.0605 C   0  0  0  0  0  0  0  0  0  0  0  0
  -15.9878  -43.3282  -18.5160 C   0  0  0  0  0  0  0  0  0  0  0  0
  -16.8459  -44.0974  -19.3123 C   0  0  0  0  0  0  0  0  0  0  0  0
  -16.5363  -44.3755  -20.6557 C   0  0  0  0  0  0  0  0  0  0  0  0
  -18.7645  -45.5181  -23.4674 C   0  0  0  0  0  0  0  0  0  0  0  0
  -18.0832  -44.6849  -22.5887 C   0  0  0  0  0  0  0  0  0  0  0  0
  -17.4331  -45.2116  -21.4611 C   0  0  0  0  0  0  0  0  0  0  0  0
  -17.5790  -46.5738  -21.1699 C   0  0  0  0  0  0  0  0  0  0  0  0
  -18.2782  -47.4019  -22.0387 C   0  0  0  0  0  0  0  0  0  0  0  0
  -18.8156  -46.8844  -23.2123 C   0  0  0  0  0  0  0  0  0  0  0  0
  -17.1484  -41.1382  -18.4733 H   0  0  0  0  0  0  0  0  0  0  0  0
  -15.6948  -43.5220  -16.4170 H   0  0  0  0  0  0  0  0  0  0  0  0
  -17.3863  -43.2623  -16.8747 H   0  0  0  0  0  0  0  0  0  0  0  0
  -15.7921  -42.3382  -23.0805 H   0  0  0  0  0  0  0  0  0  0  0  0
  -14.1421  -42.7348  -23.6516 H   0  0  0  0  0  0  0  0  0  0  0  0
  -15.5421  -43.5456  -24.3544 H   0  0  0  0  0  0  0  0  0  0  0  0
  -14.1358  -39.6322  -21.5892 H   0  0  0  0  0  0  0  0  0  0  0  0
  -12.8363  -43.1725  -21.7979 H   0  0  0  0  0  0  0  0  0  0  0  0
  -12.3598  -42.7677  -20.1521 H   0  0  0  0  0  0  0  0  0  0  0  0
  -14.0837  -42.3123  -18.4429 H   0  0  0  0  0  0  0  0  0  0  0  0
  -17.7817  -44.4720  -18.9000 H   0  0  0  0  0  0  0  0  0  0  0  0
  -19.2213  -45.1111  -24.3632 H   0  0  0  0  0  0  0  0  0  0  0  0
  -18.0048  -43.6250  -22.8164 H   0  0  0  0  0  0  0  0  0  0  0  0
  -17.0886  -47.0079  -20.3040 H   0  0  0  0  0  0  0  0  0  0  0  0
  -18.3321  -48.4681  -21.8533 H   0  0  0  0  0  0  0  0  0  0  0  0
  -19.2784  -47.5585  -23.9290 H   0  0  0  0  0  0  0  0  0  0  0  0
  5  6  1  0
  1  3  2  0
  4  3  1  0
  3  2  1  0
 10  9  1  0
  7  9  2  0
  9  8  1  0
 11 16  2  0
 11  5  1  0
 11 12  1  0
 12 13  2  0
 13 14  1  0
 14 15  2  0
 14  4  1  0
 15 16  1  0
 16 19  1  0
 17 22  2  0
 17 18  1  0
 18 19  2  0
 19 20  1  0
 20 21  2  0
 21 22  1  0
 10 12  1  0
  2 23  1  0
  4 24  1  0
  4 25  1  0
  6 26  1  0
  6 27  1  0
  6 28  1  0
  8 29  1  0
 10 30  1  0
 10 31  1  0
 13 32  1  0
 15 33  1  0
 17 34  1  0
 18 35  1  0
 20 36  1  0
 21 37  1  0
 22 38  1  0
M  END
>  <smiles>  (868) 
[H]OC(=O)C([H])([H])c1c([H])c(-c2c([H])c([H])c([H])c([H])c2[H])c(OC([H])([H])[H])c(C([H])([H])C(=O)O[H])c1[H]

>  <error>  (868) 


>  <∆∆G>  (868) 
-74.268217

>  <∆G_bound>  (868) 
-56.731806

>  <∆G_unbound>  (868) 
17.536411

>  <comRMSD>  (868) 
1.321586

>  <N_constrained_atoms>  (868) 
22.0

>  <N_unconstrained_atoms>  (868) 
0.0

>  <runtime>  (868) 
3.249216

>  <regarded>  (868) 
['5f3t-a', '5hmw-b']

>  <disregarded>  (868) 
[]

>  <LE>  (868) 
3.375828

>  <outcome>  (868) 
too moved

>  <percent_hybrid>  (868) 
19.0

$$$$
LIG
     RDKit          3D

 32 33  0  0  0  0  0  0  0  0999 V2000
  -17.3742  -40.8513  -17.7598 O   0  0  0  0  0  0  0  0  0  0  0  0
  -18.2211  -42.0467  -16.0565 O   0  0  0  0  0  0  0  0  0  0  0  0
  -17.3203  -41.8433  -17.0455 C   0  0  0  0  0  0  0  0  0  0  0  0
  -16.2490  -42.9086  -17.1481 C   0  0  0  0  0  0  0  0  0  0  0  0
  -15.2926  -44.1398  -22.6270 O   0  0  0  0  0  0  0  0  0  0  0  0
  -14.2296  -43.5306  -23.3354 C   0  0  0  0  0  0  0  0  0  0  0  0
  -15.4154  -43.8662  -21.2874 C   0  0  0  0  0  0  0  0  0  0  0  0
  -14.4936  -43.1390  -20.5347 C   0  0  0  0  0  0  0  0  0  0  0  0
  -14.7494  -42.8597  -19.1880 C   0  0  0  0  0  0  0  0  0  0  0  0
  -15.9223  -43.3121  -18.5702 C   0  0  0  0  0  0  0  0  0  0  0  0
  -16.8167  -44.0981  -19.3132 C   0  0  0  0  0  0  0  0  0  0  0  0
  -16.5774  -44.3817  -20.6688 C   0  0  0  0  0  0  0  0  0  0  0  0
  -18.7978  -45.5454  -23.4708 C   0  0  0  0  0  0  0  0  0  0  0  0
  -18.1472  -44.7018  -22.5802 C   0  0  0  0  0  0  0  0  0  0  0  0
  -17.5063  -45.2184  -21.4410 C   0  0  0  0  0  0  0  0  0  0  0  0
  -17.6395  -46.5809  -21.1473 C   0  0  0  0  0  0  0  0  0  0  0  0
  -18.3082  -47.4198  -22.0300 C   0  0  0  0  0  0  0  0  0  0  0  0
  -18.8311  -46.9121  -23.2150 C   0  0  0  0  0  0  0  0  0  0  0  0
  -18.1616  -42.8690  -15.5162 H   0  0  0  0  0  0  0  0  0  0  0  0
  -15.3569  -42.5361  -16.6318 H   0  0  0  0  0  0  0  0  0  0  0  0
  -16.5646  -43.8008  -16.6128 H   0  0  0  0  0  0  0  0  0  0  0  0
  -14.3735  -43.7312  -24.3999 H   0  0  0  0  0  0  0  0  0  0  0  0
  -14.2326  -42.4438  -23.2042 H   0  0  0  0  0  0  0  0  0  0  0  0
  -13.2789  -43.9749  -23.0334 H   0  0  0  0  0  0  0  0  0  0  0  0
  -13.5707  -42.7674  -20.9707 H   0  0  0  0  0  0  0  0  0  0  0  0
  -14.0335  -42.2506  -18.6386 H   0  0  0  0  0  0  0  0  0  0  0  0
  -17.7382  -44.4539  -18.8572 H   0  0  0  0  0  0  0  0  0  0  0  0
  -19.2382  -45.1449  -24.3773 H   0  0  0  0  0  0  0  0  0  0  0  0
  -18.0572  -43.6435  -22.8173 H   0  0  0  0  0  0  0  0  0  0  0  0
  -17.1497  -47.0075  -20.2781 H   0  0  0  0  0  0  0  0  0  0  0  0
  -18.3464  -48.4867  -21.8478 H   0  0  0  0  0  0  0  0  0  0  0  0
  -19.2704  -47.5929  -23.9397 H   0  0  0  0  0  0  0  0  0  0  0  0
  5  6  1  0
  1  3  2  0
  4  3  1  0
  3  2  1  0
  7 12  2  0
  7  5  1  0
  7  8  1  0
  8  9  2  0
  9 10  1  0
 10 11  2  0
 10  4  1  0
 11 12  1  0
 12 15  1  0
 13 18  2  0
 13 14  1  0
 14 15  2  0
 15 16  1  0
 16 17  2  0
 17 18  1  0
  2 19  1  0
  4 20  1  0
  4 21  1  0
  6 22  1  0
  6 23  1  0
  6 24  1  0
  8 25  1  0
  9 26  1  0
 11 27  1  0
 13 28  1  0
 14 29  1  0
 16 30  1  0
 17 31  1  0
 18 32  1  0
M  END
>  <smiles>  (869) 
[H]OC(=O)C([H])([H])c1c([H])c([H])c(OC([H])([H])[H])c(-c2c([H])c([H])c([H])c([H])c2[H])c1[H]

>  <error>  (869) 


>  <∆∆G>  (869) 
-16.641476

>  <∆G_bound>  (869) 
-54.300013

>  <∆G_unbound>  (869) 
-37.658537

>  <comRMSD>  (869) 
1.280374

>  <N_constrained_atoms>  (869) 
18.0

>  <N_unconstrained_atoms>  (869) 
0.0

>  <runtime>  (869) 
2.913927

>  <regarded>  (869) 
['5f3t-a', '5f3z-a']

>  <disregarded>  (869) 
[]

>  <LE>  (869) 
0.924526

>  <outcome>  (869) 
equally sized

>  <percent_hybrid>  (869) 
0.0

$$$$
LIG
     RDKit          3D

 32 33  0  0  0  0  0  0  0  0999 V2000
  -17.3742  -40.8513  -17.7598 O   0  0  0  0  0  0  0  0  0  0  0  0
  -18.2211  -42.0467  -16.0565 O   0  0  0  0  0  0  0  0  0  0  0  0
  -17.3203  -41.8433  -17.0455 C   0  0  0  0  0  0  0  0  0  0  0  0
  -16.2490  -42.9086  -17.1481 C   0  0  0  0  0  0  0  0  0  0  0  0
  -15.2926  -44.1398  -22.6270 O   0  0  0  0  0  0  0  0  0  0  0  0
  -14.2296  -43.5306  -23.3354 C   0  0  0  0  0  0  0  0  0  0  0  0
  -15.4154  -43.8662  -21.2874 C   0  0  0  0  0  0  0  0  0  0  0  0
  -14.4936  -43.1390  -20.5347 C   0  0  0  0  0  0  0  0  0  0  0  0
  -14.7494  -42.8597  -19.1880 C   0  0  0  0  0  0  0  0  0  0  0  0
  -15.9223  -43.3121  -18.5702 C   0  0  0  0  0  0  0  0  0  0  0  0
  -16.8167  -44.0981  -19.3132 C   0  0  0  0  0  0  0  0  0  0  0  0
  -16.5774  -44.3817  -20.6688 C   0  0  0  0  0  0  0  0  0  0  0  0
  -18.7978  -45.5454  -23.4708 C   0  0  0  0  0  0  0  0  0  0  0  0
  -18.1472  -44.7018  -22.5802 C   0  0  0  0  0  0  0  0  0  0  0  0
  -17.5063  -45.2184  -21.4410 C   0  0  0  0  0  0  0  0  0  0  0  0
  -17.6395  -46.5809  -21.1473 C   0  0  0  0  0  0  0  0  0  0  0  0
  -18.3082  -47.4198  -22.0300 C   0  0  0  0  0  0  0  0  0  0  0  0
  -18.8311  -46.9121  -23.2150 C   0  0  0  0  0  0  0  0  0  0  0  0
  -18.1616  -42.8690  -15.5162 H   0  0  0  0  0  0  0  0  0  0  0  0
  -15.3569  -42.5361  -16.6318 H   0  0  0  0  0  0  0  0  0  0  0  0
  -16.5646  -43.8008  -16.6128 H   0  0  0  0  0  0  0  0  0  0  0  0
  -14.3735  -43.7312  -24.3999 H   0  0  0  0  0  0  0  0  0  0  0  0
  -14.2326  -42.4438  -23.2042 H   0  0  0  0  0  0  0  0  0  0  0  0
  -13.2789  -43.9749  -23.0334 H   0  0  0  0  0  0  0  0  0  0  0  0
  -13.5707  -42.7674  -20.9707 H   0  0  0  0  0  0  0  0  0  0  0  0
  -14.0335  -42.2506  -18.6386 H   0  0  0  0  0  0  0  0  0  0  0  0
  -17.7382  -44.4539  -18.8572 H   0  0  0  0  0  0  0  0  0  0  0  0
  -19.2382  -45.1449  -24.3773 H   0  0  0  0  0  0  0  0  0  0  0  0
  -18.0572  -43.6435  -22.8173 H   0  0  0  0  0  0  0  0  0  0  0  0
  -17.1497  -47.0075  -20.2781 H   0  0  0  0  0  0  0  0  0  0  0  0
  -18.3464  -48.4867  -21.8478 H   0  0  0  0  0  0  0  0  0  0  0  0
  -19.2704  -47.5929  -23.9397 H   0  0  0  0  0  0  0  0  0  0  0  0
  5  6  1  0
  1  3  2  0
  4  3  1  0
  3  2  1  0
  7 12  2  0
  7  5  1  0
  7  8  1  0
  8  9  2  0
  9 10  1  0
 10 11  2  0
 10  4  1  0
 11 12  1  0
 12 15  1  0
 13 18  2  0
 13 14  1  0
 14 15  2  0
 15 16  1  0
 16 17  2  0
 17 18  1  0
  2 19  1  0
  4 20  1  0
  4 21  1  0
  6 22  1  0
  6 23  1  0
  6 24  1  0
  8 25  1  0
  9 26  1  0
 11 27  1  0
 13 28  1  0
 14 29  1  0
 16 30  1  0
 17 31  1  0
 18 32  1  0
M  END
>  <smiles>  (870) 
[H]OC(=O)C([H])([H])c1c([H])c([H])c(OC([H])([H])[H])c(-c2c([H])c([H])c([H])c([H])c2[H])c1[H]

>  <error>  (870) 


>  <∆∆G>  (870) 
-16.641476

>  <∆G_bound>  (870) 
-54.300013

>  <∆G_unbound>  (870) 
-37.658537

>  <comRMSD>  (870) 
1.280374

>  <N_constrained_atoms>  (870) 
18.0

>  <N_unconstrained_atoms>  (870) 
0.0

>  <runtime>  (870) 
2.934623

>  <regarded>  (870) 
['5f3t-a', '6h9r-a']

>  <disregarded>  (870) 
[]

>  <LE>  (870) 
0.924526

>  <outcome>  (870) 
equally sized

>  <percent_hybrid>  (870) 
0.0

$$$$
