z0471a
     RDKit          3D

 13 14  0  0  0  0  0  0  0  0999 V2000
  -26.8950  -44.6010  -19.3700 O   0  0  0  0  0  0  0  0  0  0  0  0
  -25.7490  -44.1720  -19.2520 C   0  0  0  0  0  0  0  0  0  0  0  0
  -25.3290  -43.1420  -20.1960 C   0  0  0  0  0  0  0  0  0  0  0  0
  -24.3400  -43.3010  -21.1570 C   0  0  0  0  0  0  0  0  0  0  0  0
  -24.2540  -42.1490  -21.8250 N   0  0  0  0  0  0  0  0  0  0  0  0
  -25.1270  -41.2280  -21.3610 N   0  0  0  0  0  0  0  0  0  0  0  0
  -25.7860  -41.8250  -20.3730 C   0  0  0  0  0  0  0  0  0  0  0  0
  -24.8790  -44.6010  -18.3140 N   0  0  0  0  0  0  0  0  0  0  0  0
  -23.5100  -44.1040  -18.1400 C   0  0  0  0  0  0  0  0  0  0  0  0
  -22.5420  -45.2550  -18.2320 C   0  0  0  0  0  0  0  0  0  0  0  0
  -22.8320  -46.2600  -17.2630 O   0  0  0  0  0  0  0  0  0  0  0  0
  -24.1650  -46.7580  -17.4420 C   0  0  0  0  0  0  0  0  0  0  0  0
  -25.1890  -45.6540  -17.3410 C   0  0  0  0  0  0  0  0  0  0  0  0
  2  1  2  0
  8  2  1  0
  8 13  1  0
 13 12  1  0
 12 11  1  0
 11 10  1  0
 10  9  1  0
  9  8  1  0
  3  2  1  0
  3  7  1  0
  7  6  2  0
  6  5  1  0
  5  4  1  0
  4  3  2  0
M  END
>  <id>  (1) 
4

>  <inchikey>  (1) 
BSUUYSUZYIKWRR-UHFFFAOYSA-N

>  <alias>  (1) 
z0471a

>  <smiles>  (1) 
O=C(c1cn[nH]c1)N1CCOCC1

>  <path>  (1) 
/opt/xchem-fragalysis-2/maxwin/BulkDock/TARGETS/Flavi_NS5_RdRp/aligned_files/z0471a/z0471a.pdb

>  <distance_score>  (1) 
None

>  <energy_score>  (1) 
None

>  <compound>  (1) 
BSUUYSUZYIKWRR-UHFFFAOYSA-N

>  <compound_id>  (1) 
4

>  <target>  (1) 
Flavi_NS5_RdRp

>  <tags>  (1) 
['[Other] upload_1 2024-11-21', '[Other] fragment screen', '[Other] Primer grip/N-pocket (P2)', '[Other] Zika', '[Other] upload_1 2024-11-13', 'hits', 'Pose']

>  <inspirations>  (1) 


>  <reference>  (1) 


>  <observation_longname>  (1) 
Zika_NS5A-x0471_A_1013_1_Zika_NS5A-x0193+A+1201+1

>  <ConformerSites alias>  (1) 
28a - z0193/A/1201

>  <CanonSites alias>  (1) 
28 - z0193/A/1201/1

>  <CrystalformSites alias>  (1) 
F4at - z0193/A/1201

>  <Quatassemblies alias>  (1) 
A1 - all

>  <Crystalforms alias>  (1) 
F4 - P43212

>  <ConformerSites upload name>  (1) 
28a - Zika_NS5A-x0193/A/1201

>  <CanonSites upload name>  (1) 
28 - Zika_NS5A-x0193/A/1201/1

>  <CrystalformSites upload name>  (1) 
F4at - Zika_NS5A-x0193/A/1201/1

>  <Quatassemblies upload name>  (1) 
A1 - monomer

>  <Crystalforms upload name>  (1) 
F4 - P43212

>  <ConformerSites short tag>  (1) 
28a - z0193/A/1201

>  <CanonSites short tag>  (1) 
28 - z0193/A/1201/1

>  <CrystalformSites short tag>  (1) 
F4at - z0193/A/1201

>  <Quatassemblies short tag>  (1) 
A1 - monomer

>  <Crystalforms short tag>  (1) 
F4 - P43212

>  <Centroid res>  (1) 
Zika_NS5A-x0193/A/803/A_v1

>  <Experiment code>  (1) 
Zika_NS5A-x0471

>  <SLURM_JOB_ID>  (1) 
nan

>  <SLURM_JOB_NAME>  (1) 
nan

>  <csv_name>  (1) 
nan

>  <scratch_subdir>  (1) 
nan

>  <fragmenstein_runtime>  (1) 
nan

>  <fragmenstein_outcome>  (1) 
nan

>  <fragmenstein_mode>  (1) 
nan

>  <fragmenstein_error>  (1) 
nan

$$$$
d0160a
     RDKit          3D

 12 13  0  0  0  0  0  0  0  0999 V2000
  -14.8680  -42.8470  -22.4170 C   0  0  0  0  0  0  0  0  0  0  0  0
  -14.3590  -41.4720  -22.7610 C   0  0  0  0  0  0  0  0  0  0  0  0
  -14.6310  -40.6870  -23.8930 C   0  0  0  0  0  0  0  0  0  0  0  0
  -13.9280  -39.5420  -23.7350 N   0  0  0  0  0  0  0  0  0  0  0  0
  -13.2130  -39.5230  -22.5740 N   0  0  0  0  0  0  0  0  0  0  0  0
  -13.4780  -40.6900  -21.9930 C   0  0  0  0  0  0  0  0  0  0  0  0
  -15.4880  -40.9120  -25.0760 C   0  0  0  0  0  0  0  0  0  0  0  0
  -16.4450  -41.9230  -25.0890 C   0  0  0  0  0  0  0  0  0  0  0  0
  -17.2400  -42.0720  -26.2090 C   0  0  0  0  0  0  0  0  0  0  0  0
  -17.1550  -41.2910  -27.2920 N   0  0  0  0  0  0  0  0  0  0  0  0
  -16.2280  -40.3270  -27.2660 C   0  0  0  0  0  0  0  0  0  0  0  0
  -15.3790  -40.1030  -26.1990 C   0  0  0  0  0  0  0  0  0  0  0  0
  2  1  1  0
  2  6  1  0
  6  5  2  0
  5  4  1  0
  4  3  1  0
  3  2  2  0
  7  3  1  0
  7 12  2  0
 12 11  1  0
 11 10  2  0
 10  9  1  0
  9  8  2  0
  8  7  1  0
M  END
>  <id>  (2) 
12

>  <inchikey>  (2) 
DIJNPLGAABOOQW-UHFFFAOYSA-N

>  <alias>  (2) 
d0160a

>  <smiles>  (2) 
Cc1cn[nH]c1-c1ccncc1

>  <path>  (2) 
/opt/xchem-fragalysis-2/maxwin/BulkDock/TARGETS/Flavi_NS5_RdRp/aligned_files/d0160a/d0160a.pdb

>  <distance_score>  (2) 
None

>  <energy_score>  (2) 
None

>  <compound>  (2) 
DIJNPLGAABOOQW-UHFFFAOYSA-N

>  <compound_id>  (2) 
10

>  <target>  (2) 
Flavi_NS5_RdRp

>  <tags>  (2) 
['[Other] upload_1 2024-11-21', 'Pose', '[Other] fragment screen', '[Other] Primer grip/N-pocket (P2)', '[Other] upload_1 2024-11-13', 'hits', '[Other] DENV-2']

>  <inspirations>  (2) 


>  <reference>  (2) 


>  <observation_longname>  (2) 
DNV2_NS5A-x0160_A_1608_1_DNV2_NS5A-x0254+A+1701+1

>  <ConformerSites alias>  (2) 
6a - d0254/A/1701

>  <CanonSites alias>  (2) 
6 - d0254/A/1701/1

>  <CrystalformSites alias>  (2) 
F1n - d0254/A/1701

>  <Quatassemblies alias>  (2) 
A1 - all

>  <Crystalforms alias>  (2) 
F1 - I222

>  <ConformerSites upload name>  (2) 
6a - DNV2_NS5A-x0254/A/1701

>  <CanonSites upload name>  (2) 
6 - DNV2_NS5A-x0254/A/1701/1

>  <CrystalformSites upload name>  (2) 
F1n - DNV2_NS5A-x0254/A/1701/1

>  <Quatassemblies upload name>  (2) 
A1 - monomer

>  <Crystalforms upload name>  (2) 
F1 - I222

>  <ConformerSites short tag>  (2) 
6a - d0254/A/1701

>  <CanonSites short tag>  (2) 
6 - d0254/A/1701/1

>  <CrystalformSites short tag>  (2) 
F1n - d0254/A/1701

>  <Quatassemblies short tag>  (2) 
A1 - monomer

>  <Crystalforms short tag>  (2) 
F1 - I222

>  <Centroid res>  (2) 
DNV2_NS5A-x0254/A/512/A_v1

>  <Experiment code>  (2) 
DNV2_NS5A-x0160

>  <SLURM_JOB_ID>  (2) 
nan

>  <SLURM_JOB_NAME>  (2) 
nan

>  <csv_name>  (2) 
nan

>  <scratch_subdir>  (2) 
nan

>  <fragmenstein_runtime>  (2) 
nan

>  <fragmenstein_outcome>  (2) 
nan

>  <fragmenstein_mode>  (2) 
nan

>  <fragmenstein_error>  (2) 
nan

$$$$
d0191a
     RDKit          3D

 12 13  0  0  0  0  0  0  0  0999 V2000
  -14.7240  -41.6290  -24.2740 C   0  0  0  0  0  0  0  0  0  0  0  0
  -15.1980  -42.8250  -23.8310 C   0  0  0  0  0  0  0  0  0  0  0  0
  -16.1900  -43.2470  -24.7330 C   0  0  0  0  0  0  0  0  0  0  0  0
  -16.2940  -42.2990  -25.7020 C   0  0  0  0  0  0  0  0  0  0  0  0
  -15.3980  -41.2940  -25.4230 N   0  0  0  0  0  0  0  0  0  0  0  0
  -15.2480  -40.0370  -26.1670 C   0  0  0  0  0  0  0  0  0  0  0  0
  -16.3550  -39.0540  -25.8750 C   0  0  0  0  0  0  0  0  0  0  0  0
  -17.4060  -38.8590  -26.7540 C   0  0  0  0  0  0  0  0  0  0  0  0
  -18.3830  -37.9610  -26.5720 N   0  0  0  0  0  0  0  0  0  0  0  0
  -18.3220  -37.2060  -25.4700 C   0  0  0  0  0  0  0  0  0  0  0  0
  -17.3280  -37.3290  -24.5260 C   0  0  0  0  0  0  0  0  0  0  0  0
  -16.3410  -38.2750  -24.7310 C   0  0  0  0  0  0  0  0  0  0  0  0
  7  6  1  0
  7 12  2  0
 12 11  1  0
 11 10  2  0
 10  9  1  0
  9  8  2  0
  8  7  1  0
  6  5  1  0
  5  4  1  0
  4  3  2  0
  3  2  1  0
  2  1  2  0
  5  1  1  0
M  END
>  <id>  (3) 
19

>  <inchikey>  (3) 
PJVWPGGKILHMKW-UHFFFAOYSA-N

>  <alias>  (3) 
d0191a

>  <smiles>  (3) 
c1cncc(Cn2cccc2)c1

>  <path>  (3) 
/opt/xchem-fragalysis-2/maxwin/BulkDock/TARGETS/Flavi_NS5_RdRp/aligned_files/d0191a/d0191a.pdb

>  <distance_score>  (3) 
None

>  <energy_score>  (3) 
None

>  <compound>  (3) 
PJVWPGGKILHMKW-UHFFFAOYSA-N

>  <compound_id>  (3) 
16

>  <target>  (3) 
Flavi_NS5_RdRp

>  <tags>  (3) 
['[Other] upload_1 2024-11-21', 'Pose', '[Other] fragment screen', '[Other] Primer grip/N-pocket (P2)', '[Other] upload_1 2024-11-13', 'hits', '[Other] DENV-2']

>  <inspirations>  (3) 


>  <reference>  (3) 


>  <observation_longname>  (3) 
DNV2_NS5A-x0191_A_1608_1_DNV2_NS5A-x0254+A+1701+1

>  <ConformerSites alias>  (3) 
6a - d0254/A/1701

>  <CanonSites alias>  (3) 
6 - d0254/A/1701/1

>  <CrystalformSites alias>  (3) 
F1m - d0160/A/1702

>  <Quatassemblies alias>  (3) 
A1 - all

>  <Crystalforms alias>  (3) 
F1 - I222

>  <ConformerSites upload name>  (3) 
6a - DNV2_NS5A-x0254/A/1701

>  <CanonSites upload name>  (3) 
6 - DNV2_NS5A-x0254/A/1701/1

>  <CrystalformSites upload name>  (3) 
F1m - DNV2_NS5A-x0160/A/1702/1

>  <Quatassemblies upload name>  (3) 
A1 - monomer

>  <Crystalforms upload name>  (3) 
F1 - I222

>  <ConformerSites short tag>  (3) 
6a - d0254/A/1701

>  <CanonSites short tag>  (3) 
6 - d0254/A/1701/1

>  <CrystalformSites short tag>  (3) 
F1m - d0160/A/1702

>  <Quatassemblies short tag>  (3) 
A1 - monomer

>  <Crystalforms short tag>  (3) 
F1 - I222

>  <Centroid res>  (3) 
DNV2_NS5A-x0254/A/512/A_v1

>  <Experiment code>  (3) 
DNV2_NS5A-x0191

>  <SLURM_JOB_ID>  (3) 
nan

>  <SLURM_JOB_NAME>  (3) 
nan

>  <csv_name>  (3) 
nan

>  <scratch_subdir>  (3) 
nan

>  <fragmenstein_runtime>  (3) 
nan

>  <fragmenstein_outcome>  (3) 
nan

>  <fragmenstein_mode>  (3) 
nan

>  <fragmenstein_error>  (3) 
nan

$$$$
d0254a
     RDKit          3D

 15 16  0  0  0  0  0  0  0  0999 V2000
  -18.5140  -44.9440  -23.0850 O   0  0  0  0  0  0  0  0  0  0  0  0
  -17.5800  -44.9250  -22.2900 C   0  0  0  0  0  0  0  0  0  0  0  0
  -17.6230  -45.8150  -21.0530 C   0  0  1  0  0  0  0  0  0  0  0  0
  -16.4130  -45.7010  -20.2780 O   0  0  0  0  0  0  0  0  0  0  0  0
  -16.7580  -45.4230  -18.9190 C   0  0  0  0  0  0  0  0  0  0  0  0
  -18.2140  -45.7750  -18.7620 C   0  0  0  0  0  0  0  0  0  0  0  0
  -18.7790  -45.4810  -20.1350 C   0  0  0  0  0  0  0  0  0  0  0  0
  -16.4730  -44.1500  -22.4210 N   0  0  0  0  0  0  0  0  0  0  0  0
  -16.1690  -43.2350  -23.4440 C   0  0  0  0  0  0  0  0  0  0  0  0
  -16.8900  -43.1390  -24.6480 C   0  0  0  0  0  0  0  0  0  0  0  0
  -16.5400  -42.1420  -25.5370 C   0  0  0  0  0  0  0  0  0  0  0  0
  -15.1490  -42.4110  -23.1580 N   0  0  0  0  0  0  0  0  0  0  0  0
  -14.8480  -41.4540  -24.0500 C   0  0  0  0  0  0  0  0  0  0  0  0
  -15.5130  -41.2620  -25.2530 C   0  0  0  0  0  0  0  0  0  0  0  0
  -15.1640  -40.1290  -26.1880 C   0  0  0  0  0  0  0  0  0  0  0  0
 15 14  1  0
 14 11  1  0
 11 10  2  0
 10  9  1  0
  9  8  1  0
  8  2  1  0
  2  1  2  0
  3  2  1  6
  3  7  1  0
  7  6  1  0
  6  5  1  0
  5  4  1  0
  4  3  1  0
 12  9  2  0
 13 12  1  0
 14 13  2  0
M  END
>  <id>  (4) 
26

>  <inchikey>  (4) 
BFRXGCPOQMOBHK-VIFPVBQESA-N

>  <alias>  (4) 
d0254a

>  <smiles>  (4) 
Cc1ccc(NC(=O)[C@@H]2CCCO2)nc1

>  <path>  (4) 
/opt/xchem-fragalysis-2/maxwin/BulkDock/TARGETS/Flavi_NS5_RdRp/aligned_files/d0254a/d0254a.pdb

>  <distance_score>  (4) 
None

>  <energy_score>  (4) 
None

>  <compound>  (4) 
BFRXGCPOQMOBHK-UHFFFAOYSA-N

>  <compound_id>  (4) 
22

>  <target>  (4) 
Flavi_NS5_RdRp

>  <tags>  (4) 
['[Other] upload_1 2024-11-21', 'Pose', '[Other] fragment screen', '[Other] Primer grip/N-pocket (P2)', '[Other] upload_1 2024-11-13', 'hits', '[Other] DENV-2']

>  <inspirations>  (4) 


>  <reference>  (4) 


>  <observation_longname>  (4) 
DNV2_NS5A-x0254_A_1701_1_DNV2_NS5A-x0254+A+1701+1

>  <ConformerSites alias>  (4) 
6a - d0254/A/1701

>  <CanonSites alias>  (4) 
6 - d0254/A/1701/1

>  <CrystalformSites alias>  (4) 
F1n - d0254/A/1701

>  <Quatassemblies alias>  (4) 
A1 - all

>  <Crystalforms alias>  (4) 
F1 - I222

>  <ConformerSites upload name>  (4) 
6a - DNV2_NS5A-x0254/A/1701

>  <CanonSites upload name>  (4) 
6 - DNV2_NS5A-x0254/A/1701/1

>  <CrystalformSites upload name>  (4) 
F1n - DNV2_NS5A-x0254/A/1701/1

>  <Quatassemblies upload name>  (4) 
A1 - monomer

>  <Crystalforms upload name>  (4) 
F1 - I222

>  <ConformerSites short tag>  (4) 
6a - d0254/A/1701

>  <CanonSites short tag>  (4) 
6 - d0254/A/1701/1

>  <CrystalformSites short tag>  (4) 
F1n - d0254/A/1701

>  <Quatassemblies short tag>  (4) 
A1 - monomer

>  <Crystalforms short tag>  (4) 
F1 - I222

>  <Centroid res>  (4) 
DNV2_NS5A-x0254/A/512/A_v1

>  <Experiment code>  (4) 
DNV2_NS5A-x0254

>  <SLURM_JOB_ID>  (4) 
nan

>  <SLURM_JOB_NAME>  (4) 
nan

>  <csv_name>  (4) 
nan

>  <scratch_subdir>  (4) 
nan

>  <fragmenstein_runtime>  (4) 
nan

>  <fragmenstein_outcome>  (4) 
nan

>  <fragmenstein_mode>  (4) 
nan

>  <fragmenstein_error>  (4) 
nan

$$$$
d0264a
     RDKit          3D

 15 15  0  0  0  0  0  0  0  0999 V2000
  -23.1640  -45.9380  -18.0490 O   0  0  0  0  0  0  0  0  0  0  0  0
  -22.2460  -46.0170  -17.2360 C   0  0  0  0  0  0  0  0  0  0  0  0
  -22.2040  -47.1360  -16.1890 C   0  0  0  0  0  0  0  0  0  0  0  0
  -23.2590  -46.8890  -15.1120 C   0  0  0  0  0  0  0  0  0  0  0  0
  -22.3910  -48.4810  -16.8760 C   0  0  0  0  0  0  0  0  0  0  0  0
  -21.2220  -45.1550  -17.2120 N   0  0  0  0  0  0  0  0  0  0  0  0
  -21.0190  -44.1810  -18.2700 C   0  0  1  0  0  0  0  0  0  0  0  0
  -20.4710  -42.8780  -17.6970 C   0  0  0  0  0  0  0  0  0  0  0  0
  -20.1240  -44.7580  -19.3280 C   0  0  0  0  0  0  0  0  0  0  0  0
  -19.8410  -44.3300  -20.5900 C   0  0  0  0  0  0  0  0  0  0  0  0
  -20.3800  -43.1060  -21.2510 C   0  0  0  0  0  0  0  0  0  0  0  0
  -18.9590  -45.1180  -21.2970 N   0  0  0  0  0  0  0  0  0  0  0  0
  -18.5660  -46.1410  -20.5930 C   0  0  0  0  0  0  0  0  0  0  0  0
  -19.2480  -46.2240  -19.0020 S   0  0  0  0  0  0  0  0  0  0  0  0
  -17.6070  -47.1680  -21.0840 C   0  0  0  0  0  0  0  0  0  0  0  0
  5  3  1  0
  4  3  1  0
  3  2  1  0
  2  1  2  0
  6  2  1  0
  7  6  1  0
  7  8  1  1
  9  7  1  0
  9 14  1  0
 14 13  1  0
 15 13  1  0
 13 12  2  0
 12 10  1  0
 10  9  2  0
 11 10  1  0
M  END
>  <id>  (5) 
28

>  <inchikey>  (5) 
ZECWVBZTKUPZEE-QMMMGPOBSA-N

>  <alias>  (5) 
d0264a

>  <smiles>  (5) 
Cc1nc(C)c([C@H](C)NC(=O)C(C)C)s1

>  <path>  (5) 
/opt/xchem-fragalysis-2/maxwin/BulkDock/TARGETS/Flavi_NS5_RdRp/aligned_files/d0264a/d0264a.pdb

>  <distance_score>  (5) 
None

>  <energy_score>  (5) 
None

>  <compound>  (5) 
ZECWVBZTKUPZEE-UHFFFAOYSA-N

>  <compound_id>  (5) 
24

>  <target>  (5) 
Flavi_NS5_RdRp

>  <tags>  (5) 
['[Other] upload_1 2024-11-21', 'Pose', '[Other] fragment screen', '[Other] Primer grip/N-pocket (P2)', '[Other] upload_1 2024-11-13', 'hits', '[Other] DENV-2']

>  <inspirations>  (5) 


>  <reference>  (5) 


>  <observation_longname>  (5) 
DNV2_NS5A-x0264_A_1801_1_DNV2_NS5A-x0254+A+1701+1

>  <ConformerSites alias>  (5) 
6a - d0254/A/1701

>  <CanonSites alias>  (5) 
6 - d0254/A/1701/1

>  <CrystalformSites alias>  (5) 
F1o - d0264/A/1801

>  <Quatassemblies alias>  (5) 
A1 - all

>  <Crystalforms alias>  (5) 
F1 - I222

>  <ConformerSites upload name>  (5) 
6a - DNV2_NS5A-x0254/A/1701

>  <CanonSites upload name>  (5) 
6 - DNV2_NS5A-x0254/A/1701/1

>  <CrystalformSites upload name>  (5) 
F1o - DNV2_NS5A-x0264/A/1801/1

>  <Quatassemblies upload name>  (5) 
A1 - monomer

>  <Crystalforms upload name>  (5) 
F1 - I222

>  <ConformerSites short tag>  (5) 
6a - d0254/A/1701

>  <CanonSites short tag>  (5) 
6 - d0254/A/1701/1

>  <CrystalformSites short tag>  (5) 
F1o - d0264/A/1801

>  <Quatassemblies short tag>  (5) 
A1 - monomer

>  <Crystalforms short tag>  (5) 
F1 - I222

>  <Centroid res>  (5) 
DNV2_NS5A-x0254/A/512/A_v1

>  <Experiment code>  (5) 
DNV2_NS5A-x0264

>  <SLURM_JOB_ID>  (5) 
nan

>  <SLURM_JOB_NAME>  (5) 
nan

>  <csv_name>  (5) 
nan

>  <scratch_subdir>  (5) 
nan

>  <fragmenstein_runtime>  (5) 
nan

>  <fragmenstein_outcome>  (5) 
nan

>  <fragmenstein_mode>  (5) 
nan

>  <fragmenstein_error>  (5) 
nan

$$$$
d0472a
     RDKit          3D

 12 13  0  0  0  0  0  0  0  0999 V2000
  -15.7750  -43.6370  -22.5880 N   0  0  0  0  0  0  0  0  0  0  0  0
  -15.1370  -44.0180  -21.4420 C   0  0  0  0  0  0  0  0  0  0  0  0
  -15.5660  -45.1350  -20.6910 C   0  0  0  0  0  0  0  0  0  0  0  0
  -15.0140  -45.4870  -19.5210 N   0  0  0  0  0  0  0  0  0  0  0  0
  -13.9920  -44.7430  -19.0650 C   0  0  0  0  0  0  0  0  0  0  0  0
  -13.4830  -43.6510  -19.7350 C   0  0  0  0  0  0  0  0  0  0  0  0
  -14.0650  -43.2880  -20.9320 C   0  0  0  0  0  0  0  0  0  0  0  0
  -16.5820  -46.0170  -21.1430 N   0  0  0  0  0  0  0  0  0  0  0  0
  -17.5610  -45.7280  -22.0730 C   0  0  0  0  0  0  0  0  0  0  0  0
  -18.3330  -46.8380  -22.2340 C   0  0  0  0  0  0  0  0  0  0  0  0
  -17.8230  -47.8430  -21.3830 C   0  0  0  0  0  0  0  0  0  0  0  0
  -16.7520  -47.3220  -20.7230 C   0  0  0  0  0  0  0  0  0  0  0  0
  2  1  1  0
  2  7  2  0
  7  6  1  0
  6  5  2  0
  5  4  1  0
  4  3  2  0
  3  2  1  0
  8  3  1  0
  8 12  1  0
 12 11  2  0
 11 10  1  0
 10  9  2  0
  9  8  1  0
M  END
>  <id>  (6) 
42

>  <inchikey>  (6) 
QCTDPVKLZRURRV-UHFFFAOYSA-N

>  <alias>  (6) 
d0472a

>  <smiles>  (6) 
Nc1cccnc1-n1cccc1

>  <path>  (6) 
/opt/xchem-fragalysis-2/maxwin/BulkDock/TARGETS/Flavi_NS5_RdRp/aligned_files/d0472a/d0472a.pdb

>  <distance_score>  (6) 
None

>  <energy_score>  (6) 
None

>  <compound>  (6) 
QCTDPVKLZRURRV-UHFFFAOYSA-N

>  <compound_id>  (6) 
35

>  <target>  (6) 
Flavi_NS5_RdRp

>  <tags>  (6) 
['[Other] upload_1 2024-11-21', 'Pose', '[Other] fragment screen', '[Other] Primer grip/N-pocket (P2)', '[Other] upload_1 2024-11-13', 'hits', '[Other] DENV-2']

>  <inspirations>  (6) 


>  <reference>  (6) 


>  <observation_longname>  (6) 
DNV2_NS5A-x0472_A_2101_1_DNV2_NS5A-x0254+A+1701+1

>  <ConformerSites alias>  (6) 
6a - d0254/A/1701

>  <CanonSites alias>  (6) 
6 - d0254/A/1701/1

>  <CrystalformSites alias>  (6) 
F1n - d0254/A/1701

>  <Quatassemblies alias>  (6) 
A1 - all

>  <Crystalforms alias>  (6) 
F1 - I222

>  <ConformerSites upload name>  (6) 
6a - DNV2_NS5A-x0254/A/1701

>  <CanonSites upload name>  (6) 
6 - DNV2_NS5A-x0254/A/1701/1

>  <CrystalformSites upload name>  (6) 
F1n - DNV2_NS5A-x0254/A/1701/1

>  <Quatassemblies upload name>  (6) 
A1 - monomer

>  <Crystalforms upload name>  (6) 
F1 - I222

>  <ConformerSites short tag>  (6) 
6a - d0254/A/1701

>  <CanonSites short tag>  (6) 
6 - d0254/A/1701/1

>  <CrystalformSites short tag>  (6) 
F1n - d0254/A/1701

>  <Quatassemblies short tag>  (6) 
A1 - monomer

>  <Crystalforms short tag>  (6) 
F1 - I222

>  <Centroid res>  (6) 
DNV2_NS5A-x0254/A/512/A_v1

>  <Experiment code>  (6) 
DNV2_NS5A-x0472

>  <SLURM_JOB_ID>  (6) 
nan

>  <SLURM_JOB_NAME>  (6) 
nan

>  <csv_name>  (6) 
nan

>  <scratch_subdir>  (6) 
nan

>  <fragmenstein_runtime>  (6) 
nan

>  <fragmenstein_outcome>  (6) 
nan

>  <fragmenstein_mode>  (6) 
nan

>  <fragmenstein_error>  (6) 
nan

$$$$
d0612a
     RDKit          3D

 16 17  0  0  0  0  0  0  0  0999 V2000
  -13.7420  -44.9730  -19.1420 F   0  0  0  0  0  0  0  0  0  0  0  0
  -14.1440  -44.1640  -20.1680 C   0  0  0  0  0  0  0  0  0  0  0  0
  -13.4440  -43.0190  -20.4000 C   0  0  0  0  0  0  0  0  0  0  0  0
  -13.8550  -42.1920  -21.4290 C   0  0  0  0  0  0  0  0  0  0  0  0
  -15.2410  -44.5320  -20.9060 C   0  0  0  0  0  0  0  0  0  0  0  0
  -15.6570  -43.6970  -21.9320 C   0  0  0  0  0  0  0  0  0  0  0  0
  -14.9670  -42.5160  -22.2110 C   0  0  0  0  0  0  0  0  0  0  0  0
  -15.3700  -41.6670  -23.2520 N   0  0  0  0  0  0  0  0  0  0  0  0
  -16.2840  -42.0770  -24.3180 C   0  0  0  0  0  0  0  0  0  0  0  0
  -15.9790  -41.3250  -25.5950 C   0  0  0  0  0  0  0  0  0  0  0  0
  -15.4270  -40.2230  -23.0130 C   0  0  0  0  0  0  0  0  0  0  0  0
  -15.1170  -39.4550  -24.2680 C   0  0  0  0  0  0  0  0  0  0  0  0
  -15.9970  -39.8740  -25.3650 N   0  0  0  0  0  0  0  0  0  0  0  0
  -15.8750  -39.0560  -26.5620 C   0  0  0  0  0  0  0  0  0  0  0  0
  -15.3290  -37.9410  -26.4740 O   0  0  0  0  0  0  0  0  0  0  0  0
  -16.3260  -39.5440  -27.7270 N   0  0  0  0  0  0  0  0  0  0  0  0
 16 14  1  0
 15 14  2  0
 14 13  1  0
 13 10  1  0
 10  9  1  0
  9  8  1  0
 11  8  1  0
 12 11  1  0
 13 12  1  0
  8  7  1  0
  7  4  2  0
  4  3  1  0
  3  2  2  0
  2  1  1  0
  5  2  1  0
  6  5  2  0
  7  6  1  0
M  END
>  <id>  (7) 
49

>  <inchikey>  (7) 
XARVCWHXIZRCGB-UHFFFAOYSA-N

>  <alias>  (7) 
d0612a

>  <smiles>  (7) 
NC(=O)N1CCN(c2ccc(F)cc2)CC1

>  <path>  (7) 
/opt/xchem-fragalysis-2/maxwin/BulkDock/TARGETS/Flavi_NS5_RdRp/aligned_files/d0612a/d0612a.pdb

>  <distance_score>  (7) 
None

>  <energy_score>  (7) 
None

>  <compound>  (7) 
XARVCWHXIZRCGB-UHFFFAOYSA-N

>  <compound_id>  (7) 
42

>  <target>  (7) 
Flavi_NS5_RdRp

>  <tags>  (7) 
['[Other] upload_1 2024-11-21', 'Pose', '[Other] fragment screen', '[Other] Primer grip/N-pocket (P2)', '[Other] upload_1 2024-11-13', 'hits', '[Other] DENV-2']

>  <inspirations>  (7) 


>  <reference>  (7) 


>  <observation_longname>  (7) 
DNV2_NS5A-x0612_A_1701_1_DNV2_NS5A-x0254+A+1701+1

>  <ConformerSites alias>  (7) 
6a - d0254/A/1701

>  <CanonSites alias>  (7) 
6 - d0254/A/1701/1

>  <CrystalformSites alias>  (7) 
F1m - d0160/A/1702

>  <Quatassemblies alias>  (7) 
A1 - all

>  <Crystalforms alias>  (7) 
F1 - I222

>  <ConformerSites upload name>  (7) 
6a - DNV2_NS5A-x0254/A/1701

>  <CanonSites upload name>  (7) 
6 - DNV2_NS5A-x0254/A/1701/1

>  <CrystalformSites upload name>  (7) 
F1m - DNV2_NS5A-x0160/A/1702/1

>  <Quatassemblies upload name>  (7) 
A1 - monomer

>  <Crystalforms upload name>  (7) 
F1 - I222

>  <ConformerSites short tag>  (7) 
6a - d0254/A/1701

>  <CanonSites short tag>  (7) 
6 - d0254/A/1701/1

>  <CrystalformSites short tag>  (7) 
F1m - d0160/A/1702

>  <Quatassemblies short tag>  (7) 
A1 - monomer

>  <Crystalforms short tag>  (7) 
F1 - I222

>  <Centroid res>  (7) 
DNV2_NS5A-x0254/A/512/A_v1

>  <Experiment code>  (7) 
DNV2_NS5A-x0612

>  <SLURM_JOB_ID>  (7) 
nan

>  <SLURM_JOB_NAME>  (7) 
nan

>  <csv_name>  (7) 
nan

>  <scratch_subdir>  (7) 
nan

>  <fragmenstein_runtime>  (7) 
nan

>  <fragmenstein_outcome>  (7) 
nan

>  <fragmenstein_mode>  (7) 
nan

>  <fragmenstein_error>  (7) 
nan

$$$$
d0615b
     RDKit          3D

 15 16  0  0  0  0  0  0  0  0999 V2000
  -18.6710  -43.8090  -24.6670 F   0  0  0  0  0  0  0  0  0  0  0  0
  -17.5250  -43.3270  -24.1160 C   0  0  0  0  0  0  0  0  0  0  0  0
  -17.1250  -43.7850  -22.8860 C   0  0  0  0  0  0  0  0  0  0  0  0
  -16.0090  -43.3300  -22.3050 N   0  0  0  0  0  0  0  0  0  0  0  0
  -15.2990  -42.3990  -22.9570 C   0  0  0  0  0  0  0  0  0  0  0  0
  -16.8090  -42.3840  -24.8030 C   0  0  0  0  0  0  0  0  0  0  0  0
  -15.6590  -41.8830  -24.2030 C   0  0  0  0  0  0  0  0  0  0  0  0
  -14.9140  -40.8750  -24.7970 N   0  0  0  0  0  0  0  0  0  0  0  0
  -15.2780  -40.2110  -26.0360 C   0  0  0  0  0  0  0  0  0  0  0  0
  -16.3830  -39.2140  -25.8960 C   0  0  0  0  0  0  0  0  0  0  0  0
  -17.3690  -38.9300  -26.7710 C   0  0  0  0  0  0  0  0  0  0  0  0
  -18.2750  -37.9550  -26.4070 N   0  0  0  0  0  0  0  0  0  0  0  0
  -16.5660  -38.2060  -24.4990 S   0  0  0  0  0  0  0  0  0  0  0  0
  -17.9680  -37.4870  -25.2330 C   0  0  0  0  0  0  0  0  0  0  0  0
  -18.7400  -36.4070  -24.5480 C   0  0  0  0  0  0  0  0  0  0  0  0
 15 14  1  0
 14 12  2  0
 12 11  1  0
 11 10  2  0
 10  9  1  0
  9  8  1  0
  8  7  1  0
  7  5  1  0
  5  4  2  0
  4  3  1  0
  3  2  2  0
  2  1  1  0
  6  2  1  0
  7  6  2  0
 13 10  1  0
 14 13  1  0
M  END
>  <id>  (8) 
51

>  <inchikey>  (8) 
SSOIKBIBPGCZFT-UHFFFAOYSA-N

>  <alias>  (8) 
d0615b

>  <smiles>  (8) 
Cc1ncc(CNc2cncc(F)c2)s1

>  <path>  (8) 
/opt/xchem-fragalysis-2/maxwin/BulkDock/TARGETS/Flavi_NS5_RdRp/aligned_files/d0615b/d0615b.pdb

>  <distance_score>  (8) 
None

>  <energy_score>  (8) 
None

>  <compound>  (8) 
SSOIKBIBPGCZFT-UHFFFAOYSA-N

>  <compound_id>  (8) 
43

>  <target>  (8) 
Flavi_NS5_RdRp

>  <tags>  (8) 
['[Other] upload_1 2024-11-21', 'Pose', '[Other] fragment screen', '[Other] Primer grip/N-pocket (P2)', '[Other] upload_1 2024-11-13', 'hits', '[Other] DENV-2']

>  <inspirations>  (8) 


>  <reference>  (8) 


>  <observation_longname>  (8) 
DNV2_NS5A-x0615_A_1701_1_DNV2_NS5A-x0254+A+1701+1

>  <ConformerSites alias>  (8) 
6a - d0254/A/1701

>  <CanonSites alias>  (8) 
6 - d0254/A/1701/1

>  <CrystalformSites alias>  (8) 
F1m - d0160/A/1702

>  <Quatassemblies alias>  (8) 
A1 - all

>  <Crystalforms alias>  (8) 
F1 - I222

>  <ConformerSites upload name>  (8) 
6a - DNV2_NS5A-x0254/A/1701

>  <CanonSites upload name>  (8) 
6 - DNV2_NS5A-x0254/A/1701/1

>  <CrystalformSites upload name>  (8) 
F1m - DNV2_NS5A-x0160/A/1702/1

>  <Quatassemblies upload name>  (8) 
A1 - monomer

>  <Crystalforms upload name>  (8) 
F1 - I222

>  <ConformerSites short tag>  (8) 
6a - d0254/A/1701

>  <CanonSites short tag>  (8) 
6 - d0254/A/1701/1

>  <CrystalformSites short tag>  (8) 
F1m - d0160/A/1702

>  <Quatassemblies short tag>  (8) 
A1 - monomer

>  <Crystalforms short tag>  (8) 
F1 - I222

>  <Centroid res>  (8) 
DNV2_NS5A-x0254/A/512/A_v1

>  <Experiment code>  (8) 
DNV2_NS5A-x0615

>  <SLURM_JOB_ID>  (8) 
nan

>  <SLURM_JOB_NAME>  (8) 
nan

>  <csv_name>  (8) 
nan

>  <scratch_subdir>  (8) 
nan

>  <fragmenstein_runtime>  (8) 
nan

>  <fragmenstein_outcome>  (8) 
nan

>  <fragmenstein_mode>  (8) 
nan

>  <fragmenstein_error>  (8) 
nan

$$$$
d0851a
     RDKit          3D

 13 13  0  0  0  0  0  0  0  0999 V2000
  -19.4450  -40.1580  -24.5280 O   0  0  0  0  0  0  0  0  0  0  0  0
  -18.9330  -39.8460  -25.8250 S   0  0  0  0  0  0  0  0  0  0  0  0
  -18.8770  -38.4810  -26.2410 O   0  0  0  0  0  0  0  0  0  0  0  0
  -19.8270  -40.7660  -27.0180 C   0  0  0  0  0  0  0  0  0  0  0  0
  -17.3930  -40.3950  -25.8530 N   0  0  0  0  0  0  0  0  0  0  0  0
  -17.1990  -41.6840  -26.5730 C   0  0  1  0  0  0  0  0  0  0  0  0
  -16.5120  -41.5010  -27.9140 C   0  0  0  0  0  0  0  0  0  0  0  0
  -16.5660  -42.7800  -25.7140 C   0  0  0  0  0  0  0  0  0  0  0  0
  -15.9910  -42.2600  -24.4020 C   0  0  0  0  0  0  0  0  0  0  0  0
  -15.3660  -40.8820  -24.5510 C   0  0  0  0  0  0  0  0  0  0  0  0
  -16.4600  -39.8640  -24.8200 C   0  0  1  0  0  0  0  0  0  0  0  0
  -15.9060  -38.5170  -25.2440 C   0  0  0  0  0  0  0  0  0  0  0  0
  -16.2290  -38.2620  -26.5980 O   0  0  0  0  0  0  0  0  0  0  0  0
 13 12  1  0
 11 12  1  6
 11  5  1  0
  5  2  1  0
  4  2  1  0
  3  2  2  0
  2  1  2  0
  6  5  1  0
  6  7  1  6
  8  6  1  0
  9  8  1  0
 10  9  1  0
 11 10  1  0
M  END
>  <id>  (9) 
66

>  <inchikey>  (9) 
PVAZEUFSKWVBRB-YUMQZZPRSA-N

>  <alias>  (9) 
d0851a

>  <smiles>  (9) 
C[C@H]1CCC[C@@H](CO)N1S(C)(=O)=O

>  <path>  (9) 
/opt/xchem-fragalysis-2/maxwin/BulkDock/TARGETS/Flavi_NS5_RdRp/aligned_files/d0851a/d0851a_hippo.pdb

>  <distance_score>  (9) 
None

>  <energy_score>  (9) 
None

>  <compound>  (9) 
PVAZEUFSKWVBRB-UHFFFAOYSA-N

>  <compound_id>  (9) 
56

>  <target>  (9) 
Flavi_NS5_RdRp

>  <tags>  (9) 
['[Other] upload_1 2024-11-21', 'Pose', '[Other] fragment screen', '[Other] Primer grip/N-pocket (P2)', '[Other] upload_1 2024-11-13', 'hits', '[Other] DENV-2']

>  <inspirations>  (9) 


>  <reference>  (9) 


>  <observation_longname>  (9) 
DNV2_NS5A-x0851_A_1608_1_DNV2_NS5A-x0254+A+1701+1

>  <ConformerSites alias>  (9) 
6a - d0254/A/1701

>  <CanonSites alias>  (9) 
6 - d0254/A/1701/1

>  <CrystalformSites alias>  (9) 
F1n - d0254/A/1701

>  <Quatassemblies alias>  (9) 
A1 - all

>  <Crystalforms alias>  (9) 
F1 - I222

>  <ConformerSites upload name>  (9) 
6a - DNV2_NS5A-x0254/A/1701

>  <CanonSites upload name>  (9) 
6 - DNV2_NS5A-x0254/A/1701/1

>  <CrystalformSites upload name>  (9) 
F1n - DNV2_NS5A-x0254/A/1701/1

>  <Quatassemblies upload name>  (9) 
A1 - monomer

>  <Crystalforms upload name>  (9) 
F1 - I222

>  <ConformerSites short tag>  (9) 
6a - d0254/A/1701

>  <CanonSites short tag>  (9) 
6 - d0254/A/1701/1

>  <CrystalformSites short tag>  (9) 
F1n - d0254/A/1701

>  <Quatassemblies short tag>  (9) 
A1 - monomer

>  <Crystalforms short tag>  (9) 
F1 - I222

>  <Centroid res>  (9) 
DNV2_NS5A-x0254/A/512/A_v1

>  <Experiment code>  (9) 
DNV2_NS5A-x0851

>  <SLURM_JOB_ID>  (9) 
nan

>  <SLURM_JOB_NAME>  (9) 
nan

>  <csv_name>  (9) 
nan

>  <scratch_subdir>  (9) 
nan

>  <fragmenstein_runtime>  (9) 
nan

>  <fragmenstein_outcome>  (9) 
nan

>  <fragmenstein_mode>  (9) 
nan

>  <fragmenstein_error>  (9) 
nan

$$$$
d0866a
     RDKit          3D

 18 19  0  0  0  0  0  0  0  0999 V2000
  -19.2180  -37.4550  -26.5100 O   0  0  0  0  0  0  0  0  0  0  0  0
  -18.4400  -37.2730  -25.5890 C   0  0  0  0  0  0  0  0  0  0  0  0
  -18.6770  -36.3320  -24.6480 N   0  0  0  0  0  0  0  0  0  0  0  0
  -18.1290  -36.3040  -23.2850 C   0  0  0  0  0  0  0  0  0  0  0  0
  -19.0890  -35.3970  -22.5410 C   0  0  0  0  0  0  0  0  0  0  0  0
  -19.5290  -34.4120  -23.5740 C   0  0  0  0  0  0  0  0  0  0  0  0
  -19.5820  -35.1970  -24.8780 C   0  0  0  0  0  0  0  0  0  0  0  0
  -17.1840  -38.1190  -25.4620 C   0  0  1  0  0  0  0  0  0  0  0  0
  -17.4720  -39.4270  -24.6890 C   0  0  1  0  0  0  0  0  0  0  0  0
  -18.8010  -40.0660  -25.0770 C   0  0  0  0  0  0  0  0  0  0  0  0
  -16.6310  -38.4350  -26.8550 C   0  0  0  0  0  0  0  0  0  0  0  0
  -15.4020  -39.3250  -26.7650 C   0  0  0  0  0  0  0  0  0  0  0  0
  -15.7420  -40.6350  -26.0990 C   0  0  0  0  0  0  0  0  0  0  0  0
  -16.3500  -40.4180  -24.7640 N   0  0  0  0  0  0  0  0  0  0  0  0
  -16.2910  -41.6740  -23.7260 S   0  0  0  0  0  0  0  0  0  0  0  0
  -16.8320  -41.2150  -22.4870 O   0  0  0  0  0  0  0  0  0  0  0  0
  -16.9140  -42.7800  -24.3830 O   0  0  0  0  0  0  0  0  0  0  0  0
  -14.6010  -42.0660  -23.4770 C   0  0  0  0  0  0  0  0  0  0  0  0
  9 10  1  6
  9 14  1  0
 15 14  1  0
 16 15  2  0
 18 15  1  0
 17 15  2  0
 14 13  1  0
 13 12  1  0
 12 11  1  0
 11  8  1  0
  9  8  1  0
  8  2  1  6
  3  2  1  0
  3  7  1  0
  7  6  1  0
  6  5  1  0
  5  4  1  0
  4  3  1  0
  2  1  2  0
M  END
>  <id>  (10) 
68

>  <inchikey>  (10) 
YDPJOGQGKXEOGX-GHMZBOCLSA-N

>  <alias>  (10) 
d0866a

>  <smiles>  (10) 
C[C@@H]1[C@H](C(=O)N2CCCC2)CCCN1S(C)(=O)=O

>  <path>  (10) 
/opt/xchem-fragalysis-2/maxwin/BulkDock/TARGETS/Flavi_NS5_RdRp/aligned_files/d0866a/d0866a.pdb

>  <distance_score>  (10) 
None

>  <energy_score>  (10) 
None

>  <compound>  (10) 
YDPJOGQGKXEOGX-UHFFFAOYSA-N

>  <compound_id>  (10) 
57

>  <target>  (10) 
Flavi_NS5_RdRp

>  <tags>  (10) 
['[Other] upload_1 2024-11-21', 'Pose', '[Other] fragment screen', '[Other] Primer grip/N-pocket (P2)', '[Other] upload_1 2024-11-13', '[Other] unconfirmed', 'hits', '[Other] DENV-2']

>  <inspirations>  (10) 


>  <reference>  (10) 


>  <observation_longname>  (10) 
DNV2_NS5A-x0866_A_2101_1_DNV2_NS5A-x0254+A+1701+1

>  <ConformerSites alias>  (10) 
6a - d0254/A/1701

>  <CanonSites alias>  (10) 
6 - d0254/A/1701/1

>  <CrystalformSites alias>  (10) 
F1m - d0160/A/1702

>  <Quatassemblies alias>  (10) 
A1 - all

>  <Crystalforms alias>  (10) 
F1 - I222

>  <ConformerSites upload name>  (10) 
6a - DNV2_NS5A-x0254/A/1701

>  <CanonSites upload name>  (10) 
6 - DNV2_NS5A-x0254/A/1701/1

>  <CrystalformSites upload name>  (10) 
F1m - DNV2_NS5A-x0160/A/1702/1

>  <Quatassemblies upload name>  (10) 
A1 - monomer

>  <Crystalforms upload name>  (10) 
F1 - I222

>  <ConformerSites short tag>  (10) 
6a - d0254/A/1701

>  <CanonSites short tag>  (10) 
6 - d0254/A/1701/1

>  <CrystalformSites short tag>  (10) 
F1m - d0160/A/1702

>  <Quatassemblies short tag>  (10) 
A1 - monomer

>  <Crystalforms short tag>  (10) 
F1 - I222

>  <Centroid res>  (10) 
DNV2_NS5A-x0254/A/512/A_v1

>  <Experiment code>  (10) 
DNV2_NS5A-x0866

>  <SLURM_JOB_ID>  (10) 
nan

>  <SLURM_JOB_NAME>  (10) 
nan

>  <csv_name>  (10) 
nan

>  <scratch_subdir>  (10) 
nan

>  <fragmenstein_runtime>  (10) 
nan

>  <fragmenstein_outcome>  (10) 
nan

>  <fragmenstein_mode>  (10) 
nan

>  <fragmenstein_error>  (10) 
nan

$$$$
d1196a
     RDKit          3D

 15 17  0  0  0  0  0  0  0  0999 V2000
  -11.3700  -32.4500  -20.9700 O   0  0  0  0  0  0  0  0  0  0  0  0
  -11.9500  -33.4650  -20.6010 C   0  0  0  0  0  0  0  0  0  0  0  0
  -13.2920  -33.4360  -19.9980 C   0  0  0  0  0  0  0  0  0  0  0  0
  -13.9940  -32.2410  -19.8710 C   0  0  0  0  0  0  0  0  0  0  0  0
  -15.2680  -32.2430  -19.3330 C   0  0  0  0  0  0  0  0  0  0  0  0
  -15.8530  -33.4240  -18.9210 C   0  0  0  0  0  0  0  0  0  0  0  0
  -15.1680  -34.6240  -19.0250 C   0  0  0  0  0  0  0  0  0  0  0  0
  -13.8770  -34.6410  -19.5530 C   0  0  0  0  0  0  0  0  0  0  0  0
  -13.1390  -35.8120  -19.6180 N   0  0  0  0  0  0  0  0  0  0  0  0
  -12.1100  -35.9520  -20.6450 C   0  0  0  0  0  0  0  0  0  0  0  0
  -11.3820  -34.6790  -20.7050 N   0  0  0  0  0  0  0  0  0  0  0  0
  -11.1900  -37.1380  -20.3170 C   0  0  0  0  0  0  0  0  0  0  0  0
  -11.1520  -37.9810  -21.5880 C   0  0  0  0  0  0  0  0  0  0  0  0
  -12.4510  -37.7540  -22.2330 C   0  0  0  0  0  0  0  0  0  0  0  0
  -12.7490  -36.2800  -22.0020 C   0  0  0  0  0  0  0  0  0  0  0  0
  2  1  2  0
  2 11  1  0
 11 10  1  0
 10 15  1  0
 15 14  1  0
 14 13  1  0
 13 12  1  0
 12 10  1  0
 10  9  1  0
  9  8  1  0
  8  7  2  0
  7  6  1  0
  6  5  2  0
  5  4  1  0
  4  3  2  0
  3  2  1  0
  8  3  1  0
M  END
>  <id>  (11) 
78

>  <inchikey>  (11) 
BGYVTOPASJGSEB-UHFFFAOYSA-N

>  <alias>  (11) 
d1196a

>  <smiles>  (11) 
O=C1NC2(CCCC2)Nc2ccccc21

>  <path>  (11) 
/opt/xchem-fragalysis-2/maxwin/BulkDock/TARGETS/Flavi_NS5_RdRp/aligned_files/d1196a/d1196a.pdb

>  <distance_score>  (11) 
None

>  <energy_score>  (11) 
None

>  <compound>  (11) 
BGYVTOPASJGSEB-UHFFFAOYSA-N

>  <compound_id>  (11) 
65

>  <target>  (11) 
Flavi_NS5_RdRp

>  <tags>  (11) 
['[Other] upload_1 2024-11-21', 'Pose', '[Other] fragment screen', '[Other] Primer grip/N-pocket (P2)', '[Other] Active site', '[Other] upload_1 2024-11-13', 'hits', '[Other] DENV-2']

>  <inspirations>  (11) 


>  <reference>  (11) 


>  <observation_longname>  (11) 
DNV2_NS5A-x1196_A_1701_1_DNV2_NS5A-x1196+A+1701+1

>  <ConformerSites alias>  (11) 
40a - d1196/A/1701

>  <CanonSites alias>  (11) 
40 - d1196/A/1701/1

>  <CrystalformSites alias>  (11) 
F1bf - d1196/A/1701

>  <Quatassemblies alias>  (11) 
A1 - all

>  <Crystalforms alias>  (11) 
F1 - I222

>  <ConformerSites upload name>  (11) 
40a - DNV2_NS5A-x1196/A/1701

>  <CanonSites upload name>  (11) 
40 - DNV2_NS5A-x1196/A/1701/1

>  <CrystalformSites upload name>  (11) 
F1bf - DNV2_NS5A-x1196/A/1701/1

>  <Quatassemblies upload name>  (11) 
A1 - monomer

>  <Crystalforms upload name>  (11) 
F1 - I222

>  <ConformerSites short tag>  (11) 
40a - d1196/A/1701

>  <CanonSites short tag>  (11) 
40 - d1196/A/1701/1

>  <CrystalformSites short tag>  (11) 
F1bf - d1196/A/1701

>  <Quatassemblies short tag>  (11) 
A1 - monomer

>  <Crystalforms short tag>  (11) 
F1 - I222

>  <Centroid res>  (11) 
DNV2_NS5A-x1196/A/662/A_v1

>  <Experiment code>  (11) 
DNV2_NS5A-x1196

>  <SLURM_JOB_ID>  (11) 
nan

>  <SLURM_JOB_NAME>  (11) 
nan

>  <csv_name>  (11) 
nan

>  <scratch_subdir>  (11) 
nan

>  <fragmenstein_runtime>  (11) 
nan

>  <fragmenstein_outcome>  (11) 
nan

>  <fragmenstein_mode>  (11) 
nan

>  <fragmenstein_error>  (11) 
nan

$$$$
z0052a
     RDKit          3D

  9  9  0  0  0  0  0  0  0  0999 V2000
  -13.3610  -44.9210  -19.5190 O   0  0  0  0  0  0  0  0  0  0  0  0
  -12.8310  -43.9430  -18.6400 C   0  0  0  0  0  0  0  0  0  0  0  0
  -12.6710  -44.5370  -17.2640 C   0  0  0  0  0  0  0  0  0  0  0  0
  -13.9340  -44.6010  -16.5190 N   0  0  0  0  0  0  0  0  0  0  0  0
  -14.3430  -45.9990  -16.3670 C   0  0  0  0  0  0  0  0  0  0  0  0
  -15.5270  -46.1080  -15.4510 C   0  0  0  0  0  0  0  0  0  0  0  0
  -15.2540  -45.5610  -14.1740 O   0  0  0  0  0  0  0  0  0  0  0  0
  -14.9660  -44.1820  -14.3290 C   0  0  0  0  0  0  0  0  0  0  0  0
  -13.7590  -43.9640  -15.2030 C   0  0  0  0  0  0  0  0  0  0  0  0
  2  1  1  0
  3  2  1  0
  4  3  1  0
  4  9  1  0
  9  8  1  0
  8  7  1  0
  7  6  1  0
  6  5  1  0
  5  4  1  0
M  END
>  <id>  (12) 
83

>  <inchikey>  (12) 
KKFDCBRMNNSAAW-UHFFFAOYSA-N

>  <alias>  (12) 
z0052a

>  <smiles>  (12) 
OCCN1CCOCC1

>  <path>  (12) 
/opt/xchem-fragalysis-2/maxwin/BulkDock/TARGETS/Flavi_NS5_RdRp/aligned_files/z0052a/z0052a.pdb

>  <distance_score>  (12) 
None

>  <energy_score>  (12) 
None

>  <compound>  (12) 
KKFDCBRMNNSAAW-UHFFFAOYSA-N

>  <compound_id>  (12) 
69

>  <target>  (12) 
Flavi_NS5_RdRp

>  <tags>  (12) 
['[Other] upload_1 2024-11-21', '[Other] fragment screen', '[Other] Primer grip/N-pocket (P2)', '[Other] Zika', '[Other] upload_1 2024-11-13', 'hits', 'Pose']

>  <inspirations>  (12) 


>  <reference>  (12) 


>  <observation_longname>  (12) 
Zika_NS5A-x0052_A_1112_1_Zika_NS5A-x0103+A+1112+1

>  <ConformerSites alias>  (12) 
13a - z0103/A/1112

>  <CanonSites alias>  (12) 
13 - z0103/A/1112/1

>  <CrystalformSites alias>  (12) 
F4z - z0052/A/1112

>  <Quatassemblies alias>  (12) 
A1 - all

>  <Crystalforms alias>  (12) 
F4 - P43212

>  <ConformerSites upload name>  (12) 
13a - Zika_NS5A-x0103/A/1112

>  <CanonSites upload name>  (12) 
13 - Zika_NS5A-x0103/A/1112/1

>  <CrystalformSites upload name>  (12) 
F4z - Zika_NS5A-x0052/A/1112/1

>  <Quatassemblies upload name>  (12) 
A1 - monomer

>  <Crystalforms upload name>  (12) 
F4 - P43212

>  <ConformerSites short tag>  (12) 
13a - z0103/A/1112

>  <CanonSites short tag>  (12) 
13 - z0103/A/1112/1

>  <CrystalformSites short tag>  (12) 
F4z - z0052/A/1112

>  <Quatassemblies short tag>  (12) 
A1 - monomer

>  <Crystalforms short tag>  (12) 
F4 - P43212

>  <Centroid res>  (12) 
Zika_NS5A-x0103/A/711/A_v1

>  <Experiment code>  (12) 
Zika_NS5A-x0052

>  <SLURM_JOB_ID>  (12) 
nan

>  <SLURM_JOB_NAME>  (12) 
nan

>  <csv_name>  (12) 
nan

>  <scratch_subdir>  (12) 
nan

>  <fragmenstein_runtime>  (12) 
nan

>  <fragmenstein_outcome>  (12) 
nan

>  <fragmenstein_mode>  (12) 
nan

>  <fragmenstein_error>  (12) 
nan

$$$$
z0103a
     RDKit          3D

 10 10  0  0  0  0  0  0  0  0999 V2000
  -13.2660  -42.1970  -21.9740 O   0  0  0  0  0  0  0  0  0  0  0  0
  -12.9440  -41.0220  -21.8330 C   0  0  0  0  0  0  0  0  0  0  0  0
  -11.6290  -40.6240  -21.2250 C   0  0  0  0  0  0  0  0  0  0  0  0
  -13.7260  -40.0340  -22.2480 N   0  0  0  0  0  0  0  0  0  0  0  0
  -13.3480  -39.2220  -23.3820 C   0  0  0  0  0  0  0  0  0  0  0  0
  -12.9660  -37.9070  -22.9250 C   0  0  0  0  0  0  0  0  0  0  0  0
  -13.8180  -37.0350  -22.4210 N   0  0  0  0  0  0  0  0  0  0  0  0
  -13.1010  -35.9420  -22.0180 C   0  0  0  0  0  0  0  0  0  0  0  0
  -11.8370  -36.2110  -22.2990 C   0  0  0  0  0  0  0  0  0  0  0  0
  -11.7410  -37.4580  -22.8790 N   0  0  0  0  0  0  0  0  0  0  0  0
  3  2  1  0
  2  1  2  0
  4  2  1  0
  5  4  1  0
  6  5  1  0
  6 10  2  0
 10  9  1  0
  9  8  2  0
  8  7  1  0
  7  6  1  0
M  END
>  <id>  (13) 
84

>  <inchikey>  (13) 
SXKAQLCLHGQXHB-UHFFFAOYSA-N

>  <alias>  (13) 
z0103a

>  <smiles>  (13) 
CC(=O)NCc1ncc[nH]1

>  <path>  (13) 
/opt/xchem-fragalysis-2/maxwin/BulkDock/TARGETS/Flavi_NS5_RdRp/aligned_files/z0103a/z0103a.pdb

>  <distance_score>  (13) 
None

>  <energy_score>  (13) 
None

>  <compound>  (13) 
SXKAQLCLHGQXHB-UHFFFAOYSA-N

>  <compound_id>  (13) 
70

>  <target>  (13) 
Flavi_NS5_RdRp

>  <tags>  (13) 
['[Other] upload_1 2024-11-21', '[Other] fragment screen', '[Other] Primer grip/N-pocket (P2)', '[Other] Zika', '[Other] upload_1 2024-11-13', 'hits', 'Pose']

>  <inspirations>  (13) 


>  <reference>  (13) 


>  <observation_longname>  (13) 
Zika_NS5A-x0103_A_1112_1_Zika_NS5A-x0103+A+1112+1

>  <ConformerSites alias>  (13) 
13a - z0103/A/1112

>  <CanonSites alias>  (13) 
13 - z0103/A/1112/1

>  <CrystalformSites alias>  (13) 
F4aa - z0103/A/1112

>  <Quatassemblies alias>  (13) 
A1 - all

>  <Crystalforms alias>  (13) 
F4 - P43212

>  <ConformerSites upload name>  (13) 
13a - Zika_NS5A-x0103/A/1112

>  <CanonSites upload name>  (13) 
13 - Zika_NS5A-x0103/A/1112/1

>  <CrystalformSites upload name>  (13) 
F4aa - Zika_NS5A-x0103/A/1112/1

>  <Quatassemblies upload name>  (13) 
A1 - monomer

>  <Crystalforms upload name>  (13) 
F4 - P43212

>  <ConformerSites short tag>  (13) 
13a - z0103/A/1112

>  <CanonSites short tag>  (13) 
13 - z0103/A/1112/1

>  <CrystalformSites short tag>  (13) 
F4aa - z0103/A/1112

>  <Quatassemblies short tag>  (13) 
A1 - monomer

>  <Crystalforms short tag>  (13) 
F4 - P43212

>  <Centroid res>  (13) 
Zika_NS5A-x0103/A/711/A_v1

>  <Experiment code>  (13) 
Zika_NS5A-x0103

>  <SLURM_JOB_ID>  (13) 
nan

>  <SLURM_JOB_NAME>  (13) 
nan

>  <csv_name>  (13) 
nan

>  <scratch_subdir>  (13) 
nan

>  <fragmenstein_runtime>  (13) 
nan

>  <fragmenstein_outcome>  (13) 
nan

>  <fragmenstein_mode>  (13) 
nan

>  <fragmenstein_error>  (13) 
nan

$$$$
z0193a
     RDKit          3D

 11 11  0  0  0  0  0  0  0  0999 V2000
  -22.9280  -45.0500  -16.8920 O   0  0  0  0  0  0  0  0  0  0  0  0
  -24.1310  -45.3890  -17.5880 S   0  0  0  0  0  0  0  0  0  0  0  0
  -24.4090  -46.7670  -17.8490 O   0  0  0  0  0  0  0  0  0  0  0  0
  -25.4970  -44.7130  -16.7180 C   0  0  0  0  0  0  0  0  0  0  0  0
  -24.0490  -44.6200  -19.0080 N   0  0  0  0  0  0  0  0  0  0  0  0
  -23.8280  -43.1660  -19.1340 C   0  0  0  0  0  0  0  0  0  0  0  0
  -24.5240  -42.6480  -20.3840 C   0  0  0  0  0  0  0  0  0  0  0  0
  -24.2040  -41.1840  -20.6150 C   0  0  0  0  0  0  0  0  0  0  0  0
  -22.7550  -40.9750  -20.7010 N   0  0  0  0  0  0  0  0  0  0  0  0
  -22.0970  -41.3750  -19.4580 C   0  0  0  0  0  0  0  0  0  0  0  0
  -22.3370  -42.8440  -19.1660 C   0  0  0  0  0  0  0  0  0  0  0  0
  4  2  1  0
  3  2  2  0
  2  1  2  0
  5  2  1  0
  6  5  1  0
  6 11  1  0
 11 10  1  0
 10  9  1  0
  9  8  1  0
  8  7  1  0
  7  6  1  0
M  END
>  <id>  (14) 
99

>  <inchikey>  (14) 
NAEICDPYHCEZMG-UHFFFAOYSA-N

>  <alias>  (14) 
z0193a

>  <smiles>  (14) 
CS(=O)(=O)NC1CCNCC1

>  <path>  (14) 
/opt/xchem-fragalysis-2/maxwin/BulkDock/TARGETS/Flavi_NS5_RdRp/aligned_files/z0193a/z0193a.pdb

>  <distance_score>  (14) 
None

>  <energy_score>  (14) 
None

>  <compound>  (14) 
NAEICDPYHCEZMG-UHFFFAOYSA-N

>  <compound_id>  (14) 
78

>  <target>  (14) 
Flavi_NS5_RdRp

>  <tags>  (14) 
['[Other] upload_1 2024-11-21', '[Other] fragment screen', '[Other] Primer grip/N-pocket (P2)', '[Other] Zika', '[Other] upload_1 2024-11-13', 'hits', 'Pose']

>  <inspirations>  (14) 


>  <reference>  (14) 


>  <observation_longname>  (14) 
Zika_NS5A-x0193_A_1201_1_Zika_NS5A-x0193+A+1201+1

>  <ConformerSites alias>  (14) 
28a - z0193/A/1201

>  <CanonSites alias>  (14) 
28 - z0193/A/1201/1

>  <CrystalformSites alias>  (14) 
F4at - z0193/A/1201

>  <Quatassemblies alias>  (14) 
A1 - all

>  <Crystalforms alias>  (14) 
F4 - P43212

>  <ConformerSites upload name>  (14) 
28a - Zika_NS5A-x0193/A/1201

>  <CanonSites upload name>  (14) 
28 - Zika_NS5A-x0193/A/1201/1

>  <CrystalformSites upload name>  (14) 
F4at - Zika_NS5A-x0193/A/1201/1

>  <Quatassemblies upload name>  (14) 
A1 - monomer

>  <Crystalforms upload name>  (14) 
F4 - P43212

>  <ConformerSites short tag>  (14) 
28a - z0193/A/1201

>  <CanonSites short tag>  (14) 
28 - z0193/A/1201/1

>  <CrystalformSites short tag>  (14) 
F4at - z0193/A/1201

>  <Quatassemblies short tag>  (14) 
A1 - monomer

>  <Crystalforms short tag>  (14) 
F4 - P43212

>  <Centroid res>  (14) 
Zika_NS5A-x0193/A/803/A_v1

>  <Experiment code>  (14) 
Zika_NS5A-x0193

>  <SLURM_JOB_ID>  (14) 
nan

>  <SLURM_JOB_NAME>  (14) 
nan

>  <csv_name>  (14) 
nan

>  <scratch_subdir>  (14) 
nan

>  <fragmenstein_runtime>  (14) 
nan

>  <fragmenstein_outcome>  (14) 
nan

>  <fragmenstein_mode>  (14) 
nan

>  <fragmenstein_error>  (14) 
nan

$$$$
z0821a
     RDKit          3D

  5  5  0  0  0  0  0  0  0  0999 V2000
  -18.9550  -33.6340  -20.3420 O   0  0  0  0  0  0  0  0  0  0  0  0
  -18.1610  -34.6830  -20.8780 C   0  0  0  0  0  0  0  0  0  0  0  0
  -16.8060  -34.7450  -20.2000 C   0  0  0  0  0  0  0  0  0  0  0  0
  -15.5740  -34.8400  -21.0400 C   0  0  0  0  0  0  0  0  0  0  0  0
  -15.8970  -33.5700  -20.3210 C   0  0  0  0  0  0  0  0  0  0  0  0
  2  1  1  0
  3  2  1  0
  3  5  1  0
  5  4  1  0
  4  3  1  0
M  END
>  <id>  (15) 
165

>  <inchikey>  (15) 
GUDMZGLFZNLYEY-UHFFFAOYSA-N

>  <alias>  (15) 
z0821a

>  <smiles>  (15) 
OCC1CC1

>  <path>  (15) 
/opt/xchem-fragalysis-2/maxwin/BulkDock/TARGETS/Flavi_NS5_RdRp/aligned_files/z0821a/z0821a.pdb

>  <distance_score>  (15) 
None

>  <energy_score>  (15) 
None

>  <compound>  (15) 
GUDMZGLFZNLYEY-UHFFFAOYSA-N

>  <compound_id>  (15) 
124

>  <target>  (15) 
Flavi_NS5_RdRp

>  <tags>  (15) 
['[Other] upload_1 2024-11-21', '[Other] fragment screen', '[Other] Primer grip/N-pocket (P2)', '[Other] Zika', '[Other] upload_1 2024-11-13', 'hits', 'Pose']

>  <inspirations>  (15) 


>  <reference>  (15) 


>  <observation_longname>  (15) 
Zika_NS5A-x0821_A_1013_1_Zika_NS5A-x0103+A+1112+1

>  <ConformerSites alias>  (15) 
13a - z0103/A/1112

>  <CanonSites alias>  (15) 
13 - z0103/A/1112/1

>  <CrystalformSites alias>  (15) 
F4ac - z0821/A/1013

>  <Quatassemblies alias>  (15) 
A1 - all

>  <Crystalforms alias>  (15) 
F4 - P43212

>  <ConformerSites upload name>  (15) 
13a - Zika_NS5A-x0103/A/1112

>  <CanonSites upload name>  (15) 
13 - Zika_NS5A-x0103/A/1112/1

>  <CrystalformSites upload name>  (15) 
F4ac - Zika_NS5A-x0821/A/1013/1

>  <Quatassemblies upload name>  (15) 
A1 - monomer

>  <Crystalforms upload name>  (15) 
F4 - P43212

>  <ConformerSites short tag>  (15) 
13a - z0103/A/1112

>  <CanonSites short tag>  (15) 
13 - z0103/A/1112/1

>  <CrystalformSites short tag>  (15) 
F4ac - z0821/A/1013

>  <Quatassemblies short tag>  (15) 
A1 - monomer

>  <Crystalforms short tag>  (15) 
F4 - P43212

>  <Centroid res>  (15) 
Zika_NS5A-x0103/A/711/A_v1

>  <Experiment code>  (15) 
Zika_NS5A-x0821

>  <SLURM_JOB_ID>  (15) 
nan

>  <SLURM_JOB_NAME>  (15) 
nan

>  <csv_name>  (15) 
nan

>  <scratch_subdir>  (15) 
nan

>  <fragmenstein_runtime>  (15) 
nan

>  <fragmenstein_outcome>  (15) 
nan

>  <fragmenstein_mode>  (15) 
nan

>  <fragmenstein_error>  (15) 
nan

$$$$
z0875c
     RDKit          3D

  7  7  0  0  0  0  0  0  0  0999 V2000
  -13.2970  -44.4980  -20.8500 N   0  0  0  0  0  0  0  0  0  0  0  0
  -12.9480  -43.4330  -21.1000 C   0  0  0  0  0  0  0  0  0  0  0  0
  -12.5670  -42.0860  -21.4400 C   0  0  0  0  0  0  0  0  0  0  0  0
  -11.4280  -41.4770  -20.9270 N   0  0  0  0  0  0  0  0  0  0  0  0
  -11.4740  -40.2420  -21.4030 C   0  0  0  0  0  0  0  0  0  0  0  0
  -12.5480  -40.0400  -22.1920 N   0  0  0  0  0  0  0  0  0  0  0  0
  -13.2460  -41.2020  -22.2300 C   0  0  0  0  0  0  0  0  0  0  0  0
  2  1  3  0
  3  2  1  0
  3  7  2  0
  7  6  1  0
  6  5  1  0
  5  4  2  0
  4  3  1  0
M  END
>  <id>  (16) 
170

>  <inchikey>  (16) 
NWVGXXPWOYZODV-UHFFFAOYSA-N

>  <alias>  (16) 
z0875c

>  <smiles>  (16) 
N#Cc1c[nH]cn1

>  <path>  (16) 
/opt/xchem-fragalysis-2/maxwin/BulkDock/TARGETS/Flavi_NS5_RdRp/aligned_files/z0875c/z0875c.pdb

>  <distance_score>  (16) 
None

>  <energy_score>  (16) 
None

>  <compound>  (16) 
NWVGXXPWOYZODV-UHFFFAOYSA-N

>  <compound_id>  (16) 
126

>  <target>  (16) 
Flavi_NS5_RdRp

>  <tags>  (16) 
['[Other] upload_1 2024-11-21', '[Other] fragment screen', '[Other] Primer grip/N-pocket (P2)', '[Other] Zika', '[Other] upload_1 2024-11-13', 'hits', 'Pose']

>  <inspirations>  (16) 


>  <reference>  (16) 


>  <observation_longname>  (16) 
nan

>  <ConformerSites alias>  (16) 
nan

>  <CanonSites alias>  (16) 
nan

>  <CrystalformSites alias>  (16) 
nan

>  <Quatassemblies alias>  (16) 
nan

>  <Crystalforms alias>  (16) 
nan

>  <ConformerSites upload name>  (16) 
nan

>  <CanonSites upload name>  (16) 
nan

>  <CrystalformSites upload name>  (16) 
nan

>  <Quatassemblies upload name>  (16) 
nan

>  <Crystalforms upload name>  (16) 
nan

>  <ConformerSites short tag>  (16) 
nan

>  <CanonSites short tag>  (16) 
nan

>  <CrystalformSites short tag>  (16) 
nan

>  <Quatassemblies short tag>  (16) 
nan

>  <Crystalforms short tag>  (16) 
nan

>  <Centroid res>  (16) 
nan

>  <Experiment code>  (16) 
nan

>  <SLURM_JOB_ID>  (16) 
211008

>  <SLURM_JOB_NAME>  (16) 
BulkDock.place:Flavi_NS5_RdRp:RdRp_knitwork_cavity_b_impure_split4000_batch000

>  <csv_name>  (16) 
RdRp_knitwork_cavity_b_impure_split4000_batch000.csv

>  <scratch_subdir>  (16) 
['/opt/xchem-fragalysis-2/maxwin/BulkDock/SCRATCH/211008/C170-P197']

>  <fragmenstein_runtime>  (16) 
[1.3057222366333008]

>  <fragmenstein_outcome>  (16) 
['too moved']

>  <fragmenstein_mode>  (16) 
['expansion']

>  <fragmenstein_error>  (16) 
['']

$$$$
5i3p-a
     RDKit          3D

 33 35  0  0  0  0  0  0  0  0999 V2000
  -15.4970  -43.7610  -21.5670 C   0  0  0  0  0  0  0  0  0  0  0  0
  -14.5890  -42.9950  -20.8480 C   0  0  0  0  0  0  0  0  0  0  0  0
  -14.5950  -43.0200  -19.4630 C   0  0  0  0  0  0  0  0  0  0  0  0
  -13.7000  -42.3430  -18.6770 O   0  0  0  0  0  0  0  0  0  0  0  0
  -17.0530  -44.1860  -14.6170 O   0  0  0  0  0  0  0  0  0  0  0  0
  -14.1550  -38.9170  -16.1040 O   0  0  0  0  0  0  0  0  0  0  0  0
  -13.8840  -40.1190  -14.0760 C   0  0  0  0  0  0  0  0  0  0  0  0
  -14.2390  -41.1750  -13.2430 C   0  0  0  0  0  0  0  0  0  0  0  0
  -15.2710  -42.0430  -13.5930 C   0  0  0  0  0  0  0  0  0  0  0  0
  -16.4450  -44.5480  -19.5110 C   0  0  0  0  0  0  0  0  0  0  0  0
  -16.4420  -44.5630  -20.9040 C   0  0  0  0  0  0  0  0  0  0  0  0
  -17.4200  -45.4210  -21.5990 C   0  0  0  0  0  0  0  0  0  0  0  0
  -17.9620  -46.6110  -21.1720 C   0  0  0  0  0  0  0  0  0  0  0  0
  -18.8820  -47.1560  -22.0690 C   0  0  0  0  0  0  0  0  0  0  0  0
  -19.0440  -46.4060  -23.1910 C   0  0  0  0  0  0  0  0  0  0  0  0
  -19.8060  -46.6590  -24.3610 C   0  0  0  0  0  0  0  0  0  0  0  0
  -20.3640  -46.7470  -25.4100 C   0  0  0  0  0  0  0  0  0  0  0  0
  -20.9730  -46.8050  -26.7390 C   0  0  0  0  0  0  0  0  0  0  0  0
  -14.9140  -44.2600  -16.5240 O   0  0  0  0  0  0  0  0  0  0  0  0
  -15.7460  -43.7990  -17.3020 C   0  0  0  0  0  0  0  0  0  0  0  0
  -16.9230  -43.2280  -16.8550 N   0  0  0  0  0  0  0  0  0  0  0  0
  -17.2310  -42.9340  -15.2860 S   0  0  0  0  0  0  0  0  0  0  0  0
  -18.4860  -42.2470  -15.1990 O   0  0  0  0  0  0  0  0  0  0  0  0
  -15.9590  -41.8270  -14.7790 C   0  0  0  0  0  0  0  0  0  0  0  0
  -14.5760  -39.9260  -15.2660 C   0  0  0  0  0  0  0  0  0  0  0  0
  -14.8680  -38.6970  -17.3270 C   0  0  0  0  0  0  0  0  0  0  0  0
  -15.6240  -40.7660  -15.6090 C   0  0  0  0  0  0  0  0  0  0  0  0
  -15.5390  -43.7830  -18.7770 C   0  0  0  0  0  0  0  0  0  0  0  0
  -12.8060  -41.4270  -19.3080 C   0  0  0  0  0  0  0  0  0  0  0  0
  -15.5260  -43.8010  -22.9370 O   0  0  0  0  0  0  0  0  0  0  0  0
  -14.5990  -42.9860  -23.6530 C   0  0  0  0  0  0  0  0  0  0  0  0
  -18.0730  -44.9810  -23.1380 S   0  0  0  0  0  0  0  0  0  0  0  0
  -21.8360  -45.7140  -26.9630 O   0  0  0  0  0  0  0  0  0  0  0  0
 18 33  1  0
 18 17  1  0
 17 16  3  0
 16 15  1  0
 15 14  2  0
 15 32  1  0
 14 13  1  0
 13 12  2  0
 32 12  1  0
 12 11  1  0
 11 10  1  0
 11  1  2  0
 30  1  1  0
 30 31  1  0
 10 28  2  0
  1  2  1  0
 28 20  1  0
 28  3  1  0
  2  3  2  0
 21 20  1  0
 21 22  1  0
 20 19  2  0
  5 22  2  0
 23 22  2  0
  3  4  1  0
 22 24  1  0
  4 29  1  0
 24 27  2  0
 24  9  1  0
 27 25  1  0
  9  8  2  0
 26  6  1  0
 25  6  1  0
 25  7  2  0
  8  7  1  0
M  END
>  <id>  (17) 
212

>  <inchikey>  (17) 
GFHHFWCGCHIDBF-UHFFFAOYSA-N

>  <alias>  (17) 
5i3p-a

>  <smiles>  (17) 
COc1cccc(S(=O)(=O)NC(=O)c2cc(-c3ccc(C#CCO)s3)c(OC)cc2OC)c1

>  <path>  (17) 
/opt/xchem-fragalysis-2/maxwin/BulkDock/TARGETS/Flavi_NS5_RdRp/aligned_files/5i3p-a/5i3p-a.pdb

>  <distance_score>  (17) 
None

>  <energy_score>  (17) 
None

>  <compound>  (17) 
GFHHFWCGCHIDBF-UHFFFAOYSA-N

>  <compound_id>  (17) 
149

>  <target>  (17) 
Flavi_NS5_RdRp

>  <tags>  (17) 
['[Other] DENV-3', '[Other] upload_1 2024-11-21', '[Other] Primer grip/N-pocket (P2)', '[Other] upload_1 2024-11-13', 'hits', '[Other] external', 'Pose']

>  <inspirations>  (17) 


>  <reference>  (17) 


>  <observation_longname>  (17) 
5i3p_A_1003_1_5i3p+A+1003+1

>  <ConformerSites alias>  (17) 
5a - 5i3p/A/1003

>  <CanonSites alias>  (17) 
5 - 5i3p/A/1003/1

>  <CrystalformSites alias>  (17) 
F2j - 5i3p/A/1003/1

>  <Quatassemblies alias>  (17) 
A1 - all

>  <Crystalforms alias>  (17) 
F2 - C2221

>  <ConformerSites upload name>  (17) 
5a - 5i3p/A/1003

>  <CanonSites upload name>  (17) 
5 - 5i3p/A/1003/1

>  <CrystalformSites upload name>  (17) 
F2j - 5i3p/A/1003/1

>  <Quatassemblies upload name>  (17) 
A1 - monomer

>  <Crystalforms upload name>  (17) 
F2 - C2221

>  <ConformerSites short tag>  (17) 
5a - 5i3p/A/1003

>  <CanonSites short tag>  (17) 
5 - 5i3p/A/1003/1

>  <CrystalformSites short tag>  (17) 
F2j - 5i3p/A/1003/1

>  <Quatassemblies short tag>  (17) 
A1 - monomer

>  <Crystalforms short tag>  (17) 
F2 - C2221

>  <Centroid res>  (17) 
5i3p/A/799/A_v1

>  <Experiment code>  (17) 
5i3p

>  <SLURM_JOB_ID>  (17) 
nan

>  <SLURM_JOB_NAME>  (17) 
nan

>  <csv_name>  (17) 
nan

>  <scratch_subdir>  (17) 
nan

>  <fragmenstein_runtime>  (17) 
nan

>  <fragmenstein_outcome>  (17) 
nan

>  <fragmenstein_mode>  (17) 
nan

>  <fragmenstein_error>  (17) 
nan

$$$$
5hn0-a
     RDKit          3D

 17 18  0  0  0  0  0  0  0  0999 V2000
  -16.4890  -44.8410  -19.2460 C   0  0  0  0  0  0  0  0  0  0  0  0
  -15.5990  -44.0650  -18.4920 C   0  0  0  0  0  0  0  0  0  0  0  0
  -14.6800  -43.2320  -19.1410 C   0  0  0  0  0  0  0  0  0  0  0  0
  -12.9150  -39.9890  -21.3220 O   0  0  0  0  0  0  0  0  0  0  0  0
  -15.0920  -40.3240  -21.3100 O   0  0  0  0  0  0  0  0  0  0  0  0
  -18.6030  -47.6470  -22.0070 C   0  0  0  0  0  0  0  0  0  0  0  0
  -19.2550  -47.0430  -23.0870 C   0  0  0  0  0  0  0  0  0  0  0  0
  -18.9730  -45.7090  -23.4030 C   0  0  0  0  0  0  0  0  0  0  0  0
  -18.0750  -44.9580  -22.6420 C   0  0  0  0  0  0  0  0  0  0  0  0
  -13.9120  -40.7520  -21.2680 C   0  0  0  0  0  0  0  0  0  0  0  0
  -13.6280  -42.2440  -21.2030 C   0  0  0  0  0  0  0  0  0  0  0  0
  -14.6540  -43.1300  -20.5400 C   0  0  0  0  0  0  0  0  0  0  0  0
  -15.4970  -43.9180  -21.3390 C   0  0  0  0  0  0  0  0  0  0  0  0
  -16.4430  -44.7690  -20.7430 C   0  0  0  0  0  0  0  0  0  0  0  0
  -17.3780  -45.6760  -18.6260 O   0  0  0  0  0  0  0  0  0  0  0  0
  -17.4090  -45.5620  -21.5680 C   0  0  0  0  0  0  0  0  0  0  0  0
  -17.6840  -46.9080  -21.2540 C   0  0  0  0  0  0  0  0  0  0  0  0
  7  6  2  0
  7  8  1  0
  6 17  1  0
  8  9  2  0
 17 16  2  0
  9 16  1  0
 16 14  1  0
 15  1  1  0
 14  1  2  0
 14 13  1  0
  1  2  1  0
 13 12  2  0
  2  3  2  0
 12  3  1  0
 12 11  1  0
 11 10  1  0
  5 10  2  0
 10  4  1  0
M  END
>  <id>  (18) 
213

>  <inchikey>  (18) 
QSTRNCHHKMCZKJ-UHFFFAOYSA-N

>  <alias>  (18) 
5hn0-a

>  <smiles>  (18) 
O=C(O)Cc1ccc(O)c(-c2ccccc2)c1

>  <path>  (18) 
/opt/xchem-fragalysis-2/maxwin/BulkDock/TARGETS/Flavi_NS5_RdRp/aligned_files/5hn0-a/5hn0-a.pdb

>  <distance_score>  (18) 
None

>  <energy_score>  (18) 
None

>  <compound>  (18) 
QSTRNCHHKMCZKJ-UHFFFAOYSA-N

>  <compound_id>  (18) 
150

>  <target>  (18) 
Flavi_NS5_RdRp

>  <tags>  (18) 
['[Other] DENV-3', '[Other] upload_1 2024-11-21', '[Other] Primer grip/N-pocket (P2)', '[Other] upload_1 2024-11-13', 'hits', '[Other] external', 'Pose']

>  <inspirations>  (18) 


>  <reference>  (18) 


>  <observation_longname>  (18) 
5hn0_A_1003_1_5i3p+A+1003+1

>  <ConformerSites alias>  (18) 
5a - 5i3p/A/1003

>  <CanonSites alias>  (18) 
5 - 5i3p/A/1003/1

>  <CrystalformSites alias>  (18) 
F2j - 5i3p/A/1003/1

>  <Quatassemblies alias>  (18) 
A1 - all

>  <Crystalforms alias>  (18) 
F2 - C2221

>  <ConformerSites upload name>  (18) 
5a - 5i3p/A/1003

>  <CanonSites upload name>  (18) 
5 - 5i3p/A/1003/1

>  <CrystalformSites upload name>  (18) 
F2j - 5i3p/A/1003/1

>  <Quatassemblies upload name>  (18) 
A1 - monomer

>  <Crystalforms upload name>  (18) 
F2 - C2221

>  <ConformerSites short tag>  (18) 
5a - 5i3p/A/1003

>  <CanonSites short tag>  (18) 
5 - 5i3p/A/1003/1

>  <CrystalformSites short tag>  (18) 
F2j - 5i3p/A/1003/1

>  <Quatassemblies short tag>  (18) 
A1 - monomer

>  <Crystalforms short tag>  (18) 
F2 - C2221

>  <Centroid res>  (18) 
5i3p/A/799/A_v1

>  <Experiment code>  (18) 
5hn0

>  <SLURM_JOB_ID>  (18) 
nan

>  <SLURM_JOB_NAME>  (18) 
nan

>  <csv_name>  (18) 
nan

>  <scratch_subdir>  (18) 
nan

>  <fragmenstein_runtime>  (18) 
nan

>  <fragmenstein_outcome>  (18) 
nan

>  <fragmenstein_mode>  (18) 
nan

>  <fragmenstein_error>  (18) 
nan

$$$$
5f41-a
     RDKit          3D

 17 18  0  0  0  0  0  0  0  0999 V2000
  -15.1540  -44.2550  -17.4160 C   0  0  0  0  0  0  0  0  0  0  0  0
  -15.3100  -44.1110  -18.9230 C   0  0  0  0  0  0  0  0  0  0  0  0
  -16.3350  -44.8030  -19.5890 C   0  0  0  0  0  0  0  0  0  0  0  0
  -16.5540  -43.8960  -15.5270 O   0  0  0  0  0  0  0  0  0  0  0  0
  -15.5850  -43.8140  -23.1080 O   0  0  0  0  0  0  0  0  0  0  0  0
  -14.4690  -43.2200  -21.0280 C   0  0  0  0  0  0  0  0  0  0  0  0
  -14.3790  -43.3450  -19.6400 C   0  0  0  0  0  0  0  0  0  0  0  0
  -16.2040  -43.4900  -16.6560 C   0  0  0  0  0  0  0  0  0  0  0  0
  -16.6810  -42.4660  -17.1710 O   0  0  0  0  0  0  0  0  0  0  0  0
  -16.4770  -44.7170  -20.9850 C   0  0  0  0  0  0  0  0  0  0  0  0
  -15.4940  -43.8930  -21.7380 C   0  0  0  0  0  0  0  0  0  0  0  0
  -14.5870  -43.1440  -23.8840 C   0  0  0  0  0  0  0  0  0  0  0  0
  -17.5520  -45.4870  -21.6870 C   0  0  0  0  0  0  0  0  0  0  0  0
  -17.9670  -46.7530  -21.2560 C   0  0  0  0  0  0  0  0  0  0  0  0
  -19.1930  -47.2670  -22.3650 S   0  0  0  0  0  0  0  0  0  0  0  0
  -19.1510  -45.9080  -23.4180 C   0  0  0  0  0  0  0  0  0  0  0  0
  -18.2080  -45.0530  -22.8600 C   0  0  0  0  0  0  0  0  0  0  0  0
 15 16  1  0
 15 14  1  0
 16 17  2  0
 14 13  2  0
 17 13  1  0
 13 10  1  0
 10  3  1  0
 10 11  2  0
  5 11  1  0
  5 12  1  0
  3  2  2  0
 11  6  1  0
  2  1  1  0
  2  7  1  0
  6  7  2  0
  1  8  1  0
  4  8  2  0
  8  9  1  0
M  END
>  <id>  (19) 
214

>  <inchikey>  (19) 
JRNVDXIGCSDEEN-UHFFFAOYSA-N

>  <alias>  (19) 
5f41-a

>  <smiles>  (19) 
COc1ccc(CC(=O)O)cc1-c1ccsc1

>  <path>  (19) 
/opt/xchem-fragalysis-2/maxwin/BulkDock/TARGETS/Flavi_NS5_RdRp/aligned_files/5f41-a/5f41-a.pdb

>  <distance_score>  (19) 
None

>  <energy_score>  (19) 
None

>  <compound>  (19) 
JRNVDXIGCSDEEN-UHFFFAOYSA-N

>  <compound_id>  (19) 
151

>  <target>  (19) 
Flavi_NS5_RdRp

>  <tags>  (19) 
['[Other] DENV-3', '[Other] upload_1 2024-11-21', '[Other] Primer grip/N-pocket (P2)', '[Other] upload_1 2024-11-13', 'hits', '[Other] external', 'Pose']

>  <inspirations>  (19) 


>  <reference>  (19) 


>  <observation_longname>  (19) 
5f41_A_1003_1_5i3p+A+1003+1

>  <ConformerSites alias>  (19) 
5a - 5i3p/A/1003

>  <CanonSites alias>  (19) 
5 - 5i3p/A/1003/1

>  <CrystalformSites alias>  (19) 
F2j - 5i3p/A/1003/1

>  <Quatassemblies alias>  (19) 
A1 - all

>  <Crystalforms alias>  (19) 
F2 - C2221

>  <ConformerSites upload name>  (19) 
5a - 5i3p/A/1003

>  <CanonSites upload name>  (19) 
5 - 5i3p/A/1003/1

>  <CrystalformSites upload name>  (19) 
F2j - 5i3p/A/1003/1

>  <Quatassemblies upload name>  (19) 
A1 - monomer

>  <Crystalforms upload name>  (19) 
F2 - C2221

>  <ConformerSites short tag>  (19) 
5a - 5i3p/A/1003

>  <CanonSites short tag>  (19) 
5 - 5i3p/A/1003/1

>  <CrystalformSites short tag>  (19) 
F2j - 5i3p/A/1003/1

>  <Quatassemblies short tag>  (19) 
A1 - monomer

>  <Crystalforms short tag>  (19) 
F2 - C2221

>  <Centroid res>  (19) 
5i3p/A/799/A_v1

>  <Experiment code>  (19) 
5f41

>  <SLURM_JOB_ID>  (19) 
nan

>  <SLURM_JOB_NAME>  (19) 
nan

>  <csv_name>  (19) 
nan

>  <scratch_subdir>  (19) 
nan

>  <fragmenstein_runtime>  (19) 
nan

>  <fragmenstein_outcome>  (19) 
nan

>  <fragmenstein_mode>  (19) 
nan

>  <fragmenstein_error>  (19) 
nan

$$$$
6h80-a
     RDKit          3D

 17 18  0  0  0  0  0  0  0  0999 V2000
  -15.2330  -44.2800  -17.1070 C   0  0  0  0  0  0  0  0  0  0  0  0
  -15.2870  -44.1520  -18.6430 C   0  0  0  0  0  0  0  0  0  0  0  0
  -14.3820  -43.3720  -19.3520 C   0  0  0  0  0  0  0  0  0  0  0  0
  -15.5450  -43.8730  -22.8600 O   0  0  0  0  0  0  0  0  0  0  0  0
  -16.7420  -42.3950  -17.0550 O   0  0  0  0  0  0  0  0  0  0  0  0
  -19.3050  -46.3040  -23.1230 C   0  0  0  0  0  0  0  0  0  0  0  0
  -16.2790  -44.8170  -19.3520 C   0  0  0  0  0  0  0  0  0  0  0  0
  -17.1180  -43.9570  -15.5830 O   0  0  0  0  0  0  0  0  0  0  0  0
  -16.4240  -43.5070  -16.5380 C   0  0  0  0  0  0  0  0  0  0  0  0
  -14.4360  -43.2410  -20.7330 C   0  0  0  0  0  0  0  0  0  0  0  0
  -15.4450  -43.9340  -21.4440 C   0  0  0  0  0  0  0  0  0  0  0  0
  -14.6530  -43.0410  -23.5610 C   0  0  0  0  0  0  0  0  0  0  0  0
  -16.3490  -44.7240  -20.7360 C   0  0  0  0  0  0  0  0  0  0  0  0
  -17.4480  -45.4920  -21.4780 C   0  0  0  0  0  0  0  0  0  0  0  0
  -17.9950  -46.7240  -21.1390 C   0  0  0  0  0  0  0  0  0  0  0  0
  -19.0190  -47.1730  -22.0560 C   0  0  0  0  0  0  0  0  0  0  0  0
  -18.2490  -44.9680  -22.8700 S   0  0  0  0  0  0  0  0  0  0  0  0
  6 16  2  0
  6 17  1  0
 16 15  1  0
 15 14  2  0
 17 14  1  0
 14 13  1  0
 13  7  1  0
 13 11  2  0
  4 11  1  0
  4 12  1  0
  7  2  2  0
 11 10  1  0
  2  1  1  0
  2  3  1  0
 10  3  2  0
  8  9  2  0
  1  9  1  0
  9  5  1  0
M  END
>  <id>  (20) 
215

>  <inchikey>  (20) 
HCAVDRSGOUZCSD-UHFFFAOYSA-N

>  <alias>  (20) 
6h80-a

>  <smiles>  (20) 
COc1ccc(CC(=O)O)cc1-c1cccs1

>  <path>  (20) 
/opt/xchem-fragalysis-2/maxwin/BulkDock/TARGETS/Flavi_NS5_RdRp/aligned_files/6h80-a/6h80-a.pdb

>  <distance_score>  (20) 
None

>  <energy_score>  (20) 
None

>  <compound>  (20) 
HCAVDRSGOUZCSD-UHFFFAOYSA-N

>  <compound_id>  (20) 
152

>  <target>  (20) 
Flavi_NS5_RdRp

>  <tags>  (20) 
['[Other] DENV-3', '[Other] upload_1 2024-11-21', '[Other] Primer grip/N-pocket (P2)', '[Other] upload_1 2024-11-13', 'hits', '[Other] external', 'Pose']

>  <inspirations>  (20) 


>  <reference>  (20) 


>  <observation_longname>  (20) 
nan

>  <ConformerSites alias>  (20) 
nan

>  <CanonSites alias>  (20) 
nan

>  <CrystalformSites alias>  (20) 
nan

>  <Quatassemblies alias>  (20) 
nan

>  <Crystalforms alias>  (20) 
nan

>  <ConformerSites upload name>  (20) 
nan

>  <CanonSites upload name>  (20) 
nan

>  <CrystalformSites upload name>  (20) 
nan

>  <Quatassemblies upload name>  (20) 
nan

>  <Crystalforms upload name>  (20) 
nan

>  <ConformerSites short tag>  (20) 
nan

>  <CanonSites short tag>  (20) 
nan

>  <CrystalformSites short tag>  (20) 
nan

>  <Quatassemblies short tag>  (20) 
nan

>  <Crystalforms short tag>  (20) 
nan

>  <Centroid res>  (20) 
nan

>  <Experiment code>  (20) 
nan

>  <SLURM_JOB_ID>  (20) 
211008

>  <SLURM_JOB_NAME>  (20) 
BulkDock.place:Flavi_NS5_RdRp:RdRp_knitwork_cavity_b_impure_split4000_batch000

>  <csv_name>  (20) 
RdRp_knitwork_cavity_b_impure_split4000_batch000.csv

>  <scratch_subdir>  (20) 
['/opt/xchem-fragalysis-2/maxwin/BulkDock/SCRATCH/211008/C215-P174']

>  <fragmenstein_runtime>  (20) 
[1.7766637802124023]

>  <fragmenstein_outcome>  (20) 
['too moved']

>  <fragmenstein_mode>  (20) 
['expansion']

>  <fragmenstein_error>  (20) 
['']

$$$$
5hmy-a
     RDKit          3D

 23 24  0  0  0  0  0  0  0  0999 V2000
  -13.6900  -42.0740  -20.9510 C   0  0  0  0  0  0  0  0  0  0  0  0
  -14.6530  -43.0350  -20.2960 C   0  0  0  0  0  0  0  0  0  0  0  0
  -14.5710  -43.2350  -18.9200 C   0  0  0  0  0  0  0  0  0  0  0  0
  -15.1740  -40.2190  -21.2790 O   0  0  0  0  0  0  0  0  0  0  0  0
  -16.2150  -43.7690  -14.7030 O   0  0  0  0  0  0  0  0  0  0  0  0
  -17.0570  -42.7860  -16.4280 O   0  0  0  0  0  0  0  0  0  0  0  0
  -18.7640  -47.2690  -22.0220 C   0  0  0  0  0  0  0  0  0  0  0  0
  -18.9910  -46.2940  -22.9790 C   0  0  0  0  0  0  0  0  0  0  0  0
  -19.6580  -46.4820  -24.1200 C   0  0  0  0  0  0  0  0  0  0  0  0
  -20.1480  -46.5920  -25.1880 C   0  0  0  0  0  0  0  0  0  0  0  0
  -20.6510  -46.6680  -26.5650 C   0  0  0  0  0  0  0  0  0  0  0  0
  -15.5780  -43.7690  -21.0610 C   0  0  0  0  0  0  0  0  0  0  0  0
  -13.2980  -39.8380  -20.2840 O   0  0  0  0  0  0  0  0  0  0  0  0
  -14.0910  -40.6190  -20.8240 C   0  0  0  0  0  0  0  0  0  0  0  0
  -16.4850  -44.6440  -20.4290 C   0  0  0  0  0  0  0  0  0  0  0  0
  -16.3730  -44.8490  -19.0450 C   0  0  0  0  0  0  0  0  0  0  0  0
  -15.4460  -44.1200  -18.2860 C   0  0  0  0  0  0  0  0  0  0  0  0
  -15.2920  -44.3830  -16.7970 C   0  0  0  0  0  0  0  0  0  0  0  0
  -16.2540  -43.5930  -15.9320 C   0  0  0  0  0  0  0  0  0  0  0  0
  -17.4520  -45.4860  -21.2070 C   0  0  0  0  0  0  0  0  0  0  0  0
  -17.9160  -46.7970  -21.0040 C   0  0  0  0  0  0  0  0  0  0  0  0
  -18.0680  -44.8760  -22.7170 S   0  0  0  0  0  0  0  0  0  0  0  0
  -22.0000  -46.2280  -26.6080 O   0  0  0  0  0  0  0  0  0  0  0  0
 23 11  1  0
 11 10  1  0
 10  9  3  0
  9  8  1  0
  7  8  2  0
  7 21  1  0
  8 22  1  0
 21 20  2  0
 22 20  1  0
 20 15  1  0
 15 16  2  0
 15 12  1  0
 16 17  1  0
 12  2  2  0
 17 18  1  0
 17  3  2  0
  2  3  1  0
  2  1  1  0
 18 19  1  0
  6 19  2  0
 19  5  1  0
  1 14  1  0
  4 14  2  0
 14 13  1  0
M  END
>  <id>  (21) 
216

>  <inchikey>  (21) 
GUHLJLFVRKYNRL-UHFFFAOYSA-N

>  <alias>  (21) 
5hmy-a

>  <smiles>  (21) 
O=C(O)Cc1cc(CC(=O)O)cc(-c2ccc(C#CCO)s2)c1

>  <path>  (21) 
/opt/xchem-fragalysis-2/maxwin/BulkDock/TARGETS/Flavi_NS5_RdRp/aligned_files/5hmy-a/5hmy-a.pdb

>  <distance_score>  (21) 
None

>  <energy_score>  (21) 
None

>  <compound>  (21) 
GUHLJLFVRKYNRL-UHFFFAOYSA-N

>  <compound_id>  (21) 
153

>  <target>  (21) 
Flavi_NS5_RdRp

>  <tags>  (21) 
['[Other] DENV-3', '[Other] upload_1 2024-11-21', '[Other] Primer grip/N-pocket (P2)', '[Other] upload_1 2024-11-13', 'hits', '[Other] external', 'Pose']

>  <inspirations>  (21) 


>  <reference>  (21) 


>  <observation_longname>  (21) 
5hmy_A_1003_1_5i3p+A+1003+1

>  <ConformerSites alias>  (21) 
5a - 5i3p/A/1003

>  <CanonSites alias>  (21) 
5 - 5i3p/A/1003/1

>  <CrystalformSites alias>  (21) 
F2j - 5i3p/A/1003/1

>  <Quatassemblies alias>  (21) 
A1 - all

>  <Crystalforms alias>  (21) 
F2 - C2221

>  <ConformerSites upload name>  (21) 
5a - 5i3p/A/1003

>  <CanonSites upload name>  (21) 
5 - 5i3p/A/1003/1

>  <CrystalformSites upload name>  (21) 
F2j - 5i3p/A/1003/1

>  <Quatassemblies upload name>  (21) 
A1 - monomer

>  <Crystalforms upload name>  (21) 
F2 - C2221

>  <ConformerSites short tag>  (21) 
5a - 5i3p/A/1003

>  <CanonSites short tag>  (21) 
5 - 5i3p/A/1003/1

>  <CrystalformSites short tag>  (21) 
F2j - 5i3p/A/1003/1

>  <Quatassemblies short tag>  (21) 
A1 - monomer

>  <Crystalforms short tag>  (21) 
F2 - C2221

>  <Centroid res>  (21) 
5i3p/A/799/A_v1

>  <Experiment code>  (21) 
5hmy

>  <SLURM_JOB_ID>  (21) 
nan

>  <SLURM_JOB_NAME>  (21) 
nan

>  <csv_name>  (21) 
nan

>  <scratch_subdir>  (21) 
nan

>  <fragmenstein_runtime>  (21) 
nan

>  <fragmenstein_outcome>  (21) 
nan

>  <fragmenstein_mode>  (21) 
nan

>  <fragmenstein_error>  (21) 
nan

$$$$
6izx-a
     RDKit          3D

 14 15  0  0  0  0  0  0  0  0999 V2000
  -15.7510  -43.8290  -22.4670 C   0  0  0  0  0  0  0  0  0  0  0  0
  -15.8490  -42.0870  -24.3960 C   0  0  0  0  0  0  0  0  0  0  0  0
  -18.2930  -38.5390  -26.6440 C   0  0  0  0  0  0  0  0  0  0  0  0
  -17.1520  -39.4290  -27.1950 C   0  0  0  0  0  0  0  0  0  0  0  0
  -15.4490  -40.0890  -25.6840 C   0  0  0  0  0  0  0  0  0  0  0  0
  -14.3320  -39.7530  -24.8350 C   0  0  0  0  0  0  0  0  0  0  0  0
  -13.9800  -40.5950  -23.7550 C   0  0  0  0  0  0  0  0  0  0  0  0
  -14.7050  -41.7520  -23.5260 C   0  0  0  0  0  0  0  0  0  0  0  0
  -16.1890  -41.2640  -25.4380 C   0  0  0  0  0  0  0  0  0  0  0  0
  -17.3790  -40.2730  -28.0120 O   0  0  0  0  0  0  0  0  0  0  0  0
  -15.8210  -39.2640  -26.7530 O   0  0  0  0  0  0  0  0  0  0  0  0
  -14.5710  -42.9320  -22.3710 O   0  0  0  0  0  0  0  0  0  0  0  0
  -16.0720  -44.6540  -21.6670 O   0  0  0  0  0  0  0  0  0  0  0  0
  -16.5130  -43.4770  -23.8710 S   0  0  0  0  0  0  0  0  0  0  0  0
 12  8  1  0
 12  1  1  0
  7  8  1  0
  7  6  2  0
 13  1  2  0
  8  2  2  0
  1 14  1  0
  6  5  1  0
  2 14  1  0
  2  9  1  0
  5  9  2  0
  5 11  1  0
 11  4  1  0
  4 10  2  0
  4  3  1  0
M  END
>  <id>  (22) 
220

>  <inchikey>  (22) 
GBLGMSCMLNOGSY-UHFFFAOYSA-N

>  <alias>  (22) 
6izx-a

>  <smiles>  (22) 
CC(=O)Oc1ccc2oc(=O)sc2c1

>  <path>  (22) 
/opt/xchem-fragalysis-2/maxwin/BulkDock/TARGETS/Flavi_NS5_RdRp/aligned_files/6izx-a/6izx-a.pdb

>  <distance_score>  (22) 
None

>  <energy_score>  (22) 
None

>  <compound>  (22) 
GBLGMSCMLNOGSY-UHFFFAOYSA-N

>  <compound_id>  (22) 
155

>  <target>  (22) 
Flavi_NS5_RdRp

>  <tags>  (22) 
['[Other] upload_1 2024-11-21', 'Pose', '[Other] Primer grip/N-pocket (P2)', '[Other] upload_1 2024-11-13', 'hits', '[Other] external', '[Other] DENV-2']

>  <inspirations>  (22) 


>  <reference>  (22) 


>  <observation_longname>  (22) 
nan

>  <ConformerSites alias>  (22) 
nan

>  <CanonSites alias>  (22) 
nan

>  <CrystalformSites alias>  (22) 
nan

>  <Quatassemblies alias>  (22) 
nan

>  <Crystalforms alias>  (22) 
nan

>  <ConformerSites upload name>  (22) 
nan

>  <CanonSites upload name>  (22) 
nan

>  <CrystalformSites upload name>  (22) 
nan

>  <Quatassemblies upload name>  (22) 
nan

>  <Crystalforms upload name>  (22) 
nan

>  <ConformerSites short tag>  (22) 
nan

>  <CanonSites short tag>  (22) 
nan

>  <CrystalformSites short tag>  (22) 
nan

>  <Quatassemblies short tag>  (22) 
nan

>  <Crystalforms short tag>  (22) 
nan

>  <Centroid res>  (22) 
nan

>  <Experiment code>  (22) 
nan

>  <SLURM_JOB_ID>  (22) 
211008

>  <SLURM_JOB_NAME>  (22) 
BulkDock.place:Flavi_NS5_RdRp:RdRp_knitwork_cavity_b_impure_split4000_batch000

>  <csv_name>  (22) 
RdRp_knitwork_cavity_b_impure_split4000_batch000.csv

>  <scratch_subdir>  (22) 
['/opt/xchem-fragalysis-2/maxwin/BulkDock/SCRATCH/211008/C220-P174']

>  <fragmenstein_runtime>  (22) 
[1.7042195796966553]

>  <fragmenstein_outcome>  (22) 
['acceptable']

>  <fragmenstein_mode>  (22) 
['expansion']

>  <fragmenstein_error>  (22) 
['']

$$$$
5i3q-a
     RDKit          3D

 34 37  0  0  0  0  0  0  0  0999 V2000
  -15.4510  -43.8150  -21.4860 C   0  0  0  0  0  0  0  0  0  0  0  0
  -14.5060  -43.1070  -20.7500 C   0  0  0  0  0  0  0  0  0  0  0  0
  -14.5350  -43.0860  -19.3580 C   0  0  0  0  0  0  0  0  0  0  0  0
  -22.2920  -46.1700  -26.7340 O   0  0  0  0  0  0  0  0  0  0  0  0
  -16.6900  -43.3130  -16.6750 O   0  0  0  0  0  0  0  0  0  0  0  0
  -16.0670  -44.7310  -14.4590 O   0  0  0  0  0  0  0  0  0  0  0  0
  -19.0000  -46.3750  -23.2190 C   0  0  0  0  0  0  0  0  0  0  0  0
  -19.7790  -46.6010  -24.3820 C   0  0  0  0  0  0  0  0  0  0  0  0
  -20.3740  -46.6640  -25.4130 C   0  0  0  0  0  0  0  0  0  0  0  0
  -21.0600  -46.8430  -26.6950 C   0  0  0  0  0  0  0  0  0  0  0  0
  -15.6940  -43.7870  -17.2240 C   0  0  0  0  0  0  0  0  0  0  0  0
  -14.1580  -42.9560  -14.3340 C   0  0  0  0  0  0  0  0  0  0  0  0
  -15.0370  -42.1960  -13.6110 C   0  0  0  0  0  0  0  0  0  0  0  0
  -14.6800  -40.9230  -13.1920 C   0  0  0  0  0  0  0  0  0  0  0  0
  -13.4920  -40.3730  -13.5760 C   0  0  0  0  0  0  0  0  0  0  0  0
  -12.5550  -41.1220  -14.3370 C   0  0  0  0  0  0  0  0  0  0  0  0
  -11.3020  -40.6230  -14.7710 C   0  0  0  0  0  0  0  0  0  0  0  0
  -10.4700  -41.4120  -15.5120 C   0  0  0  0  0  0  0  0  0  0  0  0
  -10.9050  -42.6810  -15.8820 C   0  0  0  0  0  0  0  0  0  0  0  0
  -12.9010  -42.4330  -14.7560 C   0  0  0  0  0  0  0  0  0  0  0  0
  -13.7240  -45.5310  -14.5520 O   0  0  0  0  0  0  0  0  0  0  0  0
  -14.7120  -44.5500  -14.8810 S   0  0  0  0  0  0  0  0  0  0  0  0
  -12.0620  -43.2120  -15.5060 N   0  0  0  0  0  0  0  0  0  0  0  0
  -14.6780  -44.3800  -16.4980 N   0  0  0  0  0  0  0  0  0  0  0  0
  -15.5470  -43.8150  -18.7070 C   0  0  0  0  0  0  0  0  0  0  0  0
  -13.4940  -42.2820  -18.6180 C   0  0  0  0  0  0  0  0  0  0  0  0
  -16.4700  -44.5490  -19.4530 C   0  0  0  0  0  0  0  0  0  0  0  0
  -16.4420  -44.5680  -20.8410 C   0  0  0  0  0  0  0  0  0  0  0  0
  -15.4450  -43.8890  -22.8530 O   0  0  0  0  0  0  0  0  0  0  0  0
  -14.5160  -43.0670  -23.5740 C   0  0  0  0  0  0  0  0  0  0  0  0
  -17.4240  -45.4050  -21.5610 C   0  0  0  0  0  0  0  0  0  0  0  0
  -18.0460  -44.9420  -23.1100 S   0  0  0  0  0  0  0  0  0  0  0  0
  -18.8280  -47.1670  -22.1260 C   0  0  0  0  0  0  0  0  0  0  0  0
  -17.9540  -46.6080  -21.1720 C   0  0  0  0  0  0  0  0  0  0  0  0
  4 10  1  0
 10  9  1  0
  9  8  3  0
  8  7  1  0
  7 33  2  0
  7 32  1  0
 33 34  1  0
 34 31  2  0
 32 31  1  0
 31 28  1  0
 28 27  1  0
 28  1  2  0
 29  1  1  0
 29 30  1  0
 27 25  2  0
  1  2  1  0
 25 11  1  0
 25  3  1  0
  2  3  2  0
  5 11  2  0
 11 24  1  0
  3 26  1  0
  6 22  2  0
 24 22  1  0
 22 21  2  0
 22 12  1  0
 12 13  2  0
 12 20  1  0
 13 14  1  0
 23 20  2  0
 23 19  1  0
 20 16  1  0
 14 15  2  0
 19 18  2  0
 16 15  1  0
 16 17  2  0
 18 17  1  0
M  END
>  <id>  (23) 
221

>  <inchikey>  (23) 
IGHQXATTWZGDIH-UHFFFAOYSA-N

>  <alias>  (23) 
5i3q-a

>  <smiles>  (23) 
COc1cc(C)c(C(=O)NS(=O)(=O)c2cccc3cccnc23)cc1-c1ccc(C#CCO)s1

>  <path>  (23) 
/opt/xchem-fragalysis-2/maxwin/BulkDock/TARGETS/Flavi_NS5_RdRp/aligned_files/5i3q-a/5i3q-a.pdb

>  <distance_score>  (23) 
None

>  <energy_score>  (23) 
None

>  <compound>  (23) 
IGHQXATTWZGDIH-UHFFFAOYSA-N

>  <compound_id>  (23) 
156

>  <target>  (23) 
Flavi_NS5_RdRp

>  <tags>  (23) 
['[Other] DENV-3', '[Other] upload_1 2024-11-21', '[Other] Primer grip/N-pocket (P2)', '[Other] upload_1 2024-11-13', 'hits', '[Other] external', 'Pose']

>  <inspirations>  (23) 


>  <reference>  (23) 


>  <observation_longname>  (23) 
5i3q_A_1003_1_5i3p+A+1003+1

>  <ConformerSites alias>  (23) 
5a - 5i3p/A/1003

>  <CanonSites alias>  (23) 
5 - 5i3p/A/1003/1

>  <CrystalformSites alias>  (23) 
F2j - 5i3p/A/1003/1

>  <Quatassemblies alias>  (23) 
A1 - all

>  <Crystalforms alias>  (23) 
F2 - C2221

>  <ConformerSites upload name>  (23) 
5a - 5i3p/A/1003

>  <CanonSites upload name>  (23) 
5 - 5i3p/A/1003/1

>  <CrystalformSites upload name>  (23) 
F2j - 5i3p/A/1003/1

>  <Quatassemblies upload name>  (23) 
A1 - monomer

>  <Crystalforms upload name>  (23) 
F2 - C2221

>  <ConformerSites short tag>  (23) 
5a - 5i3p/A/1003

>  <CanonSites short tag>  (23) 
5 - 5i3p/A/1003/1

>  <CrystalformSites short tag>  (23) 
F2j - 5i3p/A/1003/1

>  <Quatassemblies short tag>  (23) 
A1 - monomer

>  <Crystalforms short tag>  (23) 
F2 - C2221

>  <Centroid res>  (23) 
5i3p/A/799/A_v1

>  <Experiment code>  (23) 
5i3q

>  <SLURM_JOB_ID>  (23) 
nan

>  <SLURM_JOB_NAME>  (23) 
nan

>  <csv_name>  (23) 
nan

>  <scratch_subdir>  (23) 
nan

>  <fragmenstein_runtime>  (23) 
nan

>  <fragmenstein_outcome>  (23) 
nan

>  <fragmenstein_mode>  (23) 
nan

>  <fragmenstein_error>  (23) 
nan

$$$$
5hmx-b
     RDKit          3D

 19 20  0  0  0  0  0  0  0  0999 V2000
  -13.7220  -42.2280  -21.1420 C   0  0  0  0  0  0  0  0  0  0  0  0
  -14.6490  -43.1950  -20.4470 C   0  0  0  0  0  0  0  0  0  0  0  0
  -14.5900  -43.3600  -19.0690 C   0  0  0  0  0  0  0  0  0  0  0  0
  -12.9970  -40.1580  -20.3220 O   0  0  0  0  0  0  0  0  0  0  0  0
  -16.9040  -43.6820  -15.1320 O   0  0  0  0  0  0  0  0  0  0  0  0
  -16.9120  -42.3650  -16.9220 O   0  0  0  0  0  0  0  0  0  0  0  0
  -18.8710  -47.2120  -22.1000 C   0  0  0  0  0  0  0  0  0  0  0  0
  -19.0990  -46.2700  -23.0200 C   0  0  0  0  0  0  0  0  0  0  0  0
  -15.5800  -43.9300  -21.1770 C   0  0  0  0  0  0  0  0  0  0  0  0
  -14.0110  -40.7830  -20.8460 C   0  0  0  0  0  0  0  0  0  0  0  0
  -15.0750  -40.2540  -21.0900 O   0  0  0  0  0  0  0  0  0  0  0  0
  -16.4580  -44.8000  -20.5370 C   0  0  0  0  0  0  0  0  0  0  0  0
  -16.3910  -44.9430  -19.1510 C   0  0  0  0  0  0  0  0  0  0  0  0
  -15.4580  -44.2190  -18.4080 C   0  0  0  0  0  0  0  0  0  0  0  0
  -15.4650  -44.2820  -16.8980 C   0  0  0  0  0  0  0  0  0  0  0  0
  -16.4910  -43.3410  -16.3220 C   0  0  0  0  0  0  0  0  0  0  0  0
  -17.4660  -45.5450  -21.3140 C   0  0  0  0  0  0  0  0  0  0  0  0
  -17.9330  -46.8150  -21.1030 C   0  0  0  0  0  0  0  0  0  0  0  0
  -18.2010  -44.8710  -22.7170 S   0  0  0  0  0  0  0  0  0  0  0  0
  7  8  2  0
  7 18  1  0
  8 19  1  0
 18 17  2  0
 19 17  1  0
 17 12  1  0
 12 13  2  0
 12  9  1  0
 13 14  1  0
  9  2  2  0
 14 15  1  0
 14  3  2  0
  2  3  1  0
  2  1  1  0
 15 16  1  0
 16  5  2  0
 16  6  1  0
  1 10  1  0
 11 10  2  0
 10  4  1  0
M  END
>  <id>  (24) 
223

>  <inchikey>  (24) 
KZPRFEGRESQBAV-UHFFFAOYSA-N

>  <alias>  (24) 
5hmx-b

>  <smiles>  (24) 
O=C(O)Cc1cc(CC(=O)O)cc(-c2cccs2)c1

>  <path>  (24) 
/opt/xchem-fragalysis-2/maxwin/BulkDock/TARGETS/Flavi_NS5_RdRp/aligned_files/5hmx-b/5hmx-b.pdb

>  <distance_score>  (24) 
None

>  <energy_score>  (24) 
None

>  <compound>  (24) 
KZPRFEGRESQBAV-UHFFFAOYSA-N

>  <compound_id>  (24) 
158

>  <target>  (24) 
Flavi_NS5_RdRp

>  <tags>  (24) 
['[Other] DENV-3', '[Other] upload_1 2024-11-21', '[Other] Primer grip/N-pocket (P2)', '[Other] upload_1 2024-11-13', 'hits', '[Other] external', 'Pose']

>  <inspirations>  (24) 


>  <reference>  (24) 


>  <observation_longname>  (24) 
5hmx_A_1003_1_5i3p+A+1003+1

>  <ConformerSites alias>  (24) 
5a - 5i3p/A/1003

>  <CanonSites alias>  (24) 
5 - 5i3p/A/1003/1

>  <CrystalformSites alias>  (24) 
F2j - 5i3p/A/1003/1

>  <Quatassemblies alias>  (24) 
A1 - all

>  <Crystalforms alias>  (24) 
F2 - C2221

>  <ConformerSites upload name>  (24) 
5a - 5i3p/A/1003

>  <CanonSites upload name>  (24) 
5 - 5i3p/A/1003/1

>  <CrystalformSites upload name>  (24) 
F2j - 5i3p/A/1003/1

>  <Quatassemblies upload name>  (24) 
A1 - monomer

>  <Crystalforms upload name>  (24) 
F2 - C2221

>  <ConformerSites short tag>  (24) 
5a - 5i3p/A/1003

>  <CanonSites short tag>  (24) 
5 - 5i3p/A/1003/1

>  <CrystalformSites short tag>  (24) 
F2j - 5i3p/A/1003/1

>  <Quatassemblies short tag>  (24) 
A1 - monomer

>  <Crystalforms short tag>  (24) 
F2 - C2221

>  <Centroid res>  (24) 
5i3p/A/799/A_v1

>  <Experiment code>  (24) 
5hmx

>  <SLURM_JOB_ID>  (24) 
nan

>  <SLURM_JOB_NAME>  (24) 
nan

>  <csv_name>  (24) 
nan

>  <scratch_subdir>  (24) 
nan

>  <fragmenstein_runtime>  (24) 
nan

>  <fragmenstein_outcome>  (24) 
nan

>  <fragmenstein_mode>  (24) 
nan

>  <fragmenstein_error>  (24) 
nan

$$$$
5k5m-a
     RDKit          3D

 33 35  0  0  0  0  0  0  0  0999 V2000
  -14.8580  -43.9260  -21.4080 C   0  0  0  0  0  0  0  0  0  0  0  0
  -13.9290  -43.2280  -20.6590 C   0  0  0  0  0  0  0  0  0  0  0  0
  -13.9520  -43.2730  -19.2780 C   0  0  0  0  0  0  0  0  0  0  0  0
  -13.0590  -42.6100  -18.4790 O   0  0  0  0  0  0  0  0  0  0  0  0
  -17.7140  -42.2960  -15.0130 O   0  0  0  0  0  0  0  0  0  0  0  0
  -12.8650  -39.4700  -15.4270 O   0  0  0  0  0  0  0  0  0  0  0  0
  -13.0470  -40.6900  -13.5060 C   0  0  0  0  0  0  0  0  0  0  0  0
  -13.6190  -41.6720  -12.7070 C   0  0  0  0  0  0  0  0  0  0  0  0
  -14.7000  -42.4170  -13.1580 C   0  0  0  0  0  0  0  0  0  0  0  0
  -15.8630  -44.7240  -19.3760 C   0  0  0  0  0  0  0  0  0  0  0  0
  -15.8550  -44.6900  -20.7770 C   0  0  0  0  0  0  0  0  0  0  0  0
  -16.8860  -45.4380  -21.5260 C   0  0  0  0  0  0  0  0  0  0  0  0
  -17.4820  -46.6370  -21.1590 C   0  0  0  0  0  0  0  0  0  0  0  0
  -18.3590  -47.1370  -22.1260 C   0  0  0  0  0  0  0  0  0  0  0  0
  -18.4690  -46.3200  -23.2350 C   0  0  0  0  0  0  0  0  0  0  0  0
  -19.2110  -46.5040  -24.4290 C   0  0  0  0  0  0  0  0  0  0  0  0
  -19.7910  -46.6140  -25.4640 C   0  0  0  0  0  0  0  0  0  0  0  0
  -20.5840  -46.8720  -26.6660 C   0  0  0  0  0  0  0  0  0  0  0  0
  -14.2290  -44.4290  -16.3550 O   0  0  0  0  0  0  0  0  0  0  0  0
  -15.1100  -44.0300  -17.1160 C   0  0  0  0  0  0  0  0  0  0  0  0
  -16.2460  -43.4040  -16.6350 N   0  0  0  0  0  0  0  0  0  0  0  0
  -16.5520  -43.1300  -15.0390 S   0  0  0  0  0  0  0  0  0  0  0  0
  -16.5620  -44.3840  -14.3500 O   0  0  0  0  0  0  0  0  0  0  0  0
  -15.1980  -42.1770  -14.4300 C   0  0  0  0  0  0  0  0  0  0  0  0
  -13.5670  -40.4490  -14.7680 C   0  0  0  0  0  0  0  0  0  0  0  0
  -13.2920  -39.0810  -16.7360 C   0  0  0  0  0  0  0  0  0  0  0  0
  -14.6500  -41.1880  -15.2310 C   0  0  0  0  0  0  0  0  0  0  0  0
  -14.9290  -44.0160  -18.6070 C   0  0  0  0  0  0  0  0  0  0  0  0
  -12.1900  -41.6430  -19.0820 C   0  0  0  0  0  0  0  0  0  0  0  0
  -14.8550  -43.9500  -22.7790 O   0  0  0  0  0  0  0  0  0  0  0  0
  -13.8140  -43.2580  -23.4550 C   0  0  0  0  0  0  0  0  0  0  0  0
  -17.4720  -44.9230  -23.0810 S   0  0  0  0  0  0  0  0  0  0  0  0
  -21.7170  -46.0320  -26.7280 O   0  0  0  0  0  0  0  0  0  0  0  0
 18 33  1  0
 18 17  1  0
 17 16  3  0
 16 15  1  0
 15 14  2  0
 15 32  1  0
 14 13  1  0
 13 12  2  0
 32 12  1  0
 12 11  1  0
 11 10  1  0
 11  1  2  0
 30  1  1  0
 30 31  1  0
 10 28  2  0
  1  2  1  0
 28 20  1  0
 28  3  1  0
  2  3  2  0
 21 20  1  0
 21 22  1  0
 20 19  2  0
  5 22  2  0
 23 22  2  0
  3  4  1  0
 22 24  1  0
  4 29  1  0
 24 27  2  0
 24  9  1  0
 27 25  1  0
  9  8  2  0
 26  6  1  0
 25  6  1  0
 25  7  2  0
  8  7  1  0
M  END
>  <id>  (25) 
225

>  <inchikey>  (25) 
GFHHFWCGCHIDBF-UHFFFAOYSA-N

>  <alias>  (25) 
5k5m-a

>  <smiles>  (25) 
COc1cccc(S(=O)(=O)NC(=O)c2cc(-c3ccc(C#CCO)s3)c(OC)cc2OC)c1

>  <path>  (25) 
/opt/xchem-fragalysis-2/maxwin/BulkDock/TARGETS/Flavi_NS5_RdRp/aligned_files/5k5m-a/5k5m-a.pdb

>  <distance_score>  (25) 
None

>  <energy_score>  (25) 
None

>  <compound>  (25) 
GFHHFWCGCHIDBF-UHFFFAOYSA-N

>  <compound_id>  (25) 
149

>  <target>  (25) 
Flavi_NS5_RdRp

>  <tags>  (25) 
['[Other] upload_1 2024-11-21', 'Pose', '[Other] Primer grip/N-pocket (P2)', '[Other] upload_1 2024-11-13', 'hits', '[Other] external', '[Other] DENV-2']

>  <inspirations>  (25) 


>  <reference>  (25) 


>  <observation_longname>  (25) 
5k5m_A_1003_1_DNV2_NS5A-x0254+A+1701+1

>  <ConformerSites alias>  (25) 
6a - d0254/A/1701

>  <CanonSites alias>  (25) 
6 - d0254/A/1701/1

>  <CrystalformSites alias>  (25) 
F1n - d0254/A/1701

>  <Quatassemblies alias>  (25) 
A1 - all

>  <Crystalforms alias>  (25) 
F1 - I222

>  <ConformerSites upload name>  (25) 
6a - DNV2_NS5A-x0254/A/1701

>  <CanonSites upload name>  (25) 
6 - DNV2_NS5A-x0254/A/1701/1

>  <CrystalformSites upload name>  (25) 
F1n - DNV2_NS5A-x0254/A/1701/1

>  <Quatassemblies upload name>  (25) 
A1 - monomer

>  <Crystalforms upload name>  (25) 
F1 - I222

>  <ConformerSites short tag>  (25) 
6a - d0254/A/1701

>  <CanonSites short tag>  (25) 
6 - d0254/A/1701/1

>  <CrystalformSites short tag>  (25) 
F1n - d0254/A/1701

>  <Quatassemblies short tag>  (25) 
A1 - monomer

>  <Crystalforms short tag>  (25) 
F1 - I222

>  <Centroid res>  (25) 
DNV2_NS5A-x0254/A/512/A_v1

>  <Experiment code>  (25) 
5k5m

>  <SLURM_JOB_ID>  (25) 
nan

>  <SLURM_JOB_NAME>  (25) 
nan

>  <csv_name>  (25) 
nan

>  <scratch_subdir>  (25) 
nan

>  <fragmenstein_runtime>  (25) 
nan

>  <fragmenstein_outcome>  (25) 
nan

>  <fragmenstein_mode>  (25) 
nan

>  <fragmenstein_error>  (25) 
nan

$$$$
5hmz-a
     RDKit          3D

 25 26  0  0  0  0  0  0  0  0999 V2000
  -16.3850  -44.4800  -19.4840 C   0  0  0  0  0  0  0  0  0  0  0  0
  -15.4090  -43.7600  -18.7960 C   0  0  0  0  0  0  0  0  0  0  0  0
  -14.4300  -43.0430  -19.5080 C   0  0  0  0  0  0  0  0  0  0  0  0
  -17.4350  -45.3200  -21.5580 C   0  0  0  0  0  0  0  0  0  0  0  0
  -19.0280  -46.3480  -23.1160 C   0  0  0  0  0  0  0  0  0  0  0  0
  -18.8540  -47.0840  -22.0150 C   0  0  0  0  0  0  0  0  0  0  0  0
  -17.9480  -46.5100  -21.1130 C   0  0  0  0  0  0  0  0  0  0  0  0
  -19.8180  -46.5800  -24.2700 C   0  0  0  0  0  0  0  0  0  0  0  0
  -15.7600  -42.1920  -14.5030 C   0  0  0  0  0  0  0  0  0  0  0  0
  -20.3920  -46.6600  -25.3100 C   0  0  0  0  0  0  0  0  0  0  0  0
  -20.9050  -46.7000  -26.6790 C   0  0  0  0  0  0  0  0  0  0  0  0
  -14.4930  -43.0500  -20.9000 C   0  0  0  0  0  0  0  0  0  0  0  0
  -15.4710  -43.7740  -21.5760 C   0  0  0  0  0  0  0  0  0  0  0  0
  -16.4260  -44.5080  -20.8730 C   0  0  0  0  0  0  0  0  0  0  0  0
  -15.5340  -43.7620  -17.3110 C   0  0  0  0  0  0  0  0  0  0  0  0
  -13.3210  -42.2770  -18.8210 C   0  0  0  0  0  0  0  0  0  0  0  0
  -15.4260  -43.7880  -22.9480 O   0  0  0  0  0  0  0  0  0  0  0  0
  -14.4150  -43.0450  -23.6430 C   0  0  0  0  0  0  0  0  0  0  0  0
  -14.6650  -44.2930  -16.6210 O   0  0  0  0  0  0  0  0  0  0  0  0
  -16.6530  -43.1520  -16.7890 N   0  0  0  0  0  0  0  0  0  0  0  0
  -18.0850  -44.9220  -23.0680 S   0  0  0  0  0  0  0  0  0  0  0  0
  -17.0310  -43.1020  -15.2300 S   0  0  0  0  0  0  0  0  0  0  0  0
  -16.9840  -44.4180  -14.7500 O   0  0  0  0  0  0  0  0  0  0  0  0
  -18.2330  -42.3530  -15.1500 O   0  0  0  0  0  0  0  0  0  0  0  0
  -22.1670  -46.0800  -26.7690 O   0  0  0  0  0  0  0  0  0  0  0  0
 25 11  1  0
 11 10  1  0
 10  8  3  0
  8  5  1  0
  5  6  2  0
  5 21  1  0
  6  7  1  0
  7  4  2  0
 21  4  1  0
  4 14  1  0
 14  1  2  0
 14 13  1  0
 17 13  1  0
 17 18  1  0
  1  2  1  0
 13 12  2  0
  2 15  1  0
  2  3  2  0
 12  3  1  0
 23 22  2  0
 20 15  1  0
 20 22  1  0
 15 19  2  0
 24 22  2  0
  3 16  1  0
 22  9  1  0
M  END
>  <id>  (26) 
227

>  <inchikey>  (26) 
BQEHLOAHCIMXML-UHFFFAOYSA-N

>  <alias>  (26) 
5hmz-a

>  <smiles>  (26) 
COc1cc(C)c(C(=O)NS(C)(=O)=O)cc1-c1ccc(C#CCO)s1

>  <path>  (26) 
/opt/xchem-fragalysis-2/maxwin/BulkDock/TARGETS/Flavi_NS5_RdRp/aligned_files/5hmz-a/5hmz-a.pdb

>  <distance_score>  (26) 
None

>  <energy_score>  (26) 
None

>  <compound>  (26) 
BQEHLOAHCIMXML-UHFFFAOYSA-N

>  <compound_id>  (26) 
160

>  <target>  (26) 
Flavi_NS5_RdRp

>  <tags>  (26) 
['[Other] DENV-3', '[Other] upload_1 2024-11-21', '[Other] Primer grip/N-pocket (P2)', '[Other] upload_1 2024-11-13', 'hits', '[Other] external', 'Pose']

>  <inspirations>  (26) 


>  <reference>  (26) 


>  <observation_longname>  (26) 
5hmz_A_1003_1_5i3p+A+1003+1

>  <ConformerSites alias>  (26) 
5a - 5i3p/A/1003

>  <CanonSites alias>  (26) 
5 - 5i3p/A/1003/1

>  <CrystalformSites alias>  (26) 
F2j - 5i3p/A/1003/1

>  <Quatassemblies alias>  (26) 
A1 - all

>  <Crystalforms alias>  (26) 
F2 - C2221

>  <ConformerSites upload name>  (26) 
5a - 5i3p/A/1003

>  <CanonSites upload name>  (26) 
5 - 5i3p/A/1003/1

>  <CrystalformSites upload name>  (26) 
F2j - 5i3p/A/1003/1

>  <Quatassemblies upload name>  (26) 
A1 - monomer

>  <Crystalforms upload name>  (26) 
F2 - C2221

>  <ConformerSites short tag>  (26) 
5a - 5i3p/A/1003

>  <CanonSites short tag>  (26) 
5 - 5i3p/A/1003/1

>  <CrystalformSites short tag>  (26) 
F2j - 5i3p/A/1003/1

>  <Quatassemblies short tag>  (26) 
A1 - monomer

>  <Crystalforms short tag>  (26) 
F2 - C2221

>  <Centroid res>  (26) 
5i3p/A/799/A_v1

>  <Experiment code>  (26) 
5hmz

>  <SLURM_JOB_ID>  (26) 
nan

>  <SLURM_JOB_NAME>  (26) 
nan

>  <csv_name>  (26) 
nan

>  <scratch_subdir>  (26) 
nan

>  <fragmenstein_runtime>  (26) 
nan

>  <fragmenstein_outcome>  (26) 
nan

>  <fragmenstein_mode>  (26) 
nan

>  <fragmenstein_error>  (26) 
nan

$$$$
5hmw-b
     RDKit          3D

 20 21  0  0  0  0  0  0  0  0999 V2000
  -15.4770  -44.5400  -16.9800 C   0  0  0  0  0  0  0  0  0  0  0  0
  -15.5540  -44.3040  -18.4770 C   0  0  0  0  0  0  0  0  0  0  0  0
  -14.5940  -43.4820  -19.0810 C   0  0  0  0  0  0  0  0  0  0  0  0
  -17.0100  -42.7160  -16.6060 O   0  0  0  0  0  0  0  0  0  0  0  0
  -15.0540  -40.5100  -21.4330 O   0  0  0  0  0  0  0  0  0  0  0  0
  -13.1650  -40.1660  -20.4340 O   0  0  0  0  0  0  0  0  0  0  0  0
  -18.7030  -47.5000  -22.1540 C   0  0  0  0  0  0  0  0  0  0  0  0
  -19.2740  -46.8520  -23.2530 C   0  0  0  0  0  0  0  0  0  0  0  0
  -18.9510  -45.5150  -23.5060 C   0  0  0  0  0  0  0  0  0  0  0  0
  -18.0850  -44.8290  -22.6540 C   0  0  0  0  0  0  0  0  0  0  0  0
  -16.5230  -44.9550  -19.2590 C   0  0  0  0  0  0  0  0  0  0  0  0
  -13.9690  -40.9250  -20.9950 C   0  0  0  0  0  0  0  0  0  0  0  0
  -13.6070  -42.3860  -21.1290 C   0  0  0  0  0  0  0  0  0  0  0  0
  -14.6290  -43.2730  -20.4580 C   0  0  0  0  0  0  0  0  0  0  0  0
  -15.5790  -43.9440  -21.2370 C   0  0  0  0  0  0  0  0  0  0  0  0
  -16.5550  -44.7580  -20.6480 C   0  0  0  0  0  0  0  0  0  0  0  0
  -16.4960  -43.7610  -16.1640 C   0  0  0  0  0  0  0  0  0  0  0  0
  -16.7790  -44.1840  -15.0250 O   0  0  0  0  0  0  0  0  0  0  0  0
  -17.5350  -45.4660  -21.5310 C   0  0  0  0  0  0  0  0  0  0  0  0
  -17.8320  -46.8140  -21.3040 C   0  0  0  0  0  0  0  0  0  0  0  0
  8  7  2  0
  8  9  1  0
  7 20  1  0
  9 10  2  0
 20 19  2  0
 10 19  1  0
 19 16  1  0
 16 11  1  0
 16 15  2  0
 11  2  2  0
 15 14  1  0
  2  1  1  0
  2  3  1  0
 14  3  2  0
 14 13  1  0
  1 17  1  0
 17 18  2  0
 17  4  1  0
 13 12  1  0
  5 12  2  0
 12  6  1  0
M  END
>  <id>  (27) 
229

>  <inchikey>  (27) 
VAGQJIBPPQRDCK-UHFFFAOYSA-N

>  <alias>  (27) 
5hmw-b

>  <smiles>  (27) 
O=C(O)Cc1cc(CC(=O)O)cc(-c2ccccc2)c1

>  <path>  (27) 
/opt/xchem-fragalysis-2/maxwin/BulkDock/TARGETS/Flavi_NS5_RdRp/aligned_files/5hmw-b/5hmw-b.pdb

>  <distance_score>  (27) 
None

>  <energy_score>  (27) 
None

>  <compound>  (27) 
VAGQJIBPPQRDCK-UHFFFAOYSA-N

>  <compound_id>  (27) 
161

>  <target>  (27) 
Flavi_NS5_RdRp

>  <tags>  (27) 
['[Other] DENV-3', '[Other] upload_1 2024-11-21', '[Other] Primer grip/N-pocket (P2)', '[Other] upload_1 2024-11-13', 'hits', '[Other] external', 'Pose']

>  <inspirations>  (27) 


>  <reference>  (27) 


>  <observation_longname>  (27) 
5hmw_A_1003_1_5i3p+A+1003+1

>  <ConformerSites alias>  (27) 
5a - 5i3p/A/1003

>  <CanonSites alias>  (27) 
5 - 5i3p/A/1003/1

>  <CrystalformSites alias>  (27) 
F2j - 5i3p/A/1003/1

>  <Quatassemblies alias>  (27) 
A1 - all

>  <Crystalforms alias>  (27) 
F2 - C2221

>  <ConformerSites upload name>  (27) 
5a - 5i3p/A/1003

>  <CanonSites upload name>  (27) 
5 - 5i3p/A/1003/1

>  <CrystalformSites upload name>  (27) 
F2j - 5i3p/A/1003/1

>  <Quatassemblies upload name>  (27) 
A1 - monomer

>  <Crystalforms upload name>  (27) 
F2 - C2221

>  <ConformerSites short tag>  (27) 
5a - 5i3p/A/1003

>  <CanonSites short tag>  (27) 
5 - 5i3p/A/1003/1

>  <CrystalformSites short tag>  (27) 
F2j - 5i3p/A/1003/1

>  <Quatassemblies short tag>  (27) 
A1 - monomer

>  <Crystalforms short tag>  (27) 
F2 - C2221

>  <Centroid res>  (27) 
5i3p/A/799/A_v1

>  <Experiment code>  (27) 
5hmw

>  <SLURM_JOB_ID>  (27) 
nan

>  <SLURM_JOB_NAME>  (27) 
nan

>  <csv_name>  (27) 
nan

>  <scratch_subdir>  (27) 
nan

>  <fragmenstein_runtime>  (27) 
nan

>  <fragmenstein_outcome>  (27) 
nan

>  <fragmenstein_mode>  (27) 
nan

>  <fragmenstein_error>  (27) 
nan

$$$$
5f3z-a
     RDKit          3D

 17 18  0  0  0  0  0  0  0  0999 V2000
  -15.2140  -44.1960  -17.2050 C   0  0  0  0  0  0  0  0  0  0  0  0
  -15.3060  -44.0670  -18.7190 C   0  0  0  0  0  0  0  0  0  0  0  0
  -14.3780  -43.2890  -19.4240 C   0  0  0  0  0  0  0  0  0  0  0  0
  -15.4940  -43.7830  -22.9020 O   0  0  0  0  0  0  0  0  0  0  0  0
  -16.7770  -42.4210  -17.0360 O   0  0  0  0  0  0  0  0  0  0  0  0
  -19.2550  -46.2000  -23.1400 C   0  0  0  0  0  0  0  0  0  0  0  0
  -16.3270  -44.7300  -19.3850 C   0  0  0  0  0  0  0  0  0  0  0  0
  -16.7530  -43.9010  -15.4240 O   0  0  0  0  0  0  0  0  0  0  0  0
  -16.3290  -43.4590  -16.5100 C   0  0  0  0  0  0  0  0  0  0  0  0
  -14.4180  -43.1820  -20.8110 C   0  0  0  0  0  0  0  0  0  0  0  0
  -15.4370  -43.8370  -21.5280 C   0  0  0  0  0  0  0  0  0  0  0  0
  -14.5170  -43.0760  -23.6690 C   0  0  0  0  0  0  0  0  0  0  0  0
  -16.4280  -44.6560  -20.7710 C   0  0  0  0  0  0  0  0  0  0  0  0
  -17.5040  -45.4480  -21.4270 C   0  0  0  0  0  0  0  0  0  0  0  0
  -18.1160  -46.6480  -21.0950 C   0  0  0  0  0  0  0  0  0  0  0  0
  -19.0830  -47.0270  -22.0370 C   0  0  0  0  0  0  0  0  0  0  0  0
  -18.1620  -44.8750  -22.9160 S   0  0  0  0  0  0  0  0  0  0  0  0
  6 16  2  0
  6 17  1  0
 16 15  1  0
 15 14  2  0
 17 14  1  0
 14 13  1  0
 13  7  1  0
 13 11  2  0
  4 11  1  0
  4 12  1  0
  7  2  2  0
 11 10  1  0
  2  1  1  0
  2  3  1  0
 10  3  2  0
  8  9  2  0
  1  9  1  0
  9  5  1  0
M  END
>  <id>  (28) 
231

>  <inchikey>  (28) 
HCAVDRSGOUZCSD-UHFFFAOYSA-N

>  <alias>  (28) 
5f3z-a

>  <smiles>  (28) 
COc1ccc(CC(=O)O)cc1-c1cccs1

>  <path>  (28) 
/opt/xchem-fragalysis-2/maxwin/BulkDock/TARGETS/Flavi_NS5_RdRp/aligned_files/5f3z-a/5f3z-a.pdb

>  <distance_score>  (28) 
None

>  <energy_score>  (28) 
None

>  <compound>  (28) 
HCAVDRSGOUZCSD-UHFFFAOYSA-N

>  <compound_id>  (28) 
152

>  <target>  (28) 
Flavi_NS5_RdRp

>  <tags>  (28) 
['[Other] DENV-3', '[Other] upload_1 2024-11-21', '[Other] Primer grip/N-pocket (P2)', '[Other] upload_1 2024-11-13', 'hits', '[Other] external', 'Pose']

>  <inspirations>  (28) 


>  <reference>  (28) 


>  <observation_longname>  (28) 
nan

>  <ConformerSites alias>  (28) 
nan

>  <CanonSites alias>  (28) 
nan

>  <CrystalformSites alias>  (28) 
nan

>  <Quatassemblies alias>  (28) 
nan

>  <Crystalforms alias>  (28) 
nan

>  <ConformerSites upload name>  (28) 
nan

>  <CanonSites upload name>  (28) 
nan

>  <CrystalformSites upload name>  (28) 
nan

>  <Quatassemblies upload name>  (28) 
nan

>  <Crystalforms upload name>  (28) 
nan

>  <ConformerSites short tag>  (28) 
nan

>  <CanonSites short tag>  (28) 
nan

>  <CrystalformSites short tag>  (28) 
nan

>  <Quatassemblies short tag>  (28) 
nan

>  <Crystalforms short tag>  (28) 
nan

>  <Centroid res>  (28) 
nan

>  <Experiment code>  (28) 
nan

>  <SLURM_JOB_ID>  (28) 
211008

>  <SLURM_JOB_NAME>  (28) 
BulkDock.place:Flavi_NS5_RdRp:RdRp_knitwork_cavity_b_impure_split4000_batch000

>  <csv_name>  (28) 
RdRp_knitwork_cavity_b_impure_split4000_batch000.csv

>  <scratch_subdir>  (28) 
['/opt/xchem-fragalysis-2/maxwin/BulkDock/SCRATCH/211008/C231-P174']

>  <fragmenstein_runtime>  (28) 
[1.464637279510498]

>  <fragmenstein_outcome>  (28) 
['too moved']

>  <fragmenstein_mode>  (28) 
['expansion']

>  <fragmenstein_error>  (28) 
['']

$$$$
6h9r-a
     RDKit          3D

 17 18  0  0  0  0  0  0  0  0999 V2000
  -15.2520  -44.4050  -17.0120 C   0  0  0  0  0  0  0  0  0  0  0  0
  -15.3070  -44.2510  -18.5340 C   0  0  0  0  0  0  0  0  0  0  0  0
  -14.3930  -43.4450  -19.2100 C   0  0  0  0  0  0  0  0  0  0  0  0
  -15.5790  -43.9010  -22.7240 O   0  0  0  0  0  0  0  0  0  0  0  0
  -16.2960  -42.2860  -17.0750 O   0  0  0  0  0  0  0  0  0  0  0  0
  -19.2690  -46.2980  -23.1540 C   0  0  0  0  0  0  0  0  0  0  0  0
  -16.3160  -44.9000  -19.2660 C   0  0  0  0  0  0  0  0  0  0  0  0
  -17.1960  -43.6970  -15.6870 O   0  0  0  0  0  0  0  0  0  0  0  0
  -16.3050  -43.4180  -16.5350 C   0  0  0  0  0  0  0  0  0  0  0  0
  -14.4630  -43.3000  -20.6000 C   0  0  0  0  0  0  0  0  0  0  0  0
  -15.4720  -43.9710  -21.3180 C   0  0  0  0  0  0  0  0  0  0  0  0
  -14.6800  -43.0630  -23.4010 C   0  0  0  0  0  0  0  0  0  0  0  0
  -16.3930  -44.7640  -20.6470 C   0  0  0  0  0  0  0  0  0  0  0  0
  -17.4740  -45.4940  -21.4510 C   0  0  0  0  0  0  0  0  0  0  0  0
  -18.0480  -46.7250  -21.1270 C   0  0  0  0  0  0  0  0  0  0  0  0
  -19.0410  -47.1460  -22.0670 C   0  0  0  0  0  0  0  0  0  0  0  0
  -18.2180  -44.9830  -22.8960 S   0  0  0  0  0  0  0  0  0  0  0  0
  6 16  2  0
  6 17  1  0
 16 15  1  0
 15 14  2  0
 17 14  1  0
 14 13  1  0
 13  7  1  0
 13 11  2  0
  4 11  1  0
  4 12  1  0
  7  2  2  0
 11 10  1  0
  2  1  1  0
  2  3  1  0
 10  3  2  0
  8  9  2  0
  1  9  1  0
  9  5  1  0
M  END
>  <id>  (29) 
232

>  <inchikey>  (29) 
HCAVDRSGOUZCSD-UHFFFAOYSA-N

>  <alias>  (29) 
6h9r-a

>  <smiles>  (29) 
COc1ccc(CC(=O)O)cc1-c1cccs1

>  <path>  (29) 
/opt/xchem-fragalysis-2/maxwin/BulkDock/TARGETS/Flavi_NS5_RdRp/aligned_files/6h9r-a/6h9r-a.pdb

>  <distance_score>  (29) 
None

>  <energy_score>  (29) 
None

>  <compound>  (29) 
HCAVDRSGOUZCSD-UHFFFAOYSA-N

>  <compound_id>  (29) 
152

>  <target>  (29) 
Flavi_NS5_RdRp

>  <tags>  (29) 
['[Other] DENV-3', '[Other] upload_1 2024-11-21', '[Other] Primer grip/N-pocket (P2)', '[Other] upload_1 2024-11-13', 'hits', '[Other] external', 'Pose']

>  <inspirations>  (29) 


>  <reference>  (29) 


>  <observation_longname>  (29) 
6h9r_A_1001_1_5i3p+A+1003+1

>  <ConformerSites alias>  (29) 
5a - 5i3p/A/1003

>  <CanonSites alias>  (29) 
5 - 5i3p/A/1003/1

>  <CrystalformSites alias>  (29) 
F2k - 6h80/A/1001/1

>  <Quatassemblies alias>  (29) 
A1 - all

>  <Crystalforms alias>  (29) 
F2 - C2221

>  <ConformerSites upload name>  (29) 
5a - 5i3p/A/1003

>  <CanonSites upload name>  (29) 
5 - 5i3p/A/1003/1

>  <CrystalformSites upload name>  (29) 
F2k - 6h80/A/1001/1

>  <Quatassemblies upload name>  (29) 
A1 - monomer

>  <Crystalforms upload name>  (29) 
F2 - C2221

>  <ConformerSites short tag>  (29) 
5a - 5i3p/A/1003

>  <CanonSites short tag>  (29) 
5 - 5i3p/A/1003/1

>  <CrystalformSites short tag>  (29) 
F2k - 6h80/A/1001/1

>  <Quatassemblies short tag>  (29) 
A1 - monomer

>  <Crystalforms short tag>  (29) 
F2 - C2221

>  <Centroid res>  (29) 
5i3p/A/799/A_v1

>  <Experiment code>  (29) 
6h9r

>  <SLURM_JOB_ID>  (29) 
nan

>  <SLURM_JOB_NAME>  (29) 
nan

>  <csv_name>  (29) 
nan

>  <scratch_subdir>  (29) 
nan

>  <fragmenstein_runtime>  (29) 
nan

>  <fragmenstein_outcome>  (29) 
nan

>  <fragmenstein_mode>  (29) 
nan

>  <fragmenstein_error>  (29) 
nan

$$$$
5f3t-a
     RDKit          3D

 18 19  0  0  0  0  0  0  0  0999 V2000
  -15.5480  -43.9340  -21.6070 C   0  0  0  0  0  0  0  0  0  0  0  0
  -14.5980  -43.2170  -20.8560 C   0  0  0  0  0  0  0  0  0  0  0  0
  -14.5670  -43.3410  -19.4640 C   0  0  0  0  0  0  0  0  0  0  0  0
  -16.9070  -44.0190  -15.4960 O   0  0  0  0  0  0  0  0  0  0  0  0
  -16.8110  -42.4260  -17.0100 O   0  0  0  0  0  0  0  0  0  0  0  0
  -19.0950  -45.8630  -23.4880 C   0  0  0  0  0  0  0  0  0  0  0  0
  -19.3250  -47.1890  -23.1340 C   0  0  0  0  0  0  0  0  0  0  0  0
  -18.6400  -47.7380  -22.0480 C   0  0  0  0  0  0  0  0  0  0  0  0
  -17.7270  -46.9640  -21.3260 C   0  0  0  0  0  0  0  0  0  0  0  0
  -16.4370  -43.5270  -16.5460 C   0  0  0  0  0  0  0  0  0  0  0  0
  -15.3540  -44.2790  -17.2720 C   0  0  0  0  0  0  0  0  0  0  0  0
  -15.4750  -44.1550  -18.7800 C   0  0  0  0  0  0  0  0  0  0  0  0
  -16.4330  -44.9030  -19.4850 C   0  0  0  0  0  0  0  0  0  0  0  0
  -16.5200  -44.8140  -20.8860 C   0  0  0  0  0  0  0  0  0  0  0  0
  -15.6030  -43.8440  -22.9840 O   0  0  0  0  0  0  0  0  0  0  0  0
  -14.5360  -43.2680  -23.7430 C   0  0  0  0  0  0  0  0  0  0  0  0
  -17.5180  -45.6190  -21.6590 C   0  0  0  0  0  0  0  0  0  0  0  0
  -18.2180  -45.0690  -22.7410 C   0  0  0  0  0  0  0  0  0  0  0  0
  7  8  1  0
  7  6  2  0
  8  9  2  0
  6 18  1  0
  9 17  1  0
 18 17  2  0
 17 14  1  0
 14 13  1  0
 14  1  2  0
 15  1  1  0
 15 16  1  0
 13 12  2  0
  1  2  1  0
 12 11  1  0
 12  3  1  0
  2  3  2  0
  4 10  2  0
 11 10  1  0
 10  5  1  0
M  END
>  <id>  (30) 
233

>  <inchikey>  (30) 
JHXCUSZPZNECKH-UHFFFAOYSA-N

>  <alias>  (30) 
5f3t-a

>  <smiles>  (30) 
COc1ccc(CC(=O)O)cc1-c1ccccc1

>  <path>  (30) 
/opt/xchem-fragalysis-2/maxwin/BulkDock/TARGETS/Flavi_NS5_RdRp/aligned_files/5f3t-a/5f3t-a.pdb

>  <distance_score>  (30) 
None

>  <energy_score>  (30) 
None

>  <compound>  (30) 
JHXCUSZPZNECKH-UHFFFAOYSA-N

>  <compound_id>  (30) 
162

>  <target>  (30) 
Flavi_NS5_RdRp

>  <tags>  (30) 
['[Other] DENV-3', '[Other] upload_1 2024-11-21', '[Other] Primer grip/N-pocket (P2)', '[Other] upload_1 2024-11-13', 'hits', '[Other] external', 'Pose']

>  <inspirations>  (30) 


>  <reference>  (30) 


>  <observation_longname>  (30) 
5f3t_A_1003_1_5i3p+A+1003+1

>  <ConformerSites alias>  (30) 
5a - 5i3p/A/1003

>  <CanonSites alias>  (30) 
5 - 5i3p/A/1003/1

>  <CrystalformSites alias>  (30) 
F2j - 5i3p/A/1003/1

>  <Quatassemblies alias>  (30) 
A1 - all

>  <Crystalforms alias>  (30) 
F2 - C2221

>  <ConformerSites upload name>  (30) 
5a - 5i3p/A/1003

>  <CanonSites upload name>  (30) 
5 - 5i3p/A/1003/1

>  <CrystalformSites upload name>  (30) 
F2j - 5i3p/A/1003/1

>  <Quatassemblies upload name>  (30) 
A1 - monomer

>  <Crystalforms upload name>  (30) 
F2 - C2221

>  <ConformerSites short tag>  (30) 
5a - 5i3p/A/1003

>  <CanonSites short tag>  (30) 
5 - 5i3p/A/1003/1

>  <CrystalformSites short tag>  (30) 
F2j - 5i3p/A/1003/1

>  <Quatassemblies short tag>  (30) 
A1 - monomer

>  <Crystalforms short tag>  (30) 
F2 - C2221

>  <Centroid res>  (30) 
5i3p/A/799/A_v1

>  <Experiment code>  (30) 
5f3t

>  <SLURM_JOB_ID>  (30) 
nan

>  <SLURM_JOB_NAME>  (30) 
nan

>  <csv_name>  (30) 
nan

>  <scratch_subdir>  (30) 
nan

>  <fragmenstein_runtime>  (30) 
nan

>  <fragmenstein_outcome>  (30) 
nan

>  <fragmenstein_mode>  (30) 
nan

>  <fragmenstein_error>  (30) 
nan

$$$$
