6xd0_A_1008_1_3vws+A+1003+1
     RDKit          3D

 31 34  0  0  0  0  0  0  0  0999 V2000
  -23.8150  -34.1850  -22.3580 C   0  0  0  0  0  0  0  0  0  0  0  0
  -22.7130  -33.2510  -22.9880 C   0  0  0  0  0  0  0  0  0  0  0  0
  -21.5040  -33.5750  -22.1560 C   0  0  0  0  0  0  0  0  0  0  0  0
  -25.4990  -31.7360  -22.0520 O   0  0  0  0  0  0  0  0  0  0  0  0
  -26.0030  -35.1450  -22.7780 O   0  0  0  0  0  0  0  0  0  0  0  0
  -24.9770  -34.1970  -24.5490 O   0  0  0  0  0  0  0  0  0  0  0  0
  -25.6230  -32.0490  -19.6750 C   0  0  0  0  0  0  0  0  0  0  0  0
  -26.8600  -31.1440  -19.6090 C   0  0  0  0  0  0  0  0  0  0  0  0
  -26.8630  -29.7850  -20.0380 C   0  0  0  0  0  0  0  0  0  0  0  0
  -25.1950  -27.9460  -20.8990 C   0  0  0  0  0  0  0  0  0  0  0  0
  -24.5310  -27.6460  -22.1260 C   0  0  0  0  0  0  0  0  0  0  0  0
  -23.9010  -26.3980  -22.3100 C   0  0  0  0  0  0  0  0  0  0  0  0
  -23.8340  -25.4660  -21.2620 C   0  0  0  0  0  0  0  0  0  0  0  0
  -24.4580  -25.7580  -20.0390 C   0  0  0  0  0  0  0  0  0  0  0  0
  -25.1230  -26.9850  -19.8510 C   0  0  0  0  0  0  0  0  0  0  0  0
  -28.0420  -29.0140  -19.9330 C   0  0  0  0  0  0  0  0  0  0  0  0
  -29.2050  -29.5780  -19.3760 C   0  0  0  0  0  0  0  0  0  0  0  0
  -29.1980  -30.9010  -18.9000 C   0  0  0  0  0  0  0  0  0  0  0  0
  -28.0350  -31.6800  -19.0330 C   0  0  0  0  0  0  0  0  0  0  0  0
  -24.9590  -34.5030  -23.3570 C   0  0  0  0  0  0  0  0  0  0  0  0
  -22.9780  -35.4420  -21.9300 C   0  0  0  0  0  0  0  0  0  0  0  0
  -21.6630  -34.8110  -21.5420 C   0  0  0  0  0  0  0  0  0  0  0  0
  -20.6800  -35.3160  -20.6720 C   0  0  0  0  0  0  0  0  0  0  0  0
  -19.5050  -34.5510  -20.4700 C   0  0  0  0  0  0  0  0  0  0  0  0
  -19.3490  -33.2880  -21.0940 C   0  0  0  0  0  0  0  0  0  0  0  0
  -20.3560  -32.7900  -21.9510 C   0  0  0  0  0  0  0  0  0  0  0  0
  -24.4180  -33.5270  -21.1900 N   0  0  0  0  0  0  0  0  0  0  0  0
  -25.1840  -32.4310  -21.0920 C   0  0  0  0  0  0  0  0  0  0  0  0
  -25.7350  -29.2280  -20.6480 N   0  0  0  0  0  0  0  0  0  0  0  0
  -25.8250  -27.2890  -18.2970 Cl  0  0  0  0  0  0  0  0  0  0  0  0
  -24.5680  -28.7340  -23.4730 Cl  0  0  0  0  0  0  0  0  0  0  0  0
  5 20  2  0
  6 20  1  0
 20  1  1  0
 21  1  1  0
 21 22  1  0
  1 27  1  0
  1  2  1  0
 18 19  2  0
 18 17  1  0
 19  8  1  0
 27 28  1  0
  4 28  2  0
 28  7  1  0
 17 16  2  0
  2  3  1  0
  8  7  1  0
  8  9  2  0
 22 23  2  0
 22  3  1  0
 16  9  1  0
 23 24  1  0
  9 29  1  0
  3 26  2  0
 29 10  1  0
 31 11  1  0
 24 25  2  0
 26 25  1  0
 10 11  2  0
 10 15  1  0
 11 12  1  0
 30 15  1  0
 15 14  2  0
 12 13  2  0
 14 13  1  0
M  END
$$$$

