DNV2_NS5A-x1217_A_1608_1_DNV2_NS5A-x1217+A+1608+1
     RDKit          3D

 11 12  0  0  0  0  0  0  0  0999 V2000
   12.0750  -28.9050  -33.5390 C   0  0  0  0  0  0  0  0  0  0  0  0
   13.4230  -29.0930  -34.1940 C   0  0  0  0  0  0  0  0  0  0  0  0
   13.9650  -30.4450  -33.9580 N   0  0  0  0  0  0  0  0  0  0  0  0
   14.6490  -30.8610  -32.8260 C   0  0  0  0  0  0  0  0  0  0  0  0
   14.8940  -32.2210  -33.0200 C   0  0  0  0  0  0  0  0  0  0  0  0
   14.3810  -32.6290  -34.2560 N   0  0  0  0  0  0  0  0  0  0  0  0
   13.8530  -31.5420  -34.7610 C   0  0  0  0  0  0  0  0  0  0  0  0
   15.0350  -30.1990  -31.6710 C   0  0  0  0  0  0  0  0  0  0  0  0
   15.6680  -30.9430  -30.6840 C   0  0  0  0  0  0  0  0  0  0  0  0
   15.9050  -32.3050  -30.8550 C   0  0  0  0  0  0  0  0  0  0  0  0
   15.5330  -32.9540  -32.0240 C   0  0  0  0  0  0  0  0  0  0  0  0
  2  1  1  0
  3  2  1  0
  3  7  1  0
  7  6  2  0
  6  5  1  0
  5 11  2  0
 11 10  1  0
 10  9  2  0
  9  8  1  0
  8  4  2  0
  4  3  1  0
  5  4  1  0
M  END
$$$$

