5hn0_A_1003_1_5i3p+A+1003+1
     RDKit          3D

 17 18  0  0  0  0  0  0  0  0999 V2000
  -16.4890  -44.8410  -19.2460 C   0  0  0  0  0  0  0  0  0  0  0  0
  -15.5990  -44.0650  -18.4920 C   0  0  0  0  0  0  0  0  0  0  0  0
  -14.6800  -43.2320  -19.1410 C   0  0  0  0  0  0  0  0  0  0  0  0
  -12.9150  -39.9890  -21.3220 O   0  0  0  0  0  0  0  0  0  0  0  0
  -15.0920  -40.3240  -21.3100 O   0  0  0  0  0  0  0  0  0  0  0  0
  -18.6030  -47.6470  -22.0070 C   0  0  0  0  0  0  0  0  0  0  0  0
  -19.2550  -47.0430  -23.0870 C   0  0  0  0  0  0  0  0  0  0  0  0
  -18.9730  -45.7090  -23.4030 C   0  0  0  0  0  0  0  0  0  0  0  0
  -18.0750  -44.9580  -22.6420 C   0  0  0  0  0  0  0  0  0  0  0  0
  -13.9120  -40.7520  -21.2680 C   0  0  0  0  0  0  0  0  0  0  0  0
  -13.6280  -42.2440  -21.2030 C   0  0  0  0  0  0  0  0  0  0  0  0
  -14.6540  -43.1300  -20.5400 C   0  0  0  0  0  0  0  0  0  0  0  0
  -15.4970  -43.9180  -21.3390 C   0  0  0  0  0  0  0  0  0  0  0  0
  -16.4430  -44.7690  -20.7430 C   0  0  0  0  0  0  0  0  0  0  0  0
  -17.3780  -45.6760  -18.6260 O   0  0  0  0  0  0  0  0  0  0  0  0
  -17.4090  -45.5620  -21.5680 C   0  0  0  0  0  0  0  0  0  0  0  0
  -17.6840  -46.9080  -21.2540 C   0  0  0  0  0  0  0  0  0  0  0  0
  7  6  2  0
  7  8  1  0
  6 17  1  0
  8  9  2  0
 17 16  2  0
  9 16  1  0
 16 14  1  0
 15  1  1  0
 14  1  2  0
 14 13  1  0
  1  2  1  0
 13 12  2  0
  2  3  2  0
 12  3  1  0
 12 11  1  0
 11 10  1  0
  5 10  2  0
 10  4  1  0
M  END
$$$$

