Zika_NS5A-x0136_A_1019_1_Zika_NS5A-x0107+A+1108+1
     RDKit          3D

 13 14  0  0  0  0  0  0  0  0999 V2000
  -14.2120  -70.4900  -30.5010 O   0  0  0  0  0  0  0  0  0  0  0  0
  -14.5420  -70.5130  -31.6860 C   0  0  0  0  0  0  0  0  0  0  0  0
  -14.9180  -71.7910  -32.3830 C   0  0  0  0  0  0  0  0  0  0  0  0
  -14.6540  -69.3860  -32.4420 N   0  0  0  0  0  0  0  0  0  0  0  0
  -13.6900  -68.6840  -33.2200 C   0  0  0  0  0  0  0  0  0  0  0  0
  -14.0270  -67.4230  -33.7240 C   0  0  0  0  0  0  0  0  0  0  0  0
  -15.1030  -66.6160  -33.4550 N   0  0  0  0  0  0  0  0  0  0  0  0
  -14.9840  -65.4760  -34.2010 C   0  0  0  0  0  0  0  0  0  0  0  0
  -13.8570  -65.5240  -34.9550 C   0  0  0  0  0  0  0  0  0  0  0  0
  -13.2110  -66.7500  -34.6600 C   0  0  0  0  0  0  0  0  0  0  0  0
  -12.0100  -67.3410  -35.0500 C   0  0  0  0  0  0  0  0  0  0  0  0
  -11.6420  -68.5610  -34.5150 C   0  0  0  0  0  0  0  0  0  0  0  0
  -12.4710  -69.2260  -33.6190 C   0  0  0  0  0  0  0  0  0  0  0  0
  3  2  1  0
  2  1  2  0
  4  2  1  0
  5  4  1  0
  5 13  2  0
 13 12  1  0
 12 11  2  0
 11 10  1  0
 10  9  1  0
  9  8  2  0
  8  7  1  0
  7  6  1  0
  6  5  1  0
 10  6  2  0
M  END
$$$$

