Zika_NS5A-x0375_A_1201_1_Zika_NS5A-x0481+A+1201+1
     RDKit          3D

 15 16  0  0  0  0  0  0  0  0999 V2000
  -21.2970  -74.7400  -17.8980 N   0  0  0  0  0  0  0  0  0  0  0  0
  -20.4610  -74.0900  -18.3190 C   0  0  0  0  0  0  0  0  0  0  0  0
  -19.4140  -73.2760  -18.8750 C   0  0  0  0  0  0  0  0  0  0  0  0
  -18.2060  -73.1360  -18.1980 C   0  0  0  0  0  0  0  0  0  0  0  0
  -17.1760  -72.4230  -18.7810 C   0  0  0  0  0  0  0  0  0  0  0  0
  -17.3510  -71.8390  -20.0270 C   0  0  0  0  0  0  0  0  0  0  0  0
  -19.5940  -72.6760  -20.1210 C   0  0  0  0  0  0  0  0  0  0  0  0
  -18.5620  -71.9450  -20.7030 C   0  0  0  0  0  0  0  0  0  0  0  0
  -18.7740  -71.2330  -22.0190 C   0  0  0  0  0  0  0  0  0  0  0  0
  -19.1420  -69.8190  -21.8510 N   0  0  0  0  0  0  0  0  0  0  0  0
  -20.3560  -69.3050  -21.4820 C   0  0  0  0  0  0  0  0  0  0  0  0
  -21.5900  -70.1190  -21.3870 C   0  0  0  0  0  0  0  0  0  0  0  0
  -18.2740  -68.7610  -21.9490 C   0  0  0  0  0  0  0  0  0  0  0  0
  -18.9900  -67.6610  -21.6130 C   0  0  0  0  0  0  0  0  0  0  0  0
  -20.2870  -68.0000  -21.3080 N   0  0  0  0  0  0  0  0  0  0  0  0
 12 11  1  0
 11 15  2  0
 15 14  1  0
 14 13  2  0
 13 10  1  0
 11 10  1  0
 10  9  1  0
  9  8  1  0
  8  6  1  0
  6  5  2  0
  5  4  1  0
  4  3  2  0
  3  2  1  0
  2  1  3  0
  7  3  1  0
  8  7  2  0
M  END
$$$$

