Zika_NS5A-x0136_A_1016_1_Zika_NS5A-x0136+A+1016+1
     RDKit          3D

 13 14  0  0  0  0  0  0  0  0999 V2000
  -21.2870  -60.4340   -0.0700 O   0  0  0  0  0  0  0  0  0  0  0  0
  -22.1730  -59.8700    0.5630 C   0  0  0  0  0  0  0  0  0  0  0  0
  -21.8690  -58.8890    1.6590 C   0  0  0  0  0  0  0  0  0  0  0  0
  -23.4890  -60.0640    0.3150 N   0  0  0  0  0  0  0  0  0  0  0  0
  -24.2900  -59.2690   -0.5350 C   0  0  0  0  0  0  0  0  0  0  0  0
  -25.1510  -59.8670   -1.4650 C   0  0  0  0  0  0  0  0  0  0  0  0
  -25.3400  -61.1920   -1.7840 N   0  0  0  0  0  0  0  0  0  0  0  0
  -26.2660  -61.2710   -2.7940 C   0  0  0  0  0  0  0  0  0  0  0  0
  -26.6860  -60.0290   -3.1410 C   0  0  0  0  0  0  0  0  0  0  0  0
  -25.9840  -59.0990   -2.3090 C   0  0  0  0  0  0  0  0  0  0  0  0
  -25.9310  -57.7080   -2.2100 C   0  0  0  0  0  0  0  0  0  0  0  0
  -25.0590  -57.1030   -1.3190 C   0  0  0  0  0  0  0  0  0  0  0  0
  -24.2530  -57.8700   -0.4890 C   0  0  0  0  0  0  0  0  0  0  0  0
  3  2  1  0
  2  1  2  0
  4  2  1  0
  5  4  1  0
  5 13  2  0
 13 12  1  0
 12 11  2  0
 11 10  1  0
 10  9  1  0
  9  8  2  0
  8  7  1  0
  7  6  1  0
  6  5  1  0
 10  6  2  0
M  END
>  <id>  (1) 
90

>  <inchikey>  (1) 
DCOHDTHCOCZQTO-UHFFFAOYSA-N

>  <alias>  (1) 
z0136b

>  <name>  (1) 
z0136b

>  <smiles>  (1) 
CC(=O)Nc1cccc2cc[nH]c12

>  <path>  (1) 
/opt/xchem-fragalysis-2/maxwin/BulkDock/TARGETS/Flavi_NS5_RdRp/aligned_files/z0136b/z0136b.pdb

>  <distance_score>  (1) 
None

>  <energy_score>  (1) 
None

>  <compound>  (1) 
DCOHDTHCOCZQTO-UHFFFAOYSA-N

>  <compound_id>  (1) 
73

>  <target>  (1) 
Flavi_NS5_RdRp

$$$$
Zika_NS5A-x0184_A_1112_1_Zika_NS5A-x0136+A+1016+1
     RDKit          3D

 13 13  0  0  0  0  0  0  0  0999 V2000
  -26.9330  -60.1530   -3.2580 O   0  0  0  0  0  0  0  0  0  0  0  0
  -26.0760  -60.9040   -2.8030 C   0  0  0  0  0  0  0  0  0  0  0  0
  -25.8560  -62.2860   -3.4110 C   0  0  0  0  0  0  0  0  0  0  0  0
  -27.1260  -62.9670   -3.5400 N   0  0  0  0  0  0  0  0  0  0  0  0
  -25.2740  -60.5950   -1.7670 N   0  0  0  0  0  0  0  0  0  0  0  0
  -24.8020  -59.3120   -1.4260 C   0  0  0  0  0  0  0  0  0  0  0  0
  -24.1120  -59.0940   -0.2410 C   0  0  0  0  0  0  0  0  0  0  0  0
  -23.6020  -57.8410    0.0490 C   0  0  0  0  0  0  0  0  0  0  0  0
  -24.9990  -58.2510   -2.3030 C   0  0  0  0  0  0  0  0  0  0  0  0
  -24.4890  -57.0010   -2.0130 C   0  0  0  0  0  0  0  0  0  0  0  0
  -23.7750  -56.8000   -0.8490 C   0  0  0  0  0  0  0  0  0  0  0  0
  -23.1450  -55.6120   -0.5890 O   0  0  0  0  0  0  0  0  0  0  0  0
  -23.6150  -54.4280   -1.2390 C   0  0  0  0  0  0  0  0  0  0  0  0
 13 12  1  0
 12 11  1  0
 11  8  2  0
  8  7  1  0
  7  6  2  0
  6  5  1  0
  5  2  1  0
  2  1  2  0
  3  2  1  0
  4  3  1  0
  9  6  1  0
 10  9  2  0
 11 10  1  0
M  END
>  <id>  (2) 
96

>  <inchikey>  (2) 
MAVJTZKUNOKGPF-UHFFFAOYSA-N

>  <alias>  (2) 
z0184a

>  <name>  (2) 
z0184a

>  <smiles>  (2) 
COc1ccc(NC(=O)CN)cc1

>  <path>  (2) 
/opt/xchem-fragalysis-2/maxwin/BulkDock/TARGETS/Flavi_NS5_RdRp/aligned_files/z0184a/z0184a.pdb

>  <distance_score>  (2) 
None

>  <energy_score>  (2) 
None

>  <compound>  (2) 
MAVJTZKUNOKGPF-UHFFFAOYSA-N

>  <compound_id>  (2) 
75

>  <target>  (2) 
Flavi_NS5_RdRp

$$$$
Zika_NS5A-x0186_A_1101_1_Zika_NS5A-x0136+A+1016+1
     RDKit          3D

 17 18  0  0  0  0  0  0  0  0999 V2000
  -23.7060  -58.4220   -0.1390 F   0  0  0  0  0  0  0  0  0  0  0  0
  -24.5980  -58.9110   -1.0270 C   0  0  0  0  0  0  0  0  0  0  0  0
  -24.8790  -60.2530   -0.9920 C   0  0  0  0  0  0  0  0  0  0  0  0
  -25.8130  -60.7590   -1.8740 C   0  0  0  0  0  0  0  0  0  0  0  0
  -26.4910  -59.9330   -2.7590 C   0  0  0  0  0  0  0  0  0  0  0  0
  -27.5380  -60.4930   -3.6930 C   0  0  0  0  0  0  0  0  0  0  0  0
  -26.1790  -58.5790   -2.7650 C   0  0  0  0  0  0  0  0  0  0  0  0
  -25.1990  -58.0440   -1.9230 C   0  0  0  0  0  0  0  0  0  0  0  0
  -24.6870  -56.6520   -2.1570 C   0  0  0  0  0  0  0  0  0  0  0  0
  -24.1070  -56.4070   -3.1970 O   0  0  0  0  0  0  0  0  0  0  0  0
  -24.8940  -55.7100   -1.2140 N   0  0  0  0  0  0  0  0  0  0  0  0
  -25.6980  -55.9160   -0.0080 C   0  0  0  0  0  0  0  0  0  0  0  0
  -24.2300  -54.3970   -1.2440 C   0  0  0  0  0  0  0  0  0  0  0  0
  -25.2060  -53.2640   -0.9850 C   0  0  0  0  0  0  0  0  0  0  0  0
  -26.0750  -53.4510    0.1830 N   0  0  0  0  0  0  0  0  0  0  0  0
  -26.7350  -54.7870    0.1760 C   0  0  2  0  0  0  0  0  0  0  0  0
  -27.4650  -55.0300    1.4890 C   0  0  0  0  0  0  0  0  0  0  0  0
 16 17  1  1
 16 12  1  0
 12 11  1  0
 13 11  1  0
 14 13  1  0
 15 14  1  0
 16 15  1  0
 11  9  1  0
 10  9  2  0
  9  8  1  0
  8  7  2  0
  7  5  1  0
  6  5  1  0
  5  4  2  0
  4  3  1  0
  3  2  2  0
  8  2  1  0
  2  1  1  0
M  END
>  <id>  (3) 
97

>  <inchikey>  (3) 
AVUAMDISNJCGIG-SNVBAGLBSA-N

>  <alias>  (3) 
z0186a

>  <name>  (3) 
z0186a

>  <smiles>  (3) 
Cc1ccc(F)c(C(=O)N2CCN[C@H](C)C2)c1

>  <path>  (3) 
/opt/xchem-fragalysis-2/maxwin/BulkDock/TARGETS/Flavi_NS5_RdRp/aligned_files/z0186a/z0186a.pdb

>  <distance_score>  (3) 
None

>  <energy_score>  (3) 
None

>  <compound>  (3) 
AVUAMDISNJCGIG-UHFFFAOYSA-N

>  <compound_id>  (3) 
76

>  <target>  (3) 
Flavi_NS5_RdRp

$$$$
Zika_NS5A-x0481_A_1301_1_Zika_NS5A-x0136+A+1016+1
     RDKit          3D

 14 15  0  0  0  0  0  0  0  0999 V2000
  -24.9810  -61.9780   -2.1510 F   0  0  0  0  0  0  0  0  0  0  0  0
  -25.7620  -60.9540   -2.5360 C   0  0  0  0  0  0  0  0  0  0  0  0
  -25.5350  -59.7070   -1.9660 C   0  0  0  0  0  0  0  0  0  0  0  0
  -26.2980  -58.6440   -2.4480 C   0  0  0  0  0  0  0  0  0  0  0  0
  -27.2540  -58.8550   -3.4310 C   0  0  0  0  0  0  0  0  0  0  0  0
  -27.4660  -60.1160   -3.9450 C   0  0  0  0  0  0  0  0  0  0  0  0
  -26.7110  -61.1830   -3.5020 C   0  0  0  0  0  0  0  0  0  0  0  0
  -24.6320  -59.4690   -0.9260 N   0  0  0  0  0  0  0  0  0  0  0  0
  -23.8910  -60.4750   -0.1850 C   0  0  0  0  0  0  0  0  0  0  0  0
  -24.7840  -61.2250    0.7510 C   0  0  0  0  0  0  0  0  0  0  0  0
  -24.4270  -62.4350    1.1880 N   0  0  0  0  0  0  0  0  0  0  0  0
  -25.4640  -62.8500    1.9570 N   0  0  0  0  0  0  0  0  0  0  0  0
  -26.4430  -61.9370    2.0200 C   0  0  0  0  0  0  0  0  0  0  0  0
  -26.0490  -60.8710    1.2590 C   0  0  0  0  0  0  0  0  0  0  0  0
  2  1  1  0
  2  7  2  0
  7  6  1  0
  6  5  2  0
  5  4  1  0
  4  3  2  0
  3  2  1  0
  8  3  1  0
  9  8  1  0
 10  9  1  0
 10 14  1  0
 14 13  2  0
 13 12  1  0
 12 11  1  0
 11 10  2  0
M  END
>  <id>  (4) 
130

>  <inchikey>  (4) 
IREDHAFKGFKXRR-UHFFFAOYSA-N

>  <alias>  (4) 
z0481b

>  <name>  (4) 
z0481b

>  <smiles>  (4) 
Fc1ccccc1NCc1cc[nH]n1

>  <path>  (4) 
/opt/xchem-fragalysis-2/maxwin/BulkDock/TARGETS/Flavi_NS5_RdRp/aligned_files/z0481b/z0481b.pdb

>  <distance_score>  (4) 
None

>  <energy_score>  (4) 
None

>  <compound>  (4) 
IREDHAFKGFKXRR-UHFFFAOYSA-N

>  <compound_id>  (4) 
101

>  <target>  (4) 
Flavi_NS5_RdRp

$$$$
None
     RDKit          3D

  9  9  0  0  0  0  0  0  0  0999 V2000
  -26.1530  -62.2180   -3.3860 Br  0  0  0  0  0  0  0  0  0  0  0  0
  -25.5440  -61.0300   -2.0830 C   0  0  0  0  0  0  0  0  0  0  0  0
  -25.4190  -59.6550   -2.1810 C   0  0  0  0  0  0  0  0  0  0  0  0
  -24.8590  -59.1600   -1.0920 N   0  0  0  0  0  0  0  0  0  0  0  0
  -24.6370  -60.2380   -0.3010 N   0  0  0  0  0  0  0  0  0  0  0  0
  -25.0590  -61.3710   -0.8640 C   0  0  0  0  0  0  0  0  0  0  0  0
  -23.9540  -60.1020    0.9830 C   0  0  0  0  0  0  0  0  0  0  0  0
  -22.7630  -59.1600    0.9410 C   0  0  0  0  0  0  0  0  0  0  0  0
  -21.6660  -59.7420    0.2370 O   0  0  0  0  0  0  0  0  0  0  0  0
  2  1  1  0
  2  6  2  0
  6  5  1  0
  7  5  1  0
  8  7  1  0
  9  8  1  0
  5  4  1  0
  4  3  2  0
  3  2  1  0
M  END
>  <id>  (5) 
163

>  <inchikey>  (5) 
REUWXYIZJBMWPB-UHFFFAOYSA-N

>  <alias>  (5) 
z0767a

>  <name>  (5) 
z0767a

>  <smiles>  (5) 
OCCn1cc(Br)cn1

>  <path>  (5) 
/opt/xchem-fragalysis-2/maxwin/BulkDock/TARGETS/Flavi_NS5_RdRp/aligned_files/z0767a/z0767a.pdb

>  <distance_score>  (5) 
None

>  <energy_score>  (5) 
None

>  <compound>  (5) 
REUWXYIZJBMWPB-UHFFFAOYSA-N

>  <compound_id>  (5) 
122

>  <target>  (5) 
Flavi_NS5_RdRp

$$$$
None
     RDKit          3D

 15 16  0  0  0  0  0  0  0  0999 V2000
  -23.4710  -56.0640   -1.6080 O   0  0  0  0  0  0  0  0  0  0  0  0
  -24.5710  -56.3970   -1.2020 C   0  0  0  0  0  0  0  0  0  0  0  0
  -24.9830  -57.8360   -1.3250 C   0  0  0  0  0  0  0  0  0  0  0  0
  -25.8850  -58.2250   -2.3170 C   0  0  0  0  0  0  0  0  0  0  0  0
  -26.1960  -59.5650   -2.5010 C   0  0  0  0  0  0  0  0  0  0  0  0
  -25.6300  -60.5290   -1.6940 C   0  0  0  0  0  0  0  0  0  0  0  0
  -24.7480  -60.1700   -0.6900 C   0  0  0  0  0  0  0  0  0  0  0  0
  -24.4460  -58.8370   -0.5270 C   0  0  0  0  0  0  0  0  0  0  0  0
  -23.5860  -58.4970    0.4550 F   0  0  0  0  0  0  0  0  0  0  0  0
  -25.4170  -55.5250   -0.5990 N   0  0  0  0  0  0  0  0  0  0  0  0
  -25.1230  -54.0940   -0.4460 C   0  0  0  0  0  0  0  0  0  0  0  0
  -25.0440  -53.7360    1.0230 C   0  0  0  0  0  0  0  0  0  0  0  0
  -26.2730  -54.1290    1.7280 N   0  0  0  0  0  0  0  0  0  0  0  0
  -26.5870  -55.5550    1.5240 C   0  0  0  0  0  0  0  0  0  0  0  0
  -26.6850  -55.8820    0.0500 C   0  0  0  0  0  0  0  0  0  0  0  0
  9  8  1  0
  8  7  1  0
  7  6  2  0
  6  5  1  0
  5  4  2  0
  4  3  1  0
  8  3  2  0
  3  2  1  0
  2  1  2  0
 10  2  1  0
 10 15  1  0
 15 14  1  0
 14 13  1  0
 13 12  1  0
 12 11  1  0
 11 10  1  0
M  END
>  <id>  (6) 
179

>  <inchikey>  (6) 
YUOYYPWFXYRVHK-UHFFFAOYSA-N

>  <alias>  (6) 
z0898a

>  <name>  (6) 
z0898a

>  <smiles>  (6) 
O=C(c1ccccc1F)N1CCNCC1

>  <path>  (6) 
/opt/xchem-fragalysis-2/maxwin/BulkDock/TARGETS/Flavi_NS5_RdRp/aligned_files/z0898a/z0898a.pdb

>  <distance_score>  (6) 
None

>  <energy_score>  (6) 
None

>  <compound>  (6) 
YUOYYPWFXYRVHK-UHFFFAOYSA-N

>  <compound_id>  (6) 
129

>  <target>  (6) 
Flavi_NS5_RdRp

$$$$
