5hmx_A_1003_1_5i3p+A+1003+1
     RDKit          3D

 19 20  0  0  0  0  0  0  0  0999 V2000
  -13.7220  -42.2280  -21.1420 C   0  0  0  0  0  0  0  0  0  0  0  0
  -14.6490  -43.1950  -20.4470 C   0  0  0  0  0  0  0  0  0  0  0  0
  -14.5900  -43.3600  -19.0690 C   0  0  0  0  0  0  0  0  0  0  0  0
  -12.9970  -40.1580  -20.3220 O   0  0  0  0  0  0  0  0  0  0  0  0
  -16.9040  -43.6820  -15.1320 O   0  0  0  0  0  0  0  0  0  0  0  0
  -16.9120  -42.3650  -16.9220 O   0  0  0  0  0  0  0  0  0  0  0  0
  -18.8710  -47.2120  -22.1000 C   0  0  0  0  0  0  0  0  0  0  0  0
  -19.0990  -46.2700  -23.0200 C   0  0  0  0  0  0  0  0  0  0  0  0
  -15.5800  -43.9300  -21.1770 C   0  0  0  0  0  0  0  0  0  0  0  0
  -14.0110  -40.7830  -20.8460 C   0  0  0  0  0  0  0  0  0  0  0  0
  -15.0750  -40.2540  -21.0900 O   0  0  0  0  0  0  0  0  0  0  0  0
  -16.4580  -44.8000  -20.5370 C   0  0  0  0  0  0  0  0  0  0  0  0
  -16.3910  -44.9430  -19.1510 C   0  0  0  0  0  0  0  0  0  0  0  0
  -15.4580  -44.2190  -18.4080 C   0  0  0  0  0  0  0  0  0  0  0  0
  -15.4650  -44.2820  -16.8980 C   0  0  0  0  0  0  0  0  0  0  0  0
  -16.4910  -43.3410  -16.3220 C   0  0  0  0  0  0  0  0  0  0  0  0
  -17.4660  -45.5450  -21.3140 C   0  0  0  0  0  0  0  0  0  0  0  0
  -17.9330  -46.8150  -21.1030 C   0  0  0  0  0  0  0  0  0  0  0  0
  -18.2010  -44.8710  -22.7170 S   0  0  0  0  0  0  0  0  0  0  0  0
  7  8  2  0
  7 18  1  0
  8 19  1  0
 18 17  2  0
 19 17  1  0
 17 12  1  0
 12 13  2  0
 12  9  1  0
 13 14  1  0
  9  2  2  0
 14 15  1  0
 14  3  2  0
  2  3  1  0
  2  1  1  0
 15 16  1  0
 16  5  2  0
 16  6  1  0
  1 10  1  0
 11 10  2  0
 10  4  1  0
M  END
$$$$

