DNV2_NS5A-x0160_A_1608_1_DNV2_NS5A-x0254+A+1701+1
     RDKit          3D

 12 13  0  0  0  0  0  0  0  0999 V2000
  -14.8680  -42.8470  -22.4170 C   0  0  0  0  0  0  0  0  0  0  0  0
  -14.3590  -41.4720  -22.7610 C   0  0  0  0  0  0  0  0  0  0  0  0
  -14.6310  -40.6870  -23.8930 C   0  0  0  0  0  0  0  0  0  0  0  0
  -13.9280  -39.5420  -23.7350 N   0  0  0  0  0  0  0  0  0  0  0  0
  -13.2130  -39.5230  -22.5740 N   0  0  0  0  0  0  0  0  0  0  0  0
  -13.4780  -40.6900  -21.9930 C   0  0  0  0  0  0  0  0  0  0  0  0
  -15.4880  -40.9120  -25.0760 C   0  0  0  0  0  0  0  0  0  0  0  0
  -16.4450  -41.9230  -25.0890 C   0  0  0  0  0  0  0  0  0  0  0  0
  -17.2400  -42.0720  -26.2090 C   0  0  0  0  0  0  0  0  0  0  0  0
  -17.1550  -41.2910  -27.2920 N   0  0  0  0  0  0  0  0  0  0  0  0
  -16.2280  -40.3270  -27.2660 C   0  0  0  0  0  0  0  0  0  0  0  0
  -15.3790  -40.1030  -26.1990 C   0  0  0  0  0  0  0  0  0  0  0  0
  2  1  1  0
  2  6  1  0
  6  5  2  0
  5  4  1  0
  4  3  1  0
  3  2  2  0
  7  3  1  0
  7 12  2  0
 12 11  1  0
 11 10  2  0
 10  9  1  0
  9  8  2  0
  8  7  1  0
M  END
>  <id>  (1) 
12

>  <inchikey>  (1) 
DIJNPLGAABOOQW-UHFFFAOYSA-N

>  <alias>  (1) 
d0160a

>  <name>  (1) 
d0160a

>  <smiles>  (1) 
Cc1cn[nH]c1-c1ccncc1

>  <path>  (1) 
/opt/xchem-fragalysis-2/maxwin/BulkDock/TARGETS/Flavi_NS5_RdRp/aligned_files/d0160a/d0160a.pdb

>  <distance_score>  (1) 
None

>  <energy_score>  (1) 
None

>  <compound>  (1) 
DIJNPLGAABOOQW-UHFFFAOYSA-N

>  <compound_id>  (1) 
10

>  <target>  (1) 
Flavi_NS5_RdRp

$$$$
DNV2_NS5A-x0191_A_1608_1_DNV2_NS5A-x0254+A+1701+1
     RDKit          3D

 12 13  0  0  0  0  0  0  0  0999 V2000
  -14.7240  -41.6290  -24.2740 C   0  0  0  0  0  0  0  0  0  0  0  0
  -15.1980  -42.8250  -23.8310 C   0  0  0  0  0  0  0  0  0  0  0  0
  -16.1900  -43.2470  -24.7330 C   0  0  0  0  0  0  0  0  0  0  0  0
  -16.2940  -42.2990  -25.7020 C   0  0  0  0  0  0  0  0  0  0  0  0
  -15.3980  -41.2940  -25.4230 N   0  0  0  0  0  0  0  0  0  0  0  0
  -15.2480  -40.0370  -26.1670 C   0  0  0  0  0  0  0  0  0  0  0  0
  -16.3550  -39.0540  -25.8750 C   0  0  0  0  0  0  0  0  0  0  0  0
  -17.4060  -38.8590  -26.7540 C   0  0  0  0  0  0  0  0  0  0  0  0
  -18.3830  -37.9610  -26.5720 N   0  0  0  0  0  0  0  0  0  0  0  0
  -18.3220  -37.2060  -25.4700 C   0  0  0  0  0  0  0  0  0  0  0  0
  -17.3280  -37.3290  -24.5260 C   0  0  0  0  0  0  0  0  0  0  0  0
  -16.3410  -38.2750  -24.7310 C   0  0  0  0  0  0  0  0  0  0  0  0
  7  6  1  0
  7 12  2  0
 12 11  1  0
 11 10  2  0
 10  9  1  0
  9  8  2  0
  8  7  1  0
  6  5  1  0
  5  4  1  0
  4  3  2  0
  3  2  1  0
  2  1  2  0
  5  1  1  0
M  END
>  <id>  (2) 
19

>  <inchikey>  (2) 
PJVWPGGKILHMKW-UHFFFAOYSA-N

>  <alias>  (2) 
d0191a

>  <name>  (2) 
d0191a

>  <smiles>  (2) 
c1cncc(Cn2cccc2)c1

>  <path>  (2) 
/opt/xchem-fragalysis-2/maxwin/BulkDock/TARGETS/Flavi_NS5_RdRp/aligned_files/d0191a/d0191a.pdb

>  <distance_score>  (2) 
None

>  <energy_score>  (2) 
None

>  <compound>  (2) 
PJVWPGGKILHMKW-UHFFFAOYSA-N

>  <compound_id>  (2) 
16

>  <target>  (2) 
Flavi_NS5_RdRp

$$$$
DNV2_NS5A-x0254_A_1701_1_DNV2_NS5A-x0254+A+1701+1
     RDKit          3D

 15 16  0  0  0  0  0  0  0  0999 V2000
  -18.5140  -44.9440  -23.0850 O   0  0  0  0  0  0  0  0  0  0  0  0
  -17.5800  -44.9250  -22.2900 C   0  0  0  0  0  0  0  0  0  0  0  0
  -17.6230  -45.8150  -21.0530 C   0  0  1  0  0  0  0  0  0  0  0  0
  -16.4130  -45.7010  -20.2780 O   0  0  0  0  0  0  0  0  0  0  0  0
  -16.7580  -45.4230  -18.9190 C   0  0  0  0  0  0  0  0  0  0  0  0
  -18.2140  -45.7750  -18.7620 C   0  0  0  0  0  0  0  0  0  0  0  0
  -18.7790  -45.4810  -20.1350 C   0  0  0  0  0  0  0  0  0  0  0  0
  -16.4730  -44.1500  -22.4210 N   0  0  0  0  0  0  0  0  0  0  0  0
  -16.1690  -43.2350  -23.4440 C   0  0  0  0  0  0  0  0  0  0  0  0
  -16.8900  -43.1390  -24.6480 C   0  0  0  0  0  0  0  0  0  0  0  0
  -16.5400  -42.1420  -25.5370 C   0  0  0  0  0  0  0  0  0  0  0  0
  -15.1490  -42.4110  -23.1580 N   0  0  0  0  0  0  0  0  0  0  0  0
  -14.8480  -41.4540  -24.0500 C   0  0  0  0  0  0  0  0  0  0  0  0
  -15.5130  -41.2620  -25.2530 C   0  0  0  0  0  0  0  0  0  0  0  0
  -15.1640  -40.1290  -26.1880 C   0  0  0  0  0  0  0  0  0  0  0  0
 15 14  1  0
 14 11  1  0
 11 10  2  0
 10  9  1  0
  9  8  1  0
  8  2  1  0
  2  1  2  0
  3  2  1  6
  3  7  1  0
  7  6  1  0
  6  5  1  0
  5  4  1  0
  4  3  1  0
 12  9  2  0
 13 12  1  0
 14 13  2  0
M  END
>  <id>  (3) 
26

>  <inchikey>  (3) 
BFRXGCPOQMOBHK-VIFPVBQESA-N

>  <alias>  (3) 
d0254a

>  <name>  (3) 
d0254a

>  <smiles>  (3) 
Cc1ccc(NC(=O)[C@@H]2CCCO2)nc1

>  <path>  (3) 
/opt/xchem-fragalysis-2/maxwin/BulkDock/TARGETS/Flavi_NS5_RdRp/aligned_files/d0254a/d0254a.pdb

>  <distance_score>  (3) 
None

>  <energy_score>  (3) 
None

>  <compound>  (3) 
BFRXGCPOQMOBHK-UHFFFAOYSA-N

>  <compound_id>  (3) 
22

>  <target>  (3) 
Flavi_NS5_RdRp

$$$$
DNV2_NS5A-x0264_A_1801_1_DNV2_NS5A-x0254+A+1701+1
     RDKit          3D

 15 15  0  0  0  0  0  0  0  0999 V2000
  -23.1640  -45.9380  -18.0490 O   0  0  0  0  0  0  0  0  0  0  0  0
  -22.2460  -46.0170  -17.2360 C   0  0  0  0  0  0  0  0  0  0  0  0
  -22.2040  -47.1360  -16.1890 C   0  0  0  0  0  0  0  0  0  0  0  0
  -23.2590  -46.8890  -15.1120 C   0  0  0  0  0  0  0  0  0  0  0  0
  -22.3910  -48.4810  -16.8760 C   0  0  0  0  0  0  0  0  0  0  0  0
  -21.2220  -45.1550  -17.2120 N   0  0  0  0  0  0  0  0  0  0  0  0
  -21.0190  -44.1810  -18.2700 C   0  0  1  0  0  0  0  0  0  0  0  0
  -20.4710  -42.8780  -17.6970 C   0  0  0  0  0  0  0  0  0  0  0  0
  -20.1240  -44.7580  -19.3280 C   0  0  0  0  0  0  0  0  0  0  0  0
  -19.8410  -44.3300  -20.5900 C   0  0  0  0  0  0  0  0  0  0  0  0
  -20.3800  -43.1060  -21.2510 C   0  0  0  0  0  0  0  0  0  0  0  0
  -18.9590  -45.1180  -21.2970 N   0  0  0  0  0  0  0  0  0  0  0  0
  -18.5660  -46.1410  -20.5930 C   0  0  0  0  0  0  0  0  0  0  0  0
  -19.2480  -46.2240  -19.0020 S   0  0  0  0  0  0  0  0  0  0  0  0
  -17.6070  -47.1680  -21.0840 C   0  0  0  0  0  0  0  0  0  0  0  0
  5  3  1  0
  4  3  1  0
  3  2  1  0
  2  1  2  0
  6  2  1  0
  7  6  1  0
  7  8  1  1
  9  7  1  0
  9 14  1  0
 14 13  1  0
 15 13  1  0
 13 12  2  0
 12 10  1  0
 10  9  2  0
 11 10  1  0
M  END
>  <id>  (4) 
28

>  <inchikey>  (4) 
ZECWVBZTKUPZEE-QMMMGPOBSA-N

>  <alias>  (4) 
d0264a

>  <name>  (4) 
d0264a

>  <smiles>  (4) 
Cc1nc(C)c([C@H](C)NC(=O)C(C)C)s1

>  <path>  (4) 
/opt/xchem-fragalysis-2/maxwin/BulkDock/TARGETS/Flavi_NS5_RdRp/aligned_files/d0264a/d0264a.pdb

>  <distance_score>  (4) 
None

>  <energy_score>  (4) 
None

>  <compound>  (4) 
ZECWVBZTKUPZEE-UHFFFAOYSA-N

>  <compound_id>  (4) 
24

>  <target>  (4) 
Flavi_NS5_RdRp

$$$$
DNV2_NS5A-x0472_A_2101_1_DNV2_NS5A-x0254+A+1701+1
     RDKit          3D

 12 13  0  0  0  0  0  0  0  0999 V2000
  -15.7750  -43.6370  -22.5880 N   0  0  0  0  0  0  0  0  0  0  0  0
  -15.1370  -44.0180  -21.4420 C   0  0  0  0  0  0  0  0  0  0  0  0
  -15.5660  -45.1350  -20.6910 C   0  0  0  0  0  0  0  0  0  0  0  0
  -15.0140  -45.4870  -19.5210 N   0  0  0  0  0  0  0  0  0  0  0  0
  -13.9920  -44.7430  -19.0650 C   0  0  0  0  0  0  0  0  0  0  0  0
  -13.4830  -43.6510  -19.7350 C   0  0  0  0  0  0  0  0  0  0  0  0
  -14.0650  -43.2880  -20.9320 C   0  0  0  0  0  0  0  0  0  0  0  0
  -16.5820  -46.0170  -21.1430 N   0  0  0  0  0  0  0  0  0  0  0  0
  -17.5610  -45.7280  -22.0730 C   0  0  0  0  0  0  0  0  0  0  0  0
  -18.3330  -46.8380  -22.2340 C   0  0  0  0  0  0  0  0  0  0  0  0
  -17.8230  -47.8430  -21.3830 C   0  0  0  0  0  0  0  0  0  0  0  0
  -16.7520  -47.3220  -20.7230 C   0  0  0  0  0  0  0  0  0  0  0  0
  2  1  1  0
  2  7  2  0
  7  6  1  0
  6  5  2  0
  5  4  1  0
  4  3  2  0
  3  2  1  0
  8  3  1  0
  8 12  1  0
 12 11  2  0
 11 10  1  0
 10  9  2  0
  9  8  1  0
M  END
>  <id>  (5) 
42

>  <inchikey>  (5) 
QCTDPVKLZRURRV-UHFFFAOYSA-N

>  <alias>  (5) 
d0472a

>  <name>  (5) 
d0472a

>  <smiles>  (5) 
Nc1cccnc1-n1cccc1

>  <path>  (5) 
/opt/xchem-fragalysis-2/maxwin/BulkDock/TARGETS/Flavi_NS5_RdRp/aligned_files/d0472a/d0472a.pdb

>  <distance_score>  (5) 
None

>  <energy_score>  (5) 
None

>  <compound>  (5) 
QCTDPVKLZRURRV-UHFFFAOYSA-N

>  <compound_id>  (5) 
35

>  <target>  (5) 
Flavi_NS5_RdRp

$$$$
DNV2_NS5A-x0615_A_1701_1_DNV2_NS5A-x0254+A+1701+1
     RDKit          3D

 15 16  0  0  0  0  0  0  0  0999 V2000
  -18.6710  -43.8090  -24.6670 F   0  0  0  0  0  0  0  0  0  0  0  0
  -17.5250  -43.3270  -24.1160 C   0  0  0  0  0  0  0  0  0  0  0  0
  -17.1250  -43.7850  -22.8860 C   0  0  0  0  0  0  0  0  0  0  0  0
  -16.0090  -43.3300  -22.3050 N   0  0  0  0  0  0  0  0  0  0  0  0
  -15.2990  -42.3990  -22.9570 C   0  0  0  0  0  0  0  0  0  0  0  0
  -16.8090  -42.3840  -24.8030 C   0  0  0  0  0  0  0  0  0  0  0  0
  -15.6590  -41.8830  -24.2030 C   0  0  0  0  0  0  0  0  0  0  0  0
  -14.9140  -40.8750  -24.7970 N   0  0  0  0  0  0  0  0  0  0  0  0
  -15.2780  -40.2110  -26.0360 C   0  0  0  0  0  0  0  0  0  0  0  0
  -16.3830  -39.2140  -25.8960 C   0  0  0  0  0  0  0  0  0  0  0  0
  -17.3690  -38.9300  -26.7710 C   0  0  0  0  0  0  0  0  0  0  0  0
  -18.2750  -37.9550  -26.4070 N   0  0  0  0  0  0  0  0  0  0  0  0
  -16.5660  -38.2060  -24.4990 S   0  0  0  0  0  0  0  0  0  0  0  0
  -17.9680  -37.4870  -25.2330 C   0  0  0  0  0  0  0  0  0  0  0  0
  -18.7400  -36.4070  -24.5480 C   0  0  0  0  0  0  0  0  0  0  0  0
 15 14  1  0
 14 12  2  0
 12 11  1  0
 11 10  2  0
 10  9  1  0
  9  8  1  0
  8  7  1  0
  7  5  1  0
  5  4  2  0
  4  3  1  0
  3  2  2  0
  2  1  1  0
  6  2  1  0
  7  6  2  0
 13 10  1  0
 14 13  1  0
M  END
>  <id>  (6) 
51

>  <inchikey>  (6) 
SSOIKBIBPGCZFT-UHFFFAOYSA-N

>  <alias>  (6) 
d0615b

>  <name>  (6) 
d0615b

>  <smiles>  (6) 
Cc1ncc(CNc2cncc(F)c2)s1

>  <path>  (6) 
/opt/xchem-fragalysis-2/maxwin/BulkDock/TARGETS/Flavi_NS5_RdRp/aligned_files/d0615b/d0615b.pdb

>  <distance_score>  (6) 
None

>  <energy_score>  (6) 
None

>  <compound>  (6) 
SSOIKBIBPGCZFT-UHFFFAOYSA-N

>  <compound_id>  (6) 
43

>  <target>  (6) 
Flavi_NS5_RdRp

$$$$
DNV2_NS5A-x0851_A_1608_1_DNV2_NS5A-x0254+A+1701+1
     RDKit          3D

 13 13  0  0  0  0  0  0  0  0999 V2000
  -19.4450  -40.1580  -24.5280 O   0  0  0  0  0  0  0  0  0  0  0  0
  -18.9330  -39.8460  -25.8250 S   0  0  0  0  0  0  0  0  0  0  0  0
  -18.8770  -38.4810  -26.2410 O   0  0  0  0  0  0  0  0  0  0  0  0
  -19.8270  -40.7660  -27.0180 C   0  0  0  0  0  0  0  0  0  0  0  0
  -17.3930  -40.3950  -25.8530 N   0  0  0  0  0  0  0  0  0  0  0  0
  -17.1990  -41.6840  -26.5730 C   0  0  1  0  0  0  0  0  0  0  0  0
  -16.5120  -41.5010  -27.9140 C   0  0  0  0  0  0  0  0  0  0  0  0
  -16.5660  -42.7800  -25.7140 C   0  0  0  0  0  0  0  0  0  0  0  0
  -15.9910  -42.2600  -24.4020 C   0  0  0  0  0  0  0  0  0  0  0  0
  -15.3660  -40.8820  -24.5510 C   0  0  0  0  0  0  0  0  0  0  0  0
  -16.4600  -39.8640  -24.8200 C   0  0  1  0  0  0  0  0  0  0  0  0
  -15.9060  -38.5170  -25.2440 C   0  0  0  0  0  0  0  0  0  0  0  0
  -16.2290  -38.2620  -26.5980 O   0  0  0  0  0  0  0  0  0  0  0  0
 13 12  1  0
 11 12  1  6
 11  5  1  0
  5  2  1  0
  4  2  1  0
  3  2  2  0
  2  1  2  0
  6  5  1  0
  6  7  1  6
  8  6  1  0
  9  8  1  0
 10  9  1  0
 11 10  1  0
M  END
>  <id>  (7) 
66

>  <inchikey>  (7) 
PVAZEUFSKWVBRB-YUMQZZPRSA-N

>  <alias>  (7) 
d0851a

>  <name>  (7) 
d0851a

>  <smiles>  (7) 
C[C@H]1CCC[C@@H](CO)N1S(C)(=O)=O

>  <path>  (7) 
/opt/xchem-fragalysis-2/maxwin/BulkDock/TARGETS/Flavi_NS5_RdRp/aligned_files/d0851a/d0851a_hippo.pdb

>  <distance_score>  (7) 
None

>  <energy_score>  (7) 
None

>  <compound>  (7) 
PVAZEUFSKWVBRB-UHFFFAOYSA-N

>  <compound_id>  (7) 
56

>  <target>  (7) 
Flavi_NS5_RdRp

$$$$
DNV2_NS5A-x0866_A_2101_1_DNV2_NS5A-x0254+A+1701+1
     RDKit          3D

 18 19  0  0  0  0  0  0  0  0999 V2000
  -19.2180  -37.4550  -26.5100 O   0  0  0  0  0  0  0  0  0  0  0  0
  -18.4400  -37.2730  -25.5890 C   0  0  0  0  0  0  0  0  0  0  0  0
  -18.6770  -36.3320  -24.6480 N   0  0  0  0  0  0  0  0  0  0  0  0
  -18.1290  -36.3040  -23.2850 C   0  0  0  0  0  0  0  0  0  0  0  0
  -19.0890  -35.3970  -22.5410 C   0  0  0  0  0  0  0  0  0  0  0  0
  -19.5290  -34.4120  -23.5740 C   0  0  0  0  0  0  0  0  0  0  0  0
  -19.5820  -35.1970  -24.8780 C   0  0  0  0  0  0  0  0  0  0  0  0
  -17.1840  -38.1190  -25.4620 C   0  0  1  0  0  0  0  0  0  0  0  0
  -17.4720  -39.4270  -24.6890 C   0  0  1  0  0  0  0  0  0  0  0  0
  -18.8010  -40.0660  -25.0770 C   0  0  0  0  0  0  0  0  0  0  0  0
  -16.6310  -38.4350  -26.8550 C   0  0  0  0  0  0  0  0  0  0  0  0
  -15.4020  -39.3250  -26.7650 C   0  0  0  0  0  0  0  0  0  0  0  0
  -15.7420  -40.6350  -26.0990 C   0  0  0  0  0  0  0  0  0  0  0  0
  -16.3500  -40.4180  -24.7640 N   0  0  0  0  0  0  0  0  0  0  0  0
  -16.2910  -41.6740  -23.7260 S   0  0  0  0  0  0  0  0  0  0  0  0
  -16.8320  -41.2150  -22.4870 O   0  0  0  0  0  0  0  0  0  0  0  0
  -16.9140  -42.7800  -24.3830 O   0  0  0  0  0  0  0  0  0  0  0  0
  -14.6010  -42.0660  -23.4770 C   0  0  0  0  0  0  0  0  0  0  0  0
  9 10  1  6
  9 14  1  0
 15 14  1  0
 16 15  2  0
 18 15  1  0
 17 15  2  0
 14 13  1  0
 13 12  1  0
 12 11  1  0
 11  8  1  0
  9  8  1  0
  8  2  1  6
  3  2  1  0
  3  7  1  0
  7  6  1  0
  6  5  1  0
  5  4  1  0
  4  3  1  0
  2  1  2  0
M  END
>  <id>  (8) 
68

>  <inchikey>  (8) 
YDPJOGQGKXEOGX-GHMZBOCLSA-N

>  <alias>  (8) 
d0866a

>  <name>  (8) 
d0866a

>  <smiles>  (8) 
C[C@@H]1[C@H](C(=O)N2CCCC2)CCCN1S(C)(=O)=O

>  <path>  (8) 
/opt/xchem-fragalysis-2/maxwin/BulkDock/TARGETS/Flavi_NS5_RdRp/aligned_files/d0866a/d0866a.pdb

>  <distance_score>  (8) 
None

>  <energy_score>  (8) 
None

>  <compound>  (8) 
YDPJOGQGKXEOGX-UHFFFAOYSA-N

>  <compound_id>  (8) 
57

>  <target>  (8) 
Flavi_NS5_RdRp

$$$$
Zika_NS5A-x0103_A_1112_1_Zika_NS5A-x0103+A+1112+1
     RDKit          3D

 10 10  0  0  0  0  0  0  0  0999 V2000
  -13.2660  -42.1970  -21.9740 O   0  0  0  0  0  0  0  0  0  0  0  0
  -12.9440  -41.0220  -21.8330 C   0  0  0  0  0  0  0  0  0  0  0  0
  -11.6290  -40.6240  -21.2250 C   0  0  0  0  0  0  0  0  0  0  0  0
  -13.7260  -40.0340  -22.2480 N   0  0  0  0  0  0  0  0  0  0  0  0
  -13.3480  -39.2220  -23.3820 C   0  0  0  0  0  0  0  0  0  0  0  0
  -12.9660  -37.9070  -22.9250 C   0  0  0  0  0  0  0  0  0  0  0  0
  -13.8180  -37.0350  -22.4210 N   0  0  0  0  0  0  0  0  0  0  0  0
  -13.1010  -35.9420  -22.0180 C   0  0  0  0  0  0  0  0  0  0  0  0
  -11.8370  -36.2110  -22.2990 C   0  0  0  0  0  0  0  0  0  0  0  0
  -11.7410  -37.4580  -22.8790 N   0  0  0  0  0  0  0  0  0  0  0  0
  3  2  1  0
  2  1  2  0
  4  2  1  0
  5  4  1  0
  6  5  1  0
  6 10  2  0
 10  9  1  0
  9  8  2  0
  8  7  1  0
  7  6  1  0
M  END
>  <id>  (9) 
84

>  <inchikey>  (9) 
SXKAQLCLHGQXHB-UHFFFAOYSA-N

>  <alias>  (9) 
z0103a

>  <name>  (9) 
z0103a

>  <smiles>  (9) 
CC(=O)NCc1ncc[nH]1

>  <path>  (9) 
/opt/xchem-fragalysis-2/maxwin/BulkDock/TARGETS/Flavi_NS5_RdRp/aligned_files/z0103a/z0103a.pdb

>  <distance_score>  (9) 
None

>  <energy_score>  (9) 
None

>  <compound>  (9) 
SXKAQLCLHGQXHB-UHFFFAOYSA-N

>  <compound_id>  (9) 
70

>  <target>  (9) 
Flavi_NS5_RdRp

$$$$
Zika_NS5A-x0193_A_1201_1_Zika_NS5A-x0193+A+1201+1
     RDKit          3D

 11 11  0  0  0  0  0  0  0  0999 V2000
  -22.9280  -45.0500  -16.8920 O   0  0  0  0  0  0  0  0  0  0  0  0
  -24.1310  -45.3890  -17.5880 S   0  0  0  0  0  0  0  0  0  0  0  0
  -24.4090  -46.7670  -17.8490 O   0  0  0  0  0  0  0  0  0  0  0  0
  -25.4970  -44.7130  -16.7180 C   0  0  0  0  0  0  0  0  0  0  0  0
  -24.0490  -44.6200  -19.0080 N   0  0  0  0  0  0  0  0  0  0  0  0
  -23.8280  -43.1660  -19.1340 C   0  0  0  0  0  0  0  0  0  0  0  0
  -24.5240  -42.6480  -20.3840 C   0  0  0  0  0  0  0  0  0  0  0  0
  -24.2040  -41.1840  -20.6150 C   0  0  0  0  0  0  0  0  0  0  0  0
  -22.7550  -40.9750  -20.7010 N   0  0  0  0  0  0  0  0  0  0  0  0
  -22.0970  -41.3750  -19.4580 C   0  0  0  0  0  0  0  0  0  0  0  0
  -22.3370  -42.8440  -19.1660 C   0  0  0  0  0  0  0  0  0  0  0  0
  4  2  1  0
  3  2  2  0
  2  1  2  0
  5  2  1  0
  6  5  1  0
  6 11  1  0
 11 10  1  0
 10  9  1  0
  9  8  1  0
  8  7  1  0
  7  6  1  0
M  END
>  <id>  (10) 
99

>  <inchikey>  (10) 
NAEICDPYHCEZMG-UHFFFAOYSA-N

>  <alias>  (10) 
z0193a

>  <name>  (10) 
z0193a

>  <smiles>  (10) 
CS(=O)(=O)NC1CCNCC1

>  <path>  (10) 
/opt/xchem-fragalysis-2/maxwin/BulkDock/TARGETS/Flavi_NS5_RdRp/aligned_files/z0193a/z0193a.pdb

>  <distance_score>  (10) 
None

>  <energy_score>  (10) 
None

>  <compound>  (10) 
NAEICDPYHCEZMG-UHFFFAOYSA-N

>  <compound_id>  (10) 
78

>  <target>  (10) 
Flavi_NS5_RdRp

$$$$
None
     RDKit          3D

  7  7  0  0  0  0  0  0  0  0999 V2000
  -13.2970  -44.4980  -20.8500 N   0  0  0  0  0  0  0  0  0  0  0  0
  -12.9480  -43.4330  -21.1000 C   0  0  0  0  0  0  0  0  0  0  0  0
  -12.5670  -42.0860  -21.4400 C   0  0  0  0  0  0  0  0  0  0  0  0
  -11.4280  -41.4770  -20.9270 N   0  0  0  0  0  0  0  0  0  0  0  0
  -11.4740  -40.2420  -21.4030 C   0  0  0  0  0  0  0  0  0  0  0  0
  -12.5480  -40.0400  -22.1920 N   0  0  0  0  0  0  0  0  0  0  0  0
  -13.2460  -41.2020  -22.2300 C   0  0  0  0  0  0  0  0  0  0  0  0
  2  1  3  0
  3  2  1  0
  3  7  2  0
  7  6  1  0
  6  5  1  0
  5  4  2  0
  4  3  1  0
M  END
>  <id>  (11) 
170

>  <inchikey>  (11) 
NWVGXXPWOYZODV-UHFFFAOYSA-N

>  <alias>  (11) 
z0875c

>  <name>  (11) 
z0875c

>  <smiles>  (11) 
N#Cc1c[nH]cn1

>  <path>  (11) 
/opt/xchem-fragalysis-2/maxwin/BulkDock/TARGETS/Flavi_NS5_RdRp/aligned_files/z0875c/z0875c.pdb

>  <distance_score>  (11) 
None

>  <energy_score>  (11) 
None

>  <compound>  (11) 
NWVGXXPWOYZODV-UHFFFAOYSA-N

>  <compound_id>  (11) 
126

>  <target>  (11) 
Flavi_NS5_RdRp

$$$$
