DNV2_NS5A-x0479_A_1707_1_DNV2_NS5A-x0479+A+1707+1
     RDKit          3D

 14 15  0  0  0  0  0  0  0  0999 V2000
  -23.0690  -26.8520   -4.0840 O   0  0  0  0  0  0  0  0  0  0  0  0
  -23.4050  -28.0740   -3.4040 S   0  0  0  0  0  0  0  0  0  0  0  0
  -24.4210  -28.9100   -3.9820 O   0  0  0  0  0  0  0  0  0  0  0  0
  -21.9370  -29.0230   -3.1750 C   0  0  0  0  0  0  0  0  0  0  0  0
  -20.9600  -28.2730   -2.2860 C   0  0  0  0  0  0  0  0  0  0  0  0
  -21.4560  -28.0140   -0.9290 N   0  0  0  0  0  0  0  0  0  0  0  0
  -22.6310  -27.1260   -0.9960 C   0  0  0  0  0  0  0  0  0  0  0  0
  -23.8330  -27.7030   -1.7340 C   0  0  0  0  0  0  0  0  0  0  0  0
  -20.4030  -27.4550   -0.0820 C   0  0  0  0  0  0  0  0  0  0  0  0
  -19.7120  -26.2610   -0.6360 C   0  0  0  0  0  0  0  0  0  0  0  0
  -20.4860  -25.1700   -0.8960 O   0  0  0  0  0  0  0  0  0  0  0  0
  -19.6410  -24.2070   -1.3570 C   0  0  0  0  0  0  0  0  0  0  0  0
  -18.3990  -24.6580   -1.3910 C   0  0  0  0  0  0  0  0  0  0  0  0
  -18.4370  -25.9880   -0.9270 C   0  0  0  0  0  0  0  0  0  0  0  0
  3  2  2  0
  2  1  2  0
  2  8  1  0
  8  7  1  0
  7  6  1  0
  9  6  1  0
 10  9  1  0
 10 14  2  0
 14 13  1  0
 13 12  2  0
 12 11  1  0
 11 10  1  0
  6  5  1  0
  5  4  1  0
  4  2  1  0
M  END
$$$$

