DNV2_NS5A-x1196_A_1701_1_DNV2_NS5A-x1196+A+1701+1
     RDKit          3D

 15 17  0  0  0  0  0  0  0  0999 V2000
  -11.3700  -32.4500  -20.9700 O   0  0  0  0  0  0  0  0  0  0  0  0
  -11.9500  -33.4650  -20.6010 C   0  0  0  0  0  0  0  0  0  0  0  0
  -13.2920  -33.4360  -19.9980 C   0  0  0  0  0  0  0  0  0  0  0  0
  -13.9940  -32.2410  -19.8710 C   0  0  0  0  0  0  0  0  0  0  0  0
  -15.2680  -32.2430  -19.3330 C   0  0  0  0  0  0  0  0  0  0  0  0
  -15.8530  -33.4240  -18.9210 C   0  0  0  0  0  0  0  0  0  0  0  0
  -15.1680  -34.6240  -19.0250 C   0  0  0  0  0  0  0  0  0  0  0  0
  -13.8770  -34.6410  -19.5530 C   0  0  0  0  0  0  0  0  0  0  0  0
  -13.1390  -35.8120  -19.6180 N   0  0  0  0  0  0  0  0  0  0  0  0
  -12.1100  -35.9520  -20.6450 C   0  0  0  0  0  0  0  0  0  0  0  0
  -11.3820  -34.6790  -20.7050 N   0  0  0  0  0  0  0  0  0  0  0  0
  -11.1900  -37.1380  -20.3170 C   0  0  0  0  0  0  0  0  0  0  0  0
  -11.1520  -37.9810  -21.5880 C   0  0  0  0  0  0  0  0  0  0  0  0
  -12.4510  -37.7540  -22.2330 C   0  0  0  0  0  0  0  0  0  0  0  0
  -12.7490  -36.2800  -22.0020 C   0  0  0  0  0  0  0  0  0  0  0  0
  2  1  2  0
  2 11  1  0
 11 10  1  0
 10 15  1  0
 15 14  1  0
 14 13  1  0
 13 12  1  0
 12 10  1  0
 10  9  1  0
  9  8  1  0
  8  7  2  0
  7  6  1  0
  6  5  2  0
  5  4  1  0
  4  3  2  0
  3  2  1  0
  8  3  1  0
M  END
$$$$

