DNV2_NS5A-x0749_A_1608_1_DNV2_NS5A-x0249+A+1707+1
     RDKit          3D

 14 14  0  0  0  0  0  0  0  0999 V2000
   -3.3010  -70.0860  -21.1850 O   0  0  0  0  0  0  0  0  0  0  0  0
   -3.7440  -71.3010  -20.5840 S   0  0  0  0  0  0  0  0  0  0  0  0
   -3.9220  -72.4730  -21.3750 O   0  0  0  0  0  0  0  0  0  0  0  0
   -2.6160  -71.6240  -19.4830 N   0  0  0  0  0  0  0  0  0  0  0  0
   -5.1340  -71.0270  -19.7250 N   0  0  0  0  0  0  0  0  0  0  0  0
   -5.0820  -69.9860  -18.6940 C   0  0  0  0  0  0  0  0  0  0  0  0
   -6.1910  -72.1140  -19.6610 C   0  0  0  0  0  0  0  0  0  0  0  0
   -7.6160  -71.6160  -19.5570 C   0  0  0  0  0  0  0  0  0  0  0  0
   -8.2190  -70.9580  -20.6250 C   0  0  0  0  0  0  0  0  0  0  0  0
   -9.5100  -70.5100  -20.4880 C   0  0  0  0  0  0  0  0  0  0  0  0
  -10.0780  -69.8630  -21.5370 F   0  0  0  0  0  0  0  0  0  0  0  0
  -10.2510  -70.6820  -19.3500 C   0  0  0  0  0  0  0  0  0  0  0  0
   -9.6590  -71.3520  -18.2920 C   0  0  0  0  0  0  0  0  0  0  0  0
   -8.3520  -71.8150  -18.3950 C   0  0  0  0  0  0  0  0  0  0  0  0
  6  5  1  0
  7  5  1  0
  8  7  1  0
  8 14  2  0
 14 13  1  0
 13 12  2  0
 12 10  1  0
 11 10  1  0
 10  9  2  0
  9  8  1  0
  5  2  1  0
  3  2  2  0
  2  1  2  0
  4  2  1  0
M  END
$$$$

