DNV2_NS5A-x0825_A_1701_1_DNV2_NS5A-x0825+A+1701+1
     RDKit          3D

 13 14  0  0  0  0  0  0  0  0999 V2000
  -34.2390  -20.1530  -24.0200 O   0  0  0  0  0  0  0  0  0  0  0  0
  -35.6480  -20.0790  -24.2400 S   0  0  0  0  0  0  0  0  0  0  0  0
  -36.4270  -21.2690  -24.3720 O   0  0  0  0  0  0  0  0  0  0  0  0
  -36.2760  -19.1900  -23.0920 N   0  0  0  0  0  0  0  0  0  0  0  0
  -35.8320  -19.1710  -25.6410 C   0  0  0  0  0  0  0  0  0  0  0  0
  -35.4690  -19.4980  -26.9170 N   0  0  0  0  0  0  0  0  0  0  0  0
  -35.6920  -18.3960  -27.7290 C   0  0  0  0  0  0  0  0  0  0  0  0
  -36.2100  -17.3800  -27.0400 N   0  0  0  0  0  0  0  0  0  0  0  0
  -36.3100  -17.8390  -25.7480 C   0  0  0  0  0  0  0  0  0  0  0  0
  -34.9650  -20.7130  -27.3080 N   0  0  0  0  0  0  0  0  0  0  0  0
  -34.6540  -20.7620  -28.6410 C   0  0  0  0  0  0  0  0  0  0  0  0
  -34.8250  -19.6970  -29.5490 C   0  0  0  0  0  0  0  0  0  0  0  0
  -35.3470  -18.5200  -29.0940 C   0  0  0  0  0  0  0  0  0  0  0  0
  4  2  1  0
  3  2  2  0
  2  1  2  0
  5  2  1  0
  5  9  2  0
  9  8  1  0
  8  7  2  0
  7 13  1  0
 13 12  2  0
 12 11  1  0
 11 10  2  0
 10  6  1  0
  6  5  1  0
  7  6  1  0
M  END
$$$$

