Zika_NS5A-x0437_A_1201_1_Zika_NS5A-x0437+A+1201+1
     RDKit          3D

 15 16  0  0  0  0  0  0  0  0999 V2000
   14.2230  -27.1710  -33.7750 F   0  0  0  0  0  0  0  0  0  0  0  0
   13.0960  -27.8000  -34.1740 C   0  0  0  0  0  0  0  0  0  0  0  0
   12.1030  -28.0090  -33.2360 C   0  0  0  0  0  0  0  0  0  0  0  0
   10.9400  -28.6360  -33.6860 C   0  0  0  0  0  0  0  0  0  0  0  0
   10.8120  -29.0420  -35.0100 C   0  0  0  0  0  0  0  0  0  0  0  0
   11.8300  -28.8210  -35.9030 C   0  0  0  0  0  0  0  0  0  0  0  0
   12.9940  -28.1910  -35.4900 C   0  0  0  0  0  0  0  0  0  0  0  0
   12.2840  -27.5950  -31.7910 C   0  0  0  0  0  0  0  0  0  0  0  0
   12.9030  -28.6050  -30.9150 N   0  0  0  0  0  0  0  0  0  0  0  0
   14.3800  -28.7040  -30.9620 C   0  0  0  0  0  0  0  0  0  0  0  0
   14.7760  -29.7910  -29.9670 C   0  0  0  0  0  0  0  0  0  0  0  0
   16.2770  -29.9280  -29.8590 C   0  0  0  0  0  0  0  0  0  0  0  0
   16.8960  -28.6760  -29.5350 O   0  0  0  0  0  0  0  0  0  0  0  0
   16.6450  -27.7210  -30.5620 C   0  0  0  0  0  0  0  0  0  0  0  0
   15.1690  -27.4290  -30.6950 C   0  0  0  0  0  0  0  0  0  0  0  0
  2  1  1  0
  2  7  2  0
  7  6  1  0
  6  5  2  0
  5  4  1  0
  4  3  2  0
  3  2  1  0
  8  3  1  0
  9  8  1  0
 10  9  1  0
 10 15  1  0
 15 14  1  0
 14 13  1  0
 13 12  1  0
 12 11  1  0
 11 10  1  0
M  END
$$$$

