Zika_NS5A-x0892_A_1303_1_Zika_NS5A-x0892+A+1303+1
     RDKit          3D

 15 16  0  0  0  0  0  0  0  0999 V2000
  -19.6250   -5.8770  -24.5050 C   0  0  0  0  0  0  0  0  0  0  0  0
  -18.5240   -5.8640  -23.4680 C   0  0  0  0  0  0  0  0  0  0  0  0
  -17.6610   -7.0950  -23.6030 C   0  0  0  0  0  0  0  0  0  0  0  0
  -17.2110   -7.8230  -22.5090 C   0  0  0  0  0  0  0  0  0  0  0  0
  -16.4330   -8.9560  -22.6780 C   0  0  0  0  0  0  0  0  0  0  0  0
  -16.0980   -9.3900  -23.9550 C   0  0  0  0  0  0  0  0  0  0  0  0
  -16.5580   -8.6680  -25.0490 C   0  0  0  0  0  0  0  0  0  0  0  0
  -17.3120   -7.5280  -24.8670 C   0  0  0  0  0  0  0  0  0  0  0  0
  -15.2090  -10.4690  -24.2160 N   0  0  0  0  0  0  0  0  0  0  0  0
  -14.8370  -10.9770  -25.4290 C   0  0  0  0  0  0  0  0  0  0  0  0
  -13.6640  -12.2780  -25.3700 S   0  0  0  0  0  0  0  0  0  0  0  0
  -13.4710  -12.5930  -27.1330 C   0  0  0  0  0  0  0  0  0  0  0  0
  -14.7040  -12.3140  -27.9760 C   0  0  0  0  0  0  0  0  0  0  0  0
  -15.1620  -10.8960  -27.8320 C   0  0  0  0  0  0  0  0  0  0  0  0
  -15.4220  -10.4810  -26.4460 N   0  0  0  0  0  0  0  0  0  0  0  0
  2  1  1  0
  3  2  1  0
  3  8  2  0
  8  7  1  0
  7  6  2  0
  9  6  1  0
 10  9  1  0
 10 15  2  0
 15 14  1  0
 14 13  1  0
 13 12  1  0
 12 11  1  0
 11 10  1  0
  6  5  1  0
  5  4  2  0
  4  3  1  0
M  END
$$$$

