Zika_NS5A-x0211_A_1113_1_Zika_NS5A-x0351+A+1112+1
     RDKit          3D

 14 14  0  0  0  0  0  0  0  0999 V2000
  -26.1990  -31.1140  -22.7050 O   0  0  0  0  0  0  0  0  0  0  0  0
  -25.4400  -31.2080  -21.7450 C   0  0  0  0  0  0  0  0  0  0  0  0
  -24.1640  -31.6450  -21.8600 N   0  0  0  0  0  0  0  0  0  0  0  0
  -23.5970  -32.0810  -23.1290 C   0  0  0  0  0  0  0  0  0  0  0  0
  -22.0380  -31.9840  -23.0990 C   0  0  1  0  0  0  0  0  0  0  0  0
  -21.5440  -31.8850  -21.7560 O   0  0  0  0  0  0  0  0  0  0  0  0
  -21.3930  -33.1630  -23.7940 C   0  0  0  0  0  0  0  0  0  0  0  0
  -25.7870  -30.8530  -20.4680 N   0  0  0  0  0  0  0  0  0  0  0  0
  -27.0380  -30.3840  -20.0010 C   0  0  0  0  0  0  0  0  0  0  0  0
  -27.1570  -30.1750  -18.6330 C   0  0  0  0  0  0  0  0  0  0  0  0
  -28.3980  -29.9090  -18.0800 C   0  0  0  0  0  0  0  0  0  0  0  0
  -29.5160  -29.8390  -18.8790 C   0  0  0  0  0  0  0  0  0  0  0  0
  -29.3970  -30.0030  -20.2420 C   0  0  0  0  0  0  0  0  0  0  0  0
  -28.1630  -30.2660  -20.8110 C   0  0  0  0  0  0  0  0  0  0  0  0
  5  7  1  1
  6  5  1  0
  5  4  1  0
  4  3  1  0
  3  2  1  0
  2  1  2  0
  8  2  1  0
  9  8  1  0
  9 14  2  0
 14 13  1  0
 13 12  2  0
 12 11  1  0
 11 10  2  0
 10  9  1  0
M  END
$$$$

