ver_1.2
     RDKit          3D

 15 16  0  0  0  0  0  0  0  0999 V2000
   -4.0540    1.7616   -0.0890 C   0  0  0  0  0  0  0  0  0  0  0  0
   -3.9281    0.3833    0.5798 C   0  0  0  0  0  0  0  0  0  0  0  0
   -4.9817   -0.4710   -0.0936 C   0  0  0  0  0  0  0  0  0  0  0  0
   -2.5783   -0.0864    0.2964 N   0  0  0  0  0  0  0  0  0  0  0  0
   -1.6333    0.4909   -0.5129 C   0  0  0  0  0  0  0  0  0  0  0  0
   -0.5018   -0.2974   -0.4781 C   0  0  0  0  0  0  0  0  0  0  0  0
    0.6085    0.1668   -1.2768 N   0  0  0  0  0  0  0  0  0  0  0  0
    1.8582    0.2686   -0.6255 C   0  0  0  0  0  0  0  0  0  0  0  0
    2.2317   -0.8178   -0.0019 N   0  0  0  0  0  0  0  0  0  0  0  0
    3.4924   -0.8714    0.7098 C   0  0  0  0  0  0  0  0  0  0  0  0
    4.5732   -0.5410   -0.2912 C   0  0  0  0  0  0  0  0  0  0  0  0
    4.6824    0.9274   -0.5106 C   0  0  0  0  0  0  0  0  0  0  0  0
    3.0123    1.6298   -0.5118 S   0  0  0  0  0  0  0  0  0  0  0  0
   -0.7601   -1.3473    0.3489 C   0  0  0  0  0  0  0  0  0  0  0  0
   -2.0214   -1.1961    0.8026 N   0  0  0  0  0  0  0  0  0  0  0  0
  1  2  1  0
  2  3  1  0
  2  4  1  0
  4  5  1  0
  5  6  2  0
  6  7  1  0
  7  8  1  0
  8  9  2  0
  9 10  1  0
 10 11  1  0
 11 12  1  0
 12 13  1  0
  6 14  1  0
 14 15  2  0
 15  4  1  0
 13  8  1  0
M  END
>  <ref_url>  (1) 
https://github.com/mwinokan/RdRp_FFF

>  <submitter_name>  (1) 
Max Winokan

>  <submitter_email>  (1) 
max.winokan@diamond.ac.uk

>  <submitter_institution>  (1) 
DLS

>  <generation_date>  (1) 
2024-12-10

>  <method>  (1) 
Retro_OK_batch1

>  <scratch_subdir>  (1) 
scratch_subdir

>  <fragmenstein_runtime>  (1) 
fragmenstein_runtime

>  <fragmenstein_outcome>  (1) 
fragmenstein_outcome

>  <fragmenstein_mode>  (1) 
fragmenstein_mode

>  <fragmenstein_error>  (1) 
fragmenstein_error

>  <exports>  (1) 
exports

>  <merge_set>  (1) 
merge_set

>  <Multi-SuCOS>  (1) 
Multi-SuCOS

>  <HIPPO Pose ID>  (1) 
HIPPO Pose ID

>  <HIPPO Compound ID>  (1) 
HIPPO Compound ID

>  <smiles>  (1) 
smiles

>  <ref_pdb>  (1) 
protein reference

>  <ref_mols>  (1) 
fragment inspirations

>  <original ID>  (1) 
original ID

>  <compound inchikey>  (1) 
compound inchikey

$$$$
QOAMYTSWHMHASV-UHFFFAOYSA-N
     RDKit          3D

 15 16  0  0  0  0  0  0  0  0999 V2000
  -26.1623  -61.4232   -3.3084 C   0  0  0  0  0  0  0  0  0  0  0  0
  -26.0009  -60.7536   -1.9364 C   0  0  0  0  0  0  0  0  0  0  0  0
  -24.8817  -61.4650   -1.1829 C   0  0  0  0  0  0  0  0  0  0  0  0
  -25.7948  -59.3124   -1.9992 N   0  0  0  0  0  0  0  0  0  0  0  0
  -25.0066  -58.5456   -1.1816 C   0  0  0  0  0  0  0  0  0  0  0  0
  -25.0934  -57.2617   -1.6524 C   0  0  0  0  0  0  0  0  0  0  0  0
  -24.3443  -56.2428   -1.1971 N   0  0  0  0  0  0  0  0  0  0  0  0
  -24.7059  -54.9360   -1.0070 C   0  0  0  0  0  0  0  0  0  0  0  0
  -23.7545  -54.1549   -0.6409 N   0  0  0  0  0  0  0  0  0  0  0  0
  -23.8780  -52.7325   -0.3944 C   0  0  0  0  0  0  0  0  0  0  0  0
  -25.0093  -52.0928   -1.1607 C   0  0  0  0  0  0  0  0  0  0  0  0
  -26.3158  -52.7140   -0.7350 C   0  0  0  0  0  0  0  0  0  0  0  0
  -26.3724  -54.4530   -1.1867 S   0  0  0  0  0  0  0  0  0  0  0  0
  -26.0008  -57.3404   -2.7221 C   0  0  0  0  0  0  0  0  0  0  0  0
  -26.4288  -58.5859   -2.9386 N   0  0  0  0  0  0  0  0  0  0  0  0
  1  2  1  0
  2  3  1  0
  2  4  1  0
  4  5  1  0
  5  6  2  0
  6  7  1  0
  7  8  1  0
  8  9  2  0
  9 10  1  0
 10 11  1  0
 11 12  1  0
 12 13  1  0
  6 14  1  0
 14 15  2  0
 15  4  1  0
 13  8  1  0
M  END
>  <fragmenstein_runtime>  (1) 
2.773524

>  <original ID>  (1) 
QOAMYTSWHMHASV-UHFFFAOYSA-N

>  <fragmenstein_error>  (1) 
None

>  <ref_pdb>  (1) 
z0892b

>  <Multi-SuCOS>  (1) 
0.64195

>  <SLURM_JOB_NAME>  (1) 
nan

>  <HIPPO Compound ID>  (1) 
734

>  <original SMILES>  (1) 
CC(C)n1cc(NC2=NCCCS2)cn1

>  <name>  (1) 
QOAMYTSWHMHASV-UHFFFAOYSA-N

>  <HIPPO Pose ID>  (1) 
18567

>  <ref_mols>  (1) 
z0767a,z0892b

>  <exports>  (1) 
['/opt/xchem-fragalysis-2/maxwin/BulkDock/OUTPUTS/RdRp_knitwork_cavity_b_pure_split2000_batch000_204022.sdf', '/opt/xchem-fragalysis-2/maxwin/BulkDock/OUTPUTS/RdRp_knitwork_cavity_b_pure_split2000_batch000_204022_fragalysis.sdf', '/opt/xchem-fragalysis-2/maxwin/RdRp_FFF/syndirella/Retro_OK_batch1.sdf']

>  <alias>  (1) 
None

>  <inchikey>  (1) 
QOAMYTSWHMHASV-UHFFFAOYSA-N

>  <energy_score>  (1) 
-35.222787

>  <distance_score>  (1) 
0.95083

>  <fragmenstein_outcome>  (1) 
acceptable

>  <merge_set>  (1) 
RdRp_knitwork_cavity_b_pure

>  <scratch_subdir>  (1) 
/opt/xchem-fragalysis-2/maxwin/BulkDock/SCRATCH/204022/C734-P174

>  <SLURM_JOB_ID>  (1) 
nan

>  <tags>  (1) 
['RdRp_knitwork_cavity_b_pure Pose OK', 'Fragmenstein']

>  <fragmenstein_mode>  (1) 
expansion

>  <csv_name>  (1) 
nan

$$$$
QOAMYTSWHMHASV-UHFFFAOYSA-N
     RDKit          3D

 15 16  0  0  0  0  0  0  0  0999 V2000
  -26.1623  -61.4232   -3.3084 C   0  0  0  0  0  0  0  0  0  0  0  0
  -26.0009  -60.7536   -1.9364 C   0  0  0  0  0  0  0  0  0  0  0  0
  -24.8817  -61.4650   -1.1829 C   0  0  0  0  0  0  0  0  0  0  0  0
  -25.7948  -59.3124   -1.9992 N   0  0  0  0  0  0  0  0  0  0  0  0
  -25.0066  -58.5456   -1.1816 C   0  0  0  0  0  0  0  0  0  0  0  0
  -25.0934  -57.2617   -1.6524 C   0  0  0  0  0  0  0  0  0  0  0  0
  -24.3443  -56.2428   -1.1971 N   0  0  0  0  0  0  0  0  0  0  0  0
  -24.7059  -54.9360   -1.0070 C   0  0  0  0  0  0  0  0  0  0  0  0
  -23.7545  -54.1549   -0.6409 N   0  0  0  0  0  0  0  0  0  0  0  0
  -23.8780  -52.7325   -0.3944 C   0  0  0  0  0  0  0  0  0  0  0  0
  -25.0093  -52.0928   -1.1607 C   0  0  0  0  0  0  0  0  0  0  0  0
  -26.3158  -52.7140   -0.7350 C   0  0  0  0  0  0  0  0  0  0  0  0
  -26.3724  -54.4530   -1.1867 S   0  0  0  0  0  0  0  0  0  0  0  0
  -26.0008  -57.3404   -2.7221 C   0  0  0  0  0  0  0  0  0  0  0  0
  -26.4288  -58.5859   -2.9386 N   0  0  0  0  0  0  0  0  0  0  0  0
  1  2  1  0
  2  3  1  0
  2  4  1  0
  4  5  1  0
  5  6  2  0
  6  7  1  0
  7  8  1  0
  8  9  2  0
  9 10  1  0
 10 11  1  0
 11 12  1  0
 12 13  1  0
  6 14  1  0
 14 15  2  0
 15  4  1  0
 13  8  1  0
M  END
>  <fragmenstein_runtime>  (2) 
[2.4448459148406982]

>  <original ID>  (2) 
QOAMYTSWHMHASV-UHFFFAOYSA-N

>  <fragmenstein_error>  (2) 
['']

>  <ref_pdb>  (2) 
z0892b

>  <Multi-SuCOS>  (2) 
0.64195

>  <SLURM_JOB_NAME>  (2) 
BulkDock.place:Flavi_NS5_RdRp:RdRp_knitwork_cavity_b_pure_split4000_batch000

>  <HIPPO Compound ID>  (2) 
734

>  <original SMILES>  (2) 
CC(C)n1cc(NC2=NCCCS2)cn1

>  <name>  (2) 
QOAMYTSWHMHASV-UHFFFAOYSA-N

>  <HIPPO Pose ID>  (2) 
34825

>  <ref_mols>  (2) 
z0767a,z0892b

>  <exports>  (2) 
['/opt/xchem-fragalysis-2/maxwin/BulkDock/OUTPUTS/RdRp_knitwork_cavity_b_pure_split4000_batch000_211006.sdf', '/opt/xchem-fragalysis-2/maxwin/BulkDock/OUTPUTS/RdRp_knitwork_cavity_b_pure_split4000_batch000_211006_fragalysis.sdf', '/opt/xchem-fragalysis-2/maxwin/RdRp_FFF/syndirella/Retro_OK_batch1.sdf']

>  <alias>  (2) 
None

>  <inchikey>  (2) 
QOAMYTSWHMHASV-UHFFFAOYSA-N

>  <energy_score>  (2) 
-35.222787

>  <distance_score>  (2) 
0.95083

>  <fragmenstein_outcome>  (2) 
['acceptable']

>  <merge_set>  (2) 
RdRp_knitwork_cavity_b_pure

>  <scratch_subdir>  (2) 
['/opt/xchem-fragalysis-2/maxwin/BulkDock/SCRATCH/211006/C734-P174']

>  <SLURM_JOB_ID>  (2) 
211006

>  <tags>  (2) 
['Fragmenstein placed', 'RdRp_knitwork_cavity_b_pure Pose OK']

>  <fragmenstein_mode>  (2) 
['expansion']

>  <csv_name>  (2) 
RdRp_knitwork_cavity_b_pure_split4000_batch000.csv

$$$$
DOGOWZSMZXLRRH-VIFPVBQESA-N
     RDKit          3D

 15 16  0  0  0  0  0  0  0  0999 V2000
  -25.3498  -57.6223   -0.0049 C   0  0  0  0  0  0  0  0  0  0  0  0
  -24.8173  -57.4063   -1.4135 C   0  0  1  0  0  0  0  0  0  0  0  0
  -25.7966  -57.7830   -2.5443 C   0  0  0  0  0  0  0  0  0  0  0  0
  -26.0516  -59.2085   -2.7073 N   0  0  0  0  0  0  0  0  0  0  0  0
  -26.9243  -59.7716   -3.5960 C   0  0  0  0  0  0  0  0  0  0  0  0
  -26.7980  -61.1325   -3.4512 C   0  0  0  0  0  0  0  0  0  0  0  0
  -25.7974  -61.2996   -2.4860 C   0  0  0  0  0  0  0  0  0  0  0  0
  -25.3495  -60.1324   -2.0193 N   0  0  0  0  0  0  0  0  0  0  0  0
  -24.2370  -56.0733   -1.6142 N   0  0  0  0  0  0  0  0  0  0  0  0
  -24.7323  -54.8576   -1.2316 C   0  0  0  0  0  0  0  0  0  0  0  0
  -23.8679  -53.9673   -0.9225 N   0  0  0  0  0  0  0  0  0  0  0  0
  -24.1420  -52.6031   -0.5064 C   0  0  0  0  0  0  0  0  0  0  0  0
  -25.5348  -52.1060   -0.8268 C   0  0  0  0  0  0  0  0  0  0  0  0
  -26.5678  -53.0811   -0.3179 C   0  0  0  0  0  0  0  0  0  0  0  0
  -26.4471  -54.6157   -1.2422 S   0  0  0  0  0  0  0  0  0  0  0  0
  2  1  1  1
  2  3  1  0
  3  4  1  0
  4  5  1  0
  5  6  2  0
  6  7  1  0
  7  8  2  0
  2  9  1  0
  9 10  1  0
 10 11  2  0
 11 12  1  0
 12 13  1  0
 13 14  1  0
 14 15  1  0
  8  4  1  0
 15 10  1  0
M  END
>  <fragmenstein_runtime>  (3) 
[2.6352226734161377]

>  <original ID>  (3) 
DOGOWZSMZXLRRH-VIFPVBQESA-N

>  <fragmenstein_error>  (3) 
['']

>  <ref_pdb>  (3) 
z0892b

>  <Multi-SuCOS>  (3) 
0.605657

>  <SLURM_JOB_NAME>  (3) 
BulkDock.place:Flavi_NS5_RdRp:RdRp_knitwork_cavity_b_pure_split4000_batch000

>  <HIPPO Compound ID>  (3) 
743

>  <original SMILES>  (3) 
C[C@@H](Cn1cccn1)NC1=NCCCS1

>  <name>  (3) 
DOGOWZSMZXLRRH-VIFPVBQESA-N

>  <HIPPO Pose ID>  (3) 
34829

>  <ref_mols>  (3) 
z0767a,z0892b

>  <exports>  (3) 
['/opt/xchem-fragalysis-2/maxwin/BulkDock/OUTPUTS/RdRp_knitwork_cavity_b_pure_split4000_batch000_211006.sdf', '/opt/xchem-fragalysis-2/maxwin/BulkDock/OUTPUTS/RdRp_knitwork_cavity_b_pure_split4000_batch000_211006_fragalysis.sdf', '/opt/xchem-fragalysis-2/maxwin/RdRp_FFF/syndirella/Retro_OK_batch1.sdf']

>  <alias>  (3) 
None

>  <inchikey>  (3) 
DOGOWZSMZXLRRH-VIFPVBQESA-N

>  <energy_score>  (3) 
-28.112574

>  <distance_score>  (3) 
0.865995

>  <fragmenstein_outcome>  (3) 
['acceptable']

>  <merge_set>  (3) 
RdRp_knitwork_cavity_b_pure

>  <scratch_subdir>  (3) 
['/opt/xchem-fragalysis-2/maxwin/BulkDock/SCRATCH/211006/C743-P174']

>  <SLURM_JOB_ID>  (3) 
211006

>  <tags>  (3) 
['Fragmenstein placed', 'RdRp_knitwork_cavity_b_pure Pose OK']

>  <fragmenstein_mode>  (3) 
['expansion']

>  <csv_name>  (3) 
RdRp_knitwork_cavity_b_pure_split4000_batch000.csv

$$$$
IOQRFKORLYPZRB-UHFFFAOYSA-N
     RDKit          3D

 22 24  0  0  0  0  0  0  0  0999 V2000
   -2.2644  -74.9138  -19.3903 C   0  0  0  0  0  0  0  0  0  0  0  0
   -2.9916  -73.7280  -18.8831 N   0  0  0  0  0  0  0  0  0  0  0  0
   -3.0663  -72.5497  -19.7232 C   0  0  0  0  0  0  0  0  0  0  0  0
   -3.3487  -71.2850  -19.2118 C   0  0  0  0  0  0  0  0  0  0  0  0
   -3.4888  -70.1894  -20.0642 C   0  0  0  0  0  0  0  0  0  0  0  0
   -3.2434  -70.3629  -21.4084 C   0  0  0  0  0  0  0  0  0  0  0  0
   -2.9207  -71.5515  -21.9462 N   0  0  0  0  0  0  0  0  0  0  0  0
   -2.8501  -72.6090  -21.1002 C   0  0  0  0  0  0  0  0  0  0  0  0
   -4.1990  -74.0472  -17.7270 S   0  0  0  0  0  0  0  0  0  0  0  0
   -3.8324  -75.2709  -17.0398 O   0  0  0  0  0  0  0  0  0  0  0  0
   -4.4752  -72.8621  -16.9443 O   0  0  0  0  0  0  0  0  0  0  0  0
   -5.6555  -74.4407  -18.6952 C   0  0  0  0  0  0  0  0  0  0  0  0
   -6.2299  -73.3508  -19.5997 C   0  0  0  0  0  0  0  0  0  0  0  0
   -6.6042  -72.0046  -18.9356 C   0  0  0  0  0  0  0  0  0  0  0  0
   -7.0316  -70.9663  -19.9978 C   0  0  0  0  0  0  0  0  0  0  0  0
   -8.5176  -71.0610  -19.9440 C   0  0  0  0  0  0  0  0  0  0  0  0
   -9.4308  -70.5675  -20.8574 C   0  0  0  0  0  0  0  0  0  0  0  0
  -10.7874  -70.7572  -20.5952 C   0  0  0  0  0  0  0  0  0  0  0  0
  -11.2068  -71.4173  -19.4290 C   0  0  0  0  0  0  0  0  0  0  0  0
  -10.2765  -71.8970  -18.5075 C   0  0  0  0  0  0  0  0  0  0  0  0
   -8.9348  -71.7172  -18.7839 C   0  0  0  0  0  0  0  0  0  0  0  0
   -7.7732  -72.1299  -17.9441 C   0  0  0  0  0  0  0  0  0  0  0  0
  1  2  1  0
  2  3  1  0
  3  4  2  0
  4  5  1  0
  5  6  2  0
  6  7  1  0
  7  8  2  0
  2  9  1  0
  9 10  2  0
  9 11  2  0
  9 12  1  0
 12 13  1  0
 13 14  1  0
 14 15  1  0
 15 16  1  0
 16 17  2  0
 17 18  1  0
 18 19  2  0
 19 20  1  0
 20 21  2  0
 21 22  1  0
  8  3  1  0
 22 14  1  0
 21 16  1  0
M  END
>  <fragmenstein_runtime>  (4) 
[3.6874194145202637]

>  <original ID>  (4) 
IOQRFKORLYPZRB-UHFFFAOYSA-N

>  <fragmenstein_error>  (4) 
['']

>  <ref_pdb>  (4) 
d0174a

>  <Multi-SuCOS>  (4) 
0.34664

>  <SLURM_JOB_NAME>  (4) 
BulkDock.place:Flavi_NS5_RdRp:RdRp_knitwork_thumb_site_2_pure_split4000_batch001

>  <HIPPO Compound ID>  (4) 
970

>  <original SMILES>  (4) 
CN(c1cccnc1)S(=O)(=O)CCC1Cc2ccccc2C1

>  <name>  (4) 
IOQRFKORLYPZRB-UHFFFAOYSA-N

>  <HIPPO Pose ID>  (4) 
34833

>  <ref_mols>  (4) 
d0174a,d0279a

>  <exports>  (4) 
['/opt/xchem-fragalysis-2/maxwin/BulkDock/OUTPUTS/RdRp_knitwork_thumb_site_2_pure_split4000_batch001_211011.sdf', '/opt/xchem-fragalysis-2/maxwin/BulkDock/OUTPUTS/RdRp_knitwork_thumb_site_2_pure_fragalysis.sdf', '/opt/xchem-fragalysis-2/maxwin/RdRp_FFF/syndirella/Retro_OK_batch1.sdf']

>  <alias>  (4) 
None

>  <inchikey>  (4) 
IOQRFKORLYPZRB-UHFFFAOYSA-N

>  <energy_score>  (4) 
-64.106416

>  <distance_score>  (4) 
0.999439

>  <fragmenstein_outcome>  (4) 
['acceptable']

>  <merge_set>  (4) 
RdRp_knitwork_thumb_site_2_pure_fragalysis.sdf

>  <scratch_subdir>  (4) 
['/opt/xchem-fragalysis-2/maxwin/BulkDock/SCRATCH/211011/C970-P17']

>  <SLURM_JOB_ID>  (4) 
211011

>  <tags>  (4) 
['RdRp_knitwork_thumb_site_2_pure_fragalysis.sdf Pose OK', 'Fragmenstein placed']

>  <fragmenstein_mode>  (4) 
['expansion']

>  <csv_name>  (4) 
RdRp_knitwork_thumb_site_2_pure_split4000_batch001.csv

$$$$
RJXWTYLZNOTJGF-UHFFFAOYSA-N
     RDKit          3D

 23 25  0  0  0  0  0  0  0  0999 V2000
  -14.5439  -69.4104  -22.7753 C   0  0  0  0  0  0  0  0  0  0  0  0
  -15.0748  -69.6071  -21.3715 C   0  0  0  0  0  0  0  0  0  0  0  0
  -13.7978  -69.7749  -20.1308 S   0  0  0  0  0  0  0  0  0  0  0  0
  -12.9423  -68.6163  -20.1662 O   0  0  0  0  0  0  0  0  0  0  0  0
  -14.4229  -70.2015  -18.8930 O   0  0  0  0  0  0  0  0  0  0  0  0
  -12.9320  -71.0941  -20.6528 N   0  0  0  0  0  0  0  0  0  0  0  0
  -11.6985  -70.8880  -21.4120 C   0  0  0  0  0  0  0  0  0  0  0  0
  -10.4269  -70.9191  -20.6118 C   0  0  0  0  0  0  0  0  0  0  0  0
  -10.3351  -71.2249  -19.2554 C   0  0  0  0  0  0  0  0  0  0  0  0
   -9.0779  -71.3122  -18.6458 C   0  0  0  0  0  0  0  0  0  0  0  0
   -7.9180  -71.1056  -19.3983 C   0  0  0  0  0  0  0  0  0  0  0  0
   -6.6231  -71.3016  -18.8323 N   0  0  0  0  0  0  0  0  0  0  0  0
   -6.4686  -72.6474  -18.2651 C   0  0  0  0  0  0  0  0  0  0  0  0
   -6.2542  -73.6681  -19.3741 C   0  0  0  0  0  0  0  0  0  0  0  0
   -4.9197  -73.4056  -20.0510 C   0  0  0  0  0  0  0  0  0  0  0  0
   -4.6130  -71.9403  -20.1698 C   0  0  0  0  0  0  0  0  0  0  0  0
   -3.4567  -71.5550  -20.8652 C   0  0  0  0  0  0  0  0  0  0  0  0
   -3.1421  -70.2122  -21.0275 C   0  0  0  0  0  0  0  0  0  0  0  0
   -3.9925  -69.2479  -20.5082 C   0  0  0  0  0  0  0  0  0  0  0  0
   -5.1263  -69.6227  -19.7844 C   0  0  0  0  0  0  0  0  0  0  0  0
   -5.4499  -70.9659  -19.5884 C   0  0  0  0  0  0  0  0  0  0  0  0
   -8.0134  -70.7420  -20.6933 N   0  0  0  0  0  0  0  0  0  0  0  0
   -9.2311  -70.6615  -21.2662 C   0  0  0  0  0  0  0  0  0  0  0  0
  1  2  1  0
  2  3  1  0
  3  4  2  0
  3  5  2  0
  3  6  1  0
  6  7  1  0
  7  8  1  0
  8  9  2  0
  9 10  1  0
 10 11  2  0
 11 12  1  0
 12 13  1  0
 13 14  1  0
 14 15  1  0
 15 16  1  0
 16 17  2  0
 17 18  1  0
 18 19  2  0
 19 20  1  0
 20 21  2  0
 11 22  1  0
 22 23  2  0
 23  8  1  0
 21 12  1  0
 21 16  1  0
M  END
>  <fragmenstein_runtime>  (5) 
[18.919159412384033]

>  <original ID>  (5) 
RJXWTYLZNOTJGF-UHFFFAOYSA-N

>  <fragmenstein_error>  (5) 
['']

>  <ref_pdb>  (5) 
d0174a

>  <Multi-SuCOS>  (5) 
0.726058

>  <SLURM_JOB_NAME>  (5) 
BulkDock.place:Flavi_NS5_RdRp:RdRp_knitwork_thumb_site_2_pure_split4000_batch000

>  <HIPPO Compound ID>  (5) 
778

>  <original SMILES>  (5) 
CCS(=O)(=O)NCc1ccc(N2CCCc3ccccc32)nc1

>  <name>  (5) 
RJXWTYLZNOTJGF-UHFFFAOYSA-N

>  <HIPPO Pose ID>  (5) 
34914

>  <ref_mols>  (5) 
d0174a,d0279a,d0615a

>  <exports>  (5) 
['/opt/xchem-fragalysis-2/maxwin/BulkDock/OUTPUTS/RdRp_knitwork_thumb_site_2_pure_split4000_batch000_211010.sdf', '/opt/xchem-fragalysis-2/maxwin/BulkDock/OUTPUTS/RdRp_knitwork_thumb_site_2_pure_fragalysis.sdf', '/opt/xchem-fragalysis-2/maxwin/RdRp_FFF/syndirella/Retro_OK_batch1.sdf']

>  <alias>  (5) 
None

>  <inchikey>  (5) 
RJXWTYLZNOTJGF-UHFFFAOYSA-N

>  <energy_score>  (5) 
-42.564317

>  <distance_score>  (5) 
0.972852

>  <fragmenstein_outcome>  (5) 
['acceptable']

>  <merge_set>  (5) 
RdRp_knitwork_thumb_site_2_pure_fragalysis.sdf

>  <scratch_subdir>  (5) 
['/opt/xchem-fragalysis-2/maxwin/BulkDock/SCRATCH/211010/C778-P17']

>  <SLURM_JOB_ID>  (5) 
211010

>  <tags>  (5) 
['RdRp_knitwork_thumb_site_2_pure_fragalysis.sdf Pose OK', 'Fragmenstein placed']

>  <fragmenstein_mode>  (5) 
['expansion']

>  <csv_name>  (5) 
RdRp_knitwork_thumb_site_2_pure_split4000_batch000.csv

$$$$
XRMSPKKKPYMDOG-UHFFFAOYSA-N
     RDKit          3D

 15 17  0  0  0  0  0  0  0  0999 V2000
  -26.2674  -60.9091   -2.7559 C   0  0  0  0  0  0  0  0  0  0  0  0
  -26.7846  -59.6525   -2.9684 C   0  0  0  0  0  0  0  0  0  0  0  0
  -26.1046  -58.7561   -2.1004 C   0  0  0  0  0  0  0  0  0  0  0  0
  -26.1458  -57.3614   -1.9052 C   0  0  0  0  0  0  0  0  0  0  0  0
  -25.2509  -56.7267   -1.0277 C   0  0  0  0  0  0  0  0  0  0  0  0
  -25.2105  -55.3125   -1.0302 N   0  0  0  0  0  0  0  0  0  0  0  0
  -23.8432  -54.7646   -1.1391 C   0  0  0  0  0  0  0  0  0  0  0  0
  -23.8913  -53.2533   -1.3700 C   0  0  0  0  0  0  0  0  0  0  0  0
  -24.6194  -52.5686   -0.2308 C   0  0  0  0  0  0  0  0  0  0  0  0
  -26.0033  -53.1697   -0.1034 C   0  0  0  0  0  0  0  0  0  0  0  0
  -25.9623  -54.6947    0.0770 C   0  0  0  0  0  0  0  0  0  0  0  0
  -24.4035  -57.5300   -0.2539 C   0  0  0  0  0  0  0  0  0  0  0  0
  -24.3777  -58.9300   -0.3801 C   0  0  0  0  0  0  0  0  0  0  0  0
  -25.2120  -59.5094   -1.3420 C   0  0  0  0  0  0  0  0  0  0  0  0
  -25.3349  -60.8178   -1.7553 N   0  0  0  0  0  0  0  0  0  0  0  0
  1  2  2  0
  2  3  1  0
  3  4  2  0
  4  5  1  0
  5  6  1  0
  6  7  1  0
  7  8  1  0
  8  9  1  0
  9 10  1  0
 10 11  1  0
  5 12  2  0
 12 13  1  0
 13 14  2  0
 14 15  1  0
 15  1  1  0
 14  3  1  0
 11  6  1  0
M  END
>  <fragmenstein_runtime>  (6) 
[1.5707342624664307]

>  <original ID>  (6) 
XRMSPKKKPYMDOG-UHFFFAOYSA-N

>  <fragmenstein_error>  (6) 
['']

>  <ref_pdb>  (6) 
z0136b

>  <Multi-SuCOS>  (6) 
0.853591

>  <SLURM_JOB_NAME>  (6) 
BulkDock.place:Flavi_NS5_RdRp:RdRp_knitwork_cavity_b_impure_split4000_batch000

>  <HIPPO Compound ID>  (6) 
234

>  <original SMILES>  (6) 
c1cc2cc(N3CCCCC3)ccc2[nH]1

>  <name>  (6) 
XRMSPKKKPYMDOG-UHFFFAOYSA-N

>  <HIPPO Pose ID>  (6) 
35309

>  <ref_mols>  (6) 
z0136b,z0892b

>  <exports>  (6) 
['/opt/xchem-fragalysis-2/maxwin/BulkDock/OUTPUTS/RdRp_knitwork_cavity_b_impure_split4000_batch000_211008.sdf', '/opt/xchem-fragalysis-2/maxwin/BulkDock/OUTPUTS/RdRp_knitwork_cavity_b_impure_split4000_batch000_211008_fragalysis.sdf', '/opt/xchem-fragalysis-2/maxwin/RdRp_FFF/syndirella/Retro_OK_batch1.sdf']

>  <alias>  (6) 
None

>  <inchikey>  (6) 
XRMSPKKKPYMDOG-UHFFFAOYSA-N

>  <energy_score>  (6) 
-25.186417

>  <distance_score>  (6) 
0.943753

>  <fragmenstein_outcome>  (6) 
['acceptable']

>  <merge_set>  (6) 
RdRp_knitwork_cavity_b_impure

>  <scratch_subdir>  (6) 
['/opt/xchem-fragalysis-2/maxwin/BulkDock/SCRATCH/211008/C234-P90']

>  <SLURM_JOB_ID>  (6) 
211008

>  <tags>  (6) 
['Fragmenstein placed', 'RdRp_knitwork_cavity_b_impure Pose OK']

>  <fragmenstein_mode>  (6) 
['expansion']

>  <csv_name>  (6) 
RdRp_knitwork_cavity_b_impure_split4000_batch000.csv

$$$$
VRSMKDNZJPNONB-UHFFFAOYSA-N
     RDKit          3D

 22 23  0  0  0  0  0  0  0  0999 V2000
  -16.7011  -41.7317  -26.0043 C   0  0  0  0  0  0  0  0  0  0  0  0
  -15.7008  -41.0958  -25.1586 N   0  0  0  0  0  0  0  0  0  0  0  0
  -14.6618  -41.9358  -24.5445 C   0  0  0  0  0  0  0  0  0  0  0  0
  -15.0907  -43.3181  -24.0391 C   0  0  0  0  0  0  0  0  0  0  0  0
  -16.2983  -43.3197  -23.2297 N   0  0  0  0  0  0  0  0  0  0  0  0
  -16.3185  -42.3384  -21.9605 C   0  0  0  0  0  0  0  0  0  0  0  0
  -15.2047  -42.5572  -21.4572 O   0  0  0  0  0  0  0  0  0  0  0  0
  -17.7050  -43.0443  -21.6918 C   0  0  0  0  0  0  0  0  0  0  0  0
  -18.8449  -42.4354  -22.4585 C   0  0  0  0  0  0  0  0  0  0  0  0
  -19.9521  -43.0520  -23.0101 C   0  0  0  0  0  0  0  0  0  0  0  0
  -20.8284  -42.0832  -23.5725 C   0  0  0  0  0  0  0  0  0  0  0  0
  -20.4354  -40.8153  -23.5210 N   0  0  0  0  0  0  0  0  0  0  0  0
  -18.9950  -40.7453  -22.7039 S   0  0  0  0  0  0  0  0  0  0  0  0
  -15.6250  -39.7291  -24.8624 C   0  0  0  0  0  0  0  0  0  0  0  0
  -14.7427  -39.2638  -24.1340 O   0  0  0  0  0  0  0  0  0  0  0  0
  -16.6526  -38.7640  -25.3096 C   0  0  0  0  0  0  0  0  0  0  0  0
  -17.3198  -38.7630  -26.5254 C   0  0  0  0  0  0  0  0  0  0  0  0
  -18.4093  -37.9858  -26.7929 N   0  0  0  0  0  0  0  0  0  0  0  0
  -18.7889  -37.1356  -25.8053 C   0  0  0  0  0  0  0  0  0  0  0  0
  -18.1037  -36.9738  -24.6180 C   0  0  0  0  0  0  0  0  0  0  0  0
  -18.5078  -36.0213  -23.7356 O   0  0  0  0  0  0  0  0  0  0  0  0
  -17.0302  -37.8041  -24.3598 C   0  0  0  0  0  0  0  0  0  0  0  0
  1  2  1  0
  2  3  1  0
  3  4  1  0
  4  5  1  0
  5  6  1  0
  6  7  2  0
  6  8  1  0
  8  9  1  0
  9 10  2  0
 10 11  1  0
 11 12  2  0
 12 13  1  0
  2 14  1  0
 14 15  2  0
 14 16  1  0
 16 17  2  0
 17 18  1  0
 18 19  2  0
 19 20  1  0
 20 21  1  0
 20 22  2  0
 13  9  1  0
 22 16  1  0
M  END
>  <fragmenstein_runtime>  (7) 
[9.172364711761475]

>  <original ID>  (7) 
VRSMKDNZJPNONB-UHFFFAOYSA-N

>  <fragmenstein_error>  (7) 
['']

>  <ref_pdb>  (7) 
d0472a

>  <Multi-SuCOS>  (7) 
0.363177

>  <SLURM_JOB_NAME>  (7) 
BulkDock.place:Flavi_NS5_RdRp:RdRp_knitwork_primer_grip_n_pocket_impure_split4000_batch003

>  <HIPPO Compound ID>  (7) 
8409

>  <original SMILES>  (7) 
CN(CCNC(=O)Cc1ccns1)C(=O)c1cncc(O)c1

>  <name>  (7) 
VRSMKDNZJPNONB-UHFFFAOYSA-N

>  <HIPPO Pose ID>  (7) 
35318

>  <ref_mols>  (7) 
d0191a,d0472a

>  <exports>  (7) 
['/opt/xchem-fragalysis-2/maxwin/BulkDock/OUTPUTS/RdRp_knitwork_primer_grip_n_pocket_impure_split4000_batch003_211035.sdf', '/opt/xchem-fragalysis-2/maxwin/BulkDock/OUTPUTS/RdRp_knitwork_primer_grip_n_pocket_impure_fragalysis.sdf', '/opt/xchem-fragalysis-2/maxwin/RdRp_FFF/syndirella/Retro_OK_batch1.sdf']

>  <alias>  (7) 
None

>  <inchikey>  (7) 
VRSMKDNZJPNONB-UHFFFAOYSA-N

>  <energy_score>  (7) 
-221.173291

>  <distance_score>  (7) 
0.91945

>  <fragmenstein_outcome>  (7) 
['acceptable']

>  <merge_set>  (7) 
RdRp_knitwork_primer_grip_n_pocket_impure_fragalysis.sdf

>  <scratch_subdir>  (7) 
['/opt/xchem-fragalysis-2/maxwin/BulkDock/SCRATCH/211035/C8409-P42']

>  <SLURM_JOB_ID>  (7) 
211035

>  <tags>  (7) 
['Fragmenstein placed', 'RdRp_knitwork_primer_grip_n_pocket_impure_fragalysis.sdf Pose OK']

>  <fragmenstein_mode>  (7) 
['expansion']

>  <csv_name>  (7) 
RdRp_knitwork_primer_grip_n_pocket_impure_split4000_batch003.csv

$$$$
XDGUIPBTSIDPMH-UHFFFAOYSA-N
     RDKit          3D

 14 14  0  0  0  0  0  0  0  0999 V2000
  -14.5086  -69.4359  -22.7559 C   0  0  0  0  0  0  0  0  0  0  0  0
  -15.0878  -69.4746  -21.3571 C   0  0  0  0  0  0  0  0  0  0  0  0
  -13.8676  -69.7837  -20.0871 S   0  0  0  0  0  0  0  0  0  0  0  0
  -12.8479  -68.7677  -20.1534 O   0  0  0  0  0  0  0  0  0  0  0  0
  -14.5570  -70.0753  -18.8446 O   0  0  0  0  0  0  0  0  0  0  0  0
  -13.2168  -71.2472  -20.5465 N   0  0  0  0  0  0  0  0  0  0  0  0
  -11.8791  -71.2653  -21.1408 C   0  0  0  0  0  0  0  0  0  0  0  0
  -10.7327  -71.2835  -20.1560 C   0  0  0  0  0  0  0  0  0  0  0  0
  -10.8654  -71.7838  -18.8541 C   0  0  0  0  0  0  0  0  0  0  0  0
   -9.7510  -71.8264  -18.0242 C   0  0  0  0  0  0  0  0  0  0  0  0
   -8.5199  -71.4180  -18.3910 N   0  0  0  0  0  0  0  0  0  0  0  0
   -8.4007  -70.9448  -19.6532 C   0  0  0  0  0  0  0  0  0  0  0  0
   -9.4584  -70.8647  -20.5513 C   0  0  0  0  0  0  0  0  0  0  0  0
   -9.1785  -70.2759  -22.1297 Cl  0  0  0  0  0  0  0  0  0  0  0  0
  1  2  1  0
  2  3  1  0
  3  4  2  0
  3  5  2  0
  3  6  1  0
  6  7  1  0
  7  8  1  0
  8  9  2  0
  9 10  1  0
 10 11  2  0
 11 12  1  0
 12 13  2  0
 13 14  1  0
 13  8  1  0
M  END
>  <fragmenstein_runtime>  (8) 
[1.9352526664733887]

>  <original ID>  (8) 
XDGUIPBTSIDPMH-UHFFFAOYSA-N

>  <fragmenstein_error>  (8) 
['']

>  <ref_pdb>  (8) 
d0174a

>  <Multi-SuCOS>  (8) 
0.82395

>  <SLURM_JOB_NAME>  (8) 
BulkDock.place:Flavi_NS5_RdRp:RdRp_knitwork_thumb_site_2_pure_split4000_batch000

>  <HIPPO Compound ID>  (8) 
890

>  <original SMILES>  (8) 
CCS(=O)(=O)NCc1ccncc1Cl

>  <name>  (8) 
XDGUIPBTSIDPMH-UHFFFAOYSA-N

>  <HIPPO Pose ID>  (8) 
35409

>  <ref_mols>  (8) 
d0174a,d0279a,d0615a

>  <exports>  (8) 
['/opt/xchem-fragalysis-2/maxwin/BulkDock/OUTPUTS/RdRp_knitwork_thumb_site_2_pure_split4000_batch000_211010.sdf', '/opt/xchem-fragalysis-2/maxwin/BulkDock/OUTPUTS/RdRp_knitwork_thumb_site_2_pure_fragalysis.sdf', '/opt/xchem-fragalysis-2/maxwin/RdRp_FFF/syndirella/Retro_OK_batch1.sdf']

>  <alias>  (8) 
None

>  <inchikey>  (8) 
XDGUIPBTSIDPMH-UHFFFAOYSA-N

>  <energy_score>  (8) 
-30.027819

>  <distance_score>  (8) 
0.758021

>  <fragmenstein_outcome>  (8) 
['acceptable']

>  <merge_set>  (8) 
RdRp_knitwork_thumb_site_2_pure_fragalysis.sdf

>  <scratch_subdir>  (8) 
['/opt/xchem-fragalysis-2/maxwin/BulkDock/SCRATCH/211010/C890-P17']

>  <SLURM_JOB_ID>  (8) 
211010

>  <tags>  (8) 
['RdRp_knitwork_thumb_site_2_pure_fragalysis.sdf Pose OK', 'Fragmenstein placed']

>  <fragmenstein_mode>  (8) 
['expansion']

>  <csv_name>  (8) 
RdRp_knitwork_thumb_site_2_pure_split4000_batch000.csv

$$$$
XDGUIPBTSIDPMH-UHFFFAOYSA-N
     RDKit          3D

 14 14  0  0  0  0  0  0  0  0999 V2000
  -14.5475  -69.5114  -22.7115 C   0  0  0  0  0  0  0  0  0  0  0  0
  -15.0670  -69.6742  -21.2985 C   0  0  0  0  0  0  0  0  0  0  0  0
  -13.7611  -69.8666  -20.0919 S   0  0  0  0  0  0  0  0  0  0  0  0
  -12.9109  -68.7052  -20.1398 O   0  0  0  0  0  0  0  0  0  0  0  0
  -14.3539  -70.3177  -18.8474 O   0  0  0  0  0  0  0  0  0  0  0  0
  -12.9275  -71.1869  -20.6920 N   0  0  0  0  0  0  0  0  0  0  0  0
  -11.5009  -71.0321  -21.0268 C   0  0  0  0  0  0  0  0  0  0  0  0
  -10.5297  -71.3124  -19.9003 C   0  0  0  0  0  0  0  0  0  0  0  0
  -10.8471  -72.1894  -18.8537 C   0  0  0  0  0  0  0  0  0  0  0  0
   -9.8882  -72.4862  -17.8907 C   0  0  0  0  0  0  0  0  0  0  0  0
   -8.6352  -71.9933  -17.8939 N   0  0  0  0  0  0  0  0  0  0  0  0
   -8.3322  -71.1599  -18.9098 C   0  0  0  0  0  0  0  0  0  0  0  0
   -9.2298  -70.7898  -19.9050 C   0  0  0  0  0  0  0  0  0  0  0  0
   -8.6831  -69.6722  -21.0670 Cl  0  0  0  0  0  0  0  0  0  0  0  0
  1  2  1  0
  2  3  1  0
  3  4  2  0
  3  5  2  0
  3  6  1  0
  6  7  1  0
  7  8  1  0
  8  9  2  0
  9 10  1  0
 10 11  2  0
 11 12  1  0
 12 13  2  0
 13 14  1  0
 13  8  1  0
M  END
>  <fragmenstein_runtime>  (9) 
[1.9639780521392822]

>  <original ID>  (9) 
XDGUIPBTSIDPMH-UHFFFAOYSA-N

>  <fragmenstein_error>  (9) 
['']

>  <ref_pdb>  (9) 
d0279a

>  <Multi-SuCOS>  (9) 
0.740396

>  <SLURM_JOB_NAME>  (9) 
BulkDock.place:Flavi_NS5_RdRp:RdRp_knitwork_thumb_site_2_pure_split4000_batch000

>  <HIPPO Compound ID>  (9) 
890

>  <original SMILES>  (9) 
CCS(=O)(=O)NCc1ccncc1Cl

>  <name>  (9) 
XDGUIPBTSIDPMH-UHFFFAOYSA-N

>  <HIPPO Pose ID>  (9) 
35410

>  <ref_mols>  (9) 
d0174a,d0279a

>  <exports>  (9) 
['/opt/xchem-fragalysis-2/maxwin/BulkDock/OUTPUTS/RdRp_knitwork_thumb_site_2_pure_split4000_batch000_211010.sdf', '/opt/xchem-fragalysis-2/maxwin/BulkDock/OUTPUTS/RdRp_knitwork_thumb_site_2_pure_fragalysis.sdf', '/opt/xchem-fragalysis-2/maxwin/RdRp_FFF/syndirella/Retro_OK_batch1.sdf']

>  <alias>  (9) 
None

>  <inchikey>  (9) 
XDGUIPBTSIDPMH-UHFFFAOYSA-N

>  <energy_score>  (9) 
-28.755577

>  <distance_score>  (9) 
0.826049

>  <fragmenstein_outcome>  (9) 
['acceptable']

>  <merge_set>  (9) 
RdRp_knitwork_thumb_site_2_pure_fragalysis.sdf

>  <scratch_subdir>  (9) 
['/opt/xchem-fragalysis-2/maxwin/BulkDock/SCRATCH/211010/C890-P29']

>  <SLURM_JOB_ID>  (9) 
211010

>  <tags>  (9) 
['RdRp_knitwork_thumb_site_2_pure_fragalysis.sdf Pose OK', 'Fragmenstein placed']

>  <fragmenstein_mode>  (9) 
['expansion']

>  <csv_name>  (9) 
RdRp_knitwork_thumb_site_2_pure_split4000_batch000.csv

$$$$
ZPBHINXHGPMFIS-UHFFFAOYSA-N
     RDKit          3D

 21 22  0  0  0  0  0  0  0  0999 V2000
  -14.6366  -69.5318  -22.7217 C   0  0  0  0  0  0  0  0  0  0  0  0
  -15.1349  -69.6369  -21.2962 C   0  0  0  0  0  0  0  0  0  0  0  0
  -13.8201  -69.8173  -20.0973 S   0  0  0  0  0  0  0  0  0  0  0  0
  -12.9313  -68.6886  -20.1986 O   0  0  0  0  0  0  0  0  0  0  0  0
  -14.4187  -70.1968  -18.8312 O   0  0  0  0  0  0  0  0  0  0  0  0
  -13.0304  -71.1842  -20.6276 N   0  0  0  0  0  0  0  0  0  0  0  0
  -11.7672  -71.0508  -21.3588 C   0  0  0  0  0  0  0  0  0  0  0  0
  -10.5252  -71.1832  -20.5094 C   0  0  0  0  0  0  0  0  0  0  0  0
  -10.4334  -72.1046  -19.4580 C   0  0  0  0  0  0  0  0  0  0  0  0
   -9.2307  -72.2798  -18.7679 C   0  0  0  0  0  0  0  0  0  0  0  0
   -8.0954  -71.5492  -19.1172 C   0  0  0  0  0  0  0  0  0  0  0  0
   -6.9728  -71.8592  -18.4044 O   0  0  0  0  0  0  0  0  0  0  0  0
   -5.8732  -70.9529  -18.4844 C   0  0  0  0  0  0  0  0  0  0  0  0
   -4.9090  -71.1833  -19.6125 C   0  0  0  0  0  0  0  0  0  0  0  0
   -4.5496  -72.4689  -20.0050 C   0  0  0  0  0  0  0  0  0  0  0  0
   -3.5788  -72.6144  -20.9798 C   0  0  0  0  0  0  0  0  0  0  0  0
   -2.9890  -71.4766  -21.5161 C   0  0  0  0  0  0  0  0  0  0  0  0
   -3.3860  -70.2330  -21.0587 C   0  0  0  0  0  0  0  0  0  0  0  0
   -4.3348  -70.0674  -20.1260 N   0  0  0  0  0  0  0  0  0  0  0  0
   -8.1757  -70.6267  -20.1558 C   0  0  0  0  0  0  0  0  0  0  0  0
   -9.3807  -70.4452  -20.8433 C   0  0  0  0  0  0  0  0  0  0  0  0
  1  2  1  0
  2  3  1  0
  3  4  2  0
  3  5  2  0
  3  6  1  0
  6  7  1  0
  7  8  1  0
  8  9  2  0
  9 10  1  0
 10 11  2  0
 11 12  1  0
 12 13  1  0
 13 14  1  0
 14 15  2  0
 15 16  1  0
 16 17  2  0
 17 18  1  0
 18 19  2  0
 11 20  1  0
 20 21  2  0
 21  8  1  0
 19 14  1  0
M  END
>  <fragmenstein_runtime>  (10) 
[6.457012414932251]

>  <original ID>  (10) 
ZPBHINXHGPMFIS-UHFFFAOYSA-N

>  <fragmenstein_error>  (10) 
['']

>  <ref_pdb>  (10) 
d0279a

>  <Multi-SuCOS>  (10) 
0.807059

>  <SLURM_JOB_NAME>  (10) 
BulkDock.place:Flavi_NS5_RdRp:RdRp_knitwork_thumb_site_2_pure_split4000_batch000

>  <HIPPO Compound ID>  (10) 
897

>  <original SMILES>  (10) 
CCS(=O)(=O)NCc1ccc(OCc2ccccn2)cc1

>  <name>  (10) 
ZPBHINXHGPMFIS-UHFFFAOYSA-N

>  <HIPPO Pose ID>  (10) 
35422

>  <ref_mols>  (10) 
d0174a,d0279a

>  <exports>  (10) 
['/opt/xchem-fragalysis-2/maxwin/BulkDock/OUTPUTS/RdRp_knitwork_thumb_site_2_pure_split4000_batch000_211010.sdf', '/opt/xchem-fragalysis-2/maxwin/BulkDock/OUTPUTS/RdRp_knitwork_thumb_site_2_pure_fragalysis.sdf', '/opt/xchem-fragalysis-2/maxwin/RdRp_FFF/syndirella/Retro_OK_batch1.sdf']

>  <alias>  (10) 
None

>  <inchikey>  (10) 
ZPBHINXHGPMFIS-UHFFFAOYSA-N

>  <energy_score>  (10) 
-36.21249

>  <distance_score>  (10) 
0.974417

>  <fragmenstein_outcome>  (10) 
['acceptable']

>  <merge_set>  (10) 
RdRp_knitwork_thumb_site_2_pure_fragalysis.sdf

>  <scratch_subdir>  (10) 
['/opt/xchem-fragalysis-2/maxwin/BulkDock/SCRATCH/211010/C897-P29']

>  <SLURM_JOB_ID>  (10) 
211010

>  <tags>  (10) 
['RdRp_knitwork_thumb_site_2_pure_fragalysis.sdf Pose OK', 'Fragmenstein placed']

>  <fragmenstein_mode>  (10) 
['expansion']

>  <csv_name>  (10) 
RdRp_knitwork_thumb_site_2_pure_split4000_batch000.csv

$$$$
AWNUFCKXIZAWBG-UHFFFAOYSA-N
     RDKit          3D

 11 12  0  0  0  0  0  0  0  0999 V2000
  -15.8922  -41.9034  -25.4402 C   0  0  0  0  0  0  0  0  0  0  0  0
  -16.3858  -42.3490  -26.6539 C   0  0  0  0  0  0  0  0  0  0  0  0
  -17.0732  -41.5851  -27.5283 N   0  0  0  0  0  0  0  0  0  0  0  0
  -17.2744  -40.3030  -27.1610 C   0  0  0  0  0  0  0  0  0  0  0  0
  -16.8687  -39.7632  -25.9494 C   0  0  0  0  0  0  0  0  0  0  0  0
  -17.3519  -38.4526  -25.5665 C   0  0  0  0  0  0  0  0  0  0  0  0
  -18.2786  -37.7002  -26.1430 N   0  0  0  0  0  0  0  0  0  0  0  0
  -18.4889  -36.7037  -25.2215 C   0  0  0  0  0  0  0  0  0  0  0  0
  -17.6626  -36.8723  -24.1417 C   0  0  0  0  0  0  0  0  0  0  0  0
  -16.9236  -37.9908  -24.3497 O   0  0  0  0  0  0  0  0  0  0  0  0
  -16.1347  -40.5839  -25.0866 C   0  0  0  0  0  0  0  0  0  0  0  0
  1  2  2  0
  2  3  1  0
  3  4  2  0
  4  5  1  0
  5  6  1  0
  6  7  2  0
  7  8  1  0
  8  9  2  0
  9 10  1  0
  5 11  2  0
 11  1  1  0
 10  6  1  0
M  END
>  <fragmenstein_runtime>  (11) 
[1.352545976638794]

>  <original ID>  (11) 
AWNUFCKXIZAWBG-UHFFFAOYSA-N

>  <fragmenstein_error>  (11) 
['']

>  <ref_pdb>  (11) 
d0160a

>  <Multi-SuCOS>  (11) 
0.759738

>  <SLURM_JOB_NAME>  (11) 
BulkDock.place:Flavi_NS5_RdRp:RdRp_knitwork_primer_grip_n_pocket_impure_split4000_batch005

>  <HIPPO Compound ID>  (11) 
9110

>  <original SMILES>  (11) 
c1cncc(-c2ncco2)c1

>  <name>  (11) 
AWNUFCKXIZAWBG-UHFFFAOYSA-N

>  <HIPPO Pose ID>  (11) 
35477

>  <ref_mols>  (11) 
d0160a,d0191a

>  <exports>  (11) 
['/opt/xchem-fragalysis-2/maxwin/BulkDock/OUTPUTS/RdRp_knitwork_primer_grip_n_pocket_impure_split4000_batch005_211037.sdf', '/opt/xchem-fragalysis-2/maxwin/BulkDock/OUTPUTS/RdRp_knitwork_primer_grip_n_pocket_impure_fragalysis.sdf', '/opt/xchem-fragalysis-2/maxwin/RdRp_FFF/syndirella/Retro_OK_batch1.sdf']

>  <alias>  (11) 
None

>  <inchikey>  (11) 
AWNUFCKXIZAWBG-UHFFFAOYSA-N

>  <energy_score>  (11) 
-13.148205

>  <distance_score>  (11) 
0.999925

>  <fragmenstein_outcome>  (11) 
['acceptable']

>  <merge_set>  (11) 
RdRp_knitwork_primer_grip_n_pocket_impure_fragalysis.sdf

>  <scratch_subdir>  (11) 
['/opt/xchem-fragalysis-2/maxwin/BulkDock/SCRATCH/211037/C9110-P12']

>  <SLURM_JOB_ID>  (11) 
211037

>  <tags>  (11) 
['Fragmenstein placed', 'RdRp_knitwork_primer_grip_n_pocket_impure_fragalysis.sdf Pose OK']

>  <fragmenstein_mode>  (11) 
['expansion']

>  <csv_name>  (11) 
RdRp_knitwork_primer_grip_n_pocket_impure_split4000_batch005.csv

$$$$
XXTPHXNBKRVYJI-UHFFFAOYSA-N
     RDKit          3D

 11 12  0  0  0  0  0  0  0  0999 V2000
  -16.0852  -42.5078  -25.5958 C   0  0  0  0  0  0  0  0  0  0  0  0
  -15.2235  -41.4578  -25.3230 C   0  0  0  0  0  0  0  0  0  0  0  0
  -15.6348  -40.1555  -25.5728 C   0  0  0  0  0  0  0  0  0  0  0  0
  -16.9233  -39.9463  -26.0663 C   0  0  0  0  0  0  0  0  0  0  0  0
  -17.5128  -38.6481  -25.9197 N   0  0  0  0  0  0  0  0  0  0  0  0
  -17.0508  -37.6312  -25.1061 C   0  0  0  0  0  0  0  0  0  0  0  0
  -18.1019  -36.7761  -24.8873 C   0  0  0  0  0  0  0  0  0  0  0  0
  -19.1327  -37.2793  -25.6857 C   0  0  0  0  0  0  0  0  0  0  0  0
  -18.7629  -38.3463  -26.3977 N   0  0  0  0  0  0  0  0  0  0  0  0
  -17.7371  -40.9704  -26.4441 N   0  0  0  0  0  0  0  0  0  0  0  0
  -17.3067  -42.2165  -26.1689 C   0  0  0  0  0  0  0  0  0  0  0  0
  1  2  2  0
  2  3  1  0
  3  4  2  0
  4  5  1  0
  5  6  1  0
  6  7  2  0
  7  8  1  0
  8  9  2  0
  4 10  1  0
 10 11  2  0
 11  1  1  0
  9  5  1  0
M  END
>  <fragmenstein_runtime>  (12) 
[1.4785594940185547]

>  <original ID>  (12) 
XXTPHXNBKRVYJI-UHFFFAOYSA-N

>  <fragmenstein_error>  (12) 
['']

>  <ref_pdb>  (12) 
d0160a

>  <Multi-SuCOS>  (12) 
0.717202

>  <SLURM_JOB_NAME>  (12) 
BulkDock.place:Flavi_NS5_RdRp:RdRp_knitwork_primer_grip_n_pocket_impure_split4000_batch005

>  <HIPPO Compound ID>  (12) 
9113

>  <original SMILES>  (12) 
c1ccc(-n2cccn2)nc1

>  <name>  (12) 
XXTPHXNBKRVYJI-UHFFFAOYSA-N

>  <HIPPO Pose ID>  (12) 
35482

>  <ref_mols>  (12) 
d0160a,d0191a

>  <exports>  (12) 
['/opt/xchem-fragalysis-2/maxwin/BulkDock/OUTPUTS/RdRp_knitwork_primer_grip_n_pocket_impure_split4000_batch005_211037.sdf', '/opt/xchem-fragalysis-2/maxwin/BulkDock/OUTPUTS/RdRp_knitwork_primer_grip_n_pocket_impure_fragalysis.sdf', '/opt/xchem-fragalysis-2/maxwin/RdRp_FFF/syndirella/Retro_OK_batch1.sdf']

>  <alias>  (12) 
None

>  <inchikey>  (12) 
XXTPHXNBKRVYJI-UHFFFAOYSA-N

>  <energy_score>  (12) 
-26.908495

>  <distance_score>  (12) 
0.977262

>  <fragmenstein_outcome>  (12) 
['acceptable']

>  <merge_set>  (12) 
RdRp_knitwork_primer_grip_n_pocket_impure_fragalysis.sdf

>  <scratch_subdir>  (12) 
['/opt/xchem-fragalysis-2/maxwin/BulkDock/SCRATCH/211037/C9113-P12']

>  <SLURM_JOB_ID>  (12) 
211037

>  <tags>  (12) 
['Fragmenstein placed', 'RdRp_knitwork_primer_grip_n_pocket_impure_fragalysis.sdf Pose OK']

>  <fragmenstein_mode>  (12) 
['expansion']

>  <csv_name>  (12) 
RdRp_knitwork_primer_grip_n_pocket_impure_split4000_batch005.csv

$$$$
FZSXKNJOKINZSF-UHFFFAOYSA-N
     RDKit          3D

 11 12  0  0  0  0  0  0  0  0999 V2000
  -16.1358  -42.5328  -25.6239 C   0  0  0  0  0  0  0  0  0  0  0  0
  -15.2174  -41.5012  -25.4915 C   0  0  0  0  0  0  0  0  0  0  0  0
  -15.6120  -40.1955  -25.7438 C   0  0  0  0  0  0  0  0  0  0  0  0
  -16.9491  -39.9603  -26.0558 C   0  0  0  0  0  0  0  0  0  0  0  0
  -17.5773  -38.6468  -25.8198 C   0  0  0  0  0  0  0  0  0  0  0  0
  -18.6587  -38.1548  -26.4084 N   0  0  0  0  0  0  0  0  0  0  0  0
  -19.1473  -37.1010  -25.6564 C   0  0  0  0  0  0  0  0  0  0  0  0
  -18.3715  -36.6987  -24.5951 C   0  0  0  0  0  0  0  0  0  0  0  0
  -17.0354  -37.7396  -24.4387 S   0  0  0  0  0  0  0  0  0  0  0  0
  -17.8401  -40.9649  -26.2748 N   0  0  0  0  0  0  0  0  0  0  0  0
  -17.4139  -42.2200  -26.0394 C   0  0  0  0  0  0  0  0  0  0  0  0
  1  2  2  0
  2  3  1  0
  3  4  2  0
  4  5  1  0
  5  6  2  0
  6  7  1  0
  7  8  2  0
  8  9  1  0
  4 10  1  0
 10 11  2  0
 11  1  1  0
  9  5  1  0
M  END
>  <fragmenstein_runtime>  (13) 
[1.242509126663208]

>  <original ID>  (13) 
FZSXKNJOKINZSF-UHFFFAOYSA-N

>  <fragmenstein_error>  (13) 
['']

>  <ref_pdb>  (13) 
d0160a

>  <Multi-SuCOS>  (13) 
0.698877

>  <SLURM_JOB_NAME>  (13) 
BulkDock.place:Flavi_NS5_RdRp:RdRp_knitwork_primer_grip_n_pocket_impure_split4000_batch005

>  <HIPPO Compound ID>  (13) 
8457

>  <original SMILES>  (13) 
c1ccc(-c2nccs2)nc1

>  <name>  (13) 
FZSXKNJOKINZSF-UHFFFAOYSA-N

>  <HIPPO Pose ID>  (13) 
35528

>  <ref_mols>  (13) 
d0160a,d0191a

>  <exports>  (13) 
['/opt/xchem-fragalysis-2/maxwin/BulkDock/OUTPUTS/RdRp_knitwork_primer_grip_n_pocket_impure_split4000_batch005_211037.sdf', '/opt/xchem-fragalysis-2/maxwin/BulkDock/OUTPUTS/RdRp_knitwork_primer_grip_n_pocket_impure_fragalysis.sdf', '/opt/xchem-fragalysis-2/maxwin/RdRp_FFF/syndirella/Retro_OK_batch1.sdf']

>  <alias>  (13) 
None

>  <inchikey>  (13) 
FZSXKNJOKINZSF-UHFFFAOYSA-N

>  <energy_score>  (13) 
-68.506611

>  <distance_score>  (13) 
0.982607

>  <fragmenstein_outcome>  (13) 
['acceptable']

>  <merge_set>  (13) 
RdRp_knitwork_primer_grip_n_pocket_impure_fragalysis.sdf

>  <scratch_subdir>  (13) 
['/opt/xchem-fragalysis-2/maxwin/BulkDock/SCRATCH/211037/C8457-P12']

>  <SLURM_JOB_ID>  (13) 
211037

>  <tags>  (13) 
['Fragmenstein placed', 'RdRp_knitwork_primer_grip_n_pocket_impure_fragalysis.sdf Pose OK']

>  <fragmenstein_mode>  (13) 
['expansion']

>  <csv_name>  (13) 
RdRp_knitwork_primer_grip_n_pocket_impure_split4000_batch005.csv

$$$$
KASFEWYKOHRUDR-LBPRGKRZSA-N
     RDKit          3D

 18 19  0  0  0  0  0  0  0  0999 V2000
  -11.1279  -70.5622  -20.7263 C   0  0  0  0  0  0  0  0  0  0  0  0
  -12.5118  -71.0517  -20.5406 N   0  0  0  0  0  0  0  0  0  0  0  0
  -12.6182  -72.2729  -19.7852 C   0  0  0  0  0  0  0  0  0  0  0  0
  -13.3612  -73.3345  -20.2893 C   0  0  0  0  0  0  0  0  0  0  0  0
  -13.4887  -74.4965  -19.5307 C   0  0  0  0  0  0  0  0  0  0  0  0
  -12.8641  -74.5529  -18.2919 C   0  0  0  0  0  0  0  0  0  0  0  0
  -12.1340  -73.5412  -17.7684 N   0  0  0  0  0  0  0  0  0  0  0  0
  -12.0422  -72.4200  -18.5224 C   0  0  0  0  0  0  0  0  0  0  0  0
  -13.6930  -69.8667  -20.2194 S   0  0  0  0  0  0  0  0  0  0  0  0
  -13.1157  -68.5660  -20.4787 O   0  0  0  0  0  0  0  0  0  0  0  0
  -14.3002  -70.1466  -18.9286 O   0  0  0  0  0  0  0  0  0  0  0  0
  -14.9275  -70.1642  -21.4838 C   0  0  0  0  0  0  0  0  0  0  0  0
  -14.6394  -69.5529  -22.8537 C   0  0  0  0  0  0  0  0  0  0  0  0
  -13.3775  -70.0721  -23.5247 C   0  0  2  0  0  0  0  0  0  0  0  0
  -13.2365  -69.7164  -24.9911 C   0  0  0  0  0  0  0  0  0  0  0  0
  -12.1939  -70.7145  -25.4335 C   0  0  0  0  0  0  0  0  0  0  0  0
  -12.5235  -71.9386  -24.6015 C   0  0  0  0  0  0  0  0  0  0  0  0
  -13.3233  -71.5044  -23.4887 O   0  0  0  0  0  0  0  0  0  0  0  0
  1  2  1  0
  2  3  1  0
  3  4  2  0
  4  5  1  0
  5  6  2  0
  6  7  1  0
  7  8  2  0
  2  9  1  0
  9 10  2  0
  9 11  2  0
  9 12  1  0
 12 13  1  0
 14 13  1  6
 14 15  1  0
 15 16  1  0
 16 17  1  0
 17 18  1  0
  8  3  1  0
 18 14  1  0
M  END
>  <fragmenstein_runtime>  (14) 
[1.630157470703125]

>  <original ID>  (14) 
KASFEWYKOHRUDR-LBPRGKRZSA-N

>  <fragmenstein_error>  (14) 
['']

>  <ref_pdb>  (14) 
d0174a

>  <Multi-SuCOS>  (14) 
0.406091

>  <SLURM_JOB_NAME>  (14) 
BulkDock.place:Flavi_NS5_RdRp:RdRp_knitwork_thumb_site_2_pure_split4000_batch001

>  <HIPPO Compound ID>  (14) 
1941

>  <original SMILES>  (14) 
CN(c1cccnc1)S(=O)(=O)CC[C@@H]1CCCO1

>  <name>  (14) 
KASFEWYKOHRUDR-LBPRGKRZSA-N

>  <HIPPO Pose ID>  (14) 
35589

>  <ref_mols>  (14) 
d0174a,d0279a

>  <exports>  (14) 
['/opt/xchem-fragalysis-2/maxwin/BulkDock/OUTPUTS/RdRp_knitwork_thumb_site_2_pure_split4000_batch001_211011.sdf', '/opt/xchem-fragalysis-2/maxwin/BulkDock/OUTPUTS/RdRp_knitwork_thumb_site_2_pure_fragalysis.sdf', '/opt/xchem-fragalysis-2/maxwin/RdRp_FFF/syndirella/Retro_OK_batch1.sdf']

>  <alias>  (14) 
None

>  <inchikey>  (14) 
KASFEWYKOHRUDR-LBPRGKRZSA-N

>  <energy_score>  (14) 
-35.137092

>  <distance_score>  (14) 
0.699835

>  <fragmenstein_outcome>  (14) 
['acceptable']

>  <merge_set>  (14) 
RdRp_knitwork_thumb_site_2_pure_fragalysis.sdf

>  <scratch_subdir>  (14) 
['/opt/xchem-fragalysis-2/maxwin/BulkDock/SCRATCH/211011/C1941-P17']

>  <SLURM_JOB_ID>  (14) 
211011

>  <tags>  (14) 
['RdRp_knitwork_thumb_site_2_pure_fragalysis.sdf Pose OK', 'Fragmenstein placed']

>  <fragmenstein_mode>  (14) 
['expansion']

>  <csv_name>  (14) 
RdRp_knitwork_thumb_site_2_pure_split4000_batch001.csv

$$$$
QRBNIDTXZBTKIO-CQSZACIVSA-N
     RDKit          3D

 21 23  0  0  0  0  0  0  0  0999 V2000
  -24.8037  -62.6263    4.2410 O   0  0  0  0  0  0  0  0  0  0  0  0
  -24.9713  -63.2360    3.1952 C   0  0  0  0  0  0  0  0  0  0  0  0
  -24.2391  -62.9347    1.9152 C   0  0  0  0  0  0  0  0  0  0  0  0
  -25.0724  -62.0176    1.0308 C   0  0  0  0  0  0  0  0  0  0  0  0
  -24.4704  -61.9047   -0.3686 C   0  0  0  0  0  0  0  0  0  0  0  0
  -25.1694  -60.9538   -1.2185 N   0  0  0  0  0  0  0  0  0  0  0  0
  -25.9530  -61.2627   -2.2995 C   0  0  0  0  0  0  0  0  0  0  0  0
  -26.4063  -60.0835   -2.8470 C   0  0  0  0  0  0  0  0  0  0  0  0
  -25.8288  -59.0162   -2.1081 C   0  0  0  0  0  0  0  0  0  0  0  0
  -25.8608  -57.6146   -2.2279 C   0  0  0  0  0  0  0  0  0  0  0  0
  -25.1123  -56.8491   -1.3278 C   0  0  0  0  0  0  0  0  0  0  0  0
  -25.1019  -55.1428   -1.4688 Cl  0  0  0  0  0  0  0  0  0  0  0  0
  -24.3492  -57.4337   -0.3254 C   0  0  0  0  0  0  0  0  0  0  0  0
  -24.3110  -58.8168   -0.1871 C   0  0  0  0  0  0  0  0  0  0  0  0
  -25.0565  -59.5863   -1.0927 C   0  0  0  0  0  0  0  0  0  0  0  0
  -25.8511  -64.2568    3.0031 O   0  0  0  0  0  0  0  0  0  0  0  0
  -26.6300  -64.6296    4.1512 C   0  0  2  0  0  0  0  0  0  0  0  0
  -25.8218  -65.5293    5.0830 C   0  0  0  0  0  0  0  0  0  0  0  0
  -26.7999  -66.0955    6.0938 C   0  0  0  0  0  0  0  0  0  0  0  0
  -28.2914  -66.4702    5.1342 S   0  0  0  0  0  0  0  0  0  0  0  0
  -27.8217  -65.4683    3.6953 C   0  0  0  0  0  0  0  0  0  0  0  0
  1  2  2  0
  2  3  1  0
  3  4  1  0
  4  5  1  0
  5  6  1  0
  6  7  1  0
  7  8  2  0
  8  9  1  0
  9 10  2  0
 10 11  1  0
 11 12  1  0
 11 13  2  0
 13 14  1  0
 14 15  2  0
  2 16  1  0
 17 16  1  6
 17 18  1  0
 18 19  1  0
 19 20  1  0
 20 21  1  0
 15  6  1  0
 21 17  1  0
 15  9  1  0
M  END
>  <fragmenstein_runtime>  (15) 
[2.54469895362854]

>  <original ID>  (15) 
QRBNIDTXZBTKIO-CQSZACIVSA-N

>  <fragmenstein_error>  (15) 
['']

>  <ref_pdb>  (15) 
z0892b

>  <Multi-SuCOS>  (15) 
0.422302

>  <SLURM_JOB_NAME>  (15) 
BulkDock.place:Flavi_NS5_RdRp:RdRp_knitwork_cavity_b_impure_split4000_batch000

>  <HIPPO Compound ID>  (15) 
293

>  <original SMILES>  (15) 
O=C(CCCn1ccc2cc(Cl)ccc21)O[C@@H]1CCSC1

>  <name>  (15) 
QRBNIDTXZBTKIO-CQSZACIVSA-N

>  <HIPPO Pose ID>  (15) 
35862

>  <ref_mols>  (15) 
z0136b,z0892b

>  <exports>  (15) 
['/opt/xchem-fragalysis-2/maxwin/BulkDock/OUTPUTS/RdRp_knitwork_cavity_b_impure_split4000_batch000_211008.sdf', '/opt/xchem-fragalysis-2/maxwin/BulkDock/OUTPUTS/RdRp_knitwork_cavity_b_impure_split4000_batch000_211008_fragalysis.sdf', '/opt/xchem-fragalysis-2/maxwin/RdRp_FFF/syndirella/Retro_OK_batch1.sdf']

>  <alias>  (15) 
None

>  <inchikey>  (15) 
QRBNIDTXZBTKIO-CQSZACIVSA-N

>  <energy_score>  (15) 
-23.46458

>  <distance_score>  (15) 
0.737411

>  <fragmenstein_outcome>  (15) 
['acceptable']

>  <merge_set>  (15) 
RdRp_knitwork_cavity_b_impure

>  <scratch_subdir>  (15) 
['/opt/xchem-fragalysis-2/maxwin/BulkDock/SCRATCH/211008/C293-P174']

>  <SLURM_JOB_ID>  (15) 
211008

>  <tags>  (15) 
['Fragmenstein placed', 'RdRp_knitwork_cavity_b_impure Pose OK']

>  <fragmenstein_mode>  (15) 
['expansion']

>  <csv_name>  (15) 
RdRp_knitwork_cavity_b_impure_split4000_batch000.csv

$$$$
KAFGNTYOOWFSHX-UHFFFAOYSA-N
     RDKit          3D

 20 21  0  0  0  0  0  0  0  0999 V2000
  -14.6855  -69.4381  -22.7780 C   0  0  0  0  0  0  0  0  0  0  0  0
  -15.2184  -69.5907  -21.3684 C   0  0  0  0  0  0  0  0  0  0  0  0
  -13.9351  -69.7814  -20.1390 S   0  0  0  0  0  0  0  0  0  0  0  0
  -13.0448  -68.6488  -20.1971 O   0  0  0  0  0  0  0  0  0  0  0  0
  -14.5475  -70.1813  -18.8864 O   0  0  0  0  0  0  0  0  0  0  0  0
  -13.1176  -71.1352  -20.6653 N   0  0  0  0  0  0  0  0  0  0  0  0
  -11.8594  -70.9676  -21.3969 C   0  0  0  0  0  0  0  0  0  0  0  0
  -10.6340  -71.2049  -20.5481 C   0  0  0  0  0  0  0  0  0  0  0  0
  -10.5720  -70.8041  -19.2056 C   0  0  0  0  0  0  0  0  0  0  0  0
   -9.4026  -70.9678  -18.4659 C   0  0  0  0  0  0  0  0  0  0  0  0
   -8.2669  -71.5082  -19.0691 C   0  0  0  0  0  0  0  0  0  0  0  0
   -7.0122  -71.5162  -18.2831 C   0  0  0  0  0  0  0  0  0  0  0  0
   -7.0655  -71.8949  -17.1159 O   0  0  0  0  0  0  0  0  0  0  0  0
   -5.8803  -71.0131  -18.8832 N   0  0  0  0  0  0  0  0  0  0  0  0
   -5.6776  -70.5506  -20.2143 C   0  0  0  0  0  0  0  0  0  0  0  0
   -4.2326  -70.3786  -19.6377 C   0  0  0  0  0  0  0  0  0  0  0  0
   -3.1920  -69.8882  -20.0036 O   0  0  0  0  0  0  0  0  0  0  0  0
   -4.5991  -70.9808  -18.4402 N   0  0  0  0  0  0  0  0  0  0  0  0
   -8.3348  -71.9720  -20.3826 C   0  0  0  0  0  0  0  0  0  0  0  0
   -9.5018  -71.7944  -21.1254 C   0  0  0  0  0  0  0  0  0  0  0  0
  1  2  1  0
  2  3  1  0
  3  4  2  0
  3  5  2  0
  3  6  1  0
  6  7  1  0
  7  8  1  0
  8  9  2  0
  9 10  1  0
 10 11  2  0
 11 12  1  0
 12 13  2  0
 12 14  1  0
 14 15  1  0
 15 16  1  0
 16 17  2  0
 16 18  1  0
 11 19  1  0
 19 20  2  0
 20  8  1  0
 18 14  1  0
M  END
>  <fragmenstein_runtime>  (16) 
[4.798282146453857]

>  <original ID>  (16) 
KAFGNTYOOWFSHX-UHFFFAOYSA-N

>  <fragmenstein_error>  (16) 
['']

>  <ref_pdb>  (16) 
d0566a

>  <Multi-SuCOS>  (16) 
0.730884

>  <SLURM_JOB_NAME>  (16) 
BulkDock.place:Flavi_NS5_RdRp:RdRp_knitwork_thumb_site_2_impure_split4000_batch001

>  <HIPPO Compound ID>  (16) 
3098

>  <original SMILES>  (16) 
CCS(=O)(=O)NCc1ccc(C(=O)N2CC(=O)N2)cc1

>  <name>  (16) 
KAFGNTYOOWFSHX-UHFFFAOYSA-N

>  <HIPPO Pose ID>  (16) 
35982

>  <ref_mols>  (16) 
d0174a,d0566a

>  <exports>  (16) 
['/opt/xchem-fragalysis-2/maxwin/BulkDock/OUTPUTS/RdRp_knitwork_thumb_site_2_impure_split4000_batch001_211014.sdf', '/opt/xchem-fragalysis-2/maxwin/BulkDock/OUTPUTS/RdRp_knitwork_thumb_site_2_impure_fragalysis.sdf', '/opt/xchem-fragalysis-2/maxwin/RdRp_FFF/syndirella/Retro_OK_batch1.sdf']

>  <alias>  (16) 
None

>  <inchikey>  (16) 
KAFGNTYOOWFSHX-UHFFFAOYSA-N

>  <energy_score>  (16) 
-89.018391

>  <distance_score>  (16) 
0.972484

>  <fragmenstein_outcome>  (16) 
['acceptable']

>  <merge_set>  (16) 
RdRp_knitwork_thumb_site_2_impure_fragalysis.sdf

>  <scratch_subdir>  (16) 
['/opt/xchem-fragalysis-2/maxwin/BulkDock/SCRATCH/211014/C3098-P45']

>  <SLURM_JOB_ID>  (16) 
211014

>  <tags>  (16) 
['Fragmenstein placed', 'RdRp_knitwork_thumb_site_2_impure_fragalysis.sdf Pose OK']

>  <fragmenstein_mode>  (16) 
['expansion']

>  <csv_name>  (16) 
RdRp_knitwork_thumb_site_2_impure_split4000_batch001.csv

$$$$
YOGZHRSNFOZWTM-NGZCFLSTSA-N
     RDKit          3D

 15 16  0  0  0  0  0  0  0  0999 V2000
  -14.5519  -43.4539  -20.4737 C   0  0  0  0  0  0  0  0  0  0  0  0
  -15.5151  -42.9527  -21.5613 C   0  0  2  0  0  0  0  0  0  0  0  0
  -15.8019  -44.0154  -22.5255 N   0  0  0  0  0  0  0  0  0  0  0  0
  -17.0598  -44.7823  -22.4071 C   0  0  2  0  0  0  0  0  0  0  0  0
  -18.2443  -43.9772  -22.9428 C   0  0  0  0  0  0  0  0  0  0  0  0
  -17.4379  -45.5460  -21.1115 C   0  0  2  0  0  0  0  0  0  0  0  0
  -18.0491  -44.7674  -19.9614 C   0  0  0  0  0  0  0  0  0  0  0  0
  -17.8957  -45.7487  -18.8246 C   0  0  0  0  0  0  0  0  0  0  0  0
  -16.5864  -46.4447  -19.1473 C   0  0  0  0  0  0  0  0  0  0  0  0
  -16.3183  -46.2498  -20.5473 O   0  0  0  0  0  0  0  0  0  0  0  0
  -14.9358  -41.7424  -22.2607 C   0  0  0  0  0  0  0  0  0  0  0  0
  -15.1163  -41.2983  -23.5948 C   0  0  0  0  0  0  0  0  0  0  0  0
  -14.5310  -40.1206  -23.8370 N   0  0  0  0  0  0  0  0  0  0  0  0
  -13.9375  -39.8179  -22.6795 N   0  0  0  0  0  0  0  0  0  0  0  0
  -14.1489  -40.7441  -21.7065 C   0  0  0  0  0  0  0  0  0  0  0  0
  2  1  1  1
  2  3  1  0
  3  4  1  0
  4  5  1  1
  4  6  1  0
  6  7  1  1
  7  8  1  0
  8  9  1  0
  9 10  1  0
  2 11  1  0
 11 12  1  0
 12 13  2  0
 13 14  1  0
 14 15  1  0
 10  6  1  0
 15 11  2  0
M  END
>  <fragmenstein_runtime>  (17) 
[3.135244131088257]

>  <original ID>  (17) 
YOGZHRSNFOZWTM-NGZCFLSTSA-N

>  <fragmenstein_error>  (17) 
['']

>  <ref_pdb>  (17) 
d0160a

>  <Multi-SuCOS>  (17) 
0.602577

>  <SLURM_JOB_NAME>  (17) 
BulkDock.place:Flavi_NS5_RdRp:RdRp_knitwork_primer_grip_n_pocket_impure_split4000_batch002

>  <HIPPO Compound ID>  (17) 
13688

>  <original SMILES>  (17) 
C[C@H](N[C@H](C)[C@@H]1CCCO1)c1cn[nH]c1

>  <name>  (17) 
YOGZHRSNFOZWTM-NGZCFLSTSA-N

>  <HIPPO Pose ID>  (17) 
36393

>  <ref_mols>  (17) 
d0160a,d0254a

>  <exports>  (17) 
['/opt/xchem-fragalysis-2/maxwin/BulkDock/OUTPUTS/RdRp_knitwork_primer_grip_n_pocket_impure_split4000_batch002_211034.sdf', '/opt/xchem-fragalysis-2/maxwin/BulkDock/OUTPUTS/RdRp_knitwork_primer_grip_n_pocket_impure_fragalysis.sdf', '/opt/xchem-fragalysis-2/maxwin/RdRp_FFF/syndirella/Retro_OK_batch1.sdf']

>  <alias>  (17) 
None

>  <inchikey>  (17) 
YOGZHRSNFOZWTM-NGZCFLSTSA-N

>  <energy_score>  (17) 
-40.567899

>  <distance_score>  (17) 
0.834605

>  <fragmenstein_outcome>  (17) 
['acceptable']

>  <merge_set>  (17) 
RdRp_knitwork_primer_grip_n_pocket_impure_fragalysis.sdf

>  <scratch_subdir>  (17) 
['/opt/xchem-fragalysis-2/maxwin/BulkDock/SCRATCH/211034/C13688-P12']

>  <SLURM_JOB_ID>  (17) 
211034

>  <tags>  (17) 
['Fragmenstein placed', 'RdRp_knitwork_primer_grip_n_pocket_impure_fragalysis.sdf Pose OK']

>  <fragmenstein_mode>  (17) 
['expansion']

>  <csv_name>  (17) 
RdRp_knitwork_primer_grip_n_pocket_impure_split4000_batch002.csv

$$$$
YOGZHRSNFOZWTM-NGZCFLSTSA-N
     RDKit          3D

 15 16  0  0  0  0  0  0  0  0999 V2000
  -15.2416  -43.0045  -20.1293 C   0  0  0  0  0  0  0  0  0  0  0  0
  -15.7909  -42.7162  -21.5355 C   0  0  2  0  0  0  0  0  0  0  0  0
  -15.7676  -43.9000  -22.3873 N   0  0  0  0  0  0  0  0  0  0  0  0
  -16.9439  -44.7907  -22.4474 C   0  0  2  0  0  0  0  0  0  0  0  0
  -18.1434  -44.1338  -23.1324 C   0  0  0  0  0  0  0  0  0  0  0  0
  -17.3759  -45.6088  -21.2029 C   0  0  2  0  0  0  0  0  0  0  0  0
  -18.3062  -44.9431  -20.2041 C   0  0  0  0  0  0  0  0  0  0  0  0
  -18.1185  -45.8113  -18.9834 C   0  0  0  0  0  0  0  0  0  0  0  0
  -16.6800  -46.2833  -19.0918 C   0  0  0  0  0  0  0  0  0  0  0  0
  -16.2438  -46.0666  -20.4430 O   0  0  0  0  0  0  0  0  0  0  0  0
  -14.9968  -41.6086  -22.1964 C   0  0  0  0  0  0  0  0  0  0  0  0
  -15.2902  -40.9278  -23.4066 C   0  0  0  0  0  0  0  0  0  0  0  0
  -14.4694  -39.8971  -23.6391 N   0  0  0  0  0  0  0  0  0  0  0  0
  -13.6154  -39.9384  -22.6117 N   0  0  0  0  0  0  0  0  0  0  0  0
  -13.8729  -40.9441  -21.7321 C   0  0  0  0  0  0  0  0  0  0  0  0
  2  1  1  1
  2  3  1  0
  3  4  1  0
  4  5  1  1
  4  6  1  0
  6  7  1  1
  7  8  1  0
  8  9  1  0
  9 10  1  0
  2 11  1  0
 11 12  1  0
 12 13  2  0
 13 14  1  0
 14 15  1  0
 10  6  1  0
 15 11  2  0
M  END
>  <fragmenstein_runtime>  (18) 
[3.1487348079681396]

>  <original ID>  (18) 
YOGZHRSNFOZWTM-NGZCFLSTSA-N

>  <fragmenstein_error>  (18) 
['']

>  <ref_pdb>  (18) 
d0254a

>  <Multi-SuCOS>  (18) 
0.636728

>  <SLURM_JOB_NAME>  (18) 
BulkDock.place:Flavi_NS5_RdRp:RdRp_knitwork_primer_grip_n_pocket_impure_split4000_batch002

>  <HIPPO Compound ID>  (18) 
13688

>  <original SMILES>  (18) 
C[C@H](N[C@H](C)[C@@H]1CCCO1)c1cn[nH]c1

>  <name>  (18) 
YOGZHRSNFOZWTM-NGZCFLSTSA-N

>  <HIPPO Pose ID>  (18) 
36395

>  <ref_mols>  (18) 
d0160a,d0254a

>  <exports>  (18) 
['/opt/xchem-fragalysis-2/maxwin/BulkDock/OUTPUTS/RdRp_knitwork_primer_grip_n_pocket_impure_split4000_batch002_211034.sdf', '/opt/xchem-fragalysis-2/maxwin/BulkDock/OUTPUTS/RdRp_knitwork_primer_grip_n_pocket_impure_fragalysis.sdf', '/opt/xchem-fragalysis-2/maxwin/RdRp_FFF/syndirella/Retro_OK_batch1.sdf']

>  <alias>  (18) 
None

>  <inchikey>  (18) 
YOGZHRSNFOZWTM-NGZCFLSTSA-N

>  <energy_score>  (18) 
-40.96788

>  <distance_score>  (18) 
0.799

>  <fragmenstein_outcome>  (18) 
['acceptable']

>  <merge_set>  (18) 
RdRp_knitwork_primer_grip_n_pocket_impure_fragalysis.sdf

>  <scratch_subdir>  (18) 
['/opt/xchem-fragalysis-2/maxwin/BulkDock/SCRATCH/211034/C13688-P26']

>  <SLURM_JOB_ID>  (18) 
211034

>  <tags>  (18) 
['Fragmenstein placed', 'RdRp_knitwork_primer_grip_n_pocket_impure_fragalysis.sdf Pose OK']

>  <fragmenstein_mode>  (18) 
['expansion']

>  <csv_name>  (18) 
RdRp_knitwork_primer_grip_n_pocket_impure_split4000_batch002.csv

$$$$
YVVYLMDYBLZVGB-GHMZBOCLSA-N
     RDKit          3D

 15 16  0  0  0  0  0  0  0  0999 V2000
  -16.5079  -42.2233  -25.4380 C   0  0  0  0  0  0  0  0  0  0  0  0
  -15.8530  -40.9626  -24.9114 C   0  0  0  0  0  0  0  0  0  0  0  0
  -14.7559  -41.2135  -23.8785 C   0  0  1  0  0  0  0  0  0  0  0  0
  -14.0775  -39.9431  -23.6832 O   0  0  0  0  0  0  0  0  0  0  0  0
  -14.0600  -39.6298  -22.2948 C   0  0  0  0  0  0  0  0  0  0  0  0
  -14.2236  -40.9429  -21.5808 C   0  0  0  0  0  0  0  0  0  0  0  0
  -15.1889  -41.7036  -22.4867 C   0  0  2  0  0  0  0  0  0  0  0  0
  -15.0548  -43.2143  -22.2169 C   0  0  0  0  0  0  0  0  0  0  0  0
  -16.0271  -44.0926  -22.8702 N   0  0  0  0  0  0  0  0  0  0  0  0
  -17.3486  -44.1550  -22.2526 C   0  0  0  0  0  0  0  0  0  0  0  0
  -17.3571  -44.8845  -20.9512 C   0  0  0  0  0  0  0  0  0  0  0  0
  -18.2240  -44.6306  -19.8596 C   0  0  0  0  0  0  0  0  0  0  0  0
  -17.9959  -45.4266  -18.8140 N   0  0  0  0  0  0  0  0  0  0  0  0
  -17.0053  -46.2225  -19.2399 N   0  0  0  0  0  0  0  0  0  0  0  0
  -16.5866  -45.9410  -20.5068 C   0  0  0  0  0  0  0  0  0  0  0  0
  1  2  1  0
  3  2  1  6
  3  4  1  0
  4  5  1  0
  5  6  1  0
  6  7  1  0
  7  8  1  6
  8  9  1  0
  9 10  1  0
 10 11  1  0
 11 12  1  0
 12 13  2  0
 13 14  1  0
 14 15  1  0
  7  3  1  0
 15 11  2  0
M  END
>  <fragmenstein_runtime>  (19) 
[6.330092430114746]

>  <original ID>  (19) 
YVVYLMDYBLZVGB-GHMZBOCLSA-N

>  <fragmenstein_error>  (19) 
['']

>  <ref_pdb>  (19) 
d0254a

>  <Multi-SuCOS>  (19) 
0.527143

>  <SLURM_JOB_NAME>  (19) 
BulkDock.place:Flavi_NS5_RdRp:RdRp_knitwork_primer_grip_n_pocket_impure_split4000_batch002

>  <HIPPO Compound ID>  (19) 
15098

>  <original SMILES>  (19) 
CC[C@H]1OCC[C@@H]1CNCc1cn[nH]c1

>  <name>  (19) 
YVVYLMDYBLZVGB-GHMZBOCLSA-N

>  <HIPPO Pose ID>  (19) 
36920

>  <ref_mols>  (19) 
d0160a,d0254a

>  <exports>  (19) 
['/opt/xchem-fragalysis-2/maxwin/BulkDock/OUTPUTS/RdRp_knitwork_primer_grip_n_pocket_impure_split4000_batch002_211034.sdf', '/opt/xchem-fragalysis-2/maxwin/BulkDock/OUTPUTS/RdRp_knitwork_primer_grip_n_pocket_impure_fragalysis.sdf', '/opt/xchem-fragalysis-2/maxwin/RdRp_FFF/syndirella/Retro_OK_batch1.sdf']

>  <alias>  (19) 
None

>  <inchikey>  (19) 
YVVYLMDYBLZVGB-GHMZBOCLSA-N

>  <energy_score>  (19) 
-23.012811

>  <distance_score>  (19) 
0.988307

>  <fragmenstein_outcome>  (19) 
['acceptable']

>  <merge_set>  (19) 
RdRp_knitwork_primer_grip_n_pocket_impure_fragalysis.sdf

>  <scratch_subdir>  (19) 
['/opt/xchem-fragalysis-2/maxwin/BulkDock/SCRATCH/211034/C15098-P26']

>  <SLURM_JOB_ID>  (19) 
211034

>  <tags>  (19) 
['Fragmenstein placed', 'RdRp_knitwork_primer_grip_n_pocket_impure_fragalysis.sdf Pose OK']

>  <fragmenstein_mode>  (19) 
['expansion']

>  <csv_name>  (19) 
RdRp_knitwork_primer_grip_n_pocket_impure_split4000_batch002.csv

$$$$
ZTGAMCFPYFVHLJ-ONGXEEELSA-N
     RDKit          3D

 15 16  0  0  0  0  0  0  0  0999 V2000
  -15.7365  -40.0263  -25.7963 C   0  0  0  0  0  0  0  0  0  0  0  0
  -15.4021  -41.1808  -24.8607 C   0  0  0  0  0  0  0  0  0  0  0  0
  -15.2558  -40.7625  -23.3911 C   0  0  2  0  0  0  0  0  0  0  0  0
  -14.3335  -39.6500  -23.3085 O   0  0  0  0  0  0  0  0  0  0  0  0
  -13.4799  -39.8195  -22.1788 C   0  0  0  0  0  0  0  0  0  0  0  0
  -13.9496  -41.0425  -21.4340 C   0  0  0  0  0  0  0  0  0  0  0  0
  -14.6763  -41.8593  -22.4914 C   0  0  1  0  0  0  0  0  0  0  0  0
  -15.6261  -42.8686  -21.8265 C   0  0  0  0  0  0  0  0  0  0  0  0
  -16.4821  -43.6281  -22.7434 N   0  0  0  0  0  0  0  0  0  0  0  0
  -16.6747  -45.0266  -22.3174 C   0  0  0  0  0  0  0  0  0  0  0  0
  -17.2938  -45.2007  -20.9641 C   0  0  0  0  0  0  0  0  0  0  0  0
  -18.6276  -44.9327  -20.5714 C   0  0  0  0  0  0  0  0  0  0  0  0
  -18.7009  -45.3264  -19.2579 C   0  0  0  0  0  0  0  0  0  0  0  0
  -17.4627  -45.7939  -18.9396 N   0  0  0  0  0  0  0  0  0  0  0  0
  -16.5866  -45.7359  -19.9533 N   0  0  0  0  0  0  0  0  0  0  0  0
  1  2  1  0
  3  2  1  6
  3  4  1  0
  4  5  1  0
  5  6  1  0
  6  7  1  0
  7  8  1  1
  8  9  1  0
  9 10  1  0
 10 11  1  0
 11 12  1  0
 12 13  2  0
 13 14  1  0
 14 15  1  0
  7  3  1  0
 15 11  2  0
M  END
>  <fragmenstein_runtime>  (20) 
[3.7079434394836426]

>  <original ID>  (20) 
ZTGAMCFPYFVHLJ-ONGXEEELSA-N

>  <fragmenstein_error>  (20) 
['']

>  <ref_pdb>  (20) 
d0160a

>  <Multi-SuCOS>  (20) 
0.605302

>  <SLURM_JOB_NAME>  (20) 
BulkDock.place:Flavi_NS5_RdRp:RdRp_knitwork_primer_grip_n_pocket_impure_split4000_batch002

>  <HIPPO Compound ID>  (20) 
18275

>  <original SMILES>  (20) 
CC[C@@H]1OCC[C@H]1CNCc1cc[nH]n1

>  <name>  (20) 
ZTGAMCFPYFVHLJ-ONGXEEELSA-N

>  <HIPPO Pose ID>  (20) 
36923

>  <ref_mols>  (20) 
d0160a,d0254a

>  <exports>  (20) 
['/opt/xchem-fragalysis-2/maxwin/BulkDock/OUTPUTS/RdRp_knitwork_primer_grip_n_pocket_impure_split4000_batch002_211034.sdf', '/opt/xchem-fragalysis-2/maxwin/BulkDock/OUTPUTS/RdRp_knitwork_primer_grip_n_pocket_impure_fragalysis.sdf', '/opt/xchem-fragalysis-2/maxwin/RdRp_FFF/syndirella/Retro_OK_batch1.sdf']

>  <alias>  (20) 
None

>  <inchikey>  (20) 
ZTGAMCFPYFVHLJ-ONGXEEELSA-N

>  <energy_score>  (20) 
-36.108166

>  <distance_score>  (20) 
0.998031

>  <fragmenstein_outcome>  (20) 
['acceptable']

>  <merge_set>  (20) 
RdRp_knitwork_primer_grip_n_pocket_impure_fragalysis.sdf

>  <scratch_subdir>  (20) 
['/opt/xchem-fragalysis-2/maxwin/BulkDock/SCRATCH/211034/C18275-P12']

>  <SLURM_JOB_ID>  (20) 
211034

>  <tags>  (20) 
['Fragmenstein placed', 'RdRp_knitwork_primer_grip_n_pocket_impure_fragalysis.sdf Pose OK']

>  <fragmenstein_mode>  (20) 
['expansion']

>  <csv_name>  (20) 
RdRp_knitwork_primer_grip_n_pocket_impure_split4000_batch002.csv

$$$$
WZRAVWCMDRGDQR-UHFFFAOYSA-N
     RDKit          3D

 11 12  0  0  0  0  0  0  0  0999 V2000
  -26.4873  -61.8512   -3.7862 C   0  0  0  0  0  0  0  0  0  0  0  0
  -26.7136  -60.5532   -3.3874 C   0  0  0  0  0  0  0  0  0  0  0  0
  -25.9966  -60.0940   -2.3010 C   0  0  0  0  0  0  0  0  0  0  0  0
  -26.0984  -58.7860   -1.8658 N   0  0  0  0  0  0  0  0  0  0  0  0
  -25.3257  -58.3924   -0.6790 C   0  0  0  0  0  0  0  0  0  0  0  0
  -24.8099  -56.9965   -1.0015 C   0  0  0  0  0  0  0  0  0  0  0  0
  -25.7887  -56.4865   -2.0366 C   0  0  0  0  0  0  0  0  0  0  0  0
  -26.1071  -57.7229   -2.8618 C   0  0  0  0  0  0  0  0  0  0  0  0
  -25.1792  -60.9164   -1.6341 N   0  0  0  0  0  0  0  0  0  0  0  0
  -25.0561  -62.1650   -2.0895 C   0  0  0  0  0  0  0  0  0  0  0  0
  -25.6491  -62.6829   -3.1659 N   0  0  0  0  0  0  0  0  0  0  0  0
  1  2  2  0
  2  3  1  0
  3  4  1  0
  4  5  1  0
  5  6  1  0
  6  7  1  0
  7  8  1  0
  3  9  2  0
  9 10  1  0
 10 11  2  0
 11  1  1  0
  8  4  1  0
M  END
>  <fragmenstein_runtime>  (21) 
[1.7932722568511963]

>  <original ID>  (21) 
WZRAVWCMDRGDQR-UHFFFAOYSA-N

>  <fragmenstein_error>  (21) 
['']

>  <ref_pdb>  (21) 
z0892b

>  <Multi-SuCOS>  (21) 
0.585647

>  <SLURM_JOB_NAME>  (21) 
BulkDock.place:Flavi_NS5_RdRp:RdRp_knitwork_cavity_b_impure_split4000_batch000

>  <HIPPO Compound ID>  (21) 
341

>  <original SMILES>  (21) 
c1cc(N2CCCC2)ncn1

>  <name>  (21) 
WZRAVWCMDRGDQR-UHFFFAOYSA-N

>  <HIPPO Pose ID>  (21) 
36977

>  <ref_mols>  (21) 
z0892b,z0968a

>  <exports>  (21) 
['/opt/xchem-fragalysis-2/maxwin/BulkDock/OUTPUTS/RdRp_knitwork_cavity_b_impure_split4000_batch000_211008.sdf', '/opt/xchem-fragalysis-2/maxwin/BulkDock/OUTPUTS/RdRp_knitwork_cavity_b_impure_split4000_batch000_211008_fragalysis.sdf', '/opt/xchem-fragalysis-2/maxwin/RdRp_FFF/syndirella/Retro_OK_batch1.sdf']

>  <alias>  (21) 
None

>  <inchikey>  (21) 
WZRAVWCMDRGDQR-UHFFFAOYSA-N

>  <energy_score>  (21) 
-16.91425

>  <distance_score>  (21) 
0.993885

>  <fragmenstein_outcome>  (21) 
['acceptable']

>  <merge_set>  (21) 
RdRp_knitwork_cavity_b_impure

>  <scratch_subdir>  (21) 
['/opt/xchem-fragalysis-2/maxwin/BulkDock/SCRATCH/211008/C341-P174']

>  <SLURM_JOB_ID>  (21) 
211008

>  <tags>  (21) 
['Fragmenstein placed', 'RdRp_knitwork_cavity_b_impure Pose OK']

>  <fragmenstein_mode>  (21) 
['expansion']

>  <csv_name>  (21) 
RdRp_knitwork_cavity_b_impure_split4000_batch000.csv

$$$$
DBTIAPJFFWHBSF-HNNXBMFYSA-N
     RDKit          3D

 22 23  0  0  0  0  0  0  0  0999 V2000
  -13.1113  -70.3306  -20.4080 C   0  0  0  0  0  0  0  0  0  0  0  0
  -12.0330  -71.0500  -21.2185 C   0  0  0  0  0  0  0  0  0  0  0  0
  -12.5525  -72.4149  -21.6798 C   0  0  0  0  0  0  0  0  0  0  0  0
  -10.7102  -71.2117  -20.4925 C   0  0  0  0  0  0  0  0  0  0  0  0
  -10.6039  -71.3494  -19.1025 C   0  0  0  0  0  0  0  0  0  0  0  0
   -9.3527  -71.4988  -18.4921 C   0  0  0  0  0  0  0  0  0  0  0  0
   -8.1855  -71.5187  -19.2583 C   0  0  0  0  0  0  0  0  0  0  0  0
   -6.9163  -71.6658  -18.6017 N   0  0  0  0  0  0  0  0  0  0  0  0
   -6.7027  -72.8424  -17.7442 C   0  0  0  0  0  0  0  0  0  0  0  0
   -5.5648  -70.8133  -19.1705 S   0  0  0  0  0  0  0  0  0  0  0  0
   -6.0065  -69.7270  -20.0131 O   0  0  0  0  0  0  0  0  0  0  0  0
   -4.7008  -70.5765  -18.0369 O   0  0  0  0  0  0  0  0  0  0  0  0
   -4.7725  -72.0036  -20.2356 C   0  0  0  0  0  0  0  0  0  0  0  0
   -3.2486  -72.0042  -20.1866 C   0  0  0  0  0  0  0  0  0  0  0  0
   -2.4557  -70.7805  -20.6833 C   0  0  2  0  0  0  0  0  0  0  0  0
   -2.2734  -69.6797  -19.6304 C   0  0  0  0  0  0  0  0  0  0  0  0
   -1.3921  -68.5684  -20.1836 C   0  0  0  0  0  0  0  0  0  0  0  0
   -1.9621  -68.0649  -21.4989 C   0  0  0  0  0  0  0  0  0  0  0  0
   -2.0973  -69.1364  -22.4428 O   0  0  0  0  0  0  0  0  0  0  0  0
   -2.9752  -70.1624  -21.9779 C   0  0  0  0  0  0  0  0  0  0  0  0
   -8.2956  -71.4408  -20.6448 C   0  0  0  0  0  0  0  0  0  0  0  0
   -9.5372  -71.2667  -21.2542 C   0  0  0  0  0  0  0  0  0  0  0  0
  1  2  1  0
  2  3  1  0
  2  4  1  0
  4  5  2  0
  5  6  1  0
  6  7  2  0
  7  8  1  0
  8  9  1  0
  8 10  1  0
 10 11  2  0
 10 12  2  0
 10 13  1  0
 13 14  1  0
 15 14  1  1
 15 16  1  0
 16 17  1  0
 17 18  1  0
 18 19  1  0
 19 20  1  0
  7 21  1  0
 21 22  2  0
 22  4  1  0
 20 15  1  0
M  END
>  <fragmenstein_runtime>  (22) 
[30.923250198364258]

>  <original ID>  (22) 
DBTIAPJFFWHBSF-HNNXBMFYSA-N

>  <fragmenstein_error>  (22) 
['']

>  <ref_pdb>  (22) 
d0376a

>  <Multi-SuCOS>  (22) 
0.490406

>  <SLURM_JOB_NAME>  (22) 
BulkDock.place:Flavi_NS5_RdRp:RdRp_knitwork_thumb_site_2_pure_split4000_batch000

>  <HIPPO Compound ID>  (22) 
2838

>  <original SMILES>  (22) 
CC(C)c1ccc(N(C)S(=O)(=O)CC[C@@H]2CCCOC2)cc1

>  <name>  (22) 
DBTIAPJFFWHBSF-HNNXBMFYSA-N

>  <HIPPO Pose ID>  (22) 
37652

>  <ref_mols>  (22) 
d0174a,d0376a

>  <exports>  (22) 
['/opt/xchem-fragalysis-2/maxwin/BulkDock/OUTPUTS/RdRp_knitwork_thumb_site_2_pure_split4000_batch000_211010.sdf', '/opt/xchem-fragalysis-2/maxwin/BulkDock/OUTPUTS/RdRp_knitwork_thumb_site_2_pure_fragalysis.sdf', '/opt/xchem-fragalysis-2/maxwin/RdRp_FFF/syndirella/Retro_OK_batch1.sdf']

>  <alias>  (22) 
None

>  <inchikey>  (22) 
DBTIAPJFFWHBSF-HNNXBMFYSA-N

>  <energy_score>  (22) 
-61.555293

>  <distance_score>  (22) 
0.976661

>  <fragmenstein_outcome>  (22) 
['acceptable']

>  <merge_set>  (22) 
RdRp_knitwork_thumb_site_2_pure_fragalysis.sdf

>  <scratch_subdir>  (22) 
['/opt/xchem-fragalysis-2/maxwin/BulkDock/SCRATCH/211010/C2838-P33']

>  <SLURM_JOB_ID>  (22) 
211010

>  <tags>  (22) 
['RdRp_knitwork_thumb_site_2_pure_fragalysis.sdf Pose OK', 'Fragmenstein placed']

>  <fragmenstein_mode>  (22) 
['expansion']

>  <csv_name>  (22) 
RdRp_knitwork_thumb_site_2_pure_split4000_batch000.csv

$$$$
SRYIZWIXZDSVQX-UHFFFAOYSA-N
     RDKit          3D

 23 26  0  0  0  0  0  0  0  0999 V2000
   -6.6425  -72.5849  -17.2996 O   0  0  0  0  0  0  0  0  0  0  0  0
   -7.3424  -72.1193  -18.1940 C   0  0  0  0  0  0  0  0  0  0  0  0
   -8.6992  -71.6729  -17.8478 C   0  0  0  0  0  0  0  0  0  0  0  0
   -9.5294  -71.2150  -18.7819 C   0  0  0  0  0  0  0  0  0  0  0  0
   -9.0433  -71.2000  -20.1832 C   0  0  0  0  0  0  0  0  0  0  0  0
  -10.0223  -70.8101  -21.2444 C   0  0  0  0  0  0  0  0  0  0  0  0
   -9.7518  -71.0954  -22.5877 C   0  0  0  0  0  0  0  0  0  0  0  0
  -10.7018  -70.8134  -23.5656 C   0  0  0  0  0  0  0  0  0  0  0  0
  -11.9082  -70.2607  -23.1715 C   0  0  0  0  0  0  0  0  0  0  0  0
  -12.2052  -69.9581  -21.8911 N   0  0  0  0  0  0  0  0  0  0  0  0
  -11.2555  -70.2309  -20.9635 C   0  0  0  0  0  0  0  0  0  0  0  0
   -7.8402  -71.5593  -20.5222 N   0  0  0  0  0  0  0  0  0  0  0  0
   -6.9811  -71.9891  -19.5208 N   0  0  0  0  0  0  0  0  0  0  0  0
   -5.6171  -72.3362  -19.9084 C   0  0  0  0  0  0  0  0  0  0  0  0
   -4.7650  -71.1172  -20.1231 C   0  0  0  0  0  0  0  0  0  0  0  0
   -5.0233  -69.9923  -19.4507 N   0  0  0  0  0  0  0  0  0  0  0  0
   -4.0255  -68.8060  -20.0024 S   0  0  0  0  0  0  0  0  0  0  0  0
   -3.1409  -69.7632  -21.1003 C   0  0  0  0  0  0  0  0  0  0  0  0
   -2.0959  -69.3935  -21.9590 C   0  0  0  0  0  0  0  0  0  0  0  0
   -1.5439  -70.3845  -22.7751 C   0  0  0  0  0  0  0  0  0  0  0  0
   -1.9901  -71.6989  -22.7134 C   0  0  0  0  0  0  0  0  0  0  0  0
   -3.0335  -72.0500  -21.8531 C   0  0  0  0  0  0  0  0  0  0  0  0
   -3.6400  -71.0650  -21.0365 C   0  0  0  0  0  0  0  0  0  0  0  0
  1  2  2  0
  2  3  1  0
  3  4  2  0
  4  5  1  0
  5  6  1  0
  6  7  2  0
  7  8  1  0
  8  9  2  0
  9 10  1  0
 10 11  2  0
  5 12  2  0
 12 13  1  0
 13 14  1  0
 14 15  1  0
 15 16  2  0
 16 17  1  0
 17 18  1  0
 18 19  2  0
 19 20  1  0
 20 21  2  0
 21 22  1  0
 22 23  2  0
 13  2  1  0
 23 15  1  0
 11  6  1  0
 23 18  1  0
M  END
>  <fragmenstein_runtime>  (23) 
[1.5400981903076172]

>  <original ID>  (23) 
SRYIZWIXZDSVQX-UHFFFAOYSA-N

>  <fragmenstein_error>  (23) 
['']

>  <ref_pdb>  (23) 
d0615a

>  <Multi-SuCOS>  (23) 
0.566179

>  <SLURM_JOB_NAME>  (23) 
BulkDock.place:Flavi_NS5_RdRp:RdRp_knitwork_thumb_site_2_pure_split4000_batch000

>  <HIPPO Compound ID>  (23) 
4745

>  <original SMILES>  (23) 
O=c1ccc(-c2cccnc2)nn1Cc1nsc2ccccc12

>  <name>  (23) 
SRYIZWIXZDSVQX-UHFFFAOYSA-N

>  <HIPPO Pose ID>  (23) 
38398

>  <ref_mols>  (23) 
d0379a,d0615a

>  <exports>  (23) 
['/opt/xchem-fragalysis-2/maxwin/BulkDock/OUTPUTS/RdRp_knitwork_thumb_site_2_pure_split4000_batch000_211010.sdf', '/opt/xchem-fragalysis-2/maxwin/BulkDock/OUTPUTS/RdRp_knitwork_thumb_site_2_pure_fragalysis.sdf', '/opt/xchem-fragalysis-2/maxwin/RdRp_FFF/syndirella/Retro_OK_batch1.sdf']

>  <alias>  (23) 
None

>  <inchikey>  (23) 
SRYIZWIXZDSVQX-UHFFFAOYSA-N

>  <energy_score>  (23) 
-54.107404

>  <distance_score>  (23) 
0.981398

>  <fragmenstein_outcome>  (23) 
['acceptable']

>  <merge_set>  (23) 
RdRp_knitwork_thumb_site_2_pure_fragalysis.sdf

>  <scratch_subdir>  (23) 
['/opt/xchem-fragalysis-2/maxwin/BulkDock/SCRATCH/211010/C4745-P50']

>  <SLURM_JOB_ID>  (23) 
211010

>  <tags>  (23) 
['RdRp_knitwork_thumb_site_2_pure_fragalysis.sdf Pose OK', 'Fragmenstein placed']

>  <fragmenstein_mode>  (23) 
['expansion']

>  <csv_name>  (23) 
RdRp_knitwork_thumb_site_2_pure_split4000_batch000.csv

$$$$
WQFINYMUCSQZFC-UHFFFAOYSA-N
     RDKit          3D

 19 20  0  0  0  0  0  0  0  0999 V2000
   -2.3033  -68.9900  -22.0659 C   0  0  0  0  0  0  0  0  0  0  0  0
   -3.1533  -69.2150  -20.8363 C   0  0  0  0  0  0  0  0  0  0  0  0
   -3.8979  -70.4304  -20.9846 O   0  0  0  0  0  0  0  0  0  0  0  0
   -4.7639  -70.6498  -19.9463 C   0  0  0  0  0  0  0  0  0  0  0  0
   -4.8716  -69.9129  -18.9726 O   0  0  0  0  0  0  0  0  0  0  0  0
   -5.5344  -71.9385  -20.1600 C   0  0  0  0  0  0  0  0  0  0  0  0
   -6.9019  -71.7759  -19.6821 N   0  0  0  0  0  0  0  0  0  0  0  0
   -7.8301  -71.3213  -20.5998 N   0  0  0  0  0  0  0  0  0  0  0  0
   -9.0490  -71.1378  -20.1898 C   0  0  0  0  0  0  0  0  0  0  0  0
  -10.0973  -70.7240  -21.1602 C   0  0  0  0  0  0  0  0  0  0  0  0
   -9.9872  -71.0815  -22.5070 C   0  0  0  0  0  0  0  0  0  0  0  0
  -11.0008  -70.7442  -23.3978 C   0  0  0  0  0  0  0  0  0  0  0  0
  -12.1087  -70.0738  -22.9075 C   0  0  0  0  0  0  0  0  0  0  0  0
  -12.2520  -69.7139  -21.6138 N   0  0  0  0  0  0  0  0  0  0  0  0
  -11.2402  -70.0358  -20.7735 C   0  0  0  0  0  0  0  0  0  0  0  0
   -9.4917  -71.3743  -18.7959 C   0  0  0  0  0  0  0  0  0  0  0  0
   -8.5810  -71.8235  -17.9346 C   0  0  0  0  0  0  0  0  0  0  0  0
   -7.1918  -72.0639  -18.3590 C   0  0  0  0  0  0  0  0  0  0  0  0
   -6.3979  -72.5058  -17.5347 O   0  0  0  0  0  0  0  0  0  0  0  0
  1  2  1  0
  2  3  1  0
  3  4  1  0
  4  5  2  0
  4  6  1  0
  6  7  1  0
  7  8  1  0
  8  9  2  0
  9 10  1  0
 10 11  2  0
 11 12  1  0
 12 13  2  0
 13 14  1  0
 14 15  2  0
  9 16  1  0
 16 17  2  0
 17 18  1  0
 18 19  2  0
 18  7  1  0
 15 10  1  0
M  END
>  <fragmenstein_runtime>  (24) 
[1.3267207145690918]

>  <original ID>  (24) 
WQFINYMUCSQZFC-UHFFFAOYSA-N

>  <fragmenstein_error>  (24) 
['']

>  <ref_pdb>  (24) 
d0379a

>  <Multi-SuCOS>  (24) 
0.680574

>  <SLURM_JOB_NAME>  (24) 
BulkDock.place:Flavi_NS5_RdRp:RdRp_knitwork_thumb_site_2_pure_split4000_batch000

>  <HIPPO Compound ID>  (24) 
5226

>  <original SMILES>  (24) 
CCOC(=O)Cn1nc(-c2cccnc2)ccc1=O

>  <name>  (24) 
WQFINYMUCSQZFC-UHFFFAOYSA-N

>  <HIPPO Pose ID>  (24) 
38666

>  <ref_mols>  (24) 
d0379a,d0615a

>  <exports>  (24) 
['/opt/xchem-fragalysis-2/maxwin/BulkDock/OUTPUTS/RdRp_knitwork_thumb_site_2_pure_split4000_batch000_211010.sdf', '/opt/xchem-fragalysis-2/maxwin/BulkDock/OUTPUTS/RdRp_knitwork_thumb_site_2_pure_fragalysis.sdf', '/opt/xchem-fragalysis-2/maxwin/RdRp_FFF/syndirella/Retro_OK_batch1.sdf']

>  <alias>  (24) 
None

>  <inchikey>  (24) 
WQFINYMUCSQZFC-UHFFFAOYSA-N

>  <energy_score>  (24) 
-81.687098

>  <distance_score>  (24) 
0.985246

>  <fragmenstein_outcome>  (24) 
['acceptable']

>  <merge_set>  (24) 
RdRp_knitwork_thumb_site_2_pure_fragalysis.sdf

>  <scratch_subdir>  (24) 
['/opt/xchem-fragalysis-2/maxwin/BulkDock/SCRATCH/211010/C5226-P35']

>  <SLURM_JOB_ID>  (24) 
211010

>  <tags>  (24) 
['RdRp_knitwork_thumb_site_2_pure_fragalysis.sdf Pose OK', 'Fragmenstein placed']

>  <fragmenstein_mode>  (24) 
['expansion']

>  <csv_name>  (24) 
RdRp_knitwork_thumb_site_2_pure_split4000_batch000.csv

$$$$
LGOSQMUDZURGMS-VIFPVBQESA-N
     RDKit          3D

 11 12  0  0  0  0  0  0  0  0999 V2000
  -15.7179  -40.9893  -24.0596 C   0  0  0  0  0  0  0  0  0  0  0  0
  -16.2289  -39.8536  -24.5567 C   0  0  0  0  0  0  0  0  0  0  0  0
  -16.9137  -39.7623  -25.8995 C   0  0  2  0  0  0  0  0  0  0  0  0
  -18.3183  -39.3635  -25.7385 N   0  0  0  0  0  0  0  0  0  0  0  0
  -18.7858  -38.0728  -25.7310 C   0  0  0  0  0  0  0  0  0  0  0  0
  -20.1488  -38.1549  -25.5725 C   0  0  0  0  0  0  0  0  0  0  0  0
  -20.4136  -39.5331  -25.4842 C   0  0  0  0  0  0  0  0  0  0  0  0
  -19.3052  -40.2704  -25.5750 N   0  0  0  0  0  0  0  0  0  0  0  0
  -16.7193  -41.0247  -26.7626 C   0  0  0  0  0  0  0  0  0  0  0  0
  -16.7848  -42.3145  -25.9446 C   0  0  0  0  0  0  0  0  0  0  0  0
  -15.8089  -42.3084  -24.7639 C   0  0  0  0  0  0  0  0  0  0  0  0
  1  2  2  0
  2  3  1  0
  3  4  1  1
  4  5  1  0
  5  6  2  0
  6  7  1  0
  7  8  2  0
  3  9  1  0
  9 10  1  0
 10 11  1  0
 11  1  1  0
  8  4  1  0
M  END
>  <fragmenstein_runtime>  (25) 
[2.134463310241699]

>  <original ID>  (25) 
LGOSQMUDZURGMS-VIFPVBQESA-N

>  <fragmenstein_error>  (25) 
['']

>  <ref_pdb>  (25) 
d0851a

>  <Multi-SuCOS>  (25) 
0.488039

>  <SLURM_JOB_NAME>  (25) 
BulkDock.place:Flavi_NS5_RdRp:RdRp_knitwork_primer_grip_n_pocket_impure_split4000_batch006

>  <HIPPO Compound ID>  (25) 
646

>  <original SMILES>  (25) 
C1=C[C@H](n2cccn2)CCC1

>  <name>  (25) 
LGOSQMUDZURGMS-VIFPVBQESA-N

>  <HIPPO Pose ID>  (25) 
38898

>  <ref_mols>  (25) 
d0160a,d0851a

>  <exports>  (25) 
['/opt/xchem-fragalysis-2/maxwin/BulkDock/OUTPUTS/RdRp_knitwork_primer_grip_n_pocket_impure_split4000_batch006_211038.sdf', '/opt/xchem-fragalysis-2/maxwin/BulkDock/OUTPUTS/RdRp_knitwork_primer_grip_n_pocket_impure_fragalysis.sdf', '/opt/xchem-fragalysis-2/maxwin/RdRp_FFF/syndirella/Retro_OK_batch1.sdf']

>  <alias>  (25) 
None

>  <inchikey>  (25) 
LGOSQMUDZURGMS-VIFPVBQESA-N

>  <energy_score>  (25) 
-27.057482

>  <distance_score>  (25) 
0.871947

>  <fragmenstein_outcome>  (25) 
['acceptable']

>  <merge_set>  (25) 
RdRp_knitwork_primer_grip_n_pocket_impure_fragalysis.sdf

>  <scratch_subdir>  (25) 
['/opt/xchem-fragalysis-2/maxwin/BulkDock/SCRATCH/211038/C646-P66']

>  <SLURM_JOB_ID>  (25) 
211038

>  <tags>  (25) 
['Fragmenstein placed', 'RdRp_knitwork_primer_grip_n_pocket_impure_fragalysis.sdf Pose OK']

>  <fragmenstein_mode>  (25) 
['expansion']

>  <csv_name>  (25) 
RdRp_knitwork_primer_grip_n_pocket_impure_split4000_batch006.csv

$$$$
IRPJMEHEHAKAJE-LBPRGKRZSA-N
     RDKit          3D

 22 24  0  0  0  0  0  0  0  0999 V2000
  -18.0250  -44.5887  -22.7497 O   0  0  0  0  0  0  0  0  0  0  0  0
  -17.3502  -44.2718  -21.7590 C   0  0  0  0  0  0  0  0  0  0  0  0
  -16.0824  -43.6885  -21.9239 N   0  0  0  0  0  0  0  0  0  0  0  0
  -16.0810  -42.6146  -22.8461 O   0  0  0  0  0  0  0  0  0  0  0  0
  -14.7522  -42.1922  -23.1526 C   0  0  1  0  0  0  0  0  0  0  0  0
  -14.8462  -41.2648  -24.3480 C   0  0  0  0  0  0  0  0  0  0  0  0
  -14.7100  -39.8863  -23.7452 C   0  0  0  0  0  0  0  0  0  0  0  0
  -13.8360  -40.0361  -22.6223 O   0  0  0  0  0  0  0  0  0  0  0  0
  -14.1403  -41.3206  -22.0518 C   0  0  0  0  0  0  0  0  0  0  0  0
  -17.2387  -45.2552  -20.7243 N   0  0  0  0  0  0  0  0  0  0  0  0
  -18.4996  -45.8772  -20.3487 C   0  0  0  0  0  0  0  0  0  0  0  0
  -18.5781  -46.1408  -18.8360 C   0  0  0  0  0  0  0  0  0  0  0  0
  -17.7590  -45.2148  -18.0505 N   0  0  0  0  0  0  0  0  0  0  0  0
  -18.2257  -44.7149  -16.7939 C   0  0  0  0  0  0  0  0  0  0  0  0
  -19.2887  -45.3028  -16.1021 C   0  0  0  0  0  0  0  0  0  0  0  0
  -19.7220  -44.7660  -14.8886 C   0  0  0  0  0  0  0  0  0  0  0  0
  -19.0819  -43.6460  -14.3915 C   0  0  0  0  0  0  0  0  0  0  0  0
  -18.0630  -43.0347  -15.0243 N   0  0  0  0  0  0  0  0  0  0  0  0
  -17.6606  -43.5823  -16.1990 C   0  0  0  0  0  0  0  0  0  0  0  0
  -16.4134  -45.0707  -18.4449 C   0  0  0  0  0  0  0  0  0  0  0  0
  -15.5089  -44.6960  -17.6971 O   0  0  0  0  0  0  0  0  0  0  0  0
  -16.1044  -45.5884  -19.8611 C   0  0  0  0  0  0  0  0  0  0  0  0
  1  2  2  0
  2  3  1  0
  3  4  1  0
  5  4  1  1
  5  6  1  0
  6  7  1  0
  7  8  1  0
  8  9  1  0
  2 10  1  0
 10 11  1  0
 11 12  1  0
 12 13  1  0
 13 14  1  0
 14 15  2  0
 15 16  1  0
 16 17  2  0
 17 18  1  0
 18 19  2  0
 13 20  1  0
 20 21  2  0
 20 22  1  0
  9  5  1  0
 22 10  1  0
 19 14  1  0
M  END
>  <fragmenstein_runtime>  (26) 
[11.819782257080078]

>  <original ID>  (26) 
IRPJMEHEHAKAJE-LBPRGKRZSA-N

>  <fragmenstein_error>  (26) 
['']

>  <ref_pdb>  (26) 
d0160a

>  <Multi-SuCOS>  (26) 
0.415358

>  <SLURM_JOB_NAME>  (26) 
BulkDock.place:Flavi_NS5_RdRp:RdRp_knitwork_primer_grip_n_pocket_impure_split4000_batch002

>  <HIPPO Compound ID>  (26) 
16150

>  <original SMILES>  (26) 
O=C(NO[C@H]1CCOC1)N1CCN(c2cccnc2)C(=O)C1

>  <name>  (26) 
IRPJMEHEHAKAJE-LBPRGKRZSA-N

>  <HIPPO Pose ID>  (26) 
39368

>  <ref_mols>  (26) 
d0160a,d0254a

>  <exports>  (26) 
['/opt/xchem-fragalysis-2/maxwin/BulkDock/OUTPUTS/RdRp_knitwork_primer_grip_n_pocket_impure_split4000_batch002_211034.sdf', '/opt/xchem-fragalysis-2/maxwin/BulkDock/OUTPUTS/RdRp_knitwork_primer_grip_n_pocket_impure_fragalysis.sdf', '/opt/xchem-fragalysis-2/maxwin/RdRp_FFF/syndirella/Retro_OK_batch1.sdf']

>  <alias>  (26) 
None

>  <inchikey>  (26) 
IRPJMEHEHAKAJE-LBPRGKRZSA-N

>  <energy_score>  (26) 
-16.83226

>  <distance_score>  (26) 
0.976622

>  <fragmenstein_outcome>  (26) 
['acceptable']

>  <merge_set>  (26) 
RdRp_knitwork_primer_grip_n_pocket_impure_fragalysis.sdf

>  <scratch_subdir>  (26) 
['/opt/xchem-fragalysis-2/maxwin/BulkDock/SCRATCH/211034/C16150-P12']

>  <SLURM_JOB_ID>  (26) 
211034

>  <tags>  (26) 
['Fragmenstein placed', 'RdRp_knitwork_primer_grip_n_pocket_impure_fragalysis.sdf Pose OK']

>  <fragmenstein_mode>  (26) 
['expansion']

>  <csv_name>  (26) 
RdRp_knitwork_primer_grip_n_pocket_impure_split4000_batch002.csv

$$$$
IYFJGUVPMIFAOX-UHFFFAOYSA-N
     RDKit          3D

 17 18  0  0  0  0  0  0  0  0999 V2000
  -14.5215  -69.4170  -22.7872 C   0  0  0  0  0  0  0  0  0  0  0  0
  -15.0796  -69.7334  -21.4178 C   0  0  0  0  0  0  0  0  0  0  0  0
  -13.8602  -69.7723  -20.1085 S   0  0  0  0  0  0  0  0  0  0  0  0
  -13.0815  -68.5608  -20.1304 O   0  0  0  0  0  0  0  0  0  0  0  0
  -14.5149  -70.1999  -18.8874 O   0  0  0  0  0  0  0  0  0  0  0  0
  -12.8549  -71.0275  -20.5044 N   0  0  0  0  0  0  0  0  0  0  0  0
  -11.7729  -70.8094  -21.4639 C   0  0  0  0  0  0  0  0  0  0  0  0
  -10.4635  -71.0696  -20.8077 C   0  0  0  0  0  0  0  0  0  0  0  0
   -9.3243  -71.2889  -21.4283 N   0  0  0  0  0  0  0  0  0  0  0  0
   -8.3987  -71.4913  -20.4418 C   0  0  0  0  0  0  0  0  0  0  0  0
   -7.0387  -71.7830  -20.5595 C   0  0  0  0  0  0  0  0  0  0  0  0
   -6.2920  -71.9481  -19.4004 C   0  0  0  0  0  0  0  0  0  0  0  0
   -4.6081  -72.2619  -19.5503 Cl  0  0  0  0  0  0  0  0  0  0  0  0
   -6.8971  -71.8920  -18.1458 C   0  0  0  0  0  0  0  0  0  0  0  0
   -8.2644  -71.6114  -18.0045 C   0  0  0  0  0  0  0  0  0  0  0  0
   -8.9798  -71.4020  -19.1823 C   0  0  0  0  0  0  0  0  0  0  0  0
  -10.2896  -71.0950  -19.4426 N   0  0  0  0  0  0  0  0  0  0  0  0
  1  2  1  0
  2  3  1  0
  3  4  2  0
  3  5  2  0
  3  6  1  0
  6  7  1  0
  7  8  1  0
  8  9  2  0
  9 10  1  0
 10 11  2  0
 11 12  1  0
 12 13  1  0
 12 14  2  0
 14 15  1  0
 15 16  2  0
 16 17  1  0
 17  8  1  0
 16 10  1  0
M  END
>  <fragmenstein_runtime>  (27) 
[2.9241421222686768]

>  <original ID>  (27) 
IYFJGUVPMIFAOX-UHFFFAOYSA-N

>  <fragmenstein_error>  (27) 
['']

>  <ref_pdb>  (27) 
d0174a

>  <Multi-SuCOS>  (27) 
0.658673

>  <SLURM_JOB_NAME>  (27) 
BulkDock.place:Flavi_NS5_RdRp:RdRp_knitwork_thumb_site_2_pure_split4000_batch000

>  <HIPPO Compound ID>  (27) 
7755

>  <original SMILES>  (27) 
CCS(=O)(=O)NCc1nc2cc(Cl)ccc2[nH]1

>  <name>  (27) 
IYFJGUVPMIFAOX-UHFFFAOYSA-N

>  <HIPPO Pose ID>  (27) 
39464

>  <ref_mols>  (27) 
d0174a,d0693a

>  <exports>  (27) 
['/opt/xchem-fragalysis-2/maxwin/BulkDock/OUTPUTS/RdRp_knitwork_thumb_site_2_pure_split4000_batch000_211010.sdf', '/opt/xchem-fragalysis-2/maxwin/BulkDock/OUTPUTS/RdRp_knitwork_thumb_site_2_pure_fragalysis.sdf', '/opt/xchem-fragalysis-2/maxwin/RdRp_FFF/syndirella/Retro_OK_batch1.sdf']

>  <alias>  (27) 
None

>  <inchikey>  (27) 
IYFJGUVPMIFAOX-UHFFFAOYSA-N

>  <energy_score>  (27) 
-50.163985

>  <distance_score>  (27) 
0.986828

>  <fragmenstein_outcome>  (27) 
['acceptable']

>  <merge_set>  (27) 
RdRp_knitwork_thumb_site_2_pure_fragalysis.sdf

>  <scratch_subdir>  (27) 
['/opt/xchem-fragalysis-2/maxwin/BulkDock/SCRATCH/211010/C7755-P17']

>  <SLURM_JOB_ID>  (27) 
211010

>  <tags>  (27) 
['RdRp_knitwork_thumb_site_2_pure_fragalysis.sdf Pose OK', 'Fragmenstein placed']

>  <fragmenstein_mode>  (27) 
['expansion']

>  <csv_name>  (27) 
RdRp_knitwork_thumb_site_2_pure_split4000_batch000.csv

$$$$
LJVTWVWWHKILKL-VIFPVBQESA-N
     RDKit          3D

 16 17  0  0  0  0  0  0  0  0999 V2000
   -2.4851  -68.2722  -21.5099 C   0  0  0  0  0  0  0  0  0  0  0  0
   -2.9971  -69.5936  -21.6825 O   0  0  0  0  0  0  0  0  0  0  0  0
   -3.6462  -70.1135  -20.6028 C   0  0  0  0  0  0  0  0  0  0  0  0
   -3.8884  -69.5362  -19.5537 O   0  0  0  0  0  0  0  0  0  0  0  0
   -3.9447  -71.5597  -20.8653 C   0  0  0  0  0  0  0  0  0  0  0  0
   -4.7242  -72.1651  -19.7095 C   0  0  2  0  0  0  0  0  0  0  0  0
   -4.7618  -73.5897  -19.8625 O   0  0  0  0  0  0  0  0  0  0  0  0
   -6.1507  -71.7275  -19.6433 C   0  0  0  0  0  0  0  0  0  0  0  0
   -6.8254  -71.0625  -20.5572 N   0  0  0  0  0  0  0  0  0  0  0  0
   -8.1218  -71.0341  -20.1155 C   0  0  0  0  0  0  0  0  0  0  0  0
   -9.2612  -70.4986  -20.7297 C   0  0  0  0  0  0  0  0  0  0  0  0
  -10.4962  -70.6462  -20.0881 C   0  0  0  0  0  0  0  0  0  0  0  0
  -10.5899  -71.3005  -18.8563 C   0  0  0  0  0  0  0  0  0  0  0  0
   -9.4591  -71.8296  -18.2217 C   0  0  0  0  0  0  0  0  0  0  0  0
   -8.2422  -71.6756  -18.8877 C   0  0  0  0  0  0  0  0  0  0  0  0
   -6.9665  -72.0853  -18.5963 N   0  0  0  0  0  0  0  0  0  0  0  0
  1  2  1  0
  2  3  1  0
  3  4  2  0
  3  5  1  0
  5  6  1  0
  6  7  1  6
  6  8  1  0
  8  9  2  0
  9 10  1  0
 10 11  2  0
 11 12  1  0
 12 13  2  0
 13 14  1  0
 14 15  2  0
 15 16  1  0
 16  8  1  0
 15 10  1  0
M  END
>  <fragmenstein_runtime>  (28) 
[7.721164226531982]

>  <original ID>  (28) 
LJVTWVWWHKILKL-VIFPVBQESA-N

>  <fragmenstein_error>  (28) 
['']

>  <ref_pdb>  (28) 
d0174a

>  <Multi-SuCOS>  (28) 
0.553066

>  <SLURM_JOB_NAME>  (28) 
BulkDock.place:Flavi_NS5_RdRp:RdRp_knitwork_thumb_site_2_impure_split4000_batch000

>  <HIPPO Compound ID>  (28) 
6717

>  <original SMILES>  (28) 
COC(=O)C[C@H](O)c1nc2ccccc2[nH]1

>  <name>  (28) 
LJVTWVWWHKILKL-VIFPVBQESA-N

>  <HIPPO Pose ID>  (28) 
39799

>  <ref_mols>  (28) 
d0174a,d0693a

>  <exports>  (28) 
['/opt/xchem-fragalysis-2/maxwin/BulkDock/OUTPUTS/RdRp_knitwork_thumb_site_2_impure_split4000_batch000_211013.sdf', '/opt/xchem-fragalysis-2/maxwin/BulkDock/OUTPUTS/RdRp_knitwork_thumb_site_2_impure_fragalysis.sdf', '/opt/xchem-fragalysis-2/maxwin/RdRp_FFF/syndirella/Retro_OK_batch1.sdf']

>  <alias>  (28) 
None

>  <inchikey>  (28) 
LJVTWVWWHKILKL-VIFPVBQESA-N

>  <energy_score>  (28) 
-152.783905

>  <distance_score>  (28) 
0.673812

>  <fragmenstein_outcome>  (28) 
['acceptable']

>  <merge_set>  (28) 
RdRp_knitwork_thumb_site_2_impure_fragalysis.sdf

>  <scratch_subdir>  (28) 
['/opt/xchem-fragalysis-2/maxwin/BulkDock/SCRATCH/211013/C6717-P17']

>  <SLURM_JOB_ID>  (28) 
211013

>  <tags>  (28) 
['Fragmenstein placed', 'RdRp_knitwork_thumb_site_2_impure_fragalysis.sdf Pose OK']

>  <fragmenstein_mode>  (28) 
['expansion']

>  <csv_name>  (28) 
RdRp_knitwork_thumb_site_2_impure_split4000_batch000.csv

$$$$
CZGWIYIRARQRDB-UHFFFAOYSA-N
     RDKit          3D

 18 19  0  0  0  0  0  0  0  0999 V2000
  -11.2447  -68.8501  -27.9112 C   0  0  0  0  0  0  0  0  0  0  0  0
  -11.1144  -69.8125  -26.7890 C   0  0  0  0  0  0  0  0  0  0  0  0
  -10.1923  -70.8199  -26.5999 C   0  0  0  0  0  0  0  0  0  0  0  0
  -10.3017  -71.5198  -25.4141 N   0  0  0  0  0  0  0  0  0  0  0  0
  -11.3127  -71.0445  -24.7159 C   0  0  0  0  0  0  0  0  0  0  0  0
  -11.6962  -71.5630  -23.3596 C   0  0  0  0  0  0  0  0  0  0  0  0
  -11.7143  -70.3967  -22.3006 C   0  0  0  0  0  0  0  0  0  0  0  0
  -11.9927  -70.4215  -21.0879 O   0  0  0  0  0  0  0  0  0  0  0  0
  -10.1398  -70.6732  -22.2598 N   0  0  0  0  0  0  0  0  0  0  0  0
   -9.3565  -69.9350  -21.2887 C   0  0  0  0  0  0  0  0  0  0  0  0
   -8.6906  -70.8232  -20.2567 C   0  0  0  0  0  0  0  0  0  0  0  0
   -9.4814  -71.1645  -19.0514 C   0  0  0  0  0  0  0  0  0  0  0  0
   -8.8506  -71.8136  -18.0723 C   0  0  0  0  0  0  0  0  0  0  0  0
   -7.4322  -72.1838  -18.2286 C   0  0  0  0  0  0  0  0  0  0  0  0
   -6.8216  -72.6995  -17.3006 O   0  0  0  0  0  0  0  0  0  0  0  0
   -6.8709  -71.9117  -19.4490 N   0  0  0  0  0  0  0  0  0  0  0  0
   -7.4636  -71.2026  -20.4557 N   0  0  0  0  0  0  0  0  0  0  0  0
  -12.1953  -69.7720  -25.4623 S   0  0  0  0  0  0  0  0  0  0  0  0
  1  2  1  0
  2  3  2  0
  3  4  1  0
  4  5  2  0
  5  6  1  0
  6  7  1  0
  7  8  2  0
  7  9  1  0
  9 10  1  0
 10 11  1  0
 11 12  1  0
 12 13  2  0
 13 14  1  0
 14 15  2  0
 14 16  1  0
 16 17  1  0
  5 18  1  0
 18  2  1  0
 17 11  2  0
M  END
>  <fragmenstein_runtime>  (29) 
[1.4744908809661865]

>  <original ID>  (29) 
CZGWIYIRARQRDB-UHFFFAOYSA-N

>  <fragmenstein_error>  (29) 
['']

>  <ref_pdb>  (29) 
d0379a

>  <Multi-SuCOS>  (29) 
0.468594

>  <SLURM_JOB_NAME>  (29) 
BulkDock.place:Flavi_NS5_RdRp:RdRp_knitwork_thumb_site_2_pure_split4000_batch000

>  <HIPPO Compound ID>  (29) 
1569

>  <original SMILES>  (29) 
Cc1cnc(CC(=O)NCc2ccc(=O)[nH]n2)s1

>  <name>  (29) 
CZGWIYIRARQRDB-UHFFFAOYSA-N

>  <HIPPO Pose ID>  (29) 
40166

>  <ref_mols>  (29) 
d0379a,d0615a

>  <exports>  (29) 
['/opt/xchem-fragalysis-2/maxwin/BulkDock/OUTPUTS/RdRp_knitwork_thumb_site_2_pure_split4000_batch000_211010.sdf', '/opt/xchem-fragalysis-2/maxwin/BulkDock/OUTPUTS/RdRp_knitwork_thumb_site_2_pure_fragalysis.sdf', '/opt/xchem-fragalysis-2/maxwin/RdRp_FFF/syndirella/Retro_OK_batch1.sdf']

>  <alias>  (29) 
None

>  <inchikey>  (29) 
CZGWIYIRARQRDB-UHFFFAOYSA-N

>  <energy_score>  (29) 
-37.924381

>  <distance_score>  (29) 
0.787786

>  <fragmenstein_outcome>  (29) 
['acceptable']

>  <merge_set>  (29) 
RdRp_knitwork_thumb_site_2_pure_fragalysis.sdf

>  <scratch_subdir>  (29) 
['/opt/xchem-fragalysis-2/maxwin/BulkDock/SCRATCH/211010/C1569-P35']

>  <SLURM_JOB_ID>  (29) 
211010

>  <tags>  (29) 
['RdRp_knitwork_thumb_site_2_pure_fragalysis.sdf Pose OK', 'Fragmenstein placed']

>  <fragmenstein_mode>  (29) 
['expansion']

>  <csv_name>  (29) 
RdRp_knitwork_thumb_site_2_pure_split4000_batch000.csv

$$$$
ZWWLQMAPQZXPRQ-UHFFFAOYSA-N
     RDKit          3D

 15 16  0  0  0  0  0  0  0  0999 V2000
  -14.0577  -68.8696  -19.8959 O   0  0  0  0  0  0  0  0  0  0  0  0
  -13.6610  -69.0718  -21.0370 C   0  0  0  0  0  0  0  0  0  0  0  0
  -14.4058  -68.6834  -22.0949 O   0  0  0  0  0  0  0  0  0  0  0  0
  -12.3831  -69.6915  -21.3932 C   0  0  0  0  0  0  0  0  0  0  0  0
  -11.9826  -70.0316  -22.6741 C   0  0  0  0  0  0  0  0  0  0  0  0
  -10.3843  -70.6608  -22.6592 S   0  0  0  0  0  0  0  0  0  0  0  0
  -10.3345  -70.4786  -20.9600 C   0  0  0  0  0  0  0  0  0  0  0  0
   -9.2168  -70.9265  -20.1397 C   0  0  0  0  0  0  0  0  0  0  0  0
   -9.5072  -71.0608  -18.6841 C   0  0  0  0  0  0  0  0  0  0  0  0
   -8.5601  -71.5685  -17.8967 C   0  0  0  0  0  0  0  0  0  0  0  0
   -7.2499  -71.9258  -18.4611 C   0  0  0  0  0  0  0  0  0  0  0  0
   -6.3828  -72.3972  -17.7367 O   0  0  0  0  0  0  0  0  0  0  0  0
   -7.0862  -71.6778  -19.8000 N   0  0  0  0  0  0  0  0  0  0  0  0
   -8.0550  -71.2134  -20.6557 N   0  0  0  0  0  0  0  0  0  0  0  0
  -11.4243  -69.9683  -20.4193 N   0  0  0  0  0  0  0  0  0  0  0  0
  1  2  2  0
  2  3  1  0
  2  4  1  0
  4  5  2  0
  5  6  1  0
  6  7  1  0
  7  8  1  0
  8  9  1  0
  9 10  2  0
 10 11  1  0
 11 12  2  0
 11 13  1  0
 13 14  1  0
  7 15  2  0
 15  4  1  0
 14  8  2  0
M  END
>  <fragmenstein_runtime>  (30) 
[0.9768812656402588]

>  <original ID>  (30) 
ZWWLQMAPQZXPRQ-UHFFFAOYSA-N

>  <fragmenstein_error>  (30) 
['']

>  <ref_pdb>  (30) 
d0379a

>  <Multi-SuCOS>  (30) 
0.502483

>  <SLURM_JOB_NAME>  (30) 
BulkDock.place:Flavi_NS5_RdRp:RdRp_knitwork_thumb_site_2_pure_split4000_batch000

>  <HIPPO Compound ID>  (30) 
1778

>  <original SMILES>  (30) 
O=C(O)c1csc(-c2ccc(=O)[nH]n2)n1

>  <name>  (30) 
ZWWLQMAPQZXPRQ-UHFFFAOYSA-N

>  <HIPPO Pose ID>  (30) 
40314

>  <ref_mols>  (30) 
d0379a,d0615a

>  <exports>  (30) 
['/opt/xchem-fragalysis-2/maxwin/BulkDock/OUTPUTS/RdRp_knitwork_thumb_site_2_pure_split4000_batch000_211010.sdf', '/opt/xchem-fragalysis-2/maxwin/BulkDock/OUTPUTS/RdRp_knitwork_thumb_site_2_pure_fragalysis.sdf', '/opt/xchem-fragalysis-2/maxwin/RdRp_FFF/syndirella/Retro_OK_batch1.sdf']

>  <alias>  (30) 
None

>  <inchikey>  (30) 
ZWWLQMAPQZXPRQ-UHFFFAOYSA-N

>  <energy_score>  (30) 
-79.575035

>  <distance_score>  (30) 
0.655745

>  <fragmenstein_outcome>  (30) 
['acceptable']

>  <merge_set>  (30) 
RdRp_knitwork_thumb_site_2_pure_fragalysis.sdf

>  <scratch_subdir>  (30) 
['/opt/xchem-fragalysis-2/maxwin/BulkDock/SCRATCH/211010/C1778-P35']

>  <SLURM_JOB_ID>  (30) 
211010

>  <tags>  (30) 
['RdRp_knitwork_thumb_site_2_pure_fragalysis.sdf Pose OK', 'Fragmenstein placed']

>  <fragmenstein_mode>  (30) 
['expansion']

>  <csv_name>  (30) 
RdRp_knitwork_thumb_site_2_pure_split4000_batch000.csv

$$$$
ACHLSFBFHYJWMS-UHFFFAOYSA-N
     RDKit          3D

 14 15  0  0  0  0  0  0  0  0999 V2000
  -13.8122  -69.4917  -19.6329 N   0  0  0  0  0  0  0  0  0  0  0  0
  -13.6856  -69.4589  -21.0973 C   0  0  0  0  0  0  0  0  0  0  0  0
  -12.3214  -69.9547  -21.4924 C   0  0  0  0  0  0  0  0  0  0  0  0
  -11.8826  -70.2553  -22.7681 C   0  0  0  0  0  0  0  0  0  0  0  0
  -10.2351  -70.7473  -22.7327 S   0  0  0  0  0  0  0  0  0  0  0  0
  -10.2261  -70.5707  -21.0317 C   0  0  0  0  0  0  0  0  0  0  0  0
   -9.1097  -70.9751  -20.1885 C   0  0  0  0  0  0  0  0  0  0  0  0
   -9.4173  -71.0777  -18.7329 C   0  0  0  0  0  0  0  0  0  0  0  0
   -8.4855  -71.5828  -17.9264 C   0  0  0  0  0  0  0  0  0  0  0  0
   -7.1737  -71.9641  -18.4699 C   0  0  0  0  0  0  0  0  0  0  0  0
   -6.3316  -72.4607  -17.7326 O   0  0  0  0  0  0  0  0  0  0  0  0
   -6.9826  -71.7146  -19.8047 N   0  0  0  0  0  0  0  0  0  0  0  0
   -7.9397  -71.2670  -20.6825 N   0  0  0  0  0  0  0  0  0  0  0  0
  -11.3536  -70.1283  -20.5079 N   0  0  0  0  0  0  0  0  0  0  0  0
  1  2  1  0
  2  3  1  0
  3  4  2  0
  4  5  1  0
  5  6  1  0
  6  7  1  0
  7  8  1  0
  8  9  2  0
  9 10  1  0
 10 11  2  0
 10 12  1  0
 12 13  1  0
  6 14  2  0
 14  3  1  0
 13  7  2  0
M  END
>  <fragmenstein_runtime>  (31) 
[0.9554290771484375]

>  <original ID>  (31) 
ACHLSFBFHYJWMS-UHFFFAOYSA-N

>  <fragmenstein_error>  (31) 
['']

>  <ref_pdb>  (31) 
d0615a

>  <Multi-SuCOS>  (31) 
0.581029

>  <SLURM_JOB_NAME>  (31) 
BulkDock.place:Flavi_NS5_RdRp:RdRp_knitwork_thumb_site_2_pure_split4000_batch000

>  <HIPPO Compound ID>  (31) 
1905

>  <original SMILES>  (31) 
NCc1csc(-c2ccc(=O)[nH]n2)n1

>  <name>  (31) 
ACHLSFBFHYJWMS-UHFFFAOYSA-N

>  <HIPPO Pose ID>  (31) 
40384

>  <ref_mols>  (31) 
d0379a,d0615a

>  <exports>  (31) 
['/opt/xchem-fragalysis-2/maxwin/BulkDock/OUTPUTS/RdRp_knitwork_thumb_site_2_pure_split4000_batch000_211010.sdf', '/opt/xchem-fragalysis-2/maxwin/BulkDock/OUTPUTS/RdRp_knitwork_thumb_site_2_pure_fragalysis.sdf', '/opt/xchem-fragalysis-2/maxwin/RdRp_FFF/syndirella/Retro_OK_batch1.sdf']

>  <alias>  (31) 
None

>  <inchikey>  (31) 
ACHLSFBFHYJWMS-UHFFFAOYSA-N

>  <energy_score>  (31) 
-80.522846

>  <distance_score>  (31) 
0.91452

>  <fragmenstein_outcome>  (31) 
['acceptable']

>  <merge_set>  (31) 
RdRp_knitwork_thumb_site_2_pure_fragalysis.sdf

>  <scratch_subdir>  (31) 
['/opt/xchem-fragalysis-2/maxwin/BulkDock/SCRATCH/211010/C1905-P50']

>  <SLURM_JOB_ID>  (31) 
211010

>  <tags>  (31) 
['RdRp_knitwork_thumb_site_2_pure_fragalysis.sdf Pose OK', 'Fragmenstein placed']

>  <fragmenstein_mode>  (31) 
['expansion']

>  <csv_name>  (31) 
RdRp_knitwork_thumb_site_2_pure_split4000_batch000.csv

$$$$
KUDSYFXDEZNMFY-DOMZBBRYSA-N
     RDKit          3D

 22 24  0  0  0  0  0  0  0  0999 V2000
  -22.0881  -39.0762  -25.7205 C   0  0  0  0  0  0  0  0  0  0  0  0
  -21.6031  -40.5166  -25.9738 C   0  0  2  0  0  0  0  0  0  0  0  0
  -20.1024  -40.5390  -26.3716 C   0  0  0  0  0  0  0  0  0  0  0  0
  -19.1470  -40.0697  -25.2775 C   0  0  0  0  0  0  0  0  0  0  0  0
  -19.5570  -39.7350  -24.1675 O   0  0  0  0  0  0  0  0  0  0  0  0
  -17.7948  -40.0963  -25.5667 N   0  0  0  0  0  0  0  0  0  0  0  0
  -17.1765  -40.6212  -26.7734 C   0  0  0  0  0  0  0  0  0  0  0  0
  -16.4056  -41.8916  -26.3964 C   0  0  0  0  0  0  0  0  0  0  0  0
  -15.6440  -41.7910  -25.1770 O   0  0  0  0  0  0  0  0  0  0  0  0
  -15.4433  -40.4200  -24.7419 C   0  0  2  0  0  0  0  0  0  0  0  0
  -14.6087  -40.3400  -23.4942 C   0  0  0  0  0  0  0  0  0  0  0  0
  -14.4260  -41.3405  -22.5086 C   0  0  0  0  0  0  0  0  0  0  0  0
  -13.5829  -40.7799  -21.5816 C   0  0  0  0  0  0  0  0  0  0  0  0
  -13.3133  -39.5237  -22.0304 N   0  0  0  0  0  0  0  0  0  0  0  0
  -13.9362  -39.2171  -23.1808 N   0  0  0  0  0  0  0  0  0  0  0  0
  -16.8266  -39.7597  -24.5083 C   0  0  0  0  0  0  0  0  0  0  0  0
  -22.5333  -41.2053  -27.0308 C   0  0  0  0  0  0  0  0  0  0  0  0
  -23.9460  -41.4613  -26.4699 C   0  0  0  0  0  0  0  0  0  0  0  0
  -24.8145  -42.2668  -27.4388 C   0  0  0  0  0  0  0  0  0  0  0  0
  -24.1648  -43.5297  -27.8008 N   0  0  0  0  0  0  0  0  0  0  0  0
  -22.9163  -43.2582  -28.5030 C   0  0  0  0  0  0  0  0  0  0  0  0
  -21.9530  -42.5148  -27.5854 C   0  0  0  0  0  0  0  0  0  0  0  0
  2  1  1  6
  2  3  1  0
  3  4  1  0
  4  5  2  0
  4  6  1  0
  6  7  1  0
  7  8  1  0
  8  9  1  0
  9 10  1  0
 10 11  1  1
 11 12  1  0
 12 13  2  0
 13 14  1  0
 14 15  1  0
 10 16  1  0
  2 17  1  0
 17 18  1  0
 18 19  1  0
 19 20  1  0
 20 21  1  0
 21 22  1  0
 16  6  1  0
 22 17  1  0
 15 11  2  0
M  END
>  <fragmenstein_runtime>  (32) 
[3.31825852394104]

>  <original ID>  (32) 
KUDSYFXDEZNMFY-DOMZBBRYSA-N

>  <fragmenstein_error>  (32) 
['']

>  <ref_pdb>  (32) 
d0160a

>  <Multi-SuCOS>  (32) 
0.425028

>  <SLURM_JOB_NAME>  (32) 
BulkDock.place:Flavi_NS5_RdRp:RdRp_knitwork_primer_grip_n_pocket_impure_split4000_batch006

>  <HIPPO Compound ID>  (32) 
8412

>  <original SMILES>  (32) 
C[C@H](CC(=O)N1CCO[C@H](c2cc[nH]n2)C1)C1CCNCC1

>  <name>  (32) 
KUDSYFXDEZNMFY-DOMZBBRYSA-N

>  <HIPPO Pose ID>  (32) 
41179

>  <ref_mols>  (32) 
d0160a,d0851a

>  <exports>  (32) 
['/opt/xchem-fragalysis-2/maxwin/BulkDock/OUTPUTS/RdRp_knitwork_primer_grip_n_pocket_impure_split4000_batch006_211038.sdf', '/opt/xchem-fragalysis-2/maxwin/BulkDock/OUTPUTS/RdRp_knitwork_primer_grip_n_pocket_impure_fragalysis.sdf', '/opt/xchem-fragalysis-2/maxwin/RdRp_FFF/syndirella/Retro_OK_batch1.sdf']

>  <alias>  (32) 
None

>  <inchikey>  (32) 
KUDSYFXDEZNMFY-DOMZBBRYSA-N

>  <energy_score>  (32) 
-49.783545

>  <distance_score>  (32) 
0.802761

>  <fragmenstein_outcome>  (32) 
['acceptable']

>  <merge_set>  (32) 
RdRp_knitwork_primer_grip_n_pocket_impure_fragalysis.sdf

>  <scratch_subdir>  (32) 
['/opt/xchem-fragalysis-2/maxwin/BulkDock/SCRATCH/211038/C8412-P12']

>  <SLURM_JOB_ID>  (32) 
211038

>  <tags>  (32) 
['Fragmenstein placed', 'RdRp_knitwork_primer_grip_n_pocket_impure_fragalysis.sdf Pose OK']

>  <fragmenstein_mode>  (32) 
['expansion']

>  <csv_name>  (32) 
RdRp_knitwork_primer_grip_n_pocket_impure_split4000_batch006.csv

$$$$
BMRWUESAXGNPLO-QGZVFWFLSA-N
     RDKit          3D

 23 25  0  0  0  0  0  0  0  0999 V2000
   -8.7623  -37.8884  -20.0693 C   0  0  0  0  0  0  0  0  0  0  0  0
   -9.8298  -37.3124  -20.7539 C   0  0  0  0  0  0  0  0  0  0  0  0
  -11.1125  -37.8347  -20.6411 C   0  0  0  0  0  0  0  0  0  0  0  0
  -11.3596  -38.9378  -19.8216 C   0  0  0  0  0  0  0  0  0  0  0  0
  -12.7450  -39.5438  -19.6782 C   0  0  1  0  0  0  0  0  0  0  0  0
  -13.8297  -38.5666  -19.4155 N   0  0  0  0  0  0  0  0  0  0  0  0
  -14.4805  -37.9701  -20.5935 C   0  0  0  0  0  0  0  0  0  0  0  0
  -15.8931  -38.5313  -20.7963 C   0  0  0  0  0  0  0  0  0  0  0  0
  -16.5867  -37.9864  -22.0440 C   0  0  0  0  0  0  0  0  0  0  0  0
  -15.9192  -38.4062  -23.2816 N   0  0  0  0  0  0  0  0  0  0  0  0
  -16.6779  -38.3523  -24.4649 C   0  0  0  0  0  0  0  0  0  0  0  0
  -16.3436  -39.1531  -25.5582 C   0  0  0  0  0  0  0  0  0  0  0  0
  -17.1056  -39.0737  -26.7228 C   0  0  0  0  0  0  0  0  0  0  0  0
  -18.1579  -38.2378  -26.8867 N   0  0  0  0  0  0  0  0  0  0  0  0
  -18.4089  -37.4209  -25.8490 C   0  0  0  0  0  0  0  0  0  0  0  0
  -17.7084  -37.4323  -24.6526 C   0  0  0  0  0  0  0  0  0  0  0  0
  -13.0311  -40.5955  -20.7222 C   0  0  0  0  0  0  0  0  0  0  0  0
  -13.7222  -40.4822  -21.8449 N   0  0  0  0  0  0  0  0  0  0  0  0
  -13.9372  -41.7586  -22.2795 C   0  0  0  0  0  0  0  0  0  0  0  0
  -13.2886  -42.6570  -21.4718 C   0  0  0  0  0  0  0  0  0  0  0  0
  -12.6234  -41.8997  -20.5519 N   0  0  0  0  0  0  0  0  0  0  0  0
  -10.2696  -39.5198  -19.1418 C   0  0  0  0  0  0  0  0  0  0  0  0
   -8.9808  -38.9992  -19.2645 C   0  0  0  0  0  0  0  0  0  0  0  0
  1  2  2  0
  2  3  1  0
  3  4  2  0
  4  5  1  0
  5  6  1  6
  6  7  1  0
  7  8  1  0
  8  9  1  0
  9 10  1  0
 10 11  1  0
 11 12  2  0
 12 13  1  0
 13 14  2  0
 14 15  1  0
 15 16  2  0
  5 17  1  0
 17 18  2  0
 18 19  1  0
 19 20  2  0
 20 21  1  0
  4 22  1  0
 22 23  2  0
 23  1  1  0
 16 11  1  0
 21 17  1  0
M  END
>  <fragmenstein_runtime>  (33) 
[6.1579430103302]

>  <original ID>  (33) 
BMRWUESAXGNPLO-QGZVFWFLSA-N

>  <fragmenstein_error>  (33) 
['']

>  <ref_pdb>  (33) 
d0191a

>  <Multi-SuCOS>  (33) 
0.305732

>  <SLURM_JOB_NAME>  (33) 
BulkDock.place:Flavi_NS5_RdRp:RdRp_knitwork_primer_grip_n_pocket_impure_split4000_batch002

>  <HIPPO Compound ID>  (33) 
8711

>  <original SMILES>  (33) 
c1ccc([C@@H](NCCCNc2ccncc2)c2ncc[nH]2)cc1

>  <name>  (33) 
BMRWUESAXGNPLO-QGZVFWFLSA-N

>  <HIPPO Pose ID>  (33) 
41312

>  <ref_mols>  (33) 
d0191a,z0875c

>  <exports>  (33) 
['/opt/xchem-fragalysis-2/maxwin/BulkDock/OUTPUTS/RdRp_knitwork_primer_grip_n_pocket_impure_split4000_batch002_211034.sdf', '/opt/xchem-fragalysis-2/maxwin/BulkDock/OUTPUTS/RdRp_knitwork_primer_grip_n_pocket_impure_fragalysis.sdf', '/opt/xchem-fragalysis-2/maxwin/RdRp_FFF/syndirella/Retro_OK_batch1.sdf']

>  <alias>  (33) 
None

>  <inchikey>  (33) 
BMRWUESAXGNPLO-QGZVFWFLSA-N

>  <energy_score>  (33) 
-22.00663

>  <distance_score>  (33) 
0.900928

>  <fragmenstein_outcome>  (33) 
['acceptable']

>  <merge_set>  (33) 
RdRp_knitwork_primer_grip_n_pocket_impure_fragalysis.sdf

>  <scratch_subdir>  (33) 
['/opt/xchem-fragalysis-2/maxwin/BulkDock/SCRATCH/211034/C8711-P19']

>  <SLURM_JOB_ID>  (33) 
211034

>  <tags>  (33) 
['Fragmenstein placed', 'RdRp_knitwork_primer_grip_n_pocket_impure_fragalysis.sdf Pose OK']

>  <fragmenstein_mode>  (33) 
['expansion']

>  <csv_name>  (33) 
RdRp_knitwork_primer_grip_n_pocket_impure_split4000_batch002.csv

$$$$
IFDYFVJPLPTESE-NSHDSACASA-N
     RDKit          3D

 22 24  0  0  0  0  0  0  0  0999 V2000
  -24.2998  -42.9119  -27.3253 O   0  0  0  0  0  0  0  0  0  0  0  0
  -23.6671  -41.9819  -26.8370 C   0  0  0  0  0  0  0  0  0  0  0  0
  -22.2190  -41.7467  -27.1677 C   0  0  0  0  0  0  0  0  0  0  0  0
  -21.5020  -40.9673  -26.0628 C   0  0  0  0  0  0  0  0  0  0  0  0
  -20.0385  -40.7437  -26.4799 C   0  0  0  0  0  0  0  0  0  0  0  0
  -19.1322  -40.2347  -25.3694 C   0  0  0  0  0  0  0  0  0  0  0  0
  -19.5921  -39.8664  -24.2911 O   0  0  0  0  0  0  0  0  0  0  0  0
  -17.7726  -40.2247  -25.6351 N   0  0  0  0  0  0  0  0  0  0  0  0
  -17.1433  -40.7516  -26.8356 C   0  0  0  0  0  0  0  0  0  0  0  0
  -16.5589  -42.1166  -26.4825 C   0  0  0  0  0  0  0  0  0  0  0  0
  -15.8184  -42.0948  -25.1276 C   0  0  0  0  0  0  0  0  0  0  0  0
  -15.5148  -40.6555  -24.6786 C   0  0  2  0  0  0  0  0  0  0  0  0
  -14.7212  -40.5735  -23.4210 C   0  0  0  0  0  0  0  0  0  0  0  0
  -14.4255  -41.4571  -22.4070 C   0  0  0  0  0  0  0  0  0  0  0  0
  -13.5559  -40.7475  -21.5554 C   0  0  0  0  0  0  0  0  0  0  0  0
  -13.3346  -39.5007  -21.9799 N   0  0  0  0  0  0  0  0  0  0  0  0
  -14.0676  -39.4177  -23.0964 N   0  0  0  0  0  0  0  0  0  0  0  0
  -16.8345  -39.8520  -24.5733 C   0  0  0  0  0  0  0  0  0  0  0  0
  -22.2665  -39.6660  -25.8046 C   0  0  0  0  0  0  0  0  0  0  0  0
  -23.7214  -39.9293  -25.4865 C   0  0  0  0  0  0  0  0  0  0  0  0
  -24.4074  -39.1287  -24.8561 O   0  0  0  0  0  0  0  0  0  0  0  0
  -24.2664  -41.0725  -26.0083 N   0  0  0  0  0  0  0  0  0  0  0  0
  1  2  2  0
  2  3  1  0
  3  4  1  0
  4  5  1  0
  5  6  1  0
  6  7  2  0
  6  8  1  0
  8  9  1  0
  9 10  1  0
 10 11  1  0
 11 12  1  0
 12 13  1  1
 13 14  2  0
 14 15  1  0
 15 16  2  0
 16 17  1  0
 12 18  1  0
  4 19  1  0
 19 20  1  0
 20 21  2  0
 20 22  1  0
 22  2  1  0
 18  8  1  0
 17 13  1  0
M  END
>  <fragmenstein_runtime>  (34) 
[2.9159255027770996]

>  <original ID>  (34) 
IFDYFVJPLPTESE-NSHDSACASA-N

>  <fragmenstein_error>  (34) 
['']

>  <ref_pdb>  (34) 
d0160a

>  <Multi-SuCOS>  (34) 
0.490176

>  <SLURM_JOB_NAME>  (34) 
BulkDock.place:Flavi_NS5_RdRp:RdRp_knitwork_primer_grip_n_pocket_impure_split4000_batch006

>  <HIPPO Compound ID>  (34) 
8618

>  <original SMILES>  (34) 
O=C1CC(CC(=O)N2CCC[C@H](c3ccn[nH]3)C2)CC(=O)N1

>  <name>  (34) 
IFDYFVJPLPTESE-NSHDSACASA-N

>  <HIPPO Pose ID>  (34) 
41372

>  <ref_mols>  (34) 
d0160a,d0851a

>  <exports>  (34) 
['/opt/xchem-fragalysis-2/maxwin/BulkDock/OUTPUTS/RdRp_knitwork_primer_grip_n_pocket_impure_split4000_batch006_211038.sdf', '/opt/xchem-fragalysis-2/maxwin/BulkDock/OUTPUTS/RdRp_knitwork_primer_grip_n_pocket_impure_fragalysis.sdf', '/opt/xchem-fragalysis-2/maxwin/RdRp_FFF/syndirella/Retro_OK_batch1.sdf']

>  <alias>  (34) 
None

>  <inchikey>  (34) 
IFDYFVJPLPTESE-NSHDSACASA-N

>  <energy_score>  (34) 
-48.255499

>  <distance_score>  (34) 
0.723121

>  <fragmenstein_outcome>  (34) 
['acceptable']

>  <merge_set>  (34) 
RdRp_knitwork_primer_grip_n_pocket_impure_fragalysis.sdf

>  <scratch_subdir>  (34) 
['/opt/xchem-fragalysis-2/maxwin/BulkDock/SCRATCH/211038/C8618-P12']

>  <SLURM_JOB_ID>  (34) 
211038

>  <tags>  (34) 
['Fragmenstein placed', 'RdRp_knitwork_primer_grip_n_pocket_impure_fragalysis.sdf Pose OK']

>  <fragmenstein_mode>  (34) 
['expansion']

>  <csv_name>  (34) 
RdRp_knitwork_primer_grip_n_pocket_impure_split4000_batch006.csv

$$$$
IFDYFVJPLPTESE-NSHDSACASA-N
     RDKit          3D

 22 24  0  0  0  0  0  0  0  0999 V2000
  -23.2763  -39.7792  -22.0691 O   0  0  0  0  0  0  0  0  0  0  0  0
  -23.1060  -39.6693  -23.2803 C   0  0  0  0  0  0  0  0  0  0  0  0
  -21.9191  -40.2697  -23.9887 C   0  0  0  0  0  0  0  0  0  0  0  0
  -21.5847  -39.5102  -25.2748 C   0  0  0  0  0  0  0  0  0  0  0  0
  -20.3324  -40.1203  -25.9638 C   0  0  0  0  0  0  0  0  0  0  0  0
  -19.0653  -39.6547  -25.2711 C   0  0  0  0  0  0  0  0  0  0  0  0
  -19.1437  -38.8735  -24.3235 O   0  0  0  0  0  0  0  0  0  0  0  0
  -17.8491  -40.1316  -25.7115 N   0  0  0  0  0  0  0  0  0  0  0  0
  -17.6263  -41.1377  -26.7333 C   0  0  0  0  0  0  0  0  0  0  0  0
  -17.0259  -42.3997  -26.1127 C   0  0  0  0  0  0  0  0  0  0  0  0
  -16.1864  -42.1292  -24.8543 C   0  0  0  0  0  0  0  0  0  0  0  0
  -15.5558  -40.7307  -24.8787 C   0  0  2  0  0  0  0  0  0  0  0  0
  -14.7382  -40.4280  -23.6629 C   0  0  0  0  0  0  0  0  0  0  0  0
  -14.4972  -41.0857  -22.4763 C   0  0  0  0  0  0  0  0  0  0  0  0
  -13.6237  -40.2394  -21.7663 C   0  0  0  0  0  0  0  0  0  0  0  0
  -13.3377  -39.1209  -22.4384 N   0  0  0  0  0  0  0  0  0  0  0  0
  -14.0324  -39.2558  -23.5800 N   0  0  0  0  0  0  0  0  0  0  0  0
  -16.6436  -39.6469  -25.0458 C   0  0  0  0  0  0  0  0  0  0  0  0
  -22.8199  -39.5018  -26.1724 C   0  0  0  0  0  0  0  0  0  0  0  0
  -24.0601  -39.0257  -25.4476 C   0  0  0  0  0  0  0  0  0  0  0  0
  -25.0674  -38.6699  -26.0545 O   0  0  0  0  0  0  0  0  0  0  0  0
  -24.0412  -39.0662  -24.0796 N   0  0  0  0  0  0  0  0  0  0  0  0
  1  2  2  0
  2  3  1  0
  3  4  1  0
  4  5  1  0
  5  6  1  0
  6  7  2  0
  6  8  1  0
  8  9  1  0
  9 10  1  0
 10 11  1  0
 11 12  1  0
 12 13  1  1
 13 14  2  0
 14 15  1  0
 15 16  2  0
 16 17  1  0
 12 18  1  0
  4 19  1  0
 19 20  1  0
 20 21  2  0
 20 22  1  0
 22  2  1  0
 18  8  1  0
 17 13  1  0
M  END
>  <fragmenstein_runtime>  (35) 
[4.065148591995239]

>  <original ID>  (35) 
IFDYFVJPLPTESE-NSHDSACASA-N

>  <fragmenstein_error>  (35) 
['']

>  <ref_pdb>  (35) 
d0851a

>  <Multi-SuCOS>  (35) 
0.480874

>  <SLURM_JOB_NAME>  (35) 
BulkDock.place:Flavi_NS5_RdRp:RdRp_knitwork_primer_grip_n_pocket_impure_split4000_batch006

>  <HIPPO Compound ID>  (35) 
8618

>  <original SMILES>  (35) 
O=C1CC(CC(=O)N2CCC[C@H](c3ccn[nH]3)C2)CC(=O)N1

>  <name>  (35) 
IFDYFVJPLPTESE-NSHDSACASA-N

>  <HIPPO Pose ID>  (35) 
41377

>  <ref_mols>  (35) 
d0160a,d0851a

>  <exports>  (35) 
['/opt/xchem-fragalysis-2/maxwin/BulkDock/OUTPUTS/RdRp_knitwork_primer_grip_n_pocket_impure_split4000_batch006_211038.sdf', '/opt/xchem-fragalysis-2/maxwin/BulkDock/OUTPUTS/RdRp_knitwork_primer_grip_n_pocket_impure_fragalysis.sdf', '/opt/xchem-fragalysis-2/maxwin/RdRp_FFF/syndirella/Retro_OK_batch1.sdf']

>  <alias>  (35) 
None

>  <inchikey>  (35) 
IFDYFVJPLPTESE-NSHDSACASA-N

>  <energy_score>  (35) 
-46.96181

>  <distance_score>  (35) 
0.723414

>  <fragmenstein_outcome>  (35) 
['acceptable']

>  <merge_set>  (35) 
RdRp_knitwork_primer_grip_n_pocket_impure_fragalysis.sdf

>  <scratch_subdir>  (35) 
['/opt/xchem-fragalysis-2/maxwin/BulkDock/SCRATCH/211038/C8618-P66']

>  <SLURM_JOB_ID>  (35) 
211038

>  <tags>  (35) 
['Fragmenstein placed', 'RdRp_knitwork_primer_grip_n_pocket_impure_fragalysis.sdf Pose OK']

>  <fragmenstein_mode>  (35) 
['expansion']

>  <csv_name>  (35) 
RdRp_knitwork_primer_grip_n_pocket_impure_split4000_batch006.csv

$$$$
NKWIUEXWXTXNHS-WDEREUQCSA-N
     RDKit          3D

 20 22  0  0  0  0  0  0  0  0999 V2000
  -23.3125  -37.7583  -22.9071 O   0  0  0  0  0  0  0  0  0  0  0  0
  -22.3010  -38.1502  -23.4808 C   0  0  0  0  0  0  0  0  0  0  0  0
  -21.3556  -37.1886  -24.1565 C   0  0  0  0  0  0  0  0  0  0  0  0
  -20.6135  -37.8555  -25.3019 C   0  0  0  0  0  0  0  0  0  0  0  0
  -19.8834  -39.0975  -24.7815 C   0  0  2  0  0  0  0  0  0  0  0  0
  -19.0551  -39.7263  -25.9159 C   0  0  0  0  0  0  0  0  0  0  0  0
  -18.0195  -40.6539  -25.4588 N   0  0  0  0  0  0  0  0  0  0  0  0
  -17.5123  -41.4942  -26.5377 C   0  0  0  0  0  0  0  0  0  0  0  0
  -16.7289  -42.6681  -25.9498 C   0  0  0  0  0  0  0  0  0  0  0  0
  -15.8780  -42.2927  -24.7325 C   0  0  0  0  0  0  0  0  0  0  0  0
  -15.5987  -40.7903  -24.7175 C   0  0  2  0  0  0  0  0  0  0  0  0
  -14.7440  -40.3608  -23.5717 C   0  0  0  0  0  0  0  0  0  0  0  0
  -14.4315  -40.9214  -22.3528 C   0  0  0  0  0  0  0  0  0  0  0  0
  -13.5467  -40.0061  -21.7541 C   0  0  0  0  0  0  0  0  0  0  0  0
  -13.3271  -38.9322  -22.5184 N   0  0  0  0  0  0  0  0  0  0  0  0
  -14.0638  -39.1742  -23.6176 N   0  0  0  0  0  0  0  0  0  0  0  0
  -16.9307  -39.9997  -24.7164 C   0  0  0  0  0  0  0  0  0  0  0  0
  -20.9229  -40.0596  -24.2182 C   0  0  0  0  0  0  0  0  0  0  0  0
  -20.8646  -41.2792  -24.3327 O   0  0  0  0  0  0  0  0  0  0  0  0
  -21.9468  -39.4762  -23.5025 N   0  0  0  0  0  0  0  0  0  0  0  0
  1  2  2  0
  2  3  1  0
  3  4  1  0
  4  5  1  0
  5  6  1  6
  6  7  1  0
  7  8  1  0
  8  9  1  0
  9 10  1  0
 10 11  1  0
 11 12  1  1
 12 13  2  0
 13 14  1  0
 14 15  2  0
 15 16  1  0
 11 17  1  0
  5 18  1  0
 18 19  2  0
 18 20  1  0
 20  2  1  0
 17  7  1  0
 16 12  1  0
M  END
>  <fragmenstein_runtime>  (36) 
[2.2209980487823486]

>  <original ID>  (36) 
NKWIUEXWXTXNHS-WDEREUQCSA-N

>  <fragmenstein_error>  (36) 
['']

>  <ref_pdb>  (36) 
d0851a

>  <Multi-SuCOS>  (36) 
0.48706

>  <SLURM_JOB_NAME>  (36) 
BulkDock.place:Flavi_NS5_RdRp:RdRp_knitwork_primer_grip_n_pocket_impure_split4000_batch006

>  <HIPPO Compound ID>  (36) 
8625

>  <original SMILES>  (36) 
O=C1CC[C@H](CN2CCC[C@H](c3ccn[nH]3)C2)C(=O)N1

>  <name>  (36) 
NKWIUEXWXTXNHS-WDEREUQCSA-N

>  <HIPPO Pose ID>  (36) 
41379

>  <ref_mols>  (36) 
d0160a,d0851a

>  <exports>  (36) 
['/opt/xchem-fragalysis-2/maxwin/BulkDock/OUTPUTS/RdRp_knitwork_primer_grip_n_pocket_impure_split4000_batch006_211038.sdf', '/opt/xchem-fragalysis-2/maxwin/BulkDock/OUTPUTS/RdRp_knitwork_primer_grip_n_pocket_impure_fragalysis.sdf', '/opt/xchem-fragalysis-2/maxwin/RdRp_FFF/syndirella/Retro_OK_batch1.sdf']

>  <alias>  (36) 
None

>  <inchikey>  (36) 
NKWIUEXWXTXNHS-WDEREUQCSA-N

>  <energy_score>  (36) 
-47.877951

>  <distance_score>  (36) 
0.753243

>  <fragmenstein_outcome>  (36) 
['acceptable']

>  <merge_set>  (36) 
RdRp_knitwork_primer_grip_n_pocket_impure_fragalysis.sdf

>  <scratch_subdir>  (36) 
['/opt/xchem-fragalysis-2/maxwin/BulkDock/SCRATCH/211038/C8625-P66']

>  <SLURM_JOB_ID>  (36) 
211038

>  <tags>  (36) 
['Fragmenstein placed', 'RdRp_knitwork_primer_grip_n_pocket_impure_fragalysis.sdf Pose OK']

>  <fragmenstein_mode>  (36) 
['expansion']

>  <csv_name>  (36) 
RdRp_knitwork_primer_grip_n_pocket_impure_split4000_batch006.csv

$$$$
BMRWUESAXGNPLO-KRWDZBQOSA-N
     RDKit          3D

 23 25  0  0  0  0  0  0  0  0999 V2000
  -17.7647  -37.7409  -25.2811 C   0  0  0  0  0  0  0  0  0  0  0  0
  -16.6594  -38.3688  -25.8476 C   0  0  0  0  0  0  0  0  0  0  0  0
  -15.5685  -38.7195  -25.0476 C   0  0  0  0  0  0  0  0  0  0  0  0
  -15.5603  -38.4490  -23.6682 C   0  0  0  0  0  0  0  0  0  0  0  0
  -14.3557  -38.8638  -22.8231 C   0  0  2  0  0  0  0  0  0  0  0  0
  -14.8151  -39.4358  -21.5531 N   0  0  0  0  0  0  0  0  0  0  0  0
  -14.2482  -40.7418  -21.2791 C   0  0  0  0  0  0  0  0  0  0  0  0
  -12.7669  -40.7122  -20.9052 C   0  0  0  0  0  0  0  0  0  0  0  0
  -12.3835  -42.0248  -20.2325 C   0  0  0  0  0  0  0  0  0  0  0  0
  -12.9860  -43.1285  -20.9632 N   0  0  0  0  0  0  0  0  0  0  0  0
  -13.9968  -43.8977  -20.4038 C   0  0  0  0  0  0  0  0  0  0  0  0
  -14.9478  -44.4570  -21.2584 C   0  0  0  0  0  0  0  0  0  0  0  0
  -15.8944  -45.3205  -20.7369 C   0  0  0  0  0  0  0  0  0  0  0  0
  -15.9380  -45.6837  -19.4381 N   0  0  0  0  0  0  0  0  0  0  0  0
  -15.0216  -45.1161  -18.6275 C   0  0  0  0  0  0  0  0  0  0  0  0
  -14.0410  -44.2394  -19.0586 C   0  0  0  0  0  0  0  0  0  0  0  0
  -13.4008  -37.7364  -22.5128 C   0  0  0  0  0  0  0  0  0  0  0  0
  -12.1101  -37.6801  -22.7923 N   0  0  0  0  0  0  0  0  0  0  0  0
  -11.6520  -36.5266  -22.2058 C   0  0  0  0  0  0  0  0  0  0  0  0
  -12.6793  -35.8495  -21.5980 C   0  0  0  0  0  0  0  0  0  0  0  0
  -13.7873  -36.6144  -21.8180 N   0  0  0  0  0  0  0  0  0  0  0  0
  -16.6925  -37.8228  -23.1152 C   0  0  0  0  0  0  0  0  0  0  0  0
  -17.7820  -37.4684  -23.9156 C   0  0  0  0  0  0  0  0  0  0  0  0
  1  2  2  0
  2  3  1  0
  3  4  2  0
  4  5  1  0
  5  6  1  1
  6  7  1  0
  7  8  1  0
  8  9  1  0
  9 10  1  0
 10 11  1  0
 11 12  2  0
 12 13  1  0
 13 14  2  0
 14 15  1  0
 15 16  2  0
  5 17  1  0
 17 18  2  0
 18 19  1  0
 19 20  2  0
 20 21  1  0
  4 22  1  0
 22 23  2  0
 23  1  1  0
 16 11  1  0
 21 17  1  0
M  END
>  <fragmenstein_runtime>  (37) 
[2.7292873859405518]

>  <original ID>  (37) 
BMRWUESAXGNPLO-KRWDZBQOSA-N

>  <fragmenstein_error>  (37) 
['']

>  <ref_pdb>  (37) 
d0472a

>  <Multi-SuCOS>  (37) 
0.462572

>  <SLURM_JOB_NAME>  (37) 
BulkDock.place:Flavi_NS5_RdRp:RdRp_knitwork_primer_grip_n_pocket_impure_split4000_batch006

>  <HIPPO Compound ID>  (37) 
8711

>  <original SMILES>  (37) 
c1ccc([C@H](NCCCNc2ccncc2)c2ncc[nH]2)cc1

>  <name>  (37) 
BMRWUESAXGNPLO-KRWDZBQOSA-N

>  <HIPPO Pose ID>  (37) 
41596

>  <ref_mols>  (37) 
d0472a,z0103a

>  <exports>  (37) 
['/opt/xchem-fragalysis-2/maxwin/BulkDock/OUTPUTS/RdRp_knitwork_primer_grip_n_pocket_impure_split4000_batch006_211038.sdf', '/opt/xchem-fragalysis-2/maxwin/BulkDock/OUTPUTS/RdRp_knitwork_primer_grip_n_pocket_impure_fragalysis.sdf', '/opt/xchem-fragalysis-2/maxwin/RdRp_FFF/syndirella/Retro_OK_batch1.sdf']

>  <alias>  (37) 
None

>  <inchikey>  (37) 
BMRWUESAXGNPLO-KRWDZBQOSA-N

>  <energy_score>  (37) 
-18.414961

>  <distance_score>  (37) 
0.995842

>  <fragmenstein_outcome>  (37) 
['acceptable']

>  <merge_set>  (37) 
RdRp_knitwork_primer_grip_n_pocket_impure_fragalysis.sdf

>  <scratch_subdir>  (37) 
['/opt/xchem-fragalysis-2/maxwin/BulkDock/SCRATCH/211038/C8711-P42']

>  <SLURM_JOB_ID>  (37) 
211038

>  <tags>  (37) 
['Fragmenstein placed', 'RdRp_knitwork_primer_grip_n_pocket_impure_fragalysis.sdf Pose OK']

>  <fragmenstein_mode>  (37) 
['expansion']

>  <csv_name>  (37) 
RdRp_knitwork_primer_grip_n_pocket_impure_split4000_batch006.csv

$$$$
LGAJFWJWFLCBPR-UHFFFAOYSA-N
     RDKit          3D

 19 20  0  0  0  0  0  0  0  0999 V2000
  -14.6320  -69.4283  -23.1527 C   0  0  0  0  0  0  0  0  0  0  0  0
  -14.2442  -70.8595  -22.7099 C   0  0  0  0  0  0  0  0  0  0  0  0
  -15.3983  -71.3797  -21.8388 C   0  0  0  0  0  0  0  0  0  0  0  0
  -14.1053  -71.8049  -23.9342 C   0  0  0  0  0  0  0  0  0  0  0  0
  -13.1713  -71.3567  -24.9044 O   0  0  0  0  0  0  0  0  0  0  0  0
  -13.0069  -70.9022  -21.8630 N   0  0  0  0  0  0  0  0  0  0  0  0
  -11.9572  -69.8597  -22.0187 C   0  0  0  0  0  0  0  0  0  0  0  0
  -11.8285  -69.8831  -23.2617 O   0  0  0  0  0  0  0  0  0  0  0  0
  -11.2271  -70.6554  -20.9928 C   0  0  0  0  0  0  0  0  0  0  0  0
  -11.2146  -70.5302  -19.6113 C   0  0  0  0  0  0  0  0  0  0  0  0
  -10.0291  -70.9123  -18.9829 N   0  0  0  0  0  0  0  0  0  0  0  0
   -9.1574  -71.2613  -19.9073 C   0  0  0  0  0  0  0  0  0  0  0  0
   -7.7285  -71.1982  -19.7691 C   0  0  0  0  0  0  0  0  0  0  0  0
   -6.9382  -70.2648  -20.4208 C   0  0  0  0  0  0  0  0  0  0  0  0
   -5.5510  -70.5309  -20.2963 C   0  0  0  0  0  0  0  0  0  0  0  0
   -5.3433  -71.6511  -19.5445 C   0  0  0  0  0  0  0  0  0  0  0  0
   -3.8237  -72.3928  -19.2821 Cl  0  0  0  0  0  0  0  0  0  0  0  0
   -6.7649  -72.2908  -18.8808 S   0  0  0  0  0  0  0  0  0  0  0  0
   -9.8071  -71.4857  -21.4883 S   0  0  0  0  0  0  0  0  0  0  0  0
  1  2  1  0
  2  3  1  0
  2  4  1  0
  4  5  1  0
  2  6  1  0
  6  7  1  0
  7  8  2  0
  7  9  1  0
  9 10  2  0
 10 11  1  0
 11 12  2  0
 12 13  1  0
 13 14  2  0
 14 15  1  0
 15 16  2  0
 16 17  1  0
 16 18  1  0
 12 19  1  0
 19  9  1  0
 18 13  1  0
M  END
>  <fragmenstein_runtime>  (38) 
[2.4309237003326416]

>  <original ID>  (38) 
LGAJFWJWFLCBPR-UHFFFAOYSA-N

>  <fragmenstein_error>  (38) 
['']

>  <ref_pdb>  (38) 
d0248a

>  <Multi-SuCOS>  (38) 
0.711729

>  <SLURM_JOB_NAME>  (38) 
BulkDock.place:Flavi_NS5_RdRp:RdRp_knitwork_thumb_site_2_pure_split4000_batch000

>  <HIPPO Compound ID>  (38) 
1226

>  <original SMILES>  (38) 
CC(C)(CO)NC(=O)c1cnc(-c2ccc(Cl)s2)s1

>  <name>  (38) 
LGAJFWJWFLCBPR-UHFFFAOYSA-N

>  <HIPPO Pose ID>  (38) 
41842

>  <ref_mols>  (38) 
d0248a,d0376a,d0615a

>  <exports>  (38) 
['/opt/xchem-fragalysis-2/maxwin/BulkDock/OUTPUTS/RdRp_knitwork_thumb_site_2_pure_split4000_batch000_211010.sdf', '/opt/xchem-fragalysis-2/maxwin/BulkDock/OUTPUTS/RdRp_knitwork_thumb_site_2_pure_fragalysis.sdf', '/opt/xchem-fragalysis-2/maxwin/RdRp_FFF/syndirella/Retro_OK_batch1.sdf']

>  <alias>  (38) 
None

>  <inchikey>  (38) 
LGAJFWJWFLCBPR-UHFFFAOYSA-N

>  <energy_score>  (38) 
-36.203454

>  <distance_score>  (38) 
0.90489

>  <fragmenstein_outcome>  (38) 
['acceptable']

>  <merge_set>  (38) 
RdRp_knitwork_thumb_site_2_pure_fragalysis.sdf

>  <scratch_subdir>  (38) 
['/opt/xchem-fragalysis-2/maxwin/BulkDock/SCRATCH/211010/C1226-P22']

>  <SLURM_JOB_ID>  (38) 
211010

>  <tags>  (38) 
['RdRp_knitwork_thumb_site_2_pure_fragalysis.sdf Pose OK', 'Fragmenstein placed']

>  <fragmenstein_mode>  (38) 
['expansion']

>  <csv_name>  (38) 
RdRp_knitwork_thumb_site_2_pure_split4000_batch000.csv

$$$$
AKRKZZAARJVRCB-UHFFFAOYSA-N
     RDKit          3D

 20 21  0  0  0  0  0  0  0  0999 V2000
  -12.4401  -34.9681  -18.6873 C   0  0  0  0  0  0  0  0  0  0  0  0
  -12.9341  -34.5831  -20.0843 C   0  0  0  0  0  0  0  0  0  0  0  0
  -12.3341  -33.2442  -20.5046 C   0  0  0  0  0  0  0  0  0  0  0  0
  -12.6713  -35.6838  -21.0685 C   0  0  0  0  0  0  0  0  0  0  0  0
  -11.4814  -36.1669  -21.5657 C   0  0  0  0  0  0  0  0  0  0  0  0
  -11.8110  -37.2859  -22.2781 N   0  0  0  0  0  0  0  0  0  0  0  0
  -13.1746  -37.4340  -22.2238 C   0  0  0  0  0  0  0  0  0  0  0  0
  -13.9115  -38.5680  -22.8650 C   0  0  0  0  0  0  0  0  0  0  0  0
  -14.6567  -39.2991  -21.8598 N   0  0  0  0  0  0  0  0  0  0  0  0
  -14.1469  -40.6190  -21.5490 C   0  0  0  0  0  0  0  0  0  0  0  0
  -12.7369  -40.6306  -20.9576 C   0  0  0  0  0  0  0  0  0  0  0  0
  -12.4965  -41.9416  -20.2145 C   0  0  0  0  0  0  0  0  0  0  0  0
  -13.0356  -43.0480  -20.9951 N   0  0  0  0  0  0  0  0  0  0  0  0
  -14.0289  -43.8478  -20.4323 C   0  0  0  0  0  0  0  0  0  0  0  0
  -14.0275  -44.2307  -19.0901 C   0  0  0  0  0  0  0  0  0  0  0  0
  -14.9885  -45.1154  -18.5998 C   0  0  0  0  0  0  0  0  0  0  0  0
  -15.9480  -45.6481  -19.4561 C   0  0  0  0  0  0  0  0  0  0  0  0
  -15.9497  -45.2935  -20.8017 C   0  0  0  0  0  0  0  0  0  0  0  0
  -14.9863  -44.4083  -21.2862 C   0  0  0  0  0  0  0  0  0  0  0  0
  -13.7129  -36.4396  -21.5452 N   0  0  0  0  0  0  0  0  0  0  0  0
  1  2  1  0
  2  3  1  0
  2  4  1  0
  4  5  2  0
  5  6  1  0
  6  7  1  0
  7  8  1  0
  8  9  1  0
  9 10  1  0
 10 11  1  0
 11 12  1  0
 12 13  1  0
 13 14  1  0
 14 15  2  0
 15 16  1  0
 16 17  2  0
 17 18  1  0
 18 19  2  0
  7 20  2  0
 20  4  1  0
 19 14  1  0
M  END
>  <fragmenstein_runtime>  (39) 
[5.840334415435791]

>  <original ID>  (39) 
AKRKZZAARJVRCB-UHFFFAOYSA-N

>  <fragmenstein_error>  (39) 
['']

>  <ref_pdb>  (39) 
d0472a

>  <Multi-SuCOS>  (39) 
0.406309

>  <SLURM_JOB_NAME>  (39) 
BulkDock.place:Flavi_NS5_RdRp:RdRp_knitwork_primer_grip_n_pocket_impure_split4000_batch006

>  <HIPPO Compound ID>  (39) 
8706

>  <original SMILES>  (39) 
CC(C)c1c[nH]c(CNCCCNc2ccccc2)n1

>  <name>  (39) 
AKRKZZAARJVRCB-UHFFFAOYSA-N

>  <HIPPO Pose ID>  (39) 
41945

>  <ref_mols>  (39) 
d0472a,z0103a

>  <exports>  (39) 
['/opt/xchem-fragalysis-2/maxwin/BulkDock/OUTPUTS/RdRp_knitwork_primer_grip_n_pocket_impure_split4000_batch006_211038.sdf', '/opt/xchem-fragalysis-2/maxwin/BulkDock/OUTPUTS/RdRp_knitwork_primer_grip_n_pocket_impure_fragalysis.sdf', '/opt/xchem-fragalysis-2/maxwin/RdRp_FFF/syndirella/Retro_OK_batch1.sdf']

>  <alias>  (39) 
None

>  <inchikey>  (39) 
AKRKZZAARJVRCB-UHFFFAOYSA-N

>  <energy_score>  (39) 
-18.899672

>  <distance_score>  (39) 
0.974442

>  <fragmenstein_outcome>  (39) 
['acceptable']

>  <merge_set>  (39) 
RdRp_knitwork_primer_grip_n_pocket_impure_fragalysis.sdf

>  <scratch_subdir>  (39) 
['/opt/xchem-fragalysis-2/maxwin/BulkDock/SCRATCH/211038/C8706-P42']

>  <SLURM_JOB_ID>  (39) 
211038

>  <tags>  (39) 
['Fragmenstein placed', 'RdRp_knitwork_primer_grip_n_pocket_impure_fragalysis.sdf Pose OK']

>  <fragmenstein_mode>  (39) 
['expansion']

>  <csv_name>  (39) 
RdRp_knitwork_primer_grip_n_pocket_impure_split4000_batch006.csv

$$$$
FUWSPQRSVMNQLD-INIZCTEOSA-N
     RDKit          3D

 24 26  0  0  0  0  0  0  0  0999 V2000
  -15.3905  -69.9645  -22.6276 C   0  0  0  0  0  0  0  0  0  0  0  0
  -14.6850  -68.9275  -21.7884 C   0  0  0  0  0  0  0  0  0  0  0  0
  -13.8422  -69.5912  -20.3594 S   0  0  0  0  0  0  0  0  0  0  0  0
  -12.8001  -68.6678  -19.9822 O   0  0  0  0  0  0  0  0  0  0  0  0
  -14.8051  -70.0486  -19.3801 O   0  0  0  0  0  0  0  0  0  0  0  0
  -13.1220  -70.9745  -20.9545 N   0  0  0  0  0  0  0  0  0  0  0  0
  -11.7426  -70.9189  -21.4378 C   0  0  0  0  0  0  0  0  0  0  0  0
  -10.7497  -71.5293  -20.4345 C   0  0  2  0  0  0  0  0  0  0  0  0
  -11.1775  -71.4458  -18.9605 C   0  0  0  0  0  0  0  0  0  0  0  0
  -10.0743  -71.9549  -18.0438 C   0  0  0  0  0  0  0  0  0  0  0  0
   -8.7870  -71.1935  -18.3190 C   0  0  0  0  0  0  0  0  0  0  0  0
   -8.3660  -71.4032  -19.7087 N   0  0  0  0  0  0  0  0  0  0  0  0
   -7.0615  -70.7803  -19.9980 C   0  0  0  0  0  0  0  0  0  0  0  0
   -5.8362  -71.4816  -19.4448 C   0  0  0  0  0  0  0  0  0  0  0  0
   -5.9587  -72.6973  -18.7482 C   0  0  0  0  0  0  0  0  0  0  0  0
   -4.8452  -73.3504  -18.2442 C   0  0  0  0  0  0  0  0  0  0  0  0
   -3.5800  -72.8324  -18.4816 C   0  0  0  0  0  0  0  0  0  0  0  0
   -3.4098  -71.6566  -19.2213 C   0  0  0  0  0  0  0  0  0  0  0  0
   -2.1136  -71.1896  -19.4826 C   0  0  0  0  0  0  0  0  0  0  0  0
   -1.9035  -70.0230  -20.2107 C   0  0  0  0  0  0  0  0  0  0  0  0
   -2.9911  -69.3041  -20.6810 C   0  0  0  0  0  0  0  0  0  0  0  0
   -4.2868  -69.7513  -20.4116 C   0  0  0  0  0  0  0  0  0  0  0  0
   -4.5356  -70.9475  -19.6995 C   0  0  0  0  0  0  0  0  0  0  0  0
   -9.3746  -70.8704  -20.6386 C   0  0  0  0  0  0  0  0  0  0  0  0
  1  2  1  0
  2  3  1  0
  3  4  2  0
  3  5  2  0
  3  6  1  0
  6  7  1  0
  8  7  1  6
  8  9  1  0
  9 10  1  0
 10 11  1  0
 11 12  1  0
 12 13  1  0
 13 14  1  0
 14 15  2  0
 15 16  1  0
 16 17  2  0
 17 18  1  0
 18 19  2  0
 19 20  1  0
 20 21  2  0
 21 22  1  0
 22 23  2  0
 12 24  1  0
 24  8  1  0
 23 14  1  0
 23 18  1  0
M  END
>  <fragmenstein_runtime>  (40) 
[29.226440906524658]

>  <original ID>  (40) 
FUWSPQRSVMNQLD-INIZCTEOSA-N

>  <fragmenstein_error>  (40) 
['']

>  <ref_pdb>  (40) 
d0174a

>  <Multi-SuCOS>  (40) 
0.539943

>  <SLURM_JOB_NAME>  (40) 
BulkDock.place:Flavi_NS5_RdRp:RdRp_knitwork_thumb_site_2_impure_split4000_batch001

>  <HIPPO Compound ID>  (40) 
1191

>  <original SMILES>  (40) 
CCS(=O)(=O)NC[C@@H]1CCCN(Cc2cccc3ccccc23)C1

>  <name>  (40) 
FUWSPQRSVMNQLD-INIZCTEOSA-N

>  <HIPPO Pose ID>  (40) 
42983

>  <ref_mols>  (40) 
d0174a,d0787a

>  <exports>  (40) 
['/opt/xchem-fragalysis-2/maxwin/BulkDock/OUTPUTS/RdRp_knitwork_thumb_site_2_impure_split4000_batch001_211014.sdf', '/opt/xchem-fragalysis-2/maxwin/BulkDock/OUTPUTS/RdRp_knitwork_thumb_site_2_impure_fragalysis.sdf', '/opt/xchem-fragalysis-2/maxwin/RdRp_FFF/syndirella/Retro_OK_batch1.sdf']

>  <alias>  (40) 
None

>  <inchikey>  (40) 
FUWSPQRSVMNQLD-INIZCTEOSA-N

>  <energy_score>  (40) 
-56.453073

>  <distance_score>  (40) 
0.996182

>  <fragmenstein_outcome>  (40) 
['acceptable']

>  <merge_set>  (40) 
RdRp_knitwork_thumb_site_2_impure_fragalysis.sdf

>  <scratch_subdir>  (40) 
['/opt/xchem-fragalysis-2/maxwin/BulkDock/SCRATCH/211014/C1191-P17']

>  <SLURM_JOB_ID>  (40) 
211014

>  <tags>  (40) 
['Fragmenstein placed', 'RdRp_knitwork_thumb_site_2_impure_fragalysis.sdf Pose OK']

>  <fragmenstein_mode>  (40) 
['expansion']

>  <csv_name>  (40) 
RdRp_knitwork_thumb_site_2_impure_split4000_batch001.csv

$$$$
XVJIJJLKVJOXLC-UHFFFAOYSA-N
     RDKit          3D

 22 24  0  0  0  0  0  0  0  0999 V2000
  -17.9195  -43.3691  -23.1006 C   0  0  0  0  0  0  0  0  0  0  0  0
  -17.6811  -42.7979  -21.7858 N   0  0  0  0  0  0  0  0  0  0  0  0
  -18.8216  -42.7442  -20.8726 C   0  0  0  0  0  0  0  0  0  0  0  0
  -19.0635  -44.0823  -20.2358 C   0  0  0  0  0  0  0  0  0  0  0  0
  -19.3704  -44.3303  -18.8757 C   0  0  0  0  0  0  0  0  0  0  0  0
  -19.4510  -45.6950  -18.7696 C   0  0  0  0  0  0  0  0  0  0  0  0
  -19.2013  -46.1857  -20.0168 N   0  0  0  0  0  0  0  0  0  0  0  0
  -19.0072  -45.2263  -20.9379 N   0  0  0  0  0  0  0  0  0  0  0  0
  -16.4247  -42.4897  -21.2800 C   0  0  0  0  0  0  0  0  0  0  0  0
  -16.2894  -42.0921  -20.1178 O   0  0  0  0  0  0  0  0  0  0  0  0
  -15.2045  -42.6521  -22.1884 C   0  0  0  0  0  0  0  0  0  0  0  0
  -14.5704  -41.3212  -22.4683 C   0  0  0  0  0  0  0  0  0  0  0  0
  -13.4835  -40.6917  -21.2700 S   0  0  0  0  0  0  0  0  0  0  0  0
  -13.2713  -39.2826  -22.1950 C   0  0  0  0  0  0  0  0  0  0  0  0
  -13.9111  -39.2435  -23.3365 N   0  0  0  0  0  0  0  0  0  0  0  0
  -14.6374  -40.4247  -23.5326 C   0  0  0  0  0  0  0  0  0  0  0  0
  -15.3796  -40.5724  -24.7894 C   0  0  0  0  0  0  0  0  0  0  0  0
  -15.8129  -39.4136  -25.4518 C   0  0  0  0  0  0  0  0  0  0  0  0
  -16.4411  -39.4775  -26.6963 C   0  0  0  0  0  0  0  0  0  0  0  0
  -16.6609  -40.7065  -27.3000 C   0  0  0  0  0  0  0  0  0  0  0  0
  -16.2593  -41.8703  -26.6569 C   0  0  0  0  0  0  0  0  0  0  0  0
  -15.5951  -41.7988  -25.4254 C   0  0  0  0  0  0  0  0  0  0  0  0
  1  2  1  0
  2  3  1  0
  3  4  1  0
  4  5  1  0
  5  6  2  0
  6  7  1  0
  7  8  1  0
  2  9  1  0
  9 10  2  0
  9 11  1  0
 11 12  1  0
 12 13  1  0
 13 14  1  0
 14 15  2  0
 15 16  1  0
 16 17  1  0
 17 18  2  0
 18 19  1  0
 19 20  2  0
 20 21  1  0
 21 22  2  0
  8  4  2  0
 16 12  2  0
 22 17  1  0
M  END
>  <fragmenstein_runtime>  (41) 
[5.283971786499023]

>  <original ID>  (41) 
XVJIJJLKVJOXLC-UHFFFAOYSA-N

>  <fragmenstein_error>  (41) 
['']

>  <ref_pdb>  (41) 
d0160a

>  <Multi-SuCOS>  (41) 
0.523173

>  <SLURM_JOB_NAME>  (41) 
BulkDock.place:Flavi_NS5_RdRp:RdRp_knitwork_primer_grip_n_pocket_impure_split4000_batch002

>  <HIPPO Compound ID>  (41) 
8542

>  <original SMILES>  (41) 
CN(Cc1cc[nH]n1)C(=O)Cc1scnc1-c1ccccc1

>  <name>  (41) 
XVJIJJLKVJOXLC-UHFFFAOYSA-N

>  <HIPPO Pose ID>  (41) 
43576

>  <ref_mols>  (41) 
d0160a,d0264a

>  <exports>  (41) 
['/opt/xchem-fragalysis-2/maxwin/BulkDock/OUTPUTS/RdRp_knitwork_primer_grip_n_pocket_impure_split4000_batch002_211034.sdf', '/opt/xchem-fragalysis-2/maxwin/BulkDock/OUTPUTS/RdRp_knitwork_primer_grip_n_pocket_impure_fragalysis.sdf', '/opt/xchem-fragalysis-2/maxwin/RdRp_FFF/syndirella/Retro_OK_batch1.sdf']

>  <alias>  (41) 
None

>  <inchikey>  (41) 
XVJIJJLKVJOXLC-UHFFFAOYSA-N

>  <energy_score>  (41) 
-87.601074

>  <distance_score>  (41) 
0.955431

>  <fragmenstein_outcome>  (41) 
['acceptable']

>  <merge_set>  (41) 
RdRp_knitwork_primer_grip_n_pocket_impure_fragalysis.sdf

>  <scratch_subdir>  (41) 
['/opt/xchem-fragalysis-2/maxwin/BulkDock/SCRATCH/211034/C8542-P12']

>  <SLURM_JOB_ID>  (41) 
211034

>  <tags>  (41) 
['Fragmenstein placed', 'RdRp_knitwork_primer_grip_n_pocket_impure_fragalysis.sdf Pose OK']

>  <fragmenstein_mode>  (41) 
['expansion']

>  <csv_name>  (41) 
RdRp_knitwork_primer_grip_n_pocket_impure_split4000_batch002.csv

$$$$
DXXDRBQJWQVNAY-NSHDSACASA-N
     RDKit          3D

 17 18  0  0  0  0  0  0  0  0999 V2000
  -14.6392  -38.0386  -21.9858 C   0  0  0  0  0  0  0  0  0  0  0  0
  -13.6492  -38.9388  -22.7038 C   0  0  0  0  0  0  0  0  0  0  0  0
  -13.3120  -40.1135  -21.9306 N   0  0  0  0  0  0  0  0  0  0  0  0
  -12.3523  -40.1010  -20.9516 C   0  0  0  0  0  0  0  0  0  0  0  0
  -12.2007  -41.2807  -20.4067 N   0  0  0  0  0  0  0  0  0  0  0  0
  -13.0920  -42.0902  -21.0575 C   0  0  0  0  0  0  0  0  0  0  0  0
  -13.8016  -41.3979  -22.0263 C   0  0  0  0  0  0  0  0  0  0  0  0
  -14.7487  -41.9590  -23.0459 C   0  0  0  0  0  0  0  0  0  0  0  0
  -15.9452  -41.1454  -23.2219 N   0  0  0  0  0  0  0  0  0  0  0  0
  -16.9074  -41.1231  -22.1345 C   0  0  0  0  0  0  0  0  0  0  0  0
  -16.1742  -40.5882  -24.4797 C   0  0  0  0  0  0  0  0  0  0  0  0
  -15.3217  -40.6690  -25.3709 O   0  0  0  0  0  0  0  0  0  0  0  0
  -17.4969  -39.7916  -24.7117 C   0  0  2  0  0  0  0  0  0  0  0  0
  -17.9942  -40.0587  -26.0872 C   0  0  0  0  0  0  0  0  0  0  0  0
  -17.6094  -39.0741  -26.9022 C   0  0  0  0  0  0  0  0  0  0  0  0
  -16.9097  -38.0120  -26.1484 C   0  0  0  0  0  0  0  0  0  0  0  0
  -17.1891  -38.3294  -24.7329 N   0  0  0  0  0  0  0  0  0  0  0  0
  1  2  1  0
  2  3  1  0
  3  4  1  0
  4  5  2  0
  5  6  1  0
  6  7  2  0
  7  8  1  0
  8  9  1  0
  9 10  1  0
  9 11  1  0
 11 12  2  0
 13 11  1  6
 13 14  1  0
 14 15  2  0
 15 16  1  0
 16 17  1  0
  7  3  1  0
 17 13  1  0
M  END
>  <fragmenstein_runtime>  (42) 
[6.8599114418029785]

>  <original ID>  (42) 
DXXDRBQJWQVNAY-NSHDSACASA-N

>  <fragmenstein_error>  (42) 
['']

>  <ref_pdb>  (42) 
d0866a

>  <Multi-SuCOS>  (42) 
0.447207

>  <SLURM_JOB_NAME>  (42) 
BulkDock.place:Flavi_NS5_RdRp:RdRp_knitwork_primer_grip_n_pocket_impure_split4000_batch003

>  <HIPPO Compound ID>  (42) 
11905

>  <original SMILES>  (42) 
CCn1cncc1CN(C)C(=O)[C@@H]1C=CCN1

>  <name>  (42) 
DXXDRBQJWQVNAY-NSHDSACASA-N

>  <HIPPO Pose ID>  (42) 
43655

>  <ref_mols>  (42) 
d0866a,z0875c

>  <exports>  (42) 
['/opt/xchem-fragalysis-2/maxwin/BulkDock/OUTPUTS/RdRp_knitwork_primer_grip_n_pocket_impure_split4000_batch003_211035.sdf', '/opt/xchem-fragalysis-2/maxwin/BulkDock/OUTPUTS/RdRp_knitwork_primer_grip_n_pocket_impure_fragalysis.sdf', '/opt/xchem-fragalysis-2/maxwin/RdRp_FFF/syndirella/Retro_OK_batch1.sdf']

>  <alias>  (42) 
None

>  <inchikey>  (42) 
DXXDRBQJWQVNAY-NSHDSACASA-N

>  <energy_score>  (42) 
-67.816144

>  <distance_score>  (42) 
0.918813

>  <fragmenstein_outcome>  (42) 
['acceptable']

>  <merge_set>  (42) 
RdRp_knitwork_primer_grip_n_pocket_impure_fragalysis.sdf

>  <scratch_subdir>  (42) 
['/opt/xchem-fragalysis-2/maxwin/BulkDock/SCRATCH/211035/C11905-P68']

>  <SLURM_JOB_ID>  (42) 
211035

>  <tags>  (42) 
['Fragmenstein placed', 'RdRp_knitwork_primer_grip_n_pocket_impure_fragalysis.sdf Pose OK']

>  <fragmenstein_mode>  (42) 
['expansion']

>  <csv_name>  (42) 
RdRp_knitwork_primer_grip_n_pocket_impure_split4000_batch003.csv

$$$$
OKWGWXMSAAOBHL-VIFPVBQESA-N
     RDKit          3D

 14 14  0  0  0  0  0  0  0  0999 V2000
  -13.7346  -69.2939  -22.8778 C   0  0  0  0  0  0  0  0  0  0  0  0
  -14.4948  -69.7003  -21.6129 C   0  0  0  0  0  0  0  0  0  0  0  0
  -15.0324  -68.4329  -20.9487 C   0  0  0  0  0  0  0  0  0  0  0  0
  -15.6544  -70.6204  -21.9985 C   0  0  0  0  0  0  0  0  0  0  0  0
  -13.7169  -70.3343  -20.5797 O   0  0  0  0  0  0  0  0  0  0  0  0
  -12.6325  -71.1870  -20.9889 C   0  0  0  0  0  0  0  0  0  0  0  0
  -11.3043  -70.4029  -20.9250 C   0  0  2  0  0  0  0  0  0  0  0  0
  -10.7543  -70.2392  -22.2426 O   0  0  0  0  0  0  0  0  0  0  0  0
  -10.2267  -70.9631  -20.0175 C   0  0  0  0  0  0  0  0  0  0  0  0
  -10.4960  -71.3652  -18.7245 C   0  0  0  0  0  0  0  0  0  0  0  0
   -9.4128  -71.7663  -17.9767 C   0  0  0  0  0  0  0  0  0  0  0  0
   -8.1470  -71.7541  -18.4286 N   0  0  0  0  0  0  0  0  0  0  0  0
   -7.9825  -71.3377  -19.6917 C   0  0  0  0  0  0  0  0  0  0  0  0
   -8.9624  -70.9404  -20.5174 N   0  0  0  0  0  0  0  0  0  0  0  0
  1  2  1  0
  2  3  1  0
  2  4  1  0
  2  5  1  0
  5  6  1  0
  6  7  1  0
  7  8  1  6
  7  9  1  0
  9 10  2  0
 10 11  1  0
 11 12  2  0
 12 13  1  0
 13 14  2  0
 14  9  1  0
M  END
>  <fragmenstein_runtime>  (43) 
[4.662421226501465]

>  <original ID>  (43) 
OKWGWXMSAAOBHL-VIFPVBQESA-N

>  <fragmenstein_error>  (43) 
['']

>  <ref_pdb>  (43) 
d0174a

>  <Multi-SuCOS>  (43) 
0.53253

>  <SLURM_JOB_NAME>  (43) 
BulkDock.place:Flavi_NS5_RdRp:RdRp_knitwork_thumb_site_2_impure_split4000_batch001

>  <HIPPO Compound ID>  (43) 
2600

>  <original SMILES>  (43) 
CC(C)(C)OC[C@H](O)c1ccncn1

>  <name>  (43) 
OKWGWXMSAAOBHL-VIFPVBQESA-N

>  <HIPPO Pose ID>  (43) 
44163

>  <ref_mols>  (43) 
d0174a,d0587a

>  <exports>  (43) 
['/opt/xchem-fragalysis-2/maxwin/BulkDock/OUTPUTS/RdRp_knitwork_thumb_site_2_impure_split4000_batch001_211014.sdf', '/opt/xchem-fragalysis-2/maxwin/BulkDock/OUTPUTS/RdRp_knitwork_thumb_site_2_impure_fragalysis.sdf', '/opt/xchem-fragalysis-2/maxwin/RdRp_FFF/syndirella/Retro_OK_batch1.sdf']

>  <alias>  (43) 
None

>  <inchikey>  (43) 
OKWGWXMSAAOBHL-VIFPVBQESA-N

>  <energy_score>  (43) 
-21.303882

>  <distance_score>  (43) 
0.724346

>  <fragmenstein_outcome>  (43) 
['acceptable']

>  <merge_set>  (43) 
RdRp_knitwork_thumb_site_2_impure_fragalysis.sdf

>  <scratch_subdir>  (43) 
['/opt/xchem-fragalysis-2/maxwin/BulkDock/SCRATCH/211014/C2600-P17']

>  <SLURM_JOB_ID>  (43) 
211014

>  <tags>  (43) 
['Fragmenstein placed', 'RdRp_knitwork_thumb_site_2_impure_fragalysis.sdf Pose OK']

>  <fragmenstein_mode>  (43) 
['expansion']

>  <csv_name>  (43) 
RdRp_knitwork_thumb_site_2_impure_split4000_batch001.csv

$$$$
OKWGWXMSAAOBHL-VIFPVBQESA-N
     RDKit          3D

 14 14  0  0  0  0  0  0  0  0999 V2000
  -13.7331  -69.3116  -22.7019 C   0  0  0  0  0  0  0  0  0  0  0  0
  -14.5021  -69.8571  -21.5000 C   0  0  0  0  0  0  0  0  0  0  0  0
  -15.2112  -68.6949  -20.8025 C   0  0  0  0  0  0  0  0  0  0  0  0
  -15.5343  -70.8765  -21.9879 C   0  0  0  0  0  0  0  0  0  0  0  0
  -13.6831  -70.4483  -20.4758 O   0  0  0  0  0  0  0  0  0  0  0  0
  -12.5694  -71.2501  -20.9122 C   0  0  0  0  0  0  0  0  0  0  0  0
  -11.2734  -70.4137  -20.8618 C   0  0  2  0  0  0  0  0  0  0  0  0
  -10.7277  -70.2429  -22.1809 O   0  0  0  0  0  0  0  0  0  0  0  0
  -10.1821  -70.9415  -19.9521 C   0  0  0  0  0  0  0  0  0  0  0  0
  -10.4402  -71.3058  -18.6456 C   0  0  0  0  0  0  0  0  0  0  0  0
   -9.3520  -71.6953  -17.9000 C   0  0  0  0  0  0  0  0  0  0  0  0
   -8.0913  -71.7043  -18.3668 N   0  0  0  0  0  0  0  0  0  0  0  0
   -7.9390  -71.3251  -19.6433 C   0  0  0  0  0  0  0  0  0  0  0  0
   -8.9247  -70.9433  -20.4691 N   0  0  0  0  0  0  0  0  0  0  0  0
  1  2  1  0
  2  3  1  0
  2  4  1  0
  2  5  1  0
  5  6  1  0
  6  7  1  0
  7  8  1  6
  7  9  1  0
  9 10  2  0
 10 11  1  0
 11 12  2  0
 12 13  1  0
 13 14  2  0
 14  9  1  0
M  END
>  <fragmenstein_runtime>  (44) 
[4.445181369781494]

>  <original ID>  (44) 
OKWGWXMSAAOBHL-VIFPVBQESA-N

>  <fragmenstein_error>  (44) 
['']

>  <ref_pdb>  (44) 
d0587a

>  <Multi-SuCOS>  (44) 
0.538623

>  <SLURM_JOB_NAME>  (44) 
BulkDock.place:Flavi_NS5_RdRp:RdRp_knitwork_thumb_site_2_impure_split4000_batch001

>  <HIPPO Compound ID>  (44) 
2600

>  <original SMILES>  (44) 
CC(C)(C)OC[C@H](O)c1ccncn1

>  <name>  (44) 
OKWGWXMSAAOBHL-VIFPVBQESA-N

>  <HIPPO Pose ID>  (44) 
44164

>  <ref_mols>  (44) 
d0174a,d0587a

>  <exports>  (44) 
['/opt/xchem-fragalysis-2/maxwin/BulkDock/OUTPUTS/RdRp_knitwork_thumb_site_2_impure_split4000_batch001_211014.sdf', '/opt/xchem-fragalysis-2/maxwin/BulkDock/OUTPUTS/RdRp_knitwork_thumb_site_2_impure_fragalysis.sdf', '/opt/xchem-fragalysis-2/maxwin/RdRp_FFF/syndirella/Retro_OK_batch1.sdf']

>  <alias>  (44) 
None

>  <inchikey>  (44) 
OKWGWXMSAAOBHL-VIFPVBQESA-N

>  <energy_score>  (44) 
-22.401137

>  <distance_score>  (44) 
0.747604

>  <fragmenstein_outcome>  (44) 
['acceptable']

>  <merge_set>  (44) 
RdRp_knitwork_thumb_site_2_impure_fragalysis.sdf

>  <scratch_subdir>  (44) 
['/opt/xchem-fragalysis-2/maxwin/BulkDock/SCRATCH/211014/C2600-P48']

>  <SLURM_JOB_ID>  (44) 
211014

>  <tags>  (44) 
['Fragmenstein placed', 'RdRp_knitwork_thumb_site_2_impure_fragalysis.sdf Pose OK']

>  <fragmenstein_mode>  (44) 
['expansion']

>  <csv_name>  (44) 
RdRp_knitwork_thumb_site_2_impure_split4000_batch001.csv

$$$$
YYFRZIUNWLKYKD-LLVKDONJSA-N
     RDKit          3D

 19 19  0  0  0  0  0  0  0  0999 V2000
  -12.4682  -69.5756  -25.2503 C   0  0  0  0  0  0  0  0  0  0  0  0
  -13.5342  -70.1418  -24.3244 C   0  0  0  0  0  0  0  0  0  0  0  0
  -13.7293  -69.2939  -23.0636 C   0  0  0  0  0  0  0  0  0  0  0  0
  -14.3728  -69.9823  -21.9064 N   0  0  0  0  0  0  0  0  0  0  0  0
  -15.2293  -71.1594  -22.1726 C   0  0  0  0  0  0  0  0  0  0  0  0
  -16.6791  -70.7457  -22.3888 C   0  0  0  0  0  0  0  0  0  0  0  0
  -16.9680  -70.0540  -23.7068 C   0  0  0  0  0  0  0  0  0  0  0  0
  -13.5572  -69.9248  -20.4263 S   0  0  0  0  0  0  0  0  0  0  0  0
  -14.4182  -70.4079  -19.3694 O   0  0  0  0  0  0  0  0  0  0  0  0
  -12.8915  -68.6559  -20.2941 O   0  0  0  0  0  0  0  0  0  0  0  0
  -12.4281  -71.1250  -20.6981 N   0  0  0  0  0  0  0  0  0  0  0  0
  -11.0656  -70.6935  -21.1517 C   0  0  2  0  0  0  0  0  0  0  0  0
  -10.6346  -71.5632  -22.3251 C   0  0  0  0  0  0  0  0  0  0  0  0
  -10.0002  -70.8669  -20.0747 C   0  0  0  0  0  0  0  0  0  0  0  0
  -10.3371  -71.5852  -18.9766 N   0  0  0  0  0  0  0  0  0  0  0  0
   -9.3213  -71.9206  -18.1592 C   0  0  0  0  0  0  0  0  0  0  0  0
   -8.0095  -71.5773  -18.3915 C   0  0  0  0  0  0  0  0  0  0  0  0
   -7.7768  -70.8340  -19.5231 C   0  0  0  0  0  0  0  0  0  0  0  0
   -8.7492  -70.4594  -20.3703 N   0  0  0  0  0  0  0  0  0  0  0  0
  1  2  1  0
  2  3  1  0
  3  4  1  0
  4  5  1  0
  5  6  1  0
  6  7  1  0
  4  8  1  0
  8  9  2  0
  8 10  2  0
  8 11  1  0
 11 12  1  0
 12 13  1  6
 12 14  1  0
 14 15  2  0
 15 16  1  0
 16 17  2  0
 17 18  1  0
 18 19  2  0
 19 14  1  0
M  END
>  <fragmenstein_runtime>  (45) 
[9.833853721618652]

>  <original ID>  (45) 
YYFRZIUNWLKYKD-LLVKDONJSA-N

>  <fragmenstein_error>  (45) 
['']

>  <ref_pdb>  (45) 
d0174a

>  <Multi-SuCOS>  (45) 
0.549449

>  <SLURM_JOB_NAME>  (45) 
BulkDock.place:Flavi_NS5_RdRp:RdRp_knitwork_thumb_site_2_impure_split4000_batch001

>  <HIPPO Compound ID>  (45) 
2614

>  <original SMILES>  (45) 
CCCN(CCC)S(=O)(=O)N[C@H](C)c1ncccn1

>  <name>  (45) 
YYFRZIUNWLKYKD-LLVKDONJSA-N

>  <HIPPO Pose ID>  (45) 
44229

>  <ref_mols>  (45) 
d0174a,d0587a

>  <exports>  (45) 
['/opt/xchem-fragalysis-2/maxwin/BulkDock/OUTPUTS/RdRp_knitwork_thumb_site_2_impure_split4000_batch001_211014.sdf', '/opt/xchem-fragalysis-2/maxwin/BulkDock/OUTPUTS/RdRp_knitwork_thumb_site_2_impure_fragalysis.sdf', '/opt/xchem-fragalysis-2/maxwin/RdRp_FFF/syndirella/Retro_OK_batch1.sdf']

>  <alias>  (45) 
None

>  <inchikey>  (45) 
YYFRZIUNWLKYKD-LLVKDONJSA-N

>  <energy_score>  (45) 
-53.773376

>  <distance_score>  (45) 
0.813982

>  <fragmenstein_outcome>  (45) 
['acceptable']

>  <merge_set>  (45) 
RdRp_knitwork_thumb_site_2_impure_fragalysis.sdf

>  <scratch_subdir>  (45) 
['/opt/xchem-fragalysis-2/maxwin/BulkDock/SCRATCH/211014/C2614-P17']

>  <SLURM_JOB_ID>  (45) 
211014

>  <tags>  (45) 
['Fragmenstein placed', 'RdRp_knitwork_thumb_site_2_impure_fragalysis.sdf Pose OK']

>  <fragmenstein_mode>  (45) 
['expansion']

>  <csv_name>  (45) 
RdRp_knitwork_thumb_site_2_impure_split4000_batch001.csv

$$$$
PQVOAXSKDPVOCO-SECBINFHSA-N
     RDKit          3D

 18 18  0  0  0  0  0  0  0  0999 V2000
  -10.5889  -71.0509  -22.2917 C   0  0  0  0  0  0  0  0  0  0  0  0
  -11.1028  -70.5046  -20.9595 C   0  0  1  0  0  0  0  0  0  0  0  0
  -12.5215  -71.0027  -20.7479 N   0  0  0  0  0  0  0  0  0  0  0  0
  -13.6511  -69.8767  -20.2271 S   0  0  0  0  0  0  0  0  0  0  0  0
  -13.1184  -68.5467  -20.3692 O   0  0  0  0  0  0  0  0  0  0  0  0
  -14.1307  -70.3474  -18.9410 O   0  0  0  0  0  0  0  0  0  0  0  0
  -15.0160  -70.0430  -21.3591 C   0  0  0  0  0  0  0  0  0  0  0  0
  -14.7564  -70.0023  -22.8721 C   0  0  0  0  0  0  0  0  0  0  0  0
  -14.3280  -71.3800  -23.4087 C   0  0  0  0  0  0  0  0  0  0  0  0
  -13.7578  -68.9335  -23.3080 C   0  0  0  0  0  0  0  0  0  0  0  0
  -16.0643  -69.6822  -23.5114 C   0  0  0  0  0  0  0  0  0  0  0  0
  -17.0934  -69.4260  -23.9866 N   0  0  0  0  0  0  0  0  0  0  0  0
  -10.1192  -70.8966  -19.8648 C   0  0  0  0  0  0  0  0  0  0  0  0
  -10.5885  -71.5587  -18.7871 N   0  0  0  0  0  0  0  0  0  0  0  0
   -9.6657  -71.9431  -17.8836 C   0  0  0  0  0  0  0  0  0  0  0  0
   -8.3144  -71.7275  -18.0320 C   0  0  0  0  0  0  0  0  0  0  0  0
   -7.9376  -71.0550  -19.1674 C   0  0  0  0  0  0  0  0  0  0  0  0
   -8.8156  -70.6201  -20.0839 N   0  0  0  0  0  0  0  0  0  0  0  0
  2  1  1  6
  2  3  1  0
  3  4  1  0
  4  5  2  0
  4  6  2  0
  4  7  1  0
  7  8  1  0
  8  9  1  0
  8 10  1  0
  8 11  1  0
 11 12  3  0
  2 13  1  0
 13 14  2  0
 14 15  1  0
 15 16  2  0
 16 17  1  0
 17 18  2  0
 18 13  1  0
M  END
>  <fragmenstein_runtime>  (46) 
[3.466348648071289]

>  <original ID>  (46) 
PQVOAXSKDPVOCO-SECBINFHSA-N

>  <fragmenstein_error>  (46) 
['']

>  <ref_pdb>  (46) 
d0174a

>  <Multi-SuCOS>  (46) 
0.620248

>  <SLURM_JOB_NAME>  (46) 
BulkDock.place:Flavi_NS5_RdRp:RdRp_knitwork_thumb_site_2_impure_split4000_batch001

>  <HIPPO Compound ID>  (46) 
2658

>  <original SMILES>  (46) 
C[C@@H](NS(=O)(=O)CC(C)(C)C#N)c1ncccn1

>  <name>  (46) 
PQVOAXSKDPVOCO-SECBINFHSA-N

>  <HIPPO Pose ID>  (46) 
44268

>  <ref_mols>  (46) 
d0174a,d0587a

>  <exports>  (46) 
['/opt/xchem-fragalysis-2/maxwin/BulkDock/OUTPUTS/RdRp_knitwork_thumb_site_2_impure_split4000_batch001_211014.sdf', '/opt/xchem-fragalysis-2/maxwin/BulkDock/OUTPUTS/RdRp_knitwork_thumb_site_2_impure_fragalysis.sdf', '/opt/xchem-fragalysis-2/maxwin/RdRp_FFF/syndirella/Retro_OK_batch1.sdf']

>  <alias>  (46) 
None

>  <inchikey>  (46) 
PQVOAXSKDPVOCO-SECBINFHSA-N

>  <energy_score>  (46) 
-39.203685

>  <distance_score>  (46) 
0.878394

>  <fragmenstein_outcome>  (46) 
['acceptable']

>  <merge_set>  (46) 
RdRp_knitwork_thumb_site_2_impure_fragalysis.sdf

>  <scratch_subdir>  (46) 
['/opt/xchem-fragalysis-2/maxwin/BulkDock/SCRATCH/211014/C2658-P17']

>  <SLURM_JOB_ID>  (46) 
211014

>  <tags>  (46) 
['Fragmenstein placed', 'RdRp_knitwork_thumb_site_2_impure_fragalysis.sdf Pose OK']

>  <fragmenstein_mode>  (46) 
['expansion']

>  <csv_name>  (46) 
RdRp_knitwork_thumb_site_2_impure_split4000_batch001.csv

$$$$
XXQBDXPESCLSQC-SSDOTTSWSA-N
     RDKit          3D

 15 15  0  0  0  0  0  0  0  0999 V2000
  -10.9313  -71.4725  -22.4579 C   0  0  0  0  0  0  0  0  0  0  0  0
  -11.2772  -70.6413  -21.2299 C   0  0  1  0  0  0  0  0  0  0  0  0
  -12.6461  -71.0430  -20.7364 N   0  0  0  0  0  0  0  0  0  0  0  0
  -13.6455  -69.8083  -20.1938 S   0  0  0  0  0  0  0  0  0  0  0  0
  -12.9003  -68.5761  -20.1416 O   0  0  0  0  0  0  0  0  0  0  0  0
  -14.2824  -70.3186  -18.9914 O   0  0  0  0  0  0  0  0  0  0  0  0
  -14.9150  -69.6732  -21.4402 C   0  0  0  0  0  0  0  0  0  0  0  0
  -14.2663  -69.5452  -22.7317 C   0  0  0  0  0  0  0  0  0  0  0  0
  -13.7900  -69.4922  -23.7886 N   0  0  0  0  0  0  0  0  0  0  0  0
  -10.1755  -70.8737  -20.2005 C   0  0  0  0  0  0  0  0  0  0  0  0
  -10.4710  -71.6584  -19.1364 N   0  0  0  0  0  0  0  0  0  0  0  0
   -9.4342  -71.9927  -18.3441 C   0  0  0  0  0  0  0  0  0  0  0  0
   -8.1380  -71.5924  -18.5725 C   0  0  0  0  0  0  0  0  0  0  0  0
   -7.9452  -70.7975  -19.6763 C   0  0  0  0  0  0  0  0  0  0  0  0
   -8.9406  -70.4205  -20.4968 N   0  0  0  0  0  0  0  0  0  0  0  0
  2  1  1  6
  2  3  1  0
  3  4  1  0
  4  5  2  0
  4  6  2  0
  4  7  1  0
  7  8  1  0
  8  9  3  0
  2 10  1  0
 10 11  2  0
 11 12  1  0
 12 13  2  0
 13 14  1  0
 14 15  2  0
 15 10  1  0
M  END
>  <fragmenstein_runtime>  (47) 
[2.426215410232544]

>  <original ID>  (47) 
XXQBDXPESCLSQC-SSDOTTSWSA-N

>  <fragmenstein_error>  (47) 
['']

>  <ref_pdb>  (47) 
d0174a

>  <Multi-SuCOS>  (47) 
0.78964

>  <SLURM_JOB_NAME>  (47) 
BulkDock.place:Flavi_NS5_RdRp:RdRp_knitwork_thumb_site_2_impure_split4000_batch001

>  <HIPPO Compound ID>  (47) 
2664

>  <original SMILES>  (47) 
C[C@@H](NS(=O)(=O)CC#N)c1ncccn1

>  <name>  (47) 
XXQBDXPESCLSQC-SSDOTTSWSA-N

>  <HIPPO Pose ID>  (47) 
44275

>  <ref_mols>  (47) 
d0174a,d0587a

>  <exports>  (47) 
['/opt/xchem-fragalysis-2/maxwin/BulkDock/OUTPUTS/RdRp_knitwork_thumb_site_2_impure_split4000_batch001_211014.sdf', '/opt/xchem-fragalysis-2/maxwin/BulkDock/OUTPUTS/RdRp_knitwork_thumb_site_2_impure_fragalysis.sdf', '/opt/xchem-fragalysis-2/maxwin/RdRp_FFF/syndirella/Retro_OK_batch1.sdf']

>  <alias>  (47) 
None

>  <inchikey>  (47) 
XXQBDXPESCLSQC-SSDOTTSWSA-N

>  <energy_score>  (47) 
-33.472931

>  <distance_score>  (47) 
0.77147

>  <fragmenstein_outcome>  (47) 
['acceptable']

>  <merge_set>  (47) 
RdRp_knitwork_thumb_site_2_impure_fragalysis.sdf

>  <scratch_subdir>  (47) 
['/opt/xchem-fragalysis-2/maxwin/BulkDock/SCRATCH/211014/C2664-P17']

>  <SLURM_JOB_ID>  (47) 
211014

>  <tags>  (47) 
['Fragmenstein placed', 'RdRp_knitwork_thumb_site_2_impure_fragalysis.sdf Pose OK']

>  <fragmenstein_mode>  (47) 
['expansion']

>  <csv_name>  (47) 
RdRp_knitwork_thumb_site_2_impure_split4000_batch001.csv

$$$$
XXQBDXPESCLSQC-SSDOTTSWSA-N
     RDKit          3D

 15 15  0  0  0  0  0  0  0  0999 V2000
  -10.9522  -71.4117  -22.4309 C   0  0  0  0  0  0  0  0  0  0  0  0
  -11.3081  -70.6180  -21.1804 C   0  0  1  0  0  0  0  0  0  0  0  0
  -12.6740  -71.0474  -20.6973 N   0  0  0  0  0  0  0  0  0  0  0  0
  -13.6943  -69.8341  -20.1447 S   0  0  0  0  0  0  0  0  0  0  0  0
  -12.9975  -68.5731  -20.1730 O   0  0  0  0  0  0  0  0  0  0  0  0
  -14.2630  -70.3250  -18.9006 O   0  0  0  0  0  0  0  0  0  0  0  0
  -15.0245  -69.7776  -21.3274 C   0  0  0  0  0  0  0  0  0  0  0  0
  -14.4604  -69.7904  -22.6633 C   0  0  0  0  0  0  0  0  0  0  0  0
  -14.0895  -69.8630  -23.7605 N   0  0  0  0  0  0  0  0  0  0  0  0
  -10.2041  -70.8679  -20.1572 C   0  0  0  0  0  0  0  0  0  0  0  0
  -10.4991  -71.6699  -19.1066 N   0  0  0  0  0  0  0  0  0  0  0  0
   -9.4625  -72.0212  -18.3217 C   0  0  0  0  0  0  0  0  0  0  0  0
   -8.1653  -71.6222  -18.5464 C   0  0  0  0  0  0  0  0  0  0  0  0
   -7.9723  -70.8089  -19.6367 C   0  0  0  0  0  0  0  0  0  0  0  0
   -8.9681  -70.4130  -20.4479 N   0  0  0  0  0  0  0  0  0  0  0  0
  2  1  1  6
  2  3  1  0
  3  4  1  0
  4  5  2  0
  4  6  2  0
  4  7  1  0
  7  8  1  0
  8  9  3  0
  2 10  1  0
 10 11  2  0
 11 12  1  0
 12 13  2  0
 13 14  1  0
 14 15  2  0
 15 10  1  0
M  END
>  <fragmenstein_runtime>  (48) 
[2.5311026573181152]

>  <original ID>  (48) 
XXQBDXPESCLSQC-SSDOTTSWSA-N

>  <fragmenstein_error>  (48) 
['']

>  <ref_pdb>  (48) 
d0587a

>  <Multi-SuCOS>  (48) 
0.77817

>  <SLURM_JOB_NAME>  (48) 
BulkDock.place:Flavi_NS5_RdRp:RdRp_knitwork_thumb_site_2_impure_split4000_batch001

>  <HIPPO Compound ID>  (48) 
2664

>  <original SMILES>  (48) 
C[C@@H](NS(=O)(=O)CC#N)c1ncccn1

>  <name>  (48) 
XXQBDXPESCLSQC-SSDOTTSWSA-N

>  <HIPPO Pose ID>  (48) 
44277

>  <ref_mols>  (48) 
d0174a,d0587a

>  <exports>  (48) 
['/opt/xchem-fragalysis-2/maxwin/BulkDock/OUTPUTS/RdRp_knitwork_thumb_site_2_impure_split4000_batch001_211014.sdf', '/opt/xchem-fragalysis-2/maxwin/BulkDock/OUTPUTS/RdRp_knitwork_thumb_site_2_impure_fragalysis.sdf', '/opt/xchem-fragalysis-2/maxwin/RdRp_FFF/syndirella/Retro_OK_batch1.sdf']

>  <alias>  (48) 
None

>  <inchikey>  (48) 
XXQBDXPESCLSQC-SSDOTTSWSA-N

>  <energy_score>  (48) 
-32.53111

>  <distance_score>  (48) 
0.781223

>  <fragmenstein_outcome>  (48) 
['acceptable']

>  <merge_set>  (48) 
RdRp_knitwork_thumb_site_2_impure_fragalysis.sdf

>  <scratch_subdir>  (48) 
['/opt/xchem-fragalysis-2/maxwin/BulkDock/SCRATCH/211014/C2664-P48']

>  <SLURM_JOB_ID>  (48) 
211014

>  <tags>  (48) 
['Fragmenstein placed', 'RdRp_knitwork_thumb_site_2_impure_fragalysis.sdf Pose OK']

>  <fragmenstein_mode>  (48) 
['expansion']

>  <csv_name>  (48) 
RdRp_knitwork_thumb_site_2_impure_split4000_batch001.csv

$$$$
DVPBFMLOVUXCNX-VHSXEESVSA-N
     RDKit          3D

 14 14  0  0  0  0  0  0  0  0999 V2000
  -14.1360  -69.2482  -22.6052 C   0  0  0  0  0  0  0  0  0  0  0  0
  -14.7666  -69.9837  -21.4426 C   0  0  0  0  0  0  0  0  0  0  0  0
  -13.8827  -70.2448  -20.3541 O   0  0  0  0  0  0  0  0  0  0  0  0
  -12.7758  -71.1613  -20.5286 C   0  0  1  0  0  0  0  0  0  0  0  0
  -13.0717  -72.3531  -21.4553 C   0  0  0  0  0  0  0  0  0  0  0  0
  -12.0338  -73.4630  -21.3717 C   0  0  0  0  0  0  0  0  0  0  0  0
  -11.4501  -70.3625  -20.7871 C   0  0  2  0  0  0  0  0  0  0  0  0
  -11.1394  -70.2019  -22.1719 O   0  0  0  0  0  0  0  0  0  0  0  0
  -10.2219  -70.8399  -20.0546 C   0  0  0  0  0  0  0  0  0  0  0  0
  -10.2256  -71.1302  -18.7016 C   0  0  0  0  0  0  0  0  0  0  0  0
   -9.1414  -71.5202  -17.9986 N   0  0  0  0  0  0  0  0  0  0  0  0
   -8.0002  -71.6027  -18.6982 C   0  0  0  0  0  0  0  0  0  0  0  0
   -7.8535  -71.3077  -19.9948 N   0  0  0  0  0  0  0  0  0  0  0  0
   -8.9709  -70.9177  -20.6408 C   0  0  0  0  0  0  0  0  0  0  0  0
  1  2  1  0
  2  3  1  0
  3  4  1  0
  4  5  1  6
  5  6  1  0
  4  7  1  0
  7  8  1  6
  7  9  1  0
  9 10  2  0
 10 11  1  0
 11 12  2  0
 12 13  1  0
 13 14  2  0
 14  9  1  0
M  END
>  <fragmenstein_runtime>  (49) 
[2.5554232597351074]

>  <original ID>  (49) 
DVPBFMLOVUXCNX-VHSXEESVSA-N

>  <fragmenstein_error>  (49) 
['']

>  <ref_pdb>  (49) 
d0174a

>  <Multi-SuCOS>  (49) 
0.524231

>  <SLURM_JOB_NAME>  (49) 
BulkDock.place:Flavi_NS5_RdRp:RdRp_knitwork_thumb_site_2_impure_split4000_batch001

>  <HIPPO Compound ID>  (49) 
3031

>  <original SMILES>  (49) 
CCO[C@@H](CC)[C@H](O)c1cncnc1

>  <name>  (49) 
DVPBFMLOVUXCNX-VHSXEESVSA-N

>  <HIPPO Pose ID>  (49) 
44372

>  <ref_mols>  (49) 
d0174a,d0587a

>  <exports>  (49) 
['/opt/xchem-fragalysis-2/maxwin/BulkDock/OUTPUTS/RdRp_knitwork_thumb_site_2_impure_split4000_batch001_211014.sdf', '/opt/xchem-fragalysis-2/maxwin/BulkDock/OUTPUTS/RdRp_knitwork_thumb_site_2_impure_fragalysis.sdf', '/opt/xchem-fragalysis-2/maxwin/RdRp_FFF/syndirella/Retro_OK_batch1.sdf']

>  <alias>  (49) 
None

>  <inchikey>  (49) 
DVPBFMLOVUXCNX-VHSXEESVSA-N

>  <energy_score>  (49) 
-29.760684

>  <distance_score>  (49) 
0.701281

>  <fragmenstein_outcome>  (49) 
['acceptable']

>  <merge_set>  (49) 
RdRp_knitwork_thumb_site_2_impure_fragalysis.sdf

>  <scratch_subdir>  (49) 
['/opt/xchem-fragalysis-2/maxwin/BulkDock/SCRATCH/211014/C3031-P17']

>  <SLURM_JOB_ID>  (49) 
211014

>  <tags>  (49) 
['Fragmenstein placed', 'RdRp_knitwork_thumb_site_2_impure_fragalysis.sdf Pose OK']

>  <fragmenstein_mode>  (49) 
['expansion']

>  <csv_name>  (49) 
RdRp_knitwork_thumb_site_2_impure_split4000_batch001.csv

$$$$
KIGXMFVAMLMNKL-SECBINFHSA-N
     RDKit          3D

 14 14  0  0  0  0  0  0  0  0999 V2000
  -14.0163  -69.3201  -23.0435 C   0  0  0  0  0  0  0  0  0  0  0  0
  -14.4705  -69.5470  -21.5978 C   0  0  0  0  0  0  0  0  0  0  0  0
  -15.7146  -70.4370  -21.5741 C   0  0  0  0  0  0  0  0  0  0  0  0
  -14.8374  -68.1950  -20.9880 C   0  0  0  0  0  0  0  0  0  0  0  0
  -13.4179  -70.0593  -20.7529 O   0  0  0  0  0  0  0  0  0  0  0  0
  -12.8131  -71.2931  -21.1464 C   0  0  0  0  0  0  0  0  0  0  0  0
  -11.2918  -71.1911  -21.4460 C   0  0  1  0  0  0  0  0  0  0  0  0
  -10.9818  -70.1272  -22.3454 O   0  0  0  0  0  0  0  0  0  0  0  0
  -10.3090  -71.1254  -20.3170 C   0  0  0  0  0  0  0  0  0  0  0  0
  -10.6037  -71.2740  -18.9791 C   0  0  0  0  0  0  0  0  0  0  0  0
   -9.6693  -71.3688  -18.0056 N   0  0  0  0  0  0  0  0  0  0  0  0
   -8.3925  -71.2979  -18.4157 C   0  0  0  0  0  0  0  0  0  0  0  0
   -7.9769  -71.1076  -19.6712 N   0  0  0  0  0  0  0  0  0  0  0  0
   -8.9534  -71.0216  -20.5937 C   0  0  0  0  0  0  0  0  0  0  0  0
  1  2  1  0
  2  3  1  0
  2  4  1  0
  2  5  1  0
  5  6  1  0
  6  7  1  0
  7  8  1  1
  7  9  1  0
  9 10  2  0
 10 11  1  0
 11 12  2  0
 12 13  1  0
 13 14  2  0
 14  9  1  0
M  END
>  <fragmenstein_runtime>  (50) 
[5.056749105453491]

>  <original ID>  (50) 
KIGXMFVAMLMNKL-SECBINFHSA-N

>  <fragmenstein_error>  (50) 
['']

>  <ref_pdb>  (50) 
d0174a

>  <Multi-SuCOS>  (50) 
0.528431

>  <SLURM_JOB_NAME>  (50) 
BulkDock.place:Flavi_NS5_RdRp:RdRp_knitwork_thumb_site_2_impure_split4000_batch001

>  <HIPPO Compound ID>  (50) 
3038

>  <original SMILES>  (50) 
CC(C)(C)OC[C@@H](O)c1cncnc1

>  <name>  (50) 
KIGXMFVAMLMNKL-SECBINFHSA-N

>  <HIPPO Pose ID>  (50) 
44382

>  <ref_mols>  (50) 
d0174a,d0587a

>  <exports>  (50) 
['/opt/xchem-fragalysis-2/maxwin/BulkDock/OUTPUTS/RdRp_knitwork_thumb_site_2_impure_split4000_batch001_211014.sdf', '/opt/xchem-fragalysis-2/maxwin/BulkDock/OUTPUTS/RdRp_knitwork_thumb_site_2_impure_fragalysis.sdf', '/opt/xchem-fragalysis-2/maxwin/RdRp_FFF/syndirella/Retro_OK_batch1.sdf']

>  <alias>  (50) 
None

>  <inchikey>  (50) 
KIGXMFVAMLMNKL-SECBINFHSA-N

>  <energy_score>  (50) 
-45.562775

>  <distance_score>  (50) 
0.789642

>  <fragmenstein_outcome>  (50) 
['acceptable']

>  <merge_set>  (50) 
RdRp_knitwork_thumb_site_2_impure_fragalysis.sdf

>  <scratch_subdir>  (50) 
['/opt/xchem-fragalysis-2/maxwin/BulkDock/SCRATCH/211014/C3038-P17']

>  <SLURM_JOB_ID>  (50) 
211014

>  <tags>  (50) 
['Fragmenstein placed', 'RdRp_knitwork_thumb_site_2_impure_fragalysis.sdf Pose OK']

>  <fragmenstein_mode>  (50) 
['expansion']

>  <csv_name>  (50) 
RdRp_knitwork_thumb_site_2_impure_split4000_batch001.csv

$$$$
KIGXMFVAMLMNKL-SECBINFHSA-N
     RDKit          3D

 14 14  0  0  0  0  0  0  0  0999 V2000
  -14.2268  -69.5284  -22.9428 C   0  0  0  0  0  0  0  0  0  0  0  0
  -14.5035  -69.5491  -21.4365 C   0  0  0  0  0  0  0  0  0  0  0  0
  -15.6956  -70.4484  -21.1285 C   0  0  0  0  0  0  0  0  0  0  0  0
  -14.8682  -68.1383  -20.9743 C   0  0  0  0  0  0  0  0  0  0  0  0
  -13.3360  -69.9130  -20.6684 O   0  0  0  0  0  0  0  0  0  0  0  0
  -12.7872  -71.2175  -20.9137 C   0  0  0  0  0  0  0  0  0  0  0  0
  -11.2961  -71.1283  -21.3223 C   0  0  1  0  0  0  0  0  0  0  0  0
  -11.0700  -69.9754  -22.1326 O   0  0  0  0  0  0  0  0  0  0  0  0
  -10.2276  -71.1350  -20.2746 C   0  0  0  0  0  0  0  0  0  0  0  0
  -10.4220  -71.2210  -18.9127 C   0  0  0  0  0  0  0  0  0  0  0  0
   -9.4191  -71.3291  -18.0119 N   0  0  0  0  0  0  0  0  0  0  0  0
   -8.1768  -71.3389  -18.5225 C   0  0  0  0  0  0  0  0  0  0  0  0
   -7.8554  -71.2178  -19.8140 N   0  0  0  0  0  0  0  0  0  0  0  0
   -8.8960  -71.1141  -20.6612 C   0  0  0  0  0  0  0  0  0  0  0  0
  1  2  1  0
  2  3  1  0
  2  4  1  0
  2  5  1  0
  5  6  1  0
  6  7  1  0
  7  8  1  1
  7  9  1  0
  9 10  2  0
 10 11  1  0
 11 12  2  0
 12 13  1  0
 13 14  2  0
 14  9  1  0
M  END
>  <fragmenstein_runtime>  (51) 
[5.3021039962768555]

>  <original ID>  (51) 
KIGXMFVAMLMNKL-SECBINFHSA-N

>  <fragmenstein_error>  (51) 
['']

>  <ref_pdb>  (51) 
d0587a

>  <Multi-SuCOS>  (51) 
0.551968

>  <SLURM_JOB_NAME>  (51) 
BulkDock.place:Flavi_NS5_RdRp:RdRp_knitwork_thumb_site_2_impure_split4000_batch001

>  <HIPPO Compound ID>  (51) 
3038

>  <original SMILES>  (51) 
CC(C)(C)OC[C@@H](O)c1cncnc1

>  <name>  (51) 
KIGXMFVAMLMNKL-SECBINFHSA-N

>  <HIPPO Pose ID>  (51) 
44383

>  <ref_mols>  (51) 
d0174a,d0587a

>  <exports>  (51) 
['/opt/xchem-fragalysis-2/maxwin/BulkDock/OUTPUTS/RdRp_knitwork_thumb_site_2_impure_split4000_batch001_211014.sdf', '/opt/xchem-fragalysis-2/maxwin/BulkDock/OUTPUTS/RdRp_knitwork_thumb_site_2_impure_fragalysis.sdf', '/opt/xchem-fragalysis-2/maxwin/RdRp_FFF/syndirella/Retro_OK_batch1.sdf']

>  <alias>  (51) 
None

>  <inchikey>  (51) 
KIGXMFVAMLMNKL-SECBINFHSA-N

>  <energy_score>  (51) 
-50.000484

>  <distance_score>  (51) 
0.713535

>  <fragmenstein_outcome>  (51) 
['acceptable']

>  <merge_set>  (51) 
RdRp_knitwork_thumb_site_2_impure_fragalysis.sdf

>  <scratch_subdir>  (51) 
['/opt/xchem-fragalysis-2/maxwin/BulkDock/SCRATCH/211014/C3038-P48']

>  <SLURM_JOB_ID>  (51) 
211014

>  <tags>  (51) 
['Fragmenstein placed', 'RdRp_knitwork_thumb_site_2_impure_fragalysis.sdf Pose OK']

>  <fragmenstein_mode>  (51) 
['expansion']

>  <csv_name>  (51) 
RdRp_knitwork_thumb_site_2_impure_split4000_batch001.csv

$$$$
ZGDMPLGTNQKCSV-UHFFFAOYSA-N
     RDKit          3D

 17 17  0  0  0  0  0  0  0  0999 V2000
  -14.6712  -69.5786  -22.7934 C   0  0  0  0  0  0  0  0  0  0  0  0
  -15.1827  -69.7222  -21.3750 C   0  0  0  0  0  0  0  0  0  0  0  0
  -13.8635  -69.8252  -20.1729 S   0  0  0  0  0  0  0  0  0  0  0  0
  -13.0306  -68.6549  -20.2879 O   0  0  0  0  0  0  0  0  0  0  0  0
  -14.4261  -70.2096  -18.8924 O   0  0  0  0  0  0  0  0  0  0  0  0
  -13.0127  -71.1668  -20.6934 N   0  0  0  0  0  0  0  0  0  0  0  0
  -11.6391  -70.9814  -21.1866 C   0  0  0  0  0  0  0  0  0  0  0  0
  -10.6739  -71.2325  -20.0696 C   0  0  0  0  0  0  0  0  0  0  0  0
  -10.7081  -70.7734  -18.7689 C   0  0  0  0  0  0  0  0  0  0  0  0
   -9.5816  -71.1889  -18.0082 C   0  0  0  0  0  0  0  0  0  0  0  0
   -8.6672  -71.9004  -18.7567 C   0  0  0  0  0  0  0  0  0  0  0  0
   -7.4068  -72.4012  -18.3340 C   0  0  0  0  0  0  0  0  0  0  0  0
   -6.2290  -72.0443  -18.8645 C   0  0  0  0  0  0  0  0  0  0  0  0
   -6.0364  -71.0779  -19.9481 C   0  0  0  0  0  0  0  0  0  0  0  0
   -6.8548  -70.3346  -20.4461 O   0  0  0  0  0  0  0  0  0  0  0  0
   -4.7475  -71.0796  -20.3083 O   0  0  0  0  0  0  0  0  0  0  0  0
   -9.2906  -72.2023  -20.3352 S   0  0  0  0  0  0  0  0  0  0  0  0
  1  2  1  0
  2  3  1  0
  3  4  2  0
  3  5  2  0
  3  6  1  0
  6  7  1  0
  7  8  1  0
  8  9  2  0
  9 10  1  0
 10 11  2  0
 11 12  1  0
 12 13  2  3
 13 14  1  0
 14 15  2  0
 14 16  1  0
 11 17  1  0
 17  8  1  0
M  END
>  <fragmenstein_runtime>  (52) 
[3.2291181087493896]

>  <original ID>  (52) 
ZGDMPLGTNQKCSV-UHFFFAOYSA-N

>  <fragmenstein_error>  (52) 
['']

>  <ref_pdb>  (52) 
d0376a

>  <Multi-SuCOS>  (52) 
0.66159

>  <SLURM_JOB_NAME>  (52) 
BulkDock.place:Flavi_NS5_RdRp:RdRp_knitwork_thumb_site_2_pure_split4000_batch000

>  <HIPPO Compound ID>  (52) 
8588

>  <original SMILES>  (52) 
CCS(=O)(=O)NCc1ccc(C=CC(=O)O)s1

>  <name>  (52) 
ZGDMPLGTNQKCSV-UHFFFAOYSA-N

>  <HIPPO Pose ID>  (52) 
44789

>  <ref_mols>  (52) 
d0174a,d0376a

>  <exports>  (52) 
['/opt/xchem-fragalysis-2/maxwin/BulkDock/OUTPUTS/RdRp_knitwork_thumb_site_2_pure_split4000_batch000_211010.sdf', '/opt/xchem-fragalysis-2/maxwin/BulkDock/OUTPUTS/RdRp_knitwork_thumb_site_2_pure_fragalysis.sdf', '/opt/xchem-fragalysis-2/maxwin/RdRp_FFF/syndirella/Retro_OK_batch1.sdf']

>  <alias>  (52) 
None

>  <inchikey>  (52) 
ZGDMPLGTNQKCSV-UHFFFAOYSA-N

>  <energy_score>  (52) 
-49.223797

>  <distance_score>  (52) 
0.98129

>  <fragmenstein_outcome>  (52) 
['acceptable']

>  <merge_set>  (52) 
RdRp_knitwork_thumb_site_2_pure_fragalysis.sdf

>  <scratch_subdir>  (52) 
['/opt/xchem-fragalysis-2/maxwin/BulkDock/SCRATCH/211010/C8588-P33']

>  <SLURM_JOB_ID>  (52) 
211010

>  <tags>  (52) 
['RdRp_knitwork_thumb_site_2_pure_fragalysis.sdf Pose OK', 'Fragmenstein placed']

>  <fragmenstein_mode>  (52) 
['expansion']

>  <csv_name>  (52) 
RdRp_knitwork_thumb_site_2_pure_split4000_batch000.csv

$$$$
HGGFUOVXQYHLMH-UHFFFAOYSA-N
     RDKit          3D

 20 21  0  0  0  0  0  0  0  0999 V2000
  -14.7288  -69.5397  -22.7346 C   0  0  0  0  0  0  0  0  0  0  0  0
  -15.1876  -69.6708  -21.2978 C   0  0  0  0  0  0  0  0  0  0  0  0
  -13.8372  -69.8269  -20.1338 S   0  0  0  0  0  0  0  0  0  0  0  0
  -12.9646  -68.6887  -20.2592 O   0  0  0  0  0  0  0  0  0  0  0  0
  -14.3870  -70.2070  -18.8458 O   0  0  0  0  0  0  0  0  0  0  0  0
  -13.0397  -71.1906  -20.6685 N   0  0  0  0  0  0  0  0  0  0  0  0
  -11.8369  -71.0223  -21.4926 C   0  0  0  0  0  0  0  0  0  0  0  0
  -10.6158  -71.0261  -20.6494 C   0  0  0  0  0  0  0  0  0  0  0  0
  -10.2092  -71.8867  -19.6475 C   0  0  0  0  0  0  0  0  0  0  0  0
   -8.9735  -71.4251  -19.3051 N   0  0  0  0  0  0  0  0  0  0  0  0
   -8.0197  -72.0305  -18.4048 C   0  0  0  0  0  0  0  0  0  0  0  0
   -6.6026  -71.4479  -18.4327 C   0  0  0  0  0  0  0  0  0  0  0  0
   -5.9172  -71.6082  -19.7878 C   0  0  0  0  0  0  0  0  0  0  0  0
   -4.5973  -71.0226  -19.8492 N   0  0  0  0  0  0  0  0  0  0  0  0
   -4.2447  -69.7178  -19.7030 C   0  0  0  0  0  0  0  0  0  0  0  0
   -2.9600  -69.5860  -19.9392 N   0  0  0  0  0  0  0  0  0  0  0  0
   -2.5753  -70.8537  -20.2657 C   0  0  0  0  0  0  0  0  0  0  0  0
   -3.5429  -71.7731  -20.2146 N   0  0  0  0  0  0  0  0  0  0  0  0
   -8.6537  -70.3301  -20.0059 N   0  0  0  0  0  0  0  0  0  0  0  0
   -9.6350  -70.0947  -20.8578 N   0  0  0  0  0  0  0  0  0  0  0  0
  1  2  1  0
  2  3  1  0
  3  4  2  0
  3  5  2  0
  3  6  1  0
  6  7  1  0
  7  8  1  0
  8  9  2  0
  9 10  1  0
 10 11  1  0
 11 12  1  0
 12 13  1  0
 13 14  1  0
 14 15  1  0
 15 16  2  0
 16 17  1  0
 17 18  2  0
 10 19  1  0
 19 20  2  0
 20  8  1  0
 18 14  1  0
M  END
>  <fragmenstein_runtime>  (53) 
[9.383780002593994]

>  <original ID>  (53) 
HGGFUOVXQYHLMH-UHFFFAOYSA-N

>  <fragmenstein_error>  (53) 
['']

>  <ref_pdb>  (53) 
d0376a

>  <Multi-SuCOS>  (53) 
0.636863

>  <SLURM_JOB_NAME>  (53) 
BulkDock.place:Flavi_NS5_RdRp:RdRp_knitwork_thumb_site_2_pure_split4000_batch000

>  <HIPPO Compound ID>  (53) 
1623

>  <original SMILES>  (53) 
CCS(=O)(=O)NCc1cn(CCCn2cncn2)nn1

>  <name>  (53) 
HGGFUOVXQYHLMH-UHFFFAOYSA-N

>  <HIPPO Pose ID>  (53) 
44932

>  <ref_mols>  (53) 
d0174a,d0376a

>  <exports>  (53) 
['/opt/xchem-fragalysis-2/maxwin/BulkDock/OUTPUTS/RdRp_knitwork_thumb_site_2_pure_split4000_batch000_211010.sdf', '/opt/xchem-fragalysis-2/maxwin/BulkDock/OUTPUTS/RdRp_knitwork_thumb_site_2_pure_fragalysis.sdf', '/opt/xchem-fragalysis-2/maxwin/RdRp_FFF/syndirella/Retro_OK_batch1.sdf']

>  <alias>  (53) 
None

>  <inchikey>  (53) 
HGGFUOVXQYHLMH-UHFFFAOYSA-N

>  <energy_score>  (53) 
-46.271314

>  <distance_score>  (53) 
0.884151

>  <fragmenstein_outcome>  (53) 
['acceptable']

>  <merge_set>  (53) 
RdRp_knitwork_thumb_site_2_pure_fragalysis.sdf

>  <scratch_subdir>  (53) 
['/opt/xchem-fragalysis-2/maxwin/BulkDock/SCRATCH/211010/C1623-P33']

>  <SLURM_JOB_ID>  (53) 
211010

>  <tags>  (53) 
['RdRp_knitwork_thumb_site_2_pure_fragalysis.sdf Pose OK', 'Fragmenstein placed']

>  <fragmenstein_mode>  (53) 
['expansion']

>  <csv_name>  (53) 
RdRp_knitwork_thumb_site_2_pure_split4000_batch000.csv

$$$$
MIMUCYDXYWWPLR-UHFFFAOYSA-N
     RDKit          3D

 22 23  0  0  0  0  0  0  0  0999 V2000
  -13.2794  -70.9045  -19.2742 C   0  0  0  0  0  0  0  0  0  0  0  0
  -11.8375  -71.0265  -19.5526 N   0  0  0  0  0  0  0  0  0  0  0  0
  -11.2970  -70.8370  -20.8755 C   0  0  0  0  0  0  0  0  0  0  0  0
  -11.9638  -69.9247  -21.9598 C   0  0  0  0  0  0  0  0  0  0  0  0
  -11.5487  -69.8207  -23.1325 O   0  0  0  0  0  0  0  0  0  0  0  0
  -12.9506  -71.0811  -22.0739 N   0  0  0  0  0  0  0  0  0  0  0  0
  -14.1380  -70.9277  -22.9679 C   0  0  0  0  0  0  0  0  0  0  0  0
  -14.4542  -69.4563  -23.3244 C   0  0  0  0  0  0  0  0  0  0  0  0
  -15.3661  -71.4756  -22.2198 C   0  0  0  0  0  0  0  0  0  0  0  0
  -13.9278  -71.7622  -24.2525 C   0  0  0  0  0  0  0  0  0  0  0  0
  -12.8125  -71.3217  -25.0165 O   0  0  0  0  0  0  0  0  0  0  0  0
   -9.9716  -71.0000  -21.0339 C   0  0  0  0  0  0  0  0  0  0  0  0
   -9.0968  -71.5084  -19.9422 C   0  0  0  0  0  0  0  0  0  0  0  0
   -7.6632  -71.2745  -20.0527 C   0  0  0  0  0  0  0  0  0  0  0  0
   -7.0060  -70.1486  -20.5041 C   0  0  0  0  0  0  0  0  0  0  0  0
   -5.5948  -70.2143  -20.2974 C   0  0  0  0  0  0  0  0  0  0  0  0
   -5.2095  -71.4325  -19.7898 C   0  0  0  0  0  0  0  0  0  0  0  0
   -6.5464  -72.4593  -19.5180 S   0  0  0  0  0  0  0  0  0  0  0  0
   -9.5092  -72.1029  -18.8785 N   0  0  0  0  0  0  0  0  0  0  0  0
  -11.0873  -72.2845  -18.6990 S   0  0  0  0  0  0  0  0  0  0  0  0
  -11.5060  -73.5037  -19.3614 O   0  0  0  0  0  0  0  0  0  0  0  0
  -11.4017  -72.0798  -17.2997 O   0  0  0  0  0  0  0  0  0  0  0  0
  1  2  1  0
  2  3  1  0
  3  4  1  0
  4  5  2  0
  4  6  1  0
  6  7  1  0
  7  8  1  0
  7  9  1  0
  7 10  1  0
 10 11  1  0
  3 12  2  0
 12 13  1  0
 13 14  1  0
 14 15  2  0
 15 16  1  0
 16 17  2  0
 17 18  1  0
 13 19  2  0
 19 20  1  0
 20 21  2  0
 20 22  2  0
 20  2  1  0
 18 14  1  0
M  END
>  <fragmenstein_runtime>  (54) 
[3.1714494228363037]

>  <original ID>  (54) 
MIMUCYDXYWWPLR-UHFFFAOYSA-N

>  <fragmenstein_error>  (54) 
['']

>  <ref_pdb>  (54) 
d0248a

>  <Multi-SuCOS>  (54) 
0.587663

>  <SLURM_JOB_NAME>  (54) 
BulkDock.place:Flavi_NS5_RdRp:RdRp_knitwork_thumb_site_2_pure_split4000_batch000

>  <HIPPO Compound ID>  (54) 
1196

>  <original SMILES>  (54) 
CN1C(C(=O)NC(C)(C)CO)=CC(c2cccs2)=NS1(=O)=O

>  <name>  (54) 
MIMUCYDXYWWPLR-UHFFFAOYSA-N

>  <HIPPO Pose ID>  (54) 
45299

>  <ref_mols>  (54) 
d0248a,d0376a

>  <exports>  (54) 
['/opt/xchem-fragalysis-2/maxwin/BulkDock/OUTPUTS/RdRp_knitwork_thumb_site_2_pure_split4000_batch000_211010.sdf', '/opt/xchem-fragalysis-2/maxwin/BulkDock/OUTPUTS/RdRp_knitwork_thumb_site_2_pure_fragalysis.sdf', '/opt/xchem-fragalysis-2/maxwin/RdRp_FFF/syndirella/Retro_OK_batch1.sdf']

>  <alias>  (54) 
None

>  <inchikey>  (54) 
MIMUCYDXYWWPLR-UHFFFAOYSA-N

>  <energy_score>  (54) 
-23.178598

>  <distance_score>  (54) 
0.843456

>  <fragmenstein_outcome>  (54) 
['acceptable']

>  <merge_set>  (54) 
RdRp_knitwork_thumb_site_2_pure_fragalysis.sdf

>  <scratch_subdir>  (54) 
['/opt/xchem-fragalysis-2/maxwin/BulkDock/SCRATCH/211010/C1196-P22']

>  <SLURM_JOB_ID>  (54) 
211010

>  <tags>  (54) 
['RdRp_knitwork_thumb_site_2_pure_fragalysis.sdf Pose OK', 'Fragmenstein placed']

>  <fragmenstein_mode>  (54) 
['expansion']

>  <csv_name>  (54) 
RdRp_knitwork_thumb_site_2_pure_split4000_batch000.csv

$$$$
MIMUCYDXYWWPLR-UHFFFAOYSA-N
     RDKit          3D

 22 23  0  0  0  0  0  0  0  0999 V2000
  -12.3301  -69.3986  -19.4759 C   0  0  0  0  0  0  0  0  0  0  0  0
  -11.2096  -70.2952  -19.7168 N   0  0  0  0  0  0  0  0  0  0  0  0
  -10.8113  -70.6903  -21.0301 C   0  0  0  0  0  0  0  0  0  0  0  0
  -11.4503  -70.0332  -22.2782 C   0  0  0  0  0  0  0  0  0  0  0  0
  -11.2263  -70.3572  -23.4544 O   0  0  0  0  0  0  0  0  0  0  0  0
  -12.6520  -70.9317  -21.8811 N   0  0  0  0  0  0  0  0  0  0  0  0
  -13.9205  -70.8027  -22.6481 C   0  0  0  0  0  0  0  0  0  0  0  0
  -14.2194  -69.3353  -23.0010 C   0  0  0  0  0  0  0  0  0  0  0  0
  -15.0679  -71.2928  -21.7427 C   0  0  0  0  0  0  0  0  0  0  0  0
  -13.9168  -71.6790  -23.9181 C   0  0  0  0  0  0  0  0  0  0  0  0
  -13.1032  -71.1830  -24.9673 O   0  0  0  0  0  0  0  0  0  0  0  0
   -9.5963  -71.2517  -21.1412 C   0  0  0  0  0  0  0  0  0  0  0  0
   -8.7915  -71.5466  -19.9141 C   0  0  0  0  0  0  0  0  0  0  0  0
   -7.3469  -71.6244  -20.0295 C   0  0  0  0  0  0  0  0  0  0  0  0
   -6.4164  -70.9482  -19.2606 C   0  0  0  0  0  0  0  0  0  0  0  0
   -5.0772  -71.2323  -19.6420 C   0  0  0  0  0  0  0  0  0  0  0  0
   -5.0288  -72.1783  -20.6398 C   0  0  0  0  0  0  0  0  0  0  0  0
   -6.5905  -72.6991  -21.1145 S   0  0  0  0  0  0  0  0  0  0  0  0
   -9.2622  -71.6830  -18.7205 N   0  0  0  0  0  0  0  0  0  0  0  0
  -10.8328  -71.4350  -18.5418 S   0  0  0  0  0  0  0  0  0  0  0  0
  -11.5771  -72.6240  -18.9031 O   0  0  0  0  0  0  0  0  0  0  0  0
  -11.0465  -70.8287  -17.2460 O   0  0  0  0  0  0  0  0  0  0  0  0
  1  2  1  0
  2  3  1  0
  3  4  1  0
  4  5  2  0
  4  6  1  0
  6  7  1  0
  7  8  1  0
  7  9  1  0
  7 10  1  0
 10 11  1  0
  3 12  2  0
 12 13  1  0
 13 14  1  0
 14 15  2  0
 15 16  1  0
 16 17  2  0
 17 18  1  0
 13 19  2  0
 19 20  1  0
 20 21  2  0
 20 22  2  0
 20  2  1  0
 18 14  1  0
M  END
>  <fragmenstein_runtime>  (55) 
[3.542532444000244]

>  <original ID>  (55) 
MIMUCYDXYWWPLR-UHFFFAOYSA-N

>  <fragmenstein_error>  (55) 
['']

>  <ref_pdb>  (55) 
d0376a

>  <Multi-SuCOS>  (55) 
0.580816

>  <SLURM_JOB_NAME>  (55) 
BulkDock.place:Flavi_NS5_RdRp:RdRp_knitwork_thumb_site_2_pure_split4000_batch000

>  <HIPPO Compound ID>  (55) 
1196

>  <original SMILES>  (55) 
CN1C(C(=O)NC(C)(C)CO)=CC(c2cccs2)=NS1(=O)=O

>  <name>  (55) 
MIMUCYDXYWWPLR-UHFFFAOYSA-N

>  <HIPPO Pose ID>  (55) 
45300

>  <ref_mols>  (55) 
d0248a,d0376a

>  <exports>  (55) 
['/opt/xchem-fragalysis-2/maxwin/BulkDock/OUTPUTS/RdRp_knitwork_thumb_site_2_pure_split4000_batch000_211010.sdf', '/opt/xchem-fragalysis-2/maxwin/BulkDock/OUTPUTS/RdRp_knitwork_thumb_site_2_pure_fragalysis.sdf', '/opt/xchem-fragalysis-2/maxwin/RdRp_FFF/syndirella/Retro_OK_batch1.sdf']

>  <alias>  (55) 
None

>  <inchikey>  (55) 
MIMUCYDXYWWPLR-UHFFFAOYSA-N

>  <energy_score>  (55) 
-26.323441

>  <distance_score>  (55) 
0.758685

>  <fragmenstein_outcome>  (55) 
['acceptable']

>  <merge_set>  (55) 
RdRp_knitwork_thumb_site_2_pure_fragalysis.sdf

>  <scratch_subdir>  (55) 
['/opt/xchem-fragalysis-2/maxwin/BulkDock/SCRATCH/211010/C1196-P33']

>  <SLURM_JOB_ID>  (55) 
211010

>  <tags>  (55) 
['RdRp_knitwork_thumb_site_2_pure_fragalysis.sdf Pose OK', 'Fragmenstein placed']

>  <fragmenstein_mode>  (55) 
['expansion']

>  <csv_name>  (55) 
RdRp_knitwork_thumb_site_2_pure_split4000_batch000.csv

$$$$
RBCYBRWRXNYUSR-UHFFFAOYSA-N
     RDKit          3D

 13 14  0  0  0  0  0  0  0  0999 V2000
  -14.9914  -41.6951  -23.8579 C   0  0  0  0  0  0  0  0  0  0  0  0
  -15.3136  -42.5927  -22.8415 C   0  0  0  0  0  0  0  0  0  0  0  0
  -16.3001  -43.5670  -23.0347 C   0  0  0  0  0  0  0  0  0  0  0  0
  -16.6733  -44.4755  -22.0342 N   0  0  0  0  0  0  0  0  0  0  0  0
  -17.7932  -45.3944  -22.2734 C   0  0  0  0  0  0  0  0  0  0  0  0
  -18.1618  -46.2954  -21.0959 C   0  0  0  0  0  0  0  0  0  0  0  0
  -18.4535  -45.5215  -19.8218 C   0  0  0  0  0  0  0  0  0  0  0  0
  -17.2778  -45.3604  -19.0328 O   0  0  0  0  0  0  0  0  0  0  0  0
  -16.3427  -44.4213  -19.5711 C   0  0  0  0  0  0  0  0  0  0  0  0
  -15.7484  -44.8226  -20.9327 C   0  0  0  0  0  0  0  0  0  0  0  0
  -16.9160  -43.5330  -24.2953 C   0  0  0  0  0  0  0  0  0  0  0  0
  -16.5192  -42.6124  -25.2629 C   0  0  0  0  0  0  0  0  0  0  0  0
  -15.5701  -41.6854  -25.0691 N   0  0  0  0  0  0  0  0  0  0  0  0
  1  2  2  0
  2  3  1  0
  3  4  1  0
  4  5  1  0
  5  6  1  0
  6  7  1  0
  7  8  1  0
  8  9  1  0
  9 10  1  0
  3 11  2  0
 11 12  1  0
 12 13  2  0
 13  1  1  0
 10  4  1  0
M  END
>  <fragmenstein_runtime>  (56) 
[2.976625442504883]

>  <original ID>  (56) 
RBCYBRWRXNYUSR-UHFFFAOYSA-N

>  <fragmenstein_error>  (56) 
['']

>  <ref_pdb>  (56) 
d0254a

>  <Multi-SuCOS>  (56) 
0.571717

>  <SLURM_JOB_NAME>  (56) 
BulkDock.place:Flavi_NS5_RdRp:RdRp_knitwork_primer_grip_n_pocket_impure_split4000_batch002

>  <HIPPO Compound ID>  (56) 
14910

>  <original SMILES>  (56) 
c1cc(N2CCCOCC2)ccn1

>  <name>  (56) 
RBCYBRWRXNYUSR-UHFFFAOYSA-N

>  <HIPPO Pose ID>  (56) 
45394

>  <ref_mols>  (56) 
d0191a,d0254a

>  <exports>  (56) 
['/opt/xchem-fragalysis-2/maxwin/BulkDock/OUTPUTS/RdRp_knitwork_primer_grip_n_pocket_impure_split4000_batch002_211034.sdf', '/opt/xchem-fragalysis-2/maxwin/BulkDock/OUTPUTS/RdRp_knitwork_primer_grip_n_pocket_impure_fragalysis.sdf', '/opt/xchem-fragalysis-2/maxwin/RdRp_FFF/syndirella/Retro_OK_batch1.sdf']

>  <alias>  (56) 
None

>  <inchikey>  (56) 
RBCYBRWRXNYUSR-UHFFFAOYSA-N

>  <energy_score>  (56) 
-27.769108

>  <distance_score>  (56) 
0.830006

>  <fragmenstein_outcome>  (56) 
['acceptable']

>  <merge_set>  (56) 
RdRp_knitwork_primer_grip_n_pocket_impure_fragalysis.sdf

>  <scratch_subdir>  (56) 
['/opt/xchem-fragalysis-2/maxwin/BulkDock/SCRATCH/211034/C14910-P26']

>  <SLURM_JOB_ID>  (56) 
211034

>  <tags>  (56) 
['Fragmenstein placed', 'RdRp_knitwork_primer_grip_n_pocket_impure_fragalysis.sdf Pose OK']

>  <fragmenstein_mode>  (56) 
['expansion']

>  <csv_name>  (56) 
RdRp_knitwork_primer_grip_n_pocket_impure_split4000_batch002.csv

$$$$
RGSIWFCRLMCKRU-CQSZACIVSA-N
     RDKit          3D

 22 23  0  0  0  0  0  0  0  0999 V2000
  -16.7113  -41.7345  -26.3941 C   0  0  0  0  0  0  0  0  0  0  0  0
  -15.7299  -41.1304  -25.5211 N   0  0  0  0  0  0  0  0  0  0  0  0
  -14.6965  -42.0321  -25.0880 C   0  0  0  0  0  0  0  0  0  0  0  0
  -14.7134  -42.4008  -23.6271 C   0  0  0  0  0  0  0  0  0  0  0  0
  -15.7422  -43.3447  -23.2796 N   0  0  0  0  0  0  0  0  0  0  0  0
  -16.2751  -43.1009  -21.8411 C   0  0  0  0  0  0  0  0  0  0  0  0
  -16.7644  -41.9538  -21.8612 O   0  0  0  0  0  0  0  0  0  0  0  0
  -17.0751  -44.3973  -22.1642 C   0  0  0  0  0  0  0  0  0  0  0  0
  -17.6550  -44.6887  -20.7774 C   0  0  1  0  0  0  0  0  0  0  0  0
  -18.7628  -45.7244  -20.8045 C   0  0  0  0  0  0  0  0  0  0  0  0
  -19.2641  -45.9534  -19.3819 C   0  0  0  0  0  0  0  0  0  0  0  0
  -18.1103  -46.2929  -18.4438 C   0  0  0  0  0  0  0  0  0  0  0  0
  -16.9734  -45.2953  -18.5847 C   0  0  0  0  0  0  0  0  0  0  0  0
  -16.5821  -45.1746  -19.9506 O   0  0  0  0  0  0  0  0  0  0  0  0
  -15.6388  -39.8272  -25.0455 C   0  0  0  0  0  0  0  0  0  0  0  0
  -14.7053  -39.4518  -24.3296 O   0  0  0  0  0  0  0  0  0  0  0  0
  -16.6828  -38.8305  -25.3183 C   0  0  0  0  0  0  0  0  0  0  0  0
  -17.1712  -38.1445  -24.2020 C   0  0  0  0  0  0  0  0  0  0  0  0
  -18.2281  -37.2572  -24.3393 C   0  0  0  0  0  0  0  0  0  0  0  0
  -18.7813  -37.1025  -25.5953 C   0  0  0  0  0  0  0  0  0  0  0  0
  -18.3252  -37.7244  -26.7095 N   0  0  0  0  0  0  0  0  0  0  0  0
  -17.2475  -38.5466  -26.5458 C   0  0  0  0  0  0  0  0  0  0  0  0
  1  2  1  0
  2  3  1  0
  3  4  1  0
  4  5  1  0
  5  6  1  0
  6  7  2  0
  6  8  1  0
  9  8  1  6
  9 10  1  0
 10 11  1  0
 11 12  1  0
 12 13  1  0
 13 14  1  0
  2 15  1  0
 15 16  2  0
 15 17  1  0
 17 18  2  0
 18 19  1  0
 19 20  2  0
 20 21  1  0
 21 22  2  0
 14  9  1  0
 22 17  1  0
M  END
>  <fragmenstein_runtime>  (57) 
[7.294503211975098]

>  <original ID>  (57) 
RGSIWFCRLMCKRU-CQSZACIVSA-N

>  <fragmenstein_error>  (57) 
['']

>  <ref_pdb>  (57) 
d0254a

>  <Multi-SuCOS>  (57) 
0.541853

>  <SLURM_JOB_NAME>  (57) 
BulkDock.place:Flavi_NS5_RdRp:RdRp_knitwork_primer_grip_n_pocket_impure_split4000_batch002

>  <HIPPO Compound ID>  (57) 
15070

>  <original SMILES>  (57) 
CN(CCNC(=O)C[C@H]1CCCCO1)C(=O)c1cccnc1

>  <name>  (57) 
RGSIWFCRLMCKRU-CQSZACIVSA-N

>  <HIPPO Pose ID>  (57) 
45423

>  <ref_mols>  (57) 
d0191a,d0254a

>  <exports>  (57) 
['/opt/xchem-fragalysis-2/maxwin/BulkDock/OUTPUTS/RdRp_knitwork_primer_grip_n_pocket_impure_split4000_batch002_211034.sdf', '/opt/xchem-fragalysis-2/maxwin/BulkDock/OUTPUTS/RdRp_knitwork_primer_grip_n_pocket_impure_fragalysis.sdf', '/opt/xchem-fragalysis-2/maxwin/RdRp_FFF/syndirella/Retro_OK_batch1.sdf']

>  <alias>  (57) 
None

>  <inchikey>  (57) 
RGSIWFCRLMCKRU-CQSZACIVSA-N

>  <energy_score>  (57) 
-2.790234

>  <distance_score>  (57) 
0.960775

>  <fragmenstein_outcome>  (57) 
['acceptable']

>  <merge_set>  (57) 
RdRp_knitwork_primer_grip_n_pocket_impure_fragalysis.sdf

>  <scratch_subdir>  (57) 
['/opt/xchem-fragalysis-2/maxwin/BulkDock/SCRATCH/211034/C15070-P26']

>  <SLURM_JOB_ID>  (57) 
211034

>  <tags>  (57) 
['Fragmenstein placed', 'RdRp_knitwork_primer_grip_n_pocket_impure_fragalysis.sdf Pose OK']

>  <fragmenstein_mode>  (57) 
['expansion']

>  <csv_name>  (57) 
RdRp_knitwork_primer_grip_n_pocket_impure_split4000_batch002.csv

$$$$
AWNUFCKXIZAWBG-UHFFFAOYSA-N
     RDKit          3D

 11 12  0  0  0  0  0  0  0  0999 V2000
  -15.8922  -41.9034  -25.4402 C   0  0  0  0  0  0  0  0  0  0  0  0
  -16.3858  -42.3490  -26.6539 C   0  0  0  0  0  0  0  0  0  0  0  0
  -17.0732  -41.5851  -27.5283 N   0  0  0  0  0  0  0  0  0  0  0  0
  -17.2744  -40.3030  -27.1610 C   0  0  0  0  0  0  0  0  0  0  0  0
  -16.8687  -39.7632  -25.9494 C   0  0  0  0  0  0  0  0  0  0  0  0
  -17.3519  -38.4526  -25.5665 C   0  0  0  0  0  0  0  0  0  0  0  0
  -18.2786  -37.7002  -26.1430 N   0  0  0  0  0  0  0  0  0  0  0  0
  -18.4889  -36.7037  -25.2215 C   0  0  0  0  0  0  0  0  0  0  0  0
  -17.6626  -36.8723  -24.1417 C   0  0  0  0  0  0  0  0  0  0  0  0
  -16.9236  -37.9908  -24.3497 O   0  0  0  0  0  0  0  0  0  0  0  0
  -16.1347  -40.5839  -25.0866 C   0  0  0  0  0  0  0  0  0  0  0  0
  1  2  2  0
  2  3  1  0
  3  4  2  0
  4  5  1  0
  5  6  1  0
  6  7  2  0
  7  8  1  0
  8  9  2  0
  9 10  1  0
  5 11  2  0
 11  1  1  0
 10  6  1  0
M  END
>  <fragmenstein_runtime>  (58) 
[1.3835973739624023]

>  <original ID>  (58) 
AWNUFCKXIZAWBG-UHFFFAOYSA-N

>  <fragmenstein_error>  (58) 
['']

>  <ref_pdb>  (58) 
d0160a

>  <Multi-SuCOS>  (58) 
0.759738

>  <SLURM_JOB_NAME>  (58) 
BulkDock.place:Flavi_NS5_RdRp:RdRp_knitwork_primer_grip_n_pocket_impure_split4000_batch003

>  <HIPPO Compound ID>  (58) 
9110

>  <original SMILES>  (58) 
c1cncc(-c2ncco2)c1

>  <name>  (58) 
AWNUFCKXIZAWBG-UHFFFAOYSA-N

>  <HIPPO Pose ID>  (58) 
45494

>  <ref_mols>  (58) 
d0160a,d0191a

>  <exports>  (58) 
['/opt/xchem-fragalysis-2/maxwin/BulkDock/OUTPUTS/RdRp_knitwork_primer_grip_n_pocket_impure_split4000_batch003_211035.sdf', '/opt/xchem-fragalysis-2/maxwin/BulkDock/OUTPUTS/RdRp_knitwork_primer_grip_n_pocket_impure_fragalysis.sdf', '/opt/xchem-fragalysis-2/maxwin/RdRp_FFF/syndirella/Retro_OK_batch1.sdf']

>  <alias>  (58) 
None

>  <inchikey>  (58) 
AWNUFCKXIZAWBG-UHFFFAOYSA-N

>  <energy_score>  (58) 
-13.148205

>  <distance_score>  (58) 
0.999925

>  <fragmenstein_outcome>  (58) 
['acceptable']

>  <merge_set>  (58) 
RdRp_knitwork_primer_grip_n_pocket_impure_fragalysis.sdf

>  <scratch_subdir>  (58) 
['/opt/xchem-fragalysis-2/maxwin/BulkDock/SCRATCH/211035/C9110-P12']

>  <SLURM_JOB_ID>  (58) 
211035

>  <tags>  (58) 
['Fragmenstein placed', 'RdRp_knitwork_primer_grip_n_pocket_impure_fragalysis.sdf Pose OK']

>  <fragmenstein_mode>  (58) 
['expansion']

>  <csv_name>  (58) 
RdRp_knitwork_primer_grip_n_pocket_impure_split4000_batch003.csv

$$$$
MKHBBPCZLAEZGC-ZDUSSCGKSA-N
     RDKit          3D

 19 20  0  0  0  0  0  0  0  0999 V2000
  -16.1145  -42.8918  -21.1377 O   0  0  0  0  0  0  0  0  0  0  0  0
  -15.9863  -43.4004  -22.2355 C   0  0  0  0  0  0  0  0  0  0  0  0
  -16.2884  -44.7978  -22.6065 C   0  0  0  0  0  0  0  0  0  0  0  0
  -16.9274  -45.7103  -21.8644 C   0  0  0  0  0  0  0  0  0  0  0  0
  -17.2697  -45.6005  -20.4958 C   0  0  0  0  0  0  0  0  0  0  0  0
  -18.5386  -45.4489  -19.9871 C   0  0  0  0  0  0  0  0  0  0  0  0
  -18.4563  -45.4205  -18.2731 S   0  0  0  0  0  0  0  0  0  0  0  0
  -16.7541  -45.6271  -18.3707 C   0  0  0  0  0  0  0  0  0  0  0  0
  -16.2523  -45.7463  -19.5812 N   0  0  0  0  0  0  0  0  0  0  0  0
  -15.5711  -42.7238  -23.3359 O   0  0  0  0  0  0  0  0  0  0  0  0
  -16.6273  -42.4394  -24.2620 C   0  0  0  0  0  0  0  0  0  0  0  0
  -16.0190  -42.1496  -25.6176 C   0  0  0  0  0  0  0  0  0  0  0  0
  -15.1947  -40.8600  -25.6273 C   0  0  0  0  0  0  0  0  0  0  0  0
  -15.8712  -39.7432  -26.4166 C   0  0  0  0  0  0  0  0  0  0  0  0
  -17.0966  -39.1756  -25.7204 C   0  0  1  0  0  0  0  0  0  0  0  0
  -16.7471  -38.3679  -24.4821 C   0  0  0  0  0  0  0  0  0  0  0  0
  -17.9273  -37.4467  -24.3706 C   0  0  0  0  0  0  0  0  0  0  0  0
  -18.2878  -37.1843  -25.8139 C   0  0  0  0  0  0  0  0  0  0  0  0
  -17.8153  -38.2865  -26.5956 O   0  0  0  0  0  0  0  0  0  0  0  0
  1  2  2  0
  2  3  1  0
  3  4  2  3
  4  5  1  0
  5  6  2  0
  6  7  1  0
  7  8  1  0
  8  9  2  0
  2 10  1  0
 10 11  1  0
 11 12  1  0
 12 13  1  0
 13 14  1  0
 15 14  1  6
 15 16  1  0
 16 17  1  0
 17 18  1  0
 18 19  1  0
  9  5  1  0
 19 15  1  0
M  END
>  <fragmenstein_runtime>  (59) 
[5.221753358840942]

>  <original ID>  (59) 
MKHBBPCZLAEZGC-ZDUSSCGKSA-N

>  <fragmenstein_error>  (59) 
['']

>  <ref_pdb>  (59) 
d0191a

>  <Multi-SuCOS>  (59) 
0.566935

>  <SLURM_JOB_NAME>  (59) 
BulkDock.place:Flavi_NS5_RdRp:RdRp_knitwork_primer_grip_n_pocket_impure_split4000_batch004

>  <HIPPO Compound ID>  (59) 
9420

>  <original SMILES>  (59) 
O=C(C=Cc1cscn1)OCCCC[C@H]1CCCO1

>  <name>  (59) 
MKHBBPCZLAEZGC-ZDUSSCGKSA-N

>  <HIPPO Pose ID>  (59) 
46189

>  <ref_mols>  (59) 
d0191a,d0254a

>  <exports>  (59) 
['/opt/xchem-fragalysis-2/maxwin/BulkDock/OUTPUTS/RdRp_knitwork_primer_grip_n_pocket_impure_split4000_batch004_211036.sdf', '/opt/xchem-fragalysis-2/maxwin/BulkDock/OUTPUTS/RdRp_knitwork_primer_grip_n_pocket_impure_fragalysis.sdf', '/opt/xchem-fragalysis-2/maxwin/RdRp_FFF/syndirella/Retro_OK_batch1.sdf']

>  <alias>  (59) 
None

>  <inchikey>  (59) 
MKHBBPCZLAEZGC-ZDUSSCGKSA-N

>  <energy_score>  (59) 
-48.593273

>  <distance_score>  (59) 
0.986395

>  <fragmenstein_outcome>  (59) 
['acceptable']

>  <merge_set>  (59) 
RdRp_knitwork_primer_grip_n_pocket_impure_fragalysis.sdf

>  <scratch_subdir>  (59) 
['/opt/xchem-fragalysis-2/maxwin/BulkDock/SCRATCH/211036/C9420-P19']

>  <SLURM_JOB_ID>  (59) 
211036

>  <tags>  (59) 
['Fragmenstein placed', 'RdRp_knitwork_primer_grip_n_pocket_impure_fragalysis.sdf Pose OK']

>  <fragmenstein_mode>  (59) 
['expansion']

>  <csv_name>  (59) 
RdRp_knitwork_primer_grip_n_pocket_impure_split4000_batch004.csv

$$$$
MKHBBPCZLAEZGC-ZDUSSCGKSA-N
     RDKit          3D

 19 20  0  0  0  0  0  0  0  0999 V2000
  -14.6899  -42.6413  -21.8957 O   0  0  0  0  0  0  0  0  0  0  0  0
  -15.3195  -43.2933  -22.7150 C   0  0  0  0  0  0  0  0  0  0  0  0
  -16.2280  -44.3628  -22.2997 C   0  0  0  0  0  0  0  0  0  0  0  0
  -17.0603  -45.3436  -21.9223 C   0  0  0  0  0  0  0  0  0  0  0  0
  -17.5133  -45.4446  -20.5781 C   0  0  0  0  0  0  0  0  0  0  0  0
  -18.6480  -46.0987  -20.1564 C   0  0  0  0  0  0  0  0  0  0  0  0
  -18.7991  -45.9471  -18.4531 S   0  0  0  0  0  0  0  0  0  0  0  0
  -17.3297  -45.0683  -18.4253 C   0  0  0  0  0  0  0  0  0  0  0  0
  -16.7532  -44.8713  -19.5874 N   0  0  0  0  0  0  0  0  0  0  0  0
  -15.2354  -43.0586  -24.0483 O   0  0  0  0  0  0  0  0  0  0  0  0
  -16.4703  -42.7453  -24.7049 C   0  0  0  0  0  0  0  0  0  0  0  0
  -16.1658  -42.0357  -26.0134 C   0  0  0  0  0  0  0  0  0  0  0  0
  -15.2962  -40.7830  -25.8260 C   0  0  0  0  0  0  0  0  0  0  0  0
  -15.9495  -39.5363  -26.4151 C   0  0  0  0  0  0  0  0  0  0  0  0
  -17.0289  -38.9755  -25.4991 C   0  0  1  0  0  0  0  0  0  0  0  0
  -16.5112  -38.1277  -24.3529 C   0  0  0  0  0  0  0  0  0  0  0  0
  -17.7432  -37.3339  -24.0018 C   0  0  0  0  0  0  0  0  0  0  0  0
  -18.3800  -37.0933  -25.3549 C   0  0  0  0  0  0  0  0  0  0  0  0
  -17.9439  -38.1408  -26.2348 O   0  0  0  0  0  0  0  0  0  0  0  0
  1  2  2  0
  2  3  1  0
  3  4  2  3
  4  5  1  0
  5  6  2  0
  6  7  1  0
  7  8  1  0
  8  9  2  0
  2 10  1  0
 10 11  1  0
 11 12  1  0
 12 13  1  0
 13 14  1  0
 15 14  1  6
 15 16  1  0
 16 17  1  0
 17 18  1  0
 18 19  1  0
  9  5  1  0
 19 15  1  0
M  END
>  <fragmenstein_runtime>  (60) 
[4.1744325160980225]

>  <original ID>  (60) 
MKHBBPCZLAEZGC-ZDUSSCGKSA-N

>  <fragmenstein_error>  (60) 
['']

>  <ref_pdb>  (60) 
d0254a

>  <Multi-SuCOS>  (60) 
0.536656

>  <SLURM_JOB_NAME>  (60) 
BulkDock.place:Flavi_NS5_RdRp:RdRp_knitwork_primer_grip_n_pocket_impure_split4000_batch004

>  <HIPPO Compound ID>  (60) 
9420

>  <original SMILES>  (60) 
O=C(C=Cc1cscn1)OCCCC[C@H]1CCCO1

>  <name>  (60) 
MKHBBPCZLAEZGC-ZDUSSCGKSA-N

>  <HIPPO Pose ID>  (60) 
46190

>  <ref_mols>  (60) 
d0191a,d0254a

>  <exports>  (60) 
['/opt/xchem-fragalysis-2/maxwin/BulkDock/OUTPUTS/RdRp_knitwork_primer_grip_n_pocket_impure_split4000_batch004_211036.sdf', '/opt/xchem-fragalysis-2/maxwin/BulkDock/OUTPUTS/RdRp_knitwork_primer_grip_n_pocket_impure_fragalysis.sdf', '/opt/xchem-fragalysis-2/maxwin/RdRp_FFF/syndirella/Retro_OK_batch1.sdf']

>  <alias>  (60) 
None

>  <inchikey>  (60) 
MKHBBPCZLAEZGC-ZDUSSCGKSA-N

>  <energy_score>  (60) 
-2.150412

>  <distance_score>  (60) 
0.933482

>  <fragmenstein_outcome>  (60) 
['acceptable']

>  <merge_set>  (60) 
RdRp_knitwork_primer_grip_n_pocket_impure_fragalysis.sdf

>  <scratch_subdir>  (60) 
['/opt/xchem-fragalysis-2/maxwin/BulkDock/SCRATCH/211036/C9420-P26']

>  <SLURM_JOB_ID>  (60) 
211036

>  <tags>  (60) 
['Fragmenstein placed', 'RdRp_knitwork_primer_grip_n_pocket_impure_fragalysis.sdf Pose OK']

>  <fragmenstein_mode>  (60) 
['expansion']

>  <csv_name>  (60) 
RdRp_knitwork_primer_grip_n_pocket_impure_split4000_batch004.csv

$$$$
HCFQKVQSVAJCEG-SECBINFHSA-N
     RDKit          3D

 18 19  0  0  0  0  0  0  0  0999 V2000
  -14.2709  -69.1059  -23.2113 C   0  0  0  0  0  0  0  0  0  0  0  0
  -14.1657  -70.5301  -22.6478 C   0  0  0  0  0  0  0  0  0  0  0  0
  -15.4177  -70.8044  -21.7930 C   0  0  0  0  0  0  0  0  0  0  0  0
  -14.1442  -71.5886  -23.7922 C   0  0  0  0  0  0  0  0  0  0  0  0
  -13.2335  -71.2954  -24.8410 O   0  0  0  0  0  0  0  0  0  0  0  0
  -12.9866  -70.6671  -21.7605 N   0  0  0  0  0  0  0  0  0  0  0  0
  -11.6977  -70.2741  -22.1382 C   0  0  0  0  0  0  0  0  0  0  0  0
  -11.3279  -70.4657  -23.3003 O   0  0  0  0  0  0  0  0  0  0  0  0
  -10.8163  -70.6589  -21.0956 N   0  0  0  0  0  0  0  0  0  0  0  0
  -11.1048  -71.2474  -19.7954 C   0  0  0  0  0  0  0  0  0  0  0  0
   -9.7484  -71.7289  -19.2847 C   0  0  0  0  0  0  0  0  0  0  0  0
   -8.7389  -70.7777  -19.9379 C   0  0  1  0  0  0  0  0  0  0  0  0
   -7.3431  -71.3047  -20.0759 C   0  0  0  0  0  0  0  0  0  0  0  0
   -6.9176  -72.5527  -20.5905 C   0  0  0  0  0  0  0  0  0  0  0  0
   -5.5506  -72.4880  -20.5726 C   0  0  0  0  0  0  0  0  0  0  0  0
   -5.1631  -71.2928  -20.0715 O   0  0  0  0  0  0  0  0  0  0  0  0
   -6.2842  -70.5486  -19.7419 N   0  0  0  0  0  0  0  0  0  0  0  0
   -9.3868  -70.4630  -21.2885 C   0  0  0  0  0  0  0  0  0  0  0  0
  1  2  1  0
  2  3  1  0
  2  4  1  0
  4  5  1  0
  2  6  1  0
  6  7  1  0
  7  8  2  0
  7  9  1  0
  9 10  1  0
 10 11  1  0
 11 12  1  0
 12 13  1  6
 13 14  1  0
 14 15  2  0
 15 16  1  0
 16 17  1  0
 12 18  1  0
 18  9  1  0
 17 13  2  0
M  END
>  <fragmenstein_runtime>  (61) 
[6.769750118255615]

>  <original ID>  (61) 
HCFQKVQSVAJCEG-SECBINFHSA-N

>  <fragmenstein_error>  (61) 
['']

>  <ref_pdb>  (61) 
d0248a

>  <Multi-SuCOS>  (61) 
0.738959

>  <SLURM_JOB_NAME>  (61) 
BulkDock.place:Flavi_NS5_RdRp:RdRp_knitwork_thumb_site_2_impure_split4000_batch001

>  <HIPPO Compound ID>  (61) 
2576

>  <original SMILES>  (61) 
CC(C)(CO)NC(=O)N1CC[C@@H](c2ccon2)C1

>  <name>  (61) 
HCFQKVQSVAJCEG-SECBINFHSA-N

>  <HIPPO Pose ID>  (61) 
46347

>  <ref_mols>  (61) 
d0248a,d0279a,d0615a

>  <exports>  (61) 
['/opt/xchem-fragalysis-2/maxwin/BulkDock/OUTPUTS/RdRp_knitwork_thumb_site_2_impure_split4000_batch001_211014.sdf', '/opt/xchem-fragalysis-2/maxwin/BulkDock/OUTPUTS/RdRp_knitwork_thumb_site_2_impure_fragalysis.sdf', '/opt/xchem-fragalysis-2/maxwin/RdRp_FFF/syndirella/Retro_OK_batch1.sdf']

>  <alias>  (61) 
None

>  <inchikey>  (61) 
HCFQKVQSVAJCEG-SECBINFHSA-N

>  <energy_score>  (61) 
-17.717591

>  <distance_score>  (61) 
0.942626

>  <fragmenstein_outcome>  (61) 
['acceptable']

>  <merge_set>  (61) 
RdRp_knitwork_thumb_site_2_impure_fragalysis.sdf

>  <scratch_subdir>  (61) 
['/opt/xchem-fragalysis-2/maxwin/BulkDock/SCRATCH/211014/C2576-P22']

>  <SLURM_JOB_ID>  (61) 
211014

>  <tags>  (61) 
['Fragmenstein placed', 'RdRp_knitwork_thumb_site_2_impure_fragalysis.sdf Pose OK']

>  <fragmenstein_mode>  (61) 
['expansion']

>  <csv_name>  (61) 
RdRp_knitwork_thumb_site_2_impure_split4000_batch001.csv

$$$$
HCFQKVQSVAJCEG-SECBINFHSA-N
     RDKit          3D

 18 19  0  0  0  0  0  0  0  0999 V2000
  -14.4295  -69.2167  -23.0103 C   0  0  0  0  0  0  0  0  0  0  0  0
  -14.2627  -70.6682  -22.5690 C   0  0  0  0  0  0  0  0  0  0  0  0
  -15.5107  -71.0608  -21.7621 C   0  0  0  0  0  0  0  0  0  0  0  0
  -14.1671  -71.6316  -23.7897 C   0  0  0  0  0  0  0  0  0  0  0  0
  -13.2515  -71.2132  -24.7918 O   0  0  0  0  0  0  0  0  0  0  0  0
  -13.1001  -70.8042  -21.6741 N   0  0  0  0  0  0  0  0  0  0  0  0
  -11.8282  -70.3170  -21.9865 C   0  0  0  0  0  0  0  0  0  0  0  0
  -11.4136  -70.3916  -23.1472 O   0  0  0  0  0  0  0  0  0  0  0  0
  -10.9632  -70.7371  -20.9482 N   0  0  0  0  0  0  0  0  0  0  0  0
  -11.2616  -71.4375  -19.7063 C   0  0  0  0  0  0  0  0  0  0  0  0
   -9.8969  -71.8578  -19.1692 C   0  0  0  0  0  0  0  0  0  0  0  0
   -8.9497  -70.7840  -19.7095 C   0  0  1  0  0  0  0  0  0  0  0  0
   -7.5136  -71.1763  -19.7805 C   0  0  0  0  0  0  0  0  0  0  0  0
   -6.9334  -72.2720  -20.4607 C   0  0  0  0  0  0  0  0  0  0  0  0
   -5.5962  -72.1724  -20.1883 C   0  0  0  0  0  0  0  0  0  0  0  0
   -5.3702  -71.0871  -19.4160 O   0  0  0  0  0  0  0  0  0  0  0  0
   -6.5711  -70.4589  -19.1502 N   0  0  0  0  0  0  0  0  0  0  0  0
   -9.5462  -70.4599  -21.0748 C   0  0  0  0  0  0  0  0  0  0  0  0
  1  2  1  0
  2  3  1  0
  2  4  1  0
  4  5  1  0
  2  6  1  0
  6  7  1  0
  7  8  2  0
  7  9  1  0
  9 10  1  0
 10 11  1  0
 11 12  1  0
 12 13  1  6
 13 14  1  0
 14 15  2  0
 15 16  1  0
 16 17  1  0
 12 18  1  0
 18  9  1  0
 17 13  2  0
M  END
>  <fragmenstein_runtime>  (62) 
[6.282138824462891]

>  <original ID>  (62) 
HCFQKVQSVAJCEG-SECBINFHSA-N

>  <fragmenstein_error>  (62) 
['']

>  <ref_pdb>  (62) 
d0279a

>  <Multi-SuCOS>  (62) 
0.673031

>  <SLURM_JOB_NAME>  (62) 
BulkDock.place:Flavi_NS5_RdRp:RdRp_knitwork_thumb_site_2_impure_split4000_batch001

>  <HIPPO Compound ID>  (62) 
2576

>  <original SMILES>  (62) 
CC(C)(CO)NC(=O)N1CC[C@@H](c2ccon2)C1

>  <name>  (62) 
HCFQKVQSVAJCEG-SECBINFHSA-N

>  <HIPPO Pose ID>  (62) 
46349

>  <ref_mols>  (62) 
d0248a,d0279a

>  <exports>  (62) 
['/opt/xchem-fragalysis-2/maxwin/BulkDock/OUTPUTS/RdRp_knitwork_thumb_site_2_impure_split4000_batch001_211014.sdf', '/opt/xchem-fragalysis-2/maxwin/BulkDock/OUTPUTS/RdRp_knitwork_thumb_site_2_impure_fragalysis.sdf', '/opt/xchem-fragalysis-2/maxwin/RdRp_FFF/syndirella/Retro_OK_batch1.sdf']

>  <alias>  (62) 
None

>  <inchikey>  (62) 
HCFQKVQSVAJCEG-SECBINFHSA-N

>  <energy_score>  (62) 
-17.429993

>  <distance_score>  (62) 
0.9633

>  <fragmenstein_outcome>  (62) 
['acceptable']

>  <merge_set>  (62) 
RdRp_knitwork_thumb_site_2_impure_fragalysis.sdf

>  <scratch_subdir>  (62) 
['/opt/xchem-fragalysis-2/maxwin/BulkDock/SCRATCH/211014/C2576-P29']

>  <SLURM_JOB_ID>  (62) 
211014

>  <tags>  (62) 
['Fragmenstein placed', 'RdRp_knitwork_thumb_site_2_impure_fragalysis.sdf Pose OK']

>  <fragmenstein_mode>  (62) 
['expansion']

>  <csv_name>  (62) 
RdRp_knitwork_thumb_site_2_impure_split4000_batch001.csv

$$$$
FGHWWXWXGBNBJX-ZJUUUORDSA-N
     RDKit          3D

 15 15  0  0  0  0  0  0  0  0999 V2000
  -15.3127  -69.5019  -22.9656 C   0  0  0  0  0  0  0  0  0  0  0  0
  -13.9869  -70.1820  -23.2778 C   0  0  2  0  0  0  0  0  0  0  0  0
  -14.1537  -71.2762  -24.3550 C   0  0  0  0  0  0  0  0  0  0  0  0
  -12.9065  -71.8755  -24.7039 O   0  0  0  0  0  0  0  0  0  0  0  0
  -13.2923  -70.7125  -22.0803 N   0  0  0  0  0  0  0  0  0  0  0  0
  -14.0890  -71.4711  -21.1193 C   0  0  0  0  0  0  0  0  0  0  0  0
  -11.8992  -70.6131  -22.0695 C   0  0  0  0  0  0  0  0  0  0  0  0
  -11.3170  -70.0167  -22.9823 O   0  0  0  0  0  0  0  0  0  0  0  0
  -11.1124  -71.2484  -20.9105 C   0  0  1  0  0  0  0  0  0  0  0  0
   -9.6161  -71.4501  -21.2907 C   0  0  0  0  0  0  0  0  0  0  0  0
   -8.5980  -70.7251  -20.4078 C   0  0  0  0  0  0  0  0  0  0  0  0
   -8.4727  -71.3083  -18.9987 C   0  0  0  0  0  0  0  0  0  0  0  0
   -9.6824  -71.8911  -18.4380 N   0  0  0  0  0  0  0  0  0  0  0  0
  -10.8198  -70.9907  -18.3421 C   0  0  0  0  0  0  0  0  0  0  0  0
  -11.3265  -70.3880  -19.6538 C   0  0  0  0  0  0  0  0  0  0  0  0
  2  1  1  1
  2  3  1  0
  3  4  1  0
  2  5  1  0
  5  6  1  0
  5  7  1  0
  7  8  2  0
  9  7  1  6
  9 10  1  0
 10 11  1  0
 11 12  1  0
 12 13  1  0
 13 14  1  0
 14 15  1  0
 15  9  1  0
M  END
>  <fragmenstein_runtime>  (63) 
[4.4379518032073975]

>  <original ID>  (63) 
FGHWWXWXGBNBJX-ZJUUUORDSA-N

>  <fragmenstein_error>  (63) 
['']

>  <ref_pdb>  (63) 
d0248a

>  <Multi-SuCOS>  (63) 
0.716505

>  <SLURM_JOB_NAME>  (63) 
BulkDock.place:Flavi_NS5_RdRp:RdRp_knitwork_thumb_site_2_impure_split4000_batch001

>  <HIPPO Compound ID>  (63) 
1261

>  <original SMILES>  (63) 
C[C@H](CO)N(C)C(=O)[C@H]1CCCNCC1

>  <name>  (63) 
FGHWWXWXGBNBJX-ZJUUUORDSA-N

>  <HIPPO Pose ID>  (63) 
46687

>  <ref_mols>  (63) 
d0248a,d0759a

>  <exports>  (63) 
['/opt/xchem-fragalysis-2/maxwin/BulkDock/OUTPUTS/RdRp_knitwork_thumb_site_2_impure_split4000_batch001_211014.sdf', '/opt/xchem-fragalysis-2/maxwin/BulkDock/OUTPUTS/RdRp_knitwork_thumb_site_2_impure_fragalysis.sdf', '/opt/xchem-fragalysis-2/maxwin/RdRp_FFF/syndirella/Retro_OK_batch1.sdf']

>  <alias>  (63) 
None

>  <inchikey>  (63) 
FGHWWXWXGBNBJX-ZJUUUORDSA-N

>  <energy_score>  (63) 
-50.119209

>  <distance_score>  (63) 
0.76204

>  <fragmenstein_outcome>  (63) 
['acceptable']

>  <merge_set>  (63) 
RdRp_knitwork_thumb_site_2_impure_fragalysis.sdf

>  <scratch_subdir>  (63) 
['/opt/xchem-fragalysis-2/maxwin/BulkDock/SCRATCH/211014/C1261-P22']

>  <SLURM_JOB_ID>  (63) 
211014

>  <tags>  (63) 
['Fragmenstein placed', 'RdRp_knitwork_thumb_site_2_impure_fragalysis.sdf Pose OK']

>  <fragmenstein_mode>  (63) 
['expansion']

>  <csv_name>  (63) 
RdRp_knitwork_thumb_site_2_impure_split4000_batch001.csv

$$$$
HLHAOIDDWWBQNL-KRWDZBQOSA-N
     RDKit          3D

 24 26  0  0  0  0  0  0  0  0999 V2000
  -12.7162  -68.6130  -19.8352 O   0  0  0  0  0  0  0  0  0  0  0  0
  -13.7143  -69.5879  -20.1903 S   0  0  0  0  0  0  0  0  0  0  0  0
  -14.5406  -70.2073  -19.1743 O   0  0  0  0  0  0  0  0  0  0  0  0
  -14.7724  -68.8574  -21.4303 C   0  0  0  0  0  0  0  0  0  0  0  0
  -15.4510  -69.8526  -22.3437 C   0  0  0  0  0  0  0  0  0  0  0  0
  -14.8634  -70.0314  -23.6999 C   0  0  0  0  0  0  0  0  0  0  0  0
  -15.3917  -70.8488  -24.7248 C   0  0  0  0  0  0  0  0  0  0  0  0
  -14.6796  -70.7963  -25.8490 N   0  0  0  0  0  0  0  0  0  0  0  0
  -13.6415  -69.9226  -25.5751 O   0  0  0  0  0  0  0  0  0  0  0  0
  -13.7644  -69.4642  -24.3031 C   0  0  0  0  0  0  0  0  0  0  0  0
  -12.9609  -70.8510  -20.9573 N   0  0  0  0  0  0  0  0  0  0  0  0
  -11.5906  -70.6485  -21.4670 C   0  0  1  0  0  0  0  0  0  0  0  0
  -10.4964  -70.9576  -20.4472 C   0  0  0  0  0  0  0  0  0  0  0  0
  -10.6183  -71.9673  -19.4781 C   0  0  0  0  0  0  0  0  0  0  0  0
   -9.5474  -72.2894  -18.6370 C   0  0  0  0  0  0  0  0  0  0  0  0
   -8.3307  -71.6261  -18.7633 C   0  0  0  0  0  0  0  0  0  0  0  0
   -8.1921  -70.6202  -19.7115 C   0  0  0  0  0  0  0  0  0  0  0  0
   -9.2662  -70.2806  -20.5355 C   0  0  0  0  0  0  0  0  0  0  0  0
  -11.3509  -71.4108  -22.7594 C   0  0  0  0  0  0  0  0  0  0  0  0
  -10.4053  -70.9643  -23.6935 C   0  0  0  0  0  0  0  0  0  0  0  0
  -10.2109  -71.6583  -24.8816 C   0  0  0  0  0  0  0  0  0  0  0  0
  -10.9539  -72.8056  -25.0979 C   0  0  0  0  0  0  0  0  0  0  0  0
  -11.8481  -73.2970  -24.2137 N   0  0  0  0  0  0  0  0  0  0  0  0
  -12.0210  -72.5913  -23.0724 C   0  0  0  0  0  0  0  0  0  0  0  0
  1  2  2  0
  2  3  2  0
  2  4  1  0
  4  5  1  0
  5  6  1  0
  6  7  1  0
  7  8  2  0
  8  9  1  0
  9 10  1  0
  2 11  1  0
 12 11  1  1
 12 13  1  0
 13 14  2  0
 14 15  1  0
 15 16  2  0
 16 17  1  0
 17 18  2  0
 12 19  1  0
 19 20  2  0
 20 21  1  0
 21 22  2  0
 22 23  1  0
 23 24  2  0
 10  6  2  0
 18 13  1  0
 24 19  1  0
M  END
>  <fragmenstein_runtime>  (64) 
[3.0585849285125732]

>  <original ID>  (64) 
HLHAOIDDWWBQNL-KRWDZBQOSA-N

>  <fragmenstein_error>  (64) 
['']

>  <ref_pdb>  (64) 
d0615a

>  <Multi-SuCOS>  (64) 
0.528558

>  <SLURM_JOB_NAME>  (64) 
BulkDock.place:Flavi_NS5_RdRp:RdRp_knitwork_thumb_site_2_pure_split4000_batch000

>  <HIPPO Compound ID>  (64) 
1548

>  <original SMILES>  (64) 
O=S(=O)(CCc1cnoc1)N[C@@H](c1ccccc1)c1cccnc1

>  <name>  (64) 
HLHAOIDDWWBQNL-KRWDZBQOSA-N

>  <HIPPO Pose ID>  (64) 
47100

>  <ref_mols>  (64) 
d0174a,d0615a

>  <exports>  (64) 
['/opt/xchem-fragalysis-2/maxwin/BulkDock/OUTPUTS/RdRp_knitwork_thumb_site_2_pure_split4000_batch000_211010.sdf', '/opt/xchem-fragalysis-2/maxwin/BulkDock/OUTPUTS/RdRp_knitwork_thumb_site_2_pure_fragalysis.sdf', '/opt/xchem-fragalysis-2/maxwin/RdRp_FFF/syndirella/Retro_OK_batch1.sdf']

>  <alias>  (64) 
None

>  <inchikey>  (64) 
HLHAOIDDWWBQNL-KRWDZBQOSA-N

>  <energy_score>  (64) 
-30.580906

>  <distance_score>  (64) 
0.814399

>  <fragmenstein_outcome>  (64) 
['acceptable']

>  <merge_set>  (64) 
RdRp_knitwork_thumb_site_2_pure_fragalysis.sdf

>  <scratch_subdir>  (64) 
['/opt/xchem-fragalysis-2/maxwin/BulkDock/SCRATCH/211010/C1548-P50']

>  <SLURM_JOB_ID>  (64) 
211010

>  <tags>  (64) 
['RdRp_knitwork_thumb_site_2_pure_fragalysis.sdf Pose OK', 'Fragmenstein placed']

>  <fragmenstein_mode>  (64) 
['expansion']

>  <csv_name>  (64) 
RdRp_knitwork_thumb_site_2_pure_split4000_batch000.csv

$$$$
KSAGREYJOMINST-UHFFFAOYSA-N
     RDKit          3D

 22 23  0  0  0  0  0  0  0  0999 V2000
  -10.8609  -70.9346  -25.3140 C   0  0  0  0  0  0  0  0  0  0  0  0
  -10.6126  -70.8244  -23.8303 C   0  0  0  0  0  0  0  0  0  0  0  0
  -12.1340  -70.6172  -22.9073 S   0  0  0  0  0  0  0  0  0  0  0  0
  -12.8273  -69.4683  -23.4460 O   0  0  0  0  0  0  0  0  0  0  0  0
  -12.7968  -71.8994  -22.7951 O   0  0  0  0  0  0  0  0  0  0  0  0
  -11.6144  -70.1841  -21.3182 N   0  0  0  0  0  0  0  0  0  0  0  0
  -12.7527  -69.6535  -20.5171 C   0  0  0  0  0  0  0  0  0  0  0  0
  -10.7358  -71.1958  -20.6145 C   0  0  0  0  0  0  0  0  0  0  0  0
  -10.8350  -71.1689  -19.0755 C   0  0  0  0  0  0  0  0  0  0  0  0
   -9.6408  -71.8592  -18.4203 C   0  0  0  0  0  0  0  0  0  0  0  0
   -8.3667  -71.2802  -18.8414 N   0  0  0  0  0  0  0  0  0  0  0  0
   -7.2167  -71.6187  -18.1461 C   0  0  0  0  0  0  0  0  0  0  0  0
   -7.2690  -72.3031  -17.1224 O   0  0  0  0  0  0  0  0  0  0  0  0
   -5.8835  -71.1018  -18.6645 C   0  0  0  0  0  0  0  0  0  0  0  0
   -5.3619  -71.7633  -19.9133 C   0  0  0  0  0  0  0  0  0  0  0  0
   -4.1471  -71.3288  -20.4591 C   0  0  0  0  0  0  0  0  0  0  0  0
   -3.6102  -71.9754  -21.5680 C   0  0  0  0  0  0  0  0  0  0  0  0
   -4.3154  -73.0337  -22.1113 C   0  0  0  0  0  0  0  0  0  0  0  0
   -5.5026  -73.4633  -21.6355 N   0  0  0  0  0  0  0  0  0  0  0  0
   -5.9892  -72.8360  -20.5413 C   0  0  0  0  0  0  0  0  0  0  0  0
   -8.4020  -70.4113  -20.0028 C   0  0  0  0  0  0  0  0  0  0  0  0
   -9.2821  -70.9874  -21.0766 C   0  0  0  0  0  0  0  0  0  0  0  0
  1  2  1  0
  2  3  1  0
  3  4  2  0
  3  5  2  0
  3  6  1  0
  6  7  1  0
  6  8  1  0
  8  9  1  0
  9 10  1  0
 10 11  1  0
 11 12  1  0
 12 13  2  0
 12 14  1  0
 14 15  1  0
 15 16  2  0
 16 17  1  0
 17 18  2  0
 18 19  1  0
 19 20  2  0
 11 21  1  0
 21 22  1  0
 22  8  1  0
 20 15  1  0
M  END
>  <fragmenstein_runtime>  (65) 
[5.592968940734863]

>  <original ID>  (65) 
KSAGREYJOMINST-UHFFFAOYSA-N

>  <fragmenstein_error>  (65) 
['']

>  <ref_pdb>  (65) 
d0174a

>  <Multi-SuCOS>  (65) 
0.400538

>  <SLURM_JOB_NAME>  (65) 
BulkDock.place:Flavi_NS5_RdRp:RdRp_knitwork_thumb_site_2_pure_split4000_batch000

>  <HIPPO Compound ID>  (65) 
1237

>  <original SMILES>  (65) 
CCS(=O)(=O)N(C)C1CCN(C(=O)Cc2cccnc2)CC1

>  <name>  (65) 
KSAGREYJOMINST-UHFFFAOYSA-N

>  <HIPPO Pose ID>  (65) 
47294

>  <ref_mols>  (65) 
d0174a,d0615a

>  <exports>  (65) 
['/opt/xchem-fragalysis-2/maxwin/BulkDock/OUTPUTS/RdRp_knitwork_thumb_site_2_pure_split4000_batch000_211010.sdf', '/opt/xchem-fragalysis-2/maxwin/BulkDock/OUTPUTS/RdRp_knitwork_thumb_site_2_pure_fragalysis.sdf', '/opt/xchem-fragalysis-2/maxwin/RdRp_FFF/syndirella/Retro_OK_batch1.sdf']

>  <alias>  (65) 
None

>  <inchikey>  (65) 
KSAGREYJOMINST-UHFFFAOYSA-N

>  <energy_score>  (65) 
-50.603277

>  <distance_score>  (65) 
0.948254

>  <fragmenstein_outcome>  (65) 
['acceptable']

>  <merge_set>  (65) 
RdRp_knitwork_thumb_site_2_pure_fragalysis.sdf

>  <scratch_subdir>  (65) 
['/opt/xchem-fragalysis-2/maxwin/BulkDock/SCRATCH/211010/C1237-P17']

>  <SLURM_JOB_ID>  (65) 
211010

>  <tags>  (65) 
['RdRp_knitwork_thumb_site_2_pure_fragalysis.sdf Pose OK', 'Fragmenstein placed']

>  <fragmenstein_mode>  (65) 
['expansion']

>  <csv_name>  (65) 
RdRp_knitwork_thumb_site_2_pure_split4000_batch000.csv

$$$$
YZLMFJIBZWHYDW-UHFFFAOYSA-N
     RDKit          3D

 19 20  0  0  0  0  0  0  0  0999 V2000
  -16.6898  -47.7745  -20.4764 O   0  0  0  0  0  0  0  0  0  0  0  0
  -17.6034  -47.1340  -20.9773 C   0  0  0  0  0  0  0  0  0  0  0  0
  -18.1645  -47.4998  -22.1440 O   0  0  0  0  0  0  0  0  0  0  0  0
  -18.2915  -45.9828  -20.4683 C   0  0  0  0  0  0  0  0  0  0  0  0
  -18.5069  -45.5946  -19.1577 C   0  0  0  0  0  0  0  0  0  0  0  0
  -19.3551  -44.4556  -19.1830 C   0  0  0  0  0  0  0  0  0  0  0  0
  -19.9846  -43.6665  -17.7859 S   0  0  0  0  0  0  0  0  0  0  0  0
  -20.8945  -42.6583  -18.2800 O   0  0  0  0  0  0  0  0  0  0  0  0
  -18.8183  -43.3226  -17.0064 O   0  0  0  0  0  0  0  0  0  0  0  0
  -20.8513  -44.7957  -16.9210 N   0  0  0  0  0  0  0  0  0  0  0  0
  -22.1729  -45.1302  -17.4351 C   0  0  0  0  0  0  0  0  0  0  0  0
  -22.6282  -46.4271  -16.8453 C   0  0  0  0  0  0  0  0  0  0  0  0
  -23.5492  -46.4510  -15.8034 C   0  0  0  0  0  0  0  0  0  0  0  0
  -23.9515  -47.6784  -15.3275 C   0  0  0  0  0  0  0  0  0  0  0  0
  -23.4835  -48.8547  -15.7894 N   0  0  0  0  0  0  0  0  0  0  0  0
  -22.5799  -48.8055  -16.7868 C   0  0  0  0  0  0  0  0  0  0  0  0
  -22.1183  -47.6296  -17.3310 C   0  0  0  0  0  0  0  0  0  0  0  0
  -19.5998  -44.1429  -20.5033 C   0  0  0  0  0  0  0  0  0  0  0  0
  -18.9306  -45.0581  -21.2678 N   0  0  0  0  0  0  0  0  0  0  0  0
  1  2  2  0
  2  3  1  0
  2  4  1  0
  4  5  2  0
  5  6  1  0
  6  7  1  0
  7  8  2  0
  7  9  2  0
  7 10  1  0
 10 11  1  0
 11 12  1  0
 12 13  2  0
 13 14  1  0
 14 15  2  0
 15 16  1  0
 16 17  2  0
  6 18  2  0
 18 19  1  0
 19  4  1  0
 17 12  1  0
M  END
>  <fragmenstein_runtime>  (66) 
[3.523015260696411]

>  <original ID>  (66) 
YZLMFJIBZWHYDW-UHFFFAOYSA-N

>  <fragmenstein_error>  (66) 
['']

>  <ref_pdb>  (66) 
d0264a

>  <Multi-SuCOS>  (66) 
0.454582

>  <SLURM_JOB_NAME>  (66) 
BulkDock.place:Flavi_NS5_RdRp:RdRp_knitwork_primer_grip_n_pocket_impure_split4000_batch004

>  <HIPPO Compound ID>  (66) 
10564

>  <original SMILES>  (66) 
O=C(O)c1cc(S(=O)(=O)NCc2ccncc2)c[nH]1

>  <name>  (66) 
YZLMFJIBZWHYDW-UHFFFAOYSA-N

>  <HIPPO Pose ID>  (66) 
47646

>  <ref_mols>  (66) 
d0264a,d0472a

>  <exports>  (66) 
['/opt/xchem-fragalysis-2/maxwin/BulkDock/OUTPUTS/RdRp_knitwork_primer_grip_n_pocket_impure_split4000_batch004_211036.sdf', '/opt/xchem-fragalysis-2/maxwin/BulkDock/OUTPUTS/RdRp_knitwork_primer_grip_n_pocket_impure_fragalysis.sdf', '/opt/xchem-fragalysis-2/maxwin/RdRp_FFF/syndirella/Retro_OK_batch1.sdf']

>  <alias>  (66) 
None

>  <inchikey>  (66) 
YZLMFJIBZWHYDW-UHFFFAOYSA-N

>  <energy_score>  (66) 
-43.943292

>  <distance_score>  (66) 
0.859733

>  <fragmenstein_outcome>  (66) 
['acceptable']

>  <merge_set>  (66) 
RdRp_knitwork_primer_grip_n_pocket_impure_fragalysis.sdf

>  <scratch_subdir>  (66) 
['/opt/xchem-fragalysis-2/maxwin/BulkDock/SCRATCH/211036/C10564-P28']

>  <SLURM_JOB_ID>  (66) 
211036

>  <tags>  (66) 
['Fragmenstein placed', 'RdRp_knitwork_primer_grip_n_pocket_impure_fragalysis.sdf Pose OK']

>  <fragmenstein_mode>  (66) 
['expansion']

>  <csv_name>  (66) 
RdRp_knitwork_primer_grip_n_pocket_impure_split4000_batch004.csv

$$$$
KXKSLXFPGVFZSD-OCCSQVGLSA-N
     RDKit          3D

 23 24  0  0  0  0  0  0  0  0999 V2000
  -19.0623  -35.1252  -24.2753 C   0  0  0  0  0  0  0  0  0  0  0  0
  -19.4707  -36.5513  -24.5736 C   0  0  1  0  0  0  0  0  0  0  0  0
  -20.6509  -36.5012  -25.3881 O   0  0  0  0  0  0  0  0  0  0  0  0
  -18.4291  -37.3578  -25.3081 C   0  0  0  0  0  0  0  0  0  0  0  0
  -18.5619  -37.8155  -26.5441 N   0  0  0  0  0  0  0  0  0  0  0  0
  -17.5417  -38.7215  -26.8025 C   0  0  0  0  0  0  0  0  0  0  0  0
  -16.6717  -38.9628  -25.7602 C   0  0  0  0  0  0  0  0  0  0  0  0
  -15.6198  -40.0155  -25.6114 C   0  0  0  0  0  0  0  0  0  0  0  0
  -16.0397  -40.8509  -24.4753 N   0  0  0  0  0  0  0  0  0  0  0  0
  -15.2785  -42.0828  -24.3021 C   0  0  1  0  0  0  0  0  0  0  0  0
  -14.7709  -42.3134  -22.8578 C   0  0  0  0  0  0  0  0  0  0  0  0
  -15.7672  -42.4952  -21.7048 C   0  0  0  0  0  0  0  0  0  0  0  0
  -16.5450  -41.2541  -21.3371 C   0  0  0  0  0  0  0  0  0  0  0  0
  -17.9405  -41.2274  -21.4545 C   0  0  0  0  0  0  0  0  0  0  0  0
  -18.6592  -40.0749  -21.1321 C   0  0  0  0  0  0  0  0  0  0  0  0
  -17.9927  -38.9401  -20.6757 C   0  0  0  0  0  0  0  0  0  0  0  0
  -16.6069  -38.9591  -20.5357 C   0  0  0  0  0  0  0  0  0  0  0  0
  -15.8870  -40.1105  -20.8600 C   0  0  0  0  0  0  0  0  0  0  0  0
  -16.0923  -43.2526  -24.8449 C   0  0  0  0  0  0  0  0  0  0  0  0
  -17.4629  -43.4437  -24.2495 C   0  0  0  0  0  0  0  0  0  0  0  0
  -17.8036  -44.4251  -23.6077 O   0  0  0  0  0  0  0  0  0  0  0  0
  -18.3099  -42.4356  -24.5306 O   0  0  0  0  0  0  0  0  0  0  0  0
  -17.0258  -37.8863  -24.4698 S   0  0  0  0  0  0  0  0  0  0  0  0
  2  1  1  6
  2  3  1  0
  2  4  1  0
  4  5  2  0
  5  6  1  0
  6  7  2  0
  7  8  1  0
  8  9  1  0
  9 10  1  0
 10 11  1  1
 11 12  1  0
 12 13  1  0
 13 14  2  0
 14 15  1  0
 15 16  2  0
 16 17  1  0
 17 18  2  0
 10 19  1  0
 19 20  1  0
 20 21  2  0
 20 22  1  0
  7 23  1  0
 23  4  1  0
 18 13  1  0
M  END
>  <fragmenstein_runtime>  (67) 
[5.229903221130371]

>  <original ID>  (67) 
KXKSLXFPGVFZSD-OCCSQVGLSA-N

>  <fragmenstein_error>  (67) 
['']

>  <ref_pdb>  (67) 
d0472a

>  <Multi-SuCOS>  (67) 
0.358664

>  <SLURM_JOB_NAME>  (67) 
BulkDock.place:Flavi_NS5_RdRp:RdRp_knitwork_primer_grip_n_pocket_impure_split4000_batch005

>  <HIPPO Compound ID>  (67) 
14066

>  <original SMILES>  (67) 
C[C@@H](O)c1ncc(CN[C@@H](CCc2ccccc2)CC(=O)O)s1

>  <name>  (67) 
KXKSLXFPGVFZSD-OCCSQVGLSA-N

>  <HIPPO Pose ID>  (67) 
47713

>  <ref_mols>  (67) 
d0264a,d0472a,d0615b

>  <exports>  (67) 
['/opt/xchem-fragalysis-2/maxwin/BulkDock/OUTPUTS/RdRp_knitwork_primer_grip_n_pocket_impure_split4000_batch005_211037.sdf', '/opt/xchem-fragalysis-2/maxwin/BulkDock/OUTPUTS/RdRp_knitwork_primer_grip_n_pocket_impure_fragalysis.sdf', '/opt/xchem-fragalysis-2/maxwin/RdRp_FFF/syndirella/Retro_OK_batch1.sdf']

>  <alias>  (67) 
None

>  <inchikey>  (67) 
KXKSLXFPGVFZSD-OCCSQVGLSA-N

>  <energy_score>  (67) 
-93.587887

>  <distance_score>  (67) 
0.860995

>  <fragmenstein_outcome>  (67) 
['acceptable']

>  <merge_set>  (67) 
RdRp_knitwork_primer_grip_n_pocket_impure_fragalysis.sdf

>  <scratch_subdir>  (67) 
['/opt/xchem-fragalysis-2/maxwin/BulkDock/SCRATCH/211037/C14066-P42']

>  <SLURM_JOB_ID>  (67) 
211037

>  <tags>  (67) 
['Fragmenstein placed', 'RdRp_knitwork_primer_grip_n_pocket_impure_fragalysis.sdf Pose OK']

>  <fragmenstein_mode>  (67) 
['expansion']

>  <csv_name>  (67) 
RdRp_knitwork_primer_grip_n_pocket_impure_split4000_batch005.csv

$$$$
KXKSLXFPGVFZSD-OCCSQVGLSA-N
     RDKit          3D

 23 24  0  0  0  0  0  0  0  0999 V2000
  -19.3194  -35.0346  -24.4010 C   0  0  0  0  0  0  0  0  0  0  0  0
  -19.5512  -36.5271  -24.4890 C   0  0  1  0  0  0  0  0  0  0  0  0
  -20.7240  -36.7776  -25.2683 O   0  0  0  0  0  0  0  0  0  0  0  0
  -18.4207  -37.2957  -25.1152 C   0  0  0  0  0  0  0  0  0  0  0  0
  -18.3445  -37.6447  -26.3918 N   0  0  0  0  0  0  0  0  0  0  0  0
  -17.2655  -38.5065  -26.5475 C   0  0  0  0  0  0  0  0  0  0  0  0
  -16.5681  -38.8241  -25.3995 C   0  0  0  0  0  0  0  0  0  0  0  0
  -15.4783  -39.8226  -25.1976 C   0  0  0  0  0  0  0  0  0  0  0  0
  -15.7949  -40.6660  -24.0387 N   0  0  0  0  0  0  0  0  0  0  0  0
  -15.2444  -42.0044  -24.1044 C   0  0  1  0  0  0  0  0  0  0  0  0
  -14.6069  -42.5547  -22.8093 C   0  0  0  0  0  0  0  0  0  0  0  0
  -15.3800  -43.0979  -21.6066 C   0  0  0  0  0  0  0  0  0  0  0  0
  -16.0244  -42.1372  -20.6323 C   0  0  0  0  0  0  0  0  0  0  0  0
  -17.1089  -42.5930  -19.8625 C   0  0  0  0  0  0  0  0  0  0  0  0
  -17.6744  -41.7950  -18.8655 C   0  0  0  0  0  0  0  0  0  0  0  0
  -17.1634  -40.5239  -18.6217 C   0  0  0  0  0  0  0  0  0  0  0  0
  -16.0859  -40.0571  -19.3713 C   0  0  0  0  0  0  0  0  0  0  0  0
  -15.5128  -40.8620  -20.3611 C   0  0  0  0  0  0  0  0  0  0  0  0
  -16.2362  -42.9104  -24.8186 C   0  0  0  0  0  0  0  0  0  0  0  0
  -17.5196  -43.2716  -24.1052 C   0  0  0  0  0  0  0  0  0  0  0  0
  -17.8577  -42.9720  -22.9770 O   0  0  0  0  0  0  0  0  0  0  0  0
  -18.2898  -44.0567  -24.9001 O   0  0  0  0  0  0  0  0  0  0  0  0
  -17.1564  -37.8710  -24.1058 S   0  0  0  0  0  0  0  0  0  0  0  0
  2  1  1  6
  2  3  1  0
  2  4  1  0
  4  5  2  0
  5  6  1  0
  6  7  2  0
  7  8  1  0
  8  9  1  0
  9 10  1  0
 10 11  1  1
 11 12  1  0
 12 13  1  0
 13 14  2  0
 14 15  1  0
 15 16  2  0
 16 17  1  0
 17 18  2  0
 10 19  1  0
 19 20  1  0
 20 21  2  0
 20 22  1  0
  7 23  1  0
 23  4  1  0
 18 13  1  0
M  END
>  <fragmenstein_runtime>  (68) 
[5.8087921142578125]

>  <original ID>  (68) 
KXKSLXFPGVFZSD-OCCSQVGLSA-N

>  <fragmenstein_error>  (68) 
['']

>  <ref_pdb>  (68) 
d0615b

>  <Multi-SuCOS>  (68) 
0.36885

>  <SLURM_JOB_NAME>  (68) 
BulkDock.place:Flavi_NS5_RdRp:RdRp_knitwork_primer_grip_n_pocket_impure_split4000_batch005

>  <HIPPO Compound ID>  (68) 
14066

>  <original SMILES>  (68) 
C[C@@H](O)c1ncc(CN[C@@H](CCc2ccccc2)CC(=O)O)s1

>  <name>  (68) 
KXKSLXFPGVFZSD-OCCSQVGLSA-N

>  <HIPPO Pose ID>  (68) 
47725

>  <ref_mols>  (68) 
d0472a,d0615b

>  <exports>  (68) 
['/opt/xchem-fragalysis-2/maxwin/BulkDock/OUTPUTS/RdRp_knitwork_primer_grip_n_pocket_impure_split4000_batch005_211037.sdf', '/opt/xchem-fragalysis-2/maxwin/BulkDock/OUTPUTS/RdRp_knitwork_primer_grip_n_pocket_impure_fragalysis.sdf', '/opt/xchem-fragalysis-2/maxwin/RdRp_FFF/syndirella/Retro_OK_batch1.sdf']

>  <alias>  (68) 
None

>  <inchikey>  (68) 
KXKSLXFPGVFZSD-OCCSQVGLSA-N

>  <energy_score>  (68) 
-69.985337

>  <distance_score>  (68) 
0.775944

>  <fragmenstein_outcome>  (68) 
['acceptable']

>  <merge_set>  (68) 
RdRp_knitwork_primer_grip_n_pocket_impure_fragalysis.sdf

>  <scratch_subdir>  (68) 
['/opt/xchem-fragalysis-2/maxwin/BulkDock/SCRATCH/211037/C14066-P51']

>  <SLURM_JOB_ID>  (68) 
211037

>  <tags>  (68) 
['Fragmenstein placed', 'RdRp_knitwork_primer_grip_n_pocket_impure_fragalysis.sdf Pose OK']

>  <fragmenstein_mode>  (68) 
['expansion']

>  <csv_name>  (68) 
RdRp_knitwork_primer_grip_n_pocket_impure_split4000_batch005.csv

$$$$
DBKPJODZOLWIJA-CQSZACIVSA-N
     RDKit          3D

 22 23  0  0  0  0  0  0  0  0999 V2000
  -18.8989  -35.3911  -24.2730 C   0  0  0  0  0  0  0  0  0  0  0  0
  -19.2942  -36.8456  -24.4141 C   0  0  0  0  0  0  0  0  0  0  0  0
  -18.3263  -37.6530  -25.2232 C   0  0  0  0  0  0  0  0  0  0  0  0
  -18.5384  -38.0292  -26.4707 N   0  0  0  0  0  0  0  0  0  0  0  0
  -17.5274  -38.8950  -26.8489 C   0  0  0  0  0  0  0  0  0  0  0  0
  -16.5550  -39.1666  -25.9043 C   0  0  0  0  0  0  0  0  0  0  0  0
  -15.3579  -40.0503  -26.0645 C   0  0  0  0  0  0  0  0  0  0  0  0
  -14.9530  -40.8522  -24.9105 N   0  0  0  0  0  0  0  0  0  0  0  0
  -15.9360  -41.7270  -24.2467 C   0  0  2  0  0  0  0  0  0  0  0  0
  -15.1068  -42.5114  -23.1833 C   0  0  0  0  0  0  0  0  0  0  0  0
  -15.9636  -43.4179  -22.3080 C   0  0  0  0  0  0  0  0  0  0  0  0
  -15.3732  -44.0845  -21.1005 C   0  0  0  0  0  0  0  0  0  0  0  0
  -16.1081  -45.1539  -20.5571 C   0  0  0  0  0  0  0  0  0  0  0  0
  -15.7775  -45.6865  -19.3224 C   0  0  0  0  0  0  0  0  0  0  0  0
  -14.7110  -45.1421  -18.6126 C   0  0  0  0  0  0  0  0  0  0  0  0
  -13.9324  -44.1233  -19.1671 C   0  0  0  0  0  0  0  0  0  0  0  0
  -14.2601  -43.5964  -20.4143 C   0  0  0  0  0  0  0  0  0  0  0  0
  -16.7494  -42.6539  -25.1790 C   0  0  0  0  0  0  0  0  0  0  0  0
  -18.0394  -43.1357  -24.5448 C   0  0  0  0  0  0  0  0  0  0  0  0
  -18.4826  -42.8458  -23.4486 O   0  0  0  0  0  0  0  0  0  0  0  0
  -18.7400  -43.9740  -25.3313 O   0  0  0  0  0  0  0  0  0  0  0  0
  -16.8675  -38.2253  -24.5082 S   0  0  0  0  0  0  0  0  0  0  0  0
  1  2  1  0
  2  3  1  0
  3  4  2  0
  4  5  1  0
  5  6  2  0
  6  7  1  0
  7  8  1  0
  8  9  1  0
  9 10  1  1
 10 11  1  0
 11 12  1  0
 12 13  2  0
 13 14  1  0
 14 15  2  0
 15 16  1  0
 16 17  2  0
  9 18  1  0
 18 19  1  0
 19 20  2  0
 19 21  1  0
  6 22  1  0
 22  3  1  0
 17 12  1  0
M  END
>  <fragmenstein_runtime>  (69) 
[7.451780080795288]

>  <original ID>  (69) 
DBKPJODZOLWIJA-CQSZACIVSA-N

>  <fragmenstein_error>  (69) 
['']

>  <ref_pdb>  (69) 
d0472a

>  <Multi-SuCOS>  (69) 
0.557354

>  <SLURM_JOB_NAME>  (69) 
BulkDock.place:Flavi_NS5_RdRp:RdRp_knitwork_primer_grip_n_pocket_impure_split4000_batch005

>  <HIPPO Compound ID>  (69) 
14067

>  <original SMILES>  (69) 
CCc1ncc(CN[C@H](CCc2ccccc2)CC(=O)O)s1

>  <name>  (69) 
DBKPJODZOLWIJA-CQSZACIVSA-N

>  <HIPPO Pose ID>  (69) 
47741

>  <ref_mols>  (69) 
d0264a,d0472a,d0615b

>  <exports>  (69) 
['/opt/xchem-fragalysis-2/maxwin/BulkDock/OUTPUTS/RdRp_knitwork_primer_grip_n_pocket_impure_split4000_batch005_211037.sdf', '/opt/xchem-fragalysis-2/maxwin/BulkDock/OUTPUTS/RdRp_knitwork_primer_grip_n_pocket_impure_fragalysis.sdf', '/opt/xchem-fragalysis-2/maxwin/RdRp_FFF/syndirella/Retro_OK_batch1.sdf']

>  <alias>  (69) 
None

>  <inchikey>  (69) 
DBKPJODZOLWIJA-CQSZACIVSA-N

>  <energy_score>  (69) 
-76.031233

>  <distance_score>  (69) 
0.989365

>  <fragmenstein_outcome>  (69) 
['acceptable']

>  <merge_set>  (69) 
RdRp_knitwork_primer_grip_n_pocket_impure_fragalysis.sdf

>  <scratch_subdir>  (69) 
['/opt/xchem-fragalysis-2/maxwin/BulkDock/SCRATCH/211037/C14067-P42']

>  <SLURM_JOB_ID>  (69) 
211037

>  <tags>  (69) 
['Fragmenstein placed', 'RdRp_knitwork_primer_grip_n_pocket_impure_fragalysis.sdf Pose OK']

>  <fragmenstein_mode>  (69) 
['expansion']

>  <csv_name>  (69) 
RdRp_knitwork_primer_grip_n_pocket_impure_split4000_batch005.csv

$$$$
ORGCRSJVVRKQHS-UHFFFAOYSA-N
     RDKit          3D

 14 16  0  0  0  0  0  0  0  0999 V2000
  -16.4674  -41.7463  -26.2781 C   0  0  0  0  0  0  0  0  0  0  0  0
  -16.0354  -41.7900  -25.0369 N   0  0  0  0  0  0  0  0  0  0  0  0
  -15.3289  -40.6168  -24.8566 C   0  0  0  0  0  0  0  0  0  0  0  0
  -14.5994  -40.3058  -23.6160 C   0  0  0  0  0  0  0  0  0  0  0  0
  -14.0050  -39.1143  -23.3938 N   0  0  0  0  0  0  0  0  0  0  0  0
  -13.4202  -39.2566  -22.1941 N   0  0  0  0  0  0  0  0  0  0  0  0
  -13.5846  -40.4923  -21.6597 C   0  0  0  0  0  0  0  0  0  0  0  0
  -14.3761  -41.1992  -22.5394 C   0  0  0  0  0  0  0  0  0  0  0  0
  -14.7685  -42.6122  -22.2939 C   0  0  0  0  0  0  0  0  0  0  0  0
  -14.5993  -42.9673  -20.8006 C   0  0  0  0  0  0  0  0  0  0  0  0
  -13.2723  -42.4691  -20.1992 C   0  0  0  0  0  0  0  0  0  0  0  0
  -13.0430  -40.9555  -20.3617 C   0  0  0  0  0  0  0  0  0  0  0  0
  -15.3982  -39.8438  -25.9953 C   0  0  0  0  0  0  0  0  0  0  0  0
  -16.0994  -40.5858  -26.9011 N   0  0  0  0  0  0  0  0  0  0  0  0
  1  2  2  0
  2  3  1  0
  3  4  1  0
  4  5  2  0
  5  6  1  0
  6  7  1  0
  7  8  2  0
  8  9  1  0
  9 10  1  0
 10 11  1  0
 11 12  1  0
  3 13  2  0
 13 14  1  0
 14  1  1  0
  8  4  1  0
 12  7  1  0
M  END
>  <fragmenstein_runtime>  (70) 
[2.1672892570495605]

>  <original ID>  (70) 
ORGCRSJVVRKQHS-UHFFFAOYSA-N

>  <fragmenstein_error>  (70) 
['']

>  <ref_pdb>  (70) 
d0160a

>  <Multi-SuCOS>  (70) 
0.580421

>  <SLURM_JOB_NAME>  (70) 
BulkDock.place:Flavi_NS5_RdRp:RdRp_knitwork_primer_grip_n_pocket_impure_split4000_batch003

>  <HIPPO Compound ID>  (70) 
23454

>  <original SMILES>  (70) 
c1nc(-c2n[nH]c3c2CCCC3)c[nH]1

>  <name>  (70) 
ORGCRSJVVRKQHS-UHFFFAOYSA-N

>  <HIPPO Pose ID>  (70) 
47755

>  <ref_mols>  (70) 
d0160a,z0103a

>  <exports>  (70) 
['/opt/xchem-fragalysis-2/maxwin/BulkDock/OUTPUTS/RdRp_knitwork_primer_grip_n_pocket_impure_split4000_batch003_211035.sdf', '/opt/xchem-fragalysis-2/maxwin/BulkDock/OUTPUTS/RdRp_knitwork_primer_grip_n_pocket_impure_fragalysis.sdf', '/opt/xchem-fragalysis-2/maxwin/RdRp_FFF/syndirella/Retro_OK_batch1.sdf']

>  <alias>  (70) 
None

>  <inchikey>  (70) 
ORGCRSJVVRKQHS-UHFFFAOYSA-N

>  <energy_score>  (70) 
-46.24067

>  <distance_score>  (70) 
0.927374

>  <fragmenstein_outcome>  (70) 
['acceptable']

>  <merge_set>  (70) 
RdRp_knitwork_primer_grip_n_pocket_impure_fragalysis.sdf

>  <scratch_subdir>  (70) 
['/opt/xchem-fragalysis-2/maxwin/BulkDock/SCRATCH/211035/C23454-P12']

>  <SLURM_JOB_ID>  (70) 
211035

>  <tags>  (70) 
['Fragmenstein placed', 'RdRp_knitwork_primer_grip_n_pocket_impure_fragalysis.sdf Pose OK']

>  <fragmenstein_mode>  (70) 
['expansion']

>  <csv_name>  (70) 
RdRp_knitwork_primer_grip_n_pocket_impure_split4000_batch003.csv

$$$$
IQFFGYDSWILZBZ-UHFFFAOYSA-N
     RDKit          3D

 18 19  0  0  0  0  0  0  0  0999 V2000
  -14.6703  -69.2999  -22.9966 C   0  0  0  0  0  0  0  0  0  0  0  0
  -14.2653  -70.7300  -22.6132 C   0  0  0  0  0  0  0  0  0  0  0  0
  -15.4292  -71.3177  -21.8034 C   0  0  0  0  0  0  0  0  0  0  0  0
  -14.0675  -71.6058  -23.8706 C   0  0  0  0  0  0  0  0  0  0  0  0
  -13.1380  -71.0959  -24.8112 O   0  0  0  0  0  0  0  0  0  0  0  0
  -13.0673  -70.7582  -21.7439 N   0  0  0  0  0  0  0  0  0  0  0  0
  -12.0306  -69.7063  -21.8899 C   0  0  0  0  0  0  0  0  0  0  0  0
  -11.7559  -69.7759  -23.1061 O   0  0  0  0  0  0  0  0  0  0  0  0
  -11.3375  -70.4907  -20.8017 C   0  0  0  0  0  0  0  0  0  0  0  0
  -11.4679  -70.2223  -19.4477 C   0  0  0  0  0  0  0  0  0  0  0  0
  -10.1863  -70.9640  -18.5795 S   0  0  0  0  0  0  0  0  0  0  0  0
   -9.5254  -71.5036  -20.0619 C   0  0  0  0  0  0  0  0  0  0  0  0
   -8.1030  -72.1080  -20.2628 C   0  0  0  0  0  0  0  0  0  0  0  0
   -7.6713  -72.6699  -21.5013 C   0  0  0  0  0  0  0  0  0  0  0  0
   -6.3701  -73.1077  -21.4448 C   0  0  0  0  0  0  0  0  0  0  0  0
   -5.6577  -72.7883  -19.9240 S   0  0  0  0  0  0  0  0  0  0  0  0
   -7.1117  -72.1242  -19.3115 C   0  0  0  0  0  0  0  0  0  0  0  0
  -10.2872  -71.3322  -21.1164 N   0  0  0  0  0  0  0  0  0  0  0  0
  1  2  1  0
  2  3  1  0
  2  4  1  0
  4  5  1  0
  2  6  1  0
  6  7  1  0
  7  8  2  0
  7  9  1  0
  9 10  2  0
 10 11  1  0
 11 12  1  0
 12 13  1  0
 13 14  1  0
 14 15  2  0
 15 16  1  0
 16 17  1  0
 12 18  2  0
 18  9  1  0
 17 13  2  0
M  END
>  <fragmenstein_runtime>  (71) 
[4.153818368911743]

>  <original ID>  (71) 
IQFFGYDSWILZBZ-UHFFFAOYSA-N

>  <fragmenstein_error>  (71) 
['']

>  <ref_pdb>  (71) 
d0376a

>  <Multi-SuCOS>  (71) 
0.653107

>  <SLURM_JOB_NAME>  (71) 
BulkDock.place:Flavi_NS5_RdRp:RdRp_knitwork_thumb_site_2_pure_split4000_batch000

>  <HIPPO Compound ID>  (71) 
1443

>  <original SMILES>  (71) 
CC(C)(CO)NC(=O)c1csc(-c2ccsc2)n1

>  <name>  (71) 
IQFFGYDSWILZBZ-UHFFFAOYSA-N

>  <HIPPO Pose ID>  (71) 
48009

>  <ref_mols>  (71) 
d0248a,d0376a

>  <exports>  (71) 
['/opt/xchem-fragalysis-2/maxwin/BulkDock/OUTPUTS/RdRp_knitwork_thumb_site_2_pure_split4000_batch000_211010.sdf', '/opt/xchem-fragalysis-2/maxwin/BulkDock/OUTPUTS/RdRp_knitwork_thumb_site_2_pure_fragalysis.sdf', '/opt/xchem-fragalysis-2/maxwin/RdRp_FFF/syndirella/Retro_OK_batch1.sdf']

>  <alias>  (71) 
None

>  <inchikey>  (71) 
IQFFGYDSWILZBZ-UHFFFAOYSA-N

>  <energy_score>  (71) 
-6.451584

>  <distance_score>  (71) 
0.806872

>  <fragmenstein_outcome>  (71) 
['acceptable']

>  <merge_set>  (71) 
RdRp_knitwork_thumb_site_2_pure_fragalysis.sdf

>  <scratch_subdir>  (71) 
['/opt/xchem-fragalysis-2/maxwin/BulkDock/SCRATCH/211010/C1443-P33']

>  <SLURM_JOB_ID>  (71) 
211010

>  <tags>  (71) 
['RdRp_knitwork_thumb_site_2_pure_fragalysis.sdf Pose OK', 'Fragmenstein placed']

>  <fragmenstein_mode>  (71) 
['expansion']

>  <csv_name>  (71) 
RdRp_knitwork_thumb_site_2_pure_split4000_batch000.csv

$$$$
QUOAIKVUVSRACH-UHFFFAOYSA-N
     RDKit          3D

 17 18  0  0  0  0  0  0  0  0999 V2000
  -18.9187  -36.4452  -24.6395 C   0  0  0  0  0  0  0  0  0  0  0  0
  -18.1020  -37.4812  -25.3284 C   0  0  0  0  0  0  0  0  0  0  0  0
  -18.3656  -37.9716  -26.5241 N   0  0  0  0  0  0  0  0  0  0  0  0
  -17.3998  -38.9140  -26.8412 C   0  0  0  0  0  0  0  0  0  0  0  0
  -16.4111  -39.1229  -25.8985 C   0  0  0  0  0  0  0  0  0  0  0  0
  -15.2155  -40.0132  -25.9953 C   0  0  0  0  0  0  0  0  0  0  0  0
  -15.0029  -40.7118  -24.7561 O   0  0  0  0  0  0  0  0  0  0  0  0
  -15.6725  -41.8898  -24.6220 C   0  0  0  0  0  0  0  0  0  0  0  0
  -16.4971  -42.3128  -25.4236 O   0  0  0  0  0  0  0  0  0  0  0  0
  -15.2352  -42.6186  -23.3519 C   0  0  0  0  0  0  0  0  0  0  0  0
  -16.2175  -42.7383  -22.3333 O   0  0  0  0  0  0  0  0  0  0  0  0
  -17.0555  -43.7768  -22.5422 C   0  0  0  0  0  0  0  0  0  0  0  0
  -18.1677  -43.7759  -23.4229 C   0  0  0  0  0  0  0  0  0  0  0  0
  -18.8437  -44.9748  -23.3858 C   0  0  0  0  0  0  0  0  0  0  0  0
  -18.1769  -46.0532  -22.2301 S   0  0  0  0  0  0  0  0  0  0  0  0
  -16.9565  -44.9355  -21.8088 C   0  0  0  0  0  0  0  0  0  0  0  0
  -16.7076  -38.1163  -24.5462 S   0  0  0  0  0  0  0  0  0  0  0  0
  1  2  1  0
  2  3  2  0
  3  4  1  0
  4  5  2  0
  5  6  1  0
  6  7  1  0
  7  8  1  0
  8  9  2  0
  8 10  1  0
 10 11  1  0
 11 12  1  0
 12 13  1  0
 13 14  2  0
 14 15  1  0
 15 16  1  0
  5 17  1  0
 17  2  1  0
 16 12  2  0
M  END
>  <fragmenstein_runtime>  (72) 
[6.006796360015869]

>  <original ID>  (72) 
QUOAIKVUVSRACH-UHFFFAOYSA-N

>  <fragmenstein_error>  (72) 
['']

>  <ref_pdb>  (72) 
d0472a

>  <Multi-SuCOS>  (72) 
0.669812

>  <SLURM_JOB_NAME>  (72) 
BulkDock.place:Flavi_NS5_RdRp:RdRp_knitwork_primer_grip_n_pocket_impure_split4000_batch005

>  <HIPPO Compound ID>  (72) 
14548

>  <original SMILES>  (72) 
Cc1ncc(COC(=O)COc2ccsc2)s1

>  <name>  (72) 
QUOAIKVUVSRACH-UHFFFAOYSA-N

>  <HIPPO Pose ID>  (72) 
48036

>  <ref_mols>  (72) 
d0264a,d0472a,d0615b

>  <exports>  (72) 
['/opt/xchem-fragalysis-2/maxwin/BulkDock/OUTPUTS/RdRp_knitwork_primer_grip_n_pocket_impure_split4000_batch005_211037.sdf', '/opt/xchem-fragalysis-2/maxwin/BulkDock/OUTPUTS/RdRp_knitwork_primer_grip_n_pocket_impure_fragalysis.sdf', '/opt/xchem-fragalysis-2/maxwin/RdRp_FFF/syndirella/Retro_OK_batch1.sdf']

>  <alias>  (72) 
None

>  <inchikey>  (72) 
QUOAIKVUVSRACH-UHFFFAOYSA-N

>  <energy_score>  (72) 
-100.725938

>  <distance_score>  (72) 
0.608901

>  <fragmenstein_outcome>  (72) 
['acceptable']

>  <merge_set>  (72) 
RdRp_knitwork_primer_grip_n_pocket_impure_fragalysis.sdf

>  <scratch_subdir>  (72) 
['/opt/xchem-fragalysis-2/maxwin/BulkDock/SCRATCH/211037/C14548-P42']

>  <SLURM_JOB_ID>  (72) 
211037

>  <tags>  (72) 
['Fragmenstein placed', 'RdRp_knitwork_primer_grip_n_pocket_impure_fragalysis.sdf Pose OK']

>  <fragmenstein_mode>  (72) 
['expansion']

>  <csv_name>  (72) 
RdRp_knitwork_primer_grip_n_pocket_impure_split4000_batch005.csv

$$$$
CSVFDYSBDWPCIW-UHFFFAOYSA-N
     RDKit          3D

 17 18  0  0  0  0  0  0  0  0999 V2000
  -16.7909  -40.1756  -27.5958 C   0  0  0  0  0  0  0  0  0  0  0  0
  -16.9545  -39.2189  -26.4762 C   0  0  0  0  0  0  0  0  0  0  0  0
  -18.0198  -38.3201  -26.4560 N   0  0  0  0  0  0  0  0  0  0  0  0
  -17.9735  -37.6451  -25.3248 C   0  0  0  0  0  0  0  0  0  0  0  0
  -16.7051  -38.0479  -24.2430 S   0  0  0  0  0  0  0  0  0  0  0  0
  -16.1175  -39.1761  -25.3804 C   0  0  0  0  0  0  0  0  0  0  0  0
  -14.8578  -39.9368  -25.1922 C   0  0  0  0  0  0  0  0  0  0  0  0
  -14.9360  -40.7593  -24.0287 O   0  0  0  0  0  0  0  0  0  0  0  0
  -15.3703  -42.0265  -24.2386 C   0  0  0  0  0  0  0  0  0  0  0  0
  -15.9462  -42.4236  -25.2434 O   0  0  0  0  0  0  0  0  0  0  0  0
  -15.0233  -42.8911  -23.0422 C   0  0  0  0  0  0  0  0  0  0  0  0
  -15.9211  -42.7644  -21.9564 O   0  0  0  0  0  0  0  0  0  0  0  0
  -16.9326  -43.6475  -22.0473 C   0  0  0  0  0  0  0  0  0  0  0  0
  -17.8897  -43.7203  -23.0858 C   0  0  0  0  0  0  0  0  0  0  0  0
  -18.8012  -44.7202  -22.8503 C   0  0  0  0  0  0  0  0  0  0  0  0
  -18.4942  -45.5435  -21.3789 S   0  0  0  0  0  0  0  0  0  0  0  0
  -17.1428  -44.5662  -21.0494 C   0  0  0  0  0  0  0  0  0  0  0  0
  1  2  1  0
  2  3  1  0
  3  4  2  0
  4  5  1  0
  5  6  1  0
  6  7  1  0
  7  8  1  0
  8  9  1  0
  9 10  2  0
  9 11  1  0
 11 12  1  0
 12 13  1  0
 13 14  1  0
 14 15  2  0
 15 16  1  0
 16 17  1  0
  6  2  2  0
 17 13  2  0
M  END
>  <fragmenstein_runtime>  (73) 
[5.989177465438843]

>  <original ID>  (73) 
CSVFDYSBDWPCIW-UHFFFAOYSA-N

>  <fragmenstein_error>  (73) 
['']

>  <ref_pdb>  (73) 
d0615b

>  <Multi-SuCOS>  (73) 
0.563583

>  <SLURM_JOB_NAME>  (73) 
BulkDock.place:Flavi_NS5_RdRp:RdRp_knitwork_primer_grip_n_pocket_impure_split4000_batch005

>  <HIPPO Compound ID>  (73) 
14551

>  <original SMILES>  (73) 
Cc1ncsc1COC(=O)COc1ccsc1

>  <name>  (73) 
CSVFDYSBDWPCIW-UHFFFAOYSA-N

>  <HIPPO Pose ID>  (73) 
48051

>  <ref_mols>  (73) 
d0472a,d0615b

>  <exports>  (73) 
['/opt/xchem-fragalysis-2/maxwin/BulkDock/OUTPUTS/RdRp_knitwork_primer_grip_n_pocket_impure_split4000_batch005_211037.sdf', '/opt/xchem-fragalysis-2/maxwin/BulkDock/OUTPUTS/RdRp_knitwork_primer_grip_n_pocket_impure_fragalysis.sdf', '/opt/xchem-fragalysis-2/maxwin/RdRp_FFF/syndirella/Retro_OK_batch1.sdf']

>  <alias>  (73) 
None

>  <inchikey>  (73) 
CSVFDYSBDWPCIW-UHFFFAOYSA-N

>  <energy_score>  (73) 
-223.288689

>  <distance_score>  (73) 
0.960379

>  <fragmenstein_outcome>  (73) 
['acceptable']

>  <merge_set>  (73) 
RdRp_knitwork_primer_grip_n_pocket_impure_fragalysis.sdf

>  <scratch_subdir>  (73) 
['/opt/xchem-fragalysis-2/maxwin/BulkDock/SCRATCH/211037/C14551-P51']

>  <SLURM_JOB_ID>  (73) 
211037

>  <tags>  (73) 
['Fragmenstein placed', 'RdRp_knitwork_primer_grip_n_pocket_impure_fragalysis.sdf Pose OK']

>  <fragmenstein_mode>  (73) 
['expansion']

>  <csv_name>  (73) 
RdRp_knitwork_primer_grip_n_pocket_impure_split4000_batch005.csv

$$$$
RHYGREJDHHQRDC-GFCCVEGCSA-N
     RDKit          3D

 20 21  0  0  0  0  0  0  0  0999 V2000
  -14.1344  -69.6507  -22.8431 C   0  0  0  0  0  0  0  0  0  0  0  0
  -14.7091  -69.8731  -21.4619 C   0  0  0  0  0  0  0  0  0  0  0  0
  -13.4770  -69.8932  -20.1607 S   0  0  0  0  0  0  0  0  0  0  0  0
  -12.6493  -68.7191  -20.2635 O   0  0  0  0  0  0  0  0  0  0  0  0
  -14.1609  -70.2251  -18.9233 O   0  0  0  0  0  0  0  0  0  0  0  0
  -12.5388  -71.2343  -20.5021 N   0  0  0  0  0  0  0  0  0  0  0  0
  -11.2377  -71.1442  -21.1979 C   0  0  0  0  0  0  0  0  0  0  0  0
  -10.0737  -70.7499  -20.2826 C   0  0  1  0  0  0  0  0  0  0  0  0
  -10.0717  -71.3800  -18.8956 C   0  0  0  0  0  0  0  0  0  0  0  0
   -8.6311  -71.2099  -18.4648 C   0  0  0  0  0  0  0  0  0  0  0  0
   -8.2736  -71.1889  -17.2983 O   0  0  0  0  0  0  0  0  0  0  0  0
   -7.8405  -71.1410  -19.6146 N   0  0  0  0  0  0  0  0  0  0  0  0
   -6.4481  -70.8286  -19.6593 C   0  0  0  0  0  0  0  0  0  0  0  0
   -5.6430  -71.2617  -20.7017 C   0  0  0  0  0  0  0  0  0  0  0  0
   -4.3623  -70.7074  -20.9179 C   0  0  0  0  0  0  0  0  0  0  0  0
   -3.8512  -69.7161  -20.0780 C   0  0  0  0  0  0  0  0  0  0  0  0
   -2.6108  -68.9434  -20.4316 C   0  0  0  0  0  0  0  0  0  0  0  0
   -4.5831  -69.4049  -18.9381 C   0  0  0  0  0  0  0  0  0  0  0  0
   -5.8402  -69.9965  -18.7222 C   0  0  0  0  0  0  0  0  0  0  0  0
   -8.6783  -71.1433  -20.8041 C   0  0  0  0  0  0  0  0  0  0  0  0
  1  2  1  0
  2  3  1  0
  3  4  2  0
  3  5  2  0
  3  6  1  0
  6  7  1  0
  8  7  1  6
  8  9  1  0
  9 10  1  0
 10 11  2  0
 10 12  1  0
 12 13  1  0
 13 14  2  0
 14 15  1  0
 15 16  2  0
 16 17  1  0
 16 18  1  0
 18 19  2  0
 12 20  1  0
 20  8  1  0
 19 13  1  0
M  END
>  <fragmenstein_runtime>  (74) 
[11.740421056747437]

>  <original ID>  (74) 
RHYGREJDHHQRDC-GFCCVEGCSA-N

>  <fragmenstein_error>  (74) 
['']

>  <ref_pdb>  (74) 
d0566a

>  <Multi-SuCOS>  (74) 
0.653868

>  <SLURM_JOB_NAME>  (74) 
BulkDock.place:Flavi_NS5_RdRp:RdRp_knitwork_thumb_site_2_pure_split4000_batch000

>  <HIPPO Compound ID>  (74) 
2829

>  <original SMILES>  (74) 
CCS(=O)(=O)NC[C@H]1CC(=O)N(c2ccc(C)cc2)C1

>  <name>  (74) 
RHYGREJDHHQRDC-GFCCVEGCSA-N

>  <HIPPO Pose ID>  (74) 
48404

>  <ref_mols>  (74) 
d0174a,d0566a

>  <exports>  (74) 
['/opt/xchem-fragalysis-2/maxwin/BulkDock/OUTPUTS/RdRp_knitwork_thumb_site_2_pure_split4000_batch000_211010.sdf', '/opt/xchem-fragalysis-2/maxwin/BulkDock/OUTPUTS/RdRp_knitwork_thumb_site_2_pure_fragalysis.sdf', '/opt/xchem-fragalysis-2/maxwin/RdRp_FFF/syndirella/Retro_OK_batch1.sdf']

>  <alias>  (74) 
None

>  <inchikey>  (74) 
RHYGREJDHHQRDC-GFCCVEGCSA-N

>  <energy_score>  (74) 
-25.541663

>  <distance_score>  (74) 
0.945776

>  <fragmenstein_outcome>  (74) 
['acceptable']

>  <merge_set>  (74) 
RdRp_knitwork_thumb_site_2_pure_fragalysis.sdf

>  <scratch_subdir>  (74) 
['/opt/xchem-fragalysis-2/maxwin/BulkDock/SCRATCH/211010/C2829-P45']

>  <SLURM_JOB_ID>  (74) 
211010

>  <tags>  (74) 
['RdRp_knitwork_thumb_site_2_pure_fragalysis.sdf Pose OK', 'Fragmenstein placed']

>  <fragmenstein_mode>  (74) 
['expansion']

>  <csv_name>  (74) 
RdRp_knitwork_thumb_site_2_pure_split4000_batch000.csv

$$$$
FOZSYKGVMKDKBV-SNVBAGLBSA-N
     RDKit          3D

 20 21  0  0  0  0  0  0  0  0999 V2000
  -14.1479  -69.6505  -22.8418 C   0  0  0  0  0  0  0  0  0  0  0  0
  -14.7237  -69.8669  -21.4599 C   0  0  0  0  0  0  0  0  0  0  0  0
  -13.4917  -69.8900  -20.1589 S   0  0  0  0  0  0  0  0  0  0  0  0
  -12.6575  -68.7209  -20.2650 O   0  0  0  0  0  0  0  0  0  0  0  0
  -14.1759  -70.2172  -18.9204 O   0  0  0  0  0  0  0  0  0  0  0  0
  -12.5607  -71.2368  -20.4972 N   0  0  0  0  0  0  0  0  0  0  0  0
  -11.2604  -71.1538  -21.1933 C   0  0  0  0  0  0  0  0  0  0  0  0
  -10.0966  -70.7504  -20.2820 C   0  0  1  0  0  0  0  0  0  0  0  0
  -10.0955  -71.3599  -18.8850 C   0  0  0  0  0  0  0  0  0  0  0  0
   -8.6526  -71.1930  -18.4598 C   0  0  0  0  0  0  0  0  0  0  0  0
   -8.2858  -71.1647  -17.2963 O   0  0  0  0  0  0  0  0  0  0  0  0
   -7.8650  -71.1380  -19.6119 N   0  0  0  0  0  0  0  0  0  0  0  0
   -6.4701  -70.8475  -19.6629 C   0  0  0  0  0  0  0  0  0  0  0  0
   -5.6792  -71.3091  -20.7056 C   0  0  0  0  0  0  0  0  0  0  0  0
   -4.3905  -70.7832  -20.9294 C   0  0  0  0  0  0  0  0  0  0  0  0
   -3.8780  -69.7906  -20.1014 C   0  0  0  0  0  0  0  0  0  0  0  0
   -2.4308  -68.9646  -20.5266 Cl  0  0  0  0  0  0  0  0  0  0  0  0
   -4.5795  -69.4461  -18.9597 C   0  0  0  0  0  0  0  0  0  0  0  0
   -5.8459  -70.0128  -18.7340 C   0  0  0  0  0  0  0  0  0  0  0  0
   -8.7046  -71.1566  -20.8000 C   0  0  0  0  0  0  0  0  0  0  0  0
  1  2  1  0
  2  3  1  0
  3  4  2  0
  3  5  2  0
  3  6  1  0
  6  7  1  0
  8  7  1  6
  8  9  1  0
  9 10  1  0
 10 11  2  0
 10 12  1  0
 12 13  1  0
 13 14  2  0
 14 15  1  0
 15 16  2  0
 16 17  1  0
 16 18  1  0
 18 19  2  0
 12 20  1  0
 20  8  1  0
 19 13  1  0
M  END
>  <fragmenstein_runtime>  (75) 
[10.632996082305908]

>  <original ID>  (75) 
FOZSYKGVMKDKBV-SNVBAGLBSA-N

>  <fragmenstein_error>  (75) 
['']

>  <ref_pdb>  (75) 
d0566a

>  <Multi-SuCOS>  (75) 
0.652349

>  <SLURM_JOB_NAME>  (75) 
BulkDock.place:Flavi_NS5_RdRp:RdRp_knitwork_thumb_site_2_pure_split4000_batch000

>  <HIPPO Compound ID>  (75) 
3075

>  <original SMILES>  (75) 
CCS(=O)(=O)NC[C@H]1CC(=O)N(c2ccc(Cl)cc2)C1

>  <name>  (75) 
FOZSYKGVMKDKBV-SNVBAGLBSA-N

>  <HIPPO Pose ID>  (75) 
48487

>  <ref_mols>  (75) 
d0174a,d0566a

>  <exports>  (75) 
['/opt/xchem-fragalysis-2/maxwin/BulkDock/OUTPUTS/RdRp_knitwork_thumb_site_2_pure_split4000_batch000_211010.sdf', '/opt/xchem-fragalysis-2/maxwin/BulkDock/OUTPUTS/RdRp_knitwork_thumb_site_2_pure_fragalysis.sdf', '/opt/xchem-fragalysis-2/maxwin/RdRp_FFF/syndirella/Retro_OK_batch1.sdf']

>  <alias>  (75) 
None

>  <inchikey>  (75) 
FOZSYKGVMKDKBV-SNVBAGLBSA-N

>  <energy_score>  (75) 
-21.834161

>  <distance_score>  (75) 
0.957905

>  <fragmenstein_outcome>  (75) 
['acceptable']

>  <merge_set>  (75) 
RdRp_knitwork_thumb_site_2_pure_fragalysis.sdf

>  <scratch_subdir>  (75) 
['/opt/xchem-fragalysis-2/maxwin/BulkDock/SCRATCH/211010/C3075-P45']

>  <SLURM_JOB_ID>  (75) 
211010

>  <tags>  (75) 
['RdRp_knitwork_thumb_site_2_pure_fragalysis.sdf Pose OK', 'Fragmenstein placed']

>  <fragmenstein_mode>  (75) 
['expansion']

>  <csv_name>  (75) 
RdRp_knitwork_thumb_site_2_pure_split4000_batch000.csv

$$$$
HJKGBRPNSJADMB-UHFFFAOYSA-N
     RDKit          3D

 12 13  0  0  0  0  0  0  0  0999 V2000
  -17.0930  -42.4999  -25.0903 C   0  0  0  0  0  0  0  0  0  0  0  0
  -15.7442  -42.3237  -24.8035 C   0  0  0  0  0  0  0  0  0  0  0  0
  -15.2097  -42.8257  -23.6144 C   0  0  0  0  0  0  0  0  0  0  0  0
  -16.0102  -43.4911  -22.6725 C   0  0  0  0  0  0  0  0  0  0  0  0
  -15.4527  -43.9588  -21.3896 C   0  0  0  0  0  0  0  0  0  0  0  0
  -14.4881  -43.2202  -20.6876 C   0  0  0  0  0  0  0  0  0  0  0  0
  -14.0489  -43.6349  -19.4336 C   0  0  0  0  0  0  0  0  0  0  0  0
  -14.5920  -44.7909  -18.9058 C   0  0  0  0  0  0  0  0  0  0  0  0
  -15.4701  -45.5802  -19.5575 N   0  0  0  0  0  0  0  0  0  0  0  0
  -15.8795  -45.1384  -20.7744 C   0  0  0  0  0  0  0  0  0  0  0  0
  -17.3727  -43.6521  -22.9843 C   0  0  0  0  0  0  0  0  0  0  0  0
  -17.9078  -43.1684  -24.1827 C   0  0  0  0  0  0  0  0  0  0  0  0
  1  2  2  0
  2  3  1  0
  3  4  2  0
  4  5  1  0
  5  6  2  0
  6  7  1  0
  7  8  2  0
  8  9  1  0
  9 10  2  0
  4 11  1  0
 11 12  2  0
 12  1  1  0
 10  5  1  0
M  END
>  <fragmenstein_runtime>  (76) 
[3.6280243396759033]

>  <original ID>  (76) 
HJKGBRPNSJADMB-UHFFFAOYSA-N

>  <fragmenstein_error>  (76) 
['']

>  <ref_pdb>  (76) 
d0472a

>  <Multi-SuCOS>  (76) 
0.637007

>  <SLURM_JOB_NAME>  (76) 
BulkDock.place:Flavi_NS5_RdRp:RdRp_knitwork_primer_grip_n_pocket_impure_split4000_batch005

>  <HIPPO Compound ID>  (76) 
20454

>  <original SMILES>  (76) 
c1ccc(-c2cccnc2)cc1

>  <name>  (76) 
HJKGBRPNSJADMB-UHFFFAOYSA-N

>  <HIPPO Pose ID>  (76) 
48807

>  <ref_mols>  (76) 
d0472a,d0615b

>  <exports>  (76) 
['/opt/xchem-fragalysis-2/maxwin/BulkDock/OUTPUTS/RdRp_knitwork_primer_grip_n_pocket_impure_split4000_batch005_211037.sdf', '/opt/xchem-fragalysis-2/maxwin/BulkDock/OUTPUTS/RdRp_knitwork_primer_grip_n_pocket_impure_fragalysis.sdf', '/opt/xchem-fragalysis-2/maxwin/RdRp_FFF/syndirella/Retro_OK_batch1.sdf']

>  <alias>  (76) 
None

>  <inchikey>  (76) 
HJKGBRPNSJADMB-UHFFFAOYSA-N

>  <energy_score>  (76) 
-17.771788

>  <distance_score>  (76) 
0.701354

>  <fragmenstein_outcome>  (76) 
['acceptable']

>  <merge_set>  (76) 
RdRp_knitwork_primer_grip_n_pocket_impure_fragalysis.sdf

>  <scratch_subdir>  (76) 
['/opt/xchem-fragalysis-2/maxwin/BulkDock/SCRATCH/211037/C20454-P42']

>  <SLURM_JOB_ID>  (76) 
211037

>  <tags>  (76) 
['Fragmenstein placed', 'RdRp_knitwork_primer_grip_n_pocket_impure_fragalysis.sdf Pose OK']

>  <fragmenstein_mode>  (76) 
['expansion']

>  <csv_name>  (76) 
RdRp_knitwork_primer_grip_n_pocket_impure_split4000_batch005.csv

$$$$
WOVNUBZQLSDEHQ-LBPRGKRZSA-N
     RDKit          3D

 23 25  0  0  0  0  0  0  0  0999 V2000
  -14.5061  -69.6189  -23.0026 C   0  0  0  0  0  0  0  0  0  0  0  0
  -15.0645  -69.9999  -21.6473 C   0  0  0  0  0  0  0  0  0  0  0  0
  -13.8894  -69.7589  -20.3252 S   0  0  0  0  0  0  0  0  0  0  0  0
  -13.3346  -68.4333  -20.4274 O   0  0  0  0  0  0  0  0  0  0  0  0
  -14.4566  -70.2418  -19.0828 O   0  0  0  0  0  0  0  0  0  0  0  0
  -12.6715  -70.8740  -20.7154 N   0  0  0  0  0  0  0  0  0  0  0  0
  -11.2791  -70.3529  -20.5707 C   0  0  0  0  0  0  0  0  0  0  0  0
  -10.2692  -71.4049  -20.0921 C   0  0  1  0  0  0  0  0  0  0  0  0
   -8.8312  -70.8692  -20.3095 C   0  0  0  0  0  0  0  0  0  0  0  0
   -7.8334  -71.8721  -19.9068 N   0  0  0  0  0  0  0  0  0  0  0  0
   -6.5028  -71.4660  -20.0460 C   0  0  0  0  0  0  0  0  0  0  0  0
   -6.2249  -70.1524  -20.0921 N   0  0  0  0  0  0  0  0  0  0  0  0
   -4.9239  -69.7944  -20.1553 C   0  0  0  0  0  0  0  0  0  0  0  0
   -3.8952  -70.6938  -20.1881 C   0  0  0  0  0  0  0  0  0  0  0  0
   -2.6230  -70.2989  -20.2262 F   0  0  0  0  0  0  0  0  0  0  0  0
   -4.2593  -72.0107  -20.1344 C   0  0  0  0  0  0  0  0  0  0  0  0
   -5.5471  -72.4143  -20.0410 N   0  0  0  0  0  0  0  0  0  0  0  0
   -7.9835  -72.4724  -18.5769 C   0  0  0  0  0  0  0  0  0  0  0  0
   -9.3285  -72.2874  -17.9705 C   0  0  0  0  0  0  0  0  0  0  0  0
   -9.8199  -72.5168  -16.7058 C   0  0  0  0  0  0  0  0  0  0  0  0
  -11.1214  -72.1018  -16.6151 N   0  0  0  0  0  0  0  0  0  0  0  0
  -11.4258  -71.6522  -17.8130 C   0  0  0  0  0  0  0  0  0  0  0  0
  -10.3836  -71.7678  -18.6789 N   0  0  0  0  0  0  0  0  0  0  0  0
  1  2  1  0
  2  3  1  0
  3  4  2  0
  3  5  2  0
  3  6  1  0
  6  7  1  0
  8  7  1  1
  8  9  1  0
  9 10  1  0
 10 11  1  0
 11 12  2  0
 12 13  1  0
 13 14  2  0
 14 15  1  0
 14 16  1  0
 16 17  2  0
 10 18  1  0
 18 19  1  0
 19 20  2  0
 20 21  1  0
 21 22  2  0
 22 23  1  0
 23  8  1  0
 17 11  1  0
 23 19  1  0
M  END
>  <fragmenstein_runtime>  (77) 
[4.597077131271362]

>  <original ID>  (77) 
WOVNUBZQLSDEHQ-LBPRGKRZSA-N

>  <fragmenstein_error>  (77) 
['']

>  <ref_pdb>  (77) 
d0174a

>  <Multi-SuCOS>  (77) 
0.614491

>  <SLURM_JOB_NAME>  (77) 
BulkDock.place:Flavi_NS5_RdRp:RdRp_knitwork_thumb_site_2_pure_split4000_batch000

>  <HIPPO Compound ID>  (77) 
3914

>  <original SMILES>  (77) 
CCS(=O)(=O)NC[C@H]1CN(c2ncc(F)cn2)Cc2cncn21

>  <name>  (77) 
WOVNUBZQLSDEHQ-LBPRGKRZSA-N

>  <HIPPO Pose ID>  (77) 
48888

>  <ref_mols>  (77) 
d0174a,d0587a

>  <exports>  (77) 
['/opt/xchem-fragalysis-2/maxwin/BulkDock/OUTPUTS/RdRp_knitwork_thumb_site_2_pure_split4000_batch000_211010.sdf', '/opt/xchem-fragalysis-2/maxwin/BulkDock/OUTPUTS/RdRp_knitwork_thumb_site_2_pure_fragalysis.sdf', '/opt/xchem-fragalysis-2/maxwin/RdRp_FFF/syndirella/Retro_OK_batch1.sdf']

>  <alias>  (77) 
None

>  <inchikey>  (77) 
WOVNUBZQLSDEHQ-LBPRGKRZSA-N

>  <energy_score>  (77) 
-41.59974

>  <distance_score>  (77) 
0.882781

>  <fragmenstein_outcome>  (77) 
['acceptable']

>  <merge_set>  (77) 
RdRp_knitwork_thumb_site_2_pure_fragalysis.sdf

>  <scratch_subdir>  (77) 
['/opt/xchem-fragalysis-2/maxwin/BulkDock/SCRATCH/211010/C3914-P17']

>  <SLURM_JOB_ID>  (77) 
211010

>  <tags>  (77) 
['RdRp_knitwork_thumb_site_2_pure_fragalysis.sdf Pose OK', 'Fragmenstein placed']

>  <fragmenstein_mode>  (77) 
['expansion']

>  <csv_name>  (77) 
RdRp_knitwork_thumb_site_2_pure_split4000_batch000.csv

$$$$
OEQSKIHPPJZKEO-UHFFFAOYSA-N
     RDKit          3D

 22 23  0  0  0  0  0  0  0  0999 V2000
  -19.3927  -45.2225  -19.2710 C   0  0  0  0  0  0  0  0  0  0  0  0
  -19.1871  -43.7821  -18.7221 C   0  0  0  0  0  0  0  0  0  0  0  0
  -18.1626  -43.2310  -18.2957 O   0  0  0  0  0  0  0  0  0  0  0  0
  -19.1555  -43.4379  -20.2846 N   0  0  0  0  0  0  0  0  0  0  0  0
  -18.8527  -42.0569  -20.6408 C   0  0  0  0  0  0  0  0  0  0  0  0
  -17.3682  -41.7683  -20.9087 C   0  0  0  0  0  0  0  0  0  0  0  0
  -16.9122  -42.0746  -22.2841 N   0  0  0  0  0  0  0  0  0  0  0  0
  -16.0724  -43.2525  -22.5771 C   0  0  0  0  0  0  0  0  0  0  0  0
  -15.3442  -43.7790  -21.3802 C   0  0  0  0  0  0  0  0  0  0  0  0
  -14.1317  -43.2255  -20.8507 C   0  0  0  0  0  0  0  0  0  0  0  0
  -13.7336  -43.8363  -19.6816 C   0  0  0  0  0  0  0  0  0  0  0  0
  -14.8179  -45.0703  -19.2047 S   0  0  0  0  0  0  0  0  0  0  0  0
  -15.7516  -44.8610  -20.6205 C   0  0  0  0  0  0  0  0  0  0  0  0
  -17.3371  -41.1723  -23.2668 C   0  0  0  0  0  0  0  0  0  0  0  0
  -18.1652  -40.2876  -23.0377 O   0  0  0  0  0  0  0  0  0  0  0  0
  -16.8865  -41.2710  -24.6619 C   0  0  0  0  0  0  0  0  0  0  0  0
  -17.8243  -41.5380  -25.6525 C   0  0  0  0  0  0  0  0  0  0  0  0
  -17.5880  -41.4099  -26.9850 N   0  0  0  0  0  0  0  0  0  0  0  0
  -16.3696  -40.9343  -27.3283 C   0  0  0  0  0  0  0  0  0  0  0  0
  -15.3761  -40.6194  -26.4125 C   0  0  0  0  0  0  0  0  0  0  0  0
  -15.6380  -40.8056  -25.0603 C   0  0  0  0  0  0  0  0  0  0  0  0
  -14.6782  -40.4974  -24.1365 O   0  0  0  0  0  0  0  0  0  0  0  0
  1  2  1  0
  2  3  2  0
  2  4  1  0
  4  5  1  0
  5  6  1  0
  6  7  1  0
  7  8  1  0
  8  9  1  0
  9 10  1  0
 10 11  2  0
 11 12  1  0
 12 13  1  0
  7 14  1  0
 14 15  2  0
 14 16  1  0
 16 17  2  0
 17 18  1  0
 18 19  2  0
 19 20  1  0
 20 21  2  0
 21 22  1  0
 13  9  2  0
 21 16  1  0
M  END
>  <fragmenstein_runtime>  (78) 
[5.020039319992065]

>  <original ID>  (78) 
OEQSKIHPPJZKEO-UHFFFAOYSA-N

>  <fragmenstein_error>  (78) 
['']

>  <ref_pdb>  (78) 
d0160a

>  <Multi-SuCOS>  (78) 
0.388177

>  <SLURM_JOB_NAME>  (78) 
BulkDock.place:Flavi_NS5_RdRp:RdRp_knitwork_primer_grip_n_pocket_impure_split4000_batch006

>  <HIPPO Compound ID>  (78) 
21062

>  <original SMILES>  (78) 
CC(=O)NCCN(Cc1ccsc1)C(=O)c1cnccc1O

>  <name>  (78) 
OEQSKIHPPJZKEO-UHFFFAOYSA-N

>  <HIPPO Pose ID>  (78) 
49042

>  <ref_mols>  (78) 
d0160a,d0472a

>  <exports>  (78) 
['/opt/xchem-fragalysis-2/maxwin/BulkDock/OUTPUTS/RdRp_knitwork_primer_grip_n_pocket_impure_split4000_batch006_211038.sdf', '/opt/xchem-fragalysis-2/maxwin/BulkDock/OUTPUTS/RdRp_knitwork_primer_grip_n_pocket_impure_fragalysis.sdf', '/opt/xchem-fragalysis-2/maxwin/RdRp_FFF/syndirella/Retro_OK_batch1.sdf']

>  <alias>  (78) 
None

>  <inchikey>  (78) 
OEQSKIHPPJZKEO-UHFFFAOYSA-N

>  <energy_score>  (78) 
-31.765939

>  <distance_score>  (78) 
0.960818

>  <fragmenstein_outcome>  (78) 
['acceptable']

>  <merge_set>  (78) 
RdRp_knitwork_primer_grip_n_pocket_impure_fragalysis.sdf

>  <scratch_subdir>  (78) 
['/opt/xchem-fragalysis-2/maxwin/BulkDock/SCRATCH/211038/C21062-P12']

>  <SLURM_JOB_ID>  (78) 
211038

>  <tags>  (78) 
['Fragmenstein placed', 'RdRp_knitwork_primer_grip_n_pocket_impure_fragalysis.sdf Pose OK']

>  <fragmenstein_mode>  (78) 
['expansion']

>  <csv_name>  (78) 
RdRp_knitwork_primer_grip_n_pocket_impure_split4000_batch006.csv

$$$$
BNDVWRCIZMHKLO-UHFFFAOYSA-N
     RDKit          3D

 17 18  0  0  0  0  0  0  0  0999 V2000
  -19.9919  -43.6562  -23.3650 C   0  0  0  0  0  0  0  0  0  0  0  0
  -19.2582  -44.2483  -24.5536 C   0  0  0  0  0  0  0  0  0  0  0  0
  -18.4734  -43.2377  -25.2005 O   0  0  0  0  0  0  0  0  0  0  0  0
  -17.2234  -43.0143  -24.6775 C   0  0  0  0  0  0  0  0  0  0  0  0
  -16.7316  -43.7288  -23.8123 O   0  0  0  0  0  0  0  0  0  0  0  0
  -16.6019  -41.8146  -25.2291 C   0  0  0  0  0  0  0  0  0  0  0  0
  -17.2390  -41.1737  -26.3104 N   0  0  0  0  0  0  0  0  0  0  0  0
  -16.6538  -40.0241  -26.5249 C   0  0  0  0  0  0  0  0  0  0  0  0
  -17.3082  -38.8498  -27.1344 C   0  0  0  0  0  0  0  0  0  0  0  0
  -18.1088  -38.0907  -26.0779 C   0  0  0  0  0  0  0  0  0  0  0  0
  -15.1148  -39.8548  -25.8465 S   0  0  0  0  0  0  0  0  0  0  0  0
  -15.5114  -41.1049  -24.7199 C   0  0  0  0  0  0  0  0  0  0  0  0
  -14.7550  -41.1464  -23.5001 C   0  0  0  0  0  0  0  0  0  0  0  0
  -14.5383  -42.0900  -22.5218 C   0  0  0  0  0  0  0  0  0  0  0  0
  -13.7038  -41.4590  -21.5712 C   0  0  0  0  0  0  0  0  0  0  0  0
  -13.4176  -40.1978  -21.9007 N   0  0  0  0  0  0  0  0  0  0  0  0
  -14.0557  -40.0416  -23.0666 N   0  0  0  0  0  0  0  0  0  0  0  0
  1  2  1  0
  2  3  1  0
  3  4  1  0
  4  5  2  0
  4  6  1  0
  6  7  1  0
  7  8  2  0
  8  9  1  0
  9 10  1  0
  8 11  1  0
 11 12  1  0
 12 13  1  0
 13 14  2  0
 14 15  1  0
 15 16  2  0
 16 17  1  0
 12  6  2  0
 17 13  1  0
M  END
>  <fragmenstein_runtime>  (79) 
[2.942963123321533]

>  <original ID>  (79) 
BNDVWRCIZMHKLO-UHFFFAOYSA-N

>  <fragmenstein_error>  (79) 
['']

>  <ref_pdb>  (79) 
d0160a

>  <Multi-SuCOS>  (79) 
0.633386

>  <SLURM_JOB_NAME>  (79) 
BulkDock.place:Flavi_NS5_RdRp:RdRp_knitwork_primer_grip_n_pocket_impure_split4000_batch001

>  <HIPPO Compound ID>  (79) 
12559

>  <original SMILES>  (79) 
CCOC(=O)c1nc(CC)sc1-c1ccn[nH]1

>  <name>  (79) 
BNDVWRCIZMHKLO-UHFFFAOYSA-N

>  <HIPPO Pose ID>  (79) 
49265

>  <ref_mols>  (79) 
d0160a,d0615b

>  <exports>  (79) 
['/opt/xchem-fragalysis-2/maxwin/BulkDock/OUTPUTS/RdRp_knitwork_primer_grip_n_pocket_impure_split4000_batch001_211033.sdf', '/opt/xchem-fragalysis-2/maxwin/BulkDock/OUTPUTS/RdRp_knitwork_primer_grip_n_pocket_impure_fragalysis.sdf', '/opt/xchem-fragalysis-2/maxwin/RdRp_FFF/syndirella/Retro_OK_batch1.sdf']

>  <alias>  (79) 
None

>  <inchikey>  (79) 
BNDVWRCIZMHKLO-UHFFFAOYSA-N

>  <energy_score>  (79) 
-262.507063

>  <distance_score>  (79) 
0.933432

>  <fragmenstein_outcome>  (79) 
['acceptable']

>  <merge_set>  (79) 
RdRp_knitwork_primer_grip_n_pocket_impure_fragalysis.sdf

>  <scratch_subdir>  (79) 
['/opt/xchem-fragalysis-2/maxwin/BulkDock/SCRATCH/211033/C12559-P12']

>  <SLURM_JOB_ID>  (79) 
211033

>  <tags>  (79) 
['Fragmenstein placed', 'RdRp_knitwork_primer_grip_n_pocket_impure_fragalysis.sdf Pose OK']

>  <fragmenstein_mode>  (79) 
['expansion']

>  <csv_name>  (79) 
RdRp_knitwork_primer_grip_n_pocket_impure_split4000_batch001.csv

$$$$
HGGFUOVXQYHLMH-UHFFFAOYSA-N
     RDKit          3D

 20 21  0  0  0  0  0  0  0  0999 V2000
  -14.7074  -69.6308  -22.7213 C   0  0  0  0  0  0  0  0  0  0  0  0
  -15.1653  -69.7080  -21.2816 C   0  0  0  0  0  0  0  0  0  0  0  0
  -13.8304  -69.8204  -20.0971 S   0  0  0  0  0  0  0  0  0  0  0  0
  -12.9381  -68.7037  -20.2835 O   0  0  0  0  0  0  0  0  0  0  0  0
  -14.4211  -70.1090  -18.8034 O   0  0  0  0  0  0  0  0  0  0  0  0
  -13.0387  -71.2164  -20.5403 N   0  0  0  0  0  0  0  0  0  0  0  0
  -11.9201  -71.1176  -21.4846 C   0  0  0  0  0  0  0  0  0  0  0  0
  -10.6219  -71.1388  -20.7695 C   0  0  0  0  0  0  0  0  0  0  0  0
   -9.4572  -70.4800  -21.0864 C   0  0  0  0  0  0  0  0  0  0  0  0
   -8.5669  -70.9164  -20.1564 N   0  0  0  0  0  0  0  0  0  0  0  0
   -7.1661  -70.5653  -20.0885 C   0  0  0  0  0  0  0  0  0  0  0  0
   -6.5409  -70.7032  -18.7024 C   0  0  0  0  0  0  0  0  0  0  0  0
   -5.7112  -71.9698  -18.5773 C   0  0  0  0  0  0  0  0  0  0  0  0
   -4.5941  -71.9666  -19.5034 N   0  0  0  0  0  0  0  0  0  0  0  0
   -4.2791  -72.9238  -20.4112 C   0  0  0  0  0  0  0  0  0  0  0  0
   -3.3143  -72.4880  -21.1867 N   0  0  0  0  0  0  0  0  0  0  0  0
   -3.0536  -71.2422  -20.6922 C   0  0  0  0  0  0  0  0  0  0  0  0
   -3.8254  -70.8710  -19.6675 N   0  0  0  0  0  0  0  0  0  0  0  0
   -9.1318  -71.7948  -19.3078 N   0  0  0  0  0  0  0  0  0  0  0  0
  -10.4032  -71.9278  -19.6654 N   0  0  0  0  0  0  0  0  0  0  0  0
  1  2  1  0
  2  3  1  0
  3  4  2  0
  3  5  2  0
  3  6  1  0
  6  7  1  0
  7  8  1  0
  8  9  2  0
  9 10  1  0
 10 11  1  0
 11 12  1  0
 12 13  1  0
 13 14  1  0
 14 15  1  0
 15 16  2  0
 16 17  1  0
 17 18  2  0
 10 19  1  0
 19 20  2  0
 20  8  1  0
 18 14  1  0
M  END
>  <fragmenstein_runtime>  (80) 
[3.4395720958709717]

>  <original ID>  (80) 
HGGFUOVXQYHLMH-UHFFFAOYSA-N

>  <fragmenstein_error>  (80) 
['']

>  <ref_pdb>  (80) 
d0587a

>  <Multi-SuCOS>  (80) 
0.636564

>  <SLURM_JOB_NAME>  (80) 
BulkDock.place:Flavi_NS5_RdRp:RdRp_knitwork_thumb_site_2_impure_split4000_batch001

>  <HIPPO Compound ID>  (80) 
1623

>  <original SMILES>  (80) 
CCS(=O)(=O)NCc1cn(CCCn2cncn2)nn1

>  <name>  (80) 
HGGFUOVXQYHLMH-UHFFFAOYSA-N

>  <HIPPO Pose ID>  (80) 
49421

>  <ref_mols>  (80) 
d0174a,d0587a

>  <exports>  (80) 
['/opt/xchem-fragalysis-2/maxwin/BulkDock/OUTPUTS/RdRp_knitwork_thumb_site_2_impure_split4000_batch001_211014.sdf', '/opt/xchem-fragalysis-2/maxwin/BulkDock/OUTPUTS/RdRp_knitwork_thumb_site_2_impure_fragalysis.sdf', '/opt/xchem-fragalysis-2/maxwin/RdRp_FFF/syndirella/Retro_OK_batch1.sdf']

>  <alias>  (80) 
None

>  <inchikey>  (80) 
HGGFUOVXQYHLMH-UHFFFAOYSA-N

>  <energy_score>  (80) 
-310.642798

>  <distance_score>  (80) 
0.910974

>  <fragmenstein_outcome>  (80) 
['acceptable']

>  <merge_set>  (80) 
RdRp_knitwork_thumb_site_2_impure_fragalysis.sdf

>  <scratch_subdir>  (80) 
['/opt/xchem-fragalysis-2/maxwin/BulkDock/SCRATCH/211014/C1623-P48']

>  <SLURM_JOB_ID>  (80) 
211014

>  <tags>  (80) 
['Fragmenstein placed', 'RdRp_knitwork_thumb_site_2_impure_fragalysis.sdf Pose OK']

>  <fragmenstein_mode>  (80) 
['expansion']

>  <csv_name>  (80) 
RdRp_knitwork_thumb_site_2_impure_split4000_batch001.csv

$$$$
PQHDSDYOZFSKLV-IVZWLZJFSA-N
     RDKit          3D

 14 15  0  0  0  0  0  0  0  0999 V2000
  -14.4967  -69.6862  -22.7695 C   0  0  0  0  0  0  0  0  0  0  0  0
  -15.1186  -69.8694  -21.4006 C   0  0  0  0  0  0  0  0  0  0  0  0
  -13.9261  -69.7466  -20.0738 S   0  0  0  0  0  0  0  0  0  0  0  0
  -13.1936  -68.5133  -20.2095 O   0  0  0  0  0  0  0  0  0  0  0  0
  -14.5731  -70.1063  -18.8266 O   0  0  0  0  0  0  0  0  0  0  0  0
  -12.8903  -71.0348  -20.3827 N   0  0  0  0  0  0  0  0  0  0  0  0
  -11.4891  -70.6991  -20.7332 C   0  0  0  0  0  0  0  0  0  0  0  0
  -10.5614  -71.8687  -20.3529 C   0  0  1  0  0  0  0  0  0  0  0  0
   -9.1541  -71.6766  -20.9325 C   0  0  0  0  0  0  0  0  0  0  0  0
   -8.2605  -70.8063  -20.0561 C   0  0  0  0  0  0  0  0  0  0  0  0
   -8.0095  -71.4826  -18.7134 C   0  0  0  0  0  0  0  0  0  0  0  0
   -9.2609  -71.9773  -18.0614 C   0  0  1  0  0  0  0  0  0  0  0  0
  -10.4174  -71.0553  -17.8147 C   0  0  0  0  0  0  0  0  0  0  0  0
  -10.5351  -72.1497  -18.8604 C   0  0  1  0  0  0  0  0  0  0  0  0
  1  2  1  0
  2  3  1  0
  3  4  2  0
  3  5  2  0
  3  6  1  0
  6  7  1  0
  8  7  1  1
  8  9  1  0
  9 10  1  0
 10 11  1  0
 12 11  1  6
 12 13  1  0
 14 13  1  1
 14  8  1  0
 14 12  1  0
M  END
>  <fragmenstein_runtime>  (81) 
[3.5700581073760986]

>  <original ID>  (81) 
PQHDSDYOZFSKLV-IVZWLZJFSA-N

>  <fragmenstein_error>  (81) 
['']

>  <ref_pdb>  (81) 
d0176a

>  <Multi-SuCOS>  (81) 
0.714021

>  <SLURM_JOB_NAME>  (81) 
BulkDock.place:Flavi_NS5_RdRp:RdRp_knitwork_thumb_site_2_impure_split4000_batch000

>  <HIPPO Compound ID>  (81) 
983

>  <original SMILES>  (81) 
CCS(=O)(=O)NC[C@H]1CCC[C@H]2C[C@@H]12

>  <name>  (81) 
PQHDSDYOZFSKLV-IVZWLZJFSA-N

>  <HIPPO Pose ID>  (81) 
49520

>  <ref_mols>  (81) 
d0174a,d0176a

>  <exports>  (81) 
['/opt/xchem-fragalysis-2/maxwin/BulkDock/OUTPUTS/RdRp_knitwork_thumb_site_2_impure_split4000_batch000_211013.sdf', '/opt/xchem-fragalysis-2/maxwin/BulkDock/OUTPUTS/RdRp_knitwork_thumb_site_2_impure_fragalysis.sdf', '/opt/xchem-fragalysis-2/maxwin/RdRp_FFF/syndirella/Retro_OK_batch1.sdf']

>  <alias>  (81) 
None

>  <inchikey>  (81) 
PQHDSDYOZFSKLV-IVZWLZJFSA-N

>  <energy_score>  (81) 
-58.046076

>  <distance_score>  (81) 
0.951634

>  <fragmenstein_outcome>  (81) 
['acceptable']

>  <merge_set>  (81) 
RdRp_knitwork_thumb_site_2_impure_fragalysis.sdf

>  <scratch_subdir>  (81) 
['/opt/xchem-fragalysis-2/maxwin/BulkDock/SCRATCH/211013/C983-P18']

>  <SLURM_JOB_ID>  (81) 
211013

>  <tags>  (81) 
['Fragmenstein placed', 'RdRp_knitwork_thumb_site_2_impure_fragalysis.sdf Pose OK']

>  <fragmenstein_mode>  (81) 
['expansion']

>  <csv_name>  (81) 
RdRp_knitwork_thumb_site_2_impure_split4000_batch000.csv

$$$$
FIMPFXBHOKBSJP-JTQLQIEISA-N
     RDKit          3D

 14 14  0  0  0  0  0  0  0  0999 V2000
  -14.3378  -69.6815  -22.8713 C   0  0  0  0  0  0  0  0  0  0  0  0
  -14.9346  -69.9354  -21.5036 C   0  0  0  0  0  0  0  0  0  0  0  0
  -13.7352  -69.8542  -20.1791 S   0  0  0  0  0  0  0  0  0  0  0  0
  -12.9543  -68.6532  -20.3270 O   0  0  0  0  0  0  0  0  0  0  0  0
  -14.4223  -70.1467  -18.9339 O   0  0  0  0  0  0  0  0  0  0  0  0
  -12.7687  -71.1944  -20.4411 N   0  0  0  0  0  0  0  0  0  0  0  0
  -11.4144  -71.0673  -21.0302 C   0  0  0  0  0  0  0  0  0  0  0  0
  -10.3804  -70.3762  -20.1033 C   0  0  1  0  0  0  0  0  0  0  0  0
  -10.5078  -70.7337  -18.6393 C   0  0  0  0  0  0  0  0  0  0  0  0
   -9.7864  -71.5315  -17.8406 C   0  0  0  0  0  0  0  0  0  0  0  0
   -8.6019  -72.3922  -18.1445 C   0  0  0  0  0  0  0  0  0  0  0  0
   -7.6024  -71.8834  -19.1715 C   0  0  0  0  0  0  0  0  0  0  0  0
   -8.1880  -71.7029  -20.5652 C   0  0  0  0  0  0  0  0  0  0  0  0
   -8.9672  -70.4032  -20.7092 C   0  0  0  0  0  0  0  0  0  0  0  0
  1  2  1  0
  2  3  1  0
  3  4  2  0
  3  5  2  0
  3  6  1  0
  6  7  1  0
  8  7  1  6
  8  9  1  0
  9 10  2  0
 10 11  1  0
 11 12  1  0
 12 13  1  0
 13 14  1  0
 14  8  1  0
M  END
>  <fragmenstein_runtime>  (82) 
[2.8028318881988525]

>  <original ID>  (82) 
FIMPFXBHOKBSJP-JTQLQIEISA-N

>  <fragmenstein_error>  (82) 
['']

>  <ref_pdb>  (82) 
d0174a

>  <Multi-SuCOS>  (82) 
0.883186

>  <SLURM_JOB_NAME>  (82) 
BulkDock.place:Flavi_NS5_RdRp:RdRp_knitwork_thumb_site_2_impure_split4000_batch000

>  <HIPPO Compound ID>  (82) 
1194

>  <original SMILES>  (82) 
CCS(=O)(=O)NC[C@H]1C=CCCCC1

>  <name>  (82) 
FIMPFXBHOKBSJP-JTQLQIEISA-N

>  <HIPPO Pose ID>  (82) 
49571

>  <ref_mols>  (82) 
d0174a,d0176a,d0503a,d0759a

>  <exports>  (82) 
['/opt/xchem-fragalysis-2/maxwin/BulkDock/OUTPUTS/RdRp_knitwork_thumb_site_2_impure_split4000_batch000_211013.sdf', '/opt/xchem-fragalysis-2/maxwin/BulkDock/OUTPUTS/RdRp_knitwork_thumb_site_2_impure_fragalysis.sdf', '/opt/xchem-fragalysis-2/maxwin/RdRp_FFF/syndirella/Retro_OK_batch1.sdf']

>  <alias>  (82) 
None

>  <inchikey>  (82) 
FIMPFXBHOKBSJP-JTQLQIEISA-N

>  <energy_score>  (82) 
-31.771399

>  <distance_score>  (82) 
0.754695

>  <fragmenstein_outcome>  (82) 
['acceptable']

>  <merge_set>  (82) 
RdRp_knitwork_thumb_site_2_impure_fragalysis.sdf

>  <scratch_subdir>  (82) 
['/opt/xchem-fragalysis-2/maxwin/BulkDock/SCRATCH/211013/C1194-P17']

>  <SLURM_JOB_ID>  (82) 
211013

>  <tags>  (82) 
['Fragmenstein placed', 'RdRp_knitwork_thumb_site_2_impure_fragalysis.sdf Pose OK']

>  <fragmenstein_mode>  (82) 
['expansion']

>  <csv_name>  (82) 
RdRp_knitwork_thumb_site_2_impure_split4000_batch000.csv

$$$$
FIMPFXBHOKBSJP-JTQLQIEISA-N
     RDKit          3D

 14 14  0  0  0  0  0  0  0  0999 V2000
  -14.4262  -69.7807  -22.7978 C   0  0  0  0  0  0  0  0  0  0  0  0
  -15.0254  -69.9608  -21.4187 C   0  0  0  0  0  0  0  0  0  0  0  0
  -13.8112  -69.8589  -20.1093 S   0  0  0  0  0  0  0  0  0  0  0  0
  -13.0202  -68.6709  -20.3030 O   0  0  0  0  0  0  0  0  0  0  0  0
  -14.4795  -70.1222  -18.8480 O   0  0  0  0  0  0  0  0  0  0  0  0
  -12.8606  -71.2169  -20.3591 N   0  0  0  0  0  0  0  0  0  0  0  0
  -11.4763  -71.0893  -20.8729 C   0  0  0  0  0  0  0  0  0  0  0  0
  -10.4914  -70.4051  -19.8870 C   0  0  1  0  0  0  0  0  0  0  0  0
  -10.6522  -70.8105  -18.4415 C   0  0  0  0  0  0  0  0  0  0  0  0
   -9.9218  -71.5874  -17.6304 C   0  0  0  0  0  0  0  0  0  0  0  0
   -8.6809  -72.3789  -17.8920 C   0  0  0  0  0  0  0  0  0  0  0  0
   -7.6845  -71.8244  -18.8957 C   0  0  0  0  0  0  0  0  0  0  0  0
   -8.2514  -71.6647  -20.2982 C   0  0  0  0  0  0  0  0  0  0  0  0
   -9.0670  -70.3878  -20.4569 C   0  0  0  0  0  0  0  0  0  0  0  0
  1  2  1  0
  2  3  1  0
  3  4  2  0
  3  5  2  0
  3  6  1  0
  6  7  1  0
  8  7  1  6
  8  9  1  0
  9 10  2  0
 10 11  1  0
 11 12  1  0
 12 13  1  0
 13 14  1  0
 14  8  1  0
M  END
>  <fragmenstein_runtime>  (83) 
[2.4320366382598877]

>  <original ID>  (83) 
FIMPFXBHOKBSJP-JTQLQIEISA-N

>  <fragmenstein_error>  (83) 
['']

>  <ref_pdb>  (83) 
d0176a

>  <Multi-SuCOS>  (83) 
0.848046

>  <SLURM_JOB_NAME>  (83) 
BulkDock.place:Flavi_NS5_RdRp:RdRp_knitwork_thumb_site_2_impure_split4000_batch000

>  <HIPPO Compound ID>  (83) 
1194

>  <original SMILES>  (83) 
CCS(=O)(=O)NC[C@H]1C=CCCCC1

>  <name>  (83) 
FIMPFXBHOKBSJP-JTQLQIEISA-N

>  <HIPPO Pose ID>  (83) 
49572

>  <ref_mols>  (83) 
d0174a,d0176a

>  <exports>  (83) 
['/opt/xchem-fragalysis-2/maxwin/BulkDock/OUTPUTS/RdRp_knitwork_thumb_site_2_impure_split4000_batch000_211013.sdf', '/opt/xchem-fragalysis-2/maxwin/BulkDock/OUTPUTS/RdRp_knitwork_thumb_site_2_impure_fragalysis.sdf', '/opt/xchem-fragalysis-2/maxwin/RdRp_FFF/syndirella/Retro_OK_batch1.sdf']

>  <alias>  (83) 
None

>  <inchikey>  (83) 
FIMPFXBHOKBSJP-JTQLQIEISA-N

>  <energy_score>  (83) 
-31.589366

>  <distance_score>  (83) 
0.738284

>  <fragmenstein_outcome>  (83) 
['acceptable']

>  <merge_set>  (83) 
RdRp_knitwork_thumb_site_2_impure_fragalysis.sdf

>  <scratch_subdir>  (83) 
['/opt/xchem-fragalysis-2/maxwin/BulkDock/SCRATCH/211013/C1194-P18']

>  <SLURM_JOB_ID>  (83) 
211013

>  <tags>  (83) 
['Fragmenstein placed', 'RdRp_knitwork_thumb_site_2_impure_fragalysis.sdf Pose OK']

>  <fragmenstein_mode>  (83) 
['expansion']

>  <csv_name>  (83) 
RdRp_knitwork_thumb_site_2_impure_split4000_batch000.csv

$$$$
WLRKTYFDLUYNAQ-WFASDCNBSA-N
     RDKit          3D

 22 24  0  0  0  0  0  0  0  0999 V2000
  -12.9768  -68.8990  -22.8149 C   0  0  0  0  0  0  0  0  0  0  0  0
  -14.2242  -69.2522  -22.0433 C   0  0  1  0  0  0  0  0  0  0  0  0
  -15.1782  -70.0744  -22.8841 C   0  0  0  0  0  0  0  0  0  0  0  0
  -16.4784  -70.2994  -22.4438 C   0  0  0  0  0  0  0  0  0  0  0  0
  -17.4632  -70.6571  -23.3575 C   0  0  0  0  0  0  0  0  0  0  0  0
  -17.1851  -70.7524  -24.7152 C   0  0  0  0  0  0  0  0  0  0  0  0
  -15.8840  -70.6404  -25.1534 C   0  0  0  0  0  0  0  0  0  0  0  0
  -14.8841  -70.3512  -24.2391 C   0  0  0  0  0  0  0  0  0  0  0  0
  -13.7976  -69.8746  -20.3988 S   0  0  0  0  0  0  0  0  0  0  0  0
  -12.9005  -68.9115  -19.7967 O   0  0  0  0  0  0  0  0  0  0  0  0
  -14.9952  -70.2293  -19.6678 O   0  0  0  0  0  0  0  0  0  0  0  0
  -12.9387  -71.2747  -20.5963 N   0  0  0  0  0  0  0  0  0  0  0  0
  -11.5543  -71.2091  -21.1287 C   0  0  2  0  0  0  0  0  0  0  0  0
  -11.4245  -71.9532  -22.4652 C   0  0  0  0  0  0  0  0  0  0  0  0
  -12.3639  -72.8896  -22.7474 N   0  0  0  0  0  0  0  0  0  0  0  0
  -12.2593  -73.4980  -23.9441 C   0  0  0  0  0  0  0  0  0  0  0  0
  -11.2866  -73.1957  -24.8668 C   0  0  0  0  0  0  0  0  0  0  0  0
  -10.3937  -72.2194  -24.4938 C   0  0  0  0  0  0  0  0  0  0  0  0
  -10.4371  -71.5866  -23.3064 N   0  0  0  0  0  0  0  0  0  0  0  0
  -10.6230  -71.8429  -20.1263 C   0  0  0  0  0  0  0  0  0  0  0  0
  -10.2578  -71.1273  -18.8491 C   0  0  0  0  0  0  0  0  0  0  0  0
   -9.2290  -71.2876  -19.9349 C   0  0  0  0  0  0  0  0  0  0  0  0
  2  1  1  6
  2  3  1  0
  3  4  2  0
  4  5  1  0
  5  6  2  0
  6  7  1  0
  7  8  2  0
  2  9  1  0
  9 10  2  0
  9 11  2  0
  9 12  1  0
 13 12  1  1
 13 14  1  0
 14 15  2  0
 15 16  1  0
 16 17  2  0
 17 18  1  0
 18 19  2  0
 13 20  1  0
 20 21  1  0
 21 22  1  0
  8  3  1  0
 19 14  1  0
 22 20  1  0
M  END
>  <fragmenstein_runtime>  (84) 
[69.25387573242188]

>  <original ID>  (84) 
WLRKTYFDLUYNAQ-WFASDCNBSA-N

>  <fragmenstein_error>  (84) 
['']

>  <ref_pdb>  (84) 
d0587a

>  <Multi-SuCOS>  (84) 
0.368934

>  <SLURM_JOB_NAME>  (84) 
BulkDock.place:Flavi_NS5_RdRp:RdRp_knitwork_thumb_site_2_impure_split4000_batch001

>  <HIPPO Compound ID>  (84) 
5802

>  <original SMILES>  (84) 
C[C@@H](c1ccccc1)S(=O)(=O)N[C@H](c1ncccn1)C1CC1

>  <name>  (84) 
WLRKTYFDLUYNAQ-WFASDCNBSA-N

>  <HIPPO Pose ID>  (84) 
49666

>  <ref_mols>  (84) 
d0174a,d0587a

>  <exports>  (84) 
['/opt/xchem-fragalysis-2/maxwin/BulkDock/OUTPUTS/RdRp_knitwork_thumb_site_2_impure_split4000_batch001_211014.sdf', '/opt/xchem-fragalysis-2/maxwin/BulkDock/OUTPUTS/RdRp_knitwork_thumb_site_2_impure_fragalysis.sdf', '/opt/xchem-fragalysis-2/maxwin/RdRp_FFF/syndirella/Retro_OK_batch1.sdf']

>  <alias>  (84) 
None

>  <inchikey>  (84) 
WLRKTYFDLUYNAQ-WFASDCNBSA-N

>  <energy_score>  (84) 
-48.472573

>  <distance_score>  (84) 
0.9886

>  <fragmenstein_outcome>  (84) 
['acceptable']

>  <merge_set>  (84) 
RdRp_knitwork_thumb_site_2_impure_fragalysis.sdf

>  <scratch_subdir>  (84) 
['/opt/xchem-fragalysis-2/maxwin/BulkDock/SCRATCH/211014/C5802-P48']

>  <SLURM_JOB_ID>  (84) 
211014

>  <tags>  (84) 
['Fragmenstein placed', 'RdRp_knitwork_thumb_site_2_impure_fragalysis.sdf Pose OK']

>  <fragmenstein_mode>  (84) 
['expansion']

>  <csv_name>  (84) 
RdRp_knitwork_thumb_site_2_impure_split4000_batch001.csv

$$$$
GZOFUQGTEOHYBG-SNVBAGLBSA-N
     RDKit          3D

 15 16  0  0  0  0  0  0  0  0999 V2000
  -14.3387  -69.6496  -22.8217 C   0  0  0  0  0  0  0  0  0  0  0  0
  -14.9211  -69.9045  -21.4486 C   0  0  0  0  0  0  0  0  0  0  0  0
  -13.7178  -69.8362  -20.1254 S   0  0  0  0  0  0  0  0  0  0  0  0
  -12.9257  -68.6418  -20.2655 O   0  0  0  0  0  0  0  0  0  0  0  0
  -14.4124  -70.1284  -18.8841 O   0  0  0  0  0  0  0  0  0  0  0  0
  -12.7548  -71.1720  -20.3744 N   0  0  0  0  0  0  0  0  0  0  0  0
  -11.4844  -71.1072  -21.1099 C   0  0  0  0  0  0  0  0  0  0  0  0
  -10.3257  -70.4827  -20.3059 C   0  0  2  0  0  0  0  0  0  0  0  0
   -9.0506  -70.4453  -21.1669 C   0  0  0  0  0  0  0  0  0  0  0  0
   -8.3961  -71.8199  -21.3485 C   0  0  0  0  0  0  0  0  0  0  0  0
   -8.6077  -72.7636  -20.1674 C   0  0  0  0  0  0  0  0  0  0  0  0
   -8.7754  -71.9599  -18.9162 C   0  0  0  0  0  0  0  0  0  0  0  0
   -8.2603  -72.5010  -17.6046 C   0  0  0  0  0  0  0  0  0  0  0  0
   -7.5004  -71.4171  -18.3081 C   0  0  0  0  0  0  0  0  0  0  0  0
  -10.0353  -71.1124  -18.9196 C   0  0  0  0  0  0  0  0  0  0  0  0
  1  2  1  0
  2  3  1  0
  3  4  2  0
  3  5  2  0
  3  6  1  0
  6  7  1  0
  8  7  1  6
  8  9  1  0
  9 10  1  0
 10 11  1  0
 11 12  1  0
 12 13  1  0
 13 14  1  0
 12 15  1  0
 15  8  1  0
 14 12  1  0
M  END
>  <fragmenstein_runtime>  (85) 
[3.1723756790161133]

>  <original ID>  (85) 
GZOFUQGTEOHYBG-SNVBAGLBSA-N

>  <fragmenstein_error>  (85) 
['']

>  <ref_pdb>  (85) 
d0174a

>  <Multi-SuCOS>  (85) 
0.758159

>  <SLURM_JOB_NAME>  (85) 
BulkDock.place:Flavi_NS5_RdRp:RdRp_knitwork_thumb_site_2_impure_split4000_batch000

>  <HIPPO Compound ID>  (85) 
1465

>  <original SMILES>  (85) 
CCS(=O)(=O)NC[C@@H]1CCCC2(CC2)C1

>  <name>  (85) 
GZOFUQGTEOHYBG-SNVBAGLBSA-N

>  <HIPPO Pose ID>  (85) 
49776

>  <ref_mols>  (85) 
d0174a,d0176a,d0503a,d0759a

>  <exports>  (85) 
['/opt/xchem-fragalysis-2/maxwin/BulkDock/OUTPUTS/RdRp_knitwork_thumb_site_2_impure_split4000_batch000_211013.sdf', '/opt/xchem-fragalysis-2/maxwin/BulkDock/OUTPUTS/RdRp_knitwork_thumb_site_2_impure_fragalysis.sdf', '/opt/xchem-fragalysis-2/maxwin/RdRp_FFF/syndirella/Retro_OK_batch1.sdf']

>  <alias>  (85) 
None

>  <inchikey>  (85) 
GZOFUQGTEOHYBG-SNVBAGLBSA-N

>  <energy_score>  (85) 
-77.484017

>  <distance_score>  (85) 
0.895391

>  <fragmenstein_outcome>  (85) 
['acceptable']

>  <merge_set>  (85) 
RdRp_knitwork_thumb_site_2_impure_fragalysis.sdf

>  <scratch_subdir>  (85) 
['/opt/xchem-fragalysis-2/maxwin/BulkDock/SCRATCH/211013/C1465-P17']

>  <SLURM_JOB_ID>  (85) 
211013

>  <tags>  (85) 
['Fragmenstein placed', 'RdRp_knitwork_thumb_site_2_impure_fragalysis.sdf Pose OK']

>  <fragmenstein_mode>  (85) 
['expansion']

>  <csv_name>  (85) 
RdRp_knitwork_thumb_site_2_impure_split4000_batch000.csv

$$$$
KFFCQQFHRWBKTC-LLVKDONJSA-N
     RDKit          3D

 22 23  0  0  0  0  0  0  0  0999 V2000
  -18.1542  -46.0334  -22.6540 C   0  0  0  0  0  0  0  0  0  0  0  0
  -18.0845  -45.4907  -21.2493 C   0  0  0  0  0  0  0  0  0  0  0  0
  -17.0885  -46.2155  -20.5059 O   0  0  0  0  0  0  0  0  0  0  0  0
  -15.8024  -45.8421  -20.3652 C   0  0  0  0  0  0  0  0  0  0  0  0
  -15.0908  -46.4407  -19.5601 O   0  0  0  0  0  0  0  0  0  0  0  0
  -15.2628  -44.7291  -21.2134 C   0  0  0  0  0  0  0  0  0  0  0  0
  -14.8460  -43.5340  -20.3702 C   0  0  1  0  0  0  0  0  0  0  0  0
  -13.7531  -43.8305  -19.3469 C   0  0  0  0  0  0  0  0  0  0  0  0
  -14.2832  -42.5199  -21.2049 O   0  0  0  0  0  0  0  0  0  0  0  0
  -15.1076  -41.9196  -22.0916 C   0  0  0  0  0  0  0  0  0  0  0  0
  -16.2515  -42.2744  -22.3383 O   0  0  0  0  0  0  0  0  0  0  0  0
  -14.4332  -40.7692  -22.5894 C   0  0  0  0  0  0  0  0  0  0  0  0
  -13.4341  -40.0634  -21.9350 C   0  0  0  0  0  0  0  0  0  0  0  0
  -13.3107  -38.8757  -22.6413 C   0  0  0  0  0  0  0  0  0  0  0  0
  -14.1160  -38.8395  -23.6980 N   0  0  0  0  0  0  0  0  0  0  0  0
  -14.6961  -40.0771  -23.7588 N   0  0  0  0  0  0  0  0  0  0  0  0
  -15.4452  -40.4607  -24.9168 C   0  0  0  0  0  0  0  0  0  0  0  0
  -15.7798  -39.4925  -25.8660 C   0  0  0  0  0  0  0  0  0  0  0  0
  -16.5511  -39.8681  -26.9569 C   0  0  0  0  0  0  0  0  0  0  0  0
  -17.0111  -41.1194  -27.1727 N   0  0  0  0  0  0  0  0  0  0  0  0
  -16.6157  -42.0482  -26.2803 C   0  0  0  0  0  0  0  0  0  0  0  0
  -15.8368  -41.7783  -25.1620 C   0  0  0  0  0  0  0  0  0  0  0  0
  1  2  1  0
  2  3  1  0
  3  4  1  0
  4  5  2  0
  4  6  1  0
  6  7  1  0
  7  8  1  1
  7  9  1  0
  9 10  1  0
 10 11  2  0
 10 12  1  0
 12 13  2  0
 13 14  1  0
 14 15  2  0
 15 16  1  0
 16 17  1  0
 17 18  2  0
 18 19  1  0
 19 20  2  0
 20 21  1  0
 21 22  2  0
 16 12  1  0
 22 17  1  0
M  END
>  <fragmenstein_runtime>  (86) 
[5.2137672901153564]

>  <original ID>  (86) 
KFFCQQFHRWBKTC-LLVKDONJSA-N

>  <fragmenstein_error>  (86) 
['']

>  <ref_pdb>  (86) 
d0160a

>  <Multi-SuCOS>  (86) 
0.547598

>  <SLURM_JOB_NAME>  (86) 
BulkDock.place:Flavi_NS5_RdRp:RdRp_knitwork_primer_grip_n_pocket_impure_split4000_batch006

>  <HIPPO Compound ID>  (86) 
9207

>  <original SMILES>  (86) 
CCOC(=O)C[C@@H](C)OC(=O)c1ccnn1-c1ccncc1

>  <name>  (86) 
KFFCQQFHRWBKTC-LLVKDONJSA-N

>  <HIPPO Pose ID>  (86) 
50001

>  <ref_mols>  (86) 
d0160a,d0472a

>  <exports>  (86) 
['/opt/xchem-fragalysis-2/maxwin/BulkDock/OUTPUTS/RdRp_knitwork_primer_grip_n_pocket_impure_split4000_batch006_211038.sdf', '/opt/xchem-fragalysis-2/maxwin/BulkDock/OUTPUTS/RdRp_knitwork_primer_grip_n_pocket_impure_fragalysis.sdf', '/opt/xchem-fragalysis-2/maxwin/RdRp_FFF/syndirella/Retro_OK_batch1.sdf']

>  <alias>  (86) 
None

>  <inchikey>  (86) 
KFFCQQFHRWBKTC-LLVKDONJSA-N

>  <energy_score>  (86) 
-84.655575

>  <distance_score>  (86) 
0.846274

>  <fragmenstein_outcome>  (86) 
['acceptable']

>  <merge_set>  (86) 
RdRp_knitwork_primer_grip_n_pocket_impure_fragalysis.sdf

>  <scratch_subdir>  (86) 
['/opt/xchem-fragalysis-2/maxwin/BulkDock/SCRATCH/211038/C9207-P12']

>  <SLURM_JOB_ID>  (86) 
211038

>  <tags>  (86) 
['Fragmenstein placed', 'RdRp_knitwork_primer_grip_n_pocket_impure_fragalysis.sdf Pose OK']

>  <fragmenstein_mode>  (86) 
['expansion']

>  <csv_name>  (86) 
RdRp_knitwork_primer_grip_n_pocket_impure_split4000_batch006.csv

$$$$
KFFCQQFHRWBKTC-NSHDSACASA-N
     RDKit          3D

 22 23  0  0  0  0  0  0  0  0999 V2000
  -18.1956  -46.1299  -22.5120 C   0  0  0  0  0  0  0  0  0  0  0  0
  -18.0502  -45.7887  -21.0512 C   0  0  0  0  0  0  0  0  0  0  0  0
  -16.8783  -46.4326  -20.5073 O   0  0  0  0  0  0  0  0  0  0  0  0
  -15.7465  -45.7608  -20.1769 C   0  0  0  0  0  0  0  0  0  0  0  0
  -14.9327  -46.2708  -19.4144 O   0  0  0  0  0  0  0  0  0  0  0  0
  -15.5447  -44.4325  -20.8398 C   0  0  0  0  0  0  0  0  0  0  0  0
  -14.1528  -43.8207  -20.7106 C   0  0  2  0  0  0  0  0  0  0  0  0
  -13.7800  -43.4595  -19.2758 C   0  0  0  0  0  0  0  0  0  0  0  0
  -13.9743  -42.5904  -21.4487 O   0  0  0  0  0  0  0  0  0  0  0  0
  -14.8842  -42.0618  -22.2955 C   0  0  0  0  0  0  0  0  0  0  0  0
  -15.9570  -42.5530  -22.6084 O   0  0  0  0  0  0  0  0  0  0  0  0
  -14.4030  -40.7747  -22.6802 C   0  0  0  0  0  0  0  0  0  0  0  0
  -13.5365  -39.9808  -21.9417 C   0  0  0  0  0  0  0  0  0  0  0  0
  -13.5439  -38.7468  -22.5735 C   0  0  0  0  0  0  0  0  0  0  0  0
  -14.3052  -38.7483  -23.6611 N   0  0  0  0  0  0  0  0  0  0  0  0
  -14.7466  -40.0369  -23.8040 N   0  0  0  0  0  0  0  0  0  0  0  0
  -15.4588  -40.4053  -24.9922 C   0  0  0  0  0  0  0  0  0  0  0  0
  -15.8617  -39.4056  -25.8829 C   0  0  0  0  0  0  0  0  0  0  0  0
  -16.6092  -39.7624  -26.9979 C   0  0  0  0  0  0  0  0  0  0  0  0
  -16.9855  -41.0253  -27.2920 N   0  0  0  0  0  0  0  0  0  0  0  0
  -16.5212  -41.9767  -26.4583 C   0  0  0  0  0  0  0  0  0  0  0  0
  -15.7556  -41.7256  -25.3266 C   0  0  0  0  0  0  0  0  0  0  0  0
  1  2  1  0
  2  3  1  0
  3  4  1  0
  4  5  2  0
  4  6  1  0
  6  7  1  0
  7  8  1  1
  7  9  1  0
  9 10  1  0
 10 11  2  0
 10 12  1  0
 12 13  2  0
 13 14  1  0
 14 15  2  0
 15 16  1  0
 16 17  1  0
 17 18  2  0
 18 19  1  0
 19 20  2  0
 20 21  1  0
 21 22  2  0
 16 12  1  0
 22 17  1  0
M  END
>  <fragmenstein_runtime>  (87) 
[5.590539216995239]

>  <original ID>  (87) 
KFFCQQFHRWBKTC-NSHDSACASA-N

>  <fragmenstein_error>  (87) 
['']

>  <ref_pdb>  (87) 
d0472a

>  <Multi-SuCOS>  (87) 
0.550536

>  <SLURM_JOB_NAME>  (87) 
BulkDock.place:Flavi_NS5_RdRp:RdRp_knitwork_primer_grip_n_pocket_impure_split4000_batch006

>  <HIPPO Compound ID>  (87) 
9207

>  <original SMILES>  (87) 
CCOC(=O)C[C@H](C)OC(=O)c1ccnn1-c1ccncc1

>  <name>  (87) 
KFFCQQFHRWBKTC-NSHDSACASA-N

>  <HIPPO Pose ID>  (87) 
50008

>  <ref_mols>  (87) 
d0160a,d0472a

>  <exports>  (87) 
['/opt/xchem-fragalysis-2/maxwin/BulkDock/OUTPUTS/RdRp_knitwork_primer_grip_n_pocket_impure_split4000_batch006_211038.sdf', '/opt/xchem-fragalysis-2/maxwin/BulkDock/OUTPUTS/RdRp_knitwork_primer_grip_n_pocket_impure_fragalysis.sdf', '/opt/xchem-fragalysis-2/maxwin/RdRp_FFF/syndirella/Retro_OK_batch1.sdf']

>  <alias>  (87) 
None

>  <inchikey>  (87) 
KFFCQQFHRWBKTC-NSHDSACASA-N

>  <energy_score>  (87) 
-80.726975

>  <distance_score>  (87) 
0.825071

>  <fragmenstein_outcome>  (87) 
['acceptable']

>  <merge_set>  (87) 
RdRp_knitwork_primer_grip_n_pocket_impure_fragalysis.sdf

>  <scratch_subdir>  (87) 
['/opt/xchem-fragalysis-2/maxwin/BulkDock/SCRATCH/211038/C9207-P42']

>  <SLURM_JOB_ID>  (87) 
211038

>  <tags>  (87) 
['Fragmenstein placed', 'RdRp_knitwork_primer_grip_n_pocket_impure_fragalysis.sdf Pose OK']

>  <fragmenstein_mode>  (87) 
['expansion']

>  <csv_name>  (87) 
RdRp_knitwork_primer_grip_n_pocket_impure_split4000_batch006.csv

$$$$
VJAXJNJKELENHP-UHFFFAOYSA-N
     RDKit          3D

 15 15  0  0  0  0  0  0  0  0999 V2000
  -14.7110  -69.4600  -22.6404 C   0  0  0  0  0  0  0  0  0  0  0  0
  -15.2222  -69.6142  -21.2220 C   0  0  0  0  0  0  0  0  0  0  0  0
  -13.9241  -69.7531  -19.9952 S   0  0  0  0  0  0  0  0  0  0  0  0
  -13.0062  -68.6515  -20.1448 O   0  0  0  0  0  0  0  0  0  0  0  0
  -14.5368  -70.0458  -18.7143 O   0  0  0  0  0  0  0  0  0  0  0  0
  -13.1483  -71.1681  -20.4229 N   0  0  0  0  0  0  0  0  0  0  0  0
  -11.9636  -71.0407  -21.2940 C   0  0  0  0  0  0  0  0  0  0  0  0
  -10.6590  -71.1730  -20.5434 C   0  0  0  0  0  0  0  0  0  0  0  0
  -10.7239  -71.7751  -19.3156 N   0  0  0  0  0  0  0  0  0  0  0  0
   -9.5706  -71.8798  -18.6183 C   0  0  0  0  0  0  0  0  0  0  0  0
   -8.3493  -71.4150  -19.0743 C   0  0  0  0  0  0  0  0  0  0  0  0
   -8.3012  -70.8178  -20.3299 C   0  0  0  0  0  0  0  0  0  0  0  0
   -9.4608  -70.7211  -21.0960 C   0  0  0  0  0  0  0  0  0  0  0  0
   -9.3454  -70.1014  -22.3058 O   0  0  0  0  0  0  0  0  0  0  0  0
   -9.8041  -70.8714  -23.4158 C   0  0  0  0  0  0  0  0  0  0  0  0
  1  2  1  0
  2  3  1  0
  3  4  2  0
  3  5  2  0
  3  6  1  0
  6  7  1  0
  7  8  1  0
  8  9  2  0
  9 10  1  0
 10 11  2  0
 11 12  1  0
 12 13  2  0
 13 14  1  0
 14 15  1  0
 13  8  1  0
M  END
>  <fragmenstein_runtime>  (88) 
[1.7414286136627197]

>  <original ID>  (88) 
VJAXJNJKELENHP-UHFFFAOYSA-N

>  <fragmenstein_error>  (88) 
['']

>  <ref_pdb>  (88) 
d0615a

>  <Multi-SuCOS>  (88) 
0.764997

>  <SLURM_JOB_NAME>  (88) 
BulkDock.place:Flavi_NS5_RdRp:RdRp_knitwork_thumb_site_2_pure_split4000_batch000

>  <HIPPO Compound ID>  (88) 
772

>  <original SMILES>  (88) 
CCS(=O)(=O)NCc1ncccc1OC

>  <name>  (88) 
VJAXJNJKELENHP-UHFFFAOYSA-N

>  <HIPPO Pose ID>  (88) 
50417

>  <ref_mols>  (88) 
d0174a,d0615a

>  <exports>  (88) 
['/opt/xchem-fragalysis-2/maxwin/BulkDock/OUTPUTS/RdRp_knitwork_thumb_site_2_pure_split4000_batch000_211010.sdf', '/opt/xchem-fragalysis-2/maxwin/BulkDock/OUTPUTS/RdRp_knitwork_thumb_site_2_pure_fragalysis.sdf', '/opt/xchem-fragalysis-2/maxwin/RdRp_FFF/syndirella/Retro_OK_batch1.sdf']

>  <alias>  (88) 
None

>  <inchikey>  (88) 
VJAXJNJKELENHP-UHFFFAOYSA-N

>  <energy_score>  (88) 
-32.130172

>  <distance_score>  (88) 
0.788304

>  <fragmenstein_outcome>  (88) 
['acceptable']

>  <merge_set>  (88) 
RdRp_knitwork_thumb_site_2_pure_fragalysis.sdf

>  <scratch_subdir>  (88) 
['/opt/xchem-fragalysis-2/maxwin/BulkDock/SCRATCH/211010/C772-P50']

>  <SLURM_JOB_ID>  (88) 
211010

>  <tags>  (88) 
['RdRp_knitwork_thumb_site_2_pure_fragalysis.sdf Pose OK', 'Fragmenstein placed']

>  <fragmenstein_mode>  (88) 
['expansion']

>  <csv_name>  (88) 
RdRp_knitwork_thumb_site_2_pure_split4000_batch000.csv

$$$$
VUWLOCLKMVGYPC-UHFFFAOYSA-N
     RDKit          3D

 14 14  0  0  0  0  0  0  0  0999 V2000
  -14.6105  -69.4454  -22.7173 C   0  0  0  0  0  0  0  0  0  0  0  0
  -15.1063  -69.6368  -21.2984 C   0  0  0  0  0  0  0  0  0  0  0  0
  -13.7876  -69.8159  -20.1007 S   0  0  0  0  0  0  0  0  0  0  0  0
  -12.8961  -68.6876  -20.2059 O   0  0  0  0  0  0  0  0  0  0  0  0
  -14.3816  -70.1879  -18.8308 O   0  0  0  0  0  0  0  0  0  0  0  0
  -12.9957  -71.1914  -20.6377 N   0  0  0  0  0  0  0  0  0  0  0  0
  -11.7141  -70.9944  -21.3610 C   0  0  0  0  0  0  0  0  0  0  0  0
  -10.5123  -71.1083  -20.4508 C   0  0  0  0  0  0  0  0  0  0  0  0
  -10.6838  -71.6977  -19.2298 N   0  0  0  0  0  0  0  0  0  0  0  0
   -9.5787  -71.8356  -18.4605 C   0  0  0  0  0  0  0  0  0  0  0  0
   -8.3093  -71.4267  -18.8458 C   0  0  0  0  0  0  0  0  0  0  0  0
   -8.1555  -70.8408  -20.0984 C   0  0  0  0  0  0  0  0  0  0  0  0
   -9.2705  -70.6889  -20.9096 C   0  0  0  0  0  0  0  0  0  0  0  0
   -9.1417  -70.1661  -22.1340 F   0  0  0  0  0  0  0  0  0  0  0  0
  1  2  1  0
  2  3  1  0
  3  4  2  0
  3  5  2  0
  3  6  1  0
  6  7  1  0
  7  8  1  0
  8  9  2  0
  9 10  1  0
 10 11  2  0
 11 12  1  0
 12 13  2  0
 13 14  1  0
 13  8  1  0
M  END
>  <fragmenstein_runtime>  (89) 
[1.3924477100372314]

>  <original ID>  (89) 
VUWLOCLKMVGYPC-UHFFFAOYSA-N

>  <fragmenstein_error>  (89) 
['']

>  <ref_pdb>  (89) 
d0615a

>  <Multi-SuCOS>  (89) 
0.794723

>  <SLURM_JOB_NAME>  (89) 
BulkDock.place:Flavi_NS5_RdRp:RdRp_knitwork_thumb_site_2_pure_split4000_batch000

>  <HIPPO Compound ID>  (89) 
791

>  <original SMILES>  (89) 
CCS(=O)(=O)NCc1ncccc1F

>  <name>  (89) 
VUWLOCLKMVGYPC-UHFFFAOYSA-N

>  <HIPPO Pose ID>  (89) 
50469

>  <ref_mols>  (89) 
d0174a,d0615a

>  <exports>  (89) 
['/opt/xchem-fragalysis-2/maxwin/BulkDock/OUTPUTS/RdRp_knitwork_thumb_site_2_pure_split4000_batch000_211010.sdf', '/opt/xchem-fragalysis-2/maxwin/BulkDock/OUTPUTS/RdRp_knitwork_thumb_site_2_pure_fragalysis.sdf', '/opt/xchem-fragalysis-2/maxwin/RdRp_FFF/syndirella/Retro_OK_batch1.sdf']

>  <alias>  (89) 
None

>  <inchikey>  (89) 
VUWLOCLKMVGYPC-UHFFFAOYSA-N

>  <energy_score>  (89) 
-40.213377

>  <distance_score>  (89) 
0.681042

>  <fragmenstein_outcome>  (89) 
['acceptable']

>  <merge_set>  (89) 
RdRp_knitwork_thumb_site_2_pure_fragalysis.sdf

>  <scratch_subdir>  (89) 
['/opt/xchem-fragalysis-2/maxwin/BulkDock/SCRATCH/211010/C791-P50']

>  <SLURM_JOB_ID>  (89) 
211010

>  <tags>  (89) 
['RdRp_knitwork_thumb_site_2_pure_fragalysis.sdf Pose OK', 'Fragmenstein placed']

>  <fragmenstein_mode>  (89) 
['expansion']

>  <csv_name>  (89) 
RdRp_knitwork_thumb_site_2_pure_split4000_batch000.csv

$$$$
KYKFBYOZGOXJTI-UHFFFAOYSA-N
     RDKit          3D

 15 15  0  0  0  0  0  0  0  0999 V2000
  -14.6892  -69.5242  -22.6594 C   0  0  0  0  0  0  0  0  0  0  0  0
  -15.2155  -69.5558  -21.2387 C   0  0  0  0  0  0  0  0  0  0  0  0
  -13.9357  -69.7377  -19.9993 S   0  0  0  0  0  0  0  0  0  0  0  0
  -12.9088  -68.7501  -20.2257 O   0  0  0  0  0  0  0  0  0  0  0  0
  -14.5726  -69.8850  -18.7067 O   0  0  0  0  0  0  0  0  0  0  0  0
  -13.3077  -71.2567  -20.3182 N   0  0  0  0  0  0  0  0  0  0  0  0
  -12.0675  -71.3002  -21.1115 C   0  0  0  0  0  0  0  0  0  0  0  0
  -10.8080  -71.2317  -20.2672 C   0  0  0  0  0  0  0  0  0  0  0  0
  -10.9231  -71.5327  -18.9415 N   0  0  0  0  0  0  0  0  0  0  0  0
   -9.7852  -71.5025  -18.2136 C   0  0  0  0  0  0  0  0  0  0  0  0
   -9.9994  -71.8059  -16.5381 Cl  0  0  0  0  0  0  0  0  0  0  0  0
   -8.5272  -71.2317  -18.7263 C   0  0  0  0  0  0  0  0  0  0  0  0
   -8.4254  -70.9438  -20.0830 C   0  0  0  0  0  0  0  0  0  0  0  0
   -9.5803  -70.9442  -20.8608 C   0  0  0  0  0  0  0  0  0  0  0  0
   -9.4704  -70.5890  -22.7006 Br  0  0  0  0  0  0  0  0  0  0  0  0
  1  2  1  0
  2  3  1  0
  3  4  2  0
  3  5  2  0
  3  6  1  0
  6  7  1  0
  7  8  1  0
  8  9  2  0
  9 10  1  0
 10 11  1  0
 10 12  2  0
 12 13  1  0
 13 14  2  0
 14 15  1  0
 14  8  1  0
M  END
>  <fragmenstein_runtime>  (90) 
[1.5386583805084229]

>  <original ID>  (90) 
KYKFBYOZGOXJTI-UHFFFAOYSA-N

>  <fragmenstein_error>  (90) 
['']

>  <ref_pdb>  (90) 
d0615a

>  <Multi-SuCOS>  (90) 
0.725355

>  <SLURM_JOB_NAME>  (90) 
BulkDock.place:Flavi_NS5_RdRp:RdRp_knitwork_thumb_site_2_pure_split4000_batch000

>  <HIPPO Compound ID>  (90) 
808

>  <original SMILES>  (90) 
CCS(=O)(=O)NCc1nc(Cl)ccc1Br

>  <name>  (90) 
KYKFBYOZGOXJTI-UHFFFAOYSA-N

>  <HIPPO Pose ID>  (90) 
50498

>  <ref_mols>  (90) 
d0174a,d0615a

>  <exports>  (90) 
['/opt/xchem-fragalysis-2/maxwin/BulkDock/OUTPUTS/RdRp_knitwork_thumb_site_2_pure_split4000_batch000_211010.sdf', '/opt/xchem-fragalysis-2/maxwin/BulkDock/OUTPUTS/RdRp_knitwork_thumb_site_2_pure_fragalysis.sdf', '/opt/xchem-fragalysis-2/maxwin/RdRp_FFF/syndirella/Retro_OK_batch1.sdf']

>  <alias>  (90) 
None

>  <inchikey>  (90) 
KYKFBYOZGOXJTI-UHFFFAOYSA-N

>  <energy_score>  (90) 
-36.279095

>  <distance_score>  (90) 
0.818691

>  <fragmenstein_outcome>  (90) 
['acceptable']

>  <merge_set>  (90) 
RdRp_knitwork_thumb_site_2_pure_fragalysis.sdf

>  <scratch_subdir>  (90) 
['/opt/xchem-fragalysis-2/maxwin/BulkDock/SCRATCH/211010/C808-P50']

>  <SLURM_JOB_ID>  (90) 
211010

>  <tags>  (90) 
['RdRp_knitwork_thumb_site_2_pure_fragalysis.sdf Pose OK', 'Fragmenstein placed']

>  <fragmenstein_mode>  (90) 
['expansion']

>  <csv_name>  (90) 
RdRp_knitwork_thumb_site_2_pure_split4000_batch000.csv

$$$$
JSMASCHCFMRBQP-UHFFFAOYSA-N
     RDKit          3D

 14 14  0  0  0  0  0  0  0  0999 V2000
  -14.6711  -69.4032  -22.7069 C   0  0  0  0  0  0  0  0  0  0  0  0
  -15.1973  -69.5822  -21.2965 C   0  0  0  0  0  0  0  0  0  0  0  0
  -13.8982  -69.7958  -20.0839 S   0  0  0  0  0  0  0  0  0  0  0  0
  -13.0004  -68.6707  -20.1537 O   0  0  0  0  0  0  0  0  0  0  0  0
  -14.4918  -70.2045  -18.8257 O   0  0  0  0  0  0  0  0  0  0  0  0
  -13.1161  -71.1619  -20.6420 N   0  0  0  0  0  0  0  0  0  0  0  0
  -11.7596  -71.0153  -21.1743 C   0  0  0  0  0  0  0  0  0  0  0  0
  -10.6384  -71.0975  -20.1603 C   0  0  0  0  0  0  0  0  0  0  0  0
  -10.8599  -71.4484  -18.8224 C   0  0  0  0  0  0  0  0  0  0  0  0
   -9.7812  -71.5523  -17.9554 C   0  0  0  0  0  0  0  0  0  0  0  0
   -8.5024  -71.3364  -18.3125 N   0  0  0  0  0  0  0  0  0  0  0  0
   -8.2982  -70.9917  -19.6004 C   0  0  0  0  0  0  0  0  0  0  0  0
   -9.3115  -70.8545  -20.5523 C   0  0  0  0  0  0  0  0  0  0  0  0
   -8.9208  -70.5051  -21.9502 C   0  0  0  0  0  0  0  0  0  0  0  0
  1  2  1  0
  2  3  1  0
  3  4  2  0
  3  5  2  0
  3  6  1  0
  6  7  1  0
  7  8  1  0
  8  9  2  0
  9 10  1  0
 10 11  2  0
 11 12  1  0
 12 13  2  0
 13 14  1  0
 13  8  1  0
M  END
>  <fragmenstein_runtime>  (91) 
[2.3045759201049805]

>  <original ID>  (91) 
JSMASCHCFMRBQP-UHFFFAOYSA-N

>  <fragmenstein_error>  (91) 
['']

>  <ref_pdb>  (91) 
d0615a

>  <Multi-SuCOS>  (91) 
0.793783

>  <SLURM_JOB_NAME>  (91) 
BulkDock.place:Flavi_NS5_RdRp:RdRp_knitwork_thumb_site_2_pure_split4000_batch000

>  <HIPPO Compound ID>  (91) 
850

>  <original SMILES>  (91) 
CCS(=O)(=O)NCc1ccncc1C

>  <name>  (91) 
JSMASCHCFMRBQP-UHFFFAOYSA-N

>  <HIPPO Pose ID>  (91) 
50578

>  <ref_mols>  (91) 
d0174a,d0615a

>  <exports>  (91) 
['/opt/xchem-fragalysis-2/maxwin/BulkDock/OUTPUTS/RdRp_knitwork_thumb_site_2_pure_split4000_batch000_211010.sdf', '/opt/xchem-fragalysis-2/maxwin/BulkDock/OUTPUTS/RdRp_knitwork_thumb_site_2_pure_fragalysis.sdf', '/opt/xchem-fragalysis-2/maxwin/RdRp_FFF/syndirella/Retro_OK_batch1.sdf']

>  <alias>  (91) 
None

>  <inchikey>  (91) 
JSMASCHCFMRBQP-UHFFFAOYSA-N

>  <energy_score>  (91) 
-33.257943

>  <distance_score>  (91) 
0.656089

>  <fragmenstein_outcome>  (91) 
['acceptable']

>  <merge_set>  (91) 
RdRp_knitwork_thumb_site_2_pure_fragalysis.sdf

>  <scratch_subdir>  (91) 
['/opt/xchem-fragalysis-2/maxwin/BulkDock/SCRATCH/211010/C850-P50']

>  <SLURM_JOB_ID>  (91) 
211010

>  <tags>  (91) 
['RdRp_knitwork_thumb_site_2_pure_fragalysis.sdf Pose OK', 'Fragmenstein placed']

>  <fragmenstein_mode>  (91) 
['expansion']

>  <csv_name>  (91) 
RdRp_knitwork_thumb_site_2_pure_split4000_batch000.csv

$$$$
YCSYUEQAYOMAGE-UHFFFAOYSA-N
     RDKit          3D

 14 14  0  0  0  0  0  0  0  0999 V2000
  -14.6252  -69.4831  -22.6922 C   0  0  0  0  0  0  0  0  0  0  0  0
  -15.1556  -69.6277  -21.2798 C   0  0  0  0  0  0  0  0  0  0  0  0
  -13.8654  -69.7920  -20.0495 S   0  0  0  0  0  0  0  0  0  0  0  0
  -12.9382  -68.6964  -20.1922 O   0  0  0  0  0  0  0  0  0  0  0  0
  -14.4901  -70.0867  -18.7745 O   0  0  0  0  0  0  0  0  0  0  0  0
  -13.1149  -71.2196  -20.5041 N   0  0  0  0  0  0  0  0  0  0  0  0
  -11.8103  -71.0918  -21.1935 C   0  0  0  0  0  0  0  0  0  0  0  0
  -10.6371  -71.1997  -20.2338 C   0  0  0  0  0  0  0  0  0  0  0  0
  -10.9139  -71.7126  -18.9991 N   0  0  0  0  0  0  0  0  0  0  0  0
   -9.8793  -71.8822  -18.1465 C   0  0  0  0  0  0  0  0  0  0  0  0
   -8.5666  -71.5802  -18.4548 C   0  0  0  0  0  0  0  0  0  0  0  0
   -8.2957  -71.0711  -19.7164 C   0  0  0  0  0  0  0  0  0  0  0  0
   -9.3385  -70.8727  -20.6300 C   0  0  0  0  0  0  0  0  0  0  0  0
   -9.0038  -70.4128  -22.0086 C   0  0  0  0  0  0  0  0  0  0  0  0
  1  2  1  0
  2  3  1  0
  3  4  2  0
  3  5  2  0
  3  6  1  0
  6  7  1  0
  7  8  1  0
  8  9  2  0
  9 10  1  0
 10 11  2  0
 11 12  1  0
 12 13  2  0
 13 14  1  0
 13  8  1  0
M  END
>  <fragmenstein_runtime>  (92) 
[1.5768444538116455]

>  <original ID>  (92) 
YCSYUEQAYOMAGE-UHFFFAOYSA-N

>  <fragmenstein_error>  (92) 
['']

>  <ref_pdb>  (92) 
d0615a

>  <Multi-SuCOS>  (92) 
0.782938

>  <SLURM_JOB_NAME>  (92) 
BulkDock.place:Flavi_NS5_RdRp:RdRp_knitwork_thumb_site_2_pure_split4000_batch000

>  <HIPPO Compound ID>  (92) 
852

>  <original SMILES>  (92) 
CCS(=O)(=O)NCc1ncccc1C

>  <name>  (92) 
YCSYUEQAYOMAGE-UHFFFAOYSA-N

>  <HIPPO Pose ID>  (92) 
50581

>  <ref_mols>  (92) 
d0174a,d0615a

>  <exports>  (92) 
['/opt/xchem-fragalysis-2/maxwin/BulkDock/OUTPUTS/RdRp_knitwork_thumb_site_2_pure_split4000_batch000_211010.sdf', '/opt/xchem-fragalysis-2/maxwin/BulkDock/OUTPUTS/RdRp_knitwork_thumb_site_2_pure_fragalysis.sdf', '/opt/xchem-fragalysis-2/maxwin/RdRp_FFF/syndirella/Retro_OK_batch1.sdf']

>  <alias>  (92) 
None

>  <inchikey>  (92) 
YCSYUEQAYOMAGE-UHFFFAOYSA-N

>  <energy_score>  (92) 
-42.845081

>  <distance_score>  (92) 
0.677757

>  <fragmenstein_outcome>  (92) 
['acceptable']

>  <merge_set>  (92) 
RdRp_knitwork_thumb_site_2_pure_fragalysis.sdf

>  <scratch_subdir>  (92) 
['/opt/xchem-fragalysis-2/maxwin/BulkDock/SCRATCH/211010/C852-P50']

>  <SLURM_JOB_ID>  (92) 
211010

>  <tags>  (92) 
['RdRp_knitwork_thumb_site_2_pure_fragalysis.sdf Pose OK', 'Fragmenstein placed']

>  <fragmenstein_mode>  (92) 
['expansion']

>  <csv_name>  (92) 
RdRp_knitwork_thumb_site_2_pure_split4000_batch000.csv

$$$$
RWOAYQXMDLLTCN-UHFFFAOYSA-N
     RDKit          3D

 15 15  0  0  0  0  0  0  0  0999 V2000
  -14.6819  -69.4825  -22.6621 C   0  0  0  0  0  0  0  0  0  0  0  0
  -15.2002  -69.6167  -21.2441 C   0  0  0  0  0  0  0  0  0  0  0  0
  -13.9042  -69.7706  -20.0182 S   0  0  0  0  0  0  0  0  0  0  0  0
  -12.9686  -68.6860  -20.1854 O   0  0  0  0  0  0  0  0  0  0  0  0
  -14.5244  -70.0394  -18.7358 O   0  0  0  0  0  0  0  0  0  0  0  0
  -13.1642  -71.2100  -20.4449 N   0  0  0  0  0  0  0  0  0  0  0  0
  -11.9213  -71.1040  -21.2368 C   0  0  0  0  0  0  0  0  0  0  0  0
  -10.6718  -71.2174  -20.3829 C   0  0  0  0  0  0  0  0  0  0  0  0
  -10.8362  -71.7126  -19.1225 N   0  0  0  0  0  0  0  0  0  0  0  0
   -9.7223  -71.8932  -18.3745 C   0  0  0  0  0  0  0  0  0  0  0  0
   -8.4354  -71.6071  -18.8069 C   0  0  0  0  0  0  0  0  0  0  0  0
   -7.2326  -71.8907  -17.9688 C   0  0  0  0  0  0  0  0  0  0  0  0
   -8.2925  -71.1110  -20.0988 C   0  0  0  0  0  0  0  0  0  0  0  0
   -9.4162  -70.9151  -20.9088 C   0  0  0  0  0  0  0  0  0  0  0  0
   -9.2108  -70.4736  -22.3180 C   0  0  0  0  0  0  0  0  0  0  0  0
  1  2  1  0
  2  3  1  0
  3  4  2  0
  3  5  2  0
  3  6  1  0
  6  7  1  0
  7  8  1  0
  8  9  2  0
  9 10  1  0
 10 11  2  0
 11 12  1  0
 11 13  1  0
 13 14  2  0
 14 15  1  0
 14  8  1  0
M  END
>  <fragmenstein_runtime>  (93) 
[1.4566524028778076]

>  <original ID>  (93) 
RWOAYQXMDLLTCN-UHFFFAOYSA-N

>  <fragmenstein_error>  (93) 
['']

>  <ref_pdb>  (93) 
d0615a

>  <Multi-SuCOS>  (93) 
0.740157

>  <SLURM_JOB_NAME>  (93) 
BulkDock.place:Flavi_NS5_RdRp:RdRp_knitwork_thumb_site_2_pure_split4000_batch000

>  <HIPPO Compound ID>  (93) 
856

>  <original SMILES>  (93) 
CCS(=O)(=O)NCc1ncc(C)cc1C

>  <name>  (93) 
RWOAYQXMDLLTCN-UHFFFAOYSA-N

>  <HIPPO Pose ID>  (93) 
50585

>  <ref_mols>  (93) 
d0174a,d0615a

>  <exports>  (93) 
['/opt/xchem-fragalysis-2/maxwin/BulkDock/OUTPUTS/RdRp_knitwork_thumb_site_2_pure_split4000_batch000_211010.sdf', '/opt/xchem-fragalysis-2/maxwin/BulkDock/OUTPUTS/RdRp_knitwork_thumb_site_2_pure_fragalysis.sdf', '/opt/xchem-fragalysis-2/maxwin/RdRp_FFF/syndirella/Retro_OK_batch1.sdf']

>  <alias>  (93) 
None

>  <inchikey>  (93) 
RWOAYQXMDLLTCN-UHFFFAOYSA-N

>  <energy_score>  (93) 
-34.207058

>  <distance_score>  (93) 
0.914108

>  <fragmenstein_outcome>  (93) 
['acceptable']

>  <merge_set>  (93) 
RdRp_knitwork_thumb_site_2_pure_fragalysis.sdf

>  <scratch_subdir>  (93) 
['/opt/xchem-fragalysis-2/maxwin/BulkDock/SCRATCH/211010/C856-P50']

>  <SLURM_JOB_ID>  (93) 
211010

>  <tags>  (93) 
['RdRp_knitwork_thumb_site_2_pure_fragalysis.sdf Pose OK', 'Fragmenstein placed']

>  <fragmenstein_mode>  (93) 
['expansion']

>  <csv_name>  (93) 
RdRp_knitwork_thumb_site_2_pure_split4000_batch000.csv

$$$$
CZXIYJPCHZSMDX-UHFFFAOYSA-N
     RDKit          3D

 15 15  0  0  0  0  0  0  0  0999 V2000
  -14.6586  -69.4235  -22.6841 C   0  0  0  0  0  0  0  0  0  0  0  0
  -15.2108  -69.6203  -21.2866 C   0  0  0  0  0  0  0  0  0  0  0  0
  -13.9419  -69.7338  -20.0284 S   0  0  0  0  0  0  0  0  0  0  0  0
  -13.0915  -68.5734  -20.0981 O   0  0  0  0  0  0  0  0  0  0  0  0
  -14.5553  -70.1368  -18.7793 O   0  0  0  0  0  0  0  0  0  0  0  0
  -13.0612  -71.0609  -20.4987 N   0  0  0  0  0  0  0  0  0  0  0  0
  -11.8087  -70.8669  -21.2235 C   0  0  0  0  0  0  0  0  0  0  0  0
  -10.5546  -71.0919  -20.4184 C   0  0  0  0  0  0  0  0  0  0  0  0
  -10.5265  -71.0168  -19.0273 C   0  0  0  0  0  0  0  0  0  0  0  0
   -9.4308  -71.2433  -18.2608 N   0  0  0  0  0  0  0  0  0  0  0  0
   -8.2737  -71.5093  -18.9049 C   0  0  0  0  0  0  0  0  0  0  0  0
   -7.0540  -71.7601  -18.0743 C   0  0  0  0  0  0  0  0  0  0  0  0
   -8.1798  -71.5368  -20.2888 C   0  0  0  0  0  0  0  0  0  0  0  0
   -9.3319  -71.3465  -21.0589 C   0  0  0  0  0  0  0  0  0  0  0  0
   -9.2247  -71.3924  -22.5521 C   0  0  0  0  0  0  0  0  0  0  0  0
  1  2  1  0
  2  3  1  0
  3  4  2  0
  3  5  2  0
  3  6  1  0
  6  7  1  0
  7  8  1  0
  8  9  2  0
  9 10  1  0
 10 11  2  0
 11 12  1  0
 11 13  1  0
 13 14  2  0
 14 15  1  0
 14  8  1  0
M  END
>  <fragmenstein_runtime>  (94) 
[1.7871043682098389]

>  <original ID>  (94) 
CZXIYJPCHZSMDX-UHFFFAOYSA-N

>  <fragmenstein_error>  (94) 
['']

>  <ref_pdb>  (94) 
d0615a

>  <Multi-SuCOS>  (94) 
0.797153

>  <SLURM_JOB_NAME>  (94) 
BulkDock.place:Flavi_NS5_RdRp:RdRp_knitwork_thumb_site_2_pure_split4000_batch000

>  <HIPPO Compound ID>  (94) 
885

>  <original SMILES>  (94) 
CCS(=O)(=O)NCc1cnc(C)cc1C

>  <name>  (94) 
CZXIYJPCHZSMDX-UHFFFAOYSA-N

>  <HIPPO Pose ID>  (94) 
50611

>  <ref_mols>  (94) 
d0174a,d0615a

>  <exports>  (94) 
['/opt/xchem-fragalysis-2/maxwin/BulkDock/OUTPUTS/RdRp_knitwork_thumb_site_2_pure_split4000_batch000_211010.sdf', '/opt/xchem-fragalysis-2/maxwin/BulkDock/OUTPUTS/RdRp_knitwork_thumb_site_2_pure_fragalysis.sdf', '/opt/xchem-fragalysis-2/maxwin/RdRp_FFF/syndirella/Retro_OK_batch1.sdf']

>  <alias>  (94) 
None

>  <inchikey>  (94) 
CZXIYJPCHZSMDX-UHFFFAOYSA-N

>  <energy_score>  (94) 
-28.004284

>  <distance_score>  (94) 
0.773801

>  <fragmenstein_outcome>  (94) 
['acceptable']

>  <merge_set>  (94) 
RdRp_knitwork_thumb_site_2_pure_fragalysis.sdf

>  <scratch_subdir>  (94) 
['/opt/xchem-fragalysis-2/maxwin/BulkDock/SCRATCH/211010/C885-P50']

>  <SLURM_JOB_ID>  (94) 
211010

>  <tags>  (94) 
['RdRp_knitwork_thumb_site_2_pure_fragalysis.sdf Pose OK', 'Fragmenstein placed']

>  <fragmenstein_mode>  (94) 
['expansion']

>  <csv_name>  (94) 
RdRp_knitwork_thumb_site_2_pure_split4000_batch000.csv

$$$$
QXEWTLBETOJJBD-UHFFFAOYSA-N
     RDKit          3D

 14 14  0  0  0  0  0  0  0  0999 V2000
  -14.6174  -69.4762  -22.6797 C   0  0  0  0  0  0  0  0  0  0  0  0
  -15.1490  -69.5942  -21.2655 C   0  0  0  0  0  0  0  0  0  0  0  0
  -13.8632  -69.7973  -20.0354 S   0  0  0  0  0  0  0  0  0  0  0  0
  -12.8990  -68.7337  -20.1757 O   0  0  0  0  0  0  0  0  0  0  0  0
  -14.4928  -70.0750  -18.7593 O   0  0  0  0  0  0  0  0  0  0  0  0
  -13.1529  -71.2455  -20.4846 N   0  0  0  0  0  0  0  0  0  0  0  0
  -11.8553  -71.1567  -21.1910 C   0  0  0  0  0  0  0  0  0  0  0  0
  -10.6709  -71.2418  -20.2461 C   0  0  0  0  0  0  0  0  0  0  0  0
  -10.8869  -71.8315  -19.0313 N   0  0  0  0  0  0  0  0  0  0  0  0
   -9.8153  -71.9788  -18.2179 C   0  0  0  0  0  0  0  0  0  0  0  0
   -8.5303  -71.5785  -18.5482 C   0  0  0  0  0  0  0  0  0  0  0  0
   -8.3252  -70.9872  -19.7892 C   0  0  0  0  0  0  0  0  0  0  0  0
   -9.4067  -70.8217  -20.6500 C   0  0  0  0  0  0  0  0  0  0  0  0
   -9.1515  -70.1361  -22.1915 Cl  0  0  0  0  0  0  0  0  0  0  0  0
  1  2  1  0
  2  3  1  0
  3  4  2  0
  3  5  2  0
  3  6  1  0
  6  7  1  0
  7  8  1  0
  8  9  2  0
  9 10  1  0
 10 11  2  0
 11 12  1  0
 12 13  2  0
 13 14  1  0
 13  8  1  0
M  END
>  <fragmenstein_runtime>  (95) 
[1.9695119857788086]

>  <original ID>  (95) 
QXEWTLBETOJJBD-UHFFFAOYSA-N

>  <fragmenstein_error>  (95) 
['']

>  <ref_pdb>  (95) 
d0615a

>  <Multi-SuCOS>  (95) 
0.778155

>  <SLURM_JOB_NAME>  (95) 
BulkDock.place:Flavi_NS5_RdRp:RdRp_knitwork_thumb_site_2_pure_split4000_batch000

>  <HIPPO Compound ID>  (95) 
886

>  <original SMILES>  (95) 
CCS(=O)(=O)NCc1ncccc1Cl

>  <name>  (95) 
QXEWTLBETOJJBD-UHFFFAOYSA-N

>  <HIPPO Pose ID>  (95) 
50612

>  <ref_mols>  (95) 
d0174a,d0615a

>  <exports>  (95) 
['/opt/xchem-fragalysis-2/maxwin/BulkDock/OUTPUTS/RdRp_knitwork_thumb_site_2_pure_split4000_batch000_211010.sdf', '/opt/xchem-fragalysis-2/maxwin/BulkDock/OUTPUTS/RdRp_knitwork_thumb_site_2_pure_fragalysis.sdf', '/opt/xchem-fragalysis-2/maxwin/RdRp_FFF/syndirella/Retro_OK_batch1.sdf']

>  <alias>  (95) 
None

>  <inchikey>  (95) 
QXEWTLBETOJJBD-UHFFFAOYSA-N

>  <energy_score>  (95) 
-41.158325

>  <distance_score>  (95) 
0.801976

>  <fragmenstein_outcome>  (95) 
['acceptable']

>  <merge_set>  (95) 
RdRp_knitwork_thumb_site_2_pure_fragalysis.sdf

>  <scratch_subdir>  (95) 
['/opt/xchem-fragalysis-2/maxwin/BulkDock/SCRATCH/211010/C886-P50']

>  <SLURM_JOB_ID>  (95) 
211010

>  <tags>  (95) 
['RdRp_knitwork_thumb_site_2_pure_fragalysis.sdf Pose OK', 'Fragmenstein placed']

>  <fragmenstein_mode>  (95) 
['expansion']

>  <csv_name>  (95) 
RdRp_knitwork_thumb_site_2_pure_split4000_batch000.csv

$$$$
XDGUIPBTSIDPMH-UHFFFAOYSA-N
     RDKit          3D

 14 14  0  0  0  0  0  0  0  0999 V2000
  -14.6342  -69.4153  -22.6921 C   0  0  0  0  0  0  0  0  0  0  0  0
  -15.1664  -69.5394  -21.2783 C   0  0  0  0  0  0  0  0  0  0  0  0
  -13.8803  -69.8049  -20.0609 S   0  0  0  0  0  0  0  0  0  0  0  0
  -12.9182  -68.7352  -20.1463 O   0  0  0  0  0  0  0  0  0  0  0  0
  -14.4963  -70.1618  -18.7978 O   0  0  0  0  0  0  0  0  0  0  0  0
  -13.1726  -71.2215  -20.5877 N   0  0  0  0  0  0  0  0  0  0  0  0
  -11.8288  -71.1592  -21.1666 C   0  0  0  0  0  0  0  0  0  0  0  0
  -10.6891  -71.1971  -20.1737 C   0  0  0  0  0  0  0  0  0  0  0  0
  -10.8348  -71.6924  -18.8710 C   0  0  0  0  0  0  0  0  0  0  0  0
   -9.7244  -71.7528  -18.0366 C   0  0  0  0  0  0  0  0  0  0  0  0
   -8.4848  -71.3662  -18.3990 N   0  0  0  0  0  0  0  0  0  0  0  0
   -8.3543  -70.8929  -19.6600 C   0  0  0  0  0  0  0  0  0  0  0  0
   -9.4070  -70.7945  -20.5622 C   0  0  0  0  0  0  0  0  0  0  0  0
   -9.1095  -70.1975  -22.1353 Cl  0  0  0  0  0  0  0  0  0  0  0  0
  1  2  1  0
  2  3  1  0
  3  4  2  0
  3  5  2  0
  3  6  1  0
  6  7  1  0
  7  8  1  0
  8  9  2  0
  9 10  1  0
 10 11  2  0
 11 12  1  0
 12 13  2  0
 13 14  1  0
 13  8  1  0
M  END
>  <fragmenstein_runtime>  (96) 
[1.2955694198608398]

>  <original ID>  (96) 
XDGUIPBTSIDPMH-UHFFFAOYSA-N

>  <fragmenstein_error>  (96) 
['']

>  <ref_pdb>  (96) 
d0615a

>  <Multi-SuCOS>  (96) 
0.78709

>  <SLURM_JOB_NAME>  (96) 
BulkDock.place:Flavi_NS5_RdRp:RdRp_knitwork_thumb_site_2_pure_split4000_batch000

>  <HIPPO Compound ID>  (96) 
890

>  <original SMILES>  (96) 
CCS(=O)(=O)NCc1ccncc1Cl

>  <name>  (96) 
XDGUIPBTSIDPMH-UHFFFAOYSA-N

>  <HIPPO Pose ID>  (96) 
50614

>  <ref_mols>  (96) 
d0174a,d0615a

>  <exports>  (96) 
['/opt/xchem-fragalysis-2/maxwin/BulkDock/OUTPUTS/RdRp_knitwork_thumb_site_2_pure_split4000_batch000_211010.sdf', '/opt/xchem-fragalysis-2/maxwin/BulkDock/OUTPUTS/RdRp_knitwork_thumb_site_2_pure_fragalysis.sdf', '/opt/xchem-fragalysis-2/maxwin/RdRp_FFF/syndirella/Retro_OK_batch1.sdf']

>  <alias>  (96) 
None

>  <inchikey>  (96) 
XDGUIPBTSIDPMH-UHFFFAOYSA-N

>  <energy_score>  (96) 
-30.408529

>  <distance_score>  (96) 
0.706599

>  <fragmenstein_outcome>  (96) 
['acceptable']

>  <merge_set>  (96) 
RdRp_knitwork_thumb_site_2_pure_fragalysis.sdf

>  <scratch_subdir>  (96) 
['/opt/xchem-fragalysis-2/maxwin/BulkDock/SCRATCH/211010/C890-P50']

>  <SLURM_JOB_ID>  (96) 
211010

>  <tags>  (96) 
['RdRp_knitwork_thumb_site_2_pure_fragalysis.sdf Pose OK', 'Fragmenstein placed']

>  <fragmenstein_mode>  (96) 
['expansion']

>  <csv_name>  (96) 
RdRp_knitwork_thumb_site_2_pure_split4000_batch000.csv

$$$$
BCMFRBFZBGDNRH-UHFFFAOYSA-N
     RDKit          3D

 14 14  0  0  0  0  0  0  0  0999 V2000
  -14.6006  -69.4550  -22.6938 C   0  0  0  0  0  0  0  0  0  0  0  0
  -15.1677  -69.6591  -21.3035 C   0  0  0  0  0  0  0  0  0  0  0  0
  -13.9111  -69.7523  -20.0312 S   0  0  0  0  0  0  0  0  0  0  0  0
  -13.0679  -68.5868  -20.1030 O   0  0  0  0  0  0  0  0  0  0  0  0
  -14.5351  -70.1483  -18.7849 O   0  0  0  0  0  0  0  0  0  0  0  0
  -13.0163  -71.0804  -20.4793 N   0  0  0  0  0  0  0  0  0  0  0  0
  -11.7288  -70.8833  -21.1426 C   0  0  0  0  0  0  0  0  0  0  0  0
  -10.5112  -71.0653  -20.2692 C   0  0  0  0  0  0  0  0  0  0  0  0
  -10.5526  -70.9501  -18.8799 C   0  0  0  0  0  0  0  0  0  0  0  0
   -9.4885  -71.1188  -18.0541 N   0  0  0  0  0  0  0  0  0  0  0  0
   -8.3022  -71.3625  -18.6428 C   0  0  0  0  0  0  0  0  0  0  0  0
   -8.1322  -71.4497  -20.0115 C   0  0  0  0  0  0  0  0  0  0  0  0
   -9.2511  -71.3131  -20.8413 C   0  0  0  0  0  0  0  0  0  0  0  0
   -9.0755  -71.4068  -22.3260 C   0  0  0  0  0  0  0  0  0  0  0  0
  1  2  1  0
  2  3  1  0
  3  4  2  0
  3  5  2  0
  3  6  1  0
  6  7  1  0
  7  8  1  0
  8  9  2  0
  9 10  1  0
 10 11  2  0
 11 12  1  0
 12 13  2  0
 13 14  1  0
 13  8  1  0
M  END
>  <fragmenstein_runtime>  (97) 
[1.3582980632781982]

>  <original ID>  (97) 
BCMFRBFZBGDNRH-UHFFFAOYSA-N

>  <fragmenstein_error>  (97) 
['']

>  <ref_pdb>  (97) 
d0615a

>  <Multi-SuCOS>  (97) 
0.793146

>  <SLURM_JOB_NAME>  (97) 
BulkDock.place:Flavi_NS5_RdRp:RdRp_knitwork_thumb_site_2_pure_split4000_batch000

>  <HIPPO Compound ID>  (97) 
915

>  <original SMILES>  (97) 
CCS(=O)(=O)NCc1cnccc1C

>  <name>  (97) 
BCMFRBFZBGDNRH-UHFFFAOYSA-N

>  <HIPPO Pose ID>  (97) 
50640

>  <ref_mols>  (97) 
d0174a,d0615a

>  <exports>  (97) 
['/opt/xchem-fragalysis-2/maxwin/BulkDock/OUTPUTS/RdRp_knitwork_thumb_site_2_pure_split4000_batch000_211010.sdf', '/opt/xchem-fragalysis-2/maxwin/BulkDock/OUTPUTS/RdRp_knitwork_thumb_site_2_pure_fragalysis.sdf', '/opt/xchem-fragalysis-2/maxwin/RdRp_FFF/syndirella/Retro_OK_batch1.sdf']

>  <alias>  (97) 
None

>  <inchikey>  (97) 
BCMFRBFZBGDNRH-UHFFFAOYSA-N

>  <energy_score>  (97) 
-26.981517

>  <distance_score>  (97) 
0.896937

>  <fragmenstein_outcome>  (97) 
['acceptable']

>  <merge_set>  (97) 
RdRp_knitwork_thumb_site_2_pure_fragalysis.sdf

>  <scratch_subdir>  (97) 
['/opt/xchem-fragalysis-2/maxwin/BulkDock/SCRATCH/211010/C915-P50']

>  <SLURM_JOB_ID>  (97) 
211010

>  <tags>  (97) 
['RdRp_knitwork_thumb_site_2_pure_fragalysis.sdf Pose OK', 'Fragmenstein placed']

>  <fragmenstein_mode>  (97) 
['expansion']

>  <csv_name>  (97) 
RdRp_knitwork_thumb_site_2_pure_split4000_batch000.csv

$$$$
KUNYWHXFLWUFPB-UHFFFAOYSA-N
     RDKit          3D

 13 13  0  0  0  0  0  0  0  0999 V2000
  -15.4062  -70.2297  -21.2706 C   0  0  0  0  0  0  0  0  0  0  0  0
  -14.1364  -71.0236  -21.0188 C   0  0  0  0  0  0  0  0  0  0  0  0
  -13.1056  -70.2089  -19.7956 S   0  0  0  0  0  0  0  0  0  0  0  0
  -12.9757  -68.8043  -20.1119 O   0  0  0  0  0  0  0  0  0  0  0  0
  -13.6599  -70.5968  -18.5140 O   0  0  0  0  0  0  0  0  0  0  0  0
  -11.5863  -70.9819  -20.0273 N   0  0  0  0  0  0  0  0  0  0  0  0
  -10.5769  -70.8829  -18.9354 C   0  0  0  0  0  0  0  0  0  0  0  0
  -11.0151  -70.9148  -21.3538 C   0  0  0  0  0  0  0  0  0  0  0  0
  -10.0489  -71.8379  -21.7371 C   0  0  0  0  0  0  0  0  0  0  0  0
   -9.6021  -71.8545  -23.0545 C   0  0  0  0  0  0  0  0  0  0  0  0
  -10.1177  -70.9301  -23.9452 C   0  0  0  0  0  0  0  0  0  0  0  0
  -11.0213  -70.0024  -23.6028 N   0  0  0  0  0  0  0  0  0  0  0  0
  -11.4312  -70.0121  -22.3227 C   0  0  0  0  0  0  0  0  0  0  0  0
  1  2  1  0
  2  3  1  0
  3  4  2  0
  3  5  2  0
  3  6  1  0
  6  7  1  0
  6  8  1  0
  8  9  2  0
  9 10  1  0
 10 11  2  0
 11 12  1  0
 12 13  2  0
 13  8  1  0
M  END
>  <fragmenstein_runtime>  (98) 
[1.338061809539795]

>  <original ID>  (98) 
KUNYWHXFLWUFPB-UHFFFAOYSA-N

>  <fragmenstein_error>  (98) 
['']

>  <ref_pdb>  (98) 
d0174a

>  <Multi-SuCOS>  (98) 
0.517028

>  <SLURM_JOB_NAME>  (98) 
BulkDock.place:Flavi_NS5_RdRp:RdRp_knitwork_thumb_site_2_impure_split4000_batch000

>  <HIPPO Compound ID>  (98) 
1345

>  <original SMILES>  (98) 
CCS(=O)(=O)N(C)c1cccnc1

>  <name>  (98) 
KUNYWHXFLWUFPB-UHFFFAOYSA-N

>  <HIPPO Pose ID>  (98) 
51151

>  <ref_mols>  (98) 
d0174a,d0279a,d0615a

>  <exports>  (98) 
['/opt/xchem-fragalysis-2/maxwin/BulkDock/OUTPUTS/RdRp_knitwork_thumb_site_2_impure_split4000_batch000_211013.sdf', '/opt/xchem-fragalysis-2/maxwin/BulkDock/OUTPUTS/RdRp_knitwork_thumb_site_2_impure_fragalysis.sdf', '/opt/xchem-fragalysis-2/maxwin/RdRp_FFF/syndirella/Retro_OK_batch1.sdf']

>  <alias>  (98) 
None

>  <inchikey>  (98) 
KUNYWHXFLWUFPB-UHFFFAOYSA-N

>  <energy_score>  (98) 
-34.33625

>  <distance_score>  (98) 
0.638958

>  <fragmenstein_outcome>  (98) 
['acceptable']

>  <merge_set>  (98) 
RdRp_knitwork_thumb_site_2_impure_fragalysis.sdf

>  <scratch_subdir>  (98) 
['/opt/xchem-fragalysis-2/maxwin/BulkDock/SCRATCH/211013/C1345-P17']

>  <SLURM_JOB_ID>  (98) 
211013

>  <tags>  (98) 
['Fragmenstein placed', 'RdRp_knitwork_thumb_site_2_impure_fragalysis.sdf Pose OK']

>  <fragmenstein_mode>  (98) 
['expansion']

>  <csv_name>  (98) 
RdRp_knitwork_thumb_site_2_impure_split4000_batch000.csv

$$$$
KUNYWHXFLWUFPB-UHFFFAOYSA-N
     RDKit          3D

 13 13  0  0  0  0  0  0  0  0999 V2000
  -14.5759  -69.6688  -22.7810 C   0  0  0  0  0  0  0  0  0  0  0  0
  -15.0771  -69.8523  -21.3664 C   0  0  0  0  0  0  0  0  0  0  0  0
  -13.7993  -69.8184  -20.1160 S   0  0  0  0  0  0  0  0  0  0  0  0
  -13.0305  -68.6070  -20.2749 O   0  0  0  0  0  0  0  0  0  0  0  0
  -14.4508  -70.1186  -18.8525 O   0  0  0  0  0  0  0  0  0  0  0  0
  -12.8133  -71.1384  -20.5593 N   0  0  0  0  0  0  0  0  0  0  0  0
  -11.6308  -70.8114  -21.3961 C   0  0  0  0  0  0  0  0  0  0  0  0
  -12.5399  -72.0838  -19.5067 C   0  0  0  0  0  0  0  0  0  0  0  0
  -12.8509  -73.4241  -19.7137 C   0  0  0  0  0  0  0  0  0  0  0  0
  -12.5395  -74.3574  -18.7273 C   0  0  0  0  0  0  0  0  0  0  0  0
  -11.9104  -73.9153  -17.5728 C   0  0  0  0  0  0  0  0  0  0  0  0
  -11.5756  -72.6250  -17.3453 N   0  0  0  0  0  0  0  0  0  0  0  0
  -11.8821  -71.7400  -18.3253 C   0  0  0  0  0  0  0  0  0  0  0  0
  1  2  1  0
  2  3  1  0
  3  4  2  0
  3  5  2  0
  3  6  1  0
  6  7  1  0
  6  8  1  0
  8  9  2  0
  9 10  1  0
 10 11  2  0
 11 12  1  0
 12 13  2  0
 13  8  1  0
M  END
>  <fragmenstein_runtime>  (99) 
[1.3825297355651855]

>  <original ID>  (99) 
KUNYWHXFLWUFPB-UHFFFAOYSA-N

>  <fragmenstein_error>  (99) 
['']

>  <ref_pdb>  (99) 
d0279a

>  <Multi-SuCOS>  (99) 
0.570528

>  <SLURM_JOB_NAME>  (99) 
BulkDock.place:Flavi_NS5_RdRp:RdRp_knitwork_thumb_site_2_impure_split4000_batch000

>  <HIPPO Compound ID>  (99) 
1345

>  <original SMILES>  (99) 
CCS(=O)(=O)N(C)c1cccnc1

>  <name>  (99) 
KUNYWHXFLWUFPB-UHFFFAOYSA-N

>  <HIPPO Pose ID>  (99) 
51152

>  <ref_mols>  (99) 
d0174a,d0279a

>  <exports>  (99) 
['/opt/xchem-fragalysis-2/maxwin/BulkDock/OUTPUTS/RdRp_knitwork_thumb_site_2_impure_split4000_batch000_211013.sdf', '/opt/xchem-fragalysis-2/maxwin/BulkDock/OUTPUTS/RdRp_knitwork_thumb_site_2_impure_fragalysis.sdf', '/opt/xchem-fragalysis-2/maxwin/RdRp_FFF/syndirella/Retro_OK_batch1.sdf']

>  <alias>  (99) 
None

>  <inchikey>  (99) 
KUNYWHXFLWUFPB-UHFFFAOYSA-N

>  <energy_score>  (99) 
-34.412373

>  <distance_score>  (99) 
0.669055

>  <fragmenstein_outcome>  (99) 
['acceptable']

>  <merge_set>  (99) 
RdRp_knitwork_thumb_site_2_impure_fragalysis.sdf

>  <scratch_subdir>  (99) 
['/opt/xchem-fragalysis-2/maxwin/BulkDock/SCRATCH/211013/C1345-P29']

>  <SLURM_JOB_ID>  (99) 
211013

>  <tags>  (99) 
['Fragmenstein placed', 'RdRp_knitwork_thumb_site_2_impure_fragalysis.sdf Pose OK']

>  <fragmenstein_mode>  (99) 
['expansion']

>  <csv_name>  (99) 
RdRp_knitwork_thumb_site_2_impure_split4000_batch000.csv

$$$$
CVLSHSMLHFDUPS-MRVPVSSYSA-N
     RDKit          3D

 13 13  0  0  0  0  0  0  0  0999 V2000
  -14.2076  -69.2848  -23.0115 C   0  0  0  0  0  0  0  0  0  0  0  0
  -14.6568  -69.4771  -21.5595 C   0  0  0  0  0  0  0  0  0  0  0  0
  -15.9088  -70.3520  -21.5026 C   0  0  0  0  0  0  0  0  0  0  0  0
  -15.0240  -68.1140  -20.9696 C   0  0  0  0  0  0  0  0  0  0  0  0
  -13.6130  -69.9988  -20.7083 O   0  0  0  0  0  0  0  0  0  0  0  0
  -13.0496  -71.2560  -21.1030 C   0  0  0  0  0  0  0  0  0  0  0  0
  -11.5560  -71.1994  -21.4813 C   0  0  1  0  0  0  0  0  0  0  0  0
  -11.2924  -70.1899  -22.4622 O   0  0  0  0  0  0  0  0  0  0  0  0
  -10.5632  -71.1088  -20.3540 C   0  0  0  0  0  0  0  0  0  0  0  0
  -10.7403  -71.3717  -19.0090 C   0  0  0  0  0  0  0  0  0  0  0  0
   -9.2401  -71.2830  -18.1821 S   0  0  0  0  0  0  0  0  0  0  0  0
   -8.4713  -70.8518  -19.6541 C   0  0  0  0  0  0  0  0  0  0  0  0
   -9.2501  -70.7897  -20.7104 N   0  0  0  0  0  0  0  0  0  0  0  0
  1  2  1  0
  2  3  1  0
  2  4  1  0
  2  5  1  0
  5  6  1  0
  6  7  1  0
  7  8  1  6
  7  9  1  0
  9 10  2  0
 10 11  1  0
 11 12  1  0
 12 13  2  0
 13  9  1  0
M  END
>  <fragmenstein_runtime>  (100) 
[2.154937505722046]

>  <original ID>  (100) 
CVLSHSMLHFDUPS-MRVPVSSYSA-N

>  <fragmenstein_error>  (100) 
['']

>  <ref_pdb>  (100) 
d0615a

>  <Multi-SuCOS>  (100) 
0.480159

>  <SLURM_JOB_NAME>  (100) 
BulkDock.place:Flavi_NS5_RdRp:RdRp_knitwork_thumb_site_2_impure_split4000_batch000

>  <HIPPO Compound ID>  (100) 
5550

>  <original SMILES>  (100) 
CC(C)(C)OC[C@@H](O)c1cscn1

>  <name>  (100) 
CVLSHSMLHFDUPS-MRVPVSSYSA-N

>  <HIPPO Pose ID>  (100) 
51476

>  <ref_mols>  (100) 
d0174a,d0615a

>  <exports>  (100) 
['/opt/xchem-fragalysis-2/maxwin/BulkDock/OUTPUTS/RdRp_knitwork_thumb_site_2_impure_split4000_batch000_211013.sdf', '/opt/xchem-fragalysis-2/maxwin/BulkDock/OUTPUTS/RdRp_knitwork_thumb_site_2_impure_fragalysis.sdf', '/opt/xchem-fragalysis-2/maxwin/RdRp_FFF/syndirella/Retro_OK_batch1.sdf']

>  <alias>  (100) 
None

>  <inchikey>  (100) 
CVLSHSMLHFDUPS-MRVPVSSYSA-N

>  <energy_score>  (100) 
-99.56737

>  <distance_score>  (100) 
0.615688

>  <fragmenstein_outcome>  (100) 
['acceptable']

>  <merge_set>  (100) 
RdRp_knitwork_thumb_site_2_impure_fragalysis.sdf

>  <scratch_subdir>  (100) 
['/opt/xchem-fragalysis-2/maxwin/BulkDock/SCRATCH/211013/C5550-P50']

>  <SLURM_JOB_ID>  (100) 
211013

>  <tags>  (100) 
['Fragmenstein placed', 'RdRp_knitwork_thumb_site_2_impure_fragalysis.sdf Pose OK']

>  <fragmenstein_mode>  (100) 
['expansion']

>  <csv_name>  (100) 
RdRp_knitwork_thumb_site_2_impure_split4000_batch000.csv

$$$$
MJOVEFYRMHTGAB-QMMMGPOBSA-N
     RDKit          3D

 16 16  0  0  0  0  0  0  0  0999 V2000
  -14.1525  -70.0310  -24.9659 C   0  0  0  0  0  0  0  0  0  0  0  0
  -14.8747  -69.9433  -23.8398 C   0  0  0  0  0  0  0  0  0  0  0  0
  -14.5937  -68.9771  -22.7177 C   0  0  0  0  0  0  0  0  0  0  0  0
  -14.8709  -69.5756  -21.4142 N   0  0  0  0  0  0  0  0  0  0  0  0
  -16.2018  -70.1099  -21.1937 C   0  0  0  0  0  0  0  0  0  0  0  0
  -13.6952  -69.8061  -20.2659 S   0  0  0  0  0  0  0  0  0  0  0  0
  -14.3330  -70.0874  -18.9965 O   0  0  0  0  0  0  0  0  0  0  0  0
  -12.6937  -68.7857  -20.4001 O   0  0  0  0  0  0  0  0  0  0  0  0
  -13.0950  -71.2763  -20.7710 N   0  0  0  0  0  0  0  0  0  0  0  0
  -11.7180  -71.3642  -21.3253 C   0  0  1  0  0  0  0  0  0  0  0  0
  -11.5287  -70.6136  -22.6233 C   0  0  0  0  0  0  0  0  0  0  0  0
  -10.6860  -71.1612  -20.2389 C   0  0  0  0  0  0  0  0  0  0  0  0
  -10.8651  -71.5915  -19.0005 N   0  0  0  0  0  0  0  0  0  0  0  0
   -9.6964  -71.4430  -18.2814 C   0  0  0  0  0  0  0  0  0  0  0  0
   -8.6351  -70.9088  -18.9758 C   0  0  0  0  0  0  0  0  0  0  0  0
   -9.1190  -70.5305  -20.5697 S   0  0  0  0  0  0  0  0  0  0  0  0
  1  2  2  0
  2  3  1  0
  3  4  1  0
  4  5  1  0
  4  6  1  0
  6  7  2  0
  6  8  2  0
  6  9  1  0
  9 10  1  0
 10 11  1  6
 10 12  1  0
 12 13  2  0
 13 14  1  0
 14 15  2  0
 15 16  1  0
 16 12  1  0
M  END
>  <fragmenstein_runtime>  (101) 
[2.914698362350464]

>  <original ID>  (101) 
MJOVEFYRMHTGAB-QMMMGPOBSA-N

>  <fragmenstein_error>  (101) 
['']

>  <ref_pdb>  (101) 
d0615a

>  <Multi-SuCOS>  (101) 
0.64164

>  <SLURM_JOB_NAME>  (101) 
BulkDock.place:Flavi_NS5_RdRp:RdRp_knitwork_thumb_site_2_impure_split4000_batch000

>  <HIPPO Compound ID>  (101) 
5555

>  <original SMILES>  (101) 
C=CCN(C)S(=O)(=O)N[C@@H](C)c1nccs1

>  <name>  (101) 
MJOVEFYRMHTGAB-QMMMGPOBSA-N

>  <HIPPO Pose ID>  (101) 
51484

>  <ref_mols>  (101) 
d0174a,d0615a

>  <exports>  (101) 
['/opt/xchem-fragalysis-2/maxwin/BulkDock/OUTPUTS/RdRp_knitwork_thumb_site_2_impure_split4000_batch000_211013.sdf', '/opt/xchem-fragalysis-2/maxwin/BulkDock/OUTPUTS/RdRp_knitwork_thumb_site_2_impure_fragalysis.sdf', '/opt/xchem-fragalysis-2/maxwin/RdRp_FFF/syndirella/Retro_OK_batch1.sdf']

>  <alias>  (101) 
None

>  <inchikey>  (101) 
MJOVEFYRMHTGAB-QMMMGPOBSA-N

>  <energy_score>  (101) 
-140.681179

>  <distance_score>  (101) 
0.839828

>  <fragmenstein_outcome>  (101) 
['acceptable']

>  <merge_set>  (101) 
RdRp_knitwork_thumb_site_2_impure_fragalysis.sdf

>  <scratch_subdir>  (101) 
['/opt/xchem-fragalysis-2/maxwin/BulkDock/SCRATCH/211013/C5555-P50']

>  <SLURM_JOB_ID>  (101) 
211013

>  <tags>  (101) 
['Fragmenstein placed', 'RdRp_knitwork_thumb_site_2_impure_fragalysis.sdf Pose OK']

>  <fragmenstein_mode>  (101) 
['expansion']

>  <csv_name>  (101) 
RdRp_knitwork_thumb_site_2_impure_split4000_batch000.csv

$$$$
LXYBXKRRADMCFP-MRVPVSSYSA-N
     RDKit          3D

 15 15  0  0  0  0  0  0  0  0999 V2000
  -14.1031  -69.1460  -23.6250 C   0  0  0  0  0  0  0  0  0  0  0  0
  -14.7053  -69.9084  -22.7066 C   0  0  0  0  0  0  0  0  0  0  0  0
  -15.1484  -69.4342  -21.3528 C   0  0  0  0  0  0  0  0  0  0  0  0
  -13.8693  -69.6941  -20.1007 S   0  0  0  0  0  0  0  0  0  0  0  0
  -13.0078  -68.5367  -20.0651 O   0  0  0  0  0  0  0  0  0  0  0  0
  -14.5015  -70.1715  -18.8846 O   0  0  0  0  0  0  0  0  0  0  0  0
  -12.9754  -70.9902  -20.6724 N   0  0  0  0  0  0  0  0  0  0  0  0
  -11.6839  -70.6517  -21.3427 C   0  0  2  0  0  0  0  0  0  0  0  0
  -11.5418  -71.5611  -22.5706 C   0  0  0  0  0  0  0  0  0  0  0  0
  -10.6431  -70.9809  -23.6537 C   0  0  0  0  0  0  0  0  0  0  0  0
  -10.5836  -70.9208  -20.3353 C   0  0  0  0  0  0  0  0  0  0  0  0
  -10.7366  -71.6928  -19.2706 N   0  0  0  0  0  0  0  0  0  0  0  0
   -9.5392  -71.7878  -18.5897 C   0  0  0  0  0  0  0  0  0  0  0  0
   -8.4869  -71.0913  -19.1398 C   0  0  0  0  0  0  0  0  0  0  0  0
   -9.0077  -70.2750  -20.5485 S   0  0  0  0  0  0  0  0  0  0  0  0
  1  2  2  0
  2  3  1  0
  3  4  1  0
  4  5  2  0
  4  6  2  0
  4  7  1  0
  7  8  1  0
  8  9  1  6
  9 10  1  0
  8 11  1  0
 11 12  2  0
 12 13  1  0
 13 14  2  0
 14 15  1  0
 15 11  1  0
M  END
>  <fragmenstein_runtime>  (102) 
[1.9662935733795166]

>  <original ID>  (102) 
LXYBXKRRADMCFP-MRVPVSSYSA-N

>  <fragmenstein_error>  (102) 
['']

>  <ref_pdb>  (102) 
d0174a

>  <Multi-SuCOS>  (102) 
0.721475

>  <SLURM_JOB_NAME>  (102) 
BulkDock.place:Flavi_NS5_RdRp:RdRp_knitwork_thumb_site_2_impure_split4000_batch000

>  <HIPPO Compound ID>  (102) 
5561

>  <original SMILES>  (102) 
C=CCS(=O)(=O)N[C@H](CC)c1nccs1

>  <name>  (102) 
LXYBXKRRADMCFP-MRVPVSSYSA-N

>  <HIPPO Pose ID>  (102) 
51487

>  <ref_mols>  (102) 
d0174a,d0615a

>  <exports>  (102) 
['/opt/xchem-fragalysis-2/maxwin/BulkDock/OUTPUTS/RdRp_knitwork_thumb_site_2_impure_split4000_batch000_211013.sdf', '/opt/xchem-fragalysis-2/maxwin/BulkDock/OUTPUTS/RdRp_knitwork_thumb_site_2_impure_fragalysis.sdf', '/opt/xchem-fragalysis-2/maxwin/RdRp_FFF/syndirella/Retro_OK_batch1.sdf']

>  <alias>  (102) 
None

>  <inchikey>  (102) 
LXYBXKRRADMCFP-MRVPVSSYSA-N

>  <energy_score>  (102) 
-72.520975

>  <distance_score>  (102) 
0.760792

>  <fragmenstein_outcome>  (102) 
['acceptable']

>  <merge_set>  (102) 
RdRp_knitwork_thumb_site_2_impure_fragalysis.sdf

>  <scratch_subdir>  (102) 
['/opt/xchem-fragalysis-2/maxwin/BulkDock/SCRATCH/211013/C5561-P17']

>  <SLURM_JOB_ID>  (102) 
211013

>  <tags>  (102) 
['Fragmenstein placed', 'RdRp_knitwork_thumb_site_2_impure_fragalysis.sdf Pose OK']

>  <fragmenstein_mode>  (102) 
['expansion']

>  <csv_name>  (102) 
RdRp_knitwork_thumb_site_2_impure_split4000_batch000.csv

$$$$
YZHIZPSEYPALKB-SECBINFHSA-N
     RDKit          3D

 17 17  0  0  0  0  0  0  0  0999 V2000
  -11.3088  -71.2639  -22.8247 C   0  0  0  0  0  0  0  0  0  0  0  0
  -11.5679  -70.5006  -21.5328 C   0  0  1  0  0  0  0  0  0  0  0  0
  -12.9226  -70.8547  -21.0274 N   0  0  0  0  0  0  0  0  0  0  0  0
  -13.7030  -69.6441  -20.1695 S   0  0  0  0  0  0  0  0  0  0  0  0
  -12.7248  -68.6521  -19.8012 O   0  0  0  0  0  0  0  0  0  0  0  0
  -14.5012  -70.3097  -19.1620 O   0  0  0  0  0  0  0  0  0  0  0  0
  -14.7831  -68.9048  -21.3801 C   0  0  0  0  0  0  0  0  0  0  0  0
  -15.5735  -69.8763  -22.2360 C   0  0  0  0  0  0  0  0  0  0  0  0
  -14.9065  -70.1891  -23.5793 C   0  0  0  0  0  0  0  0  0  0  0  0
  -15.8504  -70.8742  -24.5668 C   0  0  0  0  0  0  0  0  0  0  0  0
  -16.9725  -69.9959  -24.9160 C   0  0  0  0  0  0  0  0  0  0  0  0
  -17.8418  -69.2513  -25.1133 N   0  0  0  0  0  0  0  0  0  0  0  0
  -10.5502  -70.8745  -20.4814 C   0  0  0  0  0  0  0  0  0  0  0  0
  -10.7784  -71.7165  -19.4877 N   0  0  0  0  0  0  0  0  0  0  0  0
   -9.6335  -71.8491  -18.7248 C   0  0  0  0  0  0  0  0  0  0  0  0
   -8.5438  -71.1252  -19.1558 C   0  0  0  0  0  0  0  0  0  0  0  0
   -8.9561  -70.2382  -20.5585 S   0  0  0  0  0  0  0  0  0  0  0  0
  2  1  1  6
  2  3  1  0
  3  4  1  0
  4  5  2  0
  4  6  2  0
  4  7  1  0
  7  8  1  0
  8  9  1  0
  9 10  1  0
 10 11  1  0
 11 12  3  0
  2 13  1  0
 13 14  2  0
 14 15  1  0
 15 16  2  0
 16 17  1  0
 17 13  1  0
M  END
>  <fragmenstein_runtime>  (103) 
[3.2068111896514893]

>  <original ID>  (103) 
YZHIZPSEYPALKB-SECBINFHSA-N

>  <fragmenstein_error>  (103) 
['']

>  <ref_pdb>  (103) 
d0615a

>  <Multi-SuCOS>  (103) 
0.581659

>  <SLURM_JOB_NAME>  (103) 
BulkDock.place:Flavi_NS5_RdRp:RdRp_knitwork_thumb_site_2_impure_split4000_batch000

>  <HIPPO Compound ID>  (103) 
5616

>  <original SMILES>  (103) 
C[C@@H](NS(=O)(=O)CCCCC#N)c1nccs1

>  <name>  (103) 
YZHIZPSEYPALKB-SECBINFHSA-N

>  <HIPPO Pose ID>  (103) 
51494

>  <ref_mols>  (103) 
d0174a,d0615a

>  <exports>  (103) 
['/opt/xchem-fragalysis-2/maxwin/BulkDock/OUTPUTS/RdRp_knitwork_thumb_site_2_impure_split4000_batch000_211013.sdf', '/opt/xchem-fragalysis-2/maxwin/BulkDock/OUTPUTS/RdRp_knitwork_thumb_site_2_impure_fragalysis.sdf', '/opt/xchem-fragalysis-2/maxwin/RdRp_FFF/syndirella/Retro_OK_batch1.sdf']

>  <alias>  (103) 
None

>  <inchikey>  (103) 
YZHIZPSEYPALKB-SECBINFHSA-N

>  <energy_score>  (103) 
-96.599757

>  <distance_score>  (103) 
0.709538

>  <fragmenstein_outcome>  (103) 
['acceptable']

>  <merge_set>  (103) 
RdRp_knitwork_thumb_site_2_impure_fragalysis.sdf

>  <scratch_subdir>  (103) 
['/opt/xchem-fragalysis-2/maxwin/BulkDock/SCRATCH/211013/C5616-P50']

>  <SLURM_JOB_ID>  (103) 
211013

>  <tags>  (103) 
['Fragmenstein placed', 'RdRp_knitwork_thumb_site_2_impure_fragalysis.sdf Pose OK']

>  <fragmenstein_mode>  (103) 
['expansion']

>  <csv_name>  (103) 
RdRp_knitwork_thumb_site_2_impure_split4000_batch000.csv

$$$$
QQPIZLOXKJHKMI-SFYZADRCSA-N
     RDKit          3D

 18 18  0  0  0  0  0  0  0  0999 V2000
  -11.6654  -70.8696  -22.5412 C   0  0  0  0  0  0  0  0  0  0  0  0
  -11.6860  -71.4555  -21.1462 C   0  0  1  0  0  0  0  0  0  0  0  0
  -10.5310  -71.0517  -20.2028 C   0  0  0  0  0  0  0  0  0  0  0  0
   -9.1320  -71.1774  -20.8561 C   0  0  1  0  0  0  0  0  0  0  0  0
   -8.7792  -69.9119  -21.6258 C   0  0  0  0  0  0  0  0  0  0  0  0
   -7.9987  -71.4508  -19.8666 C   0  0  0  0  0  0  0  0  0  0  0  0
   -7.6387  -70.3347  -19.2027 F   0  0  0  0  0  0  0  0  0  0  0  0
   -8.3805  -72.3580  -18.9385 F   0  0  0  0  0  0  0  0  0  0  0  0
  -13.0291  -71.3243  -20.5134 N   0  0  0  0  0  0  0  0  0  0  0  0
  -13.7092  -69.8495  -20.0930 S   0  0  0  0  0  0  0  0  0  0  0  0
  -12.7425  -68.7977  -20.2816 O   0  0  0  0  0  0  0  0  0  0  0  0
  -14.2493  -70.1158  -18.7669 O   0  0  0  0  0  0  0  0  0  0  0  0
  -15.1291  -69.5903  -21.1709 C   0  0  0  0  0  0  0  0  0  0  0  0
  -14.9260  -69.8770  -22.6115 C   0  0  0  0  0  0  0  0  0  0  0  0
  -15.5940  -70.8337  -23.3566 C   0  0  0  0  0  0  0  0  0  0  0  0
  -15.0857  -70.7749  -24.9928 S   0  0  0  0  0  0  0  0  0  0  0  0
  -14.0031  -69.5138  -24.5890 C   0  0  0  0  0  0  0  0  0  0  0  0
  -14.0525  -69.0962  -23.3433 N   0  0  0  0  0  0  0  0  0  0  0  0
  2  1  1  6
  2  3  1  0
  3  4  1  0
  4  5  1  1
  4  6  1  0
  6  7  1  0
  6  8  1  0
  2  9  1  0
  9 10  1  0
 10 11  2  0
 10 12  2  0
 10 13  1  0
 13 14  1  0
 14 15  2  0
 15 16  1  0
 16 17  1  0
 17 18  2  0
 18 14  1  0
M  END
>  <fragmenstein_runtime>  (104) 
[1.9371957778930664]

>  <original ID>  (104) 
QQPIZLOXKJHKMI-SFYZADRCSA-N

>  <fragmenstein_error>  (104) 
['']

>  <ref_pdb>  (104) 
d0615a

>  <Multi-SuCOS>  (104) 
0.621466

>  <SLURM_JOB_NAME>  (104) 
BulkDock.place:Flavi_NS5_RdRp:RdRp_knitwork_thumb_site_2_impure_split4000_batch000

>  <HIPPO Compound ID>  (104) 
5663

>  <original SMILES>  (104) 
C[C@H](C[C@H](C)NS(=O)(=O)Cc1cscn1)C(F)F

>  <name>  (104) 
QQPIZLOXKJHKMI-SFYZADRCSA-N

>  <HIPPO Pose ID>  (104) 
51513

>  <ref_mols>  (104) 
d0174a,d0615a

>  <exports>  (104) 
['/opt/xchem-fragalysis-2/maxwin/BulkDock/OUTPUTS/RdRp_knitwork_thumb_site_2_impure_split4000_batch000_211013.sdf', '/opt/xchem-fragalysis-2/maxwin/BulkDock/OUTPUTS/RdRp_knitwork_thumb_site_2_impure_fragalysis.sdf', '/opt/xchem-fragalysis-2/maxwin/RdRp_FFF/syndirella/Retro_OK_batch1.sdf']

>  <alias>  (104) 
None

>  <inchikey>  (104) 
QQPIZLOXKJHKMI-SFYZADRCSA-N

>  <energy_score>  (104) 
-95.967835

>  <distance_score>  (104) 
0.987583

>  <fragmenstein_outcome>  (104) 
['acceptable']

>  <merge_set>  (104) 
RdRp_knitwork_thumb_site_2_impure_fragalysis.sdf

>  <scratch_subdir>  (104) 
['/opt/xchem-fragalysis-2/maxwin/BulkDock/SCRATCH/211013/C5663-P50']

>  <SLURM_JOB_ID>  (104) 
211013

>  <tags>  (104) 
['Fragmenstein placed', 'RdRp_knitwork_thumb_site_2_impure_fragalysis.sdf Pose OK']

>  <fragmenstein_mode>  (104) 
['expansion']

>  <csv_name>  (104) 
RdRp_knitwork_thumb_site_2_impure_split4000_batch000.csv

$$$$
AJQQGJNKKDEODG-UHFFFAOYSA-N
     RDKit          3D

 11 12  0  0  0  0  0  0  0  0999 V2000
  -15.3054  -44.7297  -21.1642 C   0  0  0  0  0  0  0  0  0  0  0  0
  -14.5560  -43.6147  -21.5105 C   0  0  0  0  0  0  0  0  0  0  0  0
  -13.7686  -43.0043  -20.5330 C   0  0  0  0  0  0  0  0  0  0  0  0
  -13.0322  -41.7773  -20.8209 C   0  0  0  0  0  0  0  0  0  0  0  0
  -13.3224  -40.7019  -21.6423 C   0  0  0  0  0  0  0  0  0  0  0  0
  -12.3431  -39.7413  -21.5814 N   0  0  0  0  0  0  0  0  0  0  0  0
  -11.4766  -40.1978  -20.7086 C   0  0  0  0  0  0  0  0  0  0  0  0
  -11.8175  -41.4437  -20.2632 N   0  0  0  0  0  0  0  0  0  0  0  0
  -13.7697  -43.5516  -19.2490 C   0  0  0  0  0  0  0  0  0  0  0  0
  -14.5574  -44.6652  -18.9993 C   0  0  0  0  0  0  0  0  0  0  0  0
  -15.3133  -45.2828  -19.9305 N   0  0  0  0  0  0  0  0  0  0  0  0
  1  2  2  0
  2  3  1  0
  3  4  1  0
  4  5  2  0
  5  6  1  0
  6  7  2  0
  7  8  1  0
  3  9  2  0
  9 10  1  0
 10 11  2  0
 11  1  1  0
  8  4  1  0
M  END
>  <fragmenstein_runtime>  (105) 
[2.5739381313323975]

>  <original ID>  (105) 
AJQQGJNKKDEODG-UHFFFAOYSA-N

>  <fragmenstein_error>  (105) 
['']

>  <ref_pdb>  (105) 
d0472a

>  <Multi-SuCOS>  (105) 
0.665845

>  <SLURM_JOB_NAME>  (105) 
BulkDock.place:Flavi_NS5_RdRp:RdRp_knitwork_primer_grip_n_pocket_impure_split4000_batch004

>  <HIPPO Compound ID>  (105) 
8715

>  <original SMILES>  (105) 
c1cc(-c2cnc[nH]2)ccn1

>  <name>  (105) 
AJQQGJNKKDEODG-UHFFFAOYSA-N

>  <HIPPO Pose ID>  (105) 
51564

>  <ref_mols>  (105) 
d0472a,z0875c

>  <exports>  (105) 
['/opt/xchem-fragalysis-2/maxwin/BulkDock/OUTPUTS/RdRp_knitwork_primer_grip_n_pocket_impure_split4000_batch004_211036.sdf', '/opt/xchem-fragalysis-2/maxwin/BulkDock/OUTPUTS/RdRp_knitwork_primer_grip_n_pocket_impure_fragalysis.sdf', '/opt/xchem-fragalysis-2/maxwin/RdRp_FFF/syndirella/Retro_OK_batch1.sdf']

>  <alias>  (105) 
None

>  <inchikey>  (105) 
AJQQGJNKKDEODG-UHFFFAOYSA-N

>  <energy_score>  (105) 
-11.85689

>  <distance_score>  (105) 
0.859558

>  <fragmenstein_outcome>  (105) 
['acceptable']

>  <merge_set>  (105) 
RdRp_knitwork_primer_grip_n_pocket_impure_fragalysis.sdf

>  <scratch_subdir>  (105) 
['/opt/xchem-fragalysis-2/maxwin/BulkDock/SCRATCH/211036/C8715-P42']

>  <SLURM_JOB_ID>  (105) 
211036

>  <tags>  (105) 
['Fragmenstein placed', 'RdRp_knitwork_primer_grip_n_pocket_impure_fragalysis.sdf Pose OK']

>  <fragmenstein_mode>  (105) 
['expansion']

>  <csv_name>  (105) 
RdRp_knitwork_primer_grip_n_pocket_impure_split4000_batch004.csv

$$$$
CRCWHWXTZMWLKL-SECBINFHSA-N
     RDKit          3D

 15 15  0  0  0  0  0  0  0  0999 V2000
   -9.6307  -71.3586  -19.2187 C   0  0  0  0  0  0  0  0  0  0  0  0
  -10.3498  -70.7325  -20.1621 C   0  0  0  0  0  0  0  0  0  0  0  0
  -11.4727  -71.3200  -20.9917 C   0  0  2  0  0  0  0  0  0  0  0  0
  -11.3106  -72.8454  -21.2035 C   0  0  0  0  0  0  0  0  0  0  0  0
  -11.6031  -70.6406  -22.3757 C   0  0  0  0  0  0  0  0  0  0  0  0
  -10.3678  -70.7738  -23.2639 C   0  0  0  0  0  0  0  0  0  0  0  0
  -12.6591  -71.1839  -20.1269 N   0  0  0  0  0  0  0  0  0  0  0  0
  -13.7213  -69.9024  -20.1419 S   0  0  0  0  0  0  0  0  0  0  0  0
  -14.5453  -70.0636  -18.9602 O   0  0  0  0  0  0  0  0  0  0  0  0
  -13.0207  -68.6707  -20.4092 O   0  0  0  0  0  0  0  0  0  0  0  0
  -14.8049  -70.1379  -21.4877 C   0  0  0  0  0  0  0  0  0  0  0  0
  -15.3179  -69.1183  -22.2629 C   0  0  0  0  0  0  0  0  0  0  0  0
  -16.2858  -69.7842  -23.5167 S   0  0  0  0  0  0  0  0  0  0  0  0
  -15.9035  -71.3546  -22.9639 C   0  0  0  0  0  0  0  0  0  0  0  0
  -15.1418  -71.4302  -21.9002 N   0  0  0  0  0  0  0  0  0  0  0  0
  1  2  2  0
  2  3  1  0
  3  4  1  6
  3  5  1  0
  5  6  1  0
  3  7  1  0
  7  8  1  0
  8  9  2  0
  8 10  2  0
  8 11  1  0
 11 12  2  0
 12 13  1  0
 13 14  1  0
 14 15  2  0
 15 11  1  0
M  END
>  <fragmenstein_runtime>  (106) 
[2.268122673034668]

>  <original ID>  (106) 
CRCWHWXTZMWLKL-SECBINFHSA-N

>  <fragmenstein_error>  (106) 
['']

>  <ref_pdb>  (106) 
d0615a

>  <Multi-SuCOS>  (106) 
0.586004

>  <SLURM_JOB_NAME>  (106) 
BulkDock.place:Flavi_NS5_RdRp:RdRp_knitwork_thumb_site_2_impure_split4000_batch000

>  <HIPPO Compound ID>  (106) 
5850

>  <original SMILES>  (106) 
C=C[C@](C)(CC)NS(=O)(=O)c1cscn1

>  <name>  (106) 
CRCWHWXTZMWLKL-SECBINFHSA-N

>  <HIPPO Pose ID>  (106) 
51647

>  <ref_mols>  (106) 
d0174a,d0615a

>  <exports>  (106) 
['/opt/xchem-fragalysis-2/maxwin/BulkDock/OUTPUTS/RdRp_knitwork_thumb_site_2_impure_split4000_batch000_211013.sdf', '/opt/xchem-fragalysis-2/maxwin/BulkDock/OUTPUTS/RdRp_knitwork_thumb_site_2_impure_fragalysis.sdf', '/opt/xchem-fragalysis-2/maxwin/RdRp_FFF/syndirella/Retro_OK_batch1.sdf']

>  <alias>  (106) 
None

>  <inchikey>  (106) 
CRCWHWXTZMWLKL-SECBINFHSA-N

>  <energy_score>  (106) 
-118.490302

>  <distance_score>  (106) 
0.844501

>  <fragmenstein_outcome>  (106) 
['acceptable']

>  <merge_set>  (106) 
RdRp_knitwork_thumb_site_2_impure_fragalysis.sdf

>  <scratch_subdir>  (106) 
['/opt/xchem-fragalysis-2/maxwin/BulkDock/SCRATCH/211013/C5850-P50']

>  <SLURM_JOB_ID>  (106) 
211013

>  <tags>  (106) 
['Fragmenstein placed', 'RdRp_knitwork_thumb_site_2_impure_fragalysis.sdf Pose OK']

>  <fragmenstein_mode>  (106) 
['expansion']

>  <csv_name>  (106) 
RdRp_knitwork_thumb_site_2_impure_split4000_batch000.csv

$$$$
MAVCNBRDNQKOQG-SFYZADRCSA-N
     RDKit          3D

 18 18  0  0  0  0  0  0  0  0999 V2000
  -11.5761  -70.3421  -22.6155 C   0  0  0  0  0  0  0  0  0  0  0  0
  -11.6951  -71.2256  -21.3894 C   0  0  2  0  0  0  0  0  0  0  0  0
  -13.0402  -71.1904  -20.7529 N   0  0  0  0  0  0  0  0  0  0  0  0
  -13.7324  -69.7429  -20.2884 S   0  0  0  0  0  0  0  0  0  0  0  0
  -12.6844  -68.7782  -20.0700 O   0  0  0  0  0  0  0  0  0  0  0  0
  -14.6388  -70.0986  -19.2143 O   0  0  0  0  0  0  0  0  0  0  0  0
  -14.6929  -69.2240  -21.7161 C   0  0  0  0  0  0  0  0  0  0  0  0
  -15.0924  -70.3408  -22.6883 C   0  0  1  0  0  0  0  0  0  0  0  0
  -16.2923  -71.1113  -22.1712 C   0  0  0  0  0  0  0  0  0  0  0  0
  -15.3687  -69.7557  -24.0601 C   0  0  0  0  0  0  0  0  0  0  0  0
  -15.6171  -70.7579  -25.1596 C   0  0  0  0  0  0  0  0  0  0  0  0
  -14.2818  -69.0301  -24.4256 F   0  0  0  0  0  0  0  0  0  0  0  0
  -16.4333  -68.9193  -23.9914 F   0  0  0  0  0  0  0  0  0  0  0  0
  -10.6271  -71.1104  -20.3241 C   0  0  0  0  0  0  0  0  0  0  0  0
  -10.7879  -71.5931  -19.1018 N   0  0  0  0  0  0  0  0  0  0  0  0
   -9.6015  -71.5010  -18.4026 C   0  0  0  0  0  0  0  0  0  0  0  0
   -8.5425  -70.9654  -19.0992 C   0  0  0  0  0  0  0  0  0  0  0  0
   -9.0481  -70.5242  -20.6705 S   0  0  0  0  0  0  0  0  0  0  0  0
  2  1  1  6
  2  3  1  0
  3  4  1  0
  4  5  2  0
  4  6  2  0
  4  7  1  0
  7  8  1  0
  8  9  1  1
  8 10  1  0
 10 11  1  0
 10 12  1  0
 10 13  1  0
  2 14  1  0
 14 15  2  0
 15 16  1  0
 16 17  2  0
 17 18  1  0
 18 14  1  0
M  END
>  <fragmenstein_runtime>  (107) 
[2.5174944400787354]

>  <original ID>  (107) 
MAVCNBRDNQKOQG-SFYZADRCSA-N

>  <fragmenstein_error>  (107) 
['']

>  <ref_pdb>  (107) 
d0174a

>  <Multi-SuCOS>  (107) 
0.647936

>  <SLURM_JOB_NAME>  (107) 
BulkDock.place:Flavi_NS5_RdRp:RdRp_knitwork_thumb_site_2_impure_split4000_batch000

>  <HIPPO Compound ID>  (107) 
5927

>  <original SMILES>  (107) 
C[C@H](NS(=O)(=O)C[C@@H](C)C(C)(F)F)c1nccs1

>  <name>  (107) 
MAVCNBRDNQKOQG-SFYZADRCSA-N

>  <HIPPO Pose ID>  (107) 
51648

>  <ref_mols>  (107) 
d0174a,d0615a

>  <exports>  (107) 
['/opt/xchem-fragalysis-2/maxwin/BulkDock/OUTPUTS/RdRp_knitwork_thumb_site_2_impure_split4000_batch000_211013.sdf', '/opt/xchem-fragalysis-2/maxwin/BulkDock/OUTPUTS/RdRp_knitwork_thumb_site_2_impure_fragalysis.sdf', '/opt/xchem-fragalysis-2/maxwin/RdRp_FFF/syndirella/Retro_OK_batch1.sdf']

>  <alias>  (107) 
None

>  <inchikey>  (107) 
MAVCNBRDNQKOQG-SFYZADRCSA-N

>  <energy_score>  (107) 
-90.708089

>  <distance_score>  (107) 
0.592396

>  <fragmenstein_outcome>  (107) 
['acceptable']

>  <merge_set>  (107) 
RdRp_knitwork_thumb_site_2_impure_fragalysis.sdf

>  <scratch_subdir>  (107) 
['/opt/xchem-fragalysis-2/maxwin/BulkDock/SCRATCH/211013/C5927-P17']

>  <SLURM_JOB_ID>  (107) 
211013

>  <tags>  (107) 
['Fragmenstein placed', 'RdRp_knitwork_thumb_site_2_impure_fragalysis.sdf Pose OK']

>  <fragmenstein_mode>  (107) 
['expansion']

>  <csv_name>  (107) 
RdRp_knitwork_thumb_site_2_impure_split4000_batch000.csv

$$$$
ZXADTZPZTLKOGO-RXMQYKEDSA-N
     RDKit          3D

 13 13  0  0  0  0  0  0  0  0999 V2000
  -11.5185  -71.4613  -22.6352 C   0  0  0  0  0  0  0  0  0  0  0  0
  -11.6968  -70.5835  -21.3994 C   0  0  1  0  0  0  0  0  0  0  0  0
  -12.9950  -70.9273  -20.7922 N   0  0  0  0  0  0  0  0  0  0  0  0
  -13.8869  -69.6915  -20.1130 S   0  0  0  0  0  0  0  0  0  0  0  0
  -13.0676  -68.5075  -20.0637 O   0  0  0  0  0  0  0  0  0  0  0  0
  -14.4438  -70.2505  -18.8948 O   0  0  0  0  0  0  0  0  0  0  0  0
  -15.2237  -69.4298  -21.2695 C   0  0  0  0  0  0  0  0  0  0  0  0
  -14.7229  -69.4415  -23.1386 Br  0  0  0  0  0  0  0  0  0  0  0  0
  -10.5912  -70.7952  -20.4016 C   0  0  0  0  0  0  0  0  0  0  0  0
  -10.6110  -71.2477  -19.0919 C   0  0  0  0  0  0  0  0  0  0  0  0
   -9.3852  -71.3672  -18.4623 N   0  0  0  0  0  0  0  0  0  0  0  0
   -8.4426  -70.9729  -19.2886 C   0  0  0  0  0  0  0  0  0  0  0  0
   -8.9608  -70.4345  -20.8260 S   0  0  0  0  0  0  0  0  0  0  0  0
  2  1  1  6
  2  3  1  0
  3  4  1  0
  4  5  2  0
  4  6  2  0
  4  7  1  0
  7  8  1  0
  2  9  1  0
  9 10  2  0
 10 11  1  0
 11 12  2  0
 12 13  1  0
 13  9  1  0
M  END
>  <fragmenstein_runtime>  (108) 
[1.3281049728393555]

>  <original ID>  (108) 
ZXADTZPZTLKOGO-RXMQYKEDSA-N

>  <fragmenstein_error>  (108) 
['']

>  <ref_pdb>  (108) 
d0174a

>  <Multi-SuCOS>  (108) 
0.816238

>  <SLURM_JOB_NAME>  (108) 
BulkDock.place:Flavi_NS5_RdRp:RdRp_knitwork_thumb_site_2_impure_split4000_batch000

>  <HIPPO Compound ID>  (108) 
6140

>  <original SMILES>  (108) 
C[C@@H](NS(=O)(=O)CBr)c1cncs1

>  <name>  (108) 
ZXADTZPZTLKOGO-RXMQYKEDSA-N

>  <HIPPO Pose ID>  (108) 
51694

>  <ref_mols>  (108) 
d0174a,d0615a

>  <exports>  (108) 
['/opt/xchem-fragalysis-2/maxwin/BulkDock/OUTPUTS/RdRp_knitwork_thumb_site_2_impure_split4000_batch000_211013.sdf', '/opt/xchem-fragalysis-2/maxwin/BulkDock/OUTPUTS/RdRp_knitwork_thumb_site_2_impure_fragalysis.sdf', '/opt/xchem-fragalysis-2/maxwin/RdRp_FFF/syndirella/Retro_OK_batch1.sdf']

>  <alias>  (108) 
None

>  <inchikey>  (108) 
ZXADTZPZTLKOGO-RXMQYKEDSA-N

>  <energy_score>  (108) 
-102.955901

>  <distance_score>  (108) 
0.829493

>  <fragmenstein_outcome>  (108) 
['acceptable']

>  <merge_set>  (108) 
RdRp_knitwork_thumb_site_2_impure_fragalysis.sdf

>  <scratch_subdir>  (108) 
['/opt/xchem-fragalysis-2/maxwin/BulkDock/SCRATCH/211013/C6140-P17']

>  <SLURM_JOB_ID>  (108) 
211013

>  <tags>  (108) 
['Fragmenstein placed', 'RdRp_knitwork_thumb_site_2_impure_fragalysis.sdf Pose OK']

>  <fragmenstein_mode>  (108) 
['expansion']

>  <csv_name>  (108) 
RdRp_knitwork_thumb_site_2_impure_split4000_batch000.csv

$$$$
ZXADTZPZTLKOGO-RXMQYKEDSA-N
     RDKit          3D

 13 13  0  0  0  0  0  0  0  0999 V2000
  -11.5355  -71.3381  -22.6605 C   0  0  0  0  0  0  0  0  0  0  0  0
  -11.7291  -70.5155  -21.3886 C   0  0  1  0  0  0  0  0  0  0  0  0
  -13.0118  -70.9264  -20.7892 N   0  0  0  0  0  0  0  0  0  0  0  0
  -13.9458  -69.7460  -20.0610 S   0  0  0  0  0  0  0  0  0  0  0  0
  -13.1993  -68.5137  -20.0425 O   0  0  0  0  0  0  0  0  0  0  0  0
  -14.4058  -70.3462  -18.8228 O   0  0  0  0  0  0  0  0  0  0  0  0
  -15.3454  -69.5716  -21.1643 C   0  0  0  0  0  0  0  0  0  0  0  0
  -14.8852  -69.4307  -23.0421 Br  0  0  0  0  0  0  0  0  0  0  0  0
  -10.6100  -70.7305  -20.4046 C   0  0  0  0  0  0  0  0  0  0  0  0
  -10.6156  -71.1884  -19.0962 C   0  0  0  0  0  0  0  0  0  0  0  0
   -9.3833  -71.3124  -18.4805 N   0  0  0  0  0  0  0  0  0  0  0  0
   -8.4495  -70.9078  -19.3112 C   0  0  0  0  0  0  0  0  0  0  0  0
   -8.9834  -70.3607  -20.8402 S   0  0  0  0  0  0  0  0  0  0  0  0
  2  1  1  6
  2  3  1  0
  3  4  1  0
  4  5  2  0
  4  6  2  0
  4  7  1  0
  7  8  1  0
  2  9  1  0
  9 10  2  0
 10 11  1  0
 11 12  2  0
 12 13  1  0
 13  9  1  0
M  END
>  <fragmenstein_runtime>  (109) 
[1.6417837142944336]

>  <original ID>  (109) 
ZXADTZPZTLKOGO-RXMQYKEDSA-N

>  <fragmenstein_error>  (109) 
['']

>  <ref_pdb>  (109) 
d0615a

>  <Multi-SuCOS>  (109) 
0.787659

>  <SLURM_JOB_NAME>  (109) 
BulkDock.place:Flavi_NS5_RdRp:RdRp_knitwork_thumb_site_2_impure_split4000_batch000

>  <HIPPO Compound ID>  (109) 
6140

>  <original SMILES>  (109) 
C[C@@H](NS(=O)(=O)CBr)c1cncs1

>  <name>  (109) 
ZXADTZPZTLKOGO-RXMQYKEDSA-N

>  <HIPPO Pose ID>  (109) 
51698

>  <ref_mols>  (109) 
d0174a,d0615a

>  <exports>  (109) 
['/opt/xchem-fragalysis-2/maxwin/BulkDock/OUTPUTS/RdRp_knitwork_thumb_site_2_impure_split4000_batch000_211013.sdf', '/opt/xchem-fragalysis-2/maxwin/BulkDock/OUTPUTS/RdRp_knitwork_thumb_site_2_impure_fragalysis.sdf', '/opt/xchem-fragalysis-2/maxwin/RdRp_FFF/syndirella/Retro_OK_batch1.sdf']

>  <alias>  (109) 
None

>  <inchikey>  (109) 
ZXADTZPZTLKOGO-RXMQYKEDSA-N

>  <energy_score>  (109) 
-103.151485

>  <distance_score>  (109) 
0.814325

>  <fragmenstein_outcome>  (109) 
['acceptable']

>  <merge_set>  (109) 
RdRp_knitwork_thumb_site_2_impure_fragalysis.sdf

>  <scratch_subdir>  (109) 
['/opt/xchem-fragalysis-2/maxwin/BulkDock/SCRATCH/211013/C6140-P50']

>  <SLURM_JOB_ID>  (109) 
211013

>  <tags>  (109) 
['Fragmenstein placed', 'RdRp_knitwork_thumb_site_2_impure_fragalysis.sdf Pose OK']

>  <fragmenstein_mode>  (109) 
['expansion']

>  <csv_name>  (109) 
RdRp_knitwork_thumb_site_2_impure_split4000_batch000.csv

$$$$
VSIMLMGGLHKOHQ-UWVGGRQHSA-N
     RDKit          3D

 14 14  0  0  0  0  0  0  0  0999 V2000
  -15.1835  -68.6895  -22.1093 C   0  0  0  0  0  0  0  0  0  0  0  0
  -14.6393  -69.4570  -20.9236 C   0  0  0  0  0  0  0  0  0  0  0  0
  -13.2645  -69.7201  -21.1152 O   0  0  0  0  0  0  0  0  0  0  0  0
  -12.8387  -71.0518  -21.4226 C   0  0  1  0  0  0  0  0  0  0  0  0
  -13.4520  -71.7346  -22.6936 C   0  0  0  0  0  0  0  0  0  0  0  0
  -13.2677  -70.9634  -24.0025 C   0  0  0  0  0  0  0  0  0  0  0  0
  -14.8976  -72.1884  -22.5089 C   0  0  0  0  0  0  0  0  0  0  0  0
  -11.2919  -71.0168  -21.6048 C   0  0  1  0  0  0  0  0  0  0  0  0
  -10.8907  -69.9704  -22.4909 O   0  0  0  0  0  0  0  0  0  0  0  0
  -10.4697  -70.9074  -20.3567 C   0  0  0  0  0  0  0  0  0  0  0  0
  -10.8117  -70.8248  -19.0216 C   0  0  0  0  0  0  0  0  0  0  0  0
   -9.7624  -70.9060  -18.1193 N   0  0  0  0  0  0  0  0  0  0  0  0
   -8.6307  -70.9846  -18.7829 C   0  0  0  0  0  0  0  0  0  0  0  0
   -8.7499  -70.9826  -20.4852 S   0  0  0  0  0  0  0  0  0  0  0  0
  1  2  1  0
  2  3  1  0
  4  3  1  6
  4  5  1  0
  5  6  1  0
  5  7  1  0
  4  8  1  0
  8  9  1  6
  8 10  1  0
 10 11  2  0
 11 12  1  0
 12 13  2  0
 13 14  1  0
 14 10  1  0
M  END
>  <fragmenstein_runtime>  (110) 
[1.3822858333587646]

>  <original ID>  (110) 
VSIMLMGGLHKOHQ-UWVGGRQHSA-N

>  <fragmenstein_error>  (110) 
['']

>  <ref_pdb>  (110) 
d0615a

>  <Multi-SuCOS>  (110) 
0.46372

>  <SLURM_JOB_NAME>  (110) 
BulkDock.place:Flavi_NS5_RdRp:RdRp_knitwork_thumb_site_2_impure_split4000_batch000

>  <HIPPO Compound ID>  (110) 
6219

>  <original SMILES>  (110) 
CCO[C@@H](C(C)C)[C@@H](O)c1cncs1

>  <name>  (110) 
VSIMLMGGLHKOHQ-UWVGGRQHSA-N

>  <HIPPO Pose ID>  (110) 
51710

>  <ref_mols>  (110) 
d0174a,d0615a

>  <exports>  (110) 
['/opt/xchem-fragalysis-2/maxwin/BulkDock/OUTPUTS/RdRp_knitwork_thumb_site_2_impure_split4000_batch000_211013.sdf', '/opt/xchem-fragalysis-2/maxwin/BulkDock/OUTPUTS/RdRp_knitwork_thumb_site_2_impure_fragalysis.sdf', '/opt/xchem-fragalysis-2/maxwin/RdRp_FFF/syndirella/Retro_OK_batch1.sdf']

>  <alias>  (110) 
None

>  <inchikey>  (110) 
VSIMLMGGLHKOHQ-UWVGGRQHSA-N

>  <energy_score>  (110) 
-48.730295

>  <distance_score>  (110) 
0.914639

>  <fragmenstein_outcome>  (110) 
['acceptable']

>  <merge_set>  (110) 
RdRp_knitwork_thumb_site_2_impure_fragalysis.sdf

>  <scratch_subdir>  (110) 
['/opt/xchem-fragalysis-2/maxwin/BulkDock/SCRATCH/211013/C6219-P50']

>  <SLURM_JOB_ID>  (110) 
211013

>  <tags>  (110) 
['Fragmenstein placed', 'RdRp_knitwork_thumb_site_2_impure_fragalysis.sdf Pose OK']

>  <fragmenstein_mode>  (110) 
['expansion']

>  <csv_name>  (110) 
RdRp_knitwork_thumb_site_2_impure_split4000_batch000.csv

$$$$
BXUSHCNUMJPCGE-SECBINFHSA-N
     RDKit          3D

 15 15  0  0  0  0  0  0  0  0999 V2000
  -16.0541  -69.9136  -23.6866 C   0  0  0  0  0  0  0  0  0  0  0  0
  -14.9093  -69.5344  -22.7587 C   0  0  0  0  0  0  0  0  0  0  0  0
  -15.2317  -69.9331  -21.3280 C   0  0  0  0  0  0  0  0  0  0  0  0
  -13.8425  -69.8321  -20.2131 S   0  0  0  0  0  0  0  0  0  0  0  0
  -13.2275  -68.5354  -20.3368 O   0  0  0  0  0  0  0  0  0  0  0  0
  -14.2716  -70.3375  -18.9227 O   0  0  0  0  0  0  0  0  0  0  0  0
  -12.8277  -70.9997  -20.8466 N   0  0  0  0  0  0  0  0  0  0  0  0
  -11.4974  -70.6083  -21.3499 C   0  0  2  0  0  0  0  0  0  0  0  0
  -11.2951  -71.3331  -22.6823 C   0  0  0  0  0  0  0  0  0  0  0  0
  -10.3551  -70.8886  -20.3934 C   0  0  0  0  0  0  0  0  0  0  0  0
  -10.5120  -71.4921  -19.1394 C   0  0  0  0  0  0  0  0  0  0  0  0
   -9.3981  -71.7559  -18.3430 C   0  0  0  0  0  0  0  0  0  0  0  0
   -8.1502  -71.3947  -18.8164 C   0  0  0  0  0  0  0  0  0  0  0  0
   -7.9534  -70.7796  -19.9980 N   0  0  0  0  0  0  0  0  0  0  0  0
   -9.0516  -70.5358  -20.7498 C   0  0  0  0  0  0  0  0  0  0  0  0
  1  2  1  0
  2  3  1  0
  3  4  1  0
  4  5  2  0
  4  6  2  0
  4  7  1  0
  7  8  1  0
  8  9  1  6
  8 10  1  0
 10 11  2  0
 11 12  1  0
 12 13  2  0
 13 14  1  0
 14 15  2  0
 15 10  1  0
M  END
>  <fragmenstein_runtime>  (111) 
[1.8789036273956299]

>  <original ID>  (111) 
BXUSHCNUMJPCGE-SECBINFHSA-N

>  <fragmenstein_error>  (111) 
['']

>  <ref_pdb>  (111) 
d0174a

>  <Multi-SuCOS>  (111) 
0.781744

>  <SLURM_JOB_NAME>  (111) 
BulkDock.place:Flavi_NS5_RdRp:RdRp_knitwork_thumb_site_2_impure_split4000_batch000

>  <HIPPO Compound ID>  (111) 
6353

>  <original SMILES>  (111) 
CCCS(=O)(=O)N[C@H](C)c1cccnc1

>  <name>  (111) 
BXUSHCNUMJPCGE-SECBINFHSA-N

>  <HIPPO Pose ID>  (111) 
51745

>  <ref_mols>  (111) 
d0174a,d0615a

>  <exports>  (111) 
['/opt/xchem-fragalysis-2/maxwin/BulkDock/OUTPUTS/RdRp_knitwork_thumb_site_2_impure_split4000_batch000_211013.sdf', '/opt/xchem-fragalysis-2/maxwin/BulkDock/OUTPUTS/RdRp_knitwork_thumb_site_2_impure_fragalysis.sdf', '/opt/xchem-fragalysis-2/maxwin/RdRp_FFF/syndirella/Retro_OK_batch1.sdf']

>  <alias>  (111) 
None

>  <inchikey>  (111) 
BXUSHCNUMJPCGE-SECBINFHSA-N

>  <energy_score>  (111) 
-47.327946

>  <distance_score>  (111) 
0.875711

>  <fragmenstein_outcome>  (111) 
['acceptable']

>  <merge_set>  (111) 
RdRp_knitwork_thumb_site_2_impure_fragalysis.sdf

>  <scratch_subdir>  (111) 
['/opt/xchem-fragalysis-2/maxwin/BulkDock/SCRATCH/211013/C6353-P17']

>  <SLURM_JOB_ID>  (111) 
211013

>  <tags>  (111) 
['Fragmenstein placed', 'RdRp_knitwork_thumb_site_2_impure_fragalysis.sdf Pose OK']

>  <fragmenstein_mode>  (111) 
['expansion']

>  <csv_name>  (111) 
RdRp_knitwork_thumb_site_2_impure_split4000_batch000.csv

$$$$
ZTVBGTNBYSEBPC-UHFFFAOYSA-N
     RDKit          3D

 14 14  0  0  0  0  0  0  0  0999 V2000
  -13.8543  -71.4932  -23.5703 C   0  0  0  0  0  0  0  0  0  0  0  0
  -14.5289  -70.1856  -23.1826 C   0  0  0  0  0  0  0  0  0  0  0  0
  -15.0283  -70.1889  -21.7364 C   0  0  0  0  0  0  0  0  0  0  0  0
  -14.0819  -69.5174  -20.7493 C   0  0  0  0  0  0  0  0  0  0  0  0
  -12.9452  -70.3115  -20.2984 N   0  0  0  0  0  0  0  0  0  0  0  0
  -13.2505  -71.1162  -19.1886 O   0  0  0  0  0  0  0  0  0  0  0  0
  -11.6967  -70.2805  -20.8950 C   0  0  0  0  0  0  0  0  0  0  0  0
  -11.5243  -69.7033  -21.9708 O   0  0  0  0  0  0  0  0  0  0  0  0
  -10.5517  -71.0484  -20.2938 C   0  0  0  0  0  0  0  0  0  0  0  0
  -10.4035  -71.1544  -18.9110 C   0  0  0  0  0  0  0  0  0  0  0  0
   -9.2275  -71.6945  -18.3935 C   0  0  0  0  0  0  0  0  0  0  0  0
   -8.2148  -72.0726  -19.2637 C   0  0  0  0  0  0  0  0  0  0  0  0
   -8.4272  -71.9108  -20.6221 C   0  0  0  0  0  0  0  0  0  0  0  0
   -9.5673  -71.4184  -21.1529 N   0  0  0  0  0  0  0  0  0  0  0  0
  1  2  1  0
  2  3  1  0
  3  4  1  0
  4  5  1  0
  5  6  1  0
  5  7  1  0
  7  8  2  0
  7  9  1  0
  9 10  2  0
 10 11  1  0
 11 12  2  0
 12 13  1  0
 13 14  2  0
 14  9  1  0
M  END
>  <fragmenstein_runtime>  (112) 
[1.9348533153533936]

>  <original ID>  (112) 
ZTVBGTNBYSEBPC-UHFFFAOYSA-N

>  <fragmenstein_error>  (112) 
['']

>  <ref_pdb>  (112) 
d0174a

>  <Multi-SuCOS>  (112) 
0.511203

>  <SLURM_JOB_NAME>  (112) 
BulkDock.place:Flavi_NS5_RdRp:RdRp_knitwork_thumb_site_2_impure_split4000_batch000

>  <HIPPO Compound ID>  (112) 
6445

>  <original SMILES>  (112) 
CCCCN(O)C(=O)c1ccccn1

>  <name>  (112) 
ZTVBGTNBYSEBPC-UHFFFAOYSA-N

>  <HIPPO Pose ID>  (112) 
51754

>  <ref_mols>  (112) 
d0174a,d0615a

>  <exports>  (112) 
['/opt/xchem-fragalysis-2/maxwin/BulkDock/OUTPUTS/RdRp_knitwork_thumb_site_2_impure_split4000_batch000_211013.sdf', '/opt/xchem-fragalysis-2/maxwin/BulkDock/OUTPUTS/RdRp_knitwork_thumb_site_2_impure_fragalysis.sdf', '/opt/xchem-fragalysis-2/maxwin/RdRp_FFF/syndirella/Retro_OK_batch1.sdf']

>  <alias>  (112) 
None

>  <inchikey>  (112) 
ZTVBGTNBYSEBPC-UHFFFAOYSA-N

>  <energy_score>  (112) 
-25.193297

>  <distance_score>  (112) 
0.910864

>  <fragmenstein_outcome>  (112) 
['acceptable']

>  <merge_set>  (112) 
RdRp_knitwork_thumb_site_2_impure_fragalysis.sdf

>  <scratch_subdir>  (112) 
['/opt/xchem-fragalysis-2/maxwin/BulkDock/SCRATCH/211013/C6445-P17']

>  <SLURM_JOB_ID>  (112) 
211013

>  <tags>  (112) 
['Fragmenstein placed', 'RdRp_knitwork_thumb_site_2_impure_fragalysis.sdf Pose OK']

>  <fragmenstein_mode>  (112) 
['expansion']

>  <csv_name>  (112) 
RdRp_knitwork_thumb_site_2_impure_split4000_batch000.csv

$$$$
ZTVBGTNBYSEBPC-UHFFFAOYSA-N
     RDKit          3D

 14 14  0  0  0  0  0  0  0  0999 V2000
  -13.9579  -71.5767  -23.4648 C   0  0  0  0  0  0  0  0  0  0  0  0
  -14.5890  -70.2308  -23.1408 C   0  0  0  0  0  0  0  0  0  0  0  0
  -15.0432  -70.1315  -21.6834 C   0  0  0  0  0  0  0  0  0  0  0  0
  -14.0404  -69.4417  -20.7665 C   0  0  0  0  0  0  0  0  0  0  0  0
  -12.9139  -70.2472  -20.3036 N   0  0  0  0  0  0  0  0  0  0  0  0
  -13.2179  -70.9748  -19.1429 O   0  0  0  0  0  0  0  0  0  0  0  0
  -11.6865  -70.2850  -20.9411 C   0  0  0  0  0  0  0  0  0  0  0  0
  -11.5298  -69.7318  -22.0341 O   0  0  0  0  0  0  0  0  0  0  0  0
  -10.5221  -71.0454  -20.3603 C   0  0  0  0  0  0  0  0  0  0  0  0
  -10.6211  -72.1198  -19.4873 C   0  0  0  0  0  0  0  0  0  0  0  0
   -9.4560  -72.6211  -18.9014 C   0  0  0  0  0  0  0  0  0  0  0  0
   -8.2254  -72.0569  -19.2160 C   0  0  0  0  0  0  0  0  0  0  0  0
   -8.2032  -71.0128  -20.1188 C   0  0  0  0  0  0  0  0  0  0  0  0
   -9.3134  -70.5000  -20.6847 N   0  0  0  0  0  0  0  0  0  0  0  0
  1  2  1  0
  2  3  1  0
  3  4  1  0
  4  5  1  0
  5  6  1  0
  5  7  1  0
  7  8  2  0
  7  9  1  0
  9 10  2  0
 10 11  1  0
 11 12  2  0
 12 13  1  0
 13 14  2  0
 14  9  1  0
M  END
>  <fragmenstein_runtime>  (113) 
[1.8890740871429443]

>  <original ID>  (113) 
ZTVBGTNBYSEBPC-UHFFFAOYSA-N

>  <fragmenstein_error>  (113) 
['']

>  <ref_pdb>  (113) 
d0615a

>  <Multi-SuCOS>  (113) 
0.515275

>  <SLURM_JOB_NAME>  (113) 
BulkDock.place:Flavi_NS5_RdRp:RdRp_knitwork_thumb_site_2_impure_split4000_batch000

>  <HIPPO Compound ID>  (113) 
6445

>  <original SMILES>  (113) 
CCCCN(O)C(=O)c1ccccn1

>  <name>  (113) 
ZTVBGTNBYSEBPC-UHFFFAOYSA-N

>  <HIPPO Pose ID>  (113) 
51756

>  <ref_mols>  (113) 
d0174a,d0615a

>  <exports>  (113) 
['/opt/xchem-fragalysis-2/maxwin/BulkDock/OUTPUTS/RdRp_knitwork_thumb_site_2_impure_split4000_batch000_211013.sdf', '/opt/xchem-fragalysis-2/maxwin/BulkDock/OUTPUTS/RdRp_knitwork_thumb_site_2_impure_fragalysis.sdf', '/opt/xchem-fragalysis-2/maxwin/RdRp_FFF/syndirella/Retro_OK_batch1.sdf']

>  <alias>  (113) 
None

>  <inchikey>  (113) 
ZTVBGTNBYSEBPC-UHFFFAOYSA-N

>  <energy_score>  (113) 
-22.157799

>  <distance_score>  (113) 
0.759142

>  <fragmenstein_outcome>  (113) 
['acceptable']

>  <merge_set>  (113) 
RdRp_knitwork_thumb_site_2_impure_fragalysis.sdf

>  <scratch_subdir>  (113) 
['/opt/xchem-fragalysis-2/maxwin/BulkDock/SCRATCH/211013/C6445-P50']

>  <SLURM_JOB_ID>  (113) 
211013

>  <tags>  (113) 
['Fragmenstein placed', 'RdRp_knitwork_thumb_site_2_impure_fragalysis.sdf Pose OK']

>  <fragmenstein_mode>  (113) 
['expansion']

>  <csv_name>  (113) 
RdRp_knitwork_thumb_site_2_impure_split4000_batch000.csv

$$$$
HIFQUWMQVAZNTE-SECBINFHSA-N
     RDKit          3D

 18 18  0  0  0  0  0  0  0  0999 V2000
   -9.1280  -71.1623  -22.1925 C   0  0  0  0  0  0  0  0  0  0  0  0
   -9.3567  -71.4385  -20.7172 C   0  0  2  0  0  0  0  0  0  0  0  0
  -10.7210  -70.9318  -20.2262 C   0  0  0  0  0  0  0  0  0  0  0  0
  -11.8741  -71.2952  -21.1651 C   0  0  0  0  0  0  0  0  0  0  0  0
  -13.1734  -71.2258  -20.4862 N   0  0  0  0  0  0  0  0  0  0  0  0
  -13.8817  -69.7555  -20.1464 S   0  0  0  0  0  0  0  0  0  0  0  0
  -12.8935  -68.7143  -20.2924 O   0  0  0  0  0  0  0  0  0  0  0  0
  -14.5234  -69.9829  -18.8624 O   0  0  0  0  0  0  0  0  0  0  0  0
  -15.1792  -69.5356  -21.3751 C   0  0  0  0  0  0  0  0  0  0  0  0
  -14.7486  -69.7970  -22.7943 C   0  0  0  0  0  0  0  0  0  0  0  0
  -13.6541  -69.1556  -23.3783 C   0  0  0  0  0  0  0  0  0  0  0  0
  -13.3491  -69.4004  -24.7086 C   0  0  0  0  0  0  0  0  0  0  0  0
  -14.0852  -70.2000  -25.5033 N   0  0  0  0  0  0  0  0  0  0  0  0
  -15.1716  -70.7721  -24.9482 C   0  0  0  0  0  0  0  0  0  0  0  0
  -15.5326  -70.6143  -23.6177 C   0  0  0  0  0  0  0  0  0  0  0  0
   -8.2210  -70.8333  -19.8978 C   0  0  0  0  0  0  0  0  0  0  0  0
   -7.0242  -71.3187  -20.3104 F   0  0  0  0  0  0  0  0  0  0  0  0
   -8.3558  -71.1992  -18.5974 F   0  0  0  0  0  0  0  0  0  0  0  0
  2  1  1  6
  2  3  1  0
  3  4  1  0
  4  5  1  0
  5  6  1  0
  6  7  2  0
  6  8  2  0
  6  9  1  0
  9 10  1  0
 10 11  2  0
 11 12  1  0
 12 13  2  0
 13 14  1  0
 14 15  2  0
  2 16  1  0
 16 17  1  0
 16 18  1  0
 15 10  1  0
M  END
>  <fragmenstein_runtime>  (114) 
[2.8243508338928223]

>  <original ID>  (114) 
HIFQUWMQVAZNTE-SECBINFHSA-N

>  <fragmenstein_error>  (114) 
['']

>  <ref_pdb>  (114) 
d0174a

>  <Multi-SuCOS>  (114) 
0.622434

>  <SLURM_JOB_NAME>  (114) 
BulkDock.place:Flavi_NS5_RdRp:RdRp_knitwork_thumb_site_2_impure_split4000_batch000

>  <HIPPO Compound ID>  (114) 
6465

>  <original SMILES>  (114) 
C[C@H](CCNS(=O)(=O)Cc1ccncc1)C(F)F

>  <name>  (114) 
HIFQUWMQVAZNTE-SECBINFHSA-N

>  <HIPPO Pose ID>  (114) 
51781

>  <ref_mols>  (114) 
d0174a,d0615a

>  <exports>  (114) 
['/opt/xchem-fragalysis-2/maxwin/BulkDock/OUTPUTS/RdRp_knitwork_thumb_site_2_impure_split4000_batch000_211013.sdf', '/opt/xchem-fragalysis-2/maxwin/BulkDock/OUTPUTS/RdRp_knitwork_thumb_site_2_impure_fragalysis.sdf', '/opt/xchem-fragalysis-2/maxwin/RdRp_FFF/syndirella/Retro_OK_batch1.sdf']

>  <alias>  (114) 
None

>  <inchikey>  (114) 
HIFQUWMQVAZNTE-SECBINFHSA-N

>  <energy_score>  (114) 
-29.409473

>  <distance_score>  (114) 
0.831871

>  <fragmenstein_outcome>  (114) 
['acceptable']

>  <merge_set>  (114) 
RdRp_knitwork_thumb_site_2_impure_fragalysis.sdf

>  <scratch_subdir>  (114) 
['/opt/xchem-fragalysis-2/maxwin/BulkDock/SCRATCH/211013/C6465-P17']

>  <SLURM_JOB_ID>  (114) 
211013

>  <tags>  (114) 
['Fragmenstein placed', 'RdRp_knitwork_thumb_site_2_impure_fragalysis.sdf Pose OK']

>  <fragmenstein_mode>  (114) 
['expansion']

>  <csv_name>  (114) 
RdRp_knitwork_thumb_site_2_impure_split4000_batch000.csv

$$$$
FPGLJNIRXQQASH-LBPRGKRZSA-N
     RDKit          3D

 22 22  0  0  0  0  0  0  0  0999 V2000
  -10.0501  -70.6036  -24.6381 C   0  0  0  0  0  0  0  0  0  0  0  0
  -10.1875  -71.2971  -23.2926 C   0  0  0  0  0  0  0  0  0  0  0  0
  -11.1956  -70.5863  -22.3857 C   0  0  0  0  0  0  0  0  0  0  0  0
  -11.5176  -71.3715  -21.1057 C   0  0  2  0  0  0  0  0  0  0  0  0
  -12.9609  -71.3319  -20.7247 N   0  0  0  0  0  0  0  0  0  0  0  0
  -13.7412  -69.9517  -20.2775 S   0  0  0  0  0  0  0  0  0  0  0  0
  -12.9409  -68.7972  -20.5836 O   0  0  0  0  0  0  0  0  0  0  0  0
  -14.1890  -70.2113  -18.9193 O   0  0  0  0  0  0  0  0  0  0  0  0
  -15.2151  -69.9379  -21.2881 C   0  0  0  0  0  0  0  0  0  0  0  0
  -15.1440  -70.0782  -22.8174 C   0  0  0  0  0  0  0  0  0  0  0  0
  -16.5834  -69.8304  -23.3469 C   0  0  0  0  0  0  0  0  0  0  0  0
  -14.2576  -69.0027  -23.4357 C   0  0  0  0  0  0  0  0  0  0  0  0
  -14.8152  -71.4948  -23.2989 C   0  0  0  0  0  0  0  0  0  0  0  0
  -15.6733  -72.3907  -22.7493 F   0  0  0  0  0  0  0  0  0  0  0  0
  -14.9646  -71.5820  -24.6398 F   0  0  0  0  0  0  0  0  0  0  0  0
  -13.5838  -71.9389  -23.0342 F   0  0  0  0  0  0  0  0  0  0  0  0
  -10.4867  -71.1915  -19.9966 C   0  0  0  0  0  0  0  0  0  0  0  0
  -10.7027  -71.7162  -18.7247 C   0  0  0  0  0  0  0  0  0  0  0  0
   -9.6296  -71.8058  -17.8383 C   0  0  0  0  0  0  0  0  0  0  0  0
   -8.3698  -71.3789  -18.2383 C   0  0  0  0  0  0  0  0  0  0  0  0
   -8.2417  -70.8341  -19.4979 C   0  0  0  0  0  0  0  0  0  0  0  0
   -9.2641  -70.7315  -20.3666 N   0  0  0  0  0  0  0  0  0  0  0  0
  1  2  1  0
  2  3  1  0
  4  3  1  6
  4  5  1  0
  5  6  1  0
  6  7  2  0
  6  8  2  0
  6  9  1  0
  9 10  1  0
 10 11  1  0
 10 12  1  0
 10 13  1  0
 13 14  1  0
 13 15  1  0
 13 16  1  0
  4 17  1  0
 17 18  2  0
 18 19  1  0
 19 20  2  0
 20 21  1  0
 21 22  2  0
 22 17  1  0
M  END
>  <fragmenstein_runtime>  (115) 
[7.104072332382202]

>  <original ID>  (115) 
FPGLJNIRXQQASH-LBPRGKRZSA-N

>  <fragmenstein_error>  (115) 
['']

>  <ref_pdb>  (115) 
d0174a

>  <Multi-SuCOS>  (115) 
0.546437

>  <SLURM_JOB_NAME>  (115) 
BulkDock.place:Flavi_NS5_RdRp:RdRp_knitwork_thumb_site_2_impure_split4000_batch000

>  <HIPPO Compound ID>  (115) 
6489

>  <original SMILES>  (115) 
CCC[C@H](NS(=O)(=O)CC(C)(C)C(F)(F)F)c1ccccn1

>  <name>  (115) 
FPGLJNIRXQQASH-LBPRGKRZSA-N

>  <HIPPO Pose ID>  (115) 
51790

>  <ref_mols>  (115) 
d0174a,d0615a

>  <exports>  (115) 
['/opt/xchem-fragalysis-2/maxwin/BulkDock/OUTPUTS/RdRp_knitwork_thumb_site_2_impure_split4000_batch000_211013.sdf', '/opt/xchem-fragalysis-2/maxwin/BulkDock/OUTPUTS/RdRp_knitwork_thumb_site_2_impure_fragalysis.sdf', '/opt/xchem-fragalysis-2/maxwin/RdRp_FFF/syndirella/Retro_OK_batch1.sdf']

>  <alias>  (115) 
None

>  <inchikey>  (115) 
FPGLJNIRXQQASH-LBPRGKRZSA-N

>  <energy_score>  (115) 
-34.001152

>  <distance_score>  (115) 
0.791691

>  <fragmenstein_outcome>  (115) 
['acceptable']

>  <merge_set>  (115) 
RdRp_knitwork_thumb_site_2_impure_fragalysis.sdf

>  <scratch_subdir>  (115) 
['/opt/xchem-fragalysis-2/maxwin/BulkDock/SCRATCH/211013/C6489-P17']

>  <SLURM_JOB_ID>  (115) 
211013

>  <tags>  (115) 
['Fragmenstein placed', 'RdRp_knitwork_thumb_site_2_impure_fragalysis.sdf Pose OK']

>  <fragmenstein_mode>  (115) 
['expansion']

>  <csv_name>  (115) 
RdRp_knitwork_thumb_site_2_impure_split4000_batch000.csv

$$$$
FPGLJNIRXQQASH-LBPRGKRZSA-N
     RDKit          3D

 22 22  0  0  0  0  0  0  0  0999 V2000
  -10.0793  -70.6455  -24.7069 C   0  0  0  0  0  0  0  0  0  0  0  0
   -9.9749  -70.8403  -23.2009 C   0  0  0  0  0  0  0  0  0  0  0  0
  -11.3050  -70.5519  -22.5025 C   0  0  0  0  0  0  0  0  0  0  0  0
  -11.5515  -71.3044  -21.1873 C   0  0  2  0  0  0  0  0  0  0  0  0
  -12.9929  -71.2505  -20.8007 N   0  0  0  0  0  0  0  0  0  0  0  0
  -13.7113  -69.8839  -20.2186 S   0  0  0  0  0  0  0  0  0  0  0  0
  -12.8811  -68.7413  -20.4882 O   0  0  0  0  0  0  0  0  0  0  0  0
  -14.1053  -70.2268  -18.8631 O   0  0  0  0  0  0  0  0  0  0  0  0
  -15.2210  -69.7050  -21.1586 C   0  0  0  0  0  0  0  0  0  0  0  0
  -15.3298  -70.2243  -22.6081 C   0  0  0  0  0  0  0  0  0  0  0  0
  -16.8125  -70.0305  -23.0174 C   0  0  0  0  0  0  0  0  0  0  0  0
  -14.5013  -69.3830  -23.5699 C   0  0  0  0  0  0  0  0  0  0  0  0
  -15.0454  -71.7250  -22.7271 C   0  0  0  0  0  0  0  0  0  0  0  0
  -15.8509  -72.3201  -23.6342 F   0  0  0  0  0  0  0  0  0  0  0  0
  -13.7913  -72.0325  -23.0897 F   0  0  0  0  0  0  0  0  0  0  0  0
  -15.2841  -72.3400  -21.5458 F   0  0  0  0  0  0  0  0  0  0  0  0
  -10.5292  -71.1106  -20.0724 C   0  0  0  0  0  0  0  0  0  0  0  0
  -10.7169  -71.7232  -18.8334 C   0  0  0  0  0  0  0  0  0  0  0  0
   -9.6421  -71.8167  -17.9494 C   0  0  0  0  0  0  0  0  0  0  0  0
   -8.4049  -71.3077  -18.3195 C   0  0  0  0  0  0  0  0  0  0  0  0
   -8.3068  -70.6773  -19.5418 C   0  0  0  0  0  0  0  0  0  0  0  0
   -9.3345  -70.5661  -20.4048 N   0  0  0  0  0  0  0  0  0  0  0  0
  1  2  1  0
  2  3  1  0
  4  3  1  6
  4  5  1  0
  5  6  1  0
  6  7  2  0
  6  8  2  0
  6  9  1  0
  9 10  1  0
 10 11  1  0
 10 12  1  0
 10 13  1  0
 13 14  1  0
 13 15  1  0
 13 16  1  0
  4 17  1  0
 17 18  2  0
 18 19  1  0
 19 20  2  0
 20 21  1  0
 21 22  2  0
 22 17  1  0
M  END
>  <fragmenstein_runtime>  (116) 
[7.027507066726685]

>  <original ID>  (116) 
FPGLJNIRXQQASH-LBPRGKRZSA-N

>  <fragmenstein_error>  (116) 
['']

>  <ref_pdb>  (116) 
d0615a

>  <Multi-SuCOS>  (116) 
0.558095

>  <SLURM_JOB_NAME>  (116) 
BulkDock.place:Flavi_NS5_RdRp:RdRp_knitwork_thumb_site_2_impure_split4000_batch000

>  <HIPPO Compound ID>  (116) 
6489

>  <original SMILES>  (116) 
CCC[C@H](NS(=O)(=O)CC(C)(C)C(F)(F)F)c1ccccn1

>  <name>  (116) 
FPGLJNIRXQQASH-LBPRGKRZSA-N

>  <HIPPO Pose ID>  (116) 
51793

>  <ref_mols>  (116) 
d0174a,d0615a

>  <exports>  (116) 
['/opt/xchem-fragalysis-2/maxwin/BulkDock/OUTPUTS/RdRp_knitwork_thumb_site_2_impure_split4000_batch000_211013.sdf', '/opt/xchem-fragalysis-2/maxwin/BulkDock/OUTPUTS/RdRp_knitwork_thumb_site_2_impure_fragalysis.sdf', '/opt/xchem-fragalysis-2/maxwin/RdRp_FFF/syndirella/Retro_OK_batch1.sdf']

>  <alias>  (116) 
None

>  <inchikey>  (116) 
FPGLJNIRXQQASH-LBPRGKRZSA-N

>  <energy_score>  (116) 
-29.688772

>  <distance_score>  (116) 
0.740754

>  <fragmenstein_outcome>  (116) 
['acceptable']

>  <merge_set>  (116) 
RdRp_knitwork_thumb_site_2_impure_fragalysis.sdf

>  <scratch_subdir>  (116) 
['/opt/xchem-fragalysis-2/maxwin/BulkDock/SCRATCH/211013/C6489-P50']

>  <SLURM_JOB_ID>  (116) 
211013

>  <tags>  (116) 
['Fragmenstein placed', 'RdRp_knitwork_thumb_site_2_impure_fragalysis.sdf Pose OK']

>  <fragmenstein_mode>  (116) 
['expansion']

>  <csv_name>  (116) 
RdRp_knitwork_thumb_site_2_impure_split4000_batch000.csv

$$$$
XVUBRPZAPHYKMV-JTQLQIEISA-N
     RDKit          3D

 16 16  0  0  0  0  0  0  0  0999 V2000
  -10.2691  -71.0248  -23.6125 C   0  0  0  0  0  0  0  0  0  0  0  0
  -11.0752  -70.4272  -22.4714 C   0  0  0  0  0  0  0  0  0  0  0  0
  -11.2917  -71.4209  -21.3174 C   0  0  2  0  0  0  0  0  0  0  0  0
  -12.7051  -71.4142  -20.9103 N   0  0  0  0  0  0  0  0  0  0  0  0
  -13.4081  -70.1045  -20.1907 S   0  0  0  0  0  0  0  0  0  0  0  0
  -13.7855  -70.5062  -18.8521 O   0  0  0  0  0  0  0  0  0  0  0  0
  -12.6983  -68.8853  -20.4585 O   0  0  0  0  0  0  0  0  0  0  0  0
  -14.8259  -70.0985  -21.0973 N   0  0  0  0  0  0  0  0  0  0  0  0
  -14.6898  -69.7568  -22.5347 C   0  0  0  0  0  0  0  0  0  0  0  0
  -15.8725  -69.3043  -20.4600 C   0  0  0  0  0  0  0  0  0  0  0  0
  -10.2745  -71.3589  -20.1856 C   0  0  0  0  0  0  0  0  0  0  0  0
  -10.5709  -71.8870  -18.9225 C   0  0  0  0  0  0  0  0  0  0  0  0
   -9.5897  -71.8960  -17.9415 C   0  0  0  0  0  0  0  0  0  0  0  0
   -8.3367  -71.4357  -18.1225 N   0  0  0  0  0  0  0  0  0  0  0  0
   -8.0523  -70.9440  -19.3448 C   0  0  0  0  0  0  0  0  0  0  0  0
   -8.9691  -70.8824  -20.3841 C   0  0  0  0  0  0  0  0  0  0  0  0
  1  2  1  0
  3  2  1  6
  3  4  1  0
  4  5  1  0
  5  6  2  0
  5  7  2  0
  5  8  1  0
  8  9  1  0
  8 10  1  0
  3 11  1  0
 11 12  2  0
 12 13  1  0
 13 14  2  0
 14 15  1  0
 15 16  2  0
 16 11  1  0
M  END
>  <fragmenstein_runtime>  (117) 
[3.3061165809631348]

>  <original ID>  (117) 
XVUBRPZAPHYKMV-JTQLQIEISA-N

>  <fragmenstein_error>  (117) 
['']

>  <ref_pdb>  (117) 
d0174a

>  <Multi-SuCOS>  (117) 
0.659114

>  <SLURM_JOB_NAME>  (117) 
BulkDock.place:Flavi_NS5_RdRp:RdRp_knitwork_thumb_site_2_impure_split4000_batch000

>  <HIPPO Compound ID>  (117) 
6527

>  <original SMILES>  (117) 
CC[C@H](NS(=O)(=O)N(C)C)c1ccncc1

>  <name>  (117) 
XVUBRPZAPHYKMV-JTQLQIEISA-N

>  <HIPPO Pose ID>  (117) 
51809

>  <ref_mols>  (117) 
d0174a,d0615a

>  <exports>  (117) 
['/opt/xchem-fragalysis-2/maxwin/BulkDock/OUTPUTS/RdRp_knitwork_thumb_site_2_impure_split4000_batch000_211013.sdf', '/opt/xchem-fragalysis-2/maxwin/BulkDock/OUTPUTS/RdRp_knitwork_thumb_site_2_impure_fragalysis.sdf', '/opt/xchem-fragalysis-2/maxwin/RdRp_FFF/syndirella/Retro_OK_batch1.sdf']

>  <alias>  (117) 
None

>  <inchikey>  (117) 
XVUBRPZAPHYKMV-JTQLQIEISA-N

>  <energy_score>  (117) 
-27.994881

>  <distance_score>  (117) 
0.765163

>  <fragmenstein_outcome>  (117) 
['acceptable']

>  <merge_set>  (117) 
RdRp_knitwork_thumb_site_2_impure_fragalysis.sdf

>  <scratch_subdir>  (117) 
['/opt/xchem-fragalysis-2/maxwin/BulkDock/SCRATCH/211013/C6527-P17']

>  <SLURM_JOB_ID>  (117) 
211013

>  <tags>  (117) 
['Fragmenstein placed', 'RdRp_knitwork_thumb_site_2_impure_fragalysis.sdf Pose OK']

>  <fragmenstein_mode>  (117) 
['expansion']

>  <csv_name>  (117) 
RdRp_knitwork_thumb_site_2_impure_split4000_batch000.csv

$$$$
MHZFNJCMRZQBRV-QMMMGPOBSA-N
     RDKit          3D

 15 15  0  0  0  0  0  0  0  0999 V2000
  -11.6979  -70.4949  -22.7065 C   0  0  0  0  0  0  0  0  0  0  0  0
  -11.8101  -71.3071  -21.4189 C   0  0  2  0  0  0  0  0  0  0  0  0
  -13.2002  -71.2243  -20.8635 N   0  0  0  0  0  0  0  0  0  0  0  0
  -13.7758  -69.8111  -20.1844 S   0  0  0  0  0  0  0  0  0  0  0  0
  -12.7874  -68.7707  -20.2998 O   0  0  0  0  0  0  0  0  0  0  0  0
  -14.2496  -70.2264  -18.8732 O   0  0  0  0  0  0  0  0  0  0  0  0
  -15.2153  -69.3490  -21.1349 C   0  0  0  0  0  0  0  0  0  0  0  0
  -14.9778  -69.5721  -22.5493 C   0  0  0  0  0  0  0  0  0  0  0  0
  -14.9244  -69.7860  -23.6896 N   0  0  0  0  0  0  0  0  0  0  0  0
  -10.6487  -71.1302  -20.4398 C   0  0  0  0  0  0  0  0  0  0  0  0
  -10.7464  -71.5784  -19.1210 C   0  0  0  0  0  0  0  0  0  0  0  0
   -9.6091  -71.5809  -18.3132 C   0  0  0  0  0  0  0  0  0  0  0  0
   -8.3990  -71.1440  -18.8345 C   0  0  0  0  0  0  0  0  0  0  0  0
   -8.3793  -70.7037  -20.1442 C   0  0  0  0  0  0  0  0  0  0  0  0
   -9.4651  -70.6990  -20.9479 N   0  0  0  0  0  0  0  0  0  0  0  0
  2  1  1  6
  2  3  1  0
  3  4  1  0
  4  5  2  0
  4  6  2  0
  4  7  1  0
  7  8  1  0
  8  9  3  0
  2 10  1  0
 10 11  2  0
 11 12  1  0
 12 13  2  0
 13 14  1  0
 14 15  2  0
 15 10  1  0
M  END
>  <fragmenstein_runtime>  (118) 
[1.593364953994751]

>  <original ID>  (118) 
MHZFNJCMRZQBRV-QMMMGPOBSA-N

>  <fragmenstein_error>  (118) 
['']

>  <ref_pdb>  (118) 
d0615a

>  <Multi-SuCOS>  (118) 
0.773077

>  <SLURM_JOB_NAME>  (118) 
BulkDock.place:Flavi_NS5_RdRp:RdRp_knitwork_thumb_site_2_impure_split4000_batch000

>  <HIPPO Compound ID>  (118) 
6543

>  <original SMILES>  (118) 
C[C@H](NS(=O)(=O)CC#N)c1ccccn1

>  <name>  (118) 
MHZFNJCMRZQBRV-QMMMGPOBSA-N

>  <HIPPO Pose ID>  (118) 
51832

>  <ref_mols>  (118) 
d0174a,d0615a

>  <exports>  (118) 
['/opt/xchem-fragalysis-2/maxwin/BulkDock/OUTPUTS/RdRp_knitwork_thumb_site_2_impure_split4000_batch000_211013.sdf', '/opt/xchem-fragalysis-2/maxwin/BulkDock/OUTPUTS/RdRp_knitwork_thumb_site_2_impure_fragalysis.sdf', '/opt/xchem-fragalysis-2/maxwin/RdRp_FFF/syndirella/Retro_OK_batch1.sdf']

>  <alias>  (118) 
None

>  <inchikey>  (118) 
MHZFNJCMRZQBRV-QMMMGPOBSA-N

>  <energy_score>  (118) 
-26.475849

>  <distance_score>  (118) 
0.604589

>  <fragmenstein_outcome>  (118) 
['acceptable']

>  <merge_set>  (118) 
RdRp_knitwork_thumb_site_2_impure_fragalysis.sdf

>  <scratch_subdir>  (118) 
['/opt/xchem-fragalysis-2/maxwin/BulkDock/SCRATCH/211013/C6543-P50']

>  <SLURM_JOB_ID>  (118) 
211013

>  <tags>  (118) 
['Fragmenstein placed', 'RdRp_knitwork_thumb_site_2_impure_fragalysis.sdf Pose OK']

>  <fragmenstein_mode>  (118) 
['expansion']

>  <csv_name>  (118) 
RdRp_knitwork_thumb_site_2_impure_split4000_batch000.csv

$$$$
VCOMALJTOWPSSG-GFCCVEGCSA-N
     RDKit          3D

 18 18  0  0  0  0  0  0  0  0999 V2000
  -10.1853  -71.1016  -23.4274 C   0  0  0  0  0  0  0  0  0  0  0  0
  -11.4858  -71.3704  -22.6867 C   0  0  0  0  0  0  0  0  0  0  0  0
  -11.6602  -70.5862  -21.3739 C   0  0  1  0  0  0  0  0  0  0  0  0
  -13.0297  -70.8870  -20.8821 N   0  0  0  0  0  0  0  0  0  0  0  0
  -13.8562  -69.6772  -20.1010 S   0  0  0  0  0  0  0  0  0  0  0  0
  -13.0329  -68.4975  -20.0619 O   0  0  0  0  0  0  0  0  0  0  0  0
  -14.3577  -70.2766  -18.8785 O   0  0  0  0  0  0  0  0  0  0  0  0
  -15.2547  -69.3512  -21.1611 C   0  0  0  0  0  0  0  0  0  0  0  0
  -15.0175  -69.4818  -22.6630 C   0  0  0  0  0  0  0  0  0  0  0  0
  -15.8486  -70.6186  -23.2964 C   0  0  0  0  0  0  0  0  0  0  0  0
  -15.3904  -72.0056  -22.8534 C   0  0  0  0  0  0  0  0  0  0  0  0
  -15.8063  -70.5245  -24.8205 C   0  0  0  0  0  0  0  0  0  0  0  0
  -10.5371  -70.8789  -20.3836 C   0  0  0  0  0  0  0  0  0  0  0  0
  -10.6730  -71.7792  -19.3264 C   0  0  0  0  0  0  0  0  0  0  0  0
   -9.5590  -72.0881  -18.5443 C   0  0  0  0  0  0  0  0  0  0  0  0
   -8.3337  -71.5064  -18.8364 C   0  0  0  0  0  0  0  0  0  0  0  0
   -8.2811  -70.6096  -19.8842 C   0  0  0  0  0  0  0  0  0  0  0  0
   -9.3471  -70.2786  -20.6429 N   0  0  0  0  0  0  0  0  0  0  0  0
  1  2  1  0
  3  2  1  6
  3  4  1  0
  4  5  1  0
  5  6  2  0
  5  7  2  0
  5  8  1  0
  8  9  1  0
  9 10  1  0
 10 11  1  0
 10 12  1  0
  3 13  1  0
 13 14  2  0
 14 15  1  0
 15 16  2  0
 16 17  1  0
 17 18  2  0
 18 13  1  0
M  END
>  <fragmenstein_runtime>  (119) 
[2.53985595703125]

>  <original ID>  (119) 
VCOMALJTOWPSSG-GFCCVEGCSA-N

>  <fragmenstein_error>  (119) 
['']

>  <ref_pdb>  (119) 
d0174a

>  <Multi-SuCOS>  (119) 
0.594586

>  <SLURM_JOB_NAME>  (119) 
BulkDock.place:Flavi_NS5_RdRp:RdRp_knitwork_thumb_site_2_impure_split4000_batch000

>  <HIPPO Compound ID>  (119) 
6567

>  <original SMILES>  (119) 
CC[C@@H](NS(=O)(=O)CCC(C)C)c1ccccn1

>  <name>  (119) 
VCOMALJTOWPSSG-GFCCVEGCSA-N

>  <HIPPO Pose ID>  (119) 
51841

>  <ref_mols>  (119) 
d0174a,d0615a

>  <exports>  (119) 
['/opt/xchem-fragalysis-2/maxwin/BulkDock/OUTPUTS/RdRp_knitwork_thumb_site_2_impure_split4000_batch000_211013.sdf', '/opt/xchem-fragalysis-2/maxwin/BulkDock/OUTPUTS/RdRp_knitwork_thumb_site_2_impure_fragalysis.sdf', '/opt/xchem-fragalysis-2/maxwin/RdRp_FFF/syndirella/Retro_OK_batch1.sdf']

>  <alias>  (119) 
None

>  <inchikey>  (119) 
VCOMALJTOWPSSG-GFCCVEGCSA-N

>  <energy_score>  (119) 
-33.126256

>  <distance_score>  (119) 
0.693041

>  <fragmenstein_outcome>  (119) 
['acceptable']

>  <merge_set>  (119) 
RdRp_knitwork_thumb_site_2_impure_fragalysis.sdf

>  <scratch_subdir>  (119) 
['/opt/xchem-fragalysis-2/maxwin/BulkDock/SCRATCH/211013/C6567-P17']

>  <SLURM_JOB_ID>  (119) 
211013

>  <tags>  (119) 
['Fragmenstein placed', 'RdRp_knitwork_thumb_site_2_impure_fragalysis.sdf Pose OK']

>  <fragmenstein_mode>  (119) 
['expansion']

>  <csv_name>  (119) 
RdRp_knitwork_thumb_site_2_impure_split4000_batch000.csv

$$$$
ZHJAXKLACHAAFO-LLVKDONJSA-N
     RDKit          3D

 15 15  0  0  0  0  0  0  0  0999 V2000
  -16.1694  -70.5969  -24.8018 C   0  0  0  0  0  0  0  0  0  0  0  0
  -16.3087  -70.2754  -23.3277 C   0  0  0  0  0  0  0  0  0  0  0  0
  -14.9672  -69.9137  -22.7029 C   0  0  0  0  0  0  0  0  0  0  0  0
  -15.1667  -69.7557  -21.2954 O   0  0  0  0  0  0  0  0  0  0  0  0
  -13.9581  -69.4441  -20.6248 C   0  0  0  0  0  0  0  0  0  0  0  0
  -12.9689  -70.6105  -20.4758 C   0  0  0  0  0  0  0  0  0  0  0  0
  -13.3428  -71.7306  -20.1266 O   0  0  0  0  0  0  0  0  0  0  0  0
  -11.5260  -70.2573  -20.8217 C   0  0  2  0  0  0  0  0  0  0  0  0
  -11.3988  -70.2756  -22.2409 O   0  0  0  0  0  0  0  0  0  0  0  0
  -10.3857  -70.9896  -20.1623 C   0  0  0  0  0  0  0  0  0  0  0  0
  -10.5138  -71.8503  -19.0703 C   0  0  0  0  0  0  0  0  0  0  0  0
   -9.3761  -72.3832  -18.4657 C   0  0  0  0  0  0  0  0  0  0  0  0
   -8.1346  -72.0288  -18.9629 C   0  0  0  0  0  0  0  0  0  0  0  0
   -7.9627  -71.1889  -20.0009 N   0  0  0  0  0  0  0  0  0  0  0  0
   -9.0823  -70.6957  -20.5756 C   0  0  0  0  0  0  0  0  0  0  0  0
  1  2  1  0
  2  3  1  0
  3  4  1  0
  4  5  1  0
  5  6  1  0
  6  7  2  0
  6  8  1  0
  8  9  1  6
  8 10  1  0
 10 11  2  0
 11 12  1  0
 12 13  2  0
 13 14  1  0
 14 15  2  0
 15 10  1  0
M  END
>  <fragmenstein_runtime>  (120) 
[1.4421262741088867]

>  <original ID>  (120) 
ZHJAXKLACHAAFO-LLVKDONJSA-N

>  <fragmenstein_error>  (120) 
['']

>  <ref_pdb>  (120) 
d0174a

>  <Multi-SuCOS>  (120) 
0.517982

>  <SLURM_JOB_NAME>  (120) 
BulkDock.place:Flavi_NS5_RdRp:RdRp_knitwork_thumb_site_2_impure_split4000_batch000

>  <HIPPO Compound ID>  (120) 
6592

>  <original SMILES>  (120) 
CCCOCC(=O)[C@H](O)c1cccnc1

>  <name>  (120) 
ZHJAXKLACHAAFO-LLVKDONJSA-N

>  <HIPPO Pose ID>  (120) 
51859

>  <ref_mols>  (120) 
d0174a,d0615a

>  <exports>  (120) 
['/opt/xchem-fragalysis-2/maxwin/BulkDock/OUTPUTS/RdRp_knitwork_thumb_site_2_impure_split4000_batch000_211013.sdf', '/opt/xchem-fragalysis-2/maxwin/BulkDock/OUTPUTS/RdRp_knitwork_thumb_site_2_impure_fragalysis.sdf', '/opt/xchem-fragalysis-2/maxwin/RdRp_FFF/syndirella/Retro_OK_batch1.sdf']

>  <alias>  (120) 
None

>  <inchikey>  (120) 
ZHJAXKLACHAAFO-LLVKDONJSA-N

>  <energy_score>  (120) 
-33.329301

>  <distance_score>  (120) 
0.706038

>  <fragmenstein_outcome>  (120) 
['acceptable']

>  <merge_set>  (120) 
RdRp_knitwork_thumb_site_2_impure_fragalysis.sdf

>  <scratch_subdir>  (120) 
['/opt/xchem-fragalysis-2/maxwin/BulkDock/SCRATCH/211013/C6592-P17']

>  <SLURM_JOB_ID>  (120) 
211013

>  <tags>  (120) 
['Fragmenstein placed', 'RdRp_knitwork_thumb_site_2_impure_fragalysis.sdf Pose OK']

>  <fragmenstein_mode>  (120) 
['expansion']

>  <csv_name>  (120) 
RdRp_knitwork_thumb_site_2_impure_split4000_batch000.csv

$$$$
ZHJAXKLACHAAFO-LLVKDONJSA-N
     RDKit          3D

 15 15  0  0  0  0  0  0  0  0999 V2000
  -16.0857  -70.5243  -24.9406 C   0  0  0  0  0  0  0  0  0  0  0  0
  -16.2820  -70.2763  -23.4577 C   0  0  0  0  0  0  0  0  0  0  0  0
  -14.9570  -70.0124  -22.7540 C   0  0  0  0  0  0  0  0  0  0  0  0
  -15.2077  -69.9895  -21.3471 O   0  0  0  0  0  0  0  0  0  0  0  0
  -14.0326  -69.7547  -20.5943 C   0  0  0  0  0  0  0  0  0  0  0  0
  -12.9332  -70.8264  -20.6861 C   0  0  0  0  0  0  0  0  0  0  0  0
  -13.1785  -72.0336  -20.6768 O   0  0  0  0  0  0  0  0  0  0  0  0
  -11.5273  -70.2714  -20.8701 C   0  0  2  0  0  0  0  0  0  0  0  0
  -11.3043  -70.1391  -22.2729 O   0  0  0  0  0  0  0  0  0  0  0  0
  -10.3734  -70.9680  -20.1966 C   0  0  0  0  0  0  0  0  0  0  0  0
  -10.5156  -71.8374  -19.1116 C   0  0  0  0  0  0  0  0  0  0  0  0
   -9.3854  -72.3471  -18.4754 C   0  0  0  0  0  0  0  0  0  0  0  0
   -8.1384  -71.9590  -18.9327 C   0  0  0  0  0  0  0  0  0  0  0  0
   -7.9547  -71.1053  -19.9580 N   0  0  0  0  0  0  0  0  0  0  0  0
   -9.0677  -70.6348  -20.5653 C   0  0  0  0  0  0  0  0  0  0  0  0
  1  2  1  0
  2  3  1  0
  3  4  1  0
  4  5  1  0
  5  6  1  0
  6  7  2  0
  6  8  1  0
  8  9  1  6
  8 10  1  0
 10 11  2  0
 11 12  1  0
 12 13  2  0
 13 14  1  0
 14 15  2  0
 15 10  1  0
M  END
>  <fragmenstein_runtime>  (121) 
[1.6140797138214111]

>  <original ID>  (121) 
ZHJAXKLACHAAFO-LLVKDONJSA-N

>  <fragmenstein_error>  (121) 
['']

>  <ref_pdb>  (121) 
d0615a

>  <Multi-SuCOS>  (121) 
0.512291

>  <SLURM_JOB_NAME>  (121) 
BulkDock.place:Flavi_NS5_RdRp:RdRp_knitwork_thumb_site_2_impure_split4000_batch000

>  <HIPPO Compound ID>  (121) 
6592

>  <original SMILES>  (121) 
CCCOCC(=O)[C@H](O)c1cccnc1

>  <name>  (121) 
ZHJAXKLACHAAFO-LLVKDONJSA-N

>  <HIPPO Pose ID>  (121) 
51860

>  <ref_mols>  (121) 
d0174a,d0615a

>  <exports>  (121) 
['/opt/xchem-fragalysis-2/maxwin/BulkDock/OUTPUTS/RdRp_knitwork_thumb_site_2_impure_split4000_batch000_211013.sdf', '/opt/xchem-fragalysis-2/maxwin/BulkDock/OUTPUTS/RdRp_knitwork_thumb_site_2_impure_fragalysis.sdf', '/opt/xchem-fragalysis-2/maxwin/RdRp_FFF/syndirella/Retro_OK_batch1.sdf']

>  <alias>  (121) 
None

>  <inchikey>  (121) 
ZHJAXKLACHAAFO-LLVKDONJSA-N

>  <energy_score>  (121) 
-33.692591

>  <distance_score>  (121) 
0.647972

>  <fragmenstein_outcome>  (121) 
['acceptable']

>  <merge_set>  (121) 
RdRp_knitwork_thumb_site_2_impure_fragalysis.sdf

>  <scratch_subdir>  (121) 
['/opt/xchem-fragalysis-2/maxwin/BulkDock/SCRATCH/211013/C6592-P50']

>  <SLURM_JOB_ID>  (121) 
211013

>  <tags>  (121) 
['Fragmenstein placed', 'RdRp_knitwork_thumb_site_2_impure_fragalysis.sdf Pose OK']

>  <fragmenstein_mode>  (121) 
['expansion']

>  <csv_name>  (121) 
RdRp_knitwork_thumb_site_2_impure_split4000_batch000.csv

$$$$
KNQXNDJGVDPOSN-UHFFFAOYSA-N
     RDKit          3D

 13 13  0  0  0  0  0  0  0  0999 V2000
  -14.5128  -70.1235  -23.0919 C   0  0  0  0  0  0  0  0  0  0  0  0
  -15.0058  -70.1386  -21.6538 C   0  0  0  0  0  0  0  0  0  0  0  0
  -14.0746  -69.4065  -20.6960 C   0  0  0  0  0  0  0  0  0  0  0  0
  -12.9224  -70.1728  -20.2286 N   0  0  0  0  0  0  0  0  0  0  0  0
  -13.1735  -70.8416  -19.0207 O   0  0  0  0  0  0  0  0  0  0  0  0
  -11.7086  -70.2437  -20.8895 C   0  0  0  0  0  0  0  0  0  0  0  0
  -11.5699  -69.7542  -22.0139 O   0  0  0  0  0  0  0  0  0  0  0  0
  -10.5428  -70.9715  -20.2670 C   0  0  0  0  0  0  0  0  0  0  0  0
  -10.3573  -71.0361  -18.8867 C   0  0  0  0  0  0  0  0  0  0  0  0
   -9.1761  -71.5785  -18.3812 C   0  0  0  0  0  0  0  0  0  0  0  0
   -8.1898  -71.9978  -19.2618 C   0  0  0  0  0  0  0  0  0  0  0  0
   -8.4325  -71.8715  -20.6181 C   0  0  0  0  0  0  0  0  0  0  0  0
   -9.5790  -71.3799  -21.1351 N   0  0  0  0  0  0  0  0  0  0  0  0
  1  2  1  0
  2  3  1  0
  3  4  1  0
  4  5  1  0
  4  6  1  0
  6  7  2  0
  6  8  1  0
  8  9  2  0
  9 10  1  0
 10 11  2  0
 11 12  1  0
 12 13  2  0
 13  8  1  0
M  END
>  <fragmenstein_runtime>  (122) 
[1.5077931880950928]

>  <original ID>  (122) 
KNQXNDJGVDPOSN-UHFFFAOYSA-N

>  <fragmenstein_error>  (122) 
['']

>  <ref_pdb>  (122) 
d0615a

>  <Multi-SuCOS>  (122) 
0.570684

>  <SLURM_JOB_NAME>  (122) 
BulkDock.place:Flavi_NS5_RdRp:RdRp_knitwork_thumb_site_2_impure_split4000_batch000

>  <HIPPO Compound ID>  (122) 
6630

>  <original SMILES>  (122) 
CCCN(O)C(=O)c1ccccn1

>  <name>  (122) 
KNQXNDJGVDPOSN-UHFFFAOYSA-N

>  <HIPPO Pose ID>  (122) 
51867

>  <ref_mols>  (122) 
d0174a,d0615a

>  <exports>  (122) 
['/opt/xchem-fragalysis-2/maxwin/BulkDock/OUTPUTS/RdRp_knitwork_thumb_site_2_impure_split4000_batch000_211013.sdf', '/opt/xchem-fragalysis-2/maxwin/BulkDock/OUTPUTS/RdRp_knitwork_thumb_site_2_impure_fragalysis.sdf', '/opt/xchem-fragalysis-2/maxwin/RdRp_FFF/syndirella/Retro_OK_batch1.sdf']

>  <alias>  (122) 
None

>  <inchikey>  (122) 
KNQXNDJGVDPOSN-UHFFFAOYSA-N

>  <energy_score>  (122) 
-48.271871

>  <distance_score>  (122) 
0.908251

>  <fragmenstein_outcome>  (122) 
['acceptable']

>  <merge_set>  (122) 
RdRp_knitwork_thumb_site_2_impure_fragalysis.sdf

>  <scratch_subdir>  (122) 
['/opt/xchem-fragalysis-2/maxwin/BulkDock/SCRATCH/211013/C6630-P50']

>  <SLURM_JOB_ID>  (122) 
211013

>  <tags>  (122) 
['Fragmenstein placed', 'RdRp_knitwork_thumb_site_2_impure_fragalysis.sdf Pose OK']

>  <fragmenstein_mode>  (122) 
['expansion']

>  <csv_name>  (122) 
RdRp_knitwork_thumb_site_2_impure_split4000_batch000.csv

$$$$
DNBGHHYGVGYANP-OLZOCXBDSA-N
     RDKit          3D

 19 19  0  0  0  0  0  0  0  0999 V2000
  -16.9788  -70.2765  -25.9613 C   0  0  0  0  0  0  0  0  0  0  0  0
  -15.7975  -70.6609  -25.0665 C   0  0  0  0  0  0  0  0  0  0  0  0
  -14.4886  -70.4483  -25.8274 C   0  0  0  0  0  0  0  0  0  0  0  0
  -15.9311  -69.9652  -23.6981 C   0  0  0  0  0  0  0  0  0  0  0  0
  -14.6606  -69.9162  -22.8234 C   0  0  1  0  0  0  0  0  0  0  0  0
  -13.9033  -68.6257  -23.0951 C   0  0  0  0  0  0  0  0  0  0  0  0
  -15.0546  -70.0754  -21.3548 C   0  0  0  0  0  0  0  0  0  0  0  0
  -13.8257  -69.7332  -20.1036 S   0  0  0  0  0  0  0  0  0  0  0  0
  -13.8725  -68.3130  -19.8451 O   0  0  0  0  0  0  0  0  0  0  0  0
  -14.0063  -70.6568  -19.0043 O   0  0  0  0  0  0  0  0  0  0  0  0
  -12.3459  -69.9678  -20.7760 N   0  0  0  0  0  0  0  0  0  0  0  0
  -11.6840  -71.2402  -21.0071 C   0  0  1  0  0  0  0  0  0  0  0  0
  -11.2833  -71.3004  -22.4873 C   0  0  0  0  0  0  0  0  0  0  0  0
  -10.4728  -71.3463  -20.0969 C   0  0  0  0  0  0  0  0  0  0  0  0
  -10.6250  -71.9082  -18.8258 C   0  0  0  0  0  0  0  0  0  0  0  0
   -9.5232  -71.9794  -17.9883 C   0  0  0  0  0  0  0  0  0  0  0  0
   -8.2965  -71.5239  -18.3160 N   0  0  0  0  0  0  0  0  0  0  0  0
   -8.1638  -70.9729  -19.5406 C   0  0  0  0  0  0  0  0  0  0  0  0
   -9.2067  -70.8514  -20.4464 C   0  0  0  0  0  0  0  0  0  0  0  0
  1  2  1  0
  2  3  1  0
  2  4  1  0
  4  5  1  0
  5  6  1  1
  5  7  1  0
  7  8  1  0
  8  9  2  0
  8 10  2  0
  8 11  1  0
 11 12  1  0
 12 13  1  6
 12 14  1  0
 14 15  2  0
 15 16  1  0
 16 17  2  0
 17 18  1  0
 18 19  2  0
 19 14  1  0
M  END
>  <fragmenstein_runtime>  (123) 
[7.212163209915161]

>  <original ID>  (123) 
DNBGHHYGVGYANP-OLZOCXBDSA-N

>  <fragmenstein_error>  (123) 
['']

>  <ref_pdb>  (123) 
d0174a

>  <Multi-SuCOS>  (123) 
0.478005

>  <SLURM_JOB_NAME>  (123) 
BulkDock.place:Flavi_NS5_RdRp:RdRp_knitwork_thumb_site_2_impure_split4000_batch000

>  <HIPPO Compound ID>  (123) 
6634

>  <original SMILES>  (123) 
CC(C)C[C@@H](C)CS(=O)(=O)N[C@@H](C)c1ccncc1

>  <name>  (123) 
DNBGHHYGVGYANP-OLZOCXBDSA-N

>  <HIPPO Pose ID>  (123) 
51872

>  <ref_mols>  (123) 
d0174a,d0615a

>  <exports>  (123) 
['/opt/xchem-fragalysis-2/maxwin/BulkDock/OUTPUTS/RdRp_knitwork_thumb_site_2_impure_split4000_batch000_211013.sdf', '/opt/xchem-fragalysis-2/maxwin/BulkDock/OUTPUTS/RdRp_knitwork_thumb_site_2_impure_fragalysis.sdf', '/opt/xchem-fragalysis-2/maxwin/RdRp_FFF/syndirella/Retro_OK_batch1.sdf']

>  <alias>  (123) 
None

>  <inchikey>  (123) 
DNBGHHYGVGYANP-OLZOCXBDSA-N

>  <energy_score>  (123) 
-46.360435

>  <distance_score>  (123) 
0.762985

>  <fragmenstein_outcome>  (123) 
['acceptable']

>  <merge_set>  (123) 
RdRp_knitwork_thumb_site_2_impure_fragalysis.sdf

>  <scratch_subdir>  (123) 
['/opt/xchem-fragalysis-2/maxwin/BulkDock/SCRATCH/211013/C6634-P17']

>  <SLURM_JOB_ID>  (123) 
211013

>  <tags>  (123) 
['Fragmenstein placed', 'RdRp_knitwork_thumb_site_2_impure_fragalysis.sdf Pose OK']

>  <fragmenstein_mode>  (123) 
['expansion']

>  <csv_name>  (123) 
RdRp_knitwork_thumb_site_2_impure_split4000_batch000.csv

$$$$
DNBGHHYGVGYANP-OLZOCXBDSA-N
     RDKit          3D

 19 19  0  0  0  0  0  0  0  0999 V2000
  -15.6950  -70.7735  -25.7501 C   0  0  0  0  0  0  0  0  0  0  0  0
  -14.7045  -70.4961  -24.6142 C   0  0  0  0  0  0  0  0  0  0  0  0
  -13.4378  -69.8908  -25.2246 C   0  0  0  0  0  0  0  0  0  0  0  0
  -15.4046  -69.6009  -23.5743 C   0  0  0  0  0  0  0  0  0  0  0  0
  -14.5973  -69.2162  -22.3251 C   0  0  1  0  0  0  0  0  0  0  0  0
  -15.1390  -67.9275  -21.7042 C   0  0  0  0  0  0  0  0  0  0  0  0
  -14.7082  -70.3219  -21.2909 C   0  0  0  0  0  0  0  0  0  0  0  0
  -13.4892  -70.2044  -19.9825 S   0  0  0  0  0  0  0  0  0  0  0  0
  -12.6514  -69.0430  -20.1385 O   0  0  0  0  0  0  0  0  0  0  0  0
  -14.1696  -70.4779  -18.7299 O   0  0  0  0  0  0  0  0  0  0  0  0
  -12.6014  -71.5752  -20.2919 N   0  0  0  0  0  0  0  0  0  0  0  0
  -11.3378  -71.5993  -21.0468 C   0  0  1  0  0  0  0  0  0  0  0  0
  -11.4199  -70.8362  -22.3620 C   0  0  0  0  0  0  0  0  0  0  0  0
  -10.1205  -71.3454  -20.1801 C   0  0  0  0  0  0  0  0  0  0  0  0
  -10.0445  -71.9315  -18.9069 C   0  0  0  0  0  0  0  0  0  0  0  0
   -8.8851  -71.7961  -18.1631 C   0  0  0  0  0  0  0  0  0  0  0  0
   -7.7973  -71.1318  -18.5917 N   0  0  0  0  0  0  0  0  0  0  0  0
   -7.8791  -70.5681  -19.8162 C   0  0  0  0  0  0  0  0  0  0  0  0
   -9.0001  -70.6390  -20.6308 C   0  0  0  0  0  0  0  0  0  0  0  0
  1  2  1  0
  2  3  1  0
  2  4  1  0
  4  5  1  0
  5  6  1  1
  5  7  1  0
  7  8  1  0
  8  9  2  0
  8 10  2  0
  8 11  1  0
 11 12  1  0
 12 13  1  6
 12 14  1  0
 14 15  2  0
 15 16  1  0
 16 17  2  0
 17 18  1  0
 18 19  2  0
 19 14  1  0
M  END
>  <fragmenstein_runtime>  (124) 
[7.358105659484863]

>  <original ID>  (124) 
DNBGHHYGVGYANP-OLZOCXBDSA-N

>  <fragmenstein_error>  (124) 
['']

>  <ref_pdb>  (124) 
d0615a

>  <Multi-SuCOS>  (124) 
0.525506

>  <SLURM_JOB_NAME>  (124) 
BulkDock.place:Flavi_NS5_RdRp:RdRp_knitwork_thumb_site_2_impure_split4000_batch000

>  <HIPPO Compound ID>  (124) 
6634

>  <original SMILES>  (124) 
CC(C)C[C@@H](C)CS(=O)(=O)N[C@@H](C)c1ccncc1

>  <name>  (124) 
DNBGHHYGVGYANP-OLZOCXBDSA-N

>  <HIPPO Pose ID>  (124) 
51874

>  <ref_mols>  (124) 
d0174a,d0615a

>  <exports>  (124) 
['/opt/xchem-fragalysis-2/maxwin/BulkDock/OUTPUTS/RdRp_knitwork_thumb_site_2_impure_split4000_batch000_211013.sdf', '/opt/xchem-fragalysis-2/maxwin/BulkDock/OUTPUTS/RdRp_knitwork_thumb_site_2_impure_fragalysis.sdf', '/opt/xchem-fragalysis-2/maxwin/RdRp_FFF/syndirella/Retro_OK_batch1.sdf']

>  <alias>  (124) 
None

>  <inchikey>  (124) 
DNBGHHYGVGYANP-OLZOCXBDSA-N

>  <energy_score>  (124) 
-45.410275

>  <distance_score>  (124) 
0.812185

>  <fragmenstein_outcome>  (124) 
['acceptable']

>  <merge_set>  (124) 
RdRp_knitwork_thumb_site_2_impure_fragalysis.sdf

>  <scratch_subdir>  (124) 
['/opt/xchem-fragalysis-2/maxwin/BulkDock/SCRATCH/211013/C6634-P50']

>  <SLURM_JOB_ID>  (124) 
211013

>  <tags>  (124) 
['Fragmenstein placed', 'RdRp_knitwork_thumb_site_2_impure_fragalysis.sdf Pose OK']

>  <fragmenstein_mode>  (124) 
['expansion']

>  <csv_name>  (124) 
RdRp_knitwork_thumb_site_2_impure_split4000_batch000.csv

$$$$
FEOHWIBMJWSLGD-CQSZACIVSA-N
     RDKit          3D

 23 24  0  0  0  0  0  0  0  0999 V2000
  -16.3284  -47.9933  -17.5336 C   0  0  0  0  0  0  0  0  0  0  0  0
  -16.7093  -47.6161  -18.9528 C   0  0  0  0  0  0  0  0  0  0  0  0
  -17.9030  -46.6442  -18.9517 C   0  0  0  0  0  0  0  0  0  0  0  0
  -18.1284  -45.9704  -20.3092 C   0  0  0  0  0  0  0  0  0  0  0  0
  -17.0523  -45.0719  -20.7445 N   0  0  0  0  0  0  0  0  0  0  0  0
  -16.1702  -44.5041  -19.6963 C   0  0  0  0  0  0  0  0  0  0  0  0
  -16.8425  -43.4411  -18.8272 C   0  0  0  0  0  0  0  0  0  0  0  0
  -16.9746  -42.0570  -19.4718 C   0  0  0  0  0  0  0  0  0  0  0  0
  -18.3032  -41.8423  -20.1804 C   0  0  0  0  0  0  0  0  0  0  0  0
  -17.1192  -44.6850  -22.1716 C   0  0  0  0  0  0  0  0  0  0  0  0
  -18.2399  -44.5431  -22.6743 O   0  0  0  0  0  0  0  0  0  0  0  0
  -16.0914  -43.7564  -22.3280 N   0  0  0  0  0  0  0  0  0  0  0  0
  -15.7505  -43.0061  -23.4056 C   0  0  0  0  0  0  0  0  0  0  0  0
  -14.7266  -42.1984  -23.2633 N   0  0  0  0  0  0  0  0  0  0  0  0
  -14.6975  -41.3201  -24.3084 C   0  0  0  0  0  0  0  0  0  0  0  0
  -15.7053  -41.4748  -25.2308 C   0  0  0  0  0  0  0  0  0  0  0  0
  -16.0683  -40.5395  -26.3259 C   0  0  0  0  0  0  0  0  0  0  0  0
  -16.4242  -39.1493  -25.7700 C   0  0  1  0  0  0  0  0  0  0  0  0
  -17.1758  -38.3134  -26.7786 C   0  0  0  0  0  0  0  0  0  0  0  0
  -17.9892  -37.3876  -25.9100 C   0  0  0  0  0  0  0  0  0  0  0  0
  -18.3848  -38.1688  -24.7931 O   0  0  0  0  0  0  0  0  0  0  0  0
  -17.3285  -39.1055  -24.5333 C   0  0  0  0  0  0  0  0  0  0  0  0
  -16.6285  -42.8787  -24.8451 S   0  0  0  0  0  0  0  0  0  0  0  0
  1  2  1  0
  2  3  1  0
  3  4  1  0
  4  5  1  0
  5  6  1  0
  6  7  1  0
  7  8  1  0
  8  9  1  0
  5 10  1  0
 10 11  2  0
 10 12  1  0
 12 13  1  0
 13 14  2  0
 14 15  1  0
 15 16  2  0
 16 17  1  0
 18 17  1  6
 18 19  1  0
 19 20  1  0
 20 21  1  0
 21 22  1  0
 16 23  1  0
 23 13  1  0
 22 18  1  0
M  END
>  <fragmenstein_runtime>  (125) 
[27.468856811523438]

>  <original ID>  (125) 
FEOHWIBMJWSLGD-CQSZACIVSA-N

>  <fragmenstein_error>  (125) 
['']

>  <ref_pdb>  (125) 
d0254a

>  <Multi-SuCOS>  (125) 
0.523384

>  <SLURM_JOB_NAME>  (125) 
BulkDock.place:Flavi_NS5_RdRp:RdRp_knitwork_primer_grip_n_pocket_impure_split4000_batch003

>  <HIPPO Compound ID>  (125) 
23712

>  <original SMILES>  (125) 
CCCCN(CCCC)C(=O)Nc1ncc(C[C@H]2CCOC2)s1

>  <name>  (125) 
FEOHWIBMJWSLGD-CQSZACIVSA-N

>  <HIPPO Pose ID>  (125) 
51879

>  <ref_mols>  (125) 
d0254a,d0615b

>  <exports>  (125) 
['/opt/xchem-fragalysis-2/maxwin/BulkDock/OUTPUTS/RdRp_knitwork_primer_grip_n_pocket_impure_split4000_batch003_211035.sdf', '/opt/xchem-fragalysis-2/maxwin/BulkDock/OUTPUTS/RdRp_knitwork_primer_grip_n_pocket_impure_fragalysis.sdf', '/opt/xchem-fragalysis-2/maxwin/RdRp_FFF/syndirella/Retro_OK_batch1.sdf']

>  <alias>  (125) 
None

>  <inchikey>  (125) 
FEOHWIBMJWSLGD-CQSZACIVSA-N

>  <energy_score>  (125) 
-82.320516

>  <distance_score>  (125) 
0.976536

>  <fragmenstein_outcome>  (125) 
['acceptable']

>  <merge_set>  (125) 
RdRp_knitwork_primer_grip_n_pocket_impure_fragalysis.sdf

>  <scratch_subdir>  (125) 
['/opt/xchem-fragalysis-2/maxwin/BulkDock/SCRATCH/211035/C23712-P26']

>  <SLURM_JOB_ID>  (125) 
211035

>  <tags>  (125) 
['Fragmenstein placed', 'RdRp_knitwork_primer_grip_n_pocket_impure_fragalysis.sdf Pose OK']

>  <fragmenstein_mode>  (125) 
['expansion']

>  <csv_name>  (125) 
RdRp_knitwork_primer_grip_n_pocket_impure_split4000_batch003.csv

$$$$
HSBYGEOWLQMFBK-SNVBAGLBSA-N
     RDKit          3D

 15 15  0  0  0  0  0  0  0  0999 V2000
  -12.6478  -70.9076  -23.7507 C   0  0  0  0  0  0  0  0  0  0  0  0
  -11.5314  -71.3630  -22.7959 C   0  0  0  0  0  0  0  0  0  0  0  0
  -10.1882  -71.1832  -23.5100 C   0  0  0  0  0  0  0  0  0  0  0  0
  -11.6169  -70.6243  -21.4326 C   0  0  1  0  0  0  0  0  0  0  0  0
  -12.9440  -70.9255  -20.8500 N   0  0  0  0  0  0  0  0  0  0  0  0
  -13.7908  -69.7239  -20.0657 S   0  0  0  0  0  0  0  0  0  0  0  0
  -15.0923  -69.3877  -21.2329 C   0  0  0  0  0  0  0  0  0  0  0  0
  -12.9591  -68.5538  -19.9610 O   0  0  0  0  0  0  0  0  0  0  0  0
  -14.3708  -70.3485  -18.8937 O   0  0  0  0  0  0  0  0  0  0  0  0
  -10.4726  -70.9601  -20.4806 C   0  0  0  0  0  0  0  0  0  0  0  0
  -10.5689  -71.9331  -19.4782 C   0  0  0  0  0  0  0  0  0  0  0  0
   -9.4703  -72.1809  -18.6644 C   0  0  0  0  0  0  0  0  0  0  0  0
   -8.2850  -71.5509  -18.7823 N   0  0  0  0  0  0  0  0  0  0  0  0
   -8.1958  -70.6264  -19.7591 C   0  0  0  0  0  0  0  0  0  0  0  0
   -9.2455  -70.2898  -20.6021 C   0  0  0  0  0  0  0  0  0  0  0  0
  1  2  1  0
  2  3  1  0
  2  4  1  0
  4  5  1  1
  5  6  1  0
  6  7  1  0
  6  8  2  0
  6  9  2  0
  4 10  1  0
 10 11  2  0
 11 12  1  0
 12 13  2  0
 13 14  1  0
 14 15  2  0
 15 10  1  0
M  END
>  <fragmenstein_runtime>  (126) 
[2.4796218872070312]

>  <original ID>  (126) 
HSBYGEOWLQMFBK-SNVBAGLBSA-N

>  <fragmenstein_error>  (126) 
['']

>  <ref_pdb>  (126) 
d0615a

>  <Multi-SuCOS>  (126) 
0.702723

>  <SLURM_JOB_NAME>  (126) 
BulkDock.place:Flavi_NS5_RdRp:RdRp_knitwork_thumb_site_2_impure_split4000_batch000

>  <HIPPO Compound ID>  (126) 
6710

>  <original SMILES>  (126) 
CC(C)[C@@H](NS(C)(=O)=O)c1ccncc1

>  <name>  (126) 
HSBYGEOWLQMFBK-SNVBAGLBSA-N

>  <HIPPO Pose ID>  (126) 
51889

>  <ref_mols>  (126) 
d0174a,d0615a

>  <exports>  (126) 
['/opt/xchem-fragalysis-2/maxwin/BulkDock/OUTPUTS/RdRp_knitwork_thumb_site_2_impure_split4000_batch000_211013.sdf', '/opt/xchem-fragalysis-2/maxwin/BulkDock/OUTPUTS/RdRp_knitwork_thumb_site_2_impure_fragalysis.sdf', '/opt/xchem-fragalysis-2/maxwin/RdRp_FFF/syndirella/Retro_OK_batch1.sdf']

>  <alias>  (126) 
None

>  <inchikey>  (126) 
HSBYGEOWLQMFBK-SNVBAGLBSA-N

>  <energy_score>  (126) 
-37.571717

>  <distance_score>  (126) 
0.748127

>  <fragmenstein_outcome>  (126) 
['acceptable']

>  <merge_set>  (126) 
RdRp_knitwork_thumb_site_2_impure_fragalysis.sdf

>  <scratch_subdir>  (126) 
['/opt/xchem-fragalysis-2/maxwin/BulkDock/SCRATCH/211013/C6710-P50']

>  <SLURM_JOB_ID>  (126) 
211013

>  <tags>  (126) 
['Fragmenstein placed', 'RdRp_knitwork_thumb_site_2_impure_fragalysis.sdf Pose OK']

>  <fragmenstein_mode>  (126) 
['expansion']

>  <csv_name>  (126) 
RdRp_knitwork_thumb_site_2_impure_split4000_batch000.csv

$$$$
FKYZVQMLDJQCKR-SSDOTTSWSA-N
     RDKit          3D

 13 13  0  0  0  0  0  0  0  0999 V2000
  -11.5078  -71.1326  -22.7539 C   0  0  0  0  0  0  0  0  0  0  0  0
  -11.6194  -70.5301  -21.3537 C   0  0  1  0  0  0  0  0  0  0  0  0
  -12.9387  -70.9471  -20.8153 N   0  0  0  0  0  0  0  0  0  0  0  0
  -13.8887  -69.7882  -20.0758 S   0  0  0  0  0  0  0  0  0  0  0  0
  -15.2058  -69.6020  -21.2588 C   0  0  0  0  0  0  0  0  0  0  0  0
  -13.1541  -68.5520  -20.0001 O   0  0  0  0  0  0  0  0  0  0  0  0
  -14.4060  -70.4163  -18.8772 O   0  0  0  0  0  0  0  0  0  0  0  0
  -10.4286  -70.8890  -20.4644 C   0  0  0  0  0  0  0  0  0  0  0  0
  -10.5648  -71.0522  -19.0838 C   0  0  0  0  0  0  0  0  0  0  0  0
   -9.4441  -71.3634  -18.3146 C   0  0  0  0  0  0  0  0  0  0  0  0
   -8.2054  -71.4747  -18.9286 C   0  0  0  0  0  0  0  0  0  0  0  0
   -8.1403  -71.2700  -20.2935 C   0  0  0  0  0  0  0  0  0  0  0  0
   -9.2141  -70.9846  -21.0635 N   0  0  0  0  0  0  0  0  0  0  0  0
  2  1  1  6
  2  3  1  0
  3  4  1  0
  4  5  1  0
  4  6  2  0
  4  7  2  0
  2  8  1  0
  8  9  2  0
  9 10  1  0
 10 11  2  0
 11 12  1  0
 12 13  2  0
 13  8  1  0
M  END
>  <fragmenstein_runtime>  (127) 
[1.6375768184661865]

>  <original ID>  (127) 
FKYZVQMLDJQCKR-SSDOTTSWSA-N

>  <fragmenstein_error>  (127) 
['']

>  <ref_pdb>  (127) 
d0615a

>  <Multi-SuCOS>  (127) 
0.806951

>  <SLURM_JOB_NAME>  (127) 
BulkDock.place:Flavi_NS5_RdRp:RdRp_knitwork_thumb_site_2_impure_split4000_batch000

>  <HIPPO Compound ID>  (127) 
6745

>  <original SMILES>  (127) 
C[C@@H](NS(C)(=O)=O)c1ccccn1

>  <name>  (127) 
FKYZVQMLDJQCKR-SSDOTTSWSA-N

>  <HIPPO Pose ID>  (127) 
51903

>  <ref_mols>  (127) 
d0174a,d0615a

>  <exports>  (127) 
['/opt/xchem-fragalysis-2/maxwin/BulkDock/OUTPUTS/RdRp_knitwork_thumb_site_2_impure_split4000_batch000_211013.sdf', '/opt/xchem-fragalysis-2/maxwin/BulkDock/OUTPUTS/RdRp_knitwork_thumb_site_2_impure_fragalysis.sdf', '/opt/xchem-fragalysis-2/maxwin/RdRp_FFF/syndirella/Retro_OK_batch1.sdf']

>  <alias>  (127) 
None

>  <inchikey>  (127) 
FKYZVQMLDJQCKR-SSDOTTSWSA-N

>  <energy_score>  (127) 
-27.526253

>  <distance_score>  (127) 
0.787764

>  <fragmenstein_outcome>  (127) 
['acceptable']

>  <merge_set>  (127) 
RdRp_knitwork_thumb_site_2_impure_fragalysis.sdf

>  <scratch_subdir>  (127) 
['/opt/xchem-fragalysis-2/maxwin/BulkDock/SCRATCH/211013/C6745-P50']

>  <SLURM_JOB_ID>  (127) 
211013

>  <tags>  (127) 
['Fragmenstein placed', 'RdRp_knitwork_thumb_site_2_impure_fragalysis.sdf Pose OK']

>  <fragmenstein_mode>  (127) 
['expansion']

>  <csv_name>  (127) 
RdRp_knitwork_thumb_site_2_impure_split4000_batch000.csv

$$$$
IELXRUKORPMBPJ-VIFPVBQESA-N
     RDKit          3D

 14 14  0  0  0  0  0  0  0  0999 V2000
  -13.4263  -72.1510  -21.3605 C   0  0  0  0  0  0  0  0  0  0  0  0
  -12.9704  -70.9102  -21.1141 C   0  0  0  0  0  0  0  0  0  0  0  0
  -13.8870  -69.8733  -20.5843 C   0  0  0  0  0  0  0  0  0  0  0  0
  -13.6501  -69.2723  -19.5467 O   0  0  0  0  0  0  0  0  0  0  0  0
  -15.0192  -69.6865  -21.3054 O   0  0  0  0  0  0  0  0  0  0  0  0
  -14.8832  -69.5272  -22.7248 C   0  0  0  0  0  0  0  0  0  0  0  0
  -11.5800  -70.4158  -21.3777 C   0  0  2  0  0  0  0  0  0  0  0  0
  -11.2052  -70.7889  -22.7068 O   0  0  0  0  0  0  0  0  0  0  0  0
  -10.4883  -70.8341  -20.4110 C   0  0  0  0  0  0  0  0  0  0  0  0
  -10.7492  -71.2318  -19.0949 C   0  0  0  0  0  0  0  0  0  0  0  0
   -9.6848  -71.5382  -18.2576 C   0  0  0  0  0  0  0  0  0  0  0  0
   -8.3888  -71.4590  -18.6207 N   0  0  0  0  0  0  0  0  0  0  0  0
   -8.1460  -71.0587  -19.8864 C   0  0  0  0  0  0  0  0  0  0  0  0
   -9.1419  -70.7377  -20.7970 C   0  0  0  0  0  0  0  0  0  0  0  0
  1  2  2  0
  2  3  1  0
  3  4  2  0
  3  5  1  0
  5  6  1  0
  2  7  1  0
  7  8  1  6
  7  9  1  0
  9 10  2  0
 10 11  1  0
 11 12  2  0
 12 13  1  0
 13 14  2  0
 14  9  1  0
M  END
>  <fragmenstein_runtime>  (128) 
[1.5419557094573975]

>  <original ID>  (128) 
IELXRUKORPMBPJ-VIFPVBQESA-N

>  <fragmenstein_error>  (128) 
['']

>  <ref_pdb>  (128) 
d0615a

>  <Multi-SuCOS>  (128) 
0.583081

>  <SLURM_JOB_NAME>  (128) 
BulkDock.place:Flavi_NS5_RdRp:RdRp_knitwork_thumb_site_2_impure_split4000_batch000

>  <HIPPO Compound ID>  (128) 
6748

>  <original SMILES>  (128) 
C=C(C(=O)OC)[C@H](O)c1ccncc1

>  <name>  (128) 
IELXRUKORPMBPJ-VIFPVBQESA-N

>  <HIPPO Pose ID>  (128) 
51908

>  <ref_mols>  (128) 
d0174a,d0615a

>  <exports>  (128) 
['/opt/xchem-fragalysis-2/maxwin/BulkDock/OUTPUTS/RdRp_knitwork_thumb_site_2_impure_split4000_batch000_211013.sdf', '/opt/xchem-fragalysis-2/maxwin/BulkDock/OUTPUTS/RdRp_knitwork_thumb_site_2_impure_fragalysis.sdf', '/opt/xchem-fragalysis-2/maxwin/RdRp_FFF/syndirella/Retro_OK_batch1.sdf']

>  <alias>  (128) 
None

>  <inchikey>  (128) 
IELXRUKORPMBPJ-VIFPVBQESA-N

>  <energy_score>  (128) 
-20.67527

>  <distance_score>  (128) 
0.561027

>  <fragmenstein_outcome>  (128) 
['acceptable']

>  <merge_set>  (128) 
RdRp_knitwork_thumb_site_2_impure_fragalysis.sdf

>  <scratch_subdir>  (128) 
['/opt/xchem-fragalysis-2/maxwin/BulkDock/SCRATCH/211013/C6748-P50']

>  <SLURM_JOB_ID>  (128) 
211013

>  <tags>  (128) 
['Fragmenstein placed', 'RdRp_knitwork_thumb_site_2_impure_fragalysis.sdf Pose OK']

>  <fragmenstein_mode>  (128) 
['expansion']

>  <csv_name>  (128) 
RdRp_knitwork_thumb_site_2_impure_split4000_batch000.csv

$$$$
ZXIOPGFTZPIVNB-LLVKDONJSA-N
     RDKit          3D

 14 14  0  0  0  0  0  0  0  0999 V2000
  -16.2626  -70.3626  -24.8821 C   0  0  0  0  0  0  0  0  0  0  0  0
  -15.8900  -70.7712  -23.4693 C   0  0  0  0  0  0  0  0  0  0  0  0
  -14.9762  -69.7438  -22.8129 C   0  0  0  0  0  0  0  0  0  0  0  0
  -14.6885  -70.1870  -21.4841 O   0  0  0  0  0  0  0  0  0  0  0  0
  -13.8129  -69.2811  -20.8192 C   0  0  0  0  0  0  0  0  0  0  0  0
  -12.6858  -70.0420  -20.1393 C   0  0  0  0  0  0  0  0  0  0  0  0
  -11.7412  -70.7855  -21.0930 C   0  0  1  0  0  0  0  0  0  0  0  0
  -11.4182  -69.9634  -22.2237 O   0  0  0  0  0  0  0  0  0  0  0  0
  -10.4532  -71.1572  -20.3654 C   0  0  0  0  0  0  0  0  0  0  0  0
  -10.4574  -72.0520  -19.2989 C   0  0  0  0  0  0  0  0  0  0  0  0
   -9.2604  -72.3069  -18.6338 C   0  0  0  0  0  0  0  0  0  0  0  0
   -8.0951  -71.6754  -19.0539 C   0  0  0  0  0  0  0  0  0  0  0  0
   -8.1715  -70.8084  -20.1297 C   0  0  0  0  0  0  0  0  0  0  0  0
   -9.3184  -70.5320  -20.7883 N   0  0  0  0  0  0  0  0  0  0  0  0
  1  2  1  0
  2  3  1  0
  3  4  1  0
  4  5  1  0
  5  6  1  0
  6  7  1  0
  7  8  1  6
  7  9  1  0
  9 10  2  0
 10 11  1  0
 11 12  2  0
 12 13  1  0
 13 14  2  0
 14  9  1  0
M  END
>  <fragmenstein_runtime>  (129) 
[2.1693172454833984]

>  <original ID>  (129) 
ZXIOPGFTZPIVNB-LLVKDONJSA-N

>  <fragmenstein_error>  (129) 
['']

>  <ref_pdb>  (129) 
d0174a

>  <Multi-SuCOS>  (129) 
0.472812

>  <SLURM_JOB_NAME>  (129) 
BulkDock.place:Flavi_NS5_RdRp:RdRp_knitwork_thumb_site_2_impure_split4000_batch000

>  <HIPPO Compound ID>  (129) 
6749

>  <original SMILES>  (129) 
CCCOCC[C@@H](O)c1ccccn1

>  <name>  (129) 
ZXIOPGFTZPIVNB-LLVKDONJSA-N

>  <HIPPO Pose ID>  (129) 
51910

>  <ref_mols>  (129) 
d0174a,d0615a

>  <exports>  (129) 
['/opt/xchem-fragalysis-2/maxwin/BulkDock/OUTPUTS/RdRp_knitwork_thumb_site_2_impure_split4000_batch000_211013.sdf', '/opt/xchem-fragalysis-2/maxwin/BulkDock/OUTPUTS/RdRp_knitwork_thumb_site_2_impure_fragalysis.sdf', '/opt/xchem-fragalysis-2/maxwin/RdRp_FFF/syndirella/Retro_OK_batch1.sdf']

>  <alias>  (129) 
None

>  <inchikey>  (129) 
ZXIOPGFTZPIVNB-LLVKDONJSA-N

>  <energy_score>  (129) 
-34.586224

>  <distance_score>  (129) 
0.785093

>  <fragmenstein_outcome>  (129) 
['acceptable']

>  <merge_set>  (129) 
RdRp_knitwork_thumb_site_2_impure_fragalysis.sdf

>  <scratch_subdir>  (129) 
['/opt/xchem-fragalysis-2/maxwin/BulkDock/SCRATCH/211013/C6749-P17']

>  <SLURM_JOB_ID>  (129) 
211013

>  <tags>  (129) 
['Fragmenstein placed', 'RdRp_knitwork_thumb_site_2_impure_fragalysis.sdf Pose OK']

>  <fragmenstein_mode>  (129) 
['expansion']

>  <csv_name>  (129) 
RdRp_knitwork_thumb_site_2_impure_split4000_batch000.csv

$$$$
ZXIOPGFTZPIVNB-LLVKDONJSA-N
     RDKit          3D

 14 14  0  0  0  0  0  0  0  0999 V2000
  -16.2021  -71.1144  -23.0928 C   0  0  0  0  0  0  0  0  0  0  0  0
  -15.9461  -69.6215  -23.1928 C   0  0  0  0  0  0  0  0  0  0  0  0
  -14.6257  -69.2173  -22.5566 C   0  0  0  0  0  0  0  0  0  0  0  0
  -14.6801  -69.5180  -21.1560 O   0  0  0  0  0  0  0  0  0  0  0  0
  -13.3739  -69.7061  -20.6016 C   0  0  0  0  0  0  0  0  0  0  0  0
  -12.9002  -71.1299  -20.8949 C   0  0  0  0  0  0  0  0  0  0  0  0
  -11.4532  -71.2421  -21.3750 C   0  0  1  0  0  0  0  0  0  0  0  0
  -11.2143  -70.2975  -22.4301 O   0  0  0  0  0  0  0  0  0  0  0  0
  -10.3398  -71.1507  -20.3473 C   0  0  0  0  0  0  0  0  0  0  0  0
  -10.4158  -71.7764  -19.1061 C   0  0  0  0  0  0  0  0  0  0  0  0
   -9.2842  -71.7991  -18.2927 C   0  0  0  0  0  0  0  0  0  0  0  0
   -8.1071  -71.2124  -18.7402 C   0  0  0  0  0  0  0  0  0  0  0  0
   -8.1123  -70.6013  -19.9812 C   0  0  0  0  0  0  0  0  0  0  0  0
   -9.1953  -70.5530  -20.7855 N   0  0  0  0  0  0  0  0  0  0  0  0
  1  2  1  0
  2  3  1  0
  3  4  1  0
  4  5  1  0
  5  6  1  0
  6  7  1  0
  7  8  1  6
  7  9  1  0
  9 10  2  0
 10 11  1  0
 11 12  2  0
 12 13  1  0
 13 14  2  0
 14  9  1  0
M  END
>  <fragmenstein_runtime>  (130) 
[1.4545605182647705]

>  <original ID>  (130) 
ZXIOPGFTZPIVNB-LLVKDONJSA-N

>  <fragmenstein_error>  (130) 
['']

>  <ref_pdb>  (130) 
d0615a

>  <Multi-SuCOS>  (130) 
0.480465

>  <SLURM_JOB_NAME>  (130) 
BulkDock.place:Flavi_NS5_RdRp:RdRp_knitwork_thumb_site_2_impure_split4000_batch000

>  <HIPPO Compound ID>  (130) 
6749

>  <original SMILES>  (130) 
CCCOCC[C@@H](O)c1ccccn1

>  <name>  (130) 
ZXIOPGFTZPIVNB-LLVKDONJSA-N

>  <HIPPO Pose ID>  (130) 
51911

>  <ref_mols>  (130) 
d0174a,d0615a

>  <exports>  (130) 
['/opt/xchem-fragalysis-2/maxwin/BulkDock/OUTPUTS/RdRp_knitwork_thumb_site_2_impure_split4000_batch000_211013.sdf', '/opt/xchem-fragalysis-2/maxwin/BulkDock/OUTPUTS/RdRp_knitwork_thumb_site_2_impure_fragalysis.sdf', '/opt/xchem-fragalysis-2/maxwin/RdRp_FFF/syndirella/Retro_OK_batch1.sdf']

>  <alias>  (130) 
None

>  <inchikey>  (130) 
ZXIOPGFTZPIVNB-LLVKDONJSA-N

>  <energy_score>  (130) 
-29.894546

>  <distance_score>  (130) 
0.675852

>  <fragmenstein_outcome>  (130) 
['acceptable']

>  <merge_set>  (130) 
RdRp_knitwork_thumb_site_2_impure_fragalysis.sdf

>  <scratch_subdir>  (130) 
['/opt/xchem-fragalysis-2/maxwin/BulkDock/SCRATCH/211013/C6749-P50']

>  <SLURM_JOB_ID>  (130) 
211013

>  <tags>  (130) 
['Fragmenstein placed', 'RdRp_knitwork_thumb_site_2_impure_fragalysis.sdf Pose OK']

>  <fragmenstein_mode>  (130) 
['expansion']

>  <csv_name>  (130) 
RdRp_knitwork_thumb_site_2_impure_split4000_batch000.csv

$$$$
NNCWNFDMEUWHDI-SECBINFHSA-N
     RDKit          3D

 13 13  0  0  0  0  0  0  0  0999 V2000
  -14.9168  -69.1191  -20.5841 C   0  0  0  0  0  0  0  0  0  0  0  0
  -13.6196  -69.5516  -20.9917 O   0  0  0  0  0  0  0  0  0  0  0  0
  -13.1241  -70.6421  -20.3450 C   0  0  0  0  0  0  0  0  0  0  0  0
  -13.6224  -71.1123  -19.3204 O   0  0  0  0  0  0  0  0  0  0  0  0
  -11.9230  -71.2772  -21.0899 C   0  0  2  0  0  0  0  0  0  0  0  0
  -11.7709  -70.7208  -22.5116 C   0  0  0  0  0  0  0  0  0  0  0  0
  -12.2501  -72.6785  -21.2717 O   0  0  0  0  0  0  0  0  0  0  0  0
  -10.6293  -71.1687  -20.2737 C   0  0  0  0  0  0  0  0  0  0  0  0
  -10.5183  -71.7747  -19.0179 C   0  0  0  0  0  0  0  0  0  0  0  0
   -9.2911  -71.7677  -18.3556 C   0  0  0  0  0  0  0  0  0  0  0  0
   -8.1970  -71.1598  -18.9537 C   0  0  0  0  0  0  0  0  0  0  0  0
   -8.3825  -70.5580  -20.1841 C   0  0  0  0  0  0  0  0  0  0  0  0
   -9.5648  -70.5395  -20.8395 N   0  0  0  0  0  0  0  0  0  0  0  0
  1  2  1  0
  2  3  1  0
  3  4  2  0
  3  5  1  0
  5  6  1  6
  5  7  1  0
  5  8  1  0
  8  9  2  0
  9 10  1  0
 10 11  2  0
 11 12  1  0
 12 13  2  0
 13  8  1  0
M  END
>  <fragmenstein_runtime>  (131) 
[1.4895637035369873]

>  <original ID>  (131) 
NNCWNFDMEUWHDI-SECBINFHSA-N

>  <fragmenstein_error>  (131) 
['']

>  <ref_pdb>  (131) 
d0615a

>  <Multi-SuCOS>  (131) 
0.5092

>  <SLURM_JOB_NAME>  (131) 
BulkDock.place:Flavi_NS5_RdRp:RdRp_knitwork_thumb_site_2_impure_split4000_batch000

>  <HIPPO Compound ID>  (131) 
6847

>  <original SMILES>  (131) 
COC(=O)[C@](C)(O)c1ccccn1

>  <name>  (131) 
NNCWNFDMEUWHDI-SECBINFHSA-N

>  <HIPPO Pose ID>  (131) 
51926

>  <ref_mols>  (131) 
d0174a,d0615a

>  <exports>  (131) 
['/opt/xchem-fragalysis-2/maxwin/BulkDock/OUTPUTS/RdRp_knitwork_thumb_site_2_impure_split4000_batch000_211013.sdf', '/opt/xchem-fragalysis-2/maxwin/BulkDock/OUTPUTS/RdRp_knitwork_thumb_site_2_impure_fragalysis.sdf', '/opt/xchem-fragalysis-2/maxwin/RdRp_FFF/syndirella/Retro_OK_batch1.sdf']

>  <alias>  (131) 
None

>  <inchikey>  (131) 
NNCWNFDMEUWHDI-SECBINFHSA-N

>  <energy_score>  (131) 
-24.872105

>  <distance_score>  (131) 
0.949768

>  <fragmenstein_outcome>  (131) 
['acceptable']

>  <merge_set>  (131) 
RdRp_knitwork_thumb_site_2_impure_fragalysis.sdf

>  <scratch_subdir>  (131) 
['/opt/xchem-fragalysis-2/maxwin/BulkDock/SCRATCH/211013/C6847-P50']

>  <SLURM_JOB_ID>  (131) 
211013

>  <tags>  (131) 
['Fragmenstein placed', 'RdRp_knitwork_thumb_site_2_impure_fragalysis.sdf Pose OK']

>  <fragmenstein_mode>  (131) 
['expansion']

>  <csv_name>  (131) 
RdRp_knitwork_thumb_site_2_impure_split4000_batch000.csv

$$$$
CYKGEVWQGIWROI-SECBINFHSA-N
     RDKit          3D

 23 24  0  0  0  0  0  0  0  0999 V2000
  -19.4389  -46.1801  -18.1258 C   0  0  0  0  0  0  0  0  0  0  0  0
  -18.3170  -45.5926  -18.9699 C   0  0  2  0  0  0  0  0  0  0  0  0
  -18.3142  -46.1209  -20.4111 C   0  0  0  0  0  0  0  0  0  0  0  0
  -17.4038  -45.3156  -21.2075 N   0  0  0  0  0  0  0  0  0  0  0  0
  -17.8185  -44.7677  -22.6470 C   0  0  0  0  0  0  0  0  0  0  0  0
  -18.8736  -44.1148  -22.5655 O   0  0  0  0  0  0  0  0  0  0  0  0
  -16.4250  -44.0758  -22.4803 N   0  0  0  0  0  0  0  0  0  0  0  0
  -15.9413  -43.1799  -23.3946 C   0  0  0  0  0  0  0  0  0  0  0  0
  -14.8603  -42.4929  -23.1131 N   0  0  0  0  0  0  0  0  0  0  0  0
  -14.7133  -41.4900  -24.0400 C   0  0  0  0  0  0  0  0  0  0  0  0
  -15.6679  -41.4512  -25.0309 C   0  0  0  0  0  0  0  0  0  0  0  0
  -15.8822  -40.3959  -26.0617 C   0  0  0  0  0  0  0  0  0  0  0  0
  -16.4323  -39.0636  -25.4740 C   0  0  0  0  0  0  0  0  0  0  0  0
  -17.1883  -39.1828  -24.1333 C   0  0  0  0  0  0  0  0  0  0  0  0
  -17.9579  -37.9236  -23.7635 C   0  0  0  0  0  0  0  0  0  0  0  0
  -18.8455  -37.5922  -24.8204 O   0  0  0  0  0  0  0  0  0  0  0  0
  -18.1149  -37.2223  -25.9730 C   0  0  0  0  0  0  0  0  0  0  0  0
  -17.3003  -38.3744  -26.5334 C   0  0  0  0  0  0  0  0  0  0  0  0
  -16.7211  -42.8048  -24.8536 S   0  0  0  0  0  0  0  0  0  0  0  0
  -16.7202  -45.8962  -18.1600 S   0  0  0  0  0  0  0  0  0  0  0  0
  -15.6022  -45.2378  -19.2490 N   0  0  0  0  0  0  0  0  0  0  0  0
  -16.3960  -47.3022  -18.1350 O   0  0  0  0  0  0  0  0  0  0  0  0
  -16.5687  -45.0710  -16.9815 O   0  0  0  0  0  0  0  0  0  0  0  0
  2  1  1  1
  2  3  1  0
  3  4  1  0
  4  5  1  0
  5  6  2  0
  5  7  1  0
  7  8  1  0
  8  9  2  0
  9 10  1  0
 10 11  2  0
 11 12  1  0
 12 13  1  0
 13 14  1  0
 14 15  1  0
 15 16  1  0
 16 17  1  0
 17 18  1  0
 11 19  1  0
  2 20  1  0
 20 21  1  0
 20 22  2  0
 20 23  2  0
 19  8  1  0
 18 13  1  0
M  END
>  <fragmenstein_runtime>  (132) 
[8.47445559501648]

>  <original ID>  (132) 
CYKGEVWQGIWROI-SECBINFHSA-N

>  <fragmenstein_error>  (132) 
['']

>  <ref_pdb>  (132) 
d0254a

>  <Multi-SuCOS>  (132) 
0.556889

>  <SLURM_JOB_NAME>  (132) 
BulkDock.place:Flavi_NS5_RdRp:RdRp_knitwork_primer_grip_n_pocket_impure_split4000_batch003

>  <HIPPO Compound ID>  (132) 
23751

>  <original SMILES>  (132) 
C[C@H](CNC(=O)Nc1ncc(CC2CCOCC2)s1)S(N)(=O)=O

>  <name>  (132) 
CYKGEVWQGIWROI-SECBINFHSA-N

>  <HIPPO Pose ID>  (132) 
51947

>  <ref_mols>  (132) 
d0254a,d0615b

>  <exports>  (132) 
['/opt/xchem-fragalysis-2/maxwin/BulkDock/OUTPUTS/RdRp_knitwork_primer_grip_n_pocket_impure_split4000_batch003_211035.sdf', '/opt/xchem-fragalysis-2/maxwin/BulkDock/OUTPUTS/RdRp_knitwork_primer_grip_n_pocket_impure_fragalysis.sdf', '/opt/xchem-fragalysis-2/maxwin/RdRp_FFF/syndirella/Retro_OK_batch1.sdf']

>  <alias>  (132) 
None

>  <inchikey>  (132) 
CYKGEVWQGIWROI-SECBINFHSA-N

>  <energy_score>  (132) 
-23.136585

>  <distance_score>  (132) 
0.901757

>  <fragmenstein_outcome>  (132) 
['acceptable']

>  <merge_set>  (132) 
RdRp_knitwork_primer_grip_n_pocket_impure_fragalysis.sdf

>  <scratch_subdir>  (132) 
['/opt/xchem-fragalysis-2/maxwin/BulkDock/SCRATCH/211035/C23751-P26']

>  <SLURM_JOB_ID>  (132) 
211035

>  <tags>  (132) 
['Fragmenstein placed', 'RdRp_knitwork_primer_grip_n_pocket_impure_fragalysis.sdf Pose OK']

>  <fragmenstein_mode>  (132) 
['expansion']

>  <csv_name>  (132) 
RdRp_knitwork_primer_grip_n_pocket_impure_split4000_batch003.csv

$$$$
SSUIBPIVLLKLDS-JTQLQIEISA-N
     RDKit          3D

 13 13  0  0  0  0  0  0  0  0999 V2000
  -16.1151  -70.1331  -23.7815 C   0  0  0  0  0  0  0  0  0  0  0  0
  -14.8836  -69.8417  -22.9399 C   0  0  0  0  0  0  0  0  0  0  0  0
  -15.1448  -70.1232  -21.4639 C   0  0  0  0  0  0  0  0  0  0  0  0
  -13.9986  -69.8233  -20.6721 O   0  0  0  0  0  0  0  0  0  0  0  0
  -13.0243  -70.8837  -20.6157 C   0  0  0  0  0  0  0  0  0  0  0  0
  -11.6441  -70.2261  -20.7771 C   0  0  2  0  0  0  0  0  0  0  0  0
  -11.4723  -69.9350  -22.1727 O   0  0  0  0  0  0  0  0  0  0  0  0
  -10.4302  -70.9375  -20.2350 C   0  0  0  0  0  0  0  0  0  0  0  0
  -10.4667  -71.7806  -19.1184 C   0  0  0  0  0  0  0  0  0  0  0  0
   -9.2846  -72.2963  -18.5887 C   0  0  0  0  0  0  0  0  0  0  0  0
   -8.0870  -71.9424  -19.1824 C   0  0  0  0  0  0  0  0  0  0  0  0
   -8.0001  -71.1222  -20.2458 N   0  0  0  0  0  0  0  0  0  0  0  0
   -9.1647  -70.6453  -20.7479 C   0  0  0  0  0  0  0  0  0  0  0  0
  1  2  1  0
  2  3  1  0
  3  4  1  0
  4  5  1  0
  5  6  1  0
  6  7  1  6
  6  8  1  0
  8  9  2  0
  9 10  1  0
 10 11  2  0
 11 12  1  0
 12 13  2  0
 13  8  1  0
M  END
>  <fragmenstein_runtime>  (133) 
[1.394970417022705]

>  <original ID>  (133) 
SSUIBPIVLLKLDS-JTQLQIEISA-N

>  <fragmenstein_error>  (133) 
['']

>  <ref_pdb>  (133) 
d0174a

>  <Multi-SuCOS>  (133) 
0.602754

>  <SLURM_JOB_NAME>  (133) 
BulkDock.place:Flavi_NS5_RdRp:RdRp_knitwork_thumb_site_2_impure_split4000_batch000

>  <HIPPO Compound ID>  (133) 
6935

>  <original SMILES>  (133) 
CCCOC[C@H](O)c1cccnc1

>  <name>  (133) 
SSUIBPIVLLKLDS-JTQLQIEISA-N

>  <HIPPO Pose ID>  (133) 
51969

>  <ref_mols>  (133) 
d0174a,d0615a

>  <exports>  (133) 
['/opt/xchem-fragalysis-2/maxwin/BulkDock/OUTPUTS/RdRp_knitwork_thumb_site_2_impure_split4000_batch000_211013.sdf', '/opt/xchem-fragalysis-2/maxwin/BulkDock/OUTPUTS/RdRp_knitwork_thumb_site_2_impure_fragalysis.sdf', '/opt/xchem-fragalysis-2/maxwin/RdRp_FFF/syndirella/Retro_OK_batch1.sdf']

>  <alias>  (133) 
None

>  <inchikey>  (133) 
SSUIBPIVLLKLDS-JTQLQIEISA-N

>  <energy_score>  (133) 
-15.597914

>  <distance_score>  (133) 
0.642345

>  <fragmenstein_outcome>  (133) 
['acceptable']

>  <merge_set>  (133) 
RdRp_knitwork_thumb_site_2_impure_fragalysis.sdf

>  <scratch_subdir>  (133) 
['/opt/xchem-fragalysis-2/maxwin/BulkDock/SCRATCH/211013/C6935-P17']

>  <SLURM_JOB_ID>  (133) 
211013

>  <tags>  (133) 
['Fragmenstein placed', 'RdRp_knitwork_thumb_site_2_impure_fragalysis.sdf Pose OK']

>  <fragmenstein_mode>  (133) 
['expansion']

>  <csv_name>  (133) 
RdRp_knitwork_thumb_site_2_impure_split4000_batch000.csv

$$$$
SSUIBPIVLLKLDS-JTQLQIEISA-N
     RDKit          3D

 13 13  0  0  0  0  0  0  0  0999 V2000
  -15.8959  -70.0541  -23.7584 C   0  0  0  0  0  0  0  0  0  0  0  0
  -14.7163  -69.7756  -22.8409 C   0  0  0  0  0  0  0  0  0  0  0  0
  -15.0841  -70.0480  -21.3859 C   0  0  0  0  0  0  0  0  0  0  0  0
  -13.9857  -69.8527  -20.4978 O   0  0  0  0  0  0  0  0  0  0  0  0
  -13.0068  -70.9076  -20.5210 C   0  0  0  0  0  0  0  0  0  0  0  0
  -11.6177  -70.3014  -20.8087 C   0  0  2  0  0  0  0  0  0  0  0  0
  -11.4387  -70.1888  -22.2274 O   0  0  0  0  0  0  0  0  0  0  0  0
  -10.3978  -70.9562  -20.2049 C   0  0  0  0  0  0  0  0  0  0  0  0
  -10.4265  -72.0189  -19.2987 C   0  0  0  0  0  0  0  0  0  0  0  0
   -9.2406  -72.4855  -18.7319 C   0  0  0  0  0  0  0  0  0  0  0  0
   -8.0503  -71.8814  -19.0944 C   0  0  0  0  0  0  0  0  0  0  0  0
   -7.9737  -70.8589  -19.9657 N   0  0  0  0  0  0  0  0  0  0  0  0
   -9.1389  -70.4225  -20.4972 C   0  0  0  0  0  0  0  0  0  0  0  0
  1  2  1  0
  2  3  1  0
  3  4  1  0
  4  5  1  0
  5  6  1  0
  6  7  1  6
  6  8  1  0
  8  9  2  0
  9 10  1  0
 10 11  2  0
 11 12  1  0
 12 13  2  0
 13  8  1  0
M  END
>  <fragmenstein_runtime>  (134) 
[1.6935410499572754]

>  <original ID>  (134) 
SSUIBPIVLLKLDS-JTQLQIEISA-N

>  <fragmenstein_error>  (134) 
['']

>  <ref_pdb>  (134) 
d0615a

>  <Multi-SuCOS>  (134) 
0.602655

>  <SLURM_JOB_NAME>  (134) 
BulkDock.place:Flavi_NS5_RdRp:RdRp_knitwork_thumb_site_2_impure_split4000_batch000

>  <HIPPO Compound ID>  (134) 
6935

>  <original SMILES>  (134) 
CCCOC[C@H](O)c1cccnc1

>  <name>  (134) 
SSUIBPIVLLKLDS-JTQLQIEISA-N

>  <HIPPO Pose ID>  (134) 
51973

>  <ref_mols>  (134) 
d0174a,d0615a

>  <exports>  (134) 
['/opt/xchem-fragalysis-2/maxwin/BulkDock/OUTPUTS/RdRp_knitwork_thumb_site_2_impure_split4000_batch000_211013.sdf', '/opt/xchem-fragalysis-2/maxwin/BulkDock/OUTPUTS/RdRp_knitwork_thumb_site_2_impure_fragalysis.sdf', '/opt/xchem-fragalysis-2/maxwin/RdRp_FFF/syndirella/Retro_OK_batch1.sdf']

>  <alias>  (134) 
None

>  <inchikey>  (134) 
SSUIBPIVLLKLDS-JTQLQIEISA-N

>  <energy_score>  (134) 
-10.955179

>  <distance_score>  (134) 
0.696576

>  <fragmenstein_outcome>  (134) 
['acceptable']

>  <merge_set>  (134) 
RdRp_knitwork_thumb_site_2_impure_fragalysis.sdf

>  <scratch_subdir>  (134) 
['/opt/xchem-fragalysis-2/maxwin/BulkDock/SCRATCH/211013/C6935-P50']

>  <SLURM_JOB_ID>  (134) 
211013

>  <tags>  (134) 
['Fragmenstein placed', 'RdRp_knitwork_thumb_site_2_impure_fragalysis.sdf Pose OK']

>  <fragmenstein_mode>  (134) 
['expansion']

>  <csv_name>  (134) 
RdRp_knitwork_thumb_site_2_impure_split4000_batch000.csv

$$$$
JOUKTDMORMFDAW-SNVBAGLBSA-N
     RDKit          3D

 14 14  0  0  0  0  0  0  0  0999 V2000
  -14.1001  -69.3225  -23.0064 C   0  0  0  0  0  0  0  0  0  0  0  0
  -14.5875  -69.5173  -21.5664 C   0  0  0  0  0  0  0  0  0  0  0  0
  -14.8735  -68.1423  -20.9661 C   0  0  0  0  0  0  0  0  0  0  0  0
  -15.8854  -70.3298  -21.5611 C   0  0  0  0  0  0  0  0  0  0  0  0
  -13.5987  -70.0944  -20.6864 O   0  0  0  0  0  0  0  0  0  0  0  0
  -13.0314  -71.3409  -21.0996 C   0  0  0  0  0  0  0  0  0  0  0  0
  -11.5380  -71.2729  -21.4870 C   0  0  1  0  0  0  0  0  0  0  0  0
  -11.3005  -70.2613  -22.4785 O   0  0  0  0  0  0  0  0  0  0  0  0
  -10.4807  -71.1708  -20.4013 C   0  0  0  0  0  0  0  0  0  0  0  0
  -10.6331  -71.7208  -19.1324 C   0  0  0  0  0  0  0  0  0  0  0  0
   -9.5339  -71.7523  -18.2741 C   0  0  0  0  0  0  0  0  0  0  0  0
   -8.3125  -71.2467  -18.7019 C   0  0  0  0  0  0  0  0  0  0  0  0
   -8.2410  -70.7012  -19.9701 C   0  0  0  0  0  0  0  0  0  0  0  0
   -9.2896  -70.6474  -20.8186 N   0  0  0  0  0  0  0  0  0  0  0  0
  1  2  1  0
  2  3  1  0
  2  4  1  0
  2  5  1  0
  5  6  1  0
  6  7  1  0
  7  8  1  6
  7  9  1  0
  9 10  2  0
 10 11  1  0
 11 12  2  0
 12 13  1  0
 13 14  2  0
 14  9  1  0
M  END
>  <fragmenstein_runtime>  (135) 
[2.3824613094329834]

>  <original ID>  (135) 
JOUKTDMORMFDAW-SNVBAGLBSA-N

>  <fragmenstein_error>  (135) 
['']

>  <ref_pdb>  (135) 
d0174a

>  <Multi-SuCOS>  (135) 
0.498788

>  <SLURM_JOB_NAME>  (135) 
BulkDock.place:Flavi_NS5_RdRp:RdRp_knitwork_thumb_site_2_impure_split4000_batch000

>  <HIPPO Compound ID>  (135) 
6945

>  <original SMILES>  (135) 
CC(C)(C)OC[C@@H](O)c1ccccn1

>  <name>  (135) 
JOUKTDMORMFDAW-SNVBAGLBSA-N

>  <HIPPO Pose ID>  (135) 
51974

>  <ref_mols>  (135) 
d0174a,d0615a

>  <exports>  (135) 
['/opt/xchem-fragalysis-2/maxwin/BulkDock/OUTPUTS/RdRp_knitwork_thumb_site_2_impure_split4000_batch000_211013.sdf', '/opt/xchem-fragalysis-2/maxwin/BulkDock/OUTPUTS/RdRp_knitwork_thumb_site_2_impure_fragalysis.sdf', '/opt/xchem-fragalysis-2/maxwin/RdRp_FFF/syndirella/Retro_OK_batch1.sdf']

>  <alias>  (135) 
None

>  <inchikey>  (135) 
JOUKTDMORMFDAW-SNVBAGLBSA-N

>  <energy_score>  (135) 
-26.894056

>  <distance_score>  (135) 
0.609534

>  <fragmenstein_outcome>  (135) 
['acceptable']

>  <merge_set>  (135) 
RdRp_knitwork_thumb_site_2_impure_fragalysis.sdf

>  <scratch_subdir>  (135) 
['/opt/xchem-fragalysis-2/maxwin/BulkDock/SCRATCH/211013/C6945-P17']

>  <SLURM_JOB_ID>  (135) 
211013

>  <tags>  (135) 
['Fragmenstein placed', 'RdRp_knitwork_thumb_site_2_impure_fragalysis.sdf Pose OK']

>  <fragmenstein_mode>  (135) 
['expansion']

>  <csv_name>  (135) 
RdRp_knitwork_thumb_site_2_impure_split4000_batch000.csv

$$$$
KGPMAROHLPCGEI-SNVBAGLBSA-N
     RDKit          3D

 21 21  0  0  0  0  0  0  0  0999 V2000
  -10.1222  -71.1526  -23.6117 C   0  0  0  0  0  0  0  0  0  0  0  0
  -11.3929  -71.4030  -22.8167 C   0  0  0  0  0  0  0  0  0  0  0  0
  -11.4708  -70.6477  -21.4846 C   0  0  1  0  0  0  0  0  0  0  0  0
  -12.8132  -70.8897  -20.9099 N   0  0  0  0  0  0  0  0  0  0  0  0
  -13.6044  -69.6298  -20.1816 S   0  0  0  0  0  0  0  0  0  0  0  0
  -12.6067  -68.7792  -19.5863 O   0  0  0  0  0  0  0  0  0  0  0  0
  -14.6667  -70.1986  -19.3818 O   0  0  0  0  0  0  0  0  0  0  0  0
  -14.3139  -68.7121  -21.5249 C   0  0  0  0  0  0  0  0  0  0  0  0
  -15.5650  -69.2896  -22.1352 C   0  0  0  0  0  0  0  0  0  0  0  0
  -15.2964  -70.3757  -23.1498 C   0  0  0  0  0  0  0  0  0  0  0  0
  -14.3132  -69.9682  -23.9904 F   0  0  0  0  0  0  0  0  0  0  0  0
  -14.8276  -71.4821  -22.5122 F   0  0  0  0  0  0  0  0  0  0  0  0
  -16.5590  -70.7074  -23.9352 C   0  0  0  0  0  0  0  0  0  0  0  0
  -17.0924  -69.5903  -24.5032 F   0  0  0  0  0  0  0  0  0  0  0  0
  -16.2717  -71.5604  -24.9491 F   0  0  0  0  0  0  0  0  0  0  0  0
  -10.3619  -71.0236  -20.5236 C   0  0  0  0  0  0  0  0  0  0  0  0
  -10.5022  -72.0205  -19.5518 C   0  0  0  0  0  0  0  0  0  0  0  0
   -9.4355  -72.3331  -18.7118 C   0  0  0  0  0  0  0  0  0  0  0  0
   -8.2461  -71.6462  -18.8767 C   0  0  0  0  0  0  0  0  0  0  0  0
   -8.0657  -70.6759  -19.7942 N   0  0  0  0  0  0  0  0  0  0  0  0
   -9.1246  -70.3817  -20.5846 C   0  0  0  0  0  0  0  0  0  0  0  0
  1  2  1  0
  3  2  1  6
  3  4  1  0
  4  5  1  0
  5  6  2  0
  5  7  2  0
  5  8  1  0
  8  9  1  0
  9 10  1  0
 10 11  1  0
 10 12  1  0
 10 13  1  0
 13 14  1  0
 13 15  1  0
  3 16  1  0
 16 17  2  0
 17 18  1  0
 18 19  2  0
 19 20  1  0
 20 21  2  0
 21 16  1  0
M  END
>  <fragmenstein_runtime>  (136) 
[3.2299387454986572]

>  <original ID>  (136) 
KGPMAROHLPCGEI-SNVBAGLBSA-N

>  <fragmenstein_error>  (136) 
['']

>  <ref_pdb>  (136) 
d0615a

>  <Multi-SuCOS>  (136) 
0.613429

>  <SLURM_JOB_NAME>  (136) 
BulkDock.place:Flavi_NS5_RdRp:RdRp_knitwork_thumb_site_2_impure_split4000_batch000

>  <HIPPO Compound ID>  (136) 
6950

>  <original SMILES>  (136) 
CC[C@@H](NS(=O)(=O)CCC(F)(F)C(F)F)c1cccnc1

>  <name>  (136) 
KGPMAROHLPCGEI-SNVBAGLBSA-N

>  <HIPPO Pose ID>  (136) 
51980

>  <ref_mols>  (136) 
d0174a,d0615a

>  <exports>  (136) 
['/opt/xchem-fragalysis-2/maxwin/BulkDock/OUTPUTS/RdRp_knitwork_thumb_site_2_impure_split4000_batch000_211013.sdf', '/opt/xchem-fragalysis-2/maxwin/BulkDock/OUTPUTS/RdRp_knitwork_thumb_site_2_impure_fragalysis.sdf', '/opt/xchem-fragalysis-2/maxwin/RdRp_FFF/syndirella/Retro_OK_batch1.sdf']

>  <alias>  (136) 
None

>  <inchikey>  (136) 
KGPMAROHLPCGEI-SNVBAGLBSA-N

>  <energy_score>  (136) 
-66.53151

>  <distance_score>  (136) 
0.923923

>  <fragmenstein_outcome>  (136) 
['acceptable']

>  <merge_set>  (136) 
RdRp_knitwork_thumb_site_2_impure_fragalysis.sdf

>  <scratch_subdir>  (136) 
['/opt/xchem-fragalysis-2/maxwin/BulkDock/SCRATCH/211013/C6950-P50']

>  <SLURM_JOB_ID>  (136) 
211013

>  <tags>  (136) 
['Fragmenstein placed', 'RdRp_knitwork_thumb_site_2_impure_fragalysis.sdf Pose OK']

>  <fragmenstein_mode>  (136) 
['expansion']

>  <csv_name>  (136) 
RdRp_knitwork_thumb_site_2_impure_split4000_batch000.csv

$$$$
VBOACUTYNJLSJJ-UHFFFAOYSA-N
     RDKit          3D

 13 14  0  0  0  0  0  0  0  0999 V2000
  -15.0131  -41.5018  -24.1644 C   0  0  0  0  0  0  0  0  0  0  0  0
  -14.8122  -41.2289  -22.8211 C   0  0  0  0  0  0  0  0  0  0  0  0
  -15.3379  -42.0961  -21.8654 C   0  0  0  0  0  0  0  0  0  0  0  0
  -16.0814  -43.2095  -22.2644 C   0  0  0  0  0  0  0  0  0  0  0  0
  -16.6844  -44.0142  -21.2828 N   0  0  0  0  0  0  0  0  0  0  0  0
  -17.8357  -44.7796  -21.7640 C   0  0  0  0  0  0  0  0  0  0  0  0
  -18.3427  -45.8183  -20.7678 C   0  0  0  0  0  0  0  0  0  0  0  0
  -18.4838  -45.2970  -19.3520 C   0  0  0  0  0  0  0  0  0  0  0  0
  -17.2894  -45.5262  -18.6129 O   0  0  0  0  0  0  0  0  0  0  0  0
  -16.2278  -44.6265  -18.9321 C   0  0  0  0  0  0  0  0  0  0  0  0
  -15.7355  -44.7044  -20.3879 C   0  0  0  0  0  0  0  0  0  0  0  0
  -16.2978  -43.4555  -23.5740 N   0  0  0  0  0  0  0  0  0  0  0  0
  -15.7409  -42.6286  -24.4876 C   0  0  0  0  0  0  0  0  0  0  0  0
  1  2  2  0
  2  3  1  0
  3  4  2  0
  4  5  1  0
  5  6  1  0
  6  7  1  0
  7  8  1  0
  8  9  1  0
  9 10  1  0
 10 11  1  0
  4 12  1  0
 12 13  2  0
 13  1  1  0
 11  5  1  0
M  END
>  <fragmenstein_runtime>  (137) 
[1.7767224311828613]

>  <original ID>  (137) 
VBOACUTYNJLSJJ-UHFFFAOYSA-N

>  <fragmenstein_error>  (137) 
['']

>  <ref_pdb>  (137) 
d0615b

>  <Multi-SuCOS>  (137) 
0.470325

>  <SLURM_JOB_NAME>  (137) 
BulkDock.place:Flavi_NS5_RdRp:RdRp_knitwork_primer_grip_n_pocket_impure_split4000_batch003

>  <HIPPO Compound ID>  (137) 
14654

>  <original SMILES>  (137) 
c1ccc(N2CCCOCC2)nc1

>  <name>  (137) 
VBOACUTYNJLSJJ-UHFFFAOYSA-N

>  <HIPPO Pose ID>  (137) 
52068

>  <ref_mols>  (137) 
d0254a,d0615b

>  <exports>  (137) 
['/opt/xchem-fragalysis-2/maxwin/BulkDock/OUTPUTS/RdRp_knitwork_primer_grip_n_pocket_impure_split4000_batch003_211035.sdf', '/opt/xchem-fragalysis-2/maxwin/BulkDock/OUTPUTS/RdRp_knitwork_primer_grip_n_pocket_impure_fragalysis.sdf', '/opt/xchem-fragalysis-2/maxwin/RdRp_FFF/syndirella/Retro_OK_batch1.sdf']

>  <alias>  (137) 
None

>  <inchikey>  (137) 
VBOACUTYNJLSJJ-UHFFFAOYSA-N

>  <energy_score>  (137) 
-18.649234

>  <distance_score>  (137) 
0.956436

>  <fragmenstein_outcome>  (137) 
['acceptable']

>  <merge_set>  (137) 
RdRp_knitwork_primer_grip_n_pocket_impure_fragalysis.sdf

>  <scratch_subdir>  (137) 
['/opt/xchem-fragalysis-2/maxwin/BulkDock/SCRATCH/211035/C14654-P51']

>  <SLURM_JOB_ID>  (137) 
211035

>  <tags>  (137) 
['Fragmenstein placed', 'RdRp_knitwork_primer_grip_n_pocket_impure_fragalysis.sdf Pose OK']

>  <fragmenstein_mode>  (137) 
['expansion']

>  <csv_name>  (137) 
RdRp_knitwork_primer_grip_n_pocket_impure_split4000_batch003.csv

$$$$
WAGVYTPQQZVQJF-UHFFFAOYSA-N
     RDKit          3D

 11 12  0  0  0  0  0  0  0  0999 V2000
  -13.6225  -40.9508  -21.9061 C   0  0  0  0  0  0  0  0  0  0  0  0
  -14.2305  -42.2172  -21.8834 C   0  0  0  0  0  0  0  0  0  0  0  0
  -15.1542  -42.3469  -22.8359 N   0  0  0  0  0  0  0  0  0  0  0  0
  -15.0633  -41.1999  -23.5450 N   0  0  0  0  0  0  0  0  0  0  0  0
  -15.9468  -40.9844  -24.6905 C   0  0  0  0  0  0  0  0  0  0  0  0
  -15.3174  -40.1692  -25.8242 C   0  0  0  0  0  0  0  0  0  0  0  0
  -16.2483  -40.0344  -27.0282 C   0  0  0  0  0  0  0  0  0  0  0  0
  -17.4423  -40.8037  -26.8890 O   0  0  0  0  0  0  0  0  0  0  0  0
  -17.1407  -42.1602  -26.5931 C   0  0  0  0  0  0  0  0  0  0  0  0
  -16.4858  -42.3103  -25.2381 C   0  0  0  0  0  0  0  0  0  0  0  0
  -14.1912  -40.3082  -22.9815 C   0  0  0  0  0  0  0  0  0  0  0  0
  1  2  1  0
  2  3  2  0
  3  4  1  0
  4  5  1  0
  5  6  1  0
  6  7  1  0
  7  8  1  0
  8  9  1  0
  9 10  1  0
  4 11  1  0
 11  1  2  0
 10  5  1  0
M  END
>  <fragmenstein_runtime>  (138) 
[2.4670777320861816]

>  <original ID>  (138) 
WAGVYTPQQZVQJF-UHFFFAOYSA-N

>  <fragmenstein_error>  (138) 
['']

>  <ref_pdb>  (138) 
d0160a

>  <Multi-SuCOS>  (138) 
0.736314

>  <SLURM_JOB_NAME>  (138) 
BulkDock.place:Flavi_NS5_RdRp:RdRp_knitwork_primer_grip_n_pocket_impure_split4000_batch005

>  <HIPPO Compound ID>  (138) 
23931

>  <original SMILES>  (138) 
c1cnn(C2CCOCC2)c1

>  <name>  (138) 
WAGVYTPQQZVQJF-UHFFFAOYSA-N

>  <HIPPO Pose ID>  (138) 
52333

>  <ref_mols>  (138) 
d0160a,d0254a

>  <exports>  (138) 
['/opt/xchem-fragalysis-2/maxwin/BulkDock/OUTPUTS/RdRp_knitwork_primer_grip_n_pocket_impure_split4000_batch005_211037.sdf', '/opt/xchem-fragalysis-2/maxwin/BulkDock/OUTPUTS/RdRp_knitwork_primer_grip_n_pocket_impure_fragalysis.sdf', '/opt/xchem-fragalysis-2/maxwin/RdRp_FFF/syndirella/Retro_OK_batch1.sdf']

>  <alias>  (138) 
None

>  <inchikey>  (138) 
WAGVYTPQQZVQJF-UHFFFAOYSA-N

>  <energy_score>  (138) 
-19.775767

>  <distance_score>  (138) 
0.828961

>  <fragmenstein_outcome>  (138) 
['acceptable']

>  <merge_set>  (138) 
RdRp_knitwork_primer_grip_n_pocket_impure_fragalysis.sdf

>  <scratch_subdir>  (138) 
['/opt/xchem-fragalysis-2/maxwin/BulkDock/SCRATCH/211037/C23931-P12']

>  <SLURM_JOB_ID>  (138) 
211037

>  <tags>  (138) 
['Fragmenstein placed', 'RdRp_knitwork_primer_grip_n_pocket_impure_fragalysis.sdf Pose OK']

>  <fragmenstein_mode>  (138) 
['expansion']

>  <csv_name>  (138) 
RdRp_knitwork_primer_grip_n_pocket_impure_split4000_batch005.csv

$$$$
NICHNLZHGMPFGC-CHWSQXEVSA-N
     RDKit          3D

 21 22  0  0  0  0  0  0  0  0999 V2000
  -18.0966  -45.5413  -18.2621 C   0  0  0  0  0  0  0  0  0  0  0  0
  -19.3353  -45.5939  -19.5772 S   0  0  0  0  0  0  0  0  0  0  0  0
  -18.2303  -45.9801  -20.9757 C   0  0  0  0  0  0  0  0  0  0  0  0
  -17.9454  -44.6856  -21.7478 C   0  0  2  0  0  0  0  0  0  0  0  0
  -18.7927  -44.5936  -23.0195 C   0  0  0  0  0  0  0  0  0  0  0  0
  -16.4661  -44.6058  -22.1021 C   0  0  0  0  0  0  0  0  0  0  0  0
  -16.0741  -43.2188  -22.2720 N   0  0  0  0  0  0  0  0  0  0  0  0
  -14.8781  -43.0370  -23.0803 C   0  0  2  0  0  0  0  0  0  0  0  0
  -13.7498  -43.9640  -22.6708 C   0  0  0  0  0  0  0  0  0  0  0  0
  -14.5444  -41.5829  -22.9804 C   0  0  0  0  0  0  0  0  0  0  0  0
  -13.9008  -40.9092  -21.9584 C   0  0  0  0  0  0  0  0  0  0  0  0
  -13.8370  -39.6074  -22.3370 N   0  0  0  0  0  0  0  0  0  0  0  0
  -13.2462  -38.5173  -21.6012 C   0  0  0  0  0  0  0  0  0  0  0  0
  -14.4020  -39.3678  -23.5291 N   0  0  0  0  0  0  0  0  0  0  0  0
  -14.8620  -40.5646  -23.9278 C   0  0  0  0  0  0  0  0  0  0  0  0
  -15.5711  -40.7474  -25.2491 C   0  0  0  0  0  0  0  0  0  0  0  0
  -15.7310  -39.4527  -26.0407 C   0  0  0  0  0  0  0  0  0  0  0  0
  -16.4943  -39.6856  -27.3322 C   0  0  0  0  0  0  0  0  0  0  0  0
  -17.7511  -40.3312  -27.1285 O   0  0  0  0  0  0  0  0  0  0  0  0
  -17.5974  -41.5803  -26.4729 C   0  0  0  0  0  0  0  0  0  0  0  0
  -16.9570  -41.3959  -25.1123 C   0  0  0  0  0  0  0  0  0  0  0  0
  1  2  1  0
  2  3  1  0
  3  4  1  0
  4  5  1  6
  4  6  1  0
  6  7  1  0
  7  8  1  0
  8  9  1  1
  8 10  1  0
 10 11  2  0
 11 12  1  0
 12 13  1  0
 12 14  1  0
 14 15  2  0
 15 16  1  0
 16 17  1  0
 17 18  1  0
 18 19  1  0
 19 20  1  0
 20 21  1  0
 15 10  1  0
 21 16  1  0
M  END
>  <fragmenstein_runtime>  (139) 
[104.23955249786377]

>  <original ID>  (139) 
NICHNLZHGMPFGC-CHWSQXEVSA-N

>  <fragmenstein_error>  (139) 
['']

>  <ref_pdb>  (139) 
d0160a

>  <Multi-SuCOS>  (139) 
0.544702

>  <SLURM_JOB_NAME>  (139) 
BulkDock.place:Flavi_NS5_RdRp:RdRp_knitwork_primer_grip_n_pocket_impure_split4000_batch005

>  <HIPPO Compound ID>  (139) 
24397

>  <original SMILES>  (139) 
CSC[C@H](C)CN[C@H](C)c1cn(C)nc1C1CCOCC1

>  <name>  (139) 
NICHNLZHGMPFGC-CHWSQXEVSA-N

>  <HIPPO Pose ID>  (139) 
52600

>  <ref_mols>  (139) 
d0160a,d0254a

>  <exports>  (139) 
['/opt/xchem-fragalysis-2/maxwin/BulkDock/OUTPUTS/RdRp_knitwork_primer_grip_n_pocket_impure_split4000_batch005_211037.sdf', '/opt/xchem-fragalysis-2/maxwin/BulkDock/OUTPUTS/RdRp_knitwork_primer_grip_n_pocket_impure_fragalysis.sdf', '/opt/xchem-fragalysis-2/maxwin/RdRp_FFF/syndirella/Retro_OK_batch1.sdf']

>  <alias>  (139) 
None

>  <inchikey>  (139) 
NICHNLZHGMPFGC-CHWSQXEVSA-N

>  <energy_score>  (139) 
-64.459035

>  <distance_score>  (139) 
0.727262

>  <fragmenstein_outcome>  (139) 
['acceptable']

>  <merge_set>  (139) 
RdRp_knitwork_primer_grip_n_pocket_impure_fragalysis.sdf

>  <scratch_subdir>  (139) 
['/opt/xchem-fragalysis-2/maxwin/BulkDock/SCRATCH/211037/C24397-P12']

>  <SLURM_JOB_ID>  (139) 
211037

>  <tags>  (139) 
['Fragmenstein placed', 'RdRp_knitwork_primer_grip_n_pocket_impure_fragalysis.sdf Pose OK']

>  <fragmenstein_mode>  (139) 
['expansion']

>  <csv_name>  (139) 
RdRp_knitwork_primer_grip_n_pocket_impure_split4000_batch005.csv

$$$$
LKTUJWQNQDRKOS-RKDXNWHRSA-N
     RDKit          3D

 22 23  0  0  0  0  0  0  0  0999 V2000
  -20.6741  -43.8712  -21.3272 C   0  0  0  0  0  0  0  0  0  0  0  0
  -19.6588  -44.3983  -20.3888 C   0  0  0  0  0  0  0  0  0  0  0  0
  -18.4015  -44.6501  -20.8992 N   0  0  0  0  0  0  0  0  0  0  0  0
  -17.5476  -44.8348  -19.9092 C   0  0  0  0  0  0  0  0  0  0  0  0
  -16.0926  -44.6173  -20.0390 C   0  0  0  0  0  0  0  0  0  0  0  0
  -15.5513  -44.2668  -21.2759 C   0  0  0  0  0  0  0  0  0  0  0  0
  -14.2508  -43.7761  -21.3256 C   0  0  0  0  0  0  0  0  0  0  0  0
  -13.5306  -43.6395  -20.1472 C   0  0  0  0  0  0  0  0  0  0  0  0
  -14.1238  -44.0437  -18.9682 C   0  0  0  0  0  0  0  0  0  0  0  0
  -15.3715  -44.5533  -18.8874 N   0  0  0  0  0  0  0  0  0  0  0  0
  -18.2814  -45.0845  -18.3671 S   0  0  0  0  0  0  0  0  0  0  0  0
  -19.7861  -44.5733  -19.0169 C   0  0  0  0  0  0  0  0  0  0  0  0
  -20.9239  -44.1306  -18.1592 C   0  0  0  0  0  0  0  0  0  0  0  0
  -20.9617  -43.8986  -16.9330 O   0  0  0  0  0  0  0  0  0  0  0  0
  -21.2732  -45.5836  -18.1605 N   0  0  0  0  0  0  0  0  0  0  0  0
  -22.5037  -46.1052  -17.5327 C   0  0  2  0  0  0  0  0  0  0  0  0
  -23.6092  -45.0736  -17.3567 C   0  0  0  0  0  0  0  0  0  0  0  0
  -22.2282  -47.0120  -16.3165 C   0  0  1  0  0  0  0  0  0  0  0  0
  -23.1882  -46.8600  -15.1374 C   0  0  0  0  0  0  0  0  0  0  0  0
  -22.2581  -48.4484  -16.7888 C   0  0  0  0  0  0  0  0  0  0  0  0
  -21.2987  -49.1940  -16.8451 O   0  0  0  0  0  0  0  0  0  0  0  0
  -23.4559  -48.8766  -17.2241 O   0  0  0  0  0  0  0  0  0  0  0  0
  1  2  1  0
  2  3  1  0
  3  4  2  0
  4  5  1  0
  5  6  2  0
  6  7  1  0
  7  8  2  0
  8  9  1  0
  9 10  2  0
  4 11  1  0
 11 12  1  0
 12 13  1  0
 13 14  2  0
 13 15  1  0
 15 16  1  0
 16 17  1  1
 16 18  1  0
 18 19  1  1
 18 20  1  0
 20 21  2  0
 20 22  1  0
 12  2  2  0
 10  5  1  0
M  END
>  <fragmenstein_runtime>  (140) 
[5.017554998397827]

>  <original ID>  (140) 
LKTUJWQNQDRKOS-RKDXNWHRSA-N

>  <fragmenstein_error>  (140) 
['']

>  <ref_pdb>  (140) 
d0264a

>  <Multi-SuCOS>  (140) 
0.526063

>  <SLURM_JOB_NAME>  (140) 
BulkDock.place:Flavi_NS5_RdRp:RdRp_knitwork_primer_grip_n_pocket_impure_split4000_batch005

>  <HIPPO Compound ID>  (140) 
10208

>  <original SMILES>  (140) 
Cc1nc(-c2ccccn2)sc1C(=O)N[C@H](C)[C@@H](C)C(=O)O

>  <name>  (140) 
LKTUJWQNQDRKOS-RKDXNWHRSA-N

>  <HIPPO Pose ID>  (140) 
53275

>  <ref_mols>  (140) 
d0264a,d0472a

>  <exports>  (140) 
['/opt/xchem-fragalysis-2/maxwin/BulkDock/OUTPUTS/RdRp_knitwork_primer_grip_n_pocket_impure_split4000_batch005_211037.sdf', '/opt/xchem-fragalysis-2/maxwin/BulkDock/OUTPUTS/RdRp_knitwork_primer_grip_n_pocket_impure_fragalysis.sdf', '/opt/xchem-fragalysis-2/maxwin/RdRp_FFF/syndirella/Retro_OK_batch1.sdf']

>  <alias>  (140) 
None

>  <inchikey>  (140) 
LKTUJWQNQDRKOS-RKDXNWHRSA-N

>  <energy_score>  (140) 
-124.077214

>  <distance_score>  (140) 
0.972097

>  <fragmenstein_outcome>  (140) 
['acceptable']

>  <merge_set>  (140) 
RdRp_knitwork_primer_grip_n_pocket_impure_fragalysis.sdf

>  <scratch_subdir>  (140) 
['/opt/xchem-fragalysis-2/maxwin/BulkDock/SCRATCH/211037/C10208-P28']

>  <SLURM_JOB_ID>  (140) 
211037

>  <tags>  (140) 
['Fragmenstein placed', 'RdRp_knitwork_primer_grip_n_pocket_impure_fragalysis.sdf Pose OK']

>  <fragmenstein_mode>  (140) 
['expansion']

>  <csv_name>  (140) 
RdRp_knitwork_primer_grip_n_pocket_impure_split4000_batch005.csv

$$$$
JFXCVJGKTUWCDE-UHFFFAOYSA-N
     RDKit          3D

 22 24  0  0  0  0  0  0  0  0999 V2000
  -13.1258  -71.2734  -24.9834 C   0  0  0  0  0  0  0  0  0  0  0  0
  -14.3124  -70.3813  -25.3219 C   0  0  0  0  0  0  0  0  0  0  0  0
  -15.4380  -70.3738  -24.2747 C   0  0  0  0  0  0  0  0  0  0  0  0
  -14.9497  -69.9803  -22.9223 C   0  0  0  0  0  0  0  0  0  0  0  0
  -14.5036  -68.7974  -22.5521 N   0  0  0  0  0  0  0  0  0  0  0  0
  -13.7594  -68.8716  -21.3799 N   0  0  0  0  0  0  0  0  0  0  0  0
  -13.6918  -70.1107  -20.9690 C   0  0  0  0  0  0  0  0  0  0  0  0
  -12.6323  -70.6161  -20.1078 N   0  0  0  0  0  0  0  0  0  0  0  0
  -11.3968  -71.1395  -21.1725 S   0  0  0  0  0  0  0  0  0  0  0  0
  -11.1560  -70.1500  -22.1963 O   0  0  0  0  0  0  0  0  0  0  0  0
  -11.7177  -72.5149  -21.4933 O   0  0  0  0  0  0  0  0  0  0  0  0
   -9.9726  -71.1907  -20.1395 C   0  0  0  0  0  0  0  0  0  0  0  0
  -10.0217  -71.8703  -18.9176 C   0  0  0  0  0  0  0  0  0  0  0  0
   -8.8518  -72.0170  -18.1749 C   0  0  0  0  0  0  0  0  0  0  0  0
   -7.6507  -71.5090  -18.6691 C   0  0  0  0  0  0  0  0  0  0  0  0
   -7.6162  -70.8483  -19.9006 C   0  0  0  0  0  0  0  0  0  0  0  0
   -8.7808  -70.6542  -20.6261 C   0  0  0  0  0  0  0  0  0  0  0  0
   -6.4614  -70.3792  -20.4634 O   0  0  0  0  0  0  0  0  0  0  0  0
   -5.3166  -71.0290  -19.9050 C   0  0  0  0  0  0  0  0  0  0  0  0
   -5.4008  -70.9806  -18.3939 C   0  0  0  0  0  0  0  0  0  0  0  0
   -6.5321  -71.7196  -17.9072 O   0  0  0  0  0  0  0  0  0  0  0  0
  -14.8334  -71.1588  -21.6816 S   0  0  0  0  0  0  0  0  0  0  0  0
  1  2  1  0
  2  3  1  0
  3  4  1  0
  4  5  2  0
  5  6  1  0
  6  7  2  0
  7  8  1  0
  8  9  1  0
  9 10  2  0
  9 11  2  0
  9 12  1  0
 12 13  2  0
 13 14  1  0
 14 15  2  0
 15 16  1  0
 16 17  2  0
 16 18  1  0
 18 19  1  0
 19 20  1  0
 20 21  1  0
  7 22  1  0
 22  4  1  0
 17 12  1  0
 21 15  1  0
M  END
>  <fragmenstein_runtime>  (141) 
[3.524533271789551]

>  <original ID>  (141) 
JFXCVJGKTUWCDE-UHFFFAOYSA-N

>  <fragmenstein_error>  (141) 
['']

>  <ref_pdb>  (141) 
d0376a

>  <Multi-SuCOS>  (141) 
0.508637

>  <SLURM_JOB_NAME>  (141) 
BulkDock.place:Flavi_NS5_RdRp:RdRp_knitwork_thumb_site_2_impure_split4000_batch000

>  <HIPPO Compound ID>  (141) 
4670

>  <original SMILES>  (141) 
CCCc1nnc(NS(=O)(=O)c2ccc3c(c2)OCCO3)s1

>  <name>  (141) 
JFXCVJGKTUWCDE-UHFFFAOYSA-N

>  <HIPPO Pose ID>  (141) 
54796

>  <ref_mols>  (141) 
d0174a,d0376a

>  <exports>  (141) 
['/opt/xchem-fragalysis-2/maxwin/BulkDock/OUTPUTS/RdRp_knitwork_thumb_site_2_impure_split4000_batch000_211013.sdf', '/opt/xchem-fragalysis-2/maxwin/BulkDock/OUTPUTS/RdRp_knitwork_thumb_site_2_impure_fragalysis.sdf', '/opt/xchem-fragalysis-2/maxwin/RdRp_FFF/syndirella/Retro_OK_batch1.sdf']

>  <alias>  (141) 
None

>  <inchikey>  (141) 
JFXCVJGKTUWCDE-UHFFFAOYSA-N

>  <energy_score>  (141) 
-57.934636

>  <distance_score>  (141) 
0.924482

>  <fragmenstein_outcome>  (141) 
['acceptable']

>  <merge_set>  (141) 
RdRp_knitwork_thumb_site_2_impure_fragalysis.sdf

>  <scratch_subdir>  (141) 
['/opt/xchem-fragalysis-2/maxwin/BulkDock/SCRATCH/211013/C4670-P33']

>  <SLURM_JOB_ID>  (141) 
211013

>  <tags>  (141) 
['Fragmenstein placed', 'RdRp_knitwork_thumb_site_2_impure_fragalysis.sdf Pose OK']

>  <fragmenstein_mode>  (141) 
['expansion']

>  <csv_name>  (141) 
RdRp_knitwork_thumb_site_2_impure_split4000_batch000.csv

$$$$
UGEFVIWPBQPAJW-UHFFFAOYSA-N
     RDKit          3D

 21 23  0  0  0  0  0  0  0  0999 V2000
  -17.9324  -69.1631  -26.3291 C   0  0  0  0  0  0  0  0  0  0  0  0
  -16.8273  -70.0953  -25.8644 C   0  0  0  0  0  0  0  0  0  0  0  0
  -16.8511  -70.2790  -24.3427 C   0  0  0  0  0  0  0  0  0  0  0  0
  -15.5654  -70.2975  -23.6808 N   0  0  0  0  0  0  0  0  0  0  0  0
  -14.3497  -70.5175  -24.2399 C   0  0  0  0  0  0  0  0  0  0  0  0
  -13.4411  -70.1468  -23.2863 C   0  0  0  0  0  0  0  0  0  0  0  0
  -14.1948  -69.8792  -22.1145 C   0  0  0  0  0  0  0  0  0  0  0  0
  -13.6861  -69.4049  -20.7802 C   0  0  0  0  0  0  0  0  0  0  0  0
  -12.7831  -70.3424  -20.0709 N   0  0  0  0  0  0  0  0  0  0  0  0
  -11.5963  -70.6969  -20.8744 C   0  0  0  0  0  0  0  0  0  0  0  0
  -10.3581  -71.0411  -20.0704 C   0  0  0  0  0  0  0  0  0  0  0  0
  -10.4205  -71.8372  -18.9288 C   0  0  0  0  0  0  0  0  0  0  0  0
   -9.2420  -72.1192  -18.2395 C   0  0  0  0  0  0  0  0  0  0  0  0
   -8.0369  -71.6240  -18.7214 C   0  0  0  0  0  0  0  0  0  0  0  0
   -8.0551  -70.8815  -19.8980 C   0  0  0  0  0  0  0  0  0  0  0  0
   -9.1849  -70.5635  -20.5592 N   0  0  0  0  0  0  0  0  0  0  0  0
   -6.9077  -70.4044  -20.4777 O   0  0  0  0  0  0  0  0  0  0  0  0
   -5.7636  -71.1312  -20.0240 C   0  0  0  0  0  0  0  0  0  0  0  0
   -5.7647  -71.1872  -18.5087 C   0  0  0  0  0  0  0  0  0  0  0  0
   -6.9014  -71.9128  -18.0139 O   0  0  0  0  0  0  0  0  0  0  0  0
  -15.5110  -69.9973  -22.3648 N   0  0  0  0  0  0  0  0  0  0  0  0
  1  2  1  0
  2  3  1  0
  3  4  1  0
  4  5  1  0
  5  6  2  0
  6  7  1  0
  7  8  1  0
  8  9  1  0
  9 10  1  0
 10 11  1  0
 11 12  2  0
 12 13  1  0
 13 14  2  0
 14 15  1  0
 15 16  2  0
 15 17  1  0
 17 18  1  0
 18 19  1  0
 19 20  1  0
  7 21  2  0
 21  4  1  0
 16 11  1  0
 20 14  1  0
M  END
>  <fragmenstein_runtime>  (142) 
[4.794697046279907]

>  <original ID>  (142) 
UGEFVIWPBQPAJW-UHFFFAOYSA-N

>  <fragmenstein_error>  (142) 
['']

>  <ref_pdb>  (142) 
d0376a

>  <Multi-SuCOS>  (142) 
0.498397

>  <SLURM_JOB_NAME>  (142) 
BulkDock.place:Flavi_NS5_RdRp:RdRp_knitwork_thumb_site_2_impure_split4000_batch000

>  <HIPPO Compound ID>  (142) 
5076

>  <original SMILES>  (142) 
CCCn1ccc(CNCc2ccc3c(n2)OCCO3)n1

>  <name>  (142) 
UGEFVIWPBQPAJW-UHFFFAOYSA-N

>  <HIPPO Pose ID>  (142) 
54819

>  <ref_mols>  (142) 
d0174a,d0376a

>  <exports>  (142) 
['/opt/xchem-fragalysis-2/maxwin/BulkDock/OUTPUTS/RdRp_knitwork_thumb_site_2_impure_split4000_batch000_211013.sdf', '/opt/xchem-fragalysis-2/maxwin/BulkDock/OUTPUTS/RdRp_knitwork_thumb_site_2_impure_fragalysis.sdf', '/opt/xchem-fragalysis-2/maxwin/RdRp_FFF/syndirella/Retro_OK_batch1.sdf']

>  <alias>  (142) 
None

>  <inchikey>  (142) 
UGEFVIWPBQPAJW-UHFFFAOYSA-N

>  <energy_score>  (142) 
-26.761036

>  <distance_score>  (142) 
0.822537

>  <fragmenstein_outcome>  (142) 
['acceptable']

>  <merge_set>  (142) 
RdRp_knitwork_thumb_site_2_impure_fragalysis.sdf

>  <scratch_subdir>  (142) 
['/opt/xchem-fragalysis-2/maxwin/BulkDock/SCRATCH/211013/C5076-P33']

>  <SLURM_JOB_ID>  (142) 
211013

>  <tags>  (142) 
['Fragmenstein placed', 'RdRp_knitwork_thumb_site_2_impure_fragalysis.sdf Pose OK']

>  <fragmenstein_mode>  (142) 
['expansion']

>  <csv_name>  (142) 
RdRp_knitwork_thumb_site_2_impure_split4000_batch000.csv

$$$$
LMZFONDIQODLJV-OAHLLOKOSA-N
     RDKit          3D

 22 24  0  0  0  0  0  0  0  0999 V2000
  -13.1364  -68.5597  -20.4137 O   0  0  0  0  0  0  0  0  0  0  0  0
  -13.8413  -69.8120  -20.3144 S   0  0  0  0  0  0  0  0  0  0  0  0
  -14.3440  -70.2901  -19.0402 O   0  0  0  0  0  0  0  0  0  0  0  0
  -15.2086  -69.7884  -21.4809 C   0  0  0  0  0  0  0  0  0  0  0  0
  -14.7411  -69.9877  -22.9094 C   0  0  0  0  0  0  0  0  0  0  0  0
  -15.7915  -70.0083  -23.9631 C   0  0  0  0  0  0  0  0  0  0  0  0
  -17.1913  -69.8813  -23.8728 C   0  0  0  0  0  0  0  0  0  0  0  0
  -17.7771  -69.8160  -25.0693 N   0  0  0  0  0  0  0  0  0  0  0  0
  -16.7662  -70.0653  -25.9801 O   0  0  0  0  0  0  0  0  0  0  0  0
  -15.5922  -70.1923  -25.3146 C   0  0  0  0  0  0  0  0  0  0  0  0
  -12.8713  -71.0368  -20.9123 N   0  0  0  0  0  0  0  0  0  0  0  0
  -11.4817  -70.7353  -21.3302 C   0  0  1  0  0  0  0  0  0  0  0  0
  -10.4357  -71.0500  -20.2650 C   0  0  0  0  0  0  0  0  0  0  0  0
  -10.6280  -71.9945  -19.2509 C   0  0  0  0  0  0  0  0  0  0  0  0
   -9.5839  -72.2707  -18.3767 C   0  0  0  0  0  0  0  0  0  0  0  0
   -8.3668  -71.6964  -18.4452 N   0  0  0  0  0  0  0  0  0  0  0  0
   -8.1863  -70.7967  -19.4309 C   0  0  0  0  0  0  0  0  0  0  0  0
   -9.1785  -70.4278  -20.3267 C   0  0  0  0  0  0  0  0  0  0  0  0
  -11.1439  -71.5429  -22.5960 C   0  0  0  0  0  0  0  0  0  0  0  0
  -11.7983  -71.1415  -23.9541 C   0  0  0  0  0  0  0  0  0  0  0  0
  -10.4680  -71.4987  -24.6356 C   0  0  0  0  0  0  0  0  0  0  0  0
   -9.7941  -71.2109  -23.2912 C   0  0  0  0  0  0  0  0  0  0  0  0
  1  2  2  0
  2  3  2  0
  2  4  1  0
  4  5  1  0
  5  6  1  0
  6  7  1  0
  7  8  2  0
  8  9  1  0
  9 10  1  0
  2 11  1  0
 12 11  1  1
 12 13  1  0
 13 14  2  0
 14 15  1  0
 15 16  2  0
 16 17  1  0
 17 18  2  0
 12 19  1  0
 19 20  1  0
 20 21  1  0
 21 22  1  0
 10  6  2  0
 18 13  1  0
 22 19  1  0
M  END
>  <fragmenstein_runtime>  (143) 
[5.773651123046875]

>  <original ID>  (143) 
LMZFONDIQODLJV-OAHLLOKOSA-N

>  <fragmenstein_error>  (143) 
['']

>  <ref_pdb>  (143) 
d0174a

>  <Multi-SuCOS>  (143) 
0.536272

>  <SLURM_JOB_NAME>  (143) 
BulkDock.place:Flavi_NS5_RdRp:RdRp_knitwork_thumb_site_2_impure_split4000_batch000

>  <HIPPO Compound ID>  (143) 
1453

>  <original SMILES>  (143) 
O=S(=O)(CCc1cnoc1)N[C@@H](c1ccncc1)C1CCC1

>  <name>  (143) 
LMZFONDIQODLJV-OAHLLOKOSA-N

>  <HIPPO Pose ID>  (143) 
55029

>  <ref_mols>  (143) 
d0174a,d0615a,d0759a

>  <exports>  (143) 
['/opt/xchem-fragalysis-2/maxwin/BulkDock/OUTPUTS/RdRp_knitwork_thumb_site_2_impure_split4000_batch000_211013.sdf', '/opt/xchem-fragalysis-2/maxwin/BulkDock/OUTPUTS/RdRp_knitwork_thumb_site_2_impure_fragalysis.sdf', '/opt/xchem-fragalysis-2/maxwin/RdRp_FFF/syndirella/Retro_OK_batch1.sdf']

>  <alias>  (143) 
None

>  <inchikey>  (143) 
LMZFONDIQODLJV-OAHLLOKOSA-N

>  <energy_score>  (143) 
-64.771967

>  <distance_score>  (143) 
0.779906

>  <fragmenstein_outcome>  (143) 
['acceptable']

>  <merge_set>  (143) 
RdRp_knitwork_thumb_site_2_impure_fragalysis.sdf

>  <scratch_subdir>  (143) 
['/opt/xchem-fragalysis-2/maxwin/BulkDock/SCRATCH/211013/C1453-P17']

>  <SLURM_JOB_ID>  (143) 
211013

>  <tags>  (143) 
['Fragmenstein placed', 'RdRp_knitwork_thumb_site_2_impure_fragalysis.sdf Pose OK']

>  <fragmenstein_mode>  (143) 
['expansion']

>  <csv_name>  (143) 
RdRp_knitwork_thumb_site_2_impure_split4000_batch000.csv

$$$$
LMZFONDIQODLJV-OAHLLOKOSA-N
     RDKit          3D

 22 24  0  0  0  0  0  0  0  0999 V2000
  -13.0732  -68.6120  -20.3107 O   0  0  0  0  0  0  0  0  0  0  0  0
  -13.7530  -69.8800  -20.2468 S   0  0  0  0  0  0  0  0  0  0  0  0
  -14.2359  -70.4142  -18.9876 O   0  0  0  0  0  0  0  0  0  0  0  0
  -15.1333  -69.8413  -21.3905 C   0  0  0  0  0  0  0  0  0  0  0  0
  -14.6822  -69.9589  -22.8346 C   0  0  0  0  0  0  0  0  0  0  0  0
  -15.7652  -69.9882  -23.8512 C   0  0  0  0  0  0  0  0  0  0  0  0
  -17.1525  -69.8164  -23.7014 C   0  0  0  0  0  0  0  0  0  0  0  0
  -17.7905  -69.7564  -24.8704 N   0  0  0  0  0  0  0  0  0  0  0  0
  -16.8283  -70.0602  -25.8197 O   0  0  0  0  0  0  0  0  0  0  0  0
  -15.6294  -70.2111  -25.2034 C   0  0  0  0  0  0  0  0  0  0  0  0
  -12.7753  -71.0670  -20.9062 N   0  0  0  0  0  0  0  0  0  0  0  0
  -11.3970  -70.7276  -21.3334 C   0  0  1  0  0  0  0  0  0  0  0  0
  -10.3401  -71.0161  -20.2729 C   0  0  0  0  0  0  0  0  0  0  0  0
  -10.5102  -71.9604  -19.2542 C   0  0  0  0  0  0  0  0  0  0  0  0
   -9.4600  -72.2089  -18.3796 C   0  0  0  0  0  0  0  0  0  0  0  0
   -8.2569  -71.6063  -18.4517 N   0  0  0  0  0  0  0  0  0  0  0  0
   -8.0985  -70.7067  -19.4419 C   0  0  0  0  0  0  0  0  0  0  0  0
   -9.0986  -70.3651  -20.3395 C   0  0  0  0  0  0  0  0  0  0  0  0
  -11.0429  -71.5229  -22.6032 C   0  0  0  0  0  0  0  0  0  0  0  0
  -11.7262  -71.1281  -23.9484 C   0  0  0  0  0  0  0  0  0  0  0  0
  -10.3997  -71.4531  -24.6533 C   0  0  0  0  0  0  0  0  0  0  0  0
   -9.7077  -71.1620  -23.3183 C   0  0  0  0  0  0  0  0  0  0  0  0
  1  2  2  0
  2  3  2  0
  2  4  1  0
  4  5  1  0
  5  6  1  0
  6  7  1  0
  7  8  2  0
  8  9  1  0
  9 10  1  0
  2 11  1  0
 12 11  1  1
 12 13  1  0
 13 14  2  0
 14 15  1  0
 15 16  2  0
 16 17  1  0
 17 18  2  0
 12 19  1  0
 19 20  1  0
 20 21  1  0
 21 22  1  0
 10  6  2  0
 18 13  1  0
 22 19  1  0
M  END
>  <fragmenstein_runtime>  (144) 
[5.452700853347778]

>  <original ID>  (144) 
LMZFONDIQODLJV-OAHLLOKOSA-N

>  <fragmenstein_error>  (144) 
['']

>  <ref_pdb>  (144) 
d0615a

>  <Multi-SuCOS>  (144) 
0.534354

>  <SLURM_JOB_NAME>  (144) 
BulkDock.place:Flavi_NS5_RdRp:RdRp_knitwork_thumb_site_2_impure_split4000_batch000

>  <HIPPO Compound ID>  (144) 
1453

>  <original SMILES>  (144) 
O=S(=O)(CCc1cnoc1)N[C@@H](c1ccncc1)C1CCC1

>  <name>  (144) 
LMZFONDIQODLJV-OAHLLOKOSA-N

>  <HIPPO Pose ID>  (144) 
55030

>  <ref_mols>  (144) 
d0174a,d0615a

>  <exports>  (144) 
['/opt/xchem-fragalysis-2/maxwin/BulkDock/OUTPUTS/RdRp_knitwork_thumb_site_2_impure_split4000_batch000_211013.sdf', '/opt/xchem-fragalysis-2/maxwin/BulkDock/OUTPUTS/RdRp_knitwork_thumb_site_2_impure_fragalysis.sdf', '/opt/xchem-fragalysis-2/maxwin/RdRp_FFF/syndirella/Retro_OK_batch1.sdf']

>  <alias>  (144) 
None

>  <inchikey>  (144) 
LMZFONDIQODLJV-OAHLLOKOSA-N

>  <energy_score>  (144) 
-65.442873

>  <distance_score>  (144) 
0.792769

>  <fragmenstein_outcome>  (144) 
['acceptable']

>  <merge_set>  (144) 
RdRp_knitwork_thumb_site_2_impure_fragalysis.sdf

>  <scratch_subdir>  (144) 
['/opt/xchem-fragalysis-2/maxwin/BulkDock/SCRATCH/211013/C1453-P50']

>  <SLURM_JOB_ID>  (144) 
211013

>  <tags>  (144) 
['Fragmenstein placed', 'RdRp_knitwork_thumb_site_2_impure_fragalysis.sdf Pose OK']

>  <fragmenstein_mode>  (144) 
['expansion']

>  <csv_name>  (144) 
RdRp_knitwork_thumb_site_2_impure_split4000_batch000.csv

$$$$
QXPKZAYBHAOLKZ-AWEZNQCLSA-N
     RDKit          3D

 21 23  0  0  0  0  0  0  0  0999 V2000
  -12.6058  -68.8107  -20.1157 O   0  0  0  0  0  0  0  0  0  0  0  0
  -13.6003  -69.8223  -20.3660 S   0  0  0  0  0  0  0  0  0  0  0  0
  -14.5465  -70.1834  -19.3272 O   0  0  0  0  0  0  0  0  0  0  0  0
  -14.5073  -69.3947  -21.8589 C   0  0  0  0  0  0  0  0  0  0  0  0
  -15.1497  -70.6075  -22.5050 C   0  0  0  0  0  0  0  0  0  0  0  0
  -15.8794  -70.3067  -23.7630 C   0  0  0  0  0  0  0  0  0  0  0  0
  -17.2452  -69.9972  -23.9250 C   0  0  0  0  0  0  0  0  0  0  0  0
  -17.5640  -69.7278  -25.1912 N   0  0  0  0  0  0  0  0  0  0  0  0
  -16.4101  -69.9836  -25.9130 O   0  0  0  0  0  0  0  0  0  0  0  0
  -15.4121  -70.3190  -25.0566 C   0  0  0  0  0  0  0  0  0  0  0  0
  -12.8432  -71.2482  -20.7489 N   0  0  0  0  0  0  0  0  0  0  0  0
  -11.4923  -71.3566  -21.3168 C   0  0  2  0  0  0  0  0  0  0  0  0
  -10.3741  -71.2849  -20.2924 C   0  0  0  0  0  0  0  0  0  0  0  0
  -10.4544  -72.0275  -19.1037 C   0  0  0  0  0  0  0  0  0  0  0  0
   -9.3693  -72.0897  -18.2322 C   0  0  0  0  0  0  0  0  0  0  0  0
   -8.2157  -71.4124  -18.5760 C   0  0  0  0  0  0  0  0  0  0  0  0
   -8.0946  -70.6716  -19.6930 N   0  0  0  0  0  0  0  0  0  0  0  0
   -9.1706  -70.6166  -20.5154 C   0  0  0  0  0  0  0  0  0  0  0  0
  -11.2991  -70.4705  -22.5136 C   0  0  0  0  0  0  0  0  0  0  0  0
  -10.2926  -70.8363  -23.5862 C   0  0  0  0  0  0  0  0  0  0  0  0
  -11.7543  -70.8643  -23.9001 C   0  0  0  0  0  0  0  0  0  0  0  0
  1  2  2  0
  2  3  2  0
  2  4  1  0
  4  5  1  0
  5  6  1  0
  6  7  1  0
  7  8  2  0
  8  9  1  0
  9 10  1  0
  2 11  1  0
 12 11  1  1
 12 13  1  0
 13 14  2  0
 14 15  1  0
 15 16  2  0
 16 17  1  0
 17 18  2  0
 12 19  1  0
 19 20  1  0
 20 21  1  0
 10  6  2  0
 18 13  1  0
 21 19  1  0
M  END
>  <fragmenstein_runtime>  (145) 
[6.390786409378052]

>  <original ID>  (145) 
QXPKZAYBHAOLKZ-AWEZNQCLSA-N

>  <fragmenstein_error>  (145) 
['']

>  <ref_pdb>  (145) 
d0174a

>  <Multi-SuCOS>  (145) 
0.526764

>  <SLURM_JOB_NAME>  (145) 
BulkDock.place:Flavi_NS5_RdRp:RdRp_knitwork_thumb_site_2_impure_split4000_batch000

>  <HIPPO Compound ID>  (145) 
1504

>  <original SMILES>  (145) 
O=S(=O)(CCc1cnoc1)N[C@H](c1cccnc1)C1CC1

>  <name>  (145) 
QXPKZAYBHAOLKZ-AWEZNQCLSA-N

>  <HIPPO Pose ID>  (145) 
55056

>  <ref_mols>  (145) 
d0174a,d0615a

>  <exports>  (145) 
['/opt/xchem-fragalysis-2/maxwin/BulkDock/OUTPUTS/RdRp_knitwork_thumb_site_2_impure_split4000_batch000_211013.sdf', '/opt/xchem-fragalysis-2/maxwin/BulkDock/OUTPUTS/RdRp_knitwork_thumb_site_2_impure_fragalysis.sdf', '/opt/xchem-fragalysis-2/maxwin/RdRp_FFF/syndirella/Retro_OK_batch1.sdf']

>  <alias>  (145) 
None

>  <inchikey>  (145) 
QXPKZAYBHAOLKZ-AWEZNQCLSA-N

>  <energy_score>  (145) 
-83.763917

>  <distance_score>  (145) 
0.828643

>  <fragmenstein_outcome>  (145) 
['acceptable']

>  <merge_set>  (145) 
RdRp_knitwork_thumb_site_2_impure_fragalysis.sdf

>  <scratch_subdir>  (145) 
['/opt/xchem-fragalysis-2/maxwin/BulkDock/SCRATCH/211013/C1504-P17']

>  <SLURM_JOB_ID>  (145) 
211013

>  <tags>  (145) 
['Fragmenstein placed', 'RdRp_knitwork_thumb_site_2_impure_fragalysis.sdf Pose OK']

>  <fragmenstein_mode>  (145) 
['expansion']

>  <csv_name>  (145) 
RdRp_knitwork_thumb_site_2_impure_split4000_batch000.csv

$$$$
HLHAOIDDWWBQNL-KRWDZBQOSA-N
     RDKit          3D

 24 26  0  0  0  0  0  0  0  0999 V2000
  -12.8958  -68.4726  -19.9384 O   0  0  0  0  0  0  0  0  0  0  0  0
  -13.7777  -69.5614  -20.2669 S   0  0  0  0  0  0  0  0  0  0  0  0
  -14.7373  -70.0478  -19.2983 O   0  0  0  0  0  0  0  0  0  0  0  0
  -14.5920  -69.1984  -21.8181 C   0  0  0  0  0  0  0  0  0  0  0  0
  -15.3911  -70.3790  -22.3262 C   0  0  0  0  0  0  0  0  0  0  0  0
  -15.7876  -70.2599  -23.7503 C   0  0  0  0  0  0  0  0  0  0  0  0
  -17.0694  -70.0271  -24.2926 C   0  0  0  0  0  0  0  0  0  0  0  0
  -17.0505  -69.9687  -25.6244 N   0  0  0  0  0  0  0  0  0  0  0  0
  -15.7398  -70.2275  -25.9852 O   0  0  0  0  0  0  0  0  0  0  0  0
  -14.9936  -70.3946  -24.8663 C   0  0  0  0  0  0  0  0  0  0  0  0
  -12.8368  -70.8810  -20.6413 N   0  0  0  0  0  0  0  0  0  0  0  0
  -11.5202  -70.6568  -21.2628 C   0  0  1  0  0  0  0  0  0  0  0  0
  -10.3617  -71.0661  -20.3623 C   0  0  0  0  0  0  0  0  0  0  0  0
  -10.4023  -72.2002  -19.5347 C   0  0  0  0  0  0  0  0  0  0  0  0
   -9.2916  -72.5706  -18.7707 C   0  0  0  0  0  0  0  0  0  0  0  0
   -8.1105  -71.8398  -18.8495 C   0  0  0  0  0  0  0  0  0  0  0  0
   -8.0455  -70.7259  -19.6772 C   0  0  0  0  0  0  0  0  0  0  0  0
   -9.1626  -70.3350  -20.4158 C   0  0  0  0  0  0  0  0  0  0  0  0
  -11.4104  -71.2820  -22.6402 C   0  0  0  0  0  0  0  0  0  0  0  0
  -10.4929  -70.7876  -23.5782 C   0  0  0  0  0  0  0  0  0  0  0  0
  -10.4172  -71.3437  -24.8496 C   0  0  0  0  0  0  0  0  0  0  0  0
  -11.2570  -72.4008  -25.1490 C   0  0  0  0  0  0  0  0  0  0  0  0
  -12.1406  -72.9253  -24.2718 N   0  0  0  0  0  0  0  0  0  0  0  0
  -12.1783  -72.3712  -23.0376 C   0  0  0  0  0  0  0  0  0  0  0  0
  1  2  2  0
  2  3  2  0
  2  4  1  0
  4  5  1  0
  5  6  1  0
  6  7  1  0
  7  8  2  0
  8  9  1  0
  9 10  1  0
  2 11  1  0
 12 11  1  1
 12 13  1  0
 13 14  2  0
 14 15  1  0
 15 16  2  0
 16 17  1  0
 17 18  2  0
 12 19  1  0
 19 20  2  0
 20 21  1  0
 21 22  2  0
 22 23  1  0
 23 24  2  0
 10  6  2  0
 18 13  1  0
 24 19  1  0
M  END
>  <fragmenstein_runtime>  (146) 
[5.372358798980713]

>  <original ID>  (146) 
HLHAOIDDWWBQNL-KRWDZBQOSA-N

>  <fragmenstein_error>  (146) 
['']

>  <ref_pdb>  (146) 
d0174a

>  <Multi-SuCOS>  (146) 
0.524753

>  <SLURM_JOB_NAME>  (146) 
BulkDock.place:Flavi_NS5_RdRp:RdRp_knitwork_thumb_site_2_impure_split4000_batch000

>  <HIPPO Compound ID>  (146) 
1548

>  <original SMILES>  (146) 
O=S(=O)(CCc1cnoc1)N[C@@H](c1ccccc1)c1cccnc1

>  <name>  (146) 
HLHAOIDDWWBQNL-KRWDZBQOSA-N

>  <HIPPO Pose ID>  (146) 
55058

>  <ref_mols>  (146) 
d0174a,d0615a

>  <exports>  (146) 
['/opt/xchem-fragalysis-2/maxwin/BulkDock/OUTPUTS/RdRp_knitwork_thumb_site_2_impure_split4000_batch000_211013.sdf', '/opt/xchem-fragalysis-2/maxwin/BulkDock/OUTPUTS/RdRp_knitwork_thumb_site_2_impure_fragalysis.sdf', '/opt/xchem-fragalysis-2/maxwin/RdRp_FFF/syndirella/Retro_OK_batch1.sdf']

>  <alias>  (146) 
None

>  <inchikey>  (146) 
HLHAOIDDWWBQNL-KRWDZBQOSA-N

>  <energy_score>  (146) 
-37.486879

>  <distance_score>  (146) 
0.80666

>  <fragmenstein_outcome>  (146) 
['acceptable']

>  <merge_set>  (146) 
RdRp_knitwork_thumb_site_2_impure_fragalysis.sdf

>  <scratch_subdir>  (146) 
['/opt/xchem-fragalysis-2/maxwin/BulkDock/SCRATCH/211013/C1548-P17']

>  <SLURM_JOB_ID>  (146) 
211013

>  <tags>  (146) 
['Fragmenstein placed', 'RdRp_knitwork_thumb_site_2_impure_fragalysis.sdf Pose OK']

>  <fragmenstein_mode>  (146) 
['expansion']

>  <csv_name>  (146) 
RdRp_knitwork_thumb_site_2_impure_split4000_batch000.csv

$$$$
AJQQGJNKKDEODG-UHFFFAOYSA-N
     RDKit          3D

 11 12  0  0  0  0  0  0  0  0999 V2000
  -15.3054  -44.7297  -21.1642 C   0  0  0  0  0  0  0  0  0  0  0  0
  -14.5560  -43.6147  -21.5105 C   0  0  0  0  0  0  0  0  0  0  0  0
  -13.7686  -43.0043  -20.5330 C   0  0  0  0  0  0  0  0  0  0  0  0
  -13.0322  -41.7773  -20.8209 C   0  0  0  0  0  0  0  0  0  0  0  0
  -13.3224  -40.7019  -21.6423 C   0  0  0  0  0  0  0  0  0  0  0  0
  -12.3431  -39.7413  -21.5814 N   0  0  0  0  0  0  0  0  0  0  0  0
  -11.4766  -40.1978  -20.7086 C   0  0  0  0  0  0  0  0  0  0  0  0
  -11.8175  -41.4437  -20.2632 N   0  0  0  0  0  0  0  0  0  0  0  0
  -13.7697  -43.5516  -19.2490 C   0  0  0  0  0  0  0  0  0  0  0  0
  -14.5574  -44.6652  -18.9993 C   0  0  0  0  0  0  0  0  0  0  0  0
  -15.3133  -45.2828  -19.9305 N   0  0  0  0  0  0  0  0  0  0  0  0
  1  2  2  0
  2  3  1  0
  3  4  1  0
  4  5  2  0
  5  6  1  0
  6  7  2  0
  7  8  1  0
  3  9  2  0
  9 10  1  0
 10 11  2  0
 11  1  1  0
  8  4  1  0
M  END
>  <fragmenstein_runtime>  (147) 
[1.4302153587341309]

>  <original ID>  (147) 
AJQQGJNKKDEODG-UHFFFAOYSA-N

>  <fragmenstein_error>  (147) 
['']

>  <ref_pdb>  (147) 
d0472a

>  <Multi-SuCOS>  (147) 
0.665845

>  <SLURM_JOB_NAME>  (147) 
BulkDock.place:Flavi_NS5_RdRp:RdRp_knitwork_primer_grip_n_pocket_impure_split4000_batch000

>  <HIPPO Compound ID>  (147) 
8715

>  <original SMILES>  (147) 
c1cc(-c2cnc[nH]2)ccn1

>  <name>  (147) 
AJQQGJNKKDEODG-UHFFFAOYSA-N

>  <HIPPO Pose ID>  (147) 
55140

>  <ref_mols>  (147) 
d0472a,z0875c

>  <exports>  (147) 
['/opt/xchem-fragalysis-2/maxwin/BulkDock/OUTPUTS/RdRp_knitwork_primer_grip_n_pocket_impure_split4000_batch000_211032.sdf', '/opt/xchem-fragalysis-2/maxwin/BulkDock/OUTPUTS/RdRp_knitwork_primer_grip_n_pocket_impure_fragalysis.sdf', '/opt/xchem-fragalysis-2/maxwin/RdRp_FFF/syndirella/Retro_OK_batch1.sdf']

>  <alias>  (147) 
None

>  <inchikey>  (147) 
AJQQGJNKKDEODG-UHFFFAOYSA-N

>  <energy_score>  (147) 
-11.85689

>  <distance_score>  (147) 
0.859558

>  <fragmenstein_outcome>  (147) 
['acceptable']

>  <merge_set>  (147) 
RdRp_knitwork_primer_grip_n_pocket_impure_fragalysis.sdf

>  <scratch_subdir>  (147) 
['/opt/xchem-fragalysis-2/maxwin/BulkDock/SCRATCH/211032/C8715-P42']

>  <SLURM_JOB_ID>  (147) 
211032

>  <tags>  (147) 
['Fragmenstein placed', 'RdRp_knitwork_primer_grip_n_pocket_impure_fragalysis.sdf Pose OK']

>  <fragmenstein_mode>  (147) 
['expansion']

>  <csv_name>  (147) 
RdRp_knitwork_primer_grip_n_pocket_impure_split4000_batch000.csv

$$$$
MRJZKRWISJPOMU-GFCCVEGCSA-N
     RDKit          3D

 19 20  0  0  0  0  0  0  0  0999 V2000
   -2.2539  -69.2007  -22.1393 C   0  0  0  0  0  0  0  0  0  0  0  0
   -2.5774  -68.3751  -20.9078 C   0  0  0  0  0  0  0  0  0  0  0  0
   -2.8015  -69.1274  -19.5933 C   0  0  1  0  0  0  0  0  0  0  0  0
   -4.2191  -69.4610  -19.2831 N   0  0  0  0  0  0  0  0  0  0  0  0
   -5.2372  -70.3009  -20.3148 S   0  0  0  0  0  0  0  0  0  0  0  0
   -4.5745  -71.4202  -20.9251 O   0  0  0  0  0  0  0  0  0  0  0  0
   -6.0066  -69.3277  -21.0373 O   0  0  0  0  0  0  0  0  0  0  0  0
   -6.4336  -71.0531  -19.3586 C   0  0  0  0  0  0  0  0  0  0  0  0
   -6.1574  -71.7901  -18.2366 C   0  0  0  0  0  0  0  0  0  0  0  0
   -7.3095  -72.2272  -17.6684 O   0  0  0  0  0  0  0  0  0  0  0  0
   -8.3307  -71.8024  -18.4643 C   0  0  0  0  0  0  0  0  0  0  0  0
   -9.6810  -72.0580  -18.2342 C   0  0  0  0  0  0  0  0  0  0  0  0
  -10.5866  -71.5396  -19.1642 C   0  0  0  0  0  0  0  0  0  0  0  0
  -10.1444  -70.8039  -20.2644 C   0  0  0  0  0  0  0  0  0  0  0  0
   -8.7783  -70.5592  -20.4670 C   0  0  0  0  0  0  0  0  0  0  0  0
   -7.8434  -71.0715  -19.5437 C   0  0  0  0  0  0  0  0  0  0  0  0
   -1.7976  -70.2309  -19.1850 C   0  0  0  0  0  0  0  0  0  0  0  0
   -1.9921  -71.6172  -19.7930 C   0  0  0  0  0  0  0  0  0  0  0  0
   -1.7626  -70.3951  -17.6550 C   0  0  0  0  0  0  0  0  0  0  0  0
  1  2  1  0
  3  2  1  6
  3  4  1  0
  4  5  1  0
  5  6  2  0
  5  7  2  0
  5  8  1  0
  8  9  2  0
  9 10  1  0
 10 11  1  0
 11 12  2  0
 12 13  1  0
 13 14  2  0
 14 15  1  0
 15 16  2  0
  3 17  1  0
 17 18  1  0
 17 19  1  0
 16  8  1  0
 16 11  1  0
M  END
>  <fragmenstein_runtime>  (148) 
[5.679510593414307]

>  <original ID>  (148) 
MRJZKRWISJPOMU-GFCCVEGCSA-N

>  <fragmenstein_error>  (148) 
['']

>  <ref_pdb>  (148) 
d0787a

>  <Multi-SuCOS>  (148) 
0.483956

>  <SLURM_JOB_NAME>  (148) 
BulkDock.place:Flavi_NS5_RdRp:RdRp_knitwork_thumb_site_2_impure_split4000_batch000

>  <HIPPO Compound ID>  (148) 
3977

>  <original SMILES>  (148) 
CC[C@@H](NS(=O)(=O)c1coc2ccccc12)C(C)C

>  <name>  (148) 
MRJZKRWISJPOMU-GFCCVEGCSA-N

>  <HIPPO Pose ID>  (148) 
55351

>  <ref_mols>  (148) 
d0174a,d0787a

>  <exports>  (148) 
['/opt/xchem-fragalysis-2/maxwin/BulkDock/OUTPUTS/RdRp_knitwork_thumb_site_2_impure_split4000_batch000_211013.sdf', '/opt/xchem-fragalysis-2/maxwin/BulkDock/OUTPUTS/RdRp_knitwork_thumb_site_2_impure_fragalysis.sdf', '/opt/xchem-fragalysis-2/maxwin/RdRp_FFF/syndirella/Retro_OK_batch1.sdf']

>  <alias>  (148) 
None

>  <inchikey>  (148) 
MRJZKRWISJPOMU-GFCCVEGCSA-N

>  <energy_score>  (148) 
-56.966573

>  <distance_score>  (148) 
0.949884

>  <fragmenstein_outcome>  (148) 
['acceptable']

>  <merge_set>  (148) 
RdRp_knitwork_thumb_site_2_impure_fragalysis.sdf

>  <scratch_subdir>  (148) 
['/opt/xchem-fragalysis-2/maxwin/BulkDock/SCRATCH/211013/C3977-P59']

>  <SLURM_JOB_ID>  (148) 
211013

>  <tags>  (148) 
['Fragmenstein placed', 'RdRp_knitwork_thumb_site_2_impure_fragalysis.sdf Pose OK']

>  <fragmenstein_mode>  (148) 
['expansion']

>  <csv_name>  (148) 
RdRp_knitwork_thumb_site_2_impure_split4000_batch000.csv

$$$$
CZPICAMLPOGNFV-UHFFFAOYSA-N
     RDKit          3D

 17 18  0  0  0  0  0  0  0  0999 V2000
  -23.1701  -55.3238   -0.4674 C   0  0  0  0  0  0  0  0  0  0  0  0
  -23.4631  -56.6029    0.0893 O   0  0  0  0  0  0  0  0  0  0  0  0
  -24.2822  -57.3733   -0.6970 C   0  0  0  0  0  0  0  0  0  0  0  0
  -25.2083  -56.8006   -1.5620 C   0  0  0  0  0  0  0  0  0  0  0  0
  -25.9050  -57.5917   -2.4557 C   0  0  0  0  0  0  0  0  0  0  0  0
  -25.7165  -58.9775   -2.4354 C   0  0  0  0  0  0  0  0  0  0  0  0
  -26.2976  -60.0152   -3.1859 C   0  0  0  0  0  0  0  0  0  0  0  0
  -25.6660  -61.1828   -2.8362 C   0  0  0  0  0  0  0  0  0  0  0  0
  -25.7850  -62.5133   -3.4512 C   0  0  0  0  0  0  0  0  0  0  0  0
  -27.1742  -62.7088   -3.7974 N   0  0  0  0  0  0  0  0  0  0  0  0
  -24.8438  -60.9065   -1.7744 N   0  0  0  0  0  0  0  0  0  0  0  0
  -24.8357  -59.5508   -1.5200 C   0  0  0  0  0  0  0  0  0  0  0  0
  -24.1134  -58.7707   -0.6098 C   0  0  0  0  0  0  0  0  0  0  0  0
  -23.1977  -59.2701    0.3145 N   0  0  0  0  0  0  0  0  0  0  0  0
  -22.6788  -60.7200    0.5407 C   0  0  0  0  0  0  0  0  0  0  0  0
  -21.6093  -60.6189    1.6050 C   0  0  0  0  0  0  0  0  0  0  0  0
  -22.9982  -61.7262    0.0373 O   0  0  0  0  0  0  0  0  0  0  0  0
  1  2  1  0
  2  3  1  0
  3  4  2  0
  4  5  1  0
  5  6  2  0
  6  7  1  0
  7  8  2  0
  8  9  1  0
  9 10  1  0
  8 11  1  0
 11 12  1  0
 12 13  2  0
 13 14  1  0
 14 15  1  0
 15 16  1  0
 15 17  2  0
 13  3  1  0
 12  6  1  0
M  END
>  <fragmenstein_runtime>  (149) 
2.294948

>  <original ID>  (149) 
CZPICAMLPOGNFV-UHFFFAOYSA-N

>  <fragmenstein_error>  (149) 
None

>  <ref_pdb>  (149) 
z0184a

>  <Multi-SuCOS>  (149) 
0.744392

>  <SLURM_JOB_NAME>  (149) 
BulkDock.place:Flavi_NS5_RdRp:RdRp_fstein_cavity_b_split1000_batch000

>  <HIPPO Compound ID>  (149) 
66289

>  <original SMILES>  (149) 
COc1ccc2cc(CN)[nH]c2c1NC(C)=O

>  <name>  (149) 
CZPICAMLPOGNFV-UHFFFAOYSA-N

>  <HIPPO Pose ID>  (149) 
55394

>  <ref_mols>  (149) 
z0136b,z0184a

>  <exports>  (149) 
['/opt/xchem-fragalysis-2/maxwin/BulkDock/OUTPUTS/RdRp_fstein_cavity_b_split1000_batch000_216971.sdf', '/opt/xchem-fragalysis-2/maxwin/BulkDock/OUTPUTS/RdRp_fstein_cavity_b_split1000_batch000_216971_fragalysis.sdf', '/opt/xchem-fragalysis-2/maxwin/RdRp_FFF/syndirella/Retro_OK_batch1.sdf']

>  <alias>  (149) 
None

>  <inchikey>  (149) 
CZPICAMLPOGNFV-UHFFFAOYSA-N

>  <energy_score>  (149) 
-35.134158

>  <distance_score>  (149) 
0.88802

>  <fragmenstein_outcome>  (149) 
acceptable

>  <merge_set>  (149) 
RdRp_fstein_cavity_b

>  <scratch_subdir>  (149) 
/opt/xchem-fragalysis-2/maxwin/BulkDock/SCRATCH/216971/C66289-P96

>  <SLURM_JOB_ID>  (149) 
216971

>  <tags>  (149) 
['Fragmenstein placed', 'RdRp_fstein_cavity_b Pose OK']

>  <fragmenstein_mode>  (149) 
expansion

>  <csv_name>  (149) 
RdRp_fstein_cavity_b_split1000_batch000.csv

$$$$
KJKAAYQWGIVSOZ-UHFFFAOYSA-N
     RDKit          3D

 20 21  0  0  0  0  0  0  0  0999 V2000
  -16.4907  -41.7856  -27.1679 C   0  0  0  0  0  0  0  0  0  0  0  0
  -15.8916  -40.8099  -26.1683 C   0  0  0  0  0  0  0  0  0  0  0  0
  -16.0036  -41.4126  -24.7665 C   0  0  0  0  0  0  0  0  0  0  0  0
  -15.8681  -40.3722  -23.6653 C   0  0  0  0  0  0  0  0  0  0  0  0
  -16.7164  -39.1923  -23.8479 N   0  0  0  0  0  0  0  0  0  0  0  0
  -18.1755  -39.4001  -23.7172 C   0  0  0  0  0  0  0  0  0  0  0  0
  -18.5656  -40.1624  -22.4256 C   0  0  0  0  0  0  0  0  0  0  0  0
  -18.5546  -39.6747  -21.3631 O   0  0  0  0  0  0  0  0  0  0  0  0
  -18.8635  -41.6290  -22.8598 N   0  0  0  0  0  0  0  0  0  0  0  0
  -19.1111  -42.7972  -22.0737 C   0  0  0  0  0  0  0  0  0  0  0  0
  -17.8247  -43.1419  -21.4021 C   0  0  0  0  0  0  0  0  0  0  0  0
  -16.8082  -43.8495  -21.9265 C   0  0  0  0  0  0  0  0  0  0  0  0
  -15.6118  -44.0417  -21.1136 C   0  0  0  0  0  0  0  0  0  0  0  0
  -14.4879  -43.2434  -21.3080 C   0  0  0  0  0  0  0  0  0  0  0  0
  -13.4315  -43.3254  -20.4129 C   0  0  0  0  0  0  0  0  0  0  0  0
  -13.5260  -44.2248  -19.3678 C   0  0  0  0  0  0  0  0  0  0  0  0
  -14.5733  -45.0575  -19.1658 N   0  0  0  0  0  0  0  0  0  0  0  0
  -15.5995  -44.9311  -20.0408 C   0  0  0  0  0  0  0  0  0  0  0  0
  -16.3676  -38.5281  -25.1097 C   0  0  0  0  0  0  0  0  0  0  0  0
  -16.5685  -39.4332  -26.3233 C   0  0  0  0  0  0  0  0  0  0  0  0
  1  2  1  0
  2  3  1  0
  3  4  1  0
  4  5  1  0
  5  6  1  0
  6  7  1  0
  7  8  2  0
  7  9  1  0
  9 10  1  0
 10 11  1  0
 11 12  2  3
 12 13  1  0
 13 14  2  0
 14 15  1  0
 15 16  2  0
 16 17  1  0
 17 18  2  0
  5 19  1  0
 19 20  1  0
 20  2  1  0
 18 13  1  0
M  END
>  <fragmenstein_runtime>  (150) 
3.728476

>  <original ID>  (150) 
KJKAAYQWGIVSOZ-UHFFFAOYSA-N

>  <fragmenstein_error>  (150) 
None

>  <ref_pdb>  (150) 
d0472a

>  <Multi-SuCOS>  (150) 
0.387562

>  <SLURM_JOB_NAME>  (150) 
BulkDock.place:Flavi_NS5_RdRp:RdRp_knitwork_primer_grip_n_pocket_pure_split1800_batch003

>  <HIPPO Compound ID>  (150) 
11901

>  <original SMILES>  (150) 
CC1CCN(CC(=O)NCC=Cc2cccnc2)CC1

>  <name>  (150) 
KJKAAYQWGIVSOZ-UHFFFAOYSA-N

>  <HIPPO Pose ID>  (150) 
55704

>  <ref_mols>  (150) 
d0472a,d0851a,z0193a

>  <exports>  (150) 
['/opt/xchem-fragalysis-2/maxwin/BulkDock/OUTPUTS/RdRp_knitwork_primer_grip_n_pocket_pure_split1800_batch003_217037.sdf', '/opt/xchem-fragalysis-2/maxwin/BulkDock/OUTPUTS/RdRp_knitwork_primer_grip_n_pocket_pure_fragalysis.sdf', '/opt/xchem-fragalysis-2/maxwin/RdRp_FFF/syndirella/Retro_OK_batch1.sdf']

>  <alias>  (150) 
None

>  <inchikey>  (150) 
KJKAAYQWGIVSOZ-UHFFFAOYSA-N

>  <energy_score>  (150) 
-46.7338

>  <distance_score>  (150) 
1.813037

>  <fragmenstein_outcome>  (150) 
acceptable

>  <merge_set>  (150) 
RdRp_knitwork_primer_grip_n_pocket_pure_fragalysis.sdf

>  <scratch_subdir>  (150) 
/opt/xchem-fragalysis-2/maxwin/BulkDock/SCRATCH/217037/C11901-P42

>  <SLURM_JOB_ID>  (150) 
217037

>  <tags>  (150) 
['Fragmenstein placed', 'RdRp_knitwork_primer_grip_n_pocket_pure_fragalysis.sdf Pose OK']

>  <fragmenstein_mode>  (150) 
expansion

>  <csv_name>  (150) 
RdRp_knitwork_primer_grip_n_pocket_pure_split1800_batch003.csv

$$$$
VWAMYSBDXCFQCU-JTQLQIEISA-N
     RDKit          3D

 21 23  0  0  0  0  0  0  0  0999 V2000
  -18.4350  -44.2407  -23.1681 C   0  0  0  0  0  0  0  0  0  0  0  0
  -17.6867  -44.9969  -22.0725 C   0  0  1  0  0  0  0  0  0  0  0  0
  -16.2372  -44.5796  -21.7552 C   0  0  0  0  0  0  0  0  0  0  0  0
  -15.6177  -43.5945  -22.7358 C   0  0  0  0  0  0  0  0  0  0  0  0
  -15.5434  -43.8152  -23.8815 O   0  0  0  0  0  0  0  0  0  0  0  0
  -15.1596  -42.3509  -21.9153 N   0  0  0  0  0  0  0  0  0  0  0  0
  -14.6326  -41.1536  -22.3314 C   0  0  0  0  0  0  0  0  0  0  0  0
  -13.8517  -40.4199  -21.4656 C   0  0  0  0  0  0  0  0  0  0  0  0
  -13.3461  -39.3873  -22.1877 N   0  0  0  0  0  0  0  0  0  0  0  0
  -13.7985  -39.3396  -23.4402 N   0  0  0  0  0  0  0  0  0  0  0  0
  -14.6326  -40.3969  -23.5450 C   0  0  0  0  0  0  0  0  0  0  0  0
  -15.5374  -40.5625  -24.8534 C   0  0  0  0  0  0  0  0  0  0  0  0
  -15.2849  -39.9215  -25.9802 N   0  0  0  0  0  0  0  0  0  0  0  0
  -16.2280  -40.2366  -26.9363 C   0  0  0  0  0  0  0  0  0  0  0  0
  -17.2532  -41.0445  -26.5069 C   0  0  0  0  0  0  0  0  0  0  0  0
  -17.0181  -41.4316  -24.8679 S   0  0  0  0  0  0  0  0  0  0  0  0
  -18.4659  -44.9966  -20.8245 N   0  0  0  0  0  0  0  0  0  0  0  0
  -19.1031  -43.9257  -20.2496 C   0  0  0  0  0  0  0  0  0  0  0  0
  -19.6570  -44.3488  -19.0601 C   0  0  0  0  0  0  0  0  0  0  0  0
  -19.3193  -45.7111  -18.8993 C   0  0  0  0  0  0  0  0  0  0  0  0
  -18.5683  -46.0770  -19.9931 C   0  0  0  0  0  0  0  0  0  0  0  0
  2  1  1  6
  2  3  1  0
  3  4  1  0
  4  5  2  0
  4  6  1  0
  6  7  1  0
  7  8  2  0
  8  9  1  0
  9 10  1  0
 10 11  2  0
 11 12  1  0
 12 13  2  0
 13 14  1  0
 14 15  2  0
 15 16  1  0
  2 17  1  0
 17 18  1  0
 18 19  2  0
 19 20  1  0
 20 21  2  0
 11  7  1  0
 16 12  1  0
 21 17  1  0
M  END
>  <fragmenstein_runtime>  (151) 
8.727745

>  <original ID>  (151) 
VWAMYSBDXCFQCU-JTQLQIEISA-N

>  <fragmenstein_error>  (151) 
None

>  <ref_pdb>  (151) 
d0160a

>  <Multi-SuCOS>  (151) 
0.570752

>  <SLURM_JOB_NAME>  (151) 
BulkDock.place:Flavi_NS5_RdRp:RdRp_knitwork_primer_grip_n_pocket_pure_split1800_batch013

>  <HIPPO Compound ID>  (151) 
20751

>  <original SMILES>  (151) 
C[C@@H](CC(=O)Nc1c[nH]nc1-c1nccs1)n1cccc1

>  <name>  (151) 
VWAMYSBDXCFQCU-JTQLQIEISA-N

>  <HIPPO Pose ID>  (151) 
55812

>  <ref_mols>  (151) 
d0160a,d0264a

>  <exports>  (151) 
['/opt/xchem-fragalysis-2/maxwin/BulkDock/OUTPUTS/RdRp_knitwork_primer_grip_n_pocket_pure_split1800_batch013_217047.sdf', '/opt/xchem-fragalysis-2/maxwin/BulkDock/OUTPUTS/RdRp_knitwork_primer_grip_n_pocket_pure_fragalysis.sdf', '/opt/xchem-fragalysis-2/maxwin/RdRp_FFF/syndirella/Retro_OK_batch1.sdf']

>  <alias>  (151) 
None

>  <inchikey>  (151) 
VWAMYSBDXCFQCU-JTQLQIEISA-N

>  <energy_score>  (151) 
-54.400173

>  <distance_score>  (151) 
0.750104

>  <fragmenstein_outcome>  (151) 
acceptable

>  <merge_set>  (151) 
RdRp_knitwork_primer_grip_n_pocket_pure_fragalysis.sdf

>  <scratch_subdir>  (151) 
/opt/xchem-fragalysis-2/maxwin/BulkDock/SCRATCH/217047/C20751-P12

>  <SLURM_JOB_ID>  (151) 
217047

>  <tags>  (151) 
['Fragmenstein placed', 'RdRp_knitwork_primer_grip_n_pocket_pure_fragalysis.sdf Pose OK']

>  <fragmenstein_mode>  (151) 
expansion

>  <csv_name>  (151) 
RdRp_knitwork_primer_grip_n_pocket_pure_split1800_batch013.csv

$$$$
UIHNHSGAWWYZJJ-UHFFFAOYSA-N
     RDKit          3D

 19 21  0  0  0  0  0  0  0  0999 V2000
  -13.4567  -40.3864  -21.6990 C   0  0  0  0  0  0  0  0  0  0  0  0
  -14.2747  -41.2458  -22.4611 C   0  0  0  0  0  0  0  0  0  0  0  0
  -14.5805  -40.5183  -23.5866 C   0  0  0  0  0  0  0  0  0  0  0  0
  -15.3719  -40.8114  -24.7226 C   0  0  0  0  0  0  0  0  0  0  0  0
  -15.3067  -40.3142  -26.0123 C   0  0  0  0  0  0  0  0  0  0  0  0
  -16.4339  -40.8198  -26.7107 C   0  0  0  0  0  0  0  0  0  0  0  0
  -17.1267  -41.5772  -25.7923 C   0  0  0  0  0  0  0  0  0  0  0  0
  -18.4462  -42.2453  -25.7594 C   0  0  0  0  0  0  0  0  0  0  0  0
  -19.0768  -42.1046  -24.4223 N   0  0  0  0  0  0  0  0  0  0  0  0
  -18.7738  -43.2575  -23.5409 C   0  0  0  0  0  0  0  0  0  0  0  0
  -18.7639  -42.8706  -22.0400 C   0  0  0  0  0  0  0  0  0  0  0  0
  -18.8148  -44.0462  -21.1098 C   0  0  0  0  0  0  0  0  0  0  0  0
  -19.2419  -44.0381  -19.7924 C   0  0  0  0  0  0  0  0  0  0  0  0
  -19.0698  -45.5959  -19.1004 S   0  0  0  0  0  0  0  0  0  0  0  0
  -18.4323  -46.1589  -20.5874 C   0  0  0  0  0  0  0  0  0  0  0  0
  -18.3516  -45.2723  -21.5541 N   0  0  0  0  0  0  0  0  0  0  0  0
  -16.4409  -41.6337  -24.6234 O   0  0  0  0  0  0  0  0  0  0  0  0
  -14.0230  -39.2952  -23.3986 N   0  0  0  0  0  0  0  0  0  0  0  0
  -13.2950  -39.1888  -22.2750 N   0  0  0  0  0  0  0  0  0  0  0  0
  1  2  1  0
  2  3  2  0
  3  4  1  0
  4  5  2  0
  5  6  1  0
  6  7  2  0
  7  8  1  0
  8  9  1  0
  9 10  1  0
 10 11  1  0
 11 12  1  0
 12 13  2  0
 13 14  1  0
 14 15  1  0
 15 16  2  0
  7 17  1  0
  3 18  1  0
 18 19  1  0
 19  1  2  0
 17  4  1  0
 16 12  1  0
M  END
>  <fragmenstein_runtime>  (152) 
2.926062

>  <original ID>  (152) 
UIHNHSGAWWYZJJ-UHFFFAOYSA-N

>  <fragmenstein_error>  (152) 
None

>  <ref_pdb>  (152) 
d0160a

>  <Multi-SuCOS>  (152) 
0.632076

>  <SLURM_JOB_NAME>  (152) 
BulkDock.place:Flavi_NS5_RdRp:RdRp_knitwork_primer_grip_n_pocket_pure_split1800_batch011

>  <HIPPO Compound ID>  (152) 
13787

>  <original SMILES>  (152) 
c1cc(-c2ccc(CNCCc3cscn3)o2)[nH]n1

>  <name>  (152) 
UIHNHSGAWWYZJJ-UHFFFAOYSA-N

>  <HIPPO Pose ID>  (152) 
56073

>  <ref_mols>  (152) 
d0160a,d0264a

>  <exports>  (152) 
['/opt/xchem-fragalysis-2/maxwin/BulkDock/OUTPUTS/RdRp_knitwork_primer_grip_n_pocket_pure_split1800_batch011_217045.sdf', '/opt/xchem-fragalysis-2/maxwin/BulkDock/OUTPUTS/RdRp_knitwork_primer_grip_n_pocket_pure_fragalysis.sdf', '/opt/xchem-fragalysis-2/maxwin/RdRp_FFF/syndirella/Retro_OK_batch1.sdf']

>  <alias>  (152) 
None

>  <inchikey>  (152) 
UIHNHSGAWWYZJJ-UHFFFAOYSA-N

>  <energy_score>  (152) 
-86.912862

>  <distance_score>  (152) 
0.977447

>  <fragmenstein_outcome>  (152) 
acceptable

>  <merge_set>  (152) 
RdRp_knitwork_primer_grip_n_pocket_pure_fragalysis.sdf

>  <scratch_subdir>  (152) 
/opt/xchem-fragalysis-2/maxwin/BulkDock/SCRATCH/217045/C13787-P12

>  <SLURM_JOB_ID>  (152) 
217045

>  <tags>  (152) 
['Fragmenstein placed', 'RdRp_knitwork_primer_grip_n_pocket_pure_fragalysis.sdf Pose OK']

>  <fragmenstein_mode>  (152) 
expansion

>  <csv_name>  (152) 
RdRp_knitwork_primer_grip_n_pocket_pure_split1800_batch011.csv

$$$$
CCPNCJKSPAUVNR-UHFFFAOYSA-N
     RDKit          3D

 23 25  0  0  0  0  0  0  0  0999 V2000
  -13.2362  -44.3166  -18.7391 O   0  0  0  0  0  0  0  0  0  0  0  0
  -14.2548  -43.8366  -18.8838 C   0  0  0  0  0  0  0  0  0  0  0  0
  -15.6684  -44.4723  -18.8945 N   0  0  0  0  0  0  0  0  0  0  0  0
  -16.0722  -45.8609  -18.8191 C   0  0  0  0  0  0  0  0  0  0  0  0
  -16.9387  -46.3120  -20.0125 C   0  0  0  0  0  0  0  0  0  0  0  0
  -18.2426  -45.5712  -20.0681 C   0  0  0  0  0  0  0  0  0  0  0  0
  -18.5718  -44.7134  -21.0148 N   0  0  0  0  0  0  0  0  0  0  0  0
  -19.7996  -44.1517  -20.7238 C   0  0  0  0  0  0  0  0  0  0  0  0
  -20.3885  -44.5796  -19.5557 C   0  0  0  0  0  0  0  0  0  0  0  0
  -19.4010  -45.7547  -18.8060 S   0  0  0  0  0  0  0  0  0  0  0  0
  -14.6304  -42.3825  -19.2277 N   0  0  0  0  0  0  0  0  0  0  0  0
  -13.7928  -41.2526  -19.5547 C   0  0  0  0  0  0  0  0  0  0  0  0
  -13.8960  -41.0741  -21.0426 C   0  0  0  0  0  0  0  0  0  0  0  0
  -14.4108  -42.0249  -21.9597 C   0  0  0  0  0  0  0  0  0  0  0  0
  -14.5063  -41.3808  -23.1690 C   0  0  0  0  0  0  0  0  0  0  0  0
  -15.2132  -41.7626  -24.3844 C   0  0  0  0  0  0  0  0  0  0  0  0
  -15.0655  -41.0716  -25.5902 C   0  0  0  0  0  0  0  0  0  0  0  0
  -15.9932  -41.2211  -26.6098 C   0  0  0  0  0  0  0  0  0  0  0  0
  -16.9976  -42.1554  -26.4555 C   0  0  0  0  0  0  0  0  0  0  0  0
  -17.0786  -42.9622  -25.3354 C   0  0  0  0  0  0  0  0  0  0  0  0
  -16.1991  -42.7513  -24.2918 C   0  0  0  0  0  0  0  0  0  0  0  0
  -13.8291  -40.2043  -22.9602 N   0  0  0  0  0  0  0  0  0  0  0  0
  -13.5877  -39.9272  -21.6658 N   0  0  0  0  0  0  0  0  0  0  0  0
  1  2  2  0
  2  3  1  0
  3  4  1  0
  4  5  1  0
  5  6  1  0
  6  7  2  0
  7  8  1  0
  8  9  2  0
  9 10  1  0
  2 11  1  0
 11 12  1  0
 12 13  1  0
 13 14  1  0
 14 15  2  0
 15 16  1  0
 16 17  2  0
 17 18  1  0
 18 19  2  0
 19 20  1  0
 20 21  2  0
 15 22  1  0
 22 23  1  0
 10  6  1  0
 23 13  2  0
 21 16  1  0
M  END
>  <fragmenstein_runtime>  (153) 
7.171136

>  <original ID>  (153) 
CCPNCJKSPAUVNR-UHFFFAOYSA-N

>  <fragmenstein_error>  (153) 
None

>  <ref_pdb>  (153) 
d0264a

>  <Multi-SuCOS>  (153) 
0.437261

>  <SLURM_JOB_NAME>  (153) 
BulkDock.place:Flavi_NS5_RdRp:RdRp_knitwork_primer_grip_n_pocket_pure_split1800_batch013

>  <HIPPO Compound ID>  (153) 
23723

>  <original SMILES>  (153) 
O=C(NCCc1nccs1)NCc1cc(-c2ccccc2)[nH]n1

>  <name>  (153) 
CCPNCJKSPAUVNR-UHFFFAOYSA-N

>  <HIPPO Pose ID>  (153) 
56447

>  <ref_mols>  (153) 
d0160a,d0264a

>  <exports>  (153) 
['/opt/xchem-fragalysis-2/maxwin/BulkDock/OUTPUTS/RdRp_knitwork_primer_grip_n_pocket_pure_split1800_batch013_217047.sdf', '/opt/xchem-fragalysis-2/maxwin/BulkDock/OUTPUTS/RdRp_knitwork_primer_grip_n_pocket_pure_fragalysis.sdf', '/opt/xchem-fragalysis-2/maxwin/RdRp_FFF/syndirella/Retro_OK_batch1.sdf']

>  <alias>  (153) 
None

>  <inchikey>  (153) 
CCPNCJKSPAUVNR-UHFFFAOYSA-N

>  <energy_score>  (153) 
-31.382042

>  <distance_score>  (153) 
0.979999

>  <fragmenstein_outcome>  (153) 
acceptable

>  <merge_set>  (153) 
RdRp_knitwork_primer_grip_n_pocket_pure_fragalysis.sdf

>  <scratch_subdir>  (153) 
/opt/xchem-fragalysis-2/maxwin/BulkDock/SCRATCH/217047/C23723-P28

>  <SLURM_JOB_ID>  (153) 
217047

>  <tags>  (153) 
['Fragmenstein placed', 'RdRp_knitwork_primer_grip_n_pocket_pure_fragalysis.sdf Pose OK']

>  <fragmenstein_mode>  (153) 
expansion

>  <csv_name>  (153) 
RdRp_knitwork_primer_grip_n_pocket_pure_split1800_batch013.csv

$$$$
DADSAPQQDDUWHN-UHFFFAOYSA-N
     RDKit          3D

 22 23  0  0  0  0  0  0  0  0999 V2000
  -16.3771  -46.9254  -19.6183 C   0  0  0  0  0  0  0  0  0  0  0  0
  -17.1906  -46.1989  -20.6962 C   0  0  0  0  0  0  0  0  0  0  0  0
  -17.8382  -47.1871  -21.6609 C   0  0  0  0  0  0  0  0  0  0  0  0
  -16.3327  -45.2648  -21.4223 N   0  0  0  0  0  0  0  0  0  0  0  0
  -15.1779  -44.3790  -20.9279 C   0  0  0  0  0  0  0  0  0  0  0  0
  -14.6758  -44.3094  -19.8807 O   0  0  0  0  0  0  0  0  0  0  0  0
  -14.8234  -43.4673  -22.0536 C   0  0  0  0  0  0  0  0  0  0  0  0
  -14.5599  -42.2041  -21.6882 C   0  0  0  0  0  0  0  0  0  0  0  0
  -14.3240  -41.0760  -22.5167 C   0  0  0  0  0  0  0  0  0  0  0  0
  -13.6645  -39.8863  -22.1399 C   0  0  0  0  0  0  0  0  0  0  0  0
  -13.6215  -38.9873  -23.1276 N   0  0  0  0  0  0  0  0  0  0  0  0
  -14.2741  -39.6050  -24.1368 N   0  0  0  0  0  0  0  0  0  0  0  0
  -14.7092  -40.8637  -23.8176 C   0  0  0  0  0  0  0  0  0  0  0  0
  -18.2777  -45.3043  -20.1170 C   0  0  0  0  0  0  0  0  0  0  0  0
  -18.6055  -44.1544  -20.6761 N   0  0  0  0  0  0  0  0  0  0  0  0
  -19.3696  -43.3967  -19.8097 C   0  0  0  0  0  0  0  0  0  0  0  0
  -19.6351  -41.9569  -20.1160 C   0  0  0  0  0  0  0  0  0  0  0  0
  -19.5338  -41.6555  -21.4339 F   0  0  0  0  0  0  0  0  0  0  0  0
  -18.8004  -41.1261  -19.4428 F   0  0  0  0  0  0  0  0  0  0  0  0
  -20.9011  -41.6160  -19.7412 F   0  0  0  0  0  0  0  0  0  0  0  0
  -19.8190  -44.0967  -18.7027 C   0  0  0  0  0  0  0  0  0  0  0  0
  -19.1572  -45.6749  -18.6876 S   0  0  0  0  0  0  0  0  0  0  0  0
  1  2  1  0
  2  3  1  0
  2  4  1  0
  4  5  1  0
  5  6  2  0
  5  7  1  0
  7  8  2  3
  8  9  1  0
  9 10  1  0
 10 11  2  0
 11 12  1  0
 12 13  1  0
  2 14  1  0
 14 15  2  0
 15 16  1  0
 16 17  1  0
 17 18  1  0
 17 19  1  0
 17 20  1  0
 16 21  2  0
 21 22  1  0
 13  9  2  0
 22 14  1  0
M  END
>  <fragmenstein_runtime>  (154) 
3.948796

>  <original ID>  (154) 
DADSAPQQDDUWHN-UHFFFAOYSA-N

>  <fragmenstein_error>  (154) 
None

>  <ref_pdb>  (154) 
d0160a

>  <Multi-SuCOS>  (154) 
0.483956

>  <SLURM_JOB_NAME>  (154) 
BulkDock.place:Flavi_NS5_RdRp:RdRp_knitwork_primer_grip_n_pocket_pure_split1800_batch011

>  <HIPPO Compound ID>  (154) 
10050

>  <original SMILES>  (154) 
CC(C)(NC(=O)C=Cc1cn[nH]c1)c1nc(C(F)(F)F)cs1

>  <name>  (154) 
DADSAPQQDDUWHN-UHFFFAOYSA-N

>  <HIPPO Pose ID>  (154) 
56912

>  <ref_mols>  (154) 
d0160a,d0264a

>  <exports>  (154) 
['/opt/xchem-fragalysis-2/maxwin/BulkDock/OUTPUTS/RdRp_knitwork_primer_grip_n_pocket_pure_split1800_batch011_217045.sdf', '/opt/xchem-fragalysis-2/maxwin/BulkDock/OUTPUTS/RdRp_knitwork_primer_grip_n_pocket_pure_fragalysis.sdf', '/opt/xchem-fragalysis-2/maxwin/RdRp_FFF/syndirella/Retro_OK_batch1.sdf']

>  <alias>  (154) 
None

>  <inchikey>  (154) 
DADSAPQQDDUWHN-UHFFFAOYSA-N

>  <energy_score>  (154) 
-40.349686

>  <distance_score>  (154) 
0.975081

>  <fragmenstein_outcome>  (154) 
acceptable

>  <merge_set>  (154) 
RdRp_knitwork_primer_grip_n_pocket_pure_fragalysis.sdf

>  <scratch_subdir>  (154) 
/opt/xchem-fragalysis-2/maxwin/BulkDock/SCRATCH/217045/C10050-P12

>  <SLURM_JOB_ID>  (154) 
217045

>  <tags>  (154) 
['Fragmenstein placed', 'RdRp_knitwork_primer_grip_n_pocket_pure_fragalysis.sdf Pose OK']

>  <fragmenstein_mode>  (154) 
expansion

>  <csv_name>  (154) 
RdRp_knitwork_primer_grip_n_pocket_pure_split1800_batch011.csv

$$$$
UQSHJVZWGPXUMU-UHFFFAOYSA-N
     RDKit          3D

 19 20  0  0  0  0  0  0  0  0999 V2000
  -19.6317  -41.9444  -20.2182 C   0  0  0  0  0  0  0  0  0  0  0  0
  -19.4229  -43.3674  -19.8615 C   0  0  0  0  0  0  0  0  0  0  0  0
  -19.8797  -44.0410  -18.7460 C   0  0  0  0  0  0  0  0  0  0  0  0
  -19.2194  -45.6211  -18.7075 S   0  0  0  0  0  0  0  0  0  0  0  0
  -18.3254  -45.2621  -20.1327 C   0  0  0  0  0  0  0  0  0  0  0  0
  -17.2254  -46.1578  -20.6851 C   0  0  0  0  0  0  0  0  0  0  0  0
  -17.8521  -47.1572  -21.6532 C   0  0  0  0  0  0  0  0  0  0  0  0
  -16.4281  -46.8787  -19.5911 C   0  0  0  0  0  0  0  0  0  0  0  0
  -16.3580  -45.2325  -21.4129 N   0  0  0  0  0  0  0  0  0  0  0  0
  -15.1704  -44.3859  -20.9274 C   0  0  0  0  0  0  0  0  0  0  0  0
  -14.6452  -44.3483  -19.8901 O   0  0  0  0  0  0  0  0  0  0  0  0
  -14.8200  -43.4666  -22.0474 C   0  0  0  0  0  0  0  0  0  0  0  0
  -14.5672  -42.2025  -21.6788 C   0  0  0  0  0  0  0  0  0  0  0  0
  -14.3309  -41.0742  -22.5072 C   0  0  0  0  0  0  0  0  0  0  0  0
  -13.6852  -39.8785  -22.1260 C   0  0  0  0  0  0  0  0  0  0  0  0
  -13.6368  -38.9822  -23.1159 N   0  0  0  0  0  0  0  0  0  0  0  0
  -14.2629  -39.6111  -24.1345 N   0  0  0  0  0  0  0  0  0  0  0  0
  -14.6975  -40.8701  -23.8149 C   0  0  0  0  0  0  0  0  0  0  0  0
  -18.6578  -44.1225  -20.7127 N   0  0  0  0  0  0  0  0  0  0  0  0
  1  2  1  0
  2  3  2  0
  3  4  1  0
  4  5  1  0
  5  6  1  0
  6  7  1  0
  6  8  1  0
  6  9  1  0
  9 10  1  0
 10 11  2  0
 10 12  1  0
 12 13  2  3
 13 14  1  0
 14 15  1  0
 15 16  2  0
 16 17  1  0
 17 18  1  0
  5 19  2  0
 19  2  1  0
 18 14  2  0
M  END
>  <fragmenstein_runtime>  (155) 
3.008614

>  <original ID>  (155) 
UQSHJVZWGPXUMU-UHFFFAOYSA-N

>  <fragmenstein_error>  (155) 
None

>  <ref_pdb>  (155) 
d0160a

>  <Multi-SuCOS>  (155) 
0.507336

>  <SLURM_JOB_NAME>  (155) 
BulkDock.place:Flavi_NS5_RdRp:RdRp_knitwork_primer_grip_n_pocket_pure_split1800_batch011

>  <HIPPO Compound ID>  (155) 
10068

>  <original SMILES>  (155) 
Cc1csc(C(C)(C)NC(=O)C=Cc2cn[nH]c2)n1

>  <name>  (155) 
UQSHJVZWGPXUMU-UHFFFAOYSA-N

>  <HIPPO Pose ID>  (155) 
56921

>  <ref_mols>  (155) 
d0160a,d0264a

>  <exports>  (155) 
['/opt/xchem-fragalysis-2/maxwin/BulkDock/OUTPUTS/RdRp_knitwork_primer_grip_n_pocket_pure_split1800_batch011_217045.sdf', '/opt/xchem-fragalysis-2/maxwin/BulkDock/OUTPUTS/RdRp_knitwork_primer_grip_n_pocket_pure_fragalysis.sdf', '/opt/xchem-fragalysis-2/maxwin/RdRp_FFF/syndirella/Retro_OK_batch1.sdf']

>  <alias>  (155) 
None

>  <inchikey>  (155) 
UQSHJVZWGPXUMU-UHFFFAOYSA-N

>  <energy_score>  (155) 
-28.812577

>  <distance_score>  (155) 
0.971142

>  <fragmenstein_outcome>  (155) 
acceptable

>  <merge_set>  (155) 
RdRp_knitwork_primer_grip_n_pocket_pure_fragalysis.sdf

>  <scratch_subdir>  (155) 
/opt/xchem-fragalysis-2/maxwin/BulkDock/SCRATCH/217045/C10068-P12

>  <SLURM_JOB_ID>  (155) 
217045

>  <tags>  (155) 
['Fragmenstein placed', 'RdRp_knitwork_primer_grip_n_pocket_pure_fragalysis.sdf Pose OK']

>  <fragmenstein_mode>  (155) 
expansion

>  <csv_name>  (155) 
RdRp_knitwork_primer_grip_n_pocket_pure_split1800_batch011.csv

$$$$
ONMVMPIETUJGPU-UHFFFAOYSA-N
     RDKit          3D

 22 24  0  0  0  0  0  0  0  0999 V2000
  -17.7041  -43.0649  -23.0216 O   0  0  0  0  0  0  0  0  0  0  0  0
  -18.0199  -43.5701  -22.0225 C   0  0  0  0  0  0  0  0  0  0  0  0
  -18.7473  -42.9900  -20.7994 N   0  0  0  0  0  0  0  0  0  0  0  0
  -19.3268  -41.6839  -20.5841 C   0  0  0  0  0  0  0  0  0  0  0  0
  -20.6307  -41.4651  -21.3544 C   0  0  0  0  0  0  0  0  0  0  0  0
  -21.8877  -41.8244  -20.5950 C   0  0  0  0  0  0  0  0  0  0  0  0
  -22.1177  -43.1183  -20.1328 C   0  0  0  0  0  0  0  0  0  0  0  0
  -23.3379  -43.4146  -19.5278 C   0  0  0  0  0  0  0  0  0  0  0  0
  -24.2974  -42.4199  -19.4052 C   0  0  0  0  0  0  0  0  0  0  0  0
  -23.9888  -41.1578  -19.8781 C   0  0  0  0  0  0  0  0  0  0  0  0
  -22.8151  -40.8410  -20.4683 N   0  0  0  0  0  0  0  0  0  0  0  0
  -17.7407  -44.9679  -21.7518 C   0  0  0  0  0  0  0  0  0  0  0  0
  -18.3522  -46.0557  -22.3493 C   0  0  0  0  0  0  0  0  0  0  0  0
  -17.9671  -47.2161  -21.6471 C   0  0  0  0  0  0  0  0  0  0  0  0
  -17.0199  -46.8337  -20.7294 C   0  0  0  0  0  0  0  0  0  0  0  0
  -16.7826  -45.4871  -20.9080 N   0  0  0  0  0  0  0  0  0  0  0  0
  -15.5992  -44.8312  -20.3685 C   0  0  0  0  0  0  0  0  0  0  0  0
  -14.8869  -43.8732  -21.3289 C   0  0  0  0  0  0  0  0  0  0  0  0
  -13.5937  -43.3705  -20.6992 C   0  0  0  0  0  0  0  0  0  0  0  0
  -13.8392  -42.7608  -19.3899 N   0  0  0  0  0  0  0  0  0  0  0  0
  -14.4933  -43.6752  -18.4617 C   0  0  0  0  0  0  0  0  0  0  0  0
  -15.8254  -44.1802  -19.0103 C   0  0  0  0  0  0  0  0  0  0  0  0
  1  2  2  0
  2  3  1  0
  3  4  1  0
  4  5  1  0
  5  6  1  0
  6  7  2  0
  7  8  1  0
  8  9  2  0
  9 10  1  0
 10 11  2  0
  2 12  1  0
 12 13  2  0
 13 14  1  0
 14 15  2  0
 15 16  1  0
 16 17  1  0
 17 18  1  0
 18 19  1  0
 19 20  1  0
 20 21  1  0
 21 22  1  0
 11  6  1  0
 16 12  1  0
 22 17  1  0
M  END
>  <fragmenstein_runtime>  (156) 
6.909584

>  <original ID>  (156) 
ONMVMPIETUJGPU-UHFFFAOYSA-N

>  <fragmenstein_error>  (156) 
None

>  <ref_pdb>  (156) 
d0472a

>  <Multi-SuCOS>  (156) 
0.344246

>  <SLURM_JOB_NAME>  (156) 
BulkDock.place:Flavi_NS5_RdRp:RdRp_knitwork_primer_grip_n_pocket_pure_split1800_batch010

>  <HIPPO Compound ID>  (156) 
15413

>  <original SMILES>  (156) 
O=C(NCCc1ccccn1)c1cccn1C1CCNCC1

>  <name>  (156) 
ONMVMPIETUJGPU-UHFFFAOYSA-N

>  <HIPPO Pose ID>  (156) 
57061

>  <ref_mols>  (156) 
d0472a,z0193a

>  <exports>  (156) 
['/opt/xchem-fragalysis-2/maxwin/BulkDock/OUTPUTS/RdRp_knitwork_primer_grip_n_pocket_pure_split1800_batch010_217044.sdf', '/opt/xchem-fragalysis-2/maxwin/BulkDock/OUTPUTS/RdRp_knitwork_primer_grip_n_pocket_pure_fragalysis.sdf', '/opt/xchem-fragalysis-2/maxwin/RdRp_FFF/syndirella/Retro_OK_batch1.sdf']

>  <alias>  (156) 
None

>  <inchikey>  (156) 
ONMVMPIETUJGPU-UHFFFAOYSA-N

>  <energy_score>  (156) 
-41.710727

>  <distance_score>  (156) 
0.892571

>  <fragmenstein_outcome>  (156) 
acceptable

>  <merge_set>  (156) 
RdRp_knitwork_primer_grip_n_pocket_pure_fragalysis.sdf

>  <scratch_subdir>  (156) 
/opt/xchem-fragalysis-2/maxwin/BulkDock/SCRATCH/217044/C15413-P42

>  <SLURM_JOB_ID>  (156) 
217044

>  <tags>  (156) 
['Fragmenstein placed', 'RdRp_knitwork_primer_grip_n_pocket_pure_fragalysis.sdf Pose OK']

>  <fragmenstein_mode>  (156) 
expansion

>  <csv_name>  (156) 
RdRp_knitwork_primer_grip_n_pocket_pure_split1800_batch010.csv

$$$$
ZJXXRVIHPNHLIS-UHFFFAOYSA-N
     RDKit          3D

 21 23  0  0  0  0  0  0  0  0999 V2000
  -18.2550  -43.5835  -18.2667 O   0  0  0  0  0  0  0  0  0  0  0  0
  -18.6380  -43.8141  -19.3396 C   0  0  0  0  0  0  0  0  0  0  0  0
  -19.6020  -43.0350  -20.2382 N   0  0  0  0  0  0  0  0  0  0  0  0
  -20.3787  -41.8490  -19.9733 C   0  0  0  0  0  0  0  0  0  0  0  0
  -21.8592  -42.0862  -19.7938 C   0  0  0  0  0  0  0  0  0  0  0  0
  -22.3332  -43.1990  -19.1001 C   0  0  0  0  0  0  0  0  0  0  0  0
  -23.7064  -43.3639  -18.9419 C   0  0  0  0  0  0  0  0  0  0  0  0
  -24.5692  -42.4029  -19.4490 C   0  0  0  0  0  0  0  0  0  0  0  0
  -24.0196  -41.3074  -20.0904 C   0  0  0  0  0  0  0  0  0  0  0  0
  -22.6948  -41.1352  -20.2902 N   0  0  0  0  0  0  0  0  0  0  0  0
  -18.1259  -44.9610  -20.0754 C   0  0  0  0  0  0  0  0  0  0  0  0
  -18.8084  -46.0545  -20.5766 C   0  0  0  0  0  0  0  0  0  0  0  0
  -17.8783  -46.9517  -21.1456 C   0  0  0  0  0  0  0  0  0  0  0  0
  -16.6352  -46.4118  -20.9349 C   0  0  0  0  0  0  0  0  0  0  0  0
  -16.7953  -45.1743  -20.3663 N   0  0  0  0  0  0  0  0  0  0  0  0
  -15.7265  -44.2128  -20.1312 C   0  0  0  0  0  0  0  0  0  0  0  0
  -14.9708  -43.8483  -21.4085 C   0  0  0  0  0  0  0  0  0  0  0  0
  -13.9691  -42.7327  -21.1183 C   0  0  0  0  0  0  0  0  0  0  0  0
  -13.4536  -42.7191  -19.7467 N   0  0  0  0  0  0  0  0  0  0  0  0
  -13.3935  -44.0528  -19.1714 C   0  0  0  0  0  0  0  0  0  0  0  0
  -14.7809  -44.6653  -19.0143 C   0  0  0  0  0  0  0  0  0  0  0  0
  1  2  2  0
  2  3  1  0
  3  4  1  0
  4  5  1  0
  5  6  2  0
  6  7  1  0
  7  8  2  0
  8  9  1  0
  9 10  2  0
  2 11  1  0
 11 12  2  0
 12 13  1  0
 13 14  2  0
 14 15  1  0
 15 16  1  0
 16 17  1  0
 17 18  1  0
 18 19  1  0
 19 20  1  0
 20 21  1  0
 10  5  1  0
 15 11  1  0
 21 16  1  0
M  END
>  <fragmenstein_runtime>  (157) 
7.143402

>  <original ID>  (157) 
ZJXXRVIHPNHLIS-UHFFFAOYSA-N

>  <fragmenstein_error>  (157) 
None

>  <ref_pdb>  (157) 
d0472a

>  <Multi-SuCOS>  (157) 
0.329447

>  <SLURM_JOB_NAME>  (157) 
BulkDock.place:Flavi_NS5_RdRp:RdRp_knitwork_primer_grip_n_pocket_pure_split1800_batch010

>  <HIPPO Compound ID>  (157) 
15937

>  <original SMILES>  (157) 
O=C(NCc1ccccn1)c1cccn1C1CCNCC1

>  <name>  (157) 
ZJXXRVIHPNHLIS-UHFFFAOYSA-N

>  <HIPPO Pose ID>  (157) 
57097

>  <ref_mols>  (157) 
d0472a,z0193a

>  <exports>  (157) 
['/opt/xchem-fragalysis-2/maxwin/BulkDock/OUTPUTS/RdRp_knitwork_primer_grip_n_pocket_pure_split1800_batch010_217044.sdf', '/opt/xchem-fragalysis-2/maxwin/BulkDock/OUTPUTS/RdRp_knitwork_primer_grip_n_pocket_pure_fragalysis.sdf', '/opt/xchem-fragalysis-2/maxwin/RdRp_FFF/syndirella/Retro_OK_batch1.sdf']

>  <alias>  (157) 
None

>  <inchikey>  (157) 
ZJXXRVIHPNHLIS-UHFFFAOYSA-N

>  <energy_score>  (157) 
-33.512455

>  <distance_score>  (157) 
0.998121

>  <fragmenstein_outcome>  (157) 
acceptable

>  <merge_set>  (157) 
RdRp_knitwork_primer_grip_n_pocket_pure_fragalysis.sdf

>  <scratch_subdir>  (157) 
/opt/xchem-fragalysis-2/maxwin/BulkDock/SCRATCH/217044/C15937-P42

>  <SLURM_JOB_ID>  (157) 
217044

>  <tags>  (157) 
['Fragmenstein placed', 'RdRp_knitwork_primer_grip_n_pocket_pure_fragalysis.sdf Pose OK']

>  <fragmenstein_mode>  (157) 
expansion

>  <csv_name>  (157) 
RdRp_knitwork_primer_grip_n_pocket_pure_split1800_batch010.csv

$$$$
JQSBPXUZUDUFTP-MRVPVSSYSA-N
     RDKit          3D

 15 15  0  0  0  0  0  0  0  0999 V2000
  -22.7721  -46.7569  -15.0495 C   0  0  0  0  0  0  0  0  0  0  0  0
  -22.0317  -47.3081  -16.2685 C   0  0  0  0  0  0  0  0  0  0  0  0
  -22.7972  -48.4846  -16.8569 C   0  0  0  0  0  0  0  0  0  0  0  0
  -21.8852  -46.1685  -17.2850 C   0  0  0  0  0  0  0  0  0  0  0  0
  -22.7061  -45.9177  -18.0743 O   0  0  0  0  0  0  0  0  0  0  0  0
  -20.5554  -45.4427  -16.9530 N   0  0  0  0  0  0  0  0  0  0  0  0
  -19.9160  -44.3077  -17.5934 C   0  0  2  0  0  0  0  0  0  0  0  0
  -20.7122  -43.0389  -17.2745 C   0  0  0  0  0  0  0  0  0  0  0  0
  -19.6418  -44.4749  -19.0853 C   0  0  0  0  0  0  0  0  0  0  0  0
  -19.0023  -45.6143  -19.5817 C   0  0  0  0  0  0  0  0  0  0  0  0
  -18.6442  -45.6661  -20.9365 C   0  0  0  0  0  0  0  0  0  0  0  0
  -18.9442  -44.5891  -21.7600 C   0  0  0  0  0  0  0  0  0  0  0  0
  -18.6349  -44.5882  -23.0703 F   0  0  0  0  0  0  0  0  0  0  0  0
  -19.5850  -43.5054  -21.1972 C   0  0  0  0  0  0  0  0  0  0  0  0
  -19.9186  -43.4152  -19.8919 N   0  0  0  0  0  0  0  0  0  0  0  0
  1  2  1  0
  2  3  1  0
  2  4  1  0
  4  5  2  0
  4  6  1  0
  6  7  1  0
  7  8  1  6
  7  9  1  0
  9 10  2  0
 10 11  1  0
 11 12  2  0
 12 13  1  0
 12 14  1  0
 14 15  2  0
 15  9  1  0
M  END
>  <fragmenstein_runtime>  (158) 
4.213002

>  <original ID>  (158) 
JQSBPXUZUDUFTP-MRVPVSSYSA-N

>  <fragmenstein_error>  (158) 
None

>  <ref_pdb>  (158) 
d0264a

>  <Multi-SuCOS>  (158) 
0.682055

>  <SLURM_JOB_NAME>  (158) 
BulkDock.place:Flavi_NS5_RdRp:RdRp_knitwork_primer_grip_n_pocket_pure_split1800_batch006

>  <HIPPO Compound ID>  (158) 
15416

>  <original SMILES>  (158) 
CC(C)C(=O)N[C@H](C)c1ccc(F)cn1

>  <name>  (158) 
JQSBPXUZUDUFTP-MRVPVSSYSA-N

>  <HIPPO Pose ID>  (158) 
57868

>  <ref_mols>  (158) 
d0264a,d0615b

>  <exports>  (158) 
['/opt/xchem-fragalysis-2/maxwin/BulkDock/OUTPUTS/RdRp_knitwork_primer_grip_n_pocket_pure_split1800_batch006_217040.sdf', '/opt/xchem-fragalysis-2/maxwin/BulkDock/OUTPUTS/RdRp_knitwork_primer_grip_n_pocket_pure_fragalysis.sdf', '/opt/xchem-fragalysis-2/maxwin/RdRp_FFF/syndirella/Retro_OK_batch1.sdf']

>  <alias>  (158) 
None

>  <inchikey>  (158) 
JQSBPXUZUDUFTP-MRVPVSSYSA-N

>  <energy_score>  (158) 
-12.205516

>  <distance_score>  (158) 
0.845042

>  <fragmenstein_outcome>  (158) 
acceptable

>  <merge_set>  (158) 
RdRp_knitwork_primer_grip_n_pocket_pure_fragalysis.sdf

>  <scratch_subdir>  (158) 
/opt/xchem-fragalysis-2/maxwin/BulkDock/SCRATCH/217040/C15416-P28

>  <SLURM_JOB_ID>  (158) 
217040

>  <tags>  (158) 
['Fragmenstein placed', 'RdRp_knitwork_primer_grip_n_pocket_pure_fragalysis.sdf Pose OK']

>  <fragmenstein_mode>  (158) 
expansion

>  <csv_name>  (158) 
RdRp_knitwork_primer_grip_n_pocket_pure_split1800_batch006.csv

$$$$
NBXAYGBEQBZCQN-TZMCWYRMSA-N
     RDKit          3D

 22 23  0  0  0  0  0  0  0  0999 V2000
  -14.2525  -43.2401  -23.5616 C   0  0  0  0  0  0  0  0  0  0  0  0
  -15.7127  -43.6519  -23.4446 C   0  0  1  0  0  0  0  0  0  0  0  0
  -16.1630  -44.2593  -22.2473 O   0  0  0  0  0  0  0  0  0  0  0  0
  -15.5080  -44.1101  -21.0733 C   0  0  0  0  0  0  0  0  0  0  0  0
  -14.8852  -42.9584  -20.6188 C   0  0  0  0  0  0  0  0  0  0  0  0
  -14.2301  -42.9777  -19.3909 C   0  0  0  0  0  0  0  0  0  0  0  0
  -14.2714  -44.1397  -18.6380 C   0  0  0  0  0  0  0  0  0  0  0  0
  -14.9030  -45.2692  -19.0228 N   0  0  0  0  0  0  0  0  0  0  0  0
  -15.5195  -45.2133  -20.2269 C   0  0  0  0  0  0  0  0  0  0  0  0
  -16.6010  -42.4775  -23.9092 C   0  0  0  0  0  0  0  0  0  0  0  0
  -17.1738  -41.7597  -23.1882 O   0  0  0  0  0  0  0  0  0  0  0  0
  -16.4625  -42.4495  -25.4581 N   0  0  0  0  0  0  0  0  0  0  0  0
  -16.9176  -41.4880  -26.4132 C   0  0  0  0  0  0  0  0  0  0  0  0
  -16.1194  -40.1685  -26.4321 C   0  0  2  0  0  0  0  0  0  0  0  0
  -14.7470  -40.2346  -25.7779 C   0  0  0  0  0  0  0  0  0  0  0  0
  -13.8748  -39.3786  -26.4881 O   0  0  0  0  0  0  0  0  0  0  0  0
  -16.9801  -39.0195  -25.9560 C   0  0  0  0  0  0  0  0  0  0  0  0
  -16.9624  -38.4615  -24.6789 C   0  0  0  0  0  0  0  0  0  0  0  0
  -17.8343  -37.4205  -24.3708 C   0  0  0  0  0  0  0  0  0  0  0  0
  -18.7218  -36.9902  -25.3430 C   0  0  0  0  0  0  0  0  0  0  0  0
  -18.7903  -37.5148  -26.5862 N   0  0  0  0  0  0  0  0  0  0  0  0
  -17.9082  -38.5036  -26.8520 C   0  0  0  0  0  0  0  0  0  0  0  0
  2  1  1  1
  2  3  1  0
  3  4  1  0
  4  5  2  0
  5  6  1  0
  6  7  2  0
  7  8  1  0
  8  9  2  0
  2 10  1  0
 10 11  2  0
 10 12  1  0
 12 13  1  0
 14 13  1  1
 14 15  1  0
 15 16  1  0
 14 17  1  0
 17 18  2  0
 18 19  1  0
 19 20  2  0
 20 21  1  0
 21 22  2  0
  9  4  1  0
 22 17  1  0
M  END
>  <fragmenstein_runtime>  (159) 
4.731473

>  <original ID>  (159) 
NBXAYGBEQBZCQN-TZMCWYRMSA-N

>  <fragmenstein_error>  (159) 
None

>  <ref_pdb>  (159) 
d0472a

>  <Multi-SuCOS>  (159) 
0.521963

>  <SLURM_JOB_NAME>  (159) 
BulkDock.place:Flavi_NS5_RdRp:RdRp_knitwork_primer_grip_n_pocket_pure_split1800_batch015

>  <HIPPO Compound ID>  (159) 
13623

>  <original SMILES>  (159) 
C[C@@H](Oc1cccnc1)C(=O)NC[C@H](CO)c1cccnc1

>  <name>  (159) 
NBXAYGBEQBZCQN-TZMCWYRMSA-N

>  <HIPPO Pose ID>  (159) 
58135

>  <ref_mols>  (159) 
d0191a,d0472a

>  <exports>  (159) 
['/opt/xchem-fragalysis-2/maxwin/BulkDock/OUTPUTS/RdRp_knitwork_primer_grip_n_pocket_pure_split1800_batch015_217049.sdf', '/opt/xchem-fragalysis-2/maxwin/BulkDock/OUTPUTS/RdRp_knitwork_primer_grip_n_pocket_pure_fragalysis.sdf', '/opt/xchem-fragalysis-2/maxwin/RdRp_FFF/syndirella/Retro_OK_batch1.sdf']

>  <alias>  (159) 
None

>  <inchikey>  (159) 
NBXAYGBEQBZCQN-TZMCWYRMSA-N

>  <energy_score>  (159) 
-8.154132

>  <distance_score>  (159) 
0.922802

>  <fragmenstein_outcome>  (159) 
acceptable

>  <merge_set>  (159) 
RdRp_knitwork_primer_grip_n_pocket_pure_fragalysis.sdf

>  <scratch_subdir>  (159) 
/opt/xchem-fragalysis-2/maxwin/BulkDock/SCRATCH/217049/C13623-P42

>  <SLURM_JOB_ID>  (159) 
217049

>  <tags>  (159) 
['Fragmenstein placed', 'RdRp_knitwork_primer_grip_n_pocket_pure_fragalysis.sdf Pose OK']

>  <fragmenstein_mode>  (159) 
expansion

>  <csv_name>  (159) 
RdRp_knitwork_primer_grip_n_pocket_pure_split1800_batch015.csv

$$$$
PXNMOXNSHAKQAT-UHFFFAOYSA-N
     RDKit          3D

 14 15  0  0  0  0  0  0  0  0999 V2000
  -14.1328  -69.7704  -18.7807 O   0  0  0  0  0  0  0  0  0  0  0  0
  -13.3274  -69.8210  -19.7136 C   0  0  0  0  0  0  0  0  0  0  0  0
  -11.9111  -70.1173  -19.3912 C   0  0  0  0  0  0  0  0  0  0  0  0
  -11.0134  -70.8023  -20.1187 C   0  0  0  0  0  0  0  0  0  0  0  0
   -9.6804  -71.0296  -19.5183 C   0  0  0  0  0  0  0  0  0  0  0  0
   -9.5289  -71.7664  -18.3448 C   0  0  0  0  0  0  0  0  0  0  0  0
   -8.2449  -71.9880  -17.8516 C   0  0  0  0  0  0  0  0  0  0  0  0
   -7.1548  -71.4658  -18.5375 C   0  0  0  0  0  0  0  0  0  0  0  0
   -7.3956  -70.7382  -19.6909 C   0  0  0  0  0  0  0  0  0  0  0  0
   -8.6305  -70.5114  -20.1923 N   0  0  0  0  0  0  0  0  0  0  0  0
  -11.1914  -71.4346  -21.4744 C   0  0  0  0  0  0  0  0  0  0  0  0
  -12.0302  -70.6833  -22.5018 C   0  0  0  0  0  0  0  0  0  0  0  0
  -13.5006  -70.5671  -22.1285 C   0  0  0  0  0  0  0  0  0  0  0  0
  -13.7452  -69.4685  -21.1155 C   0  0  0  0  0  0  0  0  0  0  0  0
  1  2  2  0
  2  3  1  0
  3  4  2  0
  4  5  1  0
  5  6  2  0
  6  7  1  0
  7  8  2  0
  8  9  1  0
  9 10  2  0
  4 11  1  0
 11 12  1  0
 12 13  1  0
 13 14  1  0
 14  2  1  0
 10  5  1  0
M  END
>  <fragmenstein_runtime>  (160) 
[1.4950191974639893]

>  <original ID>  (160) 
PXNMOXNSHAKQAT-UHFFFAOYSA-N

>  <fragmenstein_error>  (160) 
['']

>  <ref_pdb>  (160) 
d0615a

>  <Multi-SuCOS>  (160) 
0.47769

>  <SLURM_JOB_NAME>  (160) 
BulkDock.place:Flavi_NS5_RdRp:RdRp_knitwork_thumb_site_2_impure_split4000_batch000

>  <HIPPO Compound ID>  (160) 
6954

>  <original SMILES>  (160) 
O=C1C=C(c2ccccn2)CCCC1

>  <name>  (160) 
PXNMOXNSHAKQAT-UHFFFAOYSA-N

>  <HIPPO Pose ID>  (160) 
58738

>  <ref_mols>  (160) 
d0566a,d0615a

>  <exports>  (160) 
['/opt/xchem-fragalysis-2/maxwin/BulkDock/OUTPUTS/RdRp_knitwork_thumb_site_2_impure_split4000_batch000_211013.sdf', '/opt/xchem-fragalysis-2/maxwin/BulkDock/OUTPUTS/RdRp_knitwork_thumb_site_2_impure_fragalysis.sdf', '/opt/xchem-fragalysis-2/maxwin/RdRp_FFF/syndirella/Retro_OK_batch1.sdf']

>  <alias>  (160) 
None

>  <inchikey>  (160) 
PXNMOXNSHAKQAT-UHFFFAOYSA-N

>  <energy_score>  (160) 
-25.183749

>  <distance_score>  (160) 
0.981192

>  <fragmenstein_outcome>  (160) 
['acceptable']

>  <merge_set>  (160) 
RdRp_knitwork_thumb_site_2_impure_fragalysis.sdf

>  <scratch_subdir>  (160) 
['/opt/xchem-fragalysis-2/maxwin/BulkDock/SCRATCH/211013/C6954-P50']

>  <SLURM_JOB_ID>  (160) 
211013

>  <tags>  (160) 
['Fragmenstein placed', 'RdRp_knitwork_thumb_site_2_impure_fragalysis.sdf Pose OK']

>  <fragmenstein_mode>  (160) 
['expansion']

>  <csv_name>  (160) 
RdRp_knitwork_thumb_site_2_impure_split4000_batch000.csv

$$$$
FWJSOTKQDQLPTA-UHFFFAOYSA-N
     RDKit          3D

 15 16  0  0  0  0  0  0  0  0999 V2000
  -18.9165  -44.3306  -21.5266 C   0  0  0  0  0  0  0  0  0  0  0  0
  -18.6235  -43.3652  -22.5334 O   0  0  0  0  0  0  0  0  0  0  0  0
  -17.2845  -43.2991  -22.8318 C   0  0  0  0  0  0  0  0  0  0  0  0
  -16.8656  -42.3561  -23.7720 C   0  0  0  0  0  0  0  0  0  0  0  0
  -15.5092  -42.2255  -24.0320 C   0  0  0  0  0  0  0  0  0  0  0  0
  -14.9321  -41.2036  -24.7861 N   0  0  0  0  0  0  0  0  0  0  0  0
  -15.5881  -40.6204  -25.9517 C   0  0  0  0  0  0  0  0  0  0  0  0
  -16.4793  -39.4289  -25.7863 C   0  0  0  0  0  0  0  0  0  0  0  0
  -17.2324  -38.8279  -26.7769 C   0  0  0  0  0  0  0  0  0  0  0  0
  -18.0604  -37.7919  -26.3919 N   0  0  0  0  0  0  0  0  0  0  0  0
  -17.8255  -37.5370  -25.1199 C   0  0  0  0  0  0  0  0  0  0  0  0
  -16.6886  -38.5551  -24.3311 S   0  0  0  0  0  0  0  0  0  0  0  0
  -14.6723  -43.1042  -23.3477 C   0  0  0  0  0  0  0  0  0  0  0  0
  -15.1650  -43.9815  -22.4065 C   0  0  0  0  0  0  0  0  0  0  0  0
  -16.4608  -44.0950  -22.1304 N   0  0  0  0  0  0  0  0  0  0  0  0
  1  2  1  0
  2  3  1  0
  3  4  2  0
  4  5  1  0
  5  6  1  0
  6  7  1  0
  7  8  1  0
  8  9  2  0
  9 10  1  0
 10 11  2  0
 11 12  1  0
  5 13  2  0
 13 14  1  0
 14 15  2  0
 15  3  1  0
 12  8  1  0
M  END
>  <fragmenstein_runtime>  (161) 
5.171372

>  <original ID>  (161) 
FWJSOTKQDQLPTA-UHFFFAOYSA-N

>  <fragmenstein_error>  (161) 
None

>  <ref_pdb>  (161) 
d0615b

>  <Multi-SuCOS>  (161) 
0.747725

>  <SLURM_JOB_NAME>  (161) 
BulkDock.place:Flavi_NS5_RdRp:RdRp_knitwork_primer_grip_n_pocket_pure_split1800_batch006

>  <HIPPO Compound ID>  (161) 
17993

>  <original SMILES>  (161) 
COc1cc(NCc2cncs2)ccn1

>  <name>  (161) 
FWJSOTKQDQLPTA-UHFFFAOYSA-N

>  <HIPPO Pose ID>  (161) 
59460

>  <ref_mols>  (161) 
d0264a,d0615b

>  <exports>  (161) 
['/opt/xchem-fragalysis-2/maxwin/BulkDock/OUTPUTS/RdRp_knitwork_primer_grip_n_pocket_pure_split1800_batch006_217040.sdf', '/opt/xchem-fragalysis-2/maxwin/BulkDock/OUTPUTS/RdRp_knitwork_primer_grip_n_pocket_pure_fragalysis.sdf', '/opt/xchem-fragalysis-2/maxwin/RdRp_FFF/syndirella/Retro_OK_batch1.sdf']

>  <alias>  (161) 
None

>  <inchikey>  (161) 
FWJSOTKQDQLPTA-UHFFFAOYSA-N

>  <energy_score>  (161) 
-89.532631

>  <distance_score>  (161) 
0.99168

>  <fragmenstein_outcome>  (161) 
acceptable

>  <merge_set>  (161) 
RdRp_knitwork_primer_grip_n_pocket_pure_fragalysis.sdf

>  <scratch_subdir>  (161) 
/opt/xchem-fragalysis-2/maxwin/BulkDock/SCRATCH/217040/C17993-P51

>  <SLURM_JOB_ID>  (161) 
217040

>  <tags>  (161) 
['Fragmenstein placed', 'RdRp_knitwork_primer_grip_n_pocket_pure_fragalysis.sdf Pose OK']

>  <fragmenstein_mode>  (161) 
expansion

>  <csv_name>  (161) 
RdRp_knitwork_primer_grip_n_pocket_pure_split1800_batch006.csv

$$$$
QHLJSPYESYKMNH-SNVBAGLBSA-N
     RDKit          3D

 21 23  0  0  0  0  0  0  0  0999 V2000
  -14.7660  -43.9717  -16.4856 C   0  0  0  0  0  0  0  0  0  0  0  0
  -15.3907  -44.6697  -17.6856 C   0  0  1  0  0  0  0  0  0  0  0  0
  -16.8111  -44.4369  -17.7845 N   0  0  0  0  0  0  0  0  0  0  0  0
  -17.6231  -43.1292  -17.6455 C   0  0  0  0  0  0  0  0  0  0  0  0
  -17.2856  -42.0823  -17.3613 O   0  0  0  0  0  0  0  0  0  0  0  0
  -19.0273  -43.6637  -17.9930 N   0  0  0  0  0  0  0  0  0  0  0  0
  -20.2753  -42.9696  -18.1455 C   0  0  0  0  0  0  0  0  0  0  0  0
  -21.4381  -43.9166  -18.0582 C   0  0  0  0  0  0  0  0  0  0  0  0
  -22.5611  -43.7600  -18.8675 C   0  0  0  0  0  0  0  0  0  0  0  0
  -23.5967  -44.6683  -18.7351 C   0  0  0  0  0  0  0  0  0  0  0  0
  -23.5789  -45.7080  -17.8728 N   0  0  0  0  0  0  0  0  0  0  0  0
  -22.5101  -45.8477  -17.0463 C   0  0  0  0  0  0  0  0  0  0  0  0
  -22.4774  -46.9666  -16.0306 C   0  0  0  0  0  0  0  0  0  0  0  0
  -23.7451  -47.6892  -15.6614 C   0  0  0  0  0  0  0  0  0  0  0  0
  -22.6934  -48.3923  -16.4709 C   0  0  0  0  0  0  0  0  0  0  0  0
  -21.4411  -44.9580  -17.1206 C   0  0  0  0  0  0  0  0  0  0  0  0
  -14.8309  -44.2872  -19.0288 C   0  0  0  0  0  0  0  0  0  0  0  0
  -14.0697  -43.1762  -19.3482 C   0  0  0  0  0  0  0  0  0  0  0  0
  -13.9266  -43.0211  -21.0458 S   0  0  0  0  0  0  0  0  0  0  0  0
  -14.8250  -44.4644  -21.2350 C   0  0  0  0  0  0  0  0  0  0  0  0
  -15.2000  -45.0690  -20.1279 N   0  0  0  0  0  0  0  0  0  0  0  0
  2  1  1  1
  2  3  1  0
  3  4  1  0
  4  5  2  0
  4  6  1  0
  6  7  1  0
  7  8  1  0
  8  9  2  0
  9 10  1  0
 10 11  2  0
 11 12  1  0
 12 13  1  0
 13 14  1  0
 14 15  1  0
 12 16  2  0
  2 17  1  0
 17 18  2  0
 18 19  1  0
 19 20  1  0
 20 21  2  0
 16  8  1  0
 21 17  1  0
 15 13  1  0
M  END
>  <fragmenstein_runtime>  (162) 
4.790911

>  <original ID>  (162) 
QHLJSPYESYKMNH-SNVBAGLBSA-N

>  <fragmenstein_error>  (162) 
None

>  <ref_pdb>  (162) 
d0472a

>  <Multi-SuCOS>  (162) 
0.480083

>  <SLURM_JOB_NAME>  (162) 
BulkDock.place:Flavi_NS5_RdRp:RdRp_knitwork_primer_grip_n_pocket_pure_split1800_batch014

>  <HIPPO Compound ID>  (162) 
15394

>  <original SMILES>  (162) 
C[C@@H](NC(=O)NCc1ccnc(C2CC2)c1)c1cscn1

>  <name>  (162) 
QHLJSPYESYKMNH-SNVBAGLBSA-N

>  <HIPPO Pose ID>  (162) 
59507

>  <ref_mols>  (162) 
d0264a,d0472a

>  <exports>  (162) 
['/opt/xchem-fragalysis-2/maxwin/BulkDock/OUTPUTS/RdRp_knitwork_primer_grip_n_pocket_pure_split1800_batch014_217048.sdf', '/opt/xchem-fragalysis-2/maxwin/BulkDock/OUTPUTS/RdRp_knitwork_primer_grip_n_pocket_pure_fragalysis.sdf', '/opt/xchem-fragalysis-2/maxwin/RdRp_FFF/syndirella/Retro_OK_batch1.sdf']

>  <alias>  (162) 
None

>  <inchikey>  (162) 
QHLJSPYESYKMNH-SNVBAGLBSA-N

>  <energy_score>  (162) 
-52.082751

>  <distance_score>  (162) 
0.950364

>  <fragmenstein_outcome>  (162) 
acceptable

>  <merge_set>  (162) 
RdRp_knitwork_primer_grip_n_pocket_pure_fragalysis.sdf

>  <scratch_subdir>  (162) 
/opt/xchem-fragalysis-2/maxwin/BulkDock/SCRATCH/217048/C15394-P42

>  <SLURM_JOB_ID>  (162) 
217048

>  <tags>  (162) 
['Fragmenstein placed', 'RdRp_knitwork_primer_grip_n_pocket_pure_fragalysis.sdf Pose OK']

>  <fragmenstein_mode>  (162) 
expansion

>  <csv_name>  (162) 
RdRp_knitwork_primer_grip_n_pocket_pure_split1800_batch014.csv

$$$$
NGTMRIIMIQXHAF-MRVPVSSYSA-N
     RDKit          3D

 17 19  0  0  0  0  0  0  0  0999 V2000
  -13.4686  -38.6271  -22.0845 C   0  0  0  0  0  0  0  0  0  0  0  0
  -12.9450  -39.8186  -21.4616 N   0  0  0  0  0  0  0  0  0  0  0  0
  -11.8031  -39.8629  -20.7145 C   0  0  0  0  0  0  0  0  0  0  0  0
  -11.5614  -41.0765  -20.2816 N   0  0  0  0  0  0  0  0  0  0  0  0
  -12.5941  -41.8478  -20.7563 C   0  0  0  0  0  0  0  0  0  0  0  0
  -13.4638  -41.0921  -21.5101 C   0  0  0  0  0  0  0  0  0  0  0  0
  -14.5900  -41.4952  -22.2769 C   0  0  0  0  0  0  0  0  0  0  0  0
  -14.9734  -42.7394  -22.4910 N   0  0  0  0  0  0  0  0  0  0  0  0
  -15.8949  -42.6993  -23.5261 N   0  0  0  0  0  0  0  0  0  0  0  0
  -16.0326  -41.4296  -23.8384 C   0  0  0  0  0  0  0  0  0  0  0  0
  -16.6411  -40.7579  -25.0302 C   0  0  1  0  0  0  0  0  0  0  0  0
  -17.7180  -39.7495  -24.5678 C   0  0  0  0  0  0  0  0  0  0  0  0
  -17.8401  -38.5226  -25.4728 C   0  0  0  0  0  0  0  0  0  0  0  0
  -17.4576  -38.8799  -26.8964 C   0  0  0  0  0  0  0  0  0  0  0  0
  -16.0195  -39.3778  -26.9680 C   0  0  0  0  0  0  0  0  0  0  0  0
  -15.5672  -40.0874  -25.7802 N   0  0  0  0  0  0  0  0  0  0  0  0
  -15.3250  -40.6092  -23.0090 O   0  0  0  0  0  0  0  0  0  0  0  0
  1  2  1  0
  2  3  1  0
  3  4  2  0
  4  5  1  0
  5  6  2  0
  6  7  1  0
  7  8  2  0
  8  9  1  0
  9 10  2  0
 11 10  1  1
 11 12  1  0
 12 13  1  0
 13 14  1  0
 14 15  1  0
 15 16  1  0
 10 17  1  0
  6  2  1  0
 17  7  1  0
 16 11  1  0
M  END
>  <fragmenstein_runtime>  (163) 
5.680504

>  <original ID>  (163) 
NGTMRIIMIQXHAF-MRVPVSSYSA-N

>  <fragmenstein_error>  (163) 
None

>  <ref_pdb>  (163) 
d0866a

>  <Multi-SuCOS>  (163) 
0.473493

>  <SLURM_JOB_NAME>  (163) 
BulkDock.place:Flavi_NS5_RdRp:RdRp_knitwork_primer_grip_n_pocket_pure_split1800_batch009

>  <HIPPO Compound ID>  (163) 
13407

>  <original SMILES>  (163) 
Cn1cncc1-c1nnc([C@H]2CCCCN2)o1

>  <name>  (163) 
NGTMRIIMIQXHAF-MRVPVSSYSA-N

>  <HIPPO Pose ID>  (163) 
59532

>  <ref_mols>  (163) 
d0866a,z0875c

>  <exports>  (163) 
['/opt/xchem-fragalysis-2/maxwin/BulkDock/OUTPUTS/RdRp_knitwork_primer_grip_n_pocket_pure_split1800_batch009_217043.sdf', '/opt/xchem-fragalysis-2/maxwin/BulkDock/OUTPUTS/RdRp_knitwork_primer_grip_n_pocket_pure_fragalysis.sdf', '/opt/xchem-fragalysis-2/maxwin/RdRp_FFF/syndirella/Retro_OK_batch1.sdf']

>  <alias>  (163) 
None

>  <inchikey>  (163) 
NGTMRIIMIQXHAF-MRVPVSSYSA-N

>  <energy_score>  (163) 
-30.987692

>  <distance_score>  (163) 
0.950465

>  <fragmenstein_outcome>  (163) 
acceptable

>  <merge_set>  (163) 
RdRp_knitwork_primer_grip_n_pocket_pure_fragalysis.sdf

>  <scratch_subdir>  (163) 
/opt/xchem-fragalysis-2/maxwin/BulkDock/SCRATCH/217043/C13407-P68

>  <SLURM_JOB_ID>  (163) 
217043

>  <tags>  (163) 
['Fragmenstein placed', 'RdRp_knitwork_primer_grip_n_pocket_pure_fragalysis.sdf Pose OK']

>  <fragmenstein_mode>  (163) 
expansion

>  <csv_name>  (163) 
RdRp_knitwork_primer_grip_n_pocket_pure_split1800_batch009.csv

$$$$
KMFPFVIDLLDVEH-UHFFFAOYSA-N
     RDKit          3D

 21 22  0  0  0  0  0  0  0  0999 V2000
  -12.8593  -34.8974  -20.8558 C   0  0  0  0  0  0  0  0  0  0  0  0
  -13.5017  -36.2142  -21.2330 C   0  0  0  0  0  0  0  0  0  0  0  0
  -12.7090  -36.9489  -22.2929 C   0  0  0  0  0  0  0  0  0  0  0  0
  -11.2798  -37.3994  -22.0441 C   0  0  0  0  0  0  0  0  0  0  0  0
  -10.7936  -37.6972  -20.6421 C   0  0  0  0  0  0  0  0  0  0  0  0
  -11.8318  -38.6136  -19.4552 S   0  0  0  0  0  0  0  0  0  0  0  0
  -12.0752  -40.2277  -20.2726 C   0  0  0  0  0  0  0  0  0  0  0  0
  -13.0949  -40.1778  -21.4127 C   0  0  0  0  0  0  0  0  0  0  0  0
  -13.7886  -41.4163  -21.7319 N   0  0  0  0  0  0  0  0  0  0  0  0
  -13.7504  -42.5940  -21.0432 C   0  0  0  0  0  0  0  0  0  0  0  0
  -14.5794  -43.4455  -21.7286 C   0  0  0  0  0  0  0  0  0  0  0  0
  -15.1348  -42.8167  -22.8052 N   0  0  0  0  0  0  0  0  0  0  0  0
  -14.6282  -41.5944  -22.8233 C   0  0  0  0  0  0  0  0  0  0  0  0
  -14.8829  -40.6122  -23.8702 C   0  0  0  0  0  0  0  0  0  0  0  0
  -14.3654  -39.4946  -23.8669 O   0  0  0  0  0  0  0  0  0  0  0  0
  -15.7844  -40.9249  -25.0139 C   0  0  0  0  0  0  0  0  0  0  0  0
  -15.5348  -40.3019  -26.2384 C   0  0  0  0  0  0  0  0  0  0  0  0
  -16.3892  -40.5642  -27.2950 C   0  0  0  0  0  0  0  0  0  0  0  0
  -17.4756  -41.3640  -27.2073 N   0  0  0  0  0  0  0  0  0  0  0  0
  -17.6940  -41.9458  -26.0081 C   0  0  0  0  0  0  0  0  0  0  0  0
  -16.8911  -41.7624  -24.8959 C   0  0  0  0  0  0  0  0  0  0  0  0
  1  2  1  0
  2  3  1  0
  3  4  1  0
  4  5  1  0
  5  6  1  0
  6  7  1  0
  7  8  1  0
  8  9  1  0
  9 10  1  0
 10 11  2  0
 11 12  1  0
 12 13  2  0
 13 14  1  0
 14 15  2  0
 14 16  1  0
 16 17  2  0
 17 18  1  0
 18 19  2  0
 19 20  1  0
 20 21  2  0
 13  9  1  0
 21 16  1  0
M  END
>  <fragmenstein_runtime>  (164) 
13.557519

>  <original ID>  (164) 
KMFPFVIDLLDVEH-UHFFFAOYSA-N

>  <fragmenstein_error>  (164) 
None

>  <ref_pdb>  (164) 
d0160a

>  <Multi-SuCOS>  (164) 
0.443408

>  <SLURM_JOB_NAME>  (164) 
BulkDock.place:Flavi_NS5_RdRp:RdRp_knitwork_primer_grip_n_pocket_pure_split1800_batch012

>  <HIPPO Compound ID>  (164) 
26095

>  <original SMILES>  (164) 
CCCCCSCCn1ccnc1C(=O)c1ccncc1

>  <name>  (164) 
KMFPFVIDLLDVEH-UHFFFAOYSA-N

>  <HIPPO Pose ID>  (164) 
60371

>  <ref_mols>  (164) 
d0160a,z0103a

>  <exports>  (164) 
['/opt/xchem-fragalysis-2/maxwin/BulkDock/OUTPUTS/RdRp_knitwork_primer_grip_n_pocket_pure_split1800_batch012_217046.sdf', '/opt/xchem-fragalysis-2/maxwin/BulkDock/OUTPUTS/RdRp_knitwork_primer_grip_n_pocket_pure_fragalysis.sdf', '/opt/xchem-fragalysis-2/maxwin/RdRp_FFF/syndirella/Retro_OK_batch1.sdf']

>  <alias>  (164) 
None

>  <inchikey>  (164) 
KMFPFVIDLLDVEH-UHFFFAOYSA-N

>  <energy_score>  (164) 
-17.53291

>  <distance_score>  (164) 
0.99487

>  <fragmenstein_outcome>  (164) 
acceptable

>  <merge_set>  (164) 
RdRp_knitwork_primer_grip_n_pocket_pure_fragalysis.sdf

>  <scratch_subdir>  (164) 
/opt/xchem-fragalysis-2/maxwin/BulkDock/SCRATCH/217046/C26095-P12

>  <SLURM_JOB_ID>  (164) 
217046

>  <tags>  (164) 
['Fragmenstein placed', 'RdRp_knitwork_primer_grip_n_pocket_pure_fragalysis.sdf Pose OK']

>  <fragmenstein_mode>  (164) 
expansion

>  <csv_name>  (164) 
RdRp_knitwork_primer_grip_n_pocket_pure_split1800_batch012.csv

$$$$
QAXRUQAZQORQFQ-VIFPVBQESA-N
     RDKit          3D

 22 24  0  0  0  0  0  0  0  0999 V2000
  -14.4375  -39.1913  -23.3277 C   0  0  0  0  0  0  0  0  0  0  0  0
  -13.8586  -38.7764  -21.9803 C   0  0  1  0  0  0  0  0  0  0  0  0
  -12.8137  -39.7389  -21.3957 C   0  0  0  0  0  0  0  0  0  0  0  0
  -13.3525  -41.0418  -21.1730 N   0  0  0  0  0  0  0  0  0  0  0  0
  -13.1331  -42.0310  -20.0114 C   0  0  0  0  0  0  0  0  0  0  0  0
  -12.5395  -41.9078  -19.0173 O   0  0  0  0  0  0  0  0  0  0  0  0
  -13.8861  -43.2813  -20.2773 C   0  0  0  0  0  0  0  0  0  0  0  0
  -14.1491  -43.6964  -21.5797 C   0  0  0  0  0  0  0  0  0  0  0  0
  -15.0999  -44.6684  -21.7929 C   0  0  0  0  0  0  0  0  0  0  0  0
  -15.6633  -45.2967  -20.6891 C   0  0  0  0  0  0  0  0  0  0  0  0
  -16.6772  -46.2968  -20.9625 C   0  0  0  0  0  0  0  0  0  0  0  0
  -17.6768  -46.0193  -21.8775 N   0  0  0  0  0  0  0  0  0  0  0  0
  -18.2774  -47.1680  -22.0216 C   0  0  0  0  0  0  0  0  0  0  0  0
  -17.6833  -48.0859  -21.2263 N   0  0  0  0  0  0  0  0  0  0  0  0
  -16.6261  -47.5842  -20.5661 N   0  0  0  0  0  0  0  0  0  0  0  0
  -15.3107  -45.0296  -19.4033 N   0  0  0  0  0  0  0  0  0  0  0  0
  -14.4441  -43.9997  -19.2282 C   0  0  0  0  0  0  0  0  0  0  0  0
  -13.2141  -37.4391  -22.0520 C   0  0  0  0  0  0  0  0  0  0  0  0
  -12.0614  -37.1611  -22.6219 N   0  0  0  0  0  0  0  0  0  0  0  0
  -11.7063  -35.9367  -22.1199 C   0  0  0  0  0  0  0  0  0  0  0  0
  -12.7163  -35.4110  -21.3535 C   0  0  0  0  0  0  0  0  0  0  0  0
  -13.6957  -36.3616  -21.3572 N   0  0  0  0  0  0  0  0  0  0  0  0
  2  1  1  6
  2  3  1  0
  3  4  1  0
  4  5  1  0
  5  6  2  0
  5  7  1  0
  7  8  2  0
  8  9  1  0
  9 10  2  0
 10 11  1  0
 11 12  1  0
 12 13  2  0
 13 14  1  0
 14 15  1  0
 10 16  1  0
 16 17  2  0
  2 18  1  0
 18 19  2  0
 19 20  1  0
 20 21  2  0
 21 22  1  0
 17  7  1  0
 22 18  1  0
 15 11  2  0
M  END
>  <fragmenstein_runtime>  (165) 
4.875718

>  <original ID>  (165) 
QAXRUQAZQORQFQ-VIFPVBQESA-N

>  <fragmenstein_error>  (165) 
None

>  <ref_pdb>  (165) 
d0472a

>  <Multi-SuCOS>  (165) 
0.538989

>  <SLURM_JOB_NAME>  (165) 
BulkDock.place:Flavi_NS5_RdRp:RdRp_knitwork_primer_grip_n_pocket_pure_split1800_batch007

>  <HIPPO Compound ID>  (165) 
16080

>  <original SMILES>  (165) 
C[C@@H](CNC(=O)c1ccc(-c2nc[nH]n2)nc1)c1ncc[nH]1

>  <name>  (165) 
QAXRUQAZQORQFQ-VIFPVBQESA-N

>  <HIPPO Pose ID>  (165) 
60760

>  <ref_mols>  (165) 
d0472a,z0103a

>  <exports>  (165) 
['/opt/xchem-fragalysis-2/maxwin/BulkDock/OUTPUTS/RdRp_knitwork_primer_grip_n_pocket_pure_split1800_batch007_217041.sdf', '/opt/xchem-fragalysis-2/maxwin/BulkDock/OUTPUTS/RdRp_knitwork_primer_grip_n_pocket_pure_fragalysis.sdf', '/opt/xchem-fragalysis-2/maxwin/RdRp_FFF/syndirella/Retro_OK_batch1.sdf']

>  <alias>  (165) 
None

>  <inchikey>  (165) 
QAXRUQAZQORQFQ-VIFPVBQESA-N

>  <energy_score>  (165) 
-35.812646

>  <distance_score>  (165) 
0.848256

>  <fragmenstein_outcome>  (165) 
acceptable

>  <merge_set>  (165) 
RdRp_knitwork_primer_grip_n_pocket_pure_fragalysis.sdf

>  <scratch_subdir>  (165) 
/opt/xchem-fragalysis-2/maxwin/BulkDock/SCRATCH/217041/C16080-P42

>  <SLURM_JOB_ID>  (165) 
217041

>  <tags>  (165) 
['Fragmenstein placed', 'RdRp_knitwork_primer_grip_n_pocket_pure_fragalysis.sdf Pose OK']

>  <fragmenstein_mode>  (165) 
expansion

>  <csv_name>  (165) 
RdRp_knitwork_primer_grip_n_pocket_pure_split1800_batch007.csv

$$$$
DNLUSRYLIQAQAE-NSHDSACASA-N
     RDKit          3D

 21 23  0  0  0  0  0  0  0  0999 V2000
  -15.7661  -38.7909  -23.3149 C   0  0  0  0  0  0  0  0  0  0  0  0
  -14.3812  -39.3107  -22.9399 C   0  0  2  0  0  0  0  0  0  0  0  0
  -14.4960  -40.4611  -22.0578 N   0  0  0  0  0  0  0  0  0  0  0  0
  -13.4108  -41.2885  -21.3481 C   0  0  0  0  0  0  0  0  0  0  0  0
  -12.2568  -41.1338  -21.2950 O   0  0  0  0  0  0  0  0  0  0  0  0
  -13.9911  -42.5038  -20.6890 C   0  0  0  0  0  0  0  0  0  0  0  0
  -13.4885  -42.8730  -19.4471 C   0  0  0  0  0  0  0  0  0  0  0  0
  -14.0130  -43.9991  -18.8481 C   0  0  0  0  0  0  0  0  0  0  0  0
  -14.9525  -44.7904  -19.4071 N   0  0  0  0  0  0  0  0  0  0  0  0
  -15.4280  -44.4284  -20.6293 C   0  0  0  0  0  0  0  0  0  0  0  0
  -16.4514  -45.2507  -21.1971 N   0  0  0  0  0  0  0  0  0  0  0  0
  -16.8921  -46.4511  -20.6629 C   0  0  0  0  0  0  0  0  0  0  0  0
  -17.8765  -46.9645  -21.4757 C   0  0  0  0  0  0  0  0  0  0  0  0
  -18.0847  -46.0429  -22.5194 C   0  0  0  0  0  0  0  0  0  0  0  0
  -17.1957  -45.0083  -22.3341 C   0  0  0  0  0  0  0  0  0  0  0  0
  -14.9668  -43.2984  -21.3059 C   0  0  0  0  0  0  0  0  0  0  0  0
  -13.5082  -38.2226  -22.3677 C   0  0  0  0  0  0  0  0  0  0  0  0
  -13.7911  -36.9352  -22.2756 N   0  0  0  0  0  0  0  0  0  0  0  0
  -12.6501  -36.3159  -21.8391 C   0  0  0  0  0  0  0  0  0  0  0  0
  -11.6426  -37.2292  -21.6727 C   0  0  0  0  0  0  0  0  0  0  0  0
  -12.2044  -38.4370  -21.9781 N   0  0  0  0  0  0  0  0  0  0  0  0
  2  1  1  1
  2  3  1  0
  3  4  1  0
  4  5  2  0
  4  6  1  0
  6  7  2  0
  7  8  1  0
  8  9  2  0
  9 10  1  0
 10 11  1  0
 11 12  1  0
 12 13  2  0
 13 14  1  0
 14 15  2  0
 10 16  2  0
  2 17  1  0
 17 18  2  0
 18 19  1  0
 19 20  2  0
 20 21  1  0
 16  6  1  0
 21 17  1  0
 15 11  1  0
M  END
>  <fragmenstein_runtime>  (166) 
3.960283

>  <original ID>  (166) 
DNLUSRYLIQAQAE-NSHDSACASA-N

>  <fragmenstein_error>  (166) 
None

>  <ref_pdb>  (166) 
d0472a

>  <Multi-SuCOS>  (166) 
0.576621

>  <SLURM_JOB_NAME>  (166) 
BulkDock.place:Flavi_NS5_RdRp:RdRp_knitwork_primer_grip_n_pocket_pure_split1800_batch007

>  <HIPPO Compound ID>  (166) 
19774

>  <original SMILES>  (166) 
C[C@H](NC(=O)c1ccnc(-n2cccc2)c1)c1ncc[nH]1

>  <name>  (166) 
DNLUSRYLIQAQAE-NSHDSACASA-N

>  <HIPPO Pose ID>  (166) 
61491

>  <ref_mols>  (166) 
d0472a,z0103a

>  <exports>  (166) 
['/opt/xchem-fragalysis-2/maxwin/BulkDock/OUTPUTS/RdRp_knitwork_primer_grip_n_pocket_pure_split1800_batch007_217041.sdf', '/opt/xchem-fragalysis-2/maxwin/BulkDock/OUTPUTS/RdRp_knitwork_primer_grip_n_pocket_pure_fragalysis.sdf', '/opt/xchem-fragalysis-2/maxwin/RdRp_FFF/syndirella/Retro_OK_batch1.sdf']

>  <alias>  (166) 
None

>  <inchikey>  (166) 
DNLUSRYLIQAQAE-NSHDSACASA-N

>  <energy_score>  (166) 
-46.182851

>  <distance_score>  (166) 
0.866441

>  <fragmenstein_outcome>  (166) 
acceptable

>  <merge_set>  (166) 
RdRp_knitwork_primer_grip_n_pocket_pure_fragalysis.sdf

>  <scratch_subdir>  (166) 
/opt/xchem-fragalysis-2/maxwin/BulkDock/SCRATCH/217041/C19774-P42

>  <SLURM_JOB_ID>  (166) 
217041

>  <tags>  (166) 
['Fragmenstein placed', 'RdRp_knitwork_primer_grip_n_pocket_pure_fragalysis.sdf Pose OK']

>  <fragmenstein_mode>  (166) 
expansion

>  <csv_name>  (166) 
RdRp_knitwork_primer_grip_n_pocket_pure_split1800_batch007.csv

$$$$
KSJKSHACFSYXRS-VIFPVBQESA-N
     RDKit          3D

 14 15  0  0  0  0  0  0  0  0999 V2000
  -16.0944  -40.9026  -21.4065 O   0  0  0  0  0  0  0  0  0  0  0  0
  -14.9761  -41.4761  -22.1129 C   0  0  2  0  0  0  0  0  0  0  0  0
  -15.1560  -43.0104  -22.1234 C   0  0  0  0  0  0  0  0  0  0  0  0
  -16.5417  -43.3674  -22.5148 N   0  0  0  0  0  0  0  0  0  0  0  0
  -16.8152  -44.8017  -22.4087 C   0  0  0  0  0  0  0  0  0  0  0  0
  -17.2080  -45.2040  -21.0364 C   0  0  0  0  0  0  0  0  0  0  0  0
  -18.4399  -45.3860  -20.4418 C   0  0  0  0  0  0  0  0  0  0  0  0
  -18.1531  -45.8422  -19.1425 C   0  0  0  0  0  0  0  0  0  0  0  0
  -16.8413  -45.9358  -18.9178 N   0  0  0  0  0  0  0  0  0  0  0  0
  -16.2921  -45.5246  -20.0716 N   0  0  0  0  0  0  0  0  0  0  0  0
  -13.7132  -41.0066  -21.4225 C   0  0  0  0  0  0  0  0  0  0  0  0
  -13.5296  -39.6238  -22.0088 C   0  0  0  0  0  0  0  0  0  0  0  0
  -13.9764  -39.6895  -23.3660 O   0  0  0  0  0  0  0  0  0  0  0  0
  -14.8518  -40.8324  -23.4963 C   0  0  0  0  0  0  0  0  0  0  0  0
  2  1  1  1
  2  3  1  0
  3  4  1  0
  4  5  1  0
  5  6  1  0
  6  7  2  0
  7  8  1  0
  8  9  2  0
  9 10  1  0
  2 11  1  0
 11 12  1  0
 12 13  1  0
 13 14  1  0
 14  2  1  0
 10  6  1  0
M  END
>  <fragmenstein_runtime>  (167) 
1.166278

>  <original ID>  (167) 
KSJKSHACFSYXRS-VIFPVBQESA-N

>  <fragmenstein_error>  (167) 
None

>  <ref_pdb>  (167) 
d0160a

>  <Multi-SuCOS>  (167) 
0.45278

>  <SLURM_JOB_NAME>  (167) 
BulkDock.place:Flavi_NS5_RdRp:RdRp_knitwork_primer_grip_n_pocket_pure_split1800_batch008

>  <HIPPO Compound ID>  (167) 
10197

>  <original SMILES>  (167) 
O[C@]1(CNCc2ccn[nH]2)CCOC1

>  <name>  (167) 
KSJKSHACFSYXRS-VIFPVBQESA-N

>  <HIPPO Pose ID>  (167) 
62305

>  <ref_mols>  (167) 
d0160a,d0254a

>  <exports>  (167) 
['/opt/xchem-fragalysis-2/maxwin/BulkDock/OUTPUTS/RdRp_knitwork_primer_grip_n_pocket_pure_split1800_batch008_217042.sdf', '/opt/xchem-fragalysis-2/maxwin/BulkDock/OUTPUTS/RdRp_knitwork_primer_grip_n_pocket_pure_fragalysis.sdf', '/opt/xchem-fragalysis-2/maxwin/RdRp_FFF/syndirella/Retro_OK_batch1.sdf']

>  <alias>  (167) 
None

>  <inchikey>  (167) 
KSJKSHACFSYXRS-VIFPVBQESA-N

>  <energy_score>  (167) 
-23.768821

>  <distance_score>  (167) 
0.78153

>  <fragmenstein_outcome>  (167) 
acceptable

>  <merge_set>  (167) 
RdRp_knitwork_primer_grip_n_pocket_pure_fragalysis.sdf

>  <scratch_subdir>  (167) 
/opt/xchem-fragalysis-2/maxwin/BulkDock/SCRATCH/217042/C10197-P12

>  <SLURM_JOB_ID>  (167) 
217042

>  <tags>  (167) 
['Fragmenstein placed', 'RdRp_knitwork_primer_grip_n_pocket_pure_fragalysis.sdf Pose OK']

>  <fragmenstein_mode>  (167) 
expansion

>  <csv_name>  (167) 
RdRp_knitwork_primer_grip_n_pocket_pure_split1800_batch008.csv

$$$$
KSJKSHACFSYXRS-VIFPVBQESA-N
     RDKit          3D

 14 15  0  0  0  0  0  0  0  0999 V2000
  -16.1408  -40.8713  -21.4703 O   0  0  0  0  0  0  0  0  0  0  0  0
  -15.0201  -41.4678  -22.1528 C   0  0  2  0  0  0  0  0  0  0  0  0
  -15.2121  -43.0014  -22.1361 C   0  0  0  0  0  0  0  0  0  0  0  0
  -16.5979  -43.3643  -22.5247 N   0  0  0  0  0  0  0  0  0  0  0  0
  -16.8605  -44.8013  -22.4364 C   0  0  0  0  0  0  0  0  0  0  0  0
  -17.2303  -45.2311  -21.0654 C   0  0  0  0  0  0  0  0  0  0  0  0
  -18.4481  -45.4728  -20.4626 C   0  0  0  0  0  0  0  0  0  0  0  0
  -18.1314  -45.9240  -19.1680 C   0  0  0  0  0  0  0  0  0  0  0  0
  -16.8152  -45.9597  -18.9544 N   0  0  0  0  0  0  0  0  0  0  0  0
  -16.2933  -45.5243  -20.1114 N   0  0  0  0  0  0  0  0  0  0  0  0
  -13.7613  -40.9983  -21.4538 C   0  0  0  0  0  0  0  0  0  0  0  0
  -13.5469  -39.6338  -22.0715 C   0  0  0  0  0  0  0  0  0  0  0  0
  -13.9728  -39.7272  -23.4335 O   0  0  0  0  0  0  0  0  0  0  0  0
  -14.8731  -40.8526  -23.5473 C   0  0  0  0  0  0  0  0  0  0  0  0
  2  1  1  1
  2  3  1  0
  3  4  1  0
  4  5  1  0
  5  6  1  0
  6  7  2  0
  7  8  1  0
  8  9  2  0
  9 10  1  0
  2 11  1  0
 11 12  1  0
 12 13  1  0
 13 14  1  0
 14  2  1  0
 10  6  1  0
M  END
>  <fragmenstein_runtime>  (168) 
2.108268

>  <original ID>  (168) 
KSJKSHACFSYXRS-VIFPVBQESA-N

>  <fragmenstein_error>  (168) 
None

>  <ref_pdb>  (168) 
d0254a

>  <Multi-SuCOS>  (168) 
0.453151

>  <SLURM_JOB_NAME>  (168) 
BulkDock.place:Flavi_NS5_RdRp:RdRp_knitwork_primer_grip_n_pocket_pure_split1800_batch008

>  <HIPPO Compound ID>  (168) 
10197

>  <original SMILES>  (168) 
O[C@]1(CNCc2ccn[nH]2)CCOC1

>  <name>  (168) 
KSJKSHACFSYXRS-VIFPVBQESA-N

>  <HIPPO Pose ID>  (168) 
62308

>  <ref_mols>  (168) 
d0160a,d0254a

>  <exports>  (168) 
['/opt/xchem-fragalysis-2/maxwin/BulkDock/OUTPUTS/RdRp_knitwork_primer_grip_n_pocket_pure_split1800_batch008_217042.sdf', '/opt/xchem-fragalysis-2/maxwin/BulkDock/OUTPUTS/RdRp_knitwork_primer_grip_n_pocket_pure_fragalysis.sdf', '/opt/xchem-fragalysis-2/maxwin/RdRp_FFF/syndirella/Retro_OK_batch1.sdf']

>  <alias>  (168) 
None

>  <inchikey>  (168) 
KSJKSHACFSYXRS-VIFPVBQESA-N

>  <energy_score>  (168) 
-23.505711

>  <distance_score>  (168) 
0.763364

>  <fragmenstein_outcome>  (168) 
acceptable

>  <merge_set>  (168) 
RdRp_knitwork_primer_grip_n_pocket_pure_fragalysis.sdf

>  <scratch_subdir>  (168) 
/opt/xchem-fragalysis-2/maxwin/BulkDock/SCRATCH/217042/C10197-P26

>  <SLURM_JOB_ID>  (168) 
217042

>  <tags>  (168) 
['Fragmenstein placed', 'RdRp_knitwork_primer_grip_n_pocket_pure_fragalysis.sdf Pose OK']

>  <fragmenstein_mode>  (168) 
expansion

>  <csv_name>  (168) 
RdRp_knitwork_primer_grip_n_pocket_pure_split1800_batch008.csv

$$$$
GKONBCCMPJCIRH-SNVBAGLBSA-N
     RDKit          3D

 14 15  0  0  0  0  0  0  0  0999 V2000
  -16.5088  -40.9063  -21.8674 C   0  0  0  0  0  0  0  0  0  0  0  0
  -15.1878  -41.5478  -22.3296 C   0  0  2  0  0  0  0  0  0  0  0  0
  -15.1891  -43.0802  -22.1110 C   0  0  0  0  0  0  0  0  0  0  0  0
  -16.1534  -43.8672  -22.8840 N   0  0  0  0  0  0  0  0  0  0  0  0
  -17.4316  -44.1788  -22.2545 C   0  0  0  0  0  0  0  0  0  0  0  0
  -17.3867  -45.0900  -21.0801 C   0  0  0  0  0  0  0  0  0  0  0  0
  -18.3730  -45.4448  -20.1806 C   0  0  0  0  0  0  0  0  0  0  0  0
  -17.7397  -46.2985  -19.2603 C   0  0  0  0  0  0  0  0  0  0  0  0
  -16.4534  -46.4954  -19.5575 N   0  0  0  0  0  0  0  0  0  0  0  0
  -16.2712  -45.7658  -20.6701 N   0  0  0  0  0  0  0  0  0  0  0  0
  -14.0138  -40.9076  -21.5846 C   0  0  0  0  0  0  0  0  0  0  0  0
  -13.7376  -39.6421  -22.3660 C   0  0  0  0  0  0  0  0  0  0  0  0
  -14.1919  -39.8628  -23.7022 O   0  0  0  0  0  0  0  0  0  0  0  0
  -14.8810  -41.1276  -23.7665 C   0  0  0  0  0  0  0  0  0  0  0  0
  2  1  1  1
  2  3  1  0
  3  4  1  0
  4  5  1  0
  5  6  1  0
  6  7  2  0
  7  8  1  0
  8  9  2  0
  9 10  1  0
  2 11  1  0
 11 12  1  0
 12 13  1  0
 13 14  1  0
 14  2  1  0
 10  6  1  0
M  END
>  <fragmenstein_runtime>  (169) 
2.800147

>  <original ID>  (169) 
GKONBCCMPJCIRH-SNVBAGLBSA-N

>  <fragmenstein_error>  (169) 
None

>  <ref_pdb>  (169) 
d0254a

>  <Multi-SuCOS>  (169) 
0.477282

>  <SLURM_JOB_NAME>  (169) 
BulkDock.place:Flavi_NS5_RdRp:RdRp_knitwork_primer_grip_n_pocket_pure_split1800_batch008

>  <HIPPO Compound ID>  (169) 
10237

>  <original SMILES>  (169) 
C[C@]1(CNCc2ccn[nH]2)CCOC1

>  <name>  (169) 
GKONBCCMPJCIRH-SNVBAGLBSA-N

>  <HIPPO Pose ID>  (169) 
62312

>  <ref_mols>  (169) 
d0160a,d0254a

>  <exports>  (169) 
['/opt/xchem-fragalysis-2/maxwin/BulkDock/OUTPUTS/RdRp_knitwork_primer_grip_n_pocket_pure_split1800_batch008_217042.sdf', '/opt/xchem-fragalysis-2/maxwin/BulkDock/OUTPUTS/RdRp_knitwork_primer_grip_n_pocket_pure_fragalysis.sdf', '/opt/xchem-fragalysis-2/maxwin/RdRp_FFF/syndirella/Retro_OK_batch1.sdf']

>  <alias>  (169) 
None

>  <inchikey>  (169) 
GKONBCCMPJCIRH-SNVBAGLBSA-N

>  <energy_score>  (169) 
-21.171702

>  <distance_score>  (169) 
0.964328

>  <fragmenstein_outcome>  (169) 
acceptable

>  <merge_set>  (169) 
RdRp_knitwork_primer_grip_n_pocket_pure_fragalysis.sdf

>  <scratch_subdir>  (169) 
/opt/xchem-fragalysis-2/maxwin/BulkDock/SCRATCH/217042/C10237-P26

>  <SLURM_JOB_ID>  (169) 
217042

>  <tags>  (169) 
['Fragmenstein placed', 'RdRp_knitwork_primer_grip_n_pocket_pure_fragalysis.sdf Pose OK']

>  <fragmenstein_mode>  (169) 
expansion

>  <csv_name>  (169) 
RdRp_knitwork_primer_grip_n_pocket_pure_split1800_batch008.csv

$$$$
DFFAHRILMAZSJI-CBAPKCEASA-N
     RDKit          3D

 14 15  0  0  0  0  0  0  0  0999 V2000
  -16.1126  -41.2166  -24.7302 O   0  0  0  0  0  0  0  0  0  0  0  0
  -14.9418  -41.1419  -23.9413 C   0  0  1  0  0  0  0  0  0  0  0  0
  -14.3827  -39.7352  -23.8297 C   0  0  0  0  0  0  0  0  0  0  0  0
  -13.5441  -39.7246  -22.6630 O   0  0  0  0  0  0  0  0  0  0  0  0
  -13.9505  -40.8317  -21.8306 C   0  0  0  0  0  0  0  0  0  0  0  0
  -15.1816  -41.4572  -22.4756 C   0  0  2  0  0  0  0  0  0  0  0  0
  -15.3640  -42.9427  -22.1462 C   0  0  0  0  0  0  0  0  0  0  0  0
  -16.7170  -43.3840  -22.5143 N   0  0  0  0  0  0  0  0  0  0  0  0
  -16.9260  -44.8225  -22.4435 C   0  0  0  0  0  0  0  0  0  0  0  0
  -17.2312  -45.2783  -21.0649 C   0  0  0  0  0  0  0  0  0  0  0  0
  -18.4148  -45.5837  -20.4252 C   0  0  0  0  0  0  0  0  0  0  0  0
  -18.0344  -46.0053  -19.1380 C   0  0  0  0  0  0  0  0  0  0  0  0
  -16.7119  -45.9675  -18.9640 N   0  0  0  0  0  0  0  0  0  0  0  0
  -16.2510  -45.5086  -20.1390 N   0  0  0  0  0  0  0  0  0  0  0  0
  2  1  1  6
  2  3  1  0
  3  4  1  0
  4  5  1  0
  5  6  1  0
  6  7  1  6
  7  8  1  0
  8  9  1  0
  9 10  1  0
 10 11  2  0
 11 12  1  0
 12 13  2  0
 13 14  1  0
  6  2  1  0
 14 10  1  0
M  END
>  <fragmenstein_runtime>  (170) 
1.996471

>  <original ID>  (170) 
DFFAHRILMAZSJI-CBAPKCEASA-N

>  <fragmenstein_error>  (170) 
None

>  <ref_pdb>  (170) 
d0254a

>  <Multi-SuCOS>  (170) 
0.540674

>  <SLURM_JOB_NAME>  (170) 
BulkDock.place:Flavi_NS5_RdRp:RdRp_knitwork_primer_grip_n_pocket_pure_split1800_batch008

>  <HIPPO Compound ID>  (170) 
10275

>  <original SMILES>  (170) 
O[C@H]1COC[C@@H]1CNCc1ccn[nH]1

>  <name>  (170) 
DFFAHRILMAZSJI-CBAPKCEASA-N

>  <HIPPO Pose ID>  (170) 
62317

>  <ref_mols>  (170) 
d0160a,d0254a

>  <exports>  (170) 
['/opt/xchem-fragalysis-2/maxwin/BulkDock/OUTPUTS/RdRp_knitwork_primer_grip_n_pocket_pure_split1800_batch008_217042.sdf', '/opt/xchem-fragalysis-2/maxwin/BulkDock/OUTPUTS/RdRp_knitwork_primer_grip_n_pocket_pure_fragalysis.sdf', '/opt/xchem-fragalysis-2/maxwin/RdRp_FFF/syndirella/Retro_OK_batch1.sdf']

>  <alias>  (170) 
None

>  <inchikey>  (170) 
DFFAHRILMAZSJI-CBAPKCEASA-N

>  <energy_score>  (170) 
-32.711505

>  <distance_score>  (170) 
0.879118

>  <fragmenstein_outcome>  (170) 
acceptable

>  <merge_set>  (170) 
RdRp_knitwork_primer_grip_n_pocket_pure_fragalysis.sdf

>  <scratch_subdir>  (170) 
/opt/xchem-fragalysis-2/maxwin/BulkDock/SCRATCH/217042/C10275-P26

>  <SLURM_JOB_ID>  (170) 
217042

>  <tags>  (170) 
['Fragmenstein placed', 'RdRp_knitwork_primer_grip_n_pocket_pure_fragalysis.sdf Pose OK']

>  <fragmenstein_mode>  (170) 
expansion

>  <csv_name>  (170) 
RdRp_knitwork_primer_grip_n_pocket_pure_split1800_batch008.csv

$$$$
GNIAMKSLLNSZRD-UHFFFAOYSA-N
     RDKit          3D

 23 25  0  0  0  0  0  0  0  0999 V2000
  -14.9269  -40.3902  -17.5223 O   0  0  0  0  0  0  0  0  0  0  0  0
  -14.2923  -40.0276  -18.4308 C   0  0  0  0  0  0  0  0  0  0  0  0
  -14.4671  -38.6549  -19.0717 C   0  0  0  0  0  0  0  0  0  0  0  0
  -15.2096  -38.7660  -20.4075 C   0  0  0  0  0  0  0  0  0  0  0  0
  -15.0474  -37.5315  -21.2976 C   0  0  0  0  0  0  0  0  0  0  0  0
  -13.6671  -37.2690  -21.6752 N   0  0  0  0  0  0  0  0  0  0  0  0
  -12.9813  -36.1154  -21.3986 C   0  0  0  0  0  0  0  0  0  0  0  0
  -11.6838  -36.2778  -21.8286 C   0  0  0  0  0  0  0  0  0  0  0  0
  -11.5830  -37.5745  -22.3828 C   0  0  0  0  0  0  0  0  0  0  0  0
  -12.8301  -38.1549  -22.3043 C   0  0  0  0  0  0  0  0  0  0  0  0
  -13.1918  -40.7569  -19.2412 N   0  0  0  0  0  0  0  0  0  0  0  0
  -12.7147  -42.1126  -19.1598 C   0  0  0  0  0  0  0  0  0  0  0  0
  -13.6940  -43.0634  -19.7816 C   0  0  0  0  0  0  0  0  0  0  0  0
  -14.1026  -42.9032  -21.1046 C   0  0  0  0  0  0  0  0  0  0  0  0
  -15.0812  -43.7336  -21.6361 C   0  0  0  0  0  0  0  0  0  0  0  0
  -15.6081  -44.7414  -20.8340 C   0  0  0  0  0  0  0  0  0  0  0  0
  -16.6686  -45.5413  -21.3299 N   0  0  0  0  0  0  0  0  0  0  0  0
  -17.1594  -46.6957  -20.7603 C   0  0  0  0  0  0  0  0  0  0  0  0
  -18.1377  -47.1384  -21.6178 C   0  0  0  0  0  0  0  0  0  0  0  0
  -18.3140  -46.2694  -22.6561 N   0  0  0  0  0  0  0  0  0  0  0  0
  -17.4323  -45.3195  -22.4513 C   0  0  0  0  0  0  0  0  0  0  0  0
  -15.1632  -44.9869  -19.5730 N   0  0  0  0  0  0  0  0  0  0  0  0
  -14.2482  -44.1211  -19.0711 C   0  0  0  0  0  0  0  0  0  0  0  0
  1  2  2  0
  2  3  1  0
  3  4  1  0
  4  5  1  0
  5  6  1  0
  6  7  1  0
  7  8  2  0
  8  9  1  0
  9 10  2  0
  2 11  1  0
 11 12  1  0
 12 13  1  0
 13 14  2  0
 14 15  1  0
 15 16  2  0
 16 17  1  0
 17 18  1  0
 18 19  2  0
 19 20  1  0
 20 21  2  0
 16 22  1  0
 22 23  2  0
 10  6  1  0
 23 13  1  0
 21 17  1  0
M  END
>  <fragmenstein_runtime>  (171) 
7.345656

>  <original ID>  (171) 
GNIAMKSLLNSZRD-UHFFFAOYSA-N

>  <fragmenstein_error>  (171) 
None

>  <ref_pdb>  (171) 
d0472a

>  <Multi-SuCOS>  (171) 
0.431723

>  <SLURM_JOB_NAME>  (171) 
BulkDock.place:Flavi_NS5_RdRp:RdRp_knitwork_primer_grip_n_pocket_pure_split1800_batch007

>  <HIPPO Compound ID>  (171) 
22771

>  <original SMILES>  (171) 
O=C(CCCn1cccc1)NCc1ccc(-n2ccnc2)nc1

>  <name>  (171) 
GNIAMKSLLNSZRD-UHFFFAOYSA-N

>  <HIPPO Pose ID>  (171) 
62547

>  <ref_mols>  (171) 
d0472a,z0103a

>  <exports>  (171) 
['/opt/xchem-fragalysis-2/maxwin/BulkDock/OUTPUTS/RdRp_knitwork_primer_grip_n_pocket_pure_split1800_batch007_217041.sdf', '/opt/xchem-fragalysis-2/maxwin/BulkDock/OUTPUTS/RdRp_knitwork_primer_grip_n_pocket_pure_fragalysis.sdf', '/opt/xchem-fragalysis-2/maxwin/RdRp_FFF/syndirella/Retro_OK_batch1.sdf']

>  <alias>  (171) 
None

>  <inchikey>  (171) 
GNIAMKSLLNSZRD-UHFFFAOYSA-N

>  <energy_score>  (171) 
-45.149604

>  <distance_score>  (171) 
0.995421

>  <fragmenstein_outcome>  (171) 
acceptable

>  <merge_set>  (171) 
RdRp_knitwork_primer_grip_n_pocket_pure_fragalysis.sdf

>  <scratch_subdir>  (171) 
/opt/xchem-fragalysis-2/maxwin/BulkDock/SCRATCH/217041/C22771-P42

>  <SLURM_JOB_ID>  (171) 
217041

>  <tags>  (171) 
['Fragmenstein placed', 'RdRp_knitwork_primer_grip_n_pocket_pure_fragalysis.sdf Pose OK']

>  <fragmenstein_mode>  (171) 
expansion

>  <csv_name>  (171) 
RdRp_knitwork_primer_grip_n_pocket_pure_split1800_batch007.csv

$$$$
YOGZHRSNFOZWTM-NGZCFLSTSA-N
     RDKit          3D

 15 16  0  0  0  0  0  0  0  0999 V2000
  -14.5519  -43.4539  -20.4737 C   0  0  0  0  0  0  0  0  0  0  0  0
  -15.5151  -42.9527  -21.5613 C   0  0  2  0  0  0  0  0  0  0  0  0
  -15.8019  -44.0154  -22.5255 N   0  0  0  0  0  0  0  0  0  0  0  0
  -17.0598  -44.7823  -22.4071 C   0  0  2  0  0  0  0  0  0  0  0  0
  -18.2443  -43.9772  -22.9428 C   0  0  0  0  0  0  0  0  0  0  0  0
  -17.4379  -45.5460  -21.1115 C   0  0  2  0  0  0  0  0  0  0  0  0
  -18.0491  -44.7674  -19.9614 C   0  0  0  0  0  0  0  0  0  0  0  0
  -17.8957  -45.7487  -18.8246 C   0  0  0  0  0  0  0  0  0  0  0  0
  -16.5864  -46.4447  -19.1473 C   0  0  0  0  0  0  0  0  0  0  0  0
  -16.3183  -46.2498  -20.5473 O   0  0  0  0  0  0  0  0  0  0  0  0
  -14.9358  -41.7424  -22.2607 C   0  0  0  0  0  0  0  0  0  0  0  0
  -15.1163  -41.2983  -23.5948 C   0  0  0  0  0  0  0  0  0  0  0  0
  -14.5310  -40.1206  -23.8370 N   0  0  0  0  0  0  0  0  0  0  0  0
  -13.9375  -39.8179  -22.6795 N   0  0  0  0  0  0  0  0  0  0  0  0
  -14.1489  -40.7441  -21.7065 C   0  0  0  0  0  0  0  0  0  0  0  0
  2  1  1  1
  2  3  1  0
  3  4  1  0
  4  5  1  1
  4  6  1  0
  6  7  1  1
  7  8  1  0
  8  9  1  0
  9 10  1  0
  2 11  1  0
 11 12  1  0
 12 13  2  0
 13 14  1  0
 14 15  1  0
 10  6  1  0
 15 11  2  0
M  END
>  <fragmenstein_runtime>  (172) 
3.51064

>  <original ID>  (172) 
YOGZHRSNFOZWTM-NGZCFLSTSA-N

>  <fragmenstein_error>  (172) 
None

>  <ref_pdb>  (172) 
d0160a

>  <Multi-SuCOS>  (172) 
0.602577

>  <SLURM_JOB_NAME>  (172) 
BulkDock.place:Flavi_NS5_RdRp:RdRp_knitwork_primer_grip_n_pocket_pure_split1800_batch008

>  <HIPPO Compound ID>  (172) 
13688

>  <original SMILES>  (172) 
C[C@H](N[C@H](C)[C@@H]1CCCO1)c1cn[nH]c1

>  <name>  (172) 
YOGZHRSNFOZWTM-NGZCFLSTSA-N

>  <HIPPO Pose ID>  (172) 
63015

>  <ref_mols>  (172) 
d0160a,d0254a

>  <exports>  (172) 
['/opt/xchem-fragalysis-2/maxwin/BulkDock/OUTPUTS/RdRp_knitwork_primer_grip_n_pocket_pure_split1800_batch008_217042.sdf', '/opt/xchem-fragalysis-2/maxwin/BulkDock/OUTPUTS/RdRp_knitwork_primer_grip_n_pocket_pure_fragalysis.sdf', '/opt/xchem-fragalysis-2/maxwin/RdRp_FFF/syndirella/Retro_OK_batch1.sdf']

>  <alias>  (172) 
None

>  <inchikey>  (172) 
YOGZHRSNFOZWTM-NGZCFLSTSA-N

>  <energy_score>  (172) 
-40.567899

>  <distance_score>  (172) 
0.834605

>  <fragmenstein_outcome>  (172) 
acceptable

>  <merge_set>  (172) 
RdRp_knitwork_primer_grip_n_pocket_pure_fragalysis.sdf

>  <scratch_subdir>  (172) 
/opt/xchem-fragalysis-2/maxwin/BulkDock/SCRATCH/217042/C13688-P12

>  <SLURM_JOB_ID>  (172) 
217042

>  <tags>  (172) 
['Fragmenstein placed', 'RdRp_knitwork_primer_grip_n_pocket_pure_fragalysis.sdf Pose OK']

>  <fragmenstein_mode>  (172) 
expansion

>  <csv_name>  (172) 
RdRp_knitwork_primer_grip_n_pocket_pure_split1800_batch008.csv

$$$$
YOGZHRSNFOZWTM-NGZCFLSTSA-N
     RDKit          3D

 15 16  0  0  0  0  0  0  0  0999 V2000
  -15.2416  -43.0045  -20.1293 C   0  0  0  0  0  0  0  0  0  0  0  0
  -15.7909  -42.7162  -21.5355 C   0  0  2  0  0  0  0  0  0  0  0  0
  -15.7676  -43.9000  -22.3873 N   0  0  0  0  0  0  0  0  0  0  0  0
  -16.9439  -44.7907  -22.4474 C   0  0  2  0  0  0  0  0  0  0  0  0
  -18.1434  -44.1338  -23.1324 C   0  0  0  0  0  0  0  0  0  0  0  0
  -17.3759  -45.6088  -21.2029 C   0  0  2  0  0  0  0  0  0  0  0  0
  -18.3062  -44.9431  -20.2041 C   0  0  0  0  0  0  0  0  0  0  0  0
  -18.1185  -45.8113  -18.9834 C   0  0  0  0  0  0  0  0  0  0  0  0
  -16.6800  -46.2833  -19.0918 C   0  0  0  0  0  0  0  0  0  0  0  0
  -16.2438  -46.0666  -20.4430 O   0  0  0  0  0  0  0  0  0  0  0  0
  -14.9968  -41.6086  -22.1964 C   0  0  0  0  0  0  0  0  0  0  0  0
  -15.2902  -40.9278  -23.4066 C   0  0  0  0  0  0  0  0  0  0  0  0
  -14.4694  -39.8971  -23.6391 N   0  0  0  0  0  0  0  0  0  0  0  0
  -13.6154  -39.9384  -22.6117 N   0  0  0  0  0  0  0  0  0  0  0  0
  -13.8729  -40.9441  -21.7321 C   0  0  0  0  0  0  0  0  0  0  0  0
  2  1  1  1
  2  3  1  0
  3  4  1  0
  4  5  1  1
  4  6  1  0
  6  7  1  1
  7  8  1  0
  8  9  1  0
  9 10  1  0
  2 11  1  0
 11 12  1  0
 12 13  2  0
 13 14  1  0
 14 15  1  0
 10  6  1  0
 15 11  2  0
M  END
>  <fragmenstein_runtime>  (173) 
3.040166

>  <original ID>  (173) 
YOGZHRSNFOZWTM-NGZCFLSTSA-N

>  <fragmenstein_error>  (173) 
None

>  <ref_pdb>  (173) 
d0254a

>  <Multi-SuCOS>  (173) 
0.636728

>  <SLURM_JOB_NAME>  (173) 
BulkDock.place:Flavi_NS5_RdRp:RdRp_knitwork_primer_grip_n_pocket_pure_split1800_batch008

>  <HIPPO Compound ID>  (173) 
13688

>  <original SMILES>  (173) 
C[C@H](N[C@H](C)[C@@H]1CCCO1)c1cn[nH]c1

>  <name>  (173) 
YOGZHRSNFOZWTM-NGZCFLSTSA-N

>  <HIPPO Pose ID>  (173) 
63019

>  <ref_mols>  (173) 
d0160a,d0254a

>  <exports>  (173) 
['/opt/xchem-fragalysis-2/maxwin/BulkDock/OUTPUTS/RdRp_knitwork_primer_grip_n_pocket_pure_split1800_batch008_217042.sdf', '/opt/xchem-fragalysis-2/maxwin/BulkDock/OUTPUTS/RdRp_knitwork_primer_grip_n_pocket_pure_fragalysis.sdf', '/opt/xchem-fragalysis-2/maxwin/RdRp_FFF/syndirella/Retro_OK_batch1.sdf']

>  <alias>  (173) 
None

>  <inchikey>  (173) 
YOGZHRSNFOZWTM-NGZCFLSTSA-N

>  <energy_score>  (173) 
-40.96788

>  <distance_score>  (173) 
0.799

>  <fragmenstein_outcome>  (173) 
acceptable

>  <merge_set>  (173) 
RdRp_knitwork_primer_grip_n_pocket_pure_fragalysis.sdf

>  <scratch_subdir>  (173) 
/opt/xchem-fragalysis-2/maxwin/BulkDock/SCRATCH/217042/C13688-P26

>  <SLURM_JOB_ID>  (173) 
217042

>  <tags>  (173) 
['Fragmenstein placed', 'RdRp_knitwork_primer_grip_n_pocket_pure_fragalysis.sdf Pose OK']

>  <fragmenstein_mode>  (173) 
expansion

>  <csv_name>  (173) 
RdRp_knitwork_primer_grip_n_pocket_pure_split1800_batch008.csv

$$$$
RVTMFWDQLFZZMH-AWEZNQCLSA-N
     RDKit          3D

 21 22  0  0  0  0  0  0  0  0999 V2000
  -16.6140  -39.4600  -20.5804 C   0  0  0  0  0  0  0  0  0  0  0  0
  -16.2093  -39.0568  -21.7976 C   0  0  0  0  0  0  0  0  0  0  0  0
  -15.6846  -37.6787  -22.1044 C   0  0  0  0  0  0  0  0  0  0  0  0
  -14.2271  -37.5848  -22.1067 N   0  0  0  0  0  0  0  0  0  0  0  0
  -13.4842  -36.5522  -21.5910 C   0  0  0  0  0  0  0  0  0  0  0  0
  -12.1876  -36.8124  -21.9709 C   0  0  0  0  0  0  0  0  0  0  0  0
  -12.1247  -37.9828  -22.6815 N   0  0  0  0  0  0  0  0  0  0  0  0
  -13.3580  -38.4372  -22.7238 C   0  0  0  0  0  0  0  0  0  0  0  0
  -16.4102  -39.9421  -22.9937 C   0  0  0  0  0  0  0  0  0  0  0  0
  -16.8943  -39.5348  -23.9701 O   0  0  0  0  0  0  0  0  0  0  0  0
  -15.7916  -41.3166  -22.6856 N   0  0  0  0  0  0  0  0  0  0  0  0
  -15.5482  -42.4685  -23.5587 C   0  0  2  0  0  0  0  0  0  0  0  0
  -16.3791  -42.4393  -24.8589 C   0  0  0  0  0  0  0  0  0  0  0  0
  -15.9344  -41.4262  -25.7493 O   0  0  0  0  0  0  0  0  0  0  0  0
  -15.8274  -43.8002  -22.8240 C   0  0  0  0  0  0  0  0  0  0  0  0
  -15.2233  -43.9873  -21.4560 C   0  0  0  0  0  0  0  0  0  0  0  0
  -13.9963  -43.4433  -21.0749 C   0  0  0  0  0  0  0  0  0  0  0  0
  -13.5393  -43.6060  -19.7722 C   0  0  0  0  0  0  0  0  0  0  0  0
  -14.3064  -44.3549  -18.9003 C   0  0  0  0  0  0  0  0  0  0  0  0
  -15.4521  -44.9757  -19.2486 N   0  0  0  0  0  0  0  0  0  0  0  0
  -15.8851  -44.7707  -20.5125 C   0  0  0  0  0  0  0  0  0  0  0  0
  1  2  2  0
  2  3  1  0
  3  4  1  0
  4  5  1  0
  5  6  2  0
  6  7  1  0
  7  8  2  0
  2  9  1  0
  9 10  2  0
  9 11  1  0
 11 12  1  0
 12 13  1  6
 13 14  1  0
 12 15  1  0
 15 16  1  0
 16 17  2  0
 17 18  1  0
 18 19  2  0
 19 20  1  0
 20 21  2  0
  8  4  1  0
 21 16  1  0
M  END
>  <fragmenstein_runtime>  (174) 
3.730701

>  <original ID>  (174) 
RVTMFWDQLFZZMH-AWEZNQCLSA-N

>  <fragmenstein_error>  (174) 
None

>  <ref_pdb>  (174) 
d0472a

>  <Multi-SuCOS>  (174) 
0.391826

>  <SLURM_JOB_NAME>  (174) 
BulkDock.place:Flavi_NS5_RdRp:RdRp_knitwork_primer_grip_n_pocket_pure_split1800_batch007

>  <HIPPO Compound ID>  (174) 
9237

>  <original SMILES>  (174) 
C=C(Cn1ccnc1)C(=O)N[C@H](CO)Cc1cccnc1

>  <name>  (174) 
RVTMFWDQLFZZMH-AWEZNQCLSA-N

>  <HIPPO Pose ID>  (174) 
63089

>  <ref_mols>  (174) 
d0472a,z0103a

>  <exports>  (174) 
['/opt/xchem-fragalysis-2/maxwin/BulkDock/OUTPUTS/RdRp_knitwork_primer_grip_n_pocket_pure_split1800_batch007_217041.sdf', '/opt/xchem-fragalysis-2/maxwin/BulkDock/OUTPUTS/RdRp_knitwork_primer_grip_n_pocket_pure_fragalysis.sdf', '/opt/xchem-fragalysis-2/maxwin/RdRp_FFF/syndirella/Retro_OK_batch1.sdf']

>  <alias>  (174) 
None

>  <inchikey>  (174) 
RVTMFWDQLFZZMH-AWEZNQCLSA-N

>  <energy_score>  (174) 
-191.449485

>  <distance_score>  (174) 
0.776264

>  <fragmenstein_outcome>  (174) 
acceptable

>  <merge_set>  (174) 
RdRp_knitwork_primer_grip_n_pocket_pure_fragalysis.sdf

>  <scratch_subdir>  (174) 
/opt/xchem-fragalysis-2/maxwin/BulkDock/SCRATCH/217041/C9237-P42

>  <SLURM_JOB_ID>  (174) 
217041

>  <tags>  (174) 
['Fragmenstein placed', 'RdRp_knitwork_primer_grip_n_pocket_pure_fragalysis.sdf Pose OK']

>  <fragmenstein_mode>  (174) 
expansion

>  <csv_name>  (174) 
RdRp_knitwork_primer_grip_n_pocket_pure_split1800_batch007.csv

$$$$
YVVYLMDYBLZVGB-GHMZBOCLSA-N
     RDKit          3D

 15 16  0  0  0  0  0  0  0  0999 V2000
  -16.6939  -42.0320  -25.3292 C   0  0  0  0  0  0  0  0  0  0  0  0
  -15.8983  -40.8457  -24.8254 C   0  0  0  0  0  0  0  0  0  0  0  0
  -14.7712  -41.1943  -23.8520 C   0  0  1  0  0  0  0  0  0  0  0  0
  -14.0470  -39.9532  -23.6240 O   0  0  0  0  0  0  0  0  0  0  0  0
  -14.0528  -39.6575  -22.2327 C   0  0  0  0  0  0  0  0  0  0  0  0
  -14.2141  -40.9847  -21.5469 C   0  0  0  0  0  0  0  0  0  0  0  0
  -15.1812  -41.7268  -22.4669 C   0  0  2  0  0  0  0  0  0  0  0  0
  -15.0290  -43.2434  -22.2412 C   0  0  0  0  0  0  0  0  0  0  0  0
  -15.9906  -44.1201  -22.9114 N   0  0  0  0  0  0  0  0  0  0  0  0
  -17.3199  -44.2056  -22.3099 C   0  0  0  0  0  0  0  0  0  0  0  0
  -17.3374  -44.9097  -20.9949 C   0  0  0  0  0  0  0  0  0  0  0  0
  -18.2530  -44.6713  -19.9399 C   0  0  0  0  0  0  0  0  0  0  0  0
  -18.0183  -45.4226  -18.8629 N   0  0  0  0  0  0  0  0  0  0  0  0
  -16.9765  -46.1793  -19.2349 N   0  0  0  0  0  0  0  0  0  0  0  0
  -16.5384  -45.9210  -20.5000 C   0  0  0  0  0  0  0  0  0  0  0  0
  1  2  1  0
  3  2  1  6
  3  4  1  0
  4  5  1  0
  5  6  1  0
  6  7  1  0
  7  8  1  6
  8  9  1  0
  9 10  1  0
 10 11  1  0
 11 12  1  0
 12 13  2  0
 13 14  1  0
 14 15  1  0
  7  3  1  0
 15 11  2  0
M  END
>  <fragmenstein_runtime>  (175) 
4.923704

>  <original ID>  (175) 
YVVYLMDYBLZVGB-GHMZBOCLSA-N

>  <fragmenstein_error>  (175) 
None

>  <ref_pdb>  (175) 
d0160a

>  <Multi-SuCOS>  (175) 
0.518471

>  <SLURM_JOB_NAME>  (175) 
BulkDock.place:Flavi_NS5_RdRp:RdRp_knitwork_primer_grip_n_pocket_pure_split1800_batch008

>  <HIPPO Compound ID>  (175) 
15098

>  <original SMILES>  (175) 
CC[C@H]1OCC[C@@H]1CNCc1cn[nH]c1

>  <name>  (175) 
YVVYLMDYBLZVGB-GHMZBOCLSA-N

>  <HIPPO Pose ID>  (175) 
63232

>  <ref_mols>  (175) 
d0160a,d0254a

>  <exports>  (175) 
['/opt/xchem-fragalysis-2/maxwin/BulkDock/OUTPUTS/RdRp_knitwork_primer_grip_n_pocket_pure_split1800_batch008_217042.sdf', '/opt/xchem-fragalysis-2/maxwin/BulkDock/OUTPUTS/RdRp_knitwork_primer_grip_n_pocket_pure_fragalysis.sdf', '/opt/xchem-fragalysis-2/maxwin/RdRp_FFF/syndirella/Retro_OK_batch1.sdf']

>  <alias>  (175) 
None

>  <inchikey>  (175) 
YVVYLMDYBLZVGB-GHMZBOCLSA-N

>  <energy_score>  (175) 
-23.176503

>  <distance_score>  (175) 
0.980816

>  <fragmenstein_outcome>  (175) 
acceptable

>  <merge_set>  (175) 
RdRp_knitwork_primer_grip_n_pocket_pure_fragalysis.sdf

>  <scratch_subdir>  (175) 
/opt/xchem-fragalysis-2/maxwin/BulkDock/SCRATCH/217042/C15098-P12

>  <SLURM_JOB_ID>  (175) 
217042

>  <tags>  (175) 
['Fragmenstein placed', 'RdRp_knitwork_primer_grip_n_pocket_pure_fragalysis.sdf Pose OK']

>  <fragmenstein_mode>  (175) 
expansion

>  <csv_name>  (175) 
RdRp_knitwork_primer_grip_n_pocket_pure_split1800_batch008.csv

$$$$
YVVYLMDYBLZVGB-GHMZBOCLSA-N
     RDKit          3D

 15 16  0  0  0  0  0  0  0  0999 V2000
  -16.5079  -42.2233  -25.4380 C   0  0  0  0  0  0  0  0  0  0  0  0
  -15.8530  -40.9626  -24.9114 C   0  0  0  0  0  0  0  0  0  0  0  0
  -14.7559  -41.2135  -23.8785 C   0  0  1  0  0  0  0  0  0  0  0  0
  -14.0775  -39.9431  -23.6832 O   0  0  0  0  0  0  0  0  0  0  0  0
  -14.0600  -39.6298  -22.2948 C   0  0  0  0  0  0  0  0  0  0  0  0
  -14.2236  -40.9429  -21.5808 C   0  0  0  0  0  0  0  0  0  0  0  0
  -15.1889  -41.7036  -22.4867 C   0  0  2  0  0  0  0  0  0  0  0  0
  -15.0548  -43.2143  -22.2169 C   0  0  0  0  0  0  0  0  0  0  0  0
  -16.0271  -44.0926  -22.8702 N   0  0  0  0  0  0  0  0  0  0  0  0
  -17.3486  -44.1550  -22.2526 C   0  0  0  0  0  0  0  0  0  0  0  0
  -17.3571  -44.8845  -20.9512 C   0  0  0  0  0  0  0  0  0  0  0  0
  -18.2240  -44.6306  -19.8596 C   0  0  0  0  0  0  0  0  0  0  0  0
  -17.9959  -45.4266  -18.8140 N   0  0  0  0  0  0  0  0  0  0  0  0
  -17.0053  -46.2225  -19.2399 N   0  0  0  0  0  0  0  0  0  0  0  0
  -16.5866  -45.9410  -20.5068 C   0  0  0  0  0  0  0  0  0  0  0  0
  1  2  1  0
  3  2  1  6
  3  4  1  0
  4  5  1  0
  5  6  1  0
  6  7  1  0
  7  8  1  6
  8  9  1  0
  9 10  1  0
 10 11  1  0
 11 12  1  0
 12 13  2  0
 13 14  1  0
 14 15  1  0
  7  3  1  0
 15 11  2  0
M  END
>  <fragmenstein_runtime>  (176) 
4.37406

>  <original ID>  (176) 
YVVYLMDYBLZVGB-GHMZBOCLSA-N

>  <fragmenstein_error>  (176) 
None

>  <ref_pdb>  (176) 
d0254a

>  <Multi-SuCOS>  (176) 
0.527143

>  <SLURM_JOB_NAME>  (176) 
BulkDock.place:Flavi_NS5_RdRp:RdRp_knitwork_primer_grip_n_pocket_pure_split1800_batch008

>  <HIPPO Compound ID>  (176) 
15098

>  <original SMILES>  (176) 
CC[C@H]1OCC[C@@H]1CNCc1cn[nH]c1

>  <name>  (176) 
YVVYLMDYBLZVGB-GHMZBOCLSA-N

>  <HIPPO Pose ID>  (176) 
63236

>  <ref_mols>  (176) 
d0160a,d0254a

>  <exports>  (176) 
['/opt/xchem-fragalysis-2/maxwin/BulkDock/OUTPUTS/RdRp_knitwork_primer_grip_n_pocket_pure_split1800_batch008_217042.sdf', '/opt/xchem-fragalysis-2/maxwin/BulkDock/OUTPUTS/RdRp_knitwork_primer_grip_n_pocket_pure_fragalysis.sdf', '/opt/xchem-fragalysis-2/maxwin/RdRp_FFF/syndirella/Retro_OK_batch1.sdf']

>  <alias>  (176) 
None

>  <inchikey>  (176) 
YVVYLMDYBLZVGB-GHMZBOCLSA-N

>  <energy_score>  (176) 
-23.012811

>  <distance_score>  (176) 
0.988307

>  <fragmenstein_outcome>  (176) 
acceptable

>  <merge_set>  (176) 
RdRp_knitwork_primer_grip_n_pocket_pure_fragalysis.sdf

>  <scratch_subdir>  (176) 
/opt/xchem-fragalysis-2/maxwin/BulkDock/SCRATCH/217042/C15098-P26

>  <SLURM_JOB_ID>  (176) 
217042

>  <tags>  (176) 
['Fragmenstein placed', 'RdRp_knitwork_primer_grip_n_pocket_pure_fragalysis.sdf Pose OK']

>  <fragmenstein_mode>  (176) 
expansion

>  <csv_name>  (176) 
RdRp_knitwork_primer_grip_n_pocket_pure_split1800_batch008.csv

$$$$
SSVXXQWWLAHTNL-UHFFFAOYSA-N
     RDKit          3D

 22 25  0  0  0  0  0  0  0  0999 V2000
  -11.6159  -36.5188  -22.0470 C   0  0  0  0  0  0  0  0  0  0  0  0
  -12.8304  -35.8840  -21.9440 C   0  0  0  0  0  0  0  0  0  0  0  0
  -14.0167  -36.5329  -21.8757 N   0  0  0  0  0  0  0  0  0  0  0  0
  -13.9928  -37.8870  -21.8396 C   0  0  0  0  0  0  0  0  0  0  0  0
  -12.8254  -38.6191  -21.8583 C   0  0  0  0  0  0  0  0  0  0  0  0
  -12.7457  -40.0177  -21.5076 C   0  0  0  0  0  0  0  0  0  0  0  0
  -11.6453  -40.6152  -21.1136 N   0  0  0  0  0  0  0  0  0  0  0  0
  -12.0003  -41.8362  -20.6603 N   0  0  0  0  0  0  0  0  0  0  0  0
  -13.2959  -41.9539  -20.8481 C   0  0  0  0  0  0  0  0  0  0  0  0
  -14.1302  -43.0345  -20.3581 C   0  0  0  0  0  0  0  0  0  0  0  0
  -13.8420  -43.5074  -19.0720 C   0  0  0  0  0  0  0  0  0  0  0  0
  -14.5442  -44.5833  -18.5839 C   0  0  0  0  0  0  0  0  0  0  0  0
  -15.4604  -45.2467  -19.3026 N   0  0  0  0  0  0  0  0  0  0  0  0
  -15.7550  -44.7768  -20.5452 C   0  0  0  0  0  0  0  0  0  0  0  0
  -16.7575  -45.4970  -21.2446 N   0  0  0  0  0  0  0  0  0  0  0  0
  -17.3299  -46.6779  -20.8173 C   0  0  0  0  0  0  0  0  0  0  0  0
  -18.2401  -47.0238  -21.7827 C   0  0  0  0  0  0  0  0  0  0  0  0
  -18.2712  -46.0844  -22.7756 N   0  0  0  0  0  0  0  0  0  0  0  0
  -17.3701  -45.1893  -22.4326 C   0  0  0  0  0  0  0  0  0  0  0  0
  -15.1234  -43.6664  -21.1097 C   0  0  0  0  0  0  0  0  0  0  0  0
  -13.8635  -40.8151  -21.3849 O   0  0  0  0  0  0  0  0  0  0  0  0
  -11.6208  -37.9038  -22.0117 C   0  0  0  0  0  0  0  0  0  0  0  0
  1  2  2  0
  2  3  1  0
  3  4  2  0
  4  5  1  0
  5  6  1  0
  6  7  2  0
  7  8  1  0
  8  9  2  0
  9 10  1  0
 10 11  2  0
 11 12  1  0
 12 13  2  0
 13 14  1  0
 14 15  1  0
 15 16  1  0
 16 17  2  0
 17 18  1  0
 18 19  2  0
 14 20  2  0
  9 21  1  0
  5 22  2  0
 22  1  1  0
 21  6  1  0
 20 10  1  0
 19 15  1  0
M  END
>  <fragmenstein_runtime>  (177) 
3.767268

>  <original ID>  (177) 
SSVXXQWWLAHTNL-UHFFFAOYSA-N

>  <fragmenstein_error>  (177) 
None

>  <ref_pdb>  (177) 
d0472a

>  <Multi-SuCOS>  (177) 
0.496507

>  <SLURM_JOB_NAME>  (177) 
BulkDock.place:Flavi_NS5_RdRp:RdRp_knitwork_primer_grip_n_pocket_pure_split1800_batch007

>  <HIPPO Compound ID>  (177) 
21233

>  <original SMILES>  (177) 
c1cncc(-c2nnc(-c3ccnc(-n4ccnc4)c3)o2)c1

>  <name>  (177) 
SSVXXQWWLAHTNL-UHFFFAOYSA-N

>  <HIPPO Pose ID>  (177) 
63254

>  <ref_mols>  (177) 
d0472a,z0103a

>  <exports>  (177) 
['/opt/xchem-fragalysis-2/maxwin/BulkDock/OUTPUTS/RdRp_knitwork_primer_grip_n_pocket_pure_split1800_batch007_217041.sdf', '/opt/xchem-fragalysis-2/maxwin/BulkDock/OUTPUTS/RdRp_knitwork_primer_grip_n_pocket_pure_fragalysis.sdf', '/opt/xchem-fragalysis-2/maxwin/RdRp_FFF/syndirella/Retro_OK_batch1.sdf']

>  <alias>  (177) 
None

>  <inchikey>  (177) 
SSVXXQWWLAHTNL-UHFFFAOYSA-N

>  <energy_score>  (177) 
-20.155261

>  <distance_score>  (177) 
0.961848

>  <fragmenstein_outcome>  (177) 
acceptable

>  <merge_set>  (177) 
RdRp_knitwork_primer_grip_n_pocket_pure_fragalysis.sdf

>  <scratch_subdir>  (177) 
/opt/xchem-fragalysis-2/maxwin/BulkDock/SCRATCH/217041/C21233-P42

>  <SLURM_JOB_ID>  (177) 
217041

>  <tags>  (177) 
['Fragmenstein placed', 'RdRp_knitwork_primer_grip_n_pocket_pure_fragalysis.sdf Pose OK']

>  <fragmenstein_mode>  (177) 
expansion

>  <csv_name>  (177) 
RdRp_knitwork_primer_grip_n_pocket_pure_split1800_batch007.csv

$$$$
OGZOZASNCRKGGW-UKRRQHHQSA-N
     RDKit          3D

 22 23  0  0  0  0  0  0  0  0999 V2000
  -15.1996  -40.5811  -21.0949 O   0  0  0  0  0  0  0  0  0  0  0  0
  -15.9891  -40.4362  -21.9398 C   0  0  0  0  0  0  0  0  0  0  0  0
  -16.9300  -39.2348  -21.9530 C   0  0  0  0  0  0  0  0  0  0  0  0
  -16.1880  -37.9695  -22.3961 C   0  0  0  0  0  0  0  0  0  0  0  0
  -15.1879  -37.4649  -21.3410 C   0  0  0  0  0  0  0  0  0  0  0  0
  -13.8189  -37.3458  -21.8078 N   0  0  0  0  0  0  0  0  0  0  0  0
  -13.0017  -36.2614  -21.6346 C   0  0  0  0  0  0  0  0  0  0  0  0
  -11.8033  -36.6198  -22.2057 C   0  0  0  0  0  0  0  0  0  0  0  0
  -11.8787  -37.8851  -22.7316 N   0  0  0  0  0  0  0  0  0  0  0  0
  -13.0806  -38.3176  -22.4194 C   0  0  0  0  0  0  0  0  0  0  0  0
  -16.2372  -41.2514  -23.2289 N   0  0  0  0  0  0  0  0  0  0  0  0
  -15.6153  -42.4929  -23.7069 C   0  0  2  0  0  0  0  0  0  0  0  0
  -16.0998  -42.7100  -25.1608 C   0  0  0  0  0  0  0  0  0  0  0  0
  -17.5327  -42.7314  -25.2405 O   0  0  0  0  0  0  0  0  0  0  0  0
  -15.9733  -43.7553  -22.8610 C   0  0  2  0  0  0  0  0  0  0  0  0
  -17.4135  -43.7969  -22.7459 O   0  0  0  0  0  0  0  0  0  0  0  0
  -15.3533  -43.9628  -21.5017 C   0  0  0  0  0  0  0  0  0  0  0  0
  -14.1654  -43.3600  -21.0874 C   0  0  0  0  0  0  0  0  0  0  0  0
  -13.6721  -43.5880  -19.8060 C   0  0  0  0  0  0  0  0  0  0  0  0
  -14.3655  -44.4535  -18.9833 C   0  0  0  0  0  0  0  0  0  0  0  0
  -15.4614  -45.1391  -19.3662 N   0  0  0  0  0  0  0  0  0  0  0  0
  -15.9247  -44.8737  -20.6099 C   0  0  0  0  0  0  0  0  0  0  0  0
  1  2  2  0
  2  3  1  0
  3  4  1  0
  4  5  1  0
  5  6  1  0
  6  7  1  0
  7  8  2  0
  8  9  1  0
  9 10  2  0
  2 11  1  0
 11 12  1  0
 12 13  1  6
 13 14  1  0
 12 15  1  0
 15 16  1  1
 15 17  1  0
 17 18  2  0
 18 19  1  0
 19 20  2  0
 20 21  1  0
 21 22  2  0
 10  6  1  0
 22 17  1  0
M  END
>  <fragmenstein_runtime>  (178) 
5.108307

>  <original ID>  (178) 
OGZOZASNCRKGGW-UKRRQHHQSA-N

>  <fragmenstein_error>  (178) 
None

>  <ref_pdb>  (178) 
d0472a

>  <Multi-SuCOS>  (178) 
0.402556

>  <SLURM_JOB_NAME>  (178) 
BulkDock.place:Flavi_NS5_RdRp:RdRp_knitwork_primer_grip_n_pocket_pure_split1800_batch007

>  <HIPPO Compound ID>  (178) 
21752

>  <original SMILES>  (178) 
O=C(CCCn1ccnc1)N[C@H](CO)[C@H](O)c1cccnc1

>  <name>  (178) 
OGZOZASNCRKGGW-UKRRQHHQSA-N

>  <HIPPO Pose ID>  (178) 
63518

>  <ref_mols>  (178) 
d0472a,z0103a

>  <exports>  (178) 
['/opt/xchem-fragalysis-2/maxwin/BulkDock/OUTPUTS/RdRp_knitwork_primer_grip_n_pocket_pure_split1800_batch007_217041.sdf', '/opt/xchem-fragalysis-2/maxwin/BulkDock/OUTPUTS/RdRp_knitwork_primer_grip_n_pocket_pure_fragalysis.sdf', '/opt/xchem-fragalysis-2/maxwin/RdRp_FFF/syndirella/Retro_OK_batch1.sdf']

>  <alias>  (178) 
None

>  <inchikey>  (178) 
OGZOZASNCRKGGW-UKRRQHHQSA-N

>  <energy_score>  (178) 
-46.644808

>  <distance_score>  (178) 
0.701444

>  <fragmenstein_outcome>  (178) 
acceptable

>  <merge_set>  (178) 
RdRp_knitwork_primer_grip_n_pocket_pure_fragalysis.sdf

>  <scratch_subdir>  (178) 
/opt/xchem-fragalysis-2/maxwin/BulkDock/SCRATCH/217041/C21752-P42

>  <SLURM_JOB_ID>  (178) 
217041

>  <tags>  (178) 
['Fragmenstein placed', 'RdRp_knitwork_primer_grip_n_pocket_pure_fragalysis.sdf Pose OK']

>  <fragmenstein_mode>  (178) 
expansion

>  <csv_name>  (178) 
RdRp_knitwork_primer_grip_n_pocket_pure_split1800_batch007.csv

$$$$
ISGOZNHBHDSYOK-JTQLQIEISA-N
     RDKit          3D

 22 24  0  0  0  0  0  0  0  0999 V2000
  -16.8102  -41.4676  -21.6223 C   0  0  0  0  0  0  0  0  0  0  0  0
  -16.0194  -40.9185  -22.8067 C   0  0  1  0  0  0  0  0  0  0  0  0
  -14.6769  -41.6431  -22.9637 C   0  0  0  0  0  0  0  0  0  0  0  0
  -13.6344  -41.1349  -22.0172 C   0  0  0  0  0  0  0  0  0  0  0  0
  -12.8715  -41.7798  -21.0652 C   0  0  0  0  0  0  0  0  0  0  0  0
  -11.9406  -40.9270  -20.5282 N   0  0  0  0  0  0  0  0  0  0  0  0
  -12.1453  -39.7708  -21.1099 C   0  0  0  0  0  0  0  0  0  0  0  0
  -13.1601  -39.8451  -22.0188 N   0  0  0  0  0  0  0  0  0  0  0  0
  -16.8487  -41.0408  -24.0921 C   0  0  0  0  0  0  0  0  0  0  0  0
  -17.8277  -41.6702  -24.1646 O   0  0  0  0  0  0  0  0  0  0  0  0
  -16.1579  -40.1350  -25.1416 N   0  0  0  0  0  0  0  0  0  0  0  0
  -16.5803  -39.7436  -26.4612 C   0  0  0  0  0  0  0  0  0  0  0  0
  -17.5109  -38.5927  -26.3564 C   0  0  0  0  0  0  0  0  0  0  0  0
  -18.4716  -38.2117  -27.1716 N   0  0  0  0  0  0  0  0  0  0  0  0
  -19.0877  -37.1326  -26.5785 N   0  0  0  0  0  0  0  0  0  0  0  0
  -18.4804  -36.9430  -25.4246 C   0  0  0  0  0  0  0  0  0  0  0  0
  -18.7213  -36.0353  -24.4672 N   0  0  0  0  0  0  0  0  0  0  0  0
  -19.8406  -35.1262  -24.5646 C   0  0  0  0  0  0  0  0  0  0  0  0
  -19.7709  -34.3421  -23.2598 C   0  0  0  0  0  0  0  0  0  0  0  0
  -19.2416  -35.3737  -22.2749 C   0  0  0  0  0  0  0  0  0  0  0  0
  -18.2519  -36.1942  -23.1030 C   0  0  0  0  0  0  0  0  0  0  0  0
  -17.4500  -37.8158  -25.2267 O   0  0  0  0  0  0  0  0  0  0  0  0
  2  1  1  1
  2  3  1  0
  3  4  1  0
  4  5  2  0
  5  6  1  0
  6  7  2  0
  7  8  1  0
  2  9  1  0
  9 10  2  0
  9 11  1  0
 11 12  1  0
 12 13  1  0
 13 14  2  0
 14 15  1  0
 15 16  2  0
 16 17  1  0
 17 18  1  0
 18 19  1  0
 19 20  1  0
 20 21  1  0
 16 22  1  0
  8  4  1  0
 22 13  1  0
 21 17  1  0
M  END
>  <fragmenstein_runtime>  (179) 
11.646739

>  <original ID>  (179) 
ISGOZNHBHDSYOK-JTQLQIEISA-N

>  <fragmenstein_error>  (179) 
None

>  <ref_pdb>  (179) 
d0866a

>  <Multi-SuCOS>  (179) 
0.57103

>  <SLURM_JOB_NAME>  (179) 
BulkDock.place:Flavi_NS5_RdRp:RdRp_knitwork_primer_grip_n_pocket_pure_split1800_batch009

>  <HIPPO Compound ID>  (179) 
23300

>  <original SMILES>  (179) 
C[C@@H](Cc1cnc[nH]1)C(=O)NCc1nnc(N2CCCC2)o1

>  <name>  (179) 
ISGOZNHBHDSYOK-JTQLQIEISA-N

>  <HIPPO Pose ID>  (179) 
63661

>  <ref_mols>  (179) 
d0866a,z0875c

>  <exports>  (179) 
['/opt/xchem-fragalysis-2/maxwin/BulkDock/OUTPUTS/RdRp_knitwork_primer_grip_n_pocket_pure_split1800_batch009_217043.sdf', '/opt/xchem-fragalysis-2/maxwin/BulkDock/OUTPUTS/RdRp_knitwork_primer_grip_n_pocket_pure_fragalysis.sdf', '/opt/xchem-fragalysis-2/maxwin/RdRp_FFF/syndirella/Retro_OK_batch1.sdf']

>  <alias>  (179) 
None

>  <inchikey>  (179) 
ISGOZNHBHDSYOK-JTQLQIEISA-N

>  <energy_score>  (179) 
-63.595465

>  <distance_score>  (179) 
0.887666

>  <fragmenstein_outcome>  (179) 
acceptable

>  <merge_set>  (179) 
RdRp_knitwork_primer_grip_n_pocket_pure_fragalysis.sdf

>  <scratch_subdir>  (179) 
/opt/xchem-fragalysis-2/maxwin/BulkDock/SCRATCH/217043/C23300-P68

>  <SLURM_JOB_ID>  (179) 
217043

>  <tags>  (179) 
['Fragmenstein placed', 'RdRp_knitwork_primer_grip_n_pocket_pure_fragalysis.sdf Pose OK']

>  <fragmenstein_mode>  (179) 
expansion

>  <csv_name>  (179) 
RdRp_knitwork_primer_grip_n_pocket_pure_split1800_batch009.csv

$$$$
QYNKZXZODFVRMI-WDEREUQCSA-N
     RDKit          3D

 22 23  0  0  0  0  0  0  0  0999 V2000
  -15.2152  -47.2110  -18.7577 C   0  0  0  0  0  0  0  0  0  0  0  0
  -16.5171  -47.6032  -19.4320 C   0  0  0  0  0  0  0  0  0  0  0  0
  -17.4324  -46.4834  -19.9352 C   0  0  2  0  0  0  0  0  0  0  0  0
  -16.7732  -45.6912  -20.9493 N   0  0  0  0  0  0  0  0  0  0  0  0
  -17.3207  -45.0961  -22.2702 C   0  0  0  0  0  0  0  0  0  0  0  0
  -18.3386  -45.2166  -22.7649 O   0  0  0  0  0  0  0  0  0  0  0  0
  -16.1165  -44.2112  -22.6649 N   0  0  0  0  0  0  0  0  0  0  0  0
  -15.9906  -43.2761  -23.6564 C   0  0  0  0  0  0  0  0  0  0  0  0
  -16.9341  -43.0889  -24.6551 C   0  0  0  0  0  0  0  0  0  0  0  0
  -16.7595  -42.0210  -25.5341 C   0  0  0  0  0  0  0  0  0  0  0  0
  -15.6819  -41.1677  -25.3465 C   0  0  0  0  0  0  0  0  0  0  0  0
  -15.5183  -40.0984  -26.1710 O   0  0  0  0  0  0  0  0  0  0  0  0
  -15.6180  -38.8613  -25.4597 C   0  0  0  0  0  0  0  0  0  0  0  0
  -16.8629  -38.7571  -24.9258 F   0  0  0  0  0  0  0  0  0  0  0  0
  -14.7306  -38.8226  -24.4257 F   0  0  0  0  0  0  0  0  0  0  0  0
  -14.7796  -41.4650  -24.3411 C   0  0  0  0  0  0  0  0  0  0  0  0
  -14.9083  -42.4979  -23.4918 N   0  0  0  0  0  0  0  0  0  0  0  0
  -18.0284  -45.6095  -18.7983 C   0  0  1  0  0  0  0  0  0  0  0  0
  -17.0981  -44.5620  -18.2041 C   0  0  0  0  0  0  0  0  0  0  0  0
  -17.3500  -43.3427  -19.0488 C   0  0  0  0  0  0  0  0  0  0  0  0
  -18.8079  -43.4825  -19.4211 C   0  0  0  0  0  0  0  0  0  0  0  0
  -19.1642  -44.8630  -19.2936 O   0  0  0  0  0  0  0  0  0  0  0  0
  1  2  1  0
  3  2  1  1
  3  4  1  0
  4  5  1  0
  5  6  2  0
  5  7  1  0
  7  8  1  0
  8  9  2  0
  9 10  1  0
 10 11  2  0
 11 12  1  0
 12 13  1  0
 13 14  1  0
 13 15  1  0
 11 16  1  0
 16 17  2  0
  3 18  1  0
 18 19  1  6
 19 20  1  0
 20 21  1  0
 21 22  1  0
 17  8  1  0
 22 18  1  0
M  END
>  <fragmenstein_runtime>  (180) 
9.744388

>  <original ID>  (180) 
QYNKZXZODFVRMI-WDEREUQCSA-N

>  <fragmenstein_error>  (180) 
None

>  <ref_pdb>  (180) 
d0160a

>  <Multi-SuCOS>  (180) 
0.535989

>  <SLURM_JOB_NAME>  (180) 
BulkDock.place:Flavi_NS5_RdRp:RdRp_knitwork_primer_grip_n_pocket_pure_split1800_batch008

>  <HIPPO Compound ID>  (180) 
17764

>  <original SMILES>  (180) 
CC[C@H](NC(=O)Nc1ccc(OC(F)F)cn1)[C@H]1CCCO1

>  <name>  (180) 
QYNKZXZODFVRMI-WDEREUQCSA-N

>  <HIPPO Pose ID>  (180) 
64813

>  <ref_mols>  (180) 
d0160a,d0254a

>  <exports>  (180) 
['/opt/xchem-fragalysis-2/maxwin/BulkDock/OUTPUTS/RdRp_knitwork_primer_grip_n_pocket_pure_split1800_batch008_217042.sdf', '/opt/xchem-fragalysis-2/maxwin/BulkDock/OUTPUTS/RdRp_knitwork_primer_grip_n_pocket_pure_fragalysis.sdf', '/opt/xchem-fragalysis-2/maxwin/RdRp_FFF/syndirella/Retro_OK_batch1.sdf']

>  <alias>  (180) 
None

>  <inchikey>  (180) 
QYNKZXZODFVRMI-WDEREUQCSA-N

>  <energy_score>  (180) 
-10.073686

>  <distance_score>  (180) 
0.990129

>  <fragmenstein_outcome>  (180) 
acceptable

>  <merge_set>  (180) 
RdRp_knitwork_primer_grip_n_pocket_pure_fragalysis.sdf

>  <scratch_subdir>  (180) 
/opt/xchem-fragalysis-2/maxwin/BulkDock/SCRATCH/217042/C17764-P12

>  <SLURM_JOB_ID>  (180) 
217042

>  <tags>  (180) 
['Fragmenstein placed', 'RdRp_knitwork_primer_grip_n_pocket_pure_fragalysis.sdf Pose OK']

>  <fragmenstein_mode>  (180) 
expansion

>  <csv_name>  (180) 
RdRp_knitwork_primer_grip_n_pocket_pure_split1800_batch008.csv

$$$$
UIYHLUVSYDHDET-HNNXBMFYSA-N
     RDKit          3D

 22 25  0  0  0  0  0  0  0  0999 V2000
  -13.2965  -38.0601  -19.5251 O   0  0  0  0  0  0  0  0  0  0  0  0
  -12.7670  -38.8962  -20.1406 C   0  0  0  0  0  0  0  0  0  0  0  0
  -11.4088  -39.5939  -19.9180 N   0  0  0  0  0  0  0  0  0  0  0  0
  -10.3558  -39.3374  -18.9270 C   0  0  1  0  0  0  0  0  0  0  0  0
   -8.9643  -39.8680  -19.4186 C   0  0  0  0  0  0  0  0  0  0  0  0
   -8.6234  -38.4223  -19.8598 C   0  0  0  0  0  0  0  0  0  0  0  0
   -9.6927  -37.9820  -18.8842 C   0  0  0  0  0  0  0  0  0  0  0  0
  -10.3829  -36.6659  -19.0684 C   0  0  0  0  0  0  0  0  0  0  0  0
   -9.4503  -36.0985  -18.0455 N   0  0  0  0  0  0  0  0  0  0  0  0
   -9.2165  -37.4749  -17.5365 C   0  0  0  0  0  0  0  0  0  0  0  0
  -13.4587  -39.4471  -21.3304 C   0  0  0  0  0  0  0  0  0  0  0  0
  -13.6462  -40.8119  -21.5261 C   0  0  0  0  0  0  0  0  0  0  0  0
  -14.3551  -41.2489  -22.6515 C   0  0  0  0  0  0  0  0  0  0  0  0
  -14.8323  -40.3171  -23.5770 C   0  0  0  0  0  0  0  0  0  0  0  0
  -15.6041  -40.6929  -24.7827 C   0  0  0  0  0  0  0  0  0  0  0  0
  -15.5341  -39.9322  -25.9584 C   0  0  0  0  0  0  0  0  0  0  0  0
  -16.3066  -40.2912  -27.0568 C   0  0  0  0  0  0  0  0  0  0  0  0
  -17.1550  -41.3433  -27.0763 N   0  0  0  0  0  0  0  0  0  0  0  0
  -17.2054  -42.0731  -25.9439 C   0  0  0  0  0  0  0  0  0  0  0  0
  -16.4670  -41.7976  -24.8000 C   0  0  0  0  0  0  0  0  0  0  0  0
  -14.6351  -38.9851  -23.3882 N   0  0  0  0  0  0  0  0  0  0  0  0
  -13.9896  -38.5786  -22.2658 C   0  0  0  0  0  0  0  0  0  0  0  0
  1  2  2  0
  2  3  1  0
  4  3  1  6
  4  5  1  0
  5  6  1  0
  6  7  1  0
  7  8  1  0
  8  9  1  0
  9 10  1  0
  2 11  1  0
 11 12  2  0
 12 13  1  0
 13 14  2  0
 14 15  1  0
 15 16  2  0
 16 17  1  0
 17 18  2  0
 18 19  1  0
 19 20  2  0
 14 21  1  0
 21 22  2  0
  7  4  1  0
 22 11  1  0
 10  7  1  0
 20 15  1  0
M  END
>  <fragmenstein_runtime>  (181) 
9.08404

>  <original ID>  (181) 
UIYHLUVSYDHDET-HNNXBMFYSA-N

>  <fragmenstein_error>  (181) 
None

>  <ref_pdb>  (181) 
d0472a

>  <Multi-SuCOS>  (181) 
0.368575

>  <SLURM_JOB_NAME>  (181) 
BulkDock.place:Flavi_NS5_RdRp:RdRp_knitwork_primer_grip_n_pocket_pure_split1800_batch007

>  <HIPPO Compound ID>  (181) 
26127

>  <original SMILES>  (181) 
O=C(N[C@H]1CCC12CNC2)c1ccc(-c2ccncc2)nc1

>  <name>  (181) 
UIYHLUVSYDHDET-HNNXBMFYSA-N

>  <HIPPO Pose ID>  (181) 
65179

>  <ref_mols>  (181) 
d0160a,d0472a

>  <exports>  (181) 
['/opt/xchem-fragalysis-2/maxwin/BulkDock/OUTPUTS/RdRp_knitwork_primer_grip_n_pocket_pure_split1800_batch007_217041.sdf', '/opt/xchem-fragalysis-2/maxwin/BulkDock/OUTPUTS/RdRp_knitwork_primer_grip_n_pocket_pure_fragalysis.sdf', '/opt/xchem-fragalysis-2/maxwin/RdRp_FFF/syndirella/Retro_OK_batch1.sdf']

>  <alias>  (181) 
None

>  <inchikey>  (181) 
UIYHLUVSYDHDET-HNNXBMFYSA-N

>  <energy_score>  (181) 
-3.731862

>  <distance_score>  (181) 
0.664786

>  <fragmenstein_outcome>  (181) 
acceptable

>  <merge_set>  (181) 
RdRp_knitwork_primer_grip_n_pocket_pure_fragalysis.sdf

>  <scratch_subdir>  (181) 
/opt/xchem-fragalysis-2/maxwin/BulkDock/SCRATCH/217041/C26127-P42

>  <SLURM_JOB_ID>  (181) 
217041

>  <tags>  (181) 
['Fragmenstein placed', 'RdRp_knitwork_primer_grip_n_pocket_pure_fragalysis.sdf Pose OK']

>  <fragmenstein_mode>  (181) 
expansion

>  <csv_name>  (181) 
RdRp_knitwork_primer_grip_n_pocket_pure_split1800_batch007.csv

$$$$
CCDQLSZZRRFIMQ-KWQFWETISA-N
     RDKit          3D

 18 19  0  0  0  0  0  0  0  0999 V2000
  -18.5212  -45.1457  -22.9161 C   0  0  0  0  0  0  0  0  0  0  0  0
  -17.2458  -45.1956  -22.0789 C   0  0  1  0  0  0  0  0  0  0  0  0
  -16.7041  -43.8052  -21.7244 C   0  0  0  0  0  0  0  0  0  0  0  0
  -16.2217  -43.0130  -22.9282 C   0  0  0  0  0  0  0  0  0  0  0  0
  -16.4538  -43.2842  -24.0382 O   0  0  0  0  0  0  0  0  0  0  0  0
  -15.4894  -41.7839  -22.3251 N   0  0  0  0  0  0  0  0  0  0  0  0
  -14.8495  -40.7488  -22.9362 C   0  0  0  0  0  0  0  0  0  0  0  0
  -13.9806  -39.8148  -22.3266 C   0  0  0  0  0  0  0  0  0  0  0  0
  -13.5446  -38.8881  -23.1852 N   0  0  0  0  0  0  0  0  0  0  0  0
  -14.1455  -39.2506  -24.3411 N   0  0  0  0  0  0  0  0  0  0  0  0
  -14.9247  -40.3550  -24.2478 C   0  0  0  0  0  0  0  0  0  0  0  0
  -15.6400  -40.8017  -25.3810 C   0  0  0  0  0  0  0  0  0  0  0  0
  -16.1964  -41.0063  -26.3770 N   0  0  0  0  0  0  0  0  0  0  0  0
  -17.4503  -46.0501  -20.8118 C   0  0  2  0  0  0  0  0  0  0  0  0
  -18.5284  -45.5592  -19.8491 C   0  0  0  0  0  0  0  0  0  0  0  0
  -17.9942  -45.9871  -18.5063 C   0  0  0  0  0  0  0  0  0  0  0  0
  -16.5042  -45.8253  -18.6849 C   0  0  0  0  0  0  0  0  0  0  0  0
  -16.2178  -46.0888  -20.0621 O   0  0  0  0  0  0  0  0  0  0  0  0
  2  1  1  1
  2  3  1  0
  3  4  1  0
  4  5  2  0
  4  6  1  0
  6  7  1  0
  7  8  1  0
  8  9  2  0
  9 10  1  0
 10 11  1  0
 11 12  1  0
 12 13  3  0
  2 14  1  0
 14 15  1  1
 15 16  1  0
 16 17  1  0
 17 18  1  0
 11  7  2  0
 18 14  1  0
M  END
>  <fragmenstein_runtime>  (182) 
2.837815

>  <original ID>  (182) 
CCDQLSZZRRFIMQ-KWQFWETISA-N

>  <fragmenstein_error>  (182) 
None

>  <ref_pdb>  (182) 
d0160a

>  <Multi-SuCOS>  (182) 
0.593837

>  <SLURM_JOB_NAME>  (182) 
BulkDock.place:Flavi_NS5_RdRp:RdRp_knitwork_primer_grip_n_pocket_pure_split1800_batch008

>  <HIPPO Compound ID>  (182) 
22539

>  <original SMILES>  (182) 
C[C@@H](CC(=O)Nc1cn[nH]c1C#N)[C@@H]1CCCO1

>  <name>  (182) 
CCDQLSZZRRFIMQ-KWQFWETISA-N

>  <HIPPO Pose ID>  (182) 
65441

>  <ref_mols>  (182) 
d0160a,d0254a

>  <exports>  (182) 
['/opt/xchem-fragalysis-2/maxwin/BulkDock/OUTPUTS/RdRp_knitwork_primer_grip_n_pocket_pure_split1800_batch008_217042.sdf', '/opt/xchem-fragalysis-2/maxwin/BulkDock/OUTPUTS/RdRp_knitwork_primer_grip_n_pocket_pure_fragalysis.sdf', '/opt/xchem-fragalysis-2/maxwin/RdRp_FFF/syndirella/Retro_OK_batch1.sdf']

>  <alias>  (182) 
None

>  <inchikey>  (182) 
CCDQLSZZRRFIMQ-KWQFWETISA-N

>  <energy_score>  (182) 
-34.245167

>  <distance_score>  (182) 
0.762572

>  <fragmenstein_outcome>  (182) 
acceptable

>  <merge_set>  (182) 
RdRp_knitwork_primer_grip_n_pocket_pure_fragalysis.sdf

>  <scratch_subdir>  (182) 
/opt/xchem-fragalysis-2/maxwin/BulkDock/SCRATCH/217042/C22539-P12

>  <SLURM_JOB_ID>  (182) 
217042

>  <tags>  (182) 
['Fragmenstein placed', 'RdRp_knitwork_primer_grip_n_pocket_pure_fragalysis.sdf Pose OK']

>  <fragmenstein_mode>  (182) 
expansion

>  <csv_name>  (182) 
RdRp_knitwork_primer_grip_n_pocket_pure_split1800_batch008.csv

$$$$
CCDQLSZZRRFIMQ-KWQFWETISA-N
     RDKit          3D

 18 19  0  0  0  0  0  0  0  0999 V2000
  -18.5536  -45.1670  -22.9736 C   0  0  0  0  0  0  0  0  0  0  0  0
  -17.2864  -45.2070  -22.1234 C   0  0  1  0  0  0  0  0  0  0  0  0
  -16.7503  -43.8102  -21.7850 C   0  0  0  0  0  0  0  0  0  0  0  0
  -16.2117  -43.0608  -22.9945 C   0  0  0  0  0  0  0  0  0  0  0  0
  -16.4920  -43.3046  -24.1001 O   0  0  0  0  0  0  0  0  0  0  0  0
  -15.3486  -41.9115  -22.4052 N   0  0  0  0  0  0  0  0  0  0  0  0
  -14.7691  -40.8389  -23.0142 C   0  0  0  0  0  0  0  0  0  0  0  0
  -13.9354  -39.8757  -22.3986 C   0  0  0  0  0  0  0  0  0  0  0  0
  -13.5328  -38.9283  -23.2511 N   0  0  0  0  0  0  0  0  0  0  0  0
  -14.1158  -39.3069  -24.4096 N   0  0  0  0  0  0  0  0  0  0  0  0
  -14.8654  -40.4329  -24.3208 C   0  0  0  0  0  0  0  0  0  0  0  0
  -15.5686  -40.8895  -25.4576 C   0  0  0  0  0  0  0  0  0  0  0  0
  -16.1112  -41.0958  -26.4610 N   0  0  0  0  0  0  0  0  0  0  0  0
  -17.5056  -46.0459  -20.8485 C   0  0  2  0  0  0  0  0  0  0  0  0
  -18.6025  -45.5508  -19.9115 C   0  0  0  0  0  0  0  0  0  0  0  0
  -18.1152  -46.0187  -18.5645 C   0  0  0  0  0  0  0  0  0  0  0  0
  -16.6174  -45.8714  -18.6929 C   0  0  0  0  0  0  0  0  0  0  0  0
  -16.2895  -46.0674  -20.0728 O   0  0  0  0  0  0  0  0  0  0  0  0
  2  1  1  1
  2  3  1  0
  3  4  1  0
  4  5  2  0
  4  6  1  0
  6  7  1  0
  7  8  1  0
  8  9  2  0
  9 10  1  0
 10 11  1  0
 11 12  1  0
 12 13  3  0
  2 14  1  0
 14 15  1  1
 15 16  1  0
 16 17  1  0
 17 18  1  0
 11  7  2  0
 18 14  1  0
M  END
>  <fragmenstein_runtime>  (183) 
4.251361

>  <original ID>  (183) 
CCDQLSZZRRFIMQ-KWQFWETISA-N

>  <fragmenstein_error>  (183) 
None

>  <ref_pdb>  (183) 
d0254a

>  <Multi-SuCOS>  (183) 
0.603983

>  <SLURM_JOB_NAME>  (183) 
BulkDock.place:Flavi_NS5_RdRp:RdRp_knitwork_primer_grip_n_pocket_pure_split1800_batch008

>  <HIPPO Compound ID>  (183) 
22539

>  <original SMILES>  (183) 
C[C@@H](CC(=O)Nc1cn[nH]c1C#N)[C@@H]1CCCO1

>  <name>  (183) 
CCDQLSZZRRFIMQ-KWQFWETISA-N

>  <HIPPO Pose ID>  (183) 
65443

>  <ref_mols>  (183) 
d0160a,d0254a

>  <exports>  (183) 
['/opt/xchem-fragalysis-2/maxwin/BulkDock/OUTPUTS/RdRp_knitwork_primer_grip_n_pocket_pure_split1800_batch008_217042.sdf', '/opt/xchem-fragalysis-2/maxwin/BulkDock/OUTPUTS/RdRp_knitwork_primer_grip_n_pocket_pure_fragalysis.sdf', '/opt/xchem-fragalysis-2/maxwin/RdRp_FFF/syndirella/Retro_OK_batch1.sdf']

>  <alias>  (183) 
None

>  <inchikey>  (183) 
CCDQLSZZRRFIMQ-KWQFWETISA-N

>  <energy_score>  (183) 
-33.97969

>  <distance_score>  (183) 
0.722332

>  <fragmenstein_outcome>  (183) 
acceptable

>  <merge_set>  (183) 
RdRp_knitwork_primer_grip_n_pocket_pure_fragalysis.sdf

>  <scratch_subdir>  (183) 
/opt/xchem-fragalysis-2/maxwin/BulkDock/SCRATCH/217042/C22539-P26

>  <SLURM_JOB_ID>  (183) 
217042

>  <tags>  (183) 
['Fragmenstein placed', 'RdRp_knitwork_primer_grip_n_pocket_pure_fragalysis.sdf Pose OK']

>  <fragmenstein_mode>  (183) 
expansion

>  <csv_name>  (183) 
RdRp_knitwork_primer_grip_n_pocket_pure_split1800_batch008.csv

$$$$
GYTSIWMUBRJWHK-JTQLQIEISA-N
     RDKit          3D

 17 18  0  0  0  0  0  0  0  0999 V2000
  -12.1642  -38.3523  -21.9574 C   0  0  0  0  0  0  0  0  0  0  0  0
  -13.1593  -39.3355  -22.3143 N   0  0  0  0  0  0  0  0  0  0  0  0
  -13.4716  -40.4732  -21.6376 C   0  0  0  0  0  0  0  0  0  0  0  0
  -14.4585  -41.1137  -22.3675 C   0  0  0  0  0  0  0  0  0  0  0  0
  -15.0843  -42.3758  -21.9957 C   0  0  0  0  0  0  0  0  0  0  0  0
  -14.7773  -42.9287  -20.9344 O   0  0  0  0  0  0  0  0  0  0  0  0
  -16.1306  -42.9906  -22.9360 C   0  0  0  0  0  0  0  0  0  0  0  0
  -16.7147  -44.1291  -22.2626 N   0  0  0  0  0  0  0  0  0  0  0  0
  -18.1622  -44.3675  -21.7583 C   0  0  0  0  0  0  0  0  0  0  0  0
  -19.1236  -43.7131  -21.8781 O   0  0  0  0  0  0  0  0  0  0  0  0
  -18.1001  -45.6963  -20.9475 C   0  0  2  0  0  0  0  0  0  0  0  0
  -18.9146  -45.5841  -19.6619 C   0  0  0  0  0  0  0  0  0  0  0  0
  -17.9599  -46.0126  -18.5724 C   0  0  0  0  0  0  0  0  0  0  0  0
  -16.6100  -45.7137  -19.1720 C   0  0  0  0  0  0  0  0  0  0  0  0
  -16.7471  -46.0249  -20.5623 O   0  0  0  0  0  0  0  0  0  0  0  0
  -14.6616  -40.2597  -23.4742 C   0  0  0  0  0  0  0  0  0  0  0  0
  -13.8889  -39.1678  -23.4293 N   0  0  0  0  0  0  0  0  0  0  0  0
  1  2  1  0
  2  3  1  0
  3  4  2  0
  4  5  1  0
  5  6  2  0
  5  7  1  0
  7  8  1  0
  8  9  1  0
  9 10  2  0
 11  9  1  1
 11 12  1  0
 12 13  1  0
 13 14  1  0
 14 15  1  0
  4 16  1  0
 16 17  2  0
 17  2  1  0
 15 11  1  0
M  END
>  <fragmenstein_runtime>  (184) 
3.795911

>  <original ID>  (184) 
GYTSIWMUBRJWHK-JTQLQIEISA-N

>  <fragmenstein_error>  (184) 
None

>  <ref_pdb>  (184) 
d0254a

>  <Multi-SuCOS>  (184) 
0.609468

>  <SLURM_JOB_NAME>  (184) 
BulkDock.place:Flavi_NS5_RdRp:RdRp_knitwork_primer_grip_n_pocket_pure_split1800_batch008

>  <HIPPO Compound ID>  (184) 
22542

>  <original SMILES>  (184) 
Cn1cc(C(=O)CNC(=O)[C@@H]2CCCO2)cn1

>  <name>  (184) 
GYTSIWMUBRJWHK-JTQLQIEISA-N

>  <HIPPO Pose ID>  (184) 
65456

>  <ref_mols>  (184) 
d0160a,d0254a

>  <exports>  (184) 
['/opt/xchem-fragalysis-2/maxwin/BulkDock/OUTPUTS/RdRp_knitwork_primer_grip_n_pocket_pure_split1800_batch008_217042.sdf', '/opt/xchem-fragalysis-2/maxwin/BulkDock/OUTPUTS/RdRp_knitwork_primer_grip_n_pocket_pure_fragalysis.sdf', '/opt/xchem-fragalysis-2/maxwin/RdRp_FFF/syndirella/Retro_OK_batch1.sdf']

>  <alias>  (184) 
None

>  <inchikey>  (184) 
GYTSIWMUBRJWHK-JTQLQIEISA-N

>  <energy_score>  (184) 
-32.430878

>  <distance_score>  (184) 
0.93703

>  <fragmenstein_outcome>  (184) 
acceptable

>  <merge_set>  (184) 
RdRp_knitwork_primer_grip_n_pocket_pure_fragalysis.sdf

>  <scratch_subdir>  (184) 
/opt/xchem-fragalysis-2/maxwin/BulkDock/SCRATCH/217042/C22542-P26

>  <SLURM_JOB_ID>  (184) 
217042

>  <tags>  (184) 
['Fragmenstein placed', 'RdRp_knitwork_primer_grip_n_pocket_pure_fragalysis.sdf Pose OK']

>  <fragmenstein_mode>  (184) 
expansion

>  <csv_name>  (184) 
RdRp_knitwork_primer_grip_n_pocket_pure_split1800_batch008.csv

$$$$
BGISRZGITIPTJB-OAHLLOKOSA-N
     RDKit          3D

 20 22  0  0  0  0  0  0  0  0999 V2000
  -13.6209  -42.8647  -20.6449 C   0  0  0  0  0  0  0  0  0  0  0  0
  -14.7843  -41.9794  -21.1380 C   0  0  0  0  0  0  0  0  0  0  0  0
  -15.1819  -41.0741  -19.9476 C   0  0  0  0  0  0  0  0  0  0  0  0
  -15.9771  -42.7811  -21.4594 N   0  0  0  0  0  0  0  0  0  0  0  0
  -15.7400  -43.8290  -22.4386 C   0  0  0  0  0  0  0  0  0  0  0  0
  -17.0316  -44.2105  -23.0350 C   0  0  0  0  0  0  0  0  0  0  0  0
  -17.5592  -43.7382  -24.2245 C   0  0  0  0  0  0  0  0  0  0  0  0
  -18.7913  -44.3710  -24.3550 C   0  0  0  0  0  0  0  0  0  0  0  0
  -19.0465  -45.1722  -23.3290 N   0  0  0  0  0  0  0  0  0  0  0  0
  -17.9597  -45.0852  -22.5256 N   0  0  0  0  0  0  0  0  0  0  0  0
  -18.0418  -45.8126  -21.2682 C   0  0  0  0  0  0  0  0  0  0  0  0
  -18.6665  -44.9741  -20.1427 C   0  0  0  0  0  0  0  0  0  0  0  0
  -18.0468  -45.5149  -18.8631 C   0  0  0  0  0  0  0  0  0  0  0  0
  -16.6237  -45.8486  -19.2754 C   0  0  0  0  0  0  0  0  0  0  0  0
  -16.7815  -46.4556  -20.6652 C   0  0  0  0  0  0  0  0  0  0  0  0
  -14.3317  -41.1175  -22.3494 C   0  0  1  0  0  0  0  0  0  0  0  0
  -15.3952  -40.2417  -23.0002 C   0  0  0  0  0  0  0  0  0  0  0  0
  -14.5521  -39.1739  -23.6428 C   0  0  0  0  0  0  0  0  0  0  0  0
  -13.4691  -38.9707  -22.6080 C   0  0  0  0  0  0  0  0  0  0  0  0
  -13.2391  -40.2416  -21.9944 O   0  0  0  0  0  0  0  0  0  0  0  0
  1  2  1  0
  2  3  1  0
  2  4  1  0
  4  5  1  0
  5  6  1  0
  6  7  2  0
  7  8  1  0
  8  9  2  0
  9 10  1  0
 10 11  1  0
 11 12  1  0
 12 13  1  0
 13 14  1  0
 14 15  1  0
 16  2  1  1
 16 17  1  0
 17 18  1  0
 18 19  1  0
 19 20  1  0
 10  6  1  0
 15 11  1  0
 20 16  1  0
M  END
>  <fragmenstein_runtime>  (185) 
9.728171

>  <original ID>  (185) 
BGISRZGITIPTJB-OAHLLOKOSA-N

>  <fragmenstein_error>  (185) 
None

>  <ref_pdb>  (185) 
d0254a

>  <Multi-SuCOS>  (185) 
0.431604

>  <SLURM_JOB_NAME>  (185) 
BulkDock.place:Flavi_NS5_RdRp:RdRp_knitwork_primer_grip_n_pocket_pure_split1800_batch008

>  <HIPPO Compound ID>  (185) 
22777

>  <original SMILES>  (185) 
CC(C)(NCc1ccnn1C1CCCC1)[C@H]1CCCO1

>  <name>  (185) 
BGISRZGITIPTJB-OAHLLOKOSA-N

>  <HIPPO Pose ID>  (185) 
65964

>  <ref_mols>  (185) 
d0160a,d0254a

>  <exports>  (185) 
['/opt/xchem-fragalysis-2/maxwin/BulkDock/OUTPUTS/RdRp_knitwork_primer_grip_n_pocket_pure_split1800_batch008_217042.sdf', '/opt/xchem-fragalysis-2/maxwin/BulkDock/OUTPUTS/RdRp_knitwork_primer_grip_n_pocket_pure_fragalysis.sdf', '/opt/xchem-fragalysis-2/maxwin/RdRp_FFF/syndirella/Retro_OK_batch1.sdf']

>  <alias>  (185) 
None

>  <inchikey>  (185) 
BGISRZGITIPTJB-OAHLLOKOSA-N

>  <energy_score>  (185) 
-33.077857

>  <distance_score>  (185) 
0.914848

>  <fragmenstein_outcome>  (185) 
acceptable

>  <merge_set>  (185) 
RdRp_knitwork_primer_grip_n_pocket_pure_fragalysis.sdf

>  <scratch_subdir>  (185) 
/opt/xchem-fragalysis-2/maxwin/BulkDock/SCRATCH/217042/C22777-P26

>  <SLURM_JOB_ID>  (185) 
217042

>  <tags>  (185) 
['Fragmenstein placed', 'RdRp_knitwork_primer_grip_n_pocket_pure_fragalysis.sdf Pose OK']

>  <fragmenstein_mode>  (185) 
expansion

>  <csv_name>  (185) 
RdRp_knitwork_primer_grip_n_pocket_pure_split1800_batch008.csv

$$$$
PKXYYGMIJNAOPA-GFCCVEGCSA-N
     RDKit          3D

 19 21  0  0  0  0  0  0  0  0999 V2000
  -18.1957  -43.9931  -23.4421 O   0  0  0  0  0  0  0  0  0  0  0  0
  -17.3678  -44.1977  -22.6487 C   0  0  0  0  0  0  0  0  0  0  0  0
  -15.8888  -43.7839  -22.6232 N   0  0  0  0  0  0  0  0  0  0  0  0
  -15.1357  -42.9499  -23.5219 C   0  0  0  0  0  0  0  0  0  0  0  0
  -15.1488  -41.4944  -23.0517 C   0  0  1  0  0  0  0  0  0  0  0  0
  -14.3468  -41.2281  -21.7881 C   0  0  0  0  0  0  0  0  0  0  0  0
  -14.1531  -39.7319  -21.8575 C   0  0  0  0  0  0  0  0  0  0  0  0
  -14.1342  -39.4402  -23.3450 C   0  0  0  0  0  0  0  0  0  0  0  0
  -14.5655  -40.6218  -24.0279 O   0  0  0  0  0  0  0  0  0  0  0  0
  -17.6749  -44.8816  -21.3763 C   0  0  0  0  0  0  0  0  0  0  0  0
  -18.9422  -45.2883  -20.8969 C   0  0  0  0  0  0  0  0  0  0  0  0
  -18.7256  -45.7940  -19.6410 C   0  0  0  0  0  0  0  0  0  0  0  0
  -17.3968  -45.6178  -19.4039 N   0  0  0  0  0  0  0  0  0  0  0  0
  -16.7538  -45.7496  -18.1093 C   0  0  0  0  0  0  0  0  0  0  0  0
  -15.2285  -45.6827  -18.1654 C   0  0  0  0  0  0  0  0  0  0  0  0
  -14.8836  -44.1920  -18.1484 C   0  0  0  0  0  0  0  0  0  0  0  0
  -16.1138  -43.4740  -17.5910 C   0  0  0  0  0  0  0  0  0  0  0  0
  -17.1089  -44.5672  -17.2050 C   0  0  0  0  0  0  0  0  0  0  0  0
  -16.7209  -45.1260  -20.4575 N   0  0  0  0  0  0  0  0  0  0  0  0
  1  2  2  0
  2  3  1  0
  3  4  1  0
  5  4  1  6
  5  6  1  0
  6  7  1  0
  7  8  1  0
  8  9  1  0
  2 10  1  0
 10 11  1  0
 11 12  2  0
 12 13  1  0
 13 14  1  0
 14 15  1  0
 15 16  1  0
 16 17  1  0
 17 18  1  0
 13 19  1  0
  9  5  1  0
 19 10  2  0
 18 14  1  0
M  END
>  <fragmenstein_runtime>  (186) 
5.552572

>  <original ID>  (186) 
PKXYYGMIJNAOPA-GFCCVEGCSA-N

>  <fragmenstein_error>  (186) 
None

>  <ref_pdb>  (186) 
d0254a

>  <Multi-SuCOS>  (186) 
0.475652

>  <SLURM_JOB_NAME>  (186) 
BulkDock.place:Flavi_NS5_RdRp:RdRp_knitwork_primer_grip_n_pocket_pure_split1800_batch008

>  <HIPPO Compound ID>  (186) 
22810

>  <original SMILES>  (186) 
O=C(NC[C@H]1CCCO1)c1ccn(C2CCCC2)n1

>  <name>  (186) 
PKXYYGMIJNAOPA-GFCCVEGCSA-N

>  <HIPPO Pose ID>  (186) 
66089

>  <ref_mols>  (186) 
d0160a,d0254a

>  <exports>  (186) 
['/opt/xchem-fragalysis-2/maxwin/BulkDock/OUTPUTS/RdRp_knitwork_primer_grip_n_pocket_pure_split1800_batch008_217042.sdf', '/opt/xchem-fragalysis-2/maxwin/BulkDock/OUTPUTS/RdRp_knitwork_primer_grip_n_pocket_pure_fragalysis.sdf', '/opt/xchem-fragalysis-2/maxwin/RdRp_FFF/syndirella/Retro_OK_batch1.sdf']

>  <alias>  (186) 
None

>  <inchikey>  (186) 
PKXYYGMIJNAOPA-GFCCVEGCSA-N

>  <energy_score>  (186) 
-20.060613

>  <distance_score>  (186) 
0.987262

>  <fragmenstein_outcome>  (186) 
acceptable

>  <merge_set>  (186) 
RdRp_knitwork_primer_grip_n_pocket_pure_fragalysis.sdf

>  <scratch_subdir>  (186) 
/opt/xchem-fragalysis-2/maxwin/BulkDock/SCRATCH/217042/C22810-P26

>  <SLURM_JOB_ID>  (186) 
217042

>  <tags>  (186) 
['Fragmenstein placed', 'RdRp_knitwork_primer_grip_n_pocket_pure_fragalysis.sdf Pose OK']

>  <fragmenstein_mode>  (186) 
expansion

>  <csv_name>  (186) 
RdRp_knitwork_primer_grip_n_pocket_pure_split1800_batch008.csv

$$$$
NENRSKFHYRSTBY-GFCCVEGCSA-N
     RDKit          3D

 20 22  0  0  0  0  0  0  0  0999 V2000
  -15.9421  -45.1624  -22.5906 O   0  0  0  0  0  0  0  0  0  0  0  0
  -17.1617  -44.4860  -22.2391 S   0  0  0  0  0  0  0  0  0  0  0  0
  -18.4058  -44.6618  -22.9492 O   0  0  0  0  0  0  0  0  0  0  0  0
  -16.8623  -42.8304  -22.1977 N   0  0  0  0  0  0  0  0  0  0  0  0
  -15.5052  -42.3968  -22.6688 C   0  0  0  0  0  0  0  0  0  0  0  0
  -15.3639  -40.8983  -22.3840 C   0  0  1  0  0  0  0  0  0  0  0  0
  -13.9636  -40.4497  -22.0055 C   0  0  0  0  0  0  0  0  0  0  0  0
  -13.8963  -39.0639  -22.5908 C   0  0  0  0  0  0  0  0  0  0  0  0
  -14.7228  -39.2082  -23.8504 C   0  0  0  0  0  0  0  0  0  0  0  0
  -15.7447  -40.1659  -23.5610 O   0  0  0  0  0  0  0  0  0  0  0  0
  -17.5004  -45.0358  -20.6003 C   0  0  0  0  0  0  0  0  0  0  0  0
  -18.5437  -45.7902  -20.0899 C   0  0  0  0  0  0  0  0  0  0  0  0
  -18.2615  -45.9700  -18.7312 C   0  0  0  0  0  0  0  0  0  0  0  0
  -17.1247  -45.3756  -18.3747 N   0  0  0  0  0  0  0  0  0  0  0  0
  -16.6826  -44.8014  -19.5199 N   0  0  0  0  0  0  0  0  0  0  0  0
  -15.5099  -43.9591  -19.4416 C   0  0  0  0  0  0  0  0  0  0  0  0
  -15.7687  -42.6034  -18.7701 C   0  0  0  0  0  0  0  0  0  0  0  0
  -14.4750  -42.2369  -18.0409 C   0  0  0  0  0  0  0  0  0  0  0  0
  -13.4660  -43.3135  -18.4139 C   0  0  0  0  0  0  0  0  0  0  0  0
  -14.3250  -44.5396  -18.6795 C   0  0  0  0  0  0  0  0  0  0  0  0
  1  2  2  0
  2  3  2  0
  2  4  1  0
  4  5  1  0
  6  5  1  6
  6  7  1  0
  7  8  1  0
  8  9  1  0
  9 10  1  0
  2 11  1  0
 11 12  2  0
 12 13  1  0
 13 14  2  0
 14 15  1  0
 15 16  1  0
 16 17  1  0
 17 18  1  0
 18 19  1  0
 19 20  1  0
 10  6  1  0
 15 11  1  0
 20 16  1  0
M  END
>  <fragmenstein_runtime>  (187) 
5.850543

>  <original ID>  (187) 
NENRSKFHYRSTBY-GFCCVEGCSA-N

>  <fragmenstein_error>  (187) 
None

>  <ref_pdb>  (187) 
d0160a

>  <Multi-SuCOS>  (187) 
0.372468

>  <SLURM_JOB_NAME>  (187) 
BulkDock.place:Flavi_NS5_RdRp:RdRp_knitwork_primer_grip_n_pocket_pure_split1800_batch008

>  <HIPPO Compound ID>  (187) 
22883

>  <original SMILES>  (187) 
O=S(=O)(NC[C@H]1CCCO1)c1ccnn1C1CCCC1

>  <name>  (187) 
NENRSKFHYRSTBY-GFCCVEGCSA-N

>  <HIPPO Pose ID>  (187) 
66141

>  <ref_mols>  (187) 
d0160a,d0254a

>  <exports>  (187) 
['/opt/xchem-fragalysis-2/maxwin/BulkDock/OUTPUTS/RdRp_knitwork_primer_grip_n_pocket_pure_split1800_batch008_217042.sdf', '/opt/xchem-fragalysis-2/maxwin/BulkDock/OUTPUTS/RdRp_knitwork_primer_grip_n_pocket_pure_fragalysis.sdf', '/opt/xchem-fragalysis-2/maxwin/RdRp_FFF/syndirella/Retro_OK_batch1.sdf']

>  <alias>  (187) 
None

>  <inchikey>  (187) 
NENRSKFHYRSTBY-GFCCVEGCSA-N

>  <energy_score>  (187) 
-50.278037

>  <distance_score>  (187) 
0.867629

>  <fragmenstein_outcome>  (187) 
acceptable

>  <merge_set>  (187) 
RdRp_knitwork_primer_grip_n_pocket_pure_fragalysis.sdf

>  <scratch_subdir>  (187) 
/opt/xchem-fragalysis-2/maxwin/BulkDock/SCRATCH/217042/C22883-P12

>  <SLURM_JOB_ID>  (187) 
217042

>  <tags>  (187) 
['Fragmenstein placed', 'RdRp_knitwork_primer_grip_n_pocket_pure_fragalysis.sdf Pose OK']

>  <fragmenstein_mode>  (187) 
expansion

>  <csv_name>  (187) 
RdRp_knitwork_primer_grip_n_pocket_pure_split1800_batch008.csv

$$$$
NENRSKFHYRSTBY-GFCCVEGCSA-N
     RDKit          3D

 20 22  0  0  0  0  0  0  0  0999 V2000
  -16.2085  -45.2665  -22.6245 O   0  0  0  0  0  0  0  0  0  0  0  0
  -17.3792  -44.5319  -22.2333 S   0  0  0  0  0  0  0  0  0  0  0  0
  -18.6467  -44.6299  -22.9207 O   0  0  0  0  0  0  0  0  0  0  0  0
  -17.0218  -42.8875  -22.1601 N   0  0  0  0  0  0  0  0  0  0  0  0
  -15.9769  -42.4480  -23.1341 C   0  0  0  0  0  0  0  0  0  0  0  0
  -15.6087  -40.9898  -22.8655 C   0  0  1  0  0  0  0  0  0  0  0  0
  -14.4064  -40.7661  -21.9656 C   0  0  0  0  0  0  0  0  0  0  0  0
  -13.9703  -39.3771  -22.3598 C   0  0  0  0  0  0  0  0  0  0  0  0
  -14.3976  -39.2686  -23.8094 C   0  0  0  0  0  0  0  0  0  0  0  0
  -15.2694  -40.3573  -24.1017 O   0  0  0  0  0  0  0  0  0  0  0  0
  -17.7191  -45.0784  -20.5986 C   0  0  0  0  0  0  0  0  0  0  0  0
  -18.9160  -45.5448  -20.0735 C   0  0  0  0  0  0  0  0  0  0  0  0
  -18.6332  -45.9765  -18.7802 C   0  0  0  0  0  0  0  0  0  0  0  0
  -17.3587  -45.7797  -18.4662 N   0  0  0  0  0  0  0  0  0  0  0  0
  -16.8115  -45.1913  -19.5675 N   0  0  0  0  0  0  0  0  0  0  0  0
  -15.3873  -44.9128  -19.4587 C   0  0  0  0  0  0  0  0  0  0  0  0
  -14.7430  -43.8141  -20.2902 C   0  0  0  0  0  0  0  0  0  0  0  0
  -13.4432  -43.5076  -19.5667 C   0  0  0  0  0  0  0  0  0  0  0  0
  -13.8716  -43.4611  -18.1205 C   0  0  0  0  0  0  0  0  0  0  0  0
  -14.9831  -44.5019  -18.0190 C   0  0  0  0  0  0  0  0  0  0  0  0
  1  2  2  0
  2  3  2  0
  2  4  1  0
  4  5  1  0
  6  5  1  6
  6  7  1  0
  7  8  1  0
  8  9  1  0
  9 10  1  0
  2 11  1  0
 11 12  2  0
 12 13  1  0
 13 14  2  0
 14 15  1  0
 15 16  1  0
 16 17  1  0
 17 18  1  0
 18 19  1  0
 19 20  1  0
 10  6  1  0
 15 11  1  0
 20 16  1  0
M  END
>  <fragmenstein_runtime>  (188) 
4.670086

>  <original ID>  (188) 
NENRSKFHYRSTBY-GFCCVEGCSA-N

>  <fragmenstein_error>  (188) 
None

>  <ref_pdb>  (188) 
d0254a

>  <Multi-SuCOS>  (188) 
0.386186

>  <SLURM_JOB_NAME>  (188) 
BulkDock.place:Flavi_NS5_RdRp:RdRp_knitwork_primer_grip_n_pocket_pure_split1800_batch008

>  <HIPPO Compound ID>  (188) 
22883

>  <original SMILES>  (188) 
O=S(=O)(NC[C@H]1CCCO1)c1ccnn1C1CCCC1

>  <name>  (188) 
NENRSKFHYRSTBY-GFCCVEGCSA-N

>  <HIPPO Pose ID>  (188) 
66143

>  <ref_mols>  (188) 
d0160a,d0254a

>  <exports>  (188) 
['/opt/xchem-fragalysis-2/maxwin/BulkDock/OUTPUTS/RdRp_knitwork_primer_grip_n_pocket_pure_split1800_batch008_217042.sdf', '/opt/xchem-fragalysis-2/maxwin/BulkDock/OUTPUTS/RdRp_knitwork_primer_grip_n_pocket_pure_fragalysis.sdf', '/opt/xchem-fragalysis-2/maxwin/RdRp_FFF/syndirella/Retro_OK_batch1.sdf']

>  <alias>  (188) 
None

>  <inchikey>  (188) 
NENRSKFHYRSTBY-GFCCVEGCSA-N

>  <energy_score>  (188) 
-41.830293

>  <distance_score>  (188) 
0.850567

>  <fragmenstein_outcome>  (188) 
acceptable

>  <merge_set>  (188) 
RdRp_knitwork_primer_grip_n_pocket_pure_fragalysis.sdf

>  <scratch_subdir>  (188) 
/opt/xchem-fragalysis-2/maxwin/BulkDock/SCRATCH/217042/C22883-P26

>  <SLURM_JOB_ID>  (188) 
217042

>  <tags>  (188) 
['Fragmenstein placed', 'RdRp_knitwork_primer_grip_n_pocket_pure_fragalysis.sdf Pose OK']

>  <fragmenstein_mode>  (188) 
expansion

>  <csv_name>  (188) 
RdRp_knitwork_primer_grip_n_pocket_pure_split1800_batch008.csv

$$$$
JUSGTJATUSPCAX-LBPRGKRZSA-N
     RDKit          3D

 20 22  0  0  0  0  0  0  0  0999 V2000
  -16.1123  -45.3702  -22.6853 O   0  0  0  0  0  0  0  0  0  0  0  0
  -17.2778  -44.5707  -22.4180 S   0  0  0  0  0  0  0  0  0  0  0  0
  -18.5200  -44.7191  -23.1365 O   0  0  0  0  0  0  0  0  0  0  0  0
  -16.8078  -42.9593  -22.5633 N   0  0  0  0  0  0  0  0  0  0  0  0
  -15.4143  -42.6623  -22.1307 C   0  0  0  0  0  0  0  0  0  0  0  0
  -15.1685  -41.1591  -22.2044 C   0  0  2  0  0  0  0  0  0  0  0  0
  -15.0224  -40.6467  -23.6213 C   0  0  0  0  0  0  0  0  0  0  0  0
  -14.2986  -39.3500  -23.3903 C   0  0  0  0  0  0  0  0  0  0  0  0
  -13.4269  -39.6291  -22.1828 C   0  0  0  0  0  0  0  0  0  0  0  0
  -13.9491  -40.7981  -21.5383 O   0  0  0  0  0  0  0  0  0  0  0  0
  -17.6479  -44.9124  -20.7932 C   0  0  0  0  0  0  0  0  0  0  0  0
  -18.9257  -45.0971  -20.2576 C   0  0  0  0  0  0  0  0  0  0  0  0
  -18.8911  -45.2450  -18.9302 N   0  0  0  0  0  0  0  0  0  0  0  0
  -17.5777  -45.2002  -18.6357 N   0  0  0  0  0  0  0  0  0  0  0  0
  -17.1434  -45.1794  -17.2554 C   0  0  0  0  0  0  0  0  0  0  0  0
  -17.5099  -43.8670  -16.5371 C   0  0  0  0  0  0  0  0  0  0  0  0
  -18.2780  -44.2804  -15.2879 C   0  0  0  0  0  0  0  0  0  0  0  0
  -17.7954  -45.6911  -15.0044 C   0  0  0  0  0  0  0  0  0  0  0  0
  -17.7042  -46.3120  -16.3882 C   0  0  0  0  0  0  0  0  0  0  0  0
  -16.7812  -45.0334  -19.7300 C   0  0  0  0  0  0  0  0  0  0  0  0
  1  2  2  0
  2  3  2  0
  2  4  1  0
  4  5  1  0
  6  5  1  6
  6  7  1  0
  7  8  1  0
  8  9  1  0
  9 10  1  0
  2 11  1  0
 11 12  1  0
 12 13  2  0
 13 14  1  0
 14 15  1  0
 15 16  1  0
 16 17  1  0
 17 18  1  0
 18 19  1  0
 14 20  1  0
 10  6  1  0
 20 11  2  0
 19 15  1  0
M  END
>  <fragmenstein_runtime>  (189) 
8.494449

>  <original ID>  (189) 
JUSGTJATUSPCAX-LBPRGKRZSA-N

>  <fragmenstein_error>  (189) 
None

>  <ref_pdb>  (189) 
d0160a

>  <Multi-SuCOS>  (189) 
0.37764

>  <SLURM_JOB_NAME>  (189) 
BulkDock.place:Flavi_NS5_RdRp:RdRp_knitwork_primer_grip_n_pocket_pure_split1800_batch008

>  <HIPPO Compound ID>  (189) 
23189

>  <original SMILES>  (189) 
O=S(=O)(NC[C@@H]1CCCO1)c1cnn(C2CCCC2)c1

>  <name>  (189) 
JUSGTJATUSPCAX-LBPRGKRZSA-N

>  <HIPPO Pose ID>  (189) 
66265

>  <ref_mols>  (189) 
d0160a,d0254a

>  <exports>  (189) 
['/opt/xchem-fragalysis-2/maxwin/BulkDock/OUTPUTS/RdRp_knitwork_primer_grip_n_pocket_pure_split1800_batch008_217042.sdf', '/opt/xchem-fragalysis-2/maxwin/BulkDock/OUTPUTS/RdRp_knitwork_primer_grip_n_pocket_pure_fragalysis.sdf', '/opt/xchem-fragalysis-2/maxwin/RdRp_FFF/syndirella/Retro_OK_batch1.sdf']

>  <alias>  (189) 
None

>  <inchikey>  (189) 
JUSGTJATUSPCAX-LBPRGKRZSA-N

>  <energy_score>  (189) 
-41.574015

>  <distance_score>  (189) 
0.877785

>  <fragmenstein_outcome>  (189) 
acceptable

>  <merge_set>  (189) 
RdRp_knitwork_primer_grip_n_pocket_pure_fragalysis.sdf

>  <scratch_subdir>  (189) 
/opt/xchem-fragalysis-2/maxwin/BulkDock/SCRATCH/217042/C23189-P12

>  <SLURM_JOB_ID>  (189) 
217042

>  <tags>  (189) 
['Fragmenstein placed', 'RdRp_knitwork_primer_grip_n_pocket_pure_fragalysis.sdf Pose OK']

>  <fragmenstein_mode>  (189) 
expansion

>  <csv_name>  (189) 
RdRp_knitwork_primer_grip_n_pocket_pure_split1800_batch008.csv

$$$$
JUQITCQTBRXLFI-UHFFFAOYSA-N
     RDKit          3D

 14 15  0  0  0  0  0  0  0  0999 V2000
  -18.2538  -38.5696  -26.7574 Cl  0  0  0  0  0  0  0  0  0  0  0  0
  -17.2347  -39.8957  -26.4452 C   0  0  0  0  0  0  0  0  0  0  0  0
  -16.0625  -39.6685  -25.7629 C   0  0  0  0  0  0  0  0  0  0  0  0
  -15.4115  -40.7700  -25.2490 C   0  0  0  0  0  0  0  0  0  0  0  0
  -14.2386  -40.6541  -24.5215 N   0  0  0  0  0  0  0  0  0  0  0  0
  -14.2341  -39.7991  -23.3454 C   0  0  0  0  0  0  0  0  0  0  0  0
  -14.1728  -40.6631  -22.1528 C   0  0  0  0  0  0  0  0  0  0  0  0
  -13.2390  -40.8545  -21.1646 C   0  0  0  0  0  0  0  0  0  0  0  0
  -13.7140  -41.9732  -20.4552 C   0  0  0  0  0  0  0  0  0  0  0  0
  -14.8897  -42.4166  -20.9062 N   0  0  0  0  0  0  0  0  0  0  0  0
  -15.1308  -41.6203  -21.9539 N   0  0  0  0  0  0  0  0  0  0  0  0
  -15.9002  -42.0409  -25.5367 C   0  0  0  0  0  0  0  0  0  0  0  0
  -17.0599  -42.1560  -26.2774 C   0  0  0  0  0  0  0  0  0  0  0  0
  -17.7606  -41.1034  -26.7364 N   0  0  0  0  0  0  0  0  0  0  0  0
  1  2  1  0
  2  3  2  0
  3  4  1  0
  4  5  1  0
  5  6  1  0
  6  7  1  0
  7  8  2  0
  8  9  1  0
  9 10  2  0
 10 11  1  0
  4 12  2  0
 12 13  1  0
 13 14  2  0
 14  2  1  0
 11  7  1  0
M  END
>  <fragmenstein_runtime>  (190) 
1.309471

>  <original ID>  (190) 
JUQITCQTBRXLFI-UHFFFAOYSA-N

>  <fragmenstein_error>  (190) 
None

>  <ref_pdb>  (190) 
d0160a

>  <Multi-SuCOS>  (190) 
0.49105

>  <SLURM_JOB_NAME>  (190) 
BulkDock.place:Flavi_NS5_RdRp:green_site_rna_tunnel_fstein_bulkdock_input_split1000_batch000

>  <HIPPO Compound ID>  (190) 
18236

>  <original SMILES>  (190) 
Clc1cc(NCc2ccn[nH]2)ccn1

>  <name>  (190) 
JUQITCQTBRXLFI-UHFFFAOYSA-N

>  <HIPPO Pose ID>  (190) 
67005

>  <ref_mols>  (190) 
d0160a,d0191a

>  <exports>  (190) 
['/opt/xchem-fragalysis-2/maxwin/BulkDock/OUTPUTS/RdRp_knitwork_primer_grip_n_pocket_pure_fragalysis.sdf', '/opt/xchem-fragalysis-2/maxwin/RdRp_FFF/syndirella/Retro_OK_batch1.sdf']

>  <alias>  (190) 
None

>  <inchikey>  (190) 
JUQITCQTBRXLFI-UHFFFAOYSA-N

>  <energy_score>  (190) 
-21.443638

>  <distance_score>  (190) 
1.695181

>  <fragmenstein_outcome>  (190) 
acceptable

>  <merge_set>  (190) 
RdRp_knitwork_primer_grip_n_pocket_pure_fragalysis.sdf

>  <scratch_subdir>  (190) 
/opt/xchem-fragalysis-2/maxwin/BulkDock/SCRATCH/217965/C67005-P104

>  <SLURM_JOB_ID>  (190) 
217965

>  <tags>  (190) 
['Fragmenstein placed', 'RdRp_knitwork_primer_grip_n_pocket_pure_fragalysis.sdf Pose OK']

>  <fragmenstein_mode>  (190) 
expansion

>  <csv_name>  (190) 
green_site_rna_tunnel_fstein_bulkdock_input_split1000_batch000.csv

$$$$
FMJBOIXFOZOLDO-UHFFFAOYSA-N
     RDKit          3D

 14 15  0  0  0  0  0  0  0  0999 V2000
  -15.9257  -42.9079  -24.6269 F   0  0  0  0  0  0  0  0  0  0  0  0
  -16.2714  -41.9216  -25.4666 C   0  0  0  0  0  0  0  0  0  0  0  0
  -17.3800  -42.0722  -26.2767 C   0  0  0  0  0  0  0  0  0  0  0  0
  -17.8133  -41.1339  -27.1501 N   0  0  0  0  0  0  0  0  0  0  0  0
  -17.0957  -39.9873  -27.1777 C   0  0  0  0  0  0  0  0  0  0  0  0
  -15.9910  -39.7336  -26.3816 C   0  0  0  0  0  0  0  0  0  0  0  0
  -15.5438  -40.7329  -25.5248 C   0  0  0  0  0  0  0  0  0  0  0  0
  -14.4184  -40.4970  -24.7352 N   0  0  0  0  0  0  0  0  0  0  0  0
  -14.6100  -39.7670  -23.4948 C   0  0  0  0  0  0  0  0  0  0  0  0
  -14.4143  -40.6604  -22.3347 C   0  0  0  0  0  0  0  0  0  0  0  0
  -13.3842  -40.8185  -21.4379 C   0  0  0  0  0  0  0  0  0  0  0  0
  -13.7329  -41.9690  -20.7089 C   0  0  0  0  0  0  0  0  0  0  0  0
  -14.9236  -42.4607  -21.0579 N   0  0  0  0  0  0  0  0  0  0  0  0
  -15.3090  -41.6578  -22.0564 N   0  0  0  0  0  0  0  0  0  0  0  0
  1  2  1  0
  2  3  2  0
  3  4  1  0
  4  5  2  0
  5  6  1  0
  6  7  2  0
  7  8  1  0
  8  9  1  0
  9 10  1  0
 10 11  2  0
 11 12  1  0
 12 13  2  0
 13 14  1  0
  7  2  1  0
 14 10  1  0
M  END
>  <fragmenstein_runtime>  (191) 
1.929091

>  <original ID>  (191) 
FMJBOIXFOZOLDO-UHFFFAOYSA-N

>  <fragmenstein_error>  (191) 
None

>  <ref_pdb>  (191) 
d0160a

>  <Multi-SuCOS>  (191) 
0.491651

>  <SLURM_JOB_NAME>  (191) 
BulkDock.place:Flavi_NS5_RdRp:green_site_rna_tunnel_fstein_bulkdock_input_split1000_batch000

>  <HIPPO Compound ID>  (191) 
18302

>  <original SMILES>  (191) 
Fc1cnccc1NCc1ccn[nH]1

>  <name>  (191) 
FMJBOIXFOZOLDO-UHFFFAOYSA-N

>  <HIPPO Pose ID>  (191) 
67018

>  <ref_mols>  (191) 
d0160a,d0191a

>  <exports>  (191) 
['/opt/xchem-fragalysis-2/maxwin/BulkDock/OUTPUTS/RdRp_knitwork_primer_grip_n_pocket_pure_fragalysis.sdf', '/opt/xchem-fragalysis-2/maxwin/RdRp_FFF/syndirella/Retro_OK_batch1.sdf']

>  <alias>  (191) 
None

>  <inchikey>  (191) 
FMJBOIXFOZOLDO-UHFFFAOYSA-N

>  <energy_score>  (191) 
-21.232766

>  <distance_score>  (191) 
1.608002

>  <fragmenstein_outcome>  (191) 
acceptable

>  <merge_set>  (191) 
RdRp_knitwork_primer_grip_n_pocket_pure_fragalysis.sdf

>  <scratch_subdir>  (191) 
/opt/xchem-fragalysis-2/maxwin/BulkDock/SCRATCH/217965/C67018-P129

>  <SLURM_JOB_ID>  (191) 
217965

>  <tags>  (191) 
['Fragmenstein placed', 'RdRp_knitwork_primer_grip_n_pocket_pure_fragalysis.sdf Pose OK']

>  <fragmenstein_mode>  (191) 
expansion

>  <csv_name>  (191) 
green_site_rna_tunnel_fstein_bulkdock_input_split1000_batch000.csv

$$$$
GEAOQYLHMSKZNR-ZDUSSCGKSA-N
     RDKit          3D

 22 24  0  0  0  0  0  0  0  0999 V2000
  -19.6208  -34.8527  -19.5885 C   0  0  0  0  0  0  0  0  0  0  0  0
  -19.0940  -34.4724  -20.7600 C   0  0  0  0  0  0  0  0  0  0  0  0
  -19.8538  -34.3799  -22.0409 C   0  0  0  0  0  0  0  0  0  0  0  0
  -19.4276  -35.4394  -22.9012 N   0  0  0  0  0  0  0  0  0  0  0  0
  -19.7731  -35.7335  -24.3695 C   0  0  0  0  0  0  0  0  0  0  0  0
  -20.5195  -35.2042  -25.0902 O   0  0  0  0  0  0  0  0  0  0  0  0
  -18.9902  -36.8838  -24.8918 C   0  0  0  0  0  0  0  0  0  0  0  0
  -17.6510  -37.0795  -24.6054 C   0  0  0  0  0  0  0  0  0  0  0  0
  -16.9685  -38.1467  -25.1937 C   0  0  0  0  0  0  0  0  0  0  0  0
  -17.6298  -39.0454  -26.0275 C   0  0  0  0  0  0  0  0  0  0  0  0
  -17.0448  -40.1920  -26.5608 N   0  0  0  0  0  0  0  0  0  0  0  0
  -17.7074  -41.4186  -26.1037 C   0  0  0  0  0  0  0  0  0  0  0  0
  -16.9049  -41.8315  -24.8733 C   0  0  0  0  0  0  0  0  0  0  0  0
  -15.4670  -41.3657  -25.1617 C   0  0  2  0  0  0  0  0  0  0  0  0
  -14.8134  -40.7766  -23.9428 C   0  0  0  0  0  0  0  0  0  0  0  0
  -14.7519  -41.2177  -22.6351 C   0  0  0  0  0  0  0  0  0  0  0  0
  -13.9522  -40.2745  -21.9639 C   0  0  0  0  0  0  0  0  0  0  0  0
  -13.5376  -39.2973  -22.7728 N   0  0  0  0  0  0  0  0  0  0  0  0
  -14.0220  -39.6600  -23.9717 N   0  0  0  0  0  0  0  0  0  0  0  0
  -15.6057  -40.4310  -26.3897 C   0  0  0  0  0  0  0  0  0  0  0  0
  -18.9285  -38.8245  -26.3430 N   0  0  0  0  0  0  0  0  0  0  0  0
  -19.5759  -37.7717  -25.7715 C   0  0  0  0  0  0  0  0  0  0  0  0
  1  2  2  0
  2  3  1  0
  3  4  1  0
  4  5  1  0
  5  6  2  0
  5  7  1  0
  7  8  2  0
  8  9  1  0
  9 10  2  0
 10 11  1  0
 11 12  1  0
 12 13  1  0
 13 14  1  0
 14 15  1  1
 15 16  2  0
 16 17  1  0
 17 18  2  0
 18 19  1  0
 14 20  1  0
 10 21  1  0
 21 22  2  0
 22  7  1  0
 20 11  1  0
 19 15  1  0
M  END
>  <fragmenstein_runtime>  (192) 
3.233842

>  <original ID>  (192) 
GEAOQYLHMSKZNR-ZDUSSCGKSA-N

>  <fragmenstein_error>  (192) 
None

>  <ref_pdb>  (192) 
d0160a

>  <Multi-SuCOS>  (192) 
0.534029

>  <SLURM_JOB_NAME>  (192) 
BulkDock.place:Flavi_NS5_RdRp:green_site_rna_tunnel_fstein_bulkdock_input_split1000_batch000

>  <HIPPO Compound ID>  (192) 
18620

>  <original SMILES>  (192) 
C=CCNC(=O)c1ccc(N2CC[C@H](c3ccn[nH]3)C2)nc1

>  <name>  (192) 
GEAOQYLHMSKZNR-ZDUSSCGKSA-N

>  <HIPPO Pose ID>  (192) 
67085

>  <ref_mols>  (192) 
d0160a,d0191a

>  <exports>  (192) 
['/opt/xchem-fragalysis-2/maxwin/BulkDock/OUTPUTS/RdRp_knitwork_primer_grip_n_pocket_pure_fragalysis.sdf', '/opt/xchem-fragalysis-2/maxwin/RdRp_FFF/syndirella/Retro_OK_batch1.sdf']

>  <alias>  (192) 
None

>  <inchikey>  (192) 
GEAOQYLHMSKZNR-ZDUSSCGKSA-N

>  <energy_score>  (192) 
-53.57873

>  <distance_score>  (192) 
0.91179

>  <fragmenstein_outcome>  (192) 
acceptable

>  <merge_set>  (192) 
RdRp_knitwork_primer_grip_n_pocket_pure_fragalysis.sdf

>  <scratch_subdir>  (192) 
/opt/xchem-fragalysis-2/maxwin/BulkDock/SCRATCH/217965/C67085-P113

>  <SLURM_JOB_ID>  (192) 
217965

>  <tags>  (192) 
['Fragmenstein placed', 'RdRp_knitwork_primer_grip_n_pocket_pure_fragalysis.sdf Pose OK']

>  <fragmenstein_mode>  (192) 
expansion

>  <csv_name>  (192) 
green_site_rna_tunnel_fstein_bulkdock_input_split1000_batch000.csv

$$$$
FHKULKBQABHKGZ-VIFPVBQESA-N
     RDKit          3D

 17 19  0  0  0  0  0  0  0  0999 V2000
  -19.9854  -35.6740  -24.3050 Cl  0  0  0  0  0  0  0  0  0  0  0  0
  -19.0583  -36.9674  -24.9403 C   0  0  0  0  0  0  0  0  0  0  0  0
  -17.7197  -37.1010  -24.6435 C   0  0  0  0  0  0  0  0  0  0  0  0
  -16.9941  -38.1501  -25.2144 C   0  0  0  0  0  0  0  0  0  0  0  0
  -17.6211  -39.0836  -26.0401 C   0  0  0  0  0  0  0  0  0  0  0  0
  -16.9987  -40.2123  -26.5657 N   0  0  0  0  0  0  0  0  0  0  0  0
  -17.6372  -41.4590  -26.1258 C   0  0  0  0  0  0  0  0  0  0  0  0
  -16.8495  -41.8513  -24.8798 C   0  0  0  0  0  0  0  0  0  0  0  0
  -15.4182  -41.3561  -25.1477 C   0  0  2  0  0  0  0  0  0  0  0  0
  -14.7883  -40.7613  -23.9207 C   0  0  0  0  0  0  0  0  0  0  0  0
  -14.7323  -41.2031  -22.6134 C   0  0  0  0  0  0  0  0  0  0  0  0
  -13.9420  -40.2552  -21.9370 C   0  0  0  0  0  0  0  0  0  0  0  0
  -13.5272  -39.2755  -22.7433 N   0  0  0  0  0  0  0  0  0  0  0  0
  -14.0127  -39.6342  -23.9420 N   0  0  0  0  0  0  0  0  0  0  0  0
  -15.5585  -40.4160  -26.3715 C   0  0  0  0  0  0  0  0  0  0  0  0
  -18.9283  -38.9216  -26.3557 N   0  0  0  0  0  0  0  0  0  0  0  0
  -19.6169  -37.9002  -25.7859 C   0  0  0  0  0  0  0  0  0  0  0  0
  1  2  1  0
  2  3  2  0
  3  4  1  0
  4  5  2  0
  5  6  1  0
  6  7  1  0
  7  8  1  0
  8  9  1  0
  9 10  1  1
 10 11  2  0
 11 12  1  0
 12 13  2  0
 13 14  1  0
  9 15  1  0
  5 16  1  0
 16 17  2  0
 17  2  1  0
 15  6  1  0
 14 10  1  0
M  END
>  <fragmenstein_runtime>  (193) 
1.990679

>  <original ID>  (193) 
FHKULKBQABHKGZ-VIFPVBQESA-N

>  <fragmenstein_error>  (193) 
None

>  <ref_pdb>  (193) 
d0160a

>  <Multi-SuCOS>  (193) 
0.702297

>  <SLURM_JOB_NAME>  (193) 
BulkDock.place:Flavi_NS5_RdRp:RdRp_knitwork_primer_grip_n_pocket_pure_split1800_batch008

>  <HIPPO Compound ID>  (193) 
18764

>  <original SMILES>  (193) 
Clc1ccc(N2CC[C@H](c3ccn[nH]3)C2)nc1

>  <name>  (193) 
FHKULKBQABHKGZ-VIFPVBQESA-N

>  <HIPPO Pose ID>  (193) 
67118

>  <ref_mols>  (193) 
d0160a,d0191a

>  <exports>  (193) 
['/opt/xchem-fragalysis-2/maxwin/BulkDock/OUTPUTS/RdRp_knitwork_primer_grip_n_pocket_pure_split1800_batch008_217042.sdf', '/opt/xchem-fragalysis-2/maxwin/BulkDock/OUTPUTS/RdRp_knitwork_primer_grip_n_pocket_pure_fragalysis.sdf', '/opt/xchem-fragalysis-2/maxwin/RdRp_FFF/syndirella/Retro_OK_batch1.sdf']

>  <alias>  (193) 
None

>  <inchikey>  (193) 
FHKULKBQABHKGZ-VIFPVBQESA-N

>  <energy_score>  (193) 
-11.152099

>  <distance_score>  (193) 
0.907587

>  <fragmenstein_outcome>  (193) 
acceptable

>  <merge_set>  (193) 
RdRp_knitwork_primer_grip_n_pocket_pure_fragalysis.sdf

>  <scratch_subdir>  (193) 
/opt/xchem-fragalysis-2/maxwin/BulkDock/SCRATCH/217042/C18764-P12

>  <SLURM_JOB_ID>  (193) 
217042

>  <tags>  (193) 
['Fragmenstein placed', 'RdRp_knitwork_primer_grip_n_pocket_pure_fragalysis.sdf Pose OK']

>  <fragmenstein_mode>  (193) 
expansion

>  <csv_name>  (193) 
RdRp_knitwork_primer_grip_n_pocket_pure_split1800_batch008.csv

$$$$
FURJNGPDIFHZDK-JTQLQIEISA-N
     RDKit          3D

 21 23  0  0  0  0  0  0  0  0999 V2000
  -21.0292  -37.1344  -22.0493 C   0  0  0  0  0  0  0  0  0  0  0  0
  -21.2531  -36.5579  -23.3718 N   0  0  0  0  0  0  0  0  0  0  0  0
  -19.9971  -35.6924  -24.0773 S   0  0  0  0  0  0  0  0  0  0  0  0
  -20.5843  -34.9344  -25.1604 O   0  0  0  0  0  0  0  0  0  0  0  0
  -19.2499  -35.0593  -23.0159 O   0  0  0  0  0  0  0  0  0  0  0  0
  -19.0182  -36.9502  -24.8089 C   0  0  0  0  0  0  0  0  0  0  0  0
  -17.6852  -37.1155  -24.4944 C   0  0  0  0  0  0  0  0  0  0  0  0
  -16.9713  -38.1393  -25.1196 C   0  0  0  0  0  0  0  0  0  0  0  0
  -17.6021  -39.0123  -26.0082 C   0  0  0  0  0  0  0  0  0  0  0  0
  -16.9968  -40.1388  -26.5628 N   0  0  0  0  0  0  0  0  0  0  0  0
  -17.6543  -41.3830  -26.1449 C   0  0  0  0  0  0  0  0  0  0  0  0
  -16.8741  -41.8116  -24.9060 C   0  0  0  0  0  0  0  0  0  0  0  0
  -15.4347  -41.3346  -25.1635 C   0  0  2  0  0  0  0  0  0  0  0  0
  -14.7962  -40.7760  -23.9236 C   0  0  0  0  0  0  0  0  0  0  0  0
  -14.7528  -41.2417  -22.6241 C   0  0  0  0  0  0  0  0  0  0  0  0
  -13.9502  -40.3190  -21.9276 C   0  0  0  0  0  0  0  0  0  0  0  0
  -13.5161  -39.3325  -22.7147 N   0  0  0  0  0  0  0  0  0  0  0  0
  -13.9990  -39.6635  -23.9222 N   0  0  0  0  0  0  0  0  0  0  0  0
  -15.5592  -40.3672  -26.3684 C   0  0  0  0  0  0  0  0  0  0  0  0
  -18.8978  -38.7995  -26.3478 N   0  0  0  0  0  0  0  0  0  0  0  0
  -19.5792  -37.7959  -25.7368 C   0  0  0  0  0  0  0  0  0  0  0  0
  1  2  1  0
  2  3  1  0
  3  4  2  0
  3  5  2  0
  3  6  1  0
  6  7  2  0
  7  8  1  0
  8  9  2  0
  9 10  1  0
 10 11  1  0
 11 12  1  0
 12 13  1  0
 13 14  1  1
 14 15  2  0
 15 16  1  0
 16 17  2  0
 17 18  1  0
 13 19  1  0
  9 20  1  0
 20 21  2  0
 21  6  1  0
 19 10  1  0
 18 14  1  0
M  END
>  <fragmenstein_runtime>  (194) 
2.698165

>  <original ID>  (194) 
FURJNGPDIFHZDK-JTQLQIEISA-N

>  <fragmenstein_error>  (194) 
None

>  <ref_pdb>  (194) 
d0160a

>  <Multi-SuCOS>  (194) 
0.554934

>  <SLURM_JOB_NAME>  (194) 
BulkDock.place:Flavi_NS5_RdRp:RdRp_knitwork_primer_grip_n_pocket_pure_split1800_batch008

>  <HIPPO Compound ID>  (194) 
18861

>  <original SMILES>  (194) 
CNS(=O)(=O)c1ccc(N2CC[C@H](c3ccn[nH]3)C2)nc1

>  <name>  (194) 
FURJNGPDIFHZDK-JTQLQIEISA-N

>  <HIPPO Pose ID>  (194) 
67138

>  <ref_mols>  (194) 
d0160a,d0191a

>  <exports>  (194) 
['/opt/xchem-fragalysis-2/maxwin/BulkDock/OUTPUTS/RdRp_knitwork_primer_grip_n_pocket_pure_split1800_batch008_217042.sdf', '/opt/xchem-fragalysis-2/maxwin/BulkDock/OUTPUTS/RdRp_knitwork_primer_grip_n_pocket_pure_fragalysis.sdf', '/opt/xchem-fragalysis-2/maxwin/RdRp_FFF/syndirella/Retro_OK_batch1.sdf']

>  <alias>  (194) 
None

>  <inchikey>  (194) 
FURJNGPDIFHZDK-JTQLQIEISA-N

>  <energy_score>  (194) 
-19.109484

>  <distance_score>  (194) 
0.904184

>  <fragmenstein_outcome>  (194) 
acceptable

>  <merge_set>  (194) 
RdRp_knitwork_primer_grip_n_pocket_pure_fragalysis.sdf

>  <scratch_subdir>  (194) 
/opt/xchem-fragalysis-2/maxwin/BulkDock/SCRATCH/217042/C18861-P12

>  <SLURM_JOB_ID>  (194) 
217042

>  <tags>  (194) 
['Fragmenstein placed', 'RdRp_knitwork_primer_grip_n_pocket_pure_fragalysis.sdf Pose OK']

>  <fragmenstein_mode>  (194) 
expansion

>  <csv_name>  (194) 
RdRp_knitwork_primer_grip_n_pocket_pure_split1800_batch008.csv

$$$$
HGFITXIOQBKAJS-WVDJIFEKSA-N
     RDKit          3D

 21 23  0  0  0  0  0  0  0  0999 V2000
  -19.3118  -35.0121  -22.8888 C   0  0  0  0  0  0  0  0  0  0  0  0
  -20.2544  -35.9636  -24.0489 S   0  0  1  0  0  0  0  0  0  0  0  0
  -21.2122  -36.8303  -23.2102 N   0  0  0  0  0  0  0  0  0  0  0  0
  -20.6799  -35.0546  -25.0961 O   0  0  0  0  0  0  0  0  0  0  0  0
  -19.1366  -37.0882  -24.8212 C   0  0  0  0  0  0  0  0  0  0  0  0
  -17.7875  -37.1650  -24.5374 C   0  0  0  0  0  0  0  0  0  0  0  0
  -17.0212  -38.1448  -25.1781 C   0  0  0  0  0  0  0  0  0  0  0  0
  -17.6121  -39.0563  -26.0547 C   0  0  0  0  0  0  0  0  0  0  0  0
  -16.9624  -40.1597  -26.6013 N   0  0  0  0  0  0  0  0  0  0  0  0
  -17.5888  -41.4269  -26.2015 C   0  0  0  0  0  0  0  0  0  0  0  0
  -16.8241  -41.8301  -24.9446 C   0  0  0  0  0  0  0  0  0  0  0  0
  -15.3944  -41.3146  -25.1775 C   0  0  2  0  0  0  0  0  0  0  0  0
  -14.7884  -40.7399  -23.9298 C   0  0  0  0  0  0  0  0  0  0  0  0
  -14.7556  -41.1984  -22.6278 C   0  0  0  0  0  0  0  0  0  0  0  0
  -13.9747  -40.2606  -21.9268 C   0  0  0  0  0  0  0  0  0  0  0  0
  -13.5472  -39.2700  -22.7129 N   0  0  0  0  0  0  0  0  0  0  0  0
  -14.0075  -39.6166  -23.9250 N   0  0  0  0  0  0  0  0  0  0  0  0
  -15.5238  -40.3478  -26.3828 C   0  0  0  0  0  0  0  0  0  0  0  0
  -18.9159  -38.9088  -26.3869 N   0  0  0  0  0  0  0  0  0  0  0  0
  -19.6488  -37.9572  -25.7591 C   0  0  0  0  0  0  0  0  0  0  0  0
  -21.8790  -37.3399  -23.7927 H   0  0  0  0  0  0  0  0  0  0  0  0
  2  1  1  1
  2  3  2  0
  2  4  2  0
  2  5  1  0
  5  6  2  0
  6  7  1  0
  7  8  2  0
  8  9  1  0
  9 10  1  0
 10 11  1  0
 11 12  1  0
 12 13  1  1
 13 14  2  0
 14 15  1  0
 15 16  2  0
 16 17  1  0
 12 18  1  0
  8 19  1  0
 19 20  2  0
 20  5  1  0
 18  9  1  0
 17 13  1  0
  3 21  1  0
M  END
>  <fragmenstein_runtime>  (195) 
2.539211

>  <original ID>  (195) 
HGFITXIOQBKAJS-WVDJIFEKSA-N

>  <fragmenstein_error>  (195) 
None

>  <ref_pdb>  (195) 
d0160a

>  <Multi-SuCOS>  (195) 
0.578878

>  <SLURM_JOB_NAME>  (195) 
BulkDock.place:Flavi_NS5_RdRp:RdRp_knitwork_primer_grip_n_pocket_pure_split1800_batch008

>  <HIPPO Compound ID>  (195) 
18883

>  <original SMILES>  (195) 
[H]N=[S@](C)(=O)c1ccc(N2CC[C@H](c3ccn[nH]3)C2)nc1

>  <name>  (195) 
HGFITXIOQBKAJS-WVDJIFEKSA-N

>  <HIPPO Pose ID>  (195) 
67148

>  <ref_mols>  (195) 
d0160a,d0191a

>  <exports>  (195) 
['/opt/xchem-fragalysis-2/maxwin/BulkDock/OUTPUTS/RdRp_knitwork_primer_grip_n_pocket_pure_split1800_batch008_217042.sdf', '/opt/xchem-fragalysis-2/maxwin/BulkDock/OUTPUTS/RdRp_knitwork_primer_grip_n_pocket_pure_fragalysis.sdf', '/opt/xchem-fragalysis-2/maxwin/RdRp_FFF/syndirella/Retro_OK_batch1.sdf']

>  <alias>  (195) 
None

>  <inchikey>  (195) 
HGFITXIOQBKAJS-WVDJIFEKSA-N

>  <energy_score>  (195) 
-12.728477

>  <distance_score>  (195) 
0.965491

>  <fragmenstein_outcome>  (195) 
acceptable

>  <merge_set>  (195) 
RdRp_knitwork_primer_grip_n_pocket_pure_fragalysis.sdf

>  <scratch_subdir>  (195) 
/opt/xchem-fragalysis-2/maxwin/BulkDock/SCRATCH/217042/C18883-P12

>  <SLURM_JOB_ID>  (195) 
217042

>  <tags>  (195) 
['Fragmenstein placed', 'RdRp_knitwork_primer_grip_n_pocket_pure_fragalysis.sdf Pose OK']

>  <fragmenstein_mode>  (195) 
expansion

>  <csv_name>  (195) 
RdRp_knitwork_primer_grip_n_pocket_pure_split1800_batch008.csv

$$$$
TYJCAHRAGOYIEV-NSHDSACASA-N
     RDKit          3D

 18 20  0  0  0  0  0  0  0  0999 V2000
  -16.1592  -37.0781  -22.5415 O   0  0  0  0  0  0  0  0  0  0  0  0
  -17.4845  -36.7086  -22.8878 C   0  0  0  0  0  0  0  0  0  0  0  0
  -17.9181  -37.3442  -24.1809 C   0  0  0  0  0  0  0  0  0  0  0  0
  -19.1522  -37.0235  -24.7252 C   0  0  0  0  0  0  0  0  0  0  0  0
  -19.5647  -37.7126  -25.8456 C   0  0  0  0  0  0  0  0  0  0  0  0
  -18.8387  -38.6673  -26.4734 N   0  0  0  0  0  0  0  0  0  0  0  0
  -17.6383  -39.0050  -25.9468 C   0  0  0  0  0  0  0  0  0  0  0  0
  -16.9869  -40.1015  -26.5259 N   0  0  0  0  0  0  0  0  0  0  0  0
  -17.6190  -41.3651  -26.1313 C   0  0  0  0  0  0  0  0  0  0  0  0
  -16.8531  -41.7975  -24.8870 C   0  0  0  0  0  0  0  0  0  0  0  0
  -15.4160  -41.3148  -25.1324 C   0  0  2  0  0  0  0  0  0  0  0  0
  -14.7493  -40.8677  -23.8612 C   0  0  0  0  0  0  0  0  0  0  0  0
  -14.6440  -41.4776  -22.6263 C   0  0  0  0  0  0  0  0  0  0  0  0
  -13.8372  -40.6193  -21.8566 C   0  0  0  0  0  0  0  0  0  0  0  0
  -13.4548  -39.5382  -22.5380 N   0  0  0  0  0  0  0  0  0  0  0  0
  -14.0148  -39.7163  -23.7462 N   0  0  0  0  0  0  0  0  0  0  0  0
  -15.5455  -40.2657  -26.2678 C   0  0  0  0  0  0  0  0  0  0  0  0
  -17.1592  -38.3301  -24.8222 C   0  0  0  0  0  0  0  0  0  0  0  0
  1  2  1  0
  2  3  1  0
  3  4  2  0
  4  5  1  0
  5  6  2  0
  6  7  1  0
  7  8  1  0
  8  9  1  0
  9 10  1  0
 10 11  1  0
 11 12  1  1
 12 13  2  0
 13 14  1  0
 14 15  2  0
 15 16  1  0
 11 17  1  0
  7 18  2  0
 18  3  1  0
 17  8  1  0
 16 12  1  0
M  END
>  <fragmenstein_runtime>  (196) 
2.459838

>  <original ID>  (196) 
TYJCAHRAGOYIEV-NSHDSACASA-N

>  <fragmenstein_error>  (196) 
None

>  <ref_pdb>  (196) 
d0160a

>  <Multi-SuCOS>  (196) 
0.65012

>  <SLURM_JOB_NAME>  (196) 
BulkDock.place:Flavi_NS5_RdRp:RdRp_knitwork_primer_grip_n_pocket_pure_split1800_batch008

>  <HIPPO Compound ID>  (196) 
18884

>  <original SMILES>  (196) 
OCc1ccnc(N2CC[C@H](c3ccn[nH]3)C2)c1

>  <name>  (196) 
TYJCAHRAGOYIEV-NSHDSACASA-N

>  <HIPPO Pose ID>  (196) 
67152

>  <ref_mols>  (196) 
d0160a,d0191a

>  <exports>  (196) 
['/opt/xchem-fragalysis-2/maxwin/BulkDock/OUTPUTS/RdRp_knitwork_primer_grip_n_pocket_pure_split1800_batch008_217042.sdf', '/opt/xchem-fragalysis-2/maxwin/BulkDock/OUTPUTS/RdRp_knitwork_primer_grip_n_pocket_pure_fragalysis.sdf', '/opt/xchem-fragalysis-2/maxwin/RdRp_FFF/syndirella/Retro_OK_batch1.sdf']

>  <alias>  (196) 
None

>  <inchikey>  (196) 
TYJCAHRAGOYIEV-NSHDSACASA-N

>  <energy_score>  (196) 
-16.636826

>  <distance_score>  (196) 
0.887864

>  <fragmenstein_outcome>  (196) 
acceptable

>  <merge_set>  (196) 
RdRp_knitwork_primer_grip_n_pocket_pure_fragalysis.sdf

>  <scratch_subdir>  (196) 
/opt/xchem-fragalysis-2/maxwin/BulkDock/SCRATCH/217042/C18884-P12

>  <SLURM_JOB_ID>  (196) 
217042

>  <tags>  (196) 
['Fragmenstein placed', 'RdRp_knitwork_primer_grip_n_pocket_pure_fragalysis.sdf Pose OK']

>  <fragmenstein_mode>  (196) 
expansion

>  <csv_name>  (196) 
RdRp_knitwork_primer_grip_n_pocket_pure_split1800_batch008.csv

$$$$
OMJITSFZDIWXMI-JTQLQIEISA-N
     RDKit          3D

 20 22  0  0  0  0  0  0  0  0999 V2000
  -21.2023  -36.6226  -23.0718 C   0  0  0  0  0  0  0  0  0  0  0  0
  -20.0575  -35.7198  -24.0813 S   0  0  0  0  0  0  0  0  0  0  0  0
  -19.2205  -34.9373  -23.1948 O   0  0  0  0  0  0  0  0  0  0  0  0
  -20.7933  -35.0880  -25.1606 O   0  0  0  0  0  0  0  0  0  0  0  0
  -19.0567  -36.9658  -24.8164 C   0  0  0  0  0  0  0  0  0  0  0  0
  -17.7196  -37.1103  -24.5076 C   0  0  0  0  0  0  0  0  0  0  0  0
  -16.9943  -38.1298  -25.1283 C   0  0  0  0  0  0  0  0  0  0  0  0
  -17.6172  -39.0152  -26.0097 C   0  0  0  0  0  0  0  0  0  0  0  0
  -17.0031  -40.1372  -26.5614 N   0  0  0  0  0  0  0  0  0  0  0  0
  -17.6505  -41.3879  -26.1476 C   0  0  0  0  0  0  0  0  0  0  0  0
  -16.8672  -41.8127  -24.9095 C   0  0  0  0  0  0  0  0  0  0  0  0
  -15.4316  -41.3246  -25.1668 C   0  0  2  0  0  0  0  0  0  0  0  0
  -14.7963  -40.7640  -23.9267 C   0  0  0  0  0  0  0  0  0  0  0  0
  -14.7490  -41.2310  -22.6278 C   0  0  0  0  0  0  0  0  0  0  0  0
  -13.9492  -40.3056  -21.9317 C   0  0  0  0  0  0  0  0  0  0  0  0
  -13.5208  -39.3164  -22.7184 N   0  0  0  0  0  0  0  0  0  0  0  0
  -14.0044  -39.6478  -23.9253 N   0  0  0  0  0  0  0  0  0  0  0  0
  -15.5636  -40.3549  -26.3690 C   0  0  0  0  0  0  0  0  0  0  0  0
  -18.9154  -38.8161  -26.3489 N   0  0  0  0  0  0  0  0  0  0  0  0
  -19.6059  -37.8147  -25.7490 C   0  0  0  0  0  0  0  0  0  0  0  0
  1  2  1  0
  2  3  2  0
  2  4  2  0
  2  5  1  0
  5  6  2  0
  6  7  1  0
  7  8  2  0
  8  9  1  0
  9 10  1  0
 10 11  1  0
 11 12  1  0
 12 13  1  1
 13 14  2  0
 14 15  1  0
 15 16  2  0
 16 17  1  0
 12 18  1  0
  8 19  1  0
 19 20  2  0
 20  5  1  0
 18  9  1  0
 17 13  1  0
M  END
>  <fragmenstein_runtime>  (197) 
2.489466

>  <original ID>  (197) 
OMJITSFZDIWXMI-JTQLQIEISA-N

>  <fragmenstein_error>  (197) 
None

>  <ref_pdb>  (197) 
d0160a

>  <Multi-SuCOS>  (197) 
0.58972

>  <SLURM_JOB_NAME>  (197) 
BulkDock.place:Flavi_NS5_RdRp:RdRp_knitwork_primer_grip_n_pocket_pure_split1800_batch008

>  <HIPPO Compound ID>  (197) 
18885

>  <original SMILES>  (197) 
CS(=O)(=O)c1ccc(N2CC[C@H](c3ccn[nH]3)C2)nc1

>  <name>  (197) 
OMJITSFZDIWXMI-JTQLQIEISA-N

>  <HIPPO Pose ID>  (197) 
67155

>  <ref_mols>  (197) 
d0160a,d0191a

>  <exports>  (197) 
['/opt/xchem-fragalysis-2/maxwin/BulkDock/OUTPUTS/RdRp_knitwork_primer_grip_n_pocket_pure_split1800_batch008_217042.sdf', '/opt/xchem-fragalysis-2/maxwin/BulkDock/OUTPUTS/RdRp_knitwork_primer_grip_n_pocket_pure_fragalysis.sdf', '/opt/xchem-fragalysis-2/maxwin/RdRp_FFF/syndirella/Retro_OK_batch1.sdf']

>  <alias>  (197) 
None

>  <inchikey>  (197) 
OMJITSFZDIWXMI-JTQLQIEISA-N

>  <energy_score>  (197) 
-36.250209

>  <distance_score>  (197) 
0.90966

>  <fragmenstein_outcome>  (197) 
acceptable

>  <merge_set>  (197) 
RdRp_knitwork_primer_grip_n_pocket_pure_fragalysis.sdf

>  <scratch_subdir>  (197) 
/opt/xchem-fragalysis-2/maxwin/BulkDock/SCRATCH/217042/C18885-P12

>  <SLURM_JOB_ID>  (197) 
217042

>  <tags>  (197) 
['Fragmenstein placed', 'RdRp_knitwork_primer_grip_n_pocket_pure_fragalysis.sdf Pose OK']

>  <fragmenstein_mode>  (197) 
expansion

>  <csv_name>  (197) 
RdRp_knitwork_primer_grip_n_pocket_pure_split1800_batch008.csv

$$$$
QEHJTFFBFMMWOU-ZDUSSCGKSA-N
     RDKit          3D

 19 22  0  0  0  0  0  0  0  0999 V2000
  -14.2622  -40.2465  -21.9094 C   0  0  0  0  0  0  0  0  0  0  0  0
  -15.0018  -41.1871  -22.6530 C   0  0  0  0  0  0  0  0  0  0  0  0
  -14.8614  -40.7955  -23.9677 C   0  0  0  0  0  0  0  0  0  0  0  0
  -15.2591  -41.4129  -25.2763 C   0  0  1  0  0  0  0  0  0  0  0  0
  -16.4948  -42.3038  -25.2397 C   0  0  0  0  0  0  0  0  0  0  0  0
  -17.6535  -41.3496  -25.5093 C   0  0  0  0  0  0  0  0  0  0  0  0
  -17.0884  -40.2630  -26.3296 N   0  0  0  0  0  0  0  0  0  0  0  0
  -17.6431  -39.0458  -25.9395 C   0  0  0  0  0  0  0  0  0  0  0  0
  -17.0048  -38.1353  -25.1059 C   0  0  0  0  0  0  0  0  0  0  0  0
  -17.7043  -37.0420  -24.5910 C   0  0  0  0  0  0  0  0  0  0  0  0
  -19.0344  -36.8215  -24.9230 C   0  0  0  0  0  0  0  0  0  0  0  0
  -19.8063  -35.6354  -24.4058 C   0  0  0  0  0  0  0  0  0  0  0  0
  -21.1139  -35.8322  -23.6752 C   0  0  0  0  0  0  0  0  0  0  0  0
  -19.9001  -35.3851  -22.9184 C   0  0  0  0  0  0  0  0  0  0  0  0
  -19.5770  -37.7597  -25.7892 C   0  0  0  0  0  0  0  0  0  0  0  0
  -18.9234  -38.8292  -26.3130 N   0  0  0  0  0  0  0  0  0  0  0  0
  -15.6289  -40.4197  -26.3947 C   0  0  0  0  0  0  0  0  0  0  0  0
  -14.0504  -39.6912  -23.9215 N   0  0  0  0  0  0  0  0  0  0  0  0
  -13.7048  -39.3121  -22.6823 N   0  0  0  0  0  0  0  0  0  0  0  0
  1  2  1  0
  2  3  2  0
  4  3  1  1
  4  5  1  0
  5  6  1  0
  6  7  1  0
  7  8  1  0
  8  9  2  0
  9 10  1  0
 10 11  2  0
 11 12  1  0
 12 13  1  0
 13 14  1  0
 11 15  1  0
 15 16  2  0
  7 17  1  0
  3 18  1  0
 18 19  1  0
 19  1  2  0
 17  4  1  0
 16  8  1  0
 14 12  1  0
M  END
>  <fragmenstein_runtime>  (198) 
2.420963

>  <original ID>  (198) 
QEHJTFFBFMMWOU-ZDUSSCGKSA-N

>  <fragmenstein_error>  (198) 
None

>  <ref_pdb>  (198) 
d0160a

>  <Multi-SuCOS>  (198) 
0.577018

>  <SLURM_JOB_NAME>  (198) 
BulkDock.place:Flavi_NS5_RdRp:RdRp_knitwork_primer_grip_n_pocket_pure_split1800_batch008

>  <HIPPO Compound ID>  (198) 
18897

>  <original SMILES>  (198) 
c1cc([C@H]2CCN(c3ccc(C4CC4)cn3)C2)[nH]n1

>  <name>  (198) 
QEHJTFFBFMMWOU-ZDUSSCGKSA-N

>  <HIPPO Pose ID>  (198) 
67185

>  <ref_mols>  (198) 
d0160a,d0191a

>  <exports>  (198) 
['/opt/xchem-fragalysis-2/maxwin/BulkDock/OUTPUTS/RdRp_knitwork_primer_grip_n_pocket_pure_split1800_batch008_217042.sdf', '/opt/xchem-fragalysis-2/maxwin/BulkDock/OUTPUTS/RdRp_knitwork_primer_grip_n_pocket_pure_fragalysis.sdf', '/opt/xchem-fragalysis-2/maxwin/RdRp_FFF/syndirella/Retro_OK_batch1.sdf']

>  <alias>  (198) 
None

>  <inchikey>  (198) 
QEHJTFFBFMMWOU-ZDUSSCGKSA-N

>  <energy_score>  (198) 
-27.77661

>  <distance_score>  (198) 
0.972351

>  <fragmenstein_outcome>  (198) 
acceptable

>  <merge_set>  (198) 
RdRp_knitwork_primer_grip_n_pocket_pure_fragalysis.sdf

>  <scratch_subdir>  (198) 
/opt/xchem-fragalysis-2/maxwin/BulkDock/SCRATCH/217042/C18897-P12

>  <SLURM_JOB_ID>  (198) 
217042

>  <tags>  (198) 
['Fragmenstein placed', 'RdRp_knitwork_primer_grip_n_pocket_pure_fragalysis.sdf Pose OK']

>  <fragmenstein_mode>  (198) 
expansion

>  <csv_name>  (198) 
RdRp_knitwork_primer_grip_n_pocket_pure_split1800_batch008.csv

$$$$
HTZVXKPYUGQGKR-UHFFFAOYSA-N
     RDKit          3D

 21 22  0  0  0  0  0  0  0  0999 V2000
  -19.7375  -40.5951  -26.8494 N   0  0  0  0  0  0  0  0  0  0  0  0
  -18.8334  -41.0043  -26.2507 C   0  0  0  0  0  0  0  0  0  0  0  0
  -17.6851  -41.4621  -25.5436 C   0  0  0  0  0  0  0  0  0  0  0  0
  -16.4725  -40.7818  -25.6893 C   0  0  0  0  0  0  0  0  0  0  0  0
  -15.3841  -41.1823  -24.9314 C   0  0  0  0  0  0  0  0  0  0  0  0
  -15.5485  -42.2497  -24.0632 C   0  0  0  0  0  0  0  0  0  0  0  0
  -14.4523  -42.5364  -23.2905 O   0  0  0  0  0  0  0  0  0  0  0  0
  -14.5965  -43.5644  -22.3136 C   0  0  0  0  0  0  0  0  0  0  0  0
  -15.1430  -42.9928  -21.0105 C   0  0  0  0  0  0  0  0  0  0  0  0
  -16.5757  -42.9486  -21.0512 N   0  0  0  0  0  0  0  0  0  0  0  0
  -17.5961  -42.5013  -19.9820 C   0  0  0  0  0  0  0  0  0  0  0  0
  -17.4295  -42.0271  -18.9307 O   0  0  0  0  0  0  0  0  0  0  0  0
  -18.9611  -42.9015  -20.5178 C   0  0  0  0  0  0  0  0  0  0  0  0
  -19.3328  -44.2965  -20.0303 C   0  0  0  0  0  0  0  0  0  0  0  0
  -18.3179  -45.3653  -20.3325 C   0  0  0  0  0  0  0  0  0  0  0  0
  -17.3585  -45.7116  -19.4993 N   0  0  0  0  0  0  0  0  0  0  0  0
  -16.7568  -46.8710  -19.9283 C   0  0  0  0  0  0  0  0  0  0  0  0
  -17.2529  -47.3790  -21.1034 C   0  0  0  0  0  0  0  0  0  0  0  0
  -18.3615  -46.2719  -21.7858 S   0  0  0  0  0  0  0  0  0  0  0  0
  -16.6981  -42.9541  -23.9268 N   0  0  0  0  0  0  0  0  0  0  0  0
  -17.7456  -42.5411  -24.6745 C   0  0  0  0  0  0  0  0  0  0  0  0
  1  2  3  0
  2  3  1  0
  3  4  2  0
  4  5  1  0
  5  6  2  0
  6  7  1  0
  7  8  1  0
  8  9  1  0
  9 10  1  0
 10 11  1  0
 11 12  2  0
 11 13  1  0
 13 14  1  0
 14 15  1  0
 15 16  2  0
 16 17  1  0
 17 18  2  0
 18 19  1  0
  6 20  1  0
 20 21  2  0
 21  3  1  0
 19 15  1  0
M  END
>  <fragmenstein_runtime>  (199) 
4.971905

>  <original ID>  (199) 
HTZVXKPYUGQGKR-UHFFFAOYSA-N

>  <fragmenstein_error>  (199) 
None

>  <ref_pdb>  (199) 
d0472a

>  <Multi-SuCOS>  (199) 
0.286857

>  <SLURM_JOB_NAME>  (199) 
BulkDock.place:Flavi_NS5_RdRp:green_site_rna_tunnel_fstein_bulkdock_input_split1000_batch000

>  <HIPPO Compound ID>  (199) 
12413

>  <original SMILES>  (199) 
N#Cc1ccc(OCCNC(=O)CCc2nccs2)nc1

>  <name>  (199) 
HTZVXKPYUGQGKR-UHFFFAOYSA-N

>  <HIPPO Pose ID>  (199) 
67308

>  <ref_mols>  (199) 
d0472a,d0615b

>  <exports>  (199) 
['/opt/xchem-fragalysis-2/maxwin/BulkDock/OUTPUTS/RdRp_knitwork_primer_grip_n_pocket_pure_fragalysis.sdf', '/opt/xchem-fragalysis-2/maxwin/RdRp_FFF/syndirella/Retro_OK_batch1.sdf']

>  <alias>  (199) 
None

>  <inchikey>  (199) 
HTZVXKPYUGQGKR-UHFFFAOYSA-N

>  <energy_score>  (199) 
-61.850228

>  <distance_score>  (199) 
1.542092

>  <fragmenstein_outcome>  (199) 
acceptable

>  <merge_set>  (199) 
RdRp_knitwork_primer_grip_n_pocket_pure_fragalysis.sdf

>  <scratch_subdir>  (199) 
/opt/xchem-fragalysis-2/maxwin/BulkDock/SCRATCH/217965/C67308-P203

>  <SLURM_JOB_ID>  (199) 
217965

>  <tags>  (199) 
['Fragmenstein placed', 'RdRp_knitwork_primer_grip_n_pocket_pure_fragalysis.sdf Pose OK']

>  <fragmenstein_mode>  (199) 
expansion

>  <csv_name>  (199) 
green_site_rna_tunnel_fstein_bulkdock_input_split1000_batch000.csv

$$$$
PZJPOAHREUQCOG-UHFFFAOYSA-N
     RDKit          3D

 17 18  0  0  0  0  0  0  0  0999 V2000
  -17.1617  -44.5349  -22.3239 C   0  0  0  0  0  0  0  0  0  0  0  0
  -16.5340  -43.3262  -22.7444 O   0  0  0  0  0  0  0  0  0  0  0  0
  -15.4712  -42.9549  -21.9817 C   0  0  0  0  0  0  0  0  0  0  0  0
  -15.0833  -43.5769  -20.9980 O   0  0  0  0  0  0  0  0  0  0  0  0
  -14.9222  -41.6883  -22.4091 C   0  0  0  0  0  0  0  0  0  0  0  0
  -14.0905  -40.9895  -21.5494 N   0  0  0  0  0  0  0  0  0  0  0  0
  -13.8264  -39.7338  -22.0257 C   0  0  0  0  0  0  0  0  0  0  0  0
  -13.1093  -38.7082  -21.1938 C   0  0  0  0  0  0  0  0  0  0  0  0
  -13.9657  -37.4519  -21.0227 C   0  0  0  0  0  0  0  0  0  0  0  0
  -11.7483  -38.3504  -21.7847 C   0  0  0  0  0  0  0  0  0  0  0  0
  -14.3615  -39.6861  -23.2961 C   0  0  0  0  0  0  0  0  0  0  0  0
  -15.0281  -40.9138  -23.5585 C   0  0  0  0  0  0  0  0  0  0  0  0
  -15.6652  -41.1938  -24.8452 C   0  0  0  0  0  0  0  0  0  0  0  0
  -16.0966  -40.2489  -25.8074 C   0  0  0  0  0  0  0  0  0  0  0  0
  -16.6096  -40.8263  -26.9037 N   0  0  0  0  0  0  0  0  0  0  0  0
  -16.4124  -42.1352  -26.6756 N   0  0  0  0  0  0  0  0  0  0  0  0
  -15.9123  -42.4070  -25.4376 C   0  0  0  0  0  0  0  0  0  0  0  0
  1  2  1  0
  2  3  1  0
  3  4  2  0
  3  5  1  0
  5  6  1  0
  6  7  1  0
  7  8  1  0
  8  9  1  0
  8 10  1  0
  7 11  2  0
 11 12  1  0
 12 13  1  0
 13 14  1  0
 14 15  2  0
 15 16  1  0
 16 17  1  0
 12  5  2  0
 17 13  2  0
M  END
>  <fragmenstein_runtime>  (200) 
3.495174

>  <original ID>  (200) 
PZJPOAHREUQCOG-UHFFFAOYSA-N

>  <fragmenstein_error>  (200) 
None

>  <ref_pdb>  (200) 
d0472a

>  <Multi-SuCOS>  (200) 
0.453073

>  <SLURM_JOB_NAME>  (200) 
BulkDock.place:Flavi_NS5_RdRp:primer_grip_n_pocket_fstein_bulkdock_input_split1000_batch000

>  <HIPPO Compound ID>  (200) 
11952

>  <original SMILES>  (200) 
COC(=O)c1[nH]c(C(C)C)cc1-c1cn[nH]c1

>  <name>  (200) 
PZJPOAHREUQCOG-UHFFFAOYSA-N

>  <HIPPO Pose ID>  (200) 
67381

>  <ref_mols>  (200) 
d0160a,d0472a

>  <exports>  (200) 
['/opt/xchem-fragalysis-2/maxwin/BulkDock/OUTPUTS/RdRp_knitwork_primer_grip_n_pocket_pure_fragalysis.sdf', '/opt/xchem-fragalysis-2/maxwin/RdRp_FFF/syndirella/Retro_OK_batch1.sdf']

>  <alias>  (200) 
None

>  <inchikey>  (200) 
PZJPOAHREUQCOG-UHFFFAOYSA-N

>  <energy_score>  (200) 
-49.289279

>  <distance_score>  (200) 
1.91751

>  <fragmenstein_outcome>  (200) 
acceptable

>  <merge_set>  (200) 
RdRp_knitwork_primer_grip_n_pocket_pure_fragalysis.sdf

>  <scratch_subdir>  (200) 
/opt/xchem-fragalysis-2/maxwin/BulkDock/SCRATCH/217912/C67381-P42

>  <SLURM_JOB_ID>  (200) 
217912

>  <tags>  (200) 
['Fragmenstein placed', 'RdRp_knitwork_primer_grip_n_pocket_pure_fragalysis.sdf Pose OK']

>  <fragmenstein_mode>  (200) 
expansion

>  <csv_name>  (200) 
primer_grip_n_pocket_fstein_bulkdock_input_split1000_batch000.csv

$$$$
SFXBVCJTOODOJM-OAHLLOKOSA-N
     RDKit          3D

 21 22  0  0  0  0  0  0  0  0999 V2000
  -18.6394  -44.4269  -23.8330 C   0  0  0  0  0  0  0  0  0  0  0  0
  -17.3572  -44.2714  -23.0861 C   0  0  0  0  0  0  0  0  0  0  0  0
  -16.3055  -43.4683  -23.3424 C   0  0  0  0  0  0  0  0  0  0  0  0
  -16.1494  -42.4730  -24.4000 C   0  0  0  0  0  0  0  0  0  0  0  0
  -16.4144  -42.7443  -25.7337 C   0  0  0  0  0  0  0  0  0  0  0  0
  -16.2063  -41.7442  -26.6777 C   0  0  0  0  0  0  0  0  0  0  0  0
  -15.7272  -40.5091  -26.2656 C   0  0  0  0  0  0  0  0  0  0  0  0
  -15.4594  -40.3326  -24.9206 C   0  0  0  0  0  0  0  0  0  0  0  0
  -15.6466  -41.2864  -23.9819 N   0  0  0  0  0  0  0  0  0  0  0  0
  -17.2807  -45.0999  -21.8389 C   0  0  0  0  0  0  0  0  0  0  0  0
  -17.4901  -46.2319  -21.8038 O   0  0  0  0  0  0  0  0  0  0  0  0
  -16.8949  -44.0428  -20.7186 N   0  0  0  0  0  0  0  0  0  0  0  0
  -16.8831  -44.3399  -19.4328 C   0  0  0  0  0  0  0  0  0  0  0  0
  -16.4214  -44.1184  -18.8178 C   0  0  2  0  0  0  0  0  0  0  0  0
  -17.2595  -44.1374  -17.2604 C   0  0  0  0  0  0  0  0  0  0  0  0
  -18.1866  -43.4154  -16.9373 O   0  0  0  0  0  0  0  0  0  0  0  0
  -16.7822  -45.0964  -16.4403 O   0  0  0  0  0  0  0  0  0  0  0  0
  -15.7280  -42.5358  -18.6865 C   0  0  0  0  0  0  0  0  0  0  0  0
  -14.6038  -42.6731  -17.6932 C   0  0  0  0  0  0  0  0  0  0  0  0
  -14.0348  -43.9726  -17.8045 O   0  0  0  0  0  0  0  0  0  0  0  0
  -14.8551  -44.8273  -18.5950 C   0  0  0  0  0  0  0  0  0  0  0  0
  1  2  1  0
  2  3  2  3
  3  4  1  0
  4  5  2  0
  5  6  1  0
  6  7  2  0
  7  8  1  0
  8  9  2  0
  2 10  1  0
 10 11  2  0
 10 12  1  0
 12 13  1  0
 14 12  1  6
 14 15  1  0
 15 16  2  0
 15 17  1  0
 14 18  1  0
 18 19  1  0
 19 20  1  0
 20 21  1  0
  9  4  1  0
 21 14  1  0
M  END
>  <fragmenstein_runtime>  (201) 
3.580361

>  <original ID>  (201) 
SFXBVCJTOODOJM-OAHLLOKOSA-N

>  <fragmenstein_error>  (201) 
None

>  <ref_pdb>  (201) 
d0254a

>  <Multi-SuCOS>  (201) 
0.301372

>  <SLURM_JOB_NAME>  (201) 
BulkDock.place:Flavi_NS5_RdRp:green_site_rna_tunnel_fstein_bulkdock_input_split1000_batch001

>  <HIPPO Compound ID>  (201) 
24657

>  <original SMILES>  (201) 
CC(=Cc1ccccn1)C(=O)N(C)[C@]1(C(=O)O)CCOC1

>  <name>  (201) 
SFXBVCJTOODOJM-OAHLLOKOSA-N

>  <HIPPO Pose ID>  (201) 
67908

>  <ref_mols>  (201) 
d0254a,d0472a

>  <exports>  (201) 
['/opt/xchem-fragalysis-2/maxwin/BulkDock/OUTPUTS/RdRp_knitwork_primer_grip_n_pocket_pure_split1800_batch010_217044.sdf', '/opt/xchem-fragalysis-2/maxwin/BulkDock/OUTPUTS/RdRp_knitwork_primer_grip_n_pocket_pure_fragalysis.sdf', '/opt/xchem-fragalysis-2/maxwin/RdRp_FFF/syndirella/Retro_OK_batch1.sdf']

>  <alias>  (201) 
None

>  <inchikey>  (201) 
SFXBVCJTOODOJM-OAHLLOKOSA-N

>  <energy_score>  (201) 
463.581154

>  <distance_score>  (201) 
1.958785

>  <fragmenstein_outcome>  (201) 
acceptable

>  <merge_set>  (201) 
RdRp_knitwork_primer_grip_n_pocket_pure_fragalysis.sdf

>  <scratch_subdir>  (201) 
/opt/xchem-fragalysis-2/maxwin/BulkDock/SCRATCH/217910/C67908-P151

>  <SLURM_JOB_ID>  (201) 
217910

>  <tags>  (201) 
['Fragmenstein placed', 'RdRp_knitwork_primer_grip_n_pocket_pure_fragalysis.sdf Pose OK']

>  <fragmenstein_mode>  (201) 
expansion

>  <csv_name>  (201) 
green_site_rna_tunnel_fstein_bulkdock_input_split1000_batch001.csv

$$$$
NPOUPNCGJMKKFK-LURJTMIESA-N
     RDKit          3D

 15 16  0  0  0  0  0  0  0  0999 V2000
  -14.2212  -38.6929  -23.0715 C   0  0  0  0  0  0  0  0  0  0  0  0
  -15.6511  -39.2048  -23.1471 C   0  0  2  0  0  0  0  0  0  0  0  0
  -15.6549  -40.6237  -23.4046 N   0  0  0  0  0  0  0  0  0  0  0  0
  -15.2211  -41.4943  -22.3114 C   0  0  0  0  0  0  0  0  0  0  0  0
  -15.6227  -42.8642  -22.7487 C   0  0  0  0  0  0  0  0  0  0  0  0
  -15.3116  -43.3028  -23.9474 N   0  0  0  0  0  0  0  0  0  0  0  0
  -16.5263  -43.3178  -24.5292 C   0  0  0  0  0  0  0  0  0  0  0  0
  -16.6699  -42.6908  -26.2701 Br  0  0  0  0  0  0  0  0  0  0  0  0
  -17.5002  -43.5817  -23.5958 C   0  0  0  0  0  0  0  0  0  0  0  0
  -16.8316  -43.4305  -22.3938 N   0  0  0  0  0  0  0  0  0  0  0  0
  -16.5065  -38.5263  -24.2011 C   0  0  0  0  0  0  0  0  0  0  0  0
  -16.6454  -38.7175  -25.5708 C   0  0  0  0  0  0  0  0  0  0  0  0
  -17.6611  -37.9948  -26.1979 N   0  0  0  0  0  0  0  0  0  0  0  0
  -18.2255  -37.2155  -25.3044 C   0  0  0  0  0  0  0  0  0  0  0  0
  -17.6354  -37.3249  -23.7068 S   0  0  0  0  0  0  0  0  0  0  0  0
  2  1  1  6
  2  3  1  0
  3  4  1  0
  4  5  1  0
  5  6  2  0
  6  7  1  0
  7  8  1  0
  7  9  2  0
  9 10  1  0
  2 11  1  0
 11 12  2  0
 12 13  1  0
 13 14  2  0
 14 15  1  0
 10  5  1  0
 15 11  1  0
M  END
>  <fragmenstein_runtime>  (202) 
1.958677

>  <original ID>  (202) 
NPOUPNCGJMKKFK-LURJTMIESA-N

>  <fragmenstein_error>  (202) 
None

>  <ref_pdb>  (202) 
d0615b

>  <Multi-SuCOS>  (202) 
0.464884

>  <SLURM_JOB_NAME>  (202) 
BulkDock.place:Flavi_NS5_RdRp:green_site_rna_tunnel_fstein_bulkdock_input_split1000_batch001

>  <HIPPO Compound ID>  (202) 
10840

>  <original SMILES>  (202) 
C[C@H](NCc1nc(Br)c[nH]1)c1cncs1

>  <name>  (202) 
NPOUPNCGJMKKFK-LURJTMIESA-N

>  <HIPPO Pose ID>  (202) 
68384

>  <ref_mols>  (202) 
d0615b,z0103a

>  <exports>  (202) 
['/opt/xchem-fragalysis-2/maxwin/BulkDock/OUTPUTS/RdRp_knitwork_primer_grip_n_pocket_pure_fragalysis.sdf', '/opt/xchem-fragalysis-2/maxwin/RdRp_FFF/syndirella/Retro_OK_batch1.sdf']

>  <alias>  (202) 
None

>  <inchikey>  (202) 
NPOUPNCGJMKKFK-LURJTMIESA-N

>  <energy_score>  (202) 
-15.69249

>  <distance_score>  (202) 
1.473784

>  <fragmenstein_outcome>  (202) 
acceptable

>  <merge_set>  (202) 
RdRp_knitwork_primer_grip_n_pocket_pure_fragalysis.sdf

>  <scratch_subdir>  (202) 
/opt/xchem-fragalysis-2/maxwin/BulkDock/SCRATCH/217910/C68384-P206

>  <SLURM_JOB_ID>  (202) 
217910

>  <tags>  (202) 
['Fragmenstein placed', 'RdRp_knitwork_primer_grip_n_pocket_pure_fragalysis.sdf Pose OK']

>  <fragmenstein_mode>  (202) 
expansion

>  <csv_name>  (202) 
green_site_rna_tunnel_fstein_bulkdock_input_split1000_batch001.csv

$$$$
JVFQXDPMNDGBGU-QMMMGPOBSA-N
     RDKit          3D

 15 16  0  0  0  0  0  0  0  0999 V2000
  -19.1233  -44.6380  -24.4248 C   0  0  0  0  0  0  0  0  0  0  0  0
  -17.9994  -43.9449  -23.7699 C   0  0  0  0  0  0  0  0  0  0  0  0
  -17.5912  -43.8880  -22.4568 C   0  0  0  0  0  0  0  0  0  0  0  0
  -16.4456  -43.1499  -22.3298 N   0  0  0  0  0  0  0  0  0  0  0  0
  -16.1257  -42.7944  -23.5573 C   0  0  0  0  0  0  0  0  0  0  0  0
  -14.9198  -42.0664  -24.0225 C   0  0  0  0  0  0  0  0  0  0  0  0
  -15.2692  -40.9107  -24.8560 N   0  0  0  0  0  0  0  0  0  0  0  0
  -15.7466  -39.7902  -24.0252 C   0  0  1  0  0  0  0  0  0  0  0  0
  -14.5600  -39.0836  -23.3494 C   0  0  0  0  0  0  0  0  0  0  0  0
  -16.6296  -38.8685  -24.8361 C   0  0  0  0  0  0  0  0  0  0  0  0
  -16.9442  -38.8231  -26.1859 C   0  0  0  0  0  0  0  0  0  0  0  0
  -17.9564  -37.9386  -26.5552 N   0  0  0  0  0  0  0  0  0  0  0  0
  -18.3261  -37.2627  -25.4898 C   0  0  0  0  0  0  0  0  0  0  0  0
  -17.5682  -37.6757  -24.0190 S   0  0  0  0  0  0  0  0  0  0  0  0
  -17.0839  -43.1924  -24.4513 N   0  0  0  0  0  0  0  0  0  0  0  0
  1  2  1  0
  2  3  2  0
  3  4  1  0
  4  5  2  0
  5  6  1  0
  6  7  1  0
  7  8  1  0
  8  9  1  6
  8 10  1  0
 10 11  2  0
 11 12  1  0
 12 13  2  0
 13 14  1  0
  5 15  1  0
 15  2  1  0
 14 10  1  0
M  END
>  <fragmenstein_runtime>  (203) 
2.995201

>  <original ID>  (203) 
JVFQXDPMNDGBGU-QMMMGPOBSA-N

>  <fragmenstein_error>  (203) 
None

>  <ref_pdb>  (203) 
d0615b

>  <Multi-SuCOS>  (203) 
0.597414

>  <SLURM_JOB_NAME>  (203) 
BulkDock.place:Flavi_NS5_RdRp:RdRp_knitwork_primer_grip_n_pocket_pure_split1800_batch013

>  <HIPPO Compound ID>  (203) 
11581

>  <original SMILES>  (203) 
Cc1cnc(CN[C@@H](C)c2cncs2)[nH]1

>  <name>  (203) 
JVFQXDPMNDGBGU-QMMMGPOBSA-N

>  <HIPPO Pose ID>  (203) 
68411

>  <ref_mols>  (203) 
d0615b,z0103a

>  <exports>  (203) 
['/opt/xchem-fragalysis-2/maxwin/BulkDock/OUTPUTS/RdRp_knitwork_primer_grip_n_pocket_pure_split1800_batch013_217047.sdf', '/opt/xchem-fragalysis-2/maxwin/BulkDock/OUTPUTS/RdRp_knitwork_primer_grip_n_pocket_pure_fragalysis.sdf', '/opt/xchem-fragalysis-2/maxwin/RdRp_FFF/syndirella/Retro_OK_batch1.sdf']

>  <alias>  (203) 
None

>  <inchikey>  (203) 
JVFQXDPMNDGBGU-QMMMGPOBSA-N

>  <energy_score>  (203) 
-52.200277

>  <distance_score>  (203) 
0.961717

>  <fragmenstein_outcome>  (203) 
acceptable

>  <merge_set>  (203) 
RdRp_knitwork_primer_grip_n_pocket_pure_fragalysis.sdf

>  <scratch_subdir>  (203) 
/opt/xchem-fragalysis-2/maxwin/BulkDock/SCRATCH/217047/C11581-P51

>  <SLURM_JOB_ID>  (203) 
217047

>  <tags>  (203) 
['Fragmenstein placed', 'RdRp_knitwork_primer_grip_n_pocket_pure_fragalysis.sdf Pose OK']

>  <fragmenstein_mode>  (203) 
expansion

>  <csv_name>  (203) 
RdRp_knitwork_primer_grip_n_pocket_pure_split1800_batch013.csv

$$$$
JPRNUXAPQYFFIN-LBPRGKRZSA-N
     RDKit          3D

 15 16  0  0  0  0  0  0  0  0999 V2000
  -16.9902  -47.7971  -20.8032 C   0  0  0  0  0  0  0  0  0  0  0  0
  -18.0684  -46.8328  -21.2321 C   0  0  0  0  0  0  0  0  0  0  0  0
  -17.6808  -45.3518  -21.0175 C   0  0  1  0  0  0  0  0  0  0  0  0
  -17.2831  -44.7605  -22.3879 C   0  0  0  0  0  0  0  0  0  0  0  0
  -16.8696  -43.3745  -22.2596 N   0  0  0  0  0  0  0  0  0  0  0  0
  -16.4168  -42.7139  -23.3891 C   0  0  0  0  0  0  0  0  0  0  0  0
  -17.0445  -42.8046  -24.6286 C   0  0  0  0  0  0  0  0  0  0  0  0
  -16.5700  -42.0439  -25.6948 C   0  0  0  0  0  0  0  0  0  0  0  0
  -15.4993  -41.1896  -25.4895 C   0  0  0  0  0  0  0  0  0  0  0  0
  -14.9433  -41.1484  -24.2256 C   0  0  0  0  0  0  0  0  0  0  0  0
  -15.3723  -41.8920  -23.1826 N   0  0  0  0  0  0  0  0  0  0  0  0
  -18.8127  -44.5970  -20.3150 C   0  0  0  0  0  0  0  0  0  0  0  0
  -18.5421  -44.9107  -18.8606 C   0  0  0  0  0  0  0  0  0  0  0  0
  -17.0306  -44.8844  -18.8100 C   0  0  0  0  0  0  0  0  0  0  0  0
  -16.5544  -45.2666  -20.1076 O   0  0  0  0  0  0  0  0  0  0  0  0
  1  2  1  0
  3  2  1  6
  3  4  1  0
  4  5  1  0
  5  6  1  0
  6  7  2  0
  7  8  1  0
  8  9  2  0
  9 10  1  0
 10 11  2  0
  3 12  1  0
 12 13  1  0
 13 14  1  0
 14 15  1  0
 15  3  1  0
 11  6  1  0
M  END
>  <fragmenstein_runtime>  (204) 
1.64515

>  <original ID>  (204) 
JPRNUXAPQYFFIN-LBPRGKRZSA-N

>  <fragmenstein_error>  (204) 
None

>  <ref_pdb>  (204) 
d0472a

>  <Multi-SuCOS>  (204) 
0.707626

>  <SLURM_JOB_NAME>  (204) 
BulkDock.place:Flavi_NS5_RdRp:RdRp_knitwork_primer_grip_n_pocket_pure_split1800_batch010

>  <HIPPO Compound ID>  (204) 
24886

>  <original SMILES>  (204) 
CC[C@@]1(CNc2ccccn2)CCCO1

>  <name>  (204) 
JPRNUXAPQYFFIN-LBPRGKRZSA-N

>  <HIPPO Pose ID>  (204) 
68430

>  <ref_mols>  (204) 
d0254a,d0472a

>  <exports>  (204) 
['/opt/xchem-fragalysis-2/maxwin/BulkDock/OUTPUTS/RdRp_knitwork_primer_grip_n_pocket_pure_split1800_batch010_217044.sdf', '/opt/xchem-fragalysis-2/maxwin/BulkDock/OUTPUTS/RdRp_knitwork_primer_grip_n_pocket_pure_fragalysis.sdf', '/opt/xchem-fragalysis-2/maxwin/RdRp_FFF/syndirella/Retro_OK_batch1.sdf']

>  <alias>  (204) 
None

>  <inchikey>  (204) 
JPRNUXAPQYFFIN-LBPRGKRZSA-N

>  <energy_score>  (204) 
-47.677908

>  <distance_score>  (204) 
0.867521

>  <fragmenstein_outcome>  (204) 
acceptable

>  <merge_set>  (204) 
RdRp_knitwork_primer_grip_n_pocket_pure_fragalysis.sdf

>  <scratch_subdir>  (204) 
/opt/xchem-fragalysis-2/maxwin/BulkDock/SCRATCH/217044/C24886-P42

>  <SLURM_JOB_ID>  (204) 
217044

>  <tags>  (204) 
['Fragmenstein placed', 'RdRp_knitwork_primer_grip_n_pocket_pure_fragalysis.sdf Pose OK']

>  <fragmenstein_mode>  (204) 
expansion

>  <csv_name>  (204) 
RdRp_knitwork_primer_grip_n_pocket_pure_split1800_batch010.csv

$$$$
OKCRVQGQXDQLPL-LLVKDONJSA-N
     RDKit          3D

 23 24  0  0  0  0  0  0  0  0999 V2000
  -18.2141  -44.7610  -23.2191 C   0  0  0  0  0  0  0  0  0  0  0  0
  -17.0409  -43.7616  -23.0357 C   0  0  1  0  0  0  0  0  0  0  0  0
  -17.3044  -42.7155  -24.1092 C   0  0  0  0  0  0  0  0  0  0  0  0
  -16.4810  -41.5794  -24.3495 N   0  0  0  0  0  0  0  0  0  0  0  0
  -16.0432  -40.4351  -23.4007 C   0  0  0  0  0  0  0  0  0  0  0  0
  -16.2265  -40.2890  -22.2569 O   0  0  0  0  0  0  0  0  0  0  0  0
  -15.3610  -39.3861  -24.2947 C   0  0  0  0  0  0  0  0  0  0  0  0
  -16.4662  -38.6343  -24.9904 C   0  0  0  0  0  0  0  0  0  0  0  0
  -16.9154  -38.6771  -26.2992 C   0  0  0  0  0  0  0  0  0  0  0  0
  -18.0641  -37.9400  -26.5741 N   0  0  0  0  0  0  0  0  0  0  0  0
  -18.4124  -37.2870  -25.4854 C   0  0  0  0  0  0  0  0  0  0  0  0
  -17.4530  -37.5470  -24.0970 S   0  0  0  0  0  0  0  0  0  0  0  0
  -17.0858  -43.3358  -21.5581 C   0  0  0  0  0  0  0  0  0  0  0  0
  -15.8673  -42.8590  -20.9634 N   0  0  0  0  0  0  0  0  0  0  0  0
  -14.7528  -43.6234  -20.1952 C   0  0  0  0  0  0  0  0  0  0  0  0
  -14.6180  -44.7692  -19.9964 O   0  0  0  0  0  0  0  0  0  0  0  0
  -13.7758  -42.6221  -19.5517 C   0  0  0  0  0  0  0  0  0  0  0  0
  -13.1786  -41.5500  -20.3976 C   0  0  0  0  0  0  0  0  0  0  0  0
  -13.3562  -41.1776  -21.7077 C   0  0  0  0  0  0  0  0  0  0  0  0
  -12.6246  -40.0635  -22.0339 N   0  0  0  0  0  0  0  0  0  0  0  0
  -11.9614  -39.7702  -20.9417 C   0  0  0  0  0  0  0  0  0  0  0  0
  -12.2447  -40.6492  -19.9339 N   0  0  0  0  0  0  0  0  0  0  0  0
  -11.6933  -40.5495  -18.6048 C   0  0  0  0  0  0  0  0  0  0  0  0
  2  1  1  1
  2  3  1  0
  3  4  1  0
  4  5  1  0
  5  6  2  0
  5  7  1  0
  7  8  1  0
  8  9  2  0
  9 10  1  0
 10 11  2  0
 11 12  1  0
  2 13  1  0
 13 14  1  0
 14 15  1  0
 15 16  2  0
 15 17  1  0
 17 18  1  0
 18 19  2  0
 19 20  1  0
 20 21  2  0
 21 22  1  0
 22 23  1  0
 12  8  1  0
 22 18  1  0
M  END
>  <fragmenstein_runtime>  (205) 
12.47785

>  <original ID>  (205) 
OKCRVQGQXDQLPL-LLVKDONJSA-N

>  <fragmenstein_error>  (205) 
None

>  <ref_pdb>  (205) 
d0615b

>  <Multi-SuCOS>  (205) 
0.418954

>  <SLURM_JOB_NAME>  (205) 
BulkDock.place:Flavi_NS5_RdRp:thumb_site_2_fstein_bulkdock_input_split1000_batch000

>  <HIPPO Compound ID>  (205) 
10254

>  <original SMILES>  (205) 
C[C@@H](CNC(=O)Cc1cncs1)CNC(=O)Cc1cncn1C

>  <name>  (205) 
OKCRVQGQXDQLPL-LLVKDONJSA-N

>  <HIPPO Pose ID>  (205) 
68587

>  <ref_mols>  (205) 
d0615b,z0875c

>  <exports>  (205) 
['/opt/xchem-fragalysis-2/maxwin/BulkDock/OUTPUTS/RdRp_knitwork_primer_grip_n_pocket_pure_split1800_batch011_217045.sdf', '/opt/xchem-fragalysis-2/maxwin/BulkDock/OUTPUTS/RdRp_knitwork_primer_grip_n_pocket_pure_fragalysis.sdf', '/opt/xchem-fragalysis-2/maxwin/RdRp_FFF/syndirella/Retro_OK_batch1.sdf']

>  <alias>  (205) 
None

>  <inchikey>  (205) 
OKCRVQGQXDQLPL-LLVKDONJSA-N

>  <energy_score>  (205) 
-141.075873

>  <distance_score>  (205) 
1.490844

>  <fragmenstein_outcome>  (205) 
acceptable

>  <merge_set>  (205) 
RdRp_knitwork_primer_grip_n_pocket_pure_fragalysis.sdf

>  <scratch_subdir>  (205) 
/opt/xchem-fragalysis-2/maxwin/BulkDock/SCRATCH/217914/C68587-P21

>  <SLURM_JOB_ID>  (205) 
217914

>  <tags>  (205) 
['Fragmenstein placed', 'RdRp_knitwork_primer_grip_n_pocket_pure_fragalysis.sdf Pose OK']

>  <fragmenstein_mode>  (205) 
expansion

>  <csv_name>  (205) 
thumb_site_2_fstein_bulkdock_input_split1000_batch000.csv

$$$$
PEQWBQJGCBBXLK-UHFFFAOYSA-N
     RDKit          3D

 22 23  0  0  0  0  0  0  0  0999 V2000
  -12.7079  -38.1372  -21.8619 C   0  0  0  0  0  0  0  0  0  0  0  0
  -12.7118  -39.5510  -21.8349 O   0  0  0  0  0  0  0  0  0  0  0  0
  -13.9910  -40.1258  -22.0761 C   0  0  0  0  0  0  0  0  0  0  0  0
  -14.4870  -39.8174  -23.5199 C   0  0  0  0  0  0  0  0  0  0  0  0
  -15.5810  -40.7525  -24.0162 N   0  0  0  0  0  0  0  0  0  0  0  0
  -15.4338  -39.8558  -25.2385 C   0  0  0  0  0  0  0  0  0  0  0  0
  -16.6221  -38.9517  -25.4465 C   0  0  0  0  0  0  0  0  0  0  0  0
  -17.2593  -38.6743  -26.6430 C   0  0  0  0  0  0  0  0  0  0  0  0
  -18.3449  -37.8149  -26.5802 N   0  0  0  0  0  0  0  0  0  0  0  0
  -18.4736  -37.3968  -25.3389 C   0  0  0  0  0  0  0  0  0  0  0  0
  -17.3654  -38.0366  -24.2029 S   0  0  0  0  0  0  0  0  0  0  0  0
  -15.1985  -42.2045  -23.8060 C   0  0  0  0  0  0  0  0  0  0  0  0
  -14.6277  -42.9493  -24.5116 O   0  0  0  0  0  0  0  0  0  0  0  0
  -15.7953  -42.6482  -22.4741 C   0  0  0  0  0  0  0  0  0  0  0  0
  -16.9579  -43.4703  -22.7258 N   0  0  0  0  0  0  0  0  0  0  0  0
  -17.3231  -44.5863  -22.0424 C   0  0  0  0  0  0  0  0  0  0  0  0
  -18.2843  -45.2321  -22.6680 N   0  0  0  0  0  0  0  0  0  0  0  0
  -18.5900  -44.4634  -23.7741 C   0  0  0  0  0  0  0  0  0  0  0  0
  -19.4611  -44.9132  -24.8473 C   0  0  0  0  0  0  0  0  0  0  0  0
  -20.0283  -44.1864  -25.6484 O   0  0  0  0  0  0  0  0  0  0  0  0
  -19.5033  -46.2648  -24.9283 O   0  0  0  0  0  0  0  0  0  0  0  0
  -17.8164  -43.3287  -23.7757 C   0  0  0  0  0  0  0  0  0  0  0  0
  1  2  1  0
  2  3  1  0
  3  4  1  0
  4  5  1  0
  5  6  1  0
  6  7  1  0
  7  8  2  0
  8  9  1  0
  9 10  2  0
 10 11  1  0
  5 12  1  0
 12 13  2  0
 12 14  1  0
 14 15  1  0
 15 16  1  0
 16 17  2  0
 17 18  1  0
 18 19  1  0
 19 20  2  0
 19 21  1  0
 18 22  2  0
 11  7  1  0
 22 15  1  0
M  END
>  <fragmenstein_runtime>  (206) 
8.932299

>  <original ID>  (206) 
PEQWBQJGCBBXLK-UHFFFAOYSA-N

>  <fragmenstein_error>  (206) 
None

>  <ref_pdb>  (206) 
d0615b

>  <Multi-SuCOS>  (206) 
0.438932

>  <SLURM_JOB_NAME>  (206) 
BulkDock.place:Flavi_NS5_RdRp:thumb_site_2_fstein_bulkdock_input_split1000_batch000

>  <HIPPO Compound ID>  (206) 
13088

>  <original SMILES>  (206) 
COCCN(Cc1cncs1)C(=O)Cn1cnc(C(=O)O)c1

>  <name>  (206) 
PEQWBQJGCBBXLK-UHFFFAOYSA-N

>  <HIPPO Pose ID>  (206) 
68616

>  <ref_mols>  (206) 
d0615b,z0103a

>  <exports>  (206) 
['/opt/xchem-fragalysis-2/maxwin/BulkDock/OUTPUTS/RdRp_knitwork_primer_grip_n_pocket_pure_fragalysis.sdf', '/opt/xchem-fragalysis-2/maxwin/RdRp_FFF/syndirella/Retro_OK_batch1.sdf']

>  <alias>  (206) 
None

>  <inchikey>  (206) 
PEQWBQJGCBBXLK-UHFFFAOYSA-N

>  <energy_score>  (206) 
6.589745

>  <distance_score>  (206) 
1.588377

>  <fragmenstein_outcome>  (206) 
acceptable

>  <merge_set>  (206) 
RdRp_knitwork_primer_grip_n_pocket_pure_fragalysis.sdf

>  <scratch_subdir>  (206) 
/opt/xchem-fragalysis-2/maxwin/BulkDock/SCRATCH/217914/C68616-P22

>  <SLURM_JOB_ID>  (206) 
217914

>  <tags>  (206) 
['Fragmenstein placed', 'RdRp_knitwork_primer_grip_n_pocket_pure_fragalysis.sdf Pose OK']

>  <fragmenstein_mode>  (206) 
expansion

>  <csv_name>  (206) 
thumb_site_2_fstein_bulkdock_input_split1000_batch000.csv

$$$$
VZHCCDLJUPHCRO-UHFFFAOYSA-N
     RDKit          3D

 25 26  0  0  0  0  0  0  0  0999 V2000
  -18.4141  -43.9684  -22.6228 C   0  0  0  0  0  0  0  0  0  0  0  0
  -17.8186  -43.7131  -21.2385 C   0  0  0  0  0  0  0  0  0  0  0  0
  -18.8933  -43.2350  -20.2626 C   0  0  0  0  0  0  0  0  0  0  0  0
  -17.1143  -44.9240  -20.6877 C   0  0  0  0  0  0  0  0  0  0  0  0
  -17.6258  -46.1963  -20.8274 N   0  0  0  0  0  0  0  0  0  0  0  0
  -16.8388  -47.0928  -20.1601 C   0  0  0  0  0  0  0  0  0  0  0  0
  -15.8287  -46.3994  -19.5452 C   0  0  0  0  0  0  0  0  0  0  0  0
  -15.9710  -45.0252  -19.8957 C   0  0  0  0  0  0  0  0  0  0  0  0
  -15.0963  -43.9344  -19.4420 C   0  0  0  0  0  0  0  0  0  0  0  0
  -14.9137  -43.7890  -18.2724 O   0  0  0  0  0  0  0  0  0  0  0  0
  -14.5519  -43.2457  -20.5592 N   0  0  0  0  0  0  0  0  0  0  0  0
  -13.5445  -42.2276  -20.6371 C   0  0  0  0  0  0  0  0  0  0  0  0
  -13.7514  -41.1649  -21.7502 C   0  0  0  0  0  0  0  0  0  0  0  0
  -15.0194  -40.3375  -22.0237 N   0  0  0  0  0  0  0  0  0  0  0  0
  -14.7694  -39.8828  -20.6049 C   0  0  0  0  0  0  0  0  0  0  0  0
  -15.6909  -38.6636  -20.3570 C   0  0  0  0  0  0  0  0  0  0  0  0
  -17.0565  -39.0336  -20.5504 O   0  0  0  0  0  0  0  0  0  0  0  0
  -14.8893  -39.6379  -23.2628 C   0  0  0  0  0  0  0  0  0  0  0  0
  -14.4619  -38.5390  -23.4972 O   0  0  0  0  0  0  0  0  0  0  0  0
  -15.4826  -40.3791  -24.4415 C   0  0  0  0  0  0  0  0  0  0  0  0
  -15.5365  -39.7352  -25.6835 C   0  0  0  0  0  0  0  0  0  0  0  0
  -16.1486  -40.3784  -26.7476 C   0  0  0  0  0  0  0  0  0  0  0  0
  -16.7132  -41.6012  -26.6597 N   0  0  0  0  0  0  0  0  0  0  0  0
  -16.6170  -42.2190  -25.4645 C   0  0  0  0  0  0  0  0  0  0  0  0
  -16.0318  -41.6567  -24.3387 C   0  0  0  0  0  0  0  0  0  0  0  0
  1  2  1  0
  2  3  1  0
  2  4  1  0
  4  5  1  0
  5  6  1  0
  6  7  2  0
  7  8  1  0
  8  9  1  0
  9 10  2  0
  9 11  1  0
 11 12  1  0
 12 13  1  0
 13 14  1  0
 14 15  1  0
 15 16  1  0
 16 17  1  0
 14 18  1  0
 18 19  2  0
 18 20  1  0
 20 21  2  0
 21 22  1  0
 22 23  2  0
 23 24  1  0
 24 25  2  0
  8  4  2  0
 25 20  1  0
M  END
>  <fragmenstein_runtime>  (207) 
3.881038

>  <original ID>  (207) 
VZHCCDLJUPHCRO-UHFFFAOYSA-N

>  <fragmenstein_error>  (207) 
None

>  <ref_pdb>  (207) 
d0160a

>  <Multi-SuCOS>  (207) 
0.335626

>  <SLURM_JOB_NAME>  (207) 
BulkDock.place:Flavi_NS5_RdRp:thumb_site_2_fstein_bulkdock_input_split1000_batch000

>  <HIPPO Compound ID>  (207) 
15286

>  <original SMILES>  (207) 
CC(C)c1[nH]ccc1C(=O)NCCN(CCO)C(=O)c1ccncc1

>  <name>  (207) 
VZHCCDLJUPHCRO-UHFFFAOYSA-N

>  <HIPPO Pose ID>  (207) 
68670

>  <ref_mols>  (207) 
d0160a,d0472a

>  <exports>  (207) 
['/opt/xchem-fragalysis-2/maxwin/BulkDock/OUTPUTS/RdRp_knitwork_primer_grip_n_pocket_pure_fragalysis.sdf', '/opt/xchem-fragalysis-2/maxwin/RdRp_FFF/syndirella/Retro_OK_batch1.sdf']

>  <alias>  (207) 
None

>  <inchikey>  (207) 
VZHCCDLJUPHCRO-UHFFFAOYSA-N

>  <energy_score>  (207) 
16.612887

>  <distance_score>  (207) 
1.963433

>  <fragmenstein_outcome>  (207) 
acceptable

>  <merge_set>  (207) 
RdRp_knitwork_primer_grip_n_pocket_pure_fragalysis.sdf

>  <scratch_subdir>  (207) 
/opt/xchem-fragalysis-2/maxwin/BulkDock/SCRATCH/217914/C68670-P27

>  <SLURM_JOB_ID>  (207) 
217914

>  <tags>  (207) 
['Fragmenstein placed', 'RdRp_knitwork_primer_grip_n_pocket_pure_fragalysis.sdf Pose OK']

>  <fragmenstein_mode>  (207) 
expansion

>  <csv_name>  (207) 
thumb_site_2_fstein_bulkdock_input_split1000_batch000.csv

$$$$
LOJDYOQALPVEMW-UHFFFAOYSA-N
     RDKit          3D

 19 20  0  0  0  0  0  0  0  0999 V2000
  -18.4363  -37.1264  -25.4694 C   0  0  0  0  0  0  0  0  0  0  0  0
  -17.8808  -38.5159  -25.2865 C   0  0  0  0  0  0  0  0  0  0  0  0
  -17.7936  -39.0865  -26.5167 F   0  0  0  0  0  0  0  0  0  0  0  0
  -16.6226  -38.4381  -24.7908 F   0  0  0  0  0  0  0  0  0  0  0  0
  -18.7286  -39.3943  -24.3778 C   0  0  0  0  0  0  0  0  0  0  0  0
  -18.2192  -40.8595  -24.4219 C   0  0  0  0  0  0  0  0  0  0  0  0
  -19.1978  -41.9973  -23.3482 S   0  0  0  0  0  0  0  0  0  0  0  0
  -18.6236  -43.6448  -23.9726 C   0  0  0  0  0  0  0  0  0  0  0  0
  -18.0102  -44.5205  -22.9117 C   0  0  0  0  0  0  0  0  0  0  0  0
  -18.3035  -45.8285  -22.5607 C   0  0  0  0  0  0  0  0  0  0  0  0
  -17.3464  -46.3256  -21.2177 S   0  0  0  0  0  0  0  0  0  0  0  0
  -16.4833  -44.8509  -21.3290 C   0  0  0  0  0  0  0  0  0  0  0  0
  -15.3435  -44.5262  -20.4790 C   0  0  0  0  0  0  0  0  0  0  0  0
  -14.3672  -43.6612  -20.9709 C   0  0  0  0  0  0  0  0  0  0  0  0
  -13.3721  -43.2203  -20.1139 C   0  0  0  0  0  0  0  0  0  0  0  0
  -13.3979  -43.6307  -18.7901 C   0  0  0  0  0  0  0  0  0  0  0  0
  -14.4025  -44.4981  -18.3874 C   0  0  0  0  0  0  0  0  0  0  0  0
  -15.3540  -44.9906  -19.2055 N   0  0  0  0  0  0  0  0  0  0  0  0
  -16.9115  -44.0207  -22.2559 N   0  0  0  0  0  0  0  0  0  0  0  0
  1  2  1  0
  2  3  1  0
  2  4  1  0
  2  5  1  0
  5  6  1  0
  6  7  1  0
  7  8  1  0
  8  9  1  0
  9 10  2  0
 10 11  1  0
 11 12  1  0
 12 13  1  0
 13 14  2  0
 14 15  1  0
 15 16  2  0
 16 17  1  0
 17 18  2  0
 12 19  2  0
 19  9  1  0
 18 13  1  0
M  END
>  <fragmenstein_runtime>  (208) 
4.161204

>  <original ID>  (208) 
LOJDYOQALPVEMW-UHFFFAOYSA-N

>  <fragmenstein_error>  (208) 
None

>  <ref_pdb>  (208) 
d0472a

>  <Multi-SuCOS>  (208) 
0.46472

>  <SLURM_JOB_NAME>  (208) 
BulkDock.place:Flavi_NS5_RdRp:thumb_site_2_fstein_bulkdock_input_split1000_batch000

>  <HIPPO Compound ID>  (208) 
9221

>  <original SMILES>  (208) 
CC(F)(F)CCSCc1csc(-c2ccccn2)n1

>  <name>  (208) 
LOJDYOQALPVEMW-UHFFFAOYSA-N

>  <HIPPO Pose ID>  (208) 
68678

>  <ref_mols>  (208) 
d0472a,d0615b

>  <exports>  (208) 
['/opt/xchem-fragalysis-2/maxwin/BulkDock/OUTPUTS/RdRp_knitwork_primer_grip_n_pocket_pure_fragalysis.sdf', '/opt/xchem-fragalysis-2/maxwin/RdRp_FFF/syndirella/Retro_OK_batch1.sdf']

>  <alias>  (208) 
None

>  <inchikey>  (208) 
LOJDYOQALPVEMW-UHFFFAOYSA-N

>  <energy_score>  (208) 
-35.803295

>  <distance_score>  (208) 
1.644607

>  <fragmenstein_outcome>  (208) 
acceptable

>  <merge_set>  (208) 
RdRp_knitwork_primer_grip_n_pocket_pure_fragalysis.sdf

>  <scratch_subdir>  (208) 
/opt/xchem-fragalysis-2/maxwin/BulkDock/SCRATCH/217914/C68678-P50

>  <SLURM_JOB_ID>  (208) 
217914

>  <tags>  (208) 
['Fragmenstein placed', 'RdRp_knitwork_primer_grip_n_pocket_pure_fragalysis.sdf Pose OK']

>  <fragmenstein_mode>  (208) 
expansion

>  <csv_name>  (208) 
thumb_site_2_fstein_bulkdock_input_split1000_batch000.csv

$$$$
VZHCCDLJUPHCRO-UHFFFAOYSA-N
     RDKit          3D

 25 26  0  0  0  0  0  0  0  0999 V2000
  -18.7016  -44.0654  -23.0488 C   0  0  0  0  0  0  0  0  0  0  0  0
  -18.2789  -43.9270  -21.5864 C   0  0  0  0  0  0  0  0  0  0  0  0
  -19.4921  -43.6616  -20.6945 C   0  0  0  0  0  0  0  0  0  0  0  0
  -17.5176  -45.1328  -21.1051 C   0  0  0  0  0  0  0  0  0  0  0  0
  -17.9570  -46.4169  -21.3390 N   0  0  0  0  0  0  0  0  0  0  0  0
  -17.1092  -47.3182  -20.7567 C   0  0  0  0  0  0  0  0  0  0  0  0
  -16.1490  -46.6173  -20.0751 C   0  0  0  0  0  0  0  0  0  0  0  0
  -16.3689  -45.2318  -20.3253 C   0  0  0  0  0  0  0  0  0  0  0  0
  -15.5301  -44.1416  -19.8202 C   0  0  0  0  0  0  0  0  0  0  0  0
  -15.4092  -44.0024  -18.6414 O   0  0  0  0  0  0  0  0  0  0  0  0
  -14.9077  -43.4643  -20.9046 N   0  0  0  0  0  0  0  0  0  0  0  0
  -13.8727  -42.4707  -20.9239 C   0  0  0  0  0  0  0  0  0  0  0  0
  -14.0334  -41.3378  -21.9739 C   0  0  0  0  0  0  0  0  0  0  0  0
  -15.2627  -40.4439  -22.1995 N   0  0  0  0  0  0  0  0  0  0  0  0
  -14.9979  -40.0822  -20.7552 C   0  0  0  0  0  0  0  0  0  0  0  0
  -15.8473  -38.8261  -20.4415 C   0  0  0  0  0  0  0  0  0  0  0  0
  -17.2316  -39.0997  -20.6551 O   0  0  0  0  0  0  0  0  0  0  0  0
  -15.0988  -39.6806  -23.3957 C   0  0  0  0  0  0  0  0  0  0  0  0
  -14.6244  -38.5897  -23.5663 O   0  0  0  0  0  0  0  0  0  0  0  0
  -15.7190  -40.3296  -24.6114 C   0  0  0  0  0  0  0  0  0  0  0  0
  -15.6186  -39.6851  -25.8491 C   0  0  0  0  0  0  0  0  0  0  0  0
  -16.2568  -40.2428  -26.9463 C   0  0  0  0  0  0  0  0  0  0  0  0
  -16.9832  -41.3806  -26.8975 N   0  0  0  0  0  0  0  0  0  0  0  0
  -17.0387  -41.9992  -25.6996 C   0  0  0  0  0  0  0  0  0  0  0  0
  -16.4410  -41.5204  -24.5424 C   0  0  0  0  0  0  0  0  0  0  0  0
  1  2  1  0
  2  3  1  0
  2  4  1  0
  4  5  1  0
  5  6  1  0
  6  7  2  0
  7  8  1  0
  8  9  1  0
  9 10  2  0
  9 11  1  0
 11 12  1  0
 12 13  1  0
 13 14  1  0
 14 15  1  0
 15 16  1  0
 16 17  1  0
 14 18  1  0
 18 19  2  0
 18 20  1  0
 20 21  2  0
 21 22  1  0
 22 23  2  0
 23 24  1  0
 24 25  2  0
  8  4  2  0
 25 20  1  0
M  END
>  <fragmenstein_runtime>  (209) 
4.480051

>  <original ID>  (209) 
VZHCCDLJUPHCRO-UHFFFAOYSA-N

>  <fragmenstein_error>  (209) 
None

>  <ref_pdb>  (209) 
d0472a

>  <Multi-SuCOS>  (209) 
0.375209

>  <SLURM_JOB_NAME>  (209) 
BulkDock.place:Flavi_NS5_RdRp:thumb_site_2_fstein_bulkdock_input_split1000_batch000

>  <HIPPO Compound ID>  (209) 
15286

>  <original SMILES>  (209) 
CC(C)c1[nH]ccc1C(=O)NCCN(CCO)C(=O)c1ccncc1

>  <name>  (209) 
VZHCCDLJUPHCRO-UHFFFAOYSA-N

>  <HIPPO Pose ID>  (209) 
68680

>  <ref_mols>  (209) 
d0160a,d0472a

>  <exports>  (209) 
['/opt/xchem-fragalysis-2/maxwin/BulkDock/OUTPUTS/RdRp_knitwork_primer_grip_n_pocket_pure_fragalysis.sdf', '/opt/xchem-fragalysis-2/maxwin/RdRp_FFF/syndirella/Retro_OK_batch1.sdf']

>  <alias>  (209) 
None

>  <inchikey>  (209) 
VZHCCDLJUPHCRO-UHFFFAOYSA-N

>  <energy_score>  (209) 
16.770794

>  <distance_score>  (209) 
1.835177

>  <fragmenstein_outcome>  (209) 
acceptable

>  <merge_set>  (209) 
RdRp_knitwork_primer_grip_n_pocket_pure_fragalysis.sdf

>  <scratch_subdir>  (209) 
/opt/xchem-fragalysis-2/maxwin/BulkDock/SCRATCH/217914/C68680-P53

>  <SLURM_JOB_ID>  (209) 
217914

>  <tags>  (209) 
['Fragmenstein placed', 'RdRp_knitwork_primer_grip_n_pocket_pure_fragalysis.sdf Pose OK']

>  <fragmenstein_mode>  (209) 
expansion

>  <csv_name>  (209) 
thumb_site_2_fstein_bulkdock_input_split1000_batch000.csv

$$$$
FSXPLQXXHLGGOZ-RYUDHWBXSA-N
     RDKit          3D

 18 19  0  0  0  0  0  0  0  0999 V2000
  -13.7668  -43.6846  -21.2919 C   0  0  0  0  0  0  0  0  0  0  0  0
  -14.5418  -42.4567  -20.8869 C   0  0  0  0  0  0  0  0  0  0  0  0
  -14.8425  -42.3535  -19.3762 C   0  0  2  0  0  0  0  0  0  0  0  0
  -13.6527  -42.5883  -18.6101 O   0  0  0  0  0  0  0  0  0  0  0  0
  -13.7275  -43.9323  -18.1484 C   0  0  0  0  0  0  0  0  0  0  0  0
  -15.1807  -44.4228  -18.1802 C   0  0  0  0  0  0  0  0  0  0  0  0
  -15.9512  -43.2691  -18.7933 C   0  0  2  0  0  0  0  0  0  0  0  0
  -16.8732  -43.5497  -19.8407 N   0  0  0  0  0  0  0  0  0  0  0  0
  -16.8959  -44.6992  -20.8691 C   0  0  0  0  0  0  0  0  0  0  0  0
  -16.2279  -45.6085  -20.9636 O   0  0  0  0  0  0  0  0  0  0  0  0
  -18.0203  -44.1935  -21.7825 N   0  0  0  0  0  0  0  0  0  0  0  0
  -18.4696  -44.6750  -23.0473 C   0  0  0  0  0  0  0  0  0  0  0  0
  -17.7141  -43.7763  -24.0431 C   0  0  0  0  0  0  0  0  0  0  0  0
  -18.3791  -42.9993  -24.9848 C   0  0  0  0  0  0  0  0  0  0  0  0
  -17.6584  -42.0767  -25.7544 C   0  0  0  0  0  0  0  0  0  0  0  0
  -16.2872  -41.9497  -25.5887 C   0  0  0  0  0  0  0  0  0  0  0  0
  -15.6708  -42.7664  -24.6355 C   0  0  0  0  0  0  0  0  0  0  0  0
  -16.3443  -43.6660  -23.8813 N   0  0  0  0  0  0  0  0  0  0  0  0
  1  2  1  0
  3  2  1  6
  3  4  1  0
  4  5  1  0
  5  6  1  0
  6  7  1  0
  7  8  1  6
  8  9  1  0
  9 10  2  0
  9 11  1  0
 11 12  1  0
 12 13  1  0
 13 14  2  0
 14 15  1  0
 15 16  2  0
 16 17  1  0
 17 18  2  0
  7  3  1  0
 18 13  1  0
M  END
>  <fragmenstein_runtime>  (210) 
4.783697

>  <original ID>  (210) 
FSXPLQXXHLGGOZ-RYUDHWBXSA-N

>  <fragmenstein_error>  (210) 
None

>  <ref_pdb>  (210) 
d0472a

>  <Multi-SuCOS>  (210) 
0.366874

>  <SLURM_JOB_NAME>  (210) 
BulkDock.place:Flavi_NS5_RdRp:thumb_site_2_fstein_bulkdock_input_split1000_batch000

>  <HIPPO Compound ID>  (210) 
25040

>  <original SMILES>  (210) 
CC[C@@H]1OCC[C@@H]1NC(=O)NCc1ccccn1

>  <name>  (210) 
FSXPLQXXHLGGOZ-RYUDHWBXSA-N

>  <HIPPO Pose ID>  (210) 
68710

>  <ref_mols>  (210) 
d0254a,d0472a

>  <exports>  (210) 
['/opt/xchem-fragalysis-2/maxwin/BulkDock/OUTPUTS/RdRp_knitwork_primer_grip_n_pocket_pure_split1800_batch010_217044.sdf', '/opt/xchem-fragalysis-2/maxwin/BulkDock/OUTPUTS/RdRp_knitwork_primer_grip_n_pocket_pure_fragalysis.sdf', '/opt/xchem-fragalysis-2/maxwin/RdRp_FFF/syndirella/Retro_OK_batch1.sdf']

>  <alias>  (210) 
None

>  <inchikey>  (210) 
FSXPLQXXHLGGOZ-RYUDHWBXSA-N

>  <energy_score>  (210) 
-5.170912

>  <distance_score>  (210) 
1.97318

>  <fragmenstein_outcome>  (210) 
acceptable

>  <merge_set>  (210) 
RdRp_knitwork_primer_grip_n_pocket_pure_fragalysis.sdf

>  <scratch_subdir>  (210) 
/opt/xchem-fragalysis-2/maxwin/BulkDock/SCRATCH/217914/C68710-P53

>  <SLURM_JOB_ID>  (210) 
217914

>  <tags>  (210) 
['Fragmenstein placed', 'RdRp_knitwork_primer_grip_n_pocket_pure_fragalysis.sdf Pose OK']

>  <fragmenstein_mode>  (210) 
expansion

>  <csv_name>  (210) 
thumb_site_2_fstein_bulkdock_input_split1000_batch000.csv

$$$$
SCCOTQRDELFMAJ-UHFFFAOYSA-N
     RDKit          3D

 24 25  0  0  0  0  0  0  0  0999 V2000
  -16.4777  -38.6962  -19.2473 C   0  0  0  0  0  0  0  0  0  0  0  0
  -16.2248  -39.7151  -20.3643 C   0  0  0  0  0  0  0  0  0  0  0  0
  -15.8879  -41.0788  -19.8312 N   0  0  0  0  0  0  0  0  0  0  0  0
  -14.4458  -40.5847  -20.1004 C   0  0  0  0  0  0  0  0  0  0  0  0
  -13.7268  -41.1258  -21.3672 C   0  0  0  0  0  0  0  0  0  0  0  0
  -14.4752  -40.9838  -22.5867 N   0  0  0  0  0  0  0  0  0  0  0  0
  -14.4533  -39.9660  -23.5862 C   0  0  0  0  0  0  0  0  0  0  0  0
  -13.8626  -38.9270  -23.6291 O   0  0  0  0  0  0  0  0  0  0  0  0
  -15.3071  -40.3017  -24.7930 C   0  0  0  0  0  0  0  0  0  0  0  0
  -15.7663  -39.2580  -25.5995 C   0  0  0  0  0  0  0  0  0  0  0  0
  -16.5428  -39.5653  -26.7070 C   0  0  0  0  0  0  0  0  0  0  0  0
  -16.9038  -40.8202  -27.0575 N   0  0  0  0  0  0  0  0  0  0  0  0
  -16.4067  -41.8142  -26.2925 C   0  0  0  0  0  0  0  0  0  0  0  0
  -15.6118  -41.6135  -25.1730 C   0  0  0  0  0  0  0  0  0  0  0  0
  -16.0768  -42.3727  -20.3987 C   0  0  0  0  0  0  0  0  0  0  0  0
  -16.4713  -42.6981  -21.4872 O   0  0  0  0  0  0  0  0  0  0  0  0
  -15.8084  -43.4217  -19.3808 C   0  0  0  0  0  0  0  0  0  0  0  0
  -15.2123  -43.2635  -18.0892 C   0  0  0  0  0  0  0  0  0  0  0  0
  -15.1862  -44.4865  -17.4675 C   0  0  0  0  0  0  0  0  0  0  0  0
  -15.7761  -45.3869  -18.3054 N   0  0  0  0  0  0  0  0  0  0  0  0
  -16.1395  -44.7779  -19.4872 C   0  0  0  0  0  0  0  0  0  0  0  0
  -16.8270  -45.5353  -20.6034 C   0  0  0  0  0  0  0  0  0  0  0  0
  -16.5957  -47.0444  -20.5269 C   0  0  0  0  0  0  0  0  0  0  0  0
  -18.3297  -45.2555  -20.6139 C   0  0  0  0  0  0  0  0  0  0  0  0
  1  2  1  0
  2  3  1  0
  3  4  1  0
  4  5  1  0
  5  6  1  0
  6  7  1  0
  7  8  2  0
  7  9  1  0
  9 10  2  0
 10 11  1  0
 11 12  2  0
 12 13  1  0
 13 14  2  0
  3 15  1  0
 15 16  2  0
 15 17  1  0
 17 18  1  0
 18 19  2  0
 19 20  1  0
 20 21  1  0
 21 22  1  0
 22 23  1  0
 22 24  1  0
 14  9  1  0
 21 17  2  0
M  END
>  <fragmenstein_runtime>  (211) 
6.966821

>  <original ID>  (211) 
SCCOTQRDELFMAJ-UHFFFAOYSA-N

>  <fragmenstein_error>  (211) 
None

>  <ref_pdb>  (211) 
d0472a

>  <Multi-SuCOS>  (211) 
0.350395

>  <SLURM_JOB_NAME>  (211) 
BulkDock.place:Flavi_NS5_RdRp:thumb_site_2_fstein_bulkdock_input_split1000_batch000

>  <HIPPO Compound ID>  (211) 
15419

>  <original SMILES>  (211) 
CCN(CCNC(=O)c1ccncc1)C(=O)c1cc[nH]c1C(C)C

>  <name>  (211) 
SCCOTQRDELFMAJ-UHFFFAOYSA-N

>  <HIPPO Pose ID>  (211) 
68784

>  <ref_mols>  (211) 
d0160a,d0472a

>  <exports>  (211) 
['/opt/xchem-fragalysis-2/maxwin/BulkDock/OUTPUTS/RdRp_knitwork_primer_grip_n_pocket_pure_fragalysis.sdf', '/opt/xchem-fragalysis-2/maxwin/RdRp_FFF/syndirella/Retro_OK_batch1.sdf']

>  <alias>  (211) 
None

>  <inchikey>  (211) 
SCCOTQRDELFMAJ-UHFFFAOYSA-N

>  <energy_score>  (211) 
29.934597

>  <distance_score>  (211) 
1.921593

>  <fragmenstein_outcome>  (211) 
acceptable

>  <merge_set>  (211) 
RdRp_knitwork_primer_grip_n_pocket_pure_fragalysis.sdf

>  <scratch_subdir>  (211) 
/opt/xchem-fragalysis-2/maxwin/BulkDock/SCRATCH/217914/C68784-P45

>  <SLURM_JOB_ID>  (211) 
217914

>  <tags>  (211) 
['Fragmenstein placed', 'RdRp_knitwork_primer_grip_n_pocket_pure_fragalysis.sdf Pose OK']

>  <fragmenstein_mode>  (211) 
expansion

>  <csv_name>  (211) 
thumb_site_2_fstein_bulkdock_input_split1000_batch000.csv

$$$$
PHSUBCYVDMBACQ-UHFFFAOYSA-N
     RDKit          3D

 21 23  0  0  0  0  0  0  0  0999 V2000
  -19.1807  -46.6364  -24.2867 O   0  0  0  0  0  0  0  0  0  0  0  0
  -18.7128  -45.9050  -23.5183 C   0  0  0  0  0  0  0  0  0  0  0  0
  -18.4959  -44.4103  -23.5914 N   0  0  0  0  0  0  0  0  0  0  0  0
  -18.7111  -43.5180  -24.6287 O   0  0  0  0  0  0  0  0  0  0  0  0
  -17.7192  -42.5727  -24.4227 C   0  0  0  0  0  0  0  0  0  0  0  0
  -17.6991  -41.8382  -23.2259 C   0  0  0  0  0  0  0  0  0  0  0  0
  -16.5520  -41.1458  -22.8506 C   0  0  0  0  0  0  0  0  0  0  0  0
  -15.4536  -41.1243  -23.7027 C   0  0  0  0  0  0  0  0  0  0  0  0
  -15.5110  -41.7844  -24.9309 C   0  0  0  0  0  0  0  0  0  0  0  0
  -16.6404  -42.5206  -25.2948 C   0  0  0  0  0  0  0  0  0  0  0  0
  -18.0823  -46.2640  -22.2381 C   0  0  0  0  0  0  0  0  0  0  0  0
  -17.9694  -47.4845  -21.6158 C   0  0  0  0  0  0  0  0  0  0  0  0
  -16.8080  -47.3769  -20.3342 S   0  0  0  0  0  0  0  0  0  0  0  0
  -16.5499  -45.7278  -20.7036 C   0  0  0  0  0  0  0  0  0  0  0  0
  -15.4541  -44.9326  -20.1561 C   0  0  0  0  0  0  0  0  0  0  0  0
  -14.7824  -44.0390  -20.9944 C   0  0  0  0  0  0  0  0  0  0  0  0
  -13.7687  -43.2543  -20.4640 C   0  0  0  0  0  0  0  0  0  0  0  0
  -13.4861  -43.3520  -19.1105 C   0  0  0  0  0  0  0  0  0  0  0  0
  -14.2207  -44.2485  -18.3490 C   0  0  0  0  0  0  0  0  0  0  0  0
  -15.1711  -45.0737  -18.8416 N   0  0  0  0  0  0  0  0  0  0  0  0
  -17.3593  -45.2485  -21.6140 N   0  0  0  0  0  0  0  0  0  0  0  0
  1  2  2  0
  2  3  1  0
  3  4  1  0
  4  5  1  0
  5  6  2  0
  6  7  1  0
  7  8  2  0
  8  9  1  0
  9 10  2  0
  2 11  1  0
 11 12  2  0
 12 13  1  0
 13 14  1  0
 14 15  1  0
 15 16  2  0
 16 17  1  0
 17 18  2  0
 18 19  1  0
 19 20  2  0
 14 21  2  0
 10  5  1  0
 21 11  1  0
 20 15  1  0
M  END
>  <fragmenstein_runtime>  (212) 
3.126727

>  <original ID>  (212) 
PHSUBCYVDMBACQ-UHFFFAOYSA-N

>  <fragmenstein_error>  (212) 
None

>  <ref_pdb>  (212) 
d0472a

>  <Multi-SuCOS>  (212) 
0.529514

>  <SLURM_JOB_NAME>  (212) 
BulkDock.place:Flavi_NS5_RdRp:thumb_site_2_fstein_bulkdock_input_split1000_batch000

>  <HIPPO Compound ID>  (212) 
11886

>  <original SMILES>  (212) 
O=C(NOc1ccccc1)c1csc(-c2ccccn2)n1

>  <name>  (212) 
PHSUBCYVDMBACQ-UHFFFAOYSA-N

>  <HIPPO Pose ID>  (212) 
68845

>  <ref_mols>  (212) 
d0472a,d0615b

>  <exports>  (212) 
['/opt/xchem-fragalysis-2/maxwin/BulkDock/OUTPUTS/RdRp_knitwork_primer_grip_n_pocket_pure_fragalysis.sdf', '/opt/xchem-fragalysis-2/maxwin/RdRp_FFF/syndirella/Retro_OK_batch1.sdf']

>  <alias>  (212) 
None

>  <inchikey>  (212) 
PHSUBCYVDMBACQ-UHFFFAOYSA-N

>  <energy_score>  (212) 
-73.538597

>  <distance_score>  (212) 
1.006938

>  <fragmenstein_outcome>  (212) 
acceptable

>  <merge_set>  (212) 
RdRp_knitwork_primer_grip_n_pocket_pure_fragalysis.sdf

>  <scratch_subdir>  (212) 
/opt/xchem-fragalysis-2/maxwin/BulkDock/SCRATCH/217914/C68845-P29

>  <SLURM_JOB_ID>  (212) 
217914

>  <tags>  (212) 
['Fragmenstein placed', 'RdRp_knitwork_primer_grip_n_pocket_pure_fragalysis.sdf Pose OK']

>  <fragmenstein_mode>  (212) 
expansion

>  <csv_name>  (212) 
thumb_site_2_fstein_bulkdock_input_split1000_batch000.csv

$$$$
DDNYUOMDCCAGKE-HNNXBMFYSA-N
     RDKit          3D

 24 25  0  0  0  0  0  0  0  0999 V2000
  -15.1677  -43.1249  -23.6645 C   0  0  0  0  0  0  0  0  0  0  0  0
  -15.3277  -41.6013  -23.5708 C   0  0  0  0  0  0  0  0  0  0  0  0
  -14.5993  -41.1178  -22.3136 C   0  0  0  0  0  0  0  0  0  0  0  0
  -14.8392  -40.9565  -24.8747 C   0  0  0  0  0  0  0  0  0  0  0  0
  -14.7303  -39.4306  -24.9303 C   0  0  0  0  0  0  0  0  0  0  0  0
  -16.0082  -38.6363  -24.8993 C   0  0  0  0  0  0  0  0  0  0  0  0
  -16.6667  -38.3667  -23.7035 C   0  0  0  0  0  0  0  0  0  0  0  0
  -17.9394  -37.8087  -23.7220 C   0  0  0  0  0  0  0  0  0  0  0  0
  -18.5128  -37.5620  -24.9544 C   0  0  0  0  0  0  0  0  0  0  0  0
  -19.7105  -38.1784  -25.2215 N   0  0  0  0  0  0  0  0  0  0  0  0
  -20.4366  -39.3186  -24.4751 C   0  0  0  0  0  0  0  0  0  0  0  0
  -20.1750  -39.8425  -23.5009 O   0  0  0  0  0  0  0  0  0  0  0  0
  -21.5602  -39.6060  -25.4906 N   0  0  0  0  0  0  0  0  0  0  0  0
  -22.5186  -40.6650  -25.5353 C   0  0  0  0  0  0  0  0  0  0  0  0
  -21.8439  -41.7103  -26.5025 C   0  0  2  0  0  0  0  0  0  0  0  0
  -22.6178  -43.0224  -26.5446 C   0  0  0  0  0  0  0  0  0  0  0  0
  -20.3215  -41.9020  -26.2730 C   0  0  0  0  0  0  0  0  0  0  0  0
  -19.7949  -42.8497  -25.3956 C   0  0  0  0  0  0  0  0  0  0  0  0
  -18.4205  -42.9822  -25.2971 C   0  0  0  0  0  0  0  0  0  0  0  0
  -17.5388  -42.2456  -25.9982 N   0  0  0  0  0  0  0  0  0  0  0  0
  -18.0300  -41.2658  -26.7643 C   0  0  0  0  0  0  0  0  0  0  0  0
  -19.3879  -41.0717  -26.9349 C   0  0  0  0  0  0  0  0  0  0  0  0
  -17.8072  -37.5195  -26.1109 N   0  0  0  0  0  0  0  0  0  0  0  0
  -16.5894  -38.1242  -26.0576 C   0  0  0  0  0  0  0  0  0  0  0  0
  1  2  1  0
  2  3  1  0
  2  4  1  0
  4  5  1  0
  5  6  1  0
  6  7  2  0
  7  8  1  0
  8  9  2  0
  9 10  1  0
 10 11  1  0
 11 12  2  0
 11 13  1  0
 13 14  1  0
 14 15  1  0
 15 16  1  1
 15 17  1  0
 17 18  2  0
 18 19  1  0
 19 20  2  0
 20 21  1  0
 21 22  2  0
  9 23  1  0
 23 24  2  0
 24  6  1  0
 22 17  1  0
M  END
>  <fragmenstein_runtime>  (213) 
1.923007

>  <original ID>  (213) 
DDNYUOMDCCAGKE-HNNXBMFYSA-N

>  <fragmenstein_error>  (213) 
None

>  <ref_pdb>  (213) 
d0160a

>  <Multi-SuCOS>  (213) 
0.32064

>  <SLURM_JOB_NAME>  (213) 
BulkDock.place:Flavi_NS5_RdRp:thumb_site_2_fstein_bulkdock_input_split1000_batch000

>  <HIPPO Compound ID>  (213) 
26009

>  <original SMILES>  (213) 
CC(C)CCc1ccc(NC(=O)NC[C@H](C)c2ccncc2)nc1

>  <name>  (213) 
DDNYUOMDCCAGKE-HNNXBMFYSA-N

>  <HIPPO Pose ID>  (213) 
68857

>  <ref_mols>  (213) 
d0160a,d0191a

>  <exports>  (213) 
['/opt/xchem-fragalysis-2/maxwin/BulkDock/OUTPUTS/RdRp_knitwork_primer_grip_n_pocket_pure_fragalysis.sdf', '/opt/xchem-fragalysis-2/maxwin/RdRp_FFF/syndirella/Retro_OK_batch1.sdf']

>  <alias>  (213) 
None

>  <inchikey>  (213) 
DDNYUOMDCCAGKE-HNNXBMFYSA-N

>  <energy_score>  (213) 
6.551808

>  <distance_score>  (213) 
1.811078

>  <fragmenstein_outcome>  (213) 
acceptable

>  <merge_set>  (213) 
RdRp_knitwork_primer_grip_n_pocket_pure_fragalysis.sdf

>  <scratch_subdir>  (213) 
/opt/xchem-fragalysis-2/maxwin/BulkDock/SCRATCH/217914/C68857-P52

>  <SLURM_JOB_ID>  (213) 
217914

>  <tags>  (213) 
['Fragmenstein placed', 'RdRp_knitwork_primer_grip_n_pocket_pure_fragalysis.sdf Pose OK']

>  <fragmenstein_mode>  (213) 
expansion

>  <csv_name>  (213) 
thumb_site_2_fstein_bulkdock_input_split1000_batch000.csv

$$$$
BELNFEYNDRWEIK-UHFFFAOYSA-N
     RDKit          3D

 14 15  0  0  0  0  0  0  0  0999 V2000
  -14.4383  -42.8947  -22.2236 C   0  0  0  0  0  0  0  0  0  0  0  0
  -15.7062  -42.9447  -23.0208 C   0  0  0  0  0  0  0  0  0  0  0  0
  -16.6365  -43.9185  -22.6533 C   0  0  0  0  0  0  0  0  0  0  0  0
  -17.8232  -44.1130  -23.2560 N   0  0  0  0  0  0  0  0  0  0  0  0
  -18.1036  -43.2863  -24.2767 C   0  0  0  0  0  0  0  0  0  0  0  0
  -17.2422  -42.3003  -24.7372 C   0  0  0  0  0  0  0  0  0  0  0  0
  -15.9938  -42.1232  -24.1325 C   0  0  0  0  0  0  0  0  0  0  0  0
  -15.1197  -41.0943  -24.5059 N   0  0  0  0  0  0  0  0  0  0  0  0
  -15.2857  -40.3152  -25.7423 C   0  0  0  0  0  0  0  0  0  0  0  0
  -16.3620  -39.2674  -25.7650 C   0  0  0  0  0  0  0  0  0  0  0  0
  -17.2268  -38.9360  -26.7935 C   0  0  0  0  0  0  0  0  0  0  0  0
  -18.1283  -37.9146  -26.5370 N   0  0  0  0  0  0  0  0  0  0  0  0
  -17.9024  -37.4599  -25.3217 C   0  0  0  0  0  0  0  0  0  0  0  0
  -16.6527  -38.2267  -24.4326 S   0  0  0  0  0  0  0  0  0  0  0  0
  1  2  1  0
  2  3  2  0
  3  4  1  0
  4  5  2  0
  5  6  1  0
  6  7  2  0
  7  8  1  0
  8  9  1  0
  9 10  1  0
 10 11  2  0
 11 12  1  0
 12 13  2  0
 13 14  1  0
  7  2  1  0
 14 10  1  0
M  END
>  <fragmenstein_runtime>  (214) 
4.247793

>  <original ID>  (214) 
BELNFEYNDRWEIK-UHFFFAOYSA-N

>  <fragmenstein_error>  (214) 
None

>  <ref_pdb>  (214) 
d0472a

>  <Multi-SuCOS>  (214) 
0.784388

>  <SLURM_JOB_NAME>  (214) 
BulkDock.place:Flavi_NS5_RdRp:RdRp_knitwork_primer_grip_n_pocket_pure_split1800_batch012

>  <HIPPO Compound ID>  (214) 
17585

>  <original SMILES>  (214) 
Cc1cnccc1NCc1cncs1

>  <name>  (214) 
BELNFEYNDRWEIK-UHFFFAOYSA-N

>  <HIPPO Pose ID>  (214) 
68896

>  <ref_mols>  (214) 
d0472a,d0615b

>  <exports>  (214) 
['/opt/xchem-fragalysis-2/maxwin/BulkDock/OUTPUTS/RdRp_knitwork_primer_grip_n_pocket_pure_split1800_batch012_217046.sdf', '/opt/xchem-fragalysis-2/maxwin/BulkDock/OUTPUTS/RdRp_knitwork_primer_grip_n_pocket_pure_fragalysis.sdf', '/opt/xchem-fragalysis-2/maxwin/RdRp_FFF/syndirella/Retro_OK_batch1.sdf']

>  <alias>  (214) 
None

>  <inchikey>  (214) 
BELNFEYNDRWEIK-UHFFFAOYSA-N

>  <energy_score>  (214) 
-70.643644

>  <distance_score>  (214) 
0.884605

>  <fragmenstein_outcome>  (214) 
acceptable

>  <merge_set>  (214) 
RdRp_knitwork_primer_grip_n_pocket_pure_fragalysis.sdf

>  <scratch_subdir>  (214) 
/opt/xchem-fragalysis-2/maxwin/BulkDock/SCRATCH/217046/C17585-P42

>  <SLURM_JOB_ID>  (214) 
217046

>  <tags>  (214) 
['Fragmenstein placed', 'RdRp_knitwork_primer_grip_n_pocket_pure_fragalysis.sdf Pose OK']

>  <fragmenstein_mode>  (214) 
expansion

>  <csv_name>  (214) 
RdRp_knitwork_primer_grip_n_pocket_pure_split1800_batch012.csv

$$$$
DXWJLJGPVSIGQY-UHFFFAOYSA-N
     RDKit          3D

 15 16  0  0  0  0  0  0  0  0999 V2000
  -15.8711  -45.0903  -20.0631 C   0  0  0  0  0  0  0  0  0  0  0  0
  -15.0905  -44.4621  -21.1044 N   0  0  0  0  0  0  0  0  0  0  0  0
  -15.7469  -43.7513  -22.1243 C   0  0  0  0  0  0  0  0  0  0  0  0
  -17.0377  -44.0375  -22.5389 C   0  0  0  0  0  0  0  0  0  0  0  0
  -17.5566  -43.3320  -23.6094 C   0  0  0  0  0  0  0  0  0  0  0  0
  -16.8961  -42.3824  -24.3079 N   0  0  0  0  0  0  0  0  0  0  0  0
  -15.6426  -42.1008  -23.9352 C   0  0  0  0  0  0  0  0  0  0  0  0
  -14.8933  -41.1433  -24.6211 N   0  0  0  0  0  0  0  0  0  0  0  0
  -15.4348  -40.5813  -25.8569 C   0  0  0  0  0  0  0  0  0  0  0  0
  -16.4287  -39.4574  -25.7789 C   0  0  0  0  0  0  0  0  0  0  0  0
  -17.3562  -39.0772  -26.7343 C   0  0  0  0  0  0  0  0  0  0  0  0
  -18.1349  -37.9699  -26.4364 N   0  0  0  0  0  0  0  0  0  0  0  0
  -17.7629  -37.5111  -25.2592 C   0  0  0  0  0  0  0  0  0  0  0  0
  -16.5107  -38.3692  -24.4574 S   0  0  0  0  0  0  0  0  0  0  0  0
  -15.0498  -42.7834  -22.8687 C   0  0  0  0  0  0  0  0  0  0  0  0
  1  2  1  0
  2  3  1  0
  3  4  2  0
  4  5  1  0
  5  6  2  0
  6  7  1  0
  7  8  1  0
  8  9  1  0
  9 10  1  0
 10 11  2  0
 11 12  1  0
 12 13  2  0
 13 14  1  0
  7 15  2  0
 15  3  1  0
 14 10  1  0
M  END
>  <fragmenstein_runtime>  (215) 
2.114656

>  <original ID>  (215) 
DXWJLJGPVSIGQY-UHFFFAOYSA-N

>  <fragmenstein_error>  (215) 
None

>  <ref_pdb>  (215) 
d0472a

>  <Multi-SuCOS>  (215) 
0.798455

>  <SLURM_JOB_NAME>  (215) 
BulkDock.place:Flavi_NS5_RdRp:thumb_site_2_fstein_bulkdock_input_split1000_batch000

>  <HIPPO Compound ID>  (215) 
17667

>  <original SMILES>  (215) 
CNc1ccnc(NCc2cncs2)c1

>  <name>  (215) 
DXWJLJGPVSIGQY-UHFFFAOYSA-N

>  <HIPPO Pose ID>  (215) 
68932

>  <ref_mols>  (215) 
d0472a,d0615b

>  <exports>  (215) 
['/opt/xchem-fragalysis-2/maxwin/BulkDock/OUTPUTS/RdRp_knitwork_primer_grip_n_pocket_pure_fragalysis.sdf', '/opt/xchem-fragalysis-2/maxwin/RdRp_FFF/syndirella/Retro_OK_batch1.sdf']

>  <alias>  (215) 
None

>  <inchikey>  (215) 
DXWJLJGPVSIGQY-UHFFFAOYSA-N

>  <energy_score>  (215) 
-88.304395

>  <distance_score>  (215) 
1.71992

>  <fragmenstein_outcome>  (215) 
acceptable

>  <merge_set>  (215) 
RdRp_knitwork_primer_grip_n_pocket_pure_fragalysis.sdf

>  <scratch_subdir>  (215) 
/opt/xchem-fragalysis-2/maxwin/BulkDock/SCRATCH/217914/C68932-P46

>  <SLURM_JOB_ID>  (215) 
217914

>  <tags>  (215) 
['Fragmenstein placed', 'RdRp_knitwork_primer_grip_n_pocket_pure_fragalysis.sdf Pose OK']

>  <fragmenstein_mode>  (215) 
expansion

>  <csv_name>  (215) 
thumb_site_2_fstein_bulkdock_input_split1000_batch000.csv

$$$$
AUMLEUREFZMPKP-UHFFFAOYSA-N
     RDKit          3D

 14 15  0  0  0  0  0  0  0  0999 V2000
  -14.7084  -42.7782  -22.4850 N   0  0  0  0  0  0  0  0  0  0  0  0
  -15.8887  -42.9663  -23.2323 C   0  0  0  0  0  0  0  0  0  0  0  0
  -16.8905  -43.8199  -22.7758 C   0  0  0  0  0  0  0  0  0  0  0  0
  -18.0604  -44.0250  -23.4097 N   0  0  0  0  0  0  0  0  0  0  0  0
  -18.2487  -43.3168  -24.5402 C   0  0  0  0  0  0  0  0  0  0  0  0
  -17.3392  -42.4009  -25.0550 C   0  0  0  0  0  0  0  0  0  0  0  0
  -16.1585  -42.1553  -24.3592 C   0  0  0  0  0  0  0  0  0  0  0  0
  -15.1872  -41.2240  -24.7614 N   0  0  0  0  0  0  0  0  0  0  0  0
  -15.3606  -40.3373  -25.9129 C   0  0  0  0  0  0  0  0  0  0  0  0
  -16.4120  -39.2718  -25.8322 C   0  0  0  0  0  0  0  0  0  0  0  0
  -17.3210  -38.8866  -26.8011 C   0  0  0  0  0  0  0  0  0  0  0  0
  -18.1753  -37.8491  -26.4677 N   0  0  0  0  0  0  0  0  0  0  0  0
  -17.8777  -37.4437  -25.2501 C   0  0  0  0  0  0  0  0  0  0  0  0
  -16.6080  -38.2772  -24.4504 S   0  0  0  0  0  0  0  0  0  0  0  0
  1  2  1  0
  2  3  2  0
  3  4  1  0
  4  5  2  0
  5  6  1  0
  6  7  2  0
  7  8  1  0
  8  9  1  0
  9 10  1  0
 10 11  2  0
 11 12  1  0
 12 13  2  0
 13 14  1  0
  7  2  1  0
 14 10  1  0
M  END
>  <fragmenstein_runtime>  (216) 
1.598128

>  <original ID>  (216) 
AUMLEUREFZMPKP-UHFFFAOYSA-N

>  <fragmenstein_error>  (216) 
None

>  <ref_pdb>  (216) 
d0472a

>  <Multi-SuCOS>  (216) 
0.789526

>  <SLURM_JOB_NAME>  (216) 
BulkDock.place:Flavi_NS5_RdRp:RdRp_knitwork_primer_grip_n_pocket_pure_split1800_batch012

>  <HIPPO Compound ID>  (216) 
17958

>  <original SMILES>  (216) 
Nc1cnccc1NCc1cncs1

>  <name>  (216) 
AUMLEUREFZMPKP-UHFFFAOYSA-N

>  <HIPPO Pose ID>  (216) 
68971

>  <ref_mols>  (216) 
d0472a,d0615b

>  <exports>  (216) 
['/opt/xchem-fragalysis-2/maxwin/BulkDock/OUTPUTS/RdRp_knitwork_primer_grip_n_pocket_pure_split1800_batch012_217046.sdf', '/opt/xchem-fragalysis-2/maxwin/BulkDock/OUTPUTS/RdRp_knitwork_primer_grip_n_pocket_pure_fragalysis.sdf', '/opt/xchem-fragalysis-2/maxwin/RdRp_FFF/syndirella/Retro_OK_batch1.sdf']

>  <alias>  (216) 
None

>  <inchikey>  (216) 
AUMLEUREFZMPKP-UHFFFAOYSA-N

>  <energy_score>  (216) 
-69.207822

>  <distance_score>  (216) 
0.944995

>  <fragmenstein_outcome>  (216) 
acceptable

>  <merge_set>  (216) 
RdRp_knitwork_primer_grip_n_pocket_pure_fragalysis.sdf

>  <scratch_subdir>  (216) 
/opt/xchem-fragalysis-2/maxwin/BulkDock/SCRATCH/217046/C17958-P42

>  <SLURM_JOB_ID>  (216) 
217046

>  <tags>  (216) 
['Fragmenstein placed', 'RdRp_knitwork_primer_grip_n_pocket_pure_fragalysis.sdf Pose OK']

>  <fragmenstein_mode>  (216) 
expansion

>  <csv_name>  (216) 
RdRp_knitwork_primer_grip_n_pocket_pure_split1800_batch012.csv

$$$$
AUMLEUREFZMPKP-UHFFFAOYSA-N
     RDKit          3D

 14 15  0  0  0  0  0  0  0  0999 V2000
  -14.6951  -42.3156  -21.9326 N   0  0  0  0  0  0  0  0  0  0  0  0
  -15.7270  -42.7413  -22.7900 C   0  0  0  0  0  0  0  0  0  0  0  0
  -16.6905  -43.6391  -22.3351 C   0  0  0  0  0  0  0  0  0  0  0  0
  -17.7344  -44.0619  -23.0672 N   0  0  0  0  0  0  0  0  0  0  0  0
  -17.8051  -43.5688  -24.3190 C   0  0  0  0  0  0  0  0  0  0  0  0
  -16.9198  -42.6391  -24.8541 C   0  0  0  0  0  0  0  0  0  0  0  0
  -15.9168  -42.1234  -24.0463 C   0  0  0  0  0  0  0  0  0  0  0  0
  -15.0247  -41.1161  -24.4479 N   0  0  0  0  0  0  0  0  0  0  0  0
  -15.2188  -40.3205  -25.6645 C   0  0  0  0  0  0  0  0  0  0  0  0
  -16.3327  -39.3167  -25.6826 C   0  0  0  0  0  0  0  0  0  0  0  0
  -17.1005  -38.9176  -26.7600 C   0  0  0  0  0  0  0  0  0  0  0  0
  -18.0931  -37.9849  -26.5042 N   0  0  0  0  0  0  0  0  0  0  0  0
  -17.9946  -37.6179  -25.2421 C   0  0  0  0  0  0  0  0  0  0  0  0
  -16.7869  -38.4018  -24.3073 S   0  0  0  0  0  0  0  0  0  0  0  0
  1  2  1  0
  2  3  2  0
  3  4  1  0
  4  5  2  0
  5  6  1  0
  6  7  2  0
  7  8  1  0
  8  9  1  0
  9 10  1  0
 10 11  2  0
 11 12  1  0
 12 13  2  0
 13 14  1  0
  7  2  1  0
 14 10  1  0
M  END
>  <fragmenstein_runtime>  (217) 
1.789537

>  <original ID>  (217) 
AUMLEUREFZMPKP-UHFFFAOYSA-N

>  <fragmenstein_error>  (217) 
None

>  <ref_pdb>  (217) 
d0615b

>  <Multi-SuCOS>  (217) 
0.784331

>  <SLURM_JOB_NAME>  (217) 
BulkDock.place:Flavi_NS5_RdRp:RdRp_knitwork_primer_grip_n_pocket_pure_split1800_batch012

>  <HIPPO Compound ID>  (217) 
17958

>  <original SMILES>  (217) 
Nc1cnccc1NCc1cncs1

>  <name>  (217) 
AUMLEUREFZMPKP-UHFFFAOYSA-N

>  <HIPPO Pose ID>  (217) 
68972

>  <ref_mols>  (217) 
d0472a,d0615b

>  <exports>  (217) 
['/opt/xchem-fragalysis-2/maxwin/BulkDock/OUTPUTS/RdRp_knitwork_primer_grip_n_pocket_pure_split1800_batch012_217046.sdf', '/opt/xchem-fragalysis-2/maxwin/BulkDock/OUTPUTS/RdRp_knitwork_primer_grip_n_pocket_pure_fragalysis.sdf', '/opt/xchem-fragalysis-2/maxwin/RdRp_FFF/syndirella/Retro_OK_batch1.sdf']

>  <alias>  (217) 
None

>  <inchikey>  (217) 
AUMLEUREFZMPKP-UHFFFAOYSA-N

>  <energy_score>  (217) 
-68.884706

>  <distance_score>  (217) 
0.871366

>  <fragmenstein_outcome>  (217) 
acceptable

>  <merge_set>  (217) 
RdRp_knitwork_primer_grip_n_pocket_pure_fragalysis.sdf

>  <scratch_subdir>  (217) 
/opt/xchem-fragalysis-2/maxwin/BulkDock/SCRATCH/217046/C17958-P51

>  <SLURM_JOB_ID>  (217) 
217046

>  <tags>  (217) 
['Fragmenstein placed', 'RdRp_knitwork_primer_grip_n_pocket_pure_fragalysis.sdf Pose OK']

>  <fragmenstein_mode>  (217) 
expansion

>  <csv_name>  (217) 
RdRp_knitwork_primer_grip_n_pocket_pure_split1800_batch012.csv

$$$$
XGMDJKMAPHHRFH-UHFFFAOYSA-N
     RDKit          3D

 15 16  0  0  0  0  0  0  0  0999 V2000
  -15.4042  -44.6640  -21.6834 N   0  0  0  0  0  0  0  0  0  0  0  0
  -16.6924  -44.1957  -22.0073 N   0  0  0  0  0  0  0  0  0  0  0  0
  -16.8527  -43.4353  -23.1781 C   0  0  0  0  0  0  0  0  0  0  0  0
  -15.9082  -42.4808  -23.5515 C   0  0  0  0  0  0  0  0  0  0  0  0
  -16.0753  -41.7632  -24.7312 C   0  0  0  0  0  0  0  0  0  0  0  0
  -15.0849  -40.8597  -25.1063 N   0  0  0  0  0  0  0  0  0  0  0  0
  -15.2964  -39.8895  -26.1762 C   0  0  0  0  0  0  0  0  0  0  0  0
  -16.4397  -38.9382  -26.0023 C   0  0  0  0  0  0  0  0  0  0  0  0
  -17.4582  -38.6539  -26.8898 C   0  0  0  0  0  0  0  0  0  0  0  0
  -18.3916  -37.7193  -26.4796 N   0  0  0  0  0  0  0  0  0  0  0  0
  -18.0668  -37.3164  -25.2677 C   0  0  0  0  0  0  0  0  0  0  0  0
  -16.6630  -38.0193  -24.5737 S   0  0  0  0  0  0  0  0  0  0  0  0
  -17.1766  -42.0880  -25.5154 C   0  0  0  0  0  0  0  0  0  0  0  0
  -18.0970  -43.0094  -25.0448 C   0  0  0  0  0  0  0  0  0  0  0  0
  -17.9595  -43.6909  -23.8989 N   0  0  0  0  0  0  0  0  0  0  0  0
  1  2  1  0
  2  3  1  0
  3  4  2  0
  4  5  1  0
  5  6  1  0
  6  7  1  0
  7  8  1  0
  8  9  2  0
  9 10  1  0
 10 11  2  0
 11 12  1  0
  5 13  2  0
 13 14  1  0
 14 15  2  0
 15  3  1  0
 12  8  1  0
M  END
>  <fragmenstein_runtime>  (218) 
3.788973

>  <original ID>  (218) 
XGMDJKMAPHHRFH-UHFFFAOYSA-N

>  <fragmenstein_error>  (218) 
None

>  <ref_pdb>  (218) 
d0472a

>  <Multi-SuCOS>  (218) 
0.736046

>  <SLURM_JOB_NAME>  (218) 
BulkDock.place:Flavi_NS5_RdRp:RdRp_knitwork_primer_grip_n_pocket_pure_split1800_batch012

>  <HIPPO Compound ID>  (218) 
18043

>  <original SMILES>  (218) 
NNc1cc(NCc2cncs2)ccn1

>  <name>  (218) 
XGMDJKMAPHHRFH-UHFFFAOYSA-N

>  <HIPPO Pose ID>  (218) 
68980

>  <ref_mols>  (218) 
d0472a,d0615b

>  <exports>  (218) 
['/opt/xchem-fragalysis-2/maxwin/BulkDock/OUTPUTS/RdRp_knitwork_primer_grip_n_pocket_pure_split1800_batch012_217046.sdf', '/opt/xchem-fragalysis-2/maxwin/BulkDock/OUTPUTS/RdRp_knitwork_primer_grip_n_pocket_pure_fragalysis.sdf', '/opt/xchem-fragalysis-2/maxwin/RdRp_FFF/syndirella/Retro_OK_batch1.sdf']

>  <alias>  (218) 
None

>  <inchikey>  (218) 
XGMDJKMAPHHRFH-UHFFFAOYSA-N

>  <energy_score>  (218) 
-76.769655

>  <distance_score>  (218) 
0.79138

>  <fragmenstein_outcome>  (218) 
acceptable

>  <merge_set>  (218) 
RdRp_knitwork_primer_grip_n_pocket_pure_fragalysis.sdf

>  <scratch_subdir>  (218) 
/opt/xchem-fragalysis-2/maxwin/BulkDock/SCRATCH/217046/C18043-P42

>  <SLURM_JOB_ID>  (218) 
217046

>  <tags>  (218) 
['Fragmenstein placed', 'RdRp_knitwork_primer_grip_n_pocket_pure_fragalysis.sdf Pose OK']

>  <fragmenstein_mode>  (218) 
expansion

>  <csv_name>  (218) 
RdRp_knitwork_primer_grip_n_pocket_pure_split1800_batch012.csv

$$$$
QQVUFOGGROOJOT-HNNXBMFYSA-N
     RDKit          3D

 23 24  0  0  0  0  0  0  0  0999 V2000
  -12.6004  -39.2177  -21.8335 C   0  0  0  0  0  0  0  0  0  0  0  0
  -13.8688  -39.1912  -20.9866 C   0  0  0  0  0  0  0  0  0  0  0  0
  -14.6526  -37.9032  -21.2649 C   0  0  0  0  0  0  0  0  0  0  0  0
  -14.7544  -40.4453  -21.1703 C   0  0  2  0  0  0  0  0  0  0  0  0
  -14.0630  -41.7515  -20.7024 C   0  0  0  0  0  0  0  0  0  0  0  0
  -15.0044  -42.7426  -20.2188 N   0  0  0  0  0  0  0  0  0  0  0  0
  -14.7612  -44.0964  -19.4940 C   0  0  0  0  0  0  0  0  0  0  0  0
  -13.7700  -44.5813  -19.1084 O   0  0  0  0  0  0  0  0  0  0  0  0
  -16.1318  -44.7346  -19.2305 C   0  0  0  0  0  0  0  0  0  0  0  0
  -16.7067  -45.5475  -20.3492 C   0  0  0  0  0  0  0  0  0  0  0  0
  -17.2207  -46.8324  -20.3404 C   0  0  0  0  0  0  0  0  0  0  0  0
  -17.9088  -47.0317  -21.5587 C   0  0  0  0  0  0  0  0  0  0  0  0
  -17.7566  -45.8870  -22.3001 C   0  0  0  0  0  0  0  0  0  0  0  0
  -16.9563  -45.0287  -21.5960 N   0  0  0  0  0  0  0  0  0  0  0  0
  -15.2640  -40.5962  -22.5269 N   0  0  0  0  0  0  0  0  0  0  0  0
  -16.2646  -41.6022  -23.1096 C   0  0  0  0  0  0  0  0  0  0  0  0
  -16.7849  -42.5206  -22.6176 O   0  0  0  0  0  0  0  0  0  0  0  0
  -16.6034  -41.3253  -24.5435 C   0  0  0  0  0  0  0  0  0  0  0  0
  -15.7165  -40.8069  -25.4886 C   0  0  0  0  0  0  0  0  0  0  0  0
  -16.1826  -40.6330  -26.7863 C   0  0  0  0  0  0  0  0  0  0  0  0
  -17.4403  -40.9317  -27.1886 N   0  0  0  0  0  0  0  0  0  0  0  0
  -18.2666  -41.4363  -26.2518 C   0  0  0  0  0  0  0  0  0  0  0  0
  -17.8973  -41.6616  -24.9426 C   0  0  0  0  0  0  0  0  0  0  0  0
  1  2  1  0
  2  3  1  0
  2  4  1  0
  4  5  1  6
  5  6  1  0
  6  7  1  0
  7  8  2  0
  7  9  1  0
  9 10  1  0
 10 11  2  0
 11 12  1  0
 12 13  2  0
 13 14  1  0
  4 15  1  0
 15 16  1  0
 16 17  2  0
 16 18  1  0
 18 19  2  0
 19 20  1  0
 20 21  2  0
 21 22  1  0
 22 23  2  0
 14 10  1  0
 23 18  1  0
M  END
>  <fragmenstein_runtime>  (219) 
29.421253

>  <original ID>  (219) 
QQVUFOGGROOJOT-HNNXBMFYSA-N

>  <fragmenstein_error>  (219) 
None

>  <ref_pdb>  (219) 
d0472a

>  <Multi-SuCOS>  (219) 
0.405821

>  <SLURM_JOB_NAME>  (219) 
BulkDock.place:Flavi_NS5_RdRp:thumb_site_2_fstein_bulkdock_input_split1000_batch000

>  <HIPPO Compound ID>  (219) 
16164

>  <original SMILES>  (219) 
CC(C)[C@H](CNC(=O)Cc1ccc[nH]1)NC(=O)c1ccncc1

>  <name>  (219) 
QQVUFOGGROOJOT-HNNXBMFYSA-N

>  <HIPPO Pose ID>  (219) 
69028

>  <ref_mols>  (219) 
d0160a,d0472a

>  <exports>  (219) 
['/opt/xchem-fragalysis-2/maxwin/BulkDock/OUTPUTS/RdRp_knitwork_primer_grip_n_pocket_pure_fragalysis.sdf', '/opt/xchem-fragalysis-2/maxwin/RdRp_FFF/syndirella/Retro_OK_batch1.sdf']

>  <alias>  (219) 
None

>  <inchikey>  (219) 
QQVUFOGGROOJOT-HNNXBMFYSA-N

>  <energy_score>  (219) 
-66.400014

>  <distance_score>  (219) 
1.811798

>  <fragmenstein_outcome>  (219) 
acceptable

>  <merge_set>  (219) 
RdRp_knitwork_primer_grip_n_pocket_pure_fragalysis.sdf

>  <scratch_subdir>  (219) 
/opt/xchem-fragalysis-2/maxwin/BulkDock/SCRATCH/217914/C69028-P46

>  <SLURM_JOB_ID>  (219) 
217914

>  <tags>  (219) 
['Fragmenstein placed', 'RdRp_knitwork_primer_grip_n_pocket_pure_fragalysis.sdf Pose OK']

>  <fragmenstein_mode>  (219) 
expansion

>  <csv_name>  (219) 
thumb_site_2_fstein_bulkdock_input_split1000_batch000.csv

$$$$
QCBHBPRJFDZETI-LBPRGKRZSA-N
     RDKit          3D

 20 21  0  0  0  0  0  0  0  0999 V2000
  -14.9885  -39.0670  -24.0587 C   0  0  0  0  0  0  0  0  0  0  0  0
  -15.8116  -39.9639  -24.9203 C   0  0  0  0  0  0  0  0  0  0  0  0
  -15.8054  -39.8704  -26.3046 C   0  0  0  0  0  0  0  0  0  0  0  0
  -16.5151  -40.8156  -27.0315 C   0  0  0  0  0  0  0  0  0  0  0  0
  -17.2082  -41.8464  -26.4793 N   0  0  0  0  0  0  0  0  0  0  0  0
  -17.1861  -41.9134  -25.1300 C   0  0  0  0  0  0  0  0  0  0  0  0
  -17.5785  -43.0813  -24.5116 N   0  0  0  0  0  0  0  0  0  0  0  0
  -17.7070  -43.4271  -22.9962 C   0  0  0  0  0  0  0  0  0  0  0  0
  -17.5771  -42.7660  -22.0771 O   0  0  0  0  0  0  0  0  0  0  0  0
  -17.9607  -44.9529  -23.1047 N   0  0  0  0  0  0  0  0  0  0  0  0
  -18.0066  -45.9661  -22.0817 C   0  0  0  0  0  0  0  0  0  0  0  0
  -17.3408  -45.7288  -20.7139 C   0  0  2  0  0  0  0  0  0  0  0  0
  -18.3486  -44.9745  -19.8497 C   0  0  0  0  0  0  0  0  0  0  0  0
  -15.9582  -45.1187  -20.5602 C   0  0  0  0  0  0  0  0  0  0  0  0
  -15.1897  -44.6294  -21.6083 C   0  0  0  0  0  0  0  0  0  0  0  0
  -14.0227  -43.9180  -21.3303 C   0  0  0  0  0  0  0  0  0  0  0  0
  -13.6099  -43.7533  -20.0185 C   0  0  0  0  0  0  0  0  0  0  0  0
  -14.3751  -44.3396  -19.0343 C   0  0  0  0  0  0  0  0  0  0  0  0
  -15.5065  -45.0397  -19.2762 N   0  0  0  0  0  0  0  0  0  0  0  0
  -16.5398  -40.9841  -24.3320 C   0  0  0  0  0  0  0  0  0  0  0  0
  1  2  1  0
  2  3  2  0
  3  4  1  0
  4  5  2  0
  5  6  1  0
  6  7  1  0
  7  8  1  0
  8  9  2  0
  8 10  1  0
 10 11  1  0
 11 12  1  0
 12 13  1  1
 12 14  1  0
 14 15  2  0
 15 16  1  0
 16 17  2  0
 17 18  1  0
 18 19  2  0
  6 20  2  0
 20  2  1  0
 19 14  1  0
M  END
>  <fragmenstein_runtime>  (220) 
1.46965

>  <original ID>  (220) 
QCBHBPRJFDZETI-LBPRGKRZSA-N

>  <fragmenstein_error>  (220) 
None

>  <ref_pdb>  (220) 
d0472a

>  <Multi-SuCOS>  (220) 
0.495435

>  <SLURM_JOB_NAME>  (220) 
BulkDock.place:Flavi_NS5_RdRp:thumb_site_2_fstein_bulkdock_input_split1000_batch000

>  <HIPPO Compound ID>  (220) 
11677

>  <original SMILES>  (220) 
Cc1ccnc(NC(=O)NC[C@H](C)c2ccccn2)c1

>  <name>  (220) 
QCBHBPRJFDZETI-LBPRGKRZSA-N

>  <HIPPO Pose ID>  (220) 
69057

>  <ref_mols>  (220) 
d0160a,d0472a

>  <exports>  (220) 
['/opt/xchem-fragalysis-2/maxwin/BulkDock/OUTPUTS/RdRp_knitwork_primer_grip_n_pocket_pure_fragalysis.sdf', '/opt/xchem-fragalysis-2/maxwin/RdRp_FFF/syndirella/Retro_OK_batch1.sdf']

>  <alias>  (220) 
None

>  <inchikey>  (220) 
QCBHBPRJFDZETI-LBPRGKRZSA-N

>  <energy_score>  (220) 
-6.122039

>  <distance_score>  (220) 
1.746607

>  <fragmenstein_outcome>  (220) 
acceptable

>  <merge_set>  (220) 
RdRp_knitwork_primer_grip_n_pocket_pure_fragalysis.sdf

>  <scratch_subdir>  (220) 
/opt/xchem-fragalysis-2/maxwin/BulkDock/SCRATCH/217914/C69057-P48

>  <SLURM_JOB_ID>  (220) 
217914

>  <tags>  (220) 
['Fragmenstein placed', 'RdRp_knitwork_primer_grip_n_pocket_pure_fragalysis.sdf Pose OK']

>  <fragmenstein_mode>  (220) 
expansion

>  <csv_name>  (220) 
thumb_site_2_fstein_bulkdock_input_split1000_batch000.csv

$$$$
RHGXKFKNZMJLLI-UHFFFAOYSA-N
     RDKit          3D

 22 23  0  0  0  0  0  0  0  0999 V2000
   -9.4229  -38.9117  -25.1065 C   0  0  0  0  0  0  0  0  0  0  0  0
  -10.2158  -38.4008  -23.9794 O   0  0  0  0  0  0  0  0  0  0  0  0
   -9.9782  -38.5910  -22.5790 C   0  0  0  0  0  0  0  0  0  0  0  0
  -11.1359  -39.2045  -21.8099 C   0  0  0  0  0  0  0  0  0  0  0  0
  -12.0481  -38.2426  -21.2965 N   0  0  0  0  0  0  0  0  0  0  0  0
  -12.2153  -37.6786  -19.8601 C   0  0  0  0  0  0  0  0  0  0  0  0
  -11.5798  -37.8604  -18.8970 O   0  0  0  0  0  0  0  0  0  0  0  0
  -13.5197  -36.8522  -19.8796 C   0  0  0  0  0  0  0  0  0  0  0  0
  -14.7025  -37.7544  -19.7958 N   0  0  0  0  0  0  0  0  0  0  0  0
  -15.9619  -37.0218  -19.6579 C   0  0  0  0  0  0  0  0  0  0  0  0
  -14.7986  -38.6142  -20.9126 C   0  0  0  0  0  0  0  0  0  0  0  0
  -14.8826  -39.9866  -20.6989 C   0  0  0  0  0  0  0  0  0  0  0  0
  -15.0477  -40.8444  -21.7858 C   0  0  0  0  0  0  0  0  0  0  0  0
  -15.1411  -40.3204  -23.0754 C   0  0  0  0  0  0  0  0  0  0  0  0
  -15.6398  -41.0962  -24.2092 C   0  0  0  0  0  0  0  0  0  0  0  0
  -16.4635  -40.4771  -25.1544 C   0  0  0  0  0  0  0  0  0  0  0  0
  -17.1454  -41.2626  -26.0456 C   0  0  0  0  0  0  0  0  0  0  0  0
  -17.0588  -42.6046  -26.0819 N   0  0  0  0  0  0  0  0  0  0  0  0
  -16.1767  -43.1723  -25.2528 C   0  0  0  0  0  0  0  0  0  0  0  0
  -15.4547  -42.4744  -24.3080 C   0  0  0  0  0  0  0  0  0  0  0  0
  -14.9300  -38.9549  -23.1874 C   0  0  0  0  0  0  0  0  0  0  0  0
  -14.7483  -38.0940  -22.1555 N   0  0  0  0  0  0  0  0  0  0  0  0
  1  2  1  0
  2  3  1  0
  3  4  1  0
  4  5  1  0
  5  6  1  0
  6  7  2  0
  6  8  1  0
  8  9  1  0
  9 10  1  0
  9 11  1  0
 11 12  2  0
 12 13  1  0
 13 14  2  0
 14 15  1  0
 15 16  2  0
 16 17  1  0
 17 18  2  0
 18 19  1  0
 19 20  2  0
 14 21  1  0
 21 22  2  0
 22 11  1  0
 20 15  1  0
M  END
>  <fragmenstein_runtime>  (221) 
10.175415

>  <original ID>  (221) 
RHGXKFKNZMJLLI-UHFFFAOYSA-N

>  <fragmenstein_error>  (221) 
None

>  <ref_pdb>  (221) 
d0191a

>  <Multi-SuCOS>  (221) 
0.240098

>  <SLURM_JOB_NAME>  (221) 
BulkDock.place:Flavi_NS5_RdRp:thumb_site_2_fstein_bulkdock_input_split1000_batch000

>  <HIPPO Compound ID>  (221) 
26114

>  <original SMILES>  (221) 
COCCNC(=O)CN(C)c1ccc(-c2ccncc2)cn1

>  <name>  (221) 
RHGXKFKNZMJLLI-UHFFFAOYSA-N

>  <HIPPO Pose ID>  (221) 
69115

>  <ref_mols>  (221) 
d0160a,d0191a

>  <exports>  (221) 
['/opt/xchem-fragalysis-2/maxwin/BulkDock/OUTPUTS/RdRp_knitwork_primer_grip_n_pocket_pure_fragalysis.sdf', '/opt/xchem-fragalysis-2/maxwin/RdRp_FFF/syndirella/Retro_OK_batch1.sdf']

>  <alias>  (221) 
None

>  <inchikey>  (221) 
RHGXKFKNZMJLLI-UHFFFAOYSA-N

>  <energy_score>  (221) 
-10.188756

>  <distance_score>  (221) 
1.912154

>  <fragmenstein_outcome>  (221) 
acceptable

>  <merge_set>  (221) 
RdRp_knitwork_primer_grip_n_pocket_pure_fragalysis.sdf

>  <scratch_subdir>  (221) 
/opt/xchem-fragalysis-2/maxwin/BulkDock/SCRATCH/217914/C69115-P53

>  <SLURM_JOB_ID>  (221) 
217914

>  <tags>  (221) 
['Fragmenstein placed', 'RdRp_knitwork_primer_grip_n_pocket_pure_fragalysis.sdf Pose OK']

>  <fragmenstein_mode>  (221) 
expansion

>  <csv_name>  (221) 
thumb_site_2_fstein_bulkdock_input_split1000_batch000.csv

$$$$
JXVNKNVHNMVNRQ-UHFFFAOYSA-N
     RDKit          3D

 18 19  0  0  0  0  0  0  0  0999 V2000
  -15.5122  -39.6242  -26.7351 O   0  0  0  0  0  0  0  0  0  0  0  0
  -15.2446  -39.9941  -25.6053 C   0  0  0  0  0  0  0  0  0  0  0  0
  -14.3442  -39.3358  -24.8475 O   0  0  0  0  0  0  0  0  0  0  0  0
  -15.8355  -41.0867  -24.8850 C   0  0  0  0  0  0  0  0  0  0  0  0
  -16.9587  -41.8126  -25.2387 C   0  0  0  0  0  0  0  0  0  0  0  0
  -17.2690  -42.6792  -24.1658 C   0  0  0  0  0  0  0  0  0  0  0  0
  -18.7215  -43.6038  -24.0861 S   0  0  0  0  0  0  0  0  0  0  0  0
  -19.7473  -42.6010  -23.9709 O   0  0  0  0  0  0  0  0  0  0  0  0
  -18.6552  -44.5201  -25.2032 O   0  0  0  0  0  0  0  0  0  0  0  0
  -18.7009  -44.4854  -22.6602 N   0  0  0  0  0  0  0  0  0  0  0  0
  -17.7800  -45.6209  -22.7136 C   0  0  0  0  0  0  0  0  0  0  0  0
  -17.3523  -45.9931  -21.3418 C   0  0  0  0  0  0  0  0  0  0  0  0
  -16.9779  -45.1338  -20.4171 N   0  0  0  0  0  0  0  0  0  0  0  0
  -16.5857  -45.8283  -19.2929 C   0  0  0  0  0  0  0  0  0  0  0  0
  -16.6533  -47.1997  -19.3810 C   0  0  0  0  0  0  0  0  0  0  0  0
  -17.2062  -47.6398  -20.9270 S   0  0  0  0  0  0  0  0  0  0  0  0
  -16.2739  -42.5460  -23.2159 C   0  0  0  0  0  0  0  0  0  0  0  0
  -15.3976  -41.5921  -23.6779 N   0  0  0  0  0  0  0  0  0  0  0  0
  1  2  2  0
  2  3  1  0
  2  4  1  0
  4  5  2  0
  5  6  1  0
  6  7  1  0
  7  8  2  0
  7  9  2  0
  7 10  1  0
 10 11  1  0
 11 12  1  0
 12 13  2  0
 13 14  1  0
 14 15  2  0
 15 16  1  0
  6 17  2  0
 17 18  1  0
 18  4  1  0
 16 12  1  0
M  END
>  <fragmenstein_runtime>  (222) 
7.674559

>  <original ID>  (222) 
JXVNKNVHNMVNRQ-UHFFFAOYSA-N

>  <fragmenstein_error>  (222) 
None

>  <ref_pdb>  (222) 
d0472a

>  <Multi-SuCOS>  (222) 
0.372428

>  <SLURM_JOB_NAME>  (222) 
BulkDock.place:Flavi_NS5_RdRp:thumb_site_2_fstein_bulkdock_input_split1000_batch000

>  <HIPPO Compound ID>  (222) 
10384

>  <original SMILES>  (222) 
O=C(O)c1cc(S(=O)(=O)NCc2nccs2)c[nH]1

>  <name>  (222) 
JXVNKNVHNMVNRQ-UHFFFAOYSA-N

>  <HIPPO Pose ID>  (222) 
69116

>  <ref_mols>  (222) 
d0472a,d0615b

>  <exports>  (222) 
['/opt/xchem-fragalysis-2/maxwin/BulkDock/OUTPUTS/RdRp_knitwork_primer_grip_n_pocket_pure_fragalysis.sdf', '/opt/xchem-fragalysis-2/maxwin/RdRp_FFF/syndirella/Retro_OK_batch1.sdf']

>  <alias>  (222) 
None

>  <inchikey>  (222) 
JXVNKNVHNMVNRQ-UHFFFAOYSA-N

>  <energy_score>  (222) 
-246.41679

>  <distance_score>  (222) 
1.480138

>  <fragmenstein_outcome>  (222) 
acceptable

>  <merge_set>  (222) 
RdRp_knitwork_primer_grip_n_pocket_pure_fragalysis.sdf

>  <scratch_subdir>  (222) 
/opt/xchem-fragalysis-2/maxwin/BulkDock/SCRATCH/217914/C69116-P52

>  <SLURM_JOB_ID>  (222) 
217914

>  <tags>  (222) 
['Fragmenstein placed', 'RdRp_knitwork_primer_grip_n_pocket_pure_fragalysis.sdf Pose OK']

>  <fragmenstein_mode>  (222) 
expansion

>  <csv_name>  (222) 
thumb_site_2_fstein_bulkdock_input_split1000_batch000.csv

$$$$
XKQGFFJHKNLDLD-NSHDSACASA-N
     RDKit          3D

 23 26  0  0  0  0  0  0  0  0999 V2000
  -18.1397  -44.1209  -19.1650 O   0  0  0  0  0  0  0  0  0  0  0  0
  -18.0287  -45.0214  -19.9860 C   0  0  0  0  0  0  0  0  0  0  0  0
  -19.1158  -45.2589  -21.0206 C   0  0  0  0  0  0  0  0  0  0  0  0
  -18.4940  -45.1360  -22.3498 N   0  0  0  0  0  0  0  0  0  0  0  0
  -18.0384  -43.8950  -22.7588 C   0  0  0  0  0  0  0  0  0  0  0  0
  -17.3033  -43.6959  -23.8367 N   0  0  0  0  0  0  0  0  0  0  0  0
  -16.9589  -42.3451  -23.9334 C   0  0  0  0  0  0  0  0  0  0  0  0
  -15.9900  -41.9254  -24.9819 C   0  0  1  0  0  0  0  0  0  0  0  0
  -16.0229  -40.4605  -25.3417 C   0  0  0  0  0  0  0  0  0  0  0  0
  -15.1531  -39.8157  -24.2745 C   0  0  0  0  0  0  0  0  0  0  0  0
  -14.3082  -40.8382  -23.7201 O   0  0  0  0  0  0  0  0  0  0  0  0
  -14.5919  -42.0561  -24.4221 C   0  0  0  0  0  0  0  0  0  0  0  0
  -17.3636  -41.5060  -22.9812 N   0  0  0  0  0  0  0  0  0  0  0  0
  -18.2395  -42.3905  -21.8969 S   0  0  0  0  0  0  0  0  0  0  0  0
  -17.5403  -46.2412  -22.5657 C   0  0  0  0  0  0  0  0  0  0  0  0
  -16.9613  -46.7823  -21.2401 C   0  0  0  0  0  0  0  0  0  0  0  0
  -16.8760  -45.7887  -20.1882 N   0  0  0  0  0  0  0  0  0  0  0  0
  -15.6558  -45.1043  -19.9622 C   0  0  0  0  0  0  0  0  0  0  0  0
  -14.9373  -44.4964  -20.9892 C   0  0  0  0  0  0  0  0  0  0  0  0
  -13.8083  -43.7452  -20.6759 C   0  0  0  0  0  0  0  0  0  0  0  0
  -13.4067  -43.6703  -19.3529 C   0  0  0  0  0  0  0  0  0  0  0  0
  -14.0667  -44.2661  -18.3325 N   0  0  0  0  0  0  0  0  0  0  0  0
  -15.1952  -44.9349  -18.6621 C   0  0  0  0  0  0  0  0  0  0  0  0
  1  2  2  0
  2  3  1  0
  3  4  1  0
  4  5  1  0
  5  6  2  0
  6  7  1  0
  8  7  1  1
  8  9  1  0
  9 10  1  0
 10 11  1  0
 11 12  1  0
  7 13  2  0
 13 14  1  0
  4 15  1  0
 15 16  1  0
 16 17  1  0
 17 18  1  0
 18 19  2  0
 19 20  1  0
 20 21  2  0
 21 22  1  0
 22 23  2  0
 17  2  1  0
 23 18  1  0
 14  5  1  0
 12  8  1  0
M  END
>  <fragmenstein_runtime>  (223) 
3.312843

>  <original ID>  (223) 
XKQGFFJHKNLDLD-NSHDSACASA-N

>  <fragmenstein_error>  (223) 
None

>  <ref_pdb>  (223) 
d0254a

>  <Multi-SuCOS>  (223) 
0.426902

>  <SLURM_JOB_NAME>  (223) 
BulkDock.place:Flavi_NS5_RdRp:thumb_site_2_fstein_bulkdock_input_split1000_batch000

>  <HIPPO Compound ID>  (223) 
16185

>  <original SMILES>  (223) 
O=C1CN(c2nc([C@H]3CCOC3)ns2)CCN1c1cccnc1

>  <name>  (223) 
XKQGFFJHKNLDLD-NSHDSACASA-N

>  <HIPPO Pose ID>  (223) 
69215

>  <ref_mols>  (223) 
d0254a,d0472a

>  <exports>  (223) 
['/opt/xchem-fragalysis-2/maxwin/BulkDock/OUTPUTS/RdRp_knitwork_primer_grip_n_pocket_pure_fragalysis.sdf', '/opt/xchem-fragalysis-2/maxwin/RdRp_FFF/syndirella/Retro_OK_batch1.sdf']

>  <alias>  (223) 
None

>  <inchikey>  (223) 
XKQGFFJHKNLDLD-NSHDSACASA-N

>  <energy_score>  (223) 
-59.658355

>  <distance_score>  (223) 
1.695289

>  <fragmenstein_outcome>  (223) 
acceptable

>  <merge_set>  (223) 
RdRp_knitwork_primer_grip_n_pocket_pure_fragalysis.sdf

>  <scratch_subdir>  (223) 
/opt/xchem-fragalysis-2/maxwin/BulkDock/SCRATCH/217914/C69215-P59

>  <SLURM_JOB_ID>  (223) 
217914

>  <tags>  (223) 
['Fragmenstein placed', 'RdRp_knitwork_primer_grip_n_pocket_pure_fragalysis.sdf Pose OK']

>  <fragmenstein_mode>  (223) 
expansion

>  <csv_name>  (223) 
thumb_site_2_fstein_bulkdock_input_split1000_batch000.csv

$$$$
DLXWTSZYEMBMBI-JTQLQIEISA-N
     RDKit          3D

 22 23  0  0  0  0  0  0  0  0999 V2000
  -15.0461  -39.1987  -26.2959 C   0  0  0  0  0  0  0  0  0  0  0  0
  -15.8283  -40.4794  -26.4046 C   0  0  0  0  0  0  0  0  0  0  0  0
  -16.3680  -40.8352  -27.3739 O   0  0  0  0  0  0  0  0  0  0  0  0
  -15.6737  -41.1818  -25.0217 N   0  0  0  0  0  0  0  0  0  0  0  0
  -16.2311  -42.4103  -24.5351 C   0  0  0  0  0  0  0  0  0  0  0  0
  -17.6834  -42.1256  -24.1989 C   0  0  0  0  0  0  0  0  0  0  0  0
  -18.6053  -43.3230  -24.3659 C   0  0  2  0  0  0  0  0  0  0  0  0
  -20.0361  -42.8506  -24.2739 C   0  0  0  0  0  0  0  0  0  0  0  0
  -18.3635  -44.3345  -23.3712 N   0  0  0  0  0  0  0  0  0  0  0  0
  -18.6724  -44.3485  -21.8726 C   0  0  0  0  0  0  0  0  0  0  0  0
  -19.2428  -43.5780  -21.2102 O   0  0  0  0  0  0  0  0  0  0  0  0
  -18.0153  -45.5143  -21.3028 C   0  0  0  0  0  0  0  0  0  0  0  0
  -18.3911  -46.2767  -20.2139 C   0  0  0  0  0  0  0  0  0  0  0  0
  -16.9274  -46.8662  -19.4763 S   0  0  0  0  0  0  0  0  0  0  0  0
  -16.0695  -45.8429  -20.5677 C   0  0  0  0  0  0  0  0  0  0  0  0
  -14.9766  -44.9546  -20.1627 C   0  0  0  0  0  0  0  0  0  0  0  0
  -14.4551  -44.0439  -21.0846 C   0  0  0  0  0  0  0  0  0  0  0  0
  -13.5405  -43.0946  -20.6494 C   0  0  0  0  0  0  0  0  0  0  0  0
  -13.2004  -43.0555  -19.3076 C   0  0  0  0  0  0  0  0  0  0  0  0
  -13.7817  -43.9781  -18.4570 C   0  0  0  0  0  0  0  0  0  0  0  0
  -14.6372  -44.9462  -18.8498 N   0  0  0  0  0  0  0  0  0  0  0  0
  -16.7207  -45.7451  -21.7088 N   0  0  0  0  0  0  0  0  0  0  0  0
  1  2  1  0
  2  3  2  0
  2  4  1  0
  4  5  1  0
  5  6  1  0
  6  7  1  0
  7  8  1  1
  7  9  1  0
  9 10  1  0
 10 11  2  0
 10 12  1  0
 12 13  2  0
 13 14  1  0
 14 15  1  0
 15 16  1  0
 16 17  2  0
 17 18  1  0
 18 19  2  0
 19 20  1  0
 20 21  2  0
 15 22  2  0
 22 12  1  0
 21 16  1  0
M  END
>  <fragmenstein_runtime>  (224) 
16.101909

>  <original ID>  (224) 
DLXWTSZYEMBMBI-JTQLQIEISA-N

>  <fragmenstein_error>  (224) 
None

>  <ref_pdb>  (224) 
d0472a

>  <Multi-SuCOS>  (224) 
0.403206

>  <SLURM_JOB_NAME>  (224) 
BulkDock.place:Flavi_NS5_RdRp:thumb_site_2_fstein_bulkdock_input_split1000_batch000

>  <HIPPO Compound ID>  (224) 
13838

>  <original SMILES>  (224) 
CC(=O)NCC[C@H](C)NC(=O)c1csc(-c2ccccn2)n1

>  <name>  (224) 
DLXWTSZYEMBMBI-JTQLQIEISA-N

>  <HIPPO Pose ID>  (224) 
69322

>  <ref_mols>  (224) 
d0472a,d0615b

>  <exports>  (224) 
['/opt/xchem-fragalysis-2/maxwin/BulkDock/OUTPUTS/RdRp_knitwork_primer_grip_n_pocket_pure_fragalysis.sdf', '/opt/xchem-fragalysis-2/maxwin/RdRp_FFF/syndirella/Retro_OK_batch1.sdf']

>  <alias>  (224) 
None

>  <inchikey>  (224) 
DLXWTSZYEMBMBI-JTQLQIEISA-N

>  <energy_score>  (224) 
-16.955955

>  <distance_score>  (224) 
1.767292

>  <fragmenstein_outcome>  (224) 
acceptable

>  <merge_set>  (224) 
RdRp_knitwork_primer_grip_n_pocket_pure_fragalysis.sdf

>  <scratch_subdir>  (224) 
/opt/xchem-fragalysis-2/maxwin/BulkDock/SCRATCH/217914/C69322-P224

>  <SLURM_JOB_ID>  (224) 
217914

>  <tags>  (224) 
['Fragmenstein placed', 'RdRp_knitwork_primer_grip_n_pocket_pure_fragalysis.sdf Pose OK']

>  <fragmenstein_mode>  (224) 
expansion

>  <csv_name>  (224) 
thumb_site_2_fstein_bulkdock_input_split1000_batch000.csv

$$$$
SAGLKOKISYDMQR-UHFFFAOYSA-N
     RDKit          3D

 21 22  0  0  0  0  0  0  0  0999 V2000
  -19.2889  -44.4349  -20.0111 C   0  0  0  0  0  0  0  0  0  0  0  0
  -19.2159  -45.2025  -21.3102 C   0  0  0  0  0  0  0  0  0  0  0  0
  -17.8986  -45.0755  -21.9737 N   0  0  0  0  0  0  0  0  0  0  0  0
  -16.9941  -45.9991  -21.2525 C   0  0  0  0  0  0  0  0  0  0  0  0
  -15.5328  -45.7533  -21.3400 C   0  0  0  0  0  0  0  0  0  0  0  0
  -14.9606  -44.6987  -20.4443 C   0  0  0  0  0  0  0  0  0  0  0  0
  -13.9440  -43.8747  -20.9270 C   0  0  0  0  0  0  0  0  0  0  0  0
  -13.3773  -42.9329  -20.0846 C   0  0  0  0  0  0  0  0  0  0  0  0
  -13.8424  -42.8338  -18.7871 C   0  0  0  0  0  0  0  0  0  0  0  0
  -14.8440  -43.7010  -18.3864 C   0  0  0  0  0  0  0  0  0  0  0  0
  -15.3818  -44.6655  -19.1623 N   0  0  0  0  0  0  0  0  0  0  0  0
  -17.5731  -43.4457  -22.4521 S   0  0  0  0  0  0  0  0  0  0  0  0
  -17.0522  -42.7261  -21.3118 O   0  0  0  0  0  0  0  0  0  0  0  0
  -18.7997  -42.9895  -23.0808 O   0  0  0  0  0  0  0  0  0  0  0  0
  -16.3106  -43.5272  -23.7293 C   0  0  0  0  0  0  0  0  0  0  0  0
  -16.4055  -42.4034  -24.7377 C   0  0  0  0  0  0  0  0  0  0  0  0
  -15.4547  -41.3782  -24.7863 C   0  0  0  0  0  0  0  0  0  0  0  0
  -15.4910  -40.4394  -25.8188 C   0  0  0  0  0  0  0  0  0  0  0  0
  -16.4802  -40.5532  -26.7819 C   0  0  0  0  0  0  0  0  0  0  0  0
  -17.4356  -41.5088  -26.7627 N   0  0  0  0  0  0  0  0  0  0  0  0
  -17.3775  -42.3985  -25.7388 C   0  0  0  0  0  0  0  0  0  0  0  0
  1  2  1  0
  2  3  1  0
  3  4  1  0
  4  5  1  0
  5  6  1  0
  6  7  2  0
  7  8  1  0
  8  9  2  0
  9 10  1  0
 10 11  2  0
  3 12  1  0
 12 13  2  0
 12 14  2  0
 12 15  1  0
 15 16  1  0
 16 17  2  0
 17 18  1  0
 18 19  2  0
 19 20  1  0
 20 21  2  0
 11  6  1  0
 21 16  1  0
M  END
>  <fragmenstein_runtime>  (225) 
1.726148

>  <original ID>  (225) 
SAGLKOKISYDMQR-UHFFFAOYSA-N

>  <fragmenstein_error>  (225) 
None

>  <ref_pdb>  (225) 
d0160a

>  <Multi-SuCOS>  (225) 
0.426346

>  <SLURM_JOB_NAME>  (225) 
BulkDock.place:Flavi_NS5_RdRp:RdRp_RS_thumb_merges_split1000_batch000

>  <HIPPO Compound ID>  (225) 
12433

>  <original SMILES>  (225) 
CCN(CCc1ccccn1)S(=O)(=O)Cc1cccnc1

>  <name>  (225) 
SAGLKOKISYDMQR-UHFFFAOYSA-N

>  <HIPPO Pose ID>  (225) 
69357

>  <ref_mols>  (225) 
d0160a,d0472a

>  <exports>  (225) 
['/opt/xchem-fragalysis-2/maxwin/BulkDock/OUTPUTS/RdRp_knitwork_primer_grip_n_pocket_pure_fragalysis.sdf', '/opt/xchem-fragalysis-2/maxwin/RdRp_FFF/syndirella/Retro_OK_batch1.sdf']

>  <alias>  (225) 
None

>  <inchikey>  (225) 
SAGLKOKISYDMQR-UHFFFAOYSA-N

>  <energy_score>  (225) 
-9.64857

>  <distance_score>  (225) 
1.562452

>  <fragmenstein_outcome>  (225) 
acceptable

>  <merge_set>  (225) 
RdRp_knitwork_primer_grip_n_pocket_pure_fragalysis.sdf

>  <scratch_subdir>  (225) 
/opt/xchem-fragalysis-2/maxwin/BulkDock/SCRATCH/217951/C69357-P79

>  <SLURM_JOB_ID>  (225) 
217951

>  <tags>  (225) 
['Fragmenstein placed', 'RdRp_knitwork_primer_grip_n_pocket_pure_fragalysis.sdf Pose OK']

>  <fragmenstein_mode>  (225) 
expansion

>  <csv_name>  (225) 
RdRp_RS_thumb_merges_split1000_batch000.csv

$$$$
FJIZSRBICNYNGK-UHFFFAOYSA-N
     RDKit          3D

 14 15  0  0  0  0  0  0  0  0999 V2000
  -16.3978  -46.4739  -21.0360 N   0  0  0  0  0  0  0  0  0  0  0  0
  -15.8545  -45.3369  -20.4469 C   0  0  0  0  0  0  0  0  0  0  0  0
  -15.9081  -44.1101  -21.0950 C   0  0  0  0  0  0  0  0  0  0  0  0
  -15.4613  -42.9733  -20.4261 C   0  0  0  0  0  0  0  0  0  0  0  0
  -15.5572  -41.7021  -21.0300 N   0  0  0  0  0  0  0  0  0  0  0  0
  -14.4667  -41.4244  -21.9887 C   0  0  0  0  0  0  0  0  0  0  0  0
  -13.1515  -41.0405  -21.3702 C   0  0  0  0  0  0  0  0  0  0  0  0
  -12.3035  -41.8411  -20.6387 C   0  0  0  0  0  0  0  0  0  0  0  0
  -11.2821  -41.0375  -20.2293 N   0  0  0  0  0  0  0  0  0  0  0  0
  -11.5216  -39.7942  -20.7408 C   0  0  0  0  0  0  0  0  0  0  0  0
  -12.6318  -39.7637  -21.4462 N   0  0  0  0  0  0  0  0  0  0  0  0
  -14.8998  -43.1309  -19.1618 C   0  0  0  0  0  0  0  0  0  0  0  0
  -14.8222  -44.4040  -18.6269 C   0  0  0  0  0  0  0  0  0  0  0  0
  -15.2815  -45.5113  -19.2436 N   0  0  0  0  0  0  0  0  0  0  0  0
  1  2  1  0
  2  3  2  0
  3  4  1  0
  4  5  1  0
  5  6  1  0
  6  7  1  0
  7  8  2  0
  8  9  1  0
  9 10  1  0
 10 11  2  0
  4 12  2  0
 12 13  1  0
 13 14  2  0
 14  2  1  0
 11  7  1  0
M  END
>  <fragmenstein_runtime>  (226) 
1.807809

>  <original ID>  (226) 
FJIZSRBICNYNGK-UHFFFAOYSA-N

>  <fragmenstein_error>  (226) 
None

>  <ref_pdb>  (226) 
d0472a

>  <Multi-SuCOS>  (226) 
0.51868

>  <SLURM_JOB_NAME>  (226) 
BulkDock.place:Flavi_NS5_RdRp:RdRp_knitwork_primer_grip_n_pocket_pure_split1800_batch006

>  <HIPPO Compound ID>  (226) 
12483

>  <original SMILES>  (226) 
Nc1cc(NCc2c[nH]cn2)ccn1

>  <name>  (226) 
FJIZSRBICNYNGK-UHFFFAOYSA-N

>  <HIPPO Pose ID>  (226) 
69503

>  <ref_mols>  (226) 
d0472a,z0875c

>  <exports>  (226) 
['/opt/xchem-fragalysis-2/maxwin/BulkDock/OUTPUTS/RdRp_knitwork_primer_grip_n_pocket_pure_split1800_batch006_217040.sdf', '/opt/xchem-fragalysis-2/maxwin/BulkDock/OUTPUTS/RdRp_knitwork_primer_grip_n_pocket_pure_fragalysis.sdf', '/opt/xchem-fragalysis-2/maxwin/RdRp_FFF/syndirella/Retro_OK_batch1.sdf']

>  <alias>  (226) 
None

>  <inchikey>  (226) 
FJIZSRBICNYNGK-UHFFFAOYSA-N

>  <energy_score>  (226) 
-17.539288

>  <distance_score>  (226) 
0.992544

>  <fragmenstein_outcome>  (226) 
acceptable

>  <merge_set>  (226) 
RdRp_knitwork_primer_grip_n_pocket_pure_fragalysis.sdf

>  <scratch_subdir>  (226) 
/opt/xchem-fragalysis-2/maxwin/BulkDock/SCRATCH/217040/C12483-P42

>  <SLURM_JOB_ID>  (226) 
217040

>  <tags>  (226) 
['Fragmenstein placed', 'RdRp_knitwork_primer_grip_n_pocket_pure_fragalysis.sdf Pose OK']

>  <fragmenstein_mode>  (226) 
expansion

>  <csv_name>  (226) 
RdRp_knitwork_primer_grip_n_pocket_pure_split1800_batch006.csv

$$$$
DJVQSQXCKGQNJE-UHFFFAOYSA-N
     RDKit          3D

 14 15  0  0  0  0  0  0  0  0999 V2000
  -16.2378  -43.8993  -22.7721 C   0  0  0  0  0  0  0  0  0  0  0  0
  -15.7749  -44.0430  -21.3554 C   0  0  0  0  0  0  0  0  0  0  0  0
  -15.6875  -45.3164  -20.7945 C   0  0  0  0  0  0  0  0  0  0  0  0
  -15.2518  -45.5909  -19.5423 N   0  0  0  0  0  0  0  0  0  0  0  0
  -14.9008  -44.5233  -18.8014 C   0  0  0  0  0  0  0  0  0  0  0  0
  -14.9674  -43.2141  -19.2505 C   0  0  0  0  0  0  0  0  0  0  0  0
  -15.4165  -42.9565  -20.5506 C   0  0  0  0  0  0  0  0  0  0  0  0
  -15.4956  -41.6251  -21.0125 N   0  0  0  0  0  0  0  0  0  0  0  0
  -14.4198  -41.2328  -21.9463 C   0  0  0  0  0  0  0  0  0  0  0  0
  -13.0910  -40.9331  -21.3184 C   0  0  0  0  0  0  0  0  0  0  0  0
  -12.2832  -41.7915  -20.6074 C   0  0  0  0  0  0  0  0  0  0  0  0
  -11.2191  -41.0488  -20.1908 N   0  0  0  0  0  0  0  0  0  0  0  0
  -11.3952  -39.7858  -20.6790 C   0  0  0  0  0  0  0  0  0  0  0  0
  -12.5043  -39.6855  -21.3790 N   0  0  0  0  0  0  0  0  0  0  0  0
  1  2  1  0
  2  3  2  0
  3  4  1  0
  4  5  2  0
  5  6  1  0
  6  7  2  0
  7  8  1  0
  8  9  1  0
  9 10  1  0
 10 11  2  0
 11 12  1  0
 12 13  1  0
 13 14  2  0
  7  2  1  0
 14 10  1  0
M  END
>  <fragmenstein_runtime>  (227) 
1.837259

>  <original ID>  (227) 
DJVQSQXCKGQNJE-UHFFFAOYSA-N

>  <fragmenstein_error>  (227) 
None

>  <ref_pdb>  (227) 
d0472a

>  <Multi-SuCOS>  (227) 
0.512124

>  <SLURM_JOB_NAME>  (227) 
BulkDock.place:Flavi_NS5_RdRp:RdRp_knitwork_primer_grip_n_pocket_pure_split1800_batch006

>  <HIPPO Compound ID>  (227) 
12548

>  <original SMILES>  (227) 
Cc1cnccc1NCc1c[nH]cn1

>  <name>  (227) 
DJVQSQXCKGQNJE-UHFFFAOYSA-N

>  <HIPPO Pose ID>  (227) 
69511

>  <ref_mols>  (227) 
d0472a,z0875c

>  <exports>  (227) 
['/opt/xchem-fragalysis-2/maxwin/BulkDock/OUTPUTS/RdRp_knitwork_primer_grip_n_pocket_pure_split1800_batch006_217040.sdf', '/opt/xchem-fragalysis-2/maxwin/BulkDock/OUTPUTS/RdRp_knitwork_primer_grip_n_pocket_pure_fragalysis.sdf', '/opt/xchem-fragalysis-2/maxwin/RdRp_FFF/syndirella/Retro_OK_batch1.sdf']

>  <alias>  (227) 
None

>  <inchikey>  (227) 
DJVQSQXCKGQNJE-UHFFFAOYSA-N

>  <energy_score>  (227) 
-27.523897

>  <distance_score>  (227) 
0.997294

>  <fragmenstein_outcome>  (227) 
acceptable

>  <merge_set>  (227) 
RdRp_knitwork_primer_grip_n_pocket_pure_fragalysis.sdf

>  <scratch_subdir>  (227) 
/opt/xchem-fragalysis-2/maxwin/BulkDock/SCRATCH/217040/C12548-P42

>  <SLURM_JOB_ID>  (227) 
217040

>  <tags>  (227) 
['Fragmenstein placed', 'RdRp_knitwork_primer_grip_n_pocket_pure_fragalysis.sdf Pose OK']

>  <fragmenstein_mode>  (227) 
expansion

>  <csv_name>  (227) 
RdRp_knitwork_primer_grip_n_pocket_pure_split1800_batch006.csv

$$$$
DVZVZQKDSZQBFI-UHFFFAOYSA-N
     RDKit          3D

 12 13  0  0  0  0  0  0  0  0999 V2000
  -15.6115  -40.5490  -25.9421 N   0  0  0  0  0  0  0  0  0  0  0  0
  -15.5737  -41.2194  -24.9975 C   0  0  0  0  0  0  0  0  0  0  0  0
  -15.6025  -42.0644  -23.8536 C   0  0  0  0  0  0  0  0  0  0  0  0
  -14.8566  -41.9491  -22.7026 C   0  0  0  0  0  0  0  0  0  0  0  0
  -15.2047  -43.0317  -21.8621 C   0  0  0  0  0  0  0  0  0  0  0  0
  -16.1800  -43.7764  -22.4983 C   0  0  0  0  0  0  0  0  0  0  0  0
  -16.8231  -44.9680  -22.0197 C   0  0  0  0  0  0  0  0  0  0  0  0
  -16.3663  -45.6238  -20.9714 N   0  0  0  0  0  0  0  0  0  0  0  0
  -17.1455  -46.7354  -20.7313 C   0  0  0  0  0  0  0  0  0  0  0  0
  -18.1817  -46.9253  -21.6149 C   0  0  0  0  0  0  0  0  0  0  0  0
  -18.2349  -45.6280  -22.7310 S   0  0  0  0  0  0  0  0  0  0  0  0
  -16.4118  -43.1675  -23.7164 N   0  0  0  0  0  0  0  0  0  0  0  0
  1  2  3  0
  2  3  1  0
  3  4  2  0
  4  5  1  0
  5  6  2  0
  6  7  1  0
  7  8  2  0
  8  9  1  0
  9 10  2  0
 10 11  1  0
  6 12  1  0
 12  3  1  0
 11  7  1  0
M  END
>  <fragmenstein_runtime>  (228) 
1.733986

>  <original ID>  (228) 
DVZVZQKDSZQBFI-UHFFFAOYSA-N

>  <fragmenstein_error>  (228) 
None

>  <ref_pdb>  (228) 
d0472a

>  <Multi-SuCOS>  (228) 
0.572528

>  <SLURM_JOB_NAME>  (228) 
BulkDock.place:Flavi_NS5_RdRp:RdRp_knitwork_primer_grip_n_pocket_pure_split1800_batch012

>  <HIPPO Compound ID>  (228) 
25743

>  <original SMILES>  (228) 
N#Cc1ccc(-c2nccs2)[nH]1

>  <name>  (228) 
DVZVZQKDSZQBFI-UHFFFAOYSA-N

>  <HIPPO Pose ID>  (228) 
69558

>  <ref_mols>  (228) 
d0472a,d0615b

>  <exports>  (228) 
['/opt/xchem-fragalysis-2/maxwin/BulkDock/OUTPUTS/RdRp_knitwork_primer_grip_n_pocket_pure_split1800_batch012_217046.sdf', '/opt/xchem-fragalysis-2/maxwin/BulkDock/OUTPUTS/RdRp_knitwork_primer_grip_n_pocket_pure_fragalysis.sdf', '/opt/xchem-fragalysis-2/maxwin/RdRp_FFF/syndirella/Retro_OK_batch1.sdf']

>  <alias>  (228) 
None

>  <inchikey>  (228) 
DVZVZQKDSZQBFI-UHFFFAOYSA-N

>  <energy_score>  (228) 
-60.776808

>  <distance_score>  (228) 
0.902807

>  <fragmenstein_outcome>  (228) 
acceptable

>  <merge_set>  (228) 
RdRp_knitwork_primer_grip_n_pocket_pure_fragalysis.sdf

>  <scratch_subdir>  (228) 
/opt/xchem-fragalysis-2/maxwin/BulkDock/SCRATCH/217046/C25743-P42

>  <SLURM_JOB_ID>  (228) 
217046

>  <tags>  (228) 
['Fragmenstein placed', 'RdRp_knitwork_primer_grip_n_pocket_pure_fragalysis.sdf Pose OK']

>  <fragmenstein_mode>  (228) 
expansion

>  <csv_name>  (228) 
RdRp_knitwork_primer_grip_n_pocket_pure_split1800_batch012.csv

$$$$
SLDQZNAKFVSJAT-UHFFFAOYSA-N
     RDKit          3D

 14 15  0  0  0  0  0  0  0  0999 V2000
  -14.7559  -39.3276  -23.4576 C   0  0  0  0  0  0  0  0  0  0  0  0
  -14.8193  -40.7405  -23.8434 N   0  0  0  0  0  0  0  0  0  0  0  0
  -15.7669  -40.9316  -24.9017 C   0  0  0  0  0  0  0  0  0  0  0  0
  -17.0020  -41.5536  -24.7023 C   0  0  0  0  0  0  0  0  0  0  0  0
  -17.8797  -41.6717  -25.7740 C   0  0  0  0  0  0  0  0  0  0  0  0
  -17.6366  -41.2055  -27.0173 N   0  0  0  0  0  0  0  0  0  0  0  0
  -16.4247  -40.6279  -27.1965 C   0  0  0  0  0  0  0  0  0  0  0  0
  -15.4459  -40.5132  -26.2089 C   0  0  0  0  0  0  0  0  0  0  0  0
  -14.2297  -39.8654  -26.4835 N   0  0  0  0  0  0  0  0  0  0  0  0
  -14.7173  -41.6346  -22.7594 N   0  0  0  0  0  0  0  0  0  0  0  0
  -14.7356  -43.0072  -22.8730 C   0  0  0  0  0  0  0  0  0  0  0  0
  -14.6166  -43.5666  -21.6217 C   0  0  0  0  0  0  0  0  0  0  0  0
  -14.4370  -42.5064  -20.7101 C   0  0  0  0  0  0  0  0  0  0  0  0
  -14.4898  -41.3340  -21.4331 C   0  0  0  0  0  0  0  0  0  0  0  0
  1  2  1  0
  2  3  1  0
  3  4  2  0
  4  5  1  0
  5  6  2  0
  6  7  1  0
  7  8  2  0
  8  9  1  0
  2 10  1  0
 10 11  1  0
 11 12  2  0
 12 13  1  0
 13 14  2  0
  8  3  1  0
 14 10  1  0
M  END
>  <fragmenstein_runtime>  (229) 
11.851473

>  <original ID>  (229) 
SLDQZNAKFVSJAT-UHFFFAOYSA-N

>  <fragmenstein_error>  (229) 
None

>  <ref_pdb>  (229) 
d0160a

>  <Multi-SuCOS>  (229) 
0.570572

>  <SLURM_JOB_NAME>  (229) 
BulkDock.place:Flavi_NS5_RdRp:RdRp_knitwork_primer_grip_n_pocket_pure_split1800_batch009

>  <HIPPO Compound ID>  (229) 
11316

>  <original SMILES>  (229) 
CN(c1ccncc1N)n1cccc1

>  <name>  (229) 
SLDQZNAKFVSJAT-UHFFFAOYSA-N

>  <HIPPO Pose ID>  (229) 
71026

>  <ref_mols>  (229) 
d0160a,d0472a

>  <exports>  (229) 
['/opt/xchem-fragalysis-2/maxwin/BulkDock/OUTPUTS/RdRp_knitwork_primer_grip_n_pocket_pure_split1800_batch009_217043.sdf', '/opt/xchem-fragalysis-2/maxwin/BulkDock/OUTPUTS/RdRp_knitwork_primer_grip_n_pocket_pure_fragalysis.sdf', '/opt/xchem-fragalysis-2/maxwin/RdRp_FFF/syndirella/Retro_OK_batch1.sdf']

>  <alias>  (229) 
None

>  <inchikey>  (229) 
SLDQZNAKFVSJAT-UHFFFAOYSA-N

>  <energy_score>  (229) 
-34.880312

>  <distance_score>  (229) 
0.823173

>  <fragmenstein_outcome>  (229) 
acceptable

>  <merge_set>  (229) 
RdRp_knitwork_primer_grip_n_pocket_pure_fragalysis.sdf

>  <scratch_subdir>  (229) 
/opt/xchem-fragalysis-2/maxwin/BulkDock/SCRATCH/217043/C11316-P12

>  <SLURM_JOB_ID>  (229) 
217043

>  <tags>  (229) 
['Fragmenstein placed', 'RdRp_knitwork_primer_grip_n_pocket_pure_fragalysis.sdf Pose OK']

>  <fragmenstein_mode>  (229) 
expansion

>  <csv_name>  (229) 
RdRp_knitwork_primer_grip_n_pocket_pure_split1800_batch009.csv

$$$$
SLDQZNAKFVSJAT-UHFFFAOYSA-N
     RDKit          3D

 14 15  0  0  0  0  0  0  0  0999 V2000
  -14.7097  -39.2974  -23.4861 C   0  0  0  0  0  0  0  0  0  0  0  0
  -14.7957  -40.7044  -23.8861 N   0  0  0  0  0  0  0  0  0  0  0  0
  -15.7376  -40.8785  -24.9512 C   0  0  0  0  0  0  0  0  0  0  0  0
  -16.9647  -41.5209  -24.7616 C   0  0  0  0  0  0  0  0  0  0  0  0
  -17.8443  -41.6285  -25.8316 C   0  0  0  0  0  0  0  0  0  0  0  0
  -17.6105  -41.1345  -27.0660 N   0  0  0  0  0  0  0  0  0  0  0  0
  -16.4078  -40.5359  -27.2367 C   0  0  0  0  0  0  0  0  0  0  0  0
  -15.4245  -40.4315  -26.2523 C   0  0  0  0  0  0  0  0  0  0  0  0
  -14.2141  -39.7727  -26.5316 N   0  0  0  0  0  0  0  0  0  0  0  0
  -14.7118  -41.6107  -22.8107 N   0  0  0  0  0  0  0  0  0  0  0  0
  -14.6556  -42.9796  -22.9500 C   0  0  0  0  0  0  0  0  0  0  0  0
  -14.5555  -43.5581  -21.7058 C   0  0  0  0  0  0  0  0  0  0  0  0
  -14.4866  -42.5094  -20.7662 C   0  0  0  0  0  0  0  0  0  0  0  0
  -14.5793  -41.3265  -21.4682 C   0  0  0  0  0  0  0  0  0  0  0  0
  1  2  1  0
  2  3  1  0
  3  4  2  0
  4  5  1  0
  5  6  2  0
  6  7  1  0
  7  8  2  0
  8  9  1  0
  2 10  1  0
 10 11  1  0
 11 12  2  0
 12 13  1  0
 13 14  2  0
  8  3  1  0
 14 10  1  0
M  END
>  <fragmenstein_runtime>  (230) 
11.942608

>  <original ID>  (230) 
SLDQZNAKFVSJAT-UHFFFAOYSA-N

>  <fragmenstein_error>  (230) 
None

>  <ref_pdb>  (230) 
d0472a

>  <Multi-SuCOS>  (230) 
0.572551

>  <SLURM_JOB_NAME>  (230) 
BulkDock.place:Flavi_NS5_RdRp:RdRp_knitwork_primer_grip_n_pocket_pure_split1800_batch009

>  <HIPPO Compound ID>  (230) 
11316

>  <original SMILES>  (230) 
CN(c1ccncc1N)n1cccc1

>  <name>  (230) 
SLDQZNAKFVSJAT-UHFFFAOYSA-N

>  <HIPPO Pose ID>  (230) 
71035

>  <ref_mols>  (230) 
d0160a,d0472a

>  <exports>  (230) 
['/opt/xchem-fragalysis-2/maxwin/BulkDock/OUTPUTS/RdRp_knitwork_primer_grip_n_pocket_pure_split1800_batch009_217043.sdf', '/opt/xchem-fragalysis-2/maxwin/BulkDock/OUTPUTS/RdRp_knitwork_primer_grip_n_pocket_pure_fragalysis.sdf', '/opt/xchem-fragalysis-2/maxwin/RdRp_FFF/syndirella/Retro_OK_batch1.sdf']

>  <alias>  (230) 
None

>  <inchikey>  (230) 
SLDQZNAKFVSJAT-UHFFFAOYSA-N

>  <energy_score>  (230) 
-35.437712

>  <distance_score>  (230) 
0.843526

>  <fragmenstein_outcome>  (230) 
acceptable

>  <merge_set>  (230) 
RdRp_knitwork_primer_grip_n_pocket_pure_fragalysis.sdf

>  <scratch_subdir>  (230) 
/opt/xchem-fragalysis-2/maxwin/BulkDock/SCRATCH/217043/C11316-P42

>  <SLURM_JOB_ID>  (230) 
217043

>  <tags>  (230) 
['Fragmenstein placed', 'RdRp_knitwork_primer_grip_n_pocket_pure_fragalysis.sdf Pose OK']

>  <fragmenstein_mode>  (230) 
expansion

>  <csv_name>  (230) 
RdRp_knitwork_primer_grip_n_pocket_pure_split1800_batch009.csv

$$$$
ABSJUMHEVQDFDW-SNVBAGLBSA-N
     RDKit          3D

 18 19  0  0  0  0  0  0  0  0999 V2000
  -12.5247  -40.6724  -18.5614 C   0  0  0  0  0  0  0  0  0  0  0  0
  -11.8900  -39.6727  -19.3321 O   0  0  0  0  0  0  0  0  0  0  0  0
  -11.6273  -39.9711  -20.7003 C   0  0  2  0  0  0  0  0  0  0  0  0
  -10.6637  -38.8598  -21.1380 C   0  0  0  0  0  0  0  0  0  0  0  0
  -12.8935  -39.9181  -21.5773 C   0  0  0  0  0  0  0  0  0  0  0  0
  -13.6024  -41.1705  -21.8091 N   0  0  0  0  0  0  0  0  0  0  0  0
  -13.3940  -42.3783  -21.2058 C   0  0  0  0  0  0  0  0  0  0  0  0
  -14.2496  -43.2558  -21.8160 C   0  0  0  0  0  0  0  0  0  0  0  0
  -14.9796  -42.6207  -22.7786 N   0  0  0  0  0  0  0  0  0  0  0  0
  -14.5397  -41.3725  -22.8149 C   0  0  0  0  0  0  0  0  0  0  0  0
  -14.9196  -40.3932  -23.8257 C   0  0  0  0  0  0  0  0  0  0  0  0
  -14.5083  -39.2315  -23.8071 O   0  0  0  0  0  0  0  0  0  0  0  0
  -15.7963  -40.7817  -24.9668 C   0  0  0  0  0  0  0  0  0  0  0  0
  -15.5847  -40.1606  -26.1988 C   0  0  0  0  0  0  0  0  0  0  0  0
  -16.4060  -40.5068  -27.2577 C   0  0  0  0  0  0  0  0  0  0  0  0
  -17.4269  -41.3879  -27.1661 N   0  0  0  0  0  0  0  0  0  0  0  0
  -17.6089  -41.9684  -25.9602 C   0  0  0  0  0  0  0  0  0  0  0  0
  -16.8337  -41.7036  -24.8443 C   0  0  0  0  0  0  0  0  0  0  0  0
  1  2  1  0
  2  3  1  0
  3  4  1  6
  3  5  1  0
  5  6  1  0
  6  7  1  0
  7  8  2  0
  8  9  1  0
  9 10  2  0
 10 11  1  0
 11 12  2  0
 11 13  1  0
 13 14  2  0
 14 15  1  0
 15 16  2  0
 16 17  1  0
 17 18  2  0
 10  6  1  0
 18 13  1  0
M  END
>  <fragmenstein_runtime>  (231) 
3.943735

>  <original ID>  (231) 
ABSJUMHEVQDFDW-SNVBAGLBSA-N

>  <fragmenstein_error>  (231) 
None

>  <ref_pdb>  (231) 
d0160a

>  <Multi-SuCOS>  (231) 
0.527306

>  <SLURM_JOB_NAME>  (231) 
BulkDock.place:Flavi_NS5_RdRp:RdRp_knitwork_primer_grip_n_pocket_pure_split1800_batch010

>  <HIPPO Compound ID>  (231) 
26056

>  <original SMILES>  (231) 
CO[C@H](C)Cn1ccnc1C(=O)c1ccncc1

>  <name>  (231) 
ABSJUMHEVQDFDW-SNVBAGLBSA-N

>  <HIPPO Pose ID>  (231) 
71331

>  <ref_mols>  (231) 
d0160a,z0875c

>  <exports>  (231) 
['/opt/xchem-fragalysis-2/maxwin/BulkDock/OUTPUTS/RdRp_knitwork_primer_grip_n_pocket_pure_split1800_batch010_217044.sdf', '/opt/xchem-fragalysis-2/maxwin/BulkDock/OUTPUTS/RdRp_knitwork_primer_grip_n_pocket_pure_fragalysis.sdf', '/opt/xchem-fragalysis-2/maxwin/RdRp_FFF/syndirella/Retro_OK_batch1.sdf']

>  <alias>  (231) 
None

>  <inchikey>  (231) 
ABSJUMHEVQDFDW-SNVBAGLBSA-N

>  <energy_score>  (231) 
-13.497387

>  <distance_score>  (231) 
0.905872

>  <fragmenstein_outcome>  (231) 
acceptable

>  <merge_set>  (231) 
RdRp_knitwork_primer_grip_n_pocket_pure_fragalysis.sdf

>  <scratch_subdir>  (231) 
/opt/xchem-fragalysis-2/maxwin/BulkDock/SCRATCH/217044/C26056-P12

>  <SLURM_JOB_ID>  (231) 
217044

>  <tags>  (231) 
['Fragmenstein placed', 'RdRp_knitwork_primer_grip_n_pocket_pure_fragalysis.sdf Pose OK']

>  <fragmenstein_mode>  (231) 
expansion

>  <csv_name>  (231) 
RdRp_knitwork_primer_grip_n_pocket_pure_split1800_batch010.csv

$$$$
NBXAYGBEQBZCQN-TZMCWYRMSA-N
     RDKit          3D

 22 23  0  0  0  0  0  0  0  0999 V2000
  -14.2525  -43.2401  -23.5616 C   0  0  0  0  0  0  0  0  0  0  0  0
  -15.7127  -43.6519  -23.4446 C   0  0  1  0  0  0  0  0  0  0  0  0
  -16.1630  -44.2593  -22.2473 O   0  0  0  0  0  0  0  0  0  0  0  0
  -15.5080  -44.1101  -21.0733 C   0  0  0  0  0  0  0  0  0  0  0  0
  -14.8852  -42.9584  -20.6188 C   0  0  0  0  0  0  0  0  0  0  0  0
  -14.2301  -42.9777  -19.3909 C   0  0  0  0  0  0  0  0  0  0  0  0
  -14.2714  -44.1397  -18.6380 C   0  0  0  0  0  0  0  0  0  0  0  0
  -14.9030  -45.2692  -19.0228 N   0  0  0  0  0  0  0  0  0  0  0  0
  -15.5195  -45.2133  -20.2269 C   0  0  0  0  0  0  0  0  0  0  0  0
  -16.6010  -42.4775  -23.9092 C   0  0  0  0  0  0  0  0  0  0  0  0
  -17.1738  -41.7597  -23.1882 O   0  0  0  0  0  0  0  0  0  0  0  0
  -16.4625  -42.4495  -25.4581 N   0  0  0  0  0  0  0  0  0  0  0  0
  -16.9176  -41.4880  -26.4132 C   0  0  0  0  0  0  0  0  0  0  0  0
  -16.1194  -40.1685  -26.4321 C   0  0  2  0  0  0  0  0  0  0  0  0
  -14.7470  -40.2346  -25.7779 C   0  0  0  0  0  0  0  0  0  0  0  0
  -13.8748  -39.3786  -26.4881 O   0  0  0  0  0  0  0  0  0  0  0  0
  -16.9801  -39.0195  -25.9560 C   0  0  0  0  0  0  0  0  0  0  0  0
  -16.9624  -38.4615  -24.6789 C   0  0  0  0  0  0  0  0  0  0  0  0
  -17.8343  -37.4205  -24.3708 C   0  0  0  0  0  0  0  0  0  0  0  0
  -18.7218  -36.9902  -25.3430 C   0  0  0  0  0  0  0  0  0  0  0  0
  -18.7903  -37.5148  -26.5862 N   0  0  0  0  0  0  0  0  0  0  0  0
  -17.9082  -38.5036  -26.8520 C   0  0  0  0  0  0  0  0  0  0  0  0
  2  1  1  1
  2  3  1  0
  3  4  1  0
  4  5  2  0
  5  6  1  0
  6  7  2  0
  7  8  1  0
  8  9  2  0
  2 10  1  0
 10 11  2  0
 10 12  1  0
 12 13  1  0
 14 13  1  1
 14 15  1  0
 15 16  1  0
 14 17  1  0
 17 18  2  0
 18 19  1  0
 19 20  2  0
 20 21  1  0
 21 22  2  0
  9  4  1  0
 22 17  1  0
M  END
>  <fragmenstein_runtime>  (232) 
4.501978

>  <original ID>  (232) 
NBXAYGBEQBZCQN-TZMCWYRMSA-N

>  <fragmenstein_error>  (232) 
None

>  <ref_pdb>  (232) 
d0472a

>  <Multi-SuCOS>  (232) 
0.521963

>  <SLURM_JOB_NAME>  (232) 
BulkDock.place:Flavi_NS5_RdRp:RdRp_knitwork_primer_grip_n_pocket_pure_split1800_batch006

>  <HIPPO Compound ID>  (232) 
13623

>  <original SMILES>  (232) 
C[C@@H](Oc1cccnc1)C(=O)NC[C@H](CO)c1cccnc1

>  <name>  (232) 
NBXAYGBEQBZCQN-TZMCWYRMSA-N

>  <HIPPO Pose ID>  (232) 
71583

>  <ref_mols>  (232) 
d0191a,d0472a

>  <exports>  (232) 
['/opt/xchem-fragalysis-2/maxwin/BulkDock/OUTPUTS/RdRp_knitwork_primer_grip_n_pocket_pure_split1800_batch006_217040.sdf', '/opt/xchem-fragalysis-2/maxwin/BulkDock/OUTPUTS/RdRp_knitwork_primer_grip_n_pocket_pure_fragalysis.sdf', '/opt/xchem-fragalysis-2/maxwin/RdRp_FFF/syndirella/Retro_OK_batch1.sdf']

>  <alias>  (232) 
None

>  <inchikey>  (232) 
NBXAYGBEQBZCQN-TZMCWYRMSA-N

>  <energy_score>  (232) 
-8.154132

>  <distance_score>  (232) 
0.922802

>  <fragmenstein_outcome>  (232) 
acceptable

>  <merge_set>  (232) 
RdRp_knitwork_primer_grip_n_pocket_pure_fragalysis.sdf

>  <scratch_subdir>  (232) 
/opt/xchem-fragalysis-2/maxwin/BulkDock/SCRATCH/217040/C13623-P42

>  <SLURM_JOB_ID>  (232) 
217040

>  <tags>  (232) 
['Fragmenstein placed', 'RdRp_knitwork_primer_grip_n_pocket_pure_fragalysis.sdf Pose OK']

>  <fragmenstein_mode>  (232) 
expansion

>  <csv_name>  (232) 
RdRp_knitwork_primer_grip_n_pocket_pure_split1800_batch006.csv

$$$$
BNKLTCVOXDAGTQ-SSDOTTSWSA-N
     RDKit          3D

 21 23  0  0  0  0  0  0  0  0999 V2000
  -14.4036  -40.9739  -21.0613 C   0  0  0  0  0  0  0  0  0  0  0  0
  -15.2294  -42.0342  -21.8073 C   0  0  1  0  0  0  0  0  0  0  0  0
  -15.4809  -41.7435  -23.2068 N   0  0  0  0  0  0  0  0  0  0  0  0
  -15.1796  -40.5233  -23.6970 N   0  0  0  0  0  0  0  0  0  0  0  0
  -15.8881  -40.4979  -24.8334 C   0  0  0  0  0  0  0  0  0  0  0  0
  -16.5226  -39.1829  -25.3749 C   0  0  0  0  0  0  0  0  0  0  0  0
  -17.1744  -39.0281  -26.5745 C   0  0  0  0  0  0  0  0  0  0  0  0
  -17.9924  -37.9059  -26.6726 N   0  0  0  0  0  0  0  0  0  0  0  0
  -17.8323  -37.1868  -25.5792 C   0  0  0  0  0  0  0  0  0  0  0  0
  -16.7453  -37.7993  -24.4042 S   0  0  0  0  0  0  0  0  0  0  0  0
  -16.4297  -41.7072  -25.1840 N   0  0  0  0  0  0  0  0  0  0  0  0
  -16.3984  -42.3537  -24.0336 C   0  0  0  0  0  0  0  0  0  0  0  0
  -17.4256  -43.4543  -23.6374 C   0  0  0  0  0  0  0  0  0  0  0  0
  -17.7117  -44.0109  -22.3742 C   0  0  0  0  0  0  0  0  0  0  0  0
  -18.7801  -44.8560  -22.5206 C   0  0  0  0  0  0  0  0  0  0  0  0
  -19.1533  -44.8441  -23.8362 N   0  0  0  0  0  0  0  0  0  0  0  0
  -18.3255  -43.9981  -24.5195 C   0  0  0  0  0  0  0  0  0  0  0  0
  -14.6522  -43.4240  -21.5679 C   0  0  0  0  0  0  0  0  0  0  0  0
  -14.8366  -44.2569  -22.6060 F   0  0  0  0  0  0  0  0  0  0  0  0
  -13.3453  -43.3709  -21.2779 F   0  0  0  0  0  0  0  0  0  0  0  0
  -15.2525  -44.0129  -20.4963 F   0  0  0  0  0  0  0  0  0  0  0  0
  2  1  1  6
  2  3  1  0
  3  4  1  0
  4  5  2  0
  5  6  1  0
  6  7  2  0
  7  8  1  0
  8  9  2  0
  9 10  1  0
  5 11  1  0
 11 12  2  0
 12 13  1  0
 13 14  1  0
 14 15  2  0
 15 16  1  0
 16 17  1  0
  2 18  1  0
 18 19  1  0
 18 20  1  0
 18 21  1  0
 12  3  1  0
 17 13  2  0
 10  6  1  0
M  END
>  <fragmenstein_runtime>  (233) 
13.114839

>  <original ID>  (233) 
BNKLTCVOXDAGTQ-SSDOTTSWSA-N

>  <fragmenstein_error>  (233) 
None

>  <ref_pdb>  (233) 
d0615b

>  <Multi-SuCOS>  (233) 
0.511635

>  <SLURM_JOB_NAME>  (233) 
BulkDock.place:Flavi_NS5_RdRp:RdRp_knitwork_primer_grip_n_pocket_pure_split1800_batch012

>  <HIPPO Compound ID>  (233) 
12388

>  <original SMILES>  (233) 
C[C@@H](n1nc(-c2cncs2)nc1-c1cc[nH]c1)C(F)(F)F

>  <name>  (233) 
BNKLTCVOXDAGTQ-SSDOTTSWSA-N

>  <HIPPO Pose ID>  (233) 
71621

>  <ref_mols>  (233) 
d0472a,d0615b

>  <exports>  (233) 
['/opt/xchem-fragalysis-2/maxwin/BulkDock/OUTPUTS/RdRp_knitwork_primer_grip_n_pocket_pure_split1800_batch012_217046.sdf', '/opt/xchem-fragalysis-2/maxwin/BulkDock/OUTPUTS/RdRp_knitwork_primer_grip_n_pocket_pure_fragalysis.sdf', '/opt/xchem-fragalysis-2/maxwin/RdRp_FFF/syndirella/Retro_OK_batch1.sdf']

>  <alias>  (233) 
None

>  <inchikey>  (233) 
BNKLTCVOXDAGTQ-SSDOTTSWSA-N

>  <energy_score>  (233) 
-90.37667

>  <distance_score>  (233) 
0.949781

>  <fragmenstein_outcome>  (233) 
acceptable

>  <merge_set>  (233) 
RdRp_knitwork_primer_grip_n_pocket_pure_fragalysis.sdf

>  <scratch_subdir>  (233) 
/opt/xchem-fragalysis-2/maxwin/BulkDock/SCRATCH/217046/C12388-P51

>  <SLURM_JOB_ID>  (233) 
217046

>  <tags>  (233) 
['Fragmenstein placed', 'RdRp_knitwork_primer_grip_n_pocket_pure_fragalysis.sdf Pose OK']

>  <fragmenstein_mode>  (233) 
expansion

>  <csv_name>  (233) 
RdRp_knitwork_primer_grip_n_pocket_pure_split1800_batch012.csv

$$$$
WWDASINWQNVIKX-ZDUSSCGKSA-N
     RDKit          3D

 21 22  0  0  0  0  0  0  0  0999 V2000
  -17.6247  -43.3875  -24.6260 C   0  0  0  0  0  0  0  0  0  0  0  0
  -16.8060  -42.4620  -25.4977 C   0  0  0  0  0  0  0  0  0  0  0  0
  -16.0830  -41.3973  -24.7348 N   0  0  0  0  0  0  0  0  0  0  0  0
  -15.6862  -40.2047  -25.5636 C   0  0  1  0  0  0  0  0  0  0  0  0
  -15.1172  -40.5751  -26.9197 C   0  0  0  0  0  0  0  0  0  0  0  0
  -16.8084  -39.1949  -25.6530 C   0  0  0  0  0  0  0  0  0  0  0  0
  -16.9276  -38.2216  -24.6593 C   0  0  0  0  0  0  0  0  0  0  0  0
  -17.8694  -37.2184  -24.8007 C   0  0  0  0  0  0  0  0  0  0  0  0
  -18.6856  -37.2424  -25.9171 C   0  0  0  0  0  0  0  0  0  0  0  0
  -18.6583  -38.1918  -26.8695 N   0  0  0  0  0  0  0  0  0  0  0  0
  -17.7063  -39.1384  -26.7180 C   0  0  0  0  0  0  0  0  0  0  0  0
  -14.9144  -41.9382  -23.6124 S   0  0  0  0  0  0  0  0  0  0  0  0
  -14.4826  -43.2411  -24.0624 O   0  0  0  0  0  0  0  0  0  0  0  0
  -13.9859  -40.8588  -23.3440 O   0  0  0  0  0  0  0  0  0  0  0  0
  -15.8946  -42.1145  -22.1178 C   0  0  0  0  0  0  0  0  0  0  0  0
  -15.2503  -43.0841  -21.1669 C   0  0  0  0  0  0  0  0  0  0  0  0
  -14.0405  -42.7949  -20.5316 C   0  0  0  0  0  0  0  0  0  0  0  0
  -13.5319  -43.6756  -19.5857 C   0  0  0  0  0  0  0  0  0  0  0  0
  -14.2626  -44.8139  -19.2976 C   0  0  0  0  0  0  0  0  0  0  0  0
  -15.4182  -45.1527  -19.9049 N   0  0  0  0  0  0  0  0  0  0  0  0
  -15.8754  -44.2853  -20.8344 C   0  0  0  0  0  0  0  0  0  0  0  0
  1  2  1  0
  2  3  1  0
  3  4  1  0
  4  5  1  6
  4  6  1  0
  6  7  2  0
  7  8  1  0
  8  9  2  0
  9 10  1  0
 10 11  2  0
  3 12  1  0
 12 13  2  0
 12 14  2  0
 12 15  1  0
 15 16  1  0
 16 17  2  0
 17 18  1  0
 18 19  2  0
 19 20  1  0
 20 21  2  0
 11  6  1  0
 21 16  1  0
M  END
>  <fragmenstein_runtime>  (234) 
14.576916

>  <original ID>  (234) 
WWDASINWQNVIKX-ZDUSSCGKSA-N

>  <fragmenstein_error>  (234) 
None

>  <ref_pdb>  (234) 
d0191a

>  <Multi-SuCOS>  (234) 
0.575963

>  <SLURM_JOB_NAME>  (234) 
BulkDock.place:Flavi_NS5_RdRp:RdRp_knitwork_primer_grip_n_pocket_pure_split1800_batch006

>  <HIPPO Compound ID>  (234) 
10370

>  <original SMILES>  (234) 
CCN([C@@H](C)c1cccnc1)S(=O)(=O)Cc1cccnc1

>  <name>  (234) 
WWDASINWQNVIKX-ZDUSSCGKSA-N

>  <HIPPO Pose ID>  (234) 
71899

>  <ref_mols>  (234) 
d0191a,d0472a

>  <exports>  (234) 
['/opt/xchem-fragalysis-2/maxwin/BulkDock/OUTPUTS/RdRp_knitwork_primer_grip_n_pocket_pure_split1800_batch006_217040.sdf', '/opt/xchem-fragalysis-2/maxwin/BulkDock/OUTPUTS/RdRp_knitwork_primer_grip_n_pocket_pure_fragalysis.sdf', '/opt/xchem-fragalysis-2/maxwin/RdRp_FFF/syndirella/Retro_OK_batch1.sdf']

>  <alias>  (234) 
None

>  <inchikey>  (234) 
WWDASINWQNVIKX-ZDUSSCGKSA-N

>  <energy_score>  (234) 
-43.231364

>  <distance_score>  (234) 
0.850219

>  <fragmenstein_outcome>  (234) 
acceptable

>  <merge_set>  (234) 
RdRp_knitwork_primer_grip_n_pocket_pure_fragalysis.sdf

>  <scratch_subdir>  (234) 
/opt/xchem-fragalysis-2/maxwin/BulkDock/SCRATCH/217040/C10370-P19

>  <SLURM_JOB_ID>  (234) 
217040

>  <tags>  (234) 
['Fragmenstein placed', 'RdRp_knitwork_primer_grip_n_pocket_pure_fragalysis.sdf Pose OK']

>  <fragmenstein_mode>  (234) 
expansion

>  <csv_name>  (234) 
RdRp_knitwork_primer_grip_n_pocket_pure_split1800_batch006.csv

$$$$
WWDASINWQNVIKX-ZDUSSCGKSA-N
     RDKit          3D

 21 22  0  0  0  0  0  0  0  0999 V2000
  -17.5387  -43.0562  -25.0590 C   0  0  0  0  0  0  0  0  0  0  0  0
  -16.6272  -42.0388  -25.7089 C   0  0  0  0  0  0  0  0  0  0  0  0
  -16.0250  -41.1157  -24.7093 N   0  0  0  0  0  0  0  0  0  0  0  0
  -15.6243  -39.7723  -25.2429 C   0  0  1  0  0  0  0  0  0  0  0  0
  -14.7738  -39.8915  -26.4866 C   0  0  0  0  0  0  0  0  0  0  0  0
  -16.8094  -38.8371  -25.3771 C   0  0  0  0  0  0  0  0  0  0  0  0
  -17.2042  -38.0894  -24.2616 C   0  0  0  0  0  0  0  0  0  0  0  0
  -18.2849  -37.2223  -24.3485 C   0  0  0  0  0  0  0  0  0  0  0  0
  -18.9666  -37.1457  -25.5490 C   0  0  0  0  0  0  0  0  0  0  0  0
  -18.6333  -37.8468  -26.6564 N   0  0  0  0  0  0  0  0  0  0  0  0
  -17.5489  -38.6607  -26.5449 C   0  0  0  0  0  0  0  0  0  0  0  0
  -14.9544  -41.8178  -23.5722 S   0  0  0  0  0  0  0  0  0  0  0  0
  -14.4917  -43.0619  -24.1416 O   0  0  0  0  0  0  0  0  0  0  0  0
  -14.0489  -40.7892  -23.0994 O   0  0  0  0  0  0  0  0  0  0  0  0
  -16.0550  -42.1782  -22.2039 C   0  0  0  0  0  0  0  0  0  0  0  0
  -15.4030  -43.1039  -21.2123 C   0  0  0  0  0  0  0  0  0  0  0  0
  -14.2984  -42.7129  -20.4511 C   0  0  0  0  0  0  0  0  0  0  0  0
  -13.8215  -43.5464  -19.4473 C   0  0  0  0  0  0  0  0  0  0  0  0
  -14.4806  -44.7422  -19.2283 C   0  0  0  0  0  0  0  0  0  0  0  0
  -15.5168  -45.1868  -19.9682 N   0  0  0  0  0  0  0  0  0  0  0  0
  -15.9445  -44.3617  -20.9494 C   0  0  0  0  0  0  0  0  0  0  0  0
  1  2  1  0
  2  3  1  0
  3  4  1  0
  4  5  1  6
  4  6  1  0
  6  7  2  0
  7  8  1  0
  8  9  2  0
  9 10  1  0
 10 11  2  0
  3 12  1  0
 12 13  2  0
 12 14  2  0
 12 15  1  0
 15 16  1  0
 16 17  2  0
 17 18  1  0
 18 19  2  0
 19 20  1  0
 20 21  2  0
 11  6  1  0
 21 16  1  0
M  END
>  <fragmenstein_runtime>  (235) 
14.084052

>  <original ID>  (235) 
WWDASINWQNVIKX-ZDUSSCGKSA-N

>  <fragmenstein_error>  (235) 
None

>  <ref_pdb>  (235) 
d0472a

>  <Multi-SuCOS>  (235) 
0.547893

>  <SLURM_JOB_NAME>  (235) 
BulkDock.place:Flavi_NS5_RdRp:RdRp_knitwork_primer_grip_n_pocket_pure_split1800_batch006

>  <HIPPO Compound ID>  (235) 
10370

>  <original SMILES>  (235) 
CCN([C@@H](C)c1cccnc1)S(=O)(=O)Cc1cccnc1

>  <name>  (235) 
WWDASINWQNVIKX-ZDUSSCGKSA-N

>  <HIPPO Pose ID>  (235) 
71907

>  <ref_mols>  (235) 
d0191a,d0472a

>  <exports>  (235) 
['/opt/xchem-fragalysis-2/maxwin/BulkDock/OUTPUTS/RdRp_knitwork_primer_grip_n_pocket_pure_split1800_batch006_217040.sdf', '/opt/xchem-fragalysis-2/maxwin/BulkDock/OUTPUTS/RdRp_knitwork_primer_grip_n_pocket_pure_fragalysis.sdf', '/opt/xchem-fragalysis-2/maxwin/RdRp_FFF/syndirella/Retro_OK_batch1.sdf']

>  <alias>  (235) 
None

>  <inchikey>  (235) 
WWDASINWQNVIKX-ZDUSSCGKSA-N

>  <energy_score>  (235) 
-51.07349

>  <distance_score>  (235) 
0.894504

>  <fragmenstein_outcome>  (235) 
acceptable

>  <merge_set>  (235) 
RdRp_knitwork_primer_grip_n_pocket_pure_fragalysis.sdf

>  <scratch_subdir>  (235) 
/opt/xchem-fragalysis-2/maxwin/BulkDock/SCRATCH/217040/C10370-P42

>  <SLURM_JOB_ID>  (235) 
217040

>  <tags>  (235) 
['Fragmenstein placed', 'RdRp_knitwork_primer_grip_n_pocket_pure_fragalysis.sdf Pose OK']

>  <fragmenstein_mode>  (235) 
expansion

>  <csv_name>  (235) 
RdRp_knitwork_primer_grip_n_pocket_pure_split1800_batch006.csv

$$$$
NBCUSURROPPKNC-HNNXBMFYSA-N
     RDKit          3D

 20 21  0  0  0  0  0  0  0  0999 V2000
  -15.8613  -44.8899  -21.2869 C   0  0  0  0  0  0  0  0  0  0  0  0
  -15.3439  -43.4468  -21.1004 C   0  0  0  0  0  0  0  0  0  0  0  0
  -14.2311  -43.4861  -20.0437 C   0  0  0  0  0  0  0  0  0  0  0  0
  -16.5098  -42.6050  -20.5565 C   0  0  0  0  0  0  0  0  0  0  0  0
  -14.7948  -42.9353  -22.4709 C   0  0  0  0  0  0  0  0  0  0  0  0
  -14.8943  -41.4236  -22.8098 C   0  0  2  0  0  0  0  0  0  0  0  0
  -14.7171  -41.2695  -24.2615 N   0  0  0  0  0  0  0  0  0  0  0  0
  -15.7522  -41.2095  -25.1834 C   0  0  0  0  0  0  0  0  0  0  0  0
  -15.4863  -40.6471  -26.4359 C   0  0  0  0  0  0  0  0  0  0  0  0
  -16.4670  -40.6448  -27.4204 C   0  0  0  0  0  0  0  0  0  0  0  0
  -17.7106  -41.1417  -27.2513 N   0  0  0  0  0  0  0  0  0  0  0  0
  -17.9598  -41.6681  -26.0301 C   0  0  0  0  0  0  0  0  0  0  0  0
  -17.0367  -41.7229  -24.9941 C   0  0  0  0  0  0  0  0  0  0  0  0
  -17.4094  -42.2866  -23.8356 F   0  0  0  0  0  0  0  0  0  0  0  0
  -13.9226  -40.4412  -22.1808 C   0  0  0  0  0  0  0  0  0  0  0  0
  -14.1210  -39.0695  -22.4144 C   0  0  0  0  0  0  0  0  0  0  0  0
  -13.1982  -38.1336  -21.9719 C   0  0  0  0  0  0  0  0  0  0  0  0
  -12.0877  -38.5885  -21.2883 C   0  0  0  0  0  0  0  0  0  0  0  0
  -11.8528  -39.8918  -21.0398 N   0  0  0  0  0  0  0  0  0  0  0  0
  -12.7747  -40.7830  -21.4828 C   0  0  0  0  0  0  0  0  0  0  0  0
  1  2  1  0
  2  3  1  0
  2  4  1  0
  2  5  1  0
  6  5  1  1
  6  7  1  0
  7  8  1  0
  8  9  2  0
  9 10  1  0
 10 11  2  0
 11 12  1  0
 12 13  2  0
 13 14  1  0
  6 15  1  0
 15 16  2  0
 16 17  1  0
 17 18  2  0
 18 19  1  0
 19 20  2  0
 13  8  1  0
 20 15  1  0
M  END
>  <fragmenstein_runtime>  (236) 
25.298067

>  <original ID>  (236) 
NBCUSURROPPKNC-HNNXBMFYSA-N

>  <fragmenstein_error>  (236) 
None

>  <ref_pdb>  (236) 
d0160a

>  <Multi-SuCOS>  (236) 
0.419462

>  <SLURM_JOB_NAME>  (236) 
BulkDock.place:Flavi_NS5_RdRp:RdRp_knitwork_primer_grip_n_pocket_pure_split1800_batch009

>  <HIPPO Compound ID>  (236) 
10616

>  <original SMILES>  (236) 
CC(C)(C)C[C@H](Nc1ccncc1F)c1cccnc1

>  <name>  (236) 
NBCUSURROPPKNC-HNNXBMFYSA-N

>  <HIPPO Pose ID>  (236) 
72154

>  <ref_mols>  (236) 
d0160a,d0472a

>  <exports>  (236) 
['/opt/xchem-fragalysis-2/maxwin/BulkDock/OUTPUTS/RdRp_knitwork_primer_grip_n_pocket_pure_split1800_batch009_217043.sdf', '/opt/xchem-fragalysis-2/maxwin/BulkDock/OUTPUTS/RdRp_knitwork_primer_grip_n_pocket_pure_fragalysis.sdf', '/opt/xchem-fragalysis-2/maxwin/RdRp_FFF/syndirella/Retro_OK_batch1.sdf']

>  <alias>  (236) 
None

>  <inchikey>  (236) 
NBCUSURROPPKNC-HNNXBMFYSA-N

>  <energy_score>  (236) 
-228.477626

>  <distance_score>  (236) 
0.995134

>  <fragmenstein_outcome>  (236) 
acceptable

>  <merge_set>  (236) 
RdRp_knitwork_primer_grip_n_pocket_pure_fragalysis.sdf

>  <scratch_subdir>  (236) 
/opt/xchem-fragalysis-2/maxwin/BulkDock/SCRATCH/217043/C10616-P12

>  <SLURM_JOB_ID>  (236) 
217043

>  <tags>  (236) 
['Fragmenstein placed', 'RdRp_knitwork_primer_grip_n_pocket_pure_fragalysis.sdf Pose OK']

>  <fragmenstein_mode>  (236) 
expansion

>  <csv_name>  (236) 
RdRp_knitwork_primer_grip_n_pocket_pure_split1800_batch009.csv

$$$$
NBCUSURROPPKNC-HNNXBMFYSA-N
     RDKit          3D

 20 21  0  0  0  0  0  0  0  0999 V2000
  -15.8327  -44.8824  -21.2784 C   0  0  0  0  0  0  0  0  0  0  0  0
  -15.3368  -43.4320  -21.0979 C   0  0  0  0  0  0  0  0  0  0  0  0
  -14.2402  -43.4505  -20.0239 C   0  0  0  0  0  0  0  0  0  0  0  0
  -16.5210  -42.5990  -20.5814 C   0  0  0  0  0  0  0  0  0  0  0  0
  -14.7706  -42.9266  -22.4633 C   0  0  0  0  0  0  0  0  0  0  0  0
  -14.8810  -41.4187  -22.8153 C   0  0  2  0  0  0  0  0  0  0  0  0
  -14.6688  -41.2750  -24.2666 N   0  0  0  0  0  0  0  0  0  0  0  0
  -15.7091  -41.1687  -25.1849 C   0  0  0  0  0  0  0  0  0  0  0  0
  -15.4500  -40.5400  -26.4081 C   0  0  0  0  0  0  0  0  0  0  0  0
  -16.4353  -40.4927  -27.3866 C   0  0  0  0  0  0  0  0  0  0  0  0
  -17.6692  -41.0203  -27.2420 N   0  0  0  0  0  0  0  0  0  0  0  0
  -17.9090  -41.6172  -26.0512 C   0  0  0  0  0  0  0  0  0  0  0  0
  -16.9835  -41.7161  -25.0227 C   0  0  0  0  0  0  0  0  0  0  0  0
  -17.3427  -42.3525  -23.8986 F   0  0  0  0  0  0  0  0  0  0  0  0
  -13.9362  -40.4218  -22.1668 C   0  0  0  0  0  0  0  0  0  0  0  0
  -14.1558  -39.0534  -22.3980 C   0  0  0  0  0  0  0  0  0  0  0  0
  -13.2556  -38.1035  -21.9397 C   0  0  0  0  0  0  0  0  0  0  0  0
  -12.1455  -38.5417  -21.2441 C   0  0  0  0  0  0  0  0  0  0  0  0
  -11.8886  -39.8417  -21.0000 N   0  0  0  0  0  0  0  0  0  0  0  0
  -12.7903  -40.7465  -21.4561 C   0  0  0  0  0  0  0  0  0  0  0  0
  1  2  1  0
  2  3  1  0
  2  4  1  0
  2  5  1  0
  6  5  1  1
  6  7  1  0
  7  8  1  0
  8  9  2  0
  9 10  1  0
 10 11  2  0
 11 12  1  0
 12 13  2  0
 13 14  1  0
  6 15  1  0
 15 16  2  0
 16 17  1  0
 17 18  2  0
 18 19  1  0
 19 20  2  0
 13  8  1  0
 20 15  1  0
M  END
>  <fragmenstein_runtime>  (237) 
25.801607

>  <original ID>  (237) 
NBCUSURROPPKNC-HNNXBMFYSA-N

>  <fragmenstein_error>  (237) 
None

>  <ref_pdb>  (237) 
d0472a

>  <Multi-SuCOS>  (237) 
0.419672

>  <SLURM_JOB_NAME>  (237) 
BulkDock.place:Flavi_NS5_RdRp:RdRp_knitwork_primer_grip_n_pocket_pure_split1800_batch009

>  <HIPPO Compound ID>  (237) 
10616

>  <original SMILES>  (237) 
CC(C)(C)C[C@H](Nc1ccncc1F)c1cccnc1

>  <name>  (237) 
NBCUSURROPPKNC-HNNXBMFYSA-N

>  <HIPPO Pose ID>  (237) 
72166

>  <ref_mols>  (237) 
d0160a,d0472a

>  <exports>  (237) 
['/opt/xchem-fragalysis-2/maxwin/BulkDock/OUTPUTS/RdRp_knitwork_primer_grip_n_pocket_pure_split1800_batch009_217043.sdf', '/opt/xchem-fragalysis-2/maxwin/BulkDock/OUTPUTS/RdRp_knitwork_primer_grip_n_pocket_pure_fragalysis.sdf', '/opt/xchem-fragalysis-2/maxwin/RdRp_FFF/syndirella/Retro_OK_batch1.sdf']

>  <alias>  (237) 
None

>  <inchikey>  (237) 
NBCUSURROPPKNC-HNNXBMFYSA-N

>  <energy_score>  (237) 
-228.727961

>  <distance_score>  (237) 
0.996581

>  <fragmenstein_outcome>  (237) 
acceptable

>  <merge_set>  (237) 
RdRp_knitwork_primer_grip_n_pocket_pure_fragalysis.sdf

>  <scratch_subdir>  (237) 
/opt/xchem-fragalysis-2/maxwin/BulkDock/SCRATCH/217043/C10616-P42

>  <SLURM_JOB_ID>  (237) 
217043

>  <tags>  (237) 
['Fragmenstein placed', 'RdRp_knitwork_primer_grip_n_pocket_pure_fragalysis.sdf Pose OK']

>  <fragmenstein_mode>  (237) 
expansion

>  <csv_name>  (237) 
RdRp_knitwork_primer_grip_n_pocket_pure_split1800_batch009.csv

$$$$
VTQCVTAGCLFPPX-LBPRGKRZSA-N
     RDKit          3D

 20 22  0  0  0  0  0  0  0  0999 V2000
  -16.1897  -41.0062  -27.1030 C   0  0  0  0  0  0  0  0  0  0  0  0
  -15.8235  -40.0293  -25.9817 C   0  0  2  0  0  0  0  0  0  0  0  0
  -15.1769  -40.6864  -24.8332 N   0  0  0  0  0  0  0  0  0  0  0  0
  -15.7626  -41.7437  -24.1480 C   0  0  0  0  0  0  0  0  0  0  0  0
  -15.1292  -42.2497  -23.0058 C   0  0  0  0  0  0  0  0  0  0  0  0
  -15.5669  -43.3132  -22.2824 N   0  0  0  0  0  0  0  0  0  0  0  0
  -16.6960  -43.8957  -22.7412 C   0  0  0  0  0  0  0  0  0  0  0  0
  -17.1379  -45.0973  -22.1142 N   0  0  0  0  0  0  0  0  0  0  0  0
  -16.5426  -45.7055  -21.0202 C   0  0  0  0  0  0  0  0  0  0  0  0
  -17.2105  -46.8736  -20.7319 C   0  0  0  0  0  0  0  0  0  0  0  0
  -18.2397  -47.0023  -21.6825 C   0  0  0  0  0  0  0  0  0  0  0  0
  -18.1938  -45.8951  -22.4984 C   0  0  0  0  0  0  0  0  0  0  0  0
  -17.3726  -43.3634  -23.8352 C   0  0  0  0  0  0  0  0  0  0  0  0
  -16.9290  -42.2880  -24.5449 N   0  0  0  0  0  0  0  0  0  0  0  0
  -16.9336  -39.0579  -25.5705 C   0  0  0  0  0  0  0  0  0  0  0  0
  -18.2086  -39.1023  -26.1390 C   0  0  0  0  0  0  0  0  0  0  0  0
  -19.1580  -38.1493  -25.7757 C   0  0  0  0  0  0  0  0  0  0  0  0
  -18.8186  -37.1565  -24.8709 C   0  0  0  0  0  0  0  0  0  0  0  0
  -17.5434  -37.1686  -24.3467 C   0  0  0  0  0  0  0  0  0  0  0  0
  -16.6059  -38.0860  -24.6735 N   0  0  0  0  0  0  0  0  0  0  0  0
  2  1  1  6
  2  3  1  0
  3  4  1  0
  4  5  2  0
  5  6  1  0
  6  7  2  0
  7  8  1  0
  8  9  1  0
  9 10  2  0
 10 11  1  0
 11 12  2  0
  7 13  1  0
 13 14  2  0
  2 15  1  0
 15 16  2  0
 16 17  1  0
 17 18  2  0
 18 19  1  0
 19 20  2  0
 14  4  1  0
 20 15  1  0
 12  8  1  0
M  END
>  <fragmenstein_runtime>  (238) 
2.062602

>  <original ID>  (238) 
VTQCVTAGCLFPPX-LBPRGKRZSA-N

>  <fragmenstein_error>  (238) 
None

>  <ref_pdb>  (238) 
d0472a

>  <Multi-SuCOS>  (238) 
0.690786

>  <SLURM_JOB_NAME>  (238) 
BulkDock.place:Flavi_NS5_RdRp:RdRp_knitwork_primer_grip_n_pocket_pure_split1800_batch013

>  <HIPPO Compound ID>  (238) 
11480

>  <original SMILES>  (238) 
C[C@H](Nc1cnc(-n2cccc2)cn1)c1ccccn1

>  <name>  (238) 
VTQCVTAGCLFPPX-LBPRGKRZSA-N

>  <HIPPO Pose ID>  (238) 
72491

>  <ref_mols>  (238) 
d0472a,d0615b

>  <exports>  (238) 
['/opt/xchem-fragalysis-2/maxwin/BulkDock/OUTPUTS/RdRp_knitwork_primer_grip_n_pocket_pure_split1800_batch013_217047.sdf', '/opt/xchem-fragalysis-2/maxwin/BulkDock/OUTPUTS/RdRp_knitwork_primer_grip_n_pocket_pure_fragalysis.sdf', '/opt/xchem-fragalysis-2/maxwin/RdRp_FFF/syndirella/Retro_OK_batch1.sdf']

>  <alias>  (238) 
None

>  <inchikey>  (238) 
VTQCVTAGCLFPPX-LBPRGKRZSA-N

>  <energy_score>  (238) 
-22.235902

>  <distance_score>  (238) 
0.975275

>  <fragmenstein_outcome>  (238) 
acceptable

>  <merge_set>  (238) 
RdRp_knitwork_primer_grip_n_pocket_pure_fragalysis.sdf

>  <scratch_subdir>  (238) 
/opt/xchem-fragalysis-2/maxwin/BulkDock/SCRATCH/217047/C11480-P42

>  <SLURM_JOB_ID>  (238) 
217047

>  <tags>  (238) 
['Fragmenstein placed', 'RdRp_knitwork_primer_grip_n_pocket_pure_fragalysis.sdf Pose OK']

>  <fragmenstein_mode>  (238) 
expansion

>  <csv_name>  (238) 
RdRp_knitwork_primer_grip_n_pocket_pure_split1800_batch013.csv

$$$$
NMMXOIPTLDWKIW-CYBMUJFWSA-N
     RDKit          3D

 22 23  0  0  0  0  0  0  0  0999 V2000
  -17.3818  -44.8147  -22.9617 C   0  0  0  0  0  0  0  0  0  0  0  0
  -15.9952  -44.8403  -23.3262 O   0  0  0  0  0  0  0  0  0  0  0  0
  -15.4648  -43.9755  -24.2275 C   0  0  0  0  0  0  0  0  0  0  0  0
  -14.2738  -43.6758  -24.1885 O   0  0  0  0  0  0  0  0  0  0  0  0
  -16.3647  -43.4660  -25.3274 C   0  0  0  0  0  0  0  0  0  0  0  0
  -16.8289  -42.0281  -25.2053 C   0  0  0  0  0  0  0  0  0  0  0  0
  -15.7667  -41.0983  -24.7587 N   0  0  0  0  0  0  0  0  0  0  0  0
  -15.4549  -39.9871  -25.6993 C   0  0  0  0  0  0  0  0  0  0  0  0
  -16.5618  -38.9832  -25.8841 C   0  0  0  0  0  0  0  0  0  0  0  0
  -16.7498  -37.9361  -24.9846 C   0  0  0  0  0  0  0  0  0  0  0  0
  -17.8650  -37.1201  -25.0761 C   0  0  0  0  0  0  0  0  0  0  0  0
  -18.7561  -37.3570  -26.0983 C   0  0  0  0  0  0  0  0  0  0  0  0
  -18.5888  -38.3053  -27.0404 N   0  0  0  0  0  0  0  0  0  0  0  0
  -17.4856  -39.0861  -26.9168 C   0  0  0  0  0  0  0  0  0  0  0  0
  -15.7116  -40.8424  -23.0788 S   0  0  0  0  0  0  0  0  0  0  0  0
  -16.1092  -42.0936  -22.4684 O   0  0  0  0  0  0  0  0  0  0  0  0
  -16.4904  -39.6690  -22.7631 O   0  0  0  0  0  0  0  0  0  0  0  0
  -13.9799  -40.5668  -22.7337 C   0  0  2  0  0  0  0  0  0  0  0  0
  -13.5238  -41.2244  -21.4482 C   0  0  0  0  0  0  0  0  0  0  0  0
  -13.8864  -40.1862  -20.4115 C   0  0  0  0  0  0  0  0  0  0  0  0
  -13.6714  -38.9151  -21.0408 O   0  0  0  0  0  0  0  0  0  0  0  0
  -13.6616  -39.1146  -22.4635 C   0  0  0  0  0  0  0  0  0  0  0  0
  1  2  1  0
  2  3  1  0
  3  4  2  0
  3  5  1  0
  5  6  1  0
  6  7  1  0
  7  8  1  0
  8  9  1  0
  9 10  2  0
 10 11  1  0
 11 12  2  0
 12 13  1  0
 13 14  2  0
  7 15  1  0
 15 16  2  0
 15 17  2  0
 18 15  1  1
 18 19  1  0
 19 20  1  0
 20 21  1  0
 21 22  1  0
 14  9  1  0
 22 18  1  0
M  END
>  <fragmenstein_runtime>  (239) 
9.805182

>  <original ID>  (239) 
NMMXOIPTLDWKIW-CYBMUJFWSA-N

>  <fragmenstein_error>  (239) 
None

>  <ref_pdb>  (239) 
d0191a

>  <Multi-SuCOS>  (239) 
0.42205

>  <SLURM_JOB_NAME>  (239) 
BulkDock.place:Flavi_NS5_RdRp:RdRp_knitwork_primer_grip_n_pocket_pure_split1800_batch001

>  <HIPPO Compound ID>  (239) 
10412

>  <original SMILES>  (239) 
COC(=O)CCN(Cc1cccnc1)S(=O)(=O)[C@@H]1CCOC1

>  <name>  (239) 
NMMXOIPTLDWKIW-CYBMUJFWSA-N

>  <HIPPO Pose ID>  (239) 
72746

>  <ref_mols>  (239) 
d0191a,d0254a

>  <exports>  (239) 
['/opt/xchem-fragalysis-2/maxwin/BulkDock/OUTPUTS/RdRp_knitwork_primer_grip_n_pocket_pure_split1800_batch001_217035.sdf', '/opt/xchem-fragalysis-2/maxwin/BulkDock/OUTPUTS/RdRp_knitwork_primer_grip_n_pocket_pure_fragalysis.sdf', '/opt/xchem-fragalysis-2/maxwin/RdRp_FFF/syndirella/Retro_OK_batch1.sdf']

>  <alias>  (239) 
None

>  <inchikey>  (239) 
NMMXOIPTLDWKIW-CYBMUJFWSA-N

>  <energy_score>  (239) 
-39.252512

>  <distance_score>  (239) 
0.944481

>  <fragmenstein_outcome>  (239) 
acceptable

>  <merge_set>  (239) 
RdRp_knitwork_primer_grip_n_pocket_pure_fragalysis.sdf

>  <scratch_subdir>  (239) 
/opt/xchem-fragalysis-2/maxwin/BulkDock/SCRATCH/217035/C10412-P19

>  <SLURM_JOB_ID>  (239) 
217035

>  <tags>  (239) 
['Fragmenstein placed', 'RdRp_knitwork_primer_grip_n_pocket_pure_fragalysis.sdf Pose OK']

>  <fragmenstein_mode>  (239) 
expansion

>  <csv_name>  (239) 
RdRp_knitwork_primer_grip_n_pocket_pure_split1800_batch001.csv

$$$$
VMANCSUAJCYMRU-CYBMUJFWSA-N
     RDKit          3D

 22 24  0  0  0  0  0  0  0  0999 V2000
  -13.7533  -44.2914  -18.8489 C   0  0  0  0  0  0  0  0  0  0  0  0
  -15.0292  -44.9706  -19.3347 C   0  0  0  0  0  0  0  0  0  0  0  0
  -15.4762  -44.4800  -20.7356 C   0  0  2  0  0  0  0  0  0  0  0  0
  -15.5773  -42.9430  -20.6451 C   0  0  0  0  0  0  0  0  0  0  0  0
  -15.9912  -42.4118  -19.6862 O   0  0  0  0  0  0  0  0  0  0  0  0
  -14.9590  -42.3431  -21.9446 N   0  0  0  0  0  0  0  0  0  0  0  0
  -14.6554  -41.0523  -22.2670 C   0  0  0  0  0  0  0  0  0  0  0  0
  -14.1755  -40.1560  -21.3464 C   0  0  0  0  0  0  0  0  0  0  0  0
  -13.8152  -39.0563  -22.0527 N   0  0  0  0  0  0  0  0  0  0  0  0
  -14.0756  -39.1451  -23.3631 N   0  0  0  0  0  0  0  0  0  0  0  0
  -14.6587  -40.3576  -23.5115 C   0  0  0  0  0  0  0  0  0  0  0  0
  -15.3692  -40.7418  -24.7420 C   0  0  0  0  0  0  0  0  0  0  0  0
  -15.3871  -39.8828  -25.8389 C   0  0  0  0  0  0  0  0  0  0  0  0
  -16.3859  -40.0377  -26.7917 C   0  0  0  0  0  0  0  0  0  0  0  0
  -17.3303  -41.0364  -26.6117 C   0  0  0  0  0  0  0  0  0  0  0  0
  -17.1724  -41.9251  -25.5647 C   0  0  0  0  0  0  0  0  0  0  0  0
  -16.2066  -41.8123  -24.6334 N   0  0  0  0  0  0  0  0  0  0  0  0
  -16.6726  -45.1559  -21.2292 N   0  0  0  0  0  0  0  0  0  0  0  0
  -17.3174  -44.8825  -22.4053 C   0  0  0  0  0  0  0  0  0  0  0  0
  -18.1941  -45.9249  -22.5907 C   0  0  0  0  0  0  0  0  0  0  0  0
  -18.0997  -46.8267  -21.5699 N   0  0  0  0  0  0  0  0  0  0  0  0
  -17.2095  -46.3229  -20.7484 C   0  0  0  0  0  0  0  0  0  0  0  0
  1  2  1  0
  3  2  1  1
  3  4  1  0
  4  5  2  0
  4  6  1  0
  6  7  1  0
  7  8  2  0
  8  9  1  0
  9 10  1  0
 10 11  2  0
 11 12  1  0
 12 13  2  0
 13 14  1  0
 14 15  2  0
 15 16  1  0
 16 17  2  0
  3 18  1  0
 18 19  1  0
 19 20  2  0
 20 21  1  0
 21 22  2  0
 11  7  1  0
 17 12  1  0
 22 18  1  0
M  END
>  <fragmenstein_runtime>  (240) 
5.427521

>  <original ID>  (240) 
VMANCSUAJCYMRU-CYBMUJFWSA-N

>  <fragmenstein_error>  (240) 
None

>  <ref_pdb>  (240) 
d0472a

>  <Multi-SuCOS>  (240) 
0.523772

>  <SLURM_JOB_NAME>  (240) 
BulkDock.place:Flavi_NS5_RdRp:RdRp_knitwork_primer_grip_n_pocket_pure_split1800_batch009

>  <HIPPO Compound ID>  (240) 
19953

>  <original SMILES>  (240) 
CC[C@H](C(=O)Nc1c[nH]nc1-c1ccccn1)n1ccnc1

>  <name>  (240) 
VMANCSUAJCYMRU-CYBMUJFWSA-N

>  <HIPPO Pose ID>  (240) 
72767

>  <ref_mols>  (240) 
d0160a,d0472a

>  <exports>  (240) 
['/opt/xchem-fragalysis-2/maxwin/BulkDock/OUTPUTS/RdRp_knitwork_primer_grip_n_pocket_pure_split1800_batch009_217043.sdf', '/opt/xchem-fragalysis-2/maxwin/BulkDock/OUTPUTS/RdRp_knitwork_primer_grip_n_pocket_pure_fragalysis.sdf', '/opt/xchem-fragalysis-2/maxwin/RdRp_FFF/syndirella/Retro_OK_batch1.sdf']

>  <alias>  (240) 
None

>  <inchikey>  (240) 
VMANCSUAJCYMRU-CYBMUJFWSA-N

>  <energy_score>  (240) 
-47.543819

>  <distance_score>  (240) 
0.951052

>  <fragmenstein_outcome>  (240) 
acceptable

>  <merge_set>  (240) 
RdRp_knitwork_primer_grip_n_pocket_pure_fragalysis.sdf

>  <scratch_subdir>  (240) 
/opt/xchem-fragalysis-2/maxwin/BulkDock/SCRATCH/217043/C19953-P42

>  <SLURM_JOB_ID>  (240) 
217043

>  <tags>  (240) 
['Fragmenstein placed', 'RdRp_knitwork_primer_grip_n_pocket_pure_fragalysis.sdf Pose OK']

>  <fragmenstein_mode>  (240) 
expansion

>  <csv_name>  (240) 
RdRp_knitwork_primer_grip_n_pocket_pure_split1800_batch009.csv

$$$$
DYUYMACNAFSKCY-AWEZNQCLSA-N
     RDKit          3D

 23 24  0  0  0  0  0  0  0  0999 V2000
  -17.6008  -42.3284  -26.4108 O   0  0  0  0  0  0  0  0  0  0  0  0
  -16.8121  -42.2679  -25.4766 C   0  0  0  0  0  0  0  0  0  0  0  0
  -16.5644  -43.3899  -24.5080 C   0  0  0  0  0  0  0  0  0  0  0  0
  -16.5441  -42.9278  -23.0657 C   0  0  0  0  0  0  0  0  0  0  0  0
  -15.9448  -43.9443  -22.1205 C   0  0  0  0  0  0  0  0  0  0  0  0
  -14.8492  -43.7190  -21.6064 O   0  0  0  0  0  0  0  0  0  0  0  0
  -16.6898  -45.1364  -21.7650 C   0  0  0  0  0  0  0  0  0  0  0  0
  -17.8632  -45.7034  -22.2281 C   0  0  0  0  0  0  0  0  0  0  0  0
  -18.0746  -46.9060  -21.5083 C   0  0  0  0  0  0  0  0  0  0  0  0
  -17.0621  -47.0214  -20.5860 C   0  0  0  0  0  0  0  0  0  0  0  0
  -16.2287  -45.9554  -20.7548 N   0  0  0  0  0  0  0  0  0  0  0  0
  -16.0155  -41.2115  -25.2035 O   0  0  0  0  0  0  0  0  0  0  0  0
  -16.0780  -40.1284  -26.1446 C   0  0  1  0  0  0  0  0  0  0  0  0
  -17.1802  -39.1628  -25.7836 C   0  0  0  0  0  0  0  0  0  0  0  0
  -17.2438  -38.5122  -24.5481 C   0  0  0  0  0  0  0  0  0  0  0  0
  -18.1839  -37.5080  -24.3532 C   0  0  0  0  0  0  0  0  0  0  0  0
  -19.0412  -37.1988  -25.3967 C   0  0  0  0  0  0  0  0  0  0  0  0
  -19.0212  -37.8132  -26.6025 N   0  0  0  0  0  0  0  0  0  0  0  0
  -18.0893  -38.7813  -26.7606 C   0  0  0  0  0  0  0  0  0  0  0  0
  -14.7605  -39.3696  -26.1407 C   0  0  0  0  0  0  0  0  0  0  0  0
  -14.3156  -39.1697  -24.8763 F   0  0  0  0  0  0  0  0  0  0  0  0
  -13.8178  -40.0471  -26.8239 F   0  0  0  0  0  0  0  0  0  0  0  0
  -14.9266  -38.1734  -26.7459 F   0  0  0  0  0  0  0  0  0  0  0  0
  1  2  2  0
  2  3  1  0
  3  4  1  0
  4  5  1  0
  5  6  2  0
  5  7  1  0
  7  8  2  0
  8  9  1  0
  9 10  2  0
 10 11  1  0
  2 12  1  0
 13 12  1  1
 13 14  1  0
 14 15  2  0
 15 16  1  0
 16 17  2  0
 17 18  1  0
 18 19  2  0
 13 20  1  0
 20 21  1  0
 20 22  1  0
 20 23  1  0
 11  7  1  0
 19 14  1  0
M  END
>  <fragmenstein_runtime>  (241) 
3.536513

>  <original ID>  (241) 
DYUYMACNAFSKCY-AWEZNQCLSA-N

>  <fragmenstein_error>  (241) 
None

>  <ref_pdb>  (241) 
d0472a

>  <Multi-SuCOS>  (241) 
0.465197

>  <SLURM_JOB_NAME>  (241) 
BulkDock.place:Flavi_NS5_RdRp:RdRp_knitwork_primer_grip_n_pocket_pure_split1800_batch006

>  <HIPPO Compound ID>  (241) 
13403

>  <original SMILES>  (241) 
O=C(CCC(=O)c1ccc[nH]1)O[C@@H](c1cccnc1)C(F)(F)F

>  <name>  (241) 
DYUYMACNAFSKCY-AWEZNQCLSA-N

>  <HIPPO Pose ID>  (241) 
72914

>  <ref_mols>  (241) 
d0191a,d0472a

>  <exports>  (241) 
['/opt/xchem-fragalysis-2/maxwin/BulkDock/OUTPUTS/RdRp_knitwork_primer_grip_n_pocket_pure_split1800_batch006_217040.sdf', '/opt/xchem-fragalysis-2/maxwin/BulkDock/OUTPUTS/RdRp_knitwork_primer_grip_n_pocket_pure_fragalysis.sdf', '/opt/xchem-fragalysis-2/maxwin/RdRp_FFF/syndirella/Retro_OK_batch1.sdf']

>  <alias>  (241) 
None

>  <inchikey>  (241) 
DYUYMACNAFSKCY-AWEZNQCLSA-N

>  <energy_score>  (241) 
-43.309367

>  <distance_score>  (241) 
0.912804

>  <fragmenstein_outcome>  (241) 
acceptable

>  <merge_set>  (241) 
RdRp_knitwork_primer_grip_n_pocket_pure_fragalysis.sdf

>  <scratch_subdir>  (241) 
/opt/xchem-fragalysis-2/maxwin/BulkDock/SCRATCH/217040/C13403-P42

>  <SLURM_JOB_ID>  (241) 
217040

>  <tags>  (241) 
['Fragmenstein placed', 'RdRp_knitwork_primer_grip_n_pocket_pure_fragalysis.sdf Pose OK']

>  <fragmenstein_mode>  (241) 
expansion

>  <csv_name>  (241) 
RdRp_knitwork_primer_grip_n_pocket_pure_split1800_batch006.csv

$$$$
RAOJLVVTLKMWSI-HNNXBMFYSA-N
     RDKit          3D

 22 23  0  0  0  0  0  0  0  0999 V2000
  -15.5654  -40.1786  -21.8526 C   0  0  0  0  0  0  0  0  0  0  0  0
  -14.5844  -40.9422  -22.7285 C   0  0  0  0  0  0  0  0  0  0  0  0
  -14.7933  -42.4585  -22.7276 C   0  0  0  0  0  0  0  0  0  0  0  0
  -16.1661  -42.8953  -23.0853 N   0  0  0  0  0  0  0  0  0  0  0  0
  -16.1993  -43.5256  -24.4293 C   0  0  0  0  0  0  0  0  0  0  0  0
  -15.6723  -42.7095  -25.5996 C   0  0  0  0  0  0  0  0  0  0  0  0
  -16.2496  -41.4149  -25.7159 N   0  0  0  0  0  0  0  0  0  0  0  0
  -15.6152  -40.0762  -26.0750 C   0  0  0  0  0  0  0  0  0  0  0  0
  -14.5069  -39.7958  -26.2598 O   0  0  0  0  0  0  0  0  0  0  0  0
  -16.6432  -39.0413  -26.0690 C   0  0  0  0  0  0  0  0  0  0  0  0
  -16.7403  -38.1667  -24.9930 C   0  0  0  0  0  0  0  0  0  0  0  0
  -17.8001  -37.2762  -24.9641 C   0  0  0  0  0  0  0  0  0  0  0  0
  -18.7083  -37.3184  -26.0103 C   0  0  0  0  0  0  0  0  0  0  0  0
  -18.6437  -38.1663  -27.0607 N   0  0  0  0  0  0  0  0  0  0  0  0
  -17.5844  -39.0064  -27.0780 C   0  0  0  0  0  0  0  0  0  0  0  0
  -16.6258  -43.9290  -22.1233 C   0  0  0  0  0  0  0  0  0  0  0  0
  -17.1316  -43.3529  -20.7895 C   0  0  0  0  0  0  0  0  0  0  0  0
  -17.4874  -44.3916  -19.6945 C   0  0  1  0  0  0  0  0  0  0  0  0
  -18.3680  -45.5293  -20.1703 C   0  0  0  0  0  0  0  0  0  0  0  0
  -17.3814  -46.5898  -20.6271 C   0  0  0  0  0  0  0  0  0  0  0  0
  -16.0928  -46.2427  -20.1018 O   0  0  0  0  0  0  0  0  0  0  0  0
  -16.2650  -45.1463  -19.2013 C   0  0  0  0  0  0  0  0  0  0  0  0
  1  2  1  0
  2  3  1  0
  3  4  1  0
  4  5  1  0
  5  6  1  0
  6  7  1  0
  7  8  1  0
  8  9  2  0
  8 10  1  0
 10 11  2  0
 11 12  1  0
 12 13  2  0
 13 14  1  0
 14 15  2  0
  4 16  1  0
 16 17  1  0
 18 17  1  6
 18 19  1  0
 19 20  1  0
 20 21  1  0
 21 22  1  0
 15 10  1  0
 22 18  1  0
M  END
>  <fragmenstein_runtime>  (242) 
7.81578

>  <original ID>  (242) 
RAOJLVVTLKMWSI-HNNXBMFYSA-N

>  <fragmenstein_error>  (242) 
None

>  <ref_pdb>  (242) 
d0191a

>  <Multi-SuCOS>  (242) 
0.49806

>  <SLURM_JOB_NAME>  (242) 
BulkDock.place:Flavi_NS5_RdRp:RdRp_knitwork_primer_grip_n_pocket_pure_split1800_batch001

>  <HIPPO Compound ID>  (242) 
16235

>  <original SMILES>  (242) 
CCCN(CCNC(=O)c1cccnc1)CC[C@H]1CCOC1

>  <name>  (242) 
RAOJLVVTLKMWSI-HNNXBMFYSA-N

>  <HIPPO Pose ID>  (242) 
72931

>  <ref_mols>  (242) 
d0191a,d0254a

>  <exports>  (242) 
['/opt/xchem-fragalysis-2/maxwin/BulkDock/OUTPUTS/RdRp_knitwork_primer_grip_n_pocket_pure_split1800_batch001_217035.sdf', '/opt/xchem-fragalysis-2/maxwin/BulkDock/OUTPUTS/RdRp_knitwork_primer_grip_n_pocket_pure_fragalysis.sdf', '/opt/xchem-fragalysis-2/maxwin/RdRp_FFF/syndirella/Retro_OK_batch1.sdf']

>  <alias>  (242) 
None

>  <inchikey>  (242) 
RAOJLVVTLKMWSI-HNNXBMFYSA-N

>  <energy_score>  (242) 
-31.221101

>  <distance_score>  (242) 
0.941997

>  <fragmenstein_outcome>  (242) 
acceptable

>  <merge_set>  (242) 
RdRp_knitwork_primer_grip_n_pocket_pure_fragalysis.sdf

>  <scratch_subdir>  (242) 
/opt/xchem-fragalysis-2/maxwin/BulkDock/SCRATCH/217035/C16235-P19

>  <SLURM_JOB_ID>  (242) 
217035

>  <tags>  (242) 
['Fragmenstein placed', 'RdRp_knitwork_primer_grip_n_pocket_pure_fragalysis.sdf Pose OK']

>  <fragmenstein_mode>  (242) 
expansion

>  <csv_name>  (242) 
RdRp_knitwork_primer_grip_n_pocket_pure_split1800_batch001.csv

$$$$
AYRPVLHPYFLNIA-ZDUSSCGKSA-N
     RDKit          3D

 24 26  0  0  0  0  0  0  0  0999 V2000
  -20.5322  -42.9279  -17.4140 C   0  0  0  0  0  0  0  0  0  0  0  0
  -20.8963  -44.2574  -18.0889 C   0  0  2  0  0  0  0  0  0  0  0  0
  -21.1094  -45.2623  -17.0436 N   0  0  0  0  0  0  0  0  0  0  0  0
  -21.8541  -46.4167  -17.5215 C   0  0  0  0  0  0  0  0  0  0  0  0
  -22.5072  -47.1864  -16.3788 C   0  0  0  0  0  0  0  0  0  0  0  0
  -23.5033  -46.3528  -15.5797 C   0  0  0  0  0  0  0  0  0  0  0  0
  -24.5010  -45.7037  -16.3963 N   0  0  0  0  0  0  0  0  0  0  0  0
  -24.5767  -44.2496  -16.9271 C   0  0  0  0  0  0  0  0  0  0  0  0
  -23.8820  -43.3301  -16.7218 O   0  0  0  0  0  0  0  0  0  0  0  0
  -25.8479  -44.1121  -17.8278 C   0  0  0  0  0  0  0  0  0  0  0  0
  -25.6059  -43.7560  -19.3140 C   0  0  0  0  0  0  0  0  0  0  0  0
  -26.8620  -42.8693  -19.2533 C   0  0  0  0  0  0  0  0  0  0  0  0
  -26.6480  -42.7811  -17.7337 C   0  0  0  0  0  0  0  0  0  0  0  0
  -19.8253  -44.6341  -19.0736 C   0  0  0  0  0  0  0  0  0  0  0  0
  -19.8157  -44.4849  -20.4460 C   0  0  0  0  0  0  0  0  0  0  0  0
  -18.5932  -44.6764  -21.0641 N   0  0  0  0  0  0  0  0  0  0  0  0
  -17.6693  -44.9103  -20.1459 C   0  0  0  0  0  0  0  0  0  0  0  0
  -16.2159  -44.7022  -20.3324 C   0  0  0  0  0  0  0  0  0  0  0  0
  -15.7256  -44.2291  -21.5478 C   0  0  0  0  0  0  0  0  0  0  0  0
  -14.4113  -43.7728  -21.6134 C   0  0  0  0  0  0  0  0  0  0  0  0
  -13.6285  -43.7820  -20.4675 C   0  0  0  0  0  0  0  0  0  0  0  0
  -14.1728  -44.3029  -19.3114 C   0  0  0  0  0  0  0  0  0  0  0  0
  -15.4273  -44.7938  -19.2244 N   0  0  0  0  0  0  0  0  0  0  0  0
  -18.3061  -45.2632  -18.5812 S   0  0  0  0  0  0  0  0  0  0  0  0
  2  1  1  1
  2  3  1  0
  3  4  1  0
  4  5  1  0
  5  6  1  0
  6  7  1  0
  7  8  1  0
  8  9  2  0
  8 10  1  0
 10 11  1  0
 11 12  1  0
 12 13  1  0
  2 14  1  0
 14 15  2  0
 15 16  1  0
 16 17  2  0
 17 18  1  0
 18 19  2  0
 19 20  1  0
 20 21  2  0
 21 22  1  0
 22 23  2  0
 17 24  1  0
 13 10  1  0
 24 14  1  0
 23 18  1  0
M  END
>  <fragmenstein_runtime>  (243) 
5.261388

>  <original ID>  (243) 
AYRPVLHPYFLNIA-ZDUSSCGKSA-N

>  <fragmenstein_error>  (243) 
None

>  <ref_pdb>  (243) 
d0472a

>  <Multi-SuCOS>  (243) 
0.515484

>  <SLURM_JOB_NAME>  (243) 
BulkDock.place:Flavi_NS5_RdRp:RdRp_knitwork_primer_grip_n_pocket_pure_split1800_batch003

>  <HIPPO Compound ID>  (243) 
11625

>  <original SMILES>  (243) 
C[C@H](NCCCNC(=O)C1CCC1)c1cnc(-c2ccccn2)s1

>  <name>  (243) 
AYRPVLHPYFLNIA-ZDUSSCGKSA-N

>  <HIPPO Pose ID>  (243) 
72937

>  <ref_mols>  (243) 
d0264a,d0472a

>  <exports>  (243) 
['/opt/xchem-fragalysis-2/maxwin/BulkDock/OUTPUTS/RdRp_knitwork_primer_grip_n_pocket_pure_split1800_batch003_217037.sdf', '/opt/xchem-fragalysis-2/maxwin/BulkDock/OUTPUTS/RdRp_knitwork_primer_grip_n_pocket_pure_fragalysis.sdf', '/opt/xchem-fragalysis-2/maxwin/RdRp_FFF/syndirella/Retro_OK_batch1.sdf']

>  <alias>  (243) 
None

>  <inchikey>  (243) 
AYRPVLHPYFLNIA-ZDUSSCGKSA-N

>  <energy_score>  (243) 
-66.509775

>  <distance_score>  (243) 
0.862768

>  <fragmenstein_outcome>  (243) 
acceptable

>  <merge_set>  (243) 
RdRp_knitwork_primer_grip_n_pocket_pure_fragalysis.sdf

>  <scratch_subdir>  (243) 
/opt/xchem-fragalysis-2/maxwin/BulkDock/SCRATCH/217037/C11625-P42

>  <SLURM_JOB_ID>  (243) 
217037

>  <tags>  (243) 
['Fragmenstein placed', 'RdRp_knitwork_primer_grip_n_pocket_pure_fragalysis.sdf Pose OK']

>  <fragmenstein_mode>  (243) 
expansion

>  <csv_name>  (243) 
RdRp_knitwork_primer_grip_n_pocket_pure_split1800_batch003.csv

$$$$
IBGRYOWVMGBQTA-VCBZYWHSSA-N
     RDKit          3D

 22 24  0  0  0  0  0  0  0  0999 V2000
  -14.3483  -43.7709  -21.5395 C   0  0  0  0  0  0  0  0  0  0  0  0
  -14.9405  -44.0564  -22.9330 C   0  0  1  0  0  0  0  0  0  0  0  0
  -16.0001  -45.0827  -22.8480 N   0  0  0  0  0  0  0  0  0  0  0  0
  -17.2096  -44.7247  -22.0925 C   0  0  1  0  0  0  0  0  0  0  0  0
  -18.3846  -44.8734  -23.0543 C   0  0  0  0  0  0  0  0  0  0  0  0
  -17.4229  -45.6690  -20.8741 C   0  0  2  0  0  0  0  0  0  0  0  0
  -18.5438  -45.2204  -19.9425 C   0  0  0  0  0  0  0  0  0  0  0  0
  -18.0950  -45.7663  -18.6121 C   0  0  0  0  0  0  0  0  0  0  0  0
  -16.5979  -45.5845  -18.6882 C   0  0  0  0  0  0  0  0  0  0  0  0
  -16.2301  -45.7280  -20.0645 O   0  0  0  0  0  0  0  0  0  0  0  0
  -15.3007  -42.8273  -23.7455 C   0  0  0  0  0  0  0  0  0  0  0  0
  -16.1223  -42.8968  -24.8714 C   0  0  0  0  0  0  0  0  0  0  0  0
  -16.5402  -41.7340  -25.5208 C   0  0  0  0  0  0  0  0  0  0  0  0
  -16.1054  -40.4691  -25.1089 C   0  0  0  0  0  0  0  0  0  0  0  0
  -16.8188  -39.2433  -25.5087 C   0  0  0  0  0  0  0  0  0  0  0  0
  -16.9750  -38.1951  -24.5877 C   0  0  0  0  0  0  0  0  0  0  0  0
  -17.8239  -37.1366  -24.8536 C   0  0  0  0  0  0  0  0  0  0  0  0
  -18.5328  -37.1614  -26.0326 C   0  0  0  0  0  0  0  0  0  0  0  0
  -18.4128  -38.1150  -26.9754 N   0  0  0  0  0  0  0  0  0  0  0  0
  -17.5268  -39.1113  -26.7046 C   0  0  0  0  0  0  0  0  0  0  0  0
  -15.1122  -40.4346  -24.1260 C   0  0  0  0  0  0  0  0  0  0  0  0
  -14.7413  -41.5854  -23.4384 C   0  0  0  0  0  0  0  0  0  0  0  0
  2  1  1  1
  2  3  1  0
  3  4  1  0
  4  5  1  6
  4  6  1  0
  6  7  1  1
  7  8  1  0
  8  9  1  0
  9 10  1  0
  2 11  1  0
 11 12  2  0
 12 13  1  0
 13 14  2  0
 14 15  1  0
 15 16  2  0
 16 17  1  0
 17 18  2  0
 18 19  1  0
 19 20  2  0
 14 21  1  0
 21 22  2  0
 10  6  1  0
 22 11  1  0
 20 15  1  0
M  END
>  <fragmenstein_runtime>  (244) 
9.750204

>  <original ID>  (244) 
IBGRYOWVMGBQTA-VCBZYWHSSA-N

>  <fragmenstein_error>  (244) 
None

>  <ref_pdb>  (244) 
d0191a

>  <Multi-SuCOS>  (244) 
0.627833

>  <SLURM_JOB_NAME>  (244) 
BulkDock.place:Flavi_NS5_RdRp:RdRp_knitwork_primer_grip_n_pocket_pure_split1800_batch001

>  <HIPPO Compound ID>  (244) 
17072

>  <original SMILES>  (244) 
C[C@H](N[C@H](C)c1ccc(-c2cccnc2)cc1)[C@@H]1CCCO1

>  <name>  (244) 
IBGRYOWVMGBQTA-VCBZYWHSSA-N

>  <HIPPO Pose ID>  (244) 
73360

>  <ref_mols>  (244) 
d0191a,d0254a

>  <exports>  (244) 
['/opt/xchem-fragalysis-2/maxwin/BulkDock/OUTPUTS/RdRp_knitwork_primer_grip_n_pocket_pure_split1800_batch001_217035.sdf', '/opt/xchem-fragalysis-2/maxwin/BulkDock/OUTPUTS/RdRp_knitwork_primer_grip_n_pocket_pure_fragalysis.sdf', '/opt/xchem-fragalysis-2/maxwin/RdRp_FFF/syndirella/Retro_OK_batch1.sdf']

>  <alias>  (244) 
None

>  <inchikey>  (244) 
IBGRYOWVMGBQTA-VCBZYWHSSA-N

>  <energy_score>  (244) 
-33.881129

>  <distance_score>  (244) 
0.874065

>  <fragmenstein_outcome>  (244) 
acceptable

>  <merge_set>  (244) 
RdRp_knitwork_primer_grip_n_pocket_pure_fragalysis.sdf

>  <scratch_subdir>  (244) 
/opt/xchem-fragalysis-2/maxwin/BulkDock/SCRATCH/217035/C17072-P19

>  <SLURM_JOB_ID>  (244) 
217035

>  <tags>  (244) 
['Fragmenstein placed', 'RdRp_knitwork_primer_grip_n_pocket_pure_fragalysis.sdf Pose OK']

>  <fragmenstein_mode>  (244) 
expansion

>  <csv_name>  (244) 
RdRp_knitwork_primer_grip_n_pocket_pure_split1800_batch001.csv

$$$$
HGMRINZTTPAZBD-LBPRGKRZSA-N
     RDKit          3D

 23 24  0  0  0  0  0  0  0  0999 V2000
  -23.9826  -43.9045  -19.6309 C   0  0  0  0  0  0  0  0  0  0  0  0
  -24.3706  -44.0818  -18.1663 C   0  0  0  0  0  0  0  0  0  0  0  0
  -25.8426  -43.6855  -18.0194 C   0  0  0  0  0  0  0  0  0  0  0  0
  -24.1411  -45.5380  -17.6955 C   0  0  0  0  0  0  0  0  0  0  0  0
  -22.8885  -45.7376  -16.8178 C   0  0  2  0  0  0  0  0  0  0  0  0
  -21.6750  -45.5796  -17.6281 N   0  0  0  0  0  0  0  0  0  0  0  0
  -20.9479  -44.3126  -18.0980 C   0  0  0  0  0  0  0  0  0  0  0  0
  -21.1500  -43.1929  -17.8545 O   0  0  0  0  0  0  0  0  0  0  0  0
  -19.9059  -44.6623  -19.0394 C   0  0  0  0  0  0  0  0  0  0  0  0
  -19.8585  -44.4015  -20.3910 C   0  0  0  0  0  0  0  0  0  0  0  0
  -18.6407  -44.6351  -20.9988 N   0  0  0  0  0  0  0  0  0  0  0  0
  -17.7432  -44.9339  -20.0720 C   0  0  0  0  0  0  0  0  0  0  0  0
  -16.2836  -44.7434  -20.2346 C   0  0  0  0  0  0  0  0  0  0  0  0
  -15.7667  -44.2880  -21.4478 C   0  0  0  0  0  0  0  0  0  0  0  0
  -14.4469  -43.8444  -21.4988 C   0  0  0  0  0  0  0  0  0  0  0  0
  -13.6837  -43.8470  -20.3402 C   0  0  0  0  0  0  0  0  0  0  0  0
  -14.2565  -44.3449  -19.1863 C   0  0  0  0  0  0  0  0  0  0  0  0
  -15.5176  -44.8251  -19.1130 N   0  0  0  0  0  0  0  0  0  0  0  0
  -18.4308  -45.3517  -18.5349 S   0  0  0  0  0  0  0  0  0  0  0  0
  -22.9578  -47.0917  -16.0877 C   0  0  0  0  0  0  0  0  0  0  0  0
  -22.0617  -47.1432  -15.0856 F   0  0  0  0  0  0  0  0  0  0  0  0
  -22.7054  -48.1178  -16.9342 F   0  0  0  0  0  0  0  0  0  0  0  0
  -24.1719  -47.3163  -15.5357 F   0  0  0  0  0  0  0  0  0  0  0  0
  1  2  1  0
  2  3  1  0
  2  4  1  0
  5  4  1  6
  5  6  1  0
  6  7  1  0
  7  8  2  0
  7  9  1  0
  9 10  2  0
 10 11  1  0
 11 12  2  0
 12 13  1  0
 13 14  2  0
 14 15  1  0
 15 16  2  0
 16 17  1  0
 17 18  2  0
 12 19  1  0
  5 20  1  0
 20 21  1  0
 20 22  1  0
 20 23  1  0
 19  9  1  0
 18 13  1  0
M  END
>  <fragmenstein_runtime>  (245) 
12.097528

>  <original ID>  (245) 
HGMRINZTTPAZBD-LBPRGKRZSA-N

>  <fragmenstein_error>  (245) 
None

>  <ref_pdb>  (245) 
d0472a

>  <Multi-SuCOS>  (245) 
0.524804

>  <SLURM_JOB_NAME>  (245) 
BulkDock.place:Flavi_NS5_RdRp:RdRp_knitwork_primer_grip_n_pocket_pure_split1800_batch003

>  <HIPPO Compound ID>  (245) 
13884

>  <original SMILES>  (245) 
CC(C)C[C@H](NC(=O)c1cnc(-c2ccccn2)s1)C(F)(F)F

>  <name>  (245) 
HGMRINZTTPAZBD-LBPRGKRZSA-N

>  <HIPPO Pose ID>  (245) 
73409

>  <ref_mols>  (245) 
d0264a,d0472a

>  <exports>  (245) 
['/opt/xchem-fragalysis-2/maxwin/BulkDock/OUTPUTS/RdRp_knitwork_primer_grip_n_pocket_pure_split1800_batch003_217037.sdf', '/opt/xchem-fragalysis-2/maxwin/BulkDock/OUTPUTS/RdRp_knitwork_primer_grip_n_pocket_pure_fragalysis.sdf', '/opt/xchem-fragalysis-2/maxwin/RdRp_FFF/syndirella/Retro_OK_batch1.sdf']

>  <alias>  (245) 
None

>  <inchikey>  (245) 
HGMRINZTTPAZBD-LBPRGKRZSA-N

>  <energy_score>  (245) 
-40.513359

>  <distance_score>  (245) 
0.941505

>  <fragmenstein_outcome>  (245) 
acceptable

>  <merge_set>  (245) 
RdRp_knitwork_primer_grip_n_pocket_pure_fragalysis.sdf

>  <scratch_subdir>  (245) 
/opt/xchem-fragalysis-2/maxwin/BulkDock/SCRATCH/217037/C13884-P42

>  <SLURM_JOB_ID>  (245) 
217037

>  <tags>  (245) 
['Fragmenstein placed', 'RdRp_knitwork_primer_grip_n_pocket_pure_fragalysis.sdf Pose OK']

>  <fragmenstein_mode>  (245) 
expansion

>  <csv_name>  (245) 
RdRp_knitwork_primer_grip_n_pocket_pure_split1800_batch003.csv

$$$$
FFWXXJFXGUGBRA-FQEVSTJZSA-N
     RDKit          3D

 20 21  0  0  0  0  0  0  0  0999 V2000
  -15.3406  -39.9742  -26.1481 C   0  0  0  0  0  0  0  0  0  0  0  0
  -15.5536  -41.0436  -25.1765 N   0  0  0  0  0  0  0  0  0  0  0  0
  -16.7480  -41.7878  -25.5652 C   0  0  0  0  0  0  0  0  0  0  0  0
  -15.3070  -40.7528  -23.5422 S   0  0  1  0  0  0  0  0  0  0  0  0
  -14.3391  -39.3981  -23.4125 N   0  0  0  0  0  0  0  0  0  0  0  0
  -16.5631  -40.3493  -22.9683 O   0  0  0  0  0  0  0  0  0  0  0  0
  -14.3326  -41.7692  -23.0155 N   0  0  0  0  0  0  0  0  0  0  0  0
  -14.7309  -43.0897  -22.7926 C   0  0  0  0  0  0  0  0  0  0  0  0
  -15.0795  -43.8267  -23.7060 O   0  0  0  0  0  0  0  0  0  0  0  0
  -14.6832  -43.5864  -21.4201 C   0  0  0  0  0  0  0  0  0  0  0  0
  -13.7584  -43.1564  -20.4420 C   0  0  0  0  0  0  0  0  0  0  0  0
  -13.8787  -43.8158  -19.2920 N   0  0  0  0  0  0  0  0  0  0  0  0
  -14.8407  -44.7194  -19.5417 N   0  0  0  0  0  0  0  0  0  0  0  0
  -15.1913  -45.5881  -18.4553 C   0  0  0  0  0  0  0  0  0  0  0  0
  -15.4011  -44.6000  -20.7869 C   0  0  0  0  0  0  0  0  0  0  0  0
  -16.4691  -45.3610  -21.2754 N   0  0  0  0  0  0  0  0  0  0  0  0
  -16.8883  -46.6145  -20.8596 C   0  0  0  0  0  0  0  0  0  0  0  0
  -17.9122  -47.0491  -21.6716 C   0  0  0  0  0  0  0  0  0  0  0  0
  -18.1712  -46.0233  -22.5928 C   0  0  0  0  0  0  0  0  0  0  0  0
  -17.3313  -44.9839  -22.2838 C   0  0  0  0  0  0  0  0  0  0  0  0
  1  2  1  0
  2  3  1  0
  2  4  1  0
  4  5  1  6
  4  6  2  0
  4  7  2  0
  7  8  1  0
  8  9  2  0
  8 10  1  0
 10 11  1  0
 11 12  2  0
 12 13  1  0
 13 14  1  0
 13 15  1  0
 15 16  1  0
 16 17  1  0
 17 18  2  0
 18 19  1  0
 19 20  2  0
 15 10  2  0
 20 16  1  0
M  END
>  <fragmenstein_runtime>  (246) 
4.256424

>  <original ID>  (246) 
FFWXXJFXGUGBRA-FQEVSTJZSA-N

>  <fragmenstein_error>  (246) 
None

>  <ref_pdb>  (246) 
d0160a

>  <Multi-SuCOS>  (246) 
0.559939

>  <SLURM_JOB_NAME>  (246) 
BulkDock.place:Flavi_NS5_RdRp:RdRp_knitwork_primer_grip_n_pocket_pure_split1800_batch009

>  <HIPPO Compound ID>  (246) 
21483

>  <original SMILES>  (246) 
CN(C)[S@@](N)(=O)=NC(=O)c1cnn(C)c1-n1cccc1

>  <name>  (246) 
FFWXXJFXGUGBRA-FQEVSTJZSA-N

>  <HIPPO Pose ID>  (246) 
73548

>  <ref_mols>  (246) 
d0160a,d0472a

>  <exports>  (246) 
['/opt/xchem-fragalysis-2/maxwin/BulkDock/OUTPUTS/RdRp_knitwork_primer_grip_n_pocket_pure_split1800_batch009_217043.sdf', '/opt/xchem-fragalysis-2/maxwin/BulkDock/OUTPUTS/RdRp_knitwork_primer_grip_n_pocket_pure_fragalysis.sdf', '/opt/xchem-fragalysis-2/maxwin/RdRp_FFF/syndirella/Retro_OK_batch1.sdf']

>  <alias>  (246) 
None

>  <inchikey>  (246) 
FFWXXJFXGUGBRA-FQEVSTJZSA-N

>  <energy_score>  (246) 
-80.778188

>  <distance_score>  (246) 
0.885759

>  <fragmenstein_outcome>  (246) 
acceptable

>  <merge_set>  (246) 
RdRp_knitwork_primer_grip_n_pocket_pure_fragalysis.sdf

>  <scratch_subdir>  (246) 
/opt/xchem-fragalysis-2/maxwin/BulkDock/SCRATCH/217043/C21483-P12

>  <SLURM_JOB_ID>  (246) 
217043

>  <tags>  (246) 
['Fragmenstein placed', 'RdRp_knitwork_primer_grip_n_pocket_pure_fragalysis.sdf Pose OK']

>  <fragmenstein_mode>  (246) 
expansion

>  <csv_name>  (246) 
RdRp_knitwork_primer_grip_n_pocket_pure_split1800_batch009.csv

$$$$
FFWXXJFXGUGBRA-FQEVSTJZSA-N
     RDKit          3D

 20 21  0  0  0  0  0  0  0  0999 V2000
  -15.3925  -39.9723  -26.1508 C   0  0  0  0  0  0  0  0  0  0  0  0
  -15.5647  -41.0629  -25.1929 N   0  0  0  0  0  0  0  0  0  0  0  0
  -16.7523  -41.8227  -25.5782 C   0  0  0  0  0  0  0  0  0  0  0  0
  -15.3182  -40.7837  -23.5537 S   0  0  1  0  0  0  0  0  0  0  0  0
  -14.3235  -39.4458  -23.4323 N   0  0  0  0  0  0  0  0  0  0  0  0
  -16.5663  -40.3528  -22.9839 O   0  0  0  0  0  0  0  0  0  0  0  0
  -14.3573  -41.8140  -23.0285 N   0  0  0  0  0  0  0  0  0  0  0  0
  -14.7777  -43.1201  -22.7615 C   0  0  0  0  0  0  0  0  0  0  0  0
  -15.1818  -43.8646  -23.6451 O   0  0  0  0  0  0  0  0  0  0  0  0
  -14.6741  -43.5933  -21.3830 C   0  0  0  0  0  0  0  0  0  0  0  0
  -13.6854  -43.1792  -20.4614 C   0  0  0  0  0  0  0  0  0  0  0  0
  -13.7655  -43.8105  -19.2914 N   0  0  0  0  0  0  0  0  0  0  0  0
  -14.8104  -44.6417  -19.4481 N   0  0  0  0  0  0  0  0  0  0  0  0
  -15.2488  -45.3439  -18.2718 C   0  0  0  0  0  0  0  0  0  0  0  0
  -15.3808  -44.5771  -20.6954 C   0  0  0  0  0  0  0  0  0  0  0  0
  -16.4534  -45.3591  -21.1349 N   0  0  0  0  0  0  0  0  0  0  0  0
  -16.7980  -46.6293  -20.7017 C   0  0  0  0  0  0  0  0  0  0  0  0
  -17.8270  -47.1093  -21.4813 C   0  0  0  0  0  0  0  0  0  0  0  0
  -18.1812  -46.0908  -22.3801 C   0  0  0  0  0  0  0  0  0  0  0  0
  -17.3646  -45.0198  -22.1135 C   0  0  0  0  0  0  0  0  0  0  0  0
  1  2  1  0
  2  3  1  0
  2  4  1  0
  4  5  1  6
  4  6  2  0
  4  7  2  0
  7  8  1  0
  8  9  2  0
  8 10  1  0
 10 11  1  0
 11 12  2  0
 12 13  1  0
 13 14  1  0
 13 15  1  0
 15 16  1  0
 16 17  1  0
 17 18  2  0
 18 19  1  0
 19 20  2  0
 15 10  2  0
 20 16  1  0
M  END
>  <fragmenstein_runtime>  (247) 
4.107632

>  <original ID>  (247) 
FFWXXJFXGUGBRA-FQEVSTJZSA-N

>  <fragmenstein_error>  (247) 
None

>  <ref_pdb>  (247) 
d0472a

>  <Multi-SuCOS>  (247) 
0.568063

>  <SLURM_JOB_NAME>  (247) 
BulkDock.place:Flavi_NS5_RdRp:RdRp_knitwork_primer_grip_n_pocket_pure_split1800_batch009

>  <HIPPO Compound ID>  (247) 
21483

>  <original SMILES>  (247) 
CN(C)[S@@](N)(=O)=NC(=O)c1cnn(C)c1-n1cccc1

>  <name>  (247) 
FFWXXJFXGUGBRA-FQEVSTJZSA-N

>  <HIPPO Pose ID>  (247) 
73553

>  <ref_mols>  (247) 
d0160a,d0472a

>  <exports>  (247) 
['/opt/xchem-fragalysis-2/maxwin/BulkDock/OUTPUTS/RdRp_knitwork_primer_grip_n_pocket_pure_split1800_batch009_217043.sdf', '/opt/xchem-fragalysis-2/maxwin/BulkDock/OUTPUTS/RdRp_knitwork_primer_grip_n_pocket_pure_fragalysis.sdf', '/opt/xchem-fragalysis-2/maxwin/RdRp_FFF/syndirella/Retro_OK_batch1.sdf']

>  <alias>  (247) 
None

>  <inchikey>  (247) 
FFWXXJFXGUGBRA-FQEVSTJZSA-N

>  <energy_score>  (247) 
-80.708509

>  <distance_score>  (247) 
0.886836

>  <fragmenstein_outcome>  (247) 
acceptable

>  <merge_set>  (247) 
RdRp_knitwork_primer_grip_n_pocket_pure_fragalysis.sdf

>  <scratch_subdir>  (247) 
/opt/xchem-fragalysis-2/maxwin/BulkDock/SCRATCH/217043/C21483-P42

>  <SLURM_JOB_ID>  (247) 
217043

>  <tags>  (247) 
['Fragmenstein placed', 'RdRp_knitwork_primer_grip_n_pocket_pure_fragalysis.sdf Pose OK']

>  <fragmenstein_mode>  (247) 
expansion

>  <csv_name>  (247) 
RdRp_knitwork_primer_grip_n_pocket_pure_split1800_batch009.csv

$$$$
OPOSJVRARWHRPJ-ZETCQYMHSA-N
     RDKit          3D

 15 16  0  0  0  0  0  0  0  0999 V2000
  -17.4038  -40.9024  -22.5001 O   0  0  0  0  0  0  0  0  0  0  0  0
  -16.4515  -41.4308  -23.4550 S   0  0  0  0  0  0  0  0  0  0  0  0
  -16.3309  -42.8599  -23.6672 O   0  0  0  0  0  0  0  0  0  0  0  0
  -14.9083  -40.9316  -22.7790 C   0  0  0  0  0  0  0  0  0  0  0  0
  -14.2087  -41.6912  -21.8159 C   0  0  0  0  0  0  0  0  0  0  0  0
  -13.1499  -40.8991  -21.4433 C   0  0  0  0  0  0  0  0  0  0  0  0
  -13.2461  -39.7624  -22.1870 N   0  0  0  0  0  0  0  0  0  0  0  0
  -14.3000  -39.7484  -23.0216 N   0  0  0  0  0  0  0  0  0  0  0  0
  -16.7052  -40.7102  -24.9482 N   0  0  0  0  0  0  0  0  0  0  0  0
  -15.9315  -41.2385  -26.0854 C   0  0  0  0  0  0  0  0  0  0  0  0
  -15.5699  -40.0239  -26.9146 C   0  0  0  0  0  0  0  0  0  0  0  0
  -16.6433  -39.0094  -26.5833 C   0  0  0  0  0  0  0  0  0  0  0  0
  -16.8351  -39.2349  -25.0814 C   0  0  1  0  0  0  0  0  0  0  0  0
  -18.1617  -38.7032  -24.5592 C   0  0  0  0  0  0  0  0  0  0  0  0
  -19.5753  -39.5487  -25.2431 Cl  0  0  0  0  0  0  0  0  0  0  0  0
  1  2  2  0
  2  3  2  0
  2  4  1  0
  4  5  1  0
  5  6  2  0
  6  7  1  0
  7  8  1  0
  2  9  1  0
  9 10  1  0
 10 11  1  0
 11 12  1  0
 12 13  1  0
 13 14  1  6
 14 15  1  0
  8  4  2  0
 13  9  1  0
M  END
>  <fragmenstein_runtime>  (248) 
2.427165

>  <original ID>  (248) 
OPOSJVRARWHRPJ-ZETCQYMHSA-N

>  <fragmenstein_error>  (248) 
None

>  <ref_pdb>  (248) 
d0160a

>  <Multi-SuCOS>  (248) 
0.668209

>  <SLURM_JOB_NAME>  (248) 
BulkDock.place:Flavi_NS5_RdRp:RdRp_knitwork_primer_grip_n_pocket_pure_split1800_batch005

>  <HIPPO Compound ID>  (248) 
13086

>  <original SMILES>  (248) 
O=S(=O)(c1cc[nH]n1)N1CCC[C@H]1CCl

>  <name>  (248) 
OPOSJVRARWHRPJ-ZETCQYMHSA-N

>  <HIPPO Pose ID>  (248) 
73572

>  <ref_mols>  (248) 
d0160a,d0866a

>  <exports>  (248) 
['/opt/xchem-fragalysis-2/maxwin/BulkDock/OUTPUTS/RdRp_knitwork_primer_grip_n_pocket_pure_split1800_batch005_217039.sdf', '/opt/xchem-fragalysis-2/maxwin/BulkDock/OUTPUTS/RdRp_knitwork_primer_grip_n_pocket_pure_fragalysis.sdf', '/opt/xchem-fragalysis-2/maxwin/RdRp_FFF/syndirella/Retro_OK_batch1.sdf']

>  <alias>  (248) 
None

>  <inchikey>  (248) 
OPOSJVRARWHRPJ-ZETCQYMHSA-N

>  <energy_score>  (248) 
-43.679236

>  <distance_score>  (248) 
0.933793

>  <fragmenstein_outcome>  (248) 
acceptable

>  <merge_set>  (248) 
RdRp_knitwork_primer_grip_n_pocket_pure_fragalysis.sdf

>  <scratch_subdir>  (248) 
/opt/xchem-fragalysis-2/maxwin/BulkDock/SCRATCH/217039/C13086-P12

>  <SLURM_JOB_ID>  (248) 
217039

>  <tags>  (248) 
['Fragmenstein placed', 'RdRp_knitwork_primer_grip_n_pocket_pure_fragalysis.sdf Pose OK']

>  <fragmenstein_mode>  (248) 
expansion

>  <csv_name>  (248) 
RdRp_knitwork_primer_grip_n_pocket_pure_split1800_batch005.csv

$$$$
OPOSJVRARWHRPJ-ZETCQYMHSA-N
     RDKit          3D

 15 16  0  0  0  0  0  0  0  0999 V2000
  -17.3622  -40.8523  -22.5652 O   0  0  0  0  0  0  0  0  0  0  0  0
  -16.3712  -41.3724  -23.4840 S   0  0  0  0  0  0  0  0  0  0  0  0
  -16.2410  -42.7993  -23.7055 O   0  0  0  0  0  0  0  0  0  0  0  0
  -14.8550  -40.8849  -22.7413 C   0  0  0  0  0  0  0  0  0  0  0  0
  -14.1626  -41.6779  -21.8009 C   0  0  0  0  0  0  0  0  0  0  0  0
  -13.1048  -40.9001  -21.3967 C   0  0  0  0  0  0  0  0  0  0  0  0
  -13.1993  -39.7361  -22.0977 N   0  0  0  0  0  0  0  0  0  0  0  0
  -14.2471  -39.6929  -22.9375 N   0  0  0  0  0  0  0  0  0  0  0  0
  -16.5366  -40.6257  -24.9766 N   0  0  0  0  0  0  0  0  0  0  0  0
  -15.6058  -41.0697  -26.0338 C   0  0  0  0  0  0  0  0  0  0  0  0
  -15.3512  -39.8437  -26.8933 C   0  0  0  0  0  0  0  0  0  0  0  0
  -16.5077  -38.9151  -26.5931 C   0  0  0  0  0  0  0  0  0  0  0  0
  -16.7396  -39.1621  -25.0997 C   0  0  1  0  0  0  0  0  0  0  0  0
  -18.1137  -38.7042  -24.6326 C   0  0  0  0  0  0  0  0  0  0  0  0
  -19.4521  -39.6000  -25.3996 Cl  0  0  0  0  0  0  0  0  0  0  0  0
  1  2  2  0
  2  3  2  0
  2  4  1  0
  4  5  1  0
  5  6  2  0
  6  7  1  0
  7  8  1  0
  2  9  1  0
  9 10  1  0
 10 11  1  0
 11 12  1  0
 12 13  1  0
 13 14  1  6
 14 15  1  0
  8  4  2  0
 13  9  1  0
M  END
>  <fragmenstein_runtime>  (249) 
2.084053

>  <original ID>  (249) 
OPOSJVRARWHRPJ-ZETCQYMHSA-N

>  <fragmenstein_error>  (249) 
None

>  <ref_pdb>  (249) 
d0866a

>  <Multi-SuCOS>  (249) 
0.666675

>  <SLURM_JOB_NAME>  (249) 
BulkDock.place:Flavi_NS5_RdRp:RdRp_knitwork_primer_grip_n_pocket_pure_split1800_batch005

>  <HIPPO Compound ID>  (249) 
13086

>  <original SMILES>  (249) 
O=S(=O)(c1cc[nH]n1)N1CCC[C@H]1CCl

>  <name>  (249) 
OPOSJVRARWHRPJ-ZETCQYMHSA-N

>  <HIPPO Pose ID>  (249) 
73574

>  <ref_mols>  (249) 
d0160a,d0866a

>  <exports>  (249) 
['/opt/xchem-fragalysis-2/maxwin/BulkDock/OUTPUTS/RdRp_knitwork_primer_grip_n_pocket_pure_split1800_batch005_217039.sdf', '/opt/xchem-fragalysis-2/maxwin/BulkDock/OUTPUTS/RdRp_knitwork_primer_grip_n_pocket_pure_fragalysis.sdf', '/opt/xchem-fragalysis-2/maxwin/RdRp_FFF/syndirella/Retro_OK_batch1.sdf']

>  <alias>  (249) 
None

>  <inchikey>  (249) 
OPOSJVRARWHRPJ-ZETCQYMHSA-N

>  <energy_score>  (249) 
-43.730195

>  <distance_score>  (249) 
0.936695

>  <fragmenstein_outcome>  (249) 
acceptable

>  <merge_set>  (249) 
RdRp_knitwork_primer_grip_n_pocket_pure_fragalysis.sdf

>  <scratch_subdir>  (249) 
/opt/xchem-fragalysis-2/maxwin/BulkDock/SCRATCH/217039/C13086-P68

>  <SLURM_JOB_ID>  (249) 
217039

>  <tags>  (249) 
['Fragmenstein placed', 'RdRp_knitwork_primer_grip_n_pocket_pure_fragalysis.sdf Pose OK']

>  <fragmenstein_mode>  (249) 
expansion

>  <csv_name>  (249) 
RdRp_knitwork_primer_grip_n_pocket_pure_split1800_batch005.csv

$$$$
TXVJWSUUKKOFIK-UHFFFAOYSA-N
     RDKit          3D

 22 23  0  0  0  0  0  0  0  0999 V2000
  -15.4119  -45.7274  -17.9912 C   0  0  0  0  0  0  0  0  0  0  0  0
  -14.7963  -44.9776  -19.0508 N   0  0  0  0  0  0  0  0  0  0  0  0
  -13.6819  -44.3008  -18.7222 N   0  0  0  0  0  0  0  0  0  0  0  0
  -13.4356  -43.5639  -19.7991 C   0  0  0  0  0  0  0  0  0  0  0  0
  -14.4077  -43.7251  -20.8113 C   0  0  0  0  0  0  0  0  0  0  0  0
  -14.3682  -43.0262  -22.0773 C   0  0  0  0  0  0  0  0  0  0  0  0
  -14.8584  -43.4422  -23.1173 O   0  0  0  0  0  0  0  0  0  0  0  0
  -13.7060  -41.8282  -22.0216 O   0  0  0  0  0  0  0  0  0  0  0  0
  -14.3405  -40.7878  -21.2650 C   0  0  0  0  0  0  0  0  0  0  0  0
  -14.2309  -39.4673  -22.0328 C   0  0  0  0  0  0  0  0  0  0  0  0
  -14.4917  -39.5781  -23.5348 C   0  0  0  0  0  0  0  0  0  0  0  0
  -15.7762  -40.3078  -23.9238 C   0  0  0  0  0  0  0  0  0  0  0  0
  -15.6725  -40.9209  -25.3152 C   0  0  0  0  0  0  0  0  0  0  0  0
  -16.8583  -41.7951  -25.6579 C   0  0  0  0  0  0  0  0  0  0  0  0
  -15.5633  -39.9345  -26.2381 F   0  0  0  0  0  0  0  0  0  0  0  0
  -14.5495  -41.6694  -25.4029 F   0  0  0  0  0  0  0  0  0  0  0  0
  -15.2482  -44.7231  -20.3237 C   0  0  0  0  0  0  0  0  0  0  0  0
  -16.3366  -45.3720  -20.9272 N   0  0  0  0  0  0  0  0  0  0  0  0
  -16.8117  -46.6429  -20.6338 C   0  0  0  0  0  0  0  0  0  0  0  0
  -17.8613  -46.9507  -21.4707 C   0  0  0  0  0  0  0  0  0  0  0  0
  -18.0726  -45.8353  -22.2961 C   0  0  0  0  0  0  0  0  0  0  0  0
  -17.1446  -44.8863  -21.9354 C   0  0  0  0  0  0  0  0  0  0  0  0
  1  2  1  0
  2  3  1  0
  3  4  2  0
  4  5  1  0
  5  6  1  0
  6  7  2  0
  6  8  1  0
  8  9  1  0
  9 10  1  0
 10 11  1  0
 11 12  1  0
 12 13  1  0
 13 14  1  0
 13 15  1  0
 13 16  1  0
  5 17  2  0
 17 18  1  0
 18 19  1  0
 19 20  2  0
 20 21  1  0
 21 22  2  0
 17  2  1  0
 22 18  1  0
M  END
>  <fragmenstein_runtime>  (250) 
5.769195

>  <original ID>  (250) 
TXVJWSUUKKOFIK-UHFFFAOYSA-N

>  <fragmenstein_error>  (250) 
None

>  <ref_pdb>  (250) 
d0472a

>  <Multi-SuCOS>  (250) 
0.462986

>  <SLURM_JOB_NAME>  (250) 
BulkDock.place:Flavi_NS5_RdRp:RdRp_knitwork_primer_grip_n_pocket_pure_split1800_batch009

>  <HIPPO Compound ID>  (250) 
22012

>  <original SMILES>  (250) 
Cn1ncc(C(=O)OCCCCC(C)(F)F)c1-n1cccc1

>  <name>  (250) 
TXVJWSUUKKOFIK-UHFFFAOYSA-N

>  <HIPPO Pose ID>  (250) 
74043

>  <ref_mols>  (250) 
d0160a,d0472a

>  <exports>  (250) 
['/opt/xchem-fragalysis-2/maxwin/BulkDock/OUTPUTS/RdRp_knitwork_primer_grip_n_pocket_pure_split1800_batch009_217043.sdf', '/opt/xchem-fragalysis-2/maxwin/BulkDock/OUTPUTS/RdRp_knitwork_primer_grip_n_pocket_pure_fragalysis.sdf', '/opt/xchem-fragalysis-2/maxwin/RdRp_FFF/syndirella/Retro_OK_batch1.sdf']

>  <alias>  (250) 
None

>  <inchikey>  (250) 
TXVJWSUUKKOFIK-UHFFFAOYSA-N

>  <energy_score>  (250) 
-38.390296

>  <distance_score>  (250) 
0.99812

>  <fragmenstein_outcome>  (250) 
acceptable

>  <merge_set>  (250) 
RdRp_knitwork_primer_grip_n_pocket_pure_fragalysis.sdf

>  <scratch_subdir>  (250) 
/opt/xchem-fragalysis-2/maxwin/BulkDock/SCRATCH/217043/C22012-P42

>  <SLURM_JOB_ID>  (250) 
217043

>  <tags>  (250) 
['Fragmenstein placed', 'RdRp_knitwork_primer_grip_n_pocket_pure_fragalysis.sdf Pose OK']

>  <fragmenstein_mode>  (250) 
expansion

>  <csv_name>  (250) 
RdRp_knitwork_primer_grip_n_pocket_pure_split1800_batch009.csv

$$$$
NOINGOYTRGWMNJ-JTQLQIEISA-N
     RDKit          3D

 19 20  0  0  0  0  0  0  0  0999 V2000
  -20.3803  -43.2106  -22.9390 C   0  0  0  0  0  0  0  0  0  0  0  0
  -20.7260  -43.3365  -21.4629 C   0  0  0  0  0  0  0  0  0  0  0  0
  -19.6940  -44.0549  -20.6457 C   0  0  0  0  0  0  0  0  0  0  0  0
  -18.4092  -44.1997  -21.1472 N   0  0  0  0  0  0  0  0  0  0  0  0
  -17.6294  -44.6732  -20.2009 C   0  0  0  0  0  0  0  0  0  0  0  0
  -16.2286  -44.5455  -20.2565 N   0  0  0  0  0  0  0  0  0  0  0  0
  -15.2775  -44.7837  -19.2674 C   0  0  0  0  0  0  0  0  0  0  0  0
  -14.0537  -44.3053  -19.6882 C   0  0  0  0  0  0  0  0  0  0  0  0
  -14.2152  -43.8443  -21.0106 C   0  0  0  0  0  0  0  0  0  0  0  0
  -15.5378  -44.0230  -21.3419 C   0  0  0  0  0  0  0  0  0  0  0  0
  -18.4053  -45.2684  -18.8092 S   0  0  0  0  0  0  0  0  0  0  0  0
  -19.8667  -44.5546  -19.3628 C   0  0  0  0  0  0  0  0  0  0  0  0
  -21.0172  -44.4234  -18.5078 C   0  0  0  0  0  0  0  0  0  0  0  0
  -21.6882  -43.4043  -18.4023 O   0  0  0  0  0  0  0  0  0  0  0  0
  -21.2743  -45.5952  -17.8665 O   0  0  0  0  0  0  0  0  0  0  0  0
  -22.3936  -45.6148  -16.9531 C   0  0  1  0  0  0  0  0  0  0  0  0
  -23.7142  -45.5122  -17.7135 C   0  0  0  0  0  0  0  0  0  0  0  0
  -22.2839  -46.9422  -16.1889 C   0  0  0  0  0  0  0  0  0  0  0  0
  -23.3335  -47.1165  -15.1051 C   0  0  0  0  0  0  0  0  0  0  0  0
  1  2  1  0
  2  3  1  0
  3  4  1  0
  4  5  2  0
  5  6  1  0
  6  7  1  0
  7  8  2  0
  8  9  1  0
  9 10  2  0
  5 11  1  0
 11 12  1  0
 12 13  1  0
 13 14  2  0
 13 15  1  0
 15 16  1  0
 16 17  1  6
 16 18  1  0
 18 19  1  0
 12  3  2  0
 10  6  1  0
M  END
>  <fragmenstein_runtime>  (251) 
7.354595

>  <original ID>  (251) 
NOINGOYTRGWMNJ-JTQLQIEISA-N

>  <fragmenstein_error>  (251) 
None

>  <ref_pdb>  (251) 
d0472a

>  <Multi-SuCOS>  (251) 
0.581774

>  <SLURM_JOB_NAME>  (251) 
BulkDock.place:Flavi_NS5_RdRp:RdRp_knitwork_primer_grip_n_pocket_pure_split1800_batch003

>  <HIPPO Compound ID>  (251) 
15932

>  <original SMILES>  (251) 
CCc1nc(-n2cccc2)sc1C(=O)O[C@@H](C)CC

>  <name>  (251) 
NOINGOYTRGWMNJ-JTQLQIEISA-N

>  <HIPPO Pose ID>  (251) 
74230

>  <ref_mols>  (251) 
d0264a,d0472a

>  <exports>  (251) 
['/opt/xchem-fragalysis-2/maxwin/BulkDock/OUTPUTS/RdRp_knitwork_primer_grip_n_pocket_pure_split1800_batch003_217037.sdf', '/opt/xchem-fragalysis-2/maxwin/BulkDock/OUTPUTS/RdRp_knitwork_primer_grip_n_pocket_pure_fragalysis.sdf', '/opt/xchem-fragalysis-2/maxwin/RdRp_FFF/syndirella/Retro_OK_batch1.sdf']

>  <alias>  (251) 
None

>  <inchikey>  (251) 
NOINGOYTRGWMNJ-JTQLQIEISA-N

>  <energy_score>  (251) 
-73.927571

>  <distance_score>  (251) 
0.97023

>  <fragmenstein_outcome>  (251) 
acceptable

>  <merge_set>  (251) 
RdRp_knitwork_primer_grip_n_pocket_pure_fragalysis.sdf

>  <scratch_subdir>  (251) 
/opt/xchem-fragalysis-2/maxwin/BulkDock/SCRATCH/217037/C15932-P42

>  <SLURM_JOB_ID>  (251) 
217037

>  <tags>  (251) 
['Fragmenstein placed', 'RdRp_knitwork_primer_grip_n_pocket_pure_fragalysis.sdf Pose OK']

>  <fragmenstein_mode>  (251) 
expansion

>  <csv_name>  (251) 
RdRp_knitwork_primer_grip_n_pocket_pure_split1800_batch003.csv

$$$$
AIKMHADXUOCSLX-BDAKNGLRSA-N
     RDKit          3D

 16 17  0  0  0  0  0  0  0  0999 V2000
  -18.4719  -44.1515  -22.5007 O   0  0  0  0  0  0  0  0  0  0  0  0
  -17.8799  -43.8088  -23.5123 C   0  0  0  0  0  0  0  0  0  0  0  0
  -18.5401  -43.7274  -24.6832 O   0  0  0  0  0  0  0  0  0  0  0  0
  -16.4397  -43.3603  -23.6134 C   0  0  2  0  0  0  0  0  0  0  0  0
  -15.6486  -43.9227  -22.4540 C   0  0  0  0  0  0  0  0  0  0  0  0
  -15.8997  -42.9344  -21.3349 C   0  0  0  0  0  0  0  0  0  0  0  0
  -16.4569  -41.7512  -21.9231 O   0  0  0  0  0  0  0  0  0  0  0  0
  -16.3848  -41.8721  -23.3609 C   0  0  1  0  0  0  0  0  0  0  0  0
  -15.0853  -41.1668  -23.7773 C   0  0  0  0  0  0  0  0  0  0  0  0
  -14.7970  -40.9717  -25.1834 N   0  0  0  0  0  0  0  0  0  0  0  0
  -15.8808  -40.6178  -26.0735 C   0  0  0  0  0  0  0  0  0  0  0  0
  -16.5983  -39.3146  -25.9027 C   0  0  0  0  0  0  0  0  0  0  0  0
  -17.3491  -38.7034  -26.8878 C   0  0  0  0  0  0  0  0  0  0  0  0
  -18.1362  -37.6346  -26.5126 N   0  0  0  0  0  0  0  0  0  0  0  0
  -17.8539  -37.3431  -25.2604 C   0  0  0  0  0  0  0  0  0  0  0  0
  -16.7392  -38.3805  -24.4773 S   0  0  0  0  0  0  0  0  0  0  0  0
  1  2  2  0
  2  3  1  0
  4  2  1  1
  4  5  1  0
  5  6  1  0
  6  7  1  0
  7  8  1  0
  8  9  1  1
  9 10  1  0
 10 11  1  0
 11 12  1  0
 12 13  2  0
 13 14  1  0
 14 15  2  0
 15 16  1  0
  8  4  1  0
 16 12  1  0
M  END
>  <fragmenstein_runtime>  (252) 
2.261087

>  <original ID>  (252) 
AIKMHADXUOCSLX-BDAKNGLRSA-N

>  <fragmenstein_error>  (252) 
None

>  <ref_pdb>  (252) 
d0615b

>  <Multi-SuCOS>  (252) 
0.619205

>  <SLURM_JOB_NAME>  (252) 
BulkDock.place:Flavi_NS5_RdRp:RdRp_knitwork_primer_grip_n_pocket_pure_split1800_batch001

>  <HIPPO Compound ID>  (252) 
22253

>  <original SMILES>  (252) 
O=C(O)[C@@H]1CCO[C@H]1CNCc1cncs1

>  <name>  (252) 
AIKMHADXUOCSLX-BDAKNGLRSA-N

>  <HIPPO Pose ID>  (252) 
75009

>  <ref_mols>  (252) 
d0254a,d0615b

>  <exports>  (252) 
['/opt/xchem-fragalysis-2/maxwin/BulkDock/OUTPUTS/RdRp_knitwork_primer_grip_n_pocket_pure_split1800_batch001_217035.sdf', '/opt/xchem-fragalysis-2/maxwin/BulkDock/OUTPUTS/RdRp_knitwork_primer_grip_n_pocket_pure_fragalysis.sdf', '/opt/xchem-fragalysis-2/maxwin/RdRp_FFF/syndirella/Retro_OK_batch1.sdf']

>  <alias>  (252) 
None

>  <inchikey>  (252) 
AIKMHADXUOCSLX-BDAKNGLRSA-N

>  <energy_score>  (252) 
-76.193431

>  <distance_score>  (252) 
0.983795

>  <fragmenstein_outcome>  (252) 
acceptable

>  <merge_set>  (252) 
RdRp_knitwork_primer_grip_n_pocket_pure_fragalysis.sdf

>  <scratch_subdir>  (252) 
/opt/xchem-fragalysis-2/maxwin/BulkDock/SCRATCH/217035/C22253-P51

>  <SLURM_JOB_ID>  (252) 
217035

>  <tags>  (252) 
['Fragmenstein placed', 'RdRp_knitwork_primer_grip_n_pocket_pure_fragalysis.sdf Pose OK']

>  <fragmenstein_mode>  (252) 
expansion

>  <csv_name>  (252) 
RdRp_knitwork_primer_grip_n_pocket_pure_split1800_batch001.csv

$$$$
GUFDDOCDYVUCQD-ZJUUUORDSA-N
     RDKit          3D

 14 15  0  0  0  0  0  0  0  0999 V2000
  -14.3928  -41.9602  -22.6170 C   0  0  0  0  0  0  0  0  0  0  0  0
  -14.7470  -42.3860  -24.0412 C   0  0  0  0  0  0  0  0  0  0  0  0
  -15.9193  -41.5985  -24.6760 C   0  0  1  0  0  0  0  0  0  0  0  0
  -15.4682  -40.2638  -25.4005 C   0  0  2  0  0  0  0  0  0  0  0  0
  -14.3256  -39.5668  -24.7906 N   0  0  0  0  0  0  0  0  0  0  0  0
  -16.5866  -39.2613  -25.5958 C   0  0  0  0  0  0  0  0  0  0  0  0
  -17.2642  -38.9288  -26.7553 C   0  0  0  0  0  0  0  0  0  0  0  0
  -18.2580  -37.9654  -26.6418 N   0  0  0  0  0  0  0  0  0  0  0  0
  -18.2686  -37.5300  -25.3992 C   0  0  0  0  0  0  0  0  0  0  0  0
  -17.1620  -38.2583  -24.3185 S   0  0  0  0  0  0  0  0  0  0  0  0
  -16.6371  -42.5325  -25.6644 C   0  0  0  0  0  0  0  0  0  0  0  0
  -17.5675  -43.3535  -24.7899 C   0  0  0  0  0  0  0  0  0  0  0  0
  -17.5334  -42.6813  -23.4349 C   0  0  0  0  0  0  0  0  0  0  0  0
  -16.9137  -41.4100  -23.6447 O   0  0  0  0  0  0  0  0  0  0  0  0
  1  2  1  0
  3  2  1  1
  3  4  1  0
  4  5  1  1
  4  6  1  0
  6  7  2  0
  7  8  1  0
  8  9  2  0
  9 10  1  0
  3 11  1  0
 11 12  1  0
 12 13  1  0
 13 14  1  0
 14  3  1  0
 10  6  1  0
M  END
>  <fragmenstein_runtime>  (253) 
2.356851

>  <original ID>  (253) 
GUFDDOCDYVUCQD-ZJUUUORDSA-N

>  <fragmenstein_error>  (253) 
None

>  <ref_pdb>  (253) 
d0254a

>  <Multi-SuCOS>  (253) 
0.603993

>  <SLURM_JOB_NAME>  (253) 
BulkDock.place:Flavi_NS5_RdRp:RdRp_knitwork_primer_grip_n_pocket_pure_split1800_batch001

>  <HIPPO Compound ID>  (253) 
22360

>  <original SMILES>  (253) 
CC[C@@]1([C@H](N)c2cncs2)CCCO1

>  <name>  (253) 
GUFDDOCDYVUCQD-ZJUUUORDSA-N

>  <HIPPO Pose ID>  (253) 
75040

>  <ref_mols>  (253) 
d0254a,d0615b

>  <exports>  (253) 
['/opt/xchem-fragalysis-2/maxwin/BulkDock/OUTPUTS/RdRp_knitwork_primer_grip_n_pocket_pure_split1800_batch001_217035.sdf', '/opt/xchem-fragalysis-2/maxwin/BulkDock/OUTPUTS/RdRp_knitwork_primer_grip_n_pocket_pure_fragalysis.sdf', '/opt/xchem-fragalysis-2/maxwin/RdRp_FFF/syndirella/Retro_OK_batch1.sdf']

>  <alias>  (253) 
None

>  <inchikey>  (253) 
GUFDDOCDYVUCQD-ZJUUUORDSA-N

>  <energy_score>  (253) 
-31.597781

>  <distance_score>  (253) 
0.9512

>  <fragmenstein_outcome>  (253) 
acceptable

>  <merge_set>  (253) 
RdRp_knitwork_primer_grip_n_pocket_pure_fragalysis.sdf

>  <scratch_subdir>  (253) 
/opt/xchem-fragalysis-2/maxwin/BulkDock/SCRATCH/217035/C22360-P26

>  <SLURM_JOB_ID>  (253) 
217035

>  <tags>  (253) 
['Fragmenstein placed', 'RdRp_knitwork_primer_grip_n_pocket_pure_fragalysis.sdf Pose OK']

>  <fragmenstein_mode>  (253) 
expansion

>  <csv_name>  (253) 
RdRp_knitwork_primer_grip_n_pocket_pure_split1800_batch001.csv

$$$$
MXLQRTYKAIFMPB-QXFUBDJGSA-N
     RDKit          3D

 14 15  0  0  0  0  0  0  0  0999 V2000
  -16.1097  -41.4682  -21.6651 C   0  0  0  0  0  0  0  0  0  0  0  0
  -14.8876  -41.7397  -22.5326 C   0  0  0  0  0  0  0  0  0  0  0  0
  -15.1989  -42.1677  -23.9612 C   0  0  1  0  0  0  0  0  0  0  0  0
  -15.9588  -43.3981  -23.9309 O   0  0  0  0  0  0  0  0  0  0  0  0
  -16.8670  -43.3722  -25.0375 C   0  0  0  0  0  0  0  0  0  0  0  0
  -16.4854  -42.1860  -25.8869 C   0  0  0  0  0  0  0  0  0  0  0  0
  -16.0467  -41.2199  -24.8024 C   0  0  2  0  0  0  0  0  0  0  0  0
  -15.4075  -39.9062  -25.2707 C   0  0  1  0  0  0  0  0  0  0  0  0
  -14.5042  -40.0342  -26.3967 N   0  0  0  0  0  0  0  0  0  0  0  0
  -16.5053  -38.9159  -25.5673 C   0  0  0  0  0  0  0  0  0  0  0  0
  -17.2496  -38.7021  -26.7120 C   0  0  0  0  0  0  0  0  0  0  0  0
  -18.2969  -37.7964  -26.6070 N   0  0  0  0  0  0  0  0  0  0  0  0
  -18.2730  -37.2736  -25.3992 C   0  0  0  0  0  0  0  0  0  0  0  0
  -17.0843  -37.8743  -24.3253 S   0  0  0  0  0  0  0  0  0  0  0  0
  1  2  1  0
  3  2  1  1
  3  4  1  0
  4  5  1  0
  5  6  1  0
  7  6  1  6
  7  8  1  0
  8  9  1  6
  8 10  1  0
 10 11  2  0
 11 12  1  0
 12 13  2  0
 13 14  1  0
  7  3  1  0
 14 10  1  0
M  END
>  <fragmenstein_runtime>  (254) 
1.738104

>  <original ID>  (254) 
MXLQRTYKAIFMPB-QXFUBDJGSA-N

>  <fragmenstein_error>  (254) 
None

>  <ref_pdb>  (254) 
d0254a

>  <Multi-SuCOS>  (254) 
0.605811

>  <SLURM_JOB_NAME>  (254) 
BulkDock.place:Flavi_NS5_RdRp:RdRp_knitwork_primer_grip_n_pocket_pure_split1800_batch001

>  <HIPPO Compound ID>  (254) 
22423

>  <original SMILES>  (254) 
CC[C@H]1OCC[C@@H]1[C@@H](N)c1cncs1

>  <name>  (254) 
MXLQRTYKAIFMPB-QXFUBDJGSA-N

>  <HIPPO Pose ID>  (254) 
75055

>  <ref_mols>  (254) 
d0254a,d0615b

>  <exports>  (254) 
['/opt/xchem-fragalysis-2/maxwin/BulkDock/OUTPUTS/RdRp_knitwork_primer_grip_n_pocket_pure_split1800_batch001_217035.sdf', '/opt/xchem-fragalysis-2/maxwin/BulkDock/OUTPUTS/RdRp_knitwork_primer_grip_n_pocket_pure_fragalysis.sdf', '/opt/xchem-fragalysis-2/maxwin/RdRp_FFF/syndirella/Retro_OK_batch1.sdf']

>  <alias>  (254) 
None

>  <inchikey>  (254) 
MXLQRTYKAIFMPB-QXFUBDJGSA-N

>  <energy_score>  (254) 
-70.889319

>  <distance_score>  (254) 
0.999088

>  <fragmenstein_outcome>  (254) 
acceptable

>  <merge_set>  (254) 
RdRp_knitwork_primer_grip_n_pocket_pure_fragalysis.sdf

>  <scratch_subdir>  (254) 
/opt/xchem-fragalysis-2/maxwin/BulkDock/SCRATCH/217035/C22423-P26

>  <SLURM_JOB_ID>  (254) 
217035

>  <tags>  (254) 
['Fragmenstein placed', 'RdRp_knitwork_primer_grip_n_pocket_pure_fragalysis.sdf Pose OK']

>  <fragmenstein_mode>  (254) 
expansion

>  <csv_name>  (254) 
RdRp_knitwork_primer_grip_n_pocket_pure_split1800_batch001.csv

$$$$
GSPDGNODYSQVGM-APPZFPTMSA-N
     RDKit          3D

 13 14  0  0  0  0  0  0  0  0999 V2000
  -14.2854  -39.5546  -26.4078 C   0  0  0  0  0  0  0  0  0  0  0  0
  -15.2122  -40.5514  -26.8837 N   0  0  0  0  0  0  0  0  0  0  0  0
  -16.3566  -40.7373  -26.0127 C   0  0  2  0  0  0  0  0  0  0  0  0
  -17.0332  -39.4211  -25.7191 C   0  0  0  0  0  0  0  0  0  0  0  0
  -17.6449  -38.6245  -26.6758 C   0  0  0  0  0  0  0  0  0  0  0  0
  -18.2813  -37.4853  -26.2348 N   0  0  0  0  0  0  0  0  0  0  0  0
  -18.0326  -37.3572  -24.9490 C   0  0  0  0  0  0  0  0  0  0  0  0
  -17.1277  -38.6173  -24.2150 S   0  0  0  0  0  0  0  0  0  0  0  0
  -16.0748  -41.7890  -24.9386 C   0  0  2  0  0  0  0  0  0  0  0  0
  -17.2671  -42.3289  -24.1914 C   0  0  0  0  0  0  0  0  0  0  0  0
  -16.5918  -43.1510  -23.1202 C   0  0  0  0  0  0  0  0  0  0  0  0
  -15.4010  -42.4371  -22.7661 O   0  0  0  0  0  0  0  0  0  0  0  0
  -15.1090  -41.4919  -23.8116 C   0  0  0  0  0  0  0  0  0  0  0  0
  1  2  1  0
  3  2  1  1
  3  4  1  0
  4  5  2  0
  5  6  1  0
  6  7  2  0
  7  8  1  0
  3  9  1  0
  9 10  1  1
 10 11  1  0
 11 12  1  0
 12 13  1  0
  8  4  1  0
 13  9  1  0
M  END
>  <fragmenstein_runtime>  (255) 
2.092875

>  <original ID>  (255) 
GSPDGNODYSQVGM-APPZFPTMSA-N

>  <fragmenstein_error>  (255) 
None

>  <ref_pdb>  (255) 
d0254a

>  <Multi-SuCOS>  (255) 
0.667177

>  <SLURM_JOB_NAME>  (255) 
BulkDock.place:Flavi_NS5_RdRp:RdRp_knitwork_primer_grip_n_pocket_pure_split1800_batch001

>  <HIPPO Compound ID>  (255) 
22926

>  <original SMILES>  (255) 
CN[C@H](c1cncs1)[C@@H]1CCOC1

>  <name>  (255) 
GSPDGNODYSQVGM-APPZFPTMSA-N

>  <HIPPO Pose ID>  (255) 
75081

>  <ref_mols>  (255) 
d0254a,d0615b

>  <exports>  (255) 
['/opt/xchem-fragalysis-2/maxwin/BulkDock/OUTPUTS/RdRp_knitwork_primer_grip_n_pocket_pure_split1800_batch001_217035.sdf', '/opt/xchem-fragalysis-2/maxwin/BulkDock/OUTPUTS/RdRp_knitwork_primer_grip_n_pocket_pure_fragalysis.sdf', '/opt/xchem-fragalysis-2/maxwin/RdRp_FFF/syndirella/Retro_OK_batch1.sdf']

>  <alias>  (255) 
None

>  <inchikey>  (255) 
GSPDGNODYSQVGM-APPZFPTMSA-N

>  <energy_score>  (255) 
-71.38824

>  <distance_score>  (255) 
0.992852

>  <fragmenstein_outcome>  (255) 
acceptable

>  <merge_set>  (255) 
RdRp_knitwork_primer_grip_n_pocket_pure_fragalysis.sdf

>  <scratch_subdir>  (255) 
/opt/xchem-fragalysis-2/maxwin/BulkDock/SCRATCH/217035/C22926-P26

>  <SLURM_JOB_ID>  (255) 
217035

>  <tags>  (255) 
['Fragmenstein placed', 'RdRp_knitwork_primer_grip_n_pocket_pure_fragalysis.sdf Pose OK']

>  <fragmenstein_mode>  (255) 
expansion

>  <csv_name>  (255) 
RdRp_knitwork_primer_grip_n_pocket_pure_split1800_batch001.csv

$$$$
LDTDGTBCQNMDSI-UHFFFAOYSA-N
     RDKit          3D

 22 24  0  0  0  0  0  0  0  0999 V2000
  -15.5791  -43.4147  -20.4888 O   0  0  0  0  0  0  0  0  0  0  0  0
  -15.7960  -43.4145  -21.6368 C   0  0  0  0  0  0  0  0  0  0  0  0
  -16.6723  -44.4913  -22.2949 C   0  0  0  0  0  0  0  0  0  0  0  0
  -17.6590  -44.1479  -23.4245 C   0  0  0  0  0  0  0  0  0  0  0  0
  -18.7332  -43.0934  -23.1411 C   0  0  0  0  0  0  0  0  0  0  0  0
  -18.1929  -41.7381  -23.0603 N   0  0  0  0  0  0  0  0  0  0  0  0
  -18.7275  -40.7967  -24.0557 C   0  0  0  0  0  0  0  0  0  0  0  0
  -20.0789  -40.1729  -23.7149 C   0  0  0  0  0  0  0  0  0  0  0  0
  -20.0743  -39.5600  -22.3215 C   0  0  0  0  0  0  0  0  0  0  0  0
  -19.5508  -40.5511  -21.2914 C   0  0  0  0  0  0  0  0  0  0  0  0
  -18.2076  -41.1461  -21.7131 C   0  0  0  0  0  0  0  0  0  0  0  0
  -15.3301  -42.4417  -22.7443 N   0  0  0  0  0  0  0  0  0  0  0  0
  -14.6193  -41.2790  -22.6621 C   0  0  0  0  0  0  0  0  0  0  0  0
  -13.9188  -40.7937  -21.5916 C   0  0  0  0  0  0  0  0  0  0  0  0
  -13.4880  -39.5555  -21.9645 N   0  0  0  0  0  0  0  0  0  0  0  0
  -13.9001  -39.1767  -23.1872 N   0  0  0  0  0  0  0  0  0  0  0  0
  -14.5591  -40.2550  -23.6492 C   0  0  0  0  0  0  0  0  0  0  0  0
  -15.2570  -40.3300  -25.0810 C   0  0  0  0  0  0  0  0  0  0  0  0
  -15.4788  -39.2732  -25.8320 N   0  0  0  0  0  0  0  0  0  0  0  0
  -16.1149  -39.6407  -26.9957 C   0  0  0  0  0  0  0  0  0  0  0  0
  -16.3501  -40.9852  -27.1509 C   0  0  0  0  0  0  0  0  0  0  0  0
  -15.8346  -41.8089  -25.7574 S   0  0  0  0  0  0  0  0  0  0  0  0
  1  2  2  0
  2  3  1  0
  3  4  1  0
  4  5  1  0
  5  6  1  0
  6  7  1  0
  7  8  1  0
  8  9  1  0
  9 10  1  0
 10 11  1  0
  2 12  1  0
 12 13  1  0
 13 14  2  0
 14 15  1  0
 15 16  1  0
 16 17  2  0
 17 18  1  0
 18 19  2  0
 19 20  1  0
 20 21  2  0
 21 22  1  0
 11  6  1  0
 17 13  1  0
 22 18  1  0
M  END
>  <fragmenstein_runtime>  (256) 
4.742774

>  <original ID>  (256) 
LDTDGTBCQNMDSI-UHFFFAOYSA-N

>  <fragmenstein_error>  (256) 
None

>  <ref_pdb>  (256) 
d0160a

>  <Multi-SuCOS>  (256) 
0.418101

>  <SLURM_JOB_NAME>  (256) 
BulkDock.place:Flavi_NS5_RdRp:RdRp_knitwork_primer_grip_n_pocket_pure_split1800_batch009

>  <HIPPO Compound ID>  (256) 
22680

>  <original SMILES>  (256) 
O=C(CCCN1CCCCC1)Nc1c[nH]nc1-c1nccs1

>  <name>  (256) 
LDTDGTBCQNMDSI-UHFFFAOYSA-N

>  <HIPPO Pose ID>  (256) 
75307

>  <ref_mols>  (256) 
d0160a,d0615b

>  <exports>  (256) 
['/opt/xchem-fragalysis-2/maxwin/BulkDock/OUTPUTS/RdRp_knitwork_primer_grip_n_pocket_pure_split1800_batch009_217043.sdf', '/opt/xchem-fragalysis-2/maxwin/BulkDock/OUTPUTS/RdRp_knitwork_primer_grip_n_pocket_pure_fragalysis.sdf', '/opt/xchem-fragalysis-2/maxwin/RdRp_FFF/syndirella/Retro_OK_batch1.sdf']

>  <alias>  (256) 
None

>  <inchikey>  (256) 
LDTDGTBCQNMDSI-UHFFFAOYSA-N

>  <energy_score>  (256) 
-108.739974

>  <distance_score>  (256) 
0.961724

>  <fragmenstein_outcome>  (256) 
acceptable

>  <merge_set>  (256) 
RdRp_knitwork_primer_grip_n_pocket_pure_fragalysis.sdf

>  <scratch_subdir>  (256) 
/opt/xchem-fragalysis-2/maxwin/BulkDock/SCRATCH/217043/C22680-P12

>  <SLURM_JOB_ID>  (256) 
217043

>  <tags>  (256) 
['Fragmenstein placed', 'RdRp_knitwork_primer_grip_n_pocket_pure_fragalysis.sdf Pose OK']

>  <fragmenstein_mode>  (256) 
expansion

>  <csv_name>  (256) 
RdRp_knitwork_primer_grip_n_pocket_pure_split1800_batch009.csv

$$$$
ROUNVNLNYKULJE-IUCAKERBSA-N
     RDKit          3D

 15 16  0  0  0  0  0  0  0  0999 V2000
  -17.9433  -45.6233  -22.6725 N   0  0  0  0  0  0  0  0  0  0  0  0
  -18.5151  -44.3868  -23.2115 C   0  0  0  0  0  0  0  0  0  0  0  0
  -17.5155  -43.2197  -23.2085 C   0  0  2  0  0  0  0  0  0  0  0  0
  -16.5503  -43.1935  -24.3898 C   0  0  0  0  0  0  0  0  0  0  0  0
  -15.2673  -42.6657  -23.7718 C   0  0  1  0  0  0  0  0  0  0  0  0
  -15.2658  -41.1376  -23.6271 C   0  0  0  0  0  0  0  0  0  0  0  0
  -14.6147  -40.4105  -24.7122 N   0  0  0  0  0  0  0  0  0  0  0  0
  -15.3924  -40.1621  -25.9188 C   0  0  0  0  0  0  0  0  0  0  0  0
  -16.4806  -39.1331  -25.8273 C   0  0  0  0  0  0  0  0  0  0  0  0
  -17.4031  -38.8261  -26.8123 C   0  0  0  0  0  0  0  0  0  0  0  0
  -18.3301  -37.8392  -26.5213 N   0  0  0  0  0  0  0  0  0  0  0  0
  -18.0594  -37.3679  -25.3219 C   0  0  0  0  0  0  0  0  0  0  0  0
  -16.7421  -38.0849  -24.4952 S   0  0  0  0  0  0  0  0  0  0  0  0
  -15.3348  -43.3274  -22.4023 C   0  0  0  0  0  0  0  0  0  0  0  0
  -16.7115  -43.2953  -22.0101 O   0  0  0  0  0  0  0  0  0  0  0  0
  1  2  1  0
  3  2  1  6
  3  4  1  0
  4  5  1  0
  5  6  1  1
  6  7  1  0
  7  8  1  0
  8  9  1  0
  9 10  2  0
 10 11  1  0
 11 12  2  0
 12 13  1  0
  5 14  1  0
 14 15  1  0
 15  3  1  0
 13  9  1  0
M  END
>  <fragmenstein_runtime>  (257) 
1.905777

>  <original ID>  (257) 
ROUNVNLNYKULJE-IUCAKERBSA-N

>  <fragmenstein_error>  (257) 
None

>  <ref_pdb>  (257) 
d0254a

>  <Multi-SuCOS>  (257) 
0.674421

>  <SLURM_JOB_NAME>  (257) 
BulkDock.place:Flavi_NS5_RdRp:RdRp_knitwork_primer_grip_n_pocket_pure_split1800_batch001

>  <HIPPO Compound ID>  (257) 
23087

>  <original SMILES>  (257) 
NC[C@@H]1C[C@@H](CNCc2cncs2)CO1

>  <name>  (257) 
ROUNVNLNYKULJE-IUCAKERBSA-N

>  <HIPPO Pose ID>  (257) 
75560

>  <ref_mols>  (257) 
d0254a,d0615b

>  <exports>  (257) 
['/opt/xchem-fragalysis-2/maxwin/BulkDock/OUTPUTS/RdRp_knitwork_primer_grip_n_pocket_pure_split1800_batch001_217035.sdf', '/opt/xchem-fragalysis-2/maxwin/BulkDock/OUTPUTS/RdRp_knitwork_primer_grip_n_pocket_pure_fragalysis.sdf', '/opt/xchem-fragalysis-2/maxwin/RdRp_FFF/syndirella/Retro_OK_batch1.sdf']

>  <alias>  (257) 
None

>  <inchikey>  (257) 
ROUNVNLNYKULJE-IUCAKERBSA-N

>  <energy_score>  (257) 
-103.018668

>  <distance_score>  (257) 
0.814385

>  <fragmenstein_outcome>  (257) 
acceptable

>  <merge_set>  (257) 
RdRp_knitwork_primer_grip_n_pocket_pure_fragalysis.sdf

>  <scratch_subdir>  (257) 
/opt/xchem-fragalysis-2/maxwin/BulkDock/SCRATCH/217035/C23087-P26

>  <SLURM_JOB_ID>  (257) 
217035

>  <tags>  (257) 
['Fragmenstein placed', 'RdRp_knitwork_primer_grip_n_pocket_pure_fragalysis.sdf Pose OK']

>  <fragmenstein_mode>  (257) 
expansion

>  <csv_name>  (257) 
RdRp_knitwork_primer_grip_n_pocket_pure_split1800_batch001.csv

$$$$
ROUNVNLNYKULJE-IUCAKERBSA-N
     RDKit          3D

 15 16  0  0  0  0  0  0  0  0999 V2000
  -18.5421  -45.2926  -21.7371 N   0  0  0  0  0  0  0  0  0  0  0  0
  -18.3872  -44.5899  -23.0140 C   0  0  0  0  0  0  0  0  0  0  0  0
  -17.2415  -43.5854  -22.9038 C   0  0  2  0  0  0  0  0  0  0  0  0
  -16.7595  -42.9512  -24.1927 C   0  0  0  0  0  0  0  0  0  0  0  0
  -15.3212  -42.5635  -23.8564 C   0  0  1  0  0  0  0  0  0  0  0  0
  -15.1889  -41.0828  -23.4920 C   0  0  0  0  0  0  0  0  0  0  0  0
  -14.6319  -40.2380  -24.5428 N   0  0  0  0  0  0  0  0  0  0  0  0
  -15.4160  -40.0899  -25.7608 C   0  0  0  0  0  0  0  0  0  0  0  0
  -16.5243  -39.0853  -25.7234 C   0  0  0  0  0  0  0  0  0  0  0  0
  -17.3229  -38.7259  -26.7921 C   0  0  0  0  0  0  0  0  0  0  0  0
  -18.3329  -37.8138  -26.5433 N   0  0  0  0  0  0  0  0  0  0  0  0
  -18.2146  -37.4071  -25.2957 C   0  0  0  0  0  0  0  0  0  0  0  0
  -16.9789  -38.1451  -24.3662 S   0  0  0  0  0  0  0  0  0  0  0  0
  -14.9508  -43.4644  -22.6783 C   0  0  0  0  0  0  0  0  0  0  0  0
  -16.0936  -44.2562  -22.3650 O   0  0  0  0  0  0  0  0  0  0  0  0
  1  2  1  0
  3  2  1  6
  3  4  1  0
  4  5  1  0
  5  6  1  1
  6  7  1  0
  7  8  1  0
  8  9  1  0
  9 10  2  0
 10 11  1  0
 11 12  2  0
 12 13  1  0
  5 14  1  0
 14 15  1  0
 15  3  1  0
 13  9  1  0
M  END
>  <fragmenstein_runtime>  (258) 
2.263562

>  <original ID>  (258) 
ROUNVNLNYKULJE-IUCAKERBSA-N

>  <fragmenstein_error>  (258) 
None

>  <ref_pdb>  (258) 
d0615b

>  <Multi-SuCOS>  (258) 
0.650211

>  <SLURM_JOB_NAME>  (258) 
BulkDock.place:Flavi_NS5_RdRp:RdRp_knitwork_primer_grip_n_pocket_pure_split1800_batch001

>  <HIPPO Compound ID>  (258) 
23087

>  <original SMILES>  (258) 
NC[C@@H]1C[C@@H](CNCc2cncs2)CO1

>  <name>  (258) 
ROUNVNLNYKULJE-IUCAKERBSA-N

>  <HIPPO Pose ID>  (258) 
75562

>  <ref_mols>  (258) 
d0254a,d0615b

>  <exports>  (258) 
['/opt/xchem-fragalysis-2/maxwin/BulkDock/OUTPUTS/RdRp_knitwork_primer_grip_n_pocket_pure_split1800_batch001_217035.sdf', '/opt/xchem-fragalysis-2/maxwin/BulkDock/OUTPUTS/RdRp_knitwork_primer_grip_n_pocket_pure_fragalysis.sdf', '/opt/xchem-fragalysis-2/maxwin/RdRp_FFF/syndirella/Retro_OK_batch1.sdf']

>  <alias>  (258) 
None

>  <inchikey>  (258) 
ROUNVNLNYKULJE-IUCAKERBSA-N

>  <energy_score>  (258) 
-101.231071

>  <distance_score>  (258) 
0.957126

>  <fragmenstein_outcome>  (258) 
acceptable

>  <merge_set>  (258) 
RdRp_knitwork_primer_grip_n_pocket_pure_fragalysis.sdf

>  <scratch_subdir>  (258) 
/opt/xchem-fragalysis-2/maxwin/BulkDock/SCRATCH/217035/C23087-P51

>  <SLURM_JOB_ID>  (258) 
217035

>  <tags>  (258) 
['Fragmenstein placed', 'RdRp_knitwork_primer_grip_n_pocket_pure_fragalysis.sdf Pose OK']

>  <fragmenstein_mode>  (258) 
expansion

>  <csv_name>  (258) 
RdRp_knitwork_primer_grip_n_pocket_pure_split1800_batch001.csv

$$$$
QTGZOLSVQNYTNC-GASCZTMLSA-N
     RDKit          3D

 23 26  0  0  0  0  0  0  0  0999 V2000
  -20.6086  -44.5417  -17.6488 O   0  0  0  0  0  0  0  0  0  0  0  0
  -20.1405  -43.6295  -18.6735 S   0  0  0  0  0  0  0  0  0  0  0  0
  -19.2231  -42.5620  -18.3321 O   0  0  0  0  0  0  0  0  0  0  0  0
  -21.5757  -42.9023  -19.3951 C   0  0  0  0  0  0  0  0  0  0  0  0
  -22.8254  -43.5163  -19.2931 C   0  0  0  0  0  0  0  0  0  0  0  0
  -23.9606  -42.8089  -19.6797 C   0  0  0  0  0  0  0  0  0  0  0  0
  -23.7993  -41.5107  -20.1398 C   0  0  0  0  0  0  0  0  0  0  0  0
  -22.6011  -40.8985  -20.2674 N   0  0  0  0  0  0  0  0  0  0  0  0
  -21.5130  -41.6012  -19.8628 C   0  0  0  0  0  0  0  0  0  0  0  0
  -19.3909  -44.5832  -19.8962 N   0  0  0  0  0  0  0  0  0  0  0  0
  -18.8086  -43.8200  -21.0587 C   0  0  0  0  0  0  0  0  0  0  0  0
  -17.7367  -44.6151  -21.8791 C   0  0  2  0  0  0  0  0  0  0  0  0
  -18.3090  -45.8742  -22.5038 C   0  0  0  0  0  0  0  0  0  0  0  0
  -18.2538  -46.9048  -21.3833 C   0  0  0  0  0  0  0  0  0  0  0  0
  -17.4522  -46.2113  -20.2736 C   0  0  2  0  0  0  0  0  0  0  0  0
  -18.4050  -45.5379  -19.2607 C   0  0  0  0  0  0  0  0  0  0  0  0
  -16.6742  -45.2517  -21.0712 N   0  0  0  0  0  0  0  0  0  0  0  0
  -15.7954  -44.2942  -20.3895 C   0  0  0  0  0  0  0  0  0  0  0  0
  -14.8362  -43.6707  -21.4187 C   0  0  0  0  0  0  0  0  0  0  0  0
  -13.9624  -42.5886  -20.7857 C   0  0  0  0  0  0  0  0  0  0  0  0
  -13.7549  -42.7512  -19.3475 N   0  0  0  0  0  0  0  0  0  0  0  0
  -13.6659  -44.1538  -18.9836 C   0  0  0  0  0  0  0  0  0  0  0  0
  -14.9656  -44.9158  -19.2493 C   0  0  0  0  0  0  0  0  0  0  0  0
  1  2  2  0
  2  3  2  0
  2  4  1  0
  4  5  2  0
  5  6  1  0
  6  7  2  0
  7  8  1  0
  8  9  2  0
  2 10  1  0
 10 11  1  0
 12 11  1  1
 12 13  1  0
 13 14  1  0
 15 14  1  6
 15 16  1  0
 15 17  1  0
 17 18  1  0
 18 19  1  0
 19 20  1  0
 20 21  1  0
 21 22  1  0
 22 23  1  0
  9  4  1  0
 16 10  1  0
 23 18  1  0
 17 12  1  0
M  END
>  <fragmenstein_runtime>  (259) 
7.096061

>  <original ID>  (259) 
QTGZOLSVQNYTNC-GASCZTMLSA-N

>  <fragmenstein_error>  (259) 
None

>  <ref_pdb>  (259) 
d0472a

>  <Multi-SuCOS>  (259) 
0.294031

>  <SLURM_JOB_NAME>  (259) 
BulkDock.place:Flavi_NS5_RdRp:RdRp_knitwork_primer_grip_n_pocket_pure_split1800_batch009

>  <HIPPO Compound ID>  (259) 
20986

>  <original SMILES>  (259) 
O=S(=O)(c1cccnc1)N1C[C@H]2CC[C@@H](C1)N2C1CCNCC1

>  <name>  (259) 
QTGZOLSVQNYTNC-GASCZTMLSA-N

>  <HIPPO Pose ID>  (259) 
76379

>  <ref_mols>  (259) 
d0472a,z0193a

>  <exports>  (259) 
['/opt/xchem-fragalysis-2/maxwin/BulkDock/OUTPUTS/RdRp_knitwork_primer_grip_n_pocket_pure_split1800_batch009_217043.sdf', '/opt/xchem-fragalysis-2/maxwin/BulkDock/OUTPUTS/RdRp_knitwork_primer_grip_n_pocket_pure_fragalysis.sdf', '/opt/xchem-fragalysis-2/maxwin/RdRp_FFF/syndirella/Retro_OK_batch1.sdf']

>  <alias>  (259) 
None

>  <inchikey>  (259) 
QTGZOLSVQNYTNC-GASCZTMLSA-N

>  <energy_score>  (259) 
-54.460755

>  <distance_score>  (259) 
0.889088

>  <fragmenstein_outcome>  (259) 
acceptable

>  <merge_set>  (259) 
RdRp_knitwork_primer_grip_n_pocket_pure_fragalysis.sdf

>  <scratch_subdir>  (259) 
/opt/xchem-fragalysis-2/maxwin/BulkDock/SCRATCH/217043/C20986-P42

>  <SLURM_JOB_ID>  (259) 
217043

>  <tags>  (259) 
['Fragmenstein placed', 'RdRp_knitwork_primer_grip_n_pocket_pure_fragalysis.sdf Pose OK']

>  <fragmenstein_mode>  (259) 
expansion

>  <csv_name>  (259) 
RdRp_knitwork_primer_grip_n_pocket_pure_split1800_batch009.csv

$$$$
YJYVHQCEAAVCOQ-GFCCVEGCSA-N
     RDKit          3D

 21 24  0  0  0  0  0  0  0  0999 V2000
  -17.4653  -42.1219  -26.0334 C   0  0  0  0  0  0  0  0  0  0  0  0
  -16.6605  -41.9805  -24.9169 C   0  0  0  0  0  0  0  0  0  0  0  0
  -15.6963  -40.9801  -24.9180 C   0  0  0  0  0  0  0  0  0  0  0  0
  -14.9600  -40.8852  -23.7704 O   0  0  0  0  0  0  0  0  0  0  0  0
  -14.4974  -39.5853  -23.4164 C   0  0  2  0  0  0  0  0  0  0  0  0
  -13.6927  -39.6907  -22.1245 C   0  0  0  0  0  0  0  0  0  0  0  0
  -13.7225  -38.2771  -21.5603 C   0  0  0  0  0  0  0  0  0  0  0  0
  -14.9951  -37.7340  -22.0259 N   0  0  0  0  0  0  0  0  0  0  0  0
  -15.6232  -36.7478  -21.2991 C   0  0  0  0  0  0  0  0  0  0  0  0
  -14.8976  -36.1578  -20.3089 N   0  0  0  0  0  0  0  0  0  0  0  0
  -15.4368  -35.1901  -19.5592 C   0  0  0  0  0  0  0  0  0  0  0  0
  -16.6600  -34.6775  -19.6585 N   0  0  0  0  0  0  0  0  0  0  0  0
  -17.4029  -35.2311  -20.6469 C   0  0  0  0  0  0  0  0  0  0  0  0
  -18.7390  -34.8298  -20.9473 C   0  0  0  0  0  0  0  0  0  0  0  0
  -19.2738  -35.5329  -21.9976 C   0  0  0  0  0  0  0  0  0  0  0  0
  -18.1739  -36.6753  -22.6152 S   0  0  0  0  0  0  0  0  0  0  0  0
  -16.9366  -36.2527  -21.4807 C   0  0  0  0  0  0  0  0  0  0  0  0
  -15.6165  -38.6082  -23.0136 C   0  0  0  0  0  0  0  0  0  0  0  0
  -15.5366  -40.1950  -26.0519 C   0  0  0  0  0  0  0  0  0  0  0  0
  -16.3796  -40.4305  -27.1296 C   0  0  0  0  0  0  0  0  0  0  0  0
  -17.3572  -41.3654  -27.1466 N   0  0  0  0  0  0  0  0  0  0  0  0
  1  2  2  0
  2  3  1  0
  3  4  1  0
  5  4  1  1
  5  6  1  0
  6  7  1  0
  7  8  1  0
  8  9  1  0
  9 10  2  0
 10 11  1  0
 11 12  2  0
 12 13  1  0
 13 14  1  0
 14 15  2  0
 15 16  1  0
 16 17  1  0
  8 18  1  0
  3 19  2  0
 19 20  1  0
 20 21  2  0
 21  1  1  0
 18  5  1  0
 17  9  1  0
 17 13  2  0
M  END
>  <fragmenstein_runtime>  (260) 
3.641854

>  <original ID>  (260) 
YJYVHQCEAAVCOQ-GFCCVEGCSA-N

>  <fragmenstein_error>  (260) 
None

>  <ref_pdb>  (260) 
d0160a

>  <Multi-SuCOS>  (260) 
0.37435

>  <SLURM_JOB_NAME>  (260) 
BulkDock.place:Flavi_NS5_RdRp:RdRp_knitwork_primer_grip_n_pocket_pure_split1800_batch005

>  <HIPPO Compound ID>  (260) 
26465

>  <original SMILES>  (260) 
c1cc(O[C@@H]2CCN(c3ncnc4ccsc34)C2)ccn1

>  <name>  (260) 
YJYVHQCEAAVCOQ-GFCCVEGCSA-N

>  <HIPPO Pose ID>  (260) 
76550

>  <ref_mols>  (260) 
d0160a,d0866a

>  <exports>  (260) 
['/opt/xchem-fragalysis-2/maxwin/BulkDock/OUTPUTS/RdRp_knitwork_primer_grip_n_pocket_pure_split1800_batch005_217039.sdf', '/opt/xchem-fragalysis-2/maxwin/BulkDock/OUTPUTS/RdRp_knitwork_primer_grip_n_pocket_pure_fragalysis.sdf', '/opt/xchem-fragalysis-2/maxwin/RdRp_FFF/syndirella/Retro_OK_batch1.sdf']

>  <alias>  (260) 
None

>  <inchikey>  (260) 
YJYVHQCEAAVCOQ-GFCCVEGCSA-N

>  <energy_score>  (260) 
-52.801409

>  <distance_score>  (260) 
0.845918

>  <fragmenstein_outcome>  (260) 
acceptable

>  <merge_set>  (260) 
RdRp_knitwork_primer_grip_n_pocket_pure_fragalysis.sdf

>  <scratch_subdir>  (260) 
/opt/xchem-fragalysis-2/maxwin/BulkDock/SCRATCH/217039/C26465-P12

>  <SLURM_JOB_ID>  (260) 
217039

>  <tags>  (260) 
['Fragmenstein placed', 'RdRp_knitwork_primer_grip_n_pocket_pure_fragalysis.sdf Pose OK']

>  <fragmenstein_mode>  (260) 
expansion

>  <csv_name>  (260) 
RdRp_knitwork_primer_grip_n_pocket_pure_split1800_batch005.csv

$$$$
AALDGRRBNDTXMU-UHFFFAOYSA-N
     RDKit          3D

 26 27  0  0  0  0  0  0  0  0999 V2000
  -13.5855  -73.5999  -19.9519 C   0  0  0  0  0  0  0  0  0  0  0  0
  -12.6887  -72.7237  -19.1757 N   0  0  0  0  0  0  0  0  0  0  0  0
  -12.1434  -71.3506  -20.0120 S   0  0  0  0  0  0  0  0  0  0  0  0
  -12.2877  -71.6544  -21.4160 O   0  0  0  0  0  0  0  0  0  0  0  0
  -12.8205  -70.2383  -19.3809 O   0  0  0  0  0  0  0  0  0  0  0  0
  -10.4359  -71.2753  -19.5646 C   0  0  0  0  0  0  0  0  0  0  0  0
  -10.0284  -71.7160  -18.2943 C   0  0  0  0  0  0  0  0  0  0  0  0
   -8.6891  -71.6004  -17.9026 C   0  0  0  0  0  0  0  0  0  0  0  0
   -7.7566  -71.0178  -18.7596 C   0  0  0  0  0  0  0  0  0  0  0  0
   -6.4428  -70.7517  -18.3618 N   0  0  0  0  0  0  0  0  0  0  0  0
   -5.5899  -71.9127  -18.1115 C   0  0  0  0  0  0  0  0  0  0  0  0
   -4.1105  -71.4613  -18.0455 C   0  0  0  0  0  0  0  0  0  0  0  0
   -3.4488  -71.6201  -19.3505 N   0  0  0  0  0  0  0  0  0  0  0  0
   -3.6936  -70.5219  -20.5920 S   0  0  0  0  0  0  0  0  0  0  0  0
   -3.8323  -71.3029  -21.8004 O   0  0  0  0  0  0  0  0  0  0  0  0
   -4.7317  -69.6039  -20.1730 O   0  0  0  0  0  0  0  0  0  0  0  0
   -2.1663  -69.6541  -20.6910 C   0  0  0  0  0  0  0  0  0  0  0  0
   -2.1934  -68.2562  -20.6148 C   0  0  0  0  0  0  0  0  0  0  0  0
   -1.0049  -67.5399  -20.7125 C   0  0  0  0  0  0  0  0  0  0  0  0
    0.2049  -68.2052  -20.8776 C   0  0  0  0  0  0  0  0  0  0  0  0
    0.2319  -69.5946  -20.9688 C   0  0  0  0  0  0  0  0  0  0  0  0
   -0.9550  -70.3282  -20.8812 C   0  0  0  0  0  0  0  0  0  0  0  0
   -0.8089  -72.0454  -21.0191 Cl  0  0  0  0  0  0  0  0  0  0  0  0
   -8.1686  -70.6254  -20.0360 C   0  0  0  0  0  0  0  0  0  0  0  0
   -9.4973  -70.7506  -20.4440 C   0  0  0  0  0  0  0  0  0  0  0  0
   -9.8748  -70.1805  -22.0178 Cl  0  0  0  0  0  0  0  0  0  0  0  0
  1  2  1  0
  2  3  1  0
  3  4  2  0
  3  5  2  0
  3  6  1  0
  6  7  2  0
  7  8  1  0
  8  9  2  0
  9 10  1  0
 10 11  1  0
 11 12  1  0
 12 13  1  0
 13 14  1  0
 14 15  2  0
 14 16  2  0
 14 17  1  0
 17 18  2  0
 18 19  1  0
 19 20  2  0
 20 21  1  0
 21 22  2  0
 22 23  1  0
  9 24  1  0
 24 25  2  0
 25 26  1  0
 25  6  1  0
 22 17  1  0
M  END
>  <fragmenstein_runtime>  (261) 
6.352942

>  <original ID>  (261) 
AALDGRRBNDTXMU-UHFFFAOYSA-N

>  <fragmenstein_error>  (261) 
None

>  <ref_pdb>  (261) 
d0153b

>  <Multi-SuCOS>  (261) 
0.808546

>  <SLURM_JOB_NAME>  (261) 
BulkDock.place:Flavi_NS5_RdRp:thumb_site_2_fstein_bulkdock_input_split1000_batch000

>  <HIPPO Compound ID>  (261) 
68584

>  <original SMILES>  (261) 
CNS(=O)(=O)c1ccc(NCCNS(=O)(=O)c2ccccc2Cl)cc1Cl

>  <name>  (261) 
AALDGRRBNDTXMU-UHFFFAOYSA-N

>  <HIPPO Pose ID>  (261) 
77309

>  <ref_mols>  (261) 
d0153b,d0153a

>  <exports>  (261) 
['/opt/xchem-fragalysis-2/maxwin/BulkDock/OUTPUTS/thumb_site_2_fstein_bulkdock_input_split1000_batch000_217914.sdf', '/opt/xchem-fragalysis-2/maxwin/BulkDock/OUTPUTS/thumb_site_2_fstein_bulkdock_input_split1000_batch000_217914_fragalysis.sdf', '/opt/xchem-fragalysis-2/maxwin/RdRp_FFF/syndirella/Retro_OK_batch1.sdf']

>  <alias>  (261) 
None

>  <inchikey>  (261) 
AALDGRRBNDTXMU-UHFFFAOYSA-N

>  <energy_score>  (261) 
-69.399437

>  <distance_score>  (261) 
0.5248

>  <fragmenstein_outcome>  (261) 
acceptable

>  <merge_set>  (261) 
thumb_site_2_fstein_bulkdock_input

>  <scratch_subdir>  (261) 
/opt/xchem-fragalysis-2/maxwin/BulkDock/SCRATCH/217914/C68584-P9

>  <SLURM_JOB_ID>  (261) 
217914

>  <tags>  (261) 
['Fragmenstein placed', 'thumb_site_2_fstein_bulkdock_input Pose OK']

>  <fragmenstein_mode>  (261) 
expansion

>  <csv_name>  (261) 
thumb_site_2_fstein_bulkdock_input_split1000_batch000.csv

$$$$
AALDGRRBNDTXMU-UHFFFAOYSA-N
     RDKit          3D

 26 27  0  0  0  0  0  0  0  0999 V2000
  -13.3987  -73.2760  -19.8619 C   0  0  0  0  0  0  0  0  0  0  0  0
  -13.2480  -71.9095  -19.3416 N   0  0  0  0  0  0  0  0  0  0  0  0
  -12.1351  -70.9220  -20.1608 S   0  0  0  0  0  0  0  0  0  0  0  0
  -12.0917  -71.4232  -21.5151 O   0  0  0  0  0  0  0  0  0  0  0  0
  -12.5660  -69.5801  -19.8386 O   0  0  0  0  0  0  0  0  0  0  0  0
  -10.5814  -71.1910  -19.3701 C   0  0  0  0  0  0  0  0  0  0  0  0
  -10.5011  -71.8049  -18.1206 C   0  0  0  0  0  0  0  0  0  0  0  0
   -9.2450  -72.0812  -17.5632 C   0  0  0  0  0  0  0  0  0  0  0  0
   -8.0553  -71.7824  -18.2448 C   0  0  0  0  0  0  0  0  0  0  0  0
   -6.8370  -72.1130  -17.6445 N   0  0  0  0  0  0  0  0  0  0  0  0
   -5.6283  -72.2541  -18.4752 C   0  0  0  0  0  0  0  0  0  0  0  0
   -4.5886  -71.1958  -18.0839 C   0  0  0  0  0  0  0  0  0  0  0  0
   -3.4567  -71.1460  -19.0233 N   0  0  0  0  0  0  0  0  0  0  0  0
   -3.7511  -70.3984  -20.5158 S   0  0  0  0  0  0  0  0  0  0  0  0
   -3.9463  -71.4207  -21.5167 O   0  0  0  0  0  0  0  0  0  0  0  0
   -4.7604  -69.3878  -20.2838 O   0  0  0  0  0  0  0  0  0  0  0  0
   -2.2095  -69.5895  -20.7975 C   0  0  0  0  0  0  0  0  0  0  0  0
   -2.1822  -68.1907  -20.7352 C   0  0  0  0  0  0  0  0  0  0  0  0
   -0.9647  -67.5255  -20.8123 C   0  0  0  0  0  0  0  0  0  0  0  0
    0.2161  -68.2417  -20.9668 C   0  0  0  0  0  0  0  0  0  0  0  0
    0.1875  -69.6300  -21.0672 C   0  0  0  0  0  0  0  0  0  0  0  0
   -1.0269  -70.3146  -20.9776 C   0  0  0  0  0  0  0  0  0  0  0  0
   -0.9405  -72.0381  -21.0256 Cl  0  0  0  0  0  0  0  0  0  0  0  0
   -8.1624  -71.0674  -19.4394 C   0  0  0  0  0  0  0  0  0  0  0  0
   -9.4118  -70.7976  -20.0131 C   0  0  0  0  0  0  0  0  0  0  0  0
   -9.4217  -69.9505  -21.5028 Cl  0  0  0  0  0  0  0  0  0  0  0  0
  1  2  1  0
  2  3  1  0
  3  4  2  0
  3  5  2  0
  3  6  1  0
  6  7  2  0
  7  8  1  0
  8  9  2  0
  9 10  1  0
 10 11  1  0
 11 12  1  0
 12 13  1  0
 13 14  1  0
 14 15  2  0
 14 16  2  0
 14 17  1  0
 17 18  2  0
 18 19  1  0
 19 20  2  0
 20 21  1  0
 21 22  2  0
 22 23  1  0
  9 24  1  0
 24 25  2  0
 25 26  1  0
 25  6  1  0
 22 17  1  0
M  END
>  <fragmenstein_runtime>  (262) 
6.866135

>  <original ID>  (262) 
AALDGRRBNDTXMU-UHFFFAOYSA-N

>  <fragmenstein_error>  (262) 
None

>  <ref_pdb>  (262) 
d0153a

>  <Multi-SuCOS>  (262) 
0.857129

>  <SLURM_JOB_NAME>  (262) 
BulkDock.place:Flavi_NS5_RdRp:thumb_site_2_fstein_bulkdock_input_split1000_batch000

>  <HIPPO Compound ID>  (262) 
68584

>  <original SMILES>  (262) 
CNS(=O)(=O)c1ccc(NCCNS(=O)(=O)c2ccccc2Cl)cc1Cl

>  <name>  (262) 
AALDGRRBNDTXMU-UHFFFAOYSA-N

>  <HIPPO Pose ID>  (262) 
77312

>  <ref_mols>  (262) 
d0153b,d0153a

>  <exports>  (262) 
['/opt/xchem-fragalysis-2/maxwin/BulkDock/OUTPUTS/thumb_site_2_fstein_bulkdock_input_split1000_batch000_217914.sdf', '/opt/xchem-fragalysis-2/maxwin/BulkDock/OUTPUTS/thumb_site_2_fstein_bulkdock_input_split1000_batch000_217914_fragalysis.sdf', '/opt/xchem-fragalysis-2/maxwin/RdRp_FFF/syndirella/Retro_OK_batch1.sdf']

>  <alias>  (262) 
None

>  <inchikey>  (262) 
AALDGRRBNDTXMU-UHFFFAOYSA-N

>  <energy_score>  (262) 
-64.579666

>  <distance_score>  (262) 
0.441237

>  <fragmenstein_outcome>  (262) 
acceptable

>  <merge_set>  (262) 
thumb_site_2_fstein_bulkdock_input

>  <scratch_subdir>  (262) 
/opt/xchem-fragalysis-2/maxwin/BulkDock/SCRATCH/217914/C68584-P10

>  <SLURM_JOB_ID>  (262) 
217914

>  <tags>  (262) 
['Fragmenstein placed', 'thumb_site_2_fstein_bulkdock_input Pose OK']

>  <fragmenstein_mode>  (262) 
expansion

>  <csv_name>  (262) 
thumb_site_2_fstein_bulkdock_input_split1000_batch000.csv

$$$$
LDVCWUHBZGDXKA-UHFFFAOYSA-N
     RDKit          3D

 25 27  0  0  0  0  0  0  0  0999 V2000
  -13.5731  -73.1764  -20.0697 C   0  0  0  0  0  0  0  0  0  0  0  0
  -13.4402  -71.8068  -19.5553 N   0  0  0  0  0  0  0  0  0  0  0  0
  -12.4619  -70.7619  -20.4702 S   0  0  0  0  0  0  0  0  0  0  0  0
  -12.7000  -71.1122  -21.8472 O   0  0  0  0  0  0  0  0  0  0  0  0
  -12.7580  -69.4443  -19.9546 O   0  0  0  0  0  0  0  0  0  0  0  0
  -10.8444  -71.1905  -19.9391 C   0  0  0  0  0  0  0  0  0  0  0  0
  -10.6080  -71.1534  -18.5538 C   0  0  0  0  0  0  0  0  0  0  0  0
   -9.3693  -71.5254  -18.0490 C   0  0  0  0  0  0  0  0  0  0  0  0
   -8.3564  -71.9159  -18.9242 C   0  0  0  0  0  0  0  0  0  0  0  0
   -7.1016  -72.2565  -18.4129 N   0  0  0  0  0  0  0  0  0  0  0  0
   -5.8405  -71.7637  -18.7852 C   0  0  0  0  0  0  0  0  0  0  0  0
   -4.7058  -72.4859  -18.4015 C   0  0  0  0  0  0  0  0  0  0  0  0
   -3.4263  -72.0552  -18.7588 C   0  0  0  0  0  0  0  0  0  0  0  0
   -3.2593  -70.8897  -19.5125 C   0  0  0  0  0  0  0  0  0  0  0  0
   -1.9432  -70.3900  -19.8773 C   0  0  0  0  0  0  0  0  0  0  0  0
   -0.8305  -71.1785  -20.0898 C   0  0  0  0  0  0  0  0  0  0  0  0
    0.4983  -70.1918  -20.5444 S   0  0  0  0  0  0  0  0  0  0  0  0
   -0.4995  -68.7992  -20.4141 C   0  0  0  0  0  0  0  0  0  0  0  0
   -0.0352  -67.5656  -20.6594 N   0  0  0  0  0  0  0  0  0  0  0  0
   -1.7365  -69.0355  -20.0586 N   0  0  0  0  0  0  0  0  0  0  0  0
   -4.3940  -70.1717  -19.9078 C   0  0  0  0  0  0  0  0  0  0  0  0
   -5.6718  -70.6154  -19.5637 C   0  0  0  0  0  0  0  0  0  0  0  0
   -8.5882  -71.9041  -20.3049 C   0  0  0  0  0  0  0  0  0  0  0  0
   -9.8359  -71.5646  -20.8224 C   0  0  0  0  0  0  0  0  0  0  0  0
   -9.9953  -71.6758  -22.5332 Cl  0  0  0  0  0  0  0  0  0  0  0  0
  1  2  1  0
  2  3  1  0
  3  4  2  0
  3  5  2  0
  3  6  1  0
  6  7  2  0
  7  8  1  0
  8  9  2  0
  9 10  1  0
 10 11  1  0
 11 12  2  0
 12 13  1  0
 13 14  2  0
 14 15  1  0
 15 16  2  0
 16 17  1  0
 17 18  1  0
 18 19  1  0
 18 20  2  0
 14 21  1  0
 21 22  2  0
  9 23  1  0
 23 24  2  0
 24 25  1  0
 24  6  1  0
 22 11  1  0
 20 15  1  0
M  END
>  <fragmenstein_runtime>  (263) 
4.567041

>  <original ID>  (263) 
LDVCWUHBZGDXKA-UHFFFAOYSA-N

>  <fragmenstein_error>  (263) 
None

>  <ref_pdb>  (263) 
d0153b

>  <Multi-SuCOS>  (263) 
0.725141

>  <SLURM_JOB_NAME>  (263) 
BulkDock.place:Flavi_NS5_RdRp:thumb_site_2_fstein_bulkdock_input_split1000_batch000

>  <HIPPO Compound ID>  (263) 
68585

>  <original SMILES>  (263) 
CNS(=O)(=O)c1ccc(Nc2ccc(-c3csc(N)n3)cc2)cc1Cl

>  <name>  (263) 
LDVCWUHBZGDXKA-UHFFFAOYSA-N

>  <HIPPO Pose ID>  (263) 
77314

>  <ref_mols>  (263) 
d0153b,d0162a

>  <exports>  (263) 
['/opt/xchem-fragalysis-2/maxwin/BulkDock/OUTPUTS/thumb_site_2_fstein_bulkdock_input_split1000_batch000_217914.sdf', '/opt/xchem-fragalysis-2/maxwin/BulkDock/OUTPUTS/thumb_site_2_fstein_bulkdock_input_split1000_batch000_217914_fragalysis.sdf', '/opt/xchem-fragalysis-2/maxwin/RdRp_FFF/syndirella/Retro_OK_batch1.sdf']

>  <alias>  (263) 
None

>  <inchikey>  (263) 
LDVCWUHBZGDXKA-UHFFFAOYSA-N

>  <energy_score>  (263) 
-93.015354

>  <distance_score>  (263) 
0.926545

>  <fragmenstein_outcome>  (263) 
acceptable

>  <merge_set>  (263) 
thumb_site_2_fstein_bulkdock_input

>  <scratch_subdir>  (263) 
/opt/xchem-fragalysis-2/maxwin/BulkDock/SCRATCH/217914/C68585-P9

>  <SLURM_JOB_ID>  (263) 
217914

>  <tags>  (263) 
['Fragmenstein placed', 'thumb_site_2_fstein_bulkdock_input Pose OK']

>  <fragmenstein_mode>  (263) 
expansion

>  <csv_name>  (263) 
thumb_site_2_fstein_bulkdock_input_split1000_batch000.csv

$$$$
LDVCWUHBZGDXKA-UHFFFAOYSA-N
     RDKit          3D

 25 27  0  0  0  0  0  0  0  0999 V2000
  -13.5959  -73.1420  -20.1294 C   0  0  0  0  0  0  0  0  0  0  0  0
  -13.4817  -71.7599  -19.6414 N   0  0  0  0  0  0  0  0  0  0  0  0
  -12.4528  -70.7403  -20.5261 S   0  0  0  0  0  0  0  0  0  0  0  0
  -12.6702  -71.0815  -21.9086 O   0  0  0  0  0  0  0  0  0  0  0  0
  -12.7259  -69.4161  -20.0152 O   0  0  0  0  0  0  0  0  0  0  0  0
  -10.8599  -71.2078  -19.9603 C   0  0  0  0  0  0  0  0  0  0  0  0
  -10.6534  -71.1811  -18.5694 C   0  0  0  0  0  0  0  0  0  0  0  0
   -9.4330  -71.5793  -18.0407 C   0  0  0  0  0  0  0  0  0  0  0  0
   -8.4098  -71.9832  -18.8976 C   0  0  0  0  0  0  0  0  0  0  0  0
   -7.1687  -72.3377  -18.3647 N   0  0  0  0  0  0  0  0  0  0  0  0
   -5.8961  -71.8736  -18.7303 C   0  0  0  0  0  0  0  0  0  0  0  0
   -4.7767  -72.6213  -18.3489 C   0  0  0  0  0  0  0  0  0  0  0  0
   -3.4872  -72.2188  -18.7046 C   0  0  0  0  0  0  0  0  0  0  0  0
   -3.2976  -71.0583  -19.4567 C   0  0  0  0  0  0  0  0  0  0  0  0
   -1.9783  -70.5729  -19.8252 C   0  0  0  0  0  0  0  0  0  0  0  0
   -0.8338  -71.3354  -19.9354 C   0  0  0  0  0  0  0  0  0  0  0  0
    0.4736  -70.3421  -20.4482 S   0  0  0  0  0  0  0  0  0  0  0  0
   -0.5798  -68.9894  -20.4851 C   0  0  0  0  0  0  0  0  0  0  0  0
   -0.1901  -67.7677  -20.8625 N   0  0  0  0  0  0  0  0  0  0  0  0
   -1.8088  -69.2368  -20.1162 N   0  0  0  0  0  0  0  0  0  0  0  0
   -4.4194  -70.3154  -19.8496 C   0  0  0  0  0  0  0  0  0  0  0  0
   -5.7050  -70.7261  -19.5034 C   0  0  0  0  0  0  0  0  0  0  0  0
   -8.6136  -71.9642  -20.2829 C   0  0  0  0  0  0  0  0  0  0  0  0
   -9.8422  -71.5988  -20.8249 C   0  0  0  0  0  0  0  0  0  0  0  0
   -9.9673  -71.6964  -22.5395 Cl  0  0  0  0  0  0  0  0  0  0  0  0
  1  2  1  0
  2  3  1  0
  3  4  2  0
  3  5  2  0
  3  6  1  0
  6  7  2  0
  7  8  1  0
  8  9  2  0
  9 10  1  0
 10 11  1  0
 11 12  2  0
 12 13  1  0
 13 14  2  0
 14 15  1  0
 15 16  2  0
 16 17  1  0
 17 18  1  0
 18 19  1  0
 18 20  2  0
 14 21  1  0
 21 22  2  0
  9 23  1  0
 23 24  2  0
 24 25  1  0
 24  6  1  0
 22 11  1  0
 20 15  1  0
M  END
>  <fragmenstein_runtime>  (264) 
4.922842

>  <original ID>  (264) 
LDVCWUHBZGDXKA-UHFFFAOYSA-N

>  <fragmenstein_error>  (264) 
None

>  <ref_pdb>  (264) 
d0162a

>  <Multi-SuCOS>  (264) 
0.726942

>  <SLURM_JOB_NAME>  (264) 
BulkDock.place:Flavi_NS5_RdRp:thumb_site_2_fstein_bulkdock_input_split1000_batch000

>  <HIPPO Compound ID>  (264) 
68585

>  <original SMILES>  (264) 
CNS(=O)(=O)c1ccc(Nc2ccc(-c3csc(N)n3)cc2)cc1Cl

>  <name>  (264) 
LDVCWUHBZGDXKA-UHFFFAOYSA-N

>  <HIPPO Pose ID>  (264) 
77319

>  <ref_mols>  (264) 
d0153b,d0162a

>  <exports>  (264) 
['/opt/xchem-fragalysis-2/maxwin/BulkDock/OUTPUTS/thumb_site_2_fstein_bulkdock_input_split1000_batch000_217914.sdf', '/opt/xchem-fragalysis-2/maxwin/BulkDock/OUTPUTS/thumb_site_2_fstein_bulkdock_input_split1000_batch000_217914_fragalysis.sdf', '/opt/xchem-fragalysis-2/maxwin/RdRp_FFF/syndirella/Retro_OK_batch1.sdf']

>  <alias>  (264) 
None

>  <inchikey>  (264) 
LDVCWUHBZGDXKA-UHFFFAOYSA-N

>  <energy_score>  (264) 
-92.303142

>  <distance_score>  (264) 
0.939781

>  <fragmenstein_outcome>  (264) 
acceptable

>  <merge_set>  (264) 
thumb_site_2_fstein_bulkdock_input

>  <scratch_subdir>  (264) 
/opt/xchem-fragalysis-2/maxwin/BulkDock/SCRATCH/217914/C68585-P15

>  <SLURM_JOB_ID>  (264) 
217914

>  <tags>  (264) 
['Fragmenstein placed', 'thumb_site_2_fstein_bulkdock_input Pose OK']

>  <fragmenstein_mode>  (264) 
expansion

>  <csv_name>  (264) 
thumb_site_2_fstein_bulkdock_input_split1000_batch000.csv

$$$$
LBYOSQKDKOKAKC-UHFFFAOYSA-N
     RDKit          3D

 19 20  0  0  0  0  0  0  0  0999 V2000
  -13.3724  -73.8675  -19.7670 C   0  0  0  0  0  0  0  0  0  0  0  0
  -12.1893  -73.1376  -19.2742 N   0  0  0  0  0  0  0  0  0  0  0  0
  -12.0707  -71.5627  -19.8320 S   0  0  0  0  0  0  0  0  0  0  0  0
  -12.6006  -71.5728  -21.1816 O   0  0  0  0  0  0  0  0  0  0  0  0
  -12.6618  -70.7136  -18.8215 O   0  0  0  0  0  0  0  0  0  0  0  0
  -10.3642  -71.1561  -19.9719 C   0  0  0  0  0  0  0  0  0  0  0  0
  -10.1644  -70.1691  -20.9386 C   0  0  0  0  0  0  0  0  0  0  0  0
   -8.9049  -69.6933  -21.1872 C   0  0  0  0  0  0  0  0  0  0  0  0
   -7.8183  -70.2439  -20.5308 C   0  0  0  0  0  0  0  0  0  0  0  0
   -7.9448  -71.2856  -19.6121 C   0  0  0  0  0  0  0  0  0  0  0  0
   -6.7873  -71.7917  -18.9669 N   0  0  0  0  0  0  0  0  0  0  0  0
   -5.4916  -71.6962  -19.6796 C   0  0  0  0  0  0  0  0  0  0  0  0
   -4.7019  -70.4589  -19.2316 C   0  0  0  0  0  0  0  0  0  0  0  0
   -3.3809  -70.4025  -19.9878 C   0  0  0  0  0  0  0  0  0  0  0  0
   -2.6221  -71.5900  -19.7589 O   0  0  0  0  0  0  0  0  0  0  0  0
   -3.3012  -72.7749  -20.1705 C   0  0  0  0  0  0  0  0  0  0  0  0
   -4.6293  -72.9359  -19.4348 C   0  0  0  0  0  0  0  0  0  0  0  0
   -9.2667  -71.7015  -19.2789 C   0  0  0  0  0  0  0  0  0  0  0  0
   -9.4316  -72.8535  -17.9950 Cl  0  0  0  0  0  0  0  0  0  0  0  0
  1  2  1  0
  2  3  1  0
  3  4  2  0
  3  5  2  0
  3  6  1  0
  6  7  2  0
  7  8  1  0
  8  9  2  0
  9 10  1  0
 10 11  1  0
 11 12  1  0
 12 13  1  0
 13 14  1  0
 14 15  1  0
 15 16  1  0
 16 17  1  0
 10 18  2  0
 18 19  1  0
 18  6  1  0
 17 12  1  0
M  END
>  <fragmenstein_runtime>  (265) 
3.693345

>  <original ID>  (265) 
LBYOSQKDKOKAKC-UHFFFAOYSA-N

>  <fragmenstein_error>  (265) 
None

>  <ref_pdb>  (265) 
d0153b

>  <Multi-SuCOS>  (265) 
0.633803

>  <SLURM_JOB_NAME>  (265) 
BulkDock.place:Flavi_NS5_RdRp:thumb_site_2_fstein_bulkdock_input_split1000_batch000

>  <HIPPO Compound ID>  (265) 
68591

>  <original SMILES>  (265) 
CNS(=O)(=O)c1cccc(NC2CCOCC2)c1Cl

>  <name>  (265) 
LBYOSQKDKOKAKC-UHFFFAOYSA-N

>  <HIPPO Pose ID>  (265) 
77354

>  <ref_mols>  (265) 
d0153b,d0279a

>  <exports>  (265) 
['/opt/xchem-fragalysis-2/maxwin/BulkDock/OUTPUTS/thumb_site_2_fstein_bulkdock_input_split1000_batch000_217914.sdf', '/opt/xchem-fragalysis-2/maxwin/BulkDock/OUTPUTS/thumb_site_2_fstein_bulkdock_input_split1000_batch000_217914_fragalysis.sdf', '/opt/xchem-fragalysis-2/maxwin/RdRp_FFF/syndirella/Retro_OK_batch1.sdf']

>  <alias>  (265) 
None

>  <inchikey>  (265) 
LBYOSQKDKOKAKC-UHFFFAOYSA-N

>  <energy_score>  (265) 
-39.079411

>  <distance_score>  (265) 
0.914858

>  <fragmenstein_outcome>  (265) 
acceptable

>  <merge_set>  (265) 
thumb_site_2_fstein_bulkdock_input

>  <scratch_subdir>  (265) 
/opt/xchem-fragalysis-2/maxwin/BulkDock/SCRATCH/217914/C68591-P9

>  <SLURM_JOB_ID>  (265) 
217914

>  <tags>  (265) 
['Fragmenstein placed', 'thumb_site_2_fstein_bulkdock_input Pose OK']

>  <fragmenstein_mode>  (265) 
expansion

>  <csv_name>  (265) 
thumb_site_2_fstein_bulkdock_input_split1000_batch000.csv

$$$$
LBYOSQKDKOKAKC-UHFFFAOYSA-N
     RDKit          3D

 19 20  0  0  0  0  0  0  0  0999 V2000
  -13.3733  -73.8163  -19.7008 C   0  0  0  0  0  0  0  0  0  0  0  0
  -12.1441  -73.1172  -19.2724 N   0  0  0  0  0  0  0  0  0  0  0  0
  -12.0174  -71.5518  -19.8544 S   0  0  0  0  0  0  0  0  0  0  0  0
  -12.5276  -71.5842  -21.2110 O   0  0  0  0  0  0  0  0  0  0  0  0
  -12.6266  -70.6878  -18.8661 O   0  0  0  0  0  0  0  0  0  0  0  0
  -10.3114  -71.1304  -19.9766 C   0  0  0  0  0  0  0  0  0  0  0  0
  -10.1143  -70.1269  -20.9262 C   0  0  0  0  0  0  0  0  0  0  0  0
   -8.8680  -69.5903  -21.1270 C   0  0  0  0  0  0  0  0  0  0  0  0
   -7.7779  -70.1174  -20.4628 C   0  0  0  0  0  0  0  0  0  0  0  0
   -7.8961  -71.1947  -19.5804 C   0  0  0  0  0  0  0  0  0  0  0  0
   -6.7330  -71.6984  -18.9340 N   0  0  0  0  0  0  0  0  0  0  0  0
   -5.4592  -71.6376  -19.6938 C   0  0  0  0  0  0  0  0  0  0  0  0
   -4.6177  -70.4216  -19.2825 C   0  0  0  0  0  0  0  0  0  0  0  0
   -3.3290  -70.4073  -20.0955 C   0  0  0  0  0  0  0  0  0  0  0  0
   -2.5927  -71.6113  -19.8777 O   0  0  0  0  0  0  0  0  0  0  0  0
   -3.3162  -72.7822  -20.2517 C   0  0  0  0  0  0  0  0  0  0  0  0
   -4.6230  -72.9001  -19.4715 C   0  0  0  0  0  0  0  0  0  0  0  0
   -9.2126  -71.6561  -19.2758 C   0  0  0  0  0  0  0  0  0  0  0  0
   -9.3665  -72.8377  -18.0185 Cl  0  0  0  0  0  0  0  0  0  0  0  0
  1  2  1  0
  2  3  1  0
  3  4  2  0
  3  5  2  0
  3  6  1  0
  6  7  2  0
  7  8  1  0
  8  9  2  0
  9 10  1  0
 10 11  1  0
 11 12  1  0
 12 13  1  0
 13 14  1  0
 14 15  1  0
 15 16  1  0
 16 17  1  0
 10 18  2  0
 18 19  1  0
 18  6  1  0
 17 12  1  0
M  END
>  <fragmenstein_runtime>  (266) 
4.217252

>  <original ID>  (266) 
LBYOSQKDKOKAKC-UHFFFAOYSA-N

>  <fragmenstein_error>  (266) 
None

>  <ref_pdb>  (266) 
d0279a

>  <Multi-SuCOS>  (266) 
0.649994

>  <SLURM_JOB_NAME>  (266) 
BulkDock.place:Flavi_NS5_RdRp:thumb_site_2_fstein_bulkdock_input_split1000_batch000

>  <HIPPO Compound ID>  (266) 
68591

>  <original SMILES>  (266) 
CNS(=O)(=O)c1cccc(NC2CCOCC2)c1Cl

>  <name>  (266) 
LBYOSQKDKOKAKC-UHFFFAOYSA-N

>  <HIPPO Pose ID>  (266) 
77357

>  <ref_mols>  (266) 
d0153b,d0279a

>  <exports>  (266) 
['/opt/xchem-fragalysis-2/maxwin/BulkDock/OUTPUTS/thumb_site_2_fstein_bulkdock_input_split1000_batch000_217914.sdf', '/opt/xchem-fragalysis-2/maxwin/BulkDock/OUTPUTS/thumb_site_2_fstein_bulkdock_input_split1000_batch000_217914_fragalysis.sdf', '/opt/xchem-fragalysis-2/maxwin/RdRp_FFF/syndirella/Retro_OK_batch1.sdf']

>  <alias>  (266) 
None

>  <inchikey>  (266) 
LBYOSQKDKOKAKC-UHFFFAOYSA-N

>  <energy_score>  (266) 
-38.58548

>  <distance_score>  (266) 
0.887345

>  <fragmenstein_outcome>  (266) 
acceptable

>  <merge_set>  (266) 
thumb_site_2_fstein_bulkdock_input

>  <scratch_subdir>  (266) 
/opt/xchem-fragalysis-2/maxwin/BulkDock/SCRATCH/217914/C68591-P29

>  <SLURM_JOB_ID>  (266) 
217914

>  <tags>  (266) 
['Fragmenstein placed', 'thumb_site_2_fstein_bulkdock_input Pose OK']

>  <fragmenstein_mode>  (266) 
expansion

>  <csv_name>  (266) 
thumb_site_2_fstein_bulkdock_input_split1000_batch000.csv

$$$$
TUHJHFXLPDHAOH-FQEVSTJZSA-N
     RDKit          3D

 44 48  0  0  0  0  0  0  0  0999 V2000
  -14.6965  -38.4429  -16.9891 C   0  0  0  0  0  0  0  0  0  0  0  0
  -14.0000  -38.8330  -15.8100 O   0  0  0  0  0  0  0  0  0  0  0  0
  -14.5437  -39.8478  -15.0722 C   0  0  0  0  0  0  0  0  0  0  0  0
  -13.8053  -40.2414  -13.9525 C   0  0  0  0  0  0  0  0  0  0  0  0
  -14.2397  -41.2936  -13.1373 C   0  0  0  0  0  0  0  0  0  0  0  0
  -15.4134  -41.9796  -13.4457 C   0  0  0  0  0  0  0  0  0  0  0  0
  -16.1486  -41.5843  -14.5605 C   0  0  0  0  0  0  0  0  0  0  0  0
  -17.5770  -42.5039  -15.0838 S   0  0  0  0  0  0  0  0  0  0  0  0
  -17.6172  -43.7544  -14.3656 O   0  0  0  0  0  0  0  0  0  0  0  0
  -18.6893  -41.5840  -15.1239 O   0  0  0  0  0  0  0  0  0  0  0  0
  -17.1401  -42.7946  -16.6355 N   0  0  0  0  0  0  0  0  0  0  0  0
  -16.3367  -43.9652  -17.2507 C   0  0  0  0  0  0  0  0  0  0  0  0
  -15.9288  -44.9411  -16.7607 O   0  0  0  0  0  0  0  0  0  0  0  0
  -16.0152  -43.6578  -18.6359 C   0  0  0  0  0  0  0  0  0  0  0  0
  -16.8934  -44.1324  -19.5864 C   0  0  0  0  0  0  0  0  0  0  0  0
  -16.5974  -43.9701  -20.9418 C   0  0  0  0  0  0  0  0  0  0  0  0
  -17.3894  -44.8192  -21.8156 C   0  0  0  0  0  0  0  0  0  0  0  0
  -17.5355  -46.1883  -21.6796 C   0  0  0  0  0  0  0  0  0  0  0  0
  -18.3590  -46.7268  -22.6880 C   0  0  0  0  0  0  0  0  0  0  0  0
  -18.7810  -45.7550  -23.5639 C   0  0  0  0  0  0  0  0  0  0  0  0
  -19.5353  -46.0133  -24.7288 C   0  0  0  0  0  0  0  0  0  0  0  0
  -20.1406  -46.2969  -25.7198 C   0  0  0  0  0  0  0  0  0  0  0  0
  -20.8061  -46.6738  -26.9449 C   0  0  0  0  0  0  0  0  0  0  0  0
  -21.8898  -45.7818  -27.1686 O   0  0  0  0  0  0  0  0  0  0  0  0
  -18.3623  -44.1985  -23.0577 S   0  0  0  0  0  0  0  0  0  0  0  0
  -15.4557  -43.2411  -21.3425 C   0  0  0  0  0  0  0  0  0  0  0  0
  -15.1542  -42.8622  -22.7908 C   0  0  2  0  0  0  0  0  0  0  0  0
  -14.1778  -43.8107  -23.4389 C   0  0  0  0  0  0  0  0  0  0  0  0
  -14.7464  -41.3867  -22.8902 C   0  0  0  0  0  0  0  0  0  0  0  0
  -13.8619  -40.6223  -22.1417 C   0  0  0  0  0  0  0  0  0  0  0  0
  -13.8501  -39.3707  -22.6670 N   0  0  0  0  0  0  0  0  0  0  0  0
  -14.5977  -39.2504  -23.7557 N   0  0  0  0  0  0  0  0  0  0  0  0
  -15.1440  -40.4645  -23.9312 C   0  0  0  0  0  0  0  0  0  0  0  0
  -15.9988  -40.7044  -25.0892 C   0  0  0  0  0  0  0  0  0  0  0  0
  -17.2918  -41.1960  -24.9385 C   0  0  0  0  0  0  0  0  0  0  0  0
  -18.0505  -41.4271  -26.0737 C   0  0  0  0  0  0  0  0  0  0  0  0
  -17.6248  -41.1806  -27.3300 N   0  0  0  0  0  0  0  0  0  0  0  0
  -16.3751  -40.6734  -27.4459 C   0  0  0  0  0  0  0  0  0  0  0  0
  -15.5377  -40.4175  -26.3717 C   0  0  0  0  0  0  0  0  0  0  0  0
  -14.5111  -42.9594  -20.3393 C   0  0  0  0  0  0  0  0  0  0  0  0
  -14.7981  -43.0820  -18.9863 C   0  0  0  0  0  0  0  0  0  0  0  0
  -13.9666  -42.6743  -17.9839 O   0  0  0  0  0  0  0  0  0  0  0  0
  -12.8370  -41.8858  -18.3576 C   0  0  0  0  0  0  0  0  0  0  0  0
  -15.7341  -40.5058  -15.3591 C   0  0  0  0  0  0  0  0  0  0  0  0
  1  2  1  0
  2  3  1  0
  3  4  2  0
  4  5  1  0
  5  6  2  0
  6  7  1  0
  7  8  1  0
  8  9  2  0
  8 10  2  0
  8 11  1  0
 11 12  1  0
 12 13  2  0
 12 14  1  0
 14 15  2  0
 15 16  1  0
 16 17  1  0
 17 18  2  0
 18 19  1  0
 19 20  2  0
 20 21  1  0
 21 22  3  0
 22 23  1  0
 23 24  1  0
 20 25  1  0
 16 26  2  0
 26 27  1  0
 27 28  1  1
 27 29  1  0
 29 30  2  0
 30 31  1  0
 31 32  1  0
 32 33  2  0
 33 34  1  0
 34 35  2  0
 35 36  1  0
 36 37  2  0
 37 38  1  0
 38 39  2  0
 26 40  1  0
 40 41  2  0
 41 42  1  0
 42 43  1  0
  7 44  2  0
 44  3  1  0
 41 14  1  0
 25 17  1  0
 33 29  1  0
 39 34  1  0
M  END
>  <fragmenstein_runtime>  (267) 
16.078365

>  <original ID>  (267) 
TUHJHFXLPDHAOH-FQEVSTJZSA-N

>  <fragmenstein_error>  (267) 
None

>  <ref_pdb>  (267) 
d0160a

>  <Multi-SuCOS>  (267) 
0.77688

>  <SLURM_JOB_NAME>  (267) 
BulkDock.place:Flavi_NS5_RdRp:primer_grip_n_pocket_fstein_bulkdock_input_split1000_batch000

>  <HIPPO Compound ID>  (267) 
67390

>  <original SMILES>  (267) 
COc1cccc(S(=O)(=O)NC(=O)c2cc(-c3ccc(C#CCO)s3)c([C@H](C)c3c[nH]nc3-c3ccncc3)cc2OC)c1

>  <name>  (267) 
TUHJHFXLPDHAOH-FQEVSTJZSA-N

>  <HIPPO Pose ID>  (267) 
77387

>  <ref_mols>  (267) 
d0160a,5i3p-a,5k5m-a

>  <exports>  (267) 
['/opt/xchem-fragalysis-2/maxwin/BulkDock/OUTPUTS/primer_grip_n_pocket_fstein_bulkdock_input_split1000_batch000_217912.sdf', '/opt/xchem-fragalysis-2/maxwin/BulkDock/OUTPUTS/primer_grip_n_pocket_fstein_bulkdock_input_split1000_batch000_217912_fragalysis.sdf', '/opt/xchem-fragalysis-2/maxwin/RdRp_FFF/syndirella/Retro_OK_batch1.sdf']

>  <alias>  (267) 
None

>  <inchikey>  (267) 
TUHJHFXLPDHAOH-FQEVSTJZSA-N

>  <energy_score>  (267) 
-96.988308

>  <distance_score>  (267) 
0.740139

>  <fragmenstein_outcome>  (267) 
acceptable

>  <merge_set>  (267) 
primer_grip_n_pocket_fstein_bulkdock_input

>  <scratch_subdir>  (267) 
/opt/xchem-fragalysis-2/maxwin/BulkDock/SCRATCH/217912/C67390-P12

>  <SLURM_JOB_ID>  (267) 
217912

>  <tags>  (267) 
['Fragmenstein placed', 'primer_grip_n_pocket_fstein_bulkdock_input Pose OK']

>  <fragmenstein_mode>  (267) 
expansion

>  <csv_name>  (267) 
primer_grip_n_pocket_fstein_bulkdock_input_split1000_batch000.csv

$$$$
XNAZHTXJGLOOCU-UHFFFAOYSA-N
     RDKit          3D

 21 22  0  0  0  0  0  0  0  0999 V2000
  -13.4276  -73.8982  -19.5323 C   0  0  0  0  0  0  0  0  0  0  0  0
  -12.3396  -73.0147  -19.0934 N   0  0  0  0  0  0  0  0  0  0  0  0
  -12.2632  -71.5322  -19.8544 S   0  0  0  0  0  0  0  0  0  0  0  0
  -12.8857  -70.5499  -18.9948 O   0  0  0  0  0  0  0  0  0  0  0  0
  -12.7648  -71.7571  -21.1970 O   0  0  0  0  0  0  0  0  0  0  0  0
  -10.5718  -71.0766  -20.0598 C   0  0  0  0  0  0  0  0  0  0  0  0
  -10.4386  -70.2035  -21.1372 C   0  0  0  0  0  0  0  0  0  0  0  0
   -9.2047  -69.7294  -21.4628 C   0  0  0  0  0  0  0  0  0  0  0  0
   -8.0947  -70.1364  -20.7548 C   0  0  0  0  0  0  0  0  0  0  0  0
   -8.1440  -71.0448  -19.6985 C   0  0  0  0  0  0  0  0  0  0  0  0
   -6.7993  -71.4682  -19.0669 C   0  0  0  0  0  0  0  0  0  0  0  0
   -5.5963  -70.6129  -19.5638 C   0  0  0  0  0  0  0  0  0  0  0  0
   -4.2666  -70.9898  -19.0840 N   0  0  0  0  0  0  0  0  0  0  0  0
   -3.2158  -70.2446  -19.7050 C   0  0  0  0  0  0  0  0  0  0  0  0
   -1.9417  -70.8225  -19.7596 C   0  0  0  0  0  0  0  0  0  0  0  0
   -0.8478  -70.1208  -20.2855 C   0  0  0  0  0  0  0  0  0  0  0  0
   -1.0026  -68.8125  -20.7378 C   0  0  0  0  0  0  0  0  0  0  0  0
   -2.2505  -68.2062  -20.6563 C   0  0  0  0  0  0  0  0  0  0  0  0
   -3.3423  -68.9119  -20.1360 C   0  0  0  0  0  0  0  0  0  0  0  0
   -9.4362  -71.5025  -19.3318 C   0  0  0  0  0  0  0  0  0  0  0  0
   -9.5873  -72.5317  -17.9702 Cl  0  0  0  0  0  0  0  0  0  0  0  0
  1  2  1  0
  2  3  1  0
  3  4  2  0
  3  5  2  0
  3  6  1  0
  6  7  2  0
  7  8  1  0
  8  9  2  0
  9 10  1  0
 10 11  1  0
 11 12  1  0
 12 13  1  0
 13 14  1  0
 14 15  2  0
 15 16  1  0
 16 17  2  0
 17 18  1  0
 18 19  2  0
 10 20  2  0
 20 21  1  0
 20  6  1  0
 19 14  1  0
M  END
>  <fragmenstein_runtime>  (268) 
4.580449

>  <original ID>  (268) 
XNAZHTXJGLOOCU-UHFFFAOYSA-N

>  <fragmenstein_error>  (268) 
None

>  <ref_pdb>  (268) 
d0153b

>  <Multi-SuCOS>  (268) 
0.655068

>  <SLURM_JOB_NAME>  (268) 
BulkDock.place:Flavi_NS5_RdRp:thumb_site_2_fstein_bulkdock_input_split1000_batch000

>  <HIPPO Compound ID>  (268) 
68608

>  <original SMILES>  (268) 
CNS(=O)(=O)c1cccc(CCNc2ccccc2)c1Cl

>  <name>  (268) 
XNAZHTXJGLOOCU-UHFFFAOYSA-N

>  <HIPPO Pose ID>  (268) 
77410

>  <ref_mols>  (268) 
d0153b,d1212a

>  <exports>  (268) 
['/opt/xchem-fragalysis-2/maxwin/BulkDock/OUTPUTS/thumb_site_2_fstein_bulkdock_input_split1000_batch000_217914.sdf', '/opt/xchem-fragalysis-2/maxwin/BulkDock/OUTPUTS/thumb_site_2_fstein_bulkdock_input_split1000_batch000_217914_fragalysis.sdf', '/opt/xchem-fragalysis-2/maxwin/RdRp_FFF/syndirella/Retro_OK_batch1.sdf']

>  <alias>  (268) 
None

>  <inchikey>  (268) 
XNAZHTXJGLOOCU-UHFFFAOYSA-N

>  <energy_score>  (268) 
-10.14222

>  <distance_score>  (268) 
0.880325

>  <fragmenstein_outcome>  (268) 
acceptable

>  <merge_set>  (268) 
thumb_site_2_fstein_bulkdock_input

>  <scratch_subdir>  (268) 
/opt/xchem-fragalysis-2/maxwin/BulkDock/SCRATCH/217914/C68608-P9

>  <SLURM_JOB_ID>  (268) 
217914

>  <tags>  (268) 
['Fragmenstein placed', 'thumb_site_2_fstein_bulkdock_input Pose OK']

>  <fragmenstein_mode>  (268) 
expansion

>  <csv_name>  (268) 
thumb_site_2_fstein_bulkdock_input_split1000_batch000.csv

$$$$
XNAZHTXJGLOOCU-UHFFFAOYSA-N
     RDKit          3D

 21 22  0  0  0  0  0  0  0  0999 V2000
  -13.2083  -73.4188  -19.8281 C   0  0  0  0  0  0  0  0  0  0  0  0
  -12.5614  -72.2719  -19.2032 N   0  0  0  0  0  0  0  0  0  0  0  0
  -12.0777  -70.9963  -20.1724 S   0  0  0  0  0  0  0  0  0  0  0  0
  -12.1033  -69.8065  -19.3580 O   0  0  0  0  0  0  0  0  0  0  0  0
  -12.8630  -71.0693  -21.3859 O   0  0  0  0  0  0  0  0  0  0  0  0
  -10.4034  -71.4010  -20.5784 C   0  0  0  0  0  0  0  0  0  0  0  0
  -10.1766  -71.7427  -21.9174 C   0  0  0  0  0  0  0  0  0  0  0  0
   -8.9058  -72.0781  -22.3343 C   0  0  0  0  0  0  0  0  0  0  0  0
   -7.8484  -72.0375  -21.4353 C   0  0  0  0  0  0  0  0  0  0  0  0
   -8.0281  -71.6527  -20.0950 C   0  0  0  0  0  0  0  0  0  0  0  0
   -6.7689  -71.6137  -19.2396 C   0  0  0  0  0  0  0  0  0  0  0  0
   -5.7354  -70.5840  -19.7486 C   0  0  0  0  0  0  0  0  0  0  0  0
   -4.3733  -70.9495  -19.3457 N   0  0  0  0  0  0  0  0  0  0  0  0
   -3.3037  -70.3069  -19.9969 C   0  0  0  0  0  0  0  0  0  0  0  0
   -2.0125  -70.8410  -19.8713 C   0  0  0  0  0  0  0  0  0  0  0  0
   -0.8984  -70.1947  -20.4193 C   0  0  0  0  0  0  0  0  0  0  0  0
   -1.0597  -68.9933  -21.0978 C   0  0  0  0  0  0  0  0  0  0  0  0
   -2.3274  -68.4441  -21.2264 C   0  0  0  0  0  0  0  0  0  0  0  0
   -3.4293  -69.0779  -20.6490 C   0  0  0  0  0  0  0  0  0  0  0  0
   -9.3413  -71.3695  -19.6541 C   0  0  0  0  0  0  0  0  0  0  0  0
   -9.6295  -71.0610  -17.9830 Cl  0  0  0  0  0  0  0  0  0  0  0  0
  1  2  1  0
  2  3  1  0
  3  4  2  0
  3  5  2  0
  3  6  1  0
  6  7  2  0
  7  8  1  0
  8  9  2  0
  9 10  1  0
 10 11  1  0
 11 12  1  0
 12 13  1  0
 13 14  1  0
 14 15  2  0
 15 16  1  0
 16 17  2  0
 17 18  1  0
 18 19  2  0
 10 20  2  0
 20 21  1  0
 20  6  1  0
 19 14  1  0
M  END
>  <fragmenstein_runtime>  (269) 
4.39118

>  <original ID>  (269) 
XNAZHTXJGLOOCU-UHFFFAOYSA-N

>  <fragmenstein_error>  (269) 
None

>  <ref_pdb>  (269) 
d1212a

>  <Multi-SuCOS>  (269) 
0.701363

>  <SLURM_JOB_NAME>  (269) 
BulkDock.place:Flavi_NS5_RdRp:thumb_site_2_fstein_bulkdock_input_split1000_batch000

>  <HIPPO Compound ID>  (269) 
68608

>  <original SMILES>  (269) 
CNS(=O)(=O)c1cccc(CCNc2ccccc2)c1Cl

>  <name>  (269) 
XNAZHTXJGLOOCU-UHFFFAOYSA-N

>  <HIPPO Pose ID>  (269) 
77413

>  <ref_mols>  (269) 
d0153b,d1212a

>  <exports>  (269) 
['/opt/xchem-fragalysis-2/maxwin/BulkDock/OUTPUTS/thumb_site_2_fstein_bulkdock_input_split1000_batch000_217914.sdf', '/opt/xchem-fragalysis-2/maxwin/BulkDock/OUTPUTS/thumb_site_2_fstein_bulkdock_input_split1000_batch000_217914_fragalysis.sdf', '/opt/xchem-fragalysis-2/maxwin/RdRp_FFF/syndirella/Retro_OK_batch1.sdf']

>  <alias>  (269) 
None

>  <inchikey>  (269) 
XNAZHTXJGLOOCU-UHFFFAOYSA-N

>  <energy_score>  (269) 
-29.800615

>  <distance_score>  (269) 
0.9204

>  <fragmenstein_outcome>  (269) 
acceptable

>  <merge_set>  (269) 
thumb_site_2_fstein_bulkdock_input

>  <scratch_subdir>  (269) 
/opt/xchem-fragalysis-2/maxwin/BulkDock/SCRATCH/217914/C68608-P79

>  <SLURM_JOB_ID>  (269) 
217914

>  <tags>  (269) 
['Fragmenstein placed', 'thumb_site_2_fstein_bulkdock_input Pose OK']

>  <fragmenstein_mode>  (269) 
expansion

>  <csv_name>  (269) 
thumb_site_2_fstein_bulkdock_input_split1000_batch000.csv

$$$$
LUWQMNMHDSRBNQ-KRWDZBQOSA-N
     RDKit          3D

 29 31  0  0  0  0  0  0  0  0999 V2000
  -14.7187  -69.4841  -22.8430 C   0  0  0  0  0  0  0  0  0  0  0  0
  -15.2501  -69.6450  -21.4346 C   0  0  0  0  0  0  0  0  0  0  0  0
  -13.9521  -69.7791  -20.2159 S   0  0  0  0  0  0  0  0  0  0  0  0
  -13.1435  -68.5872  -20.2540 O   0  0  0  0  0  0  0  0  0  0  0  0
  -14.5339  -70.2526  -18.9742 O   0  0  0  0  0  0  0  0  0  0  0  0
  -13.0583  -71.0699  -20.8011 N   0  0  0  0  0  0  0  0  0  0  0  0
  -11.6815  -70.8145  -21.2556 C   0  0  0  0  0  0  0  0  0  0  0  0
  -10.6260  -71.0198  -20.1921 C   0  0  0  0  0  0  0  0  0  0  0  0
  -10.9365  -71.0002  -18.8110 C   0  0  0  0  0  0  0  0  0  0  0  0
   -9.9579  -71.1908  -17.8386 C   0  0  0  0  0  0  0  0  0  0  0  0
   -8.6743  -71.3936  -18.2711 C   0  0  0  0  0  0  0  0  0  0  0  0
   -8.3422  -71.3994  -19.6037 C   0  0  0  0  0  0  0  0  0  0  0  0
   -9.2890  -71.2050  -20.5857 C   0  0  0  0  0  0  0  0  0  0  0  0
   -7.0153  -71.6276  -19.7910 O   0  0  0  0  0  0  0  0  0  0  0  0
   -6.6046  -71.9352  -18.4388 C   0  0  1  0  0  0  0  0  0  0  0  0
   -5.3682  -71.2643  -18.1086 N   0  0  0  0  0  0  0  0  0  0  0  0
   -4.2823  -71.9642  -18.7245 C   0  0  0  0  0  0  0  0  0  0  0  0
   -3.2511  -71.0436  -19.1188 N   0  0  0  0  0  0  0  0  0  0  0  0
   -3.5373  -70.2600  -20.5903 S   0  0  0  0  0  0  0  0  0  0  0  0
   -3.6796  -71.2548  -21.6299 O   0  0  0  0  0  0  0  0  0  0  0  0
   -4.5836  -69.2942  -20.3338 O   0  0  0  0  0  0  0  0  0  0  0  0
   -2.0059  -69.4339  -20.8110 C   0  0  0  0  0  0  0  0  0  0  0  0
   -2.0011  -68.0390  -20.7660 C   0  0  0  0  0  0  0  0  0  0  0  0
   -0.7863  -67.3709  -20.7762 C   0  0  0  0  0  0  0  0  0  0  0  0
    0.4078  -68.0805  -20.8378 C   0  0  0  0  0  0  0  0  0  0  0  0
    0.4020  -69.4679  -20.9317 C   0  0  0  0  0  0  0  0  0  0  0  0
   -0.8096  -70.1550  -20.9145 C   0  0  0  0  0  0  0  0  0  0  0  0
   -0.7182  -71.8826  -20.9374 Cl  0  0  0  0  0  0  0  0  0  0  0  0
   -7.6062  -71.5983  -17.4630 O   0  0  0  0  0  0  0  0  0  0  0  0
  1  2  1  0
  2  3  1  0
  3  4  2  0
  3  5  2  0
  3  6  1  0
  6  7  1  0
  7  8  1  0
  8  9  2  0
  9 10  1  0
 10 11  2  0
 11 12  1  0
 12 13  2  0
 12 14  1  0
 14 15  1  0
 15 16  1  1
 16 17  1  0
 17 18  1  0
 18 19  1  0
 19 20  2  0
 19 21  2  0
 19 22  1  0
 22 23  2  0
 23 24  1  0
 24 25  2  0
 25 26  1  0
 26 27  2  0
 27 28  1  0
 15 29  1  0
 13  8  1  0
 27 22  1  0
 29 11  1  0
M  END
>  <fragmenstein_runtime>  (270) 
6.119923

>  <original ID>  (270) 
LUWQMNMHDSRBNQ-KRWDZBQOSA-N

>  <fragmenstein_error>  (270) 
None

>  <ref_pdb>  (270) 
d0153a

>  <Multi-SuCOS>  (270) 
0.798263

>  <SLURM_JOB_NAME>  (270) 
BulkDock.place:Flavi_NS5_RdRp:thumb_site_2_fstein_bulkdock_input_split1000_batch000

>  <HIPPO Compound ID>  (270) 
68613

>  <original SMILES>  (270) 
CCS(=O)(=O)NCc1ccc2c(c1)O[C@@H](NCNS(=O)(=O)c1ccccc1Cl)O2

>  <name>  (270) 
LUWQMNMHDSRBNQ-KRWDZBQOSA-N

>  <HIPPO Pose ID>  (270) 
77435

>  <ref_mols>  (270) 
d0153a,d0174a

>  <exports>  (270) 
['/opt/xchem-fragalysis-2/maxwin/BulkDock/OUTPUTS/thumb_site_2_fstein_bulkdock_input_split1000_batch000_217914.sdf', '/opt/xchem-fragalysis-2/maxwin/BulkDock/OUTPUTS/thumb_site_2_fstein_bulkdock_input_split1000_batch000_217914_fragalysis.sdf', '/opt/xchem-fragalysis-2/maxwin/RdRp_FFF/syndirella/Retro_OK_batch1.sdf']

>  <alias>  (270) 
None

>  <inchikey>  (270) 
LUWQMNMHDSRBNQ-KRWDZBQOSA-N

>  <energy_score>  (270) 
-52.772684

>  <distance_score>  (270) 
0.634803

>  <fragmenstein_outcome>  (270) 
acceptable

>  <merge_set>  (270) 
thumb_site_2_fstein_bulkdock_input

>  <scratch_subdir>  (270) 
/opt/xchem-fragalysis-2/maxwin/BulkDock/SCRATCH/217914/C68613-P10

>  <SLURM_JOB_ID>  (270) 
217914

>  <tags>  (270) 
['Fragmenstein placed', 'thumb_site_2_fstein_bulkdock_input Pose OK']

>  <fragmenstein_mode>  (270) 
expansion

>  <csv_name>  (270) 
thumb_site_2_fstein_bulkdock_input_split1000_batch000.csv

$$$$
LUWQMNMHDSRBNQ-KRWDZBQOSA-N
     RDKit          3D

 29 31  0  0  0  0  0  0  0  0999 V2000
  -14.6313  -69.3730  -22.9386 C   0  0  0  0  0  0  0  0  0  0  0  0
  -15.1762  -69.4829  -21.5298 C   0  0  0  0  0  0  0  0  0  0  0  0
  -13.9078  -69.7341  -20.3008 S   0  0  0  0  0  0  0  0  0  0  0  0
  -13.0171  -68.6022  -20.3073 O   0  0  0  0  0  0  0  0  0  0  0  0
  -14.5305  -70.1840  -19.0698 O   0  0  0  0  0  0  0  0  0  0  0  0
  -13.1012  -71.0718  -20.9010 N   0  0  0  0  0  0  0  0  0  0  0  0
  -11.7166  -70.8947  -21.3653 C   0  0  0  0  0  0  0  0  0  0  0  0
  -10.6667  -71.0659  -20.2912 C   0  0  0  0  0  0  0  0  0  0  0  0
  -11.0002  -71.1384  -18.9151 C   0  0  0  0  0  0  0  0  0  0  0  0
  -10.0281  -71.3081  -17.9345 C   0  0  0  0  0  0  0  0  0  0  0  0
   -8.7309  -71.4157  -18.3565 C   0  0  0  0  0  0  0  0  0  0  0  0
   -8.3793  -71.3438  -19.6837 C   0  0  0  0  0  0  0  0  0  0  0  0
   -9.3162  -71.1501  -20.6734 C   0  0  0  0  0  0  0  0  0  0  0  0
   -7.0416  -71.5055  -19.8586 O   0  0  0  0  0  0  0  0  0  0  0  0
   -6.6480  -71.8758  -18.5201 C   0  0  1  0  0  0  0  0  0  0  0  0
   -5.4356  -71.1900  -18.1478 N   0  0  0  0  0  0  0  0  0  0  0  0
   -4.3204  -71.9159  -18.6670 C   0  0  0  0  0  0  0  0  0  0  0  0
   -3.3161  -70.9879  -19.0864 N   0  0  0  0  0  0  0  0  0  0  0  0
   -3.4507  -70.4250  -20.6764 S   0  0  0  0  0  0  0  0  0  0  0  0
   -3.7609  -71.5191  -21.5661 O   0  0  0  0  0  0  0  0  0  0  0  0
   -4.3040  -69.2611  -20.5953 O   0  0  0  0  0  0  0  0  0  0  0  0
   -1.7813  -69.9452  -20.9469 C   0  0  0  0  0  0  0  0  0  0  0  0
   -1.5046  -68.5905  -21.0859 C   0  0  0  0  0  0  0  0  0  0  0  0
   -0.2127  -68.1444  -20.8379 C   0  0  0  0  0  0  0  0  0  0  0  0
    0.7856  -69.0453  -20.4794 C   0  0  0  0  0  0  0  0  0  0  0  0
    0.5414  -70.4090  -20.5055 C   0  0  0  0  0  0  0  0  0  0  0  0
   -0.7485  -70.8674  -20.7456 C   0  0  0  0  0  0  0  0  0  0  0  0
   -0.9796  -72.5739  -20.6539 Cl  0  0  0  0  0  0  0  0  0  0  0  0
   -7.6649  -71.6014  -17.5416 O   0  0  0  0  0  0  0  0  0  0  0  0
  1  2  1  0
  2  3  1  0
  3  4  2  0
  3  5  2  0
  3  6  1  0
  6  7  1  0
  7  8  1  0
  8  9  2  0
  9 10  1  0
 10 11  2  0
 11 12  1  0
 12 13  2  0
 12 14  1  0
 14 15  1  0
 15 16  1  1
 16 17  1  0
 17 18  1  0
 18 19  1  0
 19 20  2  0
 19 21  2  0
 19 22  1  0
 22 23  2  0
 23 24  1  0
 24 25  2  0
 25 26  1  0
 26 27  2  0
 27 28  1  0
 15 29  1  0
 13  8  1  0
 27 22  1  0
 29 11  1  0
M  END
>  <fragmenstein_runtime>  (271) 
5.325093

>  <original ID>  (271) 
LUWQMNMHDSRBNQ-KRWDZBQOSA-N

>  <fragmenstein_error>  (271) 
None

>  <ref_pdb>  (271) 
d0174a

>  <Multi-SuCOS>  (271) 
0.759385

>  <SLURM_JOB_NAME>  (271) 
BulkDock.place:Flavi_NS5_RdRp:thumb_site_2_fstein_bulkdock_input_split1000_batch000

>  <HIPPO Compound ID>  (271) 
68613

>  <original SMILES>  (271) 
CCS(=O)(=O)NCc1ccc2c(c1)O[C@@H](NCNS(=O)(=O)c1ccccc1Cl)O2

>  <name>  (271) 
LUWQMNMHDSRBNQ-KRWDZBQOSA-N

>  <HIPPO Pose ID>  (271) 
77438

>  <ref_mols>  (271) 
d0153a,d0174a

>  <exports>  (271) 
['/opt/xchem-fragalysis-2/maxwin/BulkDock/OUTPUTS/thumb_site_2_fstein_bulkdock_input_split1000_batch000_217914.sdf', '/opt/xchem-fragalysis-2/maxwin/BulkDock/OUTPUTS/thumb_site_2_fstein_bulkdock_input_split1000_batch000_217914_fragalysis.sdf', '/opt/xchem-fragalysis-2/maxwin/RdRp_FFF/syndirella/Retro_OK_batch1.sdf']

>  <alias>  (271) 
None

>  <inchikey>  (271) 
LUWQMNMHDSRBNQ-KRWDZBQOSA-N

>  <energy_score>  (271) 
-45.103039

>  <distance_score>  (271) 
0.71194

>  <fragmenstein_outcome>  (271) 
acceptable

>  <merge_set>  (271) 
thumb_site_2_fstein_bulkdock_input

>  <scratch_subdir>  (271) 
/opt/xchem-fragalysis-2/maxwin/BulkDock/SCRATCH/217914/C68613-P17

>  <SLURM_JOB_ID>  (271) 
217914

>  <tags>  (271) 
['Fragmenstein placed', 'thumb_site_2_fstein_bulkdock_input Pose OK']

>  <fragmenstein_mode>  (271) 
expansion

>  <csv_name>  (271) 
thumb_site_2_fstein_bulkdock_input_split1000_batch000.csv

$$$$
PXZGBQYNYITACE-KRWDZBQOSA-N
     RDKit          3D

 36 39  0  0  0  0  0  0  0  0999 V2000
  -12.8563  -42.2907  -18.5525 C   0  0  0  0  0  0  0  0  0  0  0  0
  -14.0929  -42.8125  -19.2346 C   0  0  0  0  0  0  0  0  0  0  0  0
  -14.0038  -42.9927  -20.6116 C   0  0  0  0  0  0  0  0  0  0  0  0
  -15.1363  -43.2167  -21.3967 C   0  0  0  0  0  0  0  0  0  0  0  0
  -15.0753  -42.8215  -22.8628 C   0  0  2  0  0  0  0  0  0  0  0  0
  -14.2194  -43.7464  -23.6893 C   0  0  0  0  0  0  0  0  0  0  0  0
  -14.7031  -41.3336  -22.9686 C   0  0  0  0  0  0  0  0  0  0  0  0
  -13.9129  -40.5164  -22.1704 C   0  0  0  0  0  0  0  0  0  0  0  0
  -13.9203  -39.2746  -22.7146 N   0  0  0  0  0  0  0  0  0  0  0  0
  -14.6244  -39.1967  -23.8362 N   0  0  0  0  0  0  0  0  0  0  0  0
  -15.1196  -40.4316  -24.0148 C   0  0  0  0  0  0  0  0  0  0  0  0
  -15.9731  -40.7032  -25.1643 C   0  0  0  0  0  0  0  0  0  0  0  0
  -17.2574  -41.2146  -24.9981 C   0  0  0  0  0  0  0  0  0  0  0  0
  -18.0247  -41.4578  -26.1236 C   0  0  0  0  0  0  0  0  0  0  0  0
  -17.6136  -41.2083  -27.3835 N   0  0  0  0  0  0  0  0  0  0  0  0
  -16.3707  -40.6877  -27.5135 C   0  0  0  0  0  0  0  0  0  0  0  0
  -15.5265  -40.4165  -26.4498 C   0  0  0  0  0  0  0  0  0  0  0  0
  -16.2483  -43.7868  -20.7581 C   0  0  0  0  0  0  0  0  0  0  0  0
  -17.2045  -44.6480  -21.4690 C   0  0  0  0  0  0  0  0  0  0  0  0
  -17.3889  -46.0091  -21.2946 C   0  0  0  0  0  0  0  0  0  0  0  0
  -18.2122  -46.5698  -22.3110 C   0  0  0  0  0  0  0  0  0  0  0  0
  -18.6296  -45.6179  -23.2164 C   0  0  0  0  0  0  0  0  0  0  0  0
  -19.3487  -45.8812  -24.4203 C   0  0  0  0  0  0  0  0  0  0  0  0
  -19.9791  -46.1473  -25.4068 C   0  0  0  0  0  0  0  0  0  0  0  0
  -20.7818  -46.5173  -26.5673 C   0  0  0  0  0  0  0  0  0  0  0  0
  -22.0359  -45.8419  -26.5221 O   0  0  0  0  0  0  0  0  0  0  0  0
  -18.2690  -44.0522  -22.6653 S   0  0  0  0  0  0  0  0  0  0  0  0
  -16.3261  -43.7092  -19.3543 C   0  0  0  0  0  0  0  0  0  0  0  0
  -15.3154  -43.0827  -18.5967 C   0  0  0  0  0  0  0  0  0  0  0  0
  -15.4574  -42.7964  -17.1218 C   0  0  0  0  0  0  0  0  0  0  0  0
  -14.4746  -42.6182  -16.5186 O   0  0  0  0  0  0  0  0  0  0  0  0
  -16.9305  -42.8920  -16.6381 N   0  0  0  0  0  0  0  0  0  0  0  0
  -17.5526  -42.8812  -15.1311 S   0  0  0  0  0  0  0  0  0  0  0  0
  -16.5221  -41.7179  -14.2588 C   0  0  0  0  0  0  0  0  0  0  0  0
  -17.3388  -44.2069  -14.5979 O   0  0  0  0  0  0  0  0  0  0  0  0
  -18.8776  -42.3209  -15.2582 O   0  0  0  0  0  0  0  0  0  0  0  0
  1  2  1  0
  2  3  2  0
  3  4  1  0
  4  5  1  0
  5  6  1  6
  5  7  1  0
  7  8  2  0
  8  9  1  0
  9 10  1  0
 10 11  2  0
 11 12  1  0
 12 13  2  0
 13 14  1  0
 14 15  2  0
 15 16  1  0
 16 17  2  0
  4 18  2  0
 18 19  1  0
 19 20  2  0
 20 21  1  0
 21 22  2  0
 22 23  1  0
 23 24  3  0
 24 25  1  0
 25 26  1  0
 22 27  1  0
 18 28  1  0
 28 29  2  0
 29 30  1  0
 30 31  2  0
 30 32  1  0
 32 33  1  0
 33 34  1  0
 33 35  2  0
 33 36  2  0
 29  2  1  0
 11  7  1  0
 17 12  1  0
 27 19  1  0
M  END
>  <fragmenstein_runtime>  (272) 
12.68977

>  <original ID>  (272) 
PXZGBQYNYITACE-KRWDZBQOSA-N

>  <fragmenstein_error>  (272) 
None

>  <ref_pdb>  (272) 
d0160a

>  <Multi-SuCOS>  (272) 
0.7158

>  <SLURM_JOB_NAME>  (272) 
BulkDock.place:Flavi_NS5_RdRp:primer_grip_n_pocket_fstein_bulkdock_input_split1000_batch000

>  <HIPPO Compound ID>  (272) 
67398

>  <original SMILES>  (272) 
Cc1cc([C@H](C)c2c[nH]nc2-c2ccncc2)c(-c2ccc(C#CCO)s2)cc1C(=O)NS(C)(=O)=O

>  <name>  (272) 
PXZGBQYNYITACE-KRWDZBQOSA-N

>  <HIPPO Pose ID>  (272) 
77478

>  <ref_mols>  (272) 
d0160a,5hmz-a

>  <exports>  (272) 
['/opt/xchem-fragalysis-2/maxwin/BulkDock/OUTPUTS/primer_grip_n_pocket_fstein_bulkdock_input_split1000_batch000_217912.sdf', '/opt/xchem-fragalysis-2/maxwin/BulkDock/OUTPUTS/primer_grip_n_pocket_fstein_bulkdock_input_split1000_batch000_217912_fragalysis.sdf', '/opt/xchem-fragalysis-2/maxwin/RdRp_FFF/syndirella/Retro_OK_batch1.sdf']

>  <alias>  (272) 
None

>  <inchikey>  (272) 
PXZGBQYNYITACE-KRWDZBQOSA-N

>  <energy_score>  (272) 
-130.76053

>  <distance_score>  (272) 
0.736818

>  <fragmenstein_outcome>  (272) 
acceptable

>  <merge_set>  (272) 
primer_grip_n_pocket_fstein_bulkdock_input

>  <scratch_subdir>  (272) 
/opt/xchem-fragalysis-2/maxwin/BulkDock/SCRATCH/217912/C67398-P12

>  <SLURM_JOB_ID>  (272) 
217912

>  <tags>  (272) 
['Fragmenstein placed', 'primer_grip_n_pocket_fstein_bulkdock_input Pose OK']

>  <fragmenstein_mode>  (272) 
expansion

>  <csv_name>  (272) 
primer_grip_n_pocket_fstein_bulkdock_input_split1000_batch000.csv

$$$$
MQQPLOYUSOAAKC-SFHVURJKSA-N
     RDKit          3D

 30 32  0  0  0  0  0  0  0  0999 V2000
  -17.1689  -46.9553  -20.7176 C   0  0  0  0  0  0  0  0  0  0  0  0
  -18.0111  -45.8475  -20.1693 C   0  0  0  0  0  0  0  0  0  0  0  0
  -18.8628  -46.1065  -18.7283 S   0  0  0  0  0  0  0  0  0  0  0  0
  -19.5730  -44.5482  -18.7377 C   0  0  0  0  0  0  0  0  0  0  0  0
  -20.5852  -44.1626  -17.6696 C   0  0  2  0  0  0  0  0  0  0  0  0
  -20.0379  -43.1205  -16.7048 C   0  0  0  0  0  0  0  0  0  0  0  0
  -21.0078  -45.3287  -16.9318 N   0  0  0  0  0  0  0  0  0  0  0  0
  -22.4264  -45.8421  -16.5912 C   0  0  0  0  0  0  0  0  0  0  0  0
  -23.4703  -45.3625  -16.7876 O   0  0  0  0  0  0  0  0  0  0  0  0
  -22.2329  -47.1865  -15.8647 C   0  0  0  0  0  0  0  0  0  0  0  0
  -23.5181  -47.6070  -15.1686 C   0  0  0  0  0  0  0  0  0  0  0  0
  -21.8029  -48.2762  -16.8398 C   0  0  0  0  0  0  0  0  0  0  0  0
  -19.0588  -43.7821  -19.7816 C   0  0  0  0  0  0  0  0  0  0  0  0
  -19.3098  -42.3164  -19.9935 C   0  0  0  0  0  0  0  0  0  0  0  0
  -18.2031  -44.5654  -20.6534 C   0  0  0  0  0  0  0  0  0  0  0  0
  -17.5399  -44.0055  -21.8798 C   0  0  0  0  0  0  0  0  0  0  0  0
  -17.6912  -44.8863  -23.1229 C   0  0  0  0  0  0  0  0  0  0  0  0
  -17.6673  -44.1197  -24.3631 N   0  0  0  0  0  0  0  0  0  0  0  0
  -16.6753  -43.2462  -24.6378 C   0  0  0  0  0  0  0  0  0  0  0  0
  -15.3845  -43.1435  -24.0770 C   0  0  0  0  0  0  0  0  0  0  0  0
  -14.8232  -41.9889  -24.5762 C   0  0  0  0  0  0  0  0  0  0  0  0
  -15.6815  -41.4677  -25.5057 N   0  0  0  0  0  0  0  0  0  0  0  0
  -15.4200  -40.2984  -26.3319 C   0  0  0  0  0  0  0  0  0  0  0  0
  -16.4597  -39.2394  -26.1149 C   0  0  0  0  0  0  0  0  0  0  0  0
  -16.5143  -38.4867  -24.9388 C   0  0  0  0  0  0  0  0  0  0  0  0
  -17.5012  -37.5232  -24.7913 C   0  0  0  0  0  0  0  0  0  0  0  0
  -18.3989  -37.3546  -25.8304 C   0  0  0  0  0  0  0  0  0  0  0  0
  -18.4133  -38.0827  -26.9660 N   0  0  0  0  0  0  0  0  0  0  0  0
  -17.4301  -39.0036  -27.0833 C   0  0  0  0  0  0  0  0  0  0  0  0
  -16.8179  -42.2311  -25.5438 C   0  0  0  0  0  0  0  0  0  0  0  0
  1  2  1  0
  2  3  1  0
  3  4  1  0
  4  5  1  0
  5  6  1  1
  5  7  1  0
  7  8  1  0
  8  9  2  0
  8 10  1  0
 10 11  1  0
 10 12  1  0
  4 13  2  0
 13 14  1  0
 13 15  1  0
 15 16  1  0
 16 17  1  0
 17 18  1  0
 18 19  1  0
 19 20  1  0
 20 21  2  0
 21 22  1  0
 22 23  1  0
 23 24  1  0
 24 25  2  0
 25 26  1  0
 26 27  2  0
 27 28  1  0
 28 29  2  0
 22 30  1  0
 15  2  2  0
 30 19  2  0
 29 24  1  0
M  END
>  <fragmenstein_runtime>  (273) 
96.404382

>  <original ID>  (273) 
MQQPLOYUSOAAKC-SFHVURJKSA-N

>  <fragmenstein_error>  (273) 
None

>  <ref_pdb>  (273) 
d0191a

>  <Multi-SuCOS>  (273) 
0.58076

>  <SLURM_JOB_NAME>  (273) 
BulkDock.place:Flavi_NS5_RdRp:primer_grip_n_pocket_fstein_bulkdock_input_split1000_batch000

>  <HIPPO Compound ID>  (273) 
67404

>  <original SMILES>  (273) 
Cc1sc([C@H](C)NC(=O)C(C)C)c(C)c1CCNc1ccn(Cc2cccnc2)c1

>  <name>  (273) 
MQQPLOYUSOAAKC-SFHVURJKSA-N

>  <HIPPO Pose ID>  (273) 
77527

>  <ref_mols>  (273) 
d0191a,d0264a

>  <exports>  (273) 
['/opt/xchem-fragalysis-2/maxwin/BulkDock/OUTPUTS/primer_grip_n_pocket_fstein_bulkdock_input_split1000_batch000_217912.sdf', '/opt/xchem-fragalysis-2/maxwin/BulkDock/OUTPUTS/primer_grip_n_pocket_fstein_bulkdock_input_split1000_batch000_217912_fragalysis.sdf', '/opt/xchem-fragalysis-2/maxwin/RdRp_FFF/syndirella/Retro_OK_batch1.sdf']

>  <alias>  (273) 
None

>  <inchikey>  (273) 
MQQPLOYUSOAAKC-SFHVURJKSA-N

>  <energy_score>  (273) 
-44.814416

>  <distance_score>  (273) 
0.760951

>  <fragmenstein_outcome>  (273) 
acceptable

>  <merge_set>  (273) 
primer_grip_n_pocket_fstein_bulkdock_input

>  <scratch_subdir>  (273) 
/opt/xchem-fragalysis-2/maxwin/BulkDock/SCRATCH/217912/C67404-P19

>  <SLURM_JOB_ID>  (273) 
217912

>  <tags>  (273) 
['Fragmenstein placed', 'primer_grip_n_pocket_fstein_bulkdock_input Pose OK']

>  <fragmenstein_mode>  (273) 
expansion

>  <csv_name>  (273) 
primer_grip_n_pocket_fstein_bulkdock_input_split1000_batch000.csv

$$$$
LDGQOFRTSKTMJZ-UHFFFAOYSA-N
     RDKit          3D

 24 27  0  0  0  0  0  0  0  0999 V2000
  -17.9560  -37.5610  -24.6646 C   0  0  0  0  0  0  0  0  0  0  0  0
  -18.6909  -37.5878  -25.8371 C   0  0  0  0  0  0  0  0  0  0  0  0
  -18.3373  -38.2750  -26.9410 N   0  0  0  0  0  0  0  0  0  0  0  0
  -17.1846  -38.9851  -26.8592 C   0  0  0  0  0  0  0  0  0  0  0  0
  -16.3697  -39.0226  -25.7283 C   0  0  0  0  0  0  0  0  0  0  0  0
  -15.1185  -39.8483  -25.6875 C   0  0  0  0  0  0  0  0  0  0  0  0
  -15.3808  -41.1704  -25.1400 N   0  0  0  0  0  0  0  0  0  0  0  0
  -15.9297  -42.1905  -25.8632 C   0  0  0  0  0  0  0  0  0  0  0  0
  -15.9047  -43.3140  -25.0837 C   0  0  0  0  0  0  0  0  0  0  0  0
  -15.3082  -42.9698  -23.8519 C   0  0  0  0  0  0  0  0  0  0  0  0
  -15.1193  -43.8990  -22.8986 N   0  0  0  0  0  0  0  0  0  0  0  0
  -14.7800  -43.8856  -21.5320 C   0  0  0  0  0  0  0  0  0  0  0  0
  -13.8593  -42.9779  -21.0132 C   0  0  0  0  0  0  0  0  0  0  0  0
  -13.4216  -43.0955  -19.6964 C   0  0  0  0  0  0  0  0  0  0  0  0
  -13.9316  -44.1170  -18.9169 C   0  0  0  0  0  0  0  0  0  0  0  0
  -14.8477  -45.0075  -19.3471 N   0  0  0  0  0  0  0  0  0  0  0  0
  -15.2911  -44.8524  -20.6303 C   0  0  0  0  0  0  0  0  0  0  0  0
  -16.2769  -45.7943  -21.0651 N   0  0  0  0  0  0  0  0  0  0  0  0
  -16.3978  -47.0819  -20.5747 C   0  0  0  0  0  0  0  0  0  0  0  0
  -17.2237  -47.7870  -21.4204 C   0  0  0  0  0  0  0  0  0  0  0  0
  -17.7819  -46.8726  -22.3334 C   0  0  0  0  0  0  0  0  0  0  0  0
  -17.2384  -45.6434  -22.0501 C   0  0  0  0  0  0  0  0  0  0  0  0
  -15.0493  -41.6211  -23.8812 C   0  0  0  0  0  0  0  0  0  0  0  0
  -16.7783  -38.2914  -24.6113 C   0  0  0  0  0  0  0  0  0  0  0  0
  1  2  2  0
  2  3  1  0
  3  4  2  0
  4  5  1  0
  5  6  1  0
  6  7  1  0
  7  8  1  0
  8  9  2  0
  9 10  1  0
 10 11  1  0
 11 12  1  0
 12 13  2  0
 13 14  1  0
 14 15  2  0
 15 16  1  0
 16 17  2  0
 17 18  1  0
 18 19  1  0
 19 20  2  0
 20 21  1  0
 21 22  2  0
 10 23  2  0
  5 24  2  0
 24  1  1  0
 23  7  1  0
 17 12  1  0
 22 18  1  0
M  END
>  <fragmenstein_runtime>  (274) 
4.486303

>  <original ID>  (274) 
LDGQOFRTSKTMJZ-UHFFFAOYSA-N

>  <fragmenstein_error>  (274) 
None

>  <ref_pdb>  (274) 
d0191a

>  <Multi-SuCOS>  (274) 
0.845132

>  <SLURM_JOB_NAME>  (274) 
BulkDock.place:Flavi_NS5_RdRp:primer_grip_n_pocket_fstein_bulkdock_input_split1000_batch000

>  <HIPPO Compound ID>  (274) 
67405

>  <original SMILES>  (274) 
c1cncc(Cn2ccc(Nc3cccnc3-n3cccc3)c2)c1

>  <name>  (274) 
LDGQOFRTSKTMJZ-UHFFFAOYSA-N

>  <HIPPO Pose ID>  (274) 
77544

>  <ref_mols>  (274) 
d0191a,d0472a

>  <exports>  (274) 
['/opt/xchem-fragalysis-2/maxwin/BulkDock/OUTPUTS/primer_grip_n_pocket_fstein_bulkdock_input_split1000_batch000_217912.sdf', '/opt/xchem-fragalysis-2/maxwin/BulkDock/OUTPUTS/primer_grip_n_pocket_fstein_bulkdock_input_split1000_batch000_217912_fragalysis.sdf', '/opt/xchem-fragalysis-2/maxwin/RdRp_FFF/syndirella/Retro_OK_batch1.sdf']

>  <alias>  (274) 
None

>  <inchikey>  (274) 
LDGQOFRTSKTMJZ-UHFFFAOYSA-N

>  <energy_score>  (274) 
-24.338934

>  <distance_score>  (274) 
0.486996

>  <fragmenstein_outcome>  (274) 
acceptable

>  <merge_set>  (274) 
primer_grip_n_pocket_fstein_bulkdock_input

>  <scratch_subdir>  (274) 
/opt/xchem-fragalysis-2/maxwin/BulkDock/SCRATCH/217912/C67405-P19

>  <SLURM_JOB_ID>  (274) 
217912

>  <tags>  (274) 
['Fragmenstein placed', 'primer_grip_n_pocket_fstein_bulkdock_input Pose OK']

>  <fragmenstein_mode>  (274) 
expansion

>  <csv_name>  (274) 
primer_grip_n_pocket_fstein_bulkdock_input_split1000_batch000.csv

$$$$
LDGQOFRTSKTMJZ-UHFFFAOYSA-N
     RDKit          3D

 24 27  0  0  0  0  0  0  0  0999 V2000
  -17.8915  -37.2289  -24.4243 C   0  0  0  0  0  0  0  0  0  0  0  0
  -18.7282  -37.2046  -25.5276 C   0  0  0  0  0  0  0  0  0  0  0  0
  -18.4919  -37.8822  -26.6746 N   0  0  0  0  0  0  0  0  0  0  0  0
  -17.3548  -38.6267  -26.7003 C   0  0  0  0  0  0  0  0  0  0  0  0
  -16.4501  -38.7252  -25.6453 C   0  0  0  0  0  0  0  0  0  0  0  0
  -15.2282  -39.5942  -25.7304 C   0  0  0  0  0  0  0  0  0  0  0  0
  -15.5022  -40.9307  -25.2218 N   0  0  0  0  0  0  0  0  0  0  0  0
  -16.1311  -41.9095  -25.9408 C   0  0  0  0  0  0  0  0  0  0  0  0
  -16.1506  -43.0353  -25.1574 C   0  0  0  0  0  0  0  0  0  0  0  0
  -15.4928  -42.7453  -23.9377 C   0  0  0  0  0  0  0  0  0  0  0  0
  -15.3464  -43.6802  -22.9743 N   0  0  0  0  0  0  0  0  0  0  0  0
  -14.9044  -43.6909  -21.6324 C   0  0  0  0  0  0  0  0  0  0  0  0
  -13.9462  -42.7912  -21.1672 C   0  0  0  0  0  0  0  0  0  0  0  0
  -13.4287  -42.8998  -19.8781 C   0  0  0  0  0  0  0  0  0  0  0  0
  -13.8960  -43.9093  -19.0623 C   0  0  0  0  0  0  0  0  0  0  0  0
  -14.8393  -44.7934  -19.4333 N   0  0  0  0  0  0  0  0  0  0  0  0
  -15.3665  -44.6411  -20.6873 C   0  0  0  0  0  0  0  0  0  0  0  0
  -16.4112  -45.5590  -21.0151 N   0  0  0  0  0  0  0  0  0  0  0  0
  -16.5361  -46.8227  -20.4634 C   0  0  0  0  0  0  0  0  0  0  0  0
  -17.4710  -47.5175  -21.1929 C   0  0  0  0  0  0  0  0  0  0  0  0
  -18.0792  -46.6091  -22.0808 C   0  0  0  0  0  0  0  0  0  0  0  0
  -17.4488  -45.4000  -21.9144 C   0  0  0  0  0  0  0  0  0  0  0  0
  -15.1443  -41.4174  -23.9824 C   0  0  0  0  0  0  0  0  0  0  0  0
  -16.7407  -38.0058  -24.4846 C   0  0  0  0  0  0  0  0  0  0  0  0
  1  2  2  0
  2  3  1  0
  3  4  2  0
  4  5  1  0
  5  6  1  0
  6  7  1  0
  7  8  1  0
  8  9  2  0
  9 10  1  0
 10 11  1  0
 11 12  1  0
 12 13  2  0
 13 14  1  0
 14 15  2  0
 15 16  1  0
 16 17  2  0
 17 18  1  0
 18 19  1  0
 19 20  2  0
 20 21  1  0
 21 22  2  0
 10 23  2  0
  5 24  2  0
 24  1  1  0
 23  7  1  0
 17 12  1  0
 22 18  1  0
M  END
>  <fragmenstein_runtime>  (275) 
4.002896

>  <original ID>  (275) 
LDGQOFRTSKTMJZ-UHFFFAOYSA-N

>  <fragmenstein_error>  (275) 
None

>  <ref_pdb>  (275) 
d0472a

>  <Multi-SuCOS>  (275) 
0.83573

>  <SLURM_JOB_NAME>  (275) 
BulkDock.place:Flavi_NS5_RdRp:primer_grip_n_pocket_fstein_bulkdock_input_split1000_batch000

>  <HIPPO Compound ID>  (275) 
67405

>  <original SMILES>  (275) 
c1cncc(Cn2ccc(Nc3cccnc3-n3cccc3)c2)c1

>  <name>  (275) 
LDGQOFRTSKTMJZ-UHFFFAOYSA-N

>  <HIPPO Pose ID>  (275) 
77546

>  <ref_mols>  (275) 
d0191a,d0472a

>  <exports>  (275) 
['/opt/xchem-fragalysis-2/maxwin/BulkDock/OUTPUTS/primer_grip_n_pocket_fstein_bulkdock_input_split1000_batch000_217912.sdf', '/opt/xchem-fragalysis-2/maxwin/BulkDock/OUTPUTS/primer_grip_n_pocket_fstein_bulkdock_input_split1000_batch000_217912_fragalysis.sdf', '/opt/xchem-fragalysis-2/maxwin/RdRp_FFF/syndirella/Retro_OK_batch1.sdf']

>  <alias>  (275) 
None

>  <inchikey>  (275) 
LDGQOFRTSKTMJZ-UHFFFAOYSA-N

>  <energy_score>  (275) 
-26.363773

>  <distance_score>  (275) 
0.524969

>  <fragmenstein_outcome>  (275) 
acceptable

>  <merge_set>  (275) 
primer_grip_n_pocket_fstein_bulkdock_input

>  <scratch_subdir>  (275) 
/opt/xchem-fragalysis-2/maxwin/BulkDock/SCRATCH/217912/C67405-P42

>  <SLURM_JOB_ID>  (275) 
217912

>  <tags>  (275) 
['Fragmenstein placed', 'primer_grip_n_pocket_fstein_bulkdock_input Pose OK']

>  <fragmenstein_mode>  (275) 
expansion

>  <csv_name>  (275) 
primer_grip_n_pocket_fstein_bulkdock_input_split1000_batch000.csv

$$$$
YZVNFYOSDYISGW-UHFFFAOYSA-N
     RDKit          3D

 34 36  0  0  0  0  0  0  0  0999 V2000
  -12.0732  -69.1480  -26.4230 O   0  0  0  0  0  0  0  0  0  0  0  0
  -11.5426  -69.6987  -25.4719 C   0  0  0  0  0  0  0  0  0  0  0  0
  -10.3119  -69.3699  -25.0321 O   0  0  0  0  0  0  0  0  0  0  0  0
  -12.1631  -70.7897  -24.6353 C   0  0  0  0  0  0  0  0  0  0  0  0
  -12.3506  -70.3754  -23.1920 C   0  0  0  0  0  0  0  0  0  0  0  0
  -13.4525  -69.5955  -22.8219 C   0  0  0  0  0  0  0  0  0  0  0  0
  -13.6072  -69.1675  -21.5014 C   0  0  0  0  0  0  0  0  0  0  0  0
  -14.8028  -68.3453  -21.0919 C   0  0  0  0  0  0  0  0  0  0  0  0
  -15.7548  -69.0908  -20.1987 C   0  0  0  0  0  0  0  0  0  0  0  0
  -16.8172  -69.5874  -20.5371 O   0  0  0  0  0  0  0  0  0  0  0  0
  -15.3235  -69.1933  -18.9215 O   0  0  0  0  0  0  0  0  0  0  0  0
  -12.6329  -69.5250  -20.5540 C   0  0  0  0  0  0  0  0  0  0  0  0
  -11.5226  -70.3262  -20.8804 C   0  0  0  0  0  0  0  0  0  0  0  0
  -10.5716  -70.7397  -19.8160 C   0  0  0  0  0  0  0  0  0  0  0  0
  -10.7040  -70.5915  -18.4439 C   0  0  0  0  0  0  0  0  0  0  0  0
   -9.6443  -71.1706  -17.6963 C   0  0  0  0  0  0  0  0  0  0  0  0
   -8.7171  -71.7879  -18.5056 C   0  0  0  0  0  0  0  0  0  0  0  0
   -7.5889  -72.6760  -18.0539 C   0  0  0  0  0  0  0  0  0  0  0  0
   -6.1878  -72.3513  -18.5770 C   0  0  0  0  0  0  0  0  0  0  0  0
   -5.6927  -71.0411  -18.1330 N   0  0  0  0  0  0  0  0  0  0  0  0
   -4.2451  -70.9285  -18.2254 C   0  0  0  0  0  0  0  0  0  0  0  0
   -3.7505  -71.4099  -19.4914 N   0  0  0  0  0  0  0  0  0  0  0  0
   -3.7260  -70.3547  -20.7880 S   0  0  0  0  0  0  0  0  0  0  0  0
   -3.7204  -71.1550  -21.9926 O   0  0  0  0  0  0  0  0  0  0  0  0
   -4.7515  -69.3638  -20.5414 O   0  0  0  0  0  0  0  0  0  0  0  0
   -2.1519  -69.5691  -20.6990 C   0  0  0  0  0  0  0  0  0  0  0  0
   -2.1134  -68.1707  -20.6833 C   0  0  0  0  0  0  0  0  0  0  0  0
   -0.8846  -67.5194  -20.6955 C   0  0  0  0  0  0  0  0  0  0  0  0
    0.2997  -68.2485  -20.7188 C   0  0  0  0  0  0  0  0  0  0  0  0
    0.2628  -69.6400  -20.7404 C   0  0  0  0  0  0  0  0  0  0  0  0
   -0.9645  -70.3085  -20.7322 C   0  0  0  0  0  0  0  0  0  0  0  0
   -0.9015  -72.0356  -20.7382 Cl  0  0  0  0  0  0  0  0  0  0  0  0
   -9.0829  -71.5390  -20.1587 S   0  0  0  0  0  0  0  0  0  0  0  0
  -11.3974  -70.7311  -22.2187 C   0  0  0  0  0  0  0  0  0  0  0  0
  1  2  2  0
  2  3  1  0
  2  4  1  0
  4  5  1  0
  5  6  2  0
  6  7  1  0
  7  8  1  0
  8  9  1  0
  9 10  2  0
  9 11  1  0
  7 12  2  0
 12 13  1  0
 13 14  1  0
 14 15  2  0
 15 16  1  0
 16 17  2  0
 17 18  1  0
 18 19  1  0
 19 20  1  0
 20 21  1  0
 21 22  1  0
 22 23  1  0
 23 24  2  0
 23 25  2  0
 23 26  1  0
 26 27  2  0
 27 28  1  0
 28 29  2  0
 29 30  1  0
 30 31  2  0
 31 32  1  0
 17 33  1  0
 13 34  2  0
 34  5  1  0
 33 14  1  0
 31 26  1  0
M  END
>  <fragmenstein_runtime>  (276) 
7.504212

>  <original ID>  (276) 
YZVNFYOSDYISGW-UHFFFAOYSA-N

>  <fragmenstein_error>  (276) 
None

>  <ref_pdb>  (276) 
d0153a

>  <Multi-SuCOS>  (276) 
0.797814

>  <SLURM_JOB_NAME>  (276) 
BulkDock.place:Flavi_NS5_RdRp:thumb_site_2_fstein_bulkdock_input_split1000_batch000

>  <HIPPO Compound ID>  (276) 
68635

>  <original SMILES>  (276) 
O=C(O)Cc1cc(CC(=O)O)cc(-c2ccc(CCNCNS(=O)(=O)c3ccccc3Cl)s2)c1

>  <name>  (276) 
YZVNFYOSDYISGW-UHFFFAOYSA-N

>  <HIPPO Pose ID>  (276) 
77553

>  <ref_mols>  (276) 
d0153a,5hmx-a

>  <exports>  (276) 
['/opt/xchem-fragalysis-2/maxwin/BulkDock/OUTPUTS/thumb_site_2_fstein_bulkdock_input_split1000_batch000_217914.sdf', '/opt/xchem-fragalysis-2/maxwin/BulkDock/OUTPUTS/thumb_site_2_fstein_bulkdock_input_split1000_batch000_217914_fragalysis.sdf', '/opt/xchem-fragalysis-2/maxwin/RdRp_FFF/syndirella/Retro_OK_batch1.sdf']

>  <alias>  (276) 
None

>  <inchikey>  (276) 
YZVNFYOSDYISGW-UHFFFAOYSA-N

>  <energy_score>  (276) 
-211.447342

>  <distance_score>  (276) 
0.408906

>  <fragmenstein_outcome>  (276) 
acceptable

>  <merge_set>  (276) 
thumb_site_2_fstein_bulkdock_input

>  <scratch_subdir>  (276) 
/opt/xchem-fragalysis-2/maxwin/BulkDock/SCRATCH/217914/C68635-P10

>  <SLURM_JOB_ID>  (276) 
217914

>  <tags>  (276) 
['Fragmenstein placed', 'thumb_site_2_fstein_bulkdock_input Pose OK']

>  <fragmenstein_mode>  (276) 
expansion

>  <csv_name>  (276) 
thumb_site_2_fstein_bulkdock_input_split1000_batch000.csv

$$$$
FRJYLRUVCPPIIC-UHFFFAOYSA-N
     RDKit          3D

 20 22  0  0  0  0  0  0  0  0999 V2000
  -13.7962  -44.1987  -20.6883 N   0  0  0  0  0  0  0  0  0  0  0  0
  -13.4133  -43.1330  -20.9600 C   0  0  0  0  0  0  0  0  0  0  0  0
  -13.0186  -41.7737  -21.1914 C   0  0  0  0  0  0  0  0  0  0  0  0
  -12.0474  -41.2330  -20.3639 N   0  0  0  0  0  0  0  0  0  0  0  0
  -11.8923  -39.9960  -20.7549 C   0  0  0  0  0  0  0  0  0  0  0  0
  -12.7165  -39.7088  -21.7972 N   0  0  0  0  0  0  0  0  0  0  0  0
  -13.4374  -40.8386  -22.1347 C   0  0  0  0  0  0  0  0  0  0  0  0
  -14.2516  -40.7372  -23.2284 N   0  0  0  0  0  0  0  0  0  0  0  0
  -15.1013  -41.6387  -23.7981 C   0  0  0  0  0  0  0  0  0  0  0  0
  -15.6771  -42.8019  -23.3261 C   0  0  0  0  0  0  0  0  0  0  0  0
  -16.4818  -43.3629  -24.3428 C   0  0  0  0  0  0  0  0  0  0  0  0
  -16.4100  -42.5206  -25.4203 C   0  0  0  0  0  0  0  0  0  0  0  0
  -15.6058  -41.4534  -25.0820 N   0  0  0  0  0  0  0  0  0  0  0  0
  -15.3657  -40.3433  -26.0042 C   0  0  0  0  0  0  0  0  0  0  0  0
  -16.4534  -39.3064  -25.9112 C   0  0  0  0  0  0  0  0  0  0  0  0
  -16.6506  -38.5261  -24.7665 C   0  0  0  0  0  0  0  0  0  0  0  0
  -17.6669  -37.5790  -24.7394 C   0  0  0  0  0  0  0  0  0  0  0  0
  -18.4603  -37.4469  -25.8632 C   0  0  0  0  0  0  0  0  0  0  0  0
  -18.3232  -38.1833  -26.9834 N   0  0  0  0  0  0  0  0  0  0  0  0
  -17.3156  -39.0900  -26.9838 C   0  0  0  0  0  0  0  0  0  0  0  0
  1  2  3  0
  2  3  1  0
  3  4  1  0
  4  5  2  0
  5  6  1  0
  6  7  1  0
  7  8  1  0
  8  9  1  0
  9 10  2  0
 10 11  1  0
 11 12  2  0
 12 13  1  0
 13 14  1  0
 14 15  1  0
 15 16  2  0
 16 17  1  0
 17 18  2  0
 18 19  1  0
 19 20  2  0
  7  3  2  0
 13  9  1  0
 20 15  1  0
M  END
>  <fragmenstein_runtime>  (277) 
2.739915

>  <original ID>  (277) 
FRJYLRUVCPPIIC-UHFFFAOYSA-N

>  <fragmenstein_error>  (277) 
None

>  <ref_pdb>  (277) 
d0191a

>  <Multi-SuCOS>  (277) 
0.728933

>  <SLURM_JOB_NAME>  (277) 
BulkDock.place:Flavi_NS5_RdRp:primer_grip_n_pocket_fstein_bulkdock_input_split1000_batch000

>  <HIPPO Compound ID>  (277) 
67410

>  <original SMILES>  (277) 
N#Cc1nc[nH]c1Nc1cccn1Cc1cccnc1

>  <name>  (277) 
FRJYLRUVCPPIIC-UHFFFAOYSA-N

>  <HIPPO Pose ID>  (277) 
77562

>  <ref_mols>  (277) 
d0191a,z0875c

>  <exports>  (277) 
['/opt/xchem-fragalysis-2/maxwin/BulkDock/OUTPUTS/primer_grip_n_pocket_fstein_bulkdock_input_split1000_batch000_217912.sdf', '/opt/xchem-fragalysis-2/maxwin/BulkDock/OUTPUTS/primer_grip_n_pocket_fstein_bulkdock_input_split1000_batch000_217912_fragalysis.sdf', '/opt/xchem-fragalysis-2/maxwin/RdRp_FFF/syndirella/Retro_OK_batch1.sdf']

>  <alias>  (277) 
None

>  <inchikey>  (277) 
FRJYLRUVCPPIIC-UHFFFAOYSA-N

>  <energy_score>  (277) 
-25.940003

>  <distance_score>  (277) 
0.539675

>  <fragmenstein_outcome>  (277) 
acceptable

>  <merge_set>  (277) 
primer_grip_n_pocket_fstein_bulkdock_input

>  <scratch_subdir>  (277) 
/opt/xchem-fragalysis-2/maxwin/BulkDock/SCRATCH/217912/C67410-P19

>  <SLURM_JOB_ID>  (277) 
217912

>  <tags>  (277) 
['Fragmenstein placed', 'primer_grip_n_pocket_fstein_bulkdock_input Pose OK']

>  <fragmenstein_mode>  (277) 
expansion

>  <csv_name>  (277) 
primer_grip_n_pocket_fstein_bulkdock_input_split1000_batch000.csv

$$$$
MLFVYAAZYPOSSA-UHFFFAOYSA-N
     RDKit          3D

 27 29  0  0  0  0  0  0  0  0999 V2000
  -14.2686  -69.3562  -22.9273 C   0  0  0  0  0  0  0  0  0  0  0  0
  -14.0766  -70.8307  -22.5795 C   0  0  0  0  0  0  0  0  0  0  0  0
  -15.3400  -71.3232  -21.8663 C   0  0  0  0  0  0  0  0  0  0  0  0
  -13.8575  -71.6895  -23.8519 C   0  0  0  0  0  0  0  0  0  0  0  0
  -12.8658  -71.1698  -24.7270 O   0  0  0  0  0  0  0  0  0  0  0  0
  -12.9529  -70.9594  -21.6557 N   0  0  0  0  0  0  0  0  0  0  0  0
  -11.4671  -70.6032  -21.8336 C   0  0  0  0  0  0  0  0  0  0  0  0
  -10.8896  -70.2228  -22.7696 O   0  0  0  0  0  0  0  0  0  0  0  0
  -10.7322  -70.7809  -20.5488 C   0  0  0  0  0  0  0  0  0  0  0  0
  -11.2797  -70.3134  -19.3476 C   0  0  0  0  0  0  0  0  0  0  0  0
  -10.6088  -70.5318  -18.1475 C   0  0  0  0  0  0  0  0  0  0  0  0
   -9.3930  -71.2097  -18.1476 C   0  0  0  0  0  0  0  0  0  0  0  0
   -8.8292  -71.6632  -19.3452 C   0  0  0  0  0  0  0  0  0  0  0  0
   -7.6318  -72.4046  -19.3103 N   0  0  0  0  0  0  0  0  0  0  0  0
   -6.3187  -71.8809  -19.3012 C   0  0  0  0  0  0  0  0  0  0  0  0
   -5.2542  -72.7380  -18.9854 C   0  0  0  0  0  0  0  0  0  0  0  0
   -3.9216  -72.3213  -19.1009 C   0  0  0  0  0  0  0  0  0  0  0  0
   -3.6199  -71.0381  -19.5623 C   0  0  0  0  0  0  0  0  0  0  0  0
   -2.2515  -70.5892  -19.8111 C   0  0  0  0  0  0  0  0  0  0  0  0
   -1.1278  -71.3917  -19.8467 C   0  0  0  0  0  0  0  0  0  0  0  0
    0.2451  -70.4608  -20.3039 S   0  0  0  0  0  0  0  0  0  0  0  0
   -0.7497  -69.0697  -20.4183 C   0  0  0  0  0  0  0  0  0  0  0  0
   -0.2850  -67.8769  -20.8091 N   0  0  0  0  0  0  0  0  0  0  0  0
   -2.0038  -69.2605  -20.0965 N   0  0  0  0  0  0  0  0  0  0  0  0
   -4.6863  -70.1722  -19.8533 C   0  0  0  0  0  0  0  0  0  0  0  0
   -6.0175  -70.5915  -19.7371 C   0  0  0  0  0  0  0  0  0  0  0  0
   -9.4902  -71.4233  -20.5540 C   0  0  0  0  0  0  0  0  0  0  0  0
  1  2  1  0
  2  3  1  0
  2  4  1  0
  4  5  1  0
  2  6  1  0
  6  7  1  0
  7  8  2  0
  7  9  1  0
  9 10  2  0
 10 11  1  0
 11 12  2  0
 12 13  1  0
 13 14  1  0
 14 15  1  0
 15 16  2  0
 16 17  1  0
 17 18  2  0
 18 19  1  0
 19 20  2  0
 20 21  1  0
 21 22  1  0
 22 23  1  0
 22 24  2  0
 18 25  1  0
 25 26  2  0
 13 27  2  0
 27  9  1  0
 26 15  1  0
 24 19  1  0
M  END
>  <fragmenstein_runtime>  (278) 
8.435351

>  <original ID>  (278) 
MLFVYAAZYPOSSA-UHFFFAOYSA-N

>  <fragmenstein_error>  (278) 
None

>  <ref_pdb>  (278) 
d0162a

>  <Multi-SuCOS>  (278) 
0.8426

>  <SLURM_JOB_NAME>  (278) 
BulkDock.place:Flavi_NS5_RdRp:thumb_site_2_fstein_bulkdock_input_split1000_batch000

>  <HIPPO Compound ID>  (278) 
68641

>  <original SMILES>  (278) 
CC(C)(CO)NC(=O)c1cccc(Nc2ccc(-c3csc(N)n3)cc2)c1

>  <name>  (278) 
MLFVYAAZYPOSSA-UHFFFAOYSA-N

>  <HIPPO Pose ID>  (278) 
77584

>  <ref_mols>  (278) 
d0162a,d0248a

>  <exports>  (278) 
['/opt/xchem-fragalysis-2/maxwin/BulkDock/OUTPUTS/thumb_site_2_fstein_bulkdock_input_split1000_batch000_217914.sdf', '/opt/xchem-fragalysis-2/maxwin/BulkDock/OUTPUTS/thumb_site_2_fstein_bulkdock_input_split1000_batch000_217914_fragalysis.sdf', '/opt/xchem-fragalysis-2/maxwin/RdRp_FFF/syndirella/Retro_OK_batch1.sdf']

>  <alias>  (278) 
None

>  <inchikey>  (278) 
MLFVYAAZYPOSSA-UHFFFAOYSA-N

>  <energy_score>  (278) 
-83.184368

>  <distance_score>  (278) 
0.509589

>  <fragmenstein_outcome>  (278) 
acceptable

>  <merge_set>  (278) 
thumb_site_2_fstein_bulkdock_input

>  <scratch_subdir>  (278) 
/opt/xchem-fragalysis-2/maxwin/BulkDock/SCRATCH/217914/C68641-P15

>  <SLURM_JOB_ID>  (278) 
217914

>  <tags>  (278) 
['Fragmenstein placed', 'thumb_site_2_fstein_bulkdock_input Pose OK']

>  <fragmenstein_mode>  (278) 
expansion

>  <csv_name>  (278) 
thumb_site_2_fstein_bulkdock_input_split1000_batch000.csv

$$$$
MLFVYAAZYPOSSA-UHFFFAOYSA-N
     RDKit          3D

 27 29  0  0  0  0  0  0  0  0999 V2000
  -14.2000  -69.2222  -23.2865 C   0  0  0  0  0  0  0  0  0  0  0  0
  -14.1411  -70.6788  -22.8084 C   0  0  0  0  0  0  0  0  0  0  0  0
  -15.4544  -71.0194  -22.0871 C   0  0  0  0  0  0  0  0  0  0  0  0
  -13.9685  -71.6467  -24.0082 C   0  0  0  0  0  0  0  0  0  0  0  0
  -12.8952  -71.2971  -24.8733 O   0  0  0  0  0  0  0  0  0  0  0  0
  -13.0379  -70.8385  -21.8558 N   0  0  0  0  0  0  0  0  0  0  0  0
  -11.5259  -70.6042  -22.0281 C   0  0  0  0  0  0  0  0  0  0  0  0
  -10.9094  -70.3214  -22.9741 O   0  0  0  0  0  0  0  0  0  0  0  0
  -10.8003  -70.8057  -20.7349 C   0  0  0  0  0  0  0  0  0  0  0  0
  -11.3445  -70.3489  -19.5288 C   0  0  0  0  0  0  0  0  0  0  0  0
  -10.6690  -70.5740  -18.3308 C   0  0  0  0  0  0  0  0  0  0  0  0
   -9.4508  -71.2442  -18.3319 C   0  0  0  0  0  0  0  0  0  0  0  0
   -8.8883  -71.6893  -19.5307 C   0  0  0  0  0  0  0  0  0  0  0  0
   -7.6920  -72.4328  -19.4943 N   0  0  0  0  0  0  0  0  0  0  0  0
   -6.3786  -71.9109  -19.4581 C   0  0  0  0  0  0  0  0  0  0  0  0
   -5.3256  -72.7647  -19.0955 C   0  0  0  0  0  0  0  0  0  0  0  0
   -3.9895  -72.3566  -19.1882 C   0  0  0  0  0  0  0  0  0  0  0  0
   -3.6737  -71.0864  -19.6740 C   0  0  0  0  0  0  0  0  0  0  0  0
   -2.2992  -70.6498  -19.9031 C   0  0  0  0  0  0  0  0  0  0  0  0
   -1.1783  -71.4570  -19.9118 C   0  0  0  0  0  0  0  0  0  0  0  0
    0.2051  -70.5347  -20.3574 S   0  0  0  0  0  0  0  0  0  0  0  0
   -0.7845  -69.1438  -20.5036 C   0  0  0  0  0  0  0  0  0  0  0  0
   -0.3187  -67.9555  -20.9030 N   0  0  0  0  0  0  0  0  0  0  0  0
   -2.0428  -69.3269  -20.1978 N   0  0  0  0  0  0  0  0  0  0  0  0
   -4.7291  -70.2217  -20.0104 C   0  0  0  0  0  0  0  0  0  0  0  0
   -6.0639  -70.6317  -19.9154 C   0  0  0  0  0  0  0  0  0  0  0  0
   -9.5530  -71.4450  -20.7385 C   0  0  0  0  0  0  0  0  0  0  0  0
  1  2  1  0
  2  3  1  0
  2  4  1  0
  4  5  1  0
  2  6  1  0
  6  7  1  0
  7  8  2  0
  7  9  1  0
  9 10  2  0
 10 11  1  0
 11 12  2  0
 12 13  1  0
 13 14  1  0
 14 15  1  0
 15 16  2  0
 16 17  1  0
 17 18  2  0
 18 19  1  0
 19 20  2  0
 20 21  1  0
 21 22  1  0
 22 23  1  0
 22 24  2  0
 18 25  1  0
 25 26  2  0
 13 27  2  0
 27  9  1  0
 26 15  1  0
 24 19  1  0
M  END
>  <fragmenstein_runtime>  (279) 
8.085865

>  <original ID>  (279) 
MLFVYAAZYPOSSA-UHFFFAOYSA-N

>  <fragmenstein_error>  (279) 
None

>  <ref_pdb>  (279) 
d0248a

>  <Multi-SuCOS>  (279) 
0.868829

>  <SLURM_JOB_NAME>  (279) 
BulkDock.place:Flavi_NS5_RdRp:thumb_site_2_fstein_bulkdock_input_split1000_batch000

>  <HIPPO Compound ID>  (279) 
68641

>  <original SMILES>  (279) 
CC(C)(CO)NC(=O)c1cccc(Nc2ccc(-c3csc(N)n3)cc2)c1

>  <name>  (279) 
MLFVYAAZYPOSSA-UHFFFAOYSA-N

>  <HIPPO Pose ID>  (279) 
77587

>  <ref_mols>  (279) 
d0162a,d0248a

>  <exports>  (279) 
['/opt/xchem-fragalysis-2/maxwin/BulkDock/OUTPUTS/thumb_site_2_fstein_bulkdock_input_split1000_batch000_217914.sdf', '/opt/xchem-fragalysis-2/maxwin/BulkDock/OUTPUTS/thumb_site_2_fstein_bulkdock_input_split1000_batch000_217914_fragalysis.sdf', '/opt/xchem-fragalysis-2/maxwin/RdRp_FFF/syndirella/Retro_OK_batch1.sdf']

>  <alias>  (279) 
None

>  <inchikey>  (279) 
MLFVYAAZYPOSSA-UHFFFAOYSA-N

>  <energy_score>  (279) 
-83.307972

>  <distance_score>  (279) 
0.427249

>  <fragmenstein_outcome>  (279) 
acceptable

>  <merge_set>  (279) 
thumb_site_2_fstein_bulkdock_input

>  <scratch_subdir>  (279) 
/opt/xchem-fragalysis-2/maxwin/BulkDock/SCRATCH/217914/C68641-P22

>  <SLURM_JOB_ID>  (279) 
217914

>  <tags>  (279) 
['Fragmenstein placed', 'thumb_site_2_fstein_bulkdock_input Pose OK']

>  <fragmenstein_mode>  (279) 
expansion

>  <csv_name>  (279) 
thumb_site_2_fstein_bulkdock_input_split1000_batch000.csv

$$$$
GJMVTWFDMFYHEH-UHFFFAOYSA-N
     RDKit          3D

 19 21  0  0  0  0  0  0  0  0999 V2000
   -0.2108  -67.8851  -20.8029 N   0  0  0  0  0  0  0  0  0  0  0  0
   -0.6686  -69.0851  -20.4291 C   0  0  0  0  0  0  0  0  0  0  0  0
   -1.9133  -69.2675  -20.0766 N   0  0  0  0  0  0  0  0  0  0  0  0
   -2.1708  -70.5960  -19.8018 C   0  0  0  0  0  0  0  0  0  0  0  0
   -3.5339  -71.0013  -19.4802 C   0  0  0  0  0  0  0  0  0  0  0  0
   -3.8578  -72.2256  -18.8886 C   0  0  0  0  0  0  0  0  0  0  0  0
   -5.1950  -72.5439  -18.6010 C   0  0  0  0  0  0  0  0  0  0  0  0
   -6.2338  -71.6596  -18.9194 C   0  0  0  0  0  0  0  0  0  0  0  0
   -7.5660  -71.9609  -18.5427 N   0  0  0  0  0  0  0  0  0  0  0  0
   -8.7277  -71.4017  -19.1270 C   0  0  0  0  0  0  0  0  0  0  0  0
   -9.8301  -71.1252  -18.3151 C   0  0  0  0  0  0  0  0  0  0  0  0
  -11.0117  -70.6292  -18.8697 C   0  0  0  0  0  0  0  0  0  0  0  0
  -11.1104  -70.4328  -20.2462 C   0  0  0  0  0  0  0  0  0  0  0  0
  -10.0335  -70.7456  -21.0702 C   0  0  0  0  0  0  0  0  0  0  0  0
   -8.8578  -71.2470  -20.5115 C   0  0  0  0  0  0  0  0  0  0  0  0
   -5.8967  -70.4210  -19.4689 C   0  0  0  0  0  0  0  0  0  0  0  0
   -4.5722  -70.1030  -19.7603 C   0  0  0  0  0  0  0  0  0  0  0  0
   -1.0663  -71.4178  -19.8921 C   0  0  0  0  0  0  0  0  0  0  0  0
    0.3060  -70.4948  -20.3776 S   0  0  0  0  0  0  0  0  0  0  0  0
  1  2  1  0
  2  3  2  0
  3  4  1  0
  4  5  1  0
  5  6  2  0
  6  7  1  0
  7  8  2  0
  8  9  1  0
  9 10  1  0
 10 11  2  0
 11 12  1  0
 12 13  2  0
 13 14  1  0
 14 15  2  0
  8 16  1  0
 16 17  2  0
  4 18  2  0
 18 19  1  0
 19  2  1  0
 17  5  1  0
 15 10  1  0
M  END
>  <fragmenstein_runtime>  (280) 
2.838236

>  <original ID>  (280) 
GJMVTWFDMFYHEH-UHFFFAOYSA-N

>  <fragmenstein_error>  (280) 
None

>  <ref_pdb>  (280) 
d0162a

>  <Multi-SuCOS>  (280) 
0.902066

>  <SLURM_JOB_NAME>  (280) 
BulkDock.place:Flavi_NS5_RdRp:thumb_site_2_fstein_bulkdock_input_split1000_batch000

>  <HIPPO Compound ID>  (280) 
68642

>  <original SMILES>  (280) 
Nc1nc(-c2ccc(Nc3ccccc3)cc2)cs1

>  <name>  (280) 
GJMVTWFDMFYHEH-UHFFFAOYSA-N

>  <HIPPO Pose ID>  (280) 
77590

>  <ref_mols>  (280) 
d0162a,d0249a

>  <exports>  (280) 
['/opt/xchem-fragalysis-2/maxwin/BulkDock/OUTPUTS/thumb_site_2_fstein_bulkdock_input_split1000_batch000_217914.sdf', '/opt/xchem-fragalysis-2/maxwin/BulkDock/OUTPUTS/thumb_site_2_fstein_bulkdock_input_split1000_batch000_217914_fragalysis.sdf', '/opt/xchem-fragalysis-2/maxwin/RdRp_FFF/syndirella/Retro_OK_batch1.sdf']

>  <alias>  (280) 
None

>  <inchikey>  (280) 
GJMVTWFDMFYHEH-UHFFFAOYSA-N

>  <energy_score>  (280) 
-72.33141

>  <distance_score>  (280) 
0.482836

>  <fragmenstein_outcome>  (280) 
acceptable

>  <merge_set>  (280) 
thumb_site_2_fstein_bulkdock_input

>  <scratch_subdir>  (280) 
/opt/xchem-fragalysis-2/maxwin/BulkDock/SCRATCH/217914/C68642-P15

>  <SLURM_JOB_ID>  (280) 
217914

>  <tags>  (280) 
['Fragmenstein placed', 'thumb_site_2_fstein_bulkdock_input Pose OK']

>  <fragmenstein_mode>  (280) 
expansion

>  <csv_name>  (280) 
thumb_site_2_fstein_bulkdock_input_split1000_batch000.csv

$$$$
GJMVTWFDMFYHEH-UHFFFAOYSA-N
     RDKit          3D

 19 21  0  0  0  0  0  0  0  0999 V2000
   -0.1649  -67.8974  -20.7970 N   0  0  0  0  0  0  0  0  0  0  0  0
   -0.6238  -69.1012  -20.4402 C   0  0  0  0  0  0  0  0  0  0  0  0
   -1.8724  -69.2812  -20.1058 N   0  0  0  0  0  0  0  0  0  0  0  0
   -2.1371  -70.6068  -19.8335 C   0  0  0  0  0  0  0  0  0  0  0  0
   -3.5055  -70.9992  -19.5242 C   0  0  0  0  0  0  0  0  0  0  0  0
   -3.8524  -72.2413  -18.9864 C   0  0  0  0  0  0  0  0  0  0  0  0
   -5.1960  -72.5475  -18.7216 C   0  0  0  0  0  0  0  0  0  0  0  0
   -6.2164  -71.6323  -19.0111 C   0  0  0  0  0  0  0  0  0  0  0  0
   -7.5583  -71.9363  -18.6820 N   0  0  0  0  0  0  0  0  0  0  0  0
   -8.7052  -71.3689  -19.2879 C   0  0  0  0  0  0  0  0  0  0  0  0
   -9.8551  -71.1976  -18.5120 C   0  0  0  0  0  0  0  0  0  0  0  0
  -11.0292  -70.7057  -19.0834 C   0  0  0  0  0  0  0  0  0  0  0  0
  -11.0723  -70.4077  -20.4437 C   0  0  0  0  0  0  0  0  0  0  0  0
   -9.9434  -70.6046  -21.2344 C   0  0  0  0  0  0  0  0  0  0  0  0
   -8.7712  -71.0970  -20.6608 C   0  0  0  0  0  0  0  0  0  0  0  0
   -5.8558  -70.3741  -19.4964 C   0  0  0  0  0  0  0  0  0  0  0  0
   -4.5256  -70.0684  -19.7664 C   0  0  0  0  0  0  0  0  0  0  0  0
   -1.0355  -71.4332  -19.9157 C   0  0  0  0  0  0  0  0  0  0  0  0
    0.3453  -70.5133  -20.3852 S   0  0  0  0  0  0  0  0  0  0  0  0
  1  2  1  0
  2  3  2  0
  3  4  1  0
  4  5  1  0
  5  6  2  0
  6  7  1  0
  7  8  2  0
  8  9  1  0
  9 10  1  0
 10 11  2  0
 11 12  1  0
 12 13  2  0
 13 14  1  0
 14 15  2  0
  8 16  1  0
 16 17  2  0
  4 18  2  0
 18 19  1  0
 19  2  1  0
 17  5  1  0
 15 10  1  0
M  END
>  <fragmenstein_runtime>  (281) 
3.021577

>  <original ID>  (281) 
GJMVTWFDMFYHEH-UHFFFAOYSA-N

>  <fragmenstein_error>  (281) 
None

>  <ref_pdb>  (281) 
d0249a

>  <Multi-SuCOS>  (281) 
0.922697

>  <SLURM_JOB_NAME>  (281) 
BulkDock.place:Flavi_NS5_RdRp:thumb_site_2_fstein_bulkdock_input_split1000_batch000

>  <HIPPO Compound ID>  (281) 
68642

>  <original SMILES>  (281) 
Nc1nc(-c2ccc(Nc3ccccc3)cc2)cs1

>  <name>  (281) 
GJMVTWFDMFYHEH-UHFFFAOYSA-N

>  <HIPPO Pose ID>  (281) 
77593

>  <ref_mols>  (281) 
d0162a,d0249a

>  <exports>  (281) 
['/opt/xchem-fragalysis-2/maxwin/BulkDock/OUTPUTS/thumb_site_2_fstein_bulkdock_input_split1000_batch000_217914.sdf', '/opt/xchem-fragalysis-2/maxwin/BulkDock/OUTPUTS/thumb_site_2_fstein_bulkdock_input_split1000_batch000_217914_fragalysis.sdf', '/opt/xchem-fragalysis-2/maxwin/RdRp_FFF/syndirella/Retro_OK_batch1.sdf']

>  <alias>  (281) 
None

>  <inchikey>  (281) 
GJMVTWFDMFYHEH-UHFFFAOYSA-N

>  <energy_score>  (281) 
-72.27355

>  <distance_score>  (281) 
0.441985

>  <fragmenstein_outcome>  (281) 
acceptable

>  <merge_set>  (281) 
thumb_site_2_fstein_bulkdock_input

>  <scratch_subdir>  (281) 
/opt/xchem-fragalysis-2/maxwin/BulkDock/SCRATCH/217914/C68642-P23

>  <SLURM_JOB_ID>  (281) 
217914

>  <tags>  (281) 
['Fragmenstein placed', 'thumb_site_2_fstein_bulkdock_input Pose OK']

>  <fragmenstein_mode>  (281) 
expansion

>  <csv_name>  (281) 
thumb_site_2_fstein_bulkdock_input_split1000_batch000.csv

$$$$
KSQGPIONHDAEBN-UHFFFAOYSA-N
     RDKit          3D

 21 23  0  0  0  0  0  0  0  0999 V2000
   -7.8110  -73.9105  -19.8160 C   0  0  0  0  0  0  0  0  0  0  0  0
   -7.7203  -72.5511  -19.0649 C   0  0  0  0  0  0  0  0  0  0  0  0
   -7.9505  -72.8518  -17.5666 C   0  0  0  0  0  0  0  0  0  0  0  0
   -6.2904  -71.9772  -19.2045 C   0  0  0  0  0  0  0  0  0  0  0  0
   -5.1775  -72.7746  -18.8645 C   0  0  0  0  0  0  0  0  0  0  0  0
   -3.8625  -72.3258  -19.0319 C   0  0  0  0  0  0  0  0  0  0  0  0
   -3.6082  -71.0564  -19.5487 C   0  0  0  0  0  0  0  0  0  0  0  0
   -2.2549  -70.5856  -19.8360 C   0  0  0  0  0  0  0  0  0  0  0  0
   -1.1216  -71.3747  -19.8851 C   0  0  0  0  0  0  0  0  0  0  0  0
    0.2338  -70.4311  -20.3620 S   0  0  0  0  0  0  0  0  0  0  0  0
   -0.7792  -69.0526  -20.4699 C   0  0  0  0  0  0  0  0  0  0  0  0
   -0.3262  -67.8556  -20.8635 N   0  0  0  0  0  0  0  0  0  0  0  0
   -2.0294  -69.2567  -20.1389 N   0  0  0  0  0  0  0  0  0  0  0  0
   -4.7060  -70.2307  -19.8327 C   0  0  0  0  0  0  0  0  0  0  0  0
   -6.0250  -70.6805  -19.6632 C   0  0  0  0  0  0  0  0  0  0  0  0
   -8.8442  -71.6704  -19.6586 C   0  0  0  0  0  0  0  0  0  0  0  0
   -9.8283  -71.0712  -18.8865 C   0  0  0  0  0  0  0  0  0  0  0  0
  -10.8198  -70.3827  -19.5550 C   0  0  0  0  0  0  0  0  0  0  0  0
  -10.8645  -70.2460  -20.8882 N   0  0  0  0  0  0  0  0  0  0  0  0
   -9.8679  -70.8367  -21.5546 C   0  0  0  0  0  0  0  0  0  0  0  0
   -8.8667  -71.5454  -21.0074 N   0  0  0  0  0  0  0  0  0  0  0  0
  1  2  1  0
  2  3  1  0
  2  4  1  0
  4  5  2  0
  5  6  1  0
  6  7  2  0
  7  8  1  0
  8  9  2  0
  9 10  1  0
 10 11  1  0
 11 12  1  0
 11 13  2  0
  7 14  1  0
 14 15  2  0
  2 16  1  0
 16 17  2  0
 17 18  1  0
 18 19  2  0
 19 20  1  0
 20 21  2  0
 15  4  1  0
 21 16  1  0
 13  8  1  0
M  END
>  <fragmenstein_runtime>  (282) 
2.682051

>  <original ID>  (282) 
KSQGPIONHDAEBN-UHFFFAOYSA-N

>  <fragmenstein_error>  (282) 
None

>  <ref_pdb>  (282) 
d0162a

>  <Multi-SuCOS>  (282) 
0.818668

>  <SLURM_JOB_NAME>  (282) 
BulkDock.place:Flavi_NS5_RdRp:thumb_site_2_fstein_bulkdock_input_split1000_batch000

>  <HIPPO Compound ID>  (282) 
68652

>  <original SMILES>  (282) 
CC(C)(c1ccc(-c2csc(N)n2)cc1)c1ccncn1

>  <name>  (282) 
KSQGPIONHDAEBN-UHFFFAOYSA-N

>  <HIPPO Pose ID>  (282) 
77637

>  <ref_mols>  (282) 
d0162a,d0587a

>  <exports>  (282) 
['/opt/xchem-fragalysis-2/maxwin/BulkDock/OUTPUTS/thumb_site_2_fstein_bulkdock_input_split1000_batch000_217914.sdf', '/opt/xchem-fragalysis-2/maxwin/BulkDock/OUTPUTS/thumb_site_2_fstein_bulkdock_input_split1000_batch000_217914_fragalysis.sdf', '/opt/xchem-fragalysis-2/maxwin/RdRp_FFF/syndirella/Retro_OK_batch1.sdf']

>  <alias>  (282) 
None

>  <inchikey>  (282) 
KSQGPIONHDAEBN-UHFFFAOYSA-N

>  <energy_score>  (282) 
-64.726353

>  <distance_score>  (282) 
0.506309

>  <fragmenstein_outcome>  (282) 
acceptable

>  <merge_set>  (282) 
thumb_site_2_fstein_bulkdock_input

>  <scratch_subdir>  (282) 
/opt/xchem-fragalysis-2/maxwin/BulkDock/SCRATCH/217914/C68652-P15

>  <SLURM_JOB_ID>  (282) 
217914

>  <tags>  (282) 
['Fragmenstein placed', 'thumb_site_2_fstein_bulkdock_input Pose OK']

>  <fragmenstein_mode>  (282) 
expansion

>  <csv_name>  (282) 
thumb_site_2_fstein_bulkdock_input_split1000_batch000.csv

$$$$
KSQGPIONHDAEBN-UHFFFAOYSA-N
     RDKit          3D

 21 23  0  0  0  0  0  0  0  0999 V2000
   -7.8640  -73.9271  -19.8286 C   0  0  0  0  0  0  0  0  0  0  0  0
   -7.7724  -72.5433  -19.1280 C   0  0  0  0  0  0  0  0  0  0  0  0
   -8.0086  -72.7790  -17.6201 C   0  0  0  0  0  0  0  0  0  0  0  0
   -6.3466  -71.9642  -19.2678 C   0  0  0  0  0  0  0  0  0  0  0  0
   -5.2216  -72.7563  -18.9592 C   0  0  0  0  0  0  0  0  0  0  0  0
   -3.9170  -72.2747  -19.1102 C   0  0  0  0  0  0  0  0  0  0  0  0
   -3.6963  -70.9790  -19.5733 C   0  0  0  0  0  0  0  0  0  0  0  0
   -2.3647  -70.4479  -19.8295 C   0  0  0  0  0  0  0  0  0  0  0  0
   -1.1996  -71.1823  -19.9289 C   0  0  0  0  0  0  0  0  0  0  0  0
    0.1005  -70.1486  -20.3749 S   0  0  0  0  0  0  0  0  0  0  0  0
   -0.9803  -68.8168  -20.3999 C   0  0  0  0  0  0  0  0  0  0  0  0
   -0.6199  -67.5770  -20.7470 N   0  0  0  0  0  0  0  0  0  0  0  0
   -2.2077  -69.0972  -20.0550 N   0  0  0  0  0  0  0  0  0  0  0  0
   -4.8080  -70.1651  -19.8329 C   0  0  0  0  0  0  0  0  0  0  0  0
   -6.1104  -70.6457  -19.6792 C   0  0  0  0  0  0  0  0  0  0  0  0
   -8.8739  -71.6762  -19.7791 C   0  0  0  0  0  0  0  0  0  0  0  0
   -9.9003  -71.0859  -19.0580 C   0  0  0  0  0  0  0  0  0  0  0  0
  -10.8323  -70.3641  -19.7739 C   0  0  0  0  0  0  0  0  0  0  0  0
  -10.7854  -70.1958  -21.1045 N   0  0  0  0  0  0  0  0  0  0  0  0
   -9.7543  -70.7854  -21.7195 C   0  0  0  0  0  0  0  0  0  0  0  0
   -8.8041  -71.5238  -21.1256 N   0  0  0  0  0  0  0  0  0  0  0  0
  1  2  1  0
  2  3  1  0
  2  4  1  0
  4  5  2  0
  5  6  1  0
  6  7  2  0
  7  8  1  0
  8  9  2  0
  9 10  1  0
 10 11  1  0
 11 12  1  0
 11 13  2  0
  7 14  1  0
 14 15  2  0
  2 16  1  0
 16 17  2  0
 17 18  1  0
 18 19  2  0
 19 20  1  0
 20 21  2  0
 15  4  1  0
 21 16  1  0
 13  8  1  0
M  END
>  <fragmenstein_runtime>  (283) 
2.930734

>  <original ID>  (283) 
KSQGPIONHDAEBN-UHFFFAOYSA-N

>  <fragmenstein_error>  (283) 
None

>  <ref_pdb>  (283) 
d0587a

>  <Multi-SuCOS>  (283) 
0.786649

>  <SLURM_JOB_NAME>  (283) 
BulkDock.place:Flavi_NS5_RdRp:thumb_site_2_fstein_bulkdock_input_split1000_batch000

>  <HIPPO Compound ID>  (283) 
68652

>  <original SMILES>  (283) 
CC(C)(c1ccc(-c2csc(N)n2)cc1)c1ccncn1

>  <name>  (283) 
KSQGPIONHDAEBN-UHFFFAOYSA-N

>  <HIPPO Pose ID>  (283) 
77638

>  <ref_mols>  (283) 
d0162a,d0587a

>  <exports>  (283) 
['/opt/xchem-fragalysis-2/maxwin/BulkDock/OUTPUTS/thumb_site_2_fstein_bulkdock_input_split1000_batch000_217914.sdf', '/opt/xchem-fragalysis-2/maxwin/BulkDock/OUTPUTS/thumb_site_2_fstein_bulkdock_input_split1000_batch000_217914_fragalysis.sdf', '/opt/xchem-fragalysis-2/maxwin/RdRp_FFF/syndirella/Retro_OK_batch1.sdf']

>  <alias>  (283) 
None

>  <inchikey>  (283) 
KSQGPIONHDAEBN-UHFFFAOYSA-N

>  <energy_score>  (283) 
-63.527725

>  <distance_score>  (283) 
0.550933

>  <fragmenstein_outcome>  (283) 
acceptable

>  <merge_set>  (283) 
thumb_site_2_fstein_bulkdock_input

>  <scratch_subdir>  (283) 
/opt/xchem-fragalysis-2/maxwin/BulkDock/SCRATCH/217914/C68652-P48

>  <SLURM_JOB_ID>  (283) 
217914

>  <tags>  (283) 
['Fragmenstein placed', 'thumb_site_2_fstein_bulkdock_input Pose OK']

>  <fragmenstein_mode>  (283) 
expansion

>  <csv_name>  (283) 
thumb_site_2_fstein_bulkdock_input_split1000_batch000.csv

$$$$
MQVROZJOLUQYFG-UHFFFAOYSA-N
     RDKit          3D

 28 31  0  0  0  0  0  0  0  0999 V2000
  -12.4673  -69.3870  -24.5450 N   0  0  0  0  0  0  0  0  0  0  0  0
  -12.4574  -69.7438  -23.2496 C   0  0  0  0  0  0  0  0  0  0  0  0
  -11.3766  -70.1879  -22.6698 N   0  0  0  0  0  0  0  0  0  0  0  0
  -11.6028  -70.4149  -21.3222 C   0  0  0  0  0  0  0  0  0  0  0  0
  -10.5140  -70.9102  -20.4943 C   0  0  0  0  0  0  0  0  0  0  0  0
   -9.4197  -71.4983  -21.1368 C   0  0  0  0  0  0  0  0  0  0  0  0
   -8.3247  -71.9756  -20.4197 C   0  0  0  0  0  0  0  0  0  0  0  0
   -8.2684  -71.8462  -19.0350 C   0  0  0  0  0  0  0  0  0  0  0  0
   -7.1577  -72.2334  -18.2725 N   0  0  0  0  0  0  0  0  0  0  0  0
   -7.3176  -73.6352  -17.7833 C   0  0  0  0  0  0  0  0  0  0  0  0
   -6.1976  -74.0908  -16.8047 C   0  0  0  0  0  0  0  0  0  0  0  0
   -5.1265  -74.4059  -17.1777 O   0  0  0  0  0  0  0  0  0  0  0  0
   -6.7540  -73.9804  -15.3960 N   0  0  0  0  0  0  0  0  0  0  0  0
   -7.3827  -75.3012  -14.9437 C   0  0  0  0  0  0  0  0  0  0  0  0
   -8.4544  -75.2003  -13.8464 C   0  0  0  0  0  0  0  0  0  0  0  0
   -7.8392  -74.9060  -12.5992 O   0  0  0  0  0  0  0  0  0  0  0  0
   -6.9191  -73.8378  -12.8073 C   0  0  0  0  0  0  0  0  0  0  0  0
   -6.0722  -74.1418  -14.0481 C   0  0  0  0  0  0  0  0  0  0  0  0
   -5.7942  -71.8189  -18.7075 C   0  0  0  0  0  0  0  0  0  0  0  0
   -5.6968  -70.3444  -19.1657 C   0  0  0  0  0  0  0  0  0  0  0  0
   -4.3864  -70.0470  -19.9053 C   0  0  0  0  0  0  0  0  0  0  0  0
   -3.2511  -70.9580  -19.4621 C   0  0  0  0  0  0  0  0  0  0  0  0
   -3.5835  -72.4325  -19.7172 C   0  0  0  0  0  0  0  0  0  0  0  0
   -5.0922  -72.7199  -19.7283 C   0  0  0  0  0  0  0  0  0  0  0  0
   -9.3832  -71.2905  -18.3853 C   0  0  0  0  0  0  0  0  0  0  0  0
  -10.4960  -70.8238  -19.1021 C   0  0  0  0  0  0  0  0  0  0  0  0
  -12.8851  -70.1323  -20.8981 C   0  0  0  0  0  0  0  0  0  0  0  0
  -13.8167  -69.5552  -22.2231 S   0  0  0  0  0  0  0  0  0  0  0  0
  1  2  1  0
  2  3  2  0
  3  4  1  0
  4  5  1  0
  5  6  2  0
  6  7  1  0
  7  8  2  0
  8  9  1  0
  9 10  1  0
 10 11  1  0
 11 12  2  0
 11 13  1  0
 13 14  1  0
 14 15  1  0
 15 16  1  0
 16 17  1  0
 17 18  1  0
  9 19  1  0
 19 20  1  0
 20 21  1  0
 21 22  1  0
 22 23  1  0
 23 24  1  0
  8 25  1  0
 25 26  2  0
  4 27  2  0
 27 28  1  0
 28  2  1  0
 26  5  1  0
 18 13  1  0
 24 19  1  0
M  END
>  <fragmenstein_runtime>  (284) 
31.356249

>  <original ID>  (284) 
MQVROZJOLUQYFG-UHFFFAOYSA-N

>  <fragmenstein_error>  (284) 
None

>  <ref_pdb>  (284) 
d0162a

>  <Multi-SuCOS>  (284) 
0.497854

>  <SLURM_JOB_NAME>  (284) 
BulkDock.place:Flavi_NS5_RdRp:thumb_site_2_fstein_bulkdock_input_split1000_batch000

>  <HIPPO Compound ID>  (284) 
68657

>  <original SMILES>  (284) 
Nc1nc(-c2ccc(N(CC(=O)N3CCOCC3)C3CCCCC3)cc2)cs1

>  <name>  (284) 
MQVROZJOLUQYFG-UHFFFAOYSA-N

>  <HIPPO Pose ID>  (284) 
77655

>  <ref_mols>  (284) 
d0162a,d0771a

>  <exports>  (284) 
['/opt/xchem-fragalysis-2/maxwin/BulkDock/OUTPUTS/thumb_site_2_fstein_bulkdock_input_split1000_batch000_217914.sdf', '/opt/xchem-fragalysis-2/maxwin/BulkDock/OUTPUTS/thumb_site_2_fstein_bulkdock_input_split1000_batch000_217914_fragalysis.sdf', '/opt/xchem-fragalysis-2/maxwin/RdRp_FFF/syndirella/Retro_OK_batch1.sdf']

>  <alias>  (284) 
None

>  <inchikey>  (284) 
MQVROZJOLUQYFG-UHFFFAOYSA-N

>  <energy_score>  (284) 
-167.191929

>  <distance_score>  (284) 
0.883148

>  <fragmenstein_outcome>  (284) 
acceptable

>  <merge_set>  (284) 
thumb_site_2_fstein_bulkdock_input

>  <scratch_subdir>  (284) 
/opt/xchem-fragalysis-2/maxwin/BulkDock/SCRATCH/217914/C68657-P15

>  <SLURM_JOB_ID>  (284) 
217914

>  <tags>  (284) 
['Fragmenstein placed', 'thumb_site_2_fstein_bulkdock_input Pose OK']

>  <fragmenstein_mode>  (284) 
expansion

>  <csv_name>  (284) 
thumb_site_2_fstein_bulkdock_input_split1000_batch000.csv

$$$$
MQVROZJOLUQYFG-UHFFFAOYSA-N
     RDKit          3D

 28 31  0  0  0  0  0  0  0  0999 V2000
  -12.5816  -69.2531  -24.8395 N   0  0  0  0  0  0  0  0  0  0  0  0
  -12.5467  -69.6293  -23.5504 C   0  0  0  0  0  0  0  0  0  0  0  0
  -11.4381  -70.0069  -22.9731 N   0  0  0  0  0  0  0  0  0  0  0  0
  -11.6605  -70.3069  -21.6400 C   0  0  0  0  0  0  0  0  0  0  0  0
  -10.5673  -70.8151  -20.8258 C   0  0  0  0  0  0  0  0  0  0  0  0
   -9.5131  -71.4661  -21.4754 C   0  0  0  0  0  0  0  0  0  0  0  0
   -8.4645  -72.0275  -20.7540 C   0  0  0  0  0  0  0  0  0  0  0  0
   -8.4017  -71.9041  -19.3645 C   0  0  0  0  0  0  0  0  0  0  0  0
   -7.2875  -72.4599  -18.7038 N   0  0  0  0  0  0  0  0  0  0  0  0
   -7.6989  -73.2124  -17.4899 C   0  0  0  0  0  0  0  0  0  0  0  0
   -6.7753  -74.3997  -17.1215 C   0  0  0  0  0  0  0  0  0  0  0  0
   -6.2262  -75.0922  -17.8984 O   0  0  0  0  0  0  0  0  0  0  0  0
   -6.7043  -74.3764  -15.5972 N   0  0  0  0  0  0  0  0  0  0  0  0
   -7.7630  -75.2942  -14.9798 C   0  0  0  0  0  0  0  0  0  0  0  0
   -8.1985  -74.9469  -13.5509 C   0  0  0  0  0  0  0  0  0  0  0  0
   -7.1714  -75.2927  -12.6349 O   0  0  0  0  0  0  0  0  0  0  0  0
   -5.9478  -74.7778  -13.1514 C   0  0  0  0  0  0  0  0  0  0  0  0
   -5.8323  -75.1649  -14.6372 C   0  0  0  0  0  0  0  0  0  0  0  0
   -6.0969  -71.5529  -18.5823 C   0  0  0  0  0  0  0  0  0  0  0  0
   -5.9200  -70.5788  -19.7718 C   0  0  0  0  0  0  0  0  0  0  0  0
   -4.6598  -69.7268  -19.6656 C   0  0  0  0  0  0  0  0  0  0  0  0
   -3.4202  -70.5997  -19.5702 C   0  0  0  0  0  0  0  0  0  0  0  0
   -3.5304  -71.5512  -18.3922 C   0  0  0  0  0  0  0  0  0  0  0  0
   -4.8065  -72.3866  -18.4350 C   0  0  0  0  0  0  0  0  0  0  0  0
   -9.4442  -71.2260  -18.7132 C   0  0  0  0  0  0  0  0  0  0  0  0
  -10.5264  -70.6984  -19.4341 C   0  0  0  0  0  0  0  0  0  0  0  0
  -12.9593  -70.1140  -21.2146 C   0  0  0  0  0  0  0  0  0  0  0  0
  -13.9205  -69.5600  -22.5276 S   0  0  0  0  0  0  0  0  0  0  0  0
  1  2  1  0
  2  3  2  0
  3  4  1  0
  4  5  1  0
  5  6  2  0
  6  7  1  0
  7  8  2  0
  8  9  1  0
  9 10  1  0
 10 11  1  0
 11 12  2  0
 11 13  1  0
 13 14  1  0
 14 15  1  0
 15 16  1  0
 16 17  1  0
 17 18  1  0
  9 19  1  0
 19 20  1  0
 20 21  1  0
 21 22  1  0
 22 23  1  0
 23 24  1  0
  8 25  1  0
 25 26  2  0
  4 27  2  0
 27 28  1  0
 28  2  1  0
 26  5  1  0
 18 13  1  0
 24 19  1  0
M  END
>  <fragmenstein_runtime>  (285) 
31.647022

>  <original ID>  (285) 
MQVROZJOLUQYFG-UHFFFAOYSA-N

>  <fragmenstein_error>  (285) 
None

>  <ref_pdb>  (285) 
d0771a

>  <Multi-SuCOS>  (285) 
0.451995

>  <SLURM_JOB_NAME>  (285) 
BulkDock.place:Flavi_NS5_RdRp:thumb_site_2_fstein_bulkdock_input_split1000_batch000

>  <HIPPO Compound ID>  (285) 
68657

>  <original SMILES>  (285) 
Nc1nc(-c2ccc(N(CC(=O)N3CCOCC3)C3CCCCC3)cc2)cs1

>  <name>  (285) 
MQVROZJOLUQYFG-UHFFFAOYSA-N

>  <HIPPO Pose ID>  (285) 
77664

>  <ref_mols>  (285) 
d0162a,d0771a

>  <exports>  (285) 
['/opt/xchem-fragalysis-2/maxwin/BulkDock/OUTPUTS/thumb_site_2_fstein_bulkdock_input_split1000_batch000_217914.sdf', '/opt/xchem-fragalysis-2/maxwin/BulkDock/OUTPUTS/thumb_site_2_fstein_bulkdock_input_split1000_batch000_217914_fragalysis.sdf', '/opt/xchem-fragalysis-2/maxwin/RdRp_FFF/syndirella/Retro_OK_batch1.sdf']

>  <alias>  (285) 
None

>  <inchikey>  (285) 
MQVROZJOLUQYFG-UHFFFAOYSA-N

>  <energy_score>  (285) 
-170.938928

>  <distance_score>  (285) 
0.869463

>  <fragmenstein_outcome>  (285) 
acceptable

>  <merge_set>  (285) 
thumb_site_2_fstein_bulkdock_input

>  <scratch_subdir>  (285) 
/opt/xchem-fragalysis-2/maxwin/BulkDock/SCRATCH/217914/C68657-P57

>  <SLURM_JOB_ID>  (285) 
217914

>  <tags>  (285) 
['Fragmenstein placed', 'thumb_site_2_fstein_bulkdock_input Pose OK']

>  <fragmenstein_mode>  (285) 
expansion

>  <csv_name>  (285) 
thumb_site_2_fstein_bulkdock_input_split1000_batch000.csv

$$$$
VPYKNYUMCPMOGH-UHFFFAOYSA-N
     RDKit          3D

 20 22  0  0  0  0  0  0  0  0999 V2000
   -0.3063  -67.8713  -20.8485 N   0  0  0  0  0  0  0  0  0  0  0  0
   -0.7588  -69.0657  -20.4460 C   0  0  0  0  0  0  0  0  0  0  0  0
   -2.0096  -69.2654  -20.1170 N   0  0  0  0  0  0  0  0  0  0  0  0
   -2.2378  -70.5900  -19.7975 C   0  0  0  0  0  0  0  0  0  0  0  0
   -3.5942  -71.0475  -19.5056 C   0  0  0  0  0  0  0  0  0  0  0  0
   -3.8654  -72.3072  -18.9698 C   0  0  0  0  0  0  0  0  0  0  0  0
   -5.1889  -72.7321  -18.7893 C   0  0  0  0  0  0  0  0  0  0  0  0
   -6.2853  -71.9242  -19.1448 C   0  0  0  0  0  0  0  0  0  0  0  0
   -7.6317  -72.4045  -19.0102 N   0  0  0  0  0  0  0  0  0  0  0  0
   -7.7613  -73.8239  -19.0437 N   0  0  0  0  0  0  0  0  0  0  0  0
   -8.7670  -71.7422  -19.5664 C   0  0  0  0  0  0  0  0  0  0  0  0
   -9.7420  -71.2063  -18.7165 C   0  0  0  0  0  0  0  0  0  0  0  0
  -10.8756  -70.5859  -19.2447 C   0  0  0  0  0  0  0  0  0  0  0  0
  -11.0416  -70.4927  -20.6262 C   0  0  0  0  0  0  0  0  0  0  0  0
  -10.0812  -71.0272  -21.4818 C   0  0  0  0  0  0  0  0  0  0  0  0
   -8.9574  -71.6629  -20.9523 C   0  0  0  0  0  0  0  0  0  0  0  0
   -6.0014  -70.6341  -19.6120 C   0  0  0  0  0  0  0  0  0  0  0  0
   -4.6790  -70.2065  -19.7955 C   0  0  0  0  0  0  0  0  0  0  0  0
   -1.1070  -71.3824  -19.8356 C   0  0  0  0  0  0  0  0  0  0  0  0
    0.2506  -70.4458  -20.3240 S   0  0  0  0  0  0  0  0  0  0  0  0
  1  2  1  0
  2  3  2  0
  3  4  1  0
  4  5  1  0
  5  6  2  0
  6  7  1  0
  7  8  2  0
  8  9  1  0
  9 10  1  0
  9 11  1  0
 11 12  2  0
 12 13  1  0
 13 14  2  0
 14 15  1  0
 15 16  2  0
  8 17  1  0
 17 18  2  0
  4 19  2  0
 19 20  1  0
 20  2  1  0
 18  5  1  0
 16 11  1  0
M  END
>  <fragmenstein_runtime>  (286) 
3.540234

>  <original ID>  (286) 
VPYKNYUMCPMOGH-UHFFFAOYSA-N

>  <fragmenstein_error>  (286) 
None

>  <ref_pdb>  (286) 
d0162a

>  <Multi-SuCOS>  (286) 
0.884515

>  <SLURM_JOB_NAME>  (286) 
BulkDock.place:Flavi_NS5_RdRp:thumb_site_2_fstein_bulkdock_input_split1000_batch000

>  <HIPPO Compound ID>  (286) 
68660

>  <original SMILES>  (286) 
Nc1nc(-c2ccc(N(N)c3ccccc3)cc2)cs1

>  <name>  (286) 
VPYKNYUMCPMOGH-UHFFFAOYSA-N

>  <HIPPO Pose ID>  (286) 
77672

>  <ref_mols>  (286) 
d0162a,d1149a

>  <exports>  (286) 
['/opt/xchem-fragalysis-2/maxwin/BulkDock/OUTPUTS/thumb_site_2_fstein_bulkdock_input_split1000_batch000_217914.sdf', '/opt/xchem-fragalysis-2/maxwin/BulkDock/OUTPUTS/thumb_site_2_fstein_bulkdock_input_split1000_batch000_217914_fragalysis.sdf', '/opt/xchem-fragalysis-2/maxwin/RdRp_FFF/syndirella/Retro_OK_batch1.sdf']

>  <alias>  (286) 
None

>  <inchikey>  (286) 
VPYKNYUMCPMOGH-UHFFFAOYSA-N

>  <energy_score>  (286) 
-70.145946

>  <distance_score>  (286) 
0.430746

>  <fragmenstein_outcome>  (286) 
acceptable

>  <merge_set>  (286) 
thumb_site_2_fstein_bulkdock_input

>  <scratch_subdir>  (286) 
/opt/xchem-fragalysis-2/maxwin/BulkDock/SCRATCH/217914/C68660-P15

>  <SLURM_JOB_ID>  (286) 
217914

>  <tags>  (286) 
['Fragmenstein placed', 'thumb_site_2_fstein_bulkdock_input Pose OK']

>  <fragmenstein_mode>  (286) 
expansion

>  <csv_name>  (286) 
thumb_site_2_fstein_bulkdock_input_split1000_batch000.csv

$$$$
VPYKNYUMCPMOGH-UHFFFAOYSA-N
     RDKit          3D

 20 22  0  0  0  0  0  0  0  0999 V2000
   -0.0770  -68.0490  -20.1634 N   0  0  0  0  0  0  0  0  0  0  0  0
   -0.6786  -69.2487  -20.1544 C   0  0  0  0  0  0  0  0  0  0  0  0
   -1.9191  -69.4230  -19.7708 N   0  0  0  0  0  0  0  0  0  0  0  0
   -2.2736  -70.7545  -19.8557 C   0  0  0  0  0  0  0  0  0  0  0  0
   -3.6331  -71.1937  -19.5652 C   0  0  0  0  0  0  0  0  0  0  0  0
   -3.9034  -72.4881  -19.1207 C   0  0  0  0  0  0  0  0  0  0  0  0
   -5.2242  -72.9170  -18.9416 C   0  0  0  0  0  0  0  0  0  0  0  0
   -6.3247  -72.0807  -19.2092 C   0  0  0  0  0  0  0  0  0  0  0  0
   -7.6714  -72.5676  -19.0788 N   0  0  0  0  0  0  0  0  0  0  0  0
   -7.7895  -73.9871  -19.0123 N   0  0  0  0  0  0  0  0  0  0  0  0
   -8.8476  -71.9541  -19.6111 C   0  0  0  0  0  0  0  0  0  0  0  0
  -10.0290  -71.9251  -18.8541 C   0  0  0  0  0  0  0  0  0  0  0  0
  -11.1956  -71.3464  -19.3632 C   0  0  0  0  0  0  0  0  0  0  0  0
  -11.2021  -70.8026  -20.6446 C   0  0  0  0  0  0  0  0  0  0  0  0
  -10.0516  -70.8607  -21.4236 C   0  0  0  0  0  0  0  0  0  0  0  0
   -8.8896  -71.4428  -20.9107 C   0  0  0  0  0  0  0  0  0  0  0  0
   -6.0336  -70.7562  -19.5683 C   0  0  0  0  0  0  0  0  0  0  0  0
   -4.7103  -70.3192  -19.7520 C   0  0  0  0  0  0  0  0  0  0  0  0
   -1.2596  -71.5905  -20.2830 C   0  0  0  0  0  0  0  0  0  0  0  0
    0.1481  -70.6747  -20.6290 S   0  0  0  0  0  0  0  0  0  0  0  0
  1  2  1  0
  2  3  2  0
  3  4  1  0
  4  5  1  0
  5  6  2  0
  6  7  1  0
  7  8  2  0
  8  9  1  0
  9 10  1  0
  9 11  1  0
 11 12  2  0
 12 13  1  0
 13 14  2  0
 14 15  1  0
 15 16  2  0
  8 17  1  0
 17 18  2  0
  4 19  2  0
 19 20  1  0
 20  2  1  0
 18  5  1  0
 16 11  1  0
M  END
>  <fragmenstein_runtime>  (287) 
3.552294

>  <original ID>  (287) 
VPYKNYUMCPMOGH-UHFFFAOYSA-N

>  <fragmenstein_error>  (287) 
None

>  <ref_pdb>  (287) 
d1149a

>  <Multi-SuCOS>  (287) 
0.816608

>  <SLURM_JOB_NAME>  (287) 
BulkDock.place:Flavi_NS5_RdRp:thumb_site_2_fstein_bulkdock_input_split1000_batch000

>  <HIPPO Compound ID>  (287) 
68660

>  <original SMILES>  (287) 
Nc1nc(-c2ccc(N(N)c3ccccc3)cc2)cs1

>  <name>  (287) 
VPYKNYUMCPMOGH-UHFFFAOYSA-N

>  <HIPPO Pose ID>  (287) 
77673

>  <ref_mols>  (287) 
d0162a,d1149a

>  <exports>  (287) 
['/opt/xchem-fragalysis-2/maxwin/BulkDock/OUTPUTS/thumb_site_2_fstein_bulkdock_input_split1000_batch000_217914.sdf', '/opt/xchem-fragalysis-2/maxwin/BulkDock/OUTPUTS/thumb_site_2_fstein_bulkdock_input_split1000_batch000_217914_fragalysis.sdf', '/opt/xchem-fragalysis-2/maxwin/RdRp_FFF/syndirella/Retro_OK_batch1.sdf']

>  <alias>  (287) 
None

>  <inchikey>  (287) 
VPYKNYUMCPMOGH-UHFFFAOYSA-N

>  <energy_score>  (287) 
-69.470096

>  <distance_score>  (287) 
0.540667

>  <fragmenstein_outcome>  (287) 
acceptable

>  <merge_set>  (287) 
thumb_site_2_fstein_bulkdock_input

>  <scratch_subdir>  (287) 
/opt/xchem-fragalysis-2/maxwin/BulkDock/SCRATCH/217914/C68660-P76

>  <SLURM_JOB_ID>  (287) 
217914

>  <tags>  (287) 
['Fragmenstein placed', 'thumb_site_2_fstein_bulkdock_input Pose OK']

>  <fragmenstein_mode>  (287) 
expansion

>  <csv_name>  (287) 
thumb_site_2_fstein_bulkdock_input_split1000_batch000.csv

$$$$
ZQNBUZXZLXTGKJ-UHFFFAOYSA-N
     RDKit          3D

 20 22  0  0  0  0  0  0  0  0999 V2000
  -12.2349  -70.1266  -21.8763 C   0  0  0  0  0  0  0  0  0  0  0  0
  -11.0466  -70.6006  -21.0930 C   0  0  0  0  0  0  0  0  0  0  0  0
  -11.1742  -70.8782  -19.7354 C   0  0  0  0  0  0  0  0  0  0  0  0
  -10.0644  -71.3388  -19.0306 C   0  0  0  0  0  0  0  0  0  0  0  0
   -8.8417  -71.4796  -19.6803 C   0  0  0  0  0  0  0  0  0  0  0  0
   -7.7335  -71.9911  -18.9720 N   0  0  0  0  0  0  0  0  0  0  0  0
   -6.3774  -71.6666  -19.2087 C   0  0  0  0  0  0  0  0  0  0  0  0
   -5.3649  -72.5716  -18.8598 C   0  0  0  0  0  0  0  0  0  0  0  0
   -4.0117  -72.2534  -19.0493 C   0  0  0  0  0  0  0  0  0  0  0  0
   -3.6509  -71.0077  -19.5660 C   0  0  0  0  0  0  0  0  0  0  0  0
   -2.2765  -70.6072  -19.8281 C   0  0  0  0  0  0  0  0  0  0  0  0
   -1.1672  -71.4241  -19.9009 C   0  0  0  0  0  0  0  0  0  0  0  0
    0.2082  -70.4895  -20.3636 S   0  0  0  0  0  0  0  0  0  0  0  0
   -0.7772  -69.0901  -20.4293 C   0  0  0  0  0  0  0  0  0  0  0  0
   -0.3502  -67.8859  -20.8121 N   0  0  0  0  0  0  0  0  0  0  0  0
   -2.0188  -69.2789  -20.0813 N   0  0  0  0  0  0  0  0  0  0  0  0
   -4.6653  -70.0823  -19.8540 C   0  0  0  0  0  0  0  0  0  0  0  0
   -6.0052  -70.4015  -19.6649 C   0  0  0  0  0  0  0  0  0  0  0  0
   -8.8253  -71.2113  -21.0494 C   0  0  0  0  0  0  0  0  0  0  0  0
   -9.8885  -70.7711  -21.7631 N   0  0  0  0  0  0  0  0  0  0  0  0
  1  2  1  0
  2  3  2  0
  3  4  1  0
  4  5  2  0
  5  6  1  0
  6  7  1  0
  7  8  2  0
  8  9  1  0
  9 10  2  0
 10 11  1  0
 11 12  2  0
 12 13  1  0
 13 14  1  0
 14 15  1  0
 14 16  2  0
 10 17  1  0
 17 18  2  0
  5 19  1  0
 19 20  2  0
 20  2  1  0
 18  7  1  0
 16 11  1  0
M  END
>  <fragmenstein_runtime>  (288) 
2.763059

>  <original ID>  (288) 
ZQNBUZXZLXTGKJ-UHFFFAOYSA-N

>  <fragmenstein_error>  (288) 
None

>  <ref_pdb>  (288) 
d1212a

>  <Multi-SuCOS>  (288) 
0.835666

>  <SLURM_JOB_NAME>  (288) 
BulkDock.place:Flavi_NS5_RdRp:thumb_site_2_fstein_bulkdock_input_split1000_batch000

>  <HIPPO Compound ID>  (288) 
68661

>  <original SMILES>  (288) 
Cc1ccc(Nc2ccc(-c3csc(N)n3)cc2)cn1

>  <name>  (288) 
ZQNBUZXZLXTGKJ-UHFFFAOYSA-N

>  <HIPPO Pose ID>  (288) 
77677

>  <ref_mols>  (288) 
d0162a,d1212a

>  <exports>  (288) 
['/opt/xchem-fragalysis-2/maxwin/BulkDock/OUTPUTS/thumb_site_2_fstein_bulkdock_input_split1000_batch000_217914.sdf', '/opt/xchem-fragalysis-2/maxwin/BulkDock/OUTPUTS/thumb_site_2_fstein_bulkdock_input_split1000_batch000_217914_fragalysis.sdf', '/opt/xchem-fragalysis-2/maxwin/RdRp_FFF/syndirella/Retro_OK_batch1.sdf']

>  <alias>  (288) 
None

>  <inchikey>  (288) 
ZQNBUZXZLXTGKJ-UHFFFAOYSA-N

>  <energy_score>  (288) 
-53.901344

>  <distance_score>  (288) 
0.959993

>  <fragmenstein_outcome>  (288) 
acceptable

>  <merge_set>  (288) 
thumb_site_2_fstein_bulkdock_input

>  <scratch_subdir>  (288) 
/opt/xchem-fragalysis-2/maxwin/BulkDock/SCRATCH/217914/C68661-P79

>  <SLURM_JOB_ID>  (288) 
217914

>  <tags>  (288) 
['Fragmenstein placed', 'thumb_site_2_fstein_bulkdock_input Pose OK']

>  <fragmenstein_mode>  (288) 
expansion

>  <csv_name>  (288) 
thumb_site_2_fstein_bulkdock_input_split1000_batch000.csv

$$$$
ATSWPPNPCFKYBE-UHFFFAOYSA-N
     RDKit          3D

 34 37  0  0  0  0  0  0  0  0999 V2000
    1.9148  -71.9941  -19.5209 N   0  0  0  0  0  0  0  0  0  0  0  0
    0.8055  -71.2514  -19.6856 C   0  0  0  0  0  0  0  0  0  0  0  0
   -0.3998  -71.7198  -19.4933 N   0  0  0  0  0  0  0  0  0  0  0  0
   -1.3415  -70.7276  -19.7180 C   0  0  0  0  0  0  0  0  0  0  0  0
   -2.7593  -71.0056  -19.5403 C   0  0  0  0  0  0  0  0  0  0  0  0
   -3.1651  -72.2211  -18.9552 C   0  0  0  0  0  0  0  0  0  0  0  0
   -4.5157  -72.5281  -18.7810 C   0  0  0  0  0  0  0  0  0  0  0  0
   -5.4604  -71.6012  -19.1832 C   0  0  0  0  0  0  0  0  0  0  0  0
   -6.8090  -71.8688  -19.0924 N   0  0  0  0  0  0  0  0  0  0  0  0
   -8.0187  -70.9874  -19.3985 C   0  0  0  0  0  0  0  0  0  0  0  0
   -8.0772  -69.8679  -19.7036 O   0  0  0  0  0  0  0  0  0  0  0  0
   -9.2787  -71.7188  -19.3909 C   0  0  0  0  0  0  0  0  0  0  0  0
   -9.5032  -73.0669  -19.5978 C   0  0  0  0  0  0  0  0  0  0  0  0
  -11.0952  -73.3220  -20.2161 S   0  0  0  0  0  0  0  0  0  0  0  0
  -11.3814  -71.6394  -20.2296 C   0  0  0  0  0  0  0  0  0  0  0  0
  -12.3281  -70.9872  -21.1121 C   0  0  0  0  0  0  0  0  0  0  0  0
  -13.2261  -70.0556  -20.5960 C   0  0  0  0  0  0  0  0  0  0  0  0
  -14.0700  -69.3364  -21.4415 C   0  0  0  0  0  0  0  0  0  0  0  0
  -15.0743  -68.3723  -20.8674 C   0  0  0  0  0  0  0  0  0  0  0  0
  -15.9873  -69.0210  -19.8691 C   0  0  0  0  0  0  0  0  0  0  0  0
  -17.1062  -69.4484  -20.0976 O   0  0  0  0  0  0  0  0  0  0  0  0
  -15.4191  -69.1659  -18.6520 O   0  0  0  0  0  0  0  0  0  0  0  0
  -13.9512  -69.5270  -22.8235 C   0  0  0  0  0  0  0  0  0  0  0  0
  -13.0074  -70.4064  -23.3704 C   0  0  0  0  0  0  0  0  0  0  0  0
  -12.8375  -70.5565  -24.8657 C   0  0  0  0  0  0  0  0  0  0  0  0
  -11.8507  -69.6114  -25.5121 C   0  0  0  0  0  0  0  0  0  0  0  0
  -11.9742  -69.1658  -26.6437 O   0  0  0  0  0  0  0  0  0  0  0  0
  -10.7672  -69.3391  -24.7622 O   0  0  0  0  0  0  0  0  0  0  0  0
  -12.2034  -71.1396  -22.4980 C   0  0  0  0  0  0  0  0  0  0  0  0
  -10.5089  -70.9907  -19.3949 C   0  0  0  0  0  0  0  0  0  0  0  0
   -5.0714  -70.3840  -19.7476 C   0  0  0  0  0  0  0  0  0  0  0  0
   -3.7316  -70.0922  -19.9421 C   0  0  0  0  0  0  0  0  0  0  0  0
   -0.8127  -69.5075  -20.0951 C   0  0  0  0  0  0  0  0  0  0  0  0
    0.8961  -69.6018  -20.1335 S   0  0  0  0  0  0  0  0  0  0  0  0
  1  2  1  0
  2  3  2  0
  3  4  1  0
  4  5  1  0
  5  6  2  0
  6  7  1  0
  7  8  2  0
  8  9  1  0
  9 10  1  0
 10 11  2  0
 10 12  1  0
 12 13  2  0
 13 14  1  0
 14 15  1  0
 15 16  1  0
 16 17  2  0
 17 18  1  0
 18 19  1  0
 19 20  1  0
 20 21  2  0
 20 22  1  0
 18 23  2  0
 23 24  1  0
 24 25  1  0
 25 26  1  0
 26 27  2  0
 26 28  1  0
 24 29  2  0
 15 30  2  0
  8 31  1  0
 31 32  2  0
  4 33  2  0
 33 34  1  0
 34  2  1  0
 32  5  1  0
 30 12  1  0
 29 16  1  0
M  END
>  <fragmenstein_runtime>  (289) 
10.408299

>  <original ID>  (289) 
ATSWPPNPCFKYBE-UHFFFAOYSA-N

>  <fragmenstein_error>  (289) 
None

>  <ref_pdb>  (289) 
d0162a

>  <Multi-SuCOS>  (289) 
0.638972

>  <SLURM_JOB_NAME>  (289) 
BulkDock.place:Flavi_NS5_RdRp:thumb_site_2_fstein_bulkdock_input_split1000_batch000

>  <HIPPO Compound ID>  (289) 
68663

>  <original SMILES>  (289) 
Nc1nc(-c2ccc(NC(=O)c3csc(-c4cc(CC(=O)O)cc(CC(=O)O)c4)c3)cc2)cs1

>  <name>  (289) 
ATSWPPNPCFKYBE-UHFFFAOYSA-N

>  <HIPPO Pose ID>  (289) 
77688

>  <ref_mols>  (289) 
d0162a,5hmx-a

>  <exports>  (289) 
['/opt/xchem-fragalysis-2/maxwin/BulkDock/OUTPUTS/thumb_site_2_fstein_bulkdock_input_split1000_batch000_217914.sdf', '/opt/xchem-fragalysis-2/maxwin/BulkDock/OUTPUTS/thumb_site_2_fstein_bulkdock_input_split1000_batch000_217914_fragalysis.sdf', '/opt/xchem-fragalysis-2/maxwin/RdRp_FFF/syndirella/Retro_OK_batch1.sdf']

>  <alias>  (289) 
None

>  <inchikey>  (289) 
ATSWPPNPCFKYBE-UHFFFAOYSA-N

>  <energy_score>  (289) 
-110.30562

>  <distance_score>  (289) 
0.961827

>  <fragmenstein_outcome>  (289) 
acceptable

>  <merge_set>  (289) 
thumb_site_2_fstein_bulkdock_input

>  <scratch_subdir>  (289) 
/opt/xchem-fragalysis-2/maxwin/BulkDock/SCRATCH/217914/C68663-P15

>  <SLURM_JOB_ID>  (289) 
217914

>  <tags>  (289) 
['Fragmenstein placed', 'thumb_site_2_fstein_bulkdock_input Pose OK']

>  <fragmenstein_mode>  (289) 
expansion

>  <csv_name>  (289) 
thumb_site_2_fstein_bulkdock_input_split1000_batch000.csv

$$$$
FAQQMENBAAMZPE-FQEVSTJZSA-N
     RDKit          3D

 32 35  0  0  0  0  0  0  0  0999 V2000
  -14.5803  -69.3453  -22.8032 C   0  0  0  0  0  0  0  0  0  0  0  0
  -15.1039  -69.4672  -21.3872 C   0  0  0  0  0  0  0  0  0  0  0  0
  -13.8238  -69.7638  -20.1769 S   0  0  0  0  0  0  0  0  0  0  0  0
  -12.9009  -68.6579  -20.1895 O   0  0  0  0  0  0  0  0  0  0  0  0
  -14.4505  -70.2003  -18.9432 O   0  0  0  0  0  0  0  0  0  0  0  0
  -13.0659  -71.1178  -20.7864 N   0  0  0  0  0  0  0  0  0  0  0  0
  -11.7340  -70.9716  -21.3806 C   0  0  0  0  0  0  0  0  0  0  0  0
  -10.5771  -71.1406  -20.4218 C   0  0  0  0  0  0  0  0  0  0  0  0
  -10.7459  -71.5221  -19.0684 C   0  0  0  0  0  0  0  0  0  0  0  0
   -9.6473  -71.7302  -18.2292 C   0  0  0  0  0  0  0  0  0  0  0  0
   -8.3940  -71.5488  -18.7632 C   0  0  0  0  0  0  0  0  0  0  0  0
   -8.2139  -71.1643  -20.0679 C   0  0  0  0  0  0  0  0  0  0  0  0
   -9.2758  -70.9491  -20.9183 C   0  0  0  0  0  0  0  0  0  0  0  0
   -6.9045  -71.0510  -20.3998 O   0  0  0  0  0  0  0  0  0  0  0  0
   -6.2651  -71.3930  -19.1467 C   0  0  1  0  0  0  0  0  0  0  0  0
   -5.4485  -70.3173  -18.6761 O   0  0  0  0  0  0  0  0  0  0  0  0
   -4.2932  -70.2274  -19.3937 C   0  0  0  0  0  0  0  0  0  0  0  0
   -4.1538  -69.1607  -20.2710 C   0  0  0  0  0  0  0  0  0  0  0  0
   -2.9267  -68.9044  -20.8719 C   0  0  0  0  0  0  0  0  0  0  0  0
   -1.8478  -69.7318  -20.5754 C   0  0  0  0  0  0  0  0  0  0  0  0
   -0.2425  -69.3095  -21.1815 S   0  0  0  0  0  0  0  0  0  0  0  0
    0.0728  -70.3162  -22.1746 O   0  0  0  0  0  0  0  0  0  0  0  0
   -0.2662  -67.9028  -21.4906 O   0  0  0  0  0  0  0  0  0  0  0  0
    0.7343  -69.5726  -19.8153 N   0  0  0  0  0  0  0  0  0  0  0  0
    0.8830  -68.4024  -18.8965 C   0  0  0  0  0  0  0  0  0  0  0  0
    1.5689  -68.8428  -17.5860 C   0  0  0  0  0  0  0  0  0  0  0  0
    2.8422  -69.5614  -17.7878 N   0  0  0  0  0  0  0  0  0  0  0  0
    2.6356  -70.6962  -18.6989 C   0  0  0  0  0  0  0  0  0  0  0  0
    2.0271  -70.2655  -20.0452 C   0  0  0  0  0  0  0  0  0  0  0  0
   -1.9975  -70.8440  -19.7439 C   0  0  0  0  0  0  0  0  0  0  0  0
   -3.2274  -71.0845  -19.1386 C   0  0  0  0  0  0  0  0  0  0  0  0
   -7.2216  -71.7271  -18.1045 O   0  0  0  0  0  0  0  0  0  0  0  0
  1  2  1  0
  2  3  1  0
  3  4  2  0
  3  5  2  0
  3  6  1  0
  6  7  1  0
  7  8  1  0
  8  9  2  0
  9 10  1  0
 10 11  2  0
 11 12  1  0
 12 13  2  0
 12 14  1  0
 14 15  1  0
 15 16  1  1
 16 17  1  0
 17 18  2  0
 18 19  1  0
 19 20  2  0
 20 21  1  0
 21 22  2  0
 21 23  2  0
 21 24  1  0
 24 25  1  0
 25 26  1  0
 26 27  1  0
 27 28  1  0
 28 29  1  0
 20 30  1  0
 30 31  2  0
 15 32  1  0
 13  8  1  0
 31 17  1  0
 32 11  1  0
 29 24  1  0
M  END
>  <fragmenstein_runtime>  (290) 
15.31891

>  <original ID>  (290) 
FAQQMENBAAMZPE-FQEVSTJZSA-N

>  <fragmenstein_error>  (290) 
None

>  <ref_pdb>  (290) 
d0174a

>  <Multi-SuCOS>  (290) 
0.820821

>  <SLURM_JOB_NAME>  (290) 
BulkDock.place:Flavi_NS5_RdRp:thumb_site_2_fstein_bulkdock_input_split1000_batch000

>  <HIPPO Compound ID>  (290) 
68667

>  <original SMILES>  (290) 
CCS(=O)(=O)NCc1ccc2c(c1)O[C@@H](Oc1ccc(S(=O)(=O)N3CCNCC3)cc1)O2

>  <name>  (290) 
FAQQMENBAAMZPE-FQEVSTJZSA-N

>  <HIPPO Pose ID>  (290) 
77701

>  <ref_mols>  (290) 
d0174a,d0210a

>  <exports>  (290) 
['/opt/xchem-fragalysis-2/maxwin/BulkDock/OUTPUTS/thumb_site_2_fstein_bulkdock_input_split1000_batch000_217914.sdf', '/opt/xchem-fragalysis-2/maxwin/BulkDock/OUTPUTS/thumb_site_2_fstein_bulkdock_input_split1000_batch000_217914_fragalysis.sdf', '/opt/xchem-fragalysis-2/maxwin/RdRp_FFF/syndirella/Retro_OK_batch1.sdf']

>  <alias>  (290) 
None

>  <inchikey>  (290) 
FAQQMENBAAMZPE-FQEVSTJZSA-N

>  <energy_score>  (290) 
-86.265168

>  <distance_score>  (290) 
0.6072

>  <fragmenstein_outcome>  (290) 
acceptable

>  <merge_set>  (290) 
thumb_site_2_fstein_bulkdock_input

>  <scratch_subdir>  (290) 
/opt/xchem-fragalysis-2/maxwin/BulkDock/SCRATCH/217914/C68667-P17

>  <SLURM_JOB_ID>  (290) 
217914

>  <tags>  (290) 
['Fragmenstein placed', 'thumb_site_2_fstein_bulkdock_input Pose OK']

>  <fragmenstein_mode>  (290) 
expansion

>  <csv_name>  (290) 
thumb_site_2_fstein_bulkdock_input_split1000_batch000.csv

$$$$
SVDVXQUBHCNNMO-UHFFFAOYSA-N
     RDKit          3D

 19 21  0  0  0  0  0  0  0  0999 V2000
  -14.8006  -70.1617  -24.1778 C   0  0  0  0  0  0  0  0  0  0  0  0
  -13.7898  -70.0129  -23.0513 C   0  0  0  0  0  0  0  0  0  0  0  0
  -14.3444  -69.9024  -21.6657 C   0  0  0  0  0  0  0  0  0  0  0  0
  -13.6370  -69.7885  -20.4287 C   0  0  0  0  0  0  0  0  0  0  0  0
  -12.3025  -69.8264  -20.2530 N   0  0  0  0  0  0  0  0  0  0  0  0
  -11.4643  -70.7520  -20.9891 C   0  0  0  0  0  0  0  0  0  0  0  0
  -10.1996  -71.0219  -20.2099 C   0  0  0  0  0  0  0  0  0  0  0  0
  -10.2610  -71.7693  -19.0081 C   0  0  0  0  0  0  0  0  0  0  0  0
   -9.1108  -72.0181  -18.2564 C   0  0  0  0  0  0  0  0  0  0  0  0
   -7.9194  -71.5175  -18.7318 C   0  0  0  0  0  0  0  0  0  0  0  0
   -7.8482  -70.7996  -19.9026 C   0  0  0  0  0  0  0  0  0  0  0  0
   -8.9660  -70.5280  -20.6609 C   0  0  0  0  0  0  0  0  0  0  0  0
   -6.5823  -70.3936  -20.1845 O   0  0  0  0  0  0  0  0  0  0  0  0
   -5.8563  -70.9764  -19.0848 C   0  0  0  0  0  0  0  0  0  0  0  0
   -6.7074  -71.6468  -18.1291 O   0  0  0  0  0  0  0  0  0  0  0  0
  -14.4579  -69.6256  -19.3873 N   0  0  0  0  0  0  0  0  0  0  0  0
  -15.6707  -69.5738  -19.9576 N   0  0  0  0  0  0  0  0  0  0  0  0
  -15.6676  -69.9007  -21.2842 C   0  0  0  0  0  0  0  0  0  0  0  0
  -16.7623  -70.1216  -22.0008 O   0  0  0  0  0  0  0  0  0  0  0  0
  1  2  1  0
  2  3  1  0
  3  4  1  0
  4  5  1  0
  5  6  1  0
  6  7  1  0
  7  8  2  0
  8  9  1  0
  9 10  2  0
 10 11  1  0
 11 12  2  0
 11 13  1  0
 13 14  1  0
 14 15  1  0
  4 16  2  0
 16 17  1  0
 17 18  1  0
 18 19  1  0
 18  3  2  0
 12  7  1  0
 15 10  1  0
M  END
>  <fragmenstein_runtime>  (291) 
1.930167

>  <original ID>  (291) 
SVDVXQUBHCNNMO-UHFFFAOYSA-N

>  <fragmenstein_error>  (291) 
None

>  <ref_pdb>  (291) 
d0174a

>  <Multi-SuCOS>  (291) 
0.68282

>  <SLURM_JOB_NAME>  (291) 
BulkDock.place:Flavi_NS5_RdRp:thumb_site_2_fstein_bulkdock_input_split1000_batch000

>  <HIPPO Compound ID>  (291) 
68673

>  <original SMILES>  (291) 
CCc1c(NCc2ccc3c(c2)OCO3)n[nH]c1O

>  <name>  (291) 
SVDVXQUBHCNNMO-UHFFFAOYSA-N

>  <HIPPO Pose ID>  (291) 
77729

>  <ref_mols>  (291) 
d0174a,d0414a

>  <exports>  (291) 
['/opt/xchem-fragalysis-2/maxwin/BulkDock/OUTPUTS/thumb_site_2_fstein_bulkdock_input_split1000_batch000_217914.sdf', '/opt/xchem-fragalysis-2/maxwin/BulkDock/OUTPUTS/thumb_site_2_fstein_bulkdock_input_split1000_batch000_217914_fragalysis.sdf', '/opt/xchem-fragalysis-2/maxwin/RdRp_FFF/syndirella/Retro_OK_batch1.sdf']

>  <alias>  (291) 
None

>  <inchikey>  (291) 
SVDVXQUBHCNNMO-UHFFFAOYSA-N

>  <energy_score>  (291) 
-37.286941

>  <distance_score>  (291) 
0.622948

>  <fragmenstein_outcome>  (291) 
acceptable

>  <merge_set>  (291) 
thumb_site_2_fstein_bulkdock_input

>  <scratch_subdir>  (291) 
/opt/xchem-fragalysis-2/maxwin/BulkDock/SCRATCH/217914/C68673-P17

>  <SLURM_JOB_ID>  (291) 
217914

>  <tags>  (291) 
['Fragmenstein placed', 'thumb_site_2_fstein_bulkdock_input Pose OK']

>  <fragmenstein_mode>  (291) 
expansion

>  <csv_name>  (291) 
thumb_site_2_fstein_bulkdock_input_split1000_batch000.csv

$$$$
GSEHWMCATPMGSP-BXKDBHETSA-N
     RDKit          3D

 19 21  0  0  0  0  0  0  0  0999 V2000
   -6.6577  -70.8612  -17.8828 O   0  0  0  0  0  0  0  0  0  0  0  0
   -6.5129  -71.5846  -18.7952 C   0  0  0  0  0  0  0  0  0  0  0  0
   -5.2906  -71.3899  -19.6201 C   0  0  0  0  0  0  0  0  0  0  0  0
   -4.7926  -70.0923  -19.7741 C   0  0  0  0  0  0  0  0  0  0  0  0
   -5.4125  -69.0488  -19.2056 F   0  0  0  0  0  0  0  0  0  0  0  0
   -3.6570  -69.8350  -20.5442 C   0  0  0  0  0  0  0  0  0  0  0  0
   -2.9898  -70.8861  -21.1657 C   0  0  0  0  0  0  0  0  0  0  0  0
   -3.4657  -72.1872  -21.0079 C   0  0  0  0  0  0  0  0  0  0  0  0
   -4.6075  -72.4330  -20.2378 C   0  0  0  0  0  0  0  0  0  0  0  0
   -4.9913  -73.7084  -20.0913 F   0  0  0  0  0  0  0  0  0  0  0  0
   -7.4236  -72.6453  -19.3501 N   0  0  0  0  0  0  0  0  0  0  0  0
   -8.7477  -73.1693  -18.8440 C   0  0  0  0  0  0  0  0  0  0  0  0
   -9.6242  -72.1644  -18.0593 C   0  0  0  0  0  0  0  0  0  0  0  0
  -10.1311  -71.0566  -18.9576 C   0  0  2  0  0  0  0  0  0  0  0  0
  -11.4038  -71.3887  -19.7077 C   0  0  0  0  0  0  0  0  0  0  0  0
  -11.3049  -70.4862  -20.9130 C   0  0  0  0  0  0  0  0  0  0  0  0
   -9.9132  -70.4114  -21.2362 O   0  0  0  0  0  0  0  0  0  0  0  0
   -9.1479  -70.7967  -20.0780 C   0  0  2  0  0  0  0  0  0  0  0  0
   -8.3486  -72.0760  -20.4103 C   0  0  0  0  0  0  0  0  0  0  0  0
  1  2  2  0
  2  3  1  0
  3  4  2  0
  4  5  1  0
  4  6  1  0
  6  7  2  0
  7  8  1  0
  8  9  2  0
  9 10  1  0
  2 11  1  0
 11 12  1  0
 12 13  1  0
 14 13  1  6
 14 15  1  0
 15 16  1  0
 16 17  1  0
 17 18  1  0
 18 19  1  6
  9  3  1  0
 19 11  1  0
 18 14  1  0
M  END
>  <fragmenstein_runtime>  (292) 
4.595086

>  <original ID>  (292) 
GSEHWMCATPMGSP-BXKDBHETSA-N

>  <fragmenstein_error>  (292) 
None

>  <ref_pdb>  (292) 
d0176a

>  <Multi-SuCOS>  (292) 
0.679968

>  <SLURM_JOB_NAME>  (292) 
BulkDock.place:Flavi_NS5_RdRp:thumb_site_2_fstein_bulkdock_input_split1000_batch000

>  <HIPPO Compound ID>  (292) 
68710

>  <original SMILES>  (292) 
O=C(c1c(F)cccc1F)N1CC[C@@H]2CCO[C@@H]2C1

>  <name>  (292) 
GSEHWMCATPMGSP-BXKDBHETSA-N

>  <HIPPO Pose ID>  (292) 
77841

>  <ref_mols>  (292) 
d0176a,d0693a

>  <exports>  (292) 
['/opt/xchem-fragalysis-2/maxwin/BulkDock/OUTPUTS/thumb_site_2_fstein_bulkdock_input_split1000_batch000_217914.sdf', '/opt/xchem-fragalysis-2/maxwin/BulkDock/OUTPUTS/thumb_site_2_fstein_bulkdock_input_split1000_batch000_217914_fragalysis.sdf', '/opt/xchem-fragalysis-2/maxwin/RdRp_FFF/syndirella/Retro_OK_batch1.sdf']

>  <alias>  (292) 
None

>  <inchikey>  (292) 
GSEHWMCATPMGSP-BXKDBHETSA-N

>  <energy_score>  (292) 
-1.698942

>  <distance_score>  (292) 
0.899708

>  <fragmenstein_outcome>  (292) 
acceptable

>  <merge_set>  (292) 
thumb_site_2_fstein_bulkdock_input

>  <scratch_subdir>  (292) 
/opt/xchem-fragalysis-2/maxwin/BulkDock/SCRATCH/217914/C68710-P18

>  <SLURM_JOB_ID>  (292) 
217914

>  <tags>  (292) 
['Fragmenstein placed', 'thumb_site_2_fstein_bulkdock_input Pose OK']

>  <fragmenstein_mode>  (292) 
expansion

>  <csv_name>  (292) 
thumb_site_2_fstein_bulkdock_input_split1000_batch000.csv

$$$$
GSEHWMCATPMGSP-BXKDBHETSA-N
     RDKit          3D

 19 21  0  0  0  0  0  0  0  0999 V2000
   -6.6444  -70.9021  -17.8850 O   0  0  0  0  0  0  0  0  0  0  0  0
   -6.4760  -71.5387  -18.8574 C   0  0  0  0  0  0  0  0  0  0  0  0
   -5.2298  -71.2994  -19.6349 C   0  0  0  0  0  0  0  0  0  0  0  0
   -4.7111  -70.0035  -19.6838 C   0  0  0  0  0  0  0  0  0  0  0  0
   -5.3197  -69.0002  -19.0411 F   0  0  0  0  0  0  0  0  0  0  0  0
   -3.5645  -69.7041  -20.4188 C   0  0  0  0  0  0  0  0  0  0  0  0
   -2.9107  -70.7146  -21.1178 C   0  0  0  0  0  0  0  0  0  0  0  0
   -3.4027  -72.0188  -21.0601 C   0  0  0  0  0  0  0  0  0  0  0  0
   -4.5516  -72.3059  -20.3169 C   0  0  0  0  0  0  0  0  0  0  0  0
   -4.9484  -73.5851  -20.2578 F   0  0  0  0  0  0  0  0  0  0  0  0
   -7.3728  -72.5443  -19.5314 N   0  0  0  0  0  0  0  0  0  0  0  0
   -8.7079  -73.1112  -19.1088 C   0  0  0  0  0  0  0  0  0  0  0  0
   -9.6033  -72.1902  -18.2485 C   0  0  0  0  0  0  0  0  0  0  0  0
  -10.1158  -71.0224  -19.0602 C   0  0  2  0  0  0  0  0  0  0  0  0
  -11.3657  -71.3156  -19.8630 C   0  0  0  0  0  0  0  0  0  0  0  0
  -11.2606  -70.3115  -20.9839 C   0  0  0  0  0  0  0  0  0  0  0  0
   -9.8644  -70.1889  -21.2721 O   0  0  0  0  0  0  0  0  0  0  0  0
   -9.1153  -70.6554  -20.1331 C   0  0  2  0  0  0  0  0  0  0  0  0
   -8.2748  -71.8764  -20.5601 C   0  0  0  0  0  0  0  0  0  0  0  0
  1  2  2  0
  2  3  1  0
  3  4  2  0
  4  5  1  0
  4  6  1  0
  6  7  2  0
  7  8  1  0
  8  9  2  0
  9 10  1  0
  2 11  1  0
 11 12  1  0
 12 13  1  0
 14 13  1  6
 14 15  1  0
 15 16  1  0
 16 17  1  0
 17 18  1  0
 18 19  1  6
  9  3  1  0
 19 11  1  0
 18 14  1  0
M  END
>  <fragmenstein_runtime>  (293) 
4.783697

>  <original ID>  (293) 
GSEHWMCATPMGSP-BXKDBHETSA-N

>  <fragmenstein_error>  (293) 
None

>  <ref_pdb>  (293) 
d0693a

>  <Multi-SuCOS>  (293) 
0.695139

>  <SLURM_JOB_NAME>  (293) 
BulkDock.place:Flavi_NS5_RdRp:thumb_site_2_fstein_bulkdock_input_split1000_batch000

>  <HIPPO Compound ID>  (293) 
68710

>  <original SMILES>  (293) 
O=C(c1c(F)cccc1F)N1CC[C@@H]2CCO[C@@H]2C1

>  <name>  (293) 
GSEHWMCATPMGSP-BXKDBHETSA-N

>  <HIPPO Pose ID>  (293) 
77843

>  <ref_mols>  (293) 
d0176a,d0693a

>  <exports>  (293) 
['/opt/xchem-fragalysis-2/maxwin/BulkDock/OUTPUTS/thumb_site_2_fstein_bulkdock_input_split1000_batch000_217914.sdf', '/opt/xchem-fragalysis-2/maxwin/BulkDock/OUTPUTS/thumb_site_2_fstein_bulkdock_input_split1000_batch000_217914_fragalysis.sdf', '/opt/xchem-fragalysis-2/maxwin/RdRp_FFF/syndirella/Retro_OK_batch1.sdf']

>  <alias>  (293) 
None

>  <inchikey>  (293) 
GSEHWMCATPMGSP-BXKDBHETSA-N

>  <energy_score>  (293) 
-2.003405

>  <distance_score>  (293) 
0.899068

>  <fragmenstein_outcome>  (293) 
acceptable

>  <merge_set>  (293) 
thumb_site_2_fstein_bulkdock_input

>  <scratch_subdir>  (293) 
/opt/xchem-fragalysis-2/maxwin/BulkDock/SCRATCH/217914/C68710-P53

>  <SLURM_JOB_ID>  (293) 
217914

>  <tags>  (293) 
['Fragmenstein placed', 'thumb_site_2_fstein_bulkdock_input Pose OK']

>  <fragmenstein_mode>  (293) 
expansion

>  <csv_name>  (293) 
thumb_site_2_fstein_bulkdock_input_split1000_batch000.csv

$$$$
KUUOTEMBQDIXRU-UHFFFAOYSA-N
     RDKit          3D

 18 19  0  0  0  0  0  0  0  0999 V2000
  -15.5085  -44.0921  -22.3959 N   0  0  0  0  0  0  0  0  0  0  0  0
  -15.5031  -43.1140  -23.0180 C   0  0  0  0  0  0  0  0  0  0  0  0
  -15.5726  -41.8945  -23.7311 C   0  0  0  0  0  0  0  0  0  0  0  0
  -16.0613  -41.6724  -24.9972 C   0  0  0  0  0  0  0  0  0  0  0  0
  -15.9291  -40.2835  -25.2827 C   0  0  0  0  0  0  0  0  0  0  0  0
  -16.3508  -39.6373  -26.5271 C   0  0  0  0  0  0  0  0  0  0  0  0
  -16.2173  -40.2171  -27.5971 O   0  0  0  0  0  0  0  0  0  0  0  0
  -16.9569  -38.4084  -26.4521 O   0  0  0  0  0  0  0  0  0  0  0  0
  -17.4764  -37.9410  -25.1953 C   0  0  0  0  0  0  0  0  0  0  0  0
  -18.4888  -36.8214  -25.4353 C   0  0  0  0  0  0  0  0  0  0  0  0
  -19.1915  -36.3400  -24.2316 N   0  0  0  0  0  0  0  0  0  0  0  0
  -20.0654  -35.2013  -24.5732 C   0  0  0  0  0  0  0  0  0  0  0  0
  -20.3663  -34.2504  -23.4064 C   0  0  0  0  0  0  0  0  0  0  0  0
  -20.4260  -34.9969  -22.0870 C   0  0  0  0  0  0  0  0  0  0  0  0
  -19.1207  -35.7456  -21.8364 C   0  0  0  0  0  0  0  0  0  0  0  0
  -18.3111  -36.0094  -23.1107 C   0  0  0  0  0  0  0  0  0  0  0  0
  -15.2865  -39.7296  -24.1855 C   0  0  0  0  0  0  0  0  0  0  0  0
  -15.1467  -40.6989  -23.2268 N   0  0  0  0  0  0  0  0  0  0  0  0
  1  2  3  0
  2  3  1  0
  3  4  2  0
  4  5  1  0
  5  6  1  0
  6  7  2  0
  6  8  1  0
  8  9  1  0
  9 10  1  0
 10 11  1  0
 11 12  1  0
 12 13  1  0
 13 14  1  0
 14 15  1  0
 15 16  1  0
  5 17  2  0
 17 18  1  0
 18  3  1  0
 16 11  1  0
M  END
>  <fragmenstein_runtime>  (294) 
17.860289

>  <original ID>  (294) 
KUUOTEMBQDIXRU-UHFFFAOYSA-N

>  <fragmenstein_error>  (294) 
None

>  <ref_pdb>  (294) 
d0472a

>  <Multi-SuCOS>  (294) 
0.420521

>  <SLURM_JOB_NAME>  (294) 
BulkDock.place:Flavi_NS5_RdRp:RdRp_knitwork_primer_grip_n_pocket_pure_split1800_batch010

>  <HIPPO Compound ID>  (294) 
19378

>  <original SMILES>  (294) 
N#Cc1cc(C(=O)OCCN2CCCCC2)c[nH]1

>  <name>  (294) 
KUUOTEMBQDIXRU-UHFFFAOYSA-N

>  <HIPPO Pose ID>  (294) 
78012

>  <ref_mols>  (294) 
d0472a,d0866a

>  <exports>  (294) 
['/opt/xchem-fragalysis-2/maxwin/BulkDock/OUTPUTS/RdRp_knitwork_primer_grip_n_pocket_pure_split1800_batch010_217044.sdf', '/opt/xchem-fragalysis-2/maxwin/BulkDock/OUTPUTS/RdRp_knitwork_primer_grip_n_pocket_pure_fragalysis.sdf', '/opt/xchem-fragalysis-2/maxwin/RdRp_FFF/syndirella/Retro_OK_batch1.sdf']

>  <alias>  (294) 
None

>  <inchikey>  (294) 
KUUOTEMBQDIXRU-UHFFFAOYSA-N

>  <energy_score>  (294) 
-29.207815

>  <distance_score>  (294) 
0.911206

>  <fragmenstein_outcome>  (294) 
acceptable

>  <merge_set>  (294) 
RdRp_knitwork_primer_grip_n_pocket_pure_fragalysis.sdf

>  <scratch_subdir>  (294) 
/opt/xchem-fragalysis-2/maxwin/BulkDock/SCRATCH/217044/C19378-P42

>  <SLURM_JOB_ID>  (294) 
217044

>  <tags>  (294) 
['Fragmenstein placed', 'RdRp_knitwork_primer_grip_n_pocket_pure_fragalysis.sdf Pose OK']

>  <fragmenstein_mode>  (294) 
expansion

>  <csv_name>  (294) 
RdRp_knitwork_primer_grip_n_pocket_pure_split1800_batch010.csv

$$$$
KUUOTEMBQDIXRU-UHFFFAOYSA-N
     RDKit          3D

 18 19  0  0  0  0  0  0  0  0999 V2000
  -15.5992  -43.9436  -22.4954 N   0  0  0  0  0  0  0  0  0  0  0  0
  -15.5362  -42.9737  -23.1276 C   0  0  0  0  0  0  0  0  0  0  0  0
  -15.5283  -41.7416  -23.8235 C   0  0  0  0  0  0  0  0  0  0  0  0
  -15.9097  -41.4751  -25.1191 C   0  0  0  0  0  0  0  0  0  0  0  0
  -15.7333  -40.0800  -25.3483 C   0  0  0  0  0  0  0  0  0  0  0  0
  -16.0472  -39.3706  -26.5900 C   0  0  0  0  0  0  0  0  0  0  0  0
  -15.6666  -39.7957  -27.6707 O   0  0  0  0  0  0  0  0  0  0  0  0
  -16.8328  -38.2429  -26.5173 O   0  0  0  0  0  0  0  0  0  0  0  0
  -17.4265  -37.8834  -25.2638 C   0  0  0  0  0  0  0  0  0  0  0  0
  -18.5011  -36.8158  -25.4645 C   0  0  0  0  0  0  0  0  0  0  0  0
  -19.2349  -36.4776  -24.2335 N   0  0  0  0  0  0  0  0  0  0  0  0
  -20.2245  -35.4167  -24.4611 C   0  0  0  0  0  0  0  0  0  0  0  0
  -20.0372  -34.1699  -23.5964 C   0  0  0  0  0  0  0  0  0  0  0  0
  -19.9442  -34.5047  -22.1156 C   0  0  0  0  0  0  0  0  0  0  0  0
  -19.1524  -35.7772  -21.8600 C   0  0  0  0  0  0  0  0  0  0  0  0
  -18.3587  -36.2221  -23.0823 C   0  0  0  0  0  0  0  0  0  0  0  0
  -15.1748  -39.5676  -24.1862 C   0  0  0  0  0  0  0  0  0  0  0  0
  -15.1198  -40.5688  -23.2530 N   0  0  0  0  0  0  0  0  0  0  0  0
  1  2  3  0
  2  3  1  0
  3  4  2  0
  4  5  1  0
  5  6  1  0
  6  7  2  0
  6  8  1  0
  8  9  1  0
  9 10  1  0
 10 11  1  0
 11 12  1  0
 12 13  1  0
 13 14  1  0
 14 15  1  0
 15 16  1  0
  5 17  2  0
 17 18  1  0
 18  3  1  0
 16 11  1  0
M  END
>  <fragmenstein_runtime>  (295) 
17.32491

>  <original ID>  (295) 
KUUOTEMBQDIXRU-UHFFFAOYSA-N

>  <fragmenstein_error>  (295) 
None

>  <ref_pdb>  (295) 
d0866a

>  <Multi-SuCOS>  (295) 
0.420426

>  <SLURM_JOB_NAME>  (295) 
BulkDock.place:Flavi_NS5_RdRp:RdRp_knitwork_primer_grip_n_pocket_pure_split1800_batch010

>  <HIPPO Compound ID>  (295) 
19378

>  <original SMILES>  (295) 
N#Cc1cc(C(=O)OCCN2CCCCC2)c[nH]1

>  <name>  (295) 
KUUOTEMBQDIXRU-UHFFFAOYSA-N

>  <HIPPO Pose ID>  (295) 
78015

>  <ref_mols>  (295) 
d0472a,d0866a

>  <exports>  (295) 
['/opt/xchem-fragalysis-2/maxwin/BulkDock/OUTPUTS/RdRp_knitwork_primer_grip_n_pocket_pure_split1800_batch010_217044.sdf', '/opt/xchem-fragalysis-2/maxwin/BulkDock/OUTPUTS/RdRp_knitwork_primer_grip_n_pocket_pure_fragalysis.sdf', '/opt/xchem-fragalysis-2/maxwin/RdRp_FFF/syndirella/Retro_OK_batch1.sdf']

>  <alias>  (295) 
None

>  <inchikey>  (295) 
KUUOTEMBQDIXRU-UHFFFAOYSA-N

>  <energy_score>  (295) 
-27.727933

>  <distance_score>  (295) 
0.86679

>  <fragmenstein_outcome>  (295) 
acceptable

>  <merge_set>  (295) 
RdRp_knitwork_primer_grip_n_pocket_pure_fragalysis.sdf

>  <scratch_subdir>  (295) 
/opt/xchem-fragalysis-2/maxwin/BulkDock/SCRATCH/217044/C19378-P68

>  <SLURM_JOB_ID>  (295) 
217044

>  <tags>  (295) 
['Fragmenstein placed', 'RdRp_knitwork_primer_grip_n_pocket_pure_fragalysis.sdf Pose OK']

>  <fragmenstein_mode>  (295) 
expansion

>  <csv_name>  (295) 
RdRp_knitwork_primer_grip_n_pocket_pure_split1800_batch010.csv

$$$$
JABKVAACCKXYBC-UHFFFAOYSA-N
     RDKit          3D

 25 26  0  0  0  0  0  0  0  0999 V2000
   -1.2544  -74.0810  -15.4899 C   0  0  0  0  0  0  0  0  0  0  0  0
   -2.4323  -74.2294  -16.4272 C   0  0  0  0  0  0  0  0  0  0  0  0
   -2.9448  -75.2529  -16.6663 O   0  0  0  0  0  0  0  0  0  0  0  0
   -2.7370  -72.7973  -16.9640 N   0  0  0  0  0  0  0  0  0  0  0  0
   -3.7548  -72.3427  -17.7968 C   0  0  0  0  0  0  0  0  0  0  0  0
   -4.7253  -73.2034  -18.2994 C   0  0  0  0  0  0  0  0  0  0  0  0
   -5.7518  -72.7050  -19.1050 C   0  0  0  0  0  0  0  0  0  0  0  0
   -5.8290  -71.3378  -19.4090 C   0  0  0  0  0  0  0  0  0  0  0  0
   -6.9694  -70.8112  -20.2531 C   0  0  0  0  0  0  0  0  0  0  0  0
   -8.3613  -70.9529  -19.6665 C   0  0  0  0  0  0  0  0  0  0  0  0
   -8.5816  -71.3094  -18.3261 C   0  0  0  0  0  0  0  0  0  0  0  0
   -9.8695  -71.5092  -17.8386 C   0  0  0  0  0  0  0  0  0  0  0  0
  -10.9644  -71.3129  -18.6732 C   0  0  0  0  0  0  0  0  0  0  0  0
  -10.7776  -70.8805  -19.9921 C   0  0  0  0  0  0  0  0  0  0  0  0
  -11.9540  -70.6570  -20.8945 C   0  0  0  0  0  0  0  0  0  0  0  0
  -11.8798  -70.9995  -22.0056 O   0  0  0  0  0  0  0  0  0  0  0  0
  -13.1390  -70.0619  -20.1102 N   0  0  0  0  0  0  0  0  0  0  0  0
  -14.4775  -69.6680  -20.5605 C   0  0  0  0  0  0  0  0  0  0  0  0
  -14.4158  -68.2504  -21.1032 C   0  0  0  0  0  0  0  0  0  0  0  0
  -15.4132  -69.7097  -19.3479 C   0  0  0  0  0  0  0  0  0  0  0  0
  -15.0272  -70.6041  -21.6615 C   0  0  0  0  0  0  0  0  0  0  0  0
  -14.4229  -70.3785  -22.9330 O   0  0  0  0  0  0  0  0  0  0  0  0
   -9.4774  -70.7231  -20.4930 C   0  0  0  0  0  0  0  0  0  0  0  0
   -4.8395  -70.4818  -18.9142 C   0  0  0  0  0  0  0  0  0  0  0  0
   -3.8059  -70.9848  -18.1166 C   0  0  0  0  0  0  0  0  0  0  0  0
  1  2  1  0
  2  3  2  0
  2  4  1  0
  4  5  1  0
  5  6  2  0
  6  7  1  0
  7  8  2  0
  8  9  1  0
  9 10  1  0
 10 11  2  0
 11 12  1  0
 12 13  2  0
 13 14  1  0
 14 15  1  0
 15 16  2  0
 15 17  1  0
 17 18  1  0
 18 19  1  0
 18 20  1  0
 18 21  1  0
 21 22  1  0
 14 23  2  0
  8 24  1  0
 24 25  2  0
 25  5  1  0
 23 10  1  0
M  END
>  <fragmenstein_runtime>  (296) 
8.731393

>  <original ID>  (296) 
JABKVAACCKXYBC-UHFFFAOYSA-N

>  <fragmenstein_error>  (296) 
None

>  <ref_pdb>  (296) 
d0248a

>  <Multi-SuCOS>  (296) 
0.401347

>  <SLURM_JOB_NAME>  (296) 
BulkDock.place:Flavi_NS5_RdRp:thumb_site_2_fstein_bulkdock_input_split1000_batch000

>  <HIPPO Compound ID>  (296) 
68744

>  <original SMILES>  (296) 
CC(=O)Nc1ccc(Cc2cccc(C(=O)NC(C)(C)CO)c2)cc1

>  <name>  (296) 
JABKVAACCKXYBC-UHFFFAOYSA-N

>  <HIPPO Pose ID>  (296) 
78140

>  <ref_mols>  (296) 
d0174a,d0248a

>  <exports>  (296) 
['/opt/xchem-fragalysis-2/maxwin/BulkDock/OUTPUTS/thumb_site_2_fstein_bulkdock_input_split1000_batch000_217914.sdf', '/opt/xchem-fragalysis-2/maxwin/BulkDock/OUTPUTS/thumb_site_2_fstein_bulkdock_input_split1000_batch000_217914_fragalysis.sdf', '/opt/xchem-fragalysis-2/maxwin/RdRp_FFF/syndirella/Retro_OK_batch1.sdf']

>  <alias>  (296) 
None

>  <inchikey>  (296) 
JABKVAACCKXYBC-UHFFFAOYSA-N

>  <energy_score>  (296) 
-8.060849

>  <distance_score>  (296) 
0.971164

>  <fragmenstein_outcome>  (296) 
acceptable

>  <merge_set>  (296) 
thumb_site_2_fstein_bulkdock_input

>  <scratch_subdir>  (296) 
/opt/xchem-fragalysis-2/maxwin/BulkDock/SCRATCH/217914/C68744-P22

>  <SLURM_JOB_ID>  (296) 
217914

>  <tags>  (296) 
['Fragmenstein placed', 'thumb_site_2_fstein_bulkdock_input Pose OK']

>  <fragmenstein_mode>  (296) 
expansion

>  <csv_name>  (296) 
thumb_site_2_fstein_bulkdock_input_split1000_batch000.csv

$$$$
MGTHCJZTDZZOJQ-UHFFFAOYSA-N
     RDKit          3D

 23 24  0  0  0  0  0  0  0  0999 V2000
  -14.0221  -69.3661  -23.4719 C   0  0  0  0  0  0  0  0  0  0  0  0
  -14.0973  -70.8107  -22.9577 C   0  0  0  0  0  0  0  0  0  0  0  0
  -15.4666  -71.0278  -22.2907 C   0  0  0  0  0  0  0  0  0  0  0  0
  -13.9465  -71.8194  -24.1223 C   0  0  0  0  0  0  0  0  0  0  0  0
  -12.8420  -71.5347  -24.9711 O   0  0  0  0  0  0  0  0  0  0  0  0
  -13.0628  -71.0097  -21.9391 N   0  0  0  0  0  0  0  0  0  0  0  0
  -11.5303  -71.1281  -22.0766 C   0  0  0  0  0  0  0  0  0  0  0  0
  -10.8583  -71.1631  -23.0274 O   0  0  0  0  0  0  0  0  0  0  0  0
  -10.8813  -71.1336  -20.7280 C   0  0  0  0  0  0  0  0  0  0  0  0
  -11.3823  -70.2906  -19.7339 C   0  0  0  0  0  0  0  0  0  0  0  0
  -10.7968  -70.2845  -18.4795 C   0  0  0  0  0  0  0  0  0  0  0  0
   -9.7014  -71.0878  -18.2085 C   0  0  0  0  0  0  0  0  0  0  0  0
   -9.1749  -71.9489  -19.1790 C   0  0  0  0  0  0  0  0  0  0  0  0
   -8.0267  -72.8908  -18.8363 C   0  0  0  0  0  0  0  0  0  0  0  0
   -7.8092  -73.0754  -17.3183 C   0  0  0  0  0  0  0  0  0  0  0  0
   -6.8166  -74.1057  -16.9842 N   0  0  0  0  0  0  0  0  0  0  0  0
   -6.9103  -74.4453  -15.6087 C   0  0  0  0  0  0  0  0  0  0  0  0
   -8.0118  -75.1762  -15.1421 C   0  0  0  0  0  0  0  0  0  0  0  0
   -8.2051  -75.3908  -13.7760 C   0  0  0  0  0  0  0  0  0  0  0  0
   -7.2962  -74.8739  -12.8566 C   0  0  0  0  0  0  0  0  0  0  0  0
   -6.1898  -74.1560  -13.3066 C   0  0  0  0  0  0  0  0  0  0  0  0
   -5.9927  -73.9505  -14.6763 C   0  0  0  0  0  0  0  0  0  0  0  0
   -9.7579  -71.9373  -20.4634 C   0  0  0  0  0  0  0  0  0  0  0  0
  1  2  1  0
  2  3  1  0
  2  4  1  0
  4  5  1  0
  2  6  1  0
  6  7  1  0
  7  8  2  0
  7  9  1  0
  9 10  2  0
 10 11  1  0
 11 12  2  0
 12 13  1  0
 13 14  1  0
 14 15  1  0
 15 16  1  0
 16 17  1  0
 17 18  2  0
 18 19  1  0
 19 20  2  0
 20 21  1  0
 21 22  2  0
 13 23  2  0
 23  9  1  0
 22 17  1  0
M  END
>  <fragmenstein_runtime>  (297) 
9.742676

>  <original ID>  (297) 
MGTHCJZTDZZOJQ-UHFFFAOYSA-N

>  <fragmenstein_error>  (297) 
None

>  <ref_pdb>  (297) 
d0248a

>  <Multi-SuCOS>  (297) 
0.686562

>  <SLURM_JOB_NAME>  (297) 
BulkDock.place:Flavi_NS5_RdRp:thumb_site_2_fstein_bulkdock_input_split1000_batch000

>  <HIPPO Compound ID>  (297) 
68762

>  <original SMILES>  (297) 
CC(C)(CO)NC(=O)c1cccc(CCNc2ccccc2)c1

>  <name>  (297) 
MGTHCJZTDZZOJQ-UHFFFAOYSA-N

>  <HIPPO Pose ID>  (297) 
78415

>  <ref_mols>  (297) 
d0248a,d0771a

>  <exports>  (297) 
['/opt/xchem-fragalysis-2/maxwin/BulkDock/OUTPUTS/thumb_site_2_fstein_bulkdock_input_split1000_batch000_217914.sdf', '/opt/xchem-fragalysis-2/maxwin/BulkDock/OUTPUTS/thumb_site_2_fstein_bulkdock_input_split1000_batch000_217914_fragalysis.sdf', '/opt/xchem-fragalysis-2/maxwin/RdRp_FFF/syndirella/Retro_OK_batch1.sdf']

>  <alias>  (297) 
None

>  <inchikey>  (297) 
MGTHCJZTDZZOJQ-UHFFFAOYSA-N

>  <energy_score>  (297) 
-18.218029

>  <distance_score>  (297) 
0.918056

>  <fragmenstein_outcome>  (297) 
acceptable

>  <merge_set>  (297) 
thumb_site_2_fstein_bulkdock_input

>  <scratch_subdir>  (297) 
/opt/xchem-fragalysis-2/maxwin/BulkDock/SCRATCH/217914/C68762-P22

>  <SLURM_JOB_ID>  (297) 
217914

>  <tags>  (297) 
['Fragmenstein placed', 'thumb_site_2_fstein_bulkdock_input Pose OK']

>  <fragmenstein_mode>  (297) 
expansion

>  <csv_name>  (297) 
thumb_site_2_fstein_bulkdock_input_split1000_batch000.csv

$$$$
MGTHCJZTDZZOJQ-UHFFFAOYSA-N
     RDKit          3D

 23 24  0  0  0  0  0  0  0  0999 V2000
  -14.0108  -69.2854  -23.1408 C   0  0  0  0  0  0  0  0  0  0  0  0
  -14.0610  -70.7388  -22.6657 C   0  0  0  0  0  0  0  0  0  0  0  0
  -15.4101  -70.9805  -21.9678 C   0  0  0  0  0  0  0  0  0  0  0  0
  -13.9467  -71.7057  -23.8642 C   0  0  0  0  0  0  0  0  0  0  0  0
  -12.8583  -71.4314  -24.7362 O   0  0  0  0  0  0  0  0  0  0  0  0
  -12.9979  -70.9574  -21.6936 N   0  0  0  0  0  0  0  0  0  0  0  0
  -11.4688  -70.9977  -21.8750 C   0  0  0  0  0  0  0  0  0  0  0  0
  -10.8220  -70.9392  -22.8411 O   0  0  0  0  0  0  0  0  0  0  0  0
  -10.7995  -71.0441  -20.5441 C   0  0  0  0  0  0  0  0  0  0  0  0
  -11.3016  -70.2387  -19.5191 C   0  0  0  0  0  0  0  0  0  0  0  0
  -10.7106  -70.2720  -18.2692 C   0  0  0  0  0  0  0  0  0  0  0  0
   -9.6119  -71.0818  -18.0383 C   0  0  0  0  0  0  0  0  0  0  0  0
   -9.0889  -71.9084  -19.0433 C   0  0  0  0  0  0  0  0  0  0  0  0
   -7.9462  -72.8685  -18.7392 C   0  0  0  0  0  0  0  0  0  0  0  0
   -7.7106  -73.0740  -17.2288 C   0  0  0  0  0  0  0  0  0  0  0  0
   -6.7374  -74.1274  -16.9143 N   0  0  0  0  0  0  0  0  0  0  0  0
   -6.8292  -74.4589  -15.5352 C   0  0  0  0  0  0  0  0  0  0  0  0
   -7.9280  -75.1937  -15.0677 C   0  0  0  0  0  0  0  0  0  0  0  0
   -8.1296  -75.3914  -13.7005 C   0  0  0  0  0  0  0  0  0  0  0  0
   -7.2319  -74.8534  -12.7819 C   0  0  0  0  0  0  0  0  0  0  0  0
   -6.1302  -74.1282  -13.2329 C   0  0  0  0  0  0  0  0  0  0  0  0
   -5.9256  -73.9374  -14.6034 C   0  0  0  0  0  0  0  0  0  0  0  0
   -9.6751  -71.8538  -20.3224 C   0  0  0  0  0  0  0  0  0  0  0  0
  1  2  1  0
  2  3  1  0
  2  4  1  0
  4  5  1  0
  2  6  1  0
  6  7  1  0
  7  8  2  0
  7  9  1  0
  9 10  2  0
 10 11  1  0
 11 12  2  0
 12 13  1  0
 13 14  1  0
 14 15  1  0
 15 16  1  0
 16 17  1  0
 17 18  2  0
 18 19  1  0
 19 20  2  0
 20 21  1  0
 21 22  2  0
 13 23  2  0
 23  9  1  0
 22 17  1  0
M  END
>  <fragmenstein_runtime>  (298) 
12.044518

>  <original ID>  (298) 
MGTHCJZTDZZOJQ-UHFFFAOYSA-N

>  <fragmenstein_error>  (298) 
None

>  <ref_pdb>  (298) 
d0771a

>  <Multi-SuCOS>  (298) 
0.690666

>  <SLURM_JOB_NAME>  (298) 
BulkDock.place:Flavi_NS5_RdRp:thumb_site_2_fstein_bulkdock_input_split1000_batch000

>  <HIPPO Compound ID>  (298) 
68762

>  <original SMILES>  (298) 
CC(C)(CO)NC(=O)c1cccc(CCNc2ccccc2)c1

>  <name>  (298) 
MGTHCJZTDZZOJQ-UHFFFAOYSA-N

>  <HIPPO Pose ID>  (298) 
78417

>  <ref_mols>  (298) 
d0248a,d0771a

>  <exports>  (298) 
['/opt/xchem-fragalysis-2/maxwin/BulkDock/OUTPUTS/thumb_site_2_fstein_bulkdock_input_split1000_batch000_217914.sdf', '/opt/xchem-fragalysis-2/maxwin/BulkDock/OUTPUTS/thumb_site_2_fstein_bulkdock_input_split1000_batch000_217914_fragalysis.sdf', '/opt/xchem-fragalysis-2/maxwin/RdRp_FFF/syndirella/Retro_OK_batch1.sdf']

>  <alias>  (298) 
None

>  <inchikey>  (298) 
MGTHCJZTDZZOJQ-UHFFFAOYSA-N

>  <energy_score>  (298) 
-17.417211

>  <distance_score>  (298) 
0.911869

>  <fragmenstein_outcome>  (298) 
acceptable

>  <merge_set>  (298) 
thumb_site_2_fstein_bulkdock_input

>  <scratch_subdir>  (298) 
/opt/xchem-fragalysis-2/maxwin/BulkDock/SCRATCH/217914/C68762-P57

>  <SLURM_JOB_ID>  (298) 
217914

>  <tags>  (298) 
['Fragmenstein placed', 'thumb_site_2_fstein_bulkdock_input Pose OK']

>  <fragmenstein_mode>  (298) 
expansion

>  <csv_name>  (298) 
thumb_site_2_fstein_bulkdock_input_split1000_batch000.csv

$$$$
KWOALRMZHLDTRX-UHFFFAOYSA-N
     RDKit          3D

 23 24  0  0  0  0  0  0  0  0999 V2000
  -15.5148  -70.2943  -21.2661 C   0  0  0  0  0  0  0  0  0  0  0  0
  -14.3594  -70.7924  -21.9955 N   0  0  0  0  0  0  0  0  0  0  0  0
  -13.1052  -71.5398  -21.1675 S   0  0  0  0  0  0  0  0  0  0  0  0
  -12.3798  -72.2651  -22.1888 O   0  0  0  0  0  0  0  0  0  0  0  0
  -13.6705  -72.2102  -20.0169 O   0  0  0  0  0  0  0  0  0  0  0  0
  -12.1523  -70.1114  -20.6425 C   0  0  0  0  0  0  0  0  0  0  0  0
  -10.8370  -70.5521  -20.0585 C   0  0  0  0  0  0  0  0  0  0  0  0
  -10.6738  -70.7320  -18.6794 C   0  0  0  0  0  0  0  0  0  0  0  0
   -9.4274  -71.0906  -18.1491 C   0  0  0  0  0  0  0  0  0  0  0  0
   -8.3208  -71.2532  -18.9831 C   0  0  0  0  0  0  0  0  0  0  0  0
   -7.0594  -71.5969  -18.4395 N   0  0  0  0  0  0  0  0  0  0  0  0
   -5.8065  -71.1586  -18.9480 C   0  0  0  0  0  0  0  0  0  0  0  0
   -5.6756  -69.9318  -19.6071 C   0  0  0  0  0  0  0  0  0  0  0  0
   -4.4331  -69.4564  -20.0230 C   0  0  0  0  0  0  0  0  0  0  0  0
   -3.2807  -70.1801  -19.7384 C   0  0  0  0  0  0  0  0  0  0  0  0
   -2.0526  -69.6056  -20.0526 N   0  0  0  0  0  0  0  0  0  0  0  0
   -0.6038  -70.0914  -19.7543 C   0  0  0  0  0  0  0  0  0  0  0  0
    0.3085  -68.9694  -20.1892 C   0  0  0  0  0  0  0  0  0  0  0  0
   -0.2229  -71.0840  -19.2683 O   0  0  0  0  0  0  0  0  0  0  0  0
   -3.3839  -71.3987  -19.0743 C   0  0  0  0  0  0  0  0  0  0  0  0
   -4.6391  -71.8768  -18.6694 C   0  0  0  0  0  0  0  0  0  0  0  0
   -8.5159  -71.1720  -20.3599 C   0  0  0  0  0  0  0  0  0  0  0  0
   -9.7441  -70.7923  -20.8950 C   0  0  0  0  0  0  0  0  0  0  0  0
  1  2  1  0
  2  3  1  0
  3  4  2  0
  3  5  2  0
  3  6  1  0
  6  7  1  0
  7  8  2  0
  8  9  1  0
  9 10  2  0
 10 11  1  0
 11 12  1  0
 12 13  2  0
 13 14  1  0
 14 15  2  0
 15 16  1  0
 16 17  1  0
 17 18  1  0
 17 19  2  0
 15 20  1  0
 20 21  2  0
 10 22  1  0
 22 23  2  0
 23  7  1  0
 21 12  1  0
M  END
>  <fragmenstein_runtime>  (299) 
4.984286

>  <original ID>  (299) 
KWOALRMZHLDTRX-UHFFFAOYSA-N

>  <fragmenstein_error>  (299) 
None

>  <ref_pdb>  (299) 
d0176a

>  <Multi-SuCOS>  (299) 
0.525473

>  <SLURM_JOB_NAME>  (299) 
BulkDock.place:Flavi_NS5_RdRp:thumb_site_2_fstein_bulkdock_input_split1000_batch000

>  <HIPPO Compound ID>  (299) 
68774

>  <original SMILES>  (299) 
CNS(=O)(=O)Cc1ccc(Nc2ccc(NC(C)=O)cc2)cc1

>  <name>  (299) 
KWOALRMZHLDTRX-UHFFFAOYSA-N

>  <HIPPO Pose ID>  (299) 
78515

>  <ref_mols>  (299) 
d0176a,d0249a

>  <exports>  (299) 
['/opt/xchem-fragalysis-2/maxwin/BulkDock/OUTPUTS/thumb_site_2_fstein_bulkdock_input_split1000_batch000_217914.sdf', '/opt/xchem-fragalysis-2/maxwin/BulkDock/OUTPUTS/thumb_site_2_fstein_bulkdock_input_split1000_batch000_217914_fragalysis.sdf', '/opt/xchem-fragalysis-2/maxwin/RdRp_FFF/syndirella/Retro_OK_batch1.sdf']

>  <alias>  (299) 
None

>  <inchikey>  (299) 
KWOALRMZHLDTRX-UHFFFAOYSA-N

>  <energy_score>  (299) 
-43.03219

>  <distance_score>  (299) 
0.810195

>  <fragmenstein_outcome>  (299) 
acceptable

>  <merge_set>  (299) 
thumb_site_2_fstein_bulkdock_input

>  <scratch_subdir>  (299) 
/opt/xchem-fragalysis-2/maxwin/BulkDock/SCRATCH/217914/C68774-P18

>  <SLURM_JOB_ID>  (299) 
217914

>  <tags>  (299) 
['Fragmenstein placed', 'thumb_site_2_fstein_bulkdock_input Pose OK']

>  <fragmenstein_mode>  (299) 
expansion

>  <csv_name>  (299) 
thumb_site_2_fstein_bulkdock_input_split1000_batch000.csv

$$$$
KWOALRMZHLDTRX-UHFFFAOYSA-N
     RDKit          3D

 23 24  0  0  0  0  0  0  0  0999 V2000
  -15.4320  -70.4677  -21.4727 C   0  0  0  0  0  0  0  0  0  0  0  0
  -14.2834  -71.0637  -22.1399 N   0  0  0  0  0  0  0  0  0  0  0  0
  -13.0216  -71.6811  -21.2174 S   0  0  0  0  0  0  0  0  0  0  0  0
  -12.2685  -72.5086  -22.1348 O   0  0  0  0  0  0  0  0  0  0  0  0
  -13.5897  -72.2218  -20.0009 O   0  0  0  0  0  0  0  0  0  0  0  0
  -12.1018  -70.1819  -20.8489 C   0  0  0  0  0  0  0  0  0  0  0  0
  -10.7529  -70.5343  -20.2808 C   0  0  0  0  0  0  0  0  0  0  0  0
  -10.5948  -70.8892  -18.9355 C   0  0  0  0  0  0  0  0  0  0  0  0
   -9.3300  -71.2218  -18.4340 C   0  0  0  0  0  0  0  0  0  0  0  0
   -8.1986  -71.1771  -19.2551 C   0  0  0  0  0  0  0  0  0  0  0  0
   -6.9362  -71.5385  -18.7245 N   0  0  0  0  0  0  0  0  0  0  0  0
   -5.6721  -71.0548  -19.1479 C   0  0  0  0  0  0  0  0  0  0  0  0
   -5.5247  -69.7819  -19.7056 C   0  0  0  0  0  0  0  0  0  0  0  0
   -4.2717  -69.2631  -20.0266 C   0  0  0  0  0  0  0  0  0  0  0  0
   -3.1229  -69.9904  -19.7373 C   0  0  0  0  0  0  0  0  0  0  0  0
   -1.8927  -69.3685  -19.9282 N   0  0  0  0  0  0  0  0  0  0  0  0
   -0.4461  -69.9072  -19.7273 C   0  0  0  0  0  0  0  0  0  0  0  0
    0.4755  -68.7809  -20.1351 C   0  0  0  0  0  0  0  0  0  0  0  0
   -0.0707  -70.9279  -19.2982 O   0  0  0  0  0  0  0  0  0  0  0  0
   -3.2409  -71.2602  -19.1795 C   0  0  0  0  0  0  0  0  0  0  0  0
   -4.5082  -71.7820  -18.8748 C   0  0  0  0  0  0  0  0  0  0  0  0
   -8.3723  -70.8628  -20.6038 C   0  0  0  0  0  0  0  0  0  0  0  0
   -9.6254  -70.5261  -21.1088 C   0  0  0  0  0  0  0  0  0  0  0  0
  1  2  1  0
  2  3  1  0
  3  4  2  0
  3  5  2  0
  3  6  1  0
  6  7  1  0
  7  8  2  0
  8  9  1  0
  9 10  2  0
 10 11  1  0
 11 12  1  0
 12 13  2  0
 13 14  1  0
 14 15  2  0
 15 16  1  0
 16 17  1  0
 17 18  1  0
 17 19  2  0
 15 20  1  0
 20 21  2  0
 10 22  1  0
 22 23  2  0
 23  7  1  0
 21 12  1  0
M  END
>  <fragmenstein_runtime>  (300) 
5.964484

>  <original ID>  (300) 
KWOALRMZHLDTRX-UHFFFAOYSA-N

>  <fragmenstein_error>  (300) 
None

>  <ref_pdb>  (300) 
d0249a

>  <Multi-SuCOS>  (300) 
0.555452

>  <SLURM_JOB_NAME>  (300) 
BulkDock.place:Flavi_NS5_RdRp:thumb_site_2_fstein_bulkdock_input_split1000_batch000

>  <HIPPO Compound ID>  (300) 
68774

>  <original SMILES>  (300) 
CNS(=O)(=O)Cc1ccc(Nc2ccc(NC(C)=O)cc2)cc1

>  <name>  (300) 
KWOALRMZHLDTRX-UHFFFAOYSA-N

>  <HIPPO Pose ID>  (300) 
78516

>  <ref_mols>  (300) 
d0176a,d0249a

>  <exports>  (300) 
['/opt/xchem-fragalysis-2/maxwin/BulkDock/OUTPUTS/thumb_site_2_fstein_bulkdock_input_split1000_batch000_217914.sdf', '/opt/xchem-fragalysis-2/maxwin/BulkDock/OUTPUTS/thumb_site_2_fstein_bulkdock_input_split1000_batch000_217914_fragalysis.sdf', '/opt/xchem-fragalysis-2/maxwin/RdRp_FFF/syndirella/Retro_OK_batch1.sdf']

>  <alias>  (300) 
None

>  <inchikey>  (300) 
KWOALRMZHLDTRX-UHFFFAOYSA-N

>  <energy_score>  (300) 
-43.520431

>  <distance_score>  (300) 
0.791227

>  <fragmenstein_outcome>  (300) 
acceptable

>  <merge_set>  (300) 
thumb_site_2_fstein_bulkdock_input

>  <scratch_subdir>  (300) 
/opt/xchem-fragalysis-2/maxwin/BulkDock/SCRATCH/217914/C68774-P23

>  <SLURM_JOB_ID>  (300) 
217914

>  <tags>  (300) 
['Fragmenstein placed', 'thumb_site_2_fstein_bulkdock_input Pose OK']

>  <fragmenstein_mode>  (300) 
expansion

>  <csv_name>  (300) 
thumb_site_2_fstein_bulkdock_input_split1000_batch000.csv

$$$$
HEVLHYOMJRCYDO-UHFFFAOYSA-N
     RDKit          3D

 20 21  0  0  0  0  0  0  0  0999 V2000
  -13.0193  -69.7347  -20.3136 C   0  0  0  0  0  0  0  0  0  0  0  0
  -11.9051  -70.1116  -21.1140 O   0  0  0  0  0  0  0  0  0  0  0  0
  -10.7691  -70.4891  -20.4540 C   0  0  0  0  0  0  0  0  0  0  0  0
  -10.6496  -70.7006  -19.0801 C   0  0  0  0  0  0  0  0  0  0  0  0
   -9.4198  -71.0865  -18.5343 C   0  0  0  0  0  0  0  0  0  0  0  0
   -8.2990  -71.2472  -19.3574 C   0  0  0  0  0  0  0  0  0  0  0  0
   -7.0059  -71.6280  -18.7335 C   0  0  0  0  0  0  0  0  0  0  0  0
   -7.0206  -72.3841  -17.7646 O   0  0  0  0  0  0  0  0  0  0  0  0
   -5.7060  -71.0717  -19.1982 C   0  0  0  0  0  0  0  0  0  0  0  0
   -5.6229  -69.8028  -19.7724 C   0  0  0  0  0  0  0  0  0  0  0  0
   -4.3819  -69.2491  -20.0930 C   0  0  0  0  0  0  0  0  0  0  0  0
   -3.2080  -69.9567  -19.8396 C   0  0  0  0  0  0  0  0  0  0  0  0
   -1.9910  -69.3212  -20.0768 N   0  0  0  0  0  0  0  0  0  0  0  0
   -0.5320  -69.8075  -19.8313 C   0  0  0  0  0  0  0  0  0  0  0  0
    0.3612  -68.6263  -20.1342 C   0  0  0  0  0  0  0  0  0  0  0  0
   -0.1301  -70.8428  -19.4655 O   0  0  0  0  0  0  0  0  0  0  0  0
   -3.2834  -71.2369  -19.2942 C   0  0  0  0  0  0  0  0  0  0  0  0
   -4.5284  -71.7881  -18.9613 C   0  0  0  0  0  0  0  0  0  0  0  0
   -8.4276  -71.0701  -20.7354 C   0  0  0  0  0  0  0  0  0  0  0  0
   -9.6562  -70.6841  -21.2763 C   0  0  0  0  0  0  0  0  0  0  0  0
  1  2  1  0
  2  3  1  0
  3  4  2  0
  4  5  1  0
  5  6  2  0
  6  7  1  0
  7  8  2  0
  7  9  1  0
  9 10  2  0
 10 11  1  0
 11 12  2  0
 12 13  1  0
 13 14  1  0
 14 15  1  0
 14 16  2  0
 12 17  1  0
 17 18  2  0
  6 19  1  0
 19 20  2  0
 20  3  1  0
 18  9  1  0
M  END
>  <fragmenstein_runtime>  (301) 
4.691224

>  <original ID>  (301) 
HEVLHYOMJRCYDO-UHFFFAOYSA-N

>  <fragmenstein_error>  (301) 
None

>  <ref_pdb>  (301) 
d0249a

>  <Multi-SuCOS>  (301) 
0.686613

>  <SLURM_JOB_NAME>  (301) 
BulkDock.place:Flavi_NS5_RdRp:thumb_site_2_fstein_bulkdock_input_split1000_batch000

>  <HIPPO Compound ID>  (301) 
68783

>  <original SMILES>  (301) 
COc1ccc(C(=O)c2ccc(NC(C)=O)cc2)cc1

>  <name>  (301) 
HEVLHYOMJRCYDO-UHFFFAOYSA-N

>  <HIPPO Pose ID>  (301) 
78531

>  <ref_mols>  (301) 
d0249a,d0503a

>  <exports>  (301) 
['/opt/xchem-fragalysis-2/maxwin/BulkDock/OUTPUTS/thumb_site_2_fstein_bulkdock_input_split1000_batch000_217914.sdf', '/opt/xchem-fragalysis-2/maxwin/BulkDock/OUTPUTS/thumb_site_2_fstein_bulkdock_input_split1000_batch000_217914_fragalysis.sdf', '/opt/xchem-fragalysis-2/maxwin/RdRp_FFF/syndirella/Retro_OK_batch1.sdf']

>  <alias>  (301) 
None

>  <inchikey>  (301) 
HEVLHYOMJRCYDO-UHFFFAOYSA-N

>  <energy_score>  (301) 
-34.823461

>  <distance_score>  (301) 
0.535452

>  <fragmenstein_outcome>  (301) 
acceptable

>  <merge_set>  (301) 
thumb_site_2_fstein_bulkdock_input

>  <scratch_subdir>  (301) 
/opt/xchem-fragalysis-2/maxwin/BulkDock/SCRATCH/217914/C68783-P23

>  <SLURM_JOB_ID>  (301) 
217914

>  <tags>  (301) 
['Fragmenstein placed', 'thumb_site_2_fstein_bulkdock_input Pose OK']

>  <fragmenstein_mode>  (301) 
expansion

>  <csv_name>  (301) 
thumb_site_2_fstein_bulkdock_input_split1000_batch000.csv

$$$$
HEVLHYOMJRCYDO-UHFFFAOYSA-N
     RDKit          3D

 20 21  0  0  0  0  0  0  0  0999 V2000
  -12.9171  -69.4238  -20.4252 C   0  0  0  0  0  0  0  0  0  0  0  0
  -11.8344  -69.9357  -21.1920 O   0  0  0  0  0  0  0  0  0  0  0  0
  -10.7376  -70.3686  -20.5008 C   0  0  0  0  0  0  0  0  0  0  0  0
  -10.6519  -70.5354  -19.1181 C   0  0  0  0  0  0  0  0  0  0  0  0
   -9.4563  -70.9718  -18.5363 C   0  0  0  0  0  0  0  0  0  0  0  0
   -8.3373  -71.2291  -19.3350 C   0  0  0  0  0  0  0  0  0  0  0  0
   -7.0759  -71.6501  -18.6825 C   0  0  0  0  0  0  0  0  0  0  0  0
   -7.1419  -72.4465  -17.7489 O   0  0  0  0  0  0  0  0  0  0  0  0
   -5.7543  -71.0771  -19.0594 C   0  0  0  0  0  0  0  0  0  0  0  0
   -5.6376  -69.8003  -19.6128 C   0  0  0  0  0  0  0  0  0  0  0  0
   -4.3806  -69.2110  -19.7851 C   0  0  0  0  0  0  0  0  0  0  0  0
   -3.2281  -69.9022  -19.4118 C   0  0  0  0  0  0  0  0  0  0  0  0
   -2.0027  -69.2456  -19.4698 N   0  0  0  0  0  0  0  0  0  0  0  0
   -0.5626  -69.7665  -19.1879 C   0  0  0  0  0  0  0  0  0  0  0  0
    0.3722  -68.6098  -19.4553 C   0  0  0  0  0  0  0  0  0  0  0  0
   -0.1963  -70.8035  -18.7903 O   0  0  0  0  0  0  0  0  0  0  0  0
   -3.3345  -71.2015  -18.9184 C   0  0  0  0  0  0  0  0  0  0  0  0
   -4.5936  -71.7818  -18.7281 C   0  0  0  0  0  0  0  0  0  0  0  0
   -8.4365  -71.1116  -20.7197 C   0  0  0  0  0  0  0  0  0  0  0  0
   -9.6304  -70.6729  -21.2967 C   0  0  0  0  0  0  0  0  0  0  0  0
  1  2  1  0
  2  3  1  0
  3  4  2  0
  4  5  1  0
  5  6  2  0
  6  7  1  0
  7  8  2  0
  7  9  1  0
  9 10  2  0
 10 11  1  0
 11 12  2  0
 12 13  1  0
 13 14  1  0
 14 15  1  0
 14 16  2  0
 12 17  1  0
 17 18  2  0
  6 19  1  0
 19 20  2  0
 20  3  1  0
 18  9  1  0
M  END
>  <fragmenstein_runtime>  (302) 
6.074934

>  <original ID>  (302) 
HEVLHYOMJRCYDO-UHFFFAOYSA-N

>  <fragmenstein_error>  (302) 
None

>  <ref_pdb>  (302) 
d0503a

>  <Multi-SuCOS>  (302) 
0.615744

>  <SLURM_JOB_NAME>  (302) 
BulkDock.place:Flavi_NS5_RdRp:thumb_site_2_fstein_bulkdock_input_split1000_batch000

>  <HIPPO Compound ID>  (302) 
68783

>  <original SMILES>  (302) 
COc1ccc(C(=O)c2ccc(NC(C)=O)cc2)cc1

>  <name>  (302) 
HEVLHYOMJRCYDO-UHFFFAOYSA-N

>  <HIPPO Pose ID>  (302) 
78532

>  <ref_mols>  (302) 
d0249a,d0503a

>  <exports>  (302) 
['/opt/xchem-fragalysis-2/maxwin/BulkDock/OUTPUTS/thumb_site_2_fstein_bulkdock_input_split1000_batch000_217914.sdf', '/opt/xchem-fragalysis-2/maxwin/BulkDock/OUTPUTS/thumb_site_2_fstein_bulkdock_input_split1000_batch000_217914_fragalysis.sdf', '/opt/xchem-fragalysis-2/maxwin/RdRp_FFF/syndirella/Retro_OK_batch1.sdf']

>  <alias>  (302) 
None

>  <inchikey>  (302) 
HEVLHYOMJRCYDO-UHFFFAOYSA-N

>  <energy_score>  (302) 
-34.177038

>  <distance_score>  (302) 
0.80079

>  <fragmenstein_outcome>  (302) 
acceptable

>  <merge_set>  (302) 
thumb_site_2_fstein_bulkdock_input

>  <scratch_subdir>  (302) 
/opt/xchem-fragalysis-2/maxwin/BulkDock/SCRATCH/217914/C68783-P44

>  <SLURM_JOB_ID>  (302) 
217914

>  <tags>  (302) 
['Fragmenstein placed', 'thumb_site_2_fstein_bulkdock_input Pose OK']

>  <fragmenstein_mode>  (302) 
expansion

>  <csv_name>  (302) 
thumb_site_2_fstein_bulkdock_input_split1000_batch000.csv

$$$$
OXSUNYASGXJSAK-UHFFFAOYSA-N
     RDKit          3D

 18 19  0  0  0  0  0  0  0  0999 V2000
    0.3757  -68.5275  -20.1626 C   0  0  0  0  0  0  0  0  0  0  0  0
   -0.5038  -69.7391  -19.9654 C   0  0  0  0  0  0  0  0  0  0  0  0
   -0.0905  -70.7987  -19.6934 O   0  0  0  0  0  0  0  0  0  0  0  0
   -1.9687  -69.2446  -20.1501 N   0  0  0  0  0  0  0  0  0  0  0  0
   -3.1777  -69.9061  -19.9517 C   0  0  0  0  0  0  0  0  0  0  0  0
   -4.3600  -69.1923  -20.1034 C   0  0  0  0  0  0  0  0  0  0  0  0
   -5.5846  -69.7851  -19.7846 C   0  0  0  0  0  0  0  0  0  0  0  0
   -5.6755  -71.1055  -19.3261 C   0  0  0  0  0  0  0  0  0  0  0  0
   -6.9358  -71.6495  -18.9192 N   0  0  0  0  0  0  0  0  0  0  0  0
   -6.9292  -72.7846  -18.0859 N   0  0  0  0  0  0  0  0  0  0  0  0
   -8.2336  -71.2437  -19.3618 C   0  0  0  0  0  0  0  0  0  0  0  0
   -9.3344  -71.2600  -18.4869 C   0  0  0  0  0  0  0  0  0  0  0  0
  -10.6054  -70.8608  -18.9122 C   0  0  0  0  0  0  0  0  0  0  0  0
  -10.8043  -70.4593  -20.2302 C   0  0  0  0  0  0  0  0  0  0  0  0
   -9.7343  -70.4557  -21.1197 C   0  0  0  0  0  0  0  0  0  0  0  0
   -8.4644  -70.8442  -20.6862 C   0  0  0  0  0  0  0  0  0  0  0  0
   -4.4706  -71.8221  -19.2270 C   0  0  0  0  0  0  0  0  0  0  0  0
   -3.2354  -71.2316  -19.5376 C   0  0  0  0  0  0  0  0  0  0  0  0
  1  2  1  0
  2  3  2  0
  2  4  1  0
  4  5  1  0
  5  6  2  0
  6  7  1  0
  7  8  2  0
  8  9  1  0
  9 10  1  0
  9 11  1  0
 11 12  2  0
 12 13  1  0
 13 14  2  0
 14 15  1  0
 15 16  2  0
  8 17  1  0
 17 18  2  0
 18  5  1  0
 16 11  1  0
M  END
>  <fragmenstein_runtime>  (303) 
4.957763

>  <original ID>  (303) 
OXSUNYASGXJSAK-UHFFFAOYSA-N

>  <fragmenstein_error>  (303) 
None

>  <ref_pdb>  (303) 
d0249a

>  <Multi-SuCOS>  (303) 
0.813045

>  <SLURM_JOB_NAME>  (303) 
BulkDock.place:Flavi_NS5_RdRp:thumb_site_2_fstein_bulkdock_input_split1000_batch000

>  <HIPPO Compound ID>  (303) 
68789

>  <original SMILES>  (303) 
CC(=O)Nc1ccc(N(N)c2ccccc2)cc1

>  <name>  (303) 
OXSUNYASGXJSAK-UHFFFAOYSA-N

>  <HIPPO Pose ID>  (303) 
78569

>  <ref_mols>  (303) 
d0249a,d0693a

>  <exports>  (303) 
['/opt/xchem-fragalysis-2/maxwin/BulkDock/OUTPUTS/thumb_site_2_fstein_bulkdock_input_split1000_batch000_217914.sdf', '/opt/xchem-fragalysis-2/maxwin/BulkDock/OUTPUTS/thumb_site_2_fstein_bulkdock_input_split1000_batch000_217914_fragalysis.sdf', '/opt/xchem-fragalysis-2/maxwin/RdRp_FFF/syndirella/Retro_OK_batch1.sdf']

>  <alias>  (303) 
None

>  <inchikey>  (303) 
OXSUNYASGXJSAK-UHFFFAOYSA-N

>  <energy_score>  (303) 
-24.866944

>  <distance_score>  (303) 
0.948072

>  <fragmenstein_outcome>  (303) 
acceptable

>  <merge_set>  (303) 
thumb_site_2_fstein_bulkdock_input

>  <scratch_subdir>  (303) 
/opt/xchem-fragalysis-2/maxwin/BulkDock/SCRATCH/217914/C68789-P23

>  <SLURM_JOB_ID>  (303) 
217914

>  <tags>  (303) 
['Fragmenstein placed', 'thumb_site_2_fstein_bulkdock_input Pose OK']

>  <fragmenstein_mode>  (303) 
expansion

>  <csv_name>  (303) 
thumb_site_2_fstein_bulkdock_input_split1000_batch000.csv

$$$$
PASWEVDTJXEMNV-NSHDSACASA-N
     RDKit          3D

 17 19  0  0  0  0  0  0  0  0999 V2000
  -30.3699  -29.8928  -20.7255 C   0  0  0  0  0  0  0  0  0  0  0  0
  -29.4010  -29.8580  -19.6147 C   0  0  0  0  0  0  0  0  0  0  0  0
  -29.7380  -29.6781  -18.2720 C   0  0  0  0  0  0  0  0  0  0  0  0
  -28.5620  -29.7807  -17.5957 C   0  0  0  0  0  0  0  0  0  0  0  0
  -28.2523  -29.7357  -16.2176 C   0  0  0  0  0  0  0  0  0  0  0  0
  -26.9779  -29.8943  -15.8416 C   0  0  0  0  0  0  0  0  0  0  0  0
  -25.9089  -30.0369  -16.7928 C   0  0  0  0  0  0  0  0  0  0  0  0
  -26.1721  -30.1257  -18.1116 C   0  0  0  0  0  0  0  0  0  0  0  0
  -25.1290  -30.3054  -19.0259 N   0  0  0  0  0  0  0  0  0  0  0  0
  -24.7256  -31.6760  -19.3908 C   0  0  0  0  0  0  0  0  0  0  0  0
  -23.2465  -31.9033  -19.0858 C   0  0  1  0  0  0  0  0  0  0  0  0
  -22.9142  -31.9375  -17.5975 C   0  0  0  0  0  0  0  0  0  0  0  0
  -21.5903  -32.6688  -17.5765 C   0  0  0  0  0  0  0  0  0  0  0  0
  -21.7645  -33.7237  -18.5674 N   0  0  0  0  0  0  0  0  0  0  0  0
  -22.6829  -33.2225  -19.6011 C   0  0  0  0  0  0  0  0  0  0  0  0
  -27.5389  -30.0019  -18.5332 N   0  0  0  0  0  0  0  0  0  0  0  0
  -28.0886  -30.0580  -19.7964 N   0  0  0  0  0  0  0  0  0  0  0  0
  1  2  1  0
  2  3  1  0
  3  4  2  0
  4  5  1  0
  5  6  2  0
  6  7  1  0
  7  8  2  0
  8  9  1  0
  9 10  1  0
 11 10  1  1
 11 12  1  0
 12 13  1  0
 13 14  1  0
 14 15  1  0
  8 16  1  0
 16 17  1  0
 17  2  2  0
 16  4  1  0
 15 11  1  0
M  END
>  <fragmenstein_runtime>  (304) 
2.724094

>  <original ID>  (304) 
PASWEVDTJXEMNV-NSHDSACASA-N

>  <fragmenstein_error>  (304) 
None

>  <ref_pdb>  (304) 
z0637a

>  <Multi-SuCOS>  (304) 
0.715306

>  <SLURM_JOB_NAME>  (304) 
BulkDock.place:Flavi_NS5_RdRp:green_site_rna_tunnel_fstein_bulkdock_input_split1000_batch001

>  <HIPPO Compound ID>  (304) 
67990

>  <original SMILES>  (304) 
Cc1cc2cccc(NC[C@H]3CCNC3)n2n1

>  <name>  (304) 
PASWEVDTJXEMNV-NSHDSACASA-N

>  <HIPPO Pose ID>  (304) 
79512

>  <ref_mols>  (304) 
z0496a,z0637a

>  <exports>  (304) 
['/opt/xchem-fragalysis-2/maxwin/BulkDock/OUTPUTS/green_site_rna_tunnel_fstein_bulkdock_input_split1000_batch001_217910.sdf', '/opt/xchem-fragalysis-2/maxwin/BulkDock/OUTPUTS/green_site_rna_tunnel_fstein_bulkdock_input_fragalysis.sdf', '/opt/xchem-fragalysis-2/maxwin/RdRp_FFF/syndirella/Retro_OK_batch1.sdf']

>  <alias>  (304) 
None

>  <inchikey>  (304) 
PASWEVDTJXEMNV-NSHDSACASA-N

>  <energy_score>  (304) 
-12.918401

>  <distance_score>  (304) 
0.817329

>  <fragmenstein_outcome>  (304) 
acceptable

>  <merge_set>  (304) 
green_site_rna_tunnel_fstein_bulkdock_input_fragalysis.sdf

>  <scratch_subdir>  (304) 
/opt/xchem-fragalysis-2/maxwin/BulkDock/SCRATCH/217910/C67990-P151

>  <SLURM_JOB_ID>  (304) 
217910

>  <tags>  (304) 
['Fragmenstein placed', 'green_site_rna_tunnel_fstein_bulkdock_input_fragalysis.sdf Pose OK']

>  <fragmenstein_mode>  (304) 
expansion

>  <csv_name>  (304) 
green_site_rna_tunnel_fstein_bulkdock_input_split1000_batch001.csv

$$$$
CXGJWWKUVNWMBN-PSASIEDQSA-N
     RDKit          3D

 16 17  0  0  0  0  0  0  0  0999 V2000
    3.8123  -71.8232  -19.6448 C   0  0  0  0  0  0  0  0  0  0  0  0
    2.6294  -71.0141  -19.1305 C   0  0  2  0  0  0  0  0  0  0  0  0
    1.7036  -70.6092  -20.2766 C   0  0  0  0  0  0  0  0  0  0  0  0
    0.5714  -69.7407  -19.7317 C   0  0  2  0  0  0  0  0  0  0  0  0
   -0.2734  -69.2845  -20.8459 N   0  0  0  0  0  0  0  0  0  0  0  0
   -1.6589  -69.3442  -20.5312 C   0  0  0  0  0  0  0  0  0  0  0  0
   -2.3236  -68.1511  -20.2005 C   0  0  0  0  0  0  0  0  0  0  0  0
   -3.6519  -68.1786  -19.7898 C   0  0  0  0  0  0  0  0  0  0  0  0
   -4.3243  -69.3877  -19.7158 C   0  0  0  0  0  0  0  0  0  0  0  0
   -5.6013  -69.4306  -19.3153 F   0  0  0  0  0  0  0  0  0  0  0  0
   -3.6894  -70.5669  -20.0472 C   0  0  0  0  0  0  0  0  0  0  0  0
   -2.3662  -70.5773  -20.4410 N   0  0  0  0  0  4  0  0  0  0  0  0
   -1.8303  -71.7135  -20.6889 O   0  0  0  0  0  1  0  0  0  0  0  0
    1.1533  -68.5481  -18.9679 C   0  0  0  0  0  0  0  0  0  0  0  0
    2.1269  -69.0357  -17.9060 C   0  0  0  0  0  0  0  0  0  0  0  0
    3.1494  -69.8477  -18.4830 O   0  0  0  0  0  0  0  0  0  0  0  0
  2  1  1  6
  2  3  1  0
  3  4  1  0
  4  5  1  6
  5  6  1  0
  6  7  2  0
  7  8  1  0
  8  9  2  0
  9 10  1  0
  9 11  1  0
 11 12  2  0
 12 13  1  0
  4 14  1  0
 14 15  1  0
 15 16  1  0
 16  2  1  0
 12  6  1  0
M  CHG  2  12   1  13  -1
M  END
>  <fragmenstein_runtime>  (305) 
2.295948

>  <original ID>  (305) 
CXGJWWKUVNWMBN-PSASIEDQSA-N

>  <fragmenstein_error>  (305) 
None

>  <ref_pdb>  (305) 
d0210a

>  <Multi-SuCOS>  (305) 
0.595566

>  <SLURM_JOB_NAME>  (305) 
BulkDock.place:Flavi_NS5_RdRp:thumb_site_2_fstein_bulkdock_input_split1000_batch000

>  <HIPPO Compound ID>  (305) 
68843

>  <original SMILES>  (305) 
C[C@@H]1C[C@H](Nc2ccc(F)c[n+]2[O-])CCO1

>  <name>  (305) 
CXGJWWKUVNWMBN-PSASIEDQSA-N

>  <HIPPO Pose ID>  (305) 
79908

>  <ref_mols>  (305) 
d0210a,d0279a

>  <exports>  (305) 
['/opt/xchem-fragalysis-2/maxwin/BulkDock/OUTPUTS/thumb_site_2_fstein_bulkdock_input_split1000_batch000_217914.sdf', '/opt/xchem-fragalysis-2/maxwin/BulkDock/OUTPUTS/thumb_site_2_fstein_bulkdock_input_split1000_batch000_217914_fragalysis.sdf', '/opt/xchem-fragalysis-2/maxwin/RdRp_FFF/syndirella/Retro_OK_batch1.sdf']

>  <alias>  (305) 
None

>  <inchikey>  (305) 
CXGJWWKUVNWMBN-PSASIEDQSA-N

>  <energy_score>  (305) 
-42.342107

>  <distance_score>  (305) 
0.696932

>  <fragmenstein_outcome>  (305) 
acceptable

>  <merge_set>  (305) 
thumb_site_2_fstein_bulkdock_input

>  <scratch_subdir>  (305) 
/opt/xchem-fragalysis-2/maxwin/BulkDock/SCRATCH/217914/C68843-P21

>  <SLURM_JOB_ID>  (305) 
217914

>  <tags>  (305) 
['Fragmenstein placed', 'thumb_site_2_fstein_bulkdock_input Pose OK']

>  <fragmenstein_mode>  (305) 
expansion

>  <csv_name>  (305) 
thumb_site_2_fstein_bulkdock_input_split1000_batch000.csv

$$$$
CXGJWWKUVNWMBN-PSASIEDQSA-N
     RDKit          3D

 16 17  0  0  0  0  0  0  0  0999 V2000
    3.9849  -71.6044  -19.0630 C   0  0  0  0  0  0  0  0  0  0  0  0
    2.6097  -71.0781  -18.6758 C   0  0  2  0  0  0  0  0  0  0  0  0
    1.7978  -70.7004  -19.9115 C   0  0  0  0  0  0  0  0  0  0  0  0
    0.4472  -70.1204  -19.4855 C   0  0  2  0  0  0  0  0  0  0  0  0
   -0.3011  -69.6784  -20.6847 N   0  0  0  0  0  0  0  0  0  0  0  0
   -1.7217  -69.8542  -20.5664 C   0  0  0  0  0  0  0  0  0  0  0  0
   -2.5347  -68.7454  -20.8347 C   0  0  0  0  0  0  0  0  0  0  0  0
   -3.8864  -68.7589  -20.5039 C   0  0  0  0  0  0  0  0  0  0  0  0
   -4.4634  -69.9109  -20.0161 C   0  0  0  0  0  0  0  0  0  0  0  0
   -5.7529  -69.9191  -19.6581 F   0  0  0  0  0  0  0  0  0  0  0  0
   -3.7149  -71.0623  -19.9131 C   0  0  0  0  0  0  0  0  0  0  0  0
   -2.3578  -71.0643  -20.1913 N   0  0  0  0  0  4  0  0  0  0  0  0
   -1.7389  -72.1780  -20.0893 O   0  0  0  0  0  1  0  0  0  0  0  0
    0.6522  -68.9648  -18.4966 C   0  0  0  0  0  0  0  0  0  0  0  0
    1.5723  -69.3927  -17.3616 C   0  0  0  0  0  0  0  0  0  0  0  0
    2.8007  -69.9184  -17.8596 O   0  0  0  0  0  0  0  0  0  0  0  0
  2  1  1  6
  2  3  1  0
  3  4  1  0
  4  5  1  6
  5  6  1  0
  6  7  2  0
  7  8  1  0
  8  9  2  0
  9 10  1  0
  9 11  1  0
 11 12  2  0
 12 13  1  0
  4 14  1  0
 14 15  1  0
 15 16  1  0
 16  2  1  0
 12  6  1  0
M  CHG  2  12   1  13  -1
M  END
>  <fragmenstein_runtime>  (306) 
2.308733

>  <original ID>  (306) 
CXGJWWKUVNWMBN-PSASIEDQSA-N

>  <fragmenstein_error>  (306) 
None

>  <ref_pdb>  (306) 
d0279a

>  <Multi-SuCOS>  (306) 
0.529913

>  <SLURM_JOB_NAME>  (306) 
BulkDock.place:Flavi_NS5_RdRp:thumb_site_2_fstein_bulkdock_input_split1000_batch000

>  <HIPPO Compound ID>  (306) 
68843

>  <original SMILES>  (306) 
C[C@@H]1C[C@H](Nc2ccc(F)c[n+]2[O-])CCO1

>  <name>  (306) 
CXGJWWKUVNWMBN-PSASIEDQSA-N

>  <HIPPO Pose ID>  (306) 
79910

>  <ref_mols>  (306) 
d0210a,d0279a

>  <exports>  (306) 
['/opt/xchem-fragalysis-2/maxwin/BulkDock/OUTPUTS/thumb_site_2_fstein_bulkdock_input_split1000_batch000_217914.sdf', '/opt/xchem-fragalysis-2/maxwin/BulkDock/OUTPUTS/thumb_site_2_fstein_bulkdock_input_split1000_batch000_217914_fragalysis.sdf', '/opt/xchem-fragalysis-2/maxwin/RdRp_FFF/syndirella/Retro_OK_batch1.sdf']

>  <alias>  (306) 
None

>  <inchikey>  (306) 
CXGJWWKUVNWMBN-PSASIEDQSA-N

>  <energy_score>  (306) 
-41.472484

>  <distance_score>  (306) 
0.883194

>  <fragmenstein_outcome>  (306) 
acceptable

>  <merge_set>  (306) 
thumb_site_2_fstein_bulkdock_input

>  <scratch_subdir>  (306) 
/opt/xchem-fragalysis-2/maxwin/BulkDock/SCRATCH/217914/C68843-P29

>  <SLURM_JOB_ID>  (306) 
217914

>  <tags>  (306) 
['Fragmenstein placed', 'thumb_site_2_fstein_bulkdock_input Pose OK']

>  <fragmenstein_mode>  (306) 
expansion

>  <csv_name>  (306) 
thumb_site_2_fstein_bulkdock_input_split1000_batch000.csv

$$$$
YHUNEUUBKJWLKI-UHFFFAOYSA-N
     RDKit          3D

 15 16  0  0  0  0  0  0  0  0999 V2000
   -6.4239  -72.6461  -17.8410 N   0  0  0  0  0  0  0  0  0  0  0  0
   -6.4432  -71.6956  -18.9101 N   0  0  0  0  0  0  0  0  0  0  0  0
   -7.7228  -71.3000  -19.3601 C   0  0  0  0  0  0  0  0  0  0  0  0
   -7.8988  -70.3671  -20.3827 C   0  0  0  0  0  0  0  0  0  0  0  0
   -9.1774  -70.0283  -20.8239 C   0  0  0  0  0  0  0  0  0  0  0  0
  -10.2683  -70.6003  -20.2066 C   0  0  0  0  0  0  0  0  0  0  0  0
  -11.5098  -70.2820  -20.5901 F   0  0  0  0  0  0  0  0  0  0  0  0
  -10.0446  -71.4844  -19.1726 C   0  0  0  0  0  0  0  0  0  0  0  0
   -8.8087  -71.8379  -18.7343 N   0  0  0  0  0  0  0  0  0  0  0  0
   -5.2610  -71.5404  -19.7946 C   0  0  0  0  0  0  0  0  0  0  0  0
   -4.5225  -70.2334  -19.4844 C   0  0  0  0  0  0  0  0  0  0  0  0
   -3.3097  -70.0977  -20.3966 C   0  0  0  0  0  0  0  0  0  0  0  0
   -2.4447  -71.2256  -20.2635 O   0  0  0  0  0  0  0  0  0  0  0  0
   -3.0821  -72.4543  -20.6029 C   0  0  0  0  0  0  0  0  0  0  0  0
   -4.2747  -72.7127  -19.6946 C   0  0  0  0  0  0  0  0  0  0  0  0
  1  2  1  0
  2  3  1  0
  3  4  2  0
  4  5  1  0
  5  6  2  0
  6  7  1  0
  6  8  1  0
  8  9  2  0
  2 10  1  0
 10 11  1  0
 11 12  1  0
 12 13  1  0
 13 14  1  0
 14 15  1  0
  9  3  1  0
 15 10  1  0
M  END
>  <fragmenstein_runtime>  (307) 
1.908713

>  <original ID>  (307) 
YHUNEUUBKJWLKI-UHFFFAOYSA-N

>  <fragmenstein_error>  (307) 
None

>  <ref_pdb>  (307) 
d0279a

>  <Multi-SuCOS>  (307) 
0.859058

>  <SLURM_JOB_NAME>  (307) 
BulkDock.place:Flavi_NS5_RdRp:thumb_site_2_fstein_bulkdock_input_split1000_batch000

>  <HIPPO Compound ID>  (307) 
68857

>  <original SMILES>  (307) 
NN(c1ccc(F)cn1)C1CCOCC1

>  <name>  (307) 
YHUNEUUBKJWLKI-UHFFFAOYSA-N

>  <HIPPO Pose ID>  (307) 
79999

>  <ref_mols>  (307) 
d0279a,d0644a

>  <exports>  (307) 
['/opt/xchem-fragalysis-2/maxwin/BulkDock/OUTPUTS/thumb_site_2_fstein_bulkdock_input_split1000_batch000_217914.sdf', '/opt/xchem-fragalysis-2/maxwin/BulkDock/OUTPUTS/thumb_site_2_fstein_bulkdock_input_split1000_batch000_217914_fragalysis.sdf', '/opt/xchem-fragalysis-2/maxwin/RdRp_FFF/syndirella/Retro_OK_batch1.sdf']

>  <alias>  (307) 
None

>  <inchikey>  (307) 
YHUNEUUBKJWLKI-UHFFFAOYSA-N

>  <energy_score>  (307) 
-37.636242

>  <distance_score>  (307) 
0.603398

>  <fragmenstein_outcome>  (307) 
acceptable

>  <merge_set>  (307) 
thumb_site_2_fstein_bulkdock_input

>  <scratch_subdir>  (307) 
/opt/xchem-fragalysis-2/maxwin/BulkDock/SCRATCH/217914/C68857-P29

>  <SLURM_JOB_ID>  (307) 
217914

>  <tags>  (307) 
['Fragmenstein placed', 'thumb_site_2_fstein_bulkdock_input Pose OK']

>  <fragmenstein_mode>  (307) 
expansion

>  <csv_name>  (307) 
thumb_site_2_fstein_bulkdock_input_split1000_batch000.csv

$$$$
YHUNEUUBKJWLKI-UHFFFAOYSA-N
     RDKit          3D

 15 16  0  0  0  0  0  0  0  0999 V2000
   -6.4282  -72.6248  -17.8307 N   0  0  0  0  0  0  0  0  0  0  0  0
   -6.4399  -71.7084  -18.9287 N   0  0  0  0  0  0  0  0  0  0  0  0
   -7.7151  -71.3057  -19.3827 C   0  0  0  0  0  0  0  0  0  0  0  0
   -7.8850  -70.4245  -20.4514 C   0  0  0  0  0  0  0  0  0  0  0  0
   -9.1611  -70.0818  -20.8931 C   0  0  0  0  0  0  0  0  0  0  0  0
  -10.2557  -70.5938  -20.2306 C   0  0  0  0  0  0  0  0  0  0  0  0
  -11.4952  -70.2664  -20.6128 F   0  0  0  0  0  0  0  0  0  0  0  0
  -10.0375  -71.4279  -19.1549 C   0  0  0  0  0  0  0  0  0  0  0  0
   -8.8037  -71.7867  -18.7158 N   0  0  0  0  0  0  0  0  0  0  0  0
   -5.2521  -71.5770  -19.8084 C   0  0  0  0  0  0  0  0  0  0  0  0
   -4.5250  -70.2552  -19.5363 C   0  0  0  0  0  0  0  0  0  0  0  0
   -3.3088  -70.1422  -20.4460 C   0  0  0  0  0  0  0  0  0  0  0  0
   -2.4364  -71.2565  -20.2674 O   0  0  0  0  0  0  0  0  0  0  0  0
   -3.0602  -72.5024  -20.5676 C   0  0  0  0  0  0  0  0  0  0  0  0
   -4.2586  -72.7381  -19.6604 C   0  0  0  0  0  0  0  0  0  0  0  0
  1  2  1  0
  2  3  1  0
  3  4  2  0
  4  5  1  0
  5  6  2  0
  6  7  1  0
  6  8  1  0
  8  9  2  0
  2 10  1  0
 10 11  1  0
 11 12  1  0
 12 13  1  0
 13 14  1  0
 14 15  1  0
  9  3  1  0
 15 10  1  0
M  END
>  <fragmenstein_runtime>  (308) 
1.923007

>  <original ID>  (308) 
YHUNEUUBKJWLKI-UHFFFAOYSA-N

>  <fragmenstein_error>  (308) 
None

>  <ref_pdb>  (308) 
d0644a

>  <Multi-SuCOS>  (308) 
0.864224

>  <SLURM_JOB_NAME>  (308) 
BulkDock.place:Flavi_NS5_RdRp:thumb_site_2_fstein_bulkdock_input_split1000_batch000

>  <HIPPO Compound ID>  (308) 
68857

>  <original SMILES>  (308) 
NN(c1ccc(F)cn1)C1CCOCC1

>  <name>  (308) 
YHUNEUUBKJWLKI-UHFFFAOYSA-N

>  <HIPPO Pose ID>  (308) 
80000

>  <ref_mols>  (308) 
d0279a,d0644a

>  <exports>  (308) 
['/opt/xchem-fragalysis-2/maxwin/BulkDock/OUTPUTS/thumb_site_2_fstein_bulkdock_input_split1000_batch000_217914.sdf', '/opt/xchem-fragalysis-2/maxwin/BulkDock/OUTPUTS/thumb_site_2_fstein_bulkdock_input_split1000_batch000_217914_fragalysis.sdf', '/opt/xchem-fragalysis-2/maxwin/RdRp_FFF/syndirella/Retro_OK_batch1.sdf']

>  <alias>  (308) 
None

>  <inchikey>  (308) 
YHUNEUUBKJWLKI-UHFFFAOYSA-N

>  <energy_score>  (308) 
-37.560967

>  <distance_score>  (308) 
0.582712

>  <fragmenstein_outcome>  (308) 
acceptable

>  <merge_set>  (308) 
thumb_site_2_fstein_bulkdock_input

>  <scratch_subdir>  (308) 
/opt/xchem-fragalysis-2/maxwin/BulkDock/SCRATCH/217914/C68857-P52

>  <SLURM_JOB_ID>  (308) 
217914

>  <tags>  (308) 
['Fragmenstein placed', 'thumb_site_2_fstein_bulkdock_input Pose OK']

>  <fragmenstein_mode>  (308) 
expansion

>  <csv_name>  (308) 
thumb_site_2_fstein_bulkdock_input_split1000_batch000.csv

$$$$
PVTLGNALXGMKHO-CYBMUJFWSA-N
     RDKit          3D

 19 21  0  0  0  0  0  0  0  0999 V2000
  -11.6699  -70.3940  -20.6427 F   0  0  0  0  0  0  0  0  0  0  0  0
  -10.4209  -70.6832  -20.2623 C   0  0  0  0  0  0  0  0  0  0  0  0
   -9.3494  -70.0504  -20.8529 C   0  0  0  0  0  0  0  0  0  0  0  0
   -8.0681  -70.3471  -20.4037 C   0  0  0  0  0  0  0  0  0  0  0  0
   -7.8802  -71.3085  -19.4172 C   0  0  0  0  0  0  0  0  0  0  0  0
   -6.6338  -71.6634  -18.9286 N   0  0  0  0  0  0  0  0  0  0  0  0
   -5.4906  -71.7095  -19.8428 C   0  0  2  0  0  0  0  0  0  0  0  0
   -4.5974  -72.8931  -19.5000 C   0  0  0  0  0  0  0  0  0  0  0  0
   -3.4012  -72.9369  -20.4415 C   0  0  0  0  0  0  0  0  0  0  0  0
   -3.0344  -71.6644  -20.9659 O   0  0  0  0  0  0  0  0  0  0  0  0
   -3.2118  -70.5391  -20.0922 C   0  0  0  0  0  0  0  0  0  0  0  0
   -2.3305  -70.6652  -18.8183 C   0  0  0  0  0  0  0  0  0  0  0  0
   -0.9060  -70.1336  -18.9704 C   0  0  0  0  0  0  0  0  0  0  0  0
   -0.4370  -70.1388  -20.4091 C   0  0  0  0  0  0  0  0  0  0  0  0
   -1.3292  -69.2769  -21.3016 C   0  0  0  0  0  0  0  0  0  0  0  0
   -2.8041  -69.3076  -20.9185 C   0  0  0  0  0  0  0  0  0  0  0  0
   -4.7042  -70.4001  -19.7285 C   0  0  0  0  0  0  0  0  0  0  0  0
   -8.9241  -71.9283  -18.8305 N   0  0  0  0  0  0  0  0  0  0  0  0
  -10.1698  -71.6025  -19.2634 C   0  0  0  0  0  0  0  0  0  0  0  0
  1  2  1  0
  2  3  2  0
  3  4  1  0
  4  5  2  0
  5  6  1  0
  7  6  1  1
  7  8  1  0
  8  9  1  0
  9 10  1  0
 10 11  1  0
 11 12  1  0
 12 13  1  0
 13 14  1  0
 14 15  1  0
 15 16  1  0
 11 17  1  0
  5 18  1  0
 18 19  2  0
 19  2  1  0
 17  7  1  0
 16 11  1  0
M  END
>  <fragmenstein_runtime>  (309) 
3.071657

>  <original ID>  (309) 
PVTLGNALXGMKHO-CYBMUJFWSA-N

>  <fragmenstein_error>  (309) 
None

>  <ref_pdb>  (309) 
d0279a

>  <Multi-SuCOS>  (309) 
0.757665

>  <SLURM_JOB_NAME>  (309) 
BulkDock.place:Flavi_NS5_RdRp:thumb_site_2_fstein_bulkdock_input_split1000_batch000

>  <HIPPO Compound ID>  (309) 
68858

>  <original SMILES>  (309) 
Fc1ccc(N[C@@H]2CCOC3(CCCCC3)C2)nc1

>  <name>  (309) 
PVTLGNALXGMKHO-CYBMUJFWSA-N

>  <HIPPO Pose ID>  (309) 
80002

>  <ref_mols>  (309) 
d0279a,d0693a

>  <exports>  (309) 
['/opt/xchem-fragalysis-2/maxwin/BulkDock/OUTPUTS/thumb_site_2_fstein_bulkdock_input_split1000_batch000_217914.sdf', '/opt/xchem-fragalysis-2/maxwin/BulkDock/OUTPUTS/thumb_site_2_fstein_bulkdock_input_split1000_batch000_217914_fragalysis.sdf', '/opt/xchem-fragalysis-2/maxwin/RdRp_FFF/syndirella/Retro_OK_batch1.sdf']

>  <alias>  (309) 
None

>  <inchikey>  (309) 
PVTLGNALXGMKHO-CYBMUJFWSA-N

>  <energy_score>  (309) 
-29.084642

>  <distance_score>  (309) 
0.925007

>  <fragmenstein_outcome>  (309) 
acceptable

>  <merge_set>  (309) 
thumb_site_2_fstein_bulkdock_input

>  <scratch_subdir>  (309) 
/opt/xchem-fragalysis-2/maxwin/BulkDock/SCRATCH/217914/C68858-P29

>  <SLURM_JOB_ID>  (309) 
217914

>  <tags>  (309) 
['Fragmenstein placed', 'thumb_site_2_fstein_bulkdock_input Pose OK']

>  <fragmenstein_mode>  (309) 
expansion

>  <csv_name>  (309) 
thumb_site_2_fstein_bulkdock_input_split1000_batch000.csv

$$$$
PVTLGNALXGMKHO-CYBMUJFWSA-N
     RDKit          3D

 19 21  0  0  0  0  0  0  0  0999 V2000
  -11.6735  -69.8644  -20.3031 F   0  0  0  0  0  0  0  0  0  0  0  0
  -10.4492  -70.3545  -20.0797 C   0  0  0  0  0  0  0  0  0  0  0  0
   -9.5523  -70.4873  -21.1158 C   0  0  0  0  0  0  0  0  0  0  0  0
   -8.3021  -71.0343  -20.8407 C   0  0  0  0  0  0  0  0  0  0  0  0
   -7.9646  -71.4063  -19.5436 C   0  0  0  0  0  0  0  0  0  0  0  0
   -6.7716  -72.0043  -19.2143 N   0  0  0  0  0  0  0  0  0  0  0  0
   -5.5398  -71.8221  -19.9711 C   0  0  2  0  0  0  0  0  0  0  0  0
   -4.5332  -72.8752  -19.5260 C   0  0  0  0  0  0  0  0  0  0  0  0
   -3.2175  -72.7109  -20.2707 C   0  0  0  0  0  0  0  0  0  0  0  0
   -3.0416  -71.4091  -20.8187 O   0  0  0  0  0  0  0  0  0  0  0  0
   -3.4676  -70.3178  -19.9920 C   0  0  0  0  0  0  0  0  0  0  0  0
   -2.7287  -70.2914  -18.6398 C   0  0  0  0  0  0  0  0  0  0  0  0
   -1.2139  -70.1539  -18.7666 C   0  0  0  0  0  0  0  0  0  0  0  0
   -0.7467  -69.7079  -20.1442 C   0  0  0  0  0  0  0  0  0  0  0  0
   -1.6517  -68.6530  -20.7690 C   0  0  0  0  0  0  0  0  0  0  0  0
   -3.1344  -69.0235  -20.7619 C   0  0  0  0  0  0  0  0  0  0  0  0
   -4.9930  -70.4042  -19.7872 C   0  0  0  0  0  0  0  0  0  0  0  0
   -8.8334  -71.2581  -18.5226 N   0  0  0  0  0  0  0  0  0  0  0  0
  -10.0564  -70.7466  -18.8152 C   0  0  0  0  0  0  0  0  0  0  0  0
  1  2  1  0
  2  3  2  0
  3  4  1  0
  4  5  2  0
  5  6  1  0
  7  6  1  1
  7  8  1  0
  8  9  1  0
  9 10  1  0
 10 11  1  0
 11 12  1  0
 12 13  1  0
 13 14  1  0
 14 15  1  0
 15 16  1  0
 11 17  1  0
  5 18  1  0
 18 19  2  0
 19  2  1  0
 17  7  1  0
 16 11  1  0
M  END
>  <fragmenstein_runtime>  (310) 
3.195578

>  <original ID>  (310) 
PVTLGNALXGMKHO-CYBMUJFWSA-N

>  <fragmenstein_error>  (310) 
None

>  <ref_pdb>  (310) 
d0693a

>  <Multi-SuCOS>  (310) 
0.74555

>  <SLURM_JOB_NAME>  (310) 
BulkDock.place:Flavi_NS5_RdRp:thumb_site_2_fstein_bulkdock_input_split1000_batch000

>  <HIPPO Compound ID>  (310) 
68858

>  <original SMILES>  (310) 
Fc1ccc(N[C@@H]2CCOC3(CCCCC3)C2)nc1

>  <name>  (310) 
PVTLGNALXGMKHO-CYBMUJFWSA-N

>  <HIPPO Pose ID>  (310) 
80005

>  <ref_mols>  (310) 
d0279a,d0693a

>  <exports>  (310) 
['/opt/xchem-fragalysis-2/maxwin/BulkDock/OUTPUTS/thumb_site_2_fstein_bulkdock_input_split1000_batch000_217914.sdf', '/opt/xchem-fragalysis-2/maxwin/BulkDock/OUTPUTS/thumb_site_2_fstein_bulkdock_input_split1000_batch000_217914_fragalysis.sdf', '/opt/xchem-fragalysis-2/maxwin/RdRp_FFF/syndirella/Retro_OK_batch1.sdf']

>  <alias>  (310) 
None

>  <inchikey>  (310) 
PVTLGNALXGMKHO-CYBMUJFWSA-N

>  <energy_score>  (310) 
-30.639998

>  <distance_score>  (310) 
0.821698

>  <fragmenstein_outcome>  (310) 
acceptable

>  <merge_set>  (310) 
thumb_site_2_fstein_bulkdock_input

>  <scratch_subdir>  (310) 
/opt/xchem-fragalysis-2/maxwin/BulkDock/SCRATCH/217914/C68858-P53

>  <SLURM_JOB_ID>  (310) 
217914

>  <tags>  (310) 
['Fragmenstein placed', 'thumb_site_2_fstein_bulkdock_input Pose OK']

>  <fragmenstein_mode>  (310) 
expansion

>  <csv_name>  (310) 
thumb_site_2_fstein_bulkdock_input_split1000_batch000.csv

$$$$
RHSMPJRYUSHPSC-VIFPVBQESA-N
     RDKit          3D

 22 23  0  0  0  0  0  0  0  0999 V2000
  -14.5718  -40.0314  -25.9273 O   0  0  0  0  0  0  0  0  0  0  0  0
  -15.1951  -40.5804  -25.1152 C   0  0  0  0  0  0  0  0  0  0  0  0
  -16.5233  -41.3301  -25.2235 N   0  0  0  0  0  0  0  0  0  0  0  0
  -17.4299  -41.4876  -26.3485 C   0  0  2  0  0  0  0  0  0  0  0  0
  -17.0251  -40.6106  -27.5502 C   0  0  0  0  0  0  0  0  0  0  0  0
  -16.7430  -39.2607  -27.1909 O   0  0  0  0  0  0  0  0  0  0  0  0
  -18.9287  -41.3147  -25.9636 C   0  0  0  0  0  0  0  0  0  0  0  0
  -19.5053  -39.9592  -25.9689 N   0  0  0  0  0  0  0  0  0  0  0  0
  -20.9738  -40.0130  -25.8548 C   0  0  0  0  0  0  0  0  0  0  0  0
  -21.5756  -38.6759  -25.4302 C   0  0  0  0  0  0  0  0  0  0  0  0
  -21.0851  -38.2824  -24.0376 C   0  0  0  0  0  0  0  0  0  0  0  0
  -19.7143  -38.8828  -23.7250 C   0  0  0  0  0  0  0  0  0  0  0  0
  -18.8883  -39.0510  -24.9959 C   0  0  0  0  0  0  0  0  0  0  0  0
  -14.7373  -40.5081  -23.7488 C   0  0  0  0  0  0  0  0  0  0  0  0
  -14.0911  -39.3778  -23.3269 N   0  0  0  0  0  0  0  0  0  0  0  0
  -13.6457  -39.4424  -22.0634 N   0  0  0  0  0  0  0  0  0  0  0  0
  -14.0003  -40.6690  -21.6733 C   0  0  0  0  0  0  0  0  0  0  0  0
  -14.6940  -41.3867  -22.6757 C   0  0  0  0  0  0  0  0  0  0  0  0
  -15.1719  -42.7793  -22.5855 C   0  0  0  0  0  0  0  0  0  0  0  0
  -15.0292  -43.3140  -21.3487 F   0  0  0  0  0  0  0  0  0  0  0  0
  -16.5025  -42.8398  -22.8798 F   0  0  0  0  0  0  0  0  0  0  0  0
  -14.5529  -43.5983  -23.4658 F   0  0  0  0  0  0  0  0  0  0  0  0
  1  2  2  0
  2  3  1  0
  3  4  1  0
  4  5  1  6
  5  6  1  0
  4  7  1  0
  7  8  1  0
  8  9  1  0
  9 10  1  0
 10 11  1  0
 11 12  1  0
 12 13  1  0
  2 14  1  0
 14 15  1  0
 15 16  1  0
 16 17  2  0
 17 18  1  0
 18 19  1  0
 19 20  1  0
 19 21  1  0
 19 22  1  0
 13  8  1  0
 18 14  2  0
M  END
>  <fragmenstein_runtime>  (311) 
6.091508

>  <original ID>  (311) 
RHSMPJRYUSHPSC-VIFPVBQESA-N

>  <fragmenstein_error>  (311) 
None

>  <ref_pdb>  (311) 
d0851a

>  <Multi-SuCOS>  (311) 
0.524778

>  <SLURM_JOB_NAME>  (311) 
BulkDock.place:Flavi_NS5_RdRp:RdRp_knitwork_primer_grip_n_pocket_pure_split1800_batch002

>  <HIPPO Compound ID>  (311) 
23381

>  <original SMILES>  (311) 
O=C(N[C@H](CO)CN1CCCCC1)c1[nH]ncc1C(F)(F)F

>  <name>  (311) 
RHSMPJRYUSHPSC-VIFPVBQESA-N

>  <HIPPO Pose ID>  (311) 
80342

>  <ref_mols>  (311) 
d0160a,d0851a

>  <exports>  (311) 
['/opt/xchem-fragalysis-2/maxwin/BulkDock/OUTPUTS/RdRp_knitwork_primer_grip_n_pocket_pure_split1800_batch002_217036.sdf', '/opt/xchem-fragalysis-2/maxwin/BulkDock/OUTPUTS/RdRp_knitwork_primer_grip_n_pocket_pure_fragalysis.sdf', '/opt/xchem-fragalysis-2/maxwin/RdRp_FFF/syndirella/Retro_OK_batch1.sdf']

>  <alias>  (311) 
None

>  <inchikey>  (311) 
RHSMPJRYUSHPSC-VIFPVBQESA-N

>  <energy_score>  (311) 
-34.393185

>  <distance_score>  (311) 
0.94456

>  <fragmenstein_outcome>  (311) 
acceptable

>  <merge_set>  (311) 
RdRp_knitwork_primer_grip_n_pocket_pure_fragalysis.sdf

>  <scratch_subdir>  (311) 
/opt/xchem-fragalysis-2/maxwin/BulkDock/SCRATCH/217036/C23381-P66

>  <SLURM_JOB_ID>  (311) 
217036

>  <tags>  (311) 
['Fragmenstein placed', 'RdRp_knitwork_primer_grip_n_pocket_pure_fragalysis.sdf Pose OK']

>  <fragmenstein_mode>  (311) 
expansion

>  <csv_name>  (311) 
RdRp_knitwork_primer_grip_n_pocket_pure_split1800_batch002.csv

$$$$
MKWUNOYKUUHWRR-UHFFFAOYSA-N
     RDKit          3D

 16 17  0  0  0  0  0  0  0  0999 V2000
  -11.1118  -70.9353  -21.3291 C   0  0  0  0  0  0  0  0  0  0  0  0
   -9.7046  -70.3595  -21.2907 C   0  0  0  0  0  0  0  0  0  0  0  0
   -8.8549  -70.9985  -20.2124 C   0  0  0  0  0  0  0  0  0  0  0  0
   -9.3769  -70.9889  -18.8306 C   0  0  0  0  0  0  0  0  0  0  0  0
   -8.6270  -71.5693  -17.8964 C   0  0  0  0  0  0  0  0  0  0  0  0
   -7.3027  -72.1286  -18.2295 C   0  0  0  0  0  0  0  0  0  0  0  0
   -6.6321  -72.6106  -17.3215 O   0  0  0  0  0  0  0  0  0  0  0  0
   -6.9209  -72.0461  -19.5577 N   0  0  0  0  0  0  0  0  0  0  0  0
   -5.5587  -72.4155  -19.9390 C   0  0  0  0  0  0  0  0  0  0  0  0
   -4.7552  -71.2112  -20.2763 C   0  0  0  0  0  0  0  0  0  0  0  0
   -3.6412  -70.9886  -21.0543 C   0  0  0  0  0  0  0  0  0  0  0  0
   -3.4324  -69.5929  -20.9788 C   0  0  0  0  0  0  0  0  0  0  0  0
   -2.3744  -68.7701  -21.6109 C   0  0  0  0  0  0  0  0  0  0  0  0
   -4.3655  -69.0159  -20.2167 N   0  0  0  0  0  0  0  0  0  0  0  0
   -5.1611  -70.0279  -19.7426 O   0  0  0  0  0  0  0  0  0  0  0  0
   -7.7117  -71.5022  -20.5534 N   0  0  0  0  0  0  0  0  0  0  0  0
  1  2  1  0
  2  3  1  0
  3  4  1  0
  4  5  2  0
  5  6  1  0
  6  7  2  0
  6  8  1  0
  8  9  1  0
  9 10  1  0
 10 11  2  0
 11 12  1  0
 12 13  1  0
 12 14  2  0
 14 15  1  0
  8 16  1  0
 16  3  2  0
 15 10  1  0
M  END
>  <fragmenstein_runtime>  (312) 
1.664568

>  <original ID>  (312) 
MKWUNOYKUUHWRR-UHFFFAOYSA-N

>  <fragmenstein_error>  (312) 
None

>  <ref_pdb>  (312) 
d0283a

>  <Multi-SuCOS>  (312) 
0.794043

>  <SLURM_JOB_NAME>  (312) 
BulkDock.place:Flavi_NS5_RdRp:thumb_site_2_fstein_bulkdock_input_split1000_batch000

>  <HIPPO Compound ID>  (312) 
68927

>  <original SMILES>  (312) 
CCc1ccc(=O)n(Cc2cc(C)no2)n1

>  <name>  (312) 
MKWUNOYKUUHWRR-UHFFFAOYSA-N

>  <HIPPO Pose ID>  (312) 
80525

>  <ref_mols>  (312) 
d0283a,d0379a

>  <exports>  (312) 
['/opt/xchem-fragalysis-2/maxwin/BulkDock/OUTPUTS/thumb_site_2_fstein_bulkdock_input_split1000_batch000_217914.sdf', '/opt/xchem-fragalysis-2/maxwin/BulkDock/OUTPUTS/thumb_site_2_fstein_bulkdock_input_split1000_batch000_217914_fragalysis.sdf', '/opt/xchem-fragalysis-2/maxwin/RdRp_FFF/syndirella/Retro_OK_batch1.sdf']

>  <alias>  (312) 
None

>  <inchikey>  (312) 
MKWUNOYKUUHWRR-UHFFFAOYSA-N

>  <energy_score>  (312) 
-30.25281

>  <distance_score>  (312) 
0.738167

>  <fragmenstein_outcome>  (312) 
acceptable

>  <merge_set>  (312) 
thumb_site_2_fstein_bulkdock_input

>  <scratch_subdir>  (312) 
/opt/xchem-fragalysis-2/maxwin/BulkDock/SCRATCH/217914/C68927-P30

>  <SLURM_JOB_ID>  (312) 
217914

>  <tags>  (312) 
['Fragmenstein placed', 'thumb_site_2_fstein_bulkdock_input Pose OK']

>  <fragmenstein_mode>  (312) 
expansion

>  <csv_name>  (312) 
thumb_site_2_fstein_bulkdock_input_split1000_batch000.csv

$$$$
MKWUNOYKUUHWRR-UHFFFAOYSA-N
     RDKit          3D

 16 17  0  0  0  0  0  0  0  0999 V2000
  -11.0820  -70.9734  -21.3515 C   0  0  0  0  0  0  0  0  0  0  0  0
   -9.6881  -70.3656  -21.3184 C   0  0  0  0  0  0  0  0  0  0  0  0
   -8.8266  -70.9683  -20.2307 C   0  0  0  0  0  0  0  0  0  0  0  0
   -9.3547  -70.9495  -18.8511 C   0  0  0  0  0  0  0  0  0  0  0  0
   -8.6113  -71.5287  -17.9114 C   0  0  0  0  0  0  0  0  0  0  0  0
   -7.2878  -72.0928  -18.2377 C   0  0  0  0  0  0  0  0  0  0  0  0
   -6.6284  -72.5853  -17.3275 O   0  0  0  0  0  0  0  0  0  0  0  0
   -6.8934  -72.0013  -19.5626 N   0  0  0  0  0  0  0  0  0  0  0  0
   -5.5463  -72.4183  -19.9394 C   0  0  0  0  0  0  0  0  0  0  0  0
   -4.6908  -71.2315  -20.1785 C   0  0  0  0  0  0  0  0  0  0  0  0
   -3.8167  -70.8607  -21.1739 C   0  0  0  0  0  0  0  0  0  0  0  0
   -3.3673  -69.5794  -20.7856 C   0  0  0  0  0  0  0  0  0  0  0  0
   -2.4232  -68.6724  -21.4793 C   0  0  0  0  0  0  0  0  0  0  0  0
   -3.9173  -69.2149  -19.6228 N   0  0  0  0  0  0  0  0  0  0  0  0
   -4.7337  -70.2516  -19.2379 O   0  0  0  0  0  0  0  0  0  0  0  0
   -7.6733  -71.4546  -20.5642 N   0  0  0  0  0  0  0  0  0  0  0  0
  1  2  1  0
  2  3  1  0
  3  4  1  0
  4  5  2  0
  5  6  1  0
  6  7  2  0
  6  8  1  0
  8  9  1  0
  9 10  1  0
 10 11  2  0
 11 12  1  0
 12 13  1  0
 12 14  2  0
 14 15  1  0
  8 16  1  0
 16  3  2  0
 15 10  1  0
M  END
>  <fragmenstein_runtime>  (313) 
1.614356

>  <original ID>  (313) 
MKWUNOYKUUHWRR-UHFFFAOYSA-N

>  <fragmenstein_error>  (313) 
None

>  <ref_pdb>  (313) 
d0379a

>  <Multi-SuCOS>  (313) 
0.810484

>  <SLURM_JOB_NAME>  (313) 
BulkDock.place:Flavi_NS5_RdRp:thumb_site_2_fstein_bulkdock_input_split1000_batch000

>  <HIPPO Compound ID>  (313) 
68927

>  <original SMILES>  (313) 
CCc1ccc(=O)n(Cc2cc(C)no2)n1

>  <name>  (313) 
MKWUNOYKUUHWRR-UHFFFAOYSA-N

>  <HIPPO Pose ID>  (313) 
80527

>  <ref_mols>  (313) 
d0283a,d0379a

>  <exports>  (313) 
['/opt/xchem-fragalysis-2/maxwin/BulkDock/OUTPUTS/thumb_site_2_fstein_bulkdock_input_split1000_batch000_217914.sdf', '/opt/xchem-fragalysis-2/maxwin/BulkDock/OUTPUTS/thumb_site_2_fstein_bulkdock_input_split1000_batch000_217914_fragalysis.sdf', '/opt/xchem-fragalysis-2/maxwin/RdRp_FFF/syndirella/Retro_OK_batch1.sdf']

>  <alias>  (313) 
None

>  <inchikey>  (313) 
MKWUNOYKUUHWRR-UHFFFAOYSA-N

>  <energy_score>  (313) 
-31.851307

>  <distance_score>  (313) 
0.726038

>  <fragmenstein_outcome>  (313) 
acceptable

>  <merge_set>  (313) 
thumb_site_2_fstein_bulkdock_input

>  <scratch_subdir>  (313) 
/opt/xchem-fragalysis-2/maxwin/BulkDock/SCRATCH/217914/C68927-P35

>  <SLURM_JOB_ID>  (313) 
217914

>  <tags>  (313) 
['Fragmenstein placed', 'thumb_site_2_fstein_bulkdock_input Pose OK']

>  <fragmenstein_mode>  (313) 
expansion

>  <csv_name>  (313) 
thumb_site_2_fstein_bulkdock_input_split1000_batch000.csv

$$$$
PRYCZZKOYFDPQN-UHFFFAOYSA-N
     RDKit          3D

 17 19  0  0  0  0  0  0  0  0999 V2000
   -2.4629  -68.6835  -21.4713 C   0  0  0  0  0  0  0  0  0  0  0  0
   -3.4278  -69.5589  -20.7647 C   0  0  0  0  0  0  0  0  0  0  0  0
   -3.9304  -70.8207  -21.1495 C   0  0  0  0  0  0  0  0  0  0  0  0
   -4.8038  -71.1617  -20.1423 C   0  0  0  0  0  0  0  0  0  0  0  0
   -5.6741  -72.3267  -19.8832 C   0  0  0  0  0  0  0  0  0  0  0  0
   -7.0177  -71.9267  -19.5321 N   0  0  0  0  0  0  0  0  0  0  0  0
   -7.8958  -71.3169  -20.4495 N   0  0  0  0  0  0  0  0  0  0  0  0
   -9.0470  -71.0575  -19.7237 C   0  0  0  0  0  0  0  0  0  0  0  0
   -8.9143  -71.3134  -18.4143 C   0  0  0  0  0  0  0  0  0  0  0  0
   -7.5550  -71.8677  -18.2555 C   0  0  0  0  0  0  0  0  0  0  0  0
   -7.0667  -72.2286  -17.2005 O   0  0  0  0  0  0  0  0  0  0  0  0
   -9.9906  -71.2791  -17.4026 C   0  0  0  0  0  0  0  0  0  0  0  0
  -11.3547  -71.3782  -18.0987 C   0  0  0  0  0  0  0  0  0  0  0  0
  -11.4569  -70.4336  -19.3042 C   0  0  0  0  0  0  0  0  0  0  0  0
  -10.3491  -70.6722  -20.3469 C   0  0  0  0  0  0  0  0  0  0  0  0
   -4.7948  -70.1871  -19.1974 O   0  0  0  0  0  0  0  0  0  0  0  0
   -3.9419  -69.1832  -19.5895 N   0  0  0  0  0  0  0  0  0  0  0  0
  1  2  1  0
  2  3  1  0
  3  4  2  0
  4  5  1  0
  5  6  1  0
  6  7  1  0
  7  8  1  0
  8  9  2  0
  9 10  1  0
 10 11  2  0
  9 12  1  0
 12 13  1  0
 13 14  1  0
 14 15  1  0
  4 16  1  0
 16 17  1  0
 17  2  2  0
 10  6  1  0
 15  8  1  0
M  END
>  <fragmenstein_runtime>  (314) 
2.104749

>  <original ID>  (314) 
PRYCZZKOYFDPQN-UHFFFAOYSA-N

>  <fragmenstein_error>  (314) 
None

>  <ref_pdb>  (314) 
d0379a

>  <Multi-SuCOS>  (314) 
0.73039

>  <SLURM_JOB_NAME>  (314) 
BulkDock.place:Flavi_NS5_RdRp:thumb_site_2_fstein_bulkdock_input_split1000_batch000

>  <HIPPO Compound ID>  (314) 
68932

>  <original SMILES>  (314) 
Cc1cc(Cn2[nH]c3c(c2=O)CCCC3)on1

>  <name>  (314) 
PRYCZZKOYFDPQN-UHFFFAOYSA-N

>  <HIPPO Pose ID>  (314) 
80533

>  <ref_mols>  (314) 
d0379a,d0567a

>  <exports>  (314) 
['/opt/xchem-fragalysis-2/maxwin/BulkDock/OUTPUTS/thumb_site_2_fstein_bulkdock_input_split1000_batch000_217914.sdf', '/opt/xchem-fragalysis-2/maxwin/BulkDock/OUTPUTS/thumb_site_2_fstein_bulkdock_input_split1000_batch000_217914_fragalysis.sdf', '/opt/xchem-fragalysis-2/maxwin/RdRp_FFF/syndirella/Retro_OK_batch1.sdf']

>  <alias>  (314) 
None

>  <inchikey>  (314) 
PRYCZZKOYFDPQN-UHFFFAOYSA-N

>  <energy_score>  (314) 
-37.935655

>  <distance_score>  (314) 
0.912024

>  <fragmenstein_outcome>  (314) 
acceptable

>  <merge_set>  (314) 
thumb_site_2_fstein_bulkdock_input

>  <scratch_subdir>  (314) 
/opt/xchem-fragalysis-2/maxwin/BulkDock/SCRATCH/217914/C68932-P35

>  <SLURM_JOB_ID>  (314) 
217914

>  <tags>  (314) 
['Fragmenstein placed', 'thumb_site_2_fstein_bulkdock_input Pose OK']

>  <fragmenstein_mode>  (314) 
expansion

>  <csv_name>  (314) 
thumb_site_2_fstein_bulkdock_input_split1000_batch000.csv

$$$$
PRYCZZKOYFDPQN-UHFFFAOYSA-N
     RDKit          3D

 17 19  0  0  0  0  0  0  0  0999 V2000
   -2.4127  -68.3781  -21.1016 C   0  0  0  0  0  0  0  0  0  0  0  0
   -3.4726  -69.2331  -20.5160 C   0  0  0  0  0  0  0  0  0  0  0  0
   -3.7149  -70.6090  -20.7285 C   0  0  0  0  0  0  0  0  0  0  0  0
   -4.8430  -70.8810  -19.9876 C   0  0  0  0  0  0  0  0  0  0  0  0
   -5.6498  -72.1057  -19.7692 C   0  0  0  0  0  0  0  0  0  0  0  0
   -7.0359  -71.8312  -19.4571 N   0  0  0  0  0  0  0  0  0  0  0  0
   -7.9239  -71.2383  -20.3748 N   0  0  0  0  0  0  0  0  0  0  0  0
   -9.1037  -71.0570  -19.6722 C   0  0  0  0  0  0  0  0  0  0  0  0
   -8.9933  -71.3533  -18.3704 C   0  0  0  0  0  0  0  0  0  0  0  0
   -7.6189  -71.8664  -18.2007 C   0  0  0  0  0  0  0  0  0  0  0  0
   -7.1499  -72.2682  -17.1520 O   0  0  0  0  0  0  0  0  0  0  0  0
  -10.0821  -71.3443  -17.3720 C   0  0  0  0  0  0  0  0  0  0  0  0
  -11.4474  -71.3786  -18.0732 C   0  0  0  0  0  0  0  0  0  0  0  0
  -11.5171  -70.4301  -19.2779 C   0  0  0  0  0  0  0  0  0  0  0  0
  -10.3984  -70.6727  -20.3084 C   0  0  0  0  0  0  0  0  0  0  0  0
   -5.2108  -69.7546  -19.3212 O   0  0  0  0  0  0  0  0  0  0  0  0
   -4.3613  -68.7221  -19.6590 N   0  0  0  0  0  0  0  0  0  0  0  0
  1  2  1  0
  2  3  1  0
  3  4  2  0
  4  5  1  0
  5  6  1  0
  6  7  1  0
  7  8  1  0
  8  9  2  0
  9 10  1  0
 10 11  2  0
  9 12  1  0
 12 13  1  0
 13 14  1  0
 14 15  1  0
  4 16  1  0
 16 17  1  0
 17  2  2  0
 10  6  1  0
 15  8  1  0
M  END
>  <fragmenstein_runtime>  (315) 
2.114656

>  <original ID>  (315) 
PRYCZZKOYFDPQN-UHFFFAOYSA-N

>  <fragmenstein_error>  (315) 
None

>  <ref_pdb>  (315) 
d0567a

>  <Multi-SuCOS>  (315) 
0.730813

>  <SLURM_JOB_NAME>  (315) 
BulkDock.place:Flavi_NS5_RdRp:thumb_site_2_fstein_bulkdock_input_split1000_batch000

>  <HIPPO Compound ID>  (315) 
68932

>  <original SMILES>  (315) 
Cc1cc(Cn2[nH]c3c(c2=O)CCCC3)on1

>  <name>  (315) 
PRYCZZKOYFDPQN-UHFFFAOYSA-N

>  <HIPPO Pose ID>  (315) 
80534

>  <ref_mols>  (315) 
d0379a,d0567a

>  <exports>  (315) 
['/opt/xchem-fragalysis-2/maxwin/BulkDock/OUTPUTS/thumb_site_2_fstein_bulkdock_input_split1000_batch000_217914.sdf', '/opt/xchem-fragalysis-2/maxwin/BulkDock/OUTPUTS/thumb_site_2_fstein_bulkdock_input_split1000_batch000_217914_fragalysis.sdf', '/opt/xchem-fragalysis-2/maxwin/RdRp_FFF/syndirella/Retro_OK_batch1.sdf']

>  <alias>  (315) 
None

>  <inchikey>  (315) 
PRYCZZKOYFDPQN-UHFFFAOYSA-N

>  <energy_score>  (315) 
-37.482937

>  <distance_score>  (315) 
0.889492

>  <fragmenstein_outcome>  (315) 
acceptable

>  <merge_set>  (315) 
thumb_site_2_fstein_bulkdock_input

>  <scratch_subdir>  (315) 
/opt/xchem-fragalysis-2/maxwin/BulkDock/SCRATCH/217914/C68932-P46

>  <SLURM_JOB_ID>  (315) 
217914

>  <tags>  (315) 
['Fragmenstein placed', 'thumb_site_2_fstein_bulkdock_input Pose OK']

>  <fragmenstein_mode>  (315) 
expansion

>  <csv_name>  (315) 
thumb_site_2_fstein_bulkdock_input_split1000_batch000.csv

$$$$
GVDCPXLSWPNOSL-GFCCVEGCSA-N
     RDKit          3D

 23 25  0  0  0  0  0  0  0  0999 V2000
  -17.1191  -39.8490  -22.3659 C   0  0  0  0  0  0  0  0  0  0  0  0
  -17.5673  -40.9061  -23.3885 C   0  0  2  0  0  0  0  0  0  0  0  0
  -18.4922  -41.9445  -22.7176 C   0  0  0  0  0  0  0  0  0  0  0  0
  -17.7893  -42.8371  -21.6932 C   0  0  0  0  0  0  0  0  0  0  0  0
  -17.2008  -42.3955  -20.7856 O   0  0  0  0  0  0  0  0  0  0  0  0
  -18.0544  -44.3163  -22.0998 N   0  0  0  0  0  0  0  0  0  0  0  0
  -17.5931  -45.4857  -21.5531 C   0  0  0  0  0  0  0  0  0  0  0  0
  -18.1258  -46.7032  -21.8703 C   0  0  0  0  0  0  0  0  0  0  0  0
  -17.5461  -47.6047  -21.0389 N   0  0  0  0  0  0  0  0  0  0  0  0
  -16.5075  -47.1143  -20.3531 N   0  0  0  0  0  0  0  0  0  0  0  0
  -16.5322  -45.7891  -20.6411 C   0  0  0  0  0  0  0  0  0  0  0  0
  -15.4917  -44.8855  -20.1560 C   0  0  0  0  0  0  0  0  0  0  0  0
  -14.7585  -44.1266  -21.0678 C   0  0  0  0  0  0  0  0  0  0  0  0
  -13.7592  -43.2915  -20.5874 C   0  0  0  0  0  0  0  0  0  0  0  0
  -13.5160  -43.2434  -19.2235 C   0  0  0  0  0  0  0  0  0  0  0  0
  -14.2866  -44.0394  -18.3921 C   0  0  0  0  0  0  0  0  0  0  0  0
  -15.2539  -44.8775  -18.8201 N   0  0  0  0  0  0  0  0  0  0  0  0
  -16.3672  -41.5518  -24.1558 C   0  0  0  0  0  0  0  0  0  0  0  0
  -15.3748  -40.5122  -24.6994 C   0  0  0  0  0  0  0  0  0  0  0  0
  -16.0139  -39.6198  -25.7695 C   0  0  0  0  0  0  0  0  0  0  0  0
  -16.9720  -40.3225  -26.6420 N   0  0  0  0  0  0  0  0  0  0  0  0
  -16.6694  -41.7486  -26.7088 C   0  0  0  0  0  0  0  0  0  0  0  0
  -16.8237  -42.4337  -25.3449 C   0  0  0  0  0  0  0  0  0  0  0  0
  2  1  1  1
  2  3  1  0
  3  4  1  0
  4  5  2  0
  4  6  1  0
  6  7  1  0
  7  8  2  0
  8  9  1  0
  9 10  1  0
 10 11  2  0
 11 12  1  0
 12 13  2  0
 13 14  1  0
 14 15  2  0
 15 16  1  0
 16 17  2  0
  2 18  1  0
 18 19  1  0
 19 20  1  0
 20 21  1  0
 21 22  1  0
 22 23  1  0
 11  7  1  0
 17 12  1  0
 23 18  1  0
M  END
>  <fragmenstein_runtime>  (316) 
9.444357

>  <original ID>  (316) 
GVDCPXLSWPNOSL-GFCCVEGCSA-N

>  <fragmenstein_error>  (316) 
None

>  <ref_pdb>  (316) 
d0851a

>  <Multi-SuCOS>  (316) 
0.405498

>  <SLURM_JOB_NAME>  (316) 
BulkDock.place:Flavi_NS5_RdRp:RdRp_knitwork_primer_grip_n_pocket_pure_split1800_batch002

>  <HIPPO Compound ID>  (316) 
15716

>  <original SMILES>  (316) 
C[C@H](CC(=O)Nc1c[nH]nc1-c1ccccn1)C1CCNCC1

>  <name>  (316) 
GVDCPXLSWPNOSL-GFCCVEGCSA-N

>  <HIPPO Pose ID>  (316) 
80857

>  <ref_mols>  (316) 
d0472a,d0851a

>  <exports>  (316) 
['/opt/xchem-fragalysis-2/maxwin/BulkDock/OUTPUTS/RdRp_knitwork_primer_grip_n_pocket_pure_split1800_batch002_217036.sdf', '/opt/xchem-fragalysis-2/maxwin/BulkDock/OUTPUTS/RdRp_knitwork_primer_grip_n_pocket_pure_fragalysis.sdf', '/opt/xchem-fragalysis-2/maxwin/RdRp_FFF/syndirella/Retro_OK_batch1.sdf']

>  <alias>  (316) 
None

>  <inchikey>  (316) 
GVDCPXLSWPNOSL-GFCCVEGCSA-N

>  <energy_score>  (316) 
-54.795659

>  <distance_score>  (316) 
0.982923

>  <fragmenstein_outcome>  (316) 
acceptable

>  <merge_set>  (316) 
RdRp_knitwork_primer_grip_n_pocket_pure_fragalysis.sdf

>  <scratch_subdir>  (316) 
/opt/xchem-fragalysis-2/maxwin/BulkDock/SCRATCH/217036/C15716-P66

>  <SLURM_JOB_ID>  (316) 
217036

>  <tags>  (316) 
['Fragmenstein placed', 'RdRp_knitwork_primer_grip_n_pocket_pure_fragalysis.sdf Pose OK']

>  <fragmenstein_mode>  (316) 
expansion

>  <csv_name>  (316) 
RdRp_knitwork_primer_grip_n_pocket_pure_split1800_batch002.csv

$$$$
OBILXVZHRBQCQW-GFCCVEGCSA-N
     RDKit          3D

 19 21  0  0  0  0  0  0  0  0999 V2000
  -11.1260  -70.4279  -21.7339 C   0  0  0  0  0  0  0  0  0  0  0  0
  -10.2623  -71.1633  -20.7333 C   0  0  2  0  0  0  0  0  0  0  0  0
  -10.7482  -71.0199  -19.3009 C   0  0  0  0  0  0  0  0  0  0  0  0
   -9.5496  -71.5229  -18.5133 C   0  0  0  0  0  0  0  0  0  0  0  0
   -8.3663  -71.0544  -19.2828 N   0  0  0  0  0  0  0  0  0  0  0  0
   -7.0513  -72.1129  -19.2458 S   0  0  0  0  0  0  0  0  0  0  0  0
   -6.7050  -72.3331  -17.8610 O   0  0  0  0  0  0  0  0  0  0  0  0
   -7.3233  -73.2100  -20.1441 O   0  0  0  0  0  0  0  0  0  0  0  0
   -5.9005  -71.1322  -19.9392 N   0  0  0  0  0  0  0  0  0  0  0  0
   -5.1778  -70.0123  -19.2733 C   0  0  0  0  0  0  0  0  0  0  0  0
   -4.0522  -70.1582  -20.3270 C   0  0  0  0  0  0  0  0  0  0  0  0
   -2.5563  -69.9333  -19.8965 C   0  0  0  0  0  0  0  0  0  0  0  0
   -1.7968  -68.8953  -20.4649 C   0  0  0  0  0  0  0  0  0  0  0  0
   -0.4804  -68.6433  -20.0722 C   0  0  0  0  0  0  0  0  0  0  0  0
    0.1299  -69.4405  -19.1119 C   0  0  0  0  0  0  0  0  0  0  0  0
   -0.5822  -70.4868  -18.5399 C   0  0  0  0  0  0  0  0  0  0  0  0
   -1.9054  -70.7225  -18.9248 C   0  0  0  0  0  0  0  0  0  0  0  0
   -4.6021  -71.5959  -20.5001 C   0  0  0  0  0  0  0  0  0  0  0  0
   -8.8325  -70.6411  -20.6399 C   0  0  0  0  0  0  0  0  0  0  0  0
  2  1  1  6
  2  3  1  0
  3  4  1  0
  4  5  1  0
  5  6  1  0
  6  7  2  0
  6  8  2  0
  6  9  1  0
  9 10  1  0
 10 11  1  0
 11 12  1  0
 12 13  2  0
 13 14  1  0
 14 15  2  0
 15 16  1  0
 16 17  2  0
 11 18  1  0
  5 19  1  0
 19  2  1  0
 18  9  1  0
 17 12  1  0
M  END
>  <fragmenstein_runtime>  (317) 
9.179862

>  <original ID>  (317) 
OBILXVZHRBQCQW-GFCCVEGCSA-N

>  <fragmenstein_error>  (317) 
None

>  <ref_pdb>  (317) 
d0503a

>  <Multi-SuCOS>  (317) 
0.483818

>  <SLURM_JOB_NAME>  (317) 
BulkDock.place:Flavi_NS5_RdRp:thumb_site_2_fstein_bulkdock_input_split1000_batch000

>  <HIPPO Compound ID>  (317) 
68987

>  <original SMILES>  (317) 
C[C@@H]1CCN(S(=O)(=O)N2CC(c3ccccc3)C2)C1

>  <name>  (317) 
OBILXVZHRBQCQW-GFCCVEGCSA-N

>  <HIPPO Pose ID>  (317) 
80900

>  <ref_mols>  (317) 
d0503a,d0644a

>  <exports>  (317) 
['/opt/xchem-fragalysis-2/maxwin/BulkDock/OUTPUTS/thumb_site_2_fstein_bulkdock_input_split1000_batch000_217914.sdf', '/opt/xchem-fragalysis-2/maxwin/BulkDock/OUTPUTS/thumb_site_2_fstein_bulkdock_input_split1000_batch000_217914_fragalysis.sdf', '/opt/xchem-fragalysis-2/maxwin/RdRp_FFF/syndirella/Retro_OK_batch1.sdf']

>  <alias>  (317) 
None

>  <inchikey>  (317) 
OBILXVZHRBQCQW-GFCCVEGCSA-N

>  <energy_score>  (317) 
-61.315403

>  <distance_score>  (317) 
0.914928

>  <fragmenstein_outcome>  (317) 
acceptable

>  <merge_set>  (317) 
thumb_site_2_fstein_bulkdock_input

>  <scratch_subdir>  (317) 
/opt/xchem-fragalysis-2/maxwin/BulkDock/SCRATCH/217914/C68987-P44

>  <SLURM_JOB_ID>  (317) 
217914

>  <tags>  (317) 
['Fragmenstein placed', 'thumb_site_2_fstein_bulkdock_input Pose OK']

>  <fragmenstein_mode>  (317) 
expansion

>  <csv_name>  (317) 
thumb_site_2_fstein_bulkdock_input_split1000_batch000.csv

$$$$
YCYARQWXNBKXND-SNVBAGLBSA-N
     RDKit          3D

 16 17  0  0  0  0  0  0  0  0999 V2000
  -11.9404  -70.1895  -21.9278 C   0  0  0  0  0  0  0  0  0  0  0  0
  -10.7545  -70.5499  -21.0900 C   0  0  0  0  0  0  0  0  0  0  0  0
   -9.4994  -70.7716  -21.6441 C   0  0  0  0  0  0  0  0  0  0  0  0
   -8.4135  -71.1878  -20.9443 N   0  0  0  0  0  0  0  0  0  0  0  0
   -8.5600  -71.4071  -19.6186 C   0  0  0  0  0  0  0  0  0  0  0  0
   -7.4937  -71.9749  -18.8998 N   0  0  0  0  0  0  0  0  0  0  0  0
   -7.5793  -73.4290  -18.8882 C   0  0  0  0  0  0  0  0  0  0  0  0
   -6.1866  -71.3411  -19.0727 C   0  0  0  0  0  0  0  0  0  0  0  0
   -5.2986  -71.8197  -20.2185 C   0  0  1  0  0  0  0  0  0  0  0  0
   -4.0938  -70.9053  -20.3948 C   0  0  0  0  0  0  0  0  0  0  0  0
   -3.0938  -71.7884  -21.1066 C   0  0  0  0  0  0  0  0  0  0  0  0
   -3.3809  -73.1368  -20.7245 O   0  0  0  0  0  0  0  0  0  0  0  0
   -4.6063  -73.1522  -19.9796 C   0  0  0  0  0  0  0  0  0  0  0  0
   -9.7805  -71.1393  -18.9687 C   0  0  0  0  0  0  0  0  0  0  0  0
   -9.9592  -71.2871  -17.2521 Cl  0  0  0  0  0  0  0  0  0  0  0  0
  -10.8807  -70.7154  -19.7126 C   0  0  0  0  0  0  0  0  0  0  0  0
  1  2  1  0
  2  3  2  0
  3  4  1  0
  4  5  2  0
  5  6  1  0
  6  7  1  0
  6  8  1  0
  9  8  1  1
  9 10  1  0
 10 11  1  0
 11 12  1  0
 12 13  1  0
  5 14  1  0
 14 15  1  0
 14 16  2  0
 16  2  1  0
 13  9  1  0
M  END
>  <fragmenstein_runtime>  (318) 
1.514105

>  <original ID>  (318) 
YCYARQWXNBKXND-SNVBAGLBSA-N

>  <fragmenstein_error>  (318) 
None

>  <ref_pdb>  (318) 
d0258a

>  <Multi-SuCOS>  (318) 
0.701488

>  <SLURM_JOB_NAME>  (318) 
BulkDock.place:Flavi_NS5_RdRp:thumb_site_2_fstein_bulkdock_input_split1000_batch000

>  <HIPPO Compound ID>  (318) 
69057

>  <original SMILES>  (318) 
Cc1cnc(N(C)C[C@H]2CCOC2)c(Cl)c1

>  <name>  (318) 
YCYARQWXNBKXND-SNVBAGLBSA-N

>  <HIPPO Pose ID>  (318) 
81055

>  <ref_mols>  (318) 
d0258a,d0587a

>  <exports>  (318) 
['/opt/xchem-fragalysis-2/maxwin/BulkDock/OUTPUTS/thumb_site_2_fstein_bulkdock_input_split1000_batch000_217914.sdf', '/opt/xchem-fragalysis-2/maxwin/BulkDock/OUTPUTS/thumb_site_2_fstein_bulkdock_input_split1000_batch000_217914_fragalysis.sdf', '/opt/xchem-fragalysis-2/maxwin/RdRp_FFF/syndirella/Retro_OK_batch1.sdf']

>  <alias>  (318) 
None

>  <inchikey>  (318) 
YCYARQWXNBKXND-SNVBAGLBSA-N

>  <energy_score>  (318) 
-44.189834

>  <distance_score>  (318) 
0.882206

>  <fragmenstein_outcome>  (318) 
acceptable

>  <merge_set>  (318) 
thumb_site_2_fstein_bulkdock_input

>  <scratch_subdir>  (318) 
/opt/xchem-fragalysis-2/maxwin/BulkDock/SCRATCH/217914/C69057-P27

>  <SLURM_JOB_ID>  (318) 
217914

>  <tags>  (318) 
['Fragmenstein placed', 'thumb_site_2_fstein_bulkdock_input Pose OK']

>  <fragmenstein_mode>  (318) 
expansion

>  <csv_name>  (318) 
thumb_site_2_fstein_bulkdock_input_split1000_batch000.csv

$$$$
YCYARQWXNBKXND-SNVBAGLBSA-N
     RDKit          3D

 16 17  0  0  0  0  0  0  0  0999 V2000
  -12.0399  -70.0616  -21.6947 C   0  0  0  0  0  0  0  0  0  0  0  0
  -10.8107  -70.4880  -20.9553 C   0  0  0  0  0  0  0  0  0  0  0  0
   -9.6832  -70.9549  -21.6195 C   0  0  0  0  0  0  0  0  0  0  0  0
   -8.5973  -71.4869  -21.0050 N   0  0  0  0  0  0  0  0  0  0  0  0
   -8.6093  -71.5692  -19.6545 C   0  0  0  0  0  0  0  0  0  0  0  0
   -7.6080  -72.3166  -19.0148 N   0  0  0  0  0  0  0  0  0  0  0  0
   -7.6509  -73.7175  -19.4108 C   0  0  0  0  0  0  0  0  0  0  0  0
   -6.3101  -71.6639  -18.8472 C   0  0  0  0  0  0  0  0  0  0  0  0
   -5.3837  -71.6387  -20.0593 C   0  0  1  0  0  0  0  0  0  0  0  0
   -4.1439  -70.7930  -19.8126 C   0  0  0  0  0  0  0  0  0  0  0  0
   -3.1668  -71.3287  -20.8351 C   0  0  0  0  0  0  0  0  0  0  0  0
   -3.4701  -72.7164  -21.0011 O   0  0  0  0  0  0  0  0  0  0  0  0
   -4.7569  -72.9764  -20.4223 C   0  0  0  0  0  0  0  0  0  0  0  0
   -9.6806  -71.0530  -18.9033 C   0  0  0  0  0  0  0  0  0  0  0  0
   -9.7004  -71.1035  -17.1728 Cl  0  0  0  0  0  0  0  0  0  0  0  0
  -10.7879  -70.5193  -19.5623 C   0  0  0  0  0  0  0  0  0  0  0  0
  1  2  1  0
  2  3  2  0
  3  4  1  0
  4  5  2  0
  5  6  1  0
  6  7  1  0
  6  8  1  0
  9  8  1  1
  9 10  1  0
 10 11  1  0
 11 12  1  0
 12 13  1  0
  5 14  1  0
 14 15  1  0
 14 16  2  0
 16  2  1  0
 13  9  1  0
M  END
>  <fragmenstein_runtime>  (319) 
1.46965

>  <original ID>  (319) 
YCYARQWXNBKXND-SNVBAGLBSA-N

>  <fragmenstein_error>  (319) 
None

>  <ref_pdb>  (319) 
d0587a

>  <Multi-SuCOS>  (319) 
0.677864

>  <SLURM_JOB_NAME>  (319) 
BulkDock.place:Flavi_NS5_RdRp:thumb_site_2_fstein_bulkdock_input_split1000_batch000

>  <HIPPO Compound ID>  (319) 
69057

>  <original SMILES>  (319) 
Cc1cnc(N(C)C[C@H]2CCOC2)c(Cl)c1

>  <name>  (319) 
YCYARQWXNBKXND-SNVBAGLBSA-N

>  <HIPPO Pose ID>  (319) 
81056

>  <ref_mols>  (319) 
d0258a,d0587a

>  <exports>  (319) 
['/opt/xchem-fragalysis-2/maxwin/BulkDock/OUTPUTS/thumb_site_2_fstein_bulkdock_input_split1000_batch000_217914.sdf', '/opt/xchem-fragalysis-2/maxwin/BulkDock/OUTPUTS/thumb_site_2_fstein_bulkdock_input_split1000_batch000_217914_fragalysis.sdf', '/opt/xchem-fragalysis-2/maxwin/RdRp_FFF/syndirella/Retro_OK_batch1.sdf']

>  <alias>  (319) 
None

>  <inchikey>  (319) 
YCYARQWXNBKXND-SNVBAGLBSA-N

>  <energy_score>  (319) 
-43.430298

>  <distance_score>  (319) 
0.81124

>  <fragmenstein_outcome>  (319) 
acceptable

>  <merge_set>  (319) 
thumb_site_2_fstein_bulkdock_input

>  <scratch_subdir>  (319) 
/opt/xchem-fragalysis-2/maxwin/BulkDock/SCRATCH/217914/C69057-P48

>  <SLURM_JOB_ID>  (319) 
217914

>  <tags>  (319) 
['Fragmenstein placed', 'thumb_site_2_fstein_bulkdock_input Pose OK']

>  <fragmenstein_mode>  (319) 
expansion

>  <csv_name>  (319) 
thumb_site_2_fstein_bulkdock_input_split1000_batch000.csv

$$$$
PANZNSUBQUNTNU-UHFFFAOYSA-N
     RDKit          3D

 19 21  0  0  0  0  0  0  0  0999 V2000
  -11.5270  -69.9822  -22.2124 N   0  0  0  0  0  0  0  0  0  0  0  0
  -10.7265  -70.4216  -21.4972 C   0  0  0  0  0  0  0  0  0  0  0  0
   -9.7786  -70.9660  -20.5793 C   0  0  0  0  0  0  0  0  0  0  0  0
   -8.6572  -71.6232  -21.0893 C   0  0  0  0  0  0  0  0  0  0  0  0
   -7.7227  -72.2016  -20.2312 C   0  0  0  0  0  0  0  0  0  0  0  0
   -7.8714  -72.1019  -18.8430 C   0  0  0  0  0  0  0  0  0  0  0  0
   -6.8842  -72.7107  -17.8761 C   0  0  0  0  0  0  0  0  0  0  0  0
   -5.5125  -72.8263  -18.3480 N   0  0  0  0  0  0  0  0  0  0  0  0
   -4.7716  -73.9716  -18.2022 C   0  0  0  0  0  0  0  0  0  0  0  0
   -3.5472  -73.8239  -18.6446 N   0  0  0  0  0  0  0  0  0  0  0  0
   -3.4827  -72.5305  -19.0937 C   0  0  0  0  0  0  0  0  0  0  0  0
   -2.3996  -71.8541  -19.6736 C   0  0  0  0  0  0  0  0  0  0  0  0
   -2.5760  -70.5340  -20.0967 C   0  0  0  0  0  0  0  0  0  0  0  0
   -3.8037  -69.8939  -19.9278 C   0  0  0  0  0  0  0  0  0  0  0  0
   -4.8875  -70.5391  -19.3170 C   0  0  0  0  0  0  0  0  0  0  0  0
   -4.7005  -71.8700  -18.9176 C   0  0  0  0  0  0  0  0  0  0  0  0
   -9.0199  -71.4694  -18.3374 C   0  0  0  0  0  0  0  0  0  0  0  0
   -9.9621  -70.9040  -19.1972 C   0  0  0  0  0  0  0  0  0  0  0  0
  -11.0397  -70.3238  -18.5879 O   0  0  0  0  0  0  0  0  0  0  0  0
  1  2  3  0
  2  3  1  0
  3  4  2  0
  4  5  1  0
  5  6  2  0
  6  7  1  0
  7  8  1  0
  8  9  1  0
  9 10  2  0
 10 11  1  0
 11 12  2  0
 12 13  1  0
 13 14  2  0
 14 15  1  0
 15 16  2  0
  6 17  1  0
 17 18  2  0
 18 19  1  0
 18  3  1  0
 16  8  1  0
 16 11  1  0
M  END
>  <fragmenstein_runtime>  (320) 
7.674559

>  <original ID>  (320) 
PANZNSUBQUNTNU-UHFFFAOYSA-N

>  <fragmenstein_error>  (320) 
None

>  <ref_pdb>  (320) 
d0644a

>  <Multi-SuCOS>  (320) 
0.490161

>  <SLURM_JOB_NAME>  (320) 
BulkDock.place:Flavi_NS5_RdRp:thumb_site_2_fstein_bulkdock_input_split1000_batch000

>  <HIPPO Compound ID>  (320) 
69116

>  <original SMILES>  (320) 
N#Cc1ccc(Cn2cnc3ccccc32)cc1O

>  <name>  (320) 
PANZNSUBQUNTNU-UHFFFAOYSA-N

>  <HIPPO Pose ID>  (320) 
81200

>  <ref_mols>  (320) 
d0644a,d0749a

>  <exports>  (320) 
['/opt/xchem-fragalysis-2/maxwin/BulkDock/OUTPUTS/thumb_site_2_fstein_bulkdock_input_split1000_batch000_217914.sdf', '/opt/xchem-fragalysis-2/maxwin/BulkDock/OUTPUTS/thumb_site_2_fstein_bulkdock_input_split1000_batch000_217914_fragalysis.sdf', '/opt/xchem-fragalysis-2/maxwin/RdRp_FFF/syndirella/Retro_OK_batch1.sdf']

>  <alias>  (320) 
None

>  <inchikey>  (320) 
PANZNSUBQUNTNU-UHFFFAOYSA-N

>  <energy_score>  (320) 
-15.178786

>  <distance_score>  (320) 
0.94423

>  <fragmenstein_outcome>  (320) 
acceptable

>  <merge_set>  (320) 
thumb_site_2_fstein_bulkdock_input

>  <scratch_subdir>  (320) 
/opt/xchem-fragalysis-2/maxwin/BulkDock/SCRATCH/217914/C69116-P52

>  <SLURM_JOB_ID>  (320) 
217914

>  <tags>  (320) 
['Fragmenstein placed', 'thumb_site_2_fstein_bulkdock_input Pose OK']

>  <fragmenstein_mode>  (320) 
expansion

>  <csv_name>  (320) 
thumb_site_2_fstein_bulkdock_input_split1000_batch000.csv

$$$$
KZGPDDSEMZONAM-UHFFFAOYSA-N
     RDKit          3D

 21 23  0  0  0  0  0  0  0  0999 V2000
  -28.3111  -29.5560  -21.5704 C   0  0  0  0  0  0  0  0  0  0  0  0
  -27.4196  -30.1173  -20.5696 N   0  0  0  0  0  0  0  0  0  0  0  0
  -26.2777  -30.7685  -21.0023 C   0  0  0  0  0  0  0  0  0  0  0  0
  -26.1255  -30.9935  -22.2015 O   0  0  0  0  0  0  0  0  0  0  0  0
  -25.3458  -31.1656  -20.0391 N   0  0  0  0  0  0  0  0  0  0  0  0
  -24.2115  -32.0170  -20.5526 C   0  0  0  0  0  0  0  0  0  0  0  0
  -23.3590  -31.4484  -21.6945 C   0  0  0  0  0  0  0  0  0  0  0  0
  -22.7963  -32.4513  -22.5969 N   0  0  0  0  0  0  0  0  0  0  0  0
  -21.3751  -32.5357  -22.8239 C   0  0  0  0  0  0  0  0  0  0  0  0
  -21.2665  -32.8994  -24.2888 C   0  0  0  0  0  0  0  0  0  0  0  0
  -22.5312  -33.6977  -24.5591 C   0  0  0  0  0  0  0  0  0  0  0  0
  -23.5219  -33.0582  -23.6206 C   0  0  0  0  0  0  0  0  0  0  0  0
  -24.7320  -33.1166  -23.7628 O   0  0  0  0  0  0  0  0  0  0  0  0
  -25.5788  -30.9941  -18.6547 C   0  0  0  0  0  0  0  0  0  0  0  0
  -24.4254  -31.3297  -17.4688 S   0  0  0  0  0  0  0  0  0  0  0  0
  -26.9435  -30.5241  -18.2409 C   0  0  0  0  0  0  0  0  0  0  0  0
  -27.3699  -30.5015  -16.8938 C   0  0  0  0  0  0  0  0  0  0  0  0
  -28.6830  -30.1819  -16.5492 C   0  0  0  0  0  0  0  0  0  0  0  0
  -29.5929  -29.8860  -17.5465 C   0  0  0  0  0  0  0  0  0  0  0  0
  -29.1732  -29.8620  -18.8743 C   0  0  0  0  0  0  0  0  0  0  0  0
  -27.8441  -30.1582  -19.2294 C   0  0  0  0  0  0  0  0  0  0  0  0
  1  2  1  0
  2  3  1  0
  3  4  2  0
  3  5  1  0
  5  6  1  0
  6  7  1  0
  7  8  1  0
  8  9  1  0
  9 10  1  0
 10 11  1  0
 11 12  1  0
 12 13  2  0
  5 14  1  0
 14 15  2  0
 14 16  1  0
 16 17  2  0
 17 18  1  0
 18 19  2  0
 19 20  1  0
 20 21  2  0
 21  2  1  0
 12  8  1  0
 21 16  1  0
M  END
>  <fragmenstein_runtime>  (321) 
2.103494

>  <original ID>  (321) 
KZGPDDSEMZONAM-UHFFFAOYSA-N

>  <fragmenstein_error>  (321) 
None

>  <ref_pdb>  (321) 
z0309a

>  <Multi-SuCOS>  (321) 
0.737165

>  <SLURM_JOB_NAME>  (321) 
BulkDock.place:Flavi_NS5_RdRp:green_site_rna_tunnel_fstein_bulkdock_input_split1000_batch001

>  <HIPPO Compound ID>  (321) 
68384

>  <original SMILES>  (321) 
Cn1c(=O)n(CCN2CCCC2=O)c(=S)c2ccccc21

>  <name>  (321) 
KZGPDDSEMZONAM-UHFFFAOYSA-N

>  <HIPPO Pose ID>  (321) 
81355

>  <ref_mols>  (321) 
z0309a,z1018a

>  <exports>  (321) 
['/opt/xchem-fragalysis-2/maxwin/BulkDock/OUTPUTS/green_site_rna_tunnel_fstein_bulkdock_input_split1000_batch001_217910.sdf', '/opt/xchem-fragalysis-2/maxwin/BulkDock/OUTPUTS/green_site_rna_tunnel_fstein_bulkdock_input_fragalysis.sdf', '/opt/xchem-fragalysis-2/maxwin/RdRp_FFF/syndirella/Retro_OK_batch1.sdf']

>  <alias>  (321) 
None

>  <inchikey>  (321) 
KZGPDDSEMZONAM-UHFFFAOYSA-N

>  <energy_score>  (321) 
-34.154073

>  <distance_score>  (321) 
0.777669

>  <fragmenstein_outcome>  (321) 
acceptable

>  <merge_set>  (321) 
green_site_rna_tunnel_fstein_bulkdock_input_fragalysis.sdf

>  <scratch_subdir>  (321) 
/opt/xchem-fragalysis-2/maxwin/BulkDock/SCRATCH/217910/C68384-P113

>  <SLURM_JOB_ID>  (321) 
217910

>  <tags>  (321) 
['Fragmenstein placed', 'green_site_rna_tunnel_fstein_bulkdock_input_fragalysis.sdf Pose OK']

>  <fragmenstein_mode>  (321) 
expansion

>  <csv_name>  (321) 
green_site_rna_tunnel_fstein_bulkdock_input_split1000_batch001.csv

$$$$
KZGPDDSEMZONAM-UHFFFAOYSA-N
     RDKit          3D

 21 23  0  0  0  0  0  0  0  0999 V2000
  -28.5825  -29.4834  -21.5795 C   0  0  0  0  0  0  0  0  0  0  0  0
  -27.7710  -30.2607  -20.6487 N   0  0  0  0  0  0  0  0  0  0  0  0
  -26.6578  -30.9215  -21.1285 C   0  0  0  0  0  0  0  0  0  0  0  0
  -26.4384  -30.9951  -22.3384 O   0  0  0  0  0  0  0  0  0  0  0  0
  -25.7675  -31.4566  -20.2050 N   0  0  0  0  0  0  0  0  0  0  0  0
  -24.7692  -32.3896  -20.8087 C   0  0  0  0  0  0  0  0  0  0  0  0
  -23.6301  -31.6932  -21.5800 C   0  0  0  0  0  0  0  0  0  0  0  0
  -22.9459  -32.5403  -22.5567 N   0  0  0  0  0  0  0  0  0  0  0  0
  -21.5068  -32.6740  -22.5543 C   0  0  0  0  0  0  0  0  0  0  0  0
  -21.1524  -32.9396  -24.0055 C   0  0  0  0  0  0  0  0  0  0  0  0
  -22.4016  -33.5881  -24.5787 C   0  0  0  0  0  0  0  0  0  0  0  0
  -23.5023  -32.9629  -23.7586 C   0  0  0  0  0  0  0  0  0  0  0  0
  -24.6690  -32.8890  -24.1125 O   0  0  0  0  0  0  0  0  0  0  0  0
  -25.7640  -31.0749  -18.8499 C   0  0  0  0  0  0  0  0  0  0  0  0
  -24.4905  -31.4081  -17.7961 S   0  0  0  0  0  0  0  0  0  0  0  0
  -27.0042  -30.3835  -18.3565 C   0  0  0  0  0  0  0  0  0  0  0  0
  -27.2093  -30.0549  -17.0008 C   0  0  0  0  0  0  0  0  0  0  0  0
  -28.4576  -29.6367  -16.5422 C   0  0  0  0  0  0  0  0  0  0  0  0
  -29.5016  -29.4966  -17.4393 C   0  0  0  0  0  0  0  0  0  0  0  0
  -29.2762  -29.6933  -18.7985 C   0  0  0  0  0  0  0  0  0  0  0  0
  -28.0237  -30.1212  -19.2676 C   0  0  0  0  0  0  0  0  0  0  0  0
  1  2  1  0
  2  3  1  0
  3  4  2  0
  3  5  1  0
  5  6  1  0
  6  7  1  0
  7  8  1  0
  8  9  1  0
  9 10  1  0
 10 11  1  0
 11 12  1  0
 12 13  2  0
  5 14  1  0
 14 15  2  0
 14 16  1  0
 16 17  2  0
 17 18  1  0
 18 19  2  0
 19 20  1  0
 20 21  2  0
 21  2  1  0
 12  8  1  0
 21 16  1  0
M  END
>  <fragmenstein_runtime>  (322) 
1.958677

>  <original ID>  (322) 
KZGPDDSEMZONAM-UHFFFAOYSA-N

>  <fragmenstein_error>  (322) 
None

>  <ref_pdb>  (322) 
z1018a

>  <Multi-SuCOS>  (322) 
0.756949

>  <SLURM_JOB_NAME>  (322) 
BulkDock.place:Flavi_NS5_RdRp:green_site_rna_tunnel_fstein_bulkdock_input_split1000_batch001

>  <HIPPO Compound ID>  (322) 
68384

>  <original SMILES>  (322) 
Cn1c(=O)n(CCN2CCCC2=O)c(=S)c2ccccc21

>  <name>  (322) 
KZGPDDSEMZONAM-UHFFFAOYSA-N

>  <HIPPO Pose ID>  (322) 
81356

>  <ref_mols>  (322) 
z0309a,z1018a

>  <exports>  (322) 
['/opt/xchem-fragalysis-2/maxwin/BulkDock/OUTPUTS/green_site_rna_tunnel_fstein_bulkdock_input_split1000_batch001_217910.sdf', '/opt/xchem-fragalysis-2/maxwin/BulkDock/OUTPUTS/green_site_rna_tunnel_fstein_bulkdock_input_fragalysis.sdf', '/opt/xchem-fragalysis-2/maxwin/RdRp_FFF/syndirella/Retro_OK_batch1.sdf']

>  <alias>  (322) 
None

>  <inchikey>  (322) 
KZGPDDSEMZONAM-UHFFFAOYSA-N

>  <energy_score>  (322) 
-39.738341

>  <distance_score>  (322) 
0.822001

>  <fragmenstein_outcome>  (322) 
acceptable

>  <merge_set>  (322) 
green_site_rna_tunnel_fstein_bulkdock_input_fragalysis.sdf

>  <scratch_subdir>  (322) 
/opt/xchem-fragalysis-2/maxwin/BulkDock/SCRATCH/217910/C68384-P206

>  <SLURM_JOB_ID>  (322) 
217910

>  <tags>  (322) 
['Fragmenstein placed', 'green_site_rna_tunnel_fstein_bulkdock_input_fragalysis.sdf Pose OK']

>  <fragmenstein_mode>  (322) 
expansion

>  <csv_name>  (322) 
green_site_rna_tunnel_fstein_bulkdock_input_split1000_batch001.csv

$$$$
ZWWZBAUAVBEARZ-LBPRGKRZSA-N
     RDKit          3D

 18 20  0  0  0  0  0  0  0  0999 V2000
  -24.4084  -30.6002  -16.0932 C   0  0  0  0  0  0  0  0  0  0  0  0
  -25.0253  -31.0804  -17.3177 N   0  0  0  0  0  0  0  0  0  0  0  0
  -24.7956  -32.5102  -17.6052 C   0  0  0  0  0  0  0  0  0  0  0  0
  -24.8161  -32.9229  -19.0825 C   0  0  1  0  0  0  0  0  0  0  0  0
  -26.1627  -33.3705  -19.6390 C   0  0  0  0  0  0  0  0  0  0  0  0
  -26.0335  -33.0874  -21.1232 C   0  0  0  0  0  0  0  0  0  0  0  0
  -25.2196  -31.8818  -21.2146 N   0  0  0  0  0  0  0  0  0  0  0  0
  -24.2899  -31.8948  -20.0789 C   0  0  0  0  0  0  0  0  0  0  0  0
  -26.3583  -30.7057  -17.4857 C   0  0  0  0  0  0  0  0  0  0  0  0
  -27.2844  -30.7420  -16.4481 C   0  0  0  0  0  0  0  0  0  0  0  0
  -28.6240  -30.5153  -16.7276 C   0  0  0  0  0  0  0  0  0  0  0  0
  -29.0110  -30.2997  -18.0490 C   0  0  0  0  0  0  0  0  0  0  0  0
  -30.3539  -30.1929  -18.4038 C   0  0  0  0  0  0  0  0  0  0  0  0
  -30.7273  -30.0634  -19.7397 C   0  0  0  0  0  0  0  0  0  0  0  0
  -29.7494  -29.9656  -20.7179 C   0  0  0  0  0  0  0  0  0  0  0  0
  -28.4057  -30.0470  -20.3572 C   0  0  0  0  0  0  0  0  0  0  0  0
  -28.0199  -30.2284  -19.0356 C   0  0  0  0  0  0  0  0  0  0  0  0
  -26.7261  -30.3798  -18.7380 N   0  0  0  0  0  0  0  0  0  0  0  0
  1  2  1  0
  2  3  1  0
  4  3  1  1
  4  5  1  0
  5  6  1  0
  6  7  1  0
  7  8  1  0
  2  9  1  0
  9 10  2  0
 10 11  1  0
 11 12  2  0
 12 13  1  0
 13 14  2  0
 14 15  1  0
 15 16  2  0
 16 17  1  0
 17 18  2  0
  8  4  1  0
 18  9  1  0
 17 12  1  0
M  END
>  <fragmenstein_runtime>  (323) 
1.892709

>  <original ID>  (323) 
ZWWZBAUAVBEARZ-LBPRGKRZSA-N

>  <fragmenstein_error>  (323) 
None

>  <ref_pdb>  (323) 
z1040a

>  <Multi-SuCOS>  (323) 
0.702862

>  <SLURM_JOB_NAME>  (323) 
BulkDock.place:Flavi_NS5_RdRp:green_site_rna_tunnel_fstein_bulkdock_input_split1000_batch001

>  <HIPPO Compound ID>  (323) 
68415

>  <original SMILES>  (323) 
CN(C[C@H]1CCNC1)c1ccc2ccccc2n1

>  <name>  (323) 
ZWWZBAUAVBEARZ-LBPRGKRZSA-N

>  <HIPPO Pose ID>  (323) 
81418

>  <ref_mols>  (323) 
d0472b,z1040a

>  <exports>  (323) 
['/opt/xchem-fragalysis-2/maxwin/BulkDock/OUTPUTS/green_site_rna_tunnel_fstein_bulkdock_input_split1000_batch001_217910.sdf', '/opt/xchem-fragalysis-2/maxwin/BulkDock/OUTPUTS/green_site_rna_tunnel_fstein_bulkdock_input_fragalysis.sdf', '/opt/xchem-fragalysis-2/maxwin/RdRp_FFF/syndirella/Retro_OK_batch1.sdf']

>  <alias>  (323) 
None

>  <inchikey>  (323) 
ZWWZBAUAVBEARZ-LBPRGKRZSA-N

>  <energy_score>  (323) 
-15.942828

>  <distance_score>  (323) 
0.993239

>  <fragmenstein_outcome>  (323) 
acceptable

>  <merge_set>  (323) 
green_site_rna_tunnel_fstein_bulkdock_input_fragalysis.sdf

>  <scratch_subdir>  (323) 
/opt/xchem-fragalysis-2/maxwin/BulkDock/SCRATCH/217910/C68415-P208

>  <SLURM_JOB_ID>  (323) 
217910

>  <tags>  (323) 
['Fragmenstein placed', 'green_site_rna_tunnel_fstein_bulkdock_input_fragalysis.sdf Pose OK']

>  <fragmenstein_mode>  (323) 
expansion

>  <csv_name>  (323) 
green_site_rna_tunnel_fstein_bulkdock_input_split1000_batch001.csv

$$$$
KWNDKUHQZANDAD-UHFFFAOYSA-N
     RDKit          3D

 24 26  0  0  0  0  0  0  0  0999 V2000
  -25.3426  -32.5220  -15.2422 C   0  0  0  0  0  0  0  0  0  0  0  0
  -25.3234  -31.1252  -15.6595 N   0  0  0  0  0  0  0  0  0  0  0  0
  -26.3688  -30.8040  -16.5478 C   0  0  0  0  0  0  0  0  0  0  0  0
  -27.6122  -30.5553  -15.9438 C   0  0  0  0  0  0  0  0  0  0  0  0
  -28.7589  -30.3179  -16.6880 C   0  0  0  0  0  0  0  0  0  0  0  0
  -28.7046  -30.3328  -18.0772 C   0  0  0  0  0  0  0  0  0  0  0  0
  -29.8906  -30.1354  -18.8007 C   0  0  0  0  0  0  0  0  0  0  0  0
  -29.8904  -30.1128  -20.1898 C   0  0  0  0  0  0  0  0  0  0  0  0
  -28.6943  -30.2836  -20.8681 C   0  0  0  0  0  0  0  0  0  0  0  0
  -27.5118  -30.5108  -20.1588 C   0  0  0  0  0  0  0  0  0  0  0  0
  -27.4709  -30.5653  -18.7405 C   0  0  0  0  0  0  0  0  0  0  0  0
  -26.2869  -30.8367  -17.9589 C   0  0  0  0  0  0  0  0  0  0  0  0
  -25.1158  -31.1832  -18.6871 N   0  0  0  0  0  0  0  0  0  0  0  0
  -23.6584  -31.4539  -18.1906 C   0  0  0  0  0  0  0  0  0  0  0  0
  -23.2047  -31.3577  -17.1464 O   0  0  0  0  0  0  0  0  0  0  0  0
  -23.0051  -31.8916  -19.5349 N   0  0  0  0  0  0  0  0  0  0  0  0
  -21.6738  -32.3866  -19.8121 C   0  0  0  0  0  0  0  0  0  0  0  0
  -20.9662  -32.9916  -18.5933 C   0  0  0  0  0  0  0  0  0  0  0  0
  -19.8965  -33.9135  -18.9568 N   0  0  0  0  0  0  0  0  0  0  0  0
  -20.1612  -35.2851  -19.3094 C   0  0  0  0  0  0  0  0  0  0  0  0
  -18.7732  -35.8775  -19.4423 C   0  0  0  0  0  0  0  0  0  0  0  0
  -17.9342  -34.7127  -19.9539 C   0  0  0  0  0  0  0  0  0  0  0  0
  -18.6488  -33.5007  -19.4035 C   0  0  0  0  0  0  0  0  0  0  0  0
  -18.2075  -32.3642  -19.4118 O   0  0  0  0  0  0  0  0  0  0  0  0
  1  2  1  0
  2  3  1  0
  3  4  2  0
  4  5  1  0
  5  6  2  0
  6  7  1  0
  7  8  2  0
  8  9  1  0
  9 10  2  0
 10 11  1  0
 11 12  2  0
 12 13  1  0
 13 14  1  0
 14 15  2  0
 14 16  1  0
 16 17  1  0
 17 18  1  0
 18 19  1  0
 19 20  1  0
 20 21  1  0
 21 22  1  0
 22 23  1  0
 23 24  2  0
 12  3  1  0
 23 19  1  0
 11  6  1  0
M  END
>  <fragmenstein_runtime>  (324) 
4.797041

>  <original ID>  (324) 
KWNDKUHQZANDAD-UHFFFAOYSA-N

>  <fragmenstein_error>  (324) 
None

>  <ref_pdb>  (324) 
z1040a

>  <Multi-SuCOS>  (324) 
0.488311

>  <SLURM_JOB_NAME>  (324) 
BulkDock.place:Flavi_NS5_RdRp:green_site_rna_tunnel_fstein_bulkdock_input_split1000_batch001

>  <HIPPO Compound ID>  (324) 
68425

>  <original SMILES>  (324) 
CNc1ccc2ccccc2c1NC(=O)NCCN1CCCC1=O

>  <name>  (324) 
KWNDKUHQZANDAD-UHFFFAOYSA-N

>  <HIPPO Pose ID>  (324) 
81428

>  <ref_mols>  (324) 
z0309a,z1040a

>  <exports>  (324) 
['/opt/xchem-fragalysis-2/maxwin/BulkDock/OUTPUTS/green_site_rna_tunnel_fstein_bulkdock_input_split1000_batch001_217910.sdf', '/opt/xchem-fragalysis-2/maxwin/BulkDock/OUTPUTS/green_site_rna_tunnel_fstein_bulkdock_input_fragalysis.sdf', '/opt/xchem-fragalysis-2/maxwin/RdRp_FFF/syndirella/Retro_OK_batch1.sdf']

>  <alias>  (324) 
None

>  <inchikey>  (324) 
KWNDKUHQZANDAD-UHFFFAOYSA-N

>  <energy_score>  (324) 
-24.269331

>  <distance_score>  (324) 
0.835015

>  <fragmenstein_outcome>  (324) 
acceptable

>  <merge_set>  (324) 
green_site_rna_tunnel_fstein_bulkdock_input_fragalysis.sdf

>  <scratch_subdir>  (324) 
/opt/xchem-fragalysis-2/maxwin/BulkDock/SCRATCH/217910/C68425-P208

>  <SLURM_JOB_ID>  (324) 
217910

>  <tags>  (324) 
['Fragmenstein placed', 'green_site_rna_tunnel_fstein_bulkdock_input_fragalysis.sdf Pose OK']

>  <fragmenstein_mode>  (324) 
expansion

>  <csv_name>  (324) 
green_site_rna_tunnel_fstein_bulkdock_input_split1000_batch001.csv

$$$$
YCJFKKPTJKKHNY-OAQYLSRUSA-N
     RDKit          3D

 27 29  0  0  0  0  0  0  0  0999 V2000
   -7.4210  -73.2401  -17.5008 N   0  0  0  0  0  0  0  0  0  0  0  0
   -7.3963  -72.5906  -18.8225 C   0  0  2  0  0  0  0  0  0  0  0  0
   -6.0688  -71.8687  -19.0536 C   0  0  0  0  0  0  0  0  0  0  0  0
   -5.9731  -70.5198  -19.4318 C   0  0  0  0  0  0  0  0  0  0  0  0
   -4.7329  -69.9284  -19.6895 C   0  0  0  0  0  0  0  0  0  0  0  0
   -3.5620  -70.6680  -19.5608 C   0  0  0  0  0  0  0  0  0  0  0  0
   -3.6291  -72.0027  -19.1797 C   0  0  0  0  0  0  0  0  0  0  0  0
   -4.8686  -72.5986  -18.9396 C   0  0  0  0  0  0  0  0  0  0  0  0
   -8.6491  -71.7593  -18.9769 C   0  0  0  0  0  0  0  0  0  0  0  0
   -9.4749  -71.1892  -18.0276 C   0  0  0  0  0  0  0  0  0  0  0  0
  -10.6356  -70.5948  -18.6051 C   0  0  0  0  0  0  0  0  0  0  0  0
  -10.6779  -70.7121  -19.9851 C   0  0  0  0  0  0  0  0  0  0  0  0
  -11.7204  -70.2815  -20.9401 C   0  0  0  0  0  0  0  0  0  0  0  0
  -12.7991  -69.4984  -20.5057 C   0  0  0  0  0  0  0  0  0  0  0  0
  -13.8007  -69.0804  -21.3936 C   0  0  0  0  0  0  0  0  0  0  0  0
  -14.9776  -68.2875  -20.8867 C   0  0  0  0  0  0  0  0  0  0  0  0
  -16.1504  -69.1723  -20.5418 C   0  0  0  0  0  0  0  0  0  0  0  0
  -16.4585  -70.1958  -21.1335 O   0  0  0  0  0  0  0  0  0  0  0  0
  -16.8719  -68.7195  -19.4944 O   0  0  0  0  0  0  0  0  0  0  0  0
  -13.7260  -69.4573  -22.7390 C   0  0  0  0  0  0  0  0  0  0  0  0
  -12.6605  -70.2239  -23.2095 C   0  0  0  0  0  0  0  0  0  0  0  0
  -12.5348  -70.5836  -24.6738 C   0  0  0  0  0  0  0  0  0  0  0  0
  -11.6473  -69.6445  -25.4574 C   0  0  0  0  0  0  0  0  0  0  0  0
  -11.9325  -69.1590  -26.5408 O   0  0  0  0  0  0  0  0  0  0  0  0
  -10.4668  -69.4096  -24.8513 O   0  0  0  0  0  0  0  0  0  0  0  0
  -11.6764  -70.6333  -22.3009 C   0  0  0  0  0  0  0  0  0  0  0  0
   -9.2584  -71.4916  -20.5483 S   0  0  0  0  0  0  0  0  0  0  0  0
  2  1  1  1
  2  3  1  0
  3  4  2  0
  4  5  1  0
  5  6  2  0
  6  7  1  0
  7  8  2  0
  2  9  1  0
  9 10  2  0
 10 11  1  0
 11 12  2  0
 12 13  1  0
 13 14  2  0
 14 15  1  0
 15 16  1  0
 16 17  1  0
 17 18  2  0
 17 19  1  0
 15 20  2  0
 20 21  1  0
 21 22  1  0
 22 23  1  0
 23 24  2  0
 23 25  1  0
 21 26  2  0
 12 27  1  0
  8  3  1  0
 27  9  1  0
 26 13  1  0
M  END
>  <fragmenstein_runtime>  (325) 
16.322268

>  <original ID>  (325) 
YCJFKKPTJKKHNY-OAQYLSRUSA-N

>  <fragmenstein_error>  (325) 
None

>  <ref_pdb>  (325) 
d0162a

>  <Multi-SuCOS>  (325) 
0.757269

>  <SLURM_JOB_NAME>  (325) 
BulkDock.place:Flavi_NS5_RdRp:thumb_site_2_fstein_bulkdock_input_split1000_batch000

>  <HIPPO Compound ID>  (325) 
69322

>  <original SMILES>  (325) 
N[C@H](c1ccccc1)c1ccc(-c2cc(CC(=O)O)cc(CC(=O)O)c2)s1

>  <name>  (325) 
YCJFKKPTJKKHNY-OAQYLSRUSA-N

>  <HIPPO Pose ID>  (325) 
81672

>  <ref_mols>  (325) 
d0162a,5hmx-a

>  <exports>  (325) 
['/opt/xchem-fragalysis-2/maxwin/BulkDock/OUTPUTS/thumb_site_2_fstein_bulkdock_input_split1000_batch000_217914.sdf', '/opt/xchem-fragalysis-2/maxwin/BulkDock/OUTPUTS/thumb_site_2_fstein_bulkdock_input_split1000_batch000_217914_fragalysis.sdf', '/opt/xchem-fragalysis-2/maxwin/RdRp_FFF/syndirella/Retro_OK_batch1.sdf']

>  <alias>  (325) 
None

>  <inchikey>  (325) 
YCJFKKPTJKKHNY-OAQYLSRUSA-N

>  <energy_score>  (325) 
-69.07784

>  <distance_score>  (325) 
0.748453

>  <fragmenstein_outcome>  (325) 
acceptable

>  <merge_set>  (325) 
thumb_site_2_fstein_bulkdock_input

>  <scratch_subdir>  (325) 
/opt/xchem-fragalysis-2/maxwin/BulkDock/SCRATCH/217914/C69322-P15

>  <SLURM_JOB_ID>  (325) 
217914

>  <tags>  (325) 
['Fragmenstein placed', 'thumb_site_2_fstein_bulkdock_input Pose OK']

>  <fragmenstein_mode>  (325) 
expansion

>  <csv_name>  (325) 
thumb_site_2_fstein_bulkdock_input_split1000_batch000.csv

$$$$
YCJFKKPTJKKHNY-OAQYLSRUSA-N
     RDKit          3D

 27 29  0  0  0  0  0  0  0  0999 V2000
   -7.7539  -73.6927  -17.5358 N   0  0  0  0  0  0  0  0  0  0  0  0
   -7.5707  -72.8504  -18.7249 C   0  0  2  0  0  0  0  0  0  0  0  0
   -6.2240  -72.1441  -18.6639 C   0  0  0  0  0  0  0  0  0  0  0  0
   -6.0676  -70.7595  -18.7851 C   0  0  0  0  0  0  0  0  0  0  0  0
   -4.7943  -70.1891  -18.8825 C   0  0  0  0  0  0  0  0  0  0  0  0
   -3.6542  -70.9825  -18.8148 C   0  0  0  0  0  0  0  0  0  0  0  0
   -3.7861  -72.3533  -18.6345 C   0  0  0  0  0  0  0  0  0  0  0  0
   -5.0568  -72.9271  -18.5634 C   0  0  0  0  0  0  0  0  0  0  0  0
   -8.7845  -71.9723  -18.9379 C   0  0  0  0  0  0  0  0  0  0  0  0
   -9.6857  -71.4558  -18.0289 C   0  0  0  0  0  0  0  0  0  0  0  0
  -10.7837  -70.8119  -18.6703 C   0  0  0  0  0  0  0  0  0  0  0  0
  -10.7000  -70.8183  -20.0537 C   0  0  0  0  0  0  0  0  0  0  0  0
  -11.6684  -70.3149  -21.0544 C   0  0  0  0  0  0  0  0  0  0  0  0
  -12.8006  -69.6011  -20.6343 C   0  0  0  0  0  0  0  0  0  0  0  0
  -13.7545  -69.1289  -21.5467 C   0  0  0  0  0  0  0  0  0  0  0  0
  -14.9868  -68.4238  -21.0390 C   0  0  0  0  0  0  0  0  0  0  0  0
  -16.1060  -69.3779  -20.6759 C   0  0  0  0  0  0  0  0  0  0  0  0
  -16.3741  -70.4067  -21.2793 O   0  0  0  0  0  0  0  0  0  0  0  0
  -16.8593  -68.9489  -19.6364 O   0  0  0  0  0  0  0  0  0  0  0  0
  -13.5718  -69.3712  -22.9127 C   0  0  0  0  0  0  0  0  0  0  0  0
  -12.4707  -70.1004  -23.3701 C   0  0  0  0  0  0  0  0  0  0  0  0
  -12.3030  -70.4160  -24.8431 C   0  0  0  0  0  0  0  0  0  0  0  0
  -11.4173  -69.4610  -25.6057 C   0  0  0  0  0  0  0  0  0  0  0  0
  -11.6875  -68.9714  -26.6914 O   0  0  0  0  0  0  0  0  0  0  0  0
  -10.2438  -69.2248  -24.9880 O   0  0  0  0  0  0  0  0  0  0  0  0
  -11.5275  -70.5552  -22.4340 C   0  0  0  0  0  0  0  0  0  0  0  0
   -9.2240  -71.5463  -20.5377 S   0  0  0  0  0  0  0  0  0  0  0  0
  2  1  1  1
  2  3  1  0
  3  4  2  0
  4  5  1  0
  5  6  2  0
  6  7  1  0
  7  8  2  0
  2  9  1  0
  9 10  2  0
 10 11  1  0
 11 12  2  0
 12 13  1  0
 13 14  2  0
 14 15  1  0
 15 16  1  0
 16 17  1  0
 17 18  2  0
 17 19  1  0
 15 20  2  0
 20 21  1  0
 21 22  1  0
 22 23  1  0
 23 24  2  0
 23 25  1  0
 21 26  2  0
 12 27  1  0
  8  3  1  0
 27  9  1  0
 26 13  1  0
M  END
>  <fragmenstein_runtime>  (326) 
16.101909

>  <original ID>  (326) 
YCJFKKPTJKKHNY-OAQYLSRUSA-N

>  <fragmenstein_error>  (326) 
None

>  <ref_pdb>  (326) 
5hmx-a

>  <Multi-SuCOS>  (326) 
0.702681

>  <SLURM_JOB_NAME>  (326) 
BulkDock.place:Flavi_NS5_RdRp:thumb_site_2_fstein_bulkdock_input_split1000_batch000

>  <HIPPO Compound ID>  (326) 
69322

>  <original SMILES>  (326) 
N[C@H](c1ccccc1)c1ccc(-c2cc(CC(=O)O)cc(CC(=O)O)c2)s1

>  <name>  (326) 
YCJFKKPTJKKHNY-OAQYLSRUSA-N

>  <HIPPO Pose ID>  (326) 
81675

>  <ref_mols>  (326) 
d0162a,5hmx-a

>  <exports>  (326) 
['/opt/xchem-fragalysis-2/maxwin/BulkDock/OUTPUTS/thumb_site_2_fstein_bulkdock_input_split1000_batch000_217914.sdf', '/opt/xchem-fragalysis-2/maxwin/BulkDock/OUTPUTS/thumb_site_2_fstein_bulkdock_input_split1000_batch000_217914_fragalysis.sdf', '/opt/xchem-fragalysis-2/maxwin/RdRp_FFF/syndirella/Retro_OK_batch1.sdf']

>  <alias>  (326) 
None

>  <inchikey>  (326) 
YCJFKKPTJKKHNY-OAQYLSRUSA-N

>  <energy_score>  (326) 
-70.93952

>  <distance_score>  (326) 
0.894133

>  <fragmenstein_outcome>  (326) 
acceptable

>  <merge_set>  (326) 
thumb_site_2_fstein_bulkdock_input

>  <scratch_subdir>  (326) 
/opt/xchem-fragalysis-2/maxwin/BulkDock/SCRATCH/217914/C69322-P224

>  <SLURM_JOB_ID>  (326) 
217914

>  <tags>  (326) 
['Fragmenstein placed', 'thumb_site_2_fstein_bulkdock_input Pose OK']

>  <fragmenstein_mode>  (326) 
expansion

>  <csv_name>  (326) 
thumb_site_2_fstein_bulkdock_input_split1000_batch000.csv

$$$$
RIGFXPYYCKCHGJ-UHFFFAOYSA-N
     RDKit          3D

 25 26  0  0  0  0  0  0  0  0999 V2000
  -15.8476  -46.9142  -18.0457 C   0  0  0  0  0  0  0  0  0  0  0  0
  -16.6439  -45.7499  -18.2525 O   0  0  0  0  0  0  0  0  0  0  0  0
  -16.0017  -44.7730  -18.9526 C   0  0  0  0  0  0  0  0  0  0  0  0
  -15.2380  -43.8510  -18.2040 C   0  0  0  0  0  0  0  0  0  0  0  0
  -15.2298  -43.8461  -16.6884 C   0  0  0  0  0  0  0  0  0  0  0  0
  -16.6019  -43.7615  -16.0547 C   0  0  0  0  0  0  0  0  0  0  0  0
  -17.4094  -42.8462  -16.1554 O   0  0  0  0  0  0  0  0  0  0  0  0
  -16.8872  -44.8433  -15.3002 O   0  0  0  0  0  0  0  0  0  0  0  0
  -14.4496  -42.9282  -18.8940 C   0  0  0  0  0  0  0  0  0  0  0  0
  -14.4686  -42.8834  -20.2903 C   0  0  0  0  0  0  0  0  0  0  0  0
  -13.5650  -41.9235  -21.0274 C   0  0  0  0  0  0  0  0  0  0  0  0
  -14.0476  -40.4983  -20.9998 C   0  0  0  0  0  0  0  0  0  0  0  0
  -15.1917  -40.1063  -20.8247 O   0  0  0  0  0  0  0  0  0  0  0  0
  -13.0666  -39.6105  -21.2662 O   0  0  0  0  0  0  0  0  0  0  0  0
  -15.3540  -43.7183  -20.9964 C   0  0  0  0  0  0  0  0  0  0  0  0
  -16.1847  -44.6526  -20.3478 C   0  0  0  0  0  0  0  0  0  0  0  0
  -17.2026  -45.4354  -21.1202 C   0  0  0  0  0  0  0  0  0  0  0  0
  -17.8836  -46.6069  -20.8188 C   0  0  0  0  0  0  0  0  0  0  0  0
  -18.7579  -47.0554  -21.8591 C   0  0  0  0  0  0  0  0  0  0  0  0
  -18.7891  -46.1864  -22.9189 C   0  0  0  0  0  0  0  0  0  0  0  0
  -19.5269  -46.3832  -24.1268 C   0  0  0  0  0  0  0  0  0  0  0  0
  -20.0782  -46.4977  -25.1898 C   0  0  0  0  0  0  0  0  0  0  0  0
  -20.6329  -46.5429  -26.5422 C   0  0  0  0  0  0  0  0  0  0  0  0
  -22.0428  -46.3582  -26.4974 O   0  0  0  0  0  0  0  0  0  0  0  0
  -17.7920  -44.8392  -22.6358 S   0  0  0  0  0  0  0  0  0  0  0  0
  1  2  1  0
  2  3  1  0
  3  4  2  0
  4  5  1  0
  5  6  1  0
  6  7  2  0
  6  8  1  0
  4  9  1  0
  9 10  2  0
 10 11  1  0
 11 12  1  0
 12 13  2  0
 12 14  1  0
 10 15  1  0
 15 16  2  0
 16 17  1  0
 17 18  2  0
 18 19  1  0
 19 20  2  0
 20 21  1  0
 21 22  3  0
 22 23  1  0
 23 24  1  0
 20 25  1  0
 16  3  1  0
 25 17  1  0
M  END
>  <fragmenstein_runtime>  (327) 
6.168025

>  <original ID>  (327) 
RIGFXPYYCKCHGJ-UHFFFAOYSA-N

>  <fragmenstein_error>  (327) 
None

>  <ref_pdb>  (327) 
5hmy-a

>  <Multi-SuCOS>  (327) 
0.861759

>  <SLURM_JOB_NAME>  (327) 
BulkDock.place:Flavi_NS5_RdRp:primer_grip_n_pocket_fstein_bulkdock_input_split1000_batch000

>  <HIPPO Compound ID>  (327) 
67659

>  <original SMILES>  (327) 
COc1c(CC(=O)O)cc(CC(=O)O)cc1-c1ccc(C#CCO)s1

>  <name>  (327) 
RIGFXPYYCKCHGJ-UHFFFAOYSA-N

>  <HIPPO Pose ID>  (327) 
82075

>  <ref_mols>  (327) 
z0052a,z0103a,5hmy-a,5i3q-a,5hmx-b,5k5m-a

>  <exports>  (327) 
['/opt/xchem-fragalysis-2/maxwin/BulkDock/OUTPUTS/primer_grip_n_pocket_fstein_bulkdock_input_split1000_batch000_217912.sdf', '/opt/xchem-fragalysis-2/maxwin/BulkDock/OUTPUTS/primer_grip_n_pocket_fstein_bulkdock_input_split1000_batch000_217912_fragalysis.sdf', '/opt/xchem-fragalysis-2/maxwin/RdRp_FFF/syndirella/Retro_OK_batch1.sdf']

>  <alias>  (327) 
None

>  <inchikey>  (327) 
RIGFXPYYCKCHGJ-UHFFFAOYSA-N

>  <energy_score>  (327) 
-82.226969

>  <distance_score>  (327) 
1.019154

>  <fragmenstein_outcome>  (327) 
acceptable

>  <merge_set>  (327) 
primer_grip_n_pocket_fstein_bulkdock_input

>  <scratch_subdir>  (327) 
/opt/xchem-fragalysis-2/maxwin/BulkDock/SCRATCH/217912/C67659-P216

>  <SLURM_JOB_ID>  (327) 
217912

>  <tags>  (327) 
['Fragmenstein placed', 'primer_grip_n_pocket_fstein_bulkdock_input Pose OK']

>  <fragmenstein_mode>  (327) 
expansion

>  <csv_name>  (327) 
primer_grip_n_pocket_fstein_bulkdock_input_split1000_batch000.csv

$$$$
RIGFXPYYCKCHGJ-UHFFFAOYSA-N
     RDKit          3D

 25 26  0  0  0  0  0  0  0  0999 V2000
  -14.6399  -43.8630  -23.1591 C   0  0  0  0  0  0  0  0  0  0  0  0
  -15.4931  -43.1233  -22.3023 O   0  0  0  0  0  0  0  0  0  0  0  0
  -15.4804  -43.5637  -21.0016 C   0  0  0  0  0  0  0  0  0  0  0  0
  -14.6291  -42.8688  -20.1100 C   0  0  0  0  0  0  0  0  0  0  0  0
  -13.6512  -41.8166  -20.5788 C   0  0  0  0  0  0  0  0  0  0  0  0
  -14.1693  -40.4196  -20.3755 C   0  0  0  0  0  0  0  0  0  0  0  0
  -14.9748  -39.8290  -21.0812 O   0  0  0  0  0  0  0  0  0  0  0  0
  -13.6769  -39.8259  -19.2683 O   0  0  0  0  0  0  0  0  0  0  0  0
  -14.7266  -43.1049  -18.7264 C   0  0  0  0  0  0  0  0  0  0  0  0
  -15.6538  -44.0126  -18.2143 C   0  0  0  0  0  0  0  0  0  0  0  0
  -15.7598  -44.2657  -16.7222 C   0  0  0  0  0  0  0  0  0  0  0  0
  -16.5089  -43.2294  -15.9133 C   0  0  0  0  0  0  0  0  0  0  0  0
  -17.2606  -42.3473  -16.2988 O   0  0  0  0  0  0  0  0  0  0  0  0
  -16.2975  -43.3912  -14.5868 O   0  0  0  0  0  0  0  0  0  0  0  0
  -16.4656  -44.7143  -19.1218 C   0  0  0  0  0  0  0  0  0  0  0  0
  -16.4125  -44.5162  -20.5243 C   0  0  0  0  0  0  0  0  0  0  0  0
  -17.3355  -45.3365  -21.3610 C   0  0  0  0  0  0  0  0  0  0  0  0
  -17.8611  -46.5910  -21.0717 C   0  0  0  0  0  0  0  0  0  0  0  0
  -18.6963  -47.1170  -22.1026 C   0  0  0  0  0  0  0  0  0  0  0  0
  -18.8278  -46.2409  -23.1511 C   0  0  0  0  0  0  0  0  0  0  0  0
  -19.5787  -46.4929  -24.3417 C   0  0  0  0  0  0  0  0  0  0  0  0
  -20.1839  -46.6425  -25.3705 C   0  0  0  0  0  0  0  0  0  0  0  0
  -20.8447  -46.7413  -26.6709 C   0  0  0  0  0  0  0  0  0  0  0  0
  -22.1625  -46.2049  -26.5869 O   0  0  0  0  0  0  0  0  0  0  0  0
  -17.9844  -44.7882  -22.8522 S   0  0  0  0  0  0  0  0  0  0  0  0
  1  2  1  0
  2  3  1  0
  3  4  2  0
  4  5  1  0
  5  6  1  0
  6  7  2  0
  6  8  1  0
  4  9  1  0
  9 10  2  0
 10 11  1  0
 11 12  1  0
 12 13  2  0
 12 14  1  0
 10 15  1  0
 15 16  2  0
 16 17  1  0
 17 18  2  0
 18 19  1  0
 19 20  2  0
 20 21  1  0
 21 22  3  0
 22 23  1  0
 23 24  1  0
 20 25  1  0
 16  3  1  0
 25 17  1  0
M  END
>  <fragmenstein_runtime>  (328) 
4.007996

>  <original ID>  (328) 
RIGFXPYYCKCHGJ-UHFFFAOYSA-N

>  <fragmenstein_error>  (328) 
None

>  <ref_pdb>  (328) 
5i3q-a

>  <Multi-SuCOS>  (328) 
0.900087

>  <SLURM_JOB_NAME>  (328) 
BulkDock.place:Flavi_NS5_RdRp:primer_grip_n_pocket_fstein_bulkdock_input_split1000_batch000

>  <HIPPO Compound ID>  (328) 
67659

>  <original SMILES>  (328) 
COc1c(CC(=O)O)cc(CC(=O)O)cc1-c1ccc(C#CCO)s1

>  <name>  (328) 
RIGFXPYYCKCHGJ-UHFFFAOYSA-N

>  <HIPPO Pose ID>  (328) 
82085

>  <ref_mols>  (328) 
5hmy-a,5i3q-a

>  <exports>  (328) 
['/opt/xchem-fragalysis-2/maxwin/BulkDock/OUTPUTS/primer_grip_n_pocket_fstein_bulkdock_input_split1000_batch000_217912.sdf', '/opt/xchem-fragalysis-2/maxwin/BulkDock/OUTPUTS/primer_grip_n_pocket_fstein_bulkdock_input_split1000_batch000_217912_fragalysis.sdf', '/opt/xchem-fragalysis-2/maxwin/RdRp_FFF/syndirella/Retro_OK_batch1.sdf']

>  <alias>  (328) 
None

>  <inchikey>  (328) 
RIGFXPYYCKCHGJ-UHFFFAOYSA-N

>  <energy_score>  (328) 
-81.057224

>  <distance_score>  (328) 
0.511882

>  <fragmenstein_outcome>  (328) 
acceptable

>  <merge_set>  (328) 
primer_grip_n_pocket_fstein_bulkdock_input

>  <scratch_subdir>  (328) 
/opt/xchem-fragalysis-2/maxwin/BulkDock/SCRATCH/217912/C67659-P221

>  <SLURM_JOB_ID>  (328) 
217912

>  <tags>  (328) 
['Fragmenstein placed', 'primer_grip_n_pocket_fstein_bulkdock_input Pose OK']

>  <fragmenstein_mode>  (328) 
expansion

>  <csv_name>  (328) 
primer_grip_n_pocket_fstein_bulkdock_input_split1000_batch000.csv

$$$$
RIGFXPYYCKCHGJ-UHFFFAOYSA-N
     RDKit          3D

 25 26  0  0  0  0  0  0  0  0999 V2000
  -14.0970  -44.0253  -22.9443 C   0  0  0  0  0  0  0  0  0  0  0  0
  -14.9494  -43.2742  -22.0940 O   0  0  0  0  0  0  0  0  0  0  0  0
  -14.9893  -43.7363  -20.8008 C   0  0  0  0  0  0  0  0  0  0  0  0
  -14.1365  -43.0841  -19.8800 C   0  0  0  0  0  0  0  0  0  0  0  0
  -13.1057  -42.0656  -20.3148 C   0  0  0  0  0  0  0  0  0  0  0  0
  -13.6139  -40.6535  -20.2239 C   0  0  0  0  0  0  0  0  0  0  0  0
  -14.2652  -40.0547  -21.0671 O   0  0  0  0  0  0  0  0  0  0  0  0
  -13.3162  -40.0608  -19.0482 O   0  0  0  0  0  0  0  0  0  0  0  0
  -14.2817  -43.3294  -18.5032 C   0  0  0  0  0  0  0  0  0  0  0  0
  -15.2419  -44.2221  -18.0251 C   0  0  0  0  0  0  0  0  0  0  0  0
  -15.4060  -44.4418  -16.5320 C   0  0  0  0  0  0  0  0  0  0  0  0
  -16.1468  -43.3394  -15.7900 C   0  0  0  0  0  0  0  0  0  0  0  0
  -16.9358  -42.5401  -16.2803 O   0  0  0  0  0  0  0  0  0  0  0  0
  -15.9137  -43.3340  -14.4579 O   0  0  0  0  0  0  0  0  0  0  0  0
  -16.0469  -44.8960  -18.9618 C   0  0  0  0  0  0  0  0  0  0  0  0
  -15.9631  -44.6655  -20.3602 C   0  0  0  0  0  0  0  0  0  0  0  0
  -16.8987  -45.4268  -21.2388 C   0  0  0  0  0  0  0  0  0  0  0  0
  -17.4341  -46.6913  -21.0229 C   0  0  0  0  0  0  0  0  0  0  0  0
  -18.2834  -47.1396  -22.0786 C   0  0  0  0  0  0  0  0  0  0  0  0
  -18.3977  -46.2067  -23.0807 C   0  0  0  0  0  0  0  0  0  0  0  0
  -19.1337  -46.4034  -24.2915 C   0  0  0  0  0  0  0  0  0  0  0  0
  -19.7315  -46.5866  -25.3193 C   0  0  0  0  0  0  0  0  0  0  0  0
  -20.4143  -46.8608  -26.5820 C   0  0  0  0  0  0  0  0  0  0  0  0
  -21.5795  -46.0424  -26.7024 O   0  0  0  0  0  0  0  0  0  0  0  0
  -17.5380  -44.7850  -22.7007 S   0  0  0  0  0  0  0  0  0  0  0  0
  1  2  1  0
  2  3  1  0
  3  4  2  0
  4  5  1  0
  5  6  1  0
  6  7  2  0
  6  8  1  0
  4  9  1  0
  9 10  2  0
 10 11  1  0
 11 12  1  0
 12 13  2  0
 12 14  1  0
 10 15  1  0
 15 16  2  0
 16 17  1  0
 17 18  2  0
 18 19  1  0
 19 20  2  0
 20 21  1  0
 21 22  3  0
 22 23  1  0
 23 24  1  0
 20 25  1  0
 16  3  1  0
 25 17  1  0
M  END
>  <fragmenstein_runtime>  (329) 
5.47791

>  <original ID>  (329) 
RIGFXPYYCKCHGJ-UHFFFAOYSA-N

>  <fragmenstein_error>  (329) 
None

>  <ref_pdb>  (329) 
5k5m-a

>  <Multi-SuCOS>  (329) 
0.870363

>  <SLURM_JOB_NAME>  (329) 
BulkDock.place:Flavi_NS5_RdRp:primer_grip_n_pocket_fstein_bulkdock_input_split1000_batch000

>  <HIPPO Compound ID>  (329) 
67659

>  <original SMILES>  (329) 
COc1c(CC(=O)O)cc(CC(=O)O)cc1-c1ccc(C#CCO)s1

>  <name>  (329) 
RIGFXPYYCKCHGJ-UHFFFAOYSA-N

>  <HIPPO Pose ID>  (329) 
82087

>  <ref_mols>  (329) 
5hmy-a,5k5m-a

>  <exports>  (329) 
['/opt/xchem-fragalysis-2/maxwin/BulkDock/OUTPUTS/primer_grip_n_pocket_fstein_bulkdock_input_split1000_batch000_217912.sdf', '/opt/xchem-fragalysis-2/maxwin/BulkDock/OUTPUTS/primer_grip_n_pocket_fstein_bulkdock_input_split1000_batch000_217912_fragalysis.sdf', '/opt/xchem-fragalysis-2/maxwin/RdRp_FFF/syndirella/Retro_OK_batch1.sdf']

>  <alias>  (329) 
None

>  <inchikey>  (329) 
RIGFXPYYCKCHGJ-UHFFFAOYSA-N

>  <energy_score>  (329) 
-74.285712

>  <distance_score>  (329) 
0.710481

>  <fragmenstein_outcome>  (329) 
acceptable

>  <merge_set>  (329) 
primer_grip_n_pocket_fstein_bulkdock_input

>  <scratch_subdir>  (329) 
/opt/xchem-fragalysis-2/maxwin/BulkDock/SCRATCH/217912/C67659-P225

>  <SLURM_JOB_ID>  (329) 
217912

>  <tags>  (329) 
['Fragmenstein placed', 'primer_grip_n_pocket_fstein_bulkdock_input Pose OK']

>  <fragmenstein_mode>  (329) 
expansion

>  <csv_name>  (329) 
primer_grip_n_pocket_fstein_bulkdock_input_split1000_batch000.csv

$$$$
PLFWRPDYIAZGJA-QHCPKHFHSA-N
     RDKit          3D

 31 34  0  0  0  0  0  0  0  0999 V2000
  -14.6130  -40.0901  -20.2490 O   0  0  0  0  0  0  0  0  0  0  0  0
  -13.7475  -40.5562  -20.9761 C   0  0  0  0  0  0  0  0  0  0  0  0
  -12.9962  -39.7412  -21.7486 O   0  0  0  0  0  0  0  0  0  0  0  0
  -13.3665  -42.0099  -21.1270 C   0  0  0  0  0  0  0  0  0  0  0  0
  -14.3203  -42.9354  -20.4131 C   0  0  0  0  0  0  0  0  0  0  0  0
  -15.2238  -43.7278  -21.1313 C   0  0  0  0  0  0  0  0  0  0  0  0
  -16.2006  -44.4990  -20.4810 C   0  0  0  0  0  0  0  0  0  0  0  0
  -17.1663  -45.3043  -21.2513 C   0  0  0  0  0  0  0  0  0  0  0  0
  -17.5214  -46.6029  -20.8638 C   0  0  0  0  0  0  0  0  0  0  0  0
  -18.4106  -47.3626  -21.6278 C   0  0  0  0  0  0  0  0  0  0  0  0
  -18.9813  -46.8347  -22.7765 C   0  0  0  0  0  0  0  0  0  0  0  0
  -18.6406  -45.5564  -23.1803 C   0  0  0  0  0  0  0  0  0  0  0  0
  -17.7510  -44.8015  -22.4226 C   0  0  0  0  0  0  0  0  0  0  0  0
  -16.2520  -44.4348  -19.0779 C   0  0  0  0  0  0  0  0  0  0  0  0
  -15.3517  -43.6482  -18.3308 C   0  0  0  0  0  0  0  0  0  0  0  0
  -15.6030  -43.4519  -16.8366 C   0  0  2  0  0  0  0  0  0  0  0  0
  -16.6738  -42.3775  -16.6072 C   0  0  0  0  0  0  0  0  0  0  0  0
  -17.6598  -42.5363  -15.8964 O   0  0  0  0  0  0  0  0  0  0  0  0
  -16.4839  -41.2005  -17.2561 O   0  0  0  0  0  0  0  0  0  0  0  0
  -14.3847  -43.1369  -16.0123 C   0  0  0  0  0  0  0  0  0  0  0  0
  -13.4974  -43.9403  -15.3220 C   0  0  0  0  0  0  0  0  0  0  0  0
  -12.5403  -43.0618  -14.7338 C   0  0  0  0  0  0  0  0  0  0  0  0
  -11.3777  -43.3783  -13.8966 C   0  0  0  0  0  0  0  0  0  0  0  0
  -10.5069  -42.3596  -13.4913 C   0  0  0  0  0  0  0  0  0  0  0  0
   -9.4240  -42.6794  -12.6905 C   0  0  0  0  0  0  0  0  0  0  0  0
   -9.1498  -43.9281  -12.2661 N   0  0  0  0  0  0  0  0  0  0  0  0
  -10.0062  -44.8961  -12.6574 C   0  0  0  0  0  0  0  0  0  0  0  0
  -11.1113  -44.6791  -13.4682 C   0  0  0  0  0  0  0  0  0  0  0  0
  -12.8255  -41.7925  -15.0670 N   0  0  0  0  0  0  0  0  0  0  0  0
  -13.9839  -41.8584  -15.7233 N   0  0  0  0  0  0  0  0  0  0  0  0
  -14.3570  -42.9427  -19.0163 C   0  0  0  0  0  0  0  0  0  0  0  0
  1  2  2  0
  2  3  1  0
  2  4  1  0
  4  5  1  0
  5  6  2  0
  6  7  1  0
  7  8  1  0
  8  9  2  0
  9 10  1  0
 10 11  2  0
 11 12  1  0
 12 13  2  0
  7 14  2  0
 14 15  1  0
 15 16  1  0
 16 17  1  6
 17 18  2  0
 17 19  1  0
 16 20  1  0
 20 21  2  0
 21 22  1  0
 22 23  1  0
 23 24  2  0
 24 25  1  0
 25 26  2  0
 26 27  1  0
 27 28  2  0
 22 29  2  0
 29 30  1  0
 15 31  2  0
 31  5  1  0
 13  8  1  0
 30 20  1  0
 28 23  1  0
M  END
>  <fragmenstein_runtime>  (330) 
6.283455

>  <original ID>  (330) 
PLFWRPDYIAZGJA-QHCPKHFHSA-N

>  <fragmenstein_error>  (330) 
None

>  <ref_pdb>  (330) 
5hmx-b

>  <Multi-SuCOS>  (330) 
0.524697

>  <SLURM_JOB_NAME>  (330) 
BulkDock.place:Flavi_NS5_RdRp:primer_grip_n_pocket_fstein_bulkdock_input_split1000_batch000

>  <HIPPO Compound ID>  (330) 
67718

>  <original SMILES>  (330) 
O=C(O)Cc1cc(-c2ccccc2)cc([C@H](C(=O)O)c2cc(-c3ccncc3)n[nH]2)c1

>  <name>  (330) 
PLFWRPDYIAZGJA-QHCPKHFHSA-N

>  <HIPPO Pose ID>  (330) 
82419

>  <ref_mols>  (330) 
5hmx-b,5hmz-a

>  <exports>  (330) 
['/opt/xchem-fragalysis-2/maxwin/BulkDock/OUTPUTS/primer_grip_n_pocket_fstein_bulkdock_input_split1000_batch000_217912.sdf', '/opt/xchem-fragalysis-2/maxwin/BulkDock/OUTPUTS/primer_grip_n_pocket_fstein_bulkdock_input_split1000_batch000_217912_fragalysis.sdf', '/opt/xchem-fragalysis-2/maxwin/RdRp_FFF/syndirella/Retro_OK_batch1.sdf']

>  <alias>  (330) 
None

>  <inchikey>  (330) 
PLFWRPDYIAZGJA-QHCPKHFHSA-N

>  <energy_score>  (330) 
-54.763692

>  <distance_score>  (330) 
0.985658

>  <fragmenstein_outcome>  (330) 
acceptable

>  <merge_set>  (330) 
primer_grip_n_pocket_fstein_bulkdock_input

>  <scratch_subdir>  (330) 
/opt/xchem-fragalysis-2/maxwin/BulkDock/SCRATCH/217912/C67718-P223

>  <SLURM_JOB_ID>  (330) 
217912

>  <tags>  (330) 
['Fragmenstein placed', 'primer_grip_n_pocket_fstein_bulkdock_input Pose OK']

>  <fragmenstein_mode>  (330) 
expansion

>  <csv_name>  (330) 
primer_grip_n_pocket_fstein_bulkdock_input_split1000_batch000.csv

$$$$
KPCMUKYNNKXHMF-UHFFFAOYSA-N
     RDKit          3D

 21 22  0  0  0  0  0  0  0  0999 V2000
  -15.2292  -43.8114  -22.5733 N   0  0  0  0  0  0  0  0  0  0  0  0
  -15.3433  -43.8858  -21.1703 C   0  0  0  0  0  0  0  0  0  0  0  0
  -14.4909  -43.1138  -20.3544 C   0  0  0  0  0  0  0  0  0  0  0  0
  -13.4830  -42.1462  -20.9238 C   0  0  0  0  0  0  0  0  0  0  0  0
  -13.9051  -40.7064  -20.7869 C   0  0  0  0  0  0  0  0  0  0  0  0
  -15.0405  -40.2948  -20.9924 O   0  0  0  0  0  0  0  0  0  0  0  0
  -12.8907  -39.8756  -20.4537 O   0  0  0  0  0  0  0  0  0  0  0  0
  -14.5773  -43.2172  -18.9555 C   0  0  0  0  0  0  0  0  0  0  0  0
  -15.5424  -44.0242  -18.3539 C   0  0  0  0  0  0  0  0  0  0  0  0
  -15.6482  -44.1143  -16.8484 C   0  0  0  0  0  0  0  0  0  0  0  0
  -16.6341  -43.1749  -16.1907 C   0  0  0  0  0  0  0  0  0  0  0  0
  -17.0785  -43.3586  -15.0655 O   0  0  0  0  0  0  0  0  0  0  0  0
  -16.9905  -42.0789  -16.8995 O   0  0  0  0  0  0  0  0  0  0  0  0
  -16.4551  -44.7001  -19.1718 C   0  0  0  0  0  0  0  0  0  0  0  0
  -16.3920  -44.6389  -20.5799 C   0  0  0  0  0  0  0  0  0  0  0  0
  -17.3727  -45.4133  -21.3799 C   0  0  0  0  0  0  0  0  0  0  0  0
  -17.6682  -46.7492  -21.0637 C   0  0  0  0  0  0  0  0  0  0  0  0
  -18.5416  -47.5019  -21.8501 C   0  0  0  0  0  0  0  0  0  0  0  0
  -19.1386  -46.9411  -22.9677 C   0  0  0  0  0  0  0  0  0  0  0  0
  -18.8583  -45.6319  -23.3049 C   0  0  0  0  0  0  0  0  0  0  0  0
  -18.0166  -44.8649  -22.5000 C   0  0  0  0  0  0  0  0  0  0  0  0
  1  2  1  0
  2  3  2  0
  3  4  1  0
  4  5  1  0
  5  6  2  0
  5  7  1  0
  3  8  1  0
  8  9  2  0
  9 10  1  0
 10 11  1  0
 11 12  2  0
 11 13  1  0
  9 14  1  0
 14 15  2  0
 15 16  1  0
 16 17  2  0
 17 18  1  0
 18 19  2  0
 19 20  1  0
 20 21  2  0
 15  2  1  0
 21 16  1  0
M  END
>  <fragmenstein_runtime>  (331) 
6.21844

>  <original ID>  (331) 
KPCMUKYNNKXHMF-UHFFFAOYSA-N

>  <fragmenstein_error>  (331) 
None

>  <ref_pdb>  (331) 
5f3z-a

>  <Multi-SuCOS>  (331) 
0.675385

>  <SLURM_JOB_NAME>  (331) 
BulkDock.place:Flavi_NS5_RdRp:primer_grip_n_pocket_fstein_bulkdock_input_split1000_batch000

>  <HIPPO Compound ID>  (331) 
67721

>  <original SMILES>  (331) 
Nc1c(CC(=O)O)cc(CC(=O)O)cc1-c1ccccc1

>  <name>  (331) 
KPCMUKYNNKXHMF-UHFFFAOYSA-N

>  <HIPPO Pose ID>  (331) 
82423

>  <ref_mols>  (331) 
5hmz-a,5f3z-a

>  <exports>  (331) 
['/opt/xchem-fragalysis-2/maxwin/BulkDock/OUTPUTS/primer_grip_n_pocket_fstein_bulkdock_input_split1000_batch000_217912.sdf', '/opt/xchem-fragalysis-2/maxwin/BulkDock/OUTPUTS/primer_grip_n_pocket_fstein_bulkdock_input_split1000_batch000_217912_fragalysis.sdf', '/opt/xchem-fragalysis-2/maxwin/RdRp_FFF/syndirella/Retro_OK_batch1.sdf']

>  <alias>  (331) 
None

>  <inchikey>  (331) 
KPCMUKYNNKXHMF-UHFFFAOYSA-N

>  <energy_score>  (331) 
-57.201697

>  <distance_score>  (331) 
0.807199

>  <fragmenstein_outcome>  (331) 
acceptable

>  <merge_set>  (331) 
primer_grip_n_pocket_fstein_bulkdock_input

>  <scratch_subdir>  (331) 
/opt/xchem-fragalysis-2/maxwin/BulkDock/SCRATCH/217912/C67721-P231

>  <SLURM_JOB_ID>  (331) 
217912

>  <tags>  (331) 
['Fragmenstein placed', 'primer_grip_n_pocket_fstein_bulkdock_input Pose OK']

>  <fragmenstein_mode>  (331) 
expansion

>  <csv_name>  (331) 
primer_grip_n_pocket_fstein_bulkdock_input_split1000_batch000.csv

$$$$
CITWUZFMFFTAGJ-JTQLQIEISA-N
     RDKit          3D

 17 19  0  0  0  0  0  0  0  0999 V2000
  -28.8441  -30.6402  -15.4851 C   0  0  0  0  0  0  0  0  0  0  0  0
  -27.7935  -29.7657  -15.8913 O   0  0  0  0  0  0  0  0  0  0  0  0
  -27.3276  -30.1054  -17.1500 C   0  0  0  0  0  0  0  0  0  0  0  0
  -25.9734  -30.4520  -17.2416 C   0  0  0  0  0  0  0  0  0  0  0  0
  -25.3996  -30.8575  -18.4569 C   0  0  0  0  0  0  0  0  0  0  0  0
  -23.9557  -31.3243  -18.4466 C   0  0  0  0  0  0  0  0  0  0  0  0
  -23.5650  -32.3784  -19.4937 C   0  0  2  0  0  0  0  0  0  0  0  0
  -22.4267  -33.2866  -19.0190 C   0  0  0  0  0  0  0  0  0  0  0  0
  -21.6459  -33.6399  -20.2806 C   0  0  0  0  0  0  0  0  0  0  0  0
  -22.3493  -32.9823  -21.3821 N   0  0  0  0  0  0  0  0  0  0  0  0
  -22.9858  -31.8054  -20.7799 C   0  0  0  0  0  0  0  0  0  0  0  0
  -26.1696  -30.8030  -19.6287 C   0  0  0  0  0  0  0  0  0  0  0  0
  -27.5134  -30.4127  -19.5310 C   0  0  0  0  0  0  0  0  0  0  0  0
  -28.4655  -30.2805  -20.5173 N   0  0  0  0  0  0  0  0  0  0  0  0
  -29.6660  -29.9246  -19.9696 C   0  0  0  0  0  0  0  0  0  0  0  0
  -29.4792  -29.7849  -18.6141 C   0  0  0  0  0  0  0  0  0  0  0  0
  -28.1192  -30.0797  -18.3182 C   0  0  0  0  0  0  0  0  0  0  0  0
  1  2  1  0
  2  3  1  0
  3  4  2  0
  4  5  1  0
  5  6  1  0
  7  6  1  1
  7  8  1  0
  8  9  1  0
  9 10  1  0
 10 11  1  0
  5 12  2  0
 12 13  1  0
 13 14  1  0
 14 15  1  0
 15 16  2  0
 16 17  1  0
 17  3  1  0
 11  7  1  0
 17 13  2  0
M  END
>  <fragmenstein_runtime>  (332) 
1.982191

>  <original ID>  (332) 
CITWUZFMFFTAGJ-JTQLQIEISA-N

>  <fragmenstein_error>  (332) 
None

>  <ref_pdb>  (332) 
z0107a

>  <Multi-SuCOS>  (332) 
0.655391

>  <SLURM_JOB_NAME>  (332) 
BulkDock.place:Flavi_NS5_RdRp:green_site_rna_tunnel_fstein_bulkdock_input_split1000_batch000

>  <HIPPO Compound ID>  (332) 
66810

>  <original SMILES>  (332) 
COc1cc(C[C@@H]2CCNC2)cc2[nH]ccc12

>  <name>  (332) 
CITWUZFMFFTAGJ-JTQLQIEISA-N

>  <HIPPO Pose ID>  (332) 
82996

>  <ref_mols>  (332) 
z0107a,z0309a

>  <exports>  (332) 
['/opt/xchem-fragalysis-2/maxwin/BulkDock/OUTPUTS/green_site_rna_tunnel_fstein_bulkdock_input_split1000_batch000_217965.sdf', '/opt/xchem-fragalysis-2/maxwin/BulkDock/OUTPUTS/green_site_rna_tunnel_fstein_bulkdock_input_fragalysis.sdf', '/opt/xchem-fragalysis-2/maxwin/RdRp_FFF/syndirella/Retro_OK_batch1.sdf']

>  <alias>  (332) 
None

>  <inchikey>  (332) 
CITWUZFMFFTAGJ-JTQLQIEISA-N

>  <energy_score>  (332) 
-16.32658

>  <distance_score>  (332) 
0.642756

>  <fragmenstein_outcome>  (332) 
acceptable

>  <merge_set>  (332) 
green_site_rna_tunnel_fstein_bulkdock_input_fragalysis.sdf

>  <scratch_subdir>  (332) 
/opt/xchem-fragalysis-2/maxwin/BulkDock/SCRATCH/217965/C66810-P86

>  <SLURM_JOB_ID>  (332) 
217965

>  <tags>  (332) 
['Fragmenstein placed', 'green_site_rna_tunnel_fstein_bulkdock_input_fragalysis.sdf Pose OK']

>  <fragmenstein_mode>  (332) 
expansion

>  <csv_name>  (332) 
green_site_rna_tunnel_fstein_bulkdock_input_split1000_batch000.csv

$$$$
CITWUZFMFFTAGJ-JTQLQIEISA-N
     RDKit          3D

 17 19  0  0  0  0  0  0  0  0999 V2000
  -28.7374  -30.0979  -15.4893 C   0  0  0  0  0  0  0  0  0  0  0  0
  -27.4232  -30.4779  -15.8402 O   0  0  0  0  0  0  0  0  0  0  0  0
  -27.1152  -30.5140  -17.1967 C   0  0  0  0  0  0  0  0  0  0  0  0
  -25.7834  -30.9055  -17.4334 C   0  0  0  0  0  0  0  0  0  0  0  0
  -25.2454  -31.0039  -18.7210 C   0  0  0  0  0  0  0  0  0  0  0  0
  -23.8016  -31.4304  -18.8932 C   0  0  0  0  0  0  0  0  0  0  0  0
  -23.4443  -32.3470  -20.0799 C   0  0  2  0  0  0  0  0  0  0  0  0
  -23.4545  -33.8346  -19.7304 C   0  0  0  0  0  0  0  0  0  0  0  0
  -22.2574  -34.4523  -20.4415 C   0  0  0  0  0  0  0  0  0  0  0  0
  -21.7808  -33.4042  -21.3365 N   0  0  0  0  0  0  0  0  0  0  0  0
  -22.0214  -32.1591  -20.6012 C   0  0  0  0  0  0  0  0  0  0  0  0
  -26.0361  -30.6220  -19.8106 C   0  0  0  0  0  0  0  0  0  0  0  0
  -27.3820  -30.2991  -19.5825 C   0  0  0  0  0  0  0  0  0  0  0  0
  -28.3654  -30.0064  -20.5011 N   0  0  0  0  0  0  0  0  0  0  0  0
  -29.5654  -29.8577  -19.8720 C   0  0  0  0  0  0  0  0  0  0  0  0
  -29.3419  -29.9680  -18.5193 C   0  0  0  0  0  0  0  0  0  0  0  0
  -27.9590  -30.2560  -18.3064 C   0  0  0  0  0  0  0  0  0  0  0  0
  1  2  1  0
  2  3  1  0
  3  4  2  0
  4  5  1  0
  5  6  1  0
  7  6  1  1
  7  8  1  0
  8  9  1  0
  9 10  1  0
 10 11  1  0
  5 12  2  0
 12 13  1  0
 13 14  1  0
 14 15  1  0
 15 16  2  0
 16 17  1  0
 17  3  1  0
 11  7  1  0
 17 13  2  0
M  END
>  <fragmenstein_runtime>  (333) 
2.527519

>  <original ID>  (333) 
CITWUZFMFFTAGJ-JTQLQIEISA-N

>  <fragmenstein_error>  (333) 
None

>  <ref_pdb>  (333) 
z0309a

>  <Multi-SuCOS>  (333) 
0.596148

>  <SLURM_JOB_NAME>  (333) 
BulkDock.place:Flavi_NS5_RdRp:green_site_rna_tunnel_fstein_bulkdock_input_split1000_batch000

>  <HIPPO Compound ID>  (333) 
66810

>  <original SMILES>  (333) 
COc1cc(C[C@@H]2CCNC2)cc2[nH]ccc12

>  <name>  (333) 
CITWUZFMFFTAGJ-JTQLQIEISA-N

>  <HIPPO Pose ID>  (333) 
82997

>  <ref_mols>  (333) 
z0107a,z0309a

>  <exports>  (333) 
['/opt/xchem-fragalysis-2/maxwin/BulkDock/OUTPUTS/green_site_rna_tunnel_fstein_bulkdock_input_split1000_batch000_217965.sdf', '/opt/xchem-fragalysis-2/maxwin/BulkDock/OUTPUTS/green_site_rna_tunnel_fstein_bulkdock_input_fragalysis.sdf', '/opt/xchem-fragalysis-2/maxwin/RdRp_FFF/syndirella/Retro_OK_batch1.sdf']

>  <alias>  (333) 
None

>  <inchikey>  (333) 
CITWUZFMFFTAGJ-JTQLQIEISA-N

>  <energy_score>  (333) 
-14.669151

>  <distance_score>  (333) 
0.726161

>  <fragmenstein_outcome>  (333) 
acceptable

>  <merge_set>  (333) 
green_site_rna_tunnel_fstein_bulkdock_input_fragalysis.sdf

>  <scratch_subdir>  (333) 
/opt/xchem-fragalysis-2/maxwin/BulkDock/SCRATCH/217965/C66810-P113

>  <SLURM_JOB_ID>  (333) 
217965

>  <tags>  (333) 
['Fragmenstein placed', 'green_site_rna_tunnel_fstein_bulkdock_input_fragalysis.sdf Pose OK']

>  <fragmenstein_mode>  (333) 
expansion

>  <csv_name>  (333) 
green_site_rna_tunnel_fstein_bulkdock_input_split1000_batch000.csv

$$$$
YUHACVZIAPTHAH-UHFFFAOYSA-N
     RDKit          3D

 14 14  0  0  0  0  0  0  0  0999 V2000
  -30.0005  -29.8903  -21.2182 C   0  0  0  0  0  0  0  0  0  0  0  0
  -29.8631  -30.9121  -20.1114 C   0  0  0  0  0  0  0  0  0  0  0  0
  -29.8653  -30.2919  -18.7159 C   0  0  0  0  0  0  0  0  0  0  0  0
  -28.7994  -29.2432  -18.4048 C   0  0  0  0  0  0  0  0  0  0  0  0
  -27.4058  -29.7817  -18.2469 C   0  0  0  0  0  0  0  0  0  0  0  0
  -26.7424  -29.7042  -17.0223 C   0  0  0  0  0  0  0  0  0  0  0  0
  -25.4422  -30.1826  -16.9103 C   0  0  0  0  0  0  0  0  0  0  0  0
  -24.8198  -30.7846  -18.0064 C   0  0  0  0  0  0  0  0  0  0  0  0
  -25.4558  -30.8701  -19.2507 C   0  0  0  0  0  0  0  0  0  0  0  0
  -24.8437  -31.5828  -20.2851 N   0  0  0  0  0  0  0  0  0  0  0  0
  -24.7798  -31.0624  -21.6604 C   0  0  0  0  0  0  0  0  0  0  0  0
  -26.0760  -31.2258  -22.4352 C   0  0  0  0  0  0  0  0  0  0  0  0
  -23.6898  -31.8596  -22.3878 C   0  0  0  0  0  0  0  0  0  0  0  0
  -26.7365  -30.3374  -19.3475 C   0  0  0  0  0  0  0  0  0  0  0  0
  1  2  1  0
  2  3  1  0
  3  4  1  0
  4  5  1  0
  5  6  2  0
  6  7  1  0
  7  8  2  0
  8  9  1  0
  9 10  1  0
 10 11  1  0
 11 12  1  0
 11 13  1  0
  9 14  2  0
 14  5  1  0
M  END
>  <fragmenstein_runtime>  (334) 
12.501478

>  <original ID>  (334) 
YUHACVZIAPTHAH-UHFFFAOYSA-N

>  <fragmenstein_error>  (334) 
None

>  <ref_pdb>  (334) 
z0107a

>  <Multi-SuCOS>  (334) 
0.576885

>  <SLURM_JOB_NAME>  (334) 
BulkDock.place:Flavi_NS5_RdRp:green_site_rna_tunnel_fstein_bulkdock_input_split1000_batch000

>  <HIPPO Compound ID>  (334) 
66816

>  <original SMILES>  (334) 
CCCCc1cccc(NC(C)C)c1

>  <name>  (334) 
YUHACVZIAPTHAH-UHFFFAOYSA-N

>  <HIPPO Pose ID>  (334) 
82999

>  <ref_mols>  (334) 
z0107a,z0483a

>  <exports>  (334) 
['/opt/xchem-fragalysis-2/maxwin/BulkDock/OUTPUTS/green_site_rna_tunnel_fstein_bulkdock_input_split1000_batch000_217965.sdf', '/opt/xchem-fragalysis-2/maxwin/BulkDock/OUTPUTS/green_site_rna_tunnel_fstein_bulkdock_input_fragalysis.sdf', '/opt/xchem-fragalysis-2/maxwin/RdRp_FFF/syndirella/Retro_OK_batch1.sdf']

>  <alias>  (334) 
None

>  <inchikey>  (334) 
YUHACVZIAPTHAH-UHFFFAOYSA-N

>  <energy_score>  (334) 
-18.116428

>  <distance_score>  (334) 
0.993795

>  <fragmenstein_outcome>  (334) 
acceptable

>  <merge_set>  (334) 
green_site_rna_tunnel_fstein_bulkdock_input_fragalysis.sdf

>  <scratch_subdir>  (334) 
/opt/xchem-fragalysis-2/maxwin/BulkDock/SCRATCH/217965/C66816-P86

>  <SLURM_JOB_ID>  (334) 
217965

>  <tags>  (334) 
['Fragmenstein placed', 'green_site_rna_tunnel_fstein_bulkdock_input_fragalysis.sdf Pose OK']

>  <fragmenstein_mode>  (334) 
expansion

>  <csv_name>  (334) 
green_site_rna_tunnel_fstein_bulkdock_input_split1000_batch000.csv

$$$$
PHJBSTGCZPQCAF-UHFFFAOYSA-N
     RDKit          3D

 17 18  0  0  0  0  0  0  0  0999 V2000
  -26.1277  -31.2232  -21.4143 C   0  0  0  0  0  0  0  0  0  0  0  0
  -26.8038  -30.0325  -20.9229 N   0  0  0  0  0  0  0  0  0  0  0  0
  -28.0530  -30.2393  -20.2844 C   0  0  0  0  0  0  0  0  0  0  0  0
  -29.0555  -29.9978  -21.1470 N   0  0  0  0  0  0  0  0  0  0  0  0
  -30.2749  -29.8894  -20.6120 C   0  0  0  0  0  0  0  0  0  0  0  0
  -30.5234  -29.9834  -19.2558 C   0  0  0  0  0  0  0  0  0  0  0  0
  -29.4828  -30.2718  -18.3712 C   0  0  0  0  0  0  0  0  0  0  0  0
  -29.6829  -30.2845  -16.9769 C   0  0  0  0  0  0  0  0  0  0  0  0
  -28.6381  -30.6087  -16.1223 C   0  0  0  0  0  0  0  0  0  0  0  0
  -28.8052  -30.5425  -14.7950 F   0  0  0  0  0  0  0  0  0  0  0  0
  -27.4235  -31.0192  -16.6338 C   0  0  0  0  0  0  0  0  0  0  0  0
  -27.2077  -30.9771  -18.0142 C   0  0  0  0  0  0  0  0  0  0  0  0
  -28.2079  -30.5172  -18.9020 C   0  0  0  0  0  0  0  0  0  0  0  0
  -25.9414  -28.7682  -20.2805 S   0  0  0  0  0  0  0  0  0  0  0  0
  -25.1324  -28.1795  -21.5995 N   0  0  0  0  0  0  0  0  0  0  0  0
  -24.9426  -29.3020  -19.3933 O   0  0  0  0  0  0  0  0  0  0  0  0
  -26.8214  -27.7085  -19.8551 O   0  0  0  0  0  0  0  0  0  0  0  0
  1  2  1  0
  2  3  1  0
  3  4  2  0
  4  5  1  0
  5  6  2  0
  6  7  1  0
  7  8  2  0
  8  9  1  0
  9 10  1  0
  9 11  2  0
 11 12  1  0
 12 13  2  0
  2 14  1  0
 14 15  1  0
 14 16  2  0
 14 17  2  0
 13  3  1  0
 13  7  1  0
M  END
>  <fragmenstein_runtime>  (335) 
1.25434

>  <original ID>  (335) 
PHJBSTGCZPQCAF-UHFFFAOYSA-N

>  <fragmenstein_error>  (335) 
None

>  <ref_pdb>  (335) 
z0200a

>  <Multi-SuCOS>  (335) 
0.601216

>  <SLURM_JOB_NAME>  (335) 
BulkDock.place:Flavi_NS5_RdRp:green_site_rna_tunnel_fstein_bulkdock_input_split1000_batch000

>  <HIPPO Compound ID>  (335) 
66848

>  <original SMILES>  (335) 
CN(c1nccc2cc(F)ccc12)S(N)(=O)=O

>  <name>  (335) 
PHJBSTGCZPQCAF-UHFFFAOYSA-N

>  <HIPPO Pose ID>  (335) 
83036

>  <ref_mols>  (335) 
z0111a,z0200a

>  <exports>  (335) 
['/opt/xchem-fragalysis-2/maxwin/BulkDock/OUTPUTS/green_site_rna_tunnel_fstein_bulkdock_input_split1000_batch000_217965.sdf', '/opt/xchem-fragalysis-2/maxwin/BulkDock/OUTPUTS/green_site_rna_tunnel_fstein_bulkdock_input_fragalysis.sdf', '/opt/xchem-fragalysis-2/maxwin/RdRp_FFF/syndirella/Retro_OK_batch1.sdf']

>  <alias>  (335) 
None

>  <inchikey>  (335) 
PHJBSTGCZPQCAF-UHFFFAOYSA-N

>  <energy_score>  (335) 
-68.064027

>  <distance_score>  (335) 
0.94305

>  <fragmenstein_outcome>  (335) 
acceptable

>  <merge_set>  (335) 
green_site_rna_tunnel_fstein_bulkdock_input_fragalysis.sdf

>  <scratch_subdir>  (335) 
/opt/xchem-fragalysis-2/maxwin/BulkDock/SCRATCH/217965/C66848-P100

>  <SLURM_JOB_ID>  (335) 
217965

>  <tags>  (335) 
['Fragmenstein placed', 'green_site_rna_tunnel_fstein_bulkdock_input_fragalysis.sdf Pose OK']

>  <fragmenstein_mode>  (335) 
expansion

>  <csv_name>  (335) 
green_site_rna_tunnel_fstein_bulkdock_input_split1000_batch000.csv

$$$$
NKVIYNZLCNNVKG-UHFFFAOYSA-N
     RDKit          3D

 21 22  0  0  0  0  0  0  0  0999 V2000
  -12.2610  -35.5954  -20.9905 C   0  0  0  0  0  0  0  0  0  0  0  0
  -11.5824  -36.5372  -20.0283 N   0  0  0  0  0  0  0  0  0  0  0  0
  -11.6368  -35.3078  -19.1838 C   0  0  0  0  0  0  0  0  0  0  0  0
  -12.3427  -37.8518  -19.9150 C   0  0  0  0  0  0  0  0  0  0  0  0
  -13.2071  -38.1709  -19.1815 O   0  0  0  0  0  0  0  0  0  0  0  0
  -11.7465  -38.7947  -20.9480 C   0  0  0  0  0  0  0  0  0  0  0  0
  -12.7791  -39.3420  -21.8076 N   0  0  0  0  0  0  0  0  0  0  0  0
  -13.2703  -40.6165  -21.7805 C   0  0  0  0  0  0  0  0  0  0  0  0
  -14.1999  -40.6971  -22.7902 C   0  0  0  0  0  0  0  0  0  0  0  0
  -14.9253  -41.8400  -23.1562 N   0  0  0  0  0  0  0  0  0  0  0  0
  -16.5751  -41.7570  -23.4652 S   0  0  0  0  0  0  0  0  0  0  0  0
  -17.2038  -41.2100  -22.2853 O   0  0  0  0  0  0  0  0  0  0  0  0
  -16.9903  -43.0323  -24.0016 O   0  0  0  0  0  0  0  0  0  0  0  0
  -16.6271  -40.6205  -24.6962 N   0  0  0  0  0  0  0  0  0  0  0  0
  -16.1896  -41.1092  -26.0237 C   0  0  0  0  0  0  0  0  0  0  0  0
  -15.8298  -39.9175  -26.8920 C   0  0  0  0  0  0  0  0  0  0  0  0
  -16.9550  -38.8923  -26.9583 C   0  0  0  0  0  0  0  0  0  0  0  0
  -17.4957  -38.5266  -25.5815 C   0  0  0  0  0  0  0  0  0  0  0  0
  -17.8361  -39.7770  -24.7744 C   0  0  0  0  0  0  0  0  0  0  0  0
  -14.1783  -39.4120  -23.3768 C   0  0  0  0  0  0  0  0  0  0  0  0
  -13.2661  -38.6007  -22.8275 N   0  0  0  0  0  0  0  0  0  0  0  0
  1  2  1  0
  2  3  1  0
  2  4  1  0
  4  5  2  0
  4  6  1  0
  6  7  1  0
  7  8  1  0
  8  9  2  0
  9 10  1  0
 10 11  1  0
 11 12  2  0
 11 13  2  0
 11 14  1  0
 14 15  1  0
 15 16  1  0
 16 17  1  0
 17 18  1  0
 18 19  1  0
  9 20  1  0
 20 21  2  0
 21  7  1  0
 19 14  1  0
M  END
>  <fragmenstein_runtime>  (336) 
4.49684

>  <original ID>  (336) 
NKVIYNZLCNNVKG-UHFFFAOYSA-N

>  <fragmenstein_error>  (336) 
None

>  <ref_pdb>  (336) 
d0160a

>  <Multi-SuCOS>  (336) 
0.483455

>  <SLURM_JOB_NAME>  (336) 
BulkDock.place:Flavi_NS5_RdRp:RdRp_knitwork_primer_grip_n_pocket_pure_split1800_batch000

>  <HIPPO Compound ID>  (336) 
23248

>  <original SMILES>  (336) 
CN(C)C(=O)Cn1cc(NS(=O)(=O)N2CCCCC2)cn1

>  <name>  (336) 
NKVIYNZLCNNVKG-UHFFFAOYSA-N

>  <HIPPO Pose ID>  (336) 
83145

>  <ref_mols>  (336) 
d0160a,d0866a

>  <exports>  (336) 
['/opt/xchem-fragalysis-2/maxwin/BulkDock/OUTPUTS/RdRp_knitwork_primer_grip_n_pocket_pure_split1800_batch000_217034.sdf', '/opt/xchem-fragalysis-2/maxwin/BulkDock/OUTPUTS/RdRp_knitwork_primer_grip_n_pocket_pure_fragalysis.sdf', '/opt/xchem-fragalysis-2/maxwin/RdRp_FFF/syndirella/Retro_OK_batch1.sdf']

>  <alias>  (336) 
None

>  <inchikey>  (336) 
NKVIYNZLCNNVKG-UHFFFAOYSA-N

>  <energy_score>  (336) 
-19.330837

>  <distance_score>  (336) 
0.742683

>  <fragmenstein_outcome>  (336) 
acceptable

>  <merge_set>  (336) 
RdRp_knitwork_primer_grip_n_pocket_pure_fragalysis.sdf

>  <scratch_subdir>  (336) 
/opt/xchem-fragalysis-2/maxwin/BulkDock/SCRATCH/217034/C23248-P12

>  <SLURM_JOB_ID>  (336) 
217034

>  <tags>  (336) 
['Fragmenstein placed', 'RdRp_knitwork_primer_grip_n_pocket_pure_fragalysis.sdf Pose OK']

>  <fragmenstein_mode>  (336) 
expansion

>  <csv_name>  (336) 
RdRp_knitwork_primer_grip_n_pocket_pure_split1800_batch000.csv

$$$$
NKVIYNZLCNNVKG-UHFFFAOYSA-N
     RDKit          3D

 21 22  0  0  0  0  0  0  0  0999 V2000
  -12.0687  -35.5645  -20.8845 C   0  0  0  0  0  0  0  0  0  0  0  0
  -11.3381  -36.5374  -19.9934 N   0  0  0  0  0  0  0  0  0  0  0  0
  -11.3454  -35.3379  -19.1066 C   0  0  0  0  0  0  0  0  0  0  0  0
  -12.0915  -37.8562  -19.8827 C   0  0  0  0  0  0  0  0  0  0  0  0
  -12.9143  -38.2014  -19.1138 O   0  0  0  0  0  0  0  0  0  0  0  0
  -11.5603  -38.7609  -20.9839 C   0  0  0  0  0  0  0  0  0  0  0  0
  -12.6456  -39.2707  -21.8006 N   0  0  0  0  0  0  0  0  0  0  0  0
  -13.1505  -40.5397  -21.7864 C   0  0  0  0  0  0  0  0  0  0  0  0
  -14.1240  -40.5824  -22.7564 C   0  0  0  0  0  0  0  0  0  0  0  0
  -14.8673  -41.7132  -23.1217 N   0  0  0  0  0  0  0  0  0  0  0  0
  -16.5061  -41.6144  -23.4638 S   0  0  0  0  0  0  0  0  0  0  0  0
  -17.1574  -41.0923  -22.2843 O   0  0  0  0  0  0  0  0  0  0  0  0
  -16.9195  -42.8785  -24.0288 O   0  0  0  0  0  0  0  0  0  0  0  0
  -16.5394  -40.4394  -24.6667 N   0  0  0  0  0  0  0  0  0  0  0  0
  -15.9701  -40.8758  -25.9689 C   0  0  0  0  0  0  0  0  0  0  0  0
  -15.7415  -39.6660  -26.8657 C   0  0  0  0  0  0  0  0  0  0  0  0
  -16.9852  -38.7947  -26.9999 C   0  0  0  0  0  0  0  0  0  0  0  0
  -17.5901  -38.4649  -25.6416 C   0  0  0  0  0  0  0  0  0  0  0  0
  -17.8287  -39.7370  -24.8328 C   0  0  0  0  0  0  0  0  0  0  0  0
  -14.1247  -39.2754  -23.2968 C   0  0  0  0  0  0  0  0  0  0  0  0
  -13.1852  -38.4885  -22.7597 N   0  0  0  0  0  0  0  0  0  0  0  0
  1  2  1  0
  2  3  1  0
  2  4  1  0
  4  5  2  0
  4  6  1  0
  6  7  1  0
  7  8  1  0
  8  9  2  0
  9 10  1  0
 10 11  1  0
 11 12  2  0
 11 13  2  0
 11 14  1  0
 14 15  1  0
 15 16  1  0
 16 17  1  0
 17 18  1  0
 18 19  1  0
  9 20  1  0
 20 21  2  0
 21  7  1  0
 19 14  1  0
M  END
>  <fragmenstein_runtime>  (337) 
4.629373

>  <original ID>  (337) 
NKVIYNZLCNNVKG-UHFFFAOYSA-N

>  <fragmenstein_error>  (337) 
None

>  <ref_pdb>  (337) 
d0866a

>  <Multi-SuCOS>  (337) 
0.474286

>  <SLURM_JOB_NAME>  (337) 
BulkDock.place:Flavi_NS5_RdRp:RdRp_knitwork_primer_grip_n_pocket_pure_split1800_batch000

>  <HIPPO Compound ID>  (337) 
23248

>  <original SMILES>  (337) 
CN(C)C(=O)Cn1cc(NS(=O)(=O)N2CCCCC2)cn1

>  <name>  (337) 
NKVIYNZLCNNVKG-UHFFFAOYSA-N

>  <HIPPO Pose ID>  (337) 
83146

>  <ref_mols>  (337) 
d0160a,d0866a

>  <exports>  (337) 
['/opt/xchem-fragalysis-2/maxwin/BulkDock/OUTPUTS/RdRp_knitwork_primer_grip_n_pocket_pure_split1800_batch000_217034.sdf', '/opt/xchem-fragalysis-2/maxwin/BulkDock/OUTPUTS/RdRp_knitwork_primer_grip_n_pocket_pure_fragalysis.sdf', '/opt/xchem-fragalysis-2/maxwin/RdRp_FFF/syndirella/Retro_OK_batch1.sdf']

>  <alias>  (337) 
None

>  <inchikey>  (337) 
NKVIYNZLCNNVKG-UHFFFAOYSA-N

>  <energy_score>  (337) 
-20.466027

>  <distance_score>  (337) 
0.759189

>  <fragmenstein_outcome>  (337) 
acceptable

>  <merge_set>  (337) 
RdRp_knitwork_primer_grip_n_pocket_pure_fragalysis.sdf

>  <scratch_subdir>  (337) 
/opt/xchem-fragalysis-2/maxwin/BulkDock/SCRATCH/217034/C23248-P68

>  <SLURM_JOB_ID>  (337) 
217034

>  <tags>  (337) 
['Fragmenstein placed', 'RdRp_knitwork_primer_grip_n_pocket_pure_fragalysis.sdf Pose OK']

>  <fragmenstein_mode>  (337) 
expansion

>  <csv_name>  (337) 
RdRp_knitwork_primer_grip_n_pocket_pure_split1800_batch000.csv

$$$$
CYTVGLIGRGDJAE-UHFFFAOYSA-N
     RDKit          3D

 21 22  0  0  0  0  0  0  0  0999 V2000
  -11.1542  -35.9746  -20.6392 C   0  0  0  0  0  0  0  0  0  0  0  0
  -11.1504  -37.4733  -20.5471 N   0  0  0  0  0  0  0  0  0  0  0  0
   -9.7646  -37.1870  -20.0752 C   0  0  0  0  0  0  0  0  0  0  0  0
  -11.6445  -38.1040  -21.8364 C   0  0  0  0  0  0  0  0  0  0  0  0
  -11.0516  -38.4400  -22.7953 O   0  0  0  0  0  0  0  0  0  0  0  0
  -13.1383  -38.3089  -21.6636 C   0  0  0  0  0  0  0  0  0  0  0  0
  -13.4653  -39.7071  -21.8195 N   0  0  0  0  0  0  0  0  0  0  0  0
  -13.0483  -40.7322  -21.0238 C   0  0  0  0  0  0  0  0  0  0  0  0
  -13.6174  -41.8646  -21.5508 C   0  0  0  0  0  0  0  0  0  0  0  0
  -14.3894  -41.4132  -22.6381 C   0  0  0  0  0  0  0  0  0  0  0  0
  -15.1059  -42.2543  -23.4699 N   0  0  0  0  0  0  0  0  0  0  0  0
  -16.6935  -41.8909  -23.8083 S   0  0  0  0  0  0  0  0  0  0  0  0
  -17.3641  -41.5437  -22.5739 O   0  0  0  0  0  0  0  0  0  0  0  0
  -17.2012  -42.9703  -24.6254 O   0  0  0  0  0  0  0  0  0  0  0  0
  -16.5319  -40.5372  -24.7552 N   0  0  0  0  0  0  0  0  0  0  0  0
  -15.6755  -40.6389  -25.9546 C   0  0  0  0  0  0  0  0  0  0  0  0
  -16.3988  -40.1096  -27.1720 C   0  0  0  0  0  0  0  0  0  0  0  0
  -16.8249  -38.6622  -26.9724 C   0  0  0  0  0  0  0  0  0  0  0  0
  -17.1892  -38.3271  -25.5306 C   0  0  0  0  0  0  0  0  0  0  0  0
  -17.6344  -39.5728  -24.7794 C   0  0  0  0  0  0  0  0  0  0  0  0
  -14.2954  -40.0934  -22.7970 N   0  0  0  0  0  0  0  0  0  0  0  0
  1  2  1  0
  2  3  1  0
  2  4  1  0
  4  5  2  0
  4  6  1  0
  6  7  1  0
  7  8  1  0
  8  9  2  0
  9 10  1  0
 10 11  1  0
 11 12  1  0
 12 13  2  0
 12 14  2  0
 12 15  1  0
 15 16  1  0
 16 17  1  0
 17 18  1  0
 18 19  1  0
 19 20  1  0
 10 21  2  0
 21  7  1  0
 20 15  1  0
M  END
>  <fragmenstein_runtime>  (338) 
5.616815

>  <original ID>  (338) 
CYTVGLIGRGDJAE-UHFFFAOYSA-N

>  <fragmenstein_error>  (338) 
None

>  <ref_pdb>  (338) 
d0160a

>  <Multi-SuCOS>  (338) 
0.451376

>  <SLURM_JOB_NAME>  (338) 
BulkDock.place:Flavi_NS5_RdRp:RdRp_knitwork_primer_grip_n_pocket_pure_split1800_batch000

>  <HIPPO Compound ID>  (338) 
23249

>  <original SMILES>  (338) 
CN(C)C(=O)Cn1ccc(NS(=O)(=O)N2CCCCC2)n1

>  <name>  (338) 
CYTVGLIGRGDJAE-UHFFFAOYSA-N

>  <HIPPO Pose ID>  (338) 
83147

>  <ref_mols>  (338) 
d0160a,d0866a

>  <exports>  (338) 
['/opt/xchem-fragalysis-2/maxwin/BulkDock/OUTPUTS/RdRp_knitwork_primer_grip_n_pocket_pure_split1800_batch000_217034.sdf', '/opt/xchem-fragalysis-2/maxwin/BulkDock/OUTPUTS/RdRp_knitwork_primer_grip_n_pocket_pure_fragalysis.sdf', '/opt/xchem-fragalysis-2/maxwin/RdRp_FFF/syndirella/Retro_OK_batch1.sdf']

>  <alias>  (338) 
None

>  <inchikey>  (338) 
CYTVGLIGRGDJAE-UHFFFAOYSA-N

>  <energy_score>  (338) 
-3.626543

>  <distance_score>  (338) 
0.999777

>  <fragmenstein_outcome>  (338) 
acceptable

>  <merge_set>  (338) 
RdRp_knitwork_primer_grip_n_pocket_pure_fragalysis.sdf

>  <scratch_subdir>  (338) 
/opt/xchem-fragalysis-2/maxwin/BulkDock/SCRATCH/217034/C23249-P12

>  <SLURM_JOB_ID>  (338) 
217034

>  <tags>  (338) 
['Fragmenstein placed', 'RdRp_knitwork_primer_grip_n_pocket_pure_fragalysis.sdf Pose OK']

>  <fragmenstein_mode>  (338) 
expansion

>  <csv_name>  (338) 
RdRp_knitwork_primer_grip_n_pocket_pure_split1800_batch000.csv

$$$$
CYTVGLIGRGDJAE-UHFFFAOYSA-N
     RDKit          3D

 21 22  0  0  0  0  0  0  0  0999 V2000
  -12.7838  -35.2121  -20.3232 C   0  0  0  0  0  0  0  0  0  0  0  0
  -12.1587  -36.5563  -20.5888 N   0  0  0  0  0  0  0  0  0  0  0  0
  -10.9298  -35.7340  -20.4250 C   0  0  0  0  0  0  0  0  0  0  0  0
  -12.7563  -37.2063  -21.8257 C   0  0  0  0  0  0  0  0  0  0  0  0
  -12.4271  -37.1420  -22.9536 O   0  0  0  0  0  0  0  0  0  0  0  0
  -13.9293  -38.0337  -21.3455 C   0  0  0  0  0  0  0  0  0  0  0  0
  -13.7820  -39.4170  -21.7387 N   0  0  0  0  0  0  0  0  0  0  0  0
  -13.0801  -40.3848  -21.0815 C   0  0  0  0  0  0  0  0  0  0  0  0
  -13.4721  -41.5740  -21.6488 C   0  0  0  0  0  0  0  0  0  0  0  0
  -14.3951  -41.2143  -22.6501 C   0  0  0  0  0  0  0  0  0  0  0  0
  -15.0751  -42.1152  -23.4484 N   0  0  0  0  0  0  0  0  0  0  0  0
  -16.6983  -41.8621  -23.7300 S   0  0  0  0  0  0  0  0  0  0  0  0
  -17.3381  -41.5122  -22.4793 O   0  0  0  0  0  0  0  0  0  0  0  0
  -17.1774  -43.0053  -24.4760 O   0  0  0  0  0  0  0  0  0  0  0  0
  -16.6804  -40.5175  -24.7374 N   0  0  0  0  0  0  0  0  0  0  0  0
  -15.9620  -40.7340  -26.0141 C   0  0  0  0  0  0  0  0  0  0  0  0
  -15.7688  -39.4237  -26.7562 C   0  0  0  0  0  0  0  0  0  0  0  0
  -17.0574  -38.6275  -26.8948 C   0  0  0  0  0  0  0  0  0  0  0  0
  -17.7517  -38.4771  -25.5492 C   0  0  0  0  0  0  0  0  0  0  0  0
  -17.9779  -39.8450  -24.9120 C   0  0  0  0  0  0  0  0  0  0  0  0
  -14.5349  -39.8952  -22.7331 N   0  0  0  0  0  0  0  0  0  0  0  0
  1  2  1  0
  2  3  1  0
  2  4  1  0
  4  5  2  0
  4  6  1  0
  6  7  1  0
  7  8  1  0
  8  9  2  0
  9 10  1  0
 10 11  1  0
 11 12  1  0
 12 13  2  0
 12 14  2  0
 12 15  1  0
 15 16  1  0
 16 17  1  0
 17 18  1  0
 18 19  1  0
 19 20  1  0
 10 21  2  0
 21  7  1  0
 20 15  1  0
M  END
>  <fragmenstein_runtime>  (339) 
4.66975

>  <original ID>  (339) 
CYTVGLIGRGDJAE-UHFFFAOYSA-N

>  <fragmenstein_error>  (339) 
None

>  <ref_pdb>  (339) 
d0866a

>  <Multi-SuCOS>  (339) 
0.447795

>  <SLURM_JOB_NAME>  (339) 
BulkDock.place:Flavi_NS5_RdRp:RdRp_knitwork_primer_grip_n_pocket_pure_split1800_batch000

>  <HIPPO Compound ID>  (339) 
23249

>  <original SMILES>  (339) 
CN(C)C(=O)Cn1ccc(NS(=O)(=O)N2CCCCC2)n1

>  <name>  (339) 
CYTVGLIGRGDJAE-UHFFFAOYSA-N

>  <HIPPO Pose ID>  (339) 
83148

>  <ref_mols>  (339) 
d0160a,d0866a

>  <exports>  (339) 
['/opt/xchem-fragalysis-2/maxwin/BulkDock/OUTPUTS/RdRp_knitwork_primer_grip_n_pocket_pure_split1800_batch000_217034.sdf', '/opt/xchem-fragalysis-2/maxwin/BulkDock/OUTPUTS/RdRp_knitwork_primer_grip_n_pocket_pure_fragalysis.sdf', '/opt/xchem-fragalysis-2/maxwin/RdRp_FFF/syndirella/Retro_OK_batch1.sdf']

>  <alias>  (339) 
None

>  <inchikey>  (339) 
CYTVGLIGRGDJAE-UHFFFAOYSA-N

>  <energy_score>  (339) 
-8.628476

>  <distance_score>  (339) 
0.973468

>  <fragmenstein_outcome>  (339) 
acceptable

>  <merge_set>  (339) 
RdRp_knitwork_primer_grip_n_pocket_pure_fragalysis.sdf

>  <scratch_subdir>  (339) 
/opt/xchem-fragalysis-2/maxwin/BulkDock/SCRATCH/217034/C23249-P68

>  <SLURM_JOB_ID>  (339) 
217034

>  <tags>  (339) 
['Fragmenstein placed', 'RdRp_knitwork_primer_grip_n_pocket_pure_fragalysis.sdf Pose OK']

>  <fragmenstein_mode>  (339) 
expansion

>  <csv_name>  (339) 
RdRp_knitwork_primer_grip_n_pocket_pure_split1800_batch000.csv

$$$$
IXLKKYOTAMQYPU-UHFFFAOYSA-N
     RDKit          3D

 14 15  0  0  0  0  0  0  0  0999 V2000
  -24.9990  -31.2780  -20.0236 C   0  0  0  0  0  0  0  0  0  0  0  0
  -25.9053  -30.9240  -21.1709 C   0  0  0  0  0  0  0  0  0  0  0  0
  -27.2525  -30.3147  -20.9088 C   0  0  0  0  0  0  0  0  0  0  0  0
  -28.0888  -29.9843  -22.0137 C   0  0  0  0  0  0  0  0  0  0  0  0
  -29.3031  -29.5838  -21.6623 N   0  0  0  0  0  0  0  0  0  0  0  0
  -29.2740  -29.6849  -20.3342 N   0  0  0  0  0  0  0  0  0  0  0  0
  -28.0448  -30.0092  -19.7987 C   0  0  0  0  0  0  0  0  0  0  0  0
  -27.9754  -30.0688  -18.3395 C   0  0  0  0  0  0  0  0  0  0  0  0
  -26.8293  -29.9238  -17.5734 C   0  0  0  0  0  0  0  0  0  0  0  0
  -26.9169  -30.0644  -16.1885 C   0  0  0  0  0  0  0  0  0  0  0  0
  -28.1493  -30.3225  -15.6178 C   0  0  0  0  0  0  0  0  0  0  0  0
  -28.2655  -30.4695  -14.2967 F   0  0  0  0  0  0  0  0  0  0  0  0
  -29.2565  -30.4113  -16.4328 C   0  0  0  0  0  0  0  0  0  0  0  0
  -29.1992  -30.2727  -17.7762 N   0  0  0  0  0  0  0  0  0  0  0  0
  1  2  1  0
  2  3  1  0
  3  4  1  0
  4  5  2  0
  5  6  1  0
  6  7  1  0
  7  8  1  0
  8  9  2  0
  9 10  1  0
 10 11  2  0
 11 12  1  0
 11 13  1  0
 13 14  2  0
  7  3  2  0
 14  8  1  0
M  END
>  <fragmenstein_runtime>  (340) 
1.309471

>  <original ID>  (340) 
IXLKKYOTAMQYPU-UHFFFAOYSA-N

>  <fragmenstein_error>  (340) 
None

>  <ref_pdb>  (340) 
z0215a

>  <Multi-SuCOS>  (340) 
0.803622

>  <SLURM_JOB_NAME>  (340) 
BulkDock.place:Flavi_NS5_RdRp:green_site_rna_tunnel_fstein_bulkdock_input_split1000_batch000

>  <HIPPO Compound ID>  (340) 
67005

>  <original SMILES>  (340) 
CCc1cn[nH]c1-c1ccc(F)cn1

>  <name>  (340) 
IXLKKYOTAMQYPU-UHFFFAOYSA-N

>  <HIPPO Pose ID>  (340) 
83419

>  <ref_mols>  (340) 
z0041a,z0215a

>  <exports>  (340) 
['/opt/xchem-fragalysis-2/maxwin/BulkDock/OUTPUTS/green_site_rna_tunnel_fstein_bulkdock_input_split1000_batch000_217965.sdf', '/opt/xchem-fragalysis-2/maxwin/BulkDock/OUTPUTS/green_site_rna_tunnel_fstein_bulkdock_input_fragalysis.sdf', '/opt/xchem-fragalysis-2/maxwin/RdRp_FFF/syndirella/Retro_OK_batch1.sdf']

>  <alias>  (340) 
None

>  <inchikey>  (340) 
IXLKKYOTAMQYPU-UHFFFAOYSA-N

>  <energy_score>  (340) 
-14.551415

>  <distance_score>  (340) 
0.619109

>  <fragmenstein_outcome>  (340) 
acceptable

>  <merge_set>  (340) 
green_site_rna_tunnel_fstein_bulkdock_input_fragalysis.sdf

>  <scratch_subdir>  (340) 
/opt/xchem-fragalysis-2/maxwin/BulkDock/SCRATCH/217965/C67005-P104

>  <SLURM_JOB_ID>  (340) 
217965

>  <tags>  (340) 
['Fragmenstein placed', 'green_site_rna_tunnel_fstein_bulkdock_input_fragalysis.sdf Pose OK']

>  <fragmenstein_mode>  (340) 
expansion

>  <csv_name>  (340) 
green_site_rna_tunnel_fstein_bulkdock_input_split1000_batch000.csv

$$$$
JJNYTXOTMRHCFP-GFCCVEGCSA-N
     RDKit          3D

 19 20  0  0  0  0  0  0  0  0999 V2000
  -21.5121  -34.2359  -24.9913 C   0  0  0  0  0  0  0  0  0  0  0  0
  -22.2840  -33.2510  -24.2597 N   0  0  0  0  0  0  0  0  0  0  0  0
  -23.6758  -33.2236  -24.7066 C   0  0  0  0  0  0  0  0  0  0  0  0
  -24.3994  -32.0533  -24.0308 C   0  0  0  0  0  0  0  0  0  0  0  0
  -24.4851  -32.2188  -22.5643 N   0  0  0  0  0  0  0  0  0  0  0  0
  -25.0692  -30.9913  -21.9577 C   0  0  1  0  0  0  0  0  0  0  0  0
  -26.3571  -30.5720  -22.6205 N   0  0  0  0  0  0  0  0  0  0  0  0
  -26.2372  -29.6168  -23.3981 O   0  0  0  0  0  0  0  0  0  0  0  0
  -25.2128  -31.0592  -20.4986 N   0  0  0  0  0  0  0  0  0  0  0  0
  -26.0217  -30.2804  -19.6841 C   0  0  0  0  0  0  0  0  0  0  0  0
  -25.5136  -29.9164  -18.4221 C   0  0  0  0  0  0  0  0  0  0  0  0
  -26.3089  -29.2879  -17.4587 C   0  0  0  0  0  0  0  0  0  0  0  0
  -27.6431  -29.0493  -17.7411 C   0  0  0  0  0  0  0  0  0  0  0  0
  -28.4532  -28.5473  -16.7979 F   0  0  0  0  0  0  0  0  0  0  0  0
  -28.1610  -29.3978  -18.9752 C   0  0  0  0  0  0  0  0  0  0  0  0
  -29.4678  -29.1437  -19.2202 O   0  0  0  0  0  0  0  0  0  0  0  0
  -27.3742  -30.0318  -19.9274 C   0  0  0  0  0  0  0  0  0  0  0  0
  -23.1029  -32.4124  -22.0377 C   0  0  0  0  0  0  0  0  0  0  0  0
  -22.2655  -33.4751  -22.8007 C   0  0  0  0  0  0  0  0  0  0  0  0
  1  2  1  0
  2  3  1  0
  3  4  1  0
  4  5  1  0
  5  6  1  0
  6  7  1  0
  7  8  2  0
  6  9  1  1
  9 10  1  0
 10 11  2  0
 11 12  1  0
 12 13  2  0
 13 14  1  0
 13 15  1  0
 15 16  1  0
 15 17  2  0
  5 18  1  0
 18 19  1  0
 19  2  1  0
 17 10  1  0
M  END
>  <fragmenstein_runtime>  (341) 
2.903079

>  <original ID>  (341) 
JJNYTXOTMRHCFP-GFCCVEGCSA-N

>  <fragmenstein_error>  (341) 
None

>  <ref_pdb>  (341) 
z0483a

>  <Multi-SuCOS>  (341) 
0.68395

>  <SLURM_JOB_NAME>  (341) 
BulkDock.place:Flavi_NS5_RdRp:green_site_rna_tunnel_fstein_bulkdock_input_split1000_batch000

>  <HIPPO Compound ID>  (341) 
67358

>  <original SMILES>  (341) 
CN1CCN([C@@H](N=O)Nc2ccc(F)c(O)c2)CC1

>  <name>  (341) 
JJNYTXOTMRHCFP-GFCCVEGCSA-N

>  <HIPPO Pose ID>  (341) 
83777

>  <ref_mols>  (341) 
d0378a,z0483a

>  <exports>  (341) 
['/opt/xchem-fragalysis-2/maxwin/BulkDock/OUTPUTS/green_site_rna_tunnel_fstein_bulkdock_input_split1000_batch000_217965.sdf', '/opt/xchem-fragalysis-2/maxwin/BulkDock/OUTPUTS/green_site_rna_tunnel_fstein_bulkdock_input_fragalysis.sdf', '/opt/xchem-fragalysis-2/maxwin/RdRp_FFF/syndirella/Retro_OK_batch1.sdf']

>  <alias>  (341) 
None

>  <inchikey>  (341) 
JJNYTXOTMRHCFP-GFCCVEGCSA-N

>  <energy_score>  (341) 
-45.072368

>  <distance_score>  (341) 
0.9194

>  <fragmenstein_outcome>  (341) 
acceptable

>  <merge_set>  (341) 
green_site_rna_tunnel_fstein_bulkdock_input_fragalysis.sdf

>  <scratch_subdir>  (341) 
/opt/xchem-fragalysis-2/maxwin/BulkDock/SCRATCH/217965/C67358-P133

>  <SLURM_JOB_ID>  (341) 
217965

>  <tags>  (341) 
['Fragmenstein placed', 'green_site_rna_tunnel_fstein_bulkdock_input_fragalysis.sdf Pose OK']

>  <fragmenstein_mode>  (341) 
expansion

>  <csv_name>  (341) 
green_site_rna_tunnel_fstein_bulkdock_input_split1000_batch000.csv

$$$$
