ver_1.2
     RDKit          3D

 24 26  0  0  0  0  0  0  0  0999 V2000
    7.1930    1.4595    0.4540 C   0  0  0  0  0  0  0  0  0  0  0  0
    5.9370    1.4782   -0.2284 O   0  0  0  0  0  0  0  0  0  0  0  0
    4.9463    0.5823    0.1421 C   0  0  0  0  0  0  0  0  0  0  0  0
    5.1526   -0.3263    1.1503 C   0  0  0  0  0  0  0  0  0  0  0  0
    4.1945   -1.2373    1.5508 C   0  0  0  0  0  0  0  0  0  0  0  0
    2.9545   -1.2273    0.8922 C   0  0  0  0  0  0  0  0  0  0  0  0
    2.7776   -0.3070   -0.1139 C   0  0  0  0  0  0  0  0  0  0  0  0
    1.6552   -0.1114   -0.8935 C   0  0  0  0  0  0  0  0  0  0  0  0
    0.3454   -0.7895   -0.9289 C   0  0  0  0  0  0  0  0  0  0  0  0
   -0.5451   -0.4453    0.2053 C   0  0  0  0  0  0  0  0  0  0  0  0
   -1.5464   -0.9146    0.8141 O   0  0  0  0  0  0  0  0  0  0  0  0
   -1.5305   -1.4221    0.3959 N   0  0  0  0  0  0  0  0  0  0  0  0
   -2.5605   -1.4745    1.3715 C   0  0  0  0  0  0  0  0  0  0  0  0
   -3.5354   -0.3648    1.3938 C   0  0  0  0  0  0  0  0  0  0  0  0
   -4.4712   -0.5710    2.3960 O   0  0  0  0  0  0  0  0  0  0  0  0
   -4.2086   -0.0164    0.1492 C   0  0  0  0  0  0  0  0  0  0  0  0
   -5.1634    0.9687    0.3731 C   0  0  0  0  0  0  0  0  0  0  0  0
   -5.9018    1.4161   -0.7280 C   0  0  0  0  0  0  0  0  0  0  0  0
   -5.7197    0.9308   -1.9767 N   0  0  0  0  0  0  0  0  0  0  0  0
   -4.8026   -0.0213   -2.2151 C   0  0  0  0  0  0  0  0  0  0  0  0
   -4.0741   -0.4627   -1.1312 C   0  0  0  0  0  0  0  0  0  0  0  0
    1.9698    0.9164   -1.7437 C   0  0  0  0  0  0  0  0  0  0  0  0
    3.2129    1.3329   -1.5059 O   0  0  0  0  0  0  0  0  0  0  0  0
    3.7204    0.6066   -0.5244 C   0  0  0  0  0  0  0  0  0  0  0  0
  1  2  1  0
  2  3  1  0
  3  4  2  0
  4  5  1  0
  5  6  2  0
  6  7  1  0
  7  8  1  0
  8  9  1  0
  9 10  1  0
 10 11  2  0
 10 12  1  0
 12 13  1  0
 13 14  1  0
 14 15  1  0
 14 16  1  0
 16 17  2  0
 17 18  1  0
 18 19  2  0
 19 20  1  0
 20 21  2  0
  8 22  2  0
 22 23  1  0
 23 24  1  0
 24  3  1  0
 24  7  2  0
 21 16  1  0
M  END
>  <ref_url>  (1) 
https://github.com/mwinokan/RdRp_FFF

>  <submitter_name>  (1) 
Max Winokan

>  <submitter_email>  (1) 
max.winokan@diamond.ac.uk

>  <submitter_institution>  (1) 
DLS

>  <generation_date>  (1) 
2024-12-17

>  <method>  (1) 
Retro_OK_batch3

>  <SLURM_JOB_ID>  (1) 
SLURM_JOB_ID

>  <SLURM_JOB_NAME>  (1) 
SLURM_JOB_NAME

>  <csv_name>  (1) 
csv_name

>  <scratch_subdir>  (1) 
scratch_subdir

>  <fragmenstein_runtime>  (1) 
fragmenstein_runtime

>  <fragmenstein_outcome>  (1) 
fragmenstein_outcome

>  <fragmenstein_mode>  (1) 
fragmenstein_mode

>  <fragmenstein_error>  (1) 
fragmenstein_error

>  <exports>  (1) 
exports

>  <Multi-SuCOS>  (1) 
Multi-SuCOS

>  <merge_set>  (1) 
merge_set

>  <HIPPO Pose ID>  (1) 
HIPPO Pose ID

>  <HIPPO Compound ID>  (1) 
HIPPO Compound ID

>  <smiles>  (1) 
smiles

>  <ref_pdb>  (1) 
protein reference

>  <ref_mols>  (1) 
fragment inspirations

>  <original ID>  (1) 
original ID

>  <compound inchikey>  (1) 
compound inchikey

$$$$
AOSCQMBZAWJOQW-OAHLLOKOSA-N
     RDKit          3D

 24 26  0  0  0  0  0  0  0  0999 V2000
  -20.0874  -32.2067  -19.7210 C   0  0  0  0  0  0  0  0  0  0  0  0
  -19.7081  -32.5616  -18.3936 O   0  0  0  0  0  0  0  0  0  0  0  0
  -20.7610  -32.8298  -17.5612 C   0  0  0  0  0  0  0  0  0  0  0  0
  -21.8988  -33.5530  -17.9358 C   0  0  0  0  0  0  0  0  0  0  0  0
  -22.9289  -33.7942  -17.0254 C   0  0  0  0  0  0  0  0  0  0  0  0
  -22.8635  -33.3174  -15.7097 C   0  0  0  0  0  0  0  0  0  0  0  0
  -21.7359  -32.5797  -15.3084 C   0  0  0  0  0  0  0  0  0  0  0  0
  -21.3327  -31.8861  -14.1216 C   0  0  0  0  0  0  0  0  0  0  0  0
  -22.0982  -31.6999  -12.8535 C   0  0  0  0  0  0  0  0  0  0  0  0
  -23.6008  -31.4614  -13.0551 C   0  0  0  0  0  0  0  0  0  0  0  0
  -24.3972  -32.0274  -12.4134 O   0  0  0  0  0  0  0  0  0  0  0  0
  -23.7810  -30.3996  -14.1751 N   0  0  0  0  0  0  0  0  0  0  0  0
  -24.9839  -29.8867  -14.8010 C   0  0  0  0  0  0  0  0  0  0  0  0
  -25.9555  -30.9964  -15.2482 C   0  0  1  0  0  0  0  0  0  0  0  0
  -26.5465  -31.6187  -14.1048 O   0  0  0  0  0  0  0  0  0  0  0  0
  -27.0622  -30.4613  -16.1314 C   0  0  0  0  0  0  0  0  0  0  0  0
  -26.7929  -30.1079  -17.4577 C   0  0  0  0  0  0  0  0  0  0  0  0
  -27.8484  -29.7291  -18.2723 C   0  0  0  0  0  0  0  0  0  0  0  0
  -29.1293  -29.6583  -17.8598 N   0  0  0  0  0  0  0  0  0  0  0  0
  -29.3690  -29.9781  -16.5735 C   0  0  0  0  0  0  0  0  0  0  0  0
  -28.3841  -30.3667  -15.6842 C   0  0  0  0  0  0  0  0  0  0  0  0
  -20.0702  -31.3980  -14.3886 C   0  0  0  0  0  0  0  0  0  0  0  0
  -19.6998  -31.6808  -15.6605 O   0  0  0  0  0  0  0  0  0  0  0  0
  -20.7174  -32.3869  -16.2340 C   0  0  0  0  0  0  0  0  0  0  0  0
  1  2  1  0
  2  3  1  0
  3  4  2  0
  4  5  1  0
  5  6  2  0
  6  7  1  0
  7  8  1  0
  8  9  1  0
  9 10  1  0
 10 11  2  0
 10 12  1  0
 12 13  1  0
 13 14  1  0
 14 15  1  1
 14 16  1  0
 16 17  2  0
 17 18  1  0
 18 19  2  0
 19 20  1  0
 20 21  2  0
  8 22  2  0
 22 23  1  0
 23 24  1  0
 24  3  1  0
 24  7  2  0
 21 16  1  0
M  END
>  <fragmenstein_mode>  (1) 
expansion

>  <name>  (1) 
AOSCQMBZAWJOQW-OAHLLOKOSA-N

>  <fragmenstein_runtime>  (1) 
2.996244

>  <HIPPO Compound ID>  (1) 
27831

>  <SLURM_JOB_NAME>  (1) 
BulkDock.place:Flavi_NS5_RdRp:RdRp_knitwork_green_site_rna_tunnel_impure_split4000_batch020

>  <ref_mols>  (1) 
z0215a,3vws-a

>  <Multi-SuCOS>  (1) 
0.529197

>  <tags>  (1) 
['Fragmenstein placed', 'RdRp_knitwork_green_site_rna_tunnel_impure_fragalysis.sdf Pose OK']

>  <scratch_subdir>  (1) 
/opt/xchem-fragalysis-2/maxwin/BulkDock/SCRATCH/220471/C27831-P104

>  <energy_score>  (1) 
-50.305216

>  <fragmenstein_error>  (1) 
None

>  <csv_name>  (1) 
RdRp_knitwork_green_site_rna_tunnel_impure_split4000_batch020.csv

>  <merge_set>  (1) 
RdRp_knitwork_green_site_rna_tunnel_impure_fragalysis.sdf

>  <original ID>  (1) 
AOSCQMBZAWJOQW-OAHLLOKOSA-N

>  <HIPPO Pose ID>  (1) 
160257

>  <fragmenstein_outcome>  (1) 
acceptable

>  <exports>  (1) 
['/opt/xchem-fragalysis-2/maxwin/BulkDock/OUTPUTS/RdRp_knitwork_green_site_rna_tunnel_impure_split4000_batch020_220471.sdf', '/opt/xchem-fragalysis-2/maxwin/BulkDock/OUTPUTS/RdRp_knitwork_green_site_rna_tunnel_impure_fragalysis.sdf']

>  <SLURM_JOB_ID>  (1) 
220471

>  <distance_score>  (1) 
0.97607

>  <original SMILES>  (1) 
COc1cccc2c(CC(=O)NC[C@@H](O)c3ccncc3)coc12

>  <alias>  (1) 
None

>  <ref_pdb>  (1) 
z0215a

>  <inchikey>  (1) 
AOSCQMBZAWJOQW-OAHLLOKOSA-N

$$$$
BTMOIFRHSIJEAN-VIFPVBQESA-N
     RDKit          3D

 15 16  0  0  0  0  0  0  0  0999 V2000
  -22.7707  -32.0168  -18.2298 C   0  0  0  0  0  0  0  0  0  0  0  0
  -24.0427  -31.2727  -18.6588 C   0  0  1  0  0  0  0  0  0  0  0  0
  -24.5787  -31.9003  -19.9743 C   0  0  0  0  0  0  0  0  0  0  0  0
  -25.1292  -30.9689  -20.8074 F   0  0  0  0  0  0  0  0  0  0  0  0
  -24.9527  -31.3004  -17.4891 N   0  0  0  0  0  0  0  0  0  0  0  0
  -26.2460  -30.8053  -17.6612 C   0  0  0  0  0  0  0  0  0  0  0  0
  -27.1119  -30.8256  -16.5773 C   0  0  0  0  0  0  0  0  0  0  0  0
  -28.4594  -30.5786  -16.7933 C   0  0  0  0  0  0  0  0  0  0  0  0
  -28.9014  -30.3512  -18.0981 C   0  0  0  0  0  0  0  0  0  0  0  0
  -30.2557  -30.2568  -18.4070 C   0  0  0  0  0  0  0  0  0  0  0  0
  -30.6733  -30.1148  -19.7304 C   0  0  0  0  0  0  0  0  0  0  0  0
  -29.7311  -29.9743  -20.7393 C   0  0  0  0  0  0  0  0  0  0  0  0
  -28.3764  -30.0441  -20.4250 C   0  0  0  0  0  0  0  0  0  0  0  0
  -27.9504  -30.2582  -19.1213 C   0  0  0  0  0  0  0  0  0  0  0  0
  -26.6508  -30.4236  -18.8777 N   0  0  0  0  0  0  0  0  0  0  0  0
  2  1  1  1
  2  3  1  0
  3  4  1  0
  2  5  1  0
  5  6  1  0
  6  7  2  0
  7  8  1  0
  8  9  2  0
  9 10  1  0
 10 11  2  0
 11 12  1  0
 12 13  2  0
 13 14  1  0
 14 15  2  0
 15  6  1  0
 14  9  1  0
M  END
>  <fragmenstein_mode>  (2) 
expansion

>  <name>  (2) 
BTMOIFRHSIJEAN-VIFPVBQESA-N

>  <fragmenstein_runtime>  (2) 
2.229931

>  <HIPPO Compound ID>  (2) 
29165

>  <SLURM_JOB_NAME>  (2) 
BulkDock.place:Flavi_NS5_RdRp:RdRp_knitwork_green_site_rna_tunnel_impure_split4000_batch013

>  <ref_mols>  (2) 
z0384a,z1040a

>  <Multi-SuCOS>  (2) 
0.773654

>  <tags>  (2) 
['Fragmenstein placed', 'RdRp_knitwork_green_site_rna_tunnel_impure_fragalysis.sdf Pose OK']

>  <scratch_subdir>  (2) 
/opt/xchem-fragalysis-2/maxwin/BulkDock/SCRATCH/220464/C29165-P120

>  <energy_score>  (2) 
-41.76866

>  <fragmenstein_error>  (2) 
None

>  <csv_name>  (2) 
RdRp_knitwork_green_site_rna_tunnel_impure_split4000_batch013.csv

>  <merge_set>  (2) 
RdRp_knitwork_green_site_rna_tunnel_impure_fragalysis.sdf

>  <original ID>  (2) 
BTMOIFRHSIJEAN-VIFPVBQESA-N

>  <HIPPO Pose ID>  (2) 
160545

>  <fragmenstein_outcome>  (2) 
acceptable

>  <exports>  (2) 
['/opt/xchem-fragalysis-2/maxwin/BulkDock/OUTPUTS/RdRp_knitwork_green_site_rna_tunnel_impure_split4000_batch013_220464.sdf', '/opt/xchem-fragalysis-2/maxwin/BulkDock/OUTPUTS/RdRp_knitwork_green_site_rna_tunnel_impure_fragalysis.sdf']

>  <SLURM_JOB_ID>  (2) 
220464

>  <distance_score>  (2) 
0.822554

>  <original SMILES>  (2) 
C[C@@H](CF)Nc1ccc2ccccc2n1

>  <alias>  (2) 
None

>  <ref_pdb>  (2) 
z0384a

>  <inchikey>  (2) 
BTMOIFRHSIJEAN-VIFPVBQESA-N

$$$$
BTMOIFRHSIJEAN-VIFPVBQESA-N
     RDKit          3D

 15 16  0  0  0  0  0  0  0  0999 V2000
  -22.8163  -31.8160  -18.2298 C   0  0  0  0  0  0  0  0  0  0  0  0
  -24.1414  -31.1746  -18.6585 C   0  0  1  0  0  0  0  0  0  0  0  0
  -24.6500  -31.8659  -19.9520 C   0  0  0  0  0  0  0  0  0  0  0  0
  -25.1941  -30.9672  -20.8263 F   0  0  0  0  0  0  0  0  0  0  0  0
  -25.0328  -31.2393  -17.4819 N   0  0  0  0  0  0  0  0  0  0  0  0
  -26.3461  -30.8009  -17.6502 C   0  0  0  0  0  0  0  0  0  0  0  0
  -27.1980  -30.8115  -16.5559 C   0  0  0  0  0  0  0  0  0  0  0  0
  -28.5482  -30.5625  -16.7562 C   0  0  0  0  0  0  0  0  0  0  0  0
  -29.0092  -30.3428  -18.0560 C   0  0  0  0  0  0  0  0  0  0  0  0
  -30.3657  -30.2129  -18.3443 C   0  0  0  0  0  0  0  0  0  0  0  0
  -30.7993  -30.0700  -19.6624 C   0  0  0  0  0  0  0  0  0  0  0  0
  -29.8715  -29.9773  -20.6891 C   0  0  0  0  0  0  0  0  0  0  0  0
  -28.5149  -30.0826  -20.3964 C   0  0  0  0  0  0  0  0  0  0  0  0
  -28.0735  -30.2843  -19.0963 C   0  0  0  0  0  0  0  0  0  0  0  0
  -26.7715  -30.4586  -18.8726 N   0  0  0  0  0  0  0  0  0  0  0  0
  2  1  1  1
  2  3  1  0
  3  4  1  0
  2  5  1  0
  5  6  1  0
  6  7  2  0
  7  8  1  0
  8  9  2  0
  9 10  1  0
 10 11  2  0
 11 12  1  0
 12 13  2  0
 13 14  1  0
 14 15  2  0
 15  6  1  0
 14  9  1  0
M  END
>  <fragmenstein_mode>  (3) 
expansion

>  <name>  (3) 
BTMOIFRHSIJEAN-VIFPVBQESA-N

>  <fragmenstein_runtime>  (3) 
2.078181

>  <HIPPO Compound ID>  (3) 
29165

>  <SLURM_JOB_NAME>  (3) 
BulkDock.place:Flavi_NS5_RdRp:RdRp_knitwork_green_site_rna_tunnel_impure_split4000_batch013

>  <ref_mols>  (3) 
z0384a,z1040a

>  <Multi-SuCOS>  (3) 
0.781661

>  <tags>  (3) 
['Fragmenstein placed', 'RdRp_knitwork_green_site_rna_tunnel_impure_fragalysis.sdf Pose OK']

>  <scratch_subdir>  (3) 
/opt/xchem-fragalysis-2/maxwin/BulkDock/SCRATCH/220464/C29165-P208

>  <energy_score>  (3) 
-43.182215

>  <fragmenstein_error>  (3) 
None

>  <csv_name>  (3) 
RdRp_knitwork_green_site_rna_tunnel_impure_split4000_batch013.csv

>  <merge_set>  (3) 
RdRp_knitwork_green_site_rna_tunnel_impure_fragalysis.sdf

>  <original ID>  (3) 
BTMOIFRHSIJEAN-VIFPVBQESA-N

>  <HIPPO Pose ID>  (3) 
160565

>  <fragmenstein_outcome>  (3) 
acceptable

>  <exports>  (3) 
['/opt/xchem-fragalysis-2/maxwin/BulkDock/OUTPUTS/RdRp_knitwork_green_site_rna_tunnel_impure_split4000_batch013_220464.sdf', '/opt/xchem-fragalysis-2/maxwin/BulkDock/OUTPUTS/RdRp_knitwork_green_site_rna_tunnel_impure_fragalysis.sdf']

>  <SLURM_JOB_ID>  (3) 
220464

>  <distance_score>  (3) 
0.797063

>  <original SMILES>  (3) 
C[C@@H](CF)Nc1ccc2ccccc2n1

>  <alias>  (3) 
None

>  <ref_pdb>  (3) 
z1040a

>  <inchikey>  (3) 
BTMOIFRHSIJEAN-VIFPVBQESA-N

$$$$
UBIHDOHNASSPBB-UHFFFAOYSA-N
     RDKit          3D

 14 16  0  0  0  0  0  0  0  0999 V2000
  -29.0848  -30.1091  -16.6950 C   0  0  0  0  0  0  0  0  0  0  0  0
  -27.8942  -29.5709  -17.1227 C   0  0  0  0  0  0  0  0  0  0  0  0
  -27.9581  -29.4623  -18.5371 C   0  0  0  0  0  0  0  0  0  0  0  0
  -27.0796  -28.9645  -19.5121 C   0  0  0  0  0  0  0  0  0  0  0  0
  -27.4430  -29.0254  -20.8650 C   0  0  0  0  0  0  0  0  0  0  0  0
  -26.5371  -28.4910  -21.8546 C   0  0  0  0  0  0  0  0  0  0  0  0
  -25.7754  -27.3000  -21.8617 C   0  0  0  0  0  0  0  0  0  0  0  0
  -25.1021  -27.1406  -23.0027 N   0  0  0  0  0  0  0  0  0  0  0  0
  -25.3988  -28.2626  -23.7619 O   0  0  0  0  0  0  0  0  0  0  0  0
  -26.2498  -29.0627  -23.0706 C   0  0  0  0  0  0  0  0  0  0  0  0
  -28.6824  -29.5631  -21.2358 C   0  0  0  0  0  0  0  0  0  0  0  0
  -29.5829  -30.0445  -20.2802 C   0  0  0  0  0  0  0  0  0  0  0  0
  -29.1878  -29.9776  -18.9414 C   0  0  0  0  0  0  0  0  0  0  0  0
  -29.8604  -30.3441  -17.7998 N   0  0  0  0  0  0  0  0  0  0  0  0
  1  2  2  0
  2  3  1  0
  3  4  2  0
  4  5  1  0
  5  6  1  0
  6  7  1  0
  7  8  2  0
  8  9  1  0
  9 10  1  0
  5 11  2  0
 11 12  1  0
 12 13  2  0
 13 14  1  0
 14  1  1  0
 13  3  1  0
 10  6  2  0
M  END
>  <fragmenstein_mode>  (4) 
expansion

>  <name>  (4) 
UBIHDOHNASSPBB-UHFFFAOYSA-N

>  <fragmenstein_runtime>  (4) 
1.474524

>  <HIPPO Compound ID>  (4) 
29131

>  <SLURM_JOB_NAME>  (4) 
BulkDock.place:Flavi_NS5_RdRp:RdRp_knitwork_green_site_rna_tunnel_impure_split4000_batch010

>  <ref_mols>  (4) 
z0041a,z0496a

>  <Multi-SuCOS>  (4) 
0.705081

>  <tags>  (4) 
['Fragmenstein placed', 'RdRp_knitwork_green_site_rna_tunnel_impure_fragalysis.sdf Pose OK']

>  <scratch_subdir>  (4) 
/opt/xchem-fragalysis-2/maxwin/BulkDock/SCRATCH/220461/C29131-P136

>  <energy_score>  (4) 
-43.762839

>  <fragmenstein_error>  (4) 
None

>  <csv_name>  (4) 
RdRp_knitwork_green_site_rna_tunnel_impure_split4000_batch010.csv

>  <merge_set>  (4) 
RdRp_knitwork_green_site_rna_tunnel_impure_fragalysis.sdf

>  <original ID>  (4) 
UBIHDOHNASSPBB-UHFFFAOYSA-N

>  <HIPPO Pose ID>  (4) 
160704

>  <fragmenstein_outcome>  (4) 
acceptable

>  <exports>  (4) 
['/opt/xchem-fragalysis-2/maxwin/BulkDock/OUTPUTS/RdRp_knitwork_green_site_rna_tunnel_impure_split4000_batch010_220461.sdf', '/opt/xchem-fragalysis-2/maxwin/BulkDock/OUTPUTS/RdRp_knitwork_green_site_rna_tunnel_impure_fragalysis.sdf']

>  <SLURM_JOB_ID>  (4) 
220461

>  <distance_score>  (4) 
0.677487

>  <original SMILES>  (4) 
c1cc2cc(-c3cnoc3)ccc2[nH]1

>  <alias>  (4) 
None

>  <ref_pdb>  (4) 
z0496a

>  <inchikey>  (4) 
UBIHDOHNASSPBB-UHFFFAOYSA-N

$$$$
OYHZTJZXEOYKAH-JTQLQIEISA-N
     RDKit          3D

 18 20  0  0  0  0  0  0  0  0999 V2000
  -24.2553  -33.3554  -24.0821 C   0  0  0  0  0  0  0  0  0  0  0  0
  -24.4708  -33.2250  -22.5782 C   0  0  2  0  0  0  0  0  0  0  0  0
  -24.5874  -31.8073  -22.2113 N   0  0  0  0  0  0  0  0  0  0  0  0
  -25.2194  -31.5883  -20.9097 C   0  0  0  0  0  0  0  0  0  0  0  0
  -26.5030  -30.7889  -20.9616 C   0  0  0  0  0  0  0  0  0  0  0  0
  -27.1258  -30.2451  -19.7783 C   0  0  0  0  0  0  0  0  0  0  0  0
  -28.2983  -29.6327  -19.9036 N   0  0  0  0  0  0  0  0  0  0  0  0
  -28.7260  -29.6729  -21.4964 S   0  0  0  0  0  0  0  0  0  0  0  0
  -27.3145  -30.4808  -22.0411 C   0  0  0  0  0  0  0  0  0  0  0  0
  -23.3665  -33.9084  -21.8159 C   0  0  0  0  0  0  0  0  0  0  0  0
  -23.3938  -35.2239  -21.3817 C   0  0  0  0  0  0  0  0  0  0  0  0
  -22.2641  -35.5527  -20.7075 O   0  0  0  0  0  0  0  0  0  0  0  0
  -21.4775  -34.4441  -20.6932 C   0  0  0  0  0  0  0  0  0  0  0  0
  -20.2342  -34.3466  -20.0678 C   0  0  0  0  0  0  0  0  0  0  0  0
  -19.5629  -33.1264  -20.1892 C   0  0  0  0  0  0  0  0  0  0  0  0
  -20.1269  -32.0677  -20.9025 C   0  0  0  0  0  0  0  0  0  0  0  0
  -21.3809  -32.1986  -21.5175 C   0  0  0  0  0  0  0  0  0  0  0  0
  -22.0861  -33.4113  -21.3977 C   0  0  0  0  0  0  0  0  0  0  0  0
  2  1  1  6
  2  3  1  0
  3  4  1  0
  4  5  1  0
  5  6  1  0
  6  7  2  0
  7  8  1  0
  8  9  1  0
  2 10  1  0
 10 11  2  0
 11 12  1  0
 12 13  1  0
 13 14  2  0
 14 15  1  0
 15 16  2  0
 16 17  1  0
 17 18  2  0
  9  5  2  0
 18 10  1  0
 18 13  1  0
M  END
>  <fragmenstein_mode>  (5) 
expansion

>  <name>  (5) 
OYHZTJZXEOYKAH-JTQLQIEISA-N

>  <fragmenstein_runtime>  (5) 
3.277033

>  <HIPPO Compound ID>  (5) 
30741

>  <SLURM_JOB_NAME>  (5) 
BulkDock.place:Flavi_NS5_RdRp:RdRp_knitwork_green_site_rna_tunnel_impure_split4000_batch015

>  <ref_mols>  (5) 
z0215a,3vws-b

>  <Multi-SuCOS>  (5) 
0.606641

>  <tags>  (5) 
['Fragmenstein placed', 'RdRp_knitwork_green_site_rna_tunnel_impure_fragalysis.sdf Pose OK']

>  <scratch_subdir>  (5) 
/opt/xchem-fragalysis-2/maxwin/BulkDock/SCRATCH/220466/C30741-P104

>  <energy_score>  (5) 
-37.239819

>  <fragmenstein_error>  (5) 
None

>  <csv_name>  (5) 
RdRp_knitwork_green_site_rna_tunnel_impure_split4000_batch015.csv

>  <merge_set>  (5) 
RdRp_knitwork_green_site_rna_tunnel_impure_fragalysis.sdf

>  <original ID>  (5) 
OYHZTJZXEOYKAH-JTQLQIEISA-N

>  <HIPPO Pose ID>  (5) 
161106

>  <fragmenstein_outcome>  (5) 
acceptable

>  <exports>  (5) 
['/opt/xchem-fragalysis-2/maxwin/BulkDock/OUTPUTS/RdRp_knitwork_green_site_rna_tunnel_impure_split4000_batch015_220466.sdf', '/opt/xchem-fragalysis-2/maxwin/BulkDock/OUTPUTS/RdRp_knitwork_green_site_rna_tunnel_impure_fragalysis.sdf']

>  <SLURM_JOB_ID>  (5) 
220466

>  <distance_score>  (5) 
0.879581

>  <original SMILES>  (5) 
C[C@H](NCc1cnsc1)c1coc2ccccc12

>  <alias>  (5) 
None

>  <ref_pdb>  (5) 
z0215a

>  <inchikey>  (5) 
OYHZTJZXEOYKAH-JTQLQIEISA-N

$$$$
IPJNRRHXJADGRQ-VIFPVBQESA-N
     RDKit          3D

 19 21  0  0  0  0  0  0  0  0999 V2000
  -24.4516  -33.5512  -23.9837 C   0  0  0  0  0  0  0  0  0  0  0  0
  -24.4482  -33.0758  -22.5273 C   0  0  2  0  0  0  0  0  0  0  0  0
  -24.3077  -31.6178  -22.4165 N   0  0  0  0  0  0  0  0  0  0  0  0
  -25.5020  -30.8510  -22.8074 C   0  0  0  0  0  0  0  0  0  0  0  0
  -26.4587  -30.5597  -21.6853 C   0  0  0  0  0  0  0  0  0  0  0  0
  -26.2906  -30.5638  -20.3140 C   0  0  0  0  0  0  0  0  0  0  0  0
  -27.4769  -30.1181  -19.6565 C   0  0  0  0  0  0  0  0  0  0  0  0
  -28.5111  -29.8044  -20.4272 N   0  0  0  0  0  0  0  0  0  0  0  0
  -28.0609  -30.0308  -22.0025 S   0  0  0  0  0  0  0  0  0  0  0  0
  -23.3422  -33.7837  -21.7684 C   0  0  0  0  0  0  0  0  0  0  0  0
  -23.4131  -35.1127  -21.3724 C   0  0  0  0  0  0  0  0  0  0  0  0
  -22.2952  -35.5083  -20.7207 O   0  0  0  0  0  0  0  0  0  0  0  0
  -21.4715  -34.4295  -20.6626 C   0  0  0  0  0  0  0  0  0  0  0  0
  -20.2229  -34.3882  -20.0432 C   0  0  0  0  0  0  0  0  0  0  0  0
  -19.7095  -35.4549  -19.4160 F   0  0  0  0  0  0  0  0  0  0  0  0
  -19.5005  -33.1989  -20.0998 C   0  0  0  0  0  0  0  0  0  0  0  0
  -20.0288  -32.0893  -20.7552 C   0  0  0  0  0  0  0  0  0  0  0  0
  -21.2902  -32.1506  -21.3710 C   0  0  0  0  0  0  0  0  0  0  0  0
  -22.0464  -33.3423  -21.3194 C   0  0  0  0  0  0  0  0  0  0  0  0
  2  1  1  6
  2  3  1  0
  3  4  1  0
  4  5  1  0
  5  6  2  0
  6  7  1  0
  7  8  2  0
  8  9  1  0
  2 10  1  0
 10 11  2  0
 11 12  1  0
 12 13  1  0
 13 14  2  0
 14 15  1  0
 14 16  1  0
 16 17  2  0
 17 18  1  0
 18 19  2  0
  9  5  1  0
 19 10  1  0
 19 13  1  0
M  END
>  <fragmenstein_mode>  (6) 
expansion

>  <name>  (6) 
IPJNRRHXJADGRQ-VIFPVBQESA-N

>  <fragmenstein_runtime>  (6) 
1.809331

>  <HIPPO Compound ID>  (6) 
30940

>  <SLURM_JOB_NAME>  (6) 
BulkDock.place:Flavi_NS5_RdRp:RdRp_knitwork_green_site_rna_tunnel_impure_split4000_batch015

>  <ref_mols>  (6) 
z0215a,3vws-b

>  <Multi-SuCOS>  (6) 
0.565736

>  <tags>  (6) 
['Fragmenstein placed', 'RdRp_knitwork_green_site_rna_tunnel_impure_fragalysis.sdf Pose OK']

>  <scratch_subdir>  (6) 
/opt/xchem-fragalysis-2/maxwin/BulkDock/SCRATCH/220466/C30940-P104

>  <energy_score>  (6) 
-58.550598

>  <fragmenstein_error>  (6) 
None

>  <csv_name>  (6) 
RdRp_knitwork_green_site_rna_tunnel_impure_split4000_batch015.csv

>  <merge_set>  (6) 
RdRp_knitwork_green_site_rna_tunnel_impure_fragalysis.sdf

>  <original ID>  (6) 
IPJNRRHXJADGRQ-VIFPVBQESA-N

>  <HIPPO Pose ID>  (6) 
161182

>  <fragmenstein_outcome>  (6) 
acceptable

>  <exports>  (6) 
['/opt/xchem-fragalysis-2/maxwin/BulkDock/OUTPUTS/RdRp_knitwork_green_site_rna_tunnel_impure_split4000_batch015_220466.sdf', '/opt/xchem-fragalysis-2/maxwin/BulkDock/OUTPUTS/RdRp_knitwork_green_site_rna_tunnel_impure_fragalysis.sdf']

>  <SLURM_JOB_ID>  (6) 
220466

>  <distance_score>  (6) 
0.850913

>  <original SMILES>  (6) 
C[C@H](NCc1ccns1)c1coc2c(F)cccc12

>  <alias>  (6) 
None

>  <ref_pdb>  (6) 
z0215a

>  <inchikey>  (6) 
IPJNRRHXJADGRQ-VIFPVBQESA-N

$$$$
OOQMTOUOHZWHLU-SECBINFHSA-N
     RDKit          3D

 19 21  0  0  0  0  0  0  0  0999 V2000
  -24.8781  -33.7323  -23.8009 C   0  0  0  0  0  0  0  0  0  0  0  0
  -23.8652  -32.8800  -23.0368 C   0  0  1  0  0  0  0  0  0  0  0  0
  -24.5169  -31.6938  -22.4528 N   0  0  0  0  0  0  0  0  0  0  0  0
  -25.3023  -31.9234  -21.2426 C   0  0  0  0  0  0  0  0  0  0  0  0
  -26.4347  -30.9283  -21.1258 C   0  0  0  0  0  0  0  0  0  0  0  0
  -26.9119  -30.3720  -19.8880 C   0  0  0  0  0  0  0  0  0  0  0  0
  -28.0304  -29.6516  -19.9113 N   0  0  0  0  0  0  0  0  0  0  0  0
  -28.5665  -29.5933  -21.4726 S   0  0  0  0  0  0  0  0  0  0  0  0
  -27.2647  -30.4807  -22.1412 C   0  0  0  0  0  0  0  0  0  0  0  0
  -23.0344  -33.6591  -22.0543 C   0  0  0  0  0  0  0  0  0  0  0  0
  -23.2507  -34.9497  -21.5963 C   0  0  0  0  0  0  0  0  0  0  0  0
  -22.2577  -35.3605  -20.7695 O   0  0  0  0  0  0  0  0  0  0  0  0
  -21.3781  -34.3288  -20.6670 C   0  0  0  0  0  0  0  0  0  0  0  0
  -20.2086  -34.3137  -19.9115 C   0  0  0  0  0  0  0  0  0  0  0  0
  -19.8257  -35.3644  -19.1747 F   0  0  0  0  0  0  0  0  0  0  0  0
  -19.4309  -33.1575  -19.9393 C   0  0  0  0  0  0  0  0  0  0  0  0
  -19.8223  -32.0599  -20.7067 C   0  0  0  0  0  0  0  0  0  0  0  0
  -20.9932  -32.1011  -21.4793 C   0  0  0  0  0  0  0  0  0  0  0  0
  -21.8005  -33.2559  -21.4466 C   0  0  0  0  0  0  0  0  0  0  0  0
  2  1  1  1
  2  3  1  0
  3  4  1  0
  4  5  1  0
  5  6  1  0
  6  7  2  0
  7  8  1  0
  8  9  1  0
  2 10  1  0
 10 11  2  0
 11 12  1  0
 12 13  1  0
 13 14  2  0
 14 15  1  0
 14 16  1  0
 16 17  2  0
 17 18  1  0
 18 19  2  0
  9  5  2  0
 19 10  1  0
 19 13  1  0
M  END
>  <fragmenstein_mode>  (7) 
expansion

>  <name>  (7) 
OOQMTOUOHZWHLU-SECBINFHSA-N

>  <fragmenstein_runtime>  (7) 
2.94399

>  <HIPPO Compound ID>  (7) 
31455

>  <SLURM_JOB_NAME>  (7) 
BulkDock.place:Flavi_NS5_RdRp:RdRp_knitwork_green_site_rna_tunnel_impure_split4000_batch015

>  <ref_mols>  (7) 
z0215a,3vws-b

>  <Multi-SuCOS>  (7) 
0.579495

>  <tags>  (7) 
['Fragmenstein placed', 'RdRp_knitwork_green_site_rna_tunnel_impure_fragalysis.sdf Pose OK']

>  <scratch_subdir>  (7) 
/opt/xchem-fragalysis-2/maxwin/BulkDock/SCRATCH/220466/C31455-P104

>  <energy_score>  (7) 
-32.91709

>  <fragmenstein_error>  (7) 
None

>  <csv_name>  (7) 
RdRp_knitwork_green_site_rna_tunnel_impure_split4000_batch015.csv

>  <merge_set>  (7) 
RdRp_knitwork_green_site_rna_tunnel_impure_fragalysis.sdf

>  <original ID>  (7) 
OOQMTOUOHZWHLU-SECBINFHSA-N

>  <HIPPO Pose ID>  (7) 
161248

>  <fragmenstein_outcome>  (7) 
acceptable

>  <exports>  (7) 
['/opt/xchem-fragalysis-2/maxwin/BulkDock/OUTPUTS/RdRp_knitwork_green_site_rna_tunnel_impure_split4000_batch015_220466.sdf', '/opt/xchem-fragalysis-2/maxwin/BulkDock/OUTPUTS/RdRp_knitwork_green_site_rna_tunnel_impure_fragalysis.sdf']

>  <SLURM_JOB_ID>  (7) 
220466

>  <distance_score>  (7) 
0.93674

>  <original SMILES>  (7) 
C[C@@H](NCc1cnsc1)c1coc2c(F)cccc12

>  <alias>  (7) 
None

>  <ref_pdb>  (7) 
z0215a

>  <inchikey>  (7) 
OOQMTOUOHZWHLU-SECBINFHSA-N

$$$$
LZEZZOBYMRLTRX-UHFFFAOYSA-N
     RDKit          3D

 15 17  0  0  0  0  0  0  0  0999 V2000
  -28.4434  -30.6614  -16.4211 C   0  0  0  0  0  0  0  0  0  0  0  0
  -27.6209  -29.9294  -17.2610 C   0  0  0  0  0  0  0  0  0  0  0  0
  -27.9888  -29.7892  -18.5984 C   0  0  0  0  0  0  0  0  0  0  0  0
  -27.1699  -29.1074  -19.5061 C   0  0  0  0  0  0  0  0  0  0  0  0
  -27.5027  -29.0594  -20.8632 C   0  0  0  0  0  0  0  0  0  0  0  0
  -26.5770  -28.4980  -21.8295 C   0  0  0  0  0  0  0  0  0  0  0  0
  -25.9003  -27.3042  -21.6588 C   0  0  0  0  0  0  0  0  0  0  0  0
  -24.9258  -26.9885  -23.0370 S   0  0  0  0  0  0  0  0  0  0  0  0
  -25.4407  -28.4730  -23.7206 C   0  0  0  0  0  0  0  0  0  0  0  0
  -26.3226  -29.1555  -23.0218 N   0  0  0  0  0  0  0  0  0  0  0  0
  -28.7026  -29.6339  -21.3004 C   0  0  0  0  0  0  0  0  0  0  0  0
  -29.5500  -30.2780  -20.3985 C   0  0  0  0  0  0  0  0  0  0  0  0
  -29.1826  -30.3844  -19.0488 C   0  0  0  0  0  0  0  0  0  0  0  0
  -29.9308  -31.0979  -18.1133 C   0  0  0  0  0  0  0  0  0  0  0  0
  -29.5942  -31.2451  -16.8103 N   0  0  0  0  0  0  0  0  0  0  0  0
  1  2  2  0
  2  3  1  0
  3  4  2  0
  4  5  1  0
  5  6  1  0
  6  7  2  0
  7  8  1  0
  8  9  1  0
  9 10  2  0
  5 11  2  0
 11 12  1  0
 12 13  2  0
 13 14  1  0
 14 15  2  0
 15  1  1  0
 13  3  1  0
 10  6  1  0
M  END
>  <fragmenstein_mode>  (8) 
expansion

>  <name>  (8) 
LZEZZOBYMRLTRX-UHFFFAOYSA-N

>  <fragmenstein_runtime>  (8) 
5.501829

>  <HIPPO Compound ID>  (8) 
29796

>  <SLURM_JOB_NAME>  (8) 
BulkDock.place:Flavi_NS5_RdRp:RdRp_knitwork_green_site_rna_tunnel_impure_split4000_batch003

>  <ref_mols>  (8) 
z0111a,z0496a

>  <Multi-SuCOS>  (8) 
0.803391

>  <tags>  (8) 
['Fragmenstein placed', 'RdRp_knitwork_green_site_rna_tunnel_impure_fragalysis.sdf Pose OK']

>  <scratch_subdir>  (8) 
/opt/xchem-fragalysis-2/maxwin/BulkDock/SCRATCH/220454/C29796-P136

>  <energy_score>  (8) 
-39.403236

>  <fragmenstein_error>  (8) 
None

>  <csv_name>  (8) 
RdRp_knitwork_green_site_rna_tunnel_impure_split4000_batch003.csv

>  <merge_set>  (8) 
RdRp_knitwork_green_site_rna_tunnel_impure_fragalysis.sdf

>  <original ID>  (8) 
LZEZZOBYMRLTRX-UHFFFAOYSA-N

>  <HIPPO Pose ID>  (8) 
161381

>  <fragmenstein_outcome>  (8) 
acceptable

>  <exports>  (8) 
['/opt/xchem-fragalysis-2/maxwin/BulkDock/OUTPUTS/RdRp_knitwork_green_site_rna_tunnel_impure_split4000_batch003_220454.sdf', '/opt/xchem-fragalysis-2/maxwin/BulkDock/OUTPUTS/RdRp_knitwork_green_site_rna_tunnel_impure_fragalysis.sdf']

>  <SLURM_JOB_ID>  (8) 
220454

>  <distance_score>  (8) 
0.919145

>  <original SMILES>  (8) 
c1cc2cc(-c3cscn3)ccc2cn1

>  <alias>  (8) 
None

>  <ref_pdb>  (8) 
z0496a

>  <inchikey>  (8) 
LZEZZOBYMRLTRX-UHFFFAOYSA-N

$$$$
QVGDSEZSJSHRTO-UHFFFAOYSA-N
     RDKit          3D

 15 17  0  0  0  0  0  0  0  0999 V2000
  -28.0171  -30.2077  -15.9501 C   0  0  0  0  0  0  0  0  0  0  0  0
  -26.8426  -29.6473  -16.4264 C   0  0  0  0  0  0  0  0  0  0  0  0
  -26.7235  -29.3354  -17.7828 C   0  0  0  0  0  0  0  0  0  0  0  0
  -27.7713  -29.5855  -18.7142 C   0  0  0  0  0  0  0  0  0  0  0  0
  -27.7689  -29.3137  -20.1119 C   0  0  0  0  0  0  0  0  0  0  0  0
  -26.8109  -28.4277  -20.7007 N   0  0  0  0  0  0  0  0  0  0  0  0
  -26.2246  -27.3045  -20.1384 C   0  0  0  0  0  0  0  0  0  0  0  0
  -25.4609  -26.7064  -21.1107 C   0  0  0  0  0  0  0  0  0  0  0  0
  -25.6244  -27.5256  -22.2351 C   0  0  0  0  0  0  0  0  0  0  0  0
  -26.4462  -28.5495  -22.0056 N   0  0  0  0  0  0  0  0  0  0  0  0
  -28.7276  -29.7700  -20.9675 N   0  0  0  0  0  0  0  0  0  0  0  0
  -29.7904  -30.3927  -20.4412 C   0  0  0  0  0  0  0  0  0  0  0  0
  -29.9383  -30.6204  -19.0898 C   0  0  0  0  0  0  0  0  0  0  0  0
  -28.9230  -30.2316  -18.2130 C   0  0  0  0  0  0  0  0  0  0  0  0
  -29.0470  -30.5037  -16.8395 C   0  0  0  0  0  0  0  0  0  0  0  0
  1  2  2  0
  2  3  1  0
  3  4  2  0
  4  5  1  0
  5  6  1  0
  6  7  1  0
  7  8  2  0
  8  9  1  0
  9 10  2  0
  5 11  2  0
 11 12  1  0
 12 13  2  0
 13 14  1  0
 14 15  2  0
 15  1  1  0
 14  4  1  0
 10  6  1  0
M  END
>  <fragmenstein_mode>  (9) 
expansion

>  <name>  (9) 
QVGDSEZSJSHRTO-UHFFFAOYSA-N

>  <fragmenstein_runtime>  (9) 
1.052767

>  <HIPPO Compound ID>  (9) 
29852

>  <SLURM_JOB_NAME>  (9) 
BulkDock.place:Flavi_NS5_RdRp:RdRp_knitwork_green_site_rna_tunnel_impure_split4000_batch003

>  <ref_mols>  (9) 
z0111a,z0496a

>  <Multi-SuCOS>  (9) 
0.821971

>  <tags>  (9) 
['Fragmenstein placed', 'RdRp_knitwork_green_site_rna_tunnel_impure_fragalysis.sdf Pose OK']

>  <scratch_subdir>  (9) 
/opt/xchem-fragalysis-2/maxwin/BulkDock/SCRATCH/220454/C29852-P136

>  <energy_score>  (9) 
-38.75544

>  <fragmenstein_error>  (9) 
None

>  <csv_name>  (9) 
RdRp_knitwork_green_site_rna_tunnel_impure_split4000_batch003.csv

>  <merge_set>  (9) 
RdRp_knitwork_green_site_rna_tunnel_impure_fragalysis.sdf

>  <original ID>  (9) 
QVGDSEZSJSHRTO-UHFFFAOYSA-N

>  <HIPPO Pose ID>  (9) 
161429

>  <fragmenstein_outcome>  (9) 
acceptable

>  <exports>  (9) 
['/opt/xchem-fragalysis-2/maxwin/BulkDock/OUTPUTS/RdRp_knitwork_green_site_rna_tunnel_impure_split4000_batch003_220454.sdf', '/opt/xchem-fragalysis-2/maxwin/BulkDock/OUTPUTS/RdRp_knitwork_green_site_rna_tunnel_impure_fragalysis.sdf']

>  <SLURM_JOB_ID>  (9) 
220454

>  <distance_score>  (9) 
0.68292

>  <original SMILES>  (9) 
c1ccc2c(-n3cccn3)nccc2c1

>  <alias>  (9) 
None

>  <ref_pdb>  (9) 
z0496a

>  <inchikey>  (9) 
QVGDSEZSJSHRTO-UHFFFAOYSA-N

$$$$
RYINUJYFPYCEFQ-UHFFFAOYSA-N
     RDKit          3D

 15 17  0  0  0  0  0  0  0  0999 V2000
  -27.8431  -30.3512  -15.8373 C   0  0  0  0  0  0  0  0  0  0  0  0
  -26.7393  -29.7020  -16.3719 C   0  0  0  0  0  0  0  0  0  0  0  0
  -26.7227  -29.3653  -17.7261 C   0  0  0  0  0  0  0  0  0  0  0  0
  -27.8018  -29.6910  -18.5876 C   0  0  0  0  0  0  0  0  0  0  0  0
  -27.8835  -29.3890  -19.9678 C   0  0  0  0  0  0  0  0  0  0  0  0
  -26.9055  -28.5324  -20.6534 C   0  0  0  0  0  0  0  0  0  0  0  0
  -26.3411  -27.4450  -20.1504 N   0  0  0  0  0  0  0  0  0  0  0  0
  -25.6023  -26.8050  -21.1244 C   0  0  0  0  0  0  0  0  0  0  0  0
  -25.5131  -27.4630  -22.3298 C   0  0  0  0  0  0  0  0  0  0  0  0
  -26.4145  -28.9208  -22.2605 S   0  0  0  0  0  0  0  0  0  0  0  0
  -28.9184  -29.7719  -20.7686 N   0  0  0  0  0  0  0  0  0  0  0  0
  -29.9320  -30.4372  -20.1961 C   0  0  0  0  0  0  0  0  0  0  0  0
  -29.9621  -30.7584  -18.8547 C   0  0  0  0  0  0  0  0  0  0  0  0
  -28.8967  -30.3829  -18.0331 C   0  0  0  0  0  0  0  0  0  0  0  0
  -28.9138  -30.6901  -16.6626 C   0  0  0  0  0  0  0  0  0  0  0  0
  1  2  2  0
  2  3  1  0
  3  4  2  0
  4  5  1  0
  5  6  1  0
  6  7  2  0
  7  8  1  0
  8  9  2  0
  9 10  1  0
  5 11  2  0
 11 12  1  0
 12 13  2  0
 13 14  1  0
 14 15  2  0
 15  1  1  0
 14  4  1  0
 10  6  1  0
M  END
>  <fragmenstein_mode>  (10) 
expansion

>  <name>  (10) 
RYINUJYFPYCEFQ-UHFFFAOYSA-N

>  <fragmenstein_runtime>  (10) 
1.232878

>  <HIPPO Compound ID>  (10) 
30341

>  <SLURM_JOB_NAME>  (10) 
BulkDock.place:Flavi_NS5_RdRp:RdRp_knitwork_green_site_rna_tunnel_impure_split4000_batch003

>  <ref_mols>  (10) 
z0111a,z0496a

>  <Multi-SuCOS>  (10) 
0.795546

>  <tags>  (10) 
['Fragmenstein placed', 'RdRp_knitwork_green_site_rna_tunnel_impure_fragalysis.sdf Pose OK']

>  <scratch_subdir>  (10) 
/opt/xchem-fragalysis-2/maxwin/BulkDock/SCRATCH/220454/C30341-P136

>  <energy_score>  (10) 
-58.072942

>  <fragmenstein_error>  (10) 
None

>  <csv_name>  (10) 
RdRp_knitwork_green_site_rna_tunnel_impure_split4000_batch003.csv

>  <merge_set>  (10) 
RdRp_knitwork_green_site_rna_tunnel_impure_fragalysis.sdf

>  <original ID>  (10) 
RYINUJYFPYCEFQ-UHFFFAOYSA-N

>  <HIPPO Pose ID>  (10) 
161593

>  <fragmenstein_outcome>  (10) 
acceptable

>  <exports>  (10) 
['/opt/xchem-fragalysis-2/maxwin/BulkDock/OUTPUTS/RdRp_knitwork_green_site_rna_tunnel_impure_split4000_batch003_220454.sdf', '/opt/xchem-fragalysis-2/maxwin/BulkDock/OUTPUTS/RdRp_knitwork_green_site_rna_tunnel_impure_fragalysis.sdf']

>  <SLURM_JOB_ID>  (10) 
220454

>  <distance_score>  (10) 
0.693014

>  <original SMILES>  (10) 
c1ccc2c(-c3nccs3)nccc2c1

>  <alias>  (10) 
None

>  <ref_pdb>  (10) 
z0496a

>  <inchikey>  (10) 
RYINUJYFPYCEFQ-UHFFFAOYSA-N

$$$$
RVXPXRPREUVGNY-SNVBAGLBSA-N
     RDKit          3D

 15 16  0  0  0  0  0  0  0  0999 V2000
  -25.7770  -33.0311  -18.6393 C   0  0  0  0  0  0  0  0  0  0  0  0
  -24.9926  -32.6002  -19.8673 C   0  0  0  0  0  0  0  0  0  0  0  0
  -25.3270  -31.1905  -20.3464 C   0  0  1  0  0  0  0  0  0  0  0  0
  -24.4167  -30.8730  -21.3138 F   0  0  0  0  0  0  0  0  0  0  0  0
  -26.7334  -31.0652  -20.9590 C   0  0  0  0  0  0  0  0  0  0  0  0
  -27.5339  -29.9313  -20.4369 N   0  0  0  0  0  0  0  0  0  0  0  0
  -27.9768  -30.1068  -19.1062 C   0  0  0  0  0  0  0  0  0  0  0  0
  -27.1456  -29.7181  -18.0445 C   0  0  0  0  0  0  0  0  0  0  0  0
  -27.4616  -29.9727  -16.7039 C   0  0  0  0  0  0  0  0  0  0  0  0
  -28.6502  -30.6484  -16.4238 C   0  0  0  0  0  0  0  0  0  0  0  0
  -29.3073  -31.1073  -15.2526 C   0  0  0  0  0  0  0  0  0  0  0  0
  -30.4566  -31.7330  -15.6728 C   0  0  0  0  0  0  0  0  0  0  0  0
  -30.5542  -31.6890  -17.0255 O   0  0  0  0  0  0  0  0  0  0  0  0
  -29.4654  -31.0133  -17.4881 C   0  0  0  0  0  0  0  0  0  0  0  0
  -29.1843  -30.7586  -18.8321 C   0  0  0  0  0  0  0  0  0  0  0  0
  1  2  1  0
  2  3  1  0
  3  4  1  6
  3  5  1  0
  5  6  1  0
  6  7  1  0
  7  8  2  0
  8  9  1  0
  9 10  2  0
 10 11  1  0
 11 12  2  0
 12 13  1  0
 13 14  1  0
 14 15  2  0
 15  7  1  0
 14 10  1  0
M  END
>  <fragmenstein_mode>  (11) 
expansion

>  <name>  (11) 
RVXPXRPREUVGNY-SNVBAGLBSA-N

>  <fragmenstein_runtime>  (11) 
1.758621

>  <HIPPO Compound ID>  (11) 
36592

>  <SLURM_JOB_NAME>  (11) 
BulkDock.place:Flavi_NS5_RdRp:RdRp_knitwork_green_site_rna_tunnel_impure_split4000_batch019

>  <ref_mols>  (11) 
z0384a,3vws-a

>  <Multi-SuCOS>  (11) 
0.42935

>  <tags>  (11) 
['Fragmenstein placed', 'RdRp_knitwork_green_site_rna_tunnel_impure_fragalysis.sdf Pose OK']

>  <scratch_subdir>  (11) 
/opt/xchem-fragalysis-2/maxwin/BulkDock/SCRATCH/220470/C36592-P120

>  <energy_score>  (11) 
-15.875408

>  <fragmenstein_error>  (11) 
None

>  <csv_name>  (11) 
RdRp_knitwork_green_site_rna_tunnel_impure_split4000_batch019.csv

>  <merge_set>  (11) 
RdRp_knitwork_green_site_rna_tunnel_impure_fragalysis.sdf

>  <original ID>  (11) 
RVXPXRPREUVGNY-SNVBAGLBSA-N

>  <HIPPO Pose ID>  (11) 
161844

>  <fragmenstein_outcome>  (11) 
acceptable

>  <exports>  (11) 
['/opt/xchem-fragalysis-2/maxwin/BulkDock/OUTPUTS/RdRp_knitwork_green_site_rna_tunnel_impure_split4000_batch019_220470.sdf', '/opt/xchem-fragalysis-2/maxwin/BulkDock/OUTPUTS/RdRp_knitwork_green_site_rna_tunnel_impure_fragalysis.sdf']

>  <SLURM_JOB_ID>  (11) 
220470

>  <distance_score>  (11) 
0.936076

>  <original SMILES>  (11) 
CC[C@@H](F)CNc1ccc2ccoc2c1

>  <alias>  (11) 
None

>  <ref_pdb>  (11) 
z0384a

>  <inchikey>  (11) 
RVXPXRPREUVGNY-SNVBAGLBSA-N

$$$$
DCGZZKDVNPMJHZ-UHFFFAOYSA-N
     RDKit          3D

 11 11  0  0  0  0  0  0  0  0999 V2000
  -25.3532  -33.2037  -19.2206 C   0  0  0  0  0  0  0  0  0  0  0  0
  -26.5586  -32.7451  -20.0260 C   0  0  0  0  0  0  0  0  0  0  0  0
  -26.2314  -31.5635  -20.9040 C   0  0  0  0  0  0  0  0  0  0  0  0
  -26.1220  -31.6334  -22.0638 O   0  0  0  0  0  0  0  0  0  0  0  0
  -26.0523  -30.3548  -19.9485 N   0  0  0  0  0  0  0  0  0  0  0  0
  -25.6318  -29.0764  -20.2013 C   0  0  0  0  0  0  0  0  0  0  0  0
  -25.2180  -28.7032  -21.4674 C   0  0  0  0  0  0  0  0  0  0  0  0
  -24.6808  -27.4340  -21.6396 C   0  0  0  0  0  0  0  0  0  0  0  0
  -24.6375  -26.5693  -20.5593 C   0  0  0  0  0  0  0  0  0  0  0  0
  -25.1220  -27.0157  -19.3416 C   0  0  0  0  0  0  0  0  0  0  0  0
  -25.6021  -28.2574  -19.1346 N   0  0  0  0  0  0  0  0  0  0  0  0
  1  2  1  0
  2  3  1  0
  3  4  2  0
  3  5  1  0
  5  6  1  0
  6  7  2  0
  7  8  1  0
  8  9  2  0
  9 10  1  0
 10 11  2  0
 11  6  1  0
M  END
>  <fragmenstein_mode>  (12) 
expansion

>  <name>  (12) 
DCGZZKDVNPMJHZ-UHFFFAOYSA-N

>  <fragmenstein_runtime>  (12) 
1.495147

>  <HIPPO Compound ID>  (12) 
34580

>  <SLURM_JOB_NAME>  (12) 
BulkDock.place:Flavi_NS5_RdRp:RdRp_knitwork_green_site_rna_tunnel_impure_split4000_batch007

>  <ref_mols>  (12) 
d0472b,z0384a

>  <Multi-SuCOS>  (12) 
0.612826

>  <tags>  (12) 
['Fragmenstein placed', 'RdRp_knitwork_green_site_rna_tunnel_impure_fragalysis.sdf Pose OK']

>  <scratch_subdir>  (12) 
/opt/xchem-fragalysis-2/maxwin/BulkDock/SCRATCH/220458/C34580-P41

>  <energy_score>  (12) 
-7.491112

>  <fragmenstein_error>  (12) 
None

>  <csv_name>  (12) 
RdRp_knitwork_green_site_rna_tunnel_impure_split4000_batch007.csv

>  <merge_set>  (12) 
RdRp_knitwork_green_site_rna_tunnel_impure_fragalysis.sdf

>  <original ID>  (12) 
DCGZZKDVNPMJHZ-UHFFFAOYSA-N

>  <HIPPO Pose ID>  (12) 
162061

>  <fragmenstein_outcome>  (12) 
acceptable

>  <exports>  (12) 
['/opt/xchem-fragalysis-2/maxwin/BulkDock/OUTPUTS/RdRp_knitwork_green_site_rna_tunnel_impure_split4000_batch007_220458.sdf', '/opt/xchem-fragalysis-2/maxwin/BulkDock/OUTPUTS/RdRp_knitwork_green_site_rna_tunnel_impure_fragalysis.sdf']

>  <SLURM_JOB_ID>  (12) 
220458

>  <distance_score>  (12) 
0.786783

>  <original SMILES>  (12) 
CCC(=O)Nc1ccccn1

>  <alias>  (12) 
None

>  <ref_pdb>  (12) 
d0472b

>  <inchikey>  (12) 
DCGZZKDVNPMJHZ-UHFFFAOYSA-N

$$$$
YBUBQIDMHUFWHE-UHFFFAOYSA-N
     RDKit          3D

 21 23  0  0  0  0  0  0  0  0999 V2000
  -19.7893  -36.5716  -18.9288 C   0  0  0  0  0  0  0  0  0  0  0  0
  -19.1512  -35.3224  -19.1664 O   0  0  0  0  0  0  0  0  0  0  0  0
  -19.8797  -34.3937  -19.8915 C   0  0  0  0  0  0  0  0  0  0  0  0
  -19.2965  -33.1221  -19.9740 C   0  0  0  0  0  0  0  0  0  0  0  0
  -19.8968  -32.0895  -20.6924 C   0  0  0  0  0  0  0  0  0  0  0  0
  -21.1111  -32.2934  -21.3564 C   0  0  0  0  0  0  0  0  0  0  0  0
  -21.7430  -33.5537  -21.2752 C   0  0  0  0  0  0  0  0  0  0  0  0
  -22.9771  -34.1164  -21.7396 C   0  0  0  0  0  0  0  0  0  0  0  0
  -24.1412  -33.5189  -22.3915 C   0  0  0  0  0  0  0  0  0  0  0  0
  -24.8054  -34.1645  -23.0968 O   0  0  0  0  0  0  0  0  0  0  0  0
  -24.3197  -32.0736  -21.9029 N   0  0  0  0  0  0  0  0  0  0  0  0
  -25.4021  -31.1463  -22.1018 C   0  0  0  0  0  0  0  0  0  0  0  0
  -26.0611  -30.8278  -20.7608 C   0  0  0  0  0  0  0  0  0  0  0  0
  -27.4422  -30.2804  -20.8252 C   0  0  0  0  0  0  0  0  0  0  0  0
  -28.2301  -29.9624  -21.9498 C   0  0  0  0  0  0  0  0  0  0  0  0
  -29.4714  -29.6023  -21.6237 N   0  0  0  0  0  0  0  0  0  0  0  0
  -29.4994  -29.7185  -20.2917 N   0  0  0  0  0  0  0  0  0  0  0  0
  -28.2860  -30.0353  -19.7589 C   0  0  0  0  0  0  0  0  0  0  0  0
  -22.9169  -35.4555  -21.4085 C   0  0  0  0  0  0  0  0  0  0  0  0
  -21.8049  -35.7316  -20.6896 O   0  0  0  0  0  0  0  0  0  0  0  0
  -21.0941  -34.5723  -20.5734 C   0  0  0  0  0  0  0  0  0  0  0  0
  1  2  1  0
  2  3  1  0
  3  4  2  0
  4  5  1  0
  5  6  2  0
  6  7  1  0
  7  8  1  0
  8  9  1  0
  9 10  2  0
  9 11  1  0
 11 12  1  0
 12 13  1  0
 13 14  1  0
 14 15  1  0
 15 16  2  0
 16 17  1  0
 17 18  1  0
  8 19  2  0
 19 20  1  0
 20 21  1  0
 21  3  1  0
 21  7  2  0
 18 14  2  0
M  END
>  <fragmenstein_mode>  (13) 
expansion

>  <name>  (13) 
YBUBQIDMHUFWHE-UHFFFAOYSA-N

>  <fragmenstein_runtime>  (13) 
3.043461

>  <HIPPO Compound ID>  (13) 
31215

>  <SLURM_JOB_NAME>  (13) 
BulkDock.place:Flavi_NS5_RdRp:RdRp_knitwork_green_site_rna_tunnel_impure_split4000_batch015

>  <ref_mols>  (13) 
z0215a,3vws-b

>  <Multi-SuCOS>  (13) 
0.65899

>  <tags>  (13) 
['Fragmenstein placed', 'RdRp_knitwork_green_site_rna_tunnel_impure_fragalysis.sdf Pose OK']

>  <scratch_subdir>  (13) 
/opt/xchem-fragalysis-2/maxwin/BulkDock/SCRATCH/220466/C31215-P104

>  <energy_score>  (13) 
-22.561027

>  <fragmenstein_error>  (13) 
None

>  <csv_name>  (13) 
RdRp_knitwork_green_site_rna_tunnel_impure_split4000_batch015.csv

>  <merge_set>  (13) 
RdRp_knitwork_green_site_rna_tunnel_impure_fragalysis.sdf

>  <original ID>  (13) 
YBUBQIDMHUFWHE-UHFFFAOYSA-N

>  <HIPPO Pose ID>  (13) 
162391

>  <fragmenstein_outcome>  (13) 
acceptable

>  <exports>  (13) 
['/opt/xchem-fragalysis-2/maxwin/BulkDock/OUTPUTS/RdRp_knitwork_green_site_rna_tunnel_impure_split4000_batch015_220466.sdf', '/opt/xchem-fragalysis-2/maxwin/BulkDock/OUTPUTS/RdRp_knitwork_green_site_rna_tunnel_impure_fragalysis.sdf']

>  <SLURM_JOB_ID>  (13) 
220466

>  <distance_score>  (13) 
0.529066

>  <original SMILES>  (13) 
COc1cccc2c(C(=O)NCCc3cn[nH]c3)coc12

>  <alias>  (13) 
None

>  <ref_pdb>  (13) 
z0215a

>  <inchikey>  (13) 
YBUBQIDMHUFWHE-UHFFFAOYSA-N

$$$$
VYBKSOIBEAUTLU-UHFFFAOYSA-N
     RDKit          3D

 22 25  0  0  0  0  0  0  0  0999 V2000
  -25.1032  -32.8303  -22.9599 O   0  0  0  0  0  0  0  0  0  0  0  0
  -24.6703  -32.7642  -21.8760 C   0  0  0  0  0  0  0  0  0  0  0  0
  -25.1228  -31.9075  -20.6627 N   0  0  0  0  0  0  0  0  0  0  0  0
  -26.2332  -31.0476  -20.5102 C   0  0  0  0  0  0  0  0  0  0  0  0
  -27.0462  -30.7869  -21.6156 C   0  0  0  0  0  0  0  0  0  0  0  0
  -28.2634  -30.1230  -21.4704 C   0  0  0  0  0  0  0  0  0  0  0  0
  -28.6832  -29.7203  -20.2090 C   0  0  0  0  0  0  0  0  0  0  0  0
  -27.8805  -29.8952  -19.0959 C   0  0  0  0  0  0  0  0  0  0  0  0
  -28.3560  -29.4574  -17.9167 N   0  0  0  0  0  0  0  0  0  0  0  0
  -27.5767  -29.5998  -16.8259 C   0  0  0  0  0  0  0  0  0  0  0  0
  -26.3061  -30.1348  -16.8583 C   0  0  0  0  0  0  0  0  0  0  0  0
  -25.8207  -30.5996  -18.0777 C   0  0  0  0  0  0  0  0  0  0  0  0
  -26.6125  -30.5235  -19.2435 C   0  0  0  0  0  0  0  0  0  0  0  0
  -23.5789  -33.6775  -21.4908 C   0  0  0  0  0  0  0  0  0  0  0  0
  -23.7276  -35.0440  -21.6484 C   0  0  0  0  0  0  0  0  0  0  0  0
  -22.3888  -35.9314  -21.0979 S   0  0  0  0  0  0  0  0  0  0  0  0
  -21.5067  -34.5056  -20.7263 C   0  0  0  0  0  0  0  0  0  0  0  0
  -20.1914  -34.4387  -20.2180 C   0  0  0  0  0  0  0  0  0  0  0  0
  -19.5966  -33.1917  -20.0304 C   0  0  0  0  0  0  0  0  0  0  0  0
  -20.3063  -32.0362  -20.3109 C   0  0  0  0  0  0  0  0  0  0  0  0
  -21.6239  -32.1108  -20.7763 C   0  0  0  0  0  0  0  0  0  0  0  0
  -22.2558  -33.3555  -21.0008 C   0  0  0  0  0  0  0  0  0  0  0  0
  1  2  2  0
  2  3  1  0
  3  4  1  0
  4  5  2  0
  5  6  1  0
  6  7  2  0
  7  8  1  0
  8  9  2  0
  9 10  1  0
 10 11  2  0
 11 12  1  0
 12 13  2  0
  2 14  1  0
 14 15  2  0
 15 16  1  0
 16 17  1  0
 17 18  2  0
 18 19  1  0
 19 20  2  0
 20 21  1  0
 21 22  2  0
 13  4  1  0
 22 14  1  0
 13  8  1  0
 22 17  1  0
M  END
>  <fragmenstein_mode>  (14) 
expansion

>  <name>  (14) 
VYBKSOIBEAUTLU-UHFFFAOYSA-N

>  <fragmenstein_runtime>  (14) 
2.798773

>  <HIPPO Compound ID>  (14) 
39599

>  <SLURM_JOB_NAME>  (14) 
BulkDock.place:Flavi_NS5_RdRp:RdRp_knitwork_green_site_rna_tunnel_impure_split4000_batch014

>  <ref_mols>  (14) 
z0881a,3vws-b

>  <Multi-SuCOS>  (14) 
0.593465

>  <tags>  (14) 
['Fragmenstein placed', 'RdRp_knitwork_green_site_rna_tunnel_impure_fragalysis.sdf Pose OK']

>  <scratch_subdir>  (14) 
/opt/xchem-fragalysis-2/maxwin/BulkDock/SCRATCH/220465/C39599-P173

>  <energy_score>  (14) 
-66.194869

>  <fragmenstein_error>  (14) 
None

>  <csv_name>  (14) 
RdRp_knitwork_green_site_rna_tunnel_impure_split4000_batch014.csv

>  <merge_set>  (14) 
RdRp_knitwork_green_site_rna_tunnel_impure_fragalysis.sdf

>  <original ID>  (14) 
VYBKSOIBEAUTLU-UHFFFAOYSA-N

>  <HIPPO Pose ID>  (14) 
162703

>  <fragmenstein_outcome>  (14) 
acceptable

>  <exports>  (14) 
['/opt/xchem-fragalysis-2/maxwin/BulkDock/OUTPUTS/RdRp_knitwork_green_site_rna_tunnel_impure_split4000_batch014_220465.sdf', '/opt/xchem-fragalysis-2/maxwin/BulkDock/OUTPUTS/RdRp_knitwork_green_site_rna_tunnel_impure_fragalysis.sdf']

>  <SLURM_JOB_ID>  (14) 
220465

>  <distance_score>  (14) 
0.873292

>  <original SMILES>  (14) 
O=C(Nc1cccc2ncccc12)c1csc2ccccc12

>  <alias>  (14) 
None

>  <ref_pdb>  (14) 
z0881a

>  <inchikey>  (14) 
VYBKSOIBEAUTLU-UHFFFAOYSA-N

$$$$
JCEKGITUULFJJV-JTQLQIEISA-N
     RDKit          3D

 21 23  0  0  0  0  0  0  0  0999 V2000
  -24.1001  -36.3980  -22.1596 C   0  0  0  0  0  0  0  0  0  0  0  0
  -23.1353  -35.3347  -21.8022 C   0  0  0  0  0  0  0  0  0  0  0  0
  -22.0399  -35.7521  -21.1143 O   0  0  0  0  0  0  0  0  0  0  0  0
  -21.2574  -34.6665  -20.8948 C   0  0  0  0  0  0  0  0  0  0  0  0
  -20.0362  -34.6814  -20.2243 C   0  0  0  0  0  0  0  0  0  0  0  0
  -19.3659  -33.4586  -20.1214 C   0  0  0  0  0  0  0  0  0  0  0  0
  -19.9101  -32.2919  -20.6637 C   0  0  0  0  0  0  0  0  0  0  0  0
  -21.1483  -32.3105  -21.3241 C   0  0  0  0  0  0  0  0  0  0  0  0
  -21.8427  -33.5316  -21.4430 C   0  0  0  0  0  0  0  0  0  0  0  0
  -23.0891  -33.9632  -22.0107 C   0  0  0  0  0  0  0  0  0  0  0  0
  -24.1226  -33.1317  -22.7049 C   0  0  0  0  0  0  0  0  0  0  0  0
  -24.3570  -31.7777  -22.0276 C   0  0  0  0  0  0  0  0  0  0  0  0
  -24.0641  -30.7643  -22.5338 O   0  0  0  0  0  0  0  0  0  0  0  0
  -25.0029  -32.0621  -20.6404 N   0  0  0  0  0  0  0  0  0  0  0  0
  -25.3315  -31.1639  -19.5562 C   0  0  1  0  0  0  0  0  0  0  0  0
  -24.1821  -30.2141  -19.2320 C   0  0  0  0  0  0  0  0  0  0  0  0
  -26.6149  -30.4604  -19.8512 C   0  0  0  0  0  0  0  0  0  0  0  0
  -27.8729  -30.6864  -19.2434 C   0  0  0  0  0  0  0  0  0  0  0  0
  -28.8206  -29.8624  -19.6883 N   0  0  0  0  0  0  0  0  0  0  0  0
  -28.1830  -29.1049  -20.5917 N   0  0  0  0  0  0  0  0  0  0  0  0
  -26.8676  -29.4311  -20.7344 C   0  0  0  0  0  0  0  0  0  0  0  0
  1  2  1  0
  2  3  1  0
  3  4  1  0
  4  5  2  0
  5  6  1  0
  6  7  2  0
  7  8  1  0
  8  9  2  0
  9 10  1  0
 10 11  1  0
 11 12  1  0
 12 13  2  0
 12 14  1  0
 14 15  1  0
 15 16  1  6
 15 17  1  0
 17 18  1  0
 18 19  2  0
 19 20  1  0
 20 21  1  0
 10  2  2  0
 21 17  2  0
  9  4  1  0
M  END
>  <fragmenstein_mode>  (15) 
expansion

>  <name>  (15) 
JCEKGITUULFJJV-JTQLQIEISA-N

>  <fragmenstein_runtime>  (15) 
4.076351

>  <HIPPO Compound ID>  (15) 
33441

>  <SLURM_JOB_NAME>  (15) 
BulkDock.place:Flavi_NS5_RdRp:RdRp_knitwork_green_site_rna_tunnel_impure_split4000_batch015

>  <ref_mols>  (15) 
z0215a,3vws-b

>  <Multi-SuCOS>  (15) 
0.618516

>  <tags>  (15) 
['Fragmenstein placed', 'RdRp_knitwork_green_site_rna_tunnel_impure_fragalysis.sdf Pose OK']

>  <scratch_subdir>  (15) 
/opt/xchem-fragalysis-2/maxwin/BulkDock/SCRATCH/220466/C33441-P217

>  <energy_score>  (15) 
-13.082235

>  <fragmenstein_error>  (15) 
None

>  <csv_name>  (15) 
RdRp_knitwork_green_site_rna_tunnel_impure_split4000_batch015.csv

>  <merge_set>  (15) 
RdRp_knitwork_green_site_rna_tunnel_impure_fragalysis.sdf

>  <original ID>  (15) 
JCEKGITUULFJJV-JTQLQIEISA-N

>  <HIPPO Pose ID>  (15) 
162775

>  <fragmenstein_outcome>  (15) 
acceptable

>  <exports>  (15) 
['/opt/xchem-fragalysis-2/maxwin/BulkDock/OUTPUTS/RdRp_knitwork_green_site_rna_tunnel_impure_split4000_batch015_220466.sdf', '/opt/xchem-fragalysis-2/maxwin/BulkDock/OUTPUTS/RdRp_knitwork_green_site_rna_tunnel_impure_fragalysis.sdf']

>  <SLURM_JOB_ID>  (15) 
220466

>  <distance_score>  (15) 
0.776609

>  <original SMILES>  (15) 
Cc1oc2ccccc2c1CC(=O)N[C@@H](C)c1cn[nH]c1

>  <alias>  (15) 
None

>  <ref_pdb>  (15) 
3vws-b

>  <inchikey>  (15) 
JCEKGITUULFJJV-JTQLQIEISA-N

$$$$
ZCWYCZDELIDTKX-NSHDSACASA-N
     RDKit          3D

 21 23  0  0  0  0  0  0  0  0999 V2000
  -19.2194  -30.9718  -20.4427 C   0  0  0  0  0  0  0  0  0  0  0  0
  -19.9335  -32.2742  -20.6544 C   0  0  0  0  0  0  0  0  0  0  0  0
  -19.4026  -33.4693  -20.1470 C   0  0  0  0  0  0  0  0  0  0  0  0
  -20.0777  -34.6876  -20.2911 C   0  0  0  0  0  0  0  0  0  0  0  0
  -21.3018  -34.6471  -20.9533 C   0  0  0  0  0  0  0  0  0  0  0  0
  -22.0965  -35.7199  -21.1997 O   0  0  0  0  0  0  0  0  0  0  0  0
  -23.1989  -35.2632  -21.8425 C   0  0  0  0  0  0  0  0  0  0  0  0
  -23.1448  -33.8920  -22.0143 C   0  0  0  0  0  0  0  0  0  0  0  0
  -24.1984  -33.0410  -22.6498 C   0  0  0  0  0  0  0  0  0  0  0  0
  -24.3733  -31.6937  -21.9418 C   0  0  0  0  0  0  0  0  0  0  0  0
  -24.0128  -30.6857  -22.4148 O   0  0  0  0  0  0  0  0  0  0  0  0
  -24.9848  -31.9885  -20.5413 N   0  0  0  0  0  0  0  0  0  0  0  0
  -25.3643  -31.0901  -19.4758 C   0  0  1  0  0  0  0  0  0  0  0  0
  -24.2461  -30.1077  -19.1376 C   0  0  0  0  0  0  0  0  0  0  0  0
  -26.6549  -30.4209  -19.8095 C   0  0  0  0  0  0  0  0  0  0  0  0
  -27.9220  -30.6702  -19.2311 C   0  0  0  0  0  0  0  0  0  0  0  0
  -28.8728  -29.8634  -19.7002 N   0  0  0  0  0  0  0  0  0  0  0  0
  -28.2291  -29.0978  -20.5919 N   0  0  0  0  0  0  0  0  0  0  0  0
  -26.9064  -29.4036  -20.7068 C   0  0  0  0  0  0  0  0  0  0  0  0
  -21.8842  -33.4912  -21.4588 C   0  0  0  0  0  0  0  0  0  0  0  0
  -21.1820  -32.2784  -21.3055 C   0  0  0  0  0  0  0  0  0  0  0  0
  1  2  1  0
  2  3  2  0
  3  4  1  0
  4  5  2  0
  5  6  1  0
  6  7  1  0
  7  8  2  0
  8  9  1  0
  9 10  1  0
 10 11  2  0
 10 12  1  0
 12 13  1  0
 13 14  1  6
 13 15  1  0
 15 16  1  0
 16 17  2  0
 17 18  1  0
 18 19  1  0
  8 20  1  0
 20 21  2  0
 21  2  1  0
 20  5  1  0
 19 15  2  0
M  END
>  <fragmenstein_mode>  (16) 
expansion

>  <name>  (16) 
ZCWYCZDELIDTKX-NSHDSACASA-N

>  <fragmenstein_runtime>  (16) 
3.579079

>  <HIPPO Compound ID>  (16) 
33465

>  <SLURM_JOB_NAME>  (16) 
BulkDock.place:Flavi_NS5_RdRp:RdRp_knitwork_green_site_rna_tunnel_impure_split4000_batch015

>  <ref_mols>  (16) 
z0215a,3vws-b

>  <Multi-SuCOS>  (16) 
0.596191

>  <tags>  (16) 
['Fragmenstein placed', 'RdRp_knitwork_green_site_rna_tunnel_impure_fragalysis.sdf Pose OK']

>  <scratch_subdir>  (16) 
/opt/xchem-fragalysis-2/maxwin/BulkDock/SCRATCH/220466/C33465-P217

>  <energy_score>  (16) 
-30.098926

>  <fragmenstein_error>  (16) 
None

>  <csv_name>  (16) 
RdRp_knitwork_green_site_rna_tunnel_impure_split4000_batch015.csv

>  <merge_set>  (16) 
RdRp_knitwork_green_site_rna_tunnel_impure_fragalysis.sdf

>  <original ID>  (16) 
ZCWYCZDELIDTKX-NSHDSACASA-N

>  <HIPPO Pose ID>  (16) 
162819

>  <fragmenstein_outcome>  (16) 
acceptable

>  <exports>  (16) 
['/opt/xchem-fragalysis-2/maxwin/BulkDock/OUTPUTS/RdRp_knitwork_green_site_rna_tunnel_impure_split4000_batch015_220466.sdf', '/opt/xchem-fragalysis-2/maxwin/BulkDock/OUTPUTS/RdRp_knitwork_green_site_rna_tunnel_impure_fragalysis.sdf']

>  <SLURM_JOB_ID>  (16) 
220466

>  <distance_score>  (16) 
0.895278

>  <original SMILES>  (16) 
Cc1ccc2occ(CC(=O)N[C@@H](C)c3cn[nH]c3)c2c1

>  <alias>  (16) 
None

>  <ref_pdb>  (16) 
3vws-b

>  <inchikey>  (16) 
ZCWYCZDELIDTKX-NSHDSACASA-N

$$$$
FSTNNPGHVVAREY-UHFFFAOYSA-N
     RDKit          3D

 24 27  0  0  0  0  0  0  0  0999 V2000
  -30.2094  -29.8070  -20.2056 C   0  0  0  0  0  0  0  0  0  0  0  0
  -28.7296  -30.0348  -20.3095 C   0  0  0  0  0  0  0  0  0  0  0  0
  -28.2124  -30.2859  -21.5804 C   0  0  0  0  0  0  0  0  0  0  0  0
  -26.9374  -30.8174  -21.7283 C   0  0  0  0  0  0  0  0  0  0  0  0
  -26.1562  -31.0870  -20.6098 C   0  0  0  0  0  0  0  0  0  0  0  0
  -25.0835  -31.9936  -20.7420 N   0  0  0  0  0  0  0  0  0  0  0  0
  -24.5045  -32.6954  -22.0032 C   0  0  0  0  0  0  0  0  0  0  0  0
  -24.7784  -32.5697  -23.1336 O   0  0  0  0  0  0  0  0  0  0  0  0
  -23.5177  -33.7504  -21.6353 C   0  0  0  0  0  0  0  0  0  0  0  0
  -23.9645  -35.0657  -21.8474 C   0  0  0  0  0  0  0  0  0  0  0  0
  -23.1784  -36.1446  -21.4710 C   0  0  0  0  0  0  0  0  0  0  0  0
  -21.9442  -35.9101  -20.8686 C   0  0  0  0  0  0  0  0  0  0  0  0
  -21.4459  -34.6064  -20.7061 C   0  0  0  0  0  0  0  0  0  0  0  0
  -20.1683  -34.3979  -20.1566 C   0  0  0  0  0  0  0  0  0  0  0  0
  -19.6383  -33.1145  -20.0398 C   0  0  0  0  0  0  0  0  0  0  0  0
  -20.3914  -32.0231  -20.4521 C   0  0  0  0  0  0  0  0  0  0  0  0
  -21.6746  -32.2136  -20.9715 C   0  0  0  0  0  0  0  0  0  0  0  0
  -22.2311  -33.4984  -21.1097 C   0  0  0  0  0  0  0  0  0  0  0  0
  -26.5782  -30.5966  -19.3454 C   0  0  0  0  0  0  0  0  0  0  0  0
  -25.7649  -30.6076  -18.1924 C   0  0  0  0  0  0  0  0  0  0  0  0
  -26.2569  -30.1604  -16.9702 C   0  0  0  0  0  0  0  0  0  0  0  0
  -27.5640  -29.7272  -16.9187 C   0  0  0  0  0  0  0  0  0  0  0  0
  -28.3797  -29.6878  -17.9920 N   0  0  0  0  0  0  0  0  0  0  0  0
  -27.9001  -30.0900  -19.1897 C   0  0  0  0  0  0  0  0  0  0  0  0
  1  2  1  0
  2  3  2  0
  3  4  1  0
  4  5  2  0
  5  6  1  0
  6  7  1  0
  7  8  2  0
  7  9  1  0
  9 10  2  0
 10 11  1  0
 11 12  2  0
 12 13  1  0
 13 14  2  0
 14 15  1  0
 15 16  2  0
 16 17  1  0
 17 18  2  0
  5 19  1  0
 19 20  2  0
 20 21  1  0
 21 22  2  0
 22 23  1  0
 23 24  2  0
 24  2  1  0
 18  9  1  0
 24 19  1  0
 18 13  1  0
M  END
>  <fragmenstein_mode>  (17) 
expansion

>  <name>  (17) 
FSTNNPGHVVAREY-UHFFFAOYSA-N

>  <fragmenstein_runtime>  (17) 
2.548443

>  <HIPPO Compound ID>  (17) 
39878

>  <SLURM_JOB_NAME>  (17) 
BulkDock.place:Flavi_NS5_RdRp:RdRp_knitwork_green_site_rna_tunnel_impure_split4000_batch014

>  <ref_mols>  (17) 
z0881a,3vws-b

>  <Multi-SuCOS>  (17) 
0.59508

>  <tags>  (17) 
['Fragmenstein placed', 'RdRp_knitwork_green_site_rna_tunnel_impure_fragalysis.sdf Pose OK']

>  <scratch_subdir>  (17) 
/opt/xchem-fragalysis-2/maxwin/BulkDock/SCRATCH/220465/C39878-P173

>  <energy_score>  (17) 
-12.443668

>  <fragmenstein_error>  (17) 
None

>  <csv_name>  (17) 
RdRp_knitwork_green_site_rna_tunnel_impure_split4000_batch014.csv

>  <merge_set>  (17) 
RdRp_knitwork_green_site_rna_tunnel_impure_fragalysis.sdf

>  <original ID>  (17) 
FSTNNPGHVVAREY-UHFFFAOYSA-N

>  <HIPPO Pose ID>  (17) 
162867

>  <fragmenstein_outcome>  (17) 
acceptable

>  <exports>  (17) 
['/opt/xchem-fragalysis-2/maxwin/BulkDock/OUTPUTS/RdRp_knitwork_green_site_rna_tunnel_impure_split4000_batch014_220465.sdf', '/opt/xchem-fragalysis-2/maxwin/BulkDock/OUTPUTS/RdRp_knitwork_green_site_rna_tunnel_impure_fragalysis.sdf']

>  <SLURM_JOB_ID>  (17) 
220465

>  <distance_score>  (17) 
0.855497

>  <original SMILES>  (17) 
Cc1ccc(NC(=O)c2cccc3ccccc23)c2cccnc12

>  <alias>  (17) 
None

>  <ref_pdb>  (17) 
z0881a

>  <inchikey>  (17) 
FSTNNPGHVVAREY-UHFFFAOYSA-N

$$$$
NUFXPVDPVZVPFU-UHFFFAOYSA-N
     RDKit          3D

 25 28  0  0  0  0  0  0  0  0999 V2000
  -30.7412  -30.0962  -19.9249 C   0  0  0  0  0  0  0  0  0  0  0  0
  -29.7912  -29.2299  -20.5411 O   0  0  0  0  0  0  0  0  0  0  0  0
  -28.5413  -29.7952  -20.5084 C   0  0  0  0  0  0  0  0  0  0  0  0
  -28.0345  -30.1324  -21.7554 C   0  0  0  0  0  0  0  0  0  0  0  0
  -26.8271  -30.8085  -21.8477 C   0  0  0  0  0  0  0  0  0  0  0  0
  -26.1032  -31.1225  -20.6994 C   0  0  0  0  0  0  0  0  0  0  0  0
  -25.0356  -32.0369  -20.8125 N   0  0  0  0  0  0  0  0  0  0  0  0
  -24.5012  -32.8175  -22.0469 C   0  0  0  0  0  0  0  0  0  0  0  0
  -24.8154  -32.7626  -23.1726 O   0  0  0  0  0  0  0  0  0  0  0  0
  -23.5018  -33.8488  -21.6528 C   0  0  0  0  0  0  0  0  0  0  0  0
  -23.9216  -35.1755  -21.8428 C   0  0  0  0  0  0  0  0  0  0  0  0
  -23.1187  -36.2298  -21.4356 C   0  0  0  0  0  0  0  0  0  0  0  0
  -21.8956  -35.9581  -20.8257 C   0  0  0  0  0  0  0  0  0  0  0  0
  -21.4223  -34.6422  -20.6888 C   0  0  0  0  0  0  0  0  0  0  0  0
  -20.1525  -34.3982  -20.1357 C   0  0  0  0  0  0  0  0  0  0  0  0
  -19.6458  -33.1032  -20.0457 C   0  0  0  0  0  0  0  0  0  0  0  0
  -20.4133  -32.0351  -20.4912 C   0  0  0  0  0  0  0  0  0  0  0  0
  -21.6883  -32.2604  -21.0170 C   0  0  0  0  0  0  0  0  0  0  0  0
  -22.2233  -33.5586  -21.1245 C   0  0  0  0  0  0  0  0  0  0  0  0
  -26.5360  -30.6103  -19.4418 C   0  0  0  0  0  0  0  0  0  0  0  0
  -25.7708  -30.6944  -18.2580 C   0  0  0  0  0  0  0  0  0  0  0  0
  -26.2641  -30.2099  -17.0497 C   0  0  0  0  0  0  0  0  0  0  0  0
  -27.5280  -29.6631  -17.0408 C   0  0  0  0  0  0  0  0  0  0  0  0
  -28.2905  -29.5362  -18.1446 N   0  0  0  0  0  0  0  0  0  0  0  0
  -27.8029  -29.9717  -19.3334 C   0  0  0  0  0  0  0  0  0  0  0  0
  1  2  1  0
  2  3  1  0
  3  4  2  0
  4  5  1  0
  5  6  2  0
  6  7  1  0
  7  8  1  0
  8  9  2  0
  8 10  1  0
 10 11  2  0
 11 12  1  0
 12 13  2  0
 13 14  1  0
 14 15  2  0
 15 16  1  0
 16 17  2  0
 17 18  1  0
 18 19  2  0
  6 20  1  0
 20 21  2  0
 21 22  1  0
 22 23  2  0
 23 24  1  0
 24 25  2  0
 25  3  1  0
 19 10  1  0
 25 20  1  0
 19 14  1  0
M  END
>  <fragmenstein_mode>  (18) 
expansion

>  <name>  (18) 
NUFXPVDPVZVPFU-UHFFFAOYSA-N

>  <fragmenstein_runtime>  (18) 
3.60549

>  <HIPPO Compound ID>  (18) 
40180

>  <SLURM_JOB_NAME>  (18) 
BulkDock.place:Flavi_NS5_RdRp:RdRp_knitwork_green_site_rna_tunnel_impure_split4000_batch014

>  <ref_mols>  (18) 
z0881a,3vws-b

>  <Multi-SuCOS>  (18) 
0.572905

>  <tags>  (18) 
['Fragmenstein placed', 'RdRp_knitwork_green_site_rna_tunnel_impure_fragalysis.sdf Pose OK']

>  <scratch_subdir>  (18) 
/opt/xchem-fragalysis-2/maxwin/BulkDock/SCRATCH/220465/C40180-P173

>  <energy_score>  (18) 
-41.536458

>  <fragmenstein_error>  (18) 
None

>  <csv_name>  (18) 
RdRp_knitwork_green_site_rna_tunnel_impure_split4000_batch014.csv

>  <merge_set>  (18) 
RdRp_knitwork_green_site_rna_tunnel_impure_fragalysis.sdf

>  <original ID>  (18) 
NUFXPVDPVZVPFU-UHFFFAOYSA-N

>  <HIPPO Pose ID>  (18) 
163050

>  <fragmenstein_outcome>  (18) 
acceptable

>  <exports>  (18) 
['/opt/xchem-fragalysis-2/maxwin/BulkDock/OUTPUTS/RdRp_knitwork_green_site_rna_tunnel_impure_split4000_batch014_220465.sdf', '/opt/xchem-fragalysis-2/maxwin/BulkDock/OUTPUTS/RdRp_knitwork_green_site_rna_tunnel_impure_fragalysis.sdf']

>  <SLURM_JOB_ID>  (18) 
220465

>  <distance_score>  (18) 
0.878529

>  <original SMILES>  (18) 
COc1ccc(NC(=O)c2cccc3ccccc23)c2cccnc12

>  <alias>  (18) 
None

>  <ref_pdb>  (18) 
z0881a

>  <inchikey>  (18) 
NUFXPVDPVZVPFU-UHFFFAOYSA-N

$$$$
OHDGSWOSHLECMD-UHFFFAOYSA-N
     RDKit          3D

 14 16  0  0  0  0  0  0  0  0999 V2000
  -28.2401  -29.5527  -21.1265 C   0  0  0  0  0  0  0  0  0  0  0  0
  -29.5542  -29.9151  -20.8446 C   0  0  0  0  0  0  0  0  0  0  0  0
  -29.9302  -30.3383  -19.5647 C   0  0  0  0  0  0  0  0  0  0  0  0
  -28.9762  -30.3256  -18.5309 C   0  0  0  0  0  0  0  0  0  0  0  0
  -28.9665  -30.6639  -17.1509 C   0  0  0  0  0  0  0  0  0  0  0  0
  -29.9888  -31.4294  -16.2861 C   0  0  0  0  0  0  0  0  0  0  0  0
  -30.9934  -32.2538  -16.7246 C   0  0  0  0  0  0  0  0  0  0  0  0
  -31.5594  -32.7793  -15.5502 C   0  0  0  0  0  0  0  0  0  0  0  0
  -30.9591  -32.3125  -14.4538 N   0  0  0  0  0  0  0  0  0  0  0  0
  -29.9442  -31.4921  -14.9204 O   0  0  0  0  0  0  0  0  0  0  0  0
  -27.7709  -30.2491  -16.6197 C   0  0  0  0  0  0  0  0  0  0  0  0
  -26.9684  -29.8977  -17.6666 N   0  0  0  0  0  0  0  0  0  0  0  0
  -27.6873  -29.8842  -18.8349 C   0  0  0  0  0  0  0  0  0  0  0  0
  -27.2745  -29.5337  -20.1228 C   0  0  0  0  0  0  0  0  0  0  0  0
  1  2  2  0
  2  3  1  0
  3  4  2  0
  4  5  1  0
  5  6  1  0
  6  7  2  0
  7  8  1  0
  8  9  2  0
  9 10  1  0
  5 11  2  0
 11 12  1  0
 12 13  1  0
 13 14  2  0
 14  1  1  0
 13  4  1  0
 10  6  1  0
M  END
>  <fragmenstein_mode>  (19) 
expansion

>  <name>  (19) 
OHDGSWOSHLECMD-UHFFFAOYSA-N

>  <fragmenstein_runtime>  (19) 
1.317268

>  <HIPPO Compound ID>  (19) 
27536

>  <SLURM_JOB_NAME>  (19) 
BulkDock.place:Flavi_NS5_RdRp:RdRp_knitwork_green_site_rna_tunnel_impure_split4000_batch019

>  <ref_mols>  (19) 
z0136a,z0386a

>  <Multi-SuCOS>  (19) 
0.604568

>  <tags>  (19) 
['Fragmenstein placed', 'RdRp_knitwork_green_site_rna_tunnel_impure_fragalysis.sdf Pose OK']

>  <scratch_subdir>  (19) 
/opt/xchem-fragalysis-2/maxwin/BulkDock/SCRATCH/220470/C27536-P121

>  <energy_score>  (19) 
-24.477651

>  <fragmenstein_error>  (19) 
None

>  <csv_name>  (19) 
RdRp_knitwork_green_site_rna_tunnel_impure_split4000_batch019.csv

>  <merge_set>  (19) 
RdRp_knitwork_green_site_rna_tunnel_impure_fragalysis.sdf

>  <original ID>  (19) 
OHDGSWOSHLECMD-UHFFFAOYSA-N

>  <HIPPO Pose ID>  (19) 
163144

>  <fragmenstein_outcome>  (19) 
acceptable

>  <exports>  (19) 
['/opt/xchem-fragalysis-2/maxwin/BulkDock/OUTPUTS/RdRp_knitwork_green_site_rna_tunnel_impure_split4000_batch019_220470.sdf', '/opt/xchem-fragalysis-2/maxwin/BulkDock/OUTPUTS/RdRp_knitwork_green_site_rna_tunnel_impure_fragalysis.sdf']

>  <SLURM_JOB_ID>  (19) 
220470

>  <distance_score>  (19) 
0.99821

>  <original SMILES>  (19) 
c1ccc2c(-c3ccno3)c[nH]c2c1

>  <alias>  (19) 
None

>  <ref_pdb>  (19) 
z0386a

>  <inchikey>  (19) 
OHDGSWOSHLECMD-UHFFFAOYSA-N

$$$$
LAIYMDSZSJYJGD-UHFFFAOYSA-N
     RDKit          3D

 26 29  0  0  0  0  0  0  0  0999 V2000
  -31.1356  -30.3692  -20.1373 C   0  0  0  0  0  0  0  0  0  0  0  0
  -30.4388  -29.6221  -21.2402 C   0  0  0  0  0  0  0  0  0  0  0  0
  -29.3313  -28.8962  -20.7096 O   0  0  0  0  0  0  0  0  0  0  0  0
  -28.2044  -29.6786  -20.6800 C   0  0  0  0  0  0  0  0  0  0  0  0
  -27.6843  -30.1037  -21.8976 C   0  0  0  0  0  0  0  0  0  0  0  0
  -26.5553  -30.8973  -21.9235 C   0  0  0  0  0  0  0  0  0  0  0  0
  -25.9018  -31.2294  -20.7405 C   0  0  0  0  0  0  0  0  0  0  0  0
  -24.8440  -32.1515  -20.8228 N   0  0  0  0  0  0  0  0  0  0  0  0
  -24.2926  -32.9490  -22.0383 C   0  0  0  0  0  0  0  0  0  0  0  0
  -24.5838  -32.9028  -23.1703 O   0  0  0  0  0  0  0  0  0  0  0  0
  -23.3163  -33.9765  -21.6079 C   0  0  0  0  0  0  0  0  0  0  0  0
  -23.7394  -35.3050  -21.7595 C   0  0  0  0  0  0  0  0  0  0  0  0
  -22.9415  -36.3411  -21.3042 C   0  0  0  0  0  0  0  0  0  0  0  0
  -21.7261  -36.0451  -20.6876 C   0  0  0  0  0  0  0  0  0  0  0  0
  -21.2531  -34.7241  -20.5914 C   0  0  0  0  0  0  0  0  0  0  0  0
  -19.9912  -34.4549  -20.0327 C   0  0  0  0  0  0  0  0  0  0  0  0
  -19.4912  -33.1542  -19.9800 C   0  0  0  0  0  0  0  0  0  0  0  0
  -20.2543  -32.1035  -20.4725 C   0  0  0  0  0  0  0  0  0  0  0  0
  -21.5179  -32.3526  -21.0114 C   0  0  0  0  0  0  0  0  0  0  0  0
  -22.0464  -33.6592  -21.0766 C   0  0  0  0  0  0  0  0  0  0  0  0
  -26.3598  -30.6834  -19.5025 C   0  0  0  0  0  0  0  0  0  0  0  0
  -25.6753  -30.8223  -18.2752 C   0  0  0  0  0  0  0  0  0  0  0  0
  -26.2003  -30.2987  -17.0954 C   0  0  0  0  0  0  0  0  0  0  0  0
  -27.4170  -29.6568  -17.1574 C   0  0  0  0  0  0  0  0  0  0  0  0
  -28.0939  -29.4621  -18.3054 N   0  0  0  0  0  0  0  0  0  0  0  0
  -27.5676  -29.9357  -19.4635 C   0  0  0  0  0  0  0  0  0  0  0  0
  1  2  1  0
  2  3  1  0
  3  4  1  0
  4  5  2  0
  5  6  1  0
  6  7  2  0
  7  8  1  0
  8  9  1  0
  9 10  2  0
  9 11  1  0
 11 12  2  0
 12 13  1  0
 13 14  2  0
 14 15  1  0
 15 16  2  0
 16 17  1  0
 17 18  2  0
 18 19  1  0
 19 20  2  0
  7 21  1  0
 21 22  2  0
 22 23  1  0
 23 24  2  0
 24 25  1  0
 25 26  2  0
 26  4  1  0
 20 11  1  0
 26 21  1  0
 20 15  1  0
M  END
>  <fragmenstein_mode>  (20) 
expansion

>  <name>  (20) 
LAIYMDSZSJYJGD-UHFFFAOYSA-N

>  <fragmenstein_runtime>  (20) 
4.039014

>  <HIPPO Compound ID>  (20) 
40348

>  <SLURM_JOB_NAME>  (20) 
BulkDock.place:Flavi_NS5_RdRp:RdRp_knitwork_green_site_rna_tunnel_impure_split4000_batch014

>  <ref_mols>  (20) 
z0881a,3vws-b

>  <Multi-SuCOS>  (20) 
0.537984

>  <tags>  (20) 
['Fragmenstein placed', 'RdRp_knitwork_green_site_rna_tunnel_impure_fragalysis.sdf Pose OK']

>  <scratch_subdir>  (20) 
/opt/xchem-fragalysis-2/maxwin/BulkDock/SCRATCH/220465/C40348-P173

>  <energy_score>  (20) 
-42.520715

>  <fragmenstein_error>  (20) 
None

>  <csv_name>  (20) 
RdRp_knitwork_green_site_rna_tunnel_impure_split4000_batch014.csv

>  <merge_set>  (20) 
RdRp_knitwork_green_site_rna_tunnel_impure_fragalysis.sdf

>  <original ID>  (20) 
LAIYMDSZSJYJGD-UHFFFAOYSA-N

>  <HIPPO Pose ID>  (20) 
163186

>  <fragmenstein_outcome>  (20) 
acceptable

>  <exports>  (20) 
['/opt/xchem-fragalysis-2/maxwin/BulkDock/OUTPUTS/RdRp_knitwork_green_site_rna_tunnel_impure_split4000_batch014_220465.sdf', '/opt/xchem-fragalysis-2/maxwin/BulkDock/OUTPUTS/RdRp_knitwork_green_site_rna_tunnel_impure_fragalysis.sdf']

>  <SLURM_JOB_ID>  (20) 
220465

>  <distance_score>  (20) 
0.970385

>  <original SMILES>  (20) 
CCOc1ccc(NC(=O)c2cccc3ccccc23)c2cccnc12

>  <alias>  (20) 
None

>  <ref_pdb>  (20) 
z0881a

>  <inchikey>  (20) 
LAIYMDSZSJYJGD-UHFFFAOYSA-N

$$$$
WMACHIODVOSLNK-UHFFFAOYSA-N
     RDKit          3D

 14 16  0  0  0  0  0  0  0  0999 V2000
  -28.2940  -29.4984  -21.1375 C   0  0  0  0  0  0  0  0  0  0  0  0
  -29.6237  -29.8041  -20.8583 C   0  0  0  0  0  0  0  0  0  0  0  0
  -30.0151  -30.2227  -19.5817 C   0  0  0  0  0  0  0  0  0  0  0  0
  -29.0570  -30.2769  -18.5526 C   0  0  0  0  0  0  0  0  0  0  0  0
  -29.0592  -30.6699  -17.1861 C   0  0  0  0  0  0  0  0  0  0  0  0
  -30.1220  -31.3544  -16.4597 C   0  0  0  0  0  0  0  0  0  0  0  0
  -30.3990  -31.2001  -15.1160 C   0  0  0  0  0  0  0  0  0  0  0  0
  -31.4666  -32.4355  -14.5972 S   0  0  0  0  0  0  0  0  0  0  0  0
  -31.4779  -33.0672  -16.1901 C   0  0  0  0  0  0  0  0  0  0  0  0
  -30.7723  -32.4029  -17.0793 N   0  0  0  0  0  0  0  0  0  0  0  0
  -27.8084  -30.4223  -16.6698 C   0  0  0  0  0  0  0  0  0  0  0  0
  -27.0058  -30.0489  -17.7090 N   0  0  0  0  0  0  0  0  0  0  0  0
  -27.7426  -29.9170  -18.8589 C   0  0  0  0  0  0  0  0  0  0  0  0
  -27.3224  -29.5508  -20.1401 C   0  0  0  0  0  0  0  0  0  0  0  0
  1  2  2  0
  2  3  1  0
  3  4  2  0
  4  5  1  0
  5  6  1  0
  6  7  2  0
  7  8  1  0
  8  9  1  0
  9 10  2  0
  5 11  2  0
 11 12  1  0
 12 13  1  0
 13 14  2  0
 14  1  1  0
 13  4  1  0
 10  6  1  0
M  END
>  <fragmenstein_mode>  (21) 
expansion

>  <name>  (21) 
WMACHIODVOSLNK-UHFFFAOYSA-N

>  <fragmenstein_runtime>  (21) 
1.155348

>  <HIPPO Compound ID>  (21) 
27619

>  <SLURM_JOB_NAME>  (21) 
BulkDock.place:Flavi_NS5_RdRp:RdRp_knitwork_green_site_rna_tunnel_impure_split4000_batch019

>  <ref_mols>  (21) 
z0136a,z0386a

>  <Multi-SuCOS>  (21) 
0.582575

>  <tags>  (21) 
['Fragmenstein placed', 'RdRp_knitwork_green_site_rna_tunnel_impure_fragalysis.sdf Pose OK']

>  <scratch_subdir>  (21) 
/opt/xchem-fragalysis-2/maxwin/BulkDock/SCRATCH/220470/C27619-P121

>  <energy_score>  (21) 
-31.730805

>  <fragmenstein_error>  (21) 
None

>  <csv_name>  (21) 
RdRp_knitwork_green_site_rna_tunnel_impure_split4000_batch019.csv

>  <merge_set>  (21) 
RdRp_knitwork_green_site_rna_tunnel_impure_fragalysis.sdf

>  <original ID>  (21) 
WMACHIODVOSLNK-UHFFFAOYSA-N

>  <HIPPO Pose ID>  (21) 
163205

>  <fragmenstein_outcome>  (21) 
acceptable

>  <exports>  (21) 
['/opt/xchem-fragalysis-2/maxwin/BulkDock/OUTPUTS/RdRp_knitwork_green_site_rna_tunnel_impure_split4000_batch019_220470.sdf', '/opt/xchem-fragalysis-2/maxwin/BulkDock/OUTPUTS/RdRp_knitwork_green_site_rna_tunnel_impure_fragalysis.sdf']

>  <SLURM_JOB_ID>  (21) 
220470

>  <distance_score>  (21) 
0.975131

>  <original SMILES>  (21) 
c1ccc2c(-c3cscn3)c[nH]c2c1

>  <alias>  (21) 
None

>  <ref_pdb>  (21) 
z0386a

>  <inchikey>  (21) 
WMACHIODVOSLNK-UHFFFAOYSA-N

$$$$
XULLBNLRUDZXGS-UHFFFAOYSA-N
     RDKit          3D

 14 16  0  0  0  0  0  0  0  0999 V2000
  -28.3725  -30.5590  -16.5499 C   0  0  0  0  0  0  0  0  0  0  0  0
  -29.4628  -30.2899  -17.3492 C   0  0  0  0  0  0  0  0  0  0  0  0
  -28.9863  -30.0367  -18.6663 C   0  0  0  0  0  0  0  0  0  0  0  0
  -29.5922  -29.7559  -19.9031 C   0  0  0  0  0  0  0  0  0  0  0  0
  -28.7766  -29.5015  -21.0172 C   0  0  0  0  0  0  0  0  0  0  0  0
  -27.3790  -29.5159  -20.9159 C   0  0  0  0  0  0  0  0  0  0  0  0
  -26.5632  -29.1738  -22.0587 C   0  0  0  0  0  0  0  0  0  0  0  0
  -25.4176  -28.4093  -22.0485 C   0  0  0  0  0  0  0  0  0  0  0  0
  -24.9859  -28.2892  -23.3360 O   0  0  0  0  0  0  0  0  0  0  0  0
  -25.8899  -29.0141  -24.0508 C   0  0  0  0  0  0  0  0  0  0  0  0
  -26.8602  -29.5481  -23.3441 N   0  0  0  0  0  0  0  0  0  0  0  0
  -26.7687  -29.8544  -19.7059 C   0  0  0  0  0  0  0  0  0  0  0  0
  -27.5995  -30.1100  -18.6132 C   0  0  0  0  0  0  0  0  0  0  0  0
  -27.2608  -30.4968  -17.3425 N   0  0  0  0  0  0  0  0  0  0  0  0
  1  2  2  0
  2  3  1  0
  3  4  2  0
  4  5  1  0
  5  6  2  0
  6  7  1  0
  7  8  2  0
  8  9  1  0
  9 10  1  0
 10 11  2  0
  6 12  1  0
 12 13  2  0
 13 14  1  0
 14  1  1  0
 13  3  1  0
 11  7  1  0
M  END
>  <fragmenstein_mode>  (22) 
expansion

>  <name>  (22) 
XULLBNLRUDZXGS-UHFFFAOYSA-N

>  <fragmenstein_runtime>  (22) 
1.273555

>  <HIPPO Compound ID>  (22) 
27764

>  <SLURM_JOB_NAME>  (22) 
BulkDock.place:Flavi_NS5_RdRp:RdRp_knitwork_green_site_rna_tunnel_impure_split4000_batch019

>  <ref_mols>  (22) 
z0136a,z0386a

>  <Multi-SuCOS>  (22) 
0.819151

>  <tags>  (22) 
['Fragmenstein placed', 'RdRp_knitwork_green_site_rna_tunnel_impure_fragalysis.sdf Pose OK']

>  <scratch_subdir>  (22) 
/opt/xchem-fragalysis-2/maxwin/BulkDock/SCRATCH/220470/C27764-P121

>  <energy_score>  (22) 
-20.978125

>  <fragmenstein_error>  (22) 
None

>  <csv_name>  (22) 
RdRp_knitwork_green_site_rna_tunnel_impure_split4000_batch019.csv

>  <merge_set>  (22) 
RdRp_knitwork_green_site_rna_tunnel_impure_fragalysis.sdf

>  <original ID>  (22) 
XULLBNLRUDZXGS-UHFFFAOYSA-N

>  <HIPPO Pose ID>  (22) 
163237

>  <fragmenstein_outcome>  (22) 
acceptable

>  <exports>  (22) 
['/opt/xchem-fragalysis-2/maxwin/BulkDock/OUTPUTS/RdRp_knitwork_green_site_rna_tunnel_impure_split4000_batch019_220470.sdf', '/opt/xchem-fragalysis-2/maxwin/BulkDock/OUTPUTS/RdRp_knitwork_green_site_rna_tunnel_impure_fragalysis.sdf']

>  <SLURM_JOB_ID>  (22) 
220470

>  <distance_score>  (22) 
0.772936

>  <original SMILES>  (22) 
c1cc2ccc(-c3cocn3)cc2[nH]1

>  <alias>  (22) 
None

>  <ref_pdb>  (22) 
z0386a

>  <inchikey>  (22) 
XULLBNLRUDZXGS-UHFFFAOYSA-N

$$$$
OESOQDRHZUHHKA-UHFFFAOYSA-N
     RDKit          3D

 14 16  0  0  0  0  0  0  0  0999 V2000
  -29.3344  -29.6071  -21.4355 C   0  0  0  0  0  0  0  0  0  0  0  0
  -27.9540  -29.6923  -21.6005 C   0  0  0  0  0  0  0  0  0  0  0  0
  -27.1186  -29.9424  -20.5167 C   0  0  0  0  0  0  0  0  0  0  0  0
  -27.7305  -30.0670  -19.2707 C   0  0  0  0  0  0  0  0  0  0  0  0
  -27.1717  -30.3014  -18.0478 N   0  0  0  0  0  0  0  0  0  0  0  0
  -28.1521  -30.4375  -17.1012 C   0  0  0  0  0  0  0  0  0  0  0  0
  -27.8021  -30.9159  -15.8273 C   0  0  0  0  0  0  0  0  0  0  0  0
  -26.9850  -30.3389  -14.9045 C   0  0  0  0  0  0  0  0  0  0  0  0
  -26.3105  -31.2428  -14.0945 N   0  0  0  0  0  0  0  0  0  0  0  0
  -26.8143  -32.4390  -14.2682 C   0  0  0  0  0  0  0  0  0  0  0  0
  -28.1244  -32.5007  -15.3571 S   0  0  0  0  0  0  0  0  0  0  0  0
  -29.3664  -30.2158  -17.6961 C   0  0  0  0  0  0  0  0  0  0  0  0
  -29.1099  -30.0140  -19.0780 C   0  0  0  0  0  0  0  0  0  0  0  0
  -29.9319  -29.8187  -20.1934 C   0  0  0  0  0  0  0  0  0  0  0  0
  1  2  2  0
  2  3  1  0
  3  4  2  0
  4  5  1  0
  5  6  1  0
  6  7  1  0
  7  8  2  0
  8  9  1  0
  9 10  2  0
 10 11  1  0
  6 12  2  0
 12 13  1  0
 13 14  2  0
 14  1  1  0
 13  4  1  0
 11  7  1  0
M  END
>  <fragmenstein_mode>  (23) 
expansion

>  <name>  (23) 
OESOQDRHZUHHKA-UHFFFAOYSA-N

>  <fragmenstein_runtime>  (23) 
1.167422

>  <HIPPO Compound ID>  (23) 
5744

>  <SLURM_JOB_NAME>  (23) 
BulkDock.place:Flavi_NS5_RdRp:RdRp_knitwork_green_site_rna_tunnel_impure_split4000_batch019

>  <ref_mols>  (23) 
z0136a,z0386a

>  <Multi-SuCOS>  (23) 
0.531419

>  <tags>  (23) 
['Fragmenstein placed', 'RdRp_knitwork_green_site_rna_tunnel_impure_fragalysis.sdf Pose OK']

>  <scratch_subdir>  (23) 
/opt/xchem-fragalysis-2/maxwin/BulkDock/SCRATCH/220470/C5744-P91

>  <energy_score>  (23) 
-93.638884

>  <fragmenstein_error>  (23) 
None

>  <csv_name>  (23) 
RdRp_knitwork_green_site_rna_tunnel_impure_split4000_batch019.csv

>  <merge_set>  (23) 
RdRp_knitwork_green_site_rna_tunnel_impure_fragalysis.sdf

>  <original ID>  (23) 
OESOQDRHZUHHKA-UHFFFAOYSA-N

>  <HIPPO Pose ID>  (23) 
163284

>  <fragmenstein_outcome>  (23) 
acceptable

>  <exports>  (23) 
['/opt/xchem-fragalysis-2/maxwin/BulkDock/OUTPUTS/RdRp_knitwork_green_site_rna_tunnel_impure_split4000_batch019_220470.sdf', '/opt/xchem-fragalysis-2/maxwin/BulkDock/OUTPUTS/RdRp_knitwork_green_site_rna_tunnel_impure_fragalysis.sdf']

>  <SLURM_JOB_ID>  (23) 
220470

>  <distance_score>  (23) 
0.917055

>  <original SMILES>  (23) 
c1ccc2[nH]c(-c3cncs3)cc2c1

>  <alias>  (23) 
None

>  <ref_pdb>  (23) 
z0136a

>  <inchikey>  (23) 
OESOQDRHZUHHKA-UHFFFAOYSA-N

$$$$
OESOQDRHZUHHKA-UHFFFAOYSA-N
     RDKit          3D

 14 16  0  0  0  0  0  0  0  0999 V2000
  -28.9748  -29.5037  -21.1077 C   0  0  0  0  0  0  0  0  0  0  0  0
  -27.5965  -29.7037  -21.1472 C   0  0  0  0  0  0  0  0  0  0  0  0
  -26.8973  -30.1161  -20.0105 C   0  0  0  0  0  0  0  0  0  0  0  0
  -27.6362  -30.3099  -18.8390 C   0  0  0  0  0  0  0  0  0  0  0  0
  -27.2336  -30.7723  -17.6074 N   0  0  0  0  0  0  0  0  0  0  0  0
  -28.3082  -30.8732  -16.7542 C   0  0  0  0  0  0  0  0  0  0  0  0
  -28.2706  -31.4929  -15.4636 C   0  0  0  0  0  0  0  0  0  0  0  0
  -29.2116  -31.4022  -14.4532 C   0  0  0  0  0  0  0  0  0  0  0  0
  -28.9923  -32.1959  -13.3405 N   0  0  0  0  0  0  0  0  0  0  0  0
  -27.9045  -32.9072  -13.5311 C   0  0  0  0  0  0  0  0  0  0  0  0
  -27.0706  -32.6319  -15.0010 S   0  0  0  0  0  0  0  0  0  0  0  0
  -29.4036  -30.3673  -17.4290 C   0  0  0  0  0  0  0  0  0  0  0  0
  -29.0067  -30.0872  -18.7629 C   0  0  0  0  0  0  0  0  0  0  0  0
  -29.6935  -29.6980  -19.9247 C   0  0  0  0  0  0  0  0  0  0  0  0
  1  2  2  0
  2  3  1  0
  3  4  2  0
  4  5  1  0
  5  6  1  0
  6  7  1  0
  7  8  2  0
  8  9  1  0
  9 10  2  0
 10 11  1  0
  6 12  2  0
 12 13  1  0
 13 14  2  0
 14  1  1  0
 13  4  1  0
 11  7  1  0
M  END
>  <fragmenstein_mode>  (24) 
expansion

>  <name>  (24) 
OESOQDRHZUHHKA-UHFFFAOYSA-N

>  <fragmenstein_runtime>  (24) 
1.434889

>  <HIPPO Compound ID>  (24) 
5744

>  <SLURM_JOB_NAME>  (24) 
BulkDock.place:Flavi_NS5_RdRp:RdRp_knitwork_green_site_rna_tunnel_impure_split4000_batch019

>  <ref_mols>  (24) 
z0136a,z0386a

>  <Multi-SuCOS>  (24) 
0.558433

>  <tags>  (24) 
['Fragmenstein placed', 'RdRp_knitwork_green_site_rna_tunnel_impure_fragalysis.sdf Pose OK']

>  <scratch_subdir>  (24) 
/opt/xchem-fragalysis-2/maxwin/BulkDock/SCRATCH/220470/C5744-P121

>  <energy_score>  (24) 
-104.283745

>  <fragmenstein_error>  (24) 
None

>  <csv_name>  (24) 
RdRp_knitwork_green_site_rna_tunnel_impure_split4000_batch019.csv

>  <merge_set>  (24) 
RdRp_knitwork_green_site_rna_tunnel_impure_fragalysis.sdf

>  <original ID>  (24) 
OESOQDRHZUHHKA-UHFFFAOYSA-N

>  <HIPPO Pose ID>  (24) 
163301

>  <fragmenstein_outcome>  (24) 
acceptable

>  <exports>  (24) 
['/opt/xchem-fragalysis-2/maxwin/BulkDock/OUTPUTS/RdRp_knitwork_green_site_rna_tunnel_impure_split4000_batch019_220470.sdf', '/opt/xchem-fragalysis-2/maxwin/BulkDock/OUTPUTS/RdRp_knitwork_green_site_rna_tunnel_impure_fragalysis.sdf']

>  <SLURM_JOB_ID>  (24) 
220470

>  <distance_score>  (24) 
0.881744

>  <original SMILES>  (24) 
c1ccc2[nH]c(-c3cncs3)cc2c1

>  <alias>  (24) 
None

>  <ref_pdb>  (24) 
z0386a

>  <inchikey>  (24) 
OESOQDRHZUHHKA-UHFFFAOYSA-N

$$$$
PSCNKOJXIXPVEF-UHFFFAOYSA-N
     RDKit          3D

 14 16  0  0  0  0  0  0  0  0999 V2000
  -29.1017  -29.5033  -21.0018 C   0  0  0  0  0  0  0  0  0  0  0  0
  -27.7341  -29.7371  -21.1291 C   0  0  0  0  0  0  0  0  0  0  0  0
  -26.9816  -30.2025  -20.0484 C   0  0  0  0  0  0  0  0  0  0  0  0
  -27.6551  -30.4117  -18.8403 C   0  0  0  0  0  0  0  0  0  0  0  0
  -27.1964  -30.9353  -17.6535 N   0  0  0  0  0  0  0  0  0  0  0  0
  -28.2214  -31.0225  -16.7500 C   0  0  0  0  0  0  0  0  0  0  0  0
  -28.2011  -31.7540  -15.3801 C   0  0  0  0  0  0  0  0  0  0  0  0
  -27.1863  -32.5991  -14.9799 C   0  0  0  0  0  0  0  0  0  0  0  0
  -27.5783  -33.3097  -13.4676 S   0  0  0  0  0  0  0  0  0  0  0  0
  -29.0749  -32.4726  -13.4910 C   0  0  0  0  0  0  0  0  0  0  0  0
  -29.2798  -31.6803  -14.5190 N   0  0  0  0  0  0  0  0  0  0  0  0
  -29.3299  -30.4294  -17.3132 C   0  0  0  0  0  0  0  0  0  0  0  0
  -29.0103  -30.1413  -18.6685 C   0  0  0  0  0  0  0  0  0  0  0  0
  -29.7525  -29.7083  -19.7805 C   0  0  0  0  0  0  0  0  0  0  0  0
  1  2  2  0
  2  3  1  0
  3  4  2  0
  4  5  1  0
  5  6  1  0
  6  7  1  0
  7  8  2  0
  8  9  1  0
  9 10  1  0
 10 11  2  0
  6 12  2  0
 12 13  1  0
 13 14  2  0
 14  1  1  0
 13  4  1  0
 11  7  1  0
M  END
>  <fragmenstein_mode>  (25) 
expansion

>  <name>  (25) 
PSCNKOJXIXPVEF-UHFFFAOYSA-N

>  <fragmenstein_runtime>  (25) 
1.226183

>  <HIPPO Compound ID>  (25) 
27485

>  <SLURM_JOB_NAME>  (25) 
BulkDock.place:Flavi_NS5_RdRp:RdRp_knitwork_green_site_rna_tunnel_impure_split4000_batch019

>  <ref_mols>  (25) 
z0136a,z0386a

>  <Multi-SuCOS>  (25) 
0.574272

>  <tags>  (25) 
['Fragmenstein placed', 'RdRp_knitwork_green_site_rna_tunnel_impure_fragalysis.sdf Pose OK']

>  <scratch_subdir>  (25) 
/opt/xchem-fragalysis-2/maxwin/BulkDock/SCRATCH/220470/C27485-P121

>  <energy_score>  (25) 
-52.662331

>  <fragmenstein_error>  (25) 
None

>  <csv_name>  (25) 
RdRp_knitwork_green_site_rna_tunnel_impure_split4000_batch019.csv

>  <merge_set>  (25) 
RdRp_knitwork_green_site_rna_tunnel_impure_fragalysis.sdf

>  <original ID>  (25) 
PSCNKOJXIXPVEF-UHFFFAOYSA-N

>  <HIPPO Pose ID>  (25) 
163342

>  <fragmenstein_outcome>  (25) 
acceptable

>  <exports>  (25) 
['/opt/xchem-fragalysis-2/maxwin/BulkDock/OUTPUTS/RdRp_knitwork_green_site_rna_tunnel_impure_split4000_batch019_220470.sdf', '/opt/xchem-fragalysis-2/maxwin/BulkDock/OUTPUTS/RdRp_knitwork_green_site_rna_tunnel_impure_fragalysis.sdf']

>  <SLURM_JOB_ID>  (25) 
220470

>  <distance_score>  (25) 
0.914112

>  <original SMILES>  (25) 
c1ccc2[nH]c(-c3cscn3)cc2c1

>  <alias>  (25) 
None

>  <ref_pdb>  (25) 
z0386a

>  <inchikey>  (25) 
PSCNKOJXIXPVEF-UHFFFAOYSA-N

$$$$
BEBLWCZQFBJRRA-UHFFFAOYSA-N
     RDKit          3D

 14 16  0  0  0  0  0  0  0  0999 V2000
  -29.4709  -29.6833  -21.0749 C   0  0  0  0  0  0  0  0  0  0  0  0
  -28.1340  -29.7471  -21.4584 C   0  0  0  0  0  0  0  0  0  0  0  0
  -27.1407  -30.0866  -20.5434 C   0  0  0  0  0  0  0  0  0  0  0  0
  -27.5480  -30.3515  -19.2356 C   0  0  0  0  0  0  0  0  0  0  0  0
  -26.8066  -30.7601  -18.1628 N   0  0  0  0  0  0  0  0  0  0  0  0
  -27.6197  -31.0328  -17.0925 C   0  0  0  0  0  0  0  0  0  0  0  0
  -27.0976  -31.6744  -15.9407 C   0  0  0  0  0  0  0  0  0  0  0  0
  -25.9808  -32.4878  -15.8677 C   0  0  0  0  0  0  0  0  0  0  0  0
  -25.6492  -32.7148  -14.5639 N   0  0  0  0  0  0  0  0  0  0  0  0
  -26.6982  -32.2836  -13.9187 C   0  0  0  0  0  0  0  0  0  0  0  0
  -27.6165  -31.6192  -14.6748 O   0  0  0  0  0  0  0  0  0  0  0  0
  -28.8955  -30.6391  -17.4284 C   0  0  0  0  0  0  0  0  0  0  0  0
  -28.8727  -30.2864  -18.8102 C   0  0  0  0  0  0  0  0  0  0  0  0
  -29.8561  -29.9612  -19.7584 C   0  0  0  0  0  0  0  0  0  0  0  0
  1  2  2  0
  2  3  1  0
  3  4  2  0
  4  5  1  0
  5  6  1  0
  6  7  1  0
  7  8  2  0
  8  9  1  0
  9 10  2  0
 10 11  1  0
  6 12  2  0
 12 13  1  0
 13 14  2  0
 14  1  1  0
 13  4  1  0
 11  7  1  0
M  END
>  <fragmenstein_mode>  (26) 
expansion

>  <name>  (26) 
BEBLWCZQFBJRRA-UHFFFAOYSA-N

>  <fragmenstein_runtime>  (26) 
1.289658

>  <HIPPO Compound ID>  (26) 
28667

>  <SLURM_JOB_NAME>  (26) 
BulkDock.place:Flavi_NS5_RdRp:RdRp_knitwork_green_site_rna_tunnel_impure_split4000_batch019

>  <ref_mols>  (26) 
z0136a,z0386a

>  <Multi-SuCOS>  (26) 
0.543016

>  <tags>  (26) 
['Fragmenstein placed', 'RdRp_knitwork_green_site_rna_tunnel_impure_fragalysis.sdf Pose OK']

>  <scratch_subdir>  (26) 
/opt/xchem-fragalysis-2/maxwin/BulkDock/SCRATCH/220470/C28667-P91

>  <energy_score>  (26) 
-17.466237

>  <fragmenstein_error>  (26) 
None

>  <csv_name>  (26) 
RdRp_knitwork_green_site_rna_tunnel_impure_split4000_batch019.csv

>  <merge_set>  (26) 
RdRp_knitwork_green_site_rna_tunnel_impure_fragalysis.sdf

>  <original ID>  (26) 
BEBLWCZQFBJRRA-UHFFFAOYSA-N

>  <HIPPO Pose ID>  (26) 
163366

>  <fragmenstein_outcome>  (26) 
acceptable

>  <exports>  (26) 
['/opt/xchem-fragalysis-2/maxwin/BulkDock/OUTPUTS/RdRp_knitwork_green_site_rna_tunnel_impure_split4000_batch019_220470.sdf', '/opt/xchem-fragalysis-2/maxwin/BulkDock/OUTPUTS/RdRp_knitwork_green_site_rna_tunnel_impure_fragalysis.sdf']

>  <SLURM_JOB_ID>  (26) 
220470

>  <distance_score>  (26) 
0.991779

>  <original SMILES>  (26) 
c1ccc2[nH]c(-c3cnco3)cc2c1

>  <alias>  (26) 
None

>  <ref_pdb>  (26) 
z0136a

>  <inchikey>  (26) 
BEBLWCZQFBJRRA-UHFFFAOYSA-N

$$$$
SYLUYMCKAWOIDV-UHFFFAOYSA-N
     RDKit          3D

 14 16  0  0  0  0  0  0  0  0999 V2000
  -28.3691  -30.6338  -16.5879 C   0  0  0  0  0  0  0  0  0  0  0  0
  -29.4545  -30.3435  -17.3866 C   0  0  0  0  0  0  0  0  0  0  0  0
  -28.9709  -30.0702  -18.6970 C   0  0  0  0  0  0  0  0  0  0  0  0
  -29.5683  -29.7519  -19.9287 C   0  0  0  0  0  0  0  0  0  0  0  0
  -28.7468  -29.4657  -21.0319 C   0  0  0  0  0  0  0  0  0  0  0  0
  -27.3492  -29.4975  -20.9258 C   0  0  0  0  0  0  0  0  0  0  0  0
  -26.4949  -29.0772  -22.0139 C   0  0  0  0  0  0  0  0  0  0  0  0
  -25.3411  -28.2594  -22.0236 C   0  0  0  0  0  0  0  0  0  0  0  0
  -24.8865  -28.0505  -23.2608 N   0  0  0  0  0  0  0  0  0  0  0  0
  -25.7169  -28.7890  -24.0868 O   0  0  0  0  0  0  0  0  0  0  0  0
  -26.6704  -29.3929  -23.3367 C   0  0  0  0  0  0  0  0  0  0  0  0
  -26.7495  -29.8813  -19.7239 C   0  0  0  0  0  0  0  0  0  0  0  0
  -27.5857  -30.1581  -18.6409 C   0  0  0  0  0  0  0  0  0  0  0  0
  -27.2539  -30.5691  -17.3755 N   0  0  0  0  0  0  0  0  0  0  0  0
  1  2  2  0
  2  3  1  0
  3  4  2  0
  4  5  1  0
  5  6  2  0
  6  7  1  0
  7  8  1  0
  8  9  2  0
  9 10  1  0
 10 11  1  0
  6 12  1  0
 12 13  2  0
 13 14  1  0
 14  1  1  0
 13  3  1  0
 11  7  2  0
M  END
>  <fragmenstein_mode>  (27) 
expansion

>  <name>  (27) 
SYLUYMCKAWOIDV-UHFFFAOYSA-N

>  <fragmenstein_runtime>  (27) 
1.532331

>  <HIPPO Compound ID>  (27) 
29520

>  <SLURM_JOB_NAME>  (27) 
BulkDock.place:Flavi_NS5_RdRp:RdRp_knitwork_green_site_rna_tunnel_impure_split4000_batch019

>  <ref_mols>  (27) 
z0136a,z0386a

>  <Multi-SuCOS>  (27) 
0.831651

>  <tags>  (27) 
['Fragmenstein placed', 'RdRp_knitwork_green_site_rna_tunnel_impure_fragalysis.sdf Pose OK']

>  <scratch_subdir>  (27) 
/opt/xchem-fragalysis-2/maxwin/BulkDock/SCRATCH/220470/C29520-P121

>  <energy_score>  (27) 
-10.477138

>  <fragmenstein_error>  (27) 
None

>  <csv_name>  (27) 
RdRp_knitwork_green_site_rna_tunnel_impure_split4000_batch019.csv

>  <merge_set>  (27) 
RdRp_knitwork_green_site_rna_tunnel_impure_fragalysis.sdf

>  <original ID>  (27) 
SYLUYMCKAWOIDV-UHFFFAOYSA-N

>  <HIPPO Pose ID>  (27) 
163477

>  <fragmenstein_outcome>  (27) 
acceptable

>  <exports>  (27) 
['/opt/xchem-fragalysis-2/maxwin/BulkDock/OUTPUTS/RdRp_knitwork_green_site_rna_tunnel_impure_split4000_batch019_220470.sdf', '/opt/xchem-fragalysis-2/maxwin/BulkDock/OUTPUTS/RdRp_knitwork_green_site_rna_tunnel_impure_fragalysis.sdf']

>  <SLURM_JOB_ID>  (27) 
220470

>  <distance_score>  (27) 
0.772374

>  <original SMILES>  (27) 
c1cc2ccc(-c3cnoc3)cc2[nH]1

>  <alias>  (27) 
None

>  <ref_pdb>  (27) 
z0386a

>  <inchikey>  (27) 
SYLUYMCKAWOIDV-UHFFFAOYSA-N

$$$$
JWUOBSJPUNZMTG-UHFFFAOYSA-N
     RDKit          3D

 14 16  0  0  0  0  0  0  0  0999 V2000
  -29.0459  -29.5163  -21.0514 C   0  0  0  0  0  0  0  0  0  0  0  0
  -27.6604  -29.6580  -21.0970 C   0  0  0  0  0  0  0  0  0  0  0  0
  -26.9376  -30.0253  -19.9596 C   0  0  0  0  0  0  0  0  0  0  0  0
  -27.6604  -30.2350  -18.7808 C   0  0  0  0  0  0  0  0  0  0  0  0
  -27.2287  -30.6489  -17.5427 N   0  0  0  0  0  0  0  0  0  0  0  0
  -28.2917  -30.7990  -16.6830 C   0  0  0  0  0  0  0  0  0  0  0  0
  -28.1444  -31.4048  -15.3945 C   0  0  0  0  0  0  0  0  0  0  0  0
  -26.9626  -31.6942  -14.8847 N   0  0  0  0  0  0  0  0  0  0  0  0
  -27.1252  -32.4728  -13.7518 C   0  0  0  0  0  0  0  0  0  0  0  0
  -28.4278  -32.7083  -13.3713 C   0  0  0  0  0  0  0  0  0  0  0  0
  -29.4939  -31.9313  -14.4634 S   0  0  0  0  0  0  0  0  0  0  0  0
  -29.4185  -30.3737  -17.3614 C   0  0  0  0  0  0  0  0  0  0  0  0
  -29.0406  -30.0816  -18.7002 C   0  0  0  0  0  0  0  0  0  0  0  0
  -29.7498  -29.7340  -19.8628 C   0  0  0  0  0  0  0  0  0  0  0  0
  1  2  2  0
  2  3  1  0
  3  4  2  0
  4  5  1  0
  5  6  1  0
  6  7  1  0
  7  8  2  0
  8  9  1  0
  9 10  2  0
 10 11  1  0
  6 12  2  0
 12 13  1  0
 13 14  2  0
 14  1  1  0
 13  4  1  0
 11  7  1  0
M  END
>  <fragmenstein_mode>  (28) 
expansion

>  <name>  (28) 
JWUOBSJPUNZMTG-UHFFFAOYSA-N

>  <fragmenstein_runtime>  (28) 
1.650983

>  <HIPPO Compound ID>  (28) 
27785

>  <SLURM_JOB_NAME>  (28) 
BulkDock.place:Flavi_NS5_RdRp:RdRp_knitwork_green_site_rna_tunnel_impure_split4000_batch019

>  <ref_mols>  (28) 
z0136a,z0386a

>  <Multi-SuCOS>  (28) 
0.620323

>  <tags>  (28) 
['Fragmenstein placed', 'RdRp_knitwork_green_site_rna_tunnel_impure_fragalysis.sdf Pose OK']

>  <scratch_subdir>  (28) 
/opt/xchem-fragalysis-2/maxwin/BulkDock/SCRATCH/220470/C27785-P121

>  <energy_score>  (28) 
-62.471459

>  <fragmenstein_error>  (28) 
None

>  <csv_name>  (28) 
RdRp_knitwork_green_site_rna_tunnel_impure_split4000_batch019.csv

>  <merge_set>  (28) 
RdRp_knitwork_green_site_rna_tunnel_impure_fragalysis.sdf

>  <original ID>  (28) 
JWUOBSJPUNZMTG-UHFFFAOYSA-N

>  <HIPPO Pose ID>  (28) 
163500

>  <fragmenstein_outcome>  (28) 
acceptable

>  <exports>  (28) 
['/opt/xchem-fragalysis-2/maxwin/BulkDock/OUTPUTS/RdRp_knitwork_green_site_rna_tunnel_impure_split4000_batch019_220470.sdf', '/opt/xchem-fragalysis-2/maxwin/BulkDock/OUTPUTS/RdRp_knitwork_green_site_rna_tunnel_impure_fragalysis.sdf']

>  <SLURM_JOB_ID>  (28) 
220470

>  <distance_score>  (28) 
0.846431

>  <original SMILES>  (28) 
c1ccc2[nH]c(-c3nccs3)cc2c1

>  <alias>  (28) 
None

>  <ref_pdb>  (28) 
z0386a

>  <inchikey>  (28) 
JWUOBSJPUNZMTG-UHFFFAOYSA-N

$$$$
AIOMPLIMQZUATH-DTWKUNHWSA-N
     RDKit          3D

 15 16  0  0  0  0  0  0  0  0999 V2000
  -27.9570  -30.3286  -15.1308 C   0  0  0  0  0  0  0  0  0  0  0  0
  -28.5388  -30.3030  -16.4977 C   0  0  0  0  0  0  0  0  0  0  0  0
  -27.8384  -30.1864  -17.6034 N   0  0  0  0  0  0  0  0  0  0  0  0
  -28.6666  -30.2208  -18.7182 C   0  0  0  0  0  0  0  0  0  0  0  0
  -28.0817  -30.1475  -20.1106 C   0  0  1  0  0  0  0  0  0  0  0  0
  -29.0284  -29.5299  -21.0056 O   0  0  0  0  0  0  0  0  0  0  0  0
  -26.7131  -29.3880  -20.1525 C   0  0  1  0  0  0  0  0  0  0  0  0
  -25.5995  -30.1404  -19.5406 N   0  0  0  0  0  0  0  0  0  0  0  0
  -26.2578  -29.0742  -21.5597 C   0  0  0  0  0  0  0  0  0  0  0  0
  -25.4163  -28.0347  -21.9193 C   0  0  0  0  0  0  0  0  0  0  0  0
  -25.0176  -28.1626  -23.5773 S   0  0  0  0  0  0  0  0  0  0  0  0
  -26.0282  -29.5327  -23.7129 C   0  0  0  0  0  0  0  0  0  0  0  0
  -26.6385  -29.9059  -22.6092 N   0  0  0  0  0  0  0  0  0  0  0  0
  -30.0093  -30.3407  -18.4112 C   0  0  0  0  0  0  0  0  0  0  0  0
  -30.2311  -30.4220  -16.7171 S   0  0  0  0  0  0  0  0  0  0  0  0
  1  2  1  0
  2  3  2  0
  3  4  1  0
  4  5  1  0
  5  6  1  6
  5  7  1  0
  7  8  1  6
  7  9  1  0
  9 10  2  0
 10 11  1  0
 11 12  1  0
 12 13  2  0
  4 14  2  0
 14 15  1  0
 15  2  1  0
 13  9  1  0
M  END
>  <fragmenstein_mode>  (29) 
expansion

>  <name>  (29) 
AIOMPLIMQZUATH-DTWKUNHWSA-N

>  <fragmenstein_runtime>  (29) 
1.194091

>  <HIPPO Compound ID>  (29) 
10858

>  <SLURM_JOB_NAME>  (29) 
BulkDock.place:Flavi_NS5_RdRp:RdRp_knitwork_green_site_rna_tunnel_impure_split4000_batch001

>  <ref_mols>  (29) 
z0200a,z0496a

>  <Multi-SuCOS>  (29) 
0.62852

>  <tags>  (29) 
['Fragmenstein placed', 'RdRp_knitwork_green_site_rna_tunnel_impure_fragalysis.sdf Pose OK']

>  <scratch_subdir>  (29) 
/opt/xchem-fragalysis-2/maxwin/BulkDock/SCRATCH/220452/C10858-P100

>  <energy_score>  (29) 
-109.85867

>  <fragmenstein_error>  (29) 
None

>  <csv_name>  (29) 
RdRp_knitwork_green_site_rna_tunnel_impure_split4000_batch001.csv

>  <merge_set>  (29) 
RdRp_knitwork_green_site_rna_tunnel_impure_fragalysis.sdf

>  <original ID>  (29) 
AIOMPLIMQZUATH-DTWKUNHWSA-N

>  <HIPPO Pose ID>  (29) 
163586

>  <fragmenstein_outcome>  (29) 
acceptable

>  <exports>  (29) 
['/opt/xchem-fragalysis-2/maxwin/BulkDock/OUTPUTS/RdRp_knitwork_green_site_rna_tunnel_impure_split4000_batch001_220452.sdf', '/opt/xchem-fragalysis-2/maxwin/BulkDock/OUTPUTS/RdRp_knitwork_green_site_rna_tunnel_impure_fragalysis.sdf']

>  <SLURM_JOB_ID>  (29) 
220452

>  <distance_score>  (29) 
0.811624

>  <original SMILES>  (29) 
Cc1nc([C@@H](O)[C@@H](N)c2cscn2)cs1

>  <alias>  (29) 
None

>  <ref_pdb>  (29) 
z0200a

>  <inchikey>  (29) 
AIOMPLIMQZUATH-DTWKUNHWSA-N

$$$$
BNZIHNVHNUMCRC-JGVFFNPUSA-N
     RDKit          3D

 15 16  0  0  0  0  0  0  0  0999 V2000
  -27.9228  -30.4515  -15.1499 C   0  0  0  0  0  0  0  0  0  0  0  0
  -28.5576  -30.4857  -16.4938 C   0  0  0  0  0  0  0  0  0  0  0  0
  -27.9173  -30.7087  -17.6208 N   0  0  0  0  0  0  0  0  0  0  0  0
  -28.7995  -30.6588  -18.7020 C   0  0  0  0  0  0  0  0  0  0  0  0
  -28.2904  -30.8715  -20.1130 C   0  0  1  0  0  0  0  0  0  0  0  0
  -29.1046  -30.1845  -21.0817 O   0  0  0  0  0  0  0  0  0  0  0  0
  -26.7783  -30.5526  -20.3276 C   0  0  2  0  0  0  0  0  0  0  0  0
  -25.8787  -31.2903  -19.4131 N   0  0  0  0  0  0  0  0  0  0  0  0
  -26.4503  -29.0708  -20.3339 C   0  0  0  0  0  0  0  0  0  0  0  0
  -25.5741  -28.5434  -21.1653 N   0  0  0  0  0  0  0  0  0  0  0  0
  -25.4666  -27.1948  -20.9394 C   0  0  0  0  0  0  0  0  0  0  0  0
  -26.2283  -26.7086  -19.9072 C   0  0  0  0  0  0  0  0  0  0  0  0
  -27.1482  -27.9555  -19.2265 S   0  0  0  0  0  0  0  0  0  0  0  0
  -30.1066  -30.3920  -18.3478 C   0  0  0  0  0  0  0  0  0  0  0  0
  -30.2383  -30.2083  -16.6539 S   0  0  0  0  0  0  0  0  0  0  0  0
  1  2  1  0
  2  3  2  0
  3  4  1  0
  4  5  1  0
  5  6  1  6
  5  7  1  0
  7  8  1  1
  7  9  1  0
  9 10  2  0
 10 11  1  0
 11 12  2  0
 12 13  1  0
  4 14  2  0
 14 15  1  0
 15  2  1  0
 13  9  1  0
M  END
>  <fragmenstein_mode>  (30) 
expansion

>  <name>  (30) 
BNZIHNVHNUMCRC-JGVFFNPUSA-N

>  <fragmenstein_runtime>  (30) 
1.433147

>  <HIPPO Compound ID>  (30) 
13111

>  <SLURM_JOB_NAME>  (30) 
BulkDock.place:Flavi_NS5_RdRp:RdRp_knitwork_green_site_rna_tunnel_impure_split4000_batch001

>  <ref_mols>  (30) 
z0200a,z0496a

>  <Multi-SuCOS>  (30) 
0.527859

>  <tags>  (30) 
['Fragmenstein placed', 'RdRp_knitwork_green_site_rna_tunnel_impure_fragalysis.sdf Pose OK']

>  <scratch_subdir>  (30) 
/opt/xchem-fragalysis-2/maxwin/BulkDock/SCRATCH/220452/C13111-P100

>  <energy_score>  (30) 
-109.658987

>  <fragmenstein_error>  (30) 
None

>  <csv_name>  (30) 
RdRp_knitwork_green_site_rna_tunnel_impure_split4000_batch001.csv

>  <merge_set>  (30) 
RdRp_knitwork_green_site_rna_tunnel_impure_fragalysis.sdf

>  <original ID>  (30) 
BNZIHNVHNUMCRC-JGVFFNPUSA-N

>  <HIPPO Pose ID>  (30) 
163614

>  <fragmenstein_outcome>  (30) 
acceptable

>  <exports>  (30) 
['/opt/xchem-fragalysis-2/maxwin/BulkDock/OUTPUTS/RdRp_knitwork_green_site_rna_tunnel_impure_split4000_batch001_220452.sdf', '/opt/xchem-fragalysis-2/maxwin/BulkDock/OUTPUTS/RdRp_knitwork_green_site_rna_tunnel_impure_fragalysis.sdf']

>  <SLURM_JOB_ID>  (30) 
220452

>  <distance_score>  (30) 
0.966415

>  <original SMILES>  (30) 
Cc1nc([C@@H](O)[C@H](N)c2nccs2)cs1

>  <alias>  (30) 
None

>  <ref_pdb>  (30) 
z0200a

>  <inchikey>  (30) 
BNZIHNVHNUMCRC-JGVFFNPUSA-N

$$$$
AJJAQSYMXBEQPD-UHFFFAOYSA-N
     RDKit          3D

 22 25  0  0  0  0  0  0  0  0999 V2000
  -24.0741  -32.9733  -24.8915 O   0  0  0  0  0  0  0  0  0  0  0  0
  -23.0869  -33.0103  -24.1663 C   0  0  0  0  0  0  0  0  0  0  0  0
  -21.7240  -33.4740  -24.6090 C   0  0  0  0  0  0  0  0  0  0  0  0
  -20.8302  -32.9725  -23.4829 C   0  0  0  0  0  0  0  0  0  0  0  0
  -21.7235  -33.0242  -22.2548 C   0  0  0  0  0  0  0  0  0  0  0  0
  -23.0079  -32.7155  -22.8061 N   0  0  0  0  0  0  0  0  0  0  0  0
  -24.0393  -32.1613  -22.0466 C   0  0  0  0  0  0  0  0  0  0  0  0
  -24.9503  -31.3664  -22.6952 C   0  0  0  0  0  0  0  0  0  0  0  0
  -26.0229  -30.8525  -21.9884 C   0  0  0  0  0  0  0  0  0  0  0  0
  -26.2400  -31.0951  -20.6390 C   0  0  0  0  0  0  0  0  0  0  0  0
  -27.4782  -30.5537  -19.9909 C   0  0  0  0  0  0  0  0  0  0  0  0
  -28.6149  -30.3386  -20.8034 C   0  0  0  0  0  0  0  0  0  0  0  0
  -29.8670  -29.9914  -20.3165 C   0  0  0  0  0  0  0  0  0  0  0  0
  -30.0212  -29.8388  -18.9588 C   0  0  0  0  0  0  0  0  0  0  0  0
  -28.9383  -29.9247  -18.1109 C   0  0  0  0  0  0  0  0  0  0  0  0
  -29.1935  -29.6883  -16.8192 N   0  0  0  0  0  0  0  0  0  0  0  0
  -28.1520  -29.6728  -15.9700 C   0  0  0  0  0  0  0  0  0  0  0  0
  -26.8402  -29.8409  -16.3583 C   0  0  0  0  0  0  0  0  0  0  0  0
  -26.5851  -30.1182  -17.6952 C   0  0  0  0  0  0  0  0  0  0  0  0
  -27.6405  -30.2244  -18.6209 C   0  0  0  0  0  0  0  0  0  0  0  0
  -25.2473  -31.8910  -20.0697 C   0  0  0  0  0  0  0  0  0  0  0  0
  -24.1481  -32.3953  -20.7243 N   0  0  0  0  0  0  0  0  0  0  0  0
  1  2  2  0
  2  3  1  0
  3  4  1  0
  4  5  1  0
  5  6  1  0
  6  7  1  0
  7  8  2  0
  8  9  1  0
  9 10  2  0
 10 11  1  0
 11 12  2  0
 12 13  1  0
 13 14  2  0
 14 15  1  0
 15 16  2  0
 16 17  1  0
 17 18  2  0
 18 19  1  0
 19 20  2  0
 10 21  1  0
 21 22  2  0
  6  2  1  0
 22  7  1  0
 20 11  1  0
 20 15  1  0
M  END
>  <fragmenstein_mode>  (31) 
expansion

>  <name>  (31) 
AJJAQSYMXBEQPD-UHFFFAOYSA-N

>  <fragmenstein_runtime>  (31) 
2.436018

>  <HIPPO Compound ID>  (31) 
43515

>  <SLURM_JOB_NAME>  (31) 
BulkDock.place:Flavi_NS5_RdRp:RdRp_knitwork_green_site_rna_tunnel_impure_split4000_batch005

>  <ref_mols>  (31) 
z1018a,z1040a

>  <Multi-SuCOS>  (31) 
0.533498

>  <tags>  (31) 
['Fragmenstein placed', 'RdRp_knitwork_green_site_rna_tunnel_impure_fragalysis.sdf Pose OK']

>  <scratch_subdir>  (31) 
/opt/xchem-fragalysis-2/maxwin/BulkDock/SCRATCH/220456/C43515-P206

>  <energy_score>  (31) 
-39.648443

>  <fragmenstein_error>  (31) 
None

>  <csv_name>  (31) 
RdRp_knitwork_green_site_rna_tunnel_impure_split4000_batch005.csv

>  <merge_set>  (31) 
RdRp_knitwork_green_site_rna_tunnel_impure_fragalysis.sdf

>  <original ID>  (31) 
AJJAQSYMXBEQPD-UHFFFAOYSA-N

>  <HIPPO Pose ID>  (31) 
163624

>  <fragmenstein_outcome>  (31) 
acceptable

>  <exports>  (31) 
['/opt/xchem-fragalysis-2/maxwin/BulkDock/OUTPUTS/RdRp_knitwork_green_site_rna_tunnel_impure_split4000_batch005_220456.sdf', '/opt/xchem-fragalysis-2/maxwin/BulkDock/OUTPUTS/RdRp_knitwork_green_site_rna_tunnel_impure_fragalysis.sdf']

>  <SLURM_JOB_ID>  (31) 
220456

>  <distance_score>  (31) 
0.967874

>  <original SMILES>  (31) 
O=C1CCCN1c1ccc(-c2cccc3ncccc23)cn1

>  <alias>  (31) 
None

>  <ref_pdb>  (31) 
z1018a

>  <inchikey>  (31) 
AJJAQSYMXBEQPD-UHFFFAOYSA-N

$$$$
AJJAQSYMXBEQPD-UHFFFAOYSA-N
     RDKit          3D

 22 25  0  0  0  0  0  0  0  0999 V2000
  -24.1413  -32.7804  -25.3273 O   0  0  0  0  0  0  0  0  0  0  0  0
  -23.2483  -32.8924  -24.5022 C   0  0  0  0  0  0  0  0  0  0  0  0
  -21.8750  -33.3999  -24.8342 C   0  0  0  0  0  0  0  0  0  0  0  0
  -21.0804  -33.0334  -23.5904 C   0  0  0  0  0  0  0  0  0  0  0  0
  -22.1021  -33.1213  -22.4754 C   0  0  0  0  0  0  0  0  0  0  0  0
  -23.2938  -32.6777  -23.1337 N   0  0  0  0  0  0  0  0  0  0  0  0
  -24.4008  -32.1960  -22.4361 C   0  0  0  0  0  0  0  0  0  0  0  0
  -25.3290  -31.4102  -23.0963 C   0  0  0  0  0  0  0  0  0  0  0  0
  -26.4232  -30.9188  -22.4015 C   0  0  0  0  0  0  0  0  0  0  0  0
  -26.6237  -31.2150  -21.0493 C   0  0  0  0  0  0  0  0  0  0  0  0
  -27.8182  -30.7075  -20.3138 C   0  0  0  0  0  0  0  0  0  0  0  0
  -28.9781  -30.4148  -21.0559 C   0  0  0  0  0  0  0  0  0  0  0  0
  -30.1957  -30.1144  -20.4733 C   0  0  0  0  0  0  0  0  0  0  0  0
  -30.2867  -30.1053  -19.0998 C   0  0  0  0  0  0  0  0  0  0  0  0
  -29.1751  -30.2750  -18.3063 C   0  0  0  0  0  0  0  0  0  0  0  0
  -29.3758  -30.1567  -16.9870 N   0  0  0  0  0  0  0  0  0  0  0  0
  -28.3110  -30.2569  -16.1754 C   0  0  0  0  0  0  0  0  0  0  0  0
  -27.0227  -30.4296  -16.6293 C   0  0  0  0  0  0  0  0  0  0  0  0
  -26.8219  -30.5408  -17.9998 C   0  0  0  0  0  0  0  0  0  0  0  0
  -27.9097  -30.5252  -18.9004 C   0  0  0  0  0  0  0  0  0  0  0  0
  -25.6600  -32.0663  -20.5041 C   0  0  0  0  0  0  0  0  0  0  0  0
  -24.5396  -32.5138  -21.1341 N   0  0  0  0  0  0  0  0  0  0  0  0
  1  2  2  0
  2  3  1  0
  3  4  1  0
  4  5  1  0
  5  6  1  0
  6  7  1  0
  7  8  2  0
  8  9  1  0
  9 10  2  0
 10 11  1  0
 11 12  2  0
 12 13  1  0
 13 14  2  0
 14 15  1  0
 15 16  2  0
 16 17  1  0
 17 18  2  0
 18 19  1  0
 19 20  2  0
 10 21  1  0
 21 22  2  0
  6  2  1  0
 22  7  1  0
 20 11  1  0
 20 15  1  0
M  END
>  <fragmenstein_mode>  (32) 
expansion

>  <name>  (32) 
AJJAQSYMXBEQPD-UHFFFAOYSA-N

>  <fragmenstein_runtime>  (32) 
2.027447

>  <HIPPO Compound ID>  (32) 
43515

>  <SLURM_JOB_NAME>  (32) 
BulkDock.place:Flavi_NS5_RdRp:RdRp_knitwork_green_site_rna_tunnel_impure_split4000_batch005

>  <ref_mols>  (32) 
z1018a,z1040a

>  <Multi-SuCOS>  (32) 
0.555624

>  <tags>  (32) 
['Fragmenstein placed', 'RdRp_knitwork_green_site_rna_tunnel_impure_fragalysis.sdf Pose OK']

>  <scratch_subdir>  (32) 
/opt/xchem-fragalysis-2/maxwin/BulkDock/SCRATCH/220456/C43515-P208

>  <energy_score>  (32) 
-44.045329

>  <fragmenstein_error>  (32) 
None

>  <csv_name>  (32) 
RdRp_knitwork_green_site_rna_tunnel_impure_split4000_batch005.csv

>  <merge_set>  (32) 
RdRp_knitwork_green_site_rna_tunnel_impure_fragalysis.sdf

>  <original ID>  (32) 
AJJAQSYMXBEQPD-UHFFFAOYSA-N

>  <HIPPO Pose ID>  (32) 
163635

>  <fragmenstein_outcome>  (32) 
acceptable

>  <exports>  (32) 
['/opt/xchem-fragalysis-2/maxwin/BulkDock/OUTPUTS/RdRp_knitwork_green_site_rna_tunnel_impure_split4000_batch005_220456.sdf', '/opt/xchem-fragalysis-2/maxwin/BulkDock/OUTPUTS/RdRp_knitwork_green_site_rna_tunnel_impure_fragalysis.sdf']

>  <SLURM_JOB_ID>  (32) 
220456

>  <distance_score>  (32) 
0.933087

>  <original SMILES>  (32) 
O=C1CCCN1c1ccc(-c2cccc3ncccc23)cn1

>  <alias>  (32) 
None

>  <ref_pdb>  (32) 
z1040a

>  <inchikey>  (32) 
AJJAQSYMXBEQPD-UHFFFAOYSA-N

$$$$
JSBKQQUBNSZSOL-UHFFFAOYSA-N
     RDKit          3D

 22 25  0  0  0  0  0  0  0  0999 V2000
  -24.1623  -32.8735  -24.8551 O   0  0  0  0  0  0  0  0  0  0  0  0
  -23.1813  -32.9198  -24.1221 C   0  0  0  0  0  0  0  0  0  0  0  0
  -21.8226  -33.4108  -24.5527 C   0  0  0  0  0  0  0  0  0  0  0  0
  -20.9274  -32.9318  -23.4183 C   0  0  0  0  0  0  0  0  0  0  0  0
  -21.8365  -32.9653  -22.2007 C   0  0  0  0  0  0  0  0  0  0  0  0
  -23.1086  -32.6199  -22.7626 N   0  0  0  0  0  0  0  0  0  0  0  0
  -24.1497  -32.0803  -22.0018 C   0  0  0  0  0  0  0  0  0  0  0  0
  -25.0821  -31.2997  -22.6413 C   0  0  0  0  0  0  0  0  0  0  0  0
  -26.1685  -30.8032  -21.9307 C   0  0  0  0  0  0  0  0  0  0  0  0
  -26.3652  -31.0417  -20.5804 C   0  0  0  0  0  0  0  0  0  0  0  0
  -27.5960  -30.5095  -19.9081 C   0  0  0  0  0  0  0  0  0  0  0  0
  -28.7641  -30.3090  -20.6754 C   0  0  0  0  0  0  0  0  0  0  0  0
  -29.9856  -30.0278  -20.0961 C   0  0  0  0  0  0  0  0  0  0  0  0
  -30.1351  -29.9017  -18.7814 N   0  0  0  0  0  0  0  0  0  0  0  0
  -29.0306  -29.9487  -18.0383 C   0  0  0  0  0  0  0  0  0  0  0  0
  -29.2222  -29.7361  -16.6929 C   0  0  0  0  0  0  0  0  0  0  0  0
  -28.1533  -29.6970  -15.8063 C   0  0  0  0  0  0  0  0  0  0  0  0
  -26.8568  -29.8249  -16.2820 C   0  0  0  0  0  0  0  0  0  0  0  0
  -26.6397  -30.0684  -17.6359 C   0  0  0  0  0  0  0  0  0  0  0  0
  -27.7207  -30.1937  -18.5375 C   0  0  0  0  0  0  0  0  0  0  0  0
  -25.3528  -31.8231  -20.0203 C   0  0  0  0  0  0  0  0  0  0  0  0
  -24.2503  -32.3149  -20.6805 N   0  0  0  0  0  0  0  0  0  0  0  0
  1  2  2  0
  2  3  1  0
  3  4  1  0
  4  5  1  0
  5  6  1  0
  6  7  1  0
  7  8  2  0
  8  9  1  0
  9 10  2  0
 10 11  1  0
 11 12  2  0
 12 13  1  0
 13 14  2  0
 14 15  1  0
 15 16  2  0
 16 17  1  0
 17 18  2  0
 18 19  1  0
 19 20  2  0
 10 21  1  0
 21 22  2  0
  6  2  1  0
 22  7  1  0
 20 11  1  0
 20 15  1  0
M  END
>  <fragmenstein_mode>  (33) 
expansion

>  <name>  (33) 
JSBKQQUBNSZSOL-UHFFFAOYSA-N

>  <fragmenstein_runtime>  (33) 
2.794515

>  <HIPPO Compound ID>  (33) 
43697

>  <SLURM_JOB_NAME>  (33) 
BulkDock.place:Flavi_NS5_RdRp:RdRp_knitwork_green_site_rna_tunnel_impure_split4000_batch005

>  <ref_mols>  (33) 
z1018a,z1040a

>  <Multi-SuCOS>  (33) 
0.523114

>  <tags>  (33) 
['Fragmenstein placed', 'RdRp_knitwork_green_site_rna_tunnel_impure_fragalysis.sdf Pose OK']

>  <scratch_subdir>  (33) 
/opt/xchem-fragalysis-2/maxwin/BulkDock/SCRATCH/220456/C43697-P206

>  <energy_score>  (33) 
-22.649976

>  <fragmenstein_error>  (33) 
None

>  <csv_name>  (33) 
RdRp_knitwork_green_site_rna_tunnel_impure_split4000_batch005.csv

>  <merge_set>  (33) 
RdRp_knitwork_green_site_rna_tunnel_impure_fragalysis.sdf

>  <original ID>  (33) 
JSBKQQUBNSZSOL-UHFFFAOYSA-N

>  <HIPPO Pose ID>  (33) 
163650

>  <fragmenstein_outcome>  (33) 
acceptable

>  <exports>  (33) 
['/opt/xchem-fragalysis-2/maxwin/BulkDock/OUTPUTS/RdRp_knitwork_green_site_rna_tunnel_impure_split4000_batch005_220456.sdf', '/opt/xchem-fragalysis-2/maxwin/BulkDock/OUTPUTS/RdRp_knitwork_green_site_rna_tunnel_impure_fragalysis.sdf']

>  <SLURM_JOB_ID>  (33) 
220456

>  <distance_score>  (33) 
0.900089

>  <original SMILES>  (33) 
O=C1CCCN1c1ccc(-c2ccnc3ccccc23)cn1

>  <alias>  (33) 
None

>  <ref_pdb>  (33) 
z1018a

>  <inchikey>  (33) 
JSBKQQUBNSZSOL-UHFFFAOYSA-N

$$$$
JSBKQQUBNSZSOL-UHFFFAOYSA-N
     RDKit          3D

 22 25  0  0  0  0  0  0  0  0999 V2000
  -24.3293  -32.7806  -25.2813 O   0  0  0  0  0  0  0  0  0  0  0  0
  -23.4198  -32.8582  -24.4695 C   0  0  0  0  0  0  0  0  0  0  0  0
  -22.0562  -33.4053  -24.7958 C   0  0  0  0  0  0  0  0  0  0  0  0
  -21.2311  -32.9857  -23.5890 C   0  0  0  0  0  0  0  0  0  0  0  0
  -22.2378  -32.9981  -22.4549 C   0  0  0  0  0  0  0  0  0  0  0  0
  -23.4415  -32.5776  -23.1121 N   0  0  0  0  0  0  0  0  0  0  0  0
  -24.5566  -32.1150  -22.4086 C   0  0  0  0  0  0  0  0  0  0  0  0
  -25.5218  -31.3571  -23.0557 C   0  0  0  0  0  0  0  0  0  0  0  0
  -26.6241  -30.8900  -22.3429 C   0  0  0  0  0  0  0  0  0  0  0  0
  -26.7899  -31.1839  -20.9860 C   0  0  0  0  0  0  0  0  0  0  0  0
  -27.9685  -30.6971  -20.2039 C   0  0  0  0  0  0  0  0  0  0  0  0
  -29.1797  -30.4437  -20.8708 C   0  0  0  0  0  0  0  0  0  0  0  0
  -30.3437  -30.2000  -20.1722 C   0  0  0  0  0  0  0  0  0  0  0  0
  -30.3948  -30.1765  -18.8415 N   0  0  0  0  0  0  0  0  0  0  0  0
  -29.2515  -30.3086  -18.1774 C   0  0  0  0  0  0  0  0  0  0  0  0
  -29.3564  -30.2223  -16.8048 C   0  0  0  0  0  0  0  0  0  0  0  0
  -28.2379  -30.2986  -15.9858 C   0  0  0  0  0  0  0  0  0  0  0  0
  -26.9806  -30.4177  -16.5562 C   0  0  0  0  0  0  0  0  0  0  0  0
  -26.8542  -30.4997  -17.9414 C   0  0  0  0  0  0  0  0  0  0  0  0
  -27.9886  -30.5142  -18.7908 C   0  0  0  0  0  0  0  0  0  0  0  0
  -25.7947  -32.0153  -20.4611 C   0  0  0  0  0  0  0  0  0  0  0  0
  -24.6726  -32.4362  -21.1063 N   0  0  0  0  0  0  0  0  0  0  0  0
  1  2  2  0
  2  3  1  0
  3  4  1  0
  4  5  1  0
  5  6  1  0
  6  7  1  0
  7  8  2  0
  8  9  1  0
  9 10  2  0
 10 11  1  0
 11 12  2  0
 12 13  1  0
 13 14  2  0
 14 15  1  0
 15 16  2  0
 16 17  1  0
 17 18  2  0
 18 19  1  0
 19 20  2  0
 10 21  1  0
 21 22  2  0
  6  2  1  0
 22  7  1  0
 20 11  1  0
 20 15  1  0
M  END
>  <fragmenstein_mode>  (34) 
expansion

>  <name>  (34) 
JSBKQQUBNSZSOL-UHFFFAOYSA-N

>  <fragmenstein_runtime>  (34) 
2.211042

>  <HIPPO Compound ID>  (34) 
43697

>  <SLURM_JOB_NAME>  (34) 
BulkDock.place:Flavi_NS5_RdRp:RdRp_knitwork_green_site_rna_tunnel_impure_split4000_batch005

>  <ref_mols>  (34) 
z1018a,z1040a

>  <Multi-SuCOS>  (34) 
0.541501

>  <tags>  (34) 
['Fragmenstein placed', 'RdRp_knitwork_green_site_rna_tunnel_impure_fragalysis.sdf Pose OK']

>  <scratch_subdir>  (34) 
/opt/xchem-fragalysis-2/maxwin/BulkDock/SCRATCH/220456/C43697-P208

>  <energy_score>  (34) 
-26.750453

>  <fragmenstein_error>  (34) 
None

>  <csv_name>  (34) 
RdRp_knitwork_green_site_rna_tunnel_impure_split4000_batch005.csv

>  <merge_set>  (34) 
RdRp_knitwork_green_site_rna_tunnel_impure_fragalysis.sdf

>  <original ID>  (34) 
JSBKQQUBNSZSOL-UHFFFAOYSA-N

>  <HIPPO Pose ID>  (34) 
163671

>  <fragmenstein_outcome>  (34) 
acceptable

>  <exports>  (34) 
['/opt/xchem-fragalysis-2/maxwin/BulkDock/OUTPUTS/RdRp_knitwork_green_site_rna_tunnel_impure_split4000_batch005_220456.sdf', '/opt/xchem-fragalysis-2/maxwin/BulkDock/OUTPUTS/RdRp_knitwork_green_site_rna_tunnel_impure_fragalysis.sdf']

>  <SLURM_JOB_ID>  (34) 
220456

>  <distance_score>  (34) 
0.807824

>  <original SMILES>  (34) 
O=C1CCCN1c1ccc(-c2ccnc3ccccc23)cn1

>  <alias>  (34) 
None

>  <ref_pdb>  (34) 
z1040a

>  <inchikey>  (34) 
JSBKQQUBNSZSOL-UHFFFAOYSA-N

$$$$
ZVRPUUGSQSVKAM-UHFFFAOYSA-N
     RDKit          3D

 23 26  0  0  0  0  0  0  0  0999 V2000
  -26.6232  -31.7978  -21.9657 O   0  0  0  0  0  0  0  0  0  0  0  0
  -25.6147  -31.5824  -21.4765 C   0  0  0  0  0  0  0  0  0  0  0  0
  -24.1853  -31.9527  -21.9299 N   0  0  0  0  0  0  0  0  0  0  0  0
  -23.7382  -32.7477  -23.0358 C   0  0  0  0  0  0  0  0  0  0  0  0
  -22.8026  -33.7281  -22.4138 C   0  0  0  0  0  0  0  0  0  0  0  0
  -23.0028  -35.0778  -22.1996 C   0  0  0  0  0  0  0  0  0  0  0  0
  -22.0063  -35.6026  -21.4389 O   0  0  0  0  0  0  0  0  0  0  0  0
  -21.1397  -34.5901  -21.1579 C   0  0  0  0  0  0  0  0  0  0  0  0
  -20.0025  -34.6865  -20.3579 C   0  0  0  0  0  0  0  0  0  0  0  0
  -19.2665  -33.5127  -20.1664 C   0  0  0  0  0  0  0  0  0  0  0  0
  -19.6614  -32.3112  -20.7569 C   0  0  0  0  0  0  0  0  0  0  0  0
  -20.7991  -32.2493  -21.5716 C   0  0  0  0  0  0  0  0  0  0  0  0
  -21.5603  -33.4180  -21.7684 C   0  0  0  0  0  0  0  0  0  0  0  0
  -25.2814  -30.9199  -20.1061 N   0  0  0  0  0  0  0  0  0  0  0  0
  -26.1202  -30.5021  -19.0824 C   0  0  0  0  0  0  0  0  0  0  0  0
  -25.5133  -30.2007  -17.8527 C   0  0  0  0  0  0  0  0  0  0  0  0
  -26.2665  -29.8221  -16.7477 C   0  0  0  0  0  0  0  0  0  0  0  0
  -27.6553  -29.7196  -16.8441 C   0  0  0  0  0  0  0  0  0  0  0  0
  -28.2871  -29.9884  -18.0742 C   0  0  0  0  0  0  0  0  0  0  0  0
  -29.6402  -29.9665  -18.5046 C   0  0  0  0  0  0  0  0  0  0  0  0
  -29.6650  -30.3070  -19.8366 C   0  0  0  0  0  0  0  0  0  0  0  0
  -28.3777  -30.5631  -20.2241 N   0  0  0  0  0  0  0  0  0  0  0  0
  -27.5101  -30.3752  -19.1698 C   0  0  0  0  0  0  0  0  0  0  0  0
  1  2  2  0
  2  3  1  0
  3  4  1  0
  4  5  1  0
  5  6  2  0
  6  7  1  0
  7  8  1  0
  8  9  2  0
  9 10  1  0
 10 11  2  0
 11 12  1  0
 12 13  2  0
  2 14  1  0
 14 15  1  0
 15 16  2  0
 16 17  1  0
 17 18  2  0
 18 19  1  0
 19 20  1  0
 20 21  2  0
 21 22  1  0
 22 23  1  0
 13  5  1  0
 23 15  1  0
 13  8  1  0
 23 19  2  0
M  END
>  <fragmenstein_mode>  (35) 
expansion

>  <name>  (35) 
ZVRPUUGSQSVKAM-UHFFFAOYSA-N

>  <fragmenstein_runtime>  (35) 
2.912954

>  <HIPPO Compound ID>  (35) 
33774

>  <SLURM_JOB_NAME>  (35) 
BulkDock.place:Flavi_NS5_RdRp:RdRp_knitwork_green_site_rna_tunnel_impure_split4000_batch018

>  <ref_mols>  (35) 
z0107a,3vws-b

>  <Multi-SuCOS>  (35) 
0.766384

>  <tags>  (35) 
['Fragmenstein placed', 'RdRp_knitwork_green_site_rna_tunnel_impure_fragalysis.sdf Pose OK']

>  <scratch_subdir>  (35) 
/opt/xchem-fragalysis-2/maxwin/BulkDock/SCRATCH/220469/C33774-P86

>  <energy_score>  (35) 
-30.280971

>  <fragmenstein_error>  (35) 
None

>  <csv_name>  (35) 
RdRp_knitwork_green_site_rna_tunnel_impure_split4000_batch018.csv

>  <merge_set>  (35) 
RdRp_knitwork_green_site_rna_tunnel_impure_fragalysis.sdf

>  <original ID>  (35) 
ZVRPUUGSQSVKAM-UHFFFAOYSA-N

>  <HIPPO Pose ID>  (35) 
163944

>  <fragmenstein_outcome>  (35) 
acceptable

>  <exports>  (35) 
['/opt/xchem-fragalysis-2/maxwin/BulkDock/OUTPUTS/RdRp_knitwork_green_site_rna_tunnel_impure_split4000_batch018_220469.sdf', '/opt/xchem-fragalysis-2/maxwin/BulkDock/OUTPUTS/RdRp_knitwork_green_site_rna_tunnel_impure_fragalysis.sdf']

>  <SLURM_JOB_ID>  (35) 
220469

>  <distance_score>  (35) 
0.652149

>  <original SMILES>  (35) 
O=C(NCc1coc2ccccc12)Nc1cccc2cc[nH]c12

>  <alias>  (35) 
None

>  <ref_pdb>  (35) 
z0107a

>  <inchikey>  (35) 
ZVRPUUGSQSVKAM-UHFFFAOYSA-N

$$$$
UTIPKJNHXGDGDA-KBPBESRZSA-N
     RDKit          3D

 23 25  0  0  0  0  0  0  0  0999 V2000
  -25.6177  -30.9569  -22.7982 O   0  0  0  0  0  0  0  0  0  0  0  0
  -25.3231  -31.3463  -21.7733 C   0  0  0  0  0  0  0  0  0  0  0  0
  -24.2887  -32.4253  -21.3740 N   0  0  0  0  0  0  0  0  0  0  0  0
  -23.3478  -33.1642  -22.1841 C   0  0  0  0  0  0  0  0  0  0  0  0
  -22.2309  -32.2902  -22.7831 C   0  0  2  0  0  0  0  0  0  0  0  0
  -21.4325  -33.0841  -23.6822 O   0  0  0  0  0  0  0  0  0  0  0  0
  -21.3612  -31.6314  -21.7058 C   0  0  0  0  0  0  0  0  0  0  0  0
  -20.7509  -32.6082  -20.8191 N   0  0  0  0  0  0  0  0  0  0  0  0
  -21.0797  -32.8679  -19.5218 C   0  0  0  0  0  0  0  0  0  0  0  0
  -20.2990  -33.9304  -19.1350 C   0  0  0  0  0  0  0  0  0  0  0  0
  -19.5345  -34.2429  -20.2713 C   0  0  0  0  0  0  0  0  0  0  0  0
  -19.8248  -33.4596  -21.3140 N   0  0  0  0  0  0  0  0  0  0  0  0
  -25.8832  -30.9976  -20.3724 N   0  0  0  0  0  0  0  0  0  0  0  0
  -26.9936  -30.1564  -19.9927 C   0  0  1  0  0  0  0  0  0  0  0  0
  -28.2047  -30.4524  -20.8794 C   0  0  0  0  0  0  0  0  0  0  0  0
  -29.4459  -29.7310  -20.3878 C   0  0  0  0  0  0  0  0  0  0  0  0
  -29.7648  -30.1597  -18.9644 C   0  0  0  0  0  0  0  0  0  0  0  0
  -28.5908  -29.9913  -18.0423 C   0  0  0  0  0  0  0  0  0  0  0  0
  -28.7911  -29.8536  -16.6677 C   0  0  0  0  0  0  0  0  0  0  0  0
  -27.6954  -29.8529  -15.8140 C   0  0  0  0  0  0  0  0  0  0  0  0
  -26.4293  -29.9566  -16.3611 C   0  0  0  0  0  0  0  0  0  0  0  0
  -26.1969  -30.0624  -17.6843 N   0  0  0  0  0  0  0  0  0  0  0  0
  -27.2757  -30.1025  -18.5103 C   0  0  0  0  0  0  0  0  0  0  0  0
  1  2  2  0
  2  3  1  0
  3  4  1  0
  4  5  1  0
  5  6  1  6
  5  7  1  0
  7  8  1  0
  8  9  1  0
  9 10  2  0
 10 11  1  0
 11 12  2  0
  2 13  1  0
 14 13  1  1
 14 15  1  0
 15 16  1  0
 16 17  1  0
 17 18  1  0
 18 19  2  0
 19 20  1  0
 20 21  2  0
 21 22  1  0
 22 23  2  0
 12  8  1  0
 23 14  1  0
 23 18  1  0
M  END
>  <fragmenstein_mode>  (36) 
expansion

>  <name>  (36) 
UTIPKJNHXGDGDA-KBPBESRZSA-N

>  <fragmenstein_runtime>  (36) 
23.471485

>  <HIPPO Compound ID>  (36) 
29913

>  <SLURM_JOB_NAME>  (36) 
BulkDock.place:Flavi_NS5_RdRp:RdRp_knitwork_green_site_rna_tunnel_impure_split4000_batch004

>  <ref_mols>  (36) 
z0211a,z0637a

>  <Multi-SuCOS>  (36) 
0.513419

>  <tags>  (36) 
['Fragmenstein placed', 'RdRp_knitwork_green_site_rna_tunnel_impure_fragalysis.sdf Pose OK']

>  <scratch_subdir>  (36) 
/opt/xchem-fragalysis-2/maxwin/BulkDock/SCRATCH/220455/C29913-P102

>  <energy_score>  (36) 
-19.317462

>  <fragmenstein_error>  (36) 
None

>  <csv_name>  (36) 
RdRp_knitwork_green_site_rna_tunnel_impure_split4000_batch004.csv

>  <merge_set>  (36) 
RdRp_knitwork_green_site_rna_tunnel_impure_fragalysis.sdf

>  <original ID>  (36) 
UTIPKJNHXGDGDA-KBPBESRZSA-N

>  <HIPPO Pose ID>  (36) 
164428

>  <fragmenstein_outcome>  (36) 
acceptable

>  <exports>  (36) 
['/opt/xchem-fragalysis-2/maxwin/BulkDock/OUTPUTS/RdRp_knitwork_green_site_rna_tunnel_impure_split4000_batch004_220455.sdf', '/opt/xchem-fragalysis-2/maxwin/BulkDock/OUTPUTS/RdRp_knitwork_green_site_rna_tunnel_impure_fragalysis.sdf']

>  <SLURM_JOB_ID>  (36) 
220455

>  <distance_score>  (36) 
0.55028

>  <original SMILES>  (36) 
O=C(NC[C@H](O)Cn1cccn1)N[C@H]1CCCc2cccnc21

>  <alias>  (36) 
None

>  <ref_pdb>  (36) 
z0211a

>  <inchikey>  (36) 
UTIPKJNHXGDGDA-KBPBESRZSA-N

$$$$
UTIPKJNHXGDGDA-KBPBESRZSA-N
     RDKit          3D

 23 25  0  0  0  0  0  0  0  0999 V2000
  -25.2178  -30.7419  -22.8370 O   0  0  0  0  0  0  0  0  0  0  0  0
  -25.0454  -31.1961  -21.8074 C   0  0  0  0  0  0  0  0  0  0  0  0
  -24.1118  -32.3540  -21.3664 N   0  0  0  0  0  0  0  0  0  0  0  0
  -23.1373  -33.1086  -22.1203 C   0  0  0  0  0  0  0  0  0  0  0  0
  -22.0859  -32.2282  -22.8088 C   0  0  2  0  0  0  0  0  0  0  0  0
  -21.2169  -33.0465  -23.5980 O   0  0  0  0  0  0  0  0  0  0  0  0
  -21.3105  -31.3166  -21.8493 C   0  0  0  0  0  0  0  0  0  0  0  0
  -20.2748  -31.9123  -21.0309 N   0  0  0  0  0  0  0  0  0  0  0  0
  -20.4281  -32.7966  -20.0017 C   0  0  0  0  0  0  0  0  0  0  0  0
  -19.1751  -33.0031  -19.4775 C   0  0  0  0  0  0  0  0  0  0  0  0
  -18.3382  -32.1493  -20.2124 C   0  0  0  0  0  0  0  0  0  0  0  0
  -19.0035  -31.4405  -21.1310 N   0  0  0  0  0  0  0  0  0  0  0  0
  -25.7032  -30.8654  -20.4455 N   0  0  0  0  0  0  0  0  0  0  0  0
  -26.7808  -29.9595  -20.1227 C   0  0  1  0  0  0  0  0  0  0  0  0
  -27.9719  -30.2360  -21.0306 C   0  0  0  0  0  0  0  0  0  0  0  0
  -29.2066  -29.4633  -20.5969 C   0  0  0  0  0  0  0  0  0  0  0  0
  -29.6212  -29.9206  -19.2098 C   0  0  0  0  0  0  0  0  0  0  0  0
  -28.4806  -29.8576  -18.2366 C   0  0  0  0  0  0  0  0  0  0  0  0
  -28.7506  -29.7746  -16.8715 C   0  0  0  0  0  0  0  0  0  0  0  0
  -27.7016  -29.8464  -15.9690 C   0  0  0  0  0  0  0  0  0  0  0  0
  -26.4125  -29.9909  -16.4564 C   0  0  0  0  0  0  0  0  0  0  0  0
  -26.1121  -30.0474  -17.7696 N   0  0  0  0  0  0  0  0  0  0  0  0
  -27.1451  -29.9800  -18.6500 C   0  0  0  0  0  0  0  0  0  0  0  0
  1  2  2  0
  2  3  1  0
  3  4  1  0
  4  5  1  0
  5  6  1  1
  5  7  1  0
  7  8  1  0
  8  9  1  0
  9 10  2  0
 10 11  1  0
 11 12  2  0
  2 13  1  0
 14 13  1  1
 14 15  1  0
 15 16  1  0
 16 17  1  0
 17 18  1  0
 18 19  2  0
 19 20  1  0
 20 21  2  0
 21 22  1  0
 22 23  2  0
 12  8  1  0
 23 14  1  0
 23 18  1  0
M  END
>  <fragmenstein_mode>  (37) 
expansion

>  <name>  (37) 
UTIPKJNHXGDGDA-KBPBESRZSA-N

>  <fragmenstein_runtime>  (37) 
23.993722

>  <HIPPO Compound ID>  (37) 
29913

>  <SLURM_JOB_NAME>  (37) 
BulkDock.place:Flavi_NS5_RdRp:RdRp_knitwork_green_site_rna_tunnel_impure_split4000_batch004

>  <ref_mols>  (37) 
z0211a,z0637a

>  <Multi-SuCOS>  (37) 
0.484604

>  <tags>  (37) 
['Fragmenstein placed', 'RdRp_knitwork_green_site_rna_tunnel_impure_fragalysis.sdf Pose OK']

>  <scratch_subdir>  (37) 
/opt/xchem-fragalysis-2/maxwin/BulkDock/SCRATCH/220455/C29913-P151

>  <energy_score>  (37) 
-14.42983

>  <fragmenstein_error>  (37) 
None

>  <csv_name>  (37) 
RdRp_knitwork_green_site_rna_tunnel_impure_split4000_batch004.csv

>  <merge_set>  (37) 
RdRp_knitwork_green_site_rna_tunnel_impure_fragalysis.sdf

>  <original ID>  (37) 
UTIPKJNHXGDGDA-KBPBESRZSA-N

>  <HIPPO Pose ID>  (37) 
164434

>  <fragmenstein_outcome>  (37) 
acceptable

>  <exports>  (37) 
['/opt/xchem-fragalysis-2/maxwin/BulkDock/OUTPUTS/RdRp_knitwork_green_site_rna_tunnel_impure_split4000_batch004_220455.sdf', '/opt/xchem-fragalysis-2/maxwin/BulkDock/OUTPUTS/RdRp_knitwork_green_site_rna_tunnel_impure_fragalysis.sdf']

>  <SLURM_JOB_ID>  (37) 
220455

>  <distance_score>  (37) 
0.603126

>  <original SMILES>  (37) 
O=C(NC[C@H](O)Cn1cccn1)N[C@H]1CCCc2cccnc21

>  <alias>  (37) 
None

>  <ref_pdb>  (37) 
z0637a

>  <inchikey>  (37) 
UTIPKJNHXGDGDA-KBPBESRZSA-N

$$$$
SMBKODDGONSFPJ-UHFFFAOYSA-N
     RDKit          3D

 10 11  0  0  0  0  0  0  0  0999 V2000
  -29.5119  -30.1053  -19.9138 C   0  0  0  0  0  0  0  0  0  0  0  0
  -28.8774  -29.7774  -21.0823 C   0  0  0  0  0  0  0  0  0  0  0  0
  -27.7032  -29.1191  -20.6619 C   0  0  0  0  0  0  0  0  0  0  0  0
  -26.7123  -28.5573  -21.5837 C   0  0  0  0  0  0  0  0  0  0  0  0
  -25.9896  -27.3960  -21.3894 C   0  0  0  0  0  0  0  0  0  0  0  0
  -25.0300  -27.0691  -22.7781 S   0  0  0  0  0  0  0  0  0  0  0  0
  -25.5834  -28.5331  -23.4834 C   0  0  0  0  0  0  0  0  0  0  0  0
  -26.4849  -29.2024  -22.7933 N   0  0  0  0  0  0  0  0  0  0  0  0
  -27.6242  -29.0453  -19.3259 N   0  0  0  0  0  0  0  0  0  0  0  0
  -28.7671  -29.6835  -18.8582 O   0  0  0  0  0  0  0  0  0  0  0  0
  1  2  2  0
  2  3  1  0
  3  4  1  0
  4  5  2  0
  5  6  1  0
  6  7  1  0
  7  8  2  0
  3  9  2  0
  9 10  1  0
 10  1  1  0
  8  4  1  0
M  END
>  <fragmenstein_mode>  (38) 
expansion

>  <name>  (38) 
SMBKODDGONSFPJ-UHFFFAOYSA-N

>  <fragmenstein_runtime>  (38) 
1.062766

>  <HIPPO Compound ID>  (38) 
8398

>  <SLURM_JOB_NAME>  (38) 
BulkDock.place:Flavi_NS5_RdRp:RdRp_knitwork_green_site_rna_tunnel_impure_split4000_batch005

>  <ref_mols>  (38) 
z0496a,z0637a

>  <Multi-SuCOS>  (38) 
0.828505

>  <tags>  (38) 
['Fragmenstein placed', 'RdRp_knitwork_green_site_rna_tunnel_impure_fragalysis.sdf Pose OK']

>  <scratch_subdir>  (38) 
/opt/xchem-fragalysis-2/maxwin/BulkDock/SCRATCH/220456/C8398-P136

>  <energy_score>  (38) 
-73.248364

>  <fragmenstein_error>  (38) 
None

>  <csv_name>  (38) 
RdRp_knitwork_green_site_rna_tunnel_impure_split4000_batch005.csv

>  <merge_set>  (38) 
RdRp_knitwork_green_site_rna_tunnel_impure_fragalysis.sdf

>  <original ID>  (38) 
SMBKODDGONSFPJ-UHFFFAOYSA-N

>  <HIPPO Pose ID>  (38) 
164587

>  <fragmenstein_outcome>  (38) 
acceptable

>  <exports>  (38) 
['/opt/xchem-fragalysis-2/maxwin/BulkDock/OUTPUTS/RdRp_knitwork_green_site_rna_tunnel_impure_split4000_batch005_220456.sdf', '/opt/xchem-fragalysis-2/maxwin/BulkDock/OUTPUTS/RdRp_knitwork_green_site_rna_tunnel_impure_fragalysis.sdf']

>  <SLURM_JOB_ID>  (38) 
220456

>  <distance_score>  (38) 
0.62738

>  <original SMILES>  (38) 
c1cc(-c2cscn2)no1

>  <alias>  (38) 
None

>  <ref_pdb>  (38) 
z0496a

>  <inchikey>  (38) 
SMBKODDGONSFPJ-UHFFFAOYSA-N

$$$$
VHWIUYXFNZHFHJ-UHFFFAOYSA-N
     RDKit          3D

 10 11  0  0  0  0  0  0  0  0999 V2000
  -25.5970  -28.5327  -23.7110 C   0  0  0  0  0  0  0  0  0  0  0  0
  -25.0022  -27.4108  -23.1761 C   0  0  0  0  0  0  0  0  0  0  0  0
  -25.6199  -27.1223  -21.6020 S   0  0  0  0  0  0  0  0  0  0  0  0
  -26.6132  -28.5233  -21.7515 C   0  0  0  0  0  0  0  0  0  0  0  0
  -27.5630  -29.0325  -20.6190 C   0  0  0  0  0  0  0  0  0  0  0  0
  -27.5556  -28.6243  -19.2600 C   0  0  0  0  0  0  0  0  0  0  0  0
  -28.4298  -29.2103  -18.4429 N   0  0  0  0  0  0  0  0  0  0  0  0
  -29.3463  -30.2708  -19.3439 S   0  0  0  0  0  0  0  0  0  0  0  0
  -28.5465  -29.9744  -20.8282 C   0  0  0  0  0  0  0  0  0  0  0  0
  -26.5414  -29.1474  -22.9082 N   0  0  0  0  0  0  0  0  0  0  0  0
  1  2  2  0
  2  3  1  0
  3  4  1  0
  4  5  1  0
  5  6  1  0
  6  7  2  0
  7  8  1  0
  8  9  1  0
  4 10  2  0
 10  1  1  0
  9  5  2  0
M  END
>  <fragmenstein_mode>  (39) 
expansion

>  <name>  (39) 
VHWIUYXFNZHFHJ-UHFFFAOYSA-N

>  <fragmenstein_runtime>  (39) 
2.773025

>  <HIPPO Compound ID>  (39) 
8532

>  <SLURM_JOB_NAME>  (39) 
BulkDock.place:Flavi_NS5_RdRp:RdRp_knitwork_green_site_rna_tunnel_impure_split4000_batch005

>  <ref_mols>  (39) 
z0496a,z0637a

>  <Multi-SuCOS>  (39) 
0.812312

>  <tags>  (39) 
['Fragmenstein placed', 'RdRp_knitwork_green_site_rna_tunnel_impure_fragalysis.sdf Pose OK']

>  <scratch_subdir>  (39) 
/opt/xchem-fragalysis-2/maxwin/BulkDock/SCRATCH/220456/C8532-P136

>  <energy_score>  (39) 
-108.598994

>  <fragmenstein_error>  (39) 
None

>  <csv_name>  (39) 
RdRp_knitwork_green_site_rna_tunnel_impure_split4000_batch005.csv

>  <merge_set>  (39) 
RdRp_knitwork_green_site_rna_tunnel_impure_fragalysis.sdf

>  <original ID>  (39) 
VHWIUYXFNZHFHJ-UHFFFAOYSA-N

>  <HIPPO Pose ID>  (39) 
164620

>  <fragmenstein_outcome>  (39) 
acceptable

>  <exports>  (39) 
['/opt/xchem-fragalysis-2/maxwin/BulkDock/OUTPUTS/RdRp_knitwork_green_site_rna_tunnel_impure_split4000_batch005_220456.sdf', '/opt/xchem-fragalysis-2/maxwin/BulkDock/OUTPUTS/RdRp_knitwork_green_site_rna_tunnel_impure_fragalysis.sdf']

>  <SLURM_JOB_ID>  (39) 
220456

>  <distance_score>  (39) 
0.989549

>  <original SMILES>  (39) 
c1csc(-c2cnsc2)n1

>  <alias>  (39) 
None

>  <ref_pdb>  (39) 
z0496a

>  <inchikey>  (39) 
VHWIUYXFNZHFHJ-UHFFFAOYSA-N

$$$$
HQOABISPSOZJGF-UHFFFAOYSA-N
     RDKit          3D

 10 11  0  0  0  0  0  0  0  0999 V2000
  -25.6072  -28.4131  -23.5185 C   0  0  0  0  0  0  0  0  0  0  0  0
  -25.0595  -27.3151  -22.8921 C   0  0  0  0  0  0  0  0  0  0  0  0
  -25.7277  -27.1481  -21.3176 S   0  0  0  0  0  0  0  0  0  0  0  0
  -26.7041  -28.5378  -21.6017 C   0  0  0  0  0  0  0  0  0  0  0  0
  -27.7182  -29.1358  -20.5357 C   0  0  0  0  0  0  0  0  0  0  0  0
  -28.7575  -30.0447  -20.9157 C   0  0  0  0  0  0  0  0  0  0  0  0
  -29.4880  -30.4433  -19.8187 C   0  0  0  0  0  0  0  0  0  0  0  0
  -28.7924  -29.7353  -18.4268 S   0  0  0  0  0  0  0  0  0  0  0  0
  -27.6608  -28.8284  -19.2362 N   0  0  0  0  0  0  0  0  0  0  0  0
  -26.5807  -29.0824  -22.7982 N   0  0  0  0  0  0  0  0  0  0  0  0
  1  2  2  0
  2  3  1  0
  3  4  1  0
  4  5  1  0
  5  6  1  0
  6  7  2  0
  7  8  1  0
  8  9  1  0
  4 10  2  0
 10  1  1  0
  9  5  2  0
M  END
>  <fragmenstein_mode>  (40) 
expansion

>  <name>  (40) 
HQOABISPSOZJGF-UHFFFAOYSA-N

>  <fragmenstein_runtime>  (40) 
4.575284

>  <HIPPO Compound ID>  (40) 
8584

>  <SLURM_JOB_NAME>  (40) 
BulkDock.place:Flavi_NS5_RdRp:RdRp_knitwork_green_site_rna_tunnel_impure_split4000_batch005

>  <ref_mols>  (40) 
z0496a,z0637a

>  <Multi-SuCOS>  (40) 
0.817869

>  <tags>  (40) 
['Fragmenstein placed', 'RdRp_knitwork_green_site_rna_tunnel_impure_fragalysis.sdf Pose OK']

>  <scratch_subdir>  (40) 
/opt/xchem-fragalysis-2/maxwin/BulkDock/SCRATCH/220456/C8584-P136

>  <energy_score>  (40) 
-95.855747

>  <fragmenstein_error>  (40) 
None

>  <csv_name>  (40) 
RdRp_knitwork_green_site_rna_tunnel_impure_split4000_batch005.csv

>  <merge_set>  (40) 
RdRp_knitwork_green_site_rna_tunnel_impure_fragalysis.sdf

>  <original ID>  (40) 
HQOABISPSOZJGF-UHFFFAOYSA-N

>  <HIPPO Pose ID>  (40) 
164651

>  <fragmenstein_outcome>  (40) 
acceptable

>  <exports>  (40) 
['/opt/xchem-fragalysis-2/maxwin/BulkDock/OUTPUTS/RdRp_knitwork_green_site_rna_tunnel_impure_split4000_batch005_220456.sdf', '/opt/xchem-fragalysis-2/maxwin/BulkDock/OUTPUTS/RdRp_knitwork_green_site_rna_tunnel_impure_fragalysis.sdf']

>  <SLURM_JOB_ID>  (40) 
220456

>  <distance_score>  (40) 
0.719733

>  <original SMILES>  (40) 
c1csc(-c2ccsn2)n1

>  <alias>  (40) 
None

>  <ref_pdb>  (40) 
z0496a

>  <inchikey>  (40) 
HQOABISPSOZJGF-UHFFFAOYSA-N

$$$$
ZMRZACGVYSJJLD-UHFFFAOYSA-N
     RDKit          3D

 10 11  0  0  0  0  0  0  0  0999 V2000
  -25.6015  -28.4613  -23.5242 C   0  0  0  0  0  0  0  0  0  0  0  0
  -25.0560  -27.3523  -22.9151 C   0  0  0  0  0  0  0  0  0  0  0  0
  -25.7369  -27.1534  -21.3501 S   0  0  0  0  0  0  0  0  0  0  0  0
  -26.7183  -28.5436  -21.6166 C   0  0  0  0  0  0  0  0  0  0  0  0
  -27.7563  -29.0904  -20.5654 C   0  0  0  0  0  0  0  0  0  0  0  0
  -28.7787  -30.0179  -20.8643 C   0  0  0  0  0  0  0  0  0  0  0  0
  -29.4352  -30.1943  -19.6768 C   0  0  0  0  0  0  0  0  0  0  0  0
  -28.8323  -29.4520  -18.7136 O   0  0  0  0  0  0  0  0  0  0  0  0
  -27.7884  -28.7281  -19.2745 N   0  0  0  0  0  0  0  0  0  0  0  0
  -26.5781  -29.1186  -22.7965 N   0  0  0  0  0  0  0  0  0  0  0  0
  1  2  2  0
  2  3  1  0
  3  4  1  0
  4  5  1  0
  5  6  1  0
  6  7  2  0
  7  8  1  0
  8  9  1  0
  4 10  2  0
 10  1  1  0
  9  5  2  0
M  END
>  <fragmenstein_mode>  (41) 
expansion

>  <name>  (41) 
ZMRZACGVYSJJLD-UHFFFAOYSA-N

>  <fragmenstein_runtime>  (41) 
4.127671

>  <HIPPO Compound ID>  (41) 
8723

>  <SLURM_JOB_NAME>  (41) 
BulkDock.place:Flavi_NS5_RdRp:RdRp_knitwork_green_site_rna_tunnel_impure_split4000_batch005

>  <ref_mols>  (41) 
z0496a,z0637a

>  <Multi-SuCOS>  (41) 
0.81096

>  <tags>  (41) 
['Fragmenstein placed', 'RdRp_knitwork_green_site_rna_tunnel_impure_fragalysis.sdf Pose OK']

>  <scratch_subdir>  (41) 
/opt/xchem-fragalysis-2/maxwin/BulkDock/SCRATCH/220456/C8723-P136

>  <energy_score>  (41) 
-87.708648

>  <fragmenstein_error>  (41) 
None

>  <csv_name>  (41) 
RdRp_knitwork_green_site_rna_tunnel_impure_split4000_batch005.csv

>  <merge_set>  (41) 
RdRp_knitwork_green_site_rna_tunnel_impure_fragalysis.sdf

>  <original ID>  (41) 
ZMRZACGVYSJJLD-UHFFFAOYSA-N

>  <HIPPO Pose ID>  (41) 
164675

>  <fragmenstein_outcome>  (41) 
acceptable

>  <exports>  (41) 
['/opt/xchem-fragalysis-2/maxwin/BulkDock/OUTPUTS/RdRp_knitwork_green_site_rna_tunnel_impure_split4000_batch005_220456.sdf', '/opt/xchem-fragalysis-2/maxwin/BulkDock/OUTPUTS/RdRp_knitwork_green_site_rna_tunnel_impure_fragalysis.sdf']

>  <SLURM_JOB_ID>  (41) 
220456

>  <distance_score>  (41) 
0.76819

>  <original SMILES>  (41) 
c1csc(-c2ccon2)n1

>  <alias>  (41) 
None

>  <ref_pdb>  (41) 
z0496a

>  <inchikey>  (41) 
ZMRZACGVYSJJLD-UHFFFAOYSA-N

$$$$
WPVLUPCYWVEBMJ-XMMPIXPASA-N
     RDKit          3D

 32 35  0  0  0  0  0  0  0  0999 V2000
  -28.2605  -29.7194  -15.4300 C   0  0  0  0  0  0  0  0  0  0  0  0
  -28.0886  -29.7476  -16.9156 C   0  0  0  0  0  0  0  0  0  0  0  0
  -26.8510  -30.0351  -17.4708 C   0  0  0  0  0  0  0  0  0  0  0  0
  -26.8172  -30.2507  -18.8388 C   0  0  0  0  0  0  0  0  0  0  0  0
  -25.8122  -30.9834  -19.4479 N   0  0  0  0  0  0  0  0  0  0  0  0
  -24.4629  -31.4558  -18.9101 C   0  0  0  0  0  0  0  0  0  0  0  0
  -23.9432  -31.2440  -17.9001 O   0  0  0  0  0  0  0  0  0  0  0  0
  -23.9936  -32.3992  -20.0421 C   0  0  0  0  0  0  0  0  0  0  0  0
  -23.8252  -33.5299  -19.8354 O   0  0  0  0  0  0  0  0  0  0  0  0
  -23.9241  -31.6000  -21.3668 N   0  0  0  0  0  0  0  0  0  0  0  0
  -23.7244  -32.0532  -22.7311 C   0  0  0  0  0  0  0  0  0  0  0  0
  -23.7392  -33.5778  -23.0145 C   0  0  2  0  0  0  0  0  0  0  0  0
  -22.7693  -34.4968  -22.2568 C   0  0  0  0  0  0  0  0  0  0  0  0
  -23.2391  -35.8291  -22.1362 C   0  0  0  0  0  0  0  0  0  0  0  0
  -22.6640  -36.7220  -21.2536 C   0  0  0  0  0  0  0  0  0  0  0  0
  -21.6026  -36.3011  -20.4639 C   0  0  0  0  0  0  0  0  0  0  0  0
  -21.0464  -35.0221  -20.6082 C   0  0  0  0  0  0  0  0  0  0  0  0
  -19.9454  -34.6696  -19.8083 C   0  0  0  0  0  0  0  0  0  0  0  0
  -19.3372  -33.4236  -19.9207 C   0  0  0  0  0  0  0  0  0  0  0  0
  -19.8125  -32.5210  -20.8546 C   0  0  0  0  0  0  0  0  0  0  0  0
  -20.8954  -32.8658  -21.6689 C   0  0  0  0  0  0  0  0  0  0  0  0
  -21.5831  -34.1032  -21.5504 C   0  0  0  0  0  0  0  0  0  0  0  0
  -23.7812  -33.9546  -24.4557 N   0  0  0  0  0  0  0  0  0  0  0  0
  -25.0201  -33.5722  -25.1204 C   0  0  0  0  0  0  0  0  0  0  0  0
  -22.6125  -33.5043  -25.2019 C   0  0  0  0  0  0  0  0  0  0  0  0
  -27.9411  -30.0228  -19.6467 C   0  0  0  0  0  0  0  0  0  0  0  0
  -27.8946  -30.0592  -21.0619 C   0  0  0  0  0  0  0  0  0  0  0  0
  -29.0436  -29.9154  -21.8118 C   0  0  0  0  0  0  0  0  0  0  0  0
  -30.2572  -29.8134  -21.1641 C   0  0  0  0  0  0  0  0  0  0  0  0
  -30.2947  -29.7688  -19.7695 C   0  0  0  0  0  0  0  0  0  0  0  0
  -29.1492  -29.8000  -18.9888 C   0  0  0  0  0  0  0  0  0  0  0  0
  -29.2258  -29.6619  -17.6521 N   0  0  0  0  0  0  0  0  0  0  0  0
  1  2  1  0
  2  3  2  0
  3  4  1  0
  4  5  1  0
  5  6  1  0
  6  7  2  0
  6  8  1  0
  8  9  2  0
  8 10  1  0
 10 11  1  0
 12 11  1  6
 12 13  1  0
 13 14  2  0
 14 15  1  0
 15 16  2  0
 16 17  1  0
 17 18  2  0
 18 19  1  0
 19 20  2  0
 20 21  1  0
 21 22  2  0
 12 23  1  0
 23 24  1  0
 23 25  1  0
  4 26  2  0
 26 27  1  0
 27 28  2  0
 28 29  1  0
 29 30  2  0
 30 31  1  0
 31 32  2  0
 32  2  1  0
 22 13  1  0
 31 26  1  0
 22 17  1  0
M  END
>  <fragmenstein_mode>  (42) 
expansion

>  <name>  (42) 
WPVLUPCYWVEBMJ-XMMPIXPASA-N

>  <fragmenstein_runtime>  (42) 
10.012686

>  <HIPPO Compound ID>  (42) 
43068

>  <SLURM_JOB_NAME>  (42) 
BulkDock.place:Flavi_NS5_RdRp:RdRp_knitwork_green_site_rna_tunnel_impure_split4000_batch014

>  <ref_mols>  (42) 
z0881a,3vws-b

>  <Multi-SuCOS>  (42) 
0.528477

>  <tags>  (42) 
['Fragmenstein placed', 'RdRp_knitwork_green_site_rna_tunnel_impure_fragalysis.sdf Pose OK']

>  <scratch_subdir>  (42) 
/opt/xchem-fragalysis-2/maxwin/BulkDock/SCRATCH/220465/C43068-P173

>  <energy_score>  (42) 
-26.961184

>  <fragmenstein_error>  (42) 
None

>  <csv_name>  (42) 
RdRp_knitwork_green_site_rna_tunnel_impure_split4000_batch014.csv

>  <merge_set>  (42) 
RdRp_knitwork_green_site_rna_tunnel_impure_fragalysis.sdf

>  <original ID>  (42) 
WPVLUPCYWVEBMJ-XMMPIXPASA-N

>  <HIPPO Pose ID>  (42) 
164805

>  <fragmenstein_outcome>  (42) 
acceptable

>  <exports>  (42) 
['/opt/xchem-fragalysis-2/maxwin/BulkDock/OUTPUTS/RdRp_knitwork_green_site_rna_tunnel_impure_split4000_batch014_220465.sdf', '/opt/xchem-fragalysis-2/maxwin/BulkDock/OUTPUTS/RdRp_knitwork_green_site_rna_tunnel_impure_fragalysis.sdf']

>  <SLURM_JOB_ID>  (42) 
220465

>  <distance_score>  (42) 
0.814319

>  <original SMILES>  (42) 
Cc1cc(NC(=O)C(=O)NC[C@H](c2cccc3ccccc23)N(C)C)c2ccccc2n1

>  <alias>  (42) 
None

>  <ref_pdb>  (42) 
z0881a

>  <inchikey>  (42) 
WPVLUPCYWVEBMJ-XMMPIXPASA-N

$$$$
AXERFVXKLSNXGR-UHFFFAOYSA-N
     RDKit          3D

 23 26  0  0  0  0  0  0  0  0999 V2000
  -30.2035  -29.8469  -20.1286 C   0  0  0  0  0  0  0  0  0  0  0  0
  -28.7234  -30.0786  -20.2336 C   0  0  0  0  0  0  0  0  0  0  0  0
  -28.2161  -30.3743  -21.4978 C   0  0  0  0  0  0  0  0  0  0  0  0
  -26.9338  -30.8900  -21.6390 C   0  0  0  0  0  0  0  0  0  0  0  0
  -26.1216  -31.0798  -20.5248 C   0  0  0  0  0  0  0  0  0  0  0  0
  -24.9698  -31.8840  -20.6644 N   0  0  0  0  0  0  0  0  0  0  0  0
  -24.5244  -32.8155  -21.8262 C   0  0  0  0  0  0  0  0  0  0  0  0
  -25.0047  -32.9992  -22.8765 O   0  0  0  0  0  0  0  0  0  0  0  0
  -23.3710  -33.6249  -21.4347 C   0  0  0  0  0  0  0  0  0  0  0  0
  -23.3261  -35.0010  -21.5835 C   0  0  0  0  0  0  0  0  0  0  0  0
  -22.1508  -35.5111  -21.1360 O   0  0  0  0  0  0  0  0  0  0  0  0
  -21.3996  -34.4548  -20.7259 C   0  0  0  0  0  0  0  0  0  0  0  0
  -20.1084  -34.5399  -20.2040 C   0  0  0  0  0  0  0  0  0  0  0  0
  -19.4652  -33.3340  -19.9153 C   0  0  0  0  0  0  0  0  0  0  0  0
  -20.1135  -32.1156  -20.1143 C   0  0  0  0  0  0  0  0  0  0  0  0
  -21.4285  -32.0667  -20.6005 C   0  0  0  0  0  0  0  0  0  0  0  0
  -22.0919  -33.2631  -20.9176 C   0  0  0  0  0  0  0  0  0  0  0  0
  -26.5482  -30.5655  -19.2702 C   0  0  0  0  0  0  0  0  0  0  0  0
  -25.7375  -30.5393  -18.1153 C   0  0  0  0  0  0  0  0  0  0  0  0
  -26.2446  -30.0943  -16.8985 C   0  0  0  0  0  0  0  0  0  0  0  0
  -27.5608  -29.6909  -16.8543 C   0  0  0  0  0  0  0  0  0  0  0  0
  -28.3723  -29.6790  -17.9301 N   0  0  0  0  0  0  0  0  0  0  0  0
  -27.8843  -30.0899  -19.1201 C   0  0  0  0  0  0  0  0  0  0  0  0
  1  2  1  0
  2  3  2  0
  3  4  1  0
  4  5  2  0
  5  6  1  0
  6  7  1  0
  7  8  2  0
  7  9  1  0
  9 10  2  0
 10 11  1  0
 11 12  1  0
 12 13  2  0
 13 14  1  0
 14 15  2  0
 15 16  1  0
 16 17  2  0
  5 18  1  0
 18 19  2  0
 19 20  1  0
 20 21  2  0
 21 22  1  0
 22 23  2  0
 23  2  1  0
 17  9  1  0
 23 18  1  0
 17 12  1  0
M  END
>  <fragmenstein_mode>  (43) 
expansion

>  <name>  (43) 
AXERFVXKLSNXGR-UHFFFAOYSA-N

>  <fragmenstein_runtime>  (43) 
2.598896

>  <HIPPO Compound ID>  (43) 
28098

>  <SLURM_JOB_NAME>  (43) 
BulkDock.place:Flavi_NS5_RdRp:RdRp_knitwork_green_site_rna_tunnel_impure_split4000_batch014

>  <ref_mols>  (43) 
z0881a,3vws-b

>  <Multi-SuCOS>  (43) 
0.602828

>  <tags>  (43) 
['Fragmenstein placed', 'RdRp_knitwork_green_site_rna_tunnel_impure_fragalysis.sdf Pose OK']

>  <scratch_subdir>  (43) 
/opt/xchem-fragalysis-2/maxwin/BulkDock/SCRATCH/220465/C28098-P173

>  <energy_score>  (43) 
-43.227844

>  <fragmenstein_error>  (43) 
None

>  <csv_name>  (43) 
RdRp_knitwork_green_site_rna_tunnel_impure_split4000_batch014.csv

>  <merge_set>  (43) 
RdRp_knitwork_green_site_rna_tunnel_impure_fragalysis.sdf

>  <original ID>  (43) 
AXERFVXKLSNXGR-UHFFFAOYSA-N

>  <HIPPO Pose ID>  (43) 
165066

>  <fragmenstein_outcome>  (43) 
acceptable

>  <exports>  (43) 
['/opt/xchem-fragalysis-2/maxwin/BulkDock/OUTPUTS/RdRp_knitwork_green_site_rna_tunnel_impure_split4000_batch014_220465.sdf', '/opt/xchem-fragalysis-2/maxwin/BulkDock/OUTPUTS/RdRp_knitwork_green_site_rna_tunnel_impure_fragalysis.sdf']

>  <SLURM_JOB_ID>  (43) 
220465

>  <distance_score>  (43) 
0.857801

>  <original SMILES>  (43) 
Cc1ccc(NC(=O)c2coc3ccccc23)c2cccnc12

>  <alias>  (43) 
None

>  <ref_pdb>  (43) 
z0881a

>  <inchikey>  (43) 
AXERFVXKLSNXGR-UHFFFAOYSA-N

$$$$
CKOCSKQLEOIAOS-UHFFFAOYSA-N
     RDKit          3D

 27 30  0  0  0  0  0  0  0  0999 V2000
  -23.1269  -37.9826  -21.8390 C   0  0  0  0  0  0  0  0  0  0  0  0
  -22.7461  -36.5353  -21.7788 C   0  0  0  0  0  0  0  0  0  0  0  0
  -23.2123  -35.6588  -22.7389 C   0  0  0  0  0  0  0  0  0  0  0  0
  -22.7081  -34.3537  -22.7802 C   0  0  0  0  0  0  0  0  0  0  0  0
  -23.1900  -33.4568  -23.8904 C   0  0  0  0  0  0  0  0  0  0  0  0
  -23.8887  -32.3369  -23.3530 N   0  0  0  0  0  0  0  0  0  0  0  0
  -25.2413  -32.2629  -22.5894 C   0  0  0  0  0  0  0  0  0  0  0  0
  -26.0236  -33.0975  -22.3535 O   0  0  0  0  0  0  0  0  0  0  0  0
  -25.3575  -30.8126  -22.1088 C   0  0  0  0  0  0  0  0  0  0  0  0
  -25.8251  -30.6522  -20.7853 O   0  0  0  0  0  0  0  0  0  0  0  0
  -27.1309  -30.3407  -20.5339 C   0  0  0  0  0  0  0  0  0  0  0  0
  -28.1219  -30.2306  -21.5084 C   0  0  0  0  0  0  0  0  0  0  0  0
  -29.4441  -29.9891  -21.1495 C   0  0  0  0  0  0  0  0  0  0  0  0
  -29.7835  -29.8469  -19.8106 C   0  0  0  0  0  0  0  0  0  0  0  0
  -28.7979  -29.8717  -18.8165 C   0  0  0  0  0  0  0  0  0  0  0  0
  -29.1363  -29.6663  -17.4689 C   0  0  0  0  0  0  0  0  0  0  0  0
  -28.1592  -29.6769  -16.4737 C   0  0  0  0  0  0  0  0  0  0  0  0
  -26.8295  -29.8988  -16.8114 C   0  0  0  0  0  0  0  0  0  0  0  0
  -26.4802  -30.1178  -18.1450 C   0  0  0  0  0  0  0  0  0  0  0  0
  -27.4509  -30.1129  -19.1735 C   0  0  0  0  0  0  0  0  0  0  0  0
  -21.7565  -33.9474  -21.8061 C   0  0  0  0  0  0  0  0  0  0  0  0
  -21.1598  -32.6613  -21.7468 C   0  0  0  0  0  0  0  0  0  0  0  0
  -20.2136  -32.3393  -20.7744 C   0  0  0  0  0  0  0  0  0  0  0  0
  -19.8314  -33.3005  -19.8529 C   0  0  0  0  0  0  0  0  0  0  0  0
  -20.4129  -34.5693  -19.9006 C   0  0  0  0  0  0  0  0  0  0  0  0
  -21.3669  -34.9120  -20.8512 C   0  0  0  0  0  0  0  0  0  0  0  0
  -21.8311  -36.1733  -20.8531 N   0  0  0  0  0  0  0  0  0  0  0  0
  1  2  1  0
  2  3  2  0
  3  4  1  0
  4  5  1  0
  5  6  1  0
  6  7  1  0
  7  8  2  0
  7  9  1  0
  9 10  1  0
 10 11  1  0
 11 12  2  0
 12 13  1  0
 13 14  2  0
 14 15  1  0
 15 16  2  0
 16 17  1  0
 17 18  2  0
 18 19  1  0
 19 20  2  0
  4 21  2  0
 21 22  1  0
 22 23  2  0
 23 24  1  0
 24 25  2  0
 25 26  1  0
 26 27  2  0
 27  2  1  0
 20 11  1  0
 26 21  1  0
 20 15  1  0
M  END
>  <fragmenstein_mode>  (44) 
expansion

>  <name>  (44) 
CKOCSKQLEOIAOS-UHFFFAOYSA-N

>  <fragmenstein_runtime>  (44) 
7.606807

>  <HIPPO Compound ID>  (44) 
46954

>  <SLURM_JOB_NAME>  (44) 
BulkDock.place:Flavi_NS5_RdRp:RdRp_knitwork_green_site_rna_tunnel_impure_split4000_batch014

>  <ref_mols>  (44) 
z0881a,3vws-b

>  <Multi-SuCOS>  (44) 
0.652431

>  <tags>  (44) 
['Fragmenstein placed', 'RdRp_knitwork_green_site_rna_tunnel_impure_fragalysis.sdf Pose OK']

>  <scratch_subdir>  (44) 
/opt/xchem-fragalysis-2/maxwin/BulkDock/SCRATCH/220465/C46954-P173

>  <energy_score>  (44) 
-19.317003

>  <fragmenstein_error>  (44) 
None

>  <csv_name>  (44) 
RdRp_knitwork_green_site_rna_tunnel_impure_split4000_batch014.csv

>  <merge_set>  (44) 
RdRp_knitwork_green_site_rna_tunnel_impure_fragalysis.sdf

>  <original ID>  (44) 
CKOCSKQLEOIAOS-UHFFFAOYSA-N

>  <HIPPO Pose ID>  (44) 
165484

>  <fragmenstein_outcome>  (44) 
acceptable

>  <exports>  (44) 
['/opt/xchem-fragalysis-2/maxwin/BulkDock/OUTPUTS/RdRp_knitwork_green_site_rna_tunnel_impure_split4000_batch014_220465.sdf', '/opt/xchem-fragalysis-2/maxwin/BulkDock/OUTPUTS/RdRp_knitwork_green_site_rna_tunnel_impure_fragalysis.sdf']

>  <SLURM_JOB_ID>  (44) 
220465

>  <distance_score>  (44) 
0.715162

>  <original SMILES>  (44) 
Cc1cc(CNC(=O)COc2cccc3ccccc23)c2ccccc2n1

>  <alias>  (44) 
None

>  <ref_pdb>  (44) 
z0881a

>  <inchikey>  (44) 
CKOCSKQLEOIAOS-UHFFFAOYSA-N

$$$$
PGVYGILCFWWCGJ-CPCISQLKSA-N
     RDKit          3D

 20 21  0  0  0  0  0  0  0  0999 V2000
  -23.5527  -34.3193  -23.2808 C   0  0  0  0  0  0  0  0  0  0  0  0
  -22.8054  -33.3831  -22.3297 C   0  0  2  0  0  0  0  0  0  0  0  0
  -23.7410  -32.6704  -21.4742 N   0  0  0  0  0  0  0  0  0  0  0  0
  -25.0952  -31.9901  -21.8127 C   0  0  0  0  0  0  0  0  0  0  0  0
  -25.6841  -31.9676  -22.7882 O   0  0  0  0  0  0  0  0  0  0  0  0
  -25.4137  -31.3478  -20.4311 N   0  0  0  0  0  0  0  0  0  0  0  0
  -26.5421  -30.6560  -19.9969 C   0  0  0  0  0  0  0  0  0  0  0  0
  -27.6335  -30.4205  -20.8416 C   0  0  0  0  0  0  0  0  0  0  0  0
  -28.8276  -29.8999  -20.3428 C   0  0  0  0  0  0  0  0  0  0  0  0
  -28.9571  -29.5780  -18.9915 C   0  0  0  0  0  0  0  0  0  0  0  0
  -27.8248  -29.7108  -18.1821 C   0  0  0  0  0  0  0  0  0  0  0  0
  -27.6458  -29.4215  -16.8494 N   0  0  0  0  0  0  0  0  0  0  0  0
  -26.3718  -29.7332  -16.4594 C   0  0  0  0  0  0  0  0  0  0  0  0
  -25.7139  -30.2496  -17.5503 C   0  0  0  0  0  0  0  0  0  0  0  0
  -26.6206  -30.2409  -18.6502 C   0  0  0  0  0  0  0  0  0  0  0  0
  -21.8991  -32.3772  -23.0748 C   0  0  2  0  0  0  0  0  0  0  0  0
  -21.2285  -33.0150  -24.1724 O   0  0  0  0  0  0  0  0  0  0  0  0
  -20.8835  -31.7742  -22.0947 C   0  0  0  0  0  0  0  0  0  0  0  0
  -20.1037  -32.7534  -21.5555 F   0  0  0  0  0  0  0  0  0  0  0  0
  -21.5031  -31.1787  -21.0436 F   0  0  0  0  0  0  0  0  0  0  0  0
  2  1  1  6
  2  3  1  0
  3  4  1  0
  4  5  2  0
  4  6  1  0
  6  7  1  0
  7  8  2  0
  8  9  1  0
  9 10  2  0
 10 11  1  0
 11 12  1  0
 12 13  1  0
 13 14  2  0
 14 15  1  0
  2 16  1  0
 16 17  1  6
 16 18  1  0
 18 19  1  0
 18 20  1  0
 15  7  1  0
 15 11  2  0
M  END
>  <fragmenstein_mode>  (45) 
expansion

>  <name>  (45) 
PGVYGILCFWWCGJ-CPCISQLKSA-N

>  <fragmenstein_runtime>  (45) 
4.110196

>  <HIPPO Compound ID>  (45) 
43135

>  <SLURM_JOB_NAME>  (45) 
BulkDock.place:Flavi_NS5_RdRp:RdRp_knitwork_green_site_rna_tunnel_impure_split4000_batch016

>  <ref_mols>  (45) 
z0041a,z0211a

>  <Multi-SuCOS>  (45) 
0.593903

>  <tags>  (45) 
['Fragmenstein placed', 'RdRp_knitwork_green_site_rna_tunnel_impure_fragalysis.sdf Pose OK']

>  <scratch_subdir>  (45) 
/opt/xchem-fragalysis-2/maxwin/BulkDock/SCRATCH/220467/C43135-P82

>  <energy_score>  (45) 
-18.553471

>  <fragmenstein_error>  (45) 
None

>  <csv_name>  (45) 
RdRp_knitwork_green_site_rna_tunnel_impure_split4000_batch016.csv

>  <merge_set>  (45) 
RdRp_knitwork_green_site_rna_tunnel_impure_fragalysis.sdf

>  <original ID>  (45) 
PGVYGILCFWWCGJ-CPCISQLKSA-N

>  <HIPPO Pose ID>  (45) 
165490

>  <fragmenstein_outcome>  (45) 
acceptable

>  <exports>  (45) 
['/opt/xchem-fragalysis-2/maxwin/BulkDock/OUTPUTS/RdRp_knitwork_green_site_rna_tunnel_impure_split4000_batch016_220467.sdf', '/opt/xchem-fragalysis-2/maxwin/BulkDock/OUTPUTS/RdRp_knitwork_green_site_rna_tunnel_impure_fragalysis.sdf']

>  <SLURM_JOB_ID>  (45) 
220467

>  <distance_score>  (45) 
0.85492

>  <original SMILES>  (45) 
C[C@H](NC(=O)Nc1cccc2[nH]ccc12)[C@H](O)C(F)F

>  <alias>  (45) 
None

>  <ref_pdb>  (45) 
z0041a

>  <inchikey>  (45) 
PGVYGILCFWWCGJ-CPCISQLKSA-N

$$$$
PGVYGILCFWWCGJ-CPCISQLKSA-N
     RDKit          3D

 20 21  0  0  0  0  0  0  0  0999 V2000
  -23.2604  -34.3576  -22.6661 C   0  0  0  0  0  0  0  0  0  0  0  0
  -22.5761  -33.1724  -21.9829 C   0  0  2  0  0  0  0  0  0  0  0  0
  -23.5400  -32.4217  -21.2011 N   0  0  0  0  0  0  0  0  0  0  0  0
  -24.9342  -31.8619  -21.5928 C   0  0  0  0  0  0  0  0  0  0  0  0
  -25.5325  -31.9845  -22.5540 O   0  0  0  0  0  0  0  0  0  0  0  0
  -25.3168  -31.1726  -20.2535 N   0  0  0  0  0  0  0  0  0  0  0  0
  -26.5197  -30.6058  -19.8434 C   0  0  0  0  0  0  0  0  0  0  0  0
  -27.6363  -30.5379  -20.6877 C   0  0  0  0  0  0  0  0  0  0  0  0
  -28.8812  -30.1430  -20.1977 C   0  0  0  0  0  0  0  0  0  0  0  0
  -29.0512  -29.8237  -18.8506 C   0  0  0  0  0  0  0  0  0  0  0  0
  -27.9152  -29.8283  -18.0359 C   0  0  0  0  0  0  0  0  0  0  0  0
  -27.7899  -29.5941  -16.6875 N   0  0  0  0  0  0  0  0  0  0  0  0
  -26.4916  -29.7663  -16.2903 C   0  0  0  0  0  0  0  0  0  0  0  0
  -25.7542  -30.1081  -17.3981 C   0  0  0  0  0  0  0  0  0  0  0  0
  -26.6492  -30.1835  -18.5055 C   0  0  0  0  0  0  0  0  0  0  0  0
  -21.8615  -32.2421  -22.9879 C   0  0  2  0  0  0  0  0  0  0  0  0
  -21.2201  -32.9958  -24.0396 O   0  0  0  0  0  0  0  0  0  0  0  0
  -20.8112  -31.4046  -22.2588 C   0  0  0  0  0  0  0  0  0  0  0  0
  -19.8091  -32.2362  -21.8434 F   0  0  0  0  0  0  0  0  0  0  0  0
  -21.2889  -30.8130  -21.1434 F   0  0  0  0  0  0  0  0  0  0  0  0
  2  1  1  6
  2  3  1  0
  3  4  1  0
  4  5  2  0
  4  6  1  0
  6  7  1  0
  7  8  2  0
  8  9  1  0
  9 10  2  0
 10 11  1  0
 11 12  1  0
 12 13  1  0
 13 14  2  0
 14 15  1  0
  2 16  1  0
 16 17  1  6
 16 18  1  0
 18 19  1  0
 18 20  1  0
 15  7  1  0
 15 11  2  0
M  END
>  <fragmenstein_mode>  (46) 
expansion

>  <name>  (46) 
PGVYGILCFWWCGJ-CPCISQLKSA-N

>  <fragmenstein_runtime>  (46) 
4.481055

>  <HIPPO Compound ID>  (46) 
43135

>  <SLURM_JOB_NAME>  (46) 
BulkDock.place:Flavi_NS5_RdRp:RdRp_knitwork_green_site_rna_tunnel_impure_split4000_batch016

>  <ref_mols>  (46) 
z0041a,z0211a

>  <Multi-SuCOS>  (46) 
0.582379

>  <tags>  (46) 
['Fragmenstein placed', 'RdRp_knitwork_green_site_rna_tunnel_impure_fragalysis.sdf Pose OK']

>  <scratch_subdir>  (46) 
/opt/xchem-fragalysis-2/maxwin/BulkDock/SCRATCH/220467/C43135-P102

>  <energy_score>  (46) 
-20.030516

>  <fragmenstein_error>  (46) 
None

>  <csv_name>  (46) 
RdRp_knitwork_green_site_rna_tunnel_impure_split4000_batch016.csv

>  <merge_set>  (46) 
RdRp_knitwork_green_site_rna_tunnel_impure_fragalysis.sdf

>  <original ID>  (46) 
PGVYGILCFWWCGJ-CPCISQLKSA-N

>  <HIPPO Pose ID>  (46) 
165517

>  <fragmenstein_outcome>  (46) 
acceptable

>  <exports>  (46) 
['/opt/xchem-fragalysis-2/maxwin/BulkDock/OUTPUTS/RdRp_knitwork_green_site_rna_tunnel_impure_split4000_batch016_220467.sdf', '/opt/xchem-fragalysis-2/maxwin/BulkDock/OUTPUTS/RdRp_knitwork_green_site_rna_tunnel_impure_fragalysis.sdf']

>  <SLURM_JOB_ID>  (46) 
220467

>  <distance_score>  (46) 
0.875778

>  <original SMILES>  (46) 
C[C@H](NC(=O)Nc1cccc2[nH]ccc12)[C@H](O)C(F)F

>  <alias>  (46) 
None

>  <ref_pdb>  (46) 
z0211a

>  <inchikey>  (46) 
PGVYGILCFWWCGJ-CPCISQLKSA-N

$$$$
UCXOUSGPQWXLPI-SNVBAGLBSA-N
     RDKit          3D

 22 23  0  0  0  0  0  0  0  0999 V2000
  -24.5412  -35.1141  -24.0758 C   0  0  0  0  0  0  0  0  0  0  0  0
  -24.2366  -33.6561  -25.1024 S   0  0  0  0  0  0  0  0  0  0  0  0
  -22.4295  -33.7780  -25.2849 C   0  0  0  0  0  0  0  0  0  0  0  0
  -21.5889  -33.5741  -24.0184 C   0  0  0  0  0  0  0  0  0  0  0  0
  -21.5004  -32.1552  -23.4717 C   0  0  2  0  0  0  0  0  0  0  0  0
  -20.4903  -32.0771  -22.3030 C   0  0  0  0  0  0  0  0  0  0  0  0
  -19.9033  -30.7690  -22.2347 O   0  0  0  0  0  0  0  0  0  0  0  0
  -22.7955  -31.6731  -23.0710 N   0  0  0  0  0  0  0  0  0  0  0  0
  -23.6449  -32.0072  -21.8420 C   0  0  0  0  0  0  0  0  0  0  0  0
  -23.4038  -32.6669  -20.9157 O   0  0  0  0  0  0  0  0  0  0  0  0
  -24.9961  -31.2546  -21.9246 C   0  0  0  0  0  0  0  0  0  0  0  0
  -25.4525  -30.9195  -22.9413 O   0  0  0  0  0  0  0  0  0  0  0  0
  -25.5483  -31.1323  -20.4958 N   0  0  0  0  0  0  0  0  0  0  0  0
  -26.6935  -30.5104  -20.0229 C   0  0  0  0  0  0  0  0  0  0  0  0
  -27.7810  -30.2399  -20.8591 C   0  0  0  0  0  0  0  0  0  0  0  0
  -28.9895  -29.7975  -20.3236 C   0  0  0  0  0  0  0  0  0  0  0  0
  -29.1243  -29.5655  -18.9526 C   0  0  0  0  0  0  0  0  0  0  0  0
  -27.9851  -29.7031  -18.1543 C   0  0  0  0  0  0  0  0  0  0  0  0
  -27.7966  -29.4551  -16.8144 N   0  0  0  0  0  0  0  0  0  0  0  0
  -26.5107  -29.7535  -16.4495 C   0  0  0  0  0  0  0  0  0  0  0  0
  -25.8585  -30.2286  -17.5626 C   0  0  0  0  0  0  0  0  0  0  0  0
  -26.7772  -30.1905  -18.6522 C   0  0  0  0  0  0  0  0  0  0  0  0
  1  2  1  0
  2  3  1  0
  3  4  1  0
  5  4  1  1
  5  6  1  0
  6  7  1  0
  5  8  1  0
  8  9  1  0
  9 10  2  0
  9 11  1  0
 11 12  2  0
 11 13  1  0
 13 14  1  0
 14 15  2  0
 15 16  1  0
 16 17  2  0
 17 18  1  0
 18 19  1  0
 19 20  1  0
 20 21  2  0
 21 22  1  0
 22 14  1  0
 22 18  2  0
M  END
>  <fragmenstein_mode>  (47) 
expansion

>  <name>  (47) 
UCXOUSGPQWXLPI-SNVBAGLBSA-N

>  <fragmenstein_runtime>  (47) 
12.03959

>  <HIPPO Compound ID>  (47) 
43304

>  <SLURM_JOB_NAME>  (47) 
BulkDock.place:Flavi_NS5_RdRp:RdRp_knitwork_green_site_rna_tunnel_impure_split4000_batch016

>  <ref_mols>  (47) 
z0041a,z0211a

>  <Multi-SuCOS>  (47) 
0.518908

>  <tags>  (47) 
['Fragmenstein placed', 'RdRp_knitwork_green_site_rna_tunnel_impure_fragalysis.sdf Pose OK']

>  <scratch_subdir>  (47) 
/opt/xchem-fragalysis-2/maxwin/BulkDock/SCRATCH/220467/C43304-P82

>  <energy_score>  (47) 
-25.334891

>  <fragmenstein_error>  (47) 
None

>  <csv_name>  (47) 
RdRp_knitwork_green_site_rna_tunnel_impure_split4000_batch016.csv

>  <merge_set>  (47) 
RdRp_knitwork_green_site_rna_tunnel_impure_fragalysis.sdf

>  <original ID>  (47) 
UCXOUSGPQWXLPI-SNVBAGLBSA-N

>  <HIPPO Pose ID>  (47) 
165620

>  <fragmenstein_outcome>  (47) 
acceptable

>  <exports>  (47) 
['/opt/xchem-fragalysis-2/maxwin/BulkDock/OUTPUTS/RdRp_knitwork_green_site_rna_tunnel_impure_split4000_batch016_220467.sdf', '/opt/xchem-fragalysis-2/maxwin/BulkDock/OUTPUTS/RdRp_knitwork_green_site_rna_tunnel_impure_fragalysis.sdf']

>  <SLURM_JOB_ID>  (47) 
220467

>  <distance_score>  (47) 
0.787436

>  <original SMILES>  (47) 
CSCC[C@H](CO)NC(=O)C(=O)Nc1cccc2[nH]ccc12

>  <alias>  (47) 
None

>  <ref_pdb>  (47) 
z0041a

>  <inchikey>  (47) 
UCXOUSGPQWXLPI-SNVBAGLBSA-N

$$$$
UCXOUSGPQWXLPI-SNVBAGLBSA-N
     RDKit          3D

 22 23  0  0  0  0  0  0  0  0999 V2000
  -21.5676  -34.4764  -26.7097 C   0  0  0  0  0  0  0  0  0  0  0  0
  -22.8822  -34.8188  -25.5291 S   0  0  0  0  0  0  0  0  0  0  0  0
  -22.7989  -33.2785  -24.5704 C   0  0  0  0  0  0  0  0  0  0  0  0
  -21.6627  -33.2826  -23.5393 C   0  0  0  0  0  0  0  0  0  0  0  0
  -21.5461  -31.9429  -22.7950 C   0  0  2  0  0  0  0  0  0  0  0  0
  -20.6382  -32.0582  -21.5623 C   0  0  0  0  0  0  0  0  0  0  0  0
  -20.4069  -30.7781  -20.9663 O   0  0  0  0  0  0  0  0  0  0  0  0
  -22.8554  -31.4758  -22.4328 N   0  0  0  0  0  0  0  0  0  0  0  0
  -23.8550  -32.0161  -21.4127 C   0  0  0  0  0  0  0  0  0  0  0  0
  -23.7540  -32.8810  -20.6438 O   0  0  0  0  0  0  0  0  0  0  0  0
  -25.1861  -31.2583  -21.5394 C   0  0  0  0  0  0  0  0  0  0  0  0
  -25.7130  -31.1185  -22.5641 O   0  0  0  0  0  0  0  0  0  0  0  0
  -25.6416  -30.8790  -20.1301 N   0  0  0  0  0  0  0  0  0  0  0  0
  -26.8402  -30.3512  -19.6841 C   0  0  0  0  0  0  0  0  0  0  0  0
  -27.9579  -30.2435  -20.5186 C   0  0  0  0  0  0  0  0  0  0  0  0
  -29.2122  -29.9829  -19.9736 C   0  0  0  0  0  0  0  0  0  0  0  0
  -29.3741  -29.8094  -18.5958 C   0  0  0  0  0  0  0  0  0  0  0  0
  -28.2261  -29.8110  -17.7976 C   0  0  0  0  0  0  0  0  0  0  0  0
  -28.0807  -29.6768  -16.4379 N   0  0  0  0  0  0  0  0  0  0  0  0
  -26.7652  -29.8148  -16.0804 C   0  0  0  0  0  0  0  0  0  0  0  0
  -26.0384  -30.0367  -17.2242 C   0  0  0  0  0  0  0  0  0  0  0  0
  -26.9573  -30.0625  -18.3138 C   0  0  0  0  0  0  0  0  0  0  0  0
  1  2  1  0
  2  3  1  0
  3  4  1  0
  5  4  1  1
  5  6  1  0
  6  7  1  0
  5  8  1  0
  8  9  1  0
  9 10  2  0
  9 11  1  0
 11 12  2  0
 11 13  1  0
 13 14  1  0
 14 15  2  0
 15 16  1  0
 16 17  2  0
 17 18  1  0
 18 19  1  0
 19 20  1  0
 20 21  2  0
 21 22  1  0
 22 14  1  0
 22 18  2  0
M  END
>  <fragmenstein_mode>  (48) 
expansion

>  <name>  (48) 
UCXOUSGPQWXLPI-SNVBAGLBSA-N

>  <fragmenstein_runtime>  (48) 
4.941778

>  <HIPPO Compound ID>  (48) 
43304

>  <SLURM_JOB_NAME>  (48) 
BulkDock.place:Flavi_NS5_RdRp:RdRp_knitwork_green_site_rna_tunnel_impure_split4000_batch016

>  <ref_mols>  (48) 
z0041a,z0211a

>  <Multi-SuCOS>  (48) 
0.52532

>  <tags>  (48) 
['Fragmenstein placed', 'RdRp_knitwork_green_site_rna_tunnel_impure_fragalysis.sdf Pose OK']

>  <scratch_subdir>  (48) 
/opt/xchem-fragalysis-2/maxwin/BulkDock/SCRATCH/220467/C43304-P102

>  <energy_score>  (48) 
-23.772618

>  <fragmenstein_error>  (48) 
None

>  <csv_name>  (48) 
RdRp_knitwork_green_site_rna_tunnel_impure_split4000_batch016.csv

>  <merge_set>  (48) 
RdRp_knitwork_green_site_rna_tunnel_impure_fragalysis.sdf

>  <original ID>  (48) 
UCXOUSGPQWXLPI-SNVBAGLBSA-N

>  <HIPPO Pose ID>  (48) 
165638

>  <fragmenstein_outcome>  (48) 
acceptable

>  <exports>  (48) 
['/opt/xchem-fragalysis-2/maxwin/BulkDock/OUTPUTS/RdRp_knitwork_green_site_rna_tunnel_impure_split4000_batch016_220467.sdf', '/opt/xchem-fragalysis-2/maxwin/BulkDock/OUTPUTS/RdRp_knitwork_green_site_rna_tunnel_impure_fragalysis.sdf']

>  <SLURM_JOB_ID>  (48) 
220467

>  <distance_score>  (48) 
0.849763

>  <original SMILES>  (48) 
CSCC[C@H](CO)NC(=O)C(=O)Nc1cccc2[nH]ccc12

>  <alias>  (48) 
None

>  <ref_pdb>  (48) 
z0211a

>  <inchikey>  (48) 
UCXOUSGPQWXLPI-SNVBAGLBSA-N

$$$$
MZQFGNORTTVTDF-UHFFFAOYSA-N
     RDKit          3D

 14 16  0  0  0  0  0  0  0  0999 V2000
  -25.4609  -28.5228  -23.7124 C   0  0  0  0  0  0  0  0  0  0  0  0
  -26.3474  -29.2137  -23.0274 N   0  0  0  0  0  0  0  0  0  0  0  0
  -26.6134  -28.5660  -21.8324 C   0  0  0  0  0  0  0  0  0  0  0  0
  -27.5679  -29.1132  -20.8852 C   0  0  0  0  0  0  0  0  0  0  0  0
  -28.8032  -29.6164  -21.3480 C   0  0  0  0  0  0  0  0  0  0  0  0
  -29.7355  -30.1760  -20.4675 C   0  0  0  0  0  0  0  0  0  0  0  0
  -29.3888  -30.2788  -19.1375 C   0  0  0  0  0  0  0  0  0  0  0  0
  -28.1755  -29.7703  -18.6782 C   0  0  0  0  0  0  0  0  0  0  0  0
  -27.2619  -29.1696  -19.5231 C   0  0  0  0  0  0  0  0  0  0  0  0
  -28.0916  -29.9709  -17.2113 C   0  0  0  0  0  0  0  0  0  0  0  0
  -29.2405  -30.9738  -16.9991 C   0  0  0  0  0  0  0  0  0  0  0  0
  -30.2013  -30.7870  -18.0963 N   0  0  0  0  0  0  0  0  0  0  0  0
  -25.9363  -27.3742  -21.6447 C   0  0  0  0  0  0  0  0  0  0  0  0
  -24.9504  -27.0441  -23.0115 S   0  0  0  0  0  0  0  0  0  0  0  0
  1  2  2  0
  2  3  1  0
  3  4  1  0
  4  5  2  0
  5  6  1  0
  6  7  2  0
  7  8  1  0
  8  9  2  0
  8 10  1  0
 10 11  1  0
 11 12  1  0
  3 13  2  0
 13 14  1  0
 14  1  1  0
  9  4  1  0
 12  7  1  0
M  END
>  <fragmenstein_mode>  (49) 
expansion

>  <name>  (49) 
MZQFGNORTTVTDF-UHFFFAOYSA-N

>  <fragmenstein_runtime>  (49) 
1.82293

>  <HIPPO Compound ID>  (49) 
43832

>  <SLURM_JOB_NAME>  (49) 
BulkDock.place:Flavi_NS5_RdRp:RdRp_knitwork_green_site_rna_tunnel_impure_split4000_batch012

>  <ref_mols>  (49) 
z0904a,z0496a

>  <Multi-SuCOS>  (49) 
0.802158

>  <tags>  (49) 
['Fragmenstein placed', 'RdRp_knitwork_green_site_rna_tunnel_impure_fragalysis.sdf Pose OK']

>  <scratch_subdir>  (49) 
/opt/xchem-fragalysis-2/maxwin/BulkDock/SCRATCH/220463/C43832-P136

>  <energy_score>  (49) 
-81.322986

>  <fragmenstein_error>  (49) 
None

>  <csv_name>  (49) 
RdRp_knitwork_green_site_rna_tunnel_impure_split4000_batch012.csv

>  <merge_set>  (49) 
RdRp_knitwork_green_site_rna_tunnel_impure_fragalysis.sdf

>  <original ID>  (49) 
MZQFGNORTTVTDF-UHFFFAOYSA-N

>  <HIPPO Pose ID>  (49) 
165890

>  <fragmenstein_outcome>  (49) 
acceptable

>  <exports>  (49) 
['/opt/xchem-fragalysis-2/maxwin/BulkDock/OUTPUTS/RdRp_knitwork_green_site_rna_tunnel_impure_split4000_batch012_220463.sdf', '/opt/xchem-fragalysis-2/maxwin/BulkDock/OUTPUTS/RdRp_knitwork_green_site_rna_tunnel_impure_fragalysis.sdf']

>  <SLURM_JOB_ID>  (49) 
220463

>  <distance_score>  (49) 
0.955042

>  <original SMILES>  (49) 
c1nc(-c2ccc3c(c2)CCN3)cs1

>  <alias>  (49) 
None

>  <ref_pdb>  (49) 
z0496a

>  <inchikey>  (49) 
MZQFGNORTTVTDF-UHFFFAOYSA-N

$$$$
BZPPIWVCXGNEFN-JTQLQIEISA-N
     RDKit          3D

 21 22  0  0  0  0  0  0  0  0999 V2000
  -26.6404  -30.1019  -23.1793 O   0  0  0  0  0  0  0  0  0  0  0  0
  -26.0564  -30.6551  -22.3727 C   0  0  0  0  0  0  0  0  0  0  0  0
  -24.8641  -31.6318  -22.4946 N   0  0  0  0  0  0  0  0  0  0  0  0
  -24.2299  -32.1807  -23.6548 C   0  0  0  0  0  0  0  0  0  0  0  0
  -22.7270  -32.2484  -23.4501 C   0  0  0  0  0  0  0  0  0  0  0  0
  -22.0846  -33.0890  -24.5409 C   0  0  2  0  0  0  0  0  0  0  0  0
  -22.4962  -34.4510  -24.3207 O   0  0  0  0  0  0  0  0  0  0  0  0
  -20.5727  -32.8823  -24.5404 C   0  0  0  0  0  0  0  0  0  0  0  0
  -20.2509  -31.5767  -24.6824 F   0  0  0  0  0  0  0  0  0  0  0  0
  -19.9720  -33.5781  -25.5241 F   0  0  0  0  0  0  0  0  0  0  0  0
  -20.0454  -33.2879  -23.3582 F   0  0  0  0  0  0  0  0  0  0  0  0
  -26.2885  -30.7302  -20.8381 N   0  0  0  0  0  0  0  0  0  0  0  0
  -27.3133  -30.2226  -20.0624 C   0  0  0  0  0  0  0  0  0  0  0  0
  -28.5669  -29.9676  -20.6169 C   0  0  0  0  0  0  0  0  0  0  0  0
  -29.6581  -29.7091  -19.7982 C   0  0  0  0  0  0  0  0  0  0  0  0
  -29.4953  -29.5919  -18.4142 C   0  0  0  0  0  0  0  0  0  0  0  0
  -28.2073  -29.6754  -17.8582 C   0  0  0  0  0  0  0  0  0  0  0  0
  -27.6807  -29.5085  -16.5494 C   0  0  0  0  0  0  0  0  0  0  0  0
  -26.3319  -29.7748  -16.5976 C   0  0  0  0  0  0  0  0  0  0  0  0
  -26.0238  -30.1189  -17.8857 N   0  0  0  0  0  0  0  0  0  0  0  0
  -27.1445  -30.0369  -18.6848 C   0  0  0  0  0  0  0  0  0  0  0  0
  1  2  2  0
  2  3  1  0
  3  4  1  0
  4  5  1  0
  5  6  1  0
  6  7  1  1
  6  8  1  0
  8  9  1  0
  8 10  1  0
  8 11  1  0
  2 12  1  0
 12 13  1  0
 13 14  2  0
 14 15  1  0
 15 16  2  0
 16 17  1  0
 17 18  1  0
 18 19  2  0
 19 20  1  0
 20 21  1  0
 21 13  1  0
 21 17  2  0
M  END
>  <fragmenstein_mode>  (50) 
expansion

>  <name>  (50) 
BZPPIWVCXGNEFN-JTQLQIEISA-N

>  <fragmenstein_runtime>  (50) 
4.671107

>  <HIPPO Compound ID>  (50) 
44995

>  <SLURM_JOB_NAME>  (50) 
BulkDock.place:Flavi_NS5_RdRp:RdRp_knitwork_green_site_rna_tunnel_impure_split4000_batch016

>  <ref_mols>  (50) 
z0041a,z0211a

>  <Multi-SuCOS>  (50) 
0.502948

>  <tags>  (50) 
['Fragmenstein placed', 'RdRp_knitwork_green_site_rna_tunnel_impure_fragalysis.sdf Pose OK']

>  <scratch_subdir>  (50) 
/opt/xchem-fragalysis-2/maxwin/BulkDock/SCRATCH/220467/C44995-P82

>  <energy_score>  (50) 
-2.681335

>  <fragmenstein_error>  (50) 
None

>  <csv_name>  (50) 
RdRp_knitwork_green_site_rna_tunnel_impure_split4000_batch016.csv

>  <merge_set>  (50) 
RdRp_knitwork_green_site_rna_tunnel_impure_fragalysis.sdf

>  <original ID>  (50) 
BZPPIWVCXGNEFN-JTQLQIEISA-N

>  <HIPPO Pose ID>  (50) 
166030

>  <fragmenstein_outcome>  (50) 
acceptable

>  <exports>  (50) 
['/opt/xchem-fragalysis-2/maxwin/BulkDock/OUTPUTS/RdRp_knitwork_green_site_rna_tunnel_impure_split4000_batch016_220467.sdf', '/opt/xchem-fragalysis-2/maxwin/BulkDock/OUTPUTS/RdRp_knitwork_green_site_rna_tunnel_impure_fragalysis.sdf']

>  <SLURM_JOB_ID>  (50) 
220467

>  <distance_score>  (50) 
0.950525

>  <original SMILES>  (50) 
O=C(NCC[C@H](O)C(F)(F)F)Nc1cccc2cc[nH]c12

>  <alias>  (50) 
None

>  <ref_pdb>  (50) 
z0041a

>  <inchikey>  (50) 
BZPPIWVCXGNEFN-JTQLQIEISA-N

$$$$
BZPPIWVCXGNEFN-JTQLQIEISA-N
     RDKit          3D

 21 22  0  0  0  0  0  0  0  0999 V2000
  -26.3620  -30.6281  -22.8879 O   0  0  0  0  0  0  0  0  0  0  0  0
  -25.6814  -30.8373  -22.0026 C   0  0  0  0  0  0  0  0  0  0  0  0
  -24.2727  -31.4626  -21.9546 N   0  0  0  0  0  0  0  0  0  0  0  0
  -23.4776  -32.0355  -22.9962 C   0  0  0  0  0  0  0  0  0  0  0  0
  -22.0412  -32.1671  -22.5393 C   0  0  0  0  0  0  0  0  0  0  0  0
  -21.2217  -33.1403  -23.3640 C   0  0  2  0  0  0  0  0  0  0  0  0
  -19.9352  -33.1784  -22.7119 O   0  0  0  0  0  0  0  0  0  0  0  0
  -21.1030  -32.7448  -24.8333 C   0  0  0  0  0  0  0  0  0  0  0  0
  -20.4426  -31.5710  -24.9605 F   0  0  0  0  0  0  0  0  0  0  0  0
  -22.2919  -32.6584  -25.4569 F   0  0  0  0  0  0  0  0  0  0  0  0
  -20.3795  -33.6601  -25.5201 F   0  0  0  0  0  0  0  0  0  0  0  0
  -25.9281  -30.6528  -20.4860 N   0  0  0  0  0  0  0  0  0  0  0  0
  -27.0683  -30.2729  -19.8051 C   0  0  0  0  0  0  0  0  0  0  0  0
  -28.3047  -30.1894  -20.4507 C   0  0  0  0  0  0  0  0  0  0  0  0
  -29.4729  -29.9902  -19.7257 C   0  0  0  0  0  0  0  0  0  0  0  0
  -29.4231  -29.8329  -18.3375 C   0  0  0  0  0  0  0  0  0  0  0  0
  -28.1779  -29.8286  -17.6814 C   0  0  0  0  0  0  0  0  0  0  0  0
  -27.7769  -29.7202  -16.3248 C   0  0  0  0  0  0  0  0  0  0  0  0
  -26.4087  -29.8551  -16.2723 C   0  0  0  0  0  0  0  0  0  0  0  0
  -25.9575  -30.0392  -17.5507 N   0  0  0  0  0  0  0  0  0  0  0  0
  -27.0210  -30.0494  -18.4280 C   0  0  0  0  0  0  0  0  0  0  0  0
  1  2  2  0
  2  3  1  0
  3  4  1  0
  4  5  1  0
  5  6  1  0
  6  7  1  1
  6  8  1  0
  8  9  1  0
  8 10  1  0
  8 11  1  0
  2 12  1  0
 12 13  1  0
 13 14  2  0
 14 15  1  0
 15 16  2  0
 16 17  1  0
 17 18  1  0
 18 19  2  0
 19 20  1  0
 20 21  1  0
 21 13  1  0
 21 17  2  0
M  END
>  <fragmenstein_mode>  (51) 
expansion

>  <name>  (51) 
BZPPIWVCXGNEFN-JTQLQIEISA-N

>  <fragmenstein_runtime>  (51) 
3.626894

>  <HIPPO Compound ID>  (51) 
44995

>  <SLURM_JOB_NAME>  (51) 
BulkDock.place:Flavi_NS5_RdRp:RdRp_knitwork_green_site_rna_tunnel_impure_split4000_batch016

>  <ref_mols>  (51) 
z0041a,z0211a

>  <Multi-SuCOS>  (51) 
0.584909

>  <tags>  (51) 
['Fragmenstein placed', 'RdRp_knitwork_green_site_rna_tunnel_impure_fragalysis.sdf Pose OK']

>  <scratch_subdir>  (51) 
/opt/xchem-fragalysis-2/maxwin/BulkDock/SCRATCH/220467/C44995-P102

>  <energy_score>  (51) 
-5.73791

>  <fragmenstein_error>  (51) 
None

>  <csv_name>  (51) 
RdRp_knitwork_green_site_rna_tunnel_impure_split4000_batch016.csv

>  <merge_set>  (51) 
RdRp_knitwork_green_site_rna_tunnel_impure_fragalysis.sdf

>  <original ID>  (51) 
BZPPIWVCXGNEFN-JTQLQIEISA-N

>  <HIPPO Pose ID>  (51) 
166035

>  <fragmenstein_outcome>  (51) 
acceptable

>  <exports>  (51) 
['/opt/xchem-fragalysis-2/maxwin/BulkDock/OUTPUTS/RdRp_knitwork_green_site_rna_tunnel_impure_split4000_batch016_220467.sdf', '/opt/xchem-fragalysis-2/maxwin/BulkDock/OUTPUTS/RdRp_knitwork_green_site_rna_tunnel_impure_fragalysis.sdf']

>  <SLURM_JOB_ID>  (51) 
220467

>  <distance_score>  (51) 
0.715543

>  <original SMILES>  (51) 
O=C(NCC[C@H](O)C(F)(F)F)Nc1cccc2cc[nH]c12

>  <alias>  (51) 
None

>  <ref_pdb>  (51) 
z0211a

>  <inchikey>  (51) 
BZPPIWVCXGNEFN-JTQLQIEISA-N

$$$$
QCMTUMDUGAHUOW-UHFFFAOYSA-N
     RDKit          3D

 14 16  0  0  0  0  0  0  0  0999 V2000
  -28.3994  -31.4916  -14.1799 C   0  0  0  0  0  0  0  0  0  0  0  0
  -29.1185  -31.8725  -13.1203 N   0  0  0  0  0  0  0  0  0  0  0  0
  -30.3692  -31.9466  -13.6151 N   0  0  0  0  0  0  0  0  0  0  0  0
  -30.4829  -31.4750  -14.8903 C   0  0  0  0  0  0  0  0  0  0  0  0
  -29.1994  -31.2111  -15.2971 C   0  0  0  0  0  0  0  0  0  0  0  0
  -28.7601  -30.7601  -16.7093 C   0  0  0  0  0  0  0  0  0  0  0  0
  -29.6213  -30.6090  -17.6917 N   0  0  0  0  0  0  0  0  0  0  0  0
  -28.9347  -30.2679  -18.8304 C   0  0  0  0  0  0  0  0  0  0  0  0
  -27.5686  -30.1576  -18.7057 C   0  0  0  0  0  0  0  0  0  0  0  0
  -27.1179  -30.4478  -17.1039 S   0  0  0  0  0  0  0  0  0  0  0  0
  -26.6176  -29.7850  -19.7868 C   0  0  0  0  0  0  0  0  0  0  0  0
  -27.3153  -29.7797  -21.1558 C   0  0  0  0  0  0  0  0  0  0  0  0
  -28.7554  -29.2454  -21.0763 C   0  0  0  0  0  0  0  0  0  0  0  0
  -29.6261  -30.0723  -20.1183 C   0  0  0  0  0  0  0  0  0  0  0  0
  1  2  2  0
  2  3  1  0
  3  4  1  0
  4  5  2  0
  5  6  1  0
  6  7  2  0
  7  8  1  0
  8  9  2  0
  9 10  1  0
  9 11  1  0
 11 12  1  0
 12 13  1  0
 13 14  1  0
  5  1  1  0
 10  6  1  0
 14  8  1  0
M  END
>  <fragmenstein_mode>  (52) 
expansion

>  <name>  (52) 
QCMTUMDUGAHUOW-UHFFFAOYSA-N

>  <fragmenstein_runtime>  (52) 
6.249891

>  <HIPPO Compound ID>  (52) 
11620

>  <SLURM_JOB_NAME>  (52) 
BulkDock.place:Flavi_NS5_RdRp:RdRp_knitwork_green_site_rna_tunnel_impure_split4000_batch008

>  <ref_mols>  (52) 
z0496a,z0653a

>  <Multi-SuCOS>  (52) 
0.482051

>  <tags>  (52) 
['Fragmenstein placed', 'RdRp_knitwork_green_site_rna_tunnel_impure_fragalysis.sdf Pose OK']

>  <scratch_subdir>  (52) 
/opt/xchem-fragalysis-2/maxwin/BulkDock/SCRATCH/220459/C11620-P153

>  <energy_score>  (52) 
-45.0838

>  <fragmenstein_error>  (52) 
None

>  <csv_name>  (52) 
RdRp_knitwork_green_site_rna_tunnel_impure_split4000_batch008.csv

>  <merge_set>  (52) 
RdRp_knitwork_green_site_rna_tunnel_impure_fragalysis.sdf

>  <original ID>  (52) 
QCMTUMDUGAHUOW-UHFFFAOYSA-N

>  <HIPPO Pose ID>  (52) 
166210

>  <fragmenstein_outcome>  (52) 
acceptable

>  <exports>  (52) 
['/opt/xchem-fragalysis-2/maxwin/BulkDock/OUTPUTS/RdRp_knitwork_green_site_rna_tunnel_impure_split4000_batch008_220459.sdf', '/opt/xchem-fragalysis-2/maxwin/BulkDock/OUTPUTS/RdRp_knitwork_green_site_rna_tunnel_impure_fragalysis.sdf']

>  <SLURM_JOB_ID>  (52) 
220459

>  <distance_score>  (52) 
0.880966

>  <original SMILES>  (52) 
c1n[nH]cc1-c1nc2c(s1)CCCC2

>  <alias>  (52) 
None

>  <ref_pdb>  (52) 
z0653a

>  <inchikey>  (52) 
QCMTUMDUGAHUOW-UHFFFAOYSA-N

$$$$
MBBYSNDXNBICSA-UHFFFAOYSA-N
     RDKit          3D

 16 18  0  0  0  0  0  0  0  0999 V2000
  -28.0181  -30.5523  -21.7481 O   0  0  0  0  0  0  0  0  0  0  0  0
  -27.5358  -29.6243  -21.1016 C   0  0  0  0  0  0  0  0  0  0  0  0
  -27.7803  -29.6577  -19.6292 C   0  0  0  0  0  0  0  0  0  0  0  0
  -28.9878  -30.1743  -19.1178 C   0  0  0  0  0  0  0  0  0  0  0  0
  -29.1273  -30.4391  -17.7459 C   0  0  0  0  0  0  0  0  0  0  0  0
  -28.0215  -30.2767  -16.9317 C   0  0  0  0  0  0  0  0  0  0  0  0
  -26.8452  -29.7347  -17.4357 C   0  0  0  0  0  0  0  0  0  0  0  0
  -26.7295  -29.3646  -18.7562 C   0  0  0  0  0  0  0  0  0  0  0  0
  -25.7998  -29.7161  -16.3791 C   0  0  0  0  0  0  0  0  0  0  0  0
  -26.4615  -30.6507  -15.3592 C   0  0  0  0  0  0  0  0  0  0  0  0
  -27.9279  -30.5618  -15.5460 N   0  0  0  0  0  0  0  0  0  0  0  0
  -26.6545  -28.6127  -21.6638 C   0  0  0  0  0  0  0  0  0  0  0  0
  -26.2382  -27.3877  -21.1694 C   0  0  0  0  0  0  0  0  0  0  0  0
  -25.2827  -26.7277  -21.9125 N   0  0  0  0  0  0  0  0  0  0  0  0
  -25.0434  -27.4035  -23.0174 C   0  0  0  0  0  0  0  0  0  0  0  0
  -25.9197  -28.8662  -23.2076 S   0  0  0  0  0  0  0  0  0  0  0  0
  1  2  2  0
  2  3  1  0
  3  4  2  0
  4  5  1  0
  5  6  2  0
  6  7  1  0
  7  8  2  0
  7  9  1  0
  9 10  1  0
 10 11  1  0
  2 12  1  0
 12 13  2  0
 13 14  1  0
 14 15  2  0
 15 16  1  0
  8  3  1  0
 16 12  1  0
 11  6  1  0
M  END
>  <fragmenstein_mode>  (53) 
expansion

>  <name>  (53) 
MBBYSNDXNBICSA-UHFFFAOYSA-N

>  <fragmenstein_runtime>  (53) 
1.557191

>  <HIPPO Compound ID>  (53) 
44522

>  <SLURM_JOB_NAME>  (53) 
BulkDock.place:Flavi_NS5_RdRp:RdRp_knitwork_green_site_rna_tunnel_impure_split4000_batch012

>  <ref_mols>  (53) 
z0904a,z0496a

>  <Multi-SuCOS>  (53) 
0.778365

>  <tags>  (53) 
['Fragmenstein placed', 'RdRp_knitwork_green_site_rna_tunnel_impure_fragalysis.sdf Pose OK']

>  <scratch_subdir>  (53) 
/opt/xchem-fragalysis-2/maxwin/BulkDock/SCRATCH/220463/C44522-P136

>  <energy_score>  (53) 
-51.707683

>  <fragmenstein_error>  (53) 
None

>  <csv_name>  (53) 
RdRp_knitwork_green_site_rna_tunnel_impure_split4000_batch012.csv

>  <merge_set>  (53) 
RdRp_knitwork_green_site_rna_tunnel_impure_fragalysis.sdf

>  <original ID>  (53) 
MBBYSNDXNBICSA-UHFFFAOYSA-N

>  <HIPPO Pose ID>  (53) 
166297

>  <fragmenstein_outcome>  (53) 
acceptable

>  <exports>  (53) 
['/opt/xchem-fragalysis-2/maxwin/BulkDock/OUTPUTS/RdRp_knitwork_green_site_rna_tunnel_impure_split4000_batch012_220463.sdf', '/opt/xchem-fragalysis-2/maxwin/BulkDock/OUTPUTS/RdRp_knitwork_green_site_rna_tunnel_impure_fragalysis.sdf']

>  <SLURM_JOB_ID>  (53) 
220463

>  <distance_score>  (53) 
0.723724

>  <original SMILES>  (53) 
O=C(c1ccc2c(c1)CCN2)c1cncs1

>  <alias>  (53) 
None

>  <ref_pdb>  (53) 
z0496a

>  <inchikey>  (53) 
MBBYSNDXNBICSA-UHFFFAOYSA-N

$$$$
NBCHSHLMEIDCCY-UHFFFAOYSA-N
     RDKit          3D

 14 16  0  0  0  0  0  0  0  0999 V2000
  -29.2774  -31.9786  -13.1640 C   0  0  0  0  0  0  0  0  0  0  0  0
  -28.4446  -31.5598  -14.1717 C   0  0  0  0  0  0  0  0  0  0  0  0
  -29.3024  -31.2068  -15.2423 C   0  0  0  0  0  0  0  0  0  0  0  0
  -28.8292  -30.7537  -16.6794 C   0  0  0  0  0  0  0  0  0  0  0  0
  -29.6613  -30.5717  -17.6835 N   0  0  0  0  0  0  0  0  0  0  0  0
  -28.9437  -30.2610  -18.8108 C   0  0  0  0  0  0  0  0  0  0  0  0
  -27.5787  -30.1831  -18.6590 C   0  0  0  0  0  0  0  0  0  0  0  0
  -27.1654  -30.5026  -17.0522 S   0  0  0  0  0  0  0  0  0  0  0  0
  -26.6001  -29.8263  -19.7215 C   0  0  0  0  0  0  0  0  0  0  0  0
  -27.2707  -29.8090  -21.1049 C   0  0  0  0  0  0  0  0  0  0  0  0
  -28.7042  -29.2532  -21.0578 C   0  0  0  0  0  0  0  0  0  0  0  0
  -29.6052  -30.0637  -20.1144 C   0  0  0  0  0  0  0  0  0  0  0  0
  -30.5903  -31.3399  -14.8955 N   0  0  0  0  0  0  0  0  0  0  0  0
  -30.5382  -31.8889  -13.6736 N   0  0  0  0  0  0  0  0  0  0  0  0
  1  2  2  0
  2  3  1  0
  3  4  1  0
  4  5  2  0
  5  6  1  0
  6  7  2  0
  7  8  1  0
  7  9  1  0
  9 10  1  0
 10 11  1  0
 11 12  1  0
  3 13  2  0
 13 14  1  0
 14  1  1  0
  8  4  1  0
 12  6  1  0
M  END
>  <fragmenstein_mode>  (54) 
expansion

>  <name>  (54) 
NBCHSHLMEIDCCY-UHFFFAOYSA-N

>  <fragmenstein_runtime>  (54) 
3.660729

>  <HIPPO Compound ID>  (54) 
12041

>  <SLURM_JOB_NAME>  (54) 
BulkDock.place:Flavi_NS5_RdRp:RdRp_knitwork_green_site_rna_tunnel_impure_split4000_batch008

>  <ref_mols>  (54) 
z0496a,z0653a

>  <Multi-SuCOS>  (54) 
0.494461

>  <tags>  (54) 
['Fragmenstein placed', 'RdRp_knitwork_green_site_rna_tunnel_impure_fragalysis.sdf Pose OK']

>  <scratch_subdir>  (54) 
/opt/xchem-fragalysis-2/maxwin/BulkDock/SCRATCH/220459/C12041-P153

>  <energy_score>  (54) 
-35.075836

>  <fragmenstein_error>  (54) 
None

>  <csv_name>  (54) 
RdRp_knitwork_green_site_rna_tunnel_impure_split4000_batch008.csv

>  <merge_set>  (54) 
RdRp_knitwork_green_site_rna_tunnel_impure_fragalysis.sdf

>  <original ID>  (54) 
NBCHSHLMEIDCCY-UHFFFAOYSA-N

>  <HIPPO Pose ID>  (54) 
166332

>  <fragmenstein_outcome>  (54) 
acceptable

>  <exports>  (54) 
['/opt/xchem-fragalysis-2/maxwin/BulkDock/OUTPUTS/RdRp_knitwork_green_site_rna_tunnel_impure_split4000_batch008_220459.sdf', '/opt/xchem-fragalysis-2/maxwin/BulkDock/OUTPUTS/RdRp_knitwork_green_site_rna_tunnel_impure_fragalysis.sdf']

>  <SLURM_JOB_ID>  (54) 
220459

>  <distance_score>  (54) 
0.903276

>  <original SMILES>  (54) 
c1cc(-c2nc3c(s2)CCCC3)n[nH]1

>  <alias>  (54) 
None

>  <ref_pdb>  (54) 
z0653a

>  <inchikey>  (54) 
NBCHSHLMEIDCCY-UHFFFAOYSA-N

$$$$
WRPVUBWGAIPFSE-UHFFFAOYSA-N
     RDKit          3D

 14 16  0  0  0  0  0  0  0  0999 V2000
  -30.3311  -31.7641  -13.5784 C   0  0  0  0  0  0  0  0  0  0  0  0
  -28.9503  -31.8387  -13.3529 C   0  0  0  0  0  0  0  0  0  0  0  0
  -28.2322  -31.4024  -14.3894 N   0  0  0  0  0  0  0  0  0  0  0  0
  -29.1655  -31.1420  -15.3524 N   0  0  0  0  0  0  0  0  0  0  0  0
  -28.7882  -30.7735  -16.6452 C   0  0  0  0  0  0  0  0  0  0  0  0
  -29.6481  -30.6193  -17.6319 N   0  0  0  0  0  0  0  0  0  0  0  0
  -28.9390  -30.2948  -18.7657 C   0  0  0  0  0  0  0  0  0  0  0  0
  -27.5718  -30.1998  -18.6194 C   0  0  0  0  0  0  0  0  0  0  0  0
  -27.1452  -30.5070  -17.0099 S   0  0  0  0  0  0  0  0  0  0  0  0
  -26.5999  -29.8319  -19.6849 C   0  0  0  0  0  0  0  0  0  0  0  0
  -27.2752  -29.8204  -21.0661 C   0  0  0  0  0  0  0  0  0  0  0  0
  -28.7122  -29.2744  -21.0131 C   0  0  0  0  0  0  0  0  0  0  0  0
  -29.6050  -30.0960  -20.0691 C   0  0  0  0  0  0  0  0  0  0  0  0
  -30.4456  -31.3183  -14.8713 C   0  0  0  0  0  0  0  0  0  0  0  0
  1  2  1  0
  2  3  2  0
  3  4  1  0
  4  5  1  0
  5  6  2  0
  6  7  1  0
  7  8  2  0
  8  9  1  0
  8 10  1  0
 10 11  1  0
 11 12  1  0
 12 13  1  0
  4 14  1  0
 14  1  2  0
  9  5  1  0
 13  7  1  0
M  END
>  <fragmenstein_mode>  (55) 
expansion

>  <name>  (55) 
WRPVUBWGAIPFSE-UHFFFAOYSA-N

>  <fragmenstein_runtime>  (55) 
3.2771

>  <HIPPO Compound ID>  (55) 
12047

>  <SLURM_JOB_NAME>  (55) 
BulkDock.place:Flavi_NS5_RdRp:RdRp_knitwork_green_site_rna_tunnel_impure_split4000_batch008

>  <ref_mols>  (55) 
z0496a,z0653a

>  <Multi-SuCOS>  (55) 
0.547026

>  <tags>  (55) 
['Fragmenstein placed', 'RdRp_knitwork_green_site_rna_tunnel_impure_fragalysis.sdf Pose OK']

>  <scratch_subdir>  (55) 
/opt/xchem-fragalysis-2/maxwin/BulkDock/SCRATCH/220459/C12047-P153

>  <energy_score>  (55) 
-81.778632

>  <fragmenstein_error>  (55) 
None

>  <csv_name>  (55) 
RdRp_knitwork_green_site_rna_tunnel_impure_split4000_batch008.csv

>  <merge_set>  (55) 
RdRp_knitwork_green_site_rna_tunnel_impure_fragalysis.sdf

>  <original ID>  (55) 
WRPVUBWGAIPFSE-UHFFFAOYSA-N

>  <HIPPO Pose ID>  (55) 
166399

>  <fragmenstein_outcome>  (55) 
acceptable

>  <exports>  (55) 
['/opt/xchem-fragalysis-2/maxwin/BulkDock/OUTPUTS/RdRp_knitwork_green_site_rna_tunnel_impure_split4000_batch008_220459.sdf', '/opt/xchem-fragalysis-2/maxwin/BulkDock/OUTPUTS/RdRp_knitwork_green_site_rna_tunnel_impure_fragalysis.sdf']

>  <SLURM_JOB_ID>  (55) 
220459

>  <distance_score>  (55) 
0.917652

>  <original SMILES>  (55) 
c1cnn(-c2nc3c(s2)CCCC3)c1

>  <alias>  (55) 
None

>  <ref_pdb>  (55) 
z0653a

>  <inchikey>  (55) 
WRPVUBWGAIPFSE-UHFFFAOYSA-N

$$$$
XKPKUAISYUPFGS-OAHLLOKOSA-N
     RDKit          3D

 20 21  0  0  0  0  0  0  0  0999 V2000
  -20.8348  -32.9849  -23.8038 C   0  0  0  0  0  0  0  0  0  0  0  0
  -21.7407  -33.0682  -22.5704 C   0  0  0  0  0  0  0  0  0  0  0  0
  -21.2239  -32.0876  -21.5150 C   0  0  0  0  0  0  0  0  0  0  0  0
  -23.2683  -32.9765  -22.9262 C   0  0  1  0  0  0  0  0  0  0  0  0
  -23.5397  -32.1036  -24.1652 C   0  0  0  0  0  0  0  0  0  0  0  0
  -23.7721  -34.4308  -23.2098 C   0  0  0  0  0  0  0  0  0  0  0  0
  -25.0407  -34.4923  -23.8547 O   0  0  0  0  0  0  0  0  0  0  0  0
  -24.0495  -32.3633  -21.8428 N   0  0  0  0  0  0  0  0  0  0  0  0
  -25.5800  -32.2548  -21.6492 C   0  0  0  0  0  0  0  0  0  0  0  0
  -26.4313  -32.6917  -22.2648 O   0  0  0  0  0  0  0  0  0  0  0  0
  -25.6147  -31.2919  -20.4306 N   0  0  0  0  0  0  0  0  0  0  0  0
  -26.6841  -30.6395  -19.8302 C   0  0  0  0  0  0  0  0  0  0  0  0
  -27.8941  -30.4753  -20.5176 C   0  0  0  0  0  0  0  0  0  0  0  0
  -29.0174  -29.9439  -19.8888 C   0  0  0  0  0  0  0  0  0  0  0  0
  -28.9634  -29.5670  -18.5481 C   0  0  0  0  0  0  0  0  0  0  0  0
  -27.7316  -29.6729  -17.8921 C   0  0  0  0  0  0  0  0  0  0  0  0
  -27.3960  -29.3957  -16.5880 N   0  0  0  0  0  0  0  0  0  0  0  0
  -26.0832  -29.7007  -16.3567 C   0  0  0  0  0  0  0  0  0  0  0  0
  -25.5504  -30.1845  -17.5271 C   0  0  0  0  0  0  0  0  0  0  0  0
  -26.5845  -30.1832  -18.5046 C   0  0  0  0  0  0  0  0  0  0  0  0
  1  2  1  0
  2  3  1  0
  2  4  1  0
  4  5  1  6
  4  6  1  0
  6  7  1  0
  4  8  1  0
  8  9  1  0
  9 10  2  0
  9 11  1  0
 11 12  1  0
 12 13  2  0
 13 14  1  0
 14 15  2  0
 15 16  1  0
 16 17  1  0
 17 18  1  0
 18 19  2  0
 19 20  1  0
 20 12  1  0
 20 16  2  0
M  END
>  <fragmenstein_mode>  (56) 
expansion

>  <name>  (56) 
XKPKUAISYUPFGS-OAHLLOKOSA-N

>  <fragmenstein_runtime>  (56) 
8.621567

>  <HIPPO Compound ID>  (56) 
27417

>  <SLURM_JOB_NAME>  (56) 
BulkDock.place:Flavi_NS5_RdRp:RdRp_knitwork_green_site_rna_tunnel_impure_split4000_batch016

>  <ref_mols>  (56) 
z0041a,z0211a

>  <Multi-SuCOS>  (56) 
0.535388

>  <tags>  (56) 
['Fragmenstein placed', 'RdRp_knitwork_green_site_rna_tunnel_impure_fragalysis.sdf Pose OK']

>  <scratch_subdir>  (56) 
/opt/xchem-fragalysis-2/maxwin/BulkDock/SCRATCH/220467/C27417-P82

>  <energy_score>  (56) 
-48.803946

>  <fragmenstein_error>  (56) 
None

>  <csv_name>  (56) 
RdRp_knitwork_green_site_rna_tunnel_impure_split4000_batch016.csv

>  <merge_set>  (56) 
RdRp_knitwork_green_site_rna_tunnel_impure_fragalysis.sdf

>  <original ID>  (56) 
XKPKUAISYUPFGS-OAHLLOKOSA-N

>  <HIPPO Pose ID>  (56) 
166625

>  <fragmenstein_outcome>  (56) 
acceptable

>  <exports>  (56) 
['/opt/xchem-fragalysis-2/maxwin/BulkDock/OUTPUTS/RdRp_knitwork_green_site_rna_tunnel_impure_split4000_batch016_220467.sdf', '/opt/xchem-fragalysis-2/maxwin/BulkDock/OUTPUTS/RdRp_knitwork_green_site_rna_tunnel_impure_fragalysis.sdf']

>  <SLURM_JOB_ID>  (56) 
220467

>  <distance_score>  (56) 
0.851586

>  <original SMILES>  (56) 
CC(C)[C@@](C)(CO)NC(=O)Nc1cccc2[nH]ccc12

>  <alias>  (56) 
None

>  <ref_pdb>  (56) 
z0041a

>  <inchikey>  (56) 
XKPKUAISYUPFGS-OAHLLOKOSA-N

$$$$
XKPKUAISYUPFGS-OAHLLOKOSA-N
     RDKit          3D

 20 21  0  0  0  0  0  0  0  0999 V2000
  -20.9169  -33.1803  -23.4500 C   0  0  0  0  0  0  0  0  0  0  0  0
  -21.8398  -32.8060  -22.2877 C   0  0  0  0  0  0  0  0  0  0  0  0
  -21.2005  -31.5996  -21.5964 C   0  0  0  0  0  0  0  0  0  0  0  0
  -23.3262  -32.6338  -22.7438 C   0  0  1  0  0  0  0  0  0  0  0  0
  -23.3945  -31.9018  -24.0851 C   0  0  0  0  0  0  0  0  0  0  0  0
  -23.9910  -34.0390  -22.9003 C   0  0  0  0  0  0  0  0  0  0  0  0
  -25.2745  -34.0164  -23.5287 O   0  0  0  0  0  0  0  0  0  0  0  0
  -24.0967  -31.8797  -21.7539 N   0  0  0  0  0  0  0  0  0  0  0  0
  -25.4948  -31.2266  -21.8590 C   0  0  0  0  0  0  0  0  0  0  0  0
  -26.1922  -31.1268  -22.7493 O   0  0  0  0  0  0  0  0  0  0  0  0
  -25.7066  -30.8414  -20.3765 N   0  0  0  0  0  0  0  0  0  0  0  0
  -26.8326  -30.3590  -19.7262 C   0  0  0  0  0  0  0  0  0  0  0  0
  -28.0579  -30.2555  -20.4023 C   0  0  0  0  0  0  0  0  0  0  0  0
  -29.2317  -29.9720  -19.7123 C   0  0  0  0  0  0  0  0  0  0  0  0
  -29.2133  -29.7712  -18.3316 C   0  0  0  0  0  0  0  0  0  0  0  0
  -27.9734  -29.8079  -17.6842 C   0  0  0  0  0  0  0  0  0  0  0  0
  -27.6656  -29.6905  -16.3503 N   0  0  0  0  0  0  0  0  0  0  0  0
  -26.3211  -29.8529  -16.1526 C   0  0  0  0  0  0  0  0  0  0  0  0
  -25.7390  -30.0803  -17.3763 C   0  0  0  0  0  0  0  0  0  0  0  0
  -26.7779  -30.0813  -18.3507 C   0  0  0  0  0  0  0  0  0  0  0  0
  1  2  1  0
  2  3  1  0
  2  4  1  0
  4  5  1  6
  4  6  1  0
  6  7  1  0
  4  8  1  0
  8  9  1  0
  9 10  2  0
  9 11  1  0
 11 12  1  0
 12 13  2  0
 13 14  1  0
 14 15  2  0
 15 16  1  0
 16 17  1  0
 17 18  1  0
 18 19  2  0
 19 20  1  0
 20 12  1  0
 20 16  2  0
M  END
>  <fragmenstein_mode>  (57) 
expansion

>  <name>  (57) 
XKPKUAISYUPFGS-OAHLLOKOSA-N

>  <fragmenstein_runtime>  (57) 
7.109853

>  <HIPPO Compound ID>  (57) 
27417

>  <SLURM_JOB_NAME>  (57) 
BulkDock.place:Flavi_NS5_RdRp:RdRp_knitwork_green_site_rna_tunnel_impure_split4000_batch016

>  <ref_mols>  (57) 
z0041a,z0211a

>  <Multi-SuCOS>  (57) 
0.619389

>  <tags>  (57) 
['Fragmenstein placed', 'RdRp_knitwork_green_site_rna_tunnel_impure_fragalysis.sdf Pose OK']

>  <scratch_subdir>  (57) 
/opt/xchem-fragalysis-2/maxwin/BulkDock/SCRATCH/220467/C27417-P102

>  <energy_score>  (57) 
-49.753921

>  <fragmenstein_error>  (57) 
None

>  <csv_name>  (57) 
RdRp_knitwork_green_site_rna_tunnel_impure_split4000_batch016.csv

>  <merge_set>  (57) 
RdRp_knitwork_green_site_rna_tunnel_impure_fragalysis.sdf

>  <original ID>  (57) 
XKPKUAISYUPFGS-OAHLLOKOSA-N

>  <HIPPO Pose ID>  (57) 
166655

>  <fragmenstein_outcome>  (57) 
acceptable

>  <exports>  (57) 
['/opt/xchem-fragalysis-2/maxwin/BulkDock/OUTPUTS/RdRp_knitwork_green_site_rna_tunnel_impure_split4000_batch016_220467.sdf', '/opt/xchem-fragalysis-2/maxwin/BulkDock/OUTPUTS/RdRp_knitwork_green_site_rna_tunnel_impure_fragalysis.sdf']

>  <SLURM_JOB_ID>  (57) 
220467

>  <distance_score>  (57) 
0.737873

>  <original SMILES>  (57) 
CC(C)[C@@](C)(CO)NC(=O)Nc1cccc2[nH]ccc12

>  <alias>  (57) 
None

>  <ref_pdb>  (57) 
z0211a

>  <inchikey>  (57) 
XKPKUAISYUPFGS-OAHLLOKOSA-N

$$$$
WAMQMBKDEXLWKE-UHFFFAOYSA-N
     RDKit          3D

 20 22  0  0  0  0  0  0  0  0999 V2000
  -18.3146  -35.6428  -18.9529 C   0  0  0  0  0  0  0  0  0  0  0  0
  -19.6881  -35.5256  -19.2929 O   0  0  0  0  0  0  0  0  0  0  0  0
  -20.0560  -34.4283  -20.0186 C   0  0  0  0  0  0  0  0  0  0  0  0
  -19.2863  -33.2718  -20.2097 C   0  0  0  0  0  0  0  0  0  0  0  0
  -19.7652  -32.1943  -20.9648 C   0  0  0  0  0  0  0  0  0  0  0  0
  -21.0208  -32.2417  -21.5843 C   0  0  0  0  0  0  0  0  0  0  0  0
  -21.8108  -33.3900  -21.4162 C   0  0  0  0  0  0  0  0  0  0  0  0
  -23.0819  -33.8211  -21.8833 C   0  0  0  0  0  0  0  0  0  0  0  0
  -23.2828  -35.0863  -21.3709 C   0  0  0  0  0  0  0  0  0  0  0  0
  -24.3413  -36.1223  -21.5561 C   0  0  0  0  0  0  0  0  0  0  0  0
  -25.6917  -35.6217  -21.2154 N   0  0  0  0  0  0  0  0  0  0  0  0
  -25.7900  -35.3729  -19.7708 C   0  0  0  0  0  0  0  0  0  0  0  0
  -26.7172  -36.6072  -21.6101 C   0  0  0  0  0  0  0  0  0  0  0  0
  -26.9268  -36.6559  -23.0919 C   0  0  0  0  0  0  0  0  0  0  0  0
  -26.9491  -35.6425  -24.0315 C   0  0  0  0  0  0  0  0  0  0  0  0
  -27.2282  -36.1684  -25.3235 C   0  0  0  0  0  0  0  0  0  0  0  0
  -27.3981  -37.4845  -25.4128 N   0  0  0  0  0  0  0  0  0  0  0  0
  -27.2375  -38.1367  -23.8959 S   0  0  0  0  0  0  0  0  0  0  0  0
  -22.2329  -35.4360  -20.5715 O   0  0  0  0  0  0  0  0  0  0  0  0
  -21.3174  -34.4243  -20.6302 C   0  0  0  0  0  0  0  0  0  0  0  0
  1  2  1  0
  2  3  1  0
  3  4  2  0
  4  5  1  0
  5  6  2  0
  6  7  1  0
  7  8  1  0
  8  9  2  0
  9 10  1  0
 10 11  1  0
 11 12  1  0
 11 13  1  0
 13 14  1  0
 14 15  2  0
 15 16  1  0
 16 17  2  0
 17 18  1  0
  9 19  1  0
 19 20  1  0
 20  3  1  0
 20  7  2  0
 18 14  1  0
M  END
>  <fragmenstein_mode>  (58) 
expansion

>  <name>  (58) 
WAMQMBKDEXLWKE-UHFFFAOYSA-N

>  <fragmenstein_runtime>  (58) 
1.688557

>  <HIPPO Compound ID>  (58) 
27322

>  <SLURM_JOB_NAME>  (58) 
BulkDock.place:Flavi_NS5_RdRp:RdRp_knitwork_green_site_rna_tunnel_impure_split4000_batch011

>  <ref_mols>  (58) 
z0653a,3vws-b

>  <Multi-SuCOS>  (58) 
0.386599

>  <tags>  (58) 
['Fragmenstein placed', 'RdRp_knitwork_green_site_rna_tunnel_impure_fragalysis.sdf Pose OK']

>  <scratch_subdir>  (58) 
/opt/xchem-fragalysis-2/maxwin/BulkDock/SCRATCH/220462/C27322-P153

>  <energy_score>  (58) 
-47.513549

>  <fragmenstein_error>  (58) 
None

>  <csv_name>  (58) 
RdRp_knitwork_green_site_rna_tunnel_impure_split4000_batch011.csv

>  <merge_set>  (58) 
RdRp_knitwork_green_site_rna_tunnel_impure_fragalysis.sdf

>  <original ID>  (58) 
WAMQMBKDEXLWKE-UHFFFAOYSA-N

>  <HIPPO Pose ID>  (58) 
167141

>  <fragmenstein_outcome>  (58) 
acceptable

>  <exports>  (58) 
['/opt/xchem-fragalysis-2/maxwin/BulkDock/OUTPUTS/RdRp_knitwork_green_site_rna_tunnel_impure_split4000_batch011_220462.sdf', '/opt/xchem-fragalysis-2/maxwin/BulkDock/OUTPUTS/RdRp_knitwork_green_site_rna_tunnel_impure_fragalysis.sdf']

>  <SLURM_JOB_ID>  (58) 
220462

>  <distance_score>  (58) 
0.525405

>  <original SMILES>  (58) 
COc1cccc2cc(CN(C)Cc3ccns3)oc12

>  <alias>  (58) 
None

>  <ref_pdb>  (58) 
z0653a

>  <inchikey>  (58) 
WAMQMBKDEXLWKE-UHFFFAOYSA-N

$$$$
WAMQMBKDEXLWKE-UHFFFAOYSA-N
     RDKit          3D

 20 22  0  0  0  0  0  0  0  0999 V2000
  -19.7450  -35.4751  -18.3891 C   0  0  0  0  0  0  0  0  0  0  0  0
  -19.1318  -35.1510  -19.6375 O   0  0  0  0  0  0  0  0  0  0  0  0
  -19.8580  -34.1546  -20.2478 C   0  0  0  0  0  0  0  0  0  0  0  0
  -19.3237  -32.8642  -20.2688 C   0  0  0  0  0  0  0  0  0  0  0  0
  -20.0206  -31.8154  -20.8693 C   0  0  0  0  0  0  0  0  0  0  0  0
  -21.2608  -32.0347  -21.4876 C   0  0  0  0  0  0  0  0  0  0  0  0
  -21.7863  -33.3398  -21.5288 C   0  0  0  0  0  0  0  0  0  0  0  0
  -22.9414  -33.9499  -22.0840 C   0  0  0  0  0  0  0  0  0  0  0  0
  -22.8622  -35.2932  -21.7784 C   0  0  0  0  0  0  0  0  0  0  0  0
  -23.7384  -36.4651  -22.0672 C   0  0  0  0  0  0  0  0  0  0  0  0
  -25.0468  -36.3969  -21.3649 N   0  0  0  0  0  0  0  0  0  0  0  0
  -24.8290  -36.3141  -19.9148 C   0  0  0  0  0  0  0  0  0  0  0  0
  -25.8391  -37.6016  -21.6948 C   0  0  0  0  0  0  0  0  0  0  0  0
  -26.3809  -37.5611  -23.0881 C   0  0  0  0  0  0  0  0  0  0  0  0
  -27.2387  -36.6593  -23.6893 C   0  0  0  0  0  0  0  0  0  0  0  0
  -27.4877  -37.0371  -25.0388 C   0  0  0  0  0  0  0  0  0  0  0  0
  -26.8868  -38.1396  -25.4751 N   0  0  0  0  0  0  0  0  0  0  0  0
  -25.9961  -38.7793  -24.2317 S   0  0  0  0  0  0  0  0  0  0  0  0
  -21.7321  -35.5463  -21.0550 O   0  0  0  0  0  0  0  0  0  0  0  0
  -21.0738  -34.3623  -20.9078 C   0  0  0  0  0  0  0  0  0  0  0  0
  1  2  1  0
  2  3  1  0
  3  4  2  0
  4  5  1  0
  5  6  2  0
  6  7  1  0
  7  8  1  0
  8  9  2  0
  9 10  1  0
 10 11  1  0
 11 12  1  0
 11 13  1  0
 13 14  1  0
 14 15  2  0
 15 16  1  0
 16 17  2  0
 17 18  1  0
  9 19  1  0
 19 20  1  0
 20  3  1  0
 20  7  2  0
 18 14  1  0
M  END
>  <fragmenstein_mode>  (59) 
expansion

>  <name>  (59) 
WAMQMBKDEXLWKE-UHFFFAOYSA-N

>  <fragmenstein_runtime>  (59) 
1.901342

>  <HIPPO Compound ID>  (59) 
27322

>  <SLURM_JOB_NAME>  (59) 
BulkDock.place:Flavi_NS5_RdRp:RdRp_knitwork_green_site_rna_tunnel_impure_split4000_batch011

>  <ref_mols>  (59) 
z0653a,3vws-b

>  <Multi-SuCOS>  (59) 
0.410276

>  <tags>  (59) 
['Fragmenstein placed', 'RdRp_knitwork_green_site_rna_tunnel_impure_fragalysis.sdf Pose OK']

>  <scratch_subdir>  (59) 
/opt/xchem-fragalysis-2/maxwin/BulkDock/SCRATCH/220462/C27322-P217

>  <energy_score>  (59) 
-47.992333

>  <fragmenstein_error>  (59) 
None

>  <csv_name>  (59) 
RdRp_knitwork_green_site_rna_tunnel_impure_split4000_batch011.csv

>  <merge_set>  (59) 
RdRp_knitwork_green_site_rna_tunnel_impure_fragalysis.sdf

>  <original ID>  (59) 
WAMQMBKDEXLWKE-UHFFFAOYSA-N

>  <HIPPO Pose ID>  (59) 
167154

>  <fragmenstein_outcome>  (59) 
acceptable

>  <exports>  (59) 
['/opt/xchem-fragalysis-2/maxwin/BulkDock/OUTPUTS/RdRp_knitwork_green_site_rna_tunnel_impure_split4000_batch011_220462.sdf', '/opt/xchem-fragalysis-2/maxwin/BulkDock/OUTPUTS/RdRp_knitwork_green_site_rna_tunnel_impure_fragalysis.sdf']

>  <SLURM_JOB_ID>  (59) 
220462

>  <distance_score>  (59) 
0.424755

>  <original SMILES>  (59) 
COc1cccc2cc(CN(C)Cc3ccns3)oc12

>  <alias>  (59) 
None

>  <ref_pdb>  (59) 
3vws-b

>  <inchikey>  (59) 
WAMQMBKDEXLWKE-UHFFFAOYSA-N

$$$$
QPJJKBVFVVBPJW-UHFFFAOYSA-N
     RDKit          3D

 22 24  0  0  0  0  0  0  0  0999 V2000
  -18.6428  -35.8589  -18.7871 C   0  0  0  0  0  0  0  0  0  0  0  0
  -19.9758  -35.5868  -19.1946 O   0  0  0  0  0  0  0  0  0  0  0  0
  -20.1668  -34.4871  -19.9827 C   0  0  0  0  0  0  0  0  0  0  0  0
  -19.2760  -33.4133  -20.1196 C   0  0  0  0  0  0  0  0  0  0  0  0
  -19.5766  -32.3175  -20.9364 C   0  0  0  0  0  0  0  0  0  0  0  0
  -20.7628  -32.2690  -21.6792 C   0  0  0  0  0  0  0  0  0  0  0  0
  -21.6763  -33.3307  -21.5631 C   0  0  0  0  0  0  0  0  0  0  0  0
  -22.9486  -33.6423  -22.1353 C   0  0  0  0  0  0  0  0  0  0  0  0
  -23.7203  -32.8372  -23.1232 C   0  0  0  0  0  0  0  0  0  0  0  0
  -23.4561  -33.2824  -24.5679 C   0  0  0  0  0  0  0  0  0  0  0  0
  -22.5513  -32.8772  -25.2043 O   0  0  0  0  0  0  0  0  0  0  0  0
  -24.5485  -34.2807  -24.9320 N   0  0  0  0  0  0  0  0  0  0  0  0
  -25.7456  -33.5855  -25.5314 C   0  0  0  0  0  0  0  0  0  0  0  0
  -24.7380  -35.1199  -26.1713 C   0  0  0  0  0  0  0  0  0  0  0  0
  -23.6517  -36.1747  -26.1271 C   0  0  0  0  0  0  0  0  0  0  0  0
  -23.5789  -37.3590  -25.4176 C   0  0  0  0  0  0  0  0  0  0  0  0
  -22.3903  -38.0673  -25.7595 C   0  0  0  0  0  0  0  0  0  0  0  0
  -21.5851  -37.4982  -26.6525 N   0  0  0  0  0  0  0  0  0  0  0  0
  -22.2353  -36.0368  -27.0856 S   0  0  0  0  0  0  0  0  0  0  0  0
  -23.3327  -34.8342  -21.5546 C   0  0  0  0  0  0  0  0  0  0  0  0
  -22.3867  -35.2838  -20.6922 O   0  0  0  0  0  0  0  0  0  0  0  0
  -21.3624  -34.3804  -20.7067 C   0  0  0  0  0  0  0  0  0  0  0  0
  1  2  1  0
  2  3  1  0
  3  4  2  0
  4  5  1  0
  5  6  2  0
  6  7  1  0
  7  8  1  0
  8  9  1  0
  9 10  1  0
 10 11  2  0
 10 12  1  0
 12 13  1  0
 12 14  1  0
 14 15  1  0
 15 16  2  0
 16 17  1  0
 17 18  2  0
 18 19  1  0
  8 20  2  0
 20 21  1  0
 21 22  1  0
 22  3  1  0
 22  7  2  0
 19 15  1  0
M  END
>  <fragmenstein_mode>  (60) 
expansion

>  <name>  (60) 
QPJJKBVFVVBPJW-UHFFFAOYSA-N

>  <fragmenstein_runtime>  (60) 
3.365724

>  <HIPPO Compound ID>  (60) 
27080

>  <SLURM_JOB_NAME>  (60) 
BulkDock.place:Flavi_NS5_RdRp:RdRp_knitwork_green_site_rna_tunnel_impure_split4000_batch011

>  <ref_mols>  (60) 
z0653a,3vws-b

>  <Multi-SuCOS>  (60) 
0.392794

>  <tags>  (60) 
['Fragmenstein placed', 'RdRp_knitwork_green_site_rna_tunnel_impure_fragalysis.sdf Pose OK']

>  <scratch_subdir>  (60) 
/opt/xchem-fragalysis-2/maxwin/BulkDock/SCRATCH/220462/C27080-P153

>  <energy_score>  (60) 
-45.155218

>  <fragmenstein_error>  (60) 
None

>  <csv_name>  (60) 
RdRp_knitwork_green_site_rna_tunnel_impure_split4000_batch011.csv

>  <merge_set>  (60) 
RdRp_knitwork_green_site_rna_tunnel_impure_fragalysis.sdf

>  <original ID>  (60) 
QPJJKBVFVVBPJW-UHFFFAOYSA-N

>  <HIPPO Pose ID>  (60) 
167576

>  <fragmenstein_outcome>  (60) 
acceptable

>  <exports>  (60) 
['/opt/xchem-fragalysis-2/maxwin/BulkDock/OUTPUTS/RdRp_knitwork_green_site_rna_tunnel_impure_split4000_batch011_220462.sdf', '/opt/xchem-fragalysis-2/maxwin/BulkDock/OUTPUTS/RdRp_knitwork_green_site_rna_tunnel_impure_fragalysis.sdf']

>  <SLURM_JOB_ID>  (60) 
220462

>  <distance_score>  (60) 
0.851899

>  <original SMILES>  (60) 
COc1cccc2c(CC(=O)N(C)Cc3ccns3)coc12

>  <alias>  (60) 
None

>  <ref_pdb>  (60) 
z0653a

>  <inchikey>  (60) 
QPJJKBVFVVBPJW-UHFFFAOYSA-N

$$$$
WBLJUASMTXWQSP-UHFFFAOYSA-N
     RDKit          3D

 21 24  0  0  0  0  0  0  0  0999 V2000
  -22.5516  -32.2432  -16.3510 C   0  0  0  0  0  0  0  0  0  0  0  0
  -21.6848  -33.1751  -16.9082 C   0  0  0  0  0  0  0  0  0  0  0  0
  -21.7873  -33.5108  -18.2611 C   0  0  0  0  0  0  0  0  0  0  0  0
  -20.8341  -34.4495  -18.8603 C   0  0  0  0  0  0  0  0  0  0  0  0
  -19.8255  -33.9872  -19.7108 C   0  0  0  0  0  0  0  0  0  0  0  0
  -18.9147  -34.8971  -20.2214 C   0  0  0  0  0  0  0  0  0  0  0  0
  -18.9418  -36.2211  -19.9603 N   0  0  0  0  0  0  0  0  0  0  0  0
  -19.9288  -36.6505  -19.1415 C   0  0  0  0  0  0  0  0  0  0  0  0
  -20.8815  -35.8170  -18.5752 C   0  0  0  0  0  0  0  0  0  0  0  0
  -22.8032  -32.9127  -19.0335 C   0  0  0  0  0  0  0  0  0  0  0  0
  -23.6943  -31.9683  -18.4914 C   0  0  0  0  0  0  0  0  0  0  0  0
  -24.7691  -31.3610  -19.3140 C   0  0  0  0  0  0  0  0  0  0  0  0
  -24.7032  -31.2710  -20.8190 C   0  0  0  0  0  0  0  0  0  0  0  0
  -25.6141  -30.8070  -21.6224 N   0  0  0  0  0  0  0  0  0  0  0  0
  -26.7417  -30.3241  -21.0337 C   0  0  0  0  0  0  0  0  0  0  0  0
  -27.8066  -29.7774  -21.5789 N   0  0  0  0  0  0  0  0  0  0  0  0
  -28.5980  -29.4931  -20.5118 C   0  0  0  0  0  0  0  0  0  0  0  0
  -28.1037  -29.8151  -19.3165 N   0  0  0  0  0  0  0  0  0  0  0  0
  -26.8985  -30.3420  -19.6459 N   0  0  0  0  0  0  0  0  0  0  0  0
  -25.9142  -30.8563  -18.8118 C   0  0  0  0  0  0  0  0  0  0  0  0
  -23.5323  -31.6333  -17.1376 C   0  0  0  0  0  0  0  0  0  0  0  0
  1  2  2  0
  2  3  1  0
  3  4  1  0
  4  5  2  0
  5  6  1  0
  6  7  2  0
  7  8  1  0
  8  9  2  0
  3 10  2  0
 10 11  1  0
 11 12  1  0
 12 13  1  0
 13 14  2  0
 14 15  1  0
 15 16  2  0
 16 17  1  0
 17 18  2  0
 18 19  1  0
 19 20  1  0
 11 21  2  0
 21  1  1  0
  9  4  1  0
 20 12  2  0
 19 15  1  0
M  END
>  <fragmenstein_mode>  (61) 
expansion

>  <name>  (61) 
WBLJUASMTXWQSP-UHFFFAOYSA-N

>  <fragmenstein_runtime>  (61) 
3.191793

>  <HIPPO Compound ID>  (61) 
28222

>  <SLURM_JOB_NAME>  (61) 
BulkDock.place:Flavi_NS5_RdRp:RdRp_knitwork_green_site_rna_tunnel_impure_split4000_batch000

>  <ref_mols>  (61) 
z0521a,z0637a

>  <Multi-SuCOS>  (61) 
0.502467

>  <tags>  (61) 
['Fragmenstein placed', 'RdRp_knitwork_green_site_rna_tunnel_impure_fragalysis.sdf Pose OK']

>  <scratch_subdir>  (61) 
/opt/xchem-fragalysis-2/maxwin/BulkDock/SCRATCH/220451/C28222-P151

>  <energy_score>  (61) 
-33.658663

>  <fragmenstein_error>  (61) 
None

>  <csv_name>  (61) 
RdRp_knitwork_green_site_rna_tunnel_impure_split4000_batch000.csv

>  <merge_set>  (61) 
RdRp_knitwork_green_site_rna_tunnel_impure_fragalysis.sdf

>  <original ID>  (61) 
WBLJUASMTXWQSP-UHFFFAOYSA-N

>  <HIPPO Pose ID>  (61) 
167922

>  <fragmenstein_outcome>  (61) 
acceptable

>  <exports>  (61) 
['/opt/xchem-fragalysis-2/maxwin/BulkDock/OUTPUTS/RdRp_knitwork_green_site_rna_tunnel_impure_split4000_batch000_220451.sdf', '/opt/xchem-fragalysis-2/maxwin/BulkDock/OUTPUTS/RdRp_knitwork_green_site_rna_tunnel_impure_fragalysis.sdf']

>  <SLURM_JOB_ID>  (61) 
220451

>  <distance_score>  (61) 
0.648223

>  <original SMILES>  (61) 
c1cc(-c2ccncc2)cc(-c2cnc3ncnn3c2)c1

>  <alias>  (61) 
None

>  <ref_pdb>  (61) 
z0637a

>  <inchikey>  (61) 
WBLJUASMTXWQSP-UHFFFAOYSA-N

$$$$
GDDGFXKIAMPUBV-UHFFFAOYSA-N
     RDKit          3D

 14 15  0  0  0  0  0  0  0  0999 V2000
  -25.8326  -30.7334  -20.5924 C   0  0  0  0  0  0  0  0  0  0  0  0
  -24.7980  -30.6930  -21.7063 C   0  0  0  0  0  0  0  0  0  0  0  0
  -23.7624  -31.6557  -21.4813 O   0  0  0  0  0  0  0  0  0  0  0  0
  -24.0602  -32.9504  -21.8006 C   0  0  0  0  0  0  0  0  0  0  0  0
  -25.1219  -33.3090  -22.2948 O   0  0  0  0  0  0  0  0  0  0  0  0
  -22.9974  -33.8824  -21.4460 C   0  0  0  0  0  0  0  0  0  0  0  0
  -23.1258  -35.3049  -21.3904 C   0  0  0  0  0  0  0  0  0  0  0  0
  -21.9425  -35.8247  -20.9188 C   0  0  0  0  0  0  0  0  0  0  0  0
  -21.0654  -34.7892  -20.7169 N   0  0  0  0  0  0  0  0  0  0  0  0
  -19.7629  -34.8545  -20.2235 C   0  0  0  0  0  0  0  0  0  0  0  0
  -19.0372  -33.7294  -20.1176 C   0  0  0  0  0  0  0  0  0  0  0  0
  -19.6334  -32.4708  -20.5293 C   0  0  0  0  0  0  0  0  0  0  0  0
  -20.8972  -32.4055  -20.9895 C   0  0  0  0  0  0  0  0  0  0  0  0
  -21.6857  -33.5958  -21.0850 C   0  0  0  0  0  0  0  0  0  0  0  0
  1  2  1  0
  2  3  1  0
  3  4  1  0
  4  5  2  0
  4  6  1  0
  6  7  1  0
  7  8  2  0
  8  9  1  0
  9 10  1  0
 10 11  2  0
 11 12  1  0
 12 13  2  0
 13 14  1  0
 14  6  2  0
 14  9  1  0
M  END
>  <fragmenstein_mode>  (62) 
expansion

>  <name>  (62) 
GDDGFXKIAMPUBV-UHFFFAOYSA-N

>  <fragmenstein_runtime>  (62) 
1.609034

>  <HIPPO Compound ID>  (62) 
35054

>  <SLURM_JOB_NAME>  (62) 
BulkDock.place:Flavi_NS5_RdRp:RdRp_knitwork_green_site_rna_tunnel_impure_split4000_batch001

>  <ref_mols>  (62) 
z0628a,3vws-b

>  <Multi-SuCOS>  (62) 
0.656015

>  <tags>  (62) 
['Fragmenstein placed', 'RdRp_knitwork_green_site_rna_tunnel_impure_fragalysis.sdf Pose OK']

>  <scratch_subdir>  (62) 
/opt/xchem-fragalysis-2/maxwin/BulkDock/SCRATCH/220452/C35054-P217

>  <energy_score>  (62) 
-26.88998

>  <fragmenstein_error>  (62) 
None

>  <csv_name>  (62) 
RdRp_knitwork_green_site_rna_tunnel_impure_split4000_batch001.csv

>  <merge_set>  (62) 
RdRp_knitwork_green_site_rna_tunnel_impure_fragalysis.sdf

>  <original ID>  (62) 
GDDGFXKIAMPUBV-UHFFFAOYSA-N

>  <HIPPO Pose ID>  (62) 
168188

>  <fragmenstein_outcome>  (62) 
acceptable

>  <exports>  (62) 
['/opt/xchem-fragalysis-2/maxwin/BulkDock/OUTPUTS/RdRp_knitwork_green_site_rna_tunnel_impure_split4000_batch001_220452.sdf', '/opt/xchem-fragalysis-2/maxwin/BulkDock/OUTPUTS/RdRp_knitwork_green_site_rna_tunnel_impure_fragalysis.sdf']

>  <SLURM_JOB_ID>  (62) 
220452

>  <distance_score>  (62) 
0.981133

>  <original SMILES>  (62) 
CCOC(=O)c1ccn2ccccc12

>  <alias>  (62) 
None

>  <ref_pdb>  (62) 
3vws-b

>  <inchikey>  (62) 
GDDGFXKIAMPUBV-UHFFFAOYSA-N

$$$$
ZKAKUFAEQPKZJH-UHFFFAOYSA-N
     RDKit          3D

 14 16  0  0  0  0  0  0  0  0999 V2000
  -27.7752  -29.5731  -17.9634 C   0  0  0  0  0  0  0  0  0  0  0  0
  -26.9604  -29.0131  -18.9496 C   0  0  0  0  0  0  0  0  0  0  0  0
  -27.3670  -28.9660  -20.2880 C   0  0  0  0  0  0  0  0  0  0  0  0
  -26.5652  -28.3768  -21.3367 C   0  0  0  0  0  0  0  0  0  0  0  0
  -25.8487  -27.2086  -21.4773 C   0  0  0  0  0  0  0  0  0  0  0  0
  -25.2406  -27.1724  -22.7068 N   0  0  0  0  0  0  0  0  0  0  0  0
  -25.5648  -28.3247  -23.2493 C   0  0  0  0  0  0  0  0  0  0  0  0
  -26.4042  -29.0969  -22.4963 O   0  0  0  0  0  0  0  0  0  0  0  0
  -28.6467  -29.4521  -20.5740 C   0  0  0  0  0  0  0  0  0  0  0  0
  -29.3321  -29.4983  -21.7589 N   0  0  0  0  0  0  0  0  0  0  0  0
  -30.6332  -29.8290  -21.5319 C   0  0  0  0  0  0  0  0  0  0  0  0
  -30.7454  -30.2437  -20.2313 C   0  0  0  0  0  0  0  0  0  0  0  0
  -29.5038  -29.9711  -19.6011 C   0  0  0  0  0  0  0  0  0  0  0  0
  -29.0474  -30.0617  -18.2760 C   0  0  0  0  0  0  0  0  0  0  0  0
  1  2  2  0
  2  3  1  0
  3  4  1  0
  4  5  2  0
  5  6  1  0
  6  7  2  0
  7  8  1  0
  3  9  2  0
  9 10  1  0
 10 11  1  0
 11 12  2  0
 12 13  1  0
 13 14  2  0
 14  1  1  0
  8  4  1  0
 13  9  1  0
M  END
>  <fragmenstein_mode>  (63) 
expansion

>  <name>  (63) 
ZKAKUFAEQPKZJH-UHFFFAOYSA-N

>  <fragmenstein_runtime>  (63) 
1.807074

>  <HIPPO Compound ID>  (63) 
29647

>  <SLURM_JOB_NAME>  (63) 
BulkDock.place:Flavi_NS5_RdRp:RdRp_knitwork_green_site_rna_tunnel_impure_split4000_batch002

>  <ref_mols>  (63) 
z0107a,z0496a

>  <Multi-SuCOS>  (63) 
0.694394

>  <tags>  (63) 
['Fragmenstein placed', 'RdRp_knitwork_green_site_rna_tunnel_impure_fragalysis.sdf Pose OK']

>  <scratch_subdir>  (63) 
/opt/xchem-fragalysis-2/maxwin/BulkDock/SCRATCH/220453/C29647-P136

>  <energy_score>  (63) 
-23.078075

>  <fragmenstein_error>  (63) 
None

>  <csv_name>  (63) 
RdRp_knitwork_green_site_rna_tunnel_impure_split4000_batch002.csv

>  <merge_set>  (63) 
RdRp_knitwork_green_site_rna_tunnel_impure_fragalysis.sdf

>  <original ID>  (63) 
ZKAKUFAEQPKZJH-UHFFFAOYSA-N

>  <HIPPO Pose ID>  (63) 
168461

>  <fragmenstein_outcome>  (63) 
acceptable

>  <exports>  (63) 
['/opt/xchem-fragalysis-2/maxwin/BulkDock/OUTPUTS/RdRp_knitwork_green_site_rna_tunnel_impure_split4000_batch002_220453.sdf', '/opt/xchem-fragalysis-2/maxwin/BulkDock/OUTPUTS/RdRp_knitwork_green_site_rna_tunnel_impure_fragalysis.sdf']

>  <SLURM_JOB_ID>  (63) 
220453

>  <distance_score>  (63) 
0.915515

>  <original SMILES>  (63) 
c1cc(-c2cnco2)c2[nH]ccc2c1

>  <alias>  (63) 
None

>  <ref_pdb>  (63) 
z0496a

>  <inchikey>  (63) 
ZKAKUFAEQPKZJH-UHFFFAOYSA-N

$$$$
AYWFFQGZZINDPZ-UHFFFAOYSA-N
     RDKit          3D

 14 15  0  0  0  0  0  0  0  0999 V2000
  -25.8560  -30.6072  -20.6023 C   0  0  0  0  0  0  0  0  0  0  0  0
  -24.8048  -30.5735  -21.7010 C   0  0  0  0  0  0  0  0  0  0  0  0
  -23.8090  -31.5810  -21.4814 O   0  0  0  0  0  0  0  0  0  0  0  0
  -24.1398  -32.8542  -21.8421 C   0  0  0  0  0  0  0  0  0  0  0  0
  -25.2026  -33.1633  -22.3687 O   0  0  0  0  0  0  0  0  0  0  0  0
  -23.1176  -33.8320  -21.4764 C   0  0  0  0  0  0  0  0  0  0  0  0
  -23.4072  -35.1849  -21.4636 C   0  0  0  0  0  0  0  0  0  0  0  0
  -22.1366  -36.1340  -20.8594 S   0  0  0  0  0  0  0  0  0  0  0  0
  -21.1062  -34.7700  -20.6877 C   0  0  0  0  0  0  0  0  0  0  0  0
  -19.7804  -34.7824  -20.2091 C   0  0  0  0  0  0  0  0  0  0  0  0
  -19.0654  -33.5854  -20.1535 C   0  0  0  0  0  0  0  0  0  0  0  0
  -19.6532  -32.3991  -20.5624 C   0  0  0  0  0  0  0  0  0  0  0  0
  -20.9741  -32.3899  -21.0210 C   0  0  0  0  0  0  0  0  0  0  0  0
  -21.7403  -33.5865  -21.0844 C   0  0  0  0  0  0  0  0  0  0  0  0
  1  2  1  0
  2  3  1  0
  3  4  1  0
  4  5  2  0
  4  6  1  0
  6  7  2  0
  7  8  1  0
  8  9  1  0
  9 10  2  0
 10 11  1  0
 11 12  2  0
 12 13  1  0
 13 14  2  0
 14  6  1  0
 14  9  1  0
M  END
>  <fragmenstein_mode>  (64) 
expansion

>  <name>  (64) 
AYWFFQGZZINDPZ-UHFFFAOYSA-N

>  <fragmenstein_runtime>  (64) 
2.313673

>  <HIPPO Compound ID>  (64) 
38111

>  <SLURM_JOB_NAME>  (64) 
BulkDock.place:Flavi_NS5_RdRp:RdRp_knitwork_green_site_rna_tunnel_impure_split4000_batch001

>  <ref_mols>  (64) 
z0628a,3vws-b

>  <Multi-SuCOS>  (64) 
0.616769

>  <tags>  (64) 
['Fragmenstein placed', 'RdRp_knitwork_green_site_rna_tunnel_impure_fragalysis.sdf Pose OK']

>  <scratch_subdir>  (64) 
/opt/xchem-fragalysis-2/maxwin/BulkDock/SCRATCH/220452/C38111-P217

>  <energy_score>  (64) 
-31.855416

>  <fragmenstein_error>  (64) 
None

>  <csv_name>  (64) 
RdRp_knitwork_green_site_rna_tunnel_impure_split4000_batch001.csv

>  <merge_set>  (64) 
RdRp_knitwork_green_site_rna_tunnel_impure_fragalysis.sdf

>  <original ID>  (64) 
AYWFFQGZZINDPZ-UHFFFAOYSA-N

>  <HIPPO Pose ID>  (64) 
168665

>  <fragmenstein_outcome>  (64) 
acceptable

>  <exports>  (64) 
['/opt/xchem-fragalysis-2/maxwin/BulkDock/OUTPUTS/RdRp_knitwork_green_site_rna_tunnel_impure_split4000_batch001_220452.sdf', '/opt/xchem-fragalysis-2/maxwin/BulkDock/OUTPUTS/RdRp_knitwork_green_site_rna_tunnel_impure_fragalysis.sdf']

>  <SLURM_JOB_ID>  (64) 
220452

>  <distance_score>  (64) 
0.845993

>  <original SMILES>  (64) 
CCOC(=O)c1csc2ccccc12

>  <alias>  (64) 
None

>  <ref_pdb>  (64) 
3vws-b

>  <inchikey>  (64) 
AYWFFQGZZINDPZ-UHFFFAOYSA-N

$$$$
RMDDLTVCDWQPGN-AWEZNQCLSA-N
     RDKit          3D

 22 25  0  0  0  0  0  0  0  0999 V2000
  -26.4440  -30.9562  -22.2857 O   0  0  0  0  0  0  0  0  0  0  0  0
  -26.1627  -31.3102  -21.2126 C   0  0  0  0  0  0  0  0  0  0  0  0
  -25.0667  -32.3120  -20.8859 C   0  0  0  0  0  0  0  0  0  0  0  0
  -24.3180  -32.8419  -22.1105 C   0  0  0  0  0  0  0  0  0  0  0  0
  -23.2659  -33.8277  -21.6582 C   0  0  0  0  0  0  0  0  0  0  0  0
  -23.4824  -35.1869  -21.5430 C   0  0  0  0  0  0  0  0  0  0  0  0
  -22.2043  -35.9914  -20.7604 S   0  0  0  0  0  0  0  0  0  0  0  0
  -21.2801  -34.5474  -20.6206 C   0  0  0  0  0  0  0  0  0  0  0  0
  -20.0132  -34.4064  -20.0159 C   0  0  0  0  0  0  0  0  0  0  0  0
  -19.3891  -33.1581  -20.0255 C   0  0  0  0  0  0  0  0  0  0  0  0
  -20.0174  -32.0662  -20.6032 C   0  0  0  0  0  0  0  0  0  0  0  0
  -21.2826  -32.2064  -21.1808 C   0  0  0  0  0  0  0  0  0  0  0  0
  -21.9427  -33.4611  -21.1970 C   0  0  0  0  0  0  0  0  0  0  0  0
  -26.7585  -30.9155  -19.8363 N   0  0  0  0  0  0  0  0  0  0  0  0
  -27.7635  -29.9278  -19.4942 C   0  0  1  0  0  0  0  0  0  0  0  0
  -29.1835  -30.4568  -19.7246 C   0  0  0  0  0  0  0  0  0  0  0  0
  -29.5977  -31.4607  -18.6513 C   0  0  0  0  0  0  0  0  0  0  0  0
  -29.4773  -30.8995  -17.3053 N   0  0  0  0  0  0  0  0  0  0  0  0
  -28.0971  -30.4468  -17.0563 C   0  0  0  0  0  0  0  0  0  0  0  0
  -27.6765  -30.3136  -15.6154 C   0  0  0  0  0  0  0  0  0  0  0  0
  -27.1333  -31.4381  -16.4438 C   0  0  0  0  0  0  0  0  0  0  0  0
  -27.5747  -29.4362  -18.0542 C   0  0  0  0  0  0  0  0  0  0  0  0
  1  2  2  0
  2  3  1  0
  3  4  1  0
  4  5  1  0
  5  6  2  0
  6  7  1  0
  7  8  1  0
  8  9  2  0
  9 10  1  0
 10 11  2  0
 11 12  1  0
 12 13  2  0
  2 14  1  0
 15 14  1  1
 15 16  1  0
 16 17  1  0
 17 18  1  0
 18 19  1  0
 19 20  1  0
 20 21  1  0
 19 22  1  0
 13  5  1  0
 22 15  1  0
 13  8  1  0
 21 19  1  0
M  END
>  <fragmenstein_mode>  (65) 
expansion

>  <name>  (65) 
RMDDLTVCDWQPGN-AWEZNQCLSA-N

>  <fragmenstein_runtime>  (65) 
5.397103

>  <HIPPO Compound ID>  (65) 
34583

>  <SLURM_JOB_NAME>  (65) 
BulkDock.place:Flavi_NS5_RdRp:RdRp_knitwork_green_site_rna_tunnel_impure_split4000_batch017

>  <ref_mols>  (65) 
z0384a,3vws-b

>  <Multi-SuCOS>  (65) 
0.568131

>  <tags>  (65) 
['Fragmenstein placed', 'RdRp_knitwork_green_site_rna_tunnel_impure_fragalysis.sdf Pose OK']

>  <scratch_subdir>  (65) 
/opt/xchem-fragalysis-2/maxwin/BulkDock/SCRATCH/220468/C34583-P120

>  <energy_score>  (65) 
-39.882357

>  <fragmenstein_error>  (65) 
None

>  <csv_name>  (65) 
RdRp_knitwork_green_site_rna_tunnel_impure_split4000_batch017.csv

>  <merge_set>  (65) 
RdRp_knitwork_green_site_rna_tunnel_impure_fragalysis.sdf

>  <original ID>  (65) 
RMDDLTVCDWQPGN-AWEZNQCLSA-N

>  <HIPPO Pose ID>  (65) 
168974

>  <fragmenstein_outcome>  (65) 
acceptable

>  <exports>  (65) 
['/opt/xchem-fragalysis-2/maxwin/BulkDock/OUTPUTS/RdRp_knitwork_green_site_rna_tunnel_impure_split4000_batch017_220468.sdf', '/opt/xchem-fragalysis-2/maxwin/BulkDock/OUTPUTS/RdRp_knitwork_green_site_rna_tunnel_impure_fragalysis.sdf']

>  <SLURM_JOB_ID>  (65) 
220468

>  <distance_score>  (65) 
0.853421

>  <original SMILES>  (65) 
O=C(CCc1csc2ccccc12)N[C@H]1CCNC2(CC2)C1

>  <alias>  (65) 
None

>  <ref_pdb>  (65) 
z0384a

>  <inchikey>  (65) 
RMDDLTVCDWQPGN-AWEZNQCLSA-N

$$$$
FULVPJSFCRWKPJ-SNVBAGLBSA-N
     RDKit          3D

 17 17  0  0  0  0  0  0  0  0999 V2000
  -28.9755  -32.3294  -16.6380 C   0  0  0  0  0  0  0  0  0  0  0  0
  -29.4514  -30.9523  -17.0868 C   0  0  0  0  0  0  0  0  0  0  0  0
  -29.3216  -30.6915  -18.6001 C   0  0  1  0  0  0  0  0  0  0  0  0
  -27.9261  -30.8692  -18.9547 O   0  0  0  0  0  0  0  0  0  0  0  0
  -27.3608  -30.4644  -20.1313 C   0  0  0  0  0  0  0  0  0  0  0  0
  -26.6879  -31.2796  -20.7575 O   0  0  0  0  0  0  0  0  0  0  0  0
  -27.5282  -28.9809  -20.5228 C   0  0  0  0  0  0  0  0  0  0  0  0
  -28.9166  -28.7808  -21.1191 C   0  0  0  0  0  0  0  0  0  0  0  0
  -27.3308  -28.0982  -19.2735 C   0  0  0  0  0  0  0  0  0  0  0  0
  -26.5432  -28.5511  -21.6247 C   0  0  0  0  0  0  0  0  0  0  0  0
  -25.7878  -27.3849  -21.6777 C   0  0  0  0  0  0  0  0  0  0  0  0
  -24.9615  -27.2544  -23.1762 S   0  0  0  0  0  0  0  0  0  0  0  0
  -25.6472  -28.7464  -23.6547 C   0  0  0  0  0  0  0  0  0  0  0  0
  -26.4834  -29.2953  -22.7998 N   0  0  0  0  0  0  0  0  0  0  0  0
  -30.2912  -31.5933  -19.3994 C   0  0  0  0  0  0  0  0  0  0  0  0
  -31.2982  -30.7917  -20.2240 C   0  0  0  0  0  0  0  0  0  0  0  0
  -29.6244  -32.6802  -20.2391 C   0  0  0  0  0  0  0  0  0  0  0  0
  1  2  1  0
  3  2  1  1
  3  4  1  0
  4  5  1  0
  5  6  2  0
  5  7  1  0
  7  8  1  0
  7  9  1  0
  7 10  1  0
 10 11  2  0
 11 12  1  0
 12 13  1  0
 13 14  2  0
  3 15  1  0
 15 16  1  0
 15 17  1  0
 14 10  1  0
M  END
>  <fragmenstein_mode>  (66) 
expansion

>  <name>  (66) 
FULVPJSFCRWKPJ-SNVBAGLBSA-N

>  <fragmenstein_runtime>  (66) 
14.331983

>  <HIPPO Compound ID>  (66) 
49191

>  <SLURM_JOB_NAME>  (66) 
BulkDock.place:Flavi_NS5_RdRp:RdRp_knitwork_green_site_rna_tunnel_impure_split4000_batch004

>  <ref_mols>  (66) 
z0496a,z0628a

>  <Multi-SuCOS>  (66) 
0.521582

>  <tags>  (66) 
['Fragmenstein placed', 'RdRp_knitwork_green_site_rna_tunnel_impure_fragalysis.sdf Pose OK']

>  <scratch_subdir>  (66) 
/opt/xchem-fragalysis-2/maxwin/BulkDock/SCRATCH/220455/C49191-P136

>  <energy_score>  (66) 
-69.241312

>  <fragmenstein_error>  (66) 
None

>  <csv_name>  (66) 
RdRp_knitwork_green_site_rna_tunnel_impure_split4000_batch004.csv

>  <merge_set>  (66) 
RdRp_knitwork_green_site_rna_tunnel_impure_fragalysis.sdf

>  <original ID>  (66) 
FULVPJSFCRWKPJ-SNVBAGLBSA-N

>  <HIPPO Pose ID>  (66) 
169082

>  <fragmenstein_outcome>  (66) 
acceptable

>  <exports>  (66) 
['/opt/xchem-fragalysis-2/maxwin/BulkDock/OUTPUTS/RdRp_knitwork_green_site_rna_tunnel_impure_split4000_batch004_220455.sdf', '/opt/xchem-fragalysis-2/maxwin/BulkDock/OUTPUTS/RdRp_knitwork_green_site_rna_tunnel_impure_fragalysis.sdf']

>  <SLURM_JOB_ID>  (66) 
220455

>  <distance_score>  (66) 
0.900703

>  <original SMILES>  (66) 
CC[C@@H](OC(=O)C(C)(C)c1cscn1)C(C)C

>  <alias>  (66) 
None

>  <ref_pdb>  (66) 
z0496a

>  <inchikey>  (66) 
FULVPJSFCRWKPJ-SNVBAGLBSA-N

$$$$
HPYHQOLRNIITQK-UHFFFAOYSA-N
     RDKit          3D

 20 22  0  0  0  0  0  0  0  0999 V2000
  -26.7412  -30.5542  -18.6411 C   0  0  0  0  0  0  0  0  0  0  0  0
  -26.1266  -30.1486  -19.8714 N   0  0  0  0  0  0  0  0  0  0  0  0
  -26.0678  -28.8795  -20.3501 C   0  0  0  0  0  0  0  0  0  0  0  0
  -25.4492  -28.8429  -21.5053 N   0  0  0  0  0  0  0  0  0  0  0  0
  -25.1065  -30.1425  -21.7913 C   0  0  0  0  0  0  0  0  0  0  0  0
  -24.3797  -30.3992  -23.0632 C   0  0  0  0  0  0  0  0  0  0  0  0
  -24.5264  -31.7876  -23.6687 C   0  0  0  0  0  0  0  0  0  0  0  0
  -23.7381  -32.7829  -23.0060 N   0  0  0  0  0  0  0  0  0  0  0  0
  -24.1572  -33.9409  -22.0973 C   0  0  0  0  0  0  0  0  0  0  0  0
  -25.2149  -34.3216  -21.8007 O   0  0  0  0  0  0  0  0  0  0  0  0
  -22.9632  -34.5804  -21.5504 C   0  0  0  0  0  0  0  0  0  0  0  0
  -22.8364  -35.9745  -21.3047 C   0  0  0  0  0  0  0  0  0  0  0  0
  -21.5896  -36.1944  -20.7763 C   0  0  0  0  0  0  0  0  0  0  0  0
  -20.9388  -34.9956  -20.6593 N   0  0  0  0  0  0  0  0  0  0  0  0
  -19.6537  -34.7641  -20.1716 C   0  0  0  0  0  0  0  0  0  0  0  0
  -19.1767  -33.5097  -20.1266 C   0  0  0  0  0  0  0  0  0  0  0  0
  -20.0372  -32.4198  -20.5520 C   0  0  0  0  0  0  0  0  0  0  0  0
  -21.2854  -32.6425  -21.0074 C   0  0  0  0  0  0  0  0  0  0  0  0
  -21.7802  -33.9834  -21.1177 C   0  0  0  0  0  0  0  0  0  0  0  0
  -25.5092  -30.9697  -20.7652 C   0  0  0  0  0  0  0  0  0  0  0  0
  1  2  1  0
  2  3  1  0
  3  4  2  0
  4  5  1  0
  5  6  1  0
  6  7  1  0
  7  8  1  0
  8  9  1  0
  9 10  2  0
  9 11  1  0
 11 12  1  0
 12 13  2  0
 13 14  1  0
 14 15  1  0
 15 16  2  0
 16 17  1  0
 17 18  2  0
 18 19  1  0
  5 20  2  0
 20  2  1  0
 19 11  2  0
 19 14  1  0
M  END
>  <fragmenstein_mode>  (67) 
expansion

>  <name>  (67) 
HPYHQOLRNIITQK-UHFFFAOYSA-N

>  <fragmenstein_runtime>  (67) 
3.483224

>  <HIPPO Compound ID>  (67) 
32769

>  <SLURM_JOB_NAME>  (67) 
BulkDock.place:Flavi_NS5_RdRp:RdRp_knitwork_green_site_rna_tunnel_impure_split4000_batch006

>  <ref_mols>  (67) 
d0378a,3vws-b

>  <Multi-SuCOS>  (67) 
0.62358

>  <tags>  (67) 
['Fragmenstein placed', 'RdRp_knitwork_green_site_rna_tunnel_impure_fragalysis.sdf Pose OK']

>  <scratch_subdir>  (67) 
/opt/xchem-fragalysis-2/maxwin/BulkDock/SCRATCH/220457/C32769-P217

>  <energy_score>  (67) 
-7.729844

>  <fragmenstein_error>  (67) 
None

>  <csv_name>  (67) 
RdRp_knitwork_green_site_rna_tunnel_impure_split4000_batch006.csv

>  <merge_set>  (67) 
RdRp_knitwork_green_site_rna_tunnel_impure_fragalysis.sdf

>  <original ID>  (67) 
HPYHQOLRNIITQK-UHFFFAOYSA-N

>  <HIPPO Pose ID>  (67) 
169094

>  <fragmenstein_outcome>  (67) 
acceptable

>  <exports>  (67) 
['/opt/xchem-fragalysis-2/maxwin/BulkDock/OUTPUTS/RdRp_knitwork_green_site_rna_tunnel_impure_split4000_batch006_220457.sdf', '/opt/xchem-fragalysis-2/maxwin/BulkDock/OUTPUTS/RdRp_knitwork_green_site_rna_tunnel_impure_fragalysis.sdf']

>  <SLURM_JOB_ID>  (67) 
220457

>  <distance_score>  (67) 
0.915795

>  <original SMILES>  (67) 
Cn1cnc(CCNC(=O)c2ccn3ccccc23)c1

>  <alias>  (67) 
None

>  <ref_pdb>  (67) 
3vws-b

>  <inchikey>  (67) 
HPYHQOLRNIITQK-UHFFFAOYSA-N

$$$$
QOVYNMYGKOQULZ-UHFFFAOYSA-N
     RDKit          3D

 12 12  0  0  0  0  0  0  0  0999 V2000
  -26.5834  -29.9430  -22.9669 C   0  0  0  0  0  0  0  0  0  0  0  0
  -26.5297  -29.8628  -21.4326 C   0  0  0  0  0  0  0  0  0  0  0  0
  -26.9999  -28.7189  -20.6060 N   0  0  0  0  0  0  0  0  0  0  0  0
  -26.3948  -28.0135  -21.6805 O   0  0  0  0  0  0  0  0  0  0  0  0
  -25.6958  -26.8971  -21.1400 C   0  0  0  0  0  0  0  0  0  0  0  0
  -28.4259  -28.8741  -20.2316 C   0  0  0  0  0  0  0  0  0  0  0  0
  -29.3968  -28.5162  -20.7797 O   0  0  0  0  0  0  0  0  0  0  0  0
  -28.5116  -29.5074  -18.9061 C   0  0  0  0  0  0  0  0  0  0  0  0
  -29.6274  -30.0198  -18.2697 C   0  0  0  0  0  0  0  0  0  0  0  0
  -29.4474  -30.4272  -16.9561 N   0  0  0  0  0  0  0  0  0  0  0  0
  -28.1984  -30.2270  -16.6074 C   0  0  0  0  0  0  0  0  0  0  0  0
  -27.1815  -29.5636  -17.8060 S   0  0  0  0  0  0  0  0  0  0  0  0
  1  2  1  0
  2  3  1  0
  3  4  1  0
  4  5  1  0
  3  6  1  0
  6  7  2  0
  6  8  1  0
  8  9  2  0
  9 10  1  0
 10 11  2  0
 11 12  1  0
 12  8  1  0
M  END
>  <fragmenstein_mode>  (68) 
expansion

>  <name>  (68) 
QOVYNMYGKOQULZ-UHFFFAOYSA-N

>  <fragmenstein_runtime>  (68) 
1.995194

>  <HIPPO Compound ID>  (68) 
49409

>  <SLURM_JOB_NAME>  (68) 
BulkDock.place:Flavi_NS5_RdRp:RdRp_knitwork_green_site_rna_tunnel_impure_split4000_batch004

>  <ref_mols>  (68) 
z0496a,z0628a

>  <Multi-SuCOS>  (68) 
0.687889

>  <tags>  (68) 
['Fragmenstein placed', 'RdRp_knitwork_green_site_rna_tunnel_impure_fragalysis.sdf Pose OK']

>  <scratch_subdir>  (68) 
/opt/xchem-fragalysis-2/maxwin/BulkDock/SCRATCH/220455/C49409-P136

>  <energy_score>  (68) 
-4.767393

>  <fragmenstein_error>  (68) 
None

>  <csv_name>  (68) 
RdRp_knitwork_green_site_rna_tunnel_impure_split4000_batch004.csv

>  <merge_set>  (68) 
RdRp_knitwork_green_site_rna_tunnel_impure_fragalysis.sdf

>  <original ID>  (68) 
QOVYNMYGKOQULZ-UHFFFAOYSA-N

>  <HIPPO Pose ID>  (68) 
169165

>  <fragmenstein_outcome>  (68) 
acceptable

>  <exports>  (68) 
['/opt/xchem-fragalysis-2/maxwin/BulkDock/OUTPUTS/RdRp_knitwork_green_site_rna_tunnel_impure_split4000_batch004_220455.sdf', '/opt/xchem-fragalysis-2/maxwin/BulkDock/OUTPUTS/RdRp_knitwork_green_site_rna_tunnel_impure_fragalysis.sdf']

>  <SLURM_JOB_ID>  (68) 
220455

>  <distance_score>  (68) 
0.949553

>  <original SMILES>  (68) 
CCN(OC)C(=O)c1cncs1

>  <alias>  (68) 
None

>  <ref_pdb>  (68) 
z0496a

>  <inchikey>  (68) 
QOVYNMYGKOQULZ-UHFFFAOYSA-N

$$$$
UQPOZDSOTVJLRR-UHFFFAOYSA-N
     RDKit          3D

 17 19  0  0  0  0  0  0  0  0999 V2000
  -27.8087  -33.6726  -19.0606 N   0  0  0  0  0  0  0  0  0  0  0  0
  -27.3400  -32.6827  -19.4433 C   0  0  0  0  0  0  0  0  0  0  0  0
  -26.7468  -31.5172  -19.9944 C   0  0  0  0  0  0  0  0  0  0  0  0
  -26.2908  -31.3917  -21.2823 C   0  0  0  0  0  0  0  0  0  0  0  0
  -25.7733  -30.1542  -21.4855 N   0  0  0  0  0  0  0  0  0  0  0  0
  -25.8529  -29.5301  -20.3207 C   0  0  0  0  0  0  0  0  0  0  0  0
  -25.1463  -28.1400  -20.1774 C   0  0  0  0  0  0  0  0  0  0  0  0
  -24.5653  -27.4805  -21.2860 C   0  0  0  0  0  0  0  0  0  0  0  0
  -24.2619  -26.2311  -20.8213 C   0  0  0  0  0  0  0  0  0  0  0  0
  -24.4694  -26.2675  -19.4766 N   0  0  0  0  0  0  0  0  0  0  0  0
  -25.0164  -27.4215  -19.0575 N   0  0  0  0  0  0  0  0  0  0  0  0
  -26.5722  -30.2748  -19.3902 N   0  0  0  0  0  0  0  0  0  0  0  0
  -27.1140  -29.8859  -18.1216 C   0  0  0  0  0  0  0  0  0  0  0  0
  -27.2854  -28.6126  -17.5491 C   0  0  0  0  0  0  0  0  0  0  0  0
  -27.8971  -28.8430  -16.3382 C   0  0  0  0  0  0  0  0  0  0  0  0
  -28.1052  -30.1855  -16.2704 N   0  0  0  0  0  0  0  0  0  0  0  0
  -27.6389  -30.8392  -17.3412 N   0  0  0  0  0  0  0  0  0  0  0  0
  1  2  3  0
  2  3  1  0
  3  4  2  0
  4  5  1  0
  5  6  2  0
  6  7  1  0
  7  8  1  0
  8  9  2  0
  9 10  1  0
 10 11  1  0
  6 12  1  0
 12 13  1  0
 13 14  1  0
 14 15  2  0
 15 16  1  0
 16 17  1  0
 12  3  1  0
 17 13  2  0
 11  7  2  0
M  END
>  <fragmenstein_mode>  (69) 
expansion

>  <name>  (69) 
UQPOZDSOTVJLRR-UHFFFAOYSA-N

>  <fragmenstein_runtime>  (69) 
2.863893

>  <HIPPO Compound ID>  (69) 
23525

>  <SLURM_JOB_NAME>  (69) 
BulkDock.place:Flavi_NS5_RdRp:RdRp_knitwork_green_site_rna_tunnel_impure_split4000_batch007

>  <ref_mols>  (69) 
d0378a,z0936a

>  <Multi-SuCOS>  (69) 
0.479932

>  <tags>  (69) 
['Fragmenstein placed', 'RdRp_knitwork_green_site_rna_tunnel_impure_fragalysis.sdf Pose OK']

>  <scratch_subdir>  (69) 
/opt/xchem-fragalysis-2/maxwin/BulkDock/SCRATCH/220458/C23525-P1

>  <energy_score>  (69) 
-45.518216

>  <fragmenstein_error>  (69) 
None

>  <csv_name>  (69) 
RdRp_knitwork_green_site_rna_tunnel_impure_split4000_batch007.csv

>  <merge_set>  (69) 
RdRp_knitwork_green_site_rna_tunnel_impure_fragalysis.sdf

>  <original ID>  (69) 
UQPOZDSOTVJLRR-UHFFFAOYSA-N

>  <HIPPO Pose ID>  (69) 
169571

>  <fragmenstein_outcome>  (69) 
acceptable

>  <exports>  (69) 
['/opt/xchem-fragalysis-2/maxwin/BulkDock/OUTPUTS/RdRp_knitwork_green_site_rna_tunnel_impure_split4000_batch007_220458.sdf', '/opt/xchem-fragalysis-2/maxwin/BulkDock/OUTPUTS/RdRp_knitwork_green_site_rna_tunnel_impure_fragalysis.sdf']

>  <SLURM_JOB_ID>  (69) 
220458

>  <distance_score>  (69) 
0.914308

>  <original SMILES>  (69) 
N#Cc1cnc(-c2cc[nH]n2)n1-c1cc[nH]n1

>  <alias>  (69) 
None

>  <ref_pdb>  (69) 
d0378a

>  <inchikey>  (69) 
UQPOZDSOTVJLRR-UHFFFAOYSA-N

$$$$
OQBHEJNTIMZLDP-UHFFFAOYSA-N
     RDKit          3D

 18 18  0  0  0  0  0  0  0  0999 V2000
  -27.0561  -30.6015  -20.3322 O   0  0  0  0  0  0  0  0  0  0  0  0
  -27.4478  -29.5375  -19.8757 C   0  0  0  0  0  0  0  0  0  0  0  0
  -26.8703  -28.1638  -20.1108 C   0  0  0  0  0  0  0  0  0  0  0  0
  -26.2405  -27.9712  -21.4525 C   0  0  0  0  0  0  0  0  0  0  0  0
  -25.4618  -26.8824  -21.8056 C   0  0  0  0  0  0  0  0  0  0  0  0
  -24.8614  -27.0650  -23.3993 S   0  0  0  0  0  0  0  0  0  0  0  0
  -25.6768  -28.5646  -23.5152 C   0  0  0  0  0  0  0  0  0  0  0  0
  -26.3959  -28.9063  -22.4661 N   0  0  0  0  0  0  0  0  0  0  0  0
  -28.5019  -29.4535  -19.0006 O   0  0  0  0  0  0  0  0  0  0  0  0
  -29.3583  -30.6261  -19.0440 C   0  0  0  0  0  0  0  0  0  0  0  0
  -30.0713  -30.8634  -17.7441 C   0  0  0  0  0  0  0  0  0  0  0  0
  -29.1722  -31.0095  -16.7371 F   0  0  0  0  0  0  0  0  0  0  0  0
  -30.7926  -32.0018  -17.7699 F   0  0  0  0  0  0  0  0  0  0  0  0
  -30.8805  -29.8534  -17.3767 F   0  0  0  0  0  0  0  0  0  0  0  0
  -30.3887  -30.4590  -20.1276 C   0  0  0  0  0  0  0  0  0  0  0  0
  -30.9866  -31.6199  -20.4363 F   0  0  0  0  0  0  0  0  0  0  0  0
  -29.8116  -29.9897  -21.2619 F   0  0  0  0  0  0  0  0  0  0  0  0
  -31.3613  -29.5961  -19.8012 F   0  0  0  0  0  0  0  0  0  0  0  0
  1  2  2  0
  2  3  1  0
  3  4  1  0
  4  5  2  0
  5  6  1  0
  6  7  1  0
  7  8  2  0
  2  9  1  0
  9 10  1  0
 10 11  1  0
 11 12  1  0
 11 13  1  0
 11 14  1  0
 10 15  1  0
 15 16  1  0
 15 17  1  0
 15 18  1  0
  8  4  1  0
M  END
>  <fragmenstein_mode>  (70) 
expansion

>  <name>  (70) 
OQBHEJNTIMZLDP-UHFFFAOYSA-N

>  <fragmenstein_runtime>  (70) 
4.718109

>  <HIPPO Compound ID>  (70) 
50077

>  <SLURM_JOB_NAME>  (70) 
BulkDock.place:Flavi_NS5_RdRp:RdRp_knitwork_green_site_rna_tunnel_impure_split4000_batch004

>  <ref_mols>  (70) 
z0496a,z0628a

>  <Multi-SuCOS>  (70) 
0.563099

>  <tags>  (70) 
['Fragmenstein placed', 'RdRp_knitwork_green_site_rna_tunnel_impure_fragalysis.sdf Pose OK']

>  <scratch_subdir>  (70) 
/opt/xchem-fragalysis-2/maxwin/BulkDock/SCRATCH/220455/C50077-P136

>  <energy_score>  (70) 
-79.525708

>  <fragmenstein_error>  (70) 
None

>  <csv_name>  (70) 
RdRp_knitwork_green_site_rna_tunnel_impure_split4000_batch004.csv

>  <merge_set>  (70) 
RdRp_knitwork_green_site_rna_tunnel_impure_fragalysis.sdf

>  <original ID>  (70) 
OQBHEJNTIMZLDP-UHFFFAOYSA-N

>  <HIPPO Pose ID>  (70) 
169572

>  <fragmenstein_outcome>  (70) 
acceptable

>  <exports>  (70) 
['/opt/xchem-fragalysis-2/maxwin/BulkDock/OUTPUTS/RdRp_knitwork_green_site_rna_tunnel_impure_split4000_batch004_220455.sdf', '/opt/xchem-fragalysis-2/maxwin/BulkDock/OUTPUTS/RdRp_knitwork_green_site_rna_tunnel_impure_fragalysis.sdf']

>  <SLURM_JOB_ID>  (70) 
220455

>  <distance_score>  (70) 
0.924195

>  <original SMILES>  (70) 
O=C(Cc1cscn1)OC(C(F)(F)F)C(F)(F)F

>  <alias>  (70) 
None

>  <ref_pdb>  (70) 
z0496a

>  <inchikey>  (70) 
OQBHEJNTIMZLDP-UHFFFAOYSA-N

$$$$
ZCPXJTICVQPCTA-UHFFFAOYSA-N
     RDKit          3D

 17 19  0  0  0  0  0  0  0  0999 V2000
  -27.8578  -33.6286  -19.2994 N   0  0  0  0  0  0  0  0  0  0  0  0
  -27.3723  -32.6299  -19.6346 C   0  0  0  0  0  0  0  0  0  0  0  0
  -26.7692  -31.4431  -20.1230 C   0  0  0  0  0  0  0  0  0  0  0  0
  -26.3246  -31.2327  -21.4056 C   0  0  0  0  0  0  0  0  0  0  0  0
  -25.8138  -29.9787  -21.5360 N   0  0  0  0  0  0  0  0  0  0  0  0
  -25.8599  -29.4463  -20.3286 C   0  0  0  0  0  0  0  0  0  0  0  0
  -25.0730  -28.1343  -20.0723 C   0  0  0  0  0  0  0  0  0  0  0  0
  -24.4773  -27.3573  -21.0836 C   0  0  0  0  0  0  0  0  0  0  0  0
  -23.9236  -26.2492  -20.5974 N   0  0  0  0  0  0  0  0  0  0  0  0
  -24.0609  -26.3747  -19.2700 N   0  0  0  0  0  0  0  0  0  0  0  0
  -24.7302  -27.5069  -18.9009 C   0  0  0  0  0  0  0  0  0  0  0  0
  -26.5939  -30.2400  -19.4539 N   0  0  0  0  0  0  0  0  0  0  0  0
  -27.1434  -29.8939  -18.1813 C   0  0  0  0  0  0  0  0  0  0  0  0
  -27.3951  -28.6226  -17.6324 C   0  0  0  0  0  0  0  0  0  0  0  0
  -27.9459  -28.8755  -16.3973 C   0  0  0  0  0  0  0  0  0  0  0  0
  -28.0682  -30.2299  -16.3073 N   0  0  0  0  0  0  0  0  0  0  0  0
  -27.5817  -30.8696  -17.3799 N   0  0  0  0  0  0  0  0  0  0  0  0
  1  2  3  0
  2  3  1  0
  3  4  2  0
  4  5  1  0
  5  6  2  0
  6  7  1  0
  7  8  1  0
  8  9  2  0
  9 10  1  0
 10 11  1  0
  6 12  1  0
 12 13  1  0
 13 14  1  0
 14 15  2  0
 15 16  1  0
 16 17  1  0
 12  3  1  0
 17 13  2  0
 11  7  2  0
M  END
>  <fragmenstein_mode>  (71) 
expansion

>  <name>  (71) 
ZCPXJTICVQPCTA-UHFFFAOYSA-N

>  <fragmenstein_runtime>  (71) 
2.538759

>  <HIPPO Compound ID>  (71) 
23526

>  <SLURM_JOB_NAME>  (71) 
BulkDock.place:Flavi_NS5_RdRp:RdRp_knitwork_green_site_rna_tunnel_impure_split4000_batch007

>  <ref_mols>  (71) 
d0378a,z0936a

>  <Multi-SuCOS>  (71) 
0.507169

>  <tags>  (71) 
['Fragmenstein placed', 'RdRp_knitwork_green_site_rna_tunnel_impure_fragalysis.sdf Pose OK']

>  <scratch_subdir>  (71) 
/opt/xchem-fragalysis-2/maxwin/BulkDock/SCRATCH/220458/C23526-P1

>  <energy_score>  (71) 
-42.447088

>  <fragmenstein_error>  (71) 
None

>  <csv_name>  (71) 
RdRp_knitwork_green_site_rna_tunnel_impure_split4000_batch007.csv

>  <merge_set>  (71) 
RdRp_knitwork_green_site_rna_tunnel_impure_fragalysis.sdf

>  <original ID>  (71) 
ZCPXJTICVQPCTA-UHFFFAOYSA-N

>  <HIPPO Pose ID>  (71) 
169594

>  <fragmenstein_outcome>  (71) 
acceptable

>  <exports>  (71) 
['/opt/xchem-fragalysis-2/maxwin/BulkDock/OUTPUTS/RdRp_knitwork_green_site_rna_tunnel_impure_split4000_batch007_220458.sdf', '/opt/xchem-fragalysis-2/maxwin/BulkDock/OUTPUTS/RdRp_knitwork_green_site_rna_tunnel_impure_fragalysis.sdf']

>  <SLURM_JOB_ID>  (71) 
220458

>  <distance_score>  (71) 
0.918808

>  <original SMILES>  (71) 
N#Cc1cnc(-c2cn[nH]c2)n1-c1cc[nH]n1

>  <alias>  (71) 
None

>  <ref_pdb>  (71) 
d0378a

>  <inchikey>  (71) 
ZCPXJTICVQPCTA-UHFFFAOYSA-N

$$$$
NWPRNVBNKJKQOB-VIFPVBQESA-N
     RDKit          3D

 16 17  0  0  0  0  0  0  0  0999 V2000
  -26.7168  -30.4911  -19.8257 C   0  0  0  0  0  0  0  0  0  0  0  0
  -25.4396  -30.8644  -20.5483 C   0  0  0  0  0  0  0  0  0  0  0  0
  -25.4336  -32.3218  -20.9364 C   0  0  0  0  0  0  0  0  0  0  0  0
  -26.1401  -33.1867  -20.4393 O   0  0  0  0  0  0  0  0  0  0  0  0
  -24.5197  -32.5101  -21.9241 O   0  0  0  0  0  0  0  0  0  0  0  0
  -24.3186  -33.8690  -22.3521 C   0  0  1  0  0  0  0  0  0  0  0  0
  -24.2414  -33.8404  -23.8723 C   0  0  0  0  0  0  0  0  0  0  0  0
  -23.0792  -34.4469  -21.7474 C   0  0  0  0  0  0  0  0  0  0  0  0
  -22.8819  -35.7822  -21.4476 C   0  0  0  0  0  0  0  0  0  0  0  0
  -21.6675  -35.9818  -20.8837 O   0  0  0  0  0  0  0  0  0  0  0  0
  -21.0624  -34.7711  -20.7954 C   0  0  0  0  0  0  0  0  0  0  0  0
  -19.8035  -34.5448  -20.2434 C   0  0  0  0  0  0  0  0  0  0  0  0
  -19.3401  -33.2258  -20.2633 C   0  0  0  0  0  0  0  0  0  0  0  0
  -20.1142  -32.1995  -20.8110 C   0  0  0  0  0  0  0  0  0  0  0  0
  -21.3849  -32.4606  -21.3487 C   0  0  0  0  0  0  0  0  0  0  0  0
  -21.8750  -33.7825  -21.3388 C   0  0  0  0  0  0  0  0  0  0  0  0
  1  2  1  0
  2  3  1  0
  3  4  2  0
  3  5  1  0
  5  6  1  0
  6  7  1  6
  6  8  1  0
  8  9  2  0
  9 10  1  0
 10 11  1  0
 11 12  2  0
 12 13  1  0
 13 14  2  0
 14 15  1  0
 15 16  2  0
 16  8  1  0
 16 11  1  0
M  END
>  <fragmenstein_mode>  (72) 
expansion

>  <name>  (72) 
NWPRNVBNKJKQOB-VIFPVBQESA-N

>  <fragmenstein_runtime>  (72) 
2.440196

>  <HIPPO Compound ID>  (72) 
62701

>  <SLURM_JOB_NAME>  (72) 
BulkDock.place:Flavi_NS5_RdRp:RdRp_knitwork_green_site_rna_tunnel_impure_split4000_batch006

>  <ref_mols>  (72) 
z0628a,3vws-b

>  <Multi-SuCOS>  (72) 
0.671783

>  <tags>  (72) 
['Fragmenstein placed', 'RdRp_knitwork_green_site_rna_tunnel_impure_fragalysis.sdf Pose OK']

>  <scratch_subdir>  (72) 
/opt/xchem-fragalysis-2/maxwin/BulkDock/SCRATCH/220457/C62701-P217

>  <energy_score>  (72) 
-26.408397

>  <fragmenstein_error>  (72) 
None

>  <csv_name>  (72) 
RdRp_knitwork_green_site_rna_tunnel_impure_split4000_batch006.csv

>  <merge_set>  (72) 
RdRp_knitwork_green_site_rna_tunnel_impure_fragalysis.sdf

>  <original ID>  (72) 
NWPRNVBNKJKQOB-VIFPVBQESA-N

>  <HIPPO Pose ID>  (72) 
169655

>  <fragmenstein_outcome>  (72) 
acceptable

>  <exports>  (72) 
['/opt/xchem-fragalysis-2/maxwin/BulkDock/OUTPUTS/RdRp_knitwork_green_site_rna_tunnel_impure_split4000_batch006_220457.sdf', '/opt/xchem-fragalysis-2/maxwin/BulkDock/OUTPUTS/RdRp_knitwork_green_site_rna_tunnel_impure_fragalysis.sdf']

>  <SLURM_JOB_ID>  (72) 
220457

>  <distance_score>  (72) 
0.82264

>  <original SMILES>  (72) 
CCC(=O)O[C@@H](C)c1coc2ccccc12

>  <alias>  (72) 
None

>  <ref_pdb>  (72) 
3vws-b

>  <inchikey>  (72) 
NWPRNVBNKJKQOB-VIFPVBQESA-N

$$$$
ILMYCSNCNCYBQT-CQSZACIVSA-N
     RDKit          3D

 27 30  0  0  0  0  0  0  0  0999 V2000
  -25.2198  -28.9043  -23.0672 C   0  0  0  0  0  0  0  0  0  0  0  0
  -25.9988  -30.0345  -22.4186 C   0  0  1  0  0  0  0  0  0  0  0  0
  -25.1368  -31.0816  -21.9193 N   0  0  0  0  0  0  0  0  0  0  0  0
  -25.4422  -32.2714  -20.9665 C   0  0  0  0  0  0  0  0  0  0  0  0
  -26.4180  -32.5418  -20.3793 O   0  0  0  0  0  0  0  0  0  0  0  0
  -24.1676  -33.0816  -20.7770 C   0  0  0  0  0  0  0  0  0  0  0  0
  -23.2640  -33.1978  -21.9230 N   0  0  0  0  0  0  0  0  0  0  0  0
  -23.7813  -34.0470  -22.9023 C   0  0  0  0  0  0  0  0  0  0  0  0
  -24.9602  -34.0477  -23.2521 O   0  0  0  0  0  0  0  0  0  0  0  0
  -22.8350  -35.0758  -23.4366 C   0  0  0  0  0  0  0  0  0  0  0  0
  -22.6866  -36.1043  -22.3262 C   0  0  0  0  0  0  0  0  0  0  0  0
  -21.9326  -35.7462  -21.1595 O   0  0  0  0  0  0  0  0  0  0  0  0
  -21.3176  -34.5299  -21.1258 C   0  0  0  0  0  0  0  0  0  0  0  0
  -20.0309  -34.5293  -20.5774 C   0  0  0  0  0  0  0  0  0  0  0  0
  -19.2953  -33.3465  -20.4965 C   0  0  0  0  0  0  0  0  0  0  0  0
  -19.8553  -32.1527  -20.9424 C   0  0  0  0  0  0  0  0  0  0  0  0
  -21.1591  -32.1354  -21.4367 C   0  0  0  0  0  0  0  0  0  0  0  0
  -21.9016  -33.3176  -21.5193 C   0  0  0  0  0  0  0  0  0  0  0  0
  -26.7602  -29.5857  -21.2150 C   0  0  0  0  0  0  0  0  0  0  0  0
  -28.0977  -29.6350  -20.8675 C   0  0  0  0  0  0  0  0  0  0  0  0
  -28.1263  -29.6623  -19.4442 C   0  0  0  0  0  0  0  0  0  0  0  0
  -29.0995  -29.9048  -18.4598 C   0  0  0  0  0  0  0  0  0  0  0  0
  -28.6972  -29.9799  -17.1179 C   0  0  0  0  0  0  0  0  0  0  0  0
  -27.3579  -29.8211  -16.7566 C   0  0  0  0  0  0  0  0  0  0  0  0
  -26.3815  -29.5456  -17.7147 C   0  0  0  0  0  0  0  0  0  0  0  0
  -26.8130  -29.4852  -19.0346 C   0  0  0  0  0  0  0  0  0  0  0  0
  -26.0010  -29.3276  -20.1061 O   0  0  0  0  0  0  0  0  0  0  0  0
  2  1  1  1
  2  3  1  0
  3  4  1  0
  4  5  2  0
  4  6  1  0
  6  7  1  0
  7  8  1  0
  8  9  2  0
  8 10  1  0
 10 11  1  0
 11 12  1  0
 12 13  1  0
 13 14  2  0
 14 15  1  0
 15 16  2  0
 16 17  1  0
 17 18  2  0
  2 19  1  0
 19 20  2  0
 20 21  1  0
 21 22  2  0
 22 23  1  0
 23 24  2  0
 24 25  1  0
 25 26  2  0
 26 27  1  0
 18  7  1  0
 27 19  1  0
 18 13  1  0
 26 21  1  0
M  END
>  <fragmenstein_mode>  (73) 
expansion

>  <name>  (73) 
ILMYCSNCNCYBQT-CQSZACIVSA-N

>  <fragmenstein_runtime>  (73) 
6.409413

>  <HIPPO Compound ID>  (73) 
62609

>  <SLURM_JOB_NAME>  (73) 
BulkDock.place:Flavi_NS5_RdRp:RdRp_knitwork_green_site_rna_tunnel_impure_split4000_batch019

>  <ref_mols>  (73) 
z0922a,3vws-b

>  <Multi-SuCOS>  (73) 
0.658578

>  <tags>  (73) 
['Fragmenstein placed', 'RdRp_knitwork_green_site_rna_tunnel_impure_fragalysis.sdf Pose OK']

>  <scratch_subdir>  (73) 
/opt/xchem-fragalysis-2/maxwin/BulkDock/SCRATCH/220470/C62609-P191

>  <energy_score>  (73) 
-12.968178

>  <fragmenstein_error>  (73) 
None

>  <csv_name>  (73) 
RdRp_knitwork_green_site_rna_tunnel_impure_split4000_batch019.csv

>  <merge_set>  (73) 
RdRp_knitwork_green_site_rna_tunnel_impure_fragalysis.sdf

>  <original ID>  (73) 
ILMYCSNCNCYBQT-CQSZACIVSA-N

>  <HIPPO Pose ID>  (73) 
169826

>  <fragmenstein_outcome>  (73) 
acceptable

>  <exports>  (73) 
['/opt/xchem-fragalysis-2/maxwin/BulkDock/OUTPUTS/RdRp_knitwork_green_site_rna_tunnel_impure_split4000_batch019_220470.sdf', '/opt/xchem-fragalysis-2/maxwin/BulkDock/OUTPUTS/RdRp_knitwork_green_site_rna_tunnel_impure_fragalysis.sdf']

>  <SLURM_JOB_ID>  (73) 
220470

>  <distance_score>  (73) 
0.913352

>  <original SMILES>  (73) 
C[C@@H](NC(=O)CN1C(=O)CCOc2ccccc21)c1cc2ccccc2o1

>  <alias>  (73) 
None

>  <ref_pdb>  (73) 
z0922a

>  <inchikey>  (73) 
ILMYCSNCNCYBQT-CQSZACIVSA-N

$$$$
DZYGAGZGZOLVCI-UHFFFAOYSA-N
     RDKit          3D

 15 17  0  0  0  0  0  0  0  0999 V2000
  -25.0568  -28.4121  -24.2545 C   0  0  0  0  0  0  0  0  0  0  0  0
  -26.1950  -29.2009  -24.2993 C   0  0  0  0  0  0  0  0  0  0  0  0
  -26.8545  -29.4817  -23.1103 C   0  0  0  0  0  0  0  0  0  0  0  0
  -26.3385  -28.9745  -21.9258 C   0  0  0  0  0  0  0  0  0  0  0  0
  -26.9485  -29.2433  -20.6496 C   0  0  0  0  0  0  0  0  0  0  0  0
  -26.4401  -29.3870  -19.3809 C   0  0  0  0  0  0  0  0  0  0  0  0
  -27.5294  -29.7155  -18.5480 C   0  0  0  0  0  0  0  0  0  0  0  0
  -27.6940  -30.0032  -17.1881 C   0  0  0  0  0  0  0  0  0  0  0  0
  -28.9763  -30.2429  -16.6962 C   0  0  0  0  0  0  0  0  0  0  0  0
  -30.0747  -30.2256  -17.5526 C   0  0  0  0  0  0  0  0  0  0  0  0
  -29.9377  -29.9772  -18.9221 C   0  0  0  0  0  0  0  0  0  0  0  0
  -28.6495  -29.7090  -19.3654 C   0  0  0  0  0  0  0  0  0  0  0  0
  -28.2990  -29.4070  -20.6409 O   0  0  0  0  0  0  0  0  0  0  0  0
  -25.2204  -28.2267  -21.8596 N   0  0  0  0  0  0  0  0  0  0  0  0
  -24.6071  -27.9669  -23.0256 C   0  0  0  0  0  0  0  0  0  0  0  0
  1  2  2  0
  2  3  1  0
  3  4  2  0
  4  5  1  0
  5  6  2  0
  6  7  1  0
  7  8  2  0
  8  9  1  0
  9 10  2  0
 10 11  1  0
 11 12  2  0
 12 13  1  0
  4 14  1  0
 14 15  2  0
 15  1  1  0
 13  5  1  0
 12  7  1  0
M  END
>  <fragmenstein_mode>  (74) 
expansion

>  <name>  (74) 
DZYGAGZGZOLVCI-UHFFFAOYSA-N

>  <fragmenstein_runtime>  (74) 
18.012447

>  <HIPPO Compound ID>  (74) 
26829

>  <SLURM_JOB_NAME>  (74) 
BulkDock.place:Flavi_NS5_RdRp:RdRp_knitwork_green_site_rna_tunnel_impure_split4000_batch003

>  <ref_mols>  (74) 
z0041a,z0386a

>  <Multi-SuCOS>  (74) 
0.723711

>  <tags>  (74) 
['Fragmenstein placed', 'RdRp_knitwork_green_site_rna_tunnel_impure_fragalysis.sdf Pose OK']

>  <scratch_subdir>  (74) 
/opt/xchem-fragalysis-2/maxwin/BulkDock/SCRATCH/220454/C26829-P121

>  <energy_score>  (74) 
-18.543174

>  <fragmenstein_error>  (74) 
None

>  <csv_name>  (74) 
RdRp_knitwork_green_site_rna_tunnel_impure_split4000_batch003.csv

>  <merge_set>  (74) 
RdRp_knitwork_green_site_rna_tunnel_impure_fragalysis.sdf

>  <original ID>  (74) 
DZYGAGZGZOLVCI-UHFFFAOYSA-N

>  <HIPPO Pose ID>  (74) 
170259

>  <fragmenstein_outcome>  (74) 
acceptable

>  <exports>  (74) 
['/opt/xchem-fragalysis-2/maxwin/BulkDock/OUTPUTS/RdRp_knitwork_green_site_rna_tunnel_impure_split4000_batch003_220454.sdf', '/opt/xchem-fragalysis-2/maxwin/BulkDock/OUTPUTS/RdRp_knitwork_green_site_rna_tunnel_impure_fragalysis.sdf']

>  <SLURM_JOB_ID>  (74) 
220454

>  <distance_score>  (74) 
0.899214

>  <original SMILES>  (74) 
c1ccc(-c2cc3ccccc3o2)nc1

>  <alias>  (74) 
None

>  <ref_pdb>  (74) 
z0386a

>  <inchikey>  (74) 
DZYGAGZGZOLVCI-UHFFFAOYSA-N

$$$$
LEUVPZPWDLRISO-VHSXEESVSA-N
     RDKit          3D

 20 21  0  0  0  0  0  0  0  0999 V2000
  -25.3211  -29.4653  -22.2152 C   0  0  0  0  0  0  0  0  0  0  0  0
  -25.0958  -30.3310  -20.9870 C   0  0  1  0  0  0  0  0  0  0  0  0
  -26.0473  -29.9951  -19.8229 C   0  0  0  0  0  0  0  0  0  0  0  0
  -27.5439  -30.1712  -20.0119 C   0  0  0  0  0  0  0  0  0  0  0  0
  -28.1591  -29.8271  -18.8490 F   0  0  0  0  0  0  0  0  0  0  0  0
  -28.0166  -29.3096  -20.9415 F   0  0  0  0  0  0  0  0  0  0  0  0
  -25.0315  -31.8069  -21.3583 C   0  0  0  0  0  0  0  0  0  0  0  0
  -25.6919  -32.6845  -20.8283 O   0  0  0  0  0  0  0  0  0  0  0  0
  -24.1025  -31.9765  -22.3405 O   0  0  0  0  0  0  0  0  0  0  0  0
  -23.7535  -33.2903  -22.8392 C   0  0  2  0  0  0  0  0  0  0  0  0
  -24.9361  -34.0440  -23.4258 C   0  0  0  0  0  0  0  0  0  0  0  0
  -22.8715  -34.0609  -21.9166 C   0  0  0  0  0  0  0  0  0  0  0  0
  -22.9855  -35.3819  -21.5257 C   0  0  0  0  0  0  0  0  0  0  0  0
  -21.9210  -35.7632  -20.7784 O   0  0  0  0  0  0  0  0  0  0  0  0
  -21.1116  -34.6811  -20.6538 C   0  0  0  0  0  0  0  0  0  0  0  0
  -19.9002  -34.6559  -19.9686 C   0  0  0  0  0  0  0  0  0  0  0  0
  -19.2118  -33.4379  -19.9646 C   0  0  0  0  0  0  0  0  0  0  0  0
  -19.7281  -32.3130  -20.6139 C   0  0  0  0  0  0  0  0  0  0  0  0
  -20.9501  -32.3734  -21.2985 C   0  0  0  0  0  0  0  0  0  0  0  0
  -21.6573  -33.5917  -21.3203 C   0  0  0  0  0  0  0  0  0  0  0  0
  2  1  1  6
  2  3  1  0
  3  4  1  0
  4  5  1  0
  4  6  1  0
  2  7  1  0
  7  8  2  0
  7  9  1  0
  9 10  1  0
 10 11  1  1
 10 12  1  0
 12 13  2  0
 13 14  1  0
 14 15  1  0
 15 16  2  0
 16 17  1  0
 17 18  2  0
 18 19  1  0
 19 20  2  0
 20 12  1  0
 20 15  1  0
M  END
>  <fragmenstein_mode>  (75) 
expansion

>  <name>  (75) 
LEUVPZPWDLRISO-VHSXEESVSA-N

>  <fragmenstein_runtime>  (75) 
3.919333

>  <HIPPO Compound ID>  (75) 
62995

>  <SLURM_JOB_NAME>  (75) 
BulkDock.place:Flavi_NS5_RdRp:RdRp_knitwork_green_site_rna_tunnel_impure_split4000_batch006

>  <ref_mols>  (75) 
z0628a,3vws-b

>  <Multi-SuCOS>  (75) 
0.668737

>  <tags>  (75) 
['Fragmenstein placed', 'RdRp_knitwork_green_site_rna_tunnel_impure_fragalysis.sdf Pose OK']

>  <scratch_subdir>  (75) 
/opt/xchem-fragalysis-2/maxwin/BulkDock/SCRATCH/220457/C62995-P217

>  <energy_score>  (75) 
-52.141569

>  <fragmenstein_error>  (75) 
None

>  <csv_name>  (75) 
RdRp_knitwork_green_site_rna_tunnel_impure_split4000_batch006.csv

>  <merge_set>  (75) 
RdRp_knitwork_green_site_rna_tunnel_impure_fragalysis.sdf

>  <original ID>  (75) 
LEUVPZPWDLRISO-VHSXEESVSA-N

>  <HIPPO Pose ID>  (75) 
170433

>  <fragmenstein_outcome>  (75) 
acceptable

>  <exports>  (75) 
['/opt/xchem-fragalysis-2/maxwin/BulkDock/OUTPUTS/RdRp_knitwork_green_site_rna_tunnel_impure_split4000_batch006_220457.sdf', '/opt/xchem-fragalysis-2/maxwin/BulkDock/OUTPUTS/RdRp_knitwork_green_site_rna_tunnel_impure_fragalysis.sdf']

>  <SLURM_JOB_ID>  (75) 
220457

>  <distance_score>  (75) 
0.803377

>  <original SMILES>  (75) 
C[C@@H](CC(F)F)C(=O)O[C@H](C)c1coc2ccccc12

>  <alias>  (75) 
None

>  <ref_pdb>  (75) 
3vws-b

>  <inchikey>  (75) 
LEUVPZPWDLRISO-VHSXEESVSA-N

$$$$
DOAZXPPWTAPLGF-UHFFFAOYSA-N
     RDKit          3D

 12 13  0  0  0  0  0  0  0  0999 V2000
  -27.8516  -29.7809  -17.1708 O   0  0  0  0  0  0  0  0  0  0  0  0
  -28.2293  -29.8039  -18.3417 C   0  0  0  0  0  0  0  0  0  0  0  0
  -27.3549  -29.2163  -19.3832 C   0  0  0  0  0  0  0  0  0  0  0  0
  -27.7350  -29.1288  -20.6719 C   0  0  0  0  0  0  0  0  0  0  0  0
  -26.7713  -28.5706  -21.5764 C   0  0  0  0  0  0  0  0  0  0  0  0
  -26.0360  -27.3948  -21.5109 C   0  0  0  0  0  0  0  0  0  0  0  0
  -25.1961  -27.1353  -22.5759 N   0  0  0  0  0  0  0  0  0  0  0  0
  -25.2487  -28.1335  -23.4296 C   0  0  0  0  0  0  0  0  0  0  0  0
  -26.3536  -29.3857  -23.0443 S   0  0  0  0  0  0  0  0  0  0  0  0
  -29.1030  -29.6247  -21.1033 C   0  0  0  0  0  0  0  0  0  0  0  0
  -29.6324  -30.7384  -20.2093 C   0  0  0  0  0  0  0  0  0  0  0  0
  -29.5737  -30.3679  -18.7374 C   0  0  0  0  0  0  0  0  0  0  0  0
  1  2  2  0
  2  3  1  0
  3  4  2  0
  4  5  1  0
  5  6  2  0
  6  7  1  0
  7  8  2  0
  8  9  1  0
  4 10  1  0
 10 11  1  0
 11 12  1  0
 12  2  1  0
  9  5  1  0
M  END
>  <fragmenstein_mode>  (76) 
expansion

>  <name>  (76) 
DOAZXPPWTAPLGF-UHFFFAOYSA-N

>  <fragmenstein_runtime>  (76) 
1.279276

>  <HIPPO Compound ID>  (76) 
59763

>  <SLURM_JOB_NAME>  (76) 
BulkDock.place:Flavi_NS5_RdRp:RdRp_knitwork_green_site_rna_tunnel_impure_split4000_batch015

>  <ref_mols>  (76) 
z0496a,z1018a

>  <Multi-SuCOS>  (76) 
0.680165

>  <tags>  (76) 
['Fragmenstein placed', 'RdRp_knitwork_green_site_rna_tunnel_impure_fragalysis.sdf Pose OK']

>  <scratch_subdir>  (76) 
/opt/xchem-fragalysis-2/maxwin/BulkDock/SCRATCH/220466/C59763-P136

>  <energy_score>  (76) 
-46.94689

>  <fragmenstein_error>  (76) 
None

>  <csv_name>  (76) 
RdRp_knitwork_green_site_rna_tunnel_impure_split4000_batch015.csv

>  <merge_set>  (76) 
RdRp_knitwork_green_site_rna_tunnel_impure_fragalysis.sdf

>  <original ID>  (76) 
DOAZXPPWTAPLGF-UHFFFAOYSA-N

>  <HIPPO Pose ID>  (76) 
170575

>  <fragmenstein_outcome>  (76) 
acceptable

>  <exports>  (76) 
['/opt/xchem-fragalysis-2/maxwin/BulkDock/OUTPUTS/RdRp_knitwork_green_site_rna_tunnel_impure_split4000_batch015_220466.sdf', '/opt/xchem-fragalysis-2/maxwin/BulkDock/OUTPUTS/RdRp_knitwork_green_site_rna_tunnel_impure_fragalysis.sdf']

>  <SLURM_JOB_ID>  (76) 
220466

>  <distance_score>  (76) 
0.986666

>  <original SMILES>  (76) 
O=C1C=C(c2cncs2)CCC1

>  <alias>  (76) 
None

>  <ref_pdb>  (76) 
z0496a

>  <inchikey>  (76) 
DOAZXPPWTAPLGF-UHFFFAOYSA-N

$$$$
MEZKADOABRLSTR-UHFFFAOYSA-N
     RDKit          3D

 10 10  0  0  0  0  0  0  0  0999 V2000
  -24.9089  -29.5354  -16.2364 C   0  0  0  0  0  0  0  0  0  0  0  0
  -25.5729  -30.9008  -16.3256 C   0  0  0  0  0  0  0  0  0  0  0  0
  -26.7567  -30.9456  -17.1800 N   0  0  0  0  0  0  0  0  0  0  0  0
  -27.8551  -30.0881  -16.7209 C   0  0  0  0  0  0  0  0  0  0  0  0
  -29.1139  -30.2907  -17.5798 C   0  0  0  0  0  0  0  0  0  0  0  0
  -28.9790  -29.9039  -19.0215 C   0  0  0  0  0  0  0  0  0  0  0  0
  -29.9058  -30.1479  -20.0640 C   0  0  0  0  0  0  0  0  0  0  0  0
  -29.3211  -29.5949  -21.1718 C   0  0  0  0  0  0  0  0  0  0  0  0
  -28.1251  -29.0566  -20.8345 O   0  0  0  0  0  0  0  0  0  0  0  0
  -27.9044  -29.2425  -19.4821 N   0  0  0  0  0  0  0  0  0  0  0  0
  1  2  1  0
  2  3  1  0
  3  4  1  0
  4  5  1  0
  5  6  1  0
  6  7  1  0
  7  8  2  0
  8  9  1  0
  9 10  1  0
 10  6  2  0
M  END
>  <fragmenstein_mode>  (77) 
expansion

>  <name>  (77) 
MEZKADOABRLSTR-UHFFFAOYSA-N

>  <fragmenstein_runtime>  (77) 
1.557678

>  <HIPPO Compound ID>  (77) 
37531

>  <SLURM_JOB_NAME>  (77) 
BulkDock.place:Flavi_NS5_RdRp:RdRp_knitwork_green_site_rna_tunnel_impure_split4000_batch012

>  <ref_mols>  (77) 
z0496a,z0521a

>  <Multi-SuCOS>  (77) 
0.60327

>  <tags>  (77) 
['Fragmenstein placed', 'RdRp_knitwork_green_site_rna_tunnel_impure_fragalysis.sdf Pose OK']

>  <scratch_subdir>  (77) 
/opt/xchem-fragalysis-2/maxwin/BulkDock/SCRATCH/220463/C37531-P136

>  <energy_score>  (77) 
-36.935223

>  <fragmenstein_error>  (77) 
None

>  <csv_name>  (77) 
RdRp_knitwork_green_site_rna_tunnel_impure_split4000_batch012.csv

>  <merge_set>  (77) 
RdRp_knitwork_green_site_rna_tunnel_impure_fragalysis.sdf

>  <original ID>  (77) 
MEZKADOABRLSTR-UHFFFAOYSA-N

>  <HIPPO Pose ID>  (77) 
170584

>  <fragmenstein_outcome>  (77) 
acceptable

>  <exports>  (77) 
['/opt/xchem-fragalysis-2/maxwin/BulkDock/OUTPUTS/RdRp_knitwork_green_site_rna_tunnel_impure_split4000_batch012_220463.sdf', '/opt/xchem-fragalysis-2/maxwin/BulkDock/OUTPUTS/RdRp_knitwork_green_site_rna_tunnel_impure_fragalysis.sdf']

>  <SLURM_JOB_ID>  (77) 
220463

>  <distance_score>  (77) 
0.854568

>  <original SMILES>  (77) 
CCNCCc1ccon1

>  <alias>  (77) 
None

>  <ref_pdb>  (77) 
z0496a

>  <inchikey>  (77) 
MEZKADOABRLSTR-UHFFFAOYSA-N

$$$$
MEZKADOABRLSTR-UHFFFAOYSA-N
     RDKit          3D

 10 10  0  0  0  0  0  0  0  0999 V2000
  -24.7256  -29.5898  -16.6193 C   0  0  0  0  0  0  0  0  0  0  0  0
  -25.5193  -30.8777  -16.4653 C   0  0  0  0  0  0  0  0  0  0  0  0
  -26.7141  -30.9114  -17.3020 N   0  0  0  0  0  0  0  0  0  0  0  0
  -27.8456  -30.1800  -16.7263 C   0  0  0  0  0  0  0  0  0  0  0  0
  -29.1250  -30.3817  -17.5557 C   0  0  0  0  0  0  0  0  0  0  0  0
  -29.0304  -29.9102  -18.9721 C   0  0  0  0  0  0  0  0  0  0  0  0
  -29.9112  -30.1767  -20.0462 C   0  0  0  0  0  0  0  0  0  0  0  0
  -29.3628  -29.5001  -21.1027 C   0  0  0  0  0  0  0  0  0  0  0  0
  -28.2249  -28.8857  -20.7125 O   0  0  0  0  0  0  0  0  0  0  0  0
  -28.0177  -29.1286  -19.3731 N   0  0  0  0  0  0  0  0  0  0  0  0
  1  2  1  0
  2  3  1  0
  3  4  1  0
  4  5  1  0
  5  6  1  0
  6  7  1  0
  7  8  2  0
  8  9  1  0
  9 10  1  0
 10  6  2  0
M  END
>  <fragmenstein_mode>  (78) 
expansion

>  <name>  (78) 
MEZKADOABRLSTR-UHFFFAOYSA-N

>  <fragmenstein_runtime>  (78) 
1.473822

>  <HIPPO Compound ID>  (78) 
37531

>  <SLURM_JOB_NAME>  (78) 
BulkDock.place:Flavi_NS5_RdRp:RdRp_knitwork_green_site_rna_tunnel_impure_split4000_batch012

>  <ref_mols>  (78) 
z0496a,z0521a

>  <Multi-SuCOS>  (78) 
0.608109

>  <tags>  (78) 
['Fragmenstein placed', 'RdRp_knitwork_green_site_rna_tunnel_impure_fragalysis.sdf Pose OK']

>  <scratch_subdir>  (78) 
/opt/xchem-fragalysis-2/maxwin/BulkDock/SCRATCH/220463/C37531-P141

>  <energy_score>  (78) 
-36.886107

>  <fragmenstein_error>  (78) 
None

>  <csv_name>  (78) 
RdRp_knitwork_green_site_rna_tunnel_impure_split4000_batch012.csv

>  <merge_set>  (78) 
RdRp_knitwork_green_site_rna_tunnel_impure_fragalysis.sdf

>  <original ID>  (78) 
MEZKADOABRLSTR-UHFFFAOYSA-N

>  <HIPPO Pose ID>  (78) 
170597

>  <fragmenstein_outcome>  (78) 
acceptable

>  <exports>  (78) 
['/opt/xchem-fragalysis-2/maxwin/BulkDock/OUTPUTS/RdRp_knitwork_green_site_rna_tunnel_impure_split4000_batch012_220463.sdf', '/opt/xchem-fragalysis-2/maxwin/BulkDock/OUTPUTS/RdRp_knitwork_green_site_rna_tunnel_impure_fragalysis.sdf']

>  <SLURM_JOB_ID>  (78) 
220463

>  <distance_score>  (78) 
0.860528

>  <original SMILES>  (78) 
CCNCCc1ccon1

>  <alias>  (78) 
None

>  <ref_pdb>  (78) 
z0521a

>  <inchikey>  (78) 
MEZKADOABRLSTR-UHFFFAOYSA-N

$$$$
ULDMDHDPDKOXSL-UHFFFAOYSA-N
     RDKit          3D

 12 13  0  0  0  0  0  0  0  0999 V2000
  -27.8168  -29.6971  -17.1956 O   0  0  0  0  0  0  0  0  0  0  0  0
  -28.1742  -29.7415  -18.3724 C   0  0  0  0  0  0  0  0  0  0  0  0
  -27.2834  -29.1659  -19.4064 C   0  0  0  0  0  0  0  0  0  0  0  0
  -27.6554  -29.0768  -20.6969 C   0  0  0  0  0  0  0  0  0  0  0  0
  -26.6907  -28.5966  -21.6495 C   0  0  0  0  0  0  0  0  0  0  0  0
  -26.4302  -29.1894  -22.7998 N   0  0  0  0  0  0  0  0  0  0  0  0
  -25.4941  -28.4732  -23.5231 C   0  0  0  0  0  0  0  0  0  0  0  0
  -25.0604  -27.3073  -22.9357 C   0  0  0  0  0  0  0  0  0  0  0  0
  -25.8154  -27.1114  -21.4108 S   0  0  0  0  0  0  0  0  0  0  0  0
  -29.0159  -29.5776  -21.1408 C   0  0  0  0  0  0  0  0  0  0  0  0
  -29.5478  -30.6958  -20.2543 C   0  0  0  0  0  0  0  0  0  0  0  0
  -29.5066  -30.3257  -18.7816 C   0  0  0  0  0  0  0  0  0  0  0  0
  1  2  2  0
  2  3  1  0
  3  4  2  0
  4  5  1  0
  5  6  2  0
  6  7  1  0
  7  8  2  0
  8  9  1  0
  4 10  1  0
 10 11  1  0
 11 12  1  0
 12  2  1  0
  9  5  1  0
M  END
>  <fragmenstein_mode>  (79) 
expansion

>  <name>  (79) 
ULDMDHDPDKOXSL-UHFFFAOYSA-N

>  <fragmenstein_runtime>  (79) 
1.250719

>  <HIPPO Compound ID>  (79) 
59812

>  <SLURM_JOB_NAME>  (79) 
BulkDock.place:Flavi_NS5_RdRp:RdRp_knitwork_green_site_rna_tunnel_impure_split4000_batch015

>  <ref_mols>  (79) 
z0496a,z1018a

>  <Multi-SuCOS>  (79) 
0.796216

>  <tags>  (79) 
['Fragmenstein placed', 'RdRp_knitwork_green_site_rna_tunnel_impure_fragalysis.sdf Pose OK']

>  <scratch_subdir>  (79) 
/opt/xchem-fragalysis-2/maxwin/BulkDock/SCRATCH/220466/C59812-P136

>  <energy_score>  (79) 
-67.827291

>  <fragmenstein_error>  (79) 
None

>  <csv_name>  (79) 
RdRp_knitwork_green_site_rna_tunnel_impure_split4000_batch015.csv

>  <merge_set>  (79) 
RdRp_knitwork_green_site_rna_tunnel_impure_fragalysis.sdf

>  <original ID>  (79) 
ULDMDHDPDKOXSL-UHFFFAOYSA-N

>  <HIPPO Pose ID>  (79) 
170642

>  <fragmenstein_outcome>  (79) 
acceptable

>  <exports>  (79) 
['/opt/xchem-fragalysis-2/maxwin/BulkDock/OUTPUTS/RdRp_knitwork_green_site_rna_tunnel_impure_split4000_batch015_220466.sdf', '/opt/xchem-fragalysis-2/maxwin/BulkDock/OUTPUTS/RdRp_knitwork_green_site_rna_tunnel_impure_fragalysis.sdf']

>  <SLURM_JOB_ID>  (79) 
220466

>  <distance_score>  (79) 
0.94492

>  <original SMILES>  (79) 
O=C1C=C(c2nccs2)CCC1

>  <alias>  (79) 
None

>  <ref_pdb>  (79) 
z0496a

>  <inchikey>  (79) 
ULDMDHDPDKOXSL-UHFFFAOYSA-N

$$$$
HARCBBMTSBJEOV-QMMMGPOBSA-N
     RDKit          3D

 13 14  0  0  0  0  0  0  0  0999 V2000
  -28.1926  -29.4113  -17.2828 O   0  0  0  0  0  0  0  0  0  0  0  0
  -28.2187  -29.9584  -18.3866 C   0  0  0  0  0  0  0  0  0  0  0  0
  -29.2216  -31.0393  -18.7177 C   0  0  0  0  0  0  0  0  0  0  0  0
  -30.4180  -30.5074  -19.4802 C   0  0  0  0  0  0  0  0  0  0  0  0
  -30.1764  -30.0127  -20.8993 C   0  0  0  0  0  0  0  0  0  0  0  0
  -28.7513  -29.9145  -21.4196 C   0  0  0  0  0  0  0  0  0  0  0  0
  -27.8259  -28.9388  -20.6706 C   0  0  2  0  0  0  0  0  0  0  0  0
  -26.7234  -28.4326  -21.5806 C   0  0  0  0  0  0  0  0  0  0  0  0
  -26.0366  -27.2362  -21.4539 C   0  0  0  0  0  0  0  0  0  0  0  0
  -24.9999  -26.9990  -22.8012 S   0  0  0  0  0  0  0  0  0  0  0  0
  -25.4567  -28.5367  -23.4000 C   0  0  0  0  0  0  0  0  0  0  0  0
  -26.3448  -29.1929  -22.6816 N   0  0  0  0  0  0  0  0  0  0  0  0
  -27.2099  -29.6056  -19.4459 C   0  0  0  0  0  0  0  0  0  0  0  0
  1  2  2  0
  2  3  1  0
  3  4  1  0
  4  5  1  0
  5  6  1  0
  6  7  1  0
  7  8  1  6
  8  9  2  0
  9 10  1  0
 10 11  1  0
 11 12  2  0
  7 13  1  0
 13  2  1  0
 12  8  1  0
M  END
>  <fragmenstein_mode>  (80) 
expansion

>  <name>  (80) 
HARCBBMTSBJEOV-QMMMGPOBSA-N

>  <fragmenstein_runtime>  (80) 
2.811383

>  <HIPPO Compound ID>  (80) 
59860

>  <SLURM_JOB_NAME>  (80) 
BulkDock.place:Flavi_NS5_RdRp:RdRp_knitwork_green_site_rna_tunnel_impure_split4000_batch015

>  <ref_mols>  (80) 
z0496a,z1018a

>  <Multi-SuCOS>  (80) 
0.756278

>  <tags>  (80) 
['Fragmenstein placed', 'RdRp_knitwork_green_site_rna_tunnel_impure_fragalysis.sdf Pose OK']

>  <scratch_subdir>  (80) 
/opt/xchem-fragalysis-2/maxwin/BulkDock/SCRATCH/220466/C59860-P136

>  <energy_score>  (80) 
-66.093514

>  <fragmenstein_error>  (80) 
None

>  <csv_name>  (80) 
RdRp_knitwork_green_site_rna_tunnel_impure_split4000_batch015.csv

>  <merge_set>  (80) 
RdRp_knitwork_green_site_rna_tunnel_impure_fragalysis.sdf

>  <original ID>  (80) 
HARCBBMTSBJEOV-QMMMGPOBSA-N

>  <HIPPO Pose ID>  (80) 
170709

>  <fragmenstein_outcome>  (80) 
acceptable

>  <exports>  (80) 
['/opt/xchem-fragalysis-2/maxwin/BulkDock/OUTPUTS/RdRp_knitwork_green_site_rna_tunnel_impure_split4000_batch015_220466.sdf', '/opt/xchem-fragalysis-2/maxwin/BulkDock/OUTPUTS/RdRp_knitwork_green_site_rna_tunnel_impure_fragalysis.sdf']

>  <SLURM_JOB_ID>  (80) 
220466

>  <distance_score>  (80) 
0.874145

>  <original SMILES>  (80) 
O=C1CCCC[C@H](c2cscn2)C1

>  <alias>  (80) 
None

>  <ref_pdb>  (80) 
z0496a

>  <inchikey>  (80) 
HARCBBMTSBJEOV-QMMMGPOBSA-N

$$$$
GHEZUTGDIJVRLA-ZETCQYMHSA-N
     RDKit          3D

 12 13  0  0  0  0  0  0  0  0999 V2000
  -28.1794  -29.5489  -17.1619 O   0  0  0  0  0  0  0  0  0  0  0  0
  -28.2953  -29.8576  -18.3481 C   0  0  0  0  0  0  0  0  0  0  0  0
  -29.4276  -30.7295  -18.8414 C   0  0  0  0  0  0  0  0  0  0  0  0
  -29.9835  -30.2338  -20.1680 C   0  0  0  0  0  0  0  0  0  0  0  0
  -28.8950  -29.8823  -21.1783 C   0  0  0  0  0  0  0  0  0  0  0  0
  -27.8552  -28.9033  -20.6023 C   0  0  2  0  0  0  0  0  0  0  0  0
  -26.7912  -28.5668  -21.6205 C   0  0  0  0  0  0  0  0  0  0  0  0
  -26.5263  -29.2863  -22.6919 N   0  0  0  0  0  0  0  0  0  0  0  0
  -25.5712  -28.6480  -23.4650 C   0  0  0  0  0  0  0  0  0  0  0  0
  -25.0944  -27.4586  -22.9594 C   0  0  0  0  0  0  0  0  0  0  0  0
  -25.8462  -27.1279  -21.4552 S   0  0  0  0  0  0  0  0  0  0  0  0
  -27.2298  -29.5087  -19.3527 C   0  0  0  0  0  0  0  0  0  0  0  0
  1  2  2  0
  2  3  1  0
  3  4  1  0
  4  5  1  0
  5  6  1  0
  6  7  1  6
  7  8  2  0
  8  9  1  0
  9 10  2  0
 10 11  1  0
  6 12  1  0
 12  2  1  0
 11  7  1  0
M  END
>  <fragmenstein_mode>  (81) 
expansion

>  <name>  (81) 
GHEZUTGDIJVRLA-ZETCQYMHSA-N

>  <fragmenstein_runtime>  (81) 
1.313968

>  <HIPPO Compound ID>  (81) 
59884

>  <SLURM_JOB_NAME>  (81) 
BulkDock.place:Flavi_NS5_RdRp:RdRp_knitwork_green_site_rna_tunnel_impure_split4000_batch015

>  <ref_mols>  (81) 
z0496a,z1018a

>  <Multi-SuCOS>  (81) 
0.787221

>  <tags>  (81) 
['Fragmenstein placed', 'RdRp_knitwork_green_site_rna_tunnel_impure_fragalysis.sdf Pose OK']

>  <scratch_subdir>  (81) 
/opt/xchem-fragalysis-2/maxwin/BulkDock/SCRATCH/220466/C59884-P136

>  <energy_score>  (81) 
-58.956127

>  <fragmenstein_error>  (81) 
None

>  <csv_name>  (81) 
RdRp_knitwork_green_site_rna_tunnel_impure_split4000_batch015.csv

>  <merge_set>  (81) 
RdRp_knitwork_green_site_rna_tunnel_impure_fragalysis.sdf

>  <original ID>  (81) 
GHEZUTGDIJVRLA-ZETCQYMHSA-N

>  <HIPPO Pose ID>  (81) 
170750

>  <fragmenstein_outcome>  (81) 
acceptable

>  <exports>  (81) 
['/opt/xchem-fragalysis-2/maxwin/BulkDock/OUTPUTS/RdRp_knitwork_green_site_rna_tunnel_impure_split4000_batch015_220466.sdf', '/opt/xchem-fragalysis-2/maxwin/BulkDock/OUTPUTS/RdRp_knitwork_green_site_rna_tunnel_impure_fragalysis.sdf']

>  <SLURM_JOB_ID>  (81) 
220466

>  <distance_score>  (81) 
0.731759

>  <original SMILES>  (81) 
O=C1CCC[C@H](c2nccs2)C1

>  <alias>  (81) 
None

>  <ref_pdb>  (81) 
z0496a

>  <inchikey>  (81) 
GHEZUTGDIJVRLA-ZETCQYMHSA-N

$$$$
QCTAVAMCXOHGTQ-UHFFFAOYSA-N
     RDKit          3D

 12 13  0  0  0  0  0  0  0  0999 V2000
  -27.8784  -29.7483  -17.1695 O   0  0  0  0  0  0  0  0  0  0  0  0
  -28.1791  -29.7520  -18.3630 C   0  0  0  0  0  0  0  0  0  0  0  0
  -27.2481  -29.1317  -19.3303 C   0  0  0  0  0  0  0  0  0  0  0  0
  -27.5584  -29.0362  -20.6325 C   0  0  0  0  0  0  0  0  0  0  0  0
  -26.6625  -28.4946  -21.6075 C   0  0  0  0  0  0  0  0  0  0  0  0
  -25.9682  -27.3057  -21.4934 C   0  0  0  0  0  0  0  0  0  0  0  0
  -25.0190  -27.0538  -22.9051 S   0  0  0  0  0  0  0  0  0  0  0  0
  -25.5621  -28.5630  -23.5156 C   0  0  0  0  0  0  0  0  0  0  0  0
  -26.4288  -29.2122  -22.7641 N   0  0  0  0  0  0  0  0  0  0  0  0
  -28.8719  -29.5339  -21.1860 C   0  0  0  0  0  0  0  0  0  0  0  0
  -29.4524  -30.6646  -20.3407 C   0  0  0  0  0  0  0  0  0  0  0  0
  -29.4884  -30.3242  -18.8590 C   0  0  0  0  0  0  0  0  0  0  0  0
  1  2  2  0
  2  3  1  0
  3  4  2  0
  4  5  1  0
  5  6  2  0
  6  7  1  0
  7  8  1  0
  8  9  2  0
  4 10  1  0
 10 11  1  0
 11 12  1  0
 12  2  1  0
  9  5  1  0
M  END
>  <fragmenstein_mode>  (82) 
expansion

>  <name>  (82) 
QCTAVAMCXOHGTQ-UHFFFAOYSA-N

>  <fragmenstein_runtime>  (82) 
1.018867

>  <HIPPO Compound ID>  (82) 
59917

>  <SLURM_JOB_NAME>  (82) 
BulkDock.place:Flavi_NS5_RdRp:RdRp_knitwork_green_site_rna_tunnel_impure_split4000_batch015

>  <ref_mols>  (82) 
z0496a,z1018a

>  <Multi-SuCOS>  (82) 
0.786403

>  <tags>  (82) 
['Fragmenstein placed', 'RdRp_knitwork_green_site_rna_tunnel_impure_fragalysis.sdf Pose OK']

>  <scratch_subdir>  (82) 
/opt/xchem-fragalysis-2/maxwin/BulkDock/SCRATCH/220466/C59917-P136

>  <energy_score>  (82) 
-97.530891

>  <fragmenstein_error>  (82) 
None

>  <csv_name>  (82) 
RdRp_knitwork_green_site_rna_tunnel_impure_split4000_batch015.csv

>  <merge_set>  (82) 
RdRp_knitwork_green_site_rna_tunnel_impure_fragalysis.sdf

>  <original ID>  (82) 
QCTAVAMCXOHGTQ-UHFFFAOYSA-N

>  <HIPPO Pose ID>  (82) 
170891

>  <fragmenstein_outcome>  (82) 
acceptable

>  <exports>  (82) 
['/opt/xchem-fragalysis-2/maxwin/BulkDock/OUTPUTS/RdRp_knitwork_green_site_rna_tunnel_impure_split4000_batch015_220466.sdf', '/opt/xchem-fragalysis-2/maxwin/BulkDock/OUTPUTS/RdRp_knitwork_green_site_rna_tunnel_impure_fragalysis.sdf']

>  <SLURM_JOB_ID>  (82) 
220466

>  <distance_score>  (82) 
0.664821

>  <original SMILES>  (82) 
O=C1C=C(c2cscn2)CCC1

>  <alias>  (82) 
None

>  <ref_pdb>  (82) 
z0496a

>  <inchikey>  (82) 
QCTAVAMCXOHGTQ-UHFFFAOYSA-N

$$$$
DWKUZAKFAHMXOW-ZETCQYMHSA-N
     RDKit          3D

 12 13  0  0  0  0  0  0  0  0999 V2000
  -28.1708  -29.6281  -17.1264 O   0  0  0  0  0  0  0  0  0  0  0  0
  -28.3204  -29.9280  -18.3109 C   0  0  0  0  0  0  0  0  0  0  0  0
  -29.4741  -30.7826  -18.7850 C   0  0  0  0  0  0  0  0  0  0  0  0
  -30.0536  -30.2745  -20.0975 C   0  0  0  0  0  0  0  0  0  0  0  0
  -28.9841  -29.9323  -21.1334 C   0  0  0  0  0  0  0  0  0  0  0  0
  -27.9235  -28.9709  -20.5716 C   0  0  2  0  0  0  0  0  0  0  0  0
  -26.8627  -28.5473  -21.5584 C   0  0  0  0  0  0  0  0  0  0  0  0
  -26.0934  -27.3946  -21.5263 C   0  0  0  0  0  0  0  0  0  0  0  0
  -25.2260  -27.2136  -22.5825 N   0  0  0  0  0  0  0  0  0  0  0  0
  -25.2947  -28.2479  -23.3911 C   0  0  0  0  0  0  0  0  0  0  0  0
  -26.4227  -29.4615  -22.9461 S   0  0  0  0  0  0  0  0  0  0  0  0
  -27.2738  -29.5848  -19.3366 C   0  0  0  0  0  0  0  0  0  0  0  0
  1  2  2  0
  2  3  1  0
  3  4  1  0
  4  5  1  0
  5  6  1  0
  6  7  1  6
  7  8  2  0
  8  9  1  0
  9 10  2  0
 10 11  1  0
  6 12  1  0
 12  2  1  0
 11  7  1  0
M  END
>  <fragmenstein_mode>  (83) 
expansion

>  <name>  (83) 
DWKUZAKFAHMXOW-ZETCQYMHSA-N

>  <fragmenstein_runtime>  (83) 
1.446713

>  <HIPPO Compound ID>  (83) 
59974

>  <SLURM_JOB_NAME>  (83) 
BulkDock.place:Flavi_NS5_RdRp:RdRp_knitwork_green_site_rna_tunnel_impure_split4000_batch015

>  <ref_mols>  (83) 
z0496a,z1018a

>  <Multi-SuCOS>  (83) 
0.674801

>  <tags>  (83) 
['Fragmenstein placed', 'RdRp_knitwork_green_site_rna_tunnel_impure_fragalysis.sdf Pose OK']

>  <scratch_subdir>  (83) 
/opt/xchem-fragalysis-2/maxwin/BulkDock/SCRATCH/220466/C59974-P136

>  <energy_score>  (83) 
-132.748268

>  <fragmenstein_error>  (83) 
None

>  <csv_name>  (83) 
RdRp_knitwork_green_site_rna_tunnel_impure_split4000_batch015.csv

>  <merge_set>  (83) 
RdRp_knitwork_green_site_rna_tunnel_impure_fragalysis.sdf

>  <original ID>  (83) 
DWKUZAKFAHMXOW-ZETCQYMHSA-N

>  <HIPPO Pose ID>  (83) 
170931

>  <fragmenstein_outcome>  (83) 
acceptable

>  <exports>  (83) 
['/opt/xchem-fragalysis-2/maxwin/BulkDock/OUTPUTS/RdRp_knitwork_green_site_rna_tunnel_impure_split4000_batch015_220466.sdf', '/opt/xchem-fragalysis-2/maxwin/BulkDock/OUTPUTS/RdRp_knitwork_green_site_rna_tunnel_impure_fragalysis.sdf']

>  <SLURM_JOB_ID>  (83) 
220466

>  <distance_score>  (83) 
0.770502

>  <original SMILES>  (83) 
O=C1CCC[C@H](c2cncs2)C1

>  <alias>  (83) 
None

>  <ref_pdb>  (83) 
z0496a

>  <inchikey>  (83) 
DWKUZAKFAHMXOW-ZETCQYMHSA-N

$$$$
UQPOZDSOTVJLRR-UHFFFAOYSA-N
     RDKit          3D

 17 19  0  0  0  0  0  0  0  0999 V2000
  -25.1820  -33.5138  -18.5831 N   0  0  0  0  0  0  0  0  0  0  0  0
  -25.6468  -32.6072  -19.1349 C   0  0  0  0  0  0  0  0  0  0  0  0
  -26.0005  -31.4636  -19.8788 C   0  0  0  0  0  0  0  0  0  0  0  0
  -26.0490  -31.3287  -21.2464 C   0  0  0  0  0  0  0  0  0  0  0  0
  -25.9318  -30.0108  -21.5818 N   0  0  0  0  0  0  0  0  0  0  0  0
  -25.7992  -29.3828  -20.4243 C   0  0  0  0  0  0  0  0  0  0  0  0
  -25.1259  -27.9855  -20.3228 C   0  0  0  0  0  0  0  0  0  0  0  0
  -24.6085  -27.2993  -21.4393 C   0  0  0  0  0  0  0  0  0  0  0  0
  -24.2697  -26.0689  -20.9496 C   0  0  0  0  0  0  0  0  0  0  0  0
  -24.4179  -26.1404  -19.5972 N   0  0  0  0  0  0  0  0  0  0  0  0
  -24.9236  -27.3122  -19.1859 N   0  0  0  0  0  0  0  0  0  0  0  0
  -26.1807  -30.1935  -19.3746 N   0  0  0  0  0  0  0  0  0  0  0  0
  -26.6311  -29.8423  -18.0728 C   0  0  0  0  0  0  0  0  0  0  0  0
  -27.1306  -28.6089  -17.6150 C   0  0  0  0  0  0  0  0  0  0  0  0
  -27.4879  -28.8452  -16.3089 C   0  0  0  0  0  0  0  0  0  0  0  0
  -27.1750  -30.1493  -16.0572 N   0  0  0  0  0  0  0  0  0  0  0  0
  -26.7185  -30.7977  -17.1403 N   0  0  0  0  0  0  0  0  0  0  0  0
  1  2  3  0
  2  3  1  0
  3  4  2  0
  4  5  1  0
  5  6  2  0
  6  7  1  0
  7  8  1  0
  8  9  2  0
  9 10  1  0
 10 11  1  0
  6 12  1  0
 12 13  1  0
 13 14  1  0
 14 15  2  0
 15 16  1  0
 16 17  1  0
 12  3  1  0
 17 13  2  0
 11  7  2  0
M  END
>  <fragmenstein_mode>  (84) 
expansion

>  <name>  (84) 
UQPOZDSOTVJLRR-UHFFFAOYSA-N

>  <fragmenstein_runtime>  (84) 
2.081186

>  <HIPPO Compound ID>  (84) 
23525

>  <SLURM_JOB_NAME>  (84) 
BulkDock.place:Flavi_NS5_RdRp:RdRp_knitwork_green_site_rna_tunnel_impure_split4000_batch019

>  <ref_mols>  (84) 
d0378a,z0653a

>  <Multi-SuCOS>  (84) 
0.479207

>  <tags>  (84) 
['Fragmenstein placed', 'RdRp_knitwork_green_site_rna_tunnel_impure_fragalysis.sdf Pose OK']

>  <scratch_subdir>  (84) 
/opt/xchem-fragalysis-2/maxwin/BulkDock/SCRATCH/220470/C23525-P1

>  <energy_score>  (84) 
-42.916087

>  <fragmenstein_error>  (84) 
None

>  <csv_name>  (84) 
RdRp_knitwork_green_site_rna_tunnel_impure_split4000_batch019.csv

>  <merge_set>  (84) 
RdRp_knitwork_green_site_rna_tunnel_impure_fragalysis.sdf

>  <original ID>  (84) 
UQPOZDSOTVJLRR-UHFFFAOYSA-N

>  <HIPPO Pose ID>  (84) 
170957

>  <fragmenstein_outcome>  (84) 
acceptable

>  <exports>  (84) 
['/opt/xchem-fragalysis-2/maxwin/BulkDock/OUTPUTS/RdRp_knitwork_green_site_rna_tunnel_impure_split4000_batch019_220470.sdf', '/opt/xchem-fragalysis-2/maxwin/BulkDock/OUTPUTS/RdRp_knitwork_green_site_rna_tunnel_impure_fragalysis.sdf']

>  <SLURM_JOB_ID>  (84) 
220470

>  <distance_score>  (84) 
0.961724

>  <original SMILES>  (84) 
N#Cc1cnc(-c2cc[nH]n2)n1-c1cc[nH]n1

>  <alias>  (84) 
None

>  <ref_pdb>  (84) 
d0378a

>  <inchikey>  (84) 
UQPOZDSOTVJLRR-UHFFFAOYSA-N

$$$$
XKHQAUHJVQVCFG-QMMMGPOBSA-N
     RDKit          3D

 13 14  0  0  0  0  0  0  0  0999 V2000
  -28.1873  -29.4234  -17.2959 O   0  0  0  0  0  0  0  0  0  0  0  0
  -28.2301  -29.9920  -18.3876 C   0  0  0  0  0  0  0  0  0  0  0  0
  -29.2313  -31.0833  -18.6804 C   0  0  0  0  0  0  0  0  0  0  0  0
  -30.4568  -30.5740  -19.4105 C   0  0  0  0  0  0  0  0  0  0  0  0
  -30.2628  -30.0255  -20.8156 C   0  0  0  0  0  0  0  0  0  0  0  0
  -28.8625  -29.9597  -21.4000 C   0  0  0  0  0  0  0  0  0  0  0  0
  -27.8880  -29.0009  -20.6939 C   0  0  2  0  0  0  0  0  0  0  0  0
  -26.7895  -28.5003  -21.6166 C   0  0  0  0  0  0  0  0  0  0  0  0
  -26.0562  -27.3292  -21.5088 C   0  0  0  0  0  0  0  0  0  0  0  0
  -25.1531  -27.0833  -22.5222 N   0  0  0  0  0  0  0  0  0  0  0  0
  -25.1603  -28.0847  -23.3739 C   0  0  0  0  0  0  0  0  0  0  0  0
  -26.2670  -29.3456  -23.0262 S   0  0  0  0  0  0  0  0  0  0  0  0
  -27.2444  -29.6569  -19.4750 C   0  0  0  0  0  0  0  0  0  0  0  0
  1  2  2  0
  2  3  1  0
  3  4  1  0
  4  5  1  0
  5  6  1  0
  6  7  1  0
  7  8  1  6
  8  9  2  0
  9 10  1  0
 10 11  2  0
 11 12  1  0
  7 13  1  0
 13  2  1  0
 12  8  1  0
M  END
>  <fragmenstein_mode>  (85) 
expansion

>  <name>  (85) 
XKHQAUHJVQVCFG-QMMMGPOBSA-N

>  <fragmenstein_runtime>  (85) 
2.370829

>  <HIPPO Compound ID>  (85) 
60108

>  <SLURM_JOB_NAME>  (85) 
BulkDock.place:Flavi_NS5_RdRp:RdRp_knitwork_green_site_rna_tunnel_impure_split4000_batch015

>  <ref_mols>  (85) 
z0496a,z1018a

>  <Multi-SuCOS>  (85) 
0.656376

>  <tags>  (85) 
['Fragmenstein placed', 'RdRp_knitwork_green_site_rna_tunnel_impure_fragalysis.sdf Pose OK']

>  <scratch_subdir>  (85) 
/opt/xchem-fragalysis-2/maxwin/BulkDock/SCRATCH/220466/C60108-P136

>  <energy_score>  (85) 
-80.295078

>  <fragmenstein_error>  (85) 
None

>  <csv_name>  (85) 
RdRp_knitwork_green_site_rna_tunnel_impure_split4000_batch015.csv

>  <merge_set>  (85) 
RdRp_knitwork_green_site_rna_tunnel_impure_fragalysis.sdf

>  <original ID>  (85) 
XKHQAUHJVQVCFG-QMMMGPOBSA-N

>  <HIPPO Pose ID>  (85) 
171034

>  <fragmenstein_outcome>  (85) 
acceptable

>  <exports>  (85) 
['/opt/xchem-fragalysis-2/maxwin/BulkDock/OUTPUTS/RdRp_knitwork_green_site_rna_tunnel_impure_split4000_batch015_220466.sdf', '/opt/xchem-fragalysis-2/maxwin/BulkDock/OUTPUTS/RdRp_knitwork_green_site_rna_tunnel_impure_fragalysis.sdf']

>  <SLURM_JOB_ID>  (85) 
220466

>  <distance_score>  (85) 
0.967535

>  <original SMILES>  (85) 
O=C1CCCC[C@H](c2cncs2)C1

>  <alias>  (85) 
None

>  <ref_pdb>  (85) 
z0496a

>  <inchikey>  (85) 
XKHQAUHJVQVCFG-QMMMGPOBSA-N

$$$$
KHXXPJBWOCUWQK-QMMMGPOBSA-N
     RDKit          3D

 13 14  0  0  0  0  0  0  0  0999 V2000
  -28.2274  -29.3631  -17.2987 O   0  0  0  0  0  0  0  0  0  0  0  0
  -28.2366  -29.9407  -18.3867 C   0  0  0  0  0  0  0  0  0  0  0  0
  -29.2303  -31.0350  -18.6988 C   0  0  0  0  0  0  0  0  0  0  0  0
  -30.4355  -30.5323  -19.4678 C   0  0  0  0  0  0  0  0  0  0  0  0
  -30.1971  -29.9975  -20.8727 C   0  0  0  0  0  0  0  0  0  0  0  0
  -28.7768  -29.9351  -21.4089 C   0  0  0  0  0  0  0  0  0  0  0  0
  -27.8294  -28.9602  -20.6822 C   0  0  2  0  0  0  0  0  0  0  0  0
  -26.7206  -28.5371  -21.6300 C   0  0  0  0  0  0  0  0  0  0  0  0
  -26.3723  -29.2092  -22.7098 N   0  0  0  0  0  0  0  0  0  0  0  0
  -25.4330  -28.4942  -23.4304 C   0  0  0  0  0  0  0  0  0  0  0  0
  -25.0462  -27.2961  -22.8728 C   0  0  0  0  0  0  0  0  0  0  0  0
  -25.8505  -27.0668  -21.3766 S   0  0  0  0  0  0  0  0  0  0  0  0
  -27.2196  -29.6122  -19.4469 C   0  0  0  0  0  0  0  0  0  0  0  0
  1  2  2  0
  2  3  1  0
  3  4  1  0
  4  5  1  0
  5  6  1  0
  6  7  1  0
  7  8  1  6
  8  9  2  0
  9 10  1  0
 10 11  2  0
 11 12  1  0
  7 13  1  0
 13  2  1  0
 12  8  1  0
M  END
>  <fragmenstein_mode>  (86) 
expansion

>  <name>  (86) 
KHXXPJBWOCUWQK-QMMMGPOBSA-N

>  <fragmenstein_runtime>  (86) 
2.265936

>  <HIPPO Compound ID>  (86) 
60324

>  <SLURM_JOB_NAME>  (86) 
BulkDock.place:Flavi_NS5_RdRp:RdRp_knitwork_green_site_rna_tunnel_impure_split4000_batch015

>  <ref_mols>  (86) 
z0496a,z1018a

>  <Multi-SuCOS>  (86) 
0.763963

>  <tags>  (86) 
['Fragmenstein placed', 'RdRp_knitwork_green_site_rna_tunnel_impure_fragalysis.sdf Pose OK']

>  <scratch_subdir>  (86) 
/opt/xchem-fragalysis-2/maxwin/BulkDock/SCRATCH/220466/C60324-P136

>  <energy_score>  (86) 
-59.870381

>  <fragmenstein_error>  (86) 
None

>  <csv_name>  (86) 
RdRp_knitwork_green_site_rna_tunnel_impure_split4000_batch015.csv

>  <merge_set>  (86) 
RdRp_knitwork_green_site_rna_tunnel_impure_fragalysis.sdf

>  <original ID>  (86) 
KHXXPJBWOCUWQK-QMMMGPOBSA-N

>  <HIPPO Pose ID>  (86) 
171080

>  <fragmenstein_outcome>  (86) 
acceptable

>  <exports>  (86) 
['/opt/xchem-fragalysis-2/maxwin/BulkDock/OUTPUTS/RdRp_knitwork_green_site_rna_tunnel_impure_split4000_batch015_220466.sdf', '/opt/xchem-fragalysis-2/maxwin/BulkDock/OUTPUTS/RdRp_knitwork_green_site_rna_tunnel_impure_fragalysis.sdf']

>  <SLURM_JOB_ID>  (86) 
220466

>  <distance_score>  (86) 
0.892944

>  <original SMILES>  (86) 
O=C1CCCC[C@H](c2nccs2)C1

>  <alias>  (86) 
None

>  <ref_pdb>  (86) 
z0496a

>  <inchikey>  (86) 
KHXXPJBWOCUWQK-QMMMGPOBSA-N

$$$$
UEHWAXKXASTTTH-ZETCQYMHSA-N
     RDKit          3D

 12 13  0  0  0  0  0  0  0  0999 V2000
  -27.9634  -29.8559  -17.2309 O   0  0  0  0  0  0  0  0  0  0  0  0
  -28.2251  -29.9556  -18.4308 C   0  0  0  0  0  0  0  0  0  0  0  0
  -29.5953  -30.3799  -18.9082 C   0  0  0  0  0  0  0  0  0  0  0  0
  -29.6199  -30.5963  -20.4142 C   0  0  0  0  0  0  0  0  0  0  0  0
  -29.0400  -29.4221  -21.2054 C   0  0  0  0  0  0  0  0  0  0  0  0
  -27.7826  -28.7886  -20.5685 C   0  0  2  0  0  0  0  0  0  0  0  0
  -26.7339  -28.3977  -21.5781 C   0  0  0  0  0  0  0  0  0  0  0  0
  -25.9810  -27.2343  -21.5648 C   0  0  0  0  0  0  0  0  0  0  0  0
  -25.0048  -27.1382  -22.9726 S   0  0  0  0  0  0  0  0  0  0  0  0
  -25.5790  -28.6813  -23.4476 C   0  0  0  0  0  0  0  0  0  0  0  0
  -26.4592  -29.2441  -22.6436 N   0  0  0  0  0  0  0  0  0  0  0  0
  -27.1845  -29.6706  -19.4810 C   0  0  0  0  0  0  0  0  0  0  0  0
  1  2  2  0
  2  3  1  0
  3  4  1  0
  4  5  1  0
  5  6  1  0
  6  7  1  6
  7  8  2  0
  8  9  1  0
  9 10  1  0
 10 11  2  0
  6 12  1  0
 12  2  1  0
 11  7  1  0
M  END
>  <fragmenstein_mode>  (87) 
expansion

>  <name>  (87) 
UEHWAXKXASTTTH-ZETCQYMHSA-N

>  <fragmenstein_runtime>  (87) 
5.574475

>  <HIPPO Compound ID>  (87) 
60428

>  <SLURM_JOB_NAME>  (87) 
BulkDock.place:Flavi_NS5_RdRp:RdRp_knitwork_green_site_rna_tunnel_impure_split4000_batch015

>  <ref_mols>  (87) 
z0496a,z1018a

>  <Multi-SuCOS>  (87) 
0.773191

>  <tags>  (87) 
['Fragmenstein placed', 'RdRp_knitwork_green_site_rna_tunnel_impure_fragalysis.sdf Pose OK']

>  <scratch_subdir>  (87) 
/opt/xchem-fragalysis-2/maxwin/BulkDock/SCRATCH/220466/C60428-P136

>  <energy_score>  (87) 
-109.367801

>  <fragmenstein_error>  (87) 
None

>  <csv_name>  (87) 
RdRp_knitwork_green_site_rna_tunnel_impure_split4000_batch015.csv

>  <merge_set>  (87) 
RdRp_knitwork_green_site_rna_tunnel_impure_fragalysis.sdf

>  <original ID>  (87) 
UEHWAXKXASTTTH-ZETCQYMHSA-N

>  <HIPPO Pose ID>  (87) 
171226

>  <fragmenstein_outcome>  (87) 
acceptable

>  <exports>  (87) 
['/opt/xchem-fragalysis-2/maxwin/BulkDock/OUTPUTS/RdRp_knitwork_green_site_rna_tunnel_impure_split4000_batch015_220466.sdf', '/opt/xchem-fragalysis-2/maxwin/BulkDock/OUTPUTS/RdRp_knitwork_green_site_rna_tunnel_impure_fragalysis.sdf']

>  <SLURM_JOB_ID>  (87) 
220466

>  <distance_score>  (87) 
0.755056

>  <original SMILES>  (87) 
O=C1CCC[C@H](c2cscn2)C1

>  <alias>  (87) 
None

>  <ref_pdb>  (87) 
z0496a

>  <inchikey>  (87) 
UEHWAXKXASTTTH-ZETCQYMHSA-N

$$$$
OYHZTJZXEOYKAH-SNVBAGLBSA-N
     RDKit          3D

 18 20  0  0  0  0  0  0  0  0999 V2000
  -24.3104  -34.1905  -24.2166 C   0  0  0  0  0  0  0  0  0  0  0  0
  -23.7283  -33.3186  -23.1027 C   0  0  1  0  0  0  0  0  0  0  0  0
  -24.8468  -32.7418  -22.3769 N   0  0  0  0  0  0  0  0  0  0  0  0
  -24.5350  -31.6191  -21.5187 C   0  0  0  0  0  0  0  0  0  0  0  0
  -25.3252  -31.7913  -20.2711 C   0  0  0  0  0  0  0  0  0  0  0  0
  -26.4808  -31.0319  -19.9232 C   0  0  0  0  0  0  0  0  0  0  0  0
  -27.0384  -31.2761  -18.7450 N   0  0  0  0  0  0  0  0  0  0  0  0
  -26.1591  -32.4629  -17.9889 S   0  0  0  0  0  0  0  0  0  0  0  0
  -25.0345  -32.6797  -19.2486 C   0  0  0  0  0  0  0  0  0  0  0  0
  -22.8536  -34.0934  -22.1632 C   0  0  0  0  0  0  0  0  0  0  0  0
  -23.0280  -35.4005  -21.7398 C   0  0  0  0  0  0  0  0  0  0  0  0
  -22.0180  -35.7960  -20.9288 O   0  0  0  0  0  0  0  0  0  0  0  0
  -21.1827  -34.7375  -20.7855 C   0  0  0  0  0  0  0  0  0  0  0  0
  -20.0190  -34.7324  -20.0201 C   0  0  0  0  0  0  0  0  0  0  0  0
  -19.2954  -33.5361  -19.9887 C   0  0  0  0  0  0  0  0  0  0  0  0
  -19.7303  -32.4126  -20.6946 C   0  0  0  0  0  0  0  0  0  0  0  0
  -20.9007  -32.4558  -21.4664 C   0  0  0  0  0  0  0  0  0  0  0  0
  -21.6495  -33.6505  -21.5152 C   0  0  0  0  0  0  0  0  0  0  0  0
  2  1  1  6
  2  3  1  0
  3  4  1  0
  4  5  1  0
  5  6  1  0
  6  7  2  0
  7  8  1  0
  8  9  1  0
  2 10  1  0
 10 11  2  0
 11 12  1  0
 12 13  1  0
 13 14  2  0
 14 15  1  0
 15 16  2  0
 16 17  1  0
 17 18  2  0
  9  5  2  0
 18 10  1  0
 18 13  1  0
M  END
>  <fragmenstein_mode>  (88) 
expansion

>  <name>  (88) 
OYHZTJZXEOYKAH-SNVBAGLBSA-N

>  <fragmenstein_runtime>  (88) 
1.735369

>  <HIPPO Compound ID>  (88) 
30741

>  <SLURM_JOB_NAME>  (88) 
BulkDock.place:Flavi_NS5_RdRp:RdRp_knitwork_green_site_rna_tunnel_impure_split4000_batch005

>  <ref_mols>  (88) 
d0472b,3vws-b

>  <Multi-SuCOS>  (88) 
0.681797

>  <tags>  (88) 
['Fragmenstein placed', 'RdRp_knitwork_green_site_rna_tunnel_impure_fragalysis.sdf Pose OK']

>  <scratch_subdir>  (88) 
/opt/xchem-fragalysis-2/maxwin/BulkDock/SCRATCH/220456/C30741-P217

>  <energy_score>  (88) 
-41.223446

>  <fragmenstein_error>  (88) 
None

>  <csv_name>  (88) 
RdRp_knitwork_green_site_rna_tunnel_impure_split4000_batch005.csv

>  <merge_set>  (88) 
RdRp_knitwork_green_site_rna_tunnel_impure_fragalysis.sdf

>  <original ID>  (88) 
OYHZTJZXEOYKAH-SNVBAGLBSA-N

>  <HIPPO Pose ID>  (88) 
171372

>  <fragmenstein_outcome>  (88) 
acceptable

>  <exports>  (88) 
['/opt/xchem-fragalysis-2/maxwin/BulkDock/OUTPUTS/RdRp_knitwork_green_site_rna_tunnel_impure_split4000_batch005_220456.sdf', '/opt/xchem-fragalysis-2/maxwin/BulkDock/OUTPUTS/RdRp_knitwork_green_site_rna_tunnel_impure_fragalysis.sdf']

>  <SLURM_JOB_ID>  (88) 
220456

>  <distance_score>  (88) 
0.926188

>  <original SMILES>  (88) 
C[C@@H](NCc1cnsc1)c1coc2ccccc12

>  <alias>  (88) 
None

>  <ref_pdb>  (88) 
3vws-b

>  <inchikey>  (88) 
OYHZTJZXEOYKAH-SNVBAGLBSA-N

$$$$
ZZONCHICMUZAAX-BDJLRTHQSA-N
     RDKit          3D

 21 24  0  0  0  0  0  0  0  0999 V2000
  -24.6450  -33.8834  -23.5962 C   0  0  0  0  0  0  0  0  0  0  0  0
  -23.3855  -33.2447  -23.0102 C   0  0  1  0  0  0  0  0  0  0  0  0
  -23.5322  -31.8630  -22.5475 N   0  0  0  0  0  0  0  0  0  0  0  0
  -24.7538  -31.4980  -21.8190 C   0  0  1  0  0  0  0  0  0  0  0  0
  -24.8870  -32.0378  -20.4064 C   0  0  0  0  0  0  0  0  0  0  0  0
  -24.2056  -31.5659  -19.3790 N   0  0  0  0  0  0  0  0  0  0  0  0
  -24.5842  -32.2149  -18.2243 C   0  0  0  0  0  0  0  0  0  0  0  0
  -25.5723  -33.1617  -18.3703 C   0  0  0  0  0  0  0  0  0  0  0  0
  -26.0540  -33.2415  -20.0098 S   0  0  0  0  0  0  0  0  0  0  0  0
  -24.6529  -29.9830  -21.7943 C   0  0  0  0  0  0  0  0  0  0  0  0
  -25.1991  -29.1340  -22.9054 C   0  0  0  0  0  0  0  0  0  0  0  0
  -25.8652  -29.1328  -21.5481 C   0  0  0  0  0  0  0  0  0  0  0  0
  -22.6618  -34.0684  -21.9870 C   0  0  0  0  0  0  0  0  0  0  0  0
  -22.9681  -35.3486  -21.5604 C   0  0  0  0  0  0  0  0  0  0  0  0
  -22.0308  -35.8197  -20.7037 O   0  0  0  0  0  0  0  0  0  0  0  0
  -21.1006  -34.8445  -20.5500 C   0  0  0  0  0  0  0  0  0  0  0  0
  -19.9584  -34.9398  -19.7595 C   0  0  0  0  0  0  0  0  0  0  0  0
  -19.1155  -33.8242  -19.7325 C   0  0  0  0  0  0  0  0  0  0  0  0
  -19.4118  -32.6805  -20.4725 C   0  0  0  0  0  0  0  0  0  0  0  0
  -20.5601  -32.6228  -21.2724 C   0  0  0  0  0  0  0  0  0  0  0  0
  -21.4368  -33.7310  -21.3075 C   0  0  0  0  0  0  0  0  0  0  0  0
  2  1  1  1
  2  3  1  0
  4  3  1  1
  4  5  1  0
  5  6  2  0
  6  7  1  0
  7  8  2  0
  8  9  1  0
  4 10  1  0
 10 11  1  0
 11 12  1  0
  2 13  1  0
 13 14  2  0
 14 15  1  0
 15 16  1  0
 16 17  2  0
 17 18  1  0
 18 19  2  0
 19 20  1  0
 20 21  2  0
  9  5  1  0
 12 10  1  0
 21 13  1  0
 21 16  1  0
M  END
>  <fragmenstein_mode>  (89) 
expansion

>  <name>  (89) 
ZZONCHICMUZAAX-BDJLRTHQSA-N

>  <fragmenstein_runtime>  (89) 
3.995076

>  <HIPPO Compound ID>  (89) 
30835

>  <SLURM_JOB_NAME>  (89) 
BulkDock.place:Flavi_NS5_RdRp:RdRp_knitwork_green_site_rna_tunnel_impure_split4000_batch005

>  <ref_mols>  (89) 
d0472b,3vws-b

>  <Multi-SuCOS>  (89) 
0.634904

>  <tags>  (89) 
['Fragmenstein placed', 'RdRp_knitwork_green_site_rna_tunnel_impure_fragalysis.sdf Pose OK']

>  <scratch_subdir>  (89) 
/opt/xchem-fragalysis-2/maxwin/BulkDock/SCRATCH/220456/C30835-P217

>  <energy_score>  (89) 
-82.958022

>  <fragmenstein_error>  (89) 
None

>  <csv_name>  (89) 
RdRp_knitwork_green_site_rna_tunnel_impure_split4000_batch005.csv

>  <merge_set>  (89) 
RdRp_knitwork_green_site_rna_tunnel_impure_fragalysis.sdf

>  <original ID>  (89) 
ZZONCHICMUZAAX-BDJLRTHQSA-N

>  <HIPPO Pose ID>  (89) 
171377

>  <fragmenstein_outcome>  (89) 
acceptable

>  <exports>  (89) 
['/opt/xchem-fragalysis-2/maxwin/BulkDock/OUTPUTS/RdRp_knitwork_green_site_rna_tunnel_impure_split4000_batch005_220456.sdf', '/opt/xchem-fragalysis-2/maxwin/BulkDock/OUTPUTS/RdRp_knitwork_green_site_rna_tunnel_impure_fragalysis.sdf']

>  <SLURM_JOB_ID>  (89) 
220456

>  <distance_score>  (89) 
0.912862

>  <original SMILES>  (89) 
C[C@@H](N[C@@H](c1nccs1)C1CC1)c1coc2ccccc12

>  <alias>  (89) 
None

>  <ref_pdb>  (89) 
3vws-b

>  <inchikey>  (89) 
ZZONCHICMUZAAX-BDJLRTHQSA-N

$$$$
OOQMTOUOHZWHLU-SECBINFHSA-N
     RDKit          3D

 19 21  0  0  0  0  0  0  0  0999 V2000
  -24.9981  -33.8800  -22.6537 C   0  0  0  0  0  0  0  0  0  0  0  0
  -23.6376  -33.2003  -22.5529 C   0  0  1  0  0  0  0  0  0  0  0  0
  -23.7728  -31.8076  -22.0826 N   0  0  0  0  0  0  0  0  0  0  0  0
  -23.7999  -31.5678  -20.6371 C   0  0  0  0  0  0  0  0  0  0  0  0
  -25.0934  -31.8908  -19.9924 C   0  0  0  0  0  0  0  0  0  0  0  0
  -26.2966  -31.1434  -20.1610 C   0  0  0  0  0  0  0  0  0  0  0  0
  -27.3324  -31.4777  -19.4025 N   0  0  0  0  0  0  0  0  0  0  0  0
  -26.8628  -32.7153  -18.4079 S   0  0  0  0  0  0  0  0  0  0  0  0
  -25.2848  -32.8632  -19.0270 C   0  0  0  0  0  0  0  0  0  0  0  0
  -22.5936  -33.9977  -21.8239 C   0  0  0  0  0  0  0  0  0  0  0  0
  -22.6642  -35.3479  -21.5153 C   0  0  0  0  0  0  0  0  0  0  0  0
  -21.5505  -35.7717  -20.8741 O   0  0  0  0  0  0  0  0  0  0  0  0
  -20.7320  -34.6985  -20.7417 C   0  0  0  0  0  0  0  0  0  0  0  0
  -19.4815  -34.6859  -20.1300 C   0  0  0  0  0  0  0  0  0  0  0  0
  -18.9264  -35.7870  -19.6102 F   0  0  0  0  0  0  0  0  0  0  0  0
  -18.7885  -33.4776  -20.0849 C   0  0  0  0  0  0  0  0  0  0  0  0
  -19.3294  -32.3288  -20.6571 C   0  0  0  0  0  0  0  0  0  0  0  0
  -20.5732  -32.3679  -21.3015 C   0  0  0  0  0  0  0  0  0  0  0  0
  -21.3086  -33.5761  -21.3310 C   0  0  0  0  0  0  0  0  0  0  0  0
  2  1  1  1
  2  3  1  0
  3  4  1  0
  4  5  1  0
  5  6  1  0
  6  7  2  0
  7  8  1  0
  8  9  1  0
  2 10  1  0
 10 11  2  0
 11 12  1  0
 12 13  1  0
 13 14  2  0
 14 15  1  0
 14 16  1  0
 16 17  2  0
 17 18  1  0
 18 19  2  0
  9  5  2  0
 19 10  1  0
 19 13  1  0
M  END
>  <fragmenstein_mode>  (90) 
expansion

>  <name>  (90) 
OOQMTOUOHZWHLU-SECBINFHSA-N

>  <fragmenstein_runtime>  (90) 
2.278666

>  <HIPPO Compound ID>  (90) 
31455

>  <SLURM_JOB_NAME>  (90) 
BulkDock.place:Flavi_NS5_RdRp:RdRp_knitwork_green_site_rna_tunnel_impure_split4000_batch005

>  <ref_mols>  (90) 
d0472b,3vws-b

>  <Multi-SuCOS>  (90) 
0.625023

>  <tags>  (90) 
['Fragmenstein placed', 'RdRp_knitwork_green_site_rna_tunnel_impure_fragalysis.sdf Pose OK']

>  <scratch_subdir>  (90) 
/opt/xchem-fragalysis-2/maxwin/BulkDock/SCRATCH/220456/C31455-P217

>  <energy_score>  (90) 
-26.808146

>  <fragmenstein_error>  (90) 
None

>  <csv_name>  (90) 
RdRp_knitwork_green_site_rna_tunnel_impure_split4000_batch005.csv

>  <merge_set>  (90) 
RdRp_knitwork_green_site_rna_tunnel_impure_fragalysis.sdf

>  <original ID>  (90) 
OOQMTOUOHZWHLU-SECBINFHSA-N

>  <HIPPO Pose ID>  (90) 
171463

>  <fragmenstein_outcome>  (90) 
acceptable

>  <exports>  (90) 
['/opt/xchem-fragalysis-2/maxwin/BulkDock/OUTPUTS/RdRp_knitwork_green_site_rna_tunnel_impure_split4000_batch005_220456.sdf', '/opt/xchem-fragalysis-2/maxwin/BulkDock/OUTPUTS/RdRp_knitwork_green_site_rna_tunnel_impure_fragalysis.sdf']

>  <SLURM_JOB_ID>  (90) 
220456

>  <distance_score>  (90) 
0.944215

>  <original SMILES>  (90) 
C[C@@H](NCc1cnsc1)c1coc2c(F)cccc12

>  <alias>  (90) 
None

>  <ref_pdb>  (90) 
3vws-b

>  <inchikey>  (90) 
OOQMTOUOHZWHLU-SECBINFHSA-N

$$$$
FCKNDBJKFGUGFZ-UHFFFAOYSA-N
     RDKit          3D

 21 23  0  0  0  0  0  0  0  0999 V2000
  -25.2614  -33.0124  -22.3556 O   0  0  0  0  0  0  0  0  0  0  0  0
  -24.8020  -33.7131  -21.5360 C   0  0  0  0  0  0  0  0  0  0  0  0
  -23.7243  -34.7814  -21.9753 C   0  0  0  0  0  0  0  0  0  0  0  0
  -22.7652  -35.3391  -20.9578 C   0  0  0  0  0  0  0  0  0  0  0  0
  -23.1090  -36.4088  -20.1510 C   0  0  0  0  0  0  0  0  0  0  0  0
  -22.1570  -36.6606  -19.2313 O   0  0  0  0  0  0  0  0  0  0  0  0
  -21.1283  -35.8133  -19.4683 C   0  0  0  0  0  0  0  0  0  0  0  0
  -19.9645  -35.7526  -18.6994 C   0  0  0  0  0  0  0  0  0  0  0  0
  -18.9760  -34.8539  -19.0972 C   0  0  0  0  0  0  0  0  0  0  0  0
  -17.5249  -34.7410  -18.1781 Cl  0  0  0  0  0  0  0  0  0  0  0  0
  -19.1207  -34.1064  -20.2487 C   0  0  0  0  0  0  0  0  0  0  0  0
  -20.2881  -34.2407  -21.0097 C   0  0  0  0  0  0  0  0  0  0  0  0
  -21.3858  -35.0386  -20.5908 C   0  0  0  0  0  0  0  0  0  0  0  0
  -25.1116  -33.8219  -20.0121 N   0  0  0  0  0  0  0  0  0  0  0  0
  -25.9915  -33.0153  -19.1585 C   0  0  0  0  0  0  0  0  0  0  0  0
  -26.7139  -31.7953  -19.7699 C   0  0  0  0  0  0  0  0  0  0  0  0
  -27.4668  -30.9832  -18.7446 C   0  0  0  0  0  0  0  0  0  0  0  0
  -28.8495  -30.6790  -18.7552 C   0  0  0  0  0  0  0  0  0  0  0  0
  -29.0791  -30.0011  -17.5843 C   0  0  0  0  0  0  0  0  0  0  0  0
  -27.8692  -29.8873  -16.9737 N   0  0  0  0  0  0  0  0  0  0  0  0
  -26.8633  -30.4541  -17.6674 N   0  0  0  0  0  0  0  0  0  0  0  0
  1  2  2  0
  2  3  1  0
  3  4  1  0
  4  5  2  0
  5  6  1  0
  6  7  1  0
  7  8  2  0
  8  9  1  0
  9 10  1  0
  9 11  2  0
 11 12  1  0
 12 13  2  0
  2 14  1  0
 14 15  1  0
 15 16  1  0
 16 17  1  0
 17 18  1  0
 18 19  2  0
 19 20  1  0
 20 21  1  0
 13  4  1  0
 21 17  2  0
 13  7  1  0
M  END
>  <fragmenstein_mode>  (91) 
expansion

>  <name>  (91) 
FCKNDBJKFGUGFZ-UHFFFAOYSA-N

>  <fragmenstein_runtime>  (91) 
3.027797

>  <HIPPO Compound ID>  (91) 
33738

>  <SLURM_JOB_NAME>  (91) 
BulkDock.place:Flavi_NS5_RdRp:RdRp_knitwork_green_site_rna_tunnel_impure_split4000_batch006

>  <ref_mols>  (91) 
z0628a,3vws-b,3vws-a

>  <Multi-SuCOS>  (91) 
0.409796

>  <tags>  (91) 
['Fragmenstein placed', 'RdRp_knitwork_green_site_rna_tunnel_impure_fragalysis.sdf Pose OK']

>  <scratch_subdir>  (91) 
/opt/xchem-fragalysis-2/maxwin/BulkDock/SCRATCH/220457/C33738-P150

>  <energy_score>  (91) 
-86.794235

>  <fragmenstein_error>  (91) 
None

>  <csv_name>  (91) 
RdRp_knitwork_green_site_rna_tunnel_impure_split4000_batch006.csv

>  <merge_set>  (91) 
RdRp_knitwork_green_site_rna_tunnel_impure_fragalysis.sdf

>  <original ID>  (91) 
FCKNDBJKFGUGFZ-UHFFFAOYSA-N

>  <HIPPO Pose ID>  (91) 
171892

>  <fragmenstein_outcome>  (91) 
acceptable

>  <exports>  (91) 
['/opt/xchem-fragalysis-2/maxwin/BulkDock/OUTPUTS/RdRp_knitwork_green_site_rna_tunnel_impure_split4000_batch006_220457.sdf', '/opt/xchem-fragalysis-2/maxwin/BulkDock/OUTPUTS/RdRp_knitwork_green_site_rna_tunnel_impure_fragalysis.sdf']

>  <SLURM_JOB_ID>  (91) 
220457

>  <distance_score>  (91) 
1.987945

>  <original SMILES>  (91) 
O=C(Cc1coc2cc(Cl)ccc12)NCCc1cc[nH]n1

>  <alias>  (91) 
None

>  <ref_pdb>  (91) 
z0628a

>  <inchikey>  (91) 
FCKNDBJKFGUGFZ-UHFFFAOYSA-N

$$$$
KDWAJWXWMMNKHA-UHFFFAOYSA-N
     RDKit          3D

 15 17  0  0  0  0  0  0  0  0999 V2000
  -24.5244  -27.9572  -23.0529 C   0  0  0  0  0  0  0  0  0  0  0  0
  -25.0773  -28.4154  -24.2330 C   0  0  0  0  0  0  0  0  0  0  0  0
  -26.2113  -29.1366  -24.2919 N   0  0  0  0  0  0  0  0  0  0  0  0
  -26.8075  -29.4015  -23.1103 C   0  0  0  0  0  0  0  0  0  0  0  0
  -26.3497  -28.9474  -21.8777 C   0  0  0  0  0  0  0  0  0  0  0  0
  -27.0520  -29.2375  -20.6481 C   0  0  0  0  0  0  0  0  0  0  0  0
  -26.5523  -29.5215  -19.3969 C   0  0  0  0  0  0  0  0  0  0  0  0
  -27.6378  -29.7965  -18.5389 C   0  0  0  0  0  0  0  0  0  0  0  0
  -27.7412  -30.1486  -17.1867 C   0  0  0  0  0  0  0  0  0  0  0  0
  -28.9966  -30.3395  -16.6189 C   0  0  0  0  0  0  0  0  0  0  0  0
  -30.1378  -30.2219  -17.4012 C   0  0  0  0  0  0  0  0  0  0  0  0
  -30.0659  -29.9100  -18.7620 C   0  0  0  0  0  0  0  0  0  0  0  0
  -28.7991  -29.6651  -19.2905 C   0  0  0  0  0  0  0  0  0  0  0  0
  -28.4191  -29.2670  -20.5470 N   0  0  0  0  0  0  0  0  0  0  0  0
  -25.1702  -28.2158  -21.8580 C   0  0  0  0  0  0  0  0  0  0  0  0
  1  2  2  0
  2  3  1  0
  3  4  2  0
  4  5  1  0
  5  6  1  0
  6  7  2  0
  7  8  1  0
  8  9  2  0
  9 10  1  0
 10 11  2  0
 11 12  1  0
 12 13  2  0
 13 14  1  0
  5 15  2  0
 15  1  1  0
 14  6  1  0
 13  8  1  0
M  END
>  <fragmenstein_mode>  (92) 
expansion

>  <name>  (92) 
KDWAJWXWMMNKHA-UHFFFAOYSA-N

>  <fragmenstein_runtime>  (92) 
15.677216

>  <HIPPO Compound ID>  (92) 
27506

>  <SLURM_JOB_NAME>  (92) 
BulkDock.place:Flavi_NS5_RdRp:RdRp_knitwork_green_site_rna_tunnel_impure_split4000_batch003

>  <ref_mols>  (92) 
z0041a,z0386a

>  <Multi-SuCOS>  (92) 
0.755101

>  <tags>  (92) 
['Fragmenstein placed', 'RdRp_knitwork_green_site_rna_tunnel_impure_fragalysis.sdf Pose OK']

>  <scratch_subdir>  (92) 
/opt/xchem-fragalysis-2/maxwin/BulkDock/SCRATCH/220454/C27506-P121

>  <energy_score>  (92) 
-12.677653

>  <fragmenstein_error>  (92) 
None

>  <csv_name>  (92) 
RdRp_knitwork_green_site_rna_tunnel_impure_split4000_batch003.csv

>  <merge_set>  (92) 
RdRp_knitwork_green_site_rna_tunnel_impure_fragalysis.sdf

>  <original ID>  (92) 
KDWAJWXWMMNKHA-UHFFFAOYSA-N

>  <HIPPO Pose ID>  (92) 
172209

>  <fragmenstein_outcome>  (92) 
acceptable

>  <exports>  (92) 
['/opt/xchem-fragalysis-2/maxwin/BulkDock/OUTPUTS/RdRp_knitwork_green_site_rna_tunnel_impure_split4000_batch003_220454.sdf', '/opt/xchem-fragalysis-2/maxwin/BulkDock/OUTPUTS/RdRp_knitwork_green_site_rna_tunnel_impure_fragalysis.sdf']

>  <SLURM_JOB_ID>  (92) 
220454

>  <distance_score>  (92) 
0.921619

>  <original SMILES>  (92) 
c1cncc(-c2cc3ccccc3[nH]2)c1

>  <alias>  (92) 
None

>  <ref_pdb>  (92) 
z0386a

>  <inchikey>  (92) 
KDWAJWXWMMNKHA-UHFFFAOYSA-N

$$$$
OLGGLCIDAMICTA-UHFFFAOYSA-N
     RDKit          3D

 15 17  0  0  0  0  0  0  0  0999 V2000
  -25.0109  -28.3697  -24.2292 C   0  0  0  0  0  0  0  0  0  0  0  0
  -26.1280  -29.1829  -24.3269 C   0  0  0  0  0  0  0  0  0  0  0  0
  -26.8326  -29.4812  -23.1696 C   0  0  0  0  0  0  0  0  0  0  0  0
  -26.3883  -28.9559  -21.9649 C   0  0  0  0  0  0  0  0  0  0  0  0
  -27.0672  -29.2196  -20.7196 C   0  0  0  0  0  0  0  0  0  0  0  0
  -26.5465  -29.4642  -19.4680 C   0  0  0  0  0  0  0  0  0  0  0  0
  -27.6179  -29.7590  -18.5962 C   0  0  0  0  0  0  0  0  0  0  0  0
  -27.7031  -30.1011  -17.2398 C   0  0  0  0  0  0  0  0  0  0  0  0
  -28.9500  -30.3155  -16.6591 C   0  0  0  0  0  0  0  0  0  0  0  0
  -30.1019  -30.2259  -17.4302 C   0  0  0  0  0  0  0  0  0  0  0  0
  -30.0485  -29.9196  -18.7930 C   0  0  0  0  0  0  0  0  0  0  0  0
  -28.7906  -29.6582  -19.3362 C   0  0  0  0  0  0  0  0  0  0  0  0
  -28.4311  -29.2599  -20.5984 N   0  0  0  0  0  0  0  0  0  0  0  0
  -25.3017  -28.1762  -21.8469 N   0  0  0  0  0  0  0  0  0  0  0  0
  -24.6324  -27.9122  -22.9806 C   0  0  0  0  0  0  0  0  0  0  0  0
  1  2  2  0
  2  3  1  0
  3  4  2  0
  4  5  1  0
  5  6  2  0
  6  7  1  0
  7  8  2  0
  8  9  1  0
  9 10  2  0
 10 11  1  0
 11 12  2  0
 12 13  1  0
  4 14  1  0
 14 15  2  0
 15  1  1  0
 13  5  1  0
 12  7  1  0
M  END
>  <fragmenstein_mode>  (93) 
expansion

>  <name>  (93) 
OLGGLCIDAMICTA-UHFFFAOYSA-N

>  <fragmenstein_runtime>  (93) 
15.358717

>  <HIPPO Compound ID>  (93) 
28835

>  <SLURM_JOB_NAME>  (93) 
BulkDock.place:Flavi_NS5_RdRp:RdRp_knitwork_green_site_rna_tunnel_impure_split4000_batch003

>  <ref_mols>  (93) 
z0041a,z0386a

>  <Multi-SuCOS>  (93) 
0.69868

>  <tags>  (93) 
['Fragmenstein placed', 'RdRp_knitwork_green_site_rna_tunnel_impure_fragalysis.sdf Pose OK']

>  <scratch_subdir>  (93) 
/opt/xchem-fragalysis-2/maxwin/BulkDock/SCRATCH/220454/C28835-P121

>  <energy_score>  (93) 
-7.174528

>  <fragmenstein_error>  (93) 
None

>  <csv_name>  (93) 
RdRp_knitwork_green_site_rna_tunnel_impure_split4000_batch003.csv

>  <merge_set>  (93) 
RdRp_knitwork_green_site_rna_tunnel_impure_fragalysis.sdf

>  <original ID>  (93) 
OLGGLCIDAMICTA-UHFFFAOYSA-N

>  <HIPPO Pose ID>  (93) 
172263

>  <fragmenstein_outcome>  (93) 
acceptable

>  <exports>  (93) 
['/opt/xchem-fragalysis-2/maxwin/BulkDock/OUTPUTS/RdRp_knitwork_green_site_rna_tunnel_impure_split4000_batch003_220454.sdf', '/opt/xchem-fragalysis-2/maxwin/BulkDock/OUTPUTS/RdRp_knitwork_green_site_rna_tunnel_impure_fragalysis.sdf']

>  <SLURM_JOB_ID>  (93) 
220454

>  <distance_score>  (93) 
0.973038

>  <original SMILES>  (93) 
c1ccc(-c2cc3ccccc3[nH]2)nc1

>  <alias>  (93) 
None

>  <ref_pdb>  (93) 
z0386a

>  <inchikey>  (93) 
OLGGLCIDAMICTA-UHFFFAOYSA-N

$$$$
CJNBNTYLNLSYBI-UHFFFAOYSA-N
     RDKit          3D

 22 23  0  0  0  0  0  0  0  0999 V2000
  -28.5598  -32.7896  -16.0712 C   0  0  0  0  0  0  0  0  0  0  0  0
  -29.0492  -31.3293  -16.0224 C   0  0  0  0  0  0  0  0  0  0  0  0
  -30.4934  -31.3094  -15.4988 C   0  0  0  0  0  0  0  0  0  0  0  0
  -28.1468  -30.5498  -15.0732 C   0  0  0  0  0  0  0  0  0  0  0  0
  -27.0568  -30.9214  -14.6570 O   0  0  0  0  0  0  0  0  0  0  0  0
  -28.5975  -29.3192  -14.7573 O   0  0  0  0  0  0  0  0  0  0  0  0
  -28.9154  -30.7463  -17.3605 N   0  0  0  0  0  0  0  0  0  0  0  0
  -27.7312  -30.4318  -17.9697 C   0  0  0  0  0  0  0  0  0  0  0  0
  -28.0296  -30.2125  -19.2860 C   0  0  0  0  0  0  0  0  0  0  0  0
  -27.0758  -30.1237  -20.2477 N   0  0  0  0  0  0  0  0  0  0  0  0
  -27.2059  -29.9289  -21.7746 C   0  0  0  0  0  0  0  0  0  0  0  0
  -28.1471  -29.7371  -22.4339 O   0  0  0  0  0  0  0  0  0  0  0  0
  -25.8281  -30.1405  -22.3650 C   0  0  0  0  0  0  0  0  0  0  0  0
  -25.5236  -31.6394  -22.4687 C   0  0  0  0  0  0  0  0  0  0  0  0
  -25.4457  -32.3700  -21.1502 C   0  0  0  0  0  0  0  0  0  0  0  0
  -25.9551  -33.6552  -21.0057 C   0  0  0  0  0  0  0  0  0  0  0  0
  -25.8558  -34.2806  -19.7652 C   0  0  0  0  0  0  0  0  0  0  0  0
  -25.2312  -33.6213  -18.7130 C   0  0  0  0  0  0  0  0  0  0  0  0
  -24.7370  -32.3524  -18.9429 C   0  0  0  0  0  0  0  0  0  0  0  0
  -24.8594  -31.7076  -20.1225 N   0  0  0  0  0  0  0  0  0  0  0  0
  -29.4263  -30.3026  -19.3680 C   0  0  0  0  0  0  0  0  0  0  0  0
  -29.9733  -30.6525  -18.1960 N   0  0  0  0  0  0  0  0  0  0  0  0
  1  2  1  0
  2  3  1  0
  2  4  1  0
  4  5  2  0
  4  6  1  0
  2  7  1  0
  7  8  1  0
  8  9  2  0
  9 10  1  0
 10 11  1  0
 11 12  2  0
 11 13  1  0
 13 14  1  0
 14 15  1  0
 15 16  2  0
 16 17  1  0
 17 18  2  0
 18 19  1  0
 19 20  2  0
  9 21  1  0
 21 22  2  0
 22  7  1  0
 20 15  1  0
M  END
>  <fragmenstein_mode>  (94) 
expansion

>  <name>  (94) 
CJNBNTYLNLSYBI-UHFFFAOYSA-N

>  <fragmenstein_runtime>  (94) 
4.98357

>  <HIPPO Compound ID>  (94) 
12690

>  <SLURM_JOB_NAME>  (94) 
BulkDock.place:Flavi_NS5_RdRp:RdRp_knitwork_green_site_rna_tunnel_impure_split4000_batch014

>  <ref_mols>  (94) 
d0472b,z0653a

>  <Multi-SuCOS>  (94) 
0.378335

>  <tags>  (94) 
['Fragmenstein placed', 'RdRp_knitwork_green_site_rna_tunnel_impure_fragalysis.sdf Pose OK']

>  <scratch_subdir>  (94) 
/opt/xchem-fragalysis-2/maxwin/BulkDock/SCRATCH/220465/C12690-P153

>  <energy_score>  (94) 
-53.919179

>  <fragmenstein_error>  (94) 
None

>  <csv_name>  (94) 
RdRp_knitwork_green_site_rna_tunnel_impure_split4000_batch014.csv

>  <merge_set>  (94) 
RdRp_knitwork_green_site_rna_tunnel_impure_fragalysis.sdf

>  <original ID>  (94) 
CJNBNTYLNLSYBI-UHFFFAOYSA-N

>  <HIPPO Pose ID>  (94) 
173200

>  <fragmenstein_outcome>  (94) 
acceptable

>  <exports>  (94) 
['/opt/xchem-fragalysis-2/maxwin/BulkDock/OUTPUTS/RdRp_knitwork_green_site_rna_tunnel_impure_split4000_batch014_220465.sdf', '/opt/xchem-fragalysis-2/maxwin/BulkDock/OUTPUTS/RdRp_knitwork_green_site_rna_tunnel_impure_fragalysis.sdf']

>  <SLURM_JOB_ID>  (94) 
220465

>  <distance_score>  (94) 
0.832997

>  <original SMILES>  (94) 
CC(C)(C(=O)O)n1cc(NC(=O)CCc2ccccn2)cn1

>  <alias>  (94) 
None

>  <ref_pdb>  (94) 
z0653a

>  <inchikey>  (94) 
CJNBNTYLNLSYBI-UHFFFAOYSA-N

$$$$
FIYMFYFGSCJGHI-UHFFFAOYSA-N
     RDKit          3D

 23 26  0  0  0  0  0  0  0  0999 V2000
  -25.5811  -33.5930  -22.5562 O   0  0  0  0  0  0  0  0  0  0  0  0
  -24.5264  -32.6711  -22.2055 S   0  0  0  0  0  0  0  0  0  0  0  0
  -23.8610  -31.8418  -23.1797 O   0  0  0  0  0  0  0  0  0  0  0  0
  -25.0661  -31.6623  -20.9410 N   0  0  0  0  0  0  0  0  0  0  0  0
  -25.9897  -30.5894  -21.3965 C   0  0  0  0  0  0  0  0  0  0  0  0
  -27.1114  -30.3573  -20.4278 C   0  0  0  0  0  0  0  0  0  0  0  0
  -28.3295  -30.0646  -20.9162 N   0  0  0  0  0  0  0  0  0  0  0  0
  -29.1594  -29.9066  -19.8225 O   0  0  0  0  0  0  0  0  0  0  0  0
  -28.4415  -30.0666  -18.6796 C   0  0  0  0  0  0  0  0  0  0  0  0
  -28.9371  -29.9775  -17.3794 C   0  0  0  0  0  0  0  0  0  0  0  0
  -28.0152  -30.1848  -16.3495 C   0  0  0  0  0  0  0  0  0  0  0  0
  -26.6725  -30.4552  -16.6290 C   0  0  0  0  0  0  0  0  0  0  0  0
  -26.2065  -30.5339  -17.9515 C   0  0  0  0  0  0  0  0  0  0  0  0
  -27.1218  -30.3424  -19.0026 C   0  0  0  0  0  0  0  0  0  0  0  0
  -23.2733  -33.6589  -21.5826 C   0  0  0  0  0  0  0  0  0  0  0  0
  -23.3426  -35.0118  -21.3463 C   0  0  0  0  0  0  0  0  0  0  0  0
  -22.1875  -35.4486  -20.7731 O   0  0  0  0  0  0  0  0  0  0  0  0
  -21.3710  -34.3627  -20.6518 C   0  0  0  0  0  0  0  0  0  0  0  0
  -20.0971  -34.3701  -20.0838 C   0  0  0  0  0  0  0  0  0  0  0  0
  -19.4016  -33.1579  -20.0822 C   0  0  0  0  0  0  0  0  0  0  0  0
  -19.9738  -32.0023  -20.6161 C   0  0  0  0  0  0  0  0  0  0  0  0
  -21.2612  -32.0199  -21.1712 C   0  0  0  0  0  0  0  0  0  0  0  0
  -21.9816  -33.2297  -21.1802 C   0  0  0  0  0  0  0  0  0  0  0  0
  1  2  2  0
  2  3  2  0
  2  4  1  0
  4  5  1  0
  5  6  1  0
  6  7  2  0
  7  8  1  0
  8  9  1  0
  9 10  2  0
 10 11  1  0
 11 12  2  0
 12 13  1  0
 13 14  2  0
  2 15  1  0
 15 16  2  0
 16 17  1  0
 17 18  1  0
 18 19  2  0
 19 20  1  0
 20 21  2  0
 21 22  1  0
 22 23  2  0
 14  6  1  0
 23 15  1  0
 14  9  1  0
 23 18  1  0
M  END
>  <fragmenstein_mode>  (95) 
expansion

>  <name>  (95) 
FIYMFYFGSCJGHI-UHFFFAOYSA-N

>  <fragmenstein_runtime>  (95) 
4.269761

>  <HIPPO Compound ID>  (95) 
55410

>  <SLURM_JOB_NAME>  (95) 
BulkDock.place:Flavi_NS5_RdRp:RdRp_knitwork_green_site_rna_tunnel_impure_split4000_batch003

>  <ref_mols>  (95) 
z0111a,3vws-b

>  <Multi-SuCOS>  (95) 
0.754401

>  <tags>  (95) 
['Fragmenstein placed', 'RdRp_knitwork_green_site_rna_tunnel_impure_fragalysis.sdf Pose OK']

>  <scratch_subdir>  (95) 
/opt/xchem-fragalysis-2/maxwin/BulkDock/SCRATCH/220454/C55410-P88

>  <energy_score>  (95) 
-31.45653

>  <fragmenstein_error>  (95) 
None

>  <csv_name>  (95) 
RdRp_knitwork_green_site_rna_tunnel_impure_split4000_batch003.csv

>  <merge_set>  (95) 
RdRp_knitwork_green_site_rna_tunnel_impure_fragalysis.sdf

>  <original ID>  (95) 
FIYMFYFGSCJGHI-UHFFFAOYSA-N

>  <HIPPO Pose ID>  (95) 
173231

>  <fragmenstein_outcome>  (95) 
acceptable

>  <exports>  (95) 
['/opt/xchem-fragalysis-2/maxwin/BulkDock/OUTPUTS/RdRp_knitwork_green_site_rna_tunnel_impure_split4000_batch003_220454.sdf', '/opt/xchem-fragalysis-2/maxwin/BulkDock/OUTPUTS/RdRp_knitwork_green_site_rna_tunnel_impure_fragalysis.sdf']

>  <SLURM_JOB_ID>  (95) 
220454

>  <distance_score>  (95) 
0.657887

>  <original SMILES>  (95) 
O=S(=O)(NCc1noc2ccccc12)c1coc2ccccc12

>  <alias>  (95) 
None

>  <ref_pdb>  (95) 
z0111a

>  <inchikey>  (95) 
FIYMFYFGSCJGHI-UHFFFAOYSA-N

$$$$
ZAXPKNMZZARUDB-UHFFFAOYSA-N
     RDKit          3D

 23 26  0  0  0  0  0  0  0  0999 V2000
  -26.6286  -33.8947  -22.3308 O   0  0  0  0  0  0  0  0  0  0  0  0
  -25.8200  -33.6255  -21.5301 C   0  0  0  0  0  0  0  0  0  0  0  0
  -24.8469  -34.6873  -20.9987 C   0  0  0  0  0  0  0  0  0  0  0  0
  -23.4245  -34.3223  -21.2141 C   0  0  0  0  0  0  0  0  0  0  0  0
  -22.7792  -33.3856  -21.9959 C   0  0  0  0  0  0  0  0  0  0  0  0
  -21.4689  -33.2695  -21.4687 C   0  0  0  0  0  0  0  0  0  0  0  0
  -20.3902  -32.3923  -21.6595 C   0  0  0  0  0  0  0  0  0  0  0  0
  -19.2473  -32.5643  -20.8659 C   0  0  0  0  0  0  0  0  0  0  0  0
  -19.1506  -33.6101  -19.9452 C   0  0  0  0  0  0  0  0  0  0  0  0
  -20.2105  -34.4981  -19.7506 C   0  0  0  0  0  0  0  0  0  0  0  0
  -21.3531  -34.2685  -20.5114 C   0  0  0  0  0  0  0  0  0  0  0  0
  -22.5285  -34.9404  -20.3883 O   0  0  0  0  0  0  0  0  0  0  0  0
  -25.4743  -32.2606  -20.8653 N   0  0  0  0  0  0  0  0  0  0  0  0
  -25.9905  -30.9336  -21.1219 C   0  0  0  0  0  0  0  0  0  0  0  0
  -27.2079  -30.6025  -20.3102 C   0  0  0  0  0  0  0  0  0  0  0  0
  -28.3300  -30.3129  -20.9731 N   0  0  0  0  0  0  0  0  0  0  0  0
  -29.5454  -30.0173  -19.9055 S   0  0  0  0  0  0  0  0  0  0  0  0
  -28.5904  -30.1599  -18.4847 C   0  0  0  0  0  0  0  0  0  0  0  0
  -28.9711  -30.0124  -17.1401 C   0  0  0  0  0  0  0  0  0  0  0  0
  -27.9989  -30.1898  -16.1552 C   0  0  0  0  0  0  0  0  0  0  0  0
  -26.6862  -30.4899  -16.5004 C   0  0  0  0  0  0  0  0  0  0  0  0
  -26.3169  -30.6321  -17.8433 C   0  0  0  0  0  0  0  0  0  0  0  0
  -27.2830  -30.4797  -18.8673 C   0  0  0  0  0  0  0  0  0  0  0  0
  1  2  2  0
  2  3  1  0
  3  4  1  0
  4  5  2  0
  5  6  1  0
  6  7  2  0
  7  8  1  0
  8  9  2  0
  9 10  1  0
 10 11  2  0
 11 12  1  0
  2 13  1  0
 13 14  1  0
 14 15  1  0
 15 16  2  0
 16 17  1  0
 17 18  1  0
 18 19  2  0
 19 20  1  0
 20 21  2  0
 21 22  1  0
 22 23  2  0
 12  4  1  0
 23 15  1  0
 11  6  1  0
 23 18  1  0
M  END
>  <fragmenstein_mode>  (96) 
expansion

>  <name>  (96) 
ZAXPKNMZZARUDB-UHFFFAOYSA-N

>  <fragmenstein_runtime>  (96) 
3.807134

>  <HIPPO Compound ID>  (96) 
55535

>  <SLURM_JOB_NAME>  (96) 
BulkDock.place:Flavi_NS5_RdRp:RdRp_knitwork_green_site_rna_tunnel_impure_split4000_batch003

>  <ref_mols>  (96) 
z0111a,3vws-b

>  <Multi-SuCOS>  (96) 
0.699172

>  <tags>  (96) 
['Fragmenstein placed', 'RdRp_knitwork_green_site_rna_tunnel_impure_fragalysis.sdf Pose OK']

>  <scratch_subdir>  (96) 
/opt/xchem-fragalysis-2/maxwin/BulkDock/SCRATCH/220454/C55535-P88

>  <energy_score>  (96) 
-40.533553

>  <fragmenstein_error>  (96) 
None

>  <csv_name>  (96) 
RdRp_knitwork_green_site_rna_tunnel_impure_split4000_batch003.csv

>  <merge_set>  (96) 
RdRp_knitwork_green_site_rna_tunnel_impure_fragalysis.sdf

>  <original ID>  (96) 
ZAXPKNMZZARUDB-UHFFFAOYSA-N

>  <HIPPO Pose ID>  (96) 
173663

>  <fragmenstein_outcome>  (96) 
acceptable

>  <exports>  (96) 
['/opt/xchem-fragalysis-2/maxwin/BulkDock/OUTPUTS/RdRp_knitwork_green_site_rna_tunnel_impure_split4000_batch003_220454.sdf', '/opt/xchem-fragalysis-2/maxwin/BulkDock/OUTPUTS/RdRp_knitwork_green_site_rna_tunnel_impure_fragalysis.sdf']

>  <SLURM_JOB_ID>  (96) 
220454

>  <distance_score>  (96) 
0.97113

>  <original SMILES>  (96) 
O=C(Cc1cc2ccccc2o1)NCc1nsc2ccccc12

>  <alias>  (96) 
None

>  <ref_pdb>  (96) 
z0111a

>  <inchikey>  (96) 
ZAXPKNMZZARUDB-UHFFFAOYSA-N

$$$$
XEOVSRCCXCXTAF-UHFFFAOYSA-N
     RDKit          3D

 22 25  0  0  0  0  0  0  0  0999 V2000
  -24.3560  -35.9027  -22.0323 C   0  0  0  0  0  0  0  0  0  0  0  0
  -23.3873  -34.8673  -21.6057 C   0  0  0  0  0  0  0  0  0  0  0  0
  -22.2949  -35.3426  -20.9400 O   0  0  0  0  0  0  0  0  0  0  0  0
  -21.4749  -34.2859  -20.7034 C   0  0  0  0  0  0  0  0  0  0  0  0
  -20.2323  -34.3515  -20.0732 C   0  0  0  0  0  0  0  0  0  0  0  0
  -19.5122  -33.1578  -19.9810 C   0  0  0  0  0  0  0  0  0  0  0  0
  -20.0385  -31.9654  -20.4800 C   0  0  0  0  0  0  0  0  0  0  0  0
  -21.3015  -31.9277  -21.0890 C   0  0  0  0  0  0  0  0  0  0  0  0
  -22.0395  -33.1201  -21.2022 C   0  0  0  0  0  0  0  0  0  0  0  0
  -23.3138  -33.4851  -21.7462 C   0  0  0  0  0  0  0  0  0  0  0  0
  -24.2785  -32.5568  -22.4335 C   0  0  0  0  0  0  0  0  0  0  0  0
  -25.6106  -32.2837  -21.7106 C   0  0  0  0  0  0  0  0  0  0  0  0
  -25.5660  -31.2361  -20.6783 N   0  0  0  0  0  0  0  0  0  0  0  0
  -26.7605  -30.7609  -20.1393 C   0  0  0  0  0  0  0  0  0  0  0  0
  -27.8008  -30.5587  -20.9189 N   0  0  0  0  0  0  0  0  0  0  0  0
  -29.0059  -30.1586  -20.3722 C   0  0  0  0  0  0  0  0  0  0  0  0
  -29.2059  -29.9716  -19.0602 C   0  0  0  0  0  0  0  0  0  0  0  0
  -28.1330  -30.1461  -18.2114 N   0  0  0  0  0  0  0  0  0  0  0  0
  -28.0496  -30.0241  -16.8461 C   0  0  0  0  0  0  0  0  0  0  0  0
  -26.7501  -30.2945  -16.4716 C   0  0  0  0  0  0  0  0  0  0  0  0
  -26.0189  -30.5875  -17.6500 C   0  0  0  0  0  0  0  0  0  0  0  0
  -26.9001  -30.5099  -18.7096 C   0  0  0  0  0  0  0  0  0  0  0  0
  1  2  1  0
  2  3  1  0
  3  4  1  0
  4  5  2  0
  5  6  1  0
  6  7  2  0
  7  8  1  0
  8  9  2  0
  9 10  1  0
 10 11  1  0
 11 12  1  0
 12 13  1  0
 13 14  1  0
 14 15  2  0
 15 16  1  0
 16 17  2  0
 17 18  1  0
 18 19  1  0
 19 20  2  0
 20 21  1  0
 21 22  2  0
 10  2  2  0
 22 14  1  0
  9  4  1  0
 22 18  1  0
M  END
>  <fragmenstein_mode>  (97) 
expansion

>  <name>  (97) 
XEOVSRCCXCXTAF-UHFFFAOYSA-N

>  <fragmenstein_runtime>  (97) 
2.748811

>  <HIPPO Compound ID>  (97) 
55870

>  <SLURM_JOB_NAME>  (97) 
BulkDock.place:Flavi_NS5_RdRp:RdRp_knitwork_green_site_rna_tunnel_impure_split4000_batch003

>  <ref_mols>  (97) 
z0111a,3vws-b

>  <Multi-SuCOS>  (97) 
0.655711

>  <tags>  (97) 
['Fragmenstein placed', 'RdRp_knitwork_green_site_rna_tunnel_impure_fragalysis.sdf Pose OK']

>  <scratch_subdir>  (97) 
/opt/xchem-fragalysis-2/maxwin/BulkDock/SCRATCH/220454/C55870-P88

>  <energy_score>  (97) 
-41.81177

>  <fragmenstein_error>  (97) 
None

>  <csv_name>  (97) 
RdRp_knitwork_green_site_rna_tunnel_impure_split4000_batch003.csv

>  <merge_set>  (97) 
RdRp_knitwork_green_site_rna_tunnel_impure_fragalysis.sdf

>  <original ID>  (97) 
XEOVSRCCXCXTAF-UHFFFAOYSA-N

>  <HIPPO Pose ID>  (97) 
173915

>  <fragmenstein_outcome>  (97) 
acceptable

>  <exports>  (97) 
['/opt/xchem-fragalysis-2/maxwin/BulkDock/OUTPUTS/RdRp_knitwork_green_site_rna_tunnel_impure_split4000_batch003_220454.sdf', '/opt/xchem-fragalysis-2/maxwin/BulkDock/OUTPUTS/RdRp_knitwork_green_site_rna_tunnel_impure_fragalysis.sdf']

>  <SLURM_JOB_ID>  (97) 
220454

>  <distance_score>  (97) 
0.846249

>  <original SMILES>  (97) 
Cc1oc2ccccc2c1CCNc1nccn2cccc12

>  <alias>  (97) 
None

>  <ref_pdb>  (97) 
z0111a

>  <inchikey>  (97) 
XEOVSRCCXCXTAF-UHFFFAOYSA-N

$$$$
AIXRQUCYTKYKNG-JTQLQIEISA-N
     RDKit          3D

 23 25  0  0  0  0  0  0  0  0999 V2000
  -23.7866  -29.8685  -15.9666 C   0  0  0  0  0  0  0  0  0  0  0  0
  -24.8045  -31.0012  -15.8793 C   0  0  2  0  0  0  0  0  0  0  0  0
  -26.2033  -30.5471  -16.2995 C   0  0  0  0  0  0  0  0  0  0  0  0
  -26.2783  -29.9169  -17.6132 N   0  0  0  0  0  0  0  0  0  0  0  0
  -26.1214  -30.5662  -18.8452 C   0  0  0  0  0  0  0  0  0  0  0  0
  -25.0821  -31.3312  -19.2228 C   0  0  0  0  0  0  0  0  0  0  0  0
  -25.0766  -31.8616  -20.6311 C   0  0  0  0  0  0  0  0  0  0  0  0
  -23.9063  -32.7601  -21.0201 C   0  0  0  0  0  0  0  0  0  0  0  0
  -23.3589  -32.4107  -22.2161 F   0  0  0  0  0  0  0  0  0  0  0  0
  -22.8921  -32.7371  -20.1118 F   0  0  0  0  0  0  0  0  0  0  0  0
  -26.0168  -31.6247  -21.5082 N   0  0  0  0  0  0  0  0  0  0  0  0
  -27.0331  -30.8092  -21.1097 C   0  0  0  0  0  0  0  0  0  0  0  0
  -28.0615  -30.3698  -21.7992 N   0  0  0  0  0  0  0  0  0  0  0  0
  -28.7640  -29.6289  -20.9028 C   0  0  0  0  0  0  0  0  0  0  0  0
  -28.2435  -29.5518  -19.6788 N   0  0  0  0  0  0  0  0  0  0  0  0
  -27.1144  -30.3051  -19.8141 N   0  0  0  0  0  0  0  0  0  0  0  0
  -24.8795  -31.5423  -14.4356 C   0  0  0  0  0  0  0  0  0  0  0  0
  -23.7328  -32.4297  -14.0304 C   0  0  0  0  0  0  0  0  0  0  0  0
  -23.6101  -33.7209  -14.5353 C   0  0  0  0  0  0  0  0  0  0  0  0
  -22.5611  -34.5197  -14.0896 C   0  0  0  0  0  0  0  0  0  0  0  0
  -21.6668  -34.0133  -13.1554 C   0  0  0  0  0  0  0  0  0  0  0  0
  -21.8615  -32.7201  -12.7044 C   0  0  0  0  0  0  0  0  0  0  0  0
  -22.8660  -31.9215  -13.1236 N   0  0  0  0  0  0  0  0  0  0  0  0
  2  1  1  1
  2  3  1  0
  3  4  1  0
  4  5  1  0
  5  6  2  0
  6  7  1  0
  7  8  1  0
  8  9  1  0
  8 10  1  0
  7 11  2  0
 11 12  1  0
 12 13  2  0
 13 14  1  0
 14 15  2  0
 15 16  1  0
  2 17  1  0
 17 18  1  0
 18 19  2  0
 19 20  1  0
 20 21  2  0
 21 22  1  0
 22 23  2  0
 16  5  1  0
 23 18  1  0
 16 12  1  0
M  END
>  <fragmenstein_mode>  (98) 
expansion

>  <name>  (98) 
AIXRQUCYTKYKNG-JTQLQIEISA-N

>  <fragmenstein_runtime>  (98) 
3.846354

>  <HIPPO Compound ID>  (98) 
35242

>  <SLURM_JOB_NAME>  (98) 
BulkDock.place:Flavi_NS5_RdRp:RdRp_knitwork_green_site_rna_tunnel_impure_split4000_batch012

>  <ref_mols>  (98) 
z0496a,z0521a

>  <Multi-SuCOS>  (98) 
0.493403

>  <tags>  (98) 
['Fragmenstein placed', 'RdRp_knitwork_green_site_rna_tunnel_impure_fragalysis.sdf Pose OK']

>  <scratch_subdir>  (98) 
/opt/xchem-fragalysis-2/maxwin/BulkDock/SCRATCH/220463/C35242-P141

>  <energy_score>  (98) 
-35.841536

>  <fragmenstein_error>  (98) 
None

>  <csv_name>  (98) 
RdRp_knitwork_green_site_rna_tunnel_impure_split4000_batch012.csv

>  <merge_set>  (98) 
RdRp_knitwork_green_site_rna_tunnel_impure_fragalysis.sdf

>  <original ID>  (98) 
AIXRQUCYTKYKNG-JTQLQIEISA-N

>  <HIPPO Pose ID>  (98) 
173945

>  <fragmenstein_outcome>  (98) 
acceptable

>  <exports>  (98) 
['/opt/xchem-fragalysis-2/maxwin/BulkDock/OUTPUTS/RdRp_knitwork_green_site_rna_tunnel_impure_split4000_batch012_220463.sdf', '/opt/xchem-fragalysis-2/maxwin/BulkDock/OUTPUTS/RdRp_knitwork_green_site_rna_tunnel_impure_fragalysis.sdf']

>  <SLURM_JOB_ID>  (98) 
220463

>  <distance_score>  (98) 
0.727917

>  <original SMILES>  (98) 
C[C@H](CNc1cc(C(F)F)nc2ncnn12)Cc1ccccn1

>  <alias>  (98) 
None

>  <ref_pdb>  (98) 
z0521a

>  <inchikey>  (98) 
AIXRQUCYTKYKNG-JTQLQIEISA-N

$$$$
ZVLXSMVHKYRRKV-LLVKDONJSA-N
     RDKit          3D

 22 25  0  0  0  0  0  0  0  0999 V2000
  -24.3028  -36.1096  -21.8126 C   0  0  0  0  0  0  0  0  0  0  0  0
  -23.3194  -35.0682  -21.4436 C   0  0  0  0  0  0  0  0  0  0  0  0
  -22.1719  -35.5392  -20.8743 O   0  0  0  0  0  0  0  0  0  0  0  0
  -21.3757  -34.4684  -20.6235 C   0  0  0  0  0  0  0  0  0  0  0  0
  -20.1178  -34.5170  -20.0222 C   0  0  0  0  0  0  0  0  0  0  0  0
  -19.4262  -33.3074  -19.9078 C   0  0  0  0  0  0  0  0  0  0  0  0
  -19.9950  -32.1138  -20.3521 C   0  0  0  0  0  0  0  0  0  0  0  0
  -21.2755  -32.0962  -20.9228 C   0  0  0  0  0  0  0  0  0  0  0  0
  -21.9872  -33.3035  -21.0607 C   0  0  0  0  0  0  0  0  0  0  0  0
  -23.2866  -33.6798  -21.5476 C   0  0  0  0  0  0  0  0  0  0  0  0
  -24.3261  -32.7166  -22.0819 C   0  0  1  0  0  0  0  0  0  0  0  0
  -24.8869  -33.1784  -23.4220 C   0  0  0  0  0  0  0  0  0  0  0  0
  -25.3575  -32.5199  -21.0462 N   0  0  0  0  0  0  0  0  0  0  0  0
  -26.1547  -31.2787  -21.1803 C   0  0  0  0  0  0  0  0  0  0  0  0
  -26.9471  -30.9522  -19.9214 C   0  0  0  0  0  0  0  0  0  0  0  0
  -26.4053  -30.7670  -18.7218 N   0  0  0  0  0  0  0  0  0  0  0  0
  -27.4056  -30.5428  -17.8310 C   0  0  0  0  0  0  0  0  0  0  0  0
  -28.6754  -30.5217  -18.3255 C   0  0  0  0  0  0  0  0  0  0  0  0
  -28.6929  -30.7624  -19.9800 S   0  0  0  0  0  0  0  0  0  0  0  0
  -29.7085  -30.3386  -17.2897 C   0  0  0  0  0  0  0  0  0  0  0  0
  -28.8259  -29.8791  -16.0790 C   0  0  0  0  0  0  0  0  0  0  0  0
  -27.3674  -30.3667  -16.3663 C   0  0  0  0  0  0  0  0  0  0  0  0
  1  2  1  0
  2  3  1  0
  3  4  1  0
  4  5  2  0
  5  6  1  0
  6  7  2  0
  7  8  1  0
  8  9  2  0
  9 10  1  0
 10 11  1  0
 11 12  1  6
 11 13  1  0
 13 14  1  0
 14 15  1  0
 15 16  2  0
 16 17  1  0
 17 18  2  0
 18 19  1  0
 18 20  1  0
 20 21  1  0
 21 22  1  0
 10  2  2  0
 19 15  1  0
  9  4  1  0
 22 17  1  0
M  END
>  <fragmenstein_mode>  (99) 
expansion

>  <name>  (99) 
ZVLXSMVHKYRRKV-LLVKDONJSA-N

>  <fragmenstein_runtime>  (99) 
3.056754

>  <HIPPO Compound ID>  (99) 
31625

>  <SLURM_JOB_NAME>  (99) 
BulkDock.place:Flavi_NS5_RdRp:RdRp_knitwork_green_site_rna_tunnel_impure_split4000_batch014

>  <ref_mols>  (99) 
z0384a,3vws-b

>  <Multi-SuCOS>  (99) 
0.564627

>  <tags>  (99) 
['Fragmenstein placed', 'RdRp_knitwork_green_site_rna_tunnel_impure_fragalysis.sdf Pose OK']

>  <scratch_subdir>  (99) 
/opt/xchem-fragalysis-2/maxwin/BulkDock/SCRATCH/220465/C31625-P120

>  <energy_score>  (99) 
-66.058952

>  <fragmenstein_error>  (99) 
None

>  <csv_name>  (99) 
RdRp_knitwork_green_site_rna_tunnel_impure_split4000_batch014.csv

>  <merge_set>  (99) 
RdRp_knitwork_green_site_rna_tunnel_impure_fragalysis.sdf

>  <original ID>  (99) 
ZVLXSMVHKYRRKV-LLVKDONJSA-N

>  <HIPPO Pose ID>  (99) 
174087

>  <fragmenstein_outcome>  (99) 
acceptable

>  <exports>  (99) 
['/opt/xchem-fragalysis-2/maxwin/BulkDock/OUTPUTS/RdRp_knitwork_green_site_rna_tunnel_impure_split4000_batch014_220465.sdf', '/opt/xchem-fragalysis-2/maxwin/BulkDock/OUTPUTS/RdRp_knitwork_green_site_rna_tunnel_impure_fragalysis.sdf']

>  <SLURM_JOB_ID>  (99) 
220465

>  <distance_score>  (99) 
0.927567

>  <original SMILES>  (99) 
Cc1oc2ccccc2c1[C@@H](C)NCc1nc2c(s1)CCC2

>  <alias>  (99) 
None

>  <ref_pdb>  (99) 
z0384a

>  <inchikey>  (99) 
ZVLXSMVHKYRRKV-LLVKDONJSA-N

$$$$
VSKSNUROHCBZBT-UHFFFAOYSA-N
     RDKit          3D

 28 31  0  0  0  0  0  0  0  0999 V2000
  -27.4035  -36.7836  -23.1997 C   0  0  0  0  0  0  0  0  0  0  0  0
  -26.0259  -37.3200  -22.8640 C   0  0  0  0  0  0  0  0  0  0  0  0
  -25.1700  -36.2082  -22.5744 O   0  0  0  0  0  0  0  0  0  0  0  0
  -23.9363  -36.5513  -22.1130 C   0  0  0  0  0  0  0  0  0  0  0  0
  -23.5193  -37.7027  -22.0416 O   0  0  0  0  0  0  0  0  0  0  0  0
  -23.1773  -35.3677  -21.7577 C   0  0  0  0  0  0  0  0  0  0  0  0
  -22.0588  -35.5813  -20.9914 O   0  0  0  0  0  0  0  0  0  0  0  0
  -21.4271  -34.3947  -20.8270 C   0  0  0  0  0  0  0  0  0  0  0  0
  -20.2305  -34.2142  -20.1327 C   0  0  0  0  0  0  0  0  0  0  0  0
  -19.6975  -32.9238  -20.1291 C   0  0  0  0  0  0  0  0  0  0  0  0
  -20.3552  -31.8788  -20.7799 C   0  0  0  0  0  0  0  0  0  0  0  0
  -21.5655  -32.0925  -21.4600 C   0  0  0  0  0  0  0  0  0  0  0  0
  -22.1182  -33.3886  -21.4829 C   0  0  0  0  0  0  0  0  0  0  0  0
  -23.2887  -34.0056  -22.0469 C   0  0  0  0  0  0  0  0  0  0  0  0
  -24.3466  -33.3235  -22.8570 C   0  0  0  0  0  0  0  0  0  0  0  0
  -24.6686  -32.0095  -22.3680 O   0  0  0  0  0  0  0  0  0  0  0  0
  -25.7419  -31.9282  -21.5278 C   0  0  0  0  0  0  0  0  0  0  0  0
  -26.3757  -32.8873  -21.1124 O   0  0  0  0  0  0  0  0  0  0  0  0
  -25.9955  -30.4748  -21.2024 C   0  0  0  0  0  0  0  0  0  0  0  0
  -27.1839  -30.2709  -20.3300 C   0  0  0  0  0  0  0  0  0  0  0  0
  -28.3746  -29.9666  -20.8693 N   0  0  0  0  0  0  0  0  0  0  0  0
  -29.2514  -29.8427  -19.8006 O   0  0  0  0  0  0  0  0  0  0  0  0
  -28.5777  -30.0339  -18.6325 C   0  0  0  0  0  0  0  0  0  0  0  0
  -29.1128  -29.9766  -17.3468 C   0  0  0  0  0  0  0  0  0  0  0  0
  -28.2226  -30.2136  -16.2935 C   0  0  0  0  0  0  0  0  0  0  0  0
  -26.8731  -30.4889  -16.5357 C   0  0  0  0  0  0  0  0  0  0  0  0
  -26.3663  -30.5368  -17.8429 C   0  0  0  0  0  0  0  0  0  0  0  0
  -27.2497  -30.3058  -18.9116 C   0  0  0  0  0  0  0  0  0  0  0  0
  1  2  1  0
  2  3  1  0
  3  4  1  0
  4  5  2  0
  4  6  1  0
  6  7  1  0
  7  8  1  0
  8  9  2  0
  9 10  1  0
 10 11  2  0
 11 12  1  0
 12 13  2  0
 13 14  1  0
 14 15  1  0
 15 16  1  0
 16 17  1  0
 17 18  2  0
 17 19  1  0
 19 20  1  0
 20 21  2  0
 21 22  1  0
 22 23  1  0
 23 24  2  0
 24 25  1  0
 25 26  2  0
 26 27  1  0
 27 28  2  0
 14  6  2  0
 28 20  1  0
 13  8  1  0
 28 23  1  0
M  END
>  <fragmenstein_mode>  (100) 
expansion

>  <name>  (100) 
VSKSNUROHCBZBT-UHFFFAOYSA-N

>  <fragmenstein_runtime>  (100) 
4.158985

>  <HIPPO Compound ID>  (100) 
56225

>  <SLURM_JOB_NAME>  (100) 
BulkDock.place:Flavi_NS5_RdRp:RdRp_knitwork_green_site_rna_tunnel_impure_split4000_batch003

>  <ref_mols>  (100) 
z0111a,3vws-b

>  <Multi-SuCOS>  (100) 
0.657124

>  <tags>  (100) 
['Fragmenstein placed', 'RdRp_knitwork_green_site_rna_tunnel_impure_fragalysis.sdf Pose OK']

>  <scratch_subdir>  (100) 
/opt/xchem-fragalysis-2/maxwin/BulkDock/SCRATCH/220454/C56225-P88

>  <energy_score>  (100) 
-81.572188

>  <fragmenstein_error>  (100) 
None

>  <csv_name>  (100) 
RdRp_knitwork_green_site_rna_tunnel_impure_split4000_batch003.csv

>  <merge_set>  (100) 
RdRp_knitwork_green_site_rna_tunnel_impure_fragalysis.sdf

>  <original ID>  (100) 
VSKSNUROHCBZBT-UHFFFAOYSA-N

>  <HIPPO Pose ID>  (100) 
174224

>  <fragmenstein_outcome>  (100) 
acceptable

>  <exports>  (100) 
['/opt/xchem-fragalysis-2/maxwin/BulkDock/OUTPUTS/RdRp_knitwork_green_site_rna_tunnel_impure_split4000_batch003_220454.sdf', '/opt/xchem-fragalysis-2/maxwin/BulkDock/OUTPUTS/RdRp_knitwork_green_site_rna_tunnel_impure_fragalysis.sdf']

>  <SLURM_JOB_ID>  (100) 
220454

>  <distance_score>  (100) 
0.603284

>  <original SMILES>  (100) 
CCOC(=O)c1oc2ccccc2c1COC(=O)Cc1noc2ccccc12

>  <alias>  (100) 
None

>  <ref_pdb>  (100) 
z0111a

>  <inchikey>  (100) 
VSKSNUROHCBZBT-UHFFFAOYSA-N

$$$$
FQOHHXLWCLUSMM-UHFFFAOYSA-N
     RDKit          3D

 24 27  0  0  0  0  0  0  0  0999 V2000
  -26.5212  -33.1001  -21.6409 O   0  0  0  0  0  0  0  0  0  0  0  0
  -25.4283  -32.5576  -21.7396 C   0  0  0  0  0  0  0  0  0  0  0  0
  -24.2917  -33.0920  -22.5801 C   0  0  0  0  0  0  0  0  0  0  0  0
  -23.2514  -33.8181  -21.8036 C   0  0  0  0  0  0  0  0  0  0  0  0
  -23.2709  -35.1486  -21.4312 C   0  0  0  0  0  0  0  0  0  0  0  0
  -22.1389  -35.4853  -20.7608 O   0  0  0  0  0  0  0  0  0  0  0  0
  -21.3705  -34.3635  -20.6889 C   0  0  0  0  0  0  0  0  0  0  0  0
  -20.1158  -34.2836  -20.0830 C   0  0  0  0  0  0  0  0  0  0  0  0
  -19.4843  -33.0428  -20.1546 C   0  0  0  0  0  0  0  0  0  0  0  0
  -18.2429  -32.8562  -19.6139 O   0  0  0  0  0  0  0  0  0  0  0  0
  -20.0842  -31.9467  -20.7686 C   0  0  0  0  0  0  0  0  0  0  0  0
  -21.3486  -32.0599  -21.3650 C   0  0  0  0  0  0  0  0  0  0  0  0
  -22.0054  -33.3043  -21.3274 C   0  0  0  0  0  0  0  0  0  0  0  0
  -25.1052  -31.3670  -21.1655 O   0  0  0  0  0  0  0  0  0  0  0  0
  -26.0709  -30.3296  -21.4146 C   0  0  0  0  0  0  0  0  0  0  0  0
  -27.2565  -30.2610  -20.4958 C   0  0  0  0  0  0  0  0  0  0  0  0
  -28.4457  -30.0655  -21.0718 N   0  0  0  0  0  0  0  0  0  0  0  0
  -29.6154  -30.0210  -19.9154 S   0  0  0  0  0  0  0  0  0  0  0  0
  -28.5584  -30.1459  -18.5666 C   0  0  0  0  0  0  0  0  0  0  0  0
  -28.8653  -30.1341  -17.1948 C   0  0  0  0  0  0  0  0  0  0  0  0
  -27.8189  -30.2779  -16.2832 C   0  0  0  0  0  0  0  0  0  0  0  0
  -26.5083  -30.4182  -16.7258 C   0  0  0  0  0  0  0  0  0  0  0  0
  -26.2127  -30.4208  -18.0952 C   0  0  0  0  0  0  0  0  0  0  0  0
  -27.2517  -30.2876  -19.0476 C   0  0  0  0  0  0  0  0  0  0  0  0
  1  2  2  0
  2  3  1  0
  3  4  1  0
  4  5  2  0
  5  6  1  0
  6  7  1  0
  7  8  2  0
  8  9  1  0
  9 10  1  0
  9 11  2  0
 11 12  1  0
 12 13  2  0
  2 14  1  0
 14 15  1  0
 15 16  1  0
 16 17  2  0
 17 18  1  0
 18 19  1  0
 19 20  2  0
 20 21  1  0
 21 22  2  0
 22 23  1  0
 23 24  2  0
 13  4  1  0
 24 16  1  0
 13  7  1  0
 24 19  1  0
M  END
>  <fragmenstein_mode>  (101) 
expansion

>  <name>  (101) 
FQOHHXLWCLUSMM-UHFFFAOYSA-N

>  <fragmenstein_runtime>  (101) 
5.346637

>  <HIPPO Compound ID>  (101) 
56261

>  <SLURM_JOB_NAME>  (101) 
BulkDock.place:Flavi_NS5_RdRp:RdRp_knitwork_green_site_rna_tunnel_impure_split4000_batch003

>  <ref_mols>  (101) 
z0111a,3vws-b

>  <Multi-SuCOS>  (101) 
0.68532

>  <tags>  (101) 
['Fragmenstein placed', 'RdRp_knitwork_green_site_rna_tunnel_impure_fragalysis.sdf Pose OK']

>  <scratch_subdir>  (101) 
/opt/xchem-fragalysis-2/maxwin/BulkDock/SCRATCH/220454/C56261-P88

>  <energy_score>  (101) 
-48.513038

>  <fragmenstein_error>  (101) 
None

>  <csv_name>  (101) 
RdRp_knitwork_green_site_rna_tunnel_impure_split4000_batch003.csv

>  <merge_set>  (101) 
RdRp_knitwork_green_site_rna_tunnel_impure_fragalysis.sdf

>  <original ID>  (101) 
FQOHHXLWCLUSMM-UHFFFAOYSA-N

>  <HIPPO Pose ID>  (101) 
174253

>  <fragmenstein_outcome>  (101) 
acceptable

>  <exports>  (101) 
['/opt/xchem-fragalysis-2/maxwin/BulkDock/OUTPUTS/RdRp_knitwork_green_site_rna_tunnel_impure_split4000_batch003_220454.sdf', '/opt/xchem-fragalysis-2/maxwin/BulkDock/OUTPUTS/RdRp_knitwork_green_site_rna_tunnel_impure_fragalysis.sdf']

>  <SLURM_JOB_ID>  (101) 
220454

>  <distance_score>  (101) 
0.673247

>  <original SMILES>  (101) 
O=C(Cc1coc2cc(O)ccc12)OCc1nsc2ccccc12

>  <alias>  (101) 
None

>  <ref_pdb>  (101) 
z0111a

>  <inchikey>  (101) 
FQOHHXLWCLUSMM-UHFFFAOYSA-N

$$$$
GHFLMBNJAQQWRC-UHFFFAOYSA-N
     RDKit          3D

 20 22  0  0  0  0  0  0  0  0999 V2000
  -28.0509  -33.2794  -15.1492 O   0  0  0  0  0  0  0  0  0  0  0  0
  -26.9628  -32.7412  -15.2911 C   0  0  0  0  0  0  0  0  0  0  0  0
  -25.6876  -33.4721  -15.6245 C   0  0  0  0  0  0  0  0  0  0  0  0
  -25.8486  -34.3373  -16.8691 C   0  0  0  0  0  0  0  0  0  0  0  0
  -26.0190  -33.5493  -18.1345 C   0  0  0  0  0  0  0  0  0  0  0  0
  -25.2537  -32.5282  -18.6609 C   0  0  0  0  0  0  0  0  0  0  0  0
  -25.6736  -32.0254  -19.8752 N   0  0  0  0  0  0  0  0  0  0  0  0
  -26.7341  -32.6851  -20.2756 C   0  0  0  0  0  0  0  0  0  0  0  0
  -27.3040  -33.8992  -19.2197 S   0  0  0  0  0  0  0  0  0  0  0  0
  -26.7151  -31.4159  -15.1588 O   0  0  0  0  0  0  0  0  0  0  0  0
  -27.8735  -30.5687  -15.0604 C   0  0  0  0  0  0  0  0  0  0  0  0
  -28.3835  -30.3202  -16.4444 C   0  0  0  0  0  0  0  0  0  0  0  0
  -27.6832  -29.7460  -17.4048 N   0  0  0  0  0  0  0  0  0  0  0  0
  -28.4003  -29.7675  -18.5722 C   0  0  0  0  0  0  0  0  0  0  0  0
  -29.6534  -30.3308  -18.4837 C   0  0  0  0  0  0  0  0  0  0  0  0
  -29.9723  -30.8148  -16.8873 S   0  0  0  0  0  0  0  0  0  0  0  0
  -30.6083  -30.4806  -19.6107 C   0  0  0  0  0  0  0  0  0  0  0  0
  -29.8796  -30.2742  -20.9434 C   0  0  0  0  0  0  0  0  0  0  0  0
  -28.8653  -29.1273  -20.9351 C   0  0  0  0  0  0  0  0  0  0  0  0
  -27.8161  -29.2383  -19.8295 C   0  0  0  0  0  0  0  0  0  0  0  0
  1  2  2  0
  2  3  1  0
  3  4  1  0
  4  5  1  0
  5  6  2  0
  6  7  1  0
  7  8  2  0
  8  9  1  0
  2 10  1  0
 10 11  1  0
 11 12  1  0
 12 13  2  0
 13 14  1  0
 14 15  2  0
 15 16  1  0
 15 17  1  0
 17 18  1  0
 18 19  1  0
 19 20  1  0
  9  5  1  0
 16 12  1  0
 20 14  1  0
M  END
>  <fragmenstein_mode>  (102) 
expansion

>  <name>  (102) 
GHFLMBNJAQQWRC-UHFFFAOYSA-N

>  <fragmenstein_runtime>  (102) 
1.902642

>  <HIPPO Compound ID>  (102) 
32372

>  <SLURM_JOB_NAME>  (102) 
BulkDock.place:Flavi_NS5_RdRp:RdRp_knitwork_green_site_rna_tunnel_impure_split4000_batch008

>  <ref_mols>  (102) 
d0472b,z0200a

>  <Multi-SuCOS>  (102) 
0.502072

>  <tags>  (102) 
['Fragmenstein placed', 'RdRp_knitwork_green_site_rna_tunnel_impure_fragalysis.sdf Pose OK']

>  <scratch_subdir>  (102) 
/opt/xchem-fragalysis-2/maxwin/BulkDock/SCRATCH/220459/C32372-P100

>  <energy_score>  (102) 
-115.707867

>  <fragmenstein_error>  (102) 
None

>  <csv_name>  (102) 
RdRp_knitwork_green_site_rna_tunnel_impure_split4000_batch008.csv

>  <merge_set>  (102) 
RdRp_knitwork_green_site_rna_tunnel_impure_fragalysis.sdf

>  <original ID>  (102) 
GHFLMBNJAQQWRC-UHFFFAOYSA-N

>  <HIPPO Pose ID>  (102) 
174280

>  <fragmenstein_outcome>  (102) 
acceptable

>  <exports>  (102) 
['/opt/xchem-fragalysis-2/maxwin/BulkDock/OUTPUTS/RdRp_knitwork_green_site_rna_tunnel_impure_split4000_batch008_220459.sdf', '/opt/xchem-fragalysis-2/maxwin/BulkDock/OUTPUTS/RdRp_knitwork_green_site_rna_tunnel_impure_fragalysis.sdf']

>  <SLURM_JOB_ID>  (102) 
220459

>  <distance_score>  (102) 
0.923087

>  <original SMILES>  (102) 
O=C(CCc1cncs1)OCc1nc2c(s1)CCCC2

>  <alias>  (102) 
None

>  <ref_pdb>  (102) 
z0200a

>  <inchikey>  (102) 
GHFLMBNJAQQWRC-UHFFFAOYSA-N

$$$$
NSVSPADCLGJAIJ-UHFFFAOYSA-N
     RDKit          3D

 23 26  0  0  0  0  0  0  0  0999 V2000
  -24.3565  -31.0054  -19.7452 O   0  0  0  0  0  0  0  0  0  0  0  0
  -25.2756  -31.2135  -20.4305 C   0  0  0  0  0  0  0  0  0  0  0  0
  -25.3657  -31.9370  -21.7864 N   0  0  0  0  0  0  0  0  0  0  0  0
  -24.3302  -32.4739  -22.6310 C   0  0  0  0  0  0  0  0  0  0  0  0
  -23.4099  -33.3837  -21.8900 C   0  0  0  0  0  0  0  0  0  0  0  0
  -23.6332  -34.6889  -21.4886 C   0  0  0  0  0  0  0  0  0  0  0  0
  -22.5530  -35.1982  -20.8363 O   0  0  0  0  0  0  0  0  0  0  0  0
  -21.6095  -34.2181  -20.8057 C   0  0  0  0  0  0  0  0  0  0  0  0
  -20.3524  -34.3182  -20.2061 C   0  0  0  0  0  0  0  0  0  0  0  0
  -19.5022  -33.2177  -20.3513 C   0  0  0  0  0  0  0  0  0  0  0  0
  -19.9260  -32.0824  -21.0381 C   0  0  0  0  0  0  0  0  0  0  0  0
  -19.0706  -31.0631  -21.1994 F   0  0  0  0  0  0  0  0  0  0  0  0
  -21.2050  -31.9846  -21.5902 C   0  0  0  0  0  0  0  0  0  0  0  0
  -22.0696  -33.0893  -21.4752 C   0  0  0  0  0  0  0  0  0  0  0  0
  -26.6380  -30.7668  -20.0053 C   0  0  0  0  0  0  0  0  0  0  0  0
  -27.6037  -30.5909  -20.9205 N   0  0  0  0  0  0  0  0  0  0  0  0
  -28.9924  -30.0932  -20.1720 S   0  0  0  0  0  0  0  0  0  0  0  0
  -28.3812  -30.1467  -18.5679 C   0  0  0  0  0  0  0  0  0  0  0  0
  -29.0410  -29.9025  -17.3503 C   0  0  0  0  0  0  0  0  0  0  0  0
  -28.3139  -30.0235  -16.1646 C   0  0  0  0  0  0  0  0  0  0  0  0
  -26.9678  -30.3624  -16.1925 C   0  0  0  0  0  0  0  0  0  0  0  0
  -26.3208  -30.5965  -17.4083 C   0  0  0  0  0  0  0  0  0  0  0  0
  -27.0318  -30.5043  -18.6298 C   0  0  0  0  0  0  0  0  0  0  0  0
  1  2  2  0
  2  3  1  0
  3  4  1  0
  4  5  1  0
  5  6  2  0
  6  7  1  0
  7  8  1  0
  8  9  2  0
  9 10  1  0
 10 11  2  0
 11 12  1  0
 11 13  1  0
 13 14  2  0
  2 15  1  0
 15 16  2  0
 16 17  1  0
 17 18  1  0
 18 19  2  0
 19 20  1  0
 20 21  2  0
 21 22  1  0
 22 23  2  0
 14  5  1  0
 23 15  1  0
 14  8  1  0
 23 18  1  0
M  END
>  <fragmenstein_mode>  (103) 
expansion

>  <name>  (103) 
NSVSPADCLGJAIJ-UHFFFAOYSA-N

>  <fragmenstein_runtime>  (103) 
2.697014

>  <HIPPO Compound ID>  (103) 
56578

>  <SLURM_JOB_NAME>  (103) 
BulkDock.place:Flavi_NS5_RdRp:RdRp_knitwork_green_site_rna_tunnel_impure_split4000_batch003

>  <ref_mols>  (103) 
z0111a,3vws-b

>  <Multi-SuCOS>  (103) 
0.686154

>  <tags>  (103) 
['Fragmenstein placed', 'RdRp_knitwork_green_site_rna_tunnel_impure_fragalysis.sdf Pose OK']

>  <scratch_subdir>  (103) 
/opt/xchem-fragalysis-2/maxwin/BulkDock/SCRATCH/220454/C56578-P88

>  <energy_score>  (103) 
-91.817329

>  <fragmenstein_error>  (103) 
None

>  <csv_name>  (103) 
RdRp_knitwork_green_site_rna_tunnel_impure_split4000_batch003.csv

>  <merge_set>  (103) 
RdRp_knitwork_green_site_rna_tunnel_impure_fragalysis.sdf

>  <original ID>  (103) 
NSVSPADCLGJAIJ-UHFFFAOYSA-N

>  <HIPPO Pose ID>  (103) 
174644

>  <fragmenstein_outcome>  (103) 
acceptable

>  <exports>  (103) 
['/opt/xchem-fragalysis-2/maxwin/BulkDock/OUTPUTS/RdRp_knitwork_green_site_rna_tunnel_impure_split4000_batch003_220454.sdf', '/opt/xchem-fragalysis-2/maxwin/BulkDock/OUTPUTS/RdRp_knitwork_green_site_rna_tunnel_impure_fragalysis.sdf']

>  <SLURM_JOB_ID>  (103) 
220454

>  <distance_score>  (103) 
0.852728

>  <original SMILES>  (103) 
O=C(NCc1coc2ccc(F)cc12)c1nsc2ccccc12

>  <alias>  (103) 
None

>  <ref_pdb>  (103) 
z0111a

>  <inchikey>  (103) 
NSVSPADCLGJAIJ-UHFFFAOYSA-N

$$$$
OVEYMRSTPOROHX-UHFFFAOYSA-N
     RDKit          3D

 22 25  0  0  0  0  0  0  0  0999 V2000
  -24.3380  -30.9697  -19.7211 O   0  0  0  0  0  0  0  0  0  0  0  0
  -25.2518  -31.2147  -20.4010 C   0  0  0  0  0  0  0  0  0  0  0  0
  -25.3207  -31.9431  -21.7548 N   0  0  0  0  0  0  0  0  0  0  0  0
  -24.2695  -32.4406  -22.6043 C   0  0  0  0  0  0  0  0  0  0  0  0
  -23.3665  -33.3926  -21.8963 C   0  0  0  0  0  0  0  0  0  0  0  0
  -23.5605  -34.7425  -21.6612 C   0  0  0  0  0  0  0  0  0  0  0  0
  -22.5001  -35.2895  -21.0070 O   0  0  0  0  0  0  0  0  0  0  0  0
  -21.6023  -34.2868  -20.8005 C   0  0  0  0  0  0  0  0  0  0  0  0
  -20.3800  -34.4121  -20.1391 C   0  0  0  0  0  0  0  0  0  0  0  0
  -19.5864  -33.2637  -20.0589 C   0  0  0  0  0  0  0  0  0  0  0  0
  -20.0225  -32.0530  -20.5993 C   0  0  0  0  0  0  0  0  0  0  0  0
  -21.2623  -31.9551  -21.2478 C   0  0  0  0  0  0  0  0  0  0  0  0
  -22.0731  -33.1015  -21.3513 C   0  0  0  0  0  0  0  0  0  0  0  0
  -26.6204  -30.7740  -19.9928 C   0  0  0  0  0  0  0  0  0  0  0  0
  -27.5738  -30.5934  -20.9200 N   0  0  0  0  0  0  0  0  0  0  0  0
  -28.9715  -30.0975  -20.1850 S   0  0  0  0  0  0  0  0  0  0  0  0
  -28.3773  -30.1510  -18.5744 C   0  0  0  0  0  0  0  0  0  0  0  0
  -29.0484  -29.9045  -17.3634 C   0  0  0  0  0  0  0  0  0  0  0  0
  -28.3328  -30.0249  -16.1705 C   0  0  0  0  0  0  0  0  0  0  0  0
  -26.9873  -30.3670  -16.1848 C   0  0  0  0  0  0  0  0  0  0  0  0
  -26.3293  -30.6042  -17.3938 C   0  0  0  0  0  0  0  0  0  0  0  0
  -27.0283  -30.5114  -18.6221 C   0  0  0  0  0  0  0  0  0  0  0  0
  1  2  2  0
  2  3  1  0
  3  4  1  0
  4  5  1  0
  5  6  2  0
  6  7  1  0
  7  8  1  0
  8  9  2  0
  9 10  1  0
 10 11  2  0
 11 12  1  0
 12 13  2  0
  2 14  1  0
 14 15  2  0
 15 16  1  0
 16 17  1  0
 17 18  2  0
 18 19  1  0
 19 20  2  0
 20 21  1  0
 21 22  2  0
 13  5  1  0
 22 14  1  0
 13  8  1  0
 22 17  1  0
M  END
>  <fragmenstein_mode>  (104) 
expansion

>  <name>  (104) 
OVEYMRSTPOROHX-UHFFFAOYSA-N

>  <fragmenstein_runtime>  (104) 
4.856526

>  <HIPPO Compound ID>  (104) 
56605

>  <SLURM_JOB_NAME>  (104) 
BulkDock.place:Flavi_NS5_RdRp:RdRp_knitwork_green_site_rna_tunnel_impure_split4000_batch003

>  <ref_mols>  (104) 
z0111a,3vws-b

>  <Multi-SuCOS>  (104) 
0.69869

>  <tags>  (104) 
['Fragmenstein placed', 'RdRp_knitwork_green_site_rna_tunnel_impure_fragalysis.sdf Pose OK']

>  <scratch_subdir>  (104) 
/opt/xchem-fragalysis-2/maxwin/BulkDock/SCRATCH/220454/C56605-P88

>  <energy_score>  (104) 
-31.802832

>  <fragmenstein_error>  (104) 
None

>  <csv_name>  (104) 
RdRp_knitwork_green_site_rna_tunnel_impure_split4000_batch003.csv

>  <merge_set>  (104) 
RdRp_knitwork_green_site_rna_tunnel_impure_fragalysis.sdf

>  <original ID>  (104) 
OVEYMRSTPOROHX-UHFFFAOYSA-N

>  <HIPPO Pose ID>  (104) 
174675

>  <fragmenstein_outcome>  (104) 
acceptable

>  <exports>  (104) 
['/opt/xchem-fragalysis-2/maxwin/BulkDock/OUTPUTS/RdRp_knitwork_green_site_rna_tunnel_impure_split4000_batch003_220454.sdf', '/opt/xchem-fragalysis-2/maxwin/BulkDock/OUTPUTS/RdRp_knitwork_green_site_rna_tunnel_impure_fragalysis.sdf']

>  <SLURM_JOB_ID>  (104) 
220454

>  <distance_score>  (104) 
0.940219

>  <original SMILES>  (104) 
O=C(NCc1coc2ccccc12)c1nsc2ccccc12

>  <alias>  (104) 
None

>  <ref_pdb>  (104) 
z0111a

>  <inchikey>  (104) 
OVEYMRSTPOROHX-UHFFFAOYSA-N

$$$$
MNONSGYTEVFOJB-UHFFFAOYSA-N
     RDKit          3D

 23 26  0  0  0  0  0  0  0  0999 V2000
  -25.1123  -36.7029  -22.4877 N   0  0  0  0  0  0  0  0  0  0  0  0
  -24.3460  -35.9249  -22.0947 C   0  0  0  0  0  0  0  0  0  0  0  0
  -23.4182  -34.9545  -21.6395 C   0  0  0  0  0  0  0  0  0  0  0  0
  -22.2774  -35.4126  -21.0406 O   0  0  0  0  0  0  0  0  0  0  0  0
  -21.5054  -34.3170  -20.7793 C   0  0  0  0  0  0  0  0  0  0  0  0
  -20.2450  -34.3360  -20.1810 C   0  0  0  0  0  0  0  0  0  0  0  0
  -19.5804  -33.1110  -20.0770 C   0  0  0  0  0  0  0  0  0  0  0  0
  -20.1749  -31.9321  -20.5310 C   0  0  0  0  0  0  0  0  0  0  0  0
  -21.4589  -31.9363  -21.0961 C   0  0  0  0  0  0  0  0  0  0  0  0
  -22.1408  -33.1591  -21.2168 C   0  0  0  0  0  0  0  0  0  0  0  0
  -23.4140  -33.5774  -21.6842 C   0  0  0  0  0  0  0  0  0  0  0  0
  -24.3957  -32.7812  -22.1753 O   0  0  0  0  0  0  0  0  0  0  0  0
  -25.3889  -32.4486  -21.1768 C   0  0  0  0  0  0  0  0  0  0  0  0
  -25.7277  -30.9455  -21.2195 C   0  0  0  0  0  0  0  0  0  0  0  0
  -26.9057  -30.5660  -20.3738 C   0  0  0  0  0  0  0  0  0  0  0  0
  -28.0728  -30.2516  -20.9563 N   0  0  0  0  0  0  0  0  0  0  0  0
  -28.9608  -29.9877  -19.9256 O   0  0  0  0  0  0  0  0  0  0  0  0
  -28.3223  -30.1180  -18.7311 C   0  0  0  0  0  0  0  0  0  0  0  0
  -28.8873  -29.9466  -17.4682 C   0  0  0  0  0  0  0  0  0  0  0  0
  -28.0344  -30.1425  -16.3773 C   0  0  0  0  0  0  0  0  0  0  0  0
  -26.6897  -30.4791  -16.5639 C   0  0  0  0  0  0  0  0  0  0  0  0
  -26.1526  -30.6422  -17.8507 C   0  0  0  0  0  0  0  0  0  0  0  0
  -27.0003  -30.4661  -18.9579 C   0  0  0  0  0  0  0  0  0  0  0  0
  1  2  3  0
  2  3  1  0
  3  4  1  0
  4  5  1  0
  5  6  2  0
  6  7  1  0
  7  8  2  0
  8  9  1  0
  9 10  2  0
 10 11  1  0
 11 12  1  0
 12 13  1  0
 13 14  1  0
 14 15  1  0
 15 16  2  0
 16 17  1  0
 17 18  1  0
 18 19  2  0
 19 20  1  0
 20 21  2  0
 21 22  1  0
 22 23  2  0
 11  3  2  0
 23 15  1  0
 10  5  1  0
 23 18  1  0
M  END
>  <fragmenstein_mode>  (105) 
expansion

>  <name>  (105) 
MNONSGYTEVFOJB-UHFFFAOYSA-N

>  <fragmenstein_runtime>  (105) 
1.933562

>  <HIPPO Compound ID>  (105) 
56754

>  <SLURM_JOB_NAME>  (105) 
BulkDock.place:Flavi_NS5_RdRp:RdRp_knitwork_green_site_rna_tunnel_impure_split4000_batch003

>  <ref_mols>  (105) 
z0111a,3vws-b

>  <Multi-SuCOS>  (105) 
0.682631

>  <tags>  (105) 
['Fragmenstein placed', 'RdRp_knitwork_green_site_rna_tunnel_impure_fragalysis.sdf Pose OK']

>  <scratch_subdir>  (105) 
/opt/xchem-fragalysis-2/maxwin/BulkDock/SCRATCH/220454/C56754-P88

>  <energy_score>  (105) 
-42.954818

>  <fragmenstein_error>  (105) 
None

>  <csv_name>  (105) 
RdRp_knitwork_green_site_rna_tunnel_impure_split4000_batch003.csv

>  <merge_set>  (105) 
RdRp_knitwork_green_site_rna_tunnel_impure_fragalysis.sdf

>  <original ID>  (105) 
MNONSGYTEVFOJB-UHFFFAOYSA-N

>  <HIPPO Pose ID>  (105) 
174820

>  <fragmenstein_outcome>  (105) 
acceptable

>  <exports>  (105) 
['/opt/xchem-fragalysis-2/maxwin/BulkDock/OUTPUTS/RdRp_knitwork_green_site_rna_tunnel_impure_split4000_batch003_220454.sdf', '/opt/xchem-fragalysis-2/maxwin/BulkDock/OUTPUTS/RdRp_knitwork_green_site_rna_tunnel_impure_fragalysis.sdf']

>  <SLURM_JOB_ID>  (105) 
220454

>  <distance_score>  (105) 
0.766896

>  <original SMILES>  (105) 
N#Cc1oc2ccccc2c1OCCc1noc2ccccc12

>  <alias>  (105) 
None

>  <ref_pdb>  (105) 
z0111a

>  <inchikey>  (105) 
MNONSGYTEVFOJB-UHFFFAOYSA-N

$$$$
NGBDMRCKBXBACE-UHFFFAOYSA-N
     RDKit          3D

 13 14  0  0  0  0  0  0  0  0999 V2000
  -30.5966  -32.3979  -19.3173 O   0  0  0  0  0  0  0  0  0  0  0  0
  -30.3495  -31.8273  -18.3330 C   0  0  0  0  0  0  0  0  0  0  0  0
  -29.3468  -30.6811  -18.0635 N   0  0  0  0  0  0  0  0  0  0  0  0
  -28.5388  -29.9630  -18.9398 C   0  0  0  0  0  0  0  0  0  0  0  0
  -28.5259  -30.2358  -20.3033 C   0  0  0  0  0  0  0  0  0  0  0  0
  -27.6847  -29.5160  -21.1545 C   0  0  0  0  0  0  0  0  0  0  0  0
  -26.8467  -28.5130  -20.6583 C   0  0  0  0  0  0  0  0  0  0  0  0
  -26.8500  -28.2523  -19.2783 C   0  0  0  0  0  0  0  0  0  0  0  0
  -27.7122  -28.9631  -18.4286 C   0  0  0  0  0  0  0  0  0  0  0  0
  -25.9438  -27.1875  -18.7157 C   0  0  0  0  0  0  0  0  0  0  0  0
  -24.7089  -26.9964  -19.5799 C   0  0  0  0  0  0  0  0  0  0  0  0
  -25.1235  -26.8090  -21.0255 C   0  0  0  0  0  0  0  0  0  0  0  0
  -25.9007  -27.9373  -21.5004 N   0  0  0  0  0  0  0  0  0  0  0  0
  1  2  2  0
  2  3  1  0
  3  4  1  0
  4  5  2  0
  5  6  1  0
  6  7  2  0
  7  8  1  0
  8  9  2  0
  8 10  1  0
 10 11  1  0
 11 12  1  0
 12 13  1  0
  9  4  1  0
 13  7  1  0
M  END
>  <fragmenstein_mode>  (106) 
expansion

>  <name>  (106) 
NGBDMRCKBXBACE-UHFFFAOYSA-N

>  <fragmenstein_runtime>  (106) 
2.542597

>  <HIPPO Compound ID>  (106) 
50478

>  <SLURM_JOB_NAME>  (106) 
BulkDock.place:Flavi_NS5_RdRp:RdRp_knitwork_green_site_rna_tunnel_impure_split4000_batch007

>  <ref_mols>  (106) 
z0364a,z0384a

>  <Multi-SuCOS>  (106) 
0.725987

>  <tags>  (106) 
['Fragmenstein placed', 'RdRp_knitwork_green_site_rna_tunnel_impure_fragalysis.sdf Pose OK']

>  <scratch_subdir>  (106) 
/opt/xchem-fragalysis-2/maxwin/BulkDock/SCRATCH/220458/C50478-P118

>  <energy_score>  (106) 
-57.829769

>  <fragmenstein_error>  (106) 
None

>  <csv_name>  (106) 
RdRp_knitwork_green_site_rna_tunnel_impure_split4000_batch007.csv

>  <merge_set>  (106) 
RdRp_knitwork_green_site_rna_tunnel_impure_fragalysis.sdf

>  <original ID>  (106) 
NGBDMRCKBXBACE-UHFFFAOYSA-N

>  <HIPPO Pose ID>  (106) 
174839

>  <fragmenstein_outcome>  (106) 
acceptable

>  <exports>  (106) 
['/opt/xchem-fragalysis-2/maxwin/BulkDock/OUTPUTS/RdRp_knitwork_green_site_rna_tunnel_impure_split4000_batch007_220458.sdf', '/opt/xchem-fragalysis-2/maxwin/BulkDock/OUTPUTS/RdRp_knitwork_green_site_rna_tunnel_impure_fragalysis.sdf']

>  <SLURM_JOB_ID>  (106) 
220458

>  <distance_score>  (106) 
0.839028

>  <original SMILES>  (106) 
O=CNc1ccc2c(c1)CCCN2

>  <alias>  (106) 
None

>  <ref_pdb>  (106) 
z0364a

>  <inchikey>  (106) 
NGBDMRCKBXBACE-UHFFFAOYSA-N

$$$$
LQQWCINYCCMFRV-UHFFFAOYSA-N
     RDKit          3D

 24 27  0  0  0  0  0  0  0  0999 V2000
  -25.4165  -33.0678  -19.8921 O   0  0  0  0  0  0  0  0  0  0  0  0
  -25.7009  -32.6492  -20.9467 C   0  0  0  0  0  0  0  0  0  0  0  0
  -26.0169  -31.1556  -21.1573 C   0  0  0  0  0  0  0  0  0  0  0  0
  -27.1530  -30.6906  -20.3038 C   0  0  0  0  0  0  0  0  0  0  0  0
  -28.3159  -30.3337  -20.8735 N   0  0  0  0  0  0  0  0  0  0  0  0
  -29.1639  -29.9939  -19.8301 O   0  0  0  0  0  0  0  0  0  0  0  0
  -28.5019  -30.1147  -18.6468 C   0  0  0  0  0  0  0  0  0  0  0  0
  -29.0259  -29.8824  -17.3762 C   0  0  0  0  0  0  0  0  0  0  0  0
  -28.1543  -30.0796  -16.3000 C   0  0  0  0  0  0  0  0  0  0  0  0
  -26.8308  -30.4797  -16.5072 C   0  0  0  0  0  0  0  0  0  0  0  0
  -26.3367  -30.7069  -17.8003 C   0  0  0  0  0  0  0  0  0  0  0  0
  -27.2036  -30.5277  -18.8920 C   0  0  0  0  0  0  0  0  0  0  0  0
  -25.7372  -33.3546  -22.3367 N   0  0  0  0  0  0  0  0  0  0  0  0
  -25.5215  -34.7488  -22.6944 C   0  0  0  0  0  0  0  0  0  0  0  0
  -24.4424  -35.5111  -21.9033 C   0  0  0  0  0  0  0  0  0  0  0  0
  -23.1509  -34.7841  -21.7717 C   0  0  0  0  0  0  0  0  0  0  0  0
  -22.6432  -33.6238  -22.3213 C   0  0  0  0  0  0  0  0  0  0  0  0
  -21.4682  -33.3105  -21.5975 C   0  0  0  0  0  0  0  0  0  0  0  0
  -20.5669  -32.2335  -21.5741 C   0  0  0  0  0  0  0  0  0  0  0  0
  -19.4996  -32.2769  -20.6674 C   0  0  0  0  0  0  0  0  0  0  0  0
  -19.3146  -33.3738  -19.8216 C   0  0  0  0  0  0  0  0  0  0  0  0
  -20.2083  -34.4497  -19.8250 C   0  0  0  0  0  0  0  0  0  0  0  0
  -21.2759  -34.3653  -20.7153 C   0  0  0  0  0  0  0  0  0  0  0  0
  -22.2763  -35.2812  -20.8457 O   0  0  0  0  0  0  0  0  0  0  0  0
  1  2  2  0
  2  3  1  0
  3  4  1  0
  4  5  2  0
  5  6  1  0
  6  7  1  0
  7  8  2  0
  8  9  1  0
  9 10  2  0
 10 11  1  0
 11 12  2  0
  2 13  1  0
 13 14  1  0
 14 15  1  0
 15 16  1  0
 16 17  2  0
 17 18  1  0
 18 19  2  0
 19 20  1  0
 20 21  2  0
 21 22  1  0
 22 23  2  0
 23 24  1  0
 12  4  1  0
 24 16  1  0
 12  7  1  0
 23 18  1  0
M  END
>  <fragmenstein_mode>  (107) 
expansion

>  <name>  (107) 
LQQWCINYCCMFRV-UHFFFAOYSA-N

>  <fragmenstein_runtime>  (107) 
3.55849

>  <HIPPO Compound ID>  (107) 
56786

>  <SLURM_JOB_NAME>  (107) 
BulkDock.place:Flavi_NS5_RdRp:RdRp_knitwork_green_site_rna_tunnel_impure_split4000_batch003

>  <ref_mols>  (107) 
z0111a,3vws-b

>  <Multi-SuCOS>  (107) 
0.669853

>  <tags>  (107) 
['Fragmenstein placed', 'RdRp_knitwork_green_site_rna_tunnel_impure_fragalysis.sdf Pose OK']

>  <scratch_subdir>  (107) 
/opt/xchem-fragalysis-2/maxwin/BulkDock/SCRATCH/220454/C56786-P88

>  <energy_score>  (107) 
-21.404264

>  <fragmenstein_error>  (107) 
None

>  <csv_name>  (107) 
RdRp_knitwork_green_site_rna_tunnel_impure_split4000_batch003.csv

>  <merge_set>  (107) 
RdRp_knitwork_green_site_rna_tunnel_impure_fragalysis.sdf

>  <original ID>  (107) 
LQQWCINYCCMFRV-UHFFFAOYSA-N

>  <HIPPO Pose ID>  (107) 
174899

>  <fragmenstein_outcome>  (107) 
acceptable

>  <exports>  (107) 
['/opt/xchem-fragalysis-2/maxwin/BulkDock/OUTPUTS/RdRp_knitwork_green_site_rna_tunnel_impure_split4000_batch003_220454.sdf', '/opt/xchem-fragalysis-2/maxwin/BulkDock/OUTPUTS/RdRp_knitwork_green_site_rna_tunnel_impure_fragalysis.sdf']

>  <SLURM_JOB_ID>  (107) 
220454

>  <distance_score>  (107) 
0.894052

>  <original SMILES>  (107) 
O=C(Cc1noc2ccccc12)NCCc1cc2ccccc2o1

>  <alias>  (107) 
None

>  <ref_pdb>  (107) 
z0111a

>  <inchikey>  (107) 
LQQWCINYCCMFRV-UHFFFAOYSA-N

$$$$
KSLLTEVDKMOHSW-KRWDZBQOSA-N
     RDKit          3D

 23 26  0  0  0  0  0  0  0  0999 V2000
  -29.2191  -30.5832  -16.2216 C   0  0  0  0  0  0  0  0  0  0  0  0
  -28.0176  -30.0880  -16.6570 C   0  0  0  0  0  0  0  0  0  0  0  0
  -27.7425  -29.7827  -17.9469 N   0  0  0  0  0  0  0  0  0  0  0  0
  -28.7050  -29.9964  -18.8829 C   0  0  0  0  0  0  0  0  0  0  0  0
  -29.9757  -30.4136  -18.5199 C   0  0  0  0  0  0  0  0  0  0  0  0
  -30.2115  -30.7418  -17.1737 C   0  0  0  0  0  0  0  0  0  0  0  0
  -31.0957  -30.3968  -19.5107 C   0  0  0  0  0  0  0  0  0  0  0  0
  -30.8096  -29.8303  -20.8840 C   0  0  0  0  0  0  0  0  0  0  0  0
  -29.5896  -28.9582  -20.9704 C   0  0  0  0  0  0  0  0  0  0  0  0
  -28.4082  -29.6378  -20.3398 C   0  0  2  0  0  0  0  0  0  0  0  0
  -28.0638  -30.7702  -21.2248 N   0  0  0  0  0  0  0  0  0  0  0  0
  -26.9954  -30.4723  -22.1846 C   0  0  0  0  0  0  0  0  0  0  0  0
  -25.8552  -29.8395  -21.4552 C   0  0  0  0  0  0  0  0  0  0  0  0
  -25.4241  -28.5731  -21.9074 C   0  0  0  0  0  0  0  0  0  0  0  0
  -24.7587  -27.7357  -21.0422 C   0  0  0  0  0  0  0  0  0  0  0  0
  -24.5172  -28.2161  -19.7816 C   0  0  0  0  0  0  0  0  0  0  0  0
  -24.8343  -29.4675  -19.3723 N   0  0  0  0  0  0  0  0  0  0  0  0
  -25.4665  -30.3297  -20.1962 C   0  0  0  0  0  0  0  0  0  0  0  0
  -25.6859  -31.6225  -19.7386 N   0  0  0  0  0  0  0  0  0  0  0  0
  -25.1140  -32.0417  -18.4622 C   0  0  0  0  0  0  0  0  0  0  0  0
  -24.9443  -33.5526  -18.5692 C   0  0  0  0  0  0  0  0  0  0  0  0
  -26.0309  -33.9459  -19.5379 C   0  0  0  0  0  0  0  0  0  0  0  0
  -26.0016  -32.8012  -20.5428 C   0  0  0  0  0  0  0  0  0  0  0  0
  1  2  2  0
  2  3  1  0
  3  4  2  0
  4  5  1  0
  5  6  2  0
  5  7  1  0
  7  8  1  0
  8  9  1  0
  9 10  1  0
 10 11  1  6
 11 12  1  0
 12 13  1  0
 13 14  2  0
 14 15  1  0
 15 16  2  0
 16 17  1  0
 17 18  2  0
 18 19  1  0
 19 20  1  0
 20 21  1  0
 21 22  1  0
 22 23  1  0
  6  1  1  0
 18 13  1  0
 23 19  1  0
 10  4  1  0
M  END
>  <fragmenstein_mode>  (108) 
expansion

>  <name>  (108) 
KSLLTEVDKMOHSW-KRWDZBQOSA-N

>  <fragmenstein_runtime>  (108) 
2.506821

>  <HIPPO Compound ID>  (108) 
61386

>  <SLURM_JOB_NAME>  (108) 
BulkDock.place:Flavi_NS5_RdRp:RdRp_knitwork_green_site_rna_tunnel_impure_split4000_batch001

>  <ref_mols>  (108) 
d0472b,z0200a

>  <Multi-SuCOS>  (108) 
0.636188

>  <tags>  (108) 
['Fragmenstein placed', 'RdRp_knitwork_green_site_rna_tunnel_impure_fragalysis.sdf Pose OK']

>  <scratch_subdir>  (108) 
/opt/xchem-fragalysis-2/maxwin/BulkDock/SCRATCH/220452/C61386-P100

>  <energy_score>  (108) 
-10.941015

>  <fragmenstein_error>  (108) 
None

>  <csv_name>  (108) 
RdRp_knitwork_green_site_rna_tunnel_impure_split4000_batch001.csv

>  <merge_set>  (108) 
RdRp_knitwork_green_site_rna_tunnel_impure_fragalysis.sdf

>  <original ID>  (108) 
KSLLTEVDKMOHSW-KRWDZBQOSA-N

>  <HIPPO Pose ID>  (108) 
175443

>  <fragmenstein_outcome>  (108) 
acceptable

>  <exports>  (108) 
['/opt/xchem-fragalysis-2/maxwin/BulkDock/OUTPUTS/RdRp_knitwork_green_site_rna_tunnel_impure_split4000_batch001_220452.sdf', '/opt/xchem-fragalysis-2/maxwin/BulkDock/OUTPUTS/RdRp_knitwork_green_site_rna_tunnel_impure_fragalysis.sdf']

>  <SLURM_JOB_ID>  (108) 
220452

>  <distance_score>  (108) 
0.89828

>  <original SMILES>  (108) 
c1cnc2c(c1)CCC[C@@H]2NCc1cccnc1N1CCCC1

>  <alias>  (108) 
None

>  <ref_pdb>  (108) 
z0200a

>  <inchikey>  (108) 
KSLLTEVDKMOHSW-KRWDZBQOSA-N

$$$$
YTEOINSOTISOTF-OAHLLOKOSA-N
     RDKit          3D

 23 25  0  0  0  0  0  0  0  0999 V2000
  -24.0491  -31.4636  -20.5543 C   0  0  0  0  0  0  0  0  0  0  0  0
  -25.2304  -30.6773  -20.5075 O   0  0  0  0  0  0  0  0  0  0  0  0
  -26.2908  -31.2140  -21.3040 C   0  0  0  0  0  0  0  0  0  0  0  0
  -27.2226  -32.1462  -20.5006 C   0  0  1  0  0  0  0  0  0  0  0  0
  -26.5487  -33.3507  -20.0475 O   0  0  0  0  0  0  0  0  0  0  0  0
  -26.3208  -34.2843  -21.0127 C   0  0  0  0  0  0  0  0  0  0  0  0
  -26.7188  -34.1881  -22.1664 O   0  0  0  0  0  0  0  0  0  0  0  0
  -25.5702  -35.4853  -20.4793 C   0  0  0  0  0  0  0  0  0  0  0  0
  -24.5801  -36.0674  -21.5054 C   0  0  0  0  0  0  0  0  0  0  0  0
  -23.3368  -35.2550  -21.5570 C   0  0  0  0  0  0  0  0  0  0  0  0
  -22.9381  -34.1800  -22.3228 C   0  0  0  0  0  0  0  0  0  0  0  0
  -21.7459  -33.6861  -21.7271 C   0  0  0  0  0  0  0  0  0  0  0  0
  -20.9224  -32.5619  -21.9123 C   0  0  0  0  0  0  0  0  0  0  0  0
  -19.8429  -32.3728  -21.0381 C   0  0  0  0  0  0  0  0  0  0  0  0
  -19.5498  -33.3003  -20.0357 C   0  0  0  0  0  0  0  0  0  0  0  0
  -20.3502  -34.4303  -19.8441 C   0  0  0  0  0  0  0  0  0  0  0  0
  -21.4462  -34.5647  -20.6935 C   0  0  0  0  0  0  0  0  0  0  0  0
  -22.3946  -35.5382  -20.6124 O   0  0  0  0  0  0  0  0  0  0  0  0
  -27.7811  -31.4155  -19.2940 C   0  0  0  0  0  0  0  0  0  0  0  0
  -27.2017  -31.3199  -18.1119 N   0  0  0  0  0  0  0  0  0  0  0  0
  -27.9685  -30.5473  -17.2653 C   0  0  0  0  0  0  0  0  0  0  0  0
  -29.1520  -30.0837  -17.7916 C   0  0  0  0  0  0  0  0  0  0  0  0
  -29.2979  -30.5888  -19.4215 S   0  0  0  0  0  0  0  0  0  0  0  0
  1  2  1  0
  2  3  1  0
  4  3  1  1
  4  5  1  0
  5  6  1  0
  6  7  2  0
  6  8  1  0
  8  9  1  0
  9 10  1  0
 10 11  2  0
 11 12  1  0
 12 13  2  0
 13 14  1  0
 14 15  2  0
 15 16  1  0
 16 17  2  0
 17 18  1  0
  4 19  1  0
 19 20  2  0
 20 21  1  0
 21 22  2  0
 22 23  1  0
 18 10  1  0
 23 19  1  0
 17 12  1  0
M  END
>  <fragmenstein_mode>  (109) 
expansion

>  <name>  (109) 
YTEOINSOTISOTF-OAHLLOKOSA-N

>  <fragmenstein_runtime>  (109) 
2.905499

>  <HIPPO Compound ID>  (109) 
36206

>  <SLURM_JOB_NAME>  (109) 
BulkDock.place:Flavi_NS5_RdRp:RdRp_knitwork_green_site_rna_tunnel_impure_split4000_batch017

>  <ref_mols>  (109) 
z0384a,3vws-b

>  <Multi-SuCOS>  (109) 
0.561355

>  <tags>  (109) 
['Fragmenstein placed', 'RdRp_knitwork_green_site_rna_tunnel_impure_fragalysis.sdf Pose OK']

>  <scratch_subdir>  (109) 
/opt/xchem-fragalysis-2/maxwin/BulkDock/SCRATCH/220468/C36206-P120

>  <energy_score>  (109) 
-90.377371

>  <fragmenstein_error>  (109) 
None

>  <csv_name>  (109) 
RdRp_knitwork_green_site_rna_tunnel_impure_split4000_batch017.csv

>  <merge_set>  (109) 
RdRp_knitwork_green_site_rna_tunnel_impure_fragalysis.sdf

>  <original ID>  (109) 
YTEOINSOTISOTF-OAHLLOKOSA-N

>  <HIPPO Pose ID>  (109) 
175492

>  <fragmenstein_outcome>  (109) 
acceptable

>  <exports>  (109) 
['/opt/xchem-fragalysis-2/maxwin/BulkDock/OUTPUTS/RdRp_knitwork_green_site_rna_tunnel_impure_split4000_batch017_220468.sdf', '/opt/xchem-fragalysis-2/maxwin/BulkDock/OUTPUTS/RdRp_knitwork_green_site_rna_tunnel_impure_fragalysis.sdf']

>  <SLURM_JOB_ID>  (109) 
220468

>  <distance_score>  (109) 
0.942068

>  <original SMILES>  (109) 
COC[C@@H](OC(=O)CCc1cc2ccccc2o1)c1nccs1

>  <alias>  (109) 
None

>  <ref_pdb>  (109) 
z0384a

>  <inchikey>  (109) 
YTEOINSOTISOTF-OAHLLOKOSA-N

$$$$
BZFUZOLRKZYVHX-LBPRGKRZSA-N
     RDKit          3D

 25 27  0  0  0  0  0  0  0  0999 V2000
  -24.3476  -31.7176  -19.2591 C   0  0  0  0  0  0  0  0  0  0  0  0
  -25.6745  -31.9647  -19.9780 C   0  0  0  0  0  0  0  0  0  0  0  0
  -25.9808  -30.8949  -21.0587 C   0  0  1  0  0  0  0  0  0  0  0  0
  -25.3002  -31.2228  -22.4454 C   0  0  0  0  0  0  0  0  0  0  0  0
  -24.2122  -32.1435  -22.2781 N   0  0  0  0  0  0  0  0  0  0  0  0
  -24.1076  -33.6339  -22.6175 C   0  0  0  0  0  0  0  0  0  0  0  0
  -24.8589  -34.3390  -23.1585 O   0  0  0  0  0  0  0  0  0  0  0  0
  -22.8727  -34.1834  -22.0473 C   0  0  0  0  0  0  0  0  0  0  0  0
  -22.7964  -35.5174  -21.6871 C   0  0  0  0  0  0  0  0  0  0  0  0
  -21.7285  -35.7510  -20.8930 O   0  0  0  0  0  0  0  0  0  0  0  0
  -21.0607  -34.5697  -20.7607 C   0  0  0  0  0  0  0  0  0  0  0  0
  -19.9136  -34.3812  -19.9735 C   0  0  0  0  0  0  0  0  0  0  0  0
  -19.4453  -35.4436  -19.2543 O   0  0  0  0  0  0  0  0  0  0  0  0
  -18.2456  -35.2524  -18.5188 C   0  0  0  0  0  0  0  0  0  0  0  0
  -19.3516  -33.1002  -20.0159 C   0  0  0  0  0  0  0  0  0  0  0  0
  -19.9044  -32.0908  -20.8084 C   0  0  0  0  0  0  0  0  0  0  0  0
  -21.0458  -32.3205  -21.5866 C   0  0  0  0  0  0  0  0  0  0  0  0
  -21.6658  -33.5872  -21.5424 C   0  0  0  0  0  0  0  0  0  0  0  0
  -27.3892  -30.5648  -21.2904 N   0  0  0  0  0  0  0  0  0  0  0  0
  -28.4312  -31.0929  -20.4250 C   0  0  0  0  0  0  0  0  0  0  0  0
  -28.6224  -30.3956  -19.1198 C   0  0  0  0  0  0  0  0  0  0  0  0
  -27.7138  -29.7631  -18.2382 C   0  0  0  0  0  0  0  0  0  0  0  0
  -28.4820  -29.4003  -17.1643 C   0  0  0  0  0  0  0  0  0  0  0  0
  -29.7661  -29.7538  -17.3871 O   0  0  0  0  0  0  0  0  0  0  0  0
  -29.8600  -30.3859  -18.6019 N   0  0  0  0  0  0  0  0  0  0  0  0
  1  2  1  0
  3  2  1  1
  3  4  1  0
  4  5  1  0
  5  6  1  0
  6  7  2  0
  6  8  1  0
  8  9  2  0
  9 10  1  0
 10 11  1  0
 11 12  2  0
 12 13  1  0
 13 14  1  0
 12 15  1  0
 15 16  2  0
 16 17  1  0
 17 18  2  0
  3 19  1  0
 19 20  1  0
 20 21  1  0
 21 22  1  0
 22 23  2  0
 23 24  1  0
 24 25  1  0
 18  8  1  0
 25 21  2  0
 18 11  1  0
M  END
>  <fragmenstein_mode>  (110) 
expansion

>  <name>  (110) 
BZFUZOLRKZYVHX-LBPRGKRZSA-N

>  <fragmenstein_runtime>  (110) 
5.622218

>  <HIPPO Compound ID>  (110) 
6006

>  <SLURM_JOB_NAME>  (110) 
BulkDock.place:Flavi_NS5_RdRp:RdRp_knitwork_green_site_rna_tunnel_impure_split4000_batch014

>  <ref_mols>  (110) 
z0384a,3vws-b

>  <Multi-SuCOS>  (110) 
0.681019

>  <tags>  (110) 
['Fragmenstein placed', 'RdRp_knitwork_green_site_rna_tunnel_impure_fragalysis.sdf Pose OK']

>  <scratch_subdir>  (110) 
/opt/xchem-fragalysis-2/maxwin/BulkDock/SCRATCH/220465/C6006-P120

>  <energy_score>  (110) 
-37.044921

>  <fragmenstein_error>  (110) 
None

>  <csv_name>  (110) 
RdRp_knitwork_green_site_rna_tunnel_impure_split4000_batch014.csv

>  <merge_set>  (110) 
RdRp_knitwork_green_site_rna_tunnel_impure_fragalysis.sdf

>  <original ID>  (110) 
BZFUZOLRKZYVHX-LBPRGKRZSA-N

>  <HIPPO Pose ID>  (110) 
175546

>  <fragmenstein_outcome>  (110) 
acceptable

>  <exports>  (110) 
['/opt/xchem-fragalysis-2/maxwin/BulkDock/OUTPUTS/RdRp_knitwork_green_site_rna_tunnel_impure_split4000_batch014_220465.sdf', '/opt/xchem-fragalysis-2/maxwin/BulkDock/OUTPUTS/RdRp_knitwork_green_site_rna_tunnel_impure_fragalysis.sdf']

>  <SLURM_JOB_ID>  (110) 
220465

>  <distance_score>  (110) 
0.952007

>  <original SMILES>  (110) 
CC[C@@H](CNC(=O)c1coc2c(OC)cccc12)NCc1ccon1

>  <alias>  (110) 
None

>  <ref_pdb>  (110) 
z0384a

>  <inchikey>  (110) 
BZFUZOLRKZYVHX-LBPRGKRZSA-N

$$$$
SHENAZADMNUPGS-VIFPVBQESA-N
     RDKit          3D

 18 19  0  0  0  0  0  0  0  0999 V2000
  -21.2659  -33.0565  -23.9986 C   0  0  0  0  0  0  0  0  0  0  0  0
  -21.9929  -32.0097  -23.1727 C   0  0  2  0  0  0  0  0  0  0  0  0
  -21.5462  -32.1262  -21.8204 O   0  0  0  0  0  0  0  0  0  0  0  0
  -23.5014  -32.2329  -23.2688 C   0  0  0  0  0  0  0  0  0  0  0  0
  -24.2650  -31.6225  -22.2149 N   0  0  0  0  0  0  0  0  0  0  0  0
  -25.6168  -30.8682  -22.2635 C   0  0  0  0  0  0  0  0  0  0  0  0
  -26.2600  -30.5686  -23.1534 O   0  0  0  0  0  0  0  0  0  0  0  0
  -25.8863  -30.7317  -20.7399 N   0  0  0  0  0  0  0  0  0  0  0  0
  -27.0202  -30.2934  -20.0605 C   0  0  0  0  0  0  0  0  0  0  0  0
  -28.2255  -30.1214  -20.7462 C   0  0  0  0  0  0  0  0  0  0  0  0
  -29.4000  -29.9038  -20.0394 C   0  0  0  0  0  0  0  0  0  0  0  0
  -29.3572  -29.8173  -18.6517 C   0  0  0  0  0  0  0  0  0  0  0  0
  -28.1337  -29.8989  -17.9704 C   0  0  0  0  0  0  0  0  0  0  0  0
  -28.0683  -29.8064  -16.5760 C   0  0  0  0  0  0  0  0  0  0  0  0
  -26.8471  -29.9792  -15.9351 C   0  0  0  0  0  0  0  0  0  0  0  0
  -25.7256  -30.2154  -16.7074 C   0  0  0  0  0  0  0  0  0  0  0  0
  -25.7480  -30.2918  -18.0505 N   0  0  0  0  0  0  0  0  0  0  0  0
  -26.9378  -30.1488  -18.6768 C   0  0  0  0  0  0  0  0  0  0  0  0
  2  1  1  6
  2  3  1  0
  2  4  1  0
  4  5  1  0
  5  6  1  0
  6  7  2  0
  6  8  1  0
  8  9  1  0
  9 10  2  0
 10 11  1  0
 11 12  2  0
 12 13  1  0
 13 14  2  0
 14 15  1  0
 15 16  2  0
 16 17  1  0
 17 18  2  0
 18  9  1  0
 18 13  1  0
M  END
>  <fragmenstein_mode>  (111) 
expansion

>  <name>  (111) 
SHENAZADMNUPGS-VIFPVBQESA-N

>  <fragmenstein_runtime>  (111) 
3.019897

>  <HIPPO Compound ID>  (111) 
33434

>  <SLURM_JOB_NAME>  (111) 
BulkDock.place:Flavi_NS5_RdRp:RdRp_knitwork_green_site_rna_tunnel_impure_split4000_batch002

>  <ref_mols>  (111) 
z0211a,z1040a

>  <Multi-SuCOS>  (111) 
0.792167

>  <tags>  (111) 
['Fragmenstein placed', 'RdRp_knitwork_green_site_rna_tunnel_impure_fragalysis.sdf Pose OK']

>  <scratch_subdir>  (111) 
/opt/xchem-fragalysis-2/maxwin/BulkDock/SCRATCH/220453/C33434-P102

>  <energy_score>  (111) 
-21.948084

>  <fragmenstein_error>  (111) 
None

>  <csv_name>  (111) 
RdRp_knitwork_green_site_rna_tunnel_impure_split4000_batch002.csv

>  <merge_set>  (111) 
RdRp_knitwork_green_site_rna_tunnel_impure_fragalysis.sdf

>  <original ID>  (111) 
SHENAZADMNUPGS-VIFPVBQESA-N

>  <HIPPO Pose ID>  (111) 
175618

>  <fragmenstein_outcome>  (111) 
acceptable

>  <exports>  (111) 
['/opt/xchem-fragalysis-2/maxwin/BulkDock/OUTPUTS/RdRp_knitwork_green_site_rna_tunnel_impure_split4000_batch002_220453.sdf', '/opt/xchem-fragalysis-2/maxwin/BulkDock/OUTPUTS/RdRp_knitwork_green_site_rna_tunnel_impure_fragalysis.sdf']

>  <SLURM_JOB_ID>  (111) 
220453

>  <distance_score>  (111) 
0.963034

>  <original SMILES>  (111) 
C[C@H](O)CNC(=O)Nc1cccc2cccnc12

>  <alias>  (111) 
None

>  <ref_pdb>  (111) 
z0211a

>  <inchikey>  (111) 
SHENAZADMNUPGS-VIFPVBQESA-N

$$$$
SHENAZADMNUPGS-VIFPVBQESA-N
     RDKit          3D

 18 19  0  0  0  0  0  0  0  0999 V2000
  -21.5134  -33.2798  -23.8934 C   0  0  0  0  0  0  0  0  0  0  0  0
  -22.3341  -32.1165  -23.3744 C   0  0  2  0  0  0  0  0  0  0  0  0
  -21.9467  -31.8743  -22.0171 O   0  0  0  0  0  0  0  0  0  0  0  0
  -23.8344  -32.4182  -23.4865 C   0  0  0  0  0  0  0  0  0  0  0  0
  -24.6071  -31.8503  -22.4176 N   0  0  0  0  0  0  0  0  0  0  0  0
  -26.0407  -31.2619  -22.4183 C   0  0  0  0  0  0  0  0  0  0  0  0
  -26.7633  -31.0835  -23.2817 O   0  0  0  0  0  0  0  0  0  0  0  0
  -26.2292  -31.0463  -20.8893 N   0  0  0  0  0  0  0  0  0  0  0  0
  -27.3567  -30.6673  -20.1640 C   0  0  0  0  0  0  0  0  0  0  0  0
  -28.5693  -30.4060  -20.8038 C   0  0  0  0  0  0  0  0  0  0  0  0
  -29.7074  -30.1398  -20.0541 C   0  0  0  0  0  0  0  0  0  0  0  0
  -29.6280  -30.1360  -18.6655 C   0  0  0  0  0  0  0  0  0  0  0  0
  -28.4002  -30.3605  -18.0230 C   0  0  0  0  0  0  0  0  0  0  0  0
  -28.3024  -30.3663  -16.6293 C   0  0  0  0  0  0  0  0  0  0  0  0
  -27.0698  -30.5895  -16.0296 C   0  0  0  0  0  0  0  0  0  0  0  0
  -25.9682  -30.7838  -16.8398 C   0  0  0  0  0  0  0  0  0  0  0  0
  -26.0234  -30.8060  -18.1846 N   0  0  0  0  0  0  0  0  0  0  0  0
  -27.2305  -30.6082  -18.7728 C   0  0  0  0  0  0  0  0  0  0  0  0
  2  1  1  1
  2  3  1  0
  2  4  1  0
  4  5  1  0
  5  6  1  0
  6  7  2  0
  6  8  1  0
  8  9  1  0
  9 10  2  0
 10 11  1  0
 11 12  2  0
 12 13  1  0
 13 14  2  0
 14 15  1  0
 15 16  2  0
 16 17  1  0
 17 18  2  0
 18  9  1  0
 18 13  1  0
M  END
>  <fragmenstein_mode>  (112) 
expansion

>  <name>  (112) 
SHENAZADMNUPGS-VIFPVBQESA-N

>  <fragmenstein_runtime>  (112) 
2.180516

>  <HIPPO Compound ID>  (112) 
33434

>  <SLURM_JOB_NAME>  (112) 
BulkDock.place:Flavi_NS5_RdRp:RdRp_knitwork_green_site_rna_tunnel_impure_split4000_batch002

>  <ref_mols>  (112) 
z0211a,z1040a

>  <Multi-SuCOS>  (112) 
0.754665

>  <tags>  (112) 
['Fragmenstein placed', 'RdRp_knitwork_green_site_rna_tunnel_impure_fragalysis.sdf Pose OK']

>  <scratch_subdir>  (112) 
/opt/xchem-fragalysis-2/maxwin/BulkDock/SCRATCH/220453/C33434-P208

>  <energy_score>  (112) 
-22.097794

>  <fragmenstein_error>  (112) 
None

>  <csv_name>  (112) 
RdRp_knitwork_green_site_rna_tunnel_impure_split4000_batch002.csv

>  <merge_set>  (112) 
RdRp_knitwork_green_site_rna_tunnel_impure_fragalysis.sdf

>  <original ID>  (112) 
SHENAZADMNUPGS-VIFPVBQESA-N

>  <HIPPO Pose ID>  (112) 
175630

>  <fragmenstein_outcome>  (112) 
acceptable

>  <exports>  (112) 
['/opt/xchem-fragalysis-2/maxwin/BulkDock/OUTPUTS/RdRp_knitwork_green_site_rna_tunnel_impure_split4000_batch002_220453.sdf', '/opt/xchem-fragalysis-2/maxwin/BulkDock/OUTPUTS/RdRp_knitwork_green_site_rna_tunnel_impure_fragalysis.sdf']

>  <SLURM_JOB_ID>  (112) 
220453

>  <distance_score>  (112) 
0.949588

>  <original SMILES>  (112) 
C[C@H](O)CNC(=O)Nc1cccc2cccnc12

>  <alias>  (112) 
None

>  <ref_pdb>  (112) 
z1040a

>  <inchikey>  (112) 
SHENAZADMNUPGS-VIFPVBQESA-N

$$$$
VWFMTHAJPOZZPN-CYBMUJFWSA-N
     RDKit          3D

 17 19  0  0  0  0  0  0  0  0999 V2000
  -26.0321  -31.1328  -21.8387 C   0  0  0  0  0  0  0  0  0  0  0  0
  -26.8518  -31.6109  -20.6510 C   0  0  0  0  0  0  0  0  0  0  0  0
  -28.1670  -31.0295  -20.7588 O   0  0  0  0  0  0  0  0  0  0  0  0
  -29.0208  -30.8062  -19.7159 C   0  0  0  0  0  0  0  0  0  0  0  0
  -30.1987  -30.5786  -19.9626 O   0  0  0  0  0  0  0  0  0  0  0  0
  -28.3962  -30.7555  -18.3259 C   0  0  1  0  0  0  0  0  0  0  0  0
  -27.4515  -29.5667  -18.1660 C   0  0  0  0  0  0  0  0  0  0  0  0
  -27.2571  -28.5826  -19.1509 C   0  0  0  0  0  0  0  0  0  0  0  0
  -26.2970  -27.5942  -18.9837 C   0  0  0  0  0  0  0  0  0  0  0  0
  -25.5442  -27.5678  -17.8206 C   0  0  0  0  0  0  0  0  0  0  0  0
  -25.7546  -28.5150  -16.8131 C   0  0  0  0  0  0  0  0  0  0  0  0
  -26.7180  -29.5018  -16.9720 C   0  0  0  0  0  0  0  0  0  0  0  0
  -27.0396  -30.4885  -15.8827 C   0  0  0  0  0  0  0  0  0  0  0  0
  -28.5587  -30.5922  -15.7356 C   0  0  0  0  0  0  0  0  0  0  0  0
  -29.2878  -30.8425  -17.0625 C   0  0  0  0  0  0  0  0  0  0  0  0
  -30.7429  -30.4306  -17.0641 C   0  0  0  0  0  0  0  0  0  0  0  0
  -30.3917  -31.8877  -17.0503 C   0  0  0  0  0  0  0  0  0  0  0  0
  1  2  1  0
  2  3  1  0
  3  4  1  0
  4  5  2  0
  6  4  1  6
  6  7  1  0
  7  8  2  0
  8  9  1  0
  9 10  2  0
 10 11  1  0
 11 12  2  0
 12 13  1  0
 13 14  1  0
 14 15  1  0
 15 16  1  0
 16 17  1  0
 15  6  1  0
 12  7  1  0
 17 15  1  0
M  END
>  <fragmenstein_mode>  (113) 
expansion

>  <name>  (113) 
VWFMTHAJPOZZPN-CYBMUJFWSA-N

>  <fragmenstein_runtime>  (113) 
5.258834

>  <HIPPO Compound ID>  (113) 
43742

>  <SLURM_JOB_NAME>  (113) 
BulkDock.place:Flavi_NS5_RdRp:RdRp_knitwork_green_site_rna_tunnel_impure_split4000_batch013

>  <ref_mols>  (113) 
z0165a,z0628a

>  <Multi-SuCOS>  (113) 
0.524015

>  <tags>  (113) 
['Fragmenstein placed', 'RdRp_knitwork_green_site_rna_tunnel_impure_fragalysis.sdf Pose OK']

>  <scratch_subdir>  (113) 
/opt/xchem-fragalysis-2/maxwin/BulkDock/SCRATCH/220464/C43742-P150

>  <energy_score>  (113) 
-49.367215

>  <fragmenstein_error>  (113) 
None

>  <csv_name>  (113) 
RdRp_knitwork_green_site_rna_tunnel_impure_split4000_batch013.csv

>  <merge_set>  (113) 
RdRp_knitwork_green_site_rna_tunnel_impure_fragalysis.sdf

>  <original ID>  (113) 
VWFMTHAJPOZZPN-CYBMUJFWSA-N

>  <HIPPO Pose ID>  (113) 
176802

>  <fragmenstein_outcome>  (113) 
acceptable

>  <exports>  (113) 
['/opt/xchem-fragalysis-2/maxwin/BulkDock/OUTPUTS/RdRp_knitwork_green_site_rna_tunnel_impure_split4000_batch013_220464.sdf', '/opt/xchem-fragalysis-2/maxwin/BulkDock/OUTPUTS/RdRp_knitwork_green_site_rna_tunnel_impure_fragalysis.sdf']

>  <SLURM_JOB_ID>  (113) 
220464

>  <distance_score>  (113) 
0.972469

>  <original SMILES>  (113) 
CCOC(=O)[C@H]1c2ccccc2CCC12CC2

>  <alias>  (113) 
None

>  <ref_pdb>  (113) 
z0628a

>  <inchikey>  (113) 
VWFMTHAJPOZZPN-CYBMUJFWSA-N

$$$$
JSNLNJMSIGJZHJ-AWEZNQCLSA-N
     RDKit          3D

 23 25  0  0  0  0  0  0  0  0999 V2000
  -27.0118  -30.1286  -16.4497 C   0  0  0  0  0  0  0  0  0  0  0  0
  -27.8795  -30.1808  -17.6536 C   0  0  0  0  0  0  0  0  0  0  0  0
  -29.2485  -30.3595  -17.6673 C   0  0  0  0  0  0  0  0  0  0  0  0
  -29.8192  -30.4341  -19.2785 S   0  0  0  0  0  0  0  0  0  0  0  0
  -28.2160  -30.1830  -19.8495 C   0  0  0  0  0  0  0  0  0  0  0  0
  -27.9623  -30.0911  -21.3631 C   0  0  0  0  0  0  0  0  0  0  0  0
  -26.6089  -30.7155  -21.5694 N   0  0  0  0  0  0  0  0  0  0  0  0
  -26.8579  -30.1815  -22.9565 C   0  0  0  0  0  0  0  0  0  0  0  0
  -26.1897  -32.1710  -21.6097 C   0  0  0  0  0  0  0  0  0  0  0  0
  -26.8386  -33.1513  -21.5685 O   0  0  0  0  0  0  0  0  0  0  0  0
  -24.6352  -32.1415  -21.6112 C   0  0  1  0  0  0  0  0  0  0  0  0
  -24.2422  -32.0373  -20.1820 N   0  0  0  0  0  0  0  0  0  0  0  0
  -24.0531  -33.3354  -22.4088 C   0  0  0  0  0  0  0  0  0  0  0  0
  -22.9561  -34.0871  -21.7228 C   0  0  0  0  0  0  0  0  0  0  0  0
  -22.9678  -35.4197  -21.3600 C   0  0  0  0  0  0  0  0  0  0  0  0
  -21.8485  -35.7466  -20.6646 O   0  0  0  0  0  0  0  0  0  0  0  0
  -21.0969  -34.6145  -20.5728 C   0  0  0  0  0  0  0  0  0  0  0  0
  -19.8819  -34.5012  -19.8982 C   0  0  0  0  0  0  0  0  0  0  0  0
  -19.2520  -33.2533  -19.9463 C   0  0  0  0  0  0  0  0  0  0  0  0
  -19.8303  -32.1804  -20.6276 C   0  0  0  0  0  0  0  0  0  0  0  0
  -21.0551  -32.3247  -21.2932 C   0  0  0  0  0  0  0  0  0  0  0  0
  -21.7054  -33.5730  -21.2602 C   0  0  0  0  0  0  0  0  0  0  0  0
  -27.2996  -30.0540  -18.9061 N   0  0  0  0  0  0  0  0  0  0  0  0
  1  2  1  0
  2  3  2  0
  3  4  1  0
  4  5  1  0
  5  6  1  0
  6  7  1  0
  7  8  1  0
  7  9  1  0
  9 10  2  0
  9 11  1  0
 11 12  1  1
 11 13  1  0
 13 14  1  0
 14 15  2  0
 15 16  1  0
 16 17  1  0
 17 18  2  0
 18 19  1  0
 19 20  2  0
 20 21  1  0
 21 22  2  0
  5 23  2  0
 23  2  1  0
 22 14  1  0
 22 17  1  0
M  END
>  <fragmenstein_mode>  (114) 
expansion

>  <name>  (114) 
JSNLNJMSIGJZHJ-AWEZNQCLSA-N

>  <fragmenstein_runtime>  (114) 
5.698387

>  <HIPPO Compound ID>  (114) 
35403

>  <SLURM_JOB_NAME>  (114) 
BulkDock.place:Flavi_NS5_RdRp:RdRp_knitwork_green_site_rna_tunnel_impure_split4000_batch017

>  <ref_mols>  (114) 
z0384a,3vws-b

>  <Multi-SuCOS>  (114) 
0.660965

>  <tags>  (114) 
['Fragmenstein placed', 'RdRp_knitwork_green_site_rna_tunnel_impure_fragalysis.sdf Pose OK']

>  <scratch_subdir>  (114) 
/opt/xchem-fragalysis-2/maxwin/BulkDock/SCRATCH/220468/C35403-P120

>  <energy_score>  (114) 
-101.457213

>  <fragmenstein_error>  (114) 
None

>  <csv_name>  (114) 
RdRp_knitwork_green_site_rna_tunnel_impure_split4000_batch017.csv

>  <merge_set>  (114) 
RdRp_knitwork_green_site_rna_tunnel_impure_fragalysis.sdf

>  <original ID>  (114) 
JSNLNJMSIGJZHJ-AWEZNQCLSA-N

>  <HIPPO Pose ID>  (114) 
176860

>  <fragmenstein_outcome>  (114) 
acceptable

>  <exports>  (114) 
['/opt/xchem-fragalysis-2/maxwin/BulkDock/OUTPUTS/RdRp_knitwork_green_site_rna_tunnel_impure_split4000_batch017_220468.sdf', '/opt/xchem-fragalysis-2/maxwin/BulkDock/OUTPUTS/RdRp_knitwork_green_site_rna_tunnel_impure_fragalysis.sdf']

>  <SLURM_JOB_ID>  (114) 
220468

>  <distance_score>  (114) 
0.971345

>  <original SMILES>  (114) 
Cc1csc(CN(C)C(=O)[C@@H](N)Cc2coc3ccccc23)n1

>  <alias>  (114) 
None

>  <ref_pdb>  (114) 
z0384a

>  <inchikey>  (114) 
JSNLNJMSIGJZHJ-AWEZNQCLSA-N

$$$$
VCDAMRGTJSIZTQ-CQSZACIVSA-N
     RDKit          3D

 24 26  0  0  0  0  0  0  0  0999 V2000
  -26.0914  -32.7362  -21.7816 O   0  0  0  0  0  0  0  0  0  0  0  0
  -24.9890  -32.3576  -21.6848 C   0  0  0  0  0  0  0  0  0  0  0  0
  -23.8855  -32.7475  -22.6842 C   0  0  0  0  0  0  0  0  0  0  0  0
  -22.9222  -33.6852  -22.0232 C   0  0  0  0  0  0  0  0  0  0  0  0
  -23.1148  -35.0259  -21.7462 C   0  0  0  0  0  0  0  0  0  0  0  0
  -22.1049  -35.5143  -20.9794 O   0  0  0  0  0  0  0  0  0  0  0  0
  -21.2408  -34.4857  -20.7602 C   0  0  0  0  0  0  0  0  0  0  0  0
  -20.0938  -34.5425  -19.9703 C   0  0  0  0  0  0  0  0  0  0  0  0
  -19.3241  -33.3769  -19.8985 C   0  0  0  0  0  0  0  0  0  0  0  0
  -19.7031  -32.2190  -20.5805 C   0  0  0  0  0  0  0  0  0  0  0  0
  -20.8656  -32.1904  -21.3617 C   0  0  0  0  0  0  0  0  0  0  0  0
  -21.6595  -33.3508  -21.4423 C   0  0  0  0  0  0  0  0  0  0  0  0
  -24.3082  -31.5133  -20.5702 N   0  0  0  0  0  0  0  0  0  0  0  0
  -24.8220  -31.0437  -19.3004 C   0  0  0  0  0  0  0  0  0  0  0  0
  -25.4868  -32.1759  -18.5089 C   0  0  2  0  0  0  0  0  0  0  0  0
  -26.7971  -32.4544  -19.0208 O   0  0  0  0  0  0  0  0  0  0  0  0
  -25.5376  -31.8905  -16.9844 C   0  0  0  0  0  0  0  0  0  0  0  0
  -26.8422  -31.5513  -16.3978 N   0  0  0  0  0  0  0  0  0  0  0  0
  -27.2225  -30.1445  -16.5926 C   0  0  0  0  0  0  0  0  0  0  0  0
  -28.1209  -30.0114  -17.7855 C   0  0  0  0  0  0  0  0  0  0  0  0
  -29.4190  -30.4828  -17.8861 C   0  0  0  0  0  0  0  0  0  0  0  0
  -29.9671  -30.3604  -19.5047 S   0  0  0  0  0  0  0  0  0  0  0  0
  -28.5047  -29.5760  -19.9155 C   0  0  0  0  0  0  0  0  0  0  0  0
  -27.6339  -29.4204  -18.9428 N   0  0  0  0  0  0  0  0  0  0  0  0
  1  2  2  0
  2  3  1  0
  3  4  1  0
  4  5  2  0
  5  6  1  0
  6  7  1  0
  7  8  2  0
  8  9  1  0
  9 10  2  0
 10 11  1  0
 11 12  2  0
  2 13  1  0
 13 14  1  0
 14 15  1  0
 15 16  1  6
 15 17  1  0
 17 18  1  0
 18 19  1  0
 19 20  1  0
 20 21  2  0
 21 22  1  0
 22 23  1  0
 23 24  2  0
 12  4  1  0
 24 20  1  0
 12  7  1  0
M  END
>  <fragmenstein_mode>  (115) 
expansion

>  <name>  (115) 
VCDAMRGTJSIZTQ-CQSZACIVSA-N

>  <fragmenstein_runtime>  (115) 
4.938437

>  <HIPPO Compound ID>  (115) 
27296

>  <SLURM_JOB_NAME>  (115) 
BulkDock.place:Flavi_NS5_RdRp:RdRp_knitwork_green_site_rna_tunnel_impure_split4000_batch017

>  <ref_mols>  (115) 
z0384a,3vws-b

>  <Multi-SuCOS>  (115) 
0.55528

>  <tags>  (115) 
['Fragmenstein placed', 'RdRp_knitwork_green_site_rna_tunnel_impure_fragalysis.sdf Pose OK']

>  <scratch_subdir>  (115) 
/opt/xchem-fragalysis-2/maxwin/BulkDock/SCRATCH/220468/C27296-P120

>  <energy_score>  (115) 
-42.714325

>  <fragmenstein_error>  (115) 
None

>  <csv_name>  (115) 
RdRp_knitwork_green_site_rna_tunnel_impure_split4000_batch017.csv

>  <merge_set>  (115) 
RdRp_knitwork_green_site_rna_tunnel_impure_fragalysis.sdf

>  <original ID>  (115) 
VCDAMRGTJSIZTQ-CQSZACIVSA-N

>  <HIPPO Pose ID>  (115) 
176978

>  <fragmenstein_outcome>  (115) 
acceptable

>  <exports>  (115) 
['/opt/xchem-fragalysis-2/maxwin/BulkDock/OUTPUTS/RdRp_knitwork_green_site_rna_tunnel_impure_split4000_batch017_220468.sdf', '/opt/xchem-fragalysis-2/maxwin/BulkDock/OUTPUTS/RdRp_knitwork_green_site_rna_tunnel_impure_fragalysis.sdf']

>  <SLURM_JOB_ID>  (115) 
220468

>  <distance_score>  (115) 
0.99098

>  <original SMILES>  (115) 
O=C(Cc1coc2ccccc12)NC[C@H](O)CNCc1cscn1

>  <alias>  (115) 
None

>  <ref_pdb>  (115) 
z0384a

>  <inchikey>  (115) 
VCDAMRGTJSIZTQ-CQSZACIVSA-N

$$$$
YNGYAVXHTVNYBC-LBPRGKRZSA-N
     RDKit          3D

 15 16  0  0  0  0  0  0  0  0999 V2000
  -27.4981  -30.9133  -22.6212 C   0  0  0  0  0  0  0  0  0  0  0  0
  -27.4969  -31.8313  -21.4229 C   0  0  0  0  0  0  0  0  0  0  0  0
  -27.6184  -31.0581  -20.2282 O   0  0  0  0  0  0  0  0  0  0  0  0
  -28.8817  -30.7691  -19.8245 C   0  0  0  0  0  0  0  0  0  0  0  0
  -29.8922  -31.2148  -20.3578 O   0  0  0  0  0  0  0  0  0  0  0  0
  -28.9132  -29.7740  -18.6715 C   0  0  1  0  0  0  0  0  0  0  0  0
  -29.7509  -30.3235  -17.5020 C   0  0  0  0  0  0  0  0  0  0  0  0
  -29.1034  -30.2346  -16.1202 C   0  0  0  0  0  0  0  0  0  0  0  0
  -27.6148  -30.5538  -16.1516 C   0  0  0  0  0  0  0  0  0  0  0  0
  -26.9305  -29.5930  -17.0818 C   0  0  0  0  0  0  0  0  0  0  0  0
  -25.6781  -29.0679  -16.7581 C   0  0  0  0  0  0  0  0  0  0  0  0
  -25.0806  -28.1246  -17.5920 C   0  0  0  0  0  0  0  0  0  0  0  0
  -25.7027  -27.7192  -18.7671 C   0  0  0  0  0  0  0  0  0  0  0  0
  -26.9350  -28.2640  -19.1119 C   0  0  0  0  0  0  0  0  0  0  0  0
  -27.5606  -29.2050  -18.2758 C   0  0  0  0  0  0  0  0  0  0  0  0
  1  2  1  0
  2  3  1  0
  3  4  1  0
  4  5  2  0
  6  4  1  6
  6  7  1  0
  7  8  1  0
  8  9  1  0
  9 10  1  0
 10 11  2  0
 11 12  1  0
 12 13  2  0
 13 14  1  0
 14 15  2  0
 15  6  1  0
 15 10  1  0
M  END
>  <fragmenstein_mode>  (116) 
expansion

>  <name>  (116) 
YNGYAVXHTVNYBC-LBPRGKRZSA-N

>  <fragmenstein_runtime>  (116) 
2.59182

>  <HIPPO Compound ID>  (116) 
45330

>  <SLURM_JOB_NAME>  (116) 
BulkDock.place:Flavi_NS5_RdRp:RdRp_knitwork_green_site_rna_tunnel_impure_split4000_batch013

>  <ref_mols>  (116) 
z0165a,z0628a

>  <Multi-SuCOS>  (116) 
0.637834

>  <tags>  (116) 
['Fragmenstein placed', 'RdRp_knitwork_green_site_rna_tunnel_impure_fragalysis.sdf Pose OK']

>  <scratch_subdir>  (116) 
/opt/xchem-fragalysis-2/maxwin/BulkDock/SCRATCH/220464/C45330-P3

>  <energy_score>  (116) 
-32.499132

>  <fragmenstein_error>  (116) 
None

>  <csv_name>  (116) 
RdRp_knitwork_green_site_rna_tunnel_impure_split4000_batch013.csv

>  <merge_set>  (116) 
RdRp_knitwork_green_site_rna_tunnel_impure_fragalysis.sdf

>  <original ID>  (116) 
YNGYAVXHTVNYBC-LBPRGKRZSA-N

>  <HIPPO Pose ID>  (116) 
177284

>  <fragmenstein_outcome>  (116) 
acceptable

>  <exports>  (116) 
['/opt/xchem-fragalysis-2/maxwin/BulkDock/OUTPUTS/RdRp_knitwork_green_site_rna_tunnel_impure_split4000_batch013_220464.sdf', '/opt/xchem-fragalysis-2/maxwin/BulkDock/OUTPUTS/RdRp_knitwork_green_site_rna_tunnel_impure_fragalysis.sdf']

>  <SLURM_JOB_ID>  (116) 
220464

>  <distance_score>  (116) 
0.984728

>  <original SMILES>  (116) 
CCOC(=O)[C@H]1CCCc2ccccc21

>  <alias>  (116) 
None

>  <ref_pdb>  (116) 
z0165a

>  <inchikey>  (116) 
YNGYAVXHTVNYBC-LBPRGKRZSA-N

$$$$
OCLVOLZUCDLJKT-UHFFFAOYSA-N
     RDKit          3D

 23 25  0  0  0  0  0  0  0  0999 V2000
  -25.0160  -31.8130  -14.3965 C   0  0  0  0  0  0  0  0  0  0  0  0
  -24.8614  -30.4908  -15.1234 C   0  0  0  0  0  0  0  0  0  0  0  0
  -25.5786  -30.5147  -16.3581 O   0  0  0  0  0  0  0  0  0  0  0  0
  -26.8991  -30.1778  -16.3070 C   0  0  0  0  0  0  0  0  0  0  0  0
  -27.5113  -29.8999  -15.2816 O   0  0  0  0  0  0  0  0  0  0  0  0
  -27.5185  -30.2134  -17.6294 C   0  0  0  0  0  0  0  0  0  0  0  0
  -28.8458  -29.9124  -17.8760 C   0  0  0  0  0  0  0  0  0  0  0  0
  -29.2113  -30.1561  -19.5332 S   0  0  0  0  0  0  0  0  0  0  0  0
  -27.5873  -30.6513  -19.8106 C   0  0  0  0  0  0  0  0  0  0  0  0
  -27.1965  -31.2085  -21.1432 C   0  0  0  0  0  0  0  0  0  0  0  0
  -25.7005  -31.5685  -21.2521 C   0  0  0  0  0  0  0  0  0  0  0  0
  -25.5100  -32.5992  -22.2869 N   0  0  0  0  0  0  0  0  0  0  0  0
  -24.1325  -32.7111  -22.7838 C   0  0  0  0  0  0  0  0  0  0  0  0
  -23.3051  -33.6812  -21.9740 C   0  0  0  0  0  0  0  0  0  0  0  0
  -23.6182  -35.0184  -21.7986 C   0  0  0  0  0  0  0  0  0  0  0  0
  -22.4824  -35.8597  -20.8528 S   0  0  0  0  0  0  0  0  0  0  0  0
  -21.4830  -34.4723  -20.6885 C   0  0  0  0  0  0  0  0  0  0  0  0
  -20.2559  -34.3953  -19.9953 C   0  0  0  0  0  0  0  0  0  0  0  0
  -19.5516  -33.1911  -19.9882 C   0  0  0  0  0  0  0  0  0  0  0  0
  -20.0616  -32.0815  -20.6418 C   0  0  0  0  0  0  0  0  0  0  0  0
  -21.2820  -32.1623  -21.3201 C   0  0  0  0  0  0  0  0  0  0  0  0
  -22.0278  -33.3684  -21.3527 C   0  0  0  0  0  0  0  0  0  0  0  0
  -26.8016  -30.5954  -18.7610 N   0  0  0  0  0  0  0  0  0  0  0  0
  1  2  1  0
  2  3  1  0
  3  4  1  0
  4  5  2  0
  4  6  1  0
  6  7  2  0
  7  8  1  0
  8  9  1  0
  9 10  1  0
 10 11  1  0
 11 12  1  0
 12 13  1  0
 13 14  1  0
 14 15  2  0
 15 16  1  0
 16 17  1  0
 17 18  2  0
 18 19  1  0
 19 20  2  0
 20 21  1  0
 21 22  2  0
  9 23  2  0
 23  6  1  0
 22 14  1  0
 22 17  1  0
M  END
>  <fragmenstein_mode>  (117) 
expansion

>  <name>  (117) 
OCLVOLZUCDLJKT-UHFFFAOYSA-N

>  <fragmenstein_runtime>  (117) 
3.908174

>  <HIPPO Compound ID>  (117) 
33403

>  <SLURM_JOB_NAME>  (117) 
BulkDock.place:Flavi_NS5_RdRp:RdRp_knitwork_green_site_rna_tunnel_impure_split4000_batch017

>  <ref_mols>  (117) 
z0384a,3vws-b

>  <Multi-SuCOS>  (117) 
0.57

>  <tags>  (117) 
['Fragmenstein placed', 'RdRp_knitwork_green_site_rna_tunnel_impure_fragalysis.sdf Pose OK']

>  <scratch_subdir>  (117) 
/opt/xchem-fragalysis-2/maxwin/BulkDock/SCRATCH/220468/C33403-P120

>  <energy_score>  (117) 
-114.651344

>  <fragmenstein_error>  (117) 
None

>  <csv_name>  (117) 
RdRp_knitwork_green_site_rna_tunnel_impure_split4000_batch017.csv

>  <merge_set>  (117) 
RdRp_knitwork_green_site_rna_tunnel_impure_fragalysis.sdf

>  <original ID>  (117) 
OCLVOLZUCDLJKT-UHFFFAOYSA-N

>  <HIPPO Pose ID>  (117) 
177370

>  <fragmenstein_outcome>  (117) 
acceptable

>  <exports>  (117) 
['/opt/xchem-fragalysis-2/maxwin/BulkDock/OUTPUTS/RdRp_knitwork_green_site_rna_tunnel_impure_split4000_batch017_220468.sdf', '/opt/xchem-fragalysis-2/maxwin/BulkDock/OUTPUTS/RdRp_knitwork_green_site_rna_tunnel_impure_fragalysis.sdf']

>  <SLURM_JOB_ID>  (117) 
220468

>  <distance_score>  (117) 
0.74345

>  <original SMILES>  (117) 
CCOC(=O)c1csc(CCNCc2csc3ccccc23)n1

>  <alias>  (117) 
None

>  <ref_pdb>  (117) 
z0384a

>  <inchikey>  (117) 
OCLVOLZUCDLJKT-UHFFFAOYSA-N

$$$$
HLLOFLRBSYUORH-SNVBAGLBSA-N
     RDKit          3D

 16 18  0  0  0  0  0  0  0  0999 V2000
  -25.8364  -31.4119  -22.1587 C   0  0  0  0  0  0  0  0  0  0  0  0
  -26.7375  -30.9688  -21.0236 C   0  0  0  0  0  0  0  0  0  0  0  0
  -27.3588  -29.7503  -21.4249 O   0  0  0  0  0  0  0  0  0  0  0  0
  -28.2271  -29.2334  -20.5199 C   0  0  0  0  0  0  0  0  0  0  0  0
  -29.4283  -29.2475  -20.7633 O   0  0  0  0  0  0  0  0  0  0  0  0
  -27.6161  -28.5644  -19.2830 C   0  0  1  0  0  0  0  0  0  0  0  0
  -27.9560  -29.3846  -18.0723 C   0  0  0  0  0  0  0  0  0  0  0  0
  -29.2363  -29.5264  -17.6500 O   0  0  0  0  0  0  0  0  0  0  0  0
  -29.1925  -30.2512  -16.4990 C   0  0  0  0  0  0  0  0  0  0  0  0
  -27.8924  -30.5773  -16.1811 C   0  0  0  0  0  0  0  0  0  0  0  0
  -27.0972  -30.0150  -17.2041 C   0  0  0  0  0  0  0  0  0  0  0  0
  -25.6484  -30.0062  -17.4368 C   0  0  0  0  0  0  0  0  0  0  0  0
  -25.2375  -28.7263  -18.1684 C   0  0  0  0  0  0  0  0  0  0  0  0
  -26.0867  -28.2071  -19.3280 C   0  0  0  0  0  0  0  0  0  0  0  0
  -25.7394  -26.7512  -19.6618 C   0  0  0  0  0  0  0  0  0  0  0  0
  -25.3824  -27.8126  -20.6341 C   0  0  0  0  0  0  0  0  0  0  0  0
  1  2  1  0
  2  3  1  0
  3  4  1  0
  4  5  2  0
  6  4  1  6
  6  7  1  0
  7  8  1  0
  8  9  1  0
  9 10  2  0
 10 11  1  0
 11 12  1  0
 12 13  1  0
 13 14  1  0
 14 15  1  0
 15 16  1  0
 14  6  1  0
 11  7  2  0
 16 14  1  0
M  END
>  <fragmenstein_mode>  (118) 
expansion

>  <name>  (118) 
HLLOFLRBSYUORH-SNVBAGLBSA-N

>  <fragmenstein_runtime>  (118) 
3.07122

>  <HIPPO Compound ID>  (118) 
47311

>  <SLURM_JOB_NAME>  (118) 
BulkDock.place:Flavi_NS5_RdRp:RdRp_knitwork_green_site_rna_tunnel_impure_split4000_batch013

>  <ref_mols>  (118) 
z0165a,z0628a

>  <Multi-SuCOS>  (118) 
0.68238

>  <tags>  (118) 
['Fragmenstein placed', 'RdRp_knitwork_green_site_rna_tunnel_impure_fragalysis.sdf Pose OK']

>  <scratch_subdir>  (118) 
/opt/xchem-fragalysis-2/maxwin/BulkDock/SCRATCH/220464/C47311-P150

>  <energy_score>  (118) 
-20.052376

>  <fragmenstein_error>  (118) 
None

>  <csv_name>  (118) 
RdRp_knitwork_green_site_rna_tunnel_impure_split4000_batch013.csv

>  <merge_set>  (118) 
RdRp_knitwork_green_site_rna_tunnel_impure_fragalysis.sdf

>  <original ID>  (118) 
HLLOFLRBSYUORH-SNVBAGLBSA-N

>  <HIPPO Pose ID>  (118) 
178056

>  <fragmenstein_outcome>  (118) 
acceptable

>  <exports>  (118) 
['/opt/xchem-fragalysis-2/maxwin/BulkDock/OUTPUTS/RdRp_knitwork_green_site_rna_tunnel_impure_split4000_batch013_220464.sdf', '/opt/xchem-fragalysis-2/maxwin/BulkDock/OUTPUTS/RdRp_knitwork_green_site_rna_tunnel_impure_fragalysis.sdf']

>  <SLURM_JOB_ID>  (118) 
220464

>  <distance_score>  (118) 
0.978409

>  <original SMILES>  (118) 
CCOC(=O)[C@H]1c2occc2CCC12CC2

>  <alias>  (118) 
None

>  <ref_pdb>  (118) 
z0628a

>  <inchikey>  (118) 
HLLOFLRBSYUORH-SNVBAGLBSA-N

$$$$
VAVBTJKEPGWLEX-BXUZGUMPSA-N
     RDKit          3D

 16 18  0  0  0  0  0  0  0  0999 V2000
  -27.3372  -31.7630  -22.7725 C   0  0  0  0  0  0  0  0  0  0  0  0
  -27.3773  -31.0444  -21.4408 C   0  0  0  0  0  0  0  0  0  0  0  0
  -28.2216  -29.8978  -21.6094 O   0  0  0  0  0  0  0  0  0  0  0  0
  -29.1389  -29.5604  -20.6530 C   0  0  0  0  0  0  0  0  0  0  0  0
  -30.2448  -29.1509  -20.9714 O   0  0  0  0  0  0  0  0  0  0  0  0
  -28.7462  -29.7741  -19.2033 C   0  0  2  0  0  0  0  0  0  0  0  0
  -29.1725  -31.1659  -18.7602 C   0  0  0  0  0  0  0  0  0  0  0  0
  -29.7868  -30.0025  -18.0851 C   0  0  1  0  0  0  0  0  0  0  0  0
  -29.4374  -29.7556  -16.6408 C   0  0  0  0  0  0  0  0  0  0  0  0
  -27.9652  -30.0324  -16.3130 C   0  0  0  0  0  0  0  0  0  0  0  0
  -27.0474  -29.3368  -17.2959 C   0  0  0  0  0  0  0  0  0  0  0  0
  -25.8223  -28.8499  -16.8270 C   0  0  0  0  0  0  0  0  0  0  0  0
  -25.0333  -28.0560  -17.6483 C   0  0  0  0  0  0  0  0  0  0  0  0
  -25.4390  -27.7655  -18.9422 C   0  0  0  0  0  0  0  0  0  0  0  0
  -26.6224  -28.3136  -19.4350 C   0  0  0  0  0  0  0  0  0  0  0  0
  -27.4417  -29.1457  -18.6503 C   0  0  0  0  0  0  0  0  0  0  0  0
  1  2  1  0
  2  3  1  0
  3  4  1  0
  4  5  2  0
  6  4  1  6
  6  7  1  0
  8  7  1  1
  8  9  1  0
  9 10  1  0
 10 11  1  0
 11 12  2  0
 12 13  1  0
 13 14  2  0
 14 15  1  0
 15 16  2  0
  8  6  1  0
 16 11  1  0
 16  6  1  0
M  END
>  <fragmenstein_mode>  (119) 
expansion

>  <name>  (119) 
VAVBTJKEPGWLEX-BXUZGUMPSA-N

>  <fragmenstein_runtime>  (119) 
8.058862

>  <HIPPO Compound ID>  (119) 
47542

>  <SLURM_JOB_NAME>  (119) 
BulkDock.place:Flavi_NS5_RdRp:RdRp_knitwork_green_site_rna_tunnel_impure_split4000_batch013

>  <ref_mols>  (119) 
z0165a,z0628a

>  <Multi-SuCOS>  (119) 
0.581764

>  <tags>  (119) 
['Fragmenstein placed', 'RdRp_knitwork_green_site_rna_tunnel_impure_fragalysis.sdf Pose OK']

>  <scratch_subdir>  (119) 
/opt/xchem-fragalysis-2/maxwin/BulkDock/SCRATCH/220464/C47542-P3

>  <energy_score>  (119) 
-1.038307

>  <fragmenstein_error>  (119) 
None

>  <csv_name>  (119) 
RdRp_knitwork_green_site_rna_tunnel_impure_split4000_batch013.csv

>  <merge_set>  (119) 
RdRp_knitwork_green_site_rna_tunnel_impure_fragalysis.sdf

>  <original ID>  (119) 
VAVBTJKEPGWLEX-BXUZGUMPSA-N

>  <HIPPO Pose ID>  (119) 
178100

>  <fragmenstein_outcome>  (119) 
acceptable

>  <exports>  (119) 
['/opt/xchem-fragalysis-2/maxwin/BulkDock/OUTPUTS/RdRp_knitwork_green_site_rna_tunnel_impure_split4000_batch013_220464.sdf', '/opt/xchem-fragalysis-2/maxwin/BulkDock/OUTPUTS/RdRp_knitwork_green_site_rna_tunnel_impure_fragalysis.sdf']

>  <SLURM_JOB_ID>  (119) 
220464

>  <distance_score>  (119) 
0.969599

>  <original SMILES>  (119) 
CCOC(=O)[C@]12C[C@H]1CCc1ccccc12

>  <alias>  (119) 
None

>  <ref_pdb>  (119) 
z0165a

>  <inchikey>  (119) 
VAVBTJKEPGWLEX-BXUZGUMPSA-N

$$$$
VAVBTJKEPGWLEX-BXUZGUMPSA-N
     RDKit          3D

 16 18  0  0  0  0  0  0  0  0999 V2000
  -25.8303  -31.1681  -22.2998 C   0  0  0  0  0  0  0  0  0  0  0  0
  -26.7312  -31.1876  -21.0817 C   0  0  0  0  0  0  0  0  0  0  0  0
  -27.8742  -30.3632  -21.3636 O   0  0  0  0  0  0  0  0  0  0  0  0
  -28.8457  -30.1246  -20.4274 C   0  0  0  0  0  0  0  0  0  0  0  0
  -29.8769  -29.5401  -20.7238 O   0  0  0  0  0  0  0  0  0  0  0  0
  -28.5695  -30.5590  -19.0097 C   0  0  2  0  0  0  0  0  0  0  0  0
  -28.7221  -32.0648  -18.7545 C   0  0  0  0  0  0  0  0  0  0  0  0
  -29.7104  -31.1154  -18.1496 C   0  0  1  0  0  0  0  0  0  0  0  0
  -29.7134  -30.8596  -16.6674 C   0  0  0  0  0  0  0  0  0  0  0  0
  -28.3096  -30.8611  -16.0558 C   0  0  0  0  0  0  0  0  0  0  0  0
  -27.3828  -29.9436  -16.8161 C   0  0  0  0  0  0  0  0  0  0  0  0
  -26.3730  -29.2915  -16.1204 C   0  0  0  0  0  0  0  0  0  0  0  0
  -25.6284  -28.3165  -16.7605 C   0  0  0  0  0  0  0  0  0  0  0  0
  -25.8375  -27.9979  -18.0932 C   0  0  0  0  0  0  0  0  0  0  0  0
  -26.7974  -28.6991  -18.8035 C   0  0  0  0  0  0  0  0  0  0  0  0
  -27.5592  -29.7242  -18.2037 C   0  0  0  0  0  0  0  0  0  0  0  0
  1  2  1  0
  2  3  1  0
  3  4  1  0
  4  5  2  0
  6  4  1  6
  6  7  1  0
  8  7  1  1
  8  9  1  0
  9 10  1  0
 10 11  1  0
 11 12  2  0
 12 13  1  0
 13 14  2  0
 14 15  1  0
 15 16  2  0
  8  6  1  0
 16 11  1  0
 16  6  1  0
M  END
>  <fragmenstein_mode>  (120) 
expansion

>  <name>  (120) 
VAVBTJKEPGWLEX-BXUZGUMPSA-N

>  <fragmenstein_runtime>  (120) 
3.119612

>  <HIPPO Compound ID>  (120) 
47542

>  <SLURM_JOB_NAME>  (120) 
BulkDock.place:Flavi_NS5_RdRp:RdRp_knitwork_green_site_rna_tunnel_impure_split4000_batch013

>  <ref_mols>  (120) 
z0165a,z0628a

>  <Multi-SuCOS>  (120) 
0.578261

>  <tags>  (120) 
['Fragmenstein placed', 'RdRp_knitwork_green_site_rna_tunnel_impure_fragalysis.sdf Pose OK']

>  <scratch_subdir>  (120) 
/opt/xchem-fragalysis-2/maxwin/BulkDock/SCRATCH/220464/C47542-P150

>  <energy_score>  (120) 
-5.907797

>  <fragmenstein_error>  (120) 
None

>  <csv_name>  (120) 
RdRp_knitwork_green_site_rna_tunnel_impure_split4000_batch013.csv

>  <merge_set>  (120) 
RdRp_knitwork_green_site_rna_tunnel_impure_fragalysis.sdf

>  <original ID>  (120) 
VAVBTJKEPGWLEX-BXUZGUMPSA-N

>  <HIPPO Pose ID>  (120) 
178120

>  <fragmenstein_outcome>  (120) 
acceptable

>  <exports>  (120) 
['/opt/xchem-fragalysis-2/maxwin/BulkDock/OUTPUTS/RdRp_knitwork_green_site_rna_tunnel_impure_split4000_batch013_220464.sdf', '/opt/xchem-fragalysis-2/maxwin/BulkDock/OUTPUTS/RdRp_knitwork_green_site_rna_tunnel_impure_fragalysis.sdf']

>  <SLURM_JOB_ID>  (120) 
220464

>  <distance_score>  (120) 
0.932443

>  <original SMILES>  (120) 
CCOC(=O)[C@]12C[C@H]1CCc1ccccc12

>  <alias>  (120) 
None

>  <ref_pdb>  (120) 
z0628a

>  <inchikey>  (120) 
VAVBTJKEPGWLEX-BXUZGUMPSA-N

$$$$
IFESRLHDPXPEDG-GFCCVEGCSA-N
     RDKit          3D

 21 23  0  0  0  0  0  0  0  0999 V2000
  -25.2428  -31.9494  -14.0400 N   0  0  0  0  0  0  0  0  0  0  0  0
  -26.4390  -32.7455  -13.6267 C   0  0  2  0  0  0  0  0  0  0  0  0
  -26.2321  -34.2495  -13.8775 C   0  0  0  0  0  0  0  0  0  0  0  0
  -25.1754  -34.8566  -12.9827 C   0  0  0  0  0  0  0  0  0  0  0  0
  -23.9028  -35.1566  -13.4868 C   0  0  0  0  0  0  0  0  0  0  0  0
  -22.9223  -35.6973  -12.6539 C   0  0  0  0  0  0  0  0  0  0  0  0
  -23.2040  -35.9421  -11.3111 C   0  0  0  0  0  0  0  0  0  0  0  0
  -24.4668  -35.6484  -10.8000 C   0  0  0  0  0  0  0  0  0  0  0  0
  -25.4492  -35.1085  -11.6312 C   0  0  0  0  0  0  0  0  0  0  0  0
  -27.6980  -32.2904  -14.4113 C   0  0  0  0  0  0  0  0  0  0  0  0
  -28.7914  -32.4398  -14.0289 O   0  0  0  0  0  0  0  0  0  0  0  0
  -27.1728  -31.7381  -15.7591 N   0  0  0  0  0  0  0  0  0  0  0  0
  -27.8373  -31.2034  -16.8072 C   0  0  0  0  0  0  0  0  0  0  0  0
  -27.2006  -30.6914  -17.8346 N   0  0  0  0  0  0  0  0  0  0  0  0
  -28.1103  -30.3784  -18.8077 C   0  0  0  0  0  0  0  0  0  0  0  0
  -29.4248  -30.6551  -18.4969 C   0  0  0  0  0  0  0  0  0  0  0  0
  -29.5391  -31.2333  -16.8981 S   0  0  0  0  0  0  0  0  0  0  0  0
  -30.5743  -30.4867  -19.4223 C   0  0  0  0  0  0  0  0  0  0  0  0
  -30.0683  -30.2246  -20.8470 C   0  0  0  0  0  0  0  0  0  0  0  0
  -28.8494  -29.2989  -20.9157 C   0  0  0  0  0  0  0  0  0  0  0  0
  -27.6650  -29.8633  -20.1272 C   0  0  0  0  0  0  0  0  0  0  0  0
  2  1  1  6
  2  3  1  0
  3  4  1  0
  4  5  2  0
  5  6  1  0
  6  7  2  0
  7  8  1  0
  8  9  2  0
  2 10  1  0
 10 11  2  0
 10 12  1  0
 12 13  1  0
 13 14  2  0
 14 15  1  0
 15 16  2  0
 16 17  1  0
 16 18  1  0
 18 19  1  0
 19 20  1  0
 20 21  1  0
  9  4  1  0
 17 13  1  0
 21 15  1  0
M  END
>  <fragmenstein_mode>  (121) 
expansion

>  <name>  (121) 
IFESRLHDPXPEDG-GFCCVEGCSA-N

>  <fragmenstein_runtime>  (121) 
5.274048

>  <HIPPO Compound ID>  (121) 
32241

>  <SLURM_JOB_NAME>  (121) 
BulkDock.place:Flavi_NS5_RdRp:RdRp_knitwork_green_site_rna_tunnel_impure_split4000_batch008

>  <ref_mols>  (121) 
d0472b,z0200a

>  <Multi-SuCOS>  (121) 
0.320817

>  <tags>  (121) 
['Fragmenstein placed', 'RdRp_knitwork_green_site_rna_tunnel_impure_fragalysis.sdf Pose OK']

>  <scratch_subdir>  (121) 
/opt/xchem-fragalysis-2/maxwin/BulkDock/SCRATCH/220459/C32241-P100

>  <energy_score>  (121) 
-67.982804

>  <fragmenstein_error>  (121) 
None

>  <csv_name>  (121) 
RdRp_knitwork_green_site_rna_tunnel_impure_split4000_batch008.csv

>  <merge_set>  (121) 
RdRp_knitwork_green_site_rna_tunnel_impure_fragalysis.sdf

>  <original ID>  (121) 
IFESRLHDPXPEDG-GFCCVEGCSA-N

>  <HIPPO Pose ID>  (121) 
178202

>  <fragmenstein_outcome>  (121) 
acceptable

>  <exports>  (121) 
['/opt/xchem-fragalysis-2/maxwin/BulkDock/OUTPUTS/RdRp_knitwork_green_site_rna_tunnel_impure_split4000_batch008_220459.sdf', '/opt/xchem-fragalysis-2/maxwin/BulkDock/OUTPUTS/RdRp_knitwork_green_site_rna_tunnel_impure_fragalysis.sdf']

>  <SLURM_JOB_ID>  (121) 
220459

>  <distance_score>  (121) 
0.966965

>  <original SMILES>  (121) 
N[C@H](Cc1ccccc1)C(=O)Nc1nc2c(s1)CCCC2

>  <alias>  (121) 
None

>  <ref_pdb>  (121) 
z0200a

>  <inchikey>  (121) 
IFESRLHDPXPEDG-GFCCVEGCSA-N

$$$$
OSHPRRCLGZCWRO-ZETCQYMHSA-N
     RDKit          3D

 13 14  0  0  0  0  0  0  0  0999 V2000
  -27.6601  -30.3555  -21.6738 C   0  0  0  0  0  0  0  0  0  0  0  0
  -26.8551  -29.4636  -20.7476 C   0  0  0  0  0  0  0  0  0  0  0  0
  -27.6296  -28.8134  -19.6960 N   0  0  0  0  0  0  0  0  0  0  0  0
  -28.0912  -29.6395  -18.5640 C   0  0  1  0  0  0  0  0  0  0  0  0
  -29.4046  -30.3733  -18.8424 C   0  0  0  0  0  0  0  0  0  0  0  0
  -27.0497  -30.5853  -17.9923 C   0  0  0  0  0  0  0  0  0  0  0  0
  -26.6826  -31.7404  -18.5439 N   0  0  0  0  0  0  0  0  0  0  0  0
  -25.7098  -32.2824  -17.7647 C   0  0  0  0  0  0  0  0  0  0  0  0
  -25.3641  -31.5909  -16.6421 C   0  0  0  0  0  0  0  0  0  0  0  0
  -26.2448  -30.1816  -16.4888 S   0  0  0  0  0  0  0  0  0  0  0  0
  -24.3025  -32.2326  -15.8464 C   0  0  0  0  0  0  0  0  0  0  0  0
  -24.2434  -33.6459  -16.5189 C   0  0  0  0  0  0  0  0  0  0  0  0
  -24.9263  -33.5233  -17.9229 C   0  0  0  0  0  0  0  0  0  0  0  0
  1  2  1  0
  2  3  1  0
  3  4  1  0
  4  5  1  6
  4  6  1  0
  6  7  2  0
  7  8  1  0
  8  9  2  0
  9 10  1  0
  9 11  1  0
 11 12  1  0
 12 13  1  0
 10  6  1  0
 13  8  1  0
M  END
>  <fragmenstein_mode>  (122) 
expansion

>  <name>  (122) 
OSHPRRCLGZCWRO-ZETCQYMHSA-N

>  <fragmenstein_runtime>  (122) 
1.651882

>  <HIPPO Compound ID>  (122) 
37787

>  <SLURM_JOB_NAME>  (122) 
BulkDock.place:Flavi_NS5_RdRp:RdRp_knitwork_green_site_rna_tunnel_impure_split4000_batch000

>  <ref_mols>  (122) 
z0221a,z0521a

>  <Multi-SuCOS>  (122) 
0.409532

>  <tags>  (122) 
['Fragmenstein placed', 'RdRp_knitwork_green_site_rna_tunnel_impure_fragalysis.sdf Pose OK']

>  <scratch_subdir>  (122) 
/opt/xchem-fragalysis-2/maxwin/BulkDock/SCRATCH/220451/C37787-P105

>  <energy_score>  (122) 
-72.444345

>  <fragmenstein_error>  (122) 
None

>  <csv_name>  (122) 
RdRp_knitwork_green_site_rna_tunnel_impure_split4000_batch000.csv

>  <merge_set>  (122) 
RdRp_knitwork_green_site_rna_tunnel_impure_fragalysis.sdf

>  <original ID>  (122) 
OSHPRRCLGZCWRO-ZETCQYMHSA-N

>  <HIPPO Pose ID>  (122) 
178307

>  <fragmenstein_outcome>  (122) 
acceptable

>  <exports>  (122) 
['/opt/xchem-fragalysis-2/maxwin/BulkDock/OUTPUTS/RdRp_knitwork_green_site_rna_tunnel_impure_split4000_batch000_220451.sdf', '/opt/xchem-fragalysis-2/maxwin/BulkDock/OUTPUTS/RdRp_knitwork_green_site_rna_tunnel_impure_fragalysis.sdf']

>  <SLURM_JOB_ID>  (122) 
220451

>  <distance_score>  (122) 
0.996629

>  <original SMILES>  (122) 
CCN[C@@H](C)c1nc2c(s1)CCC2

>  <alias>  (122) 
None

>  <ref_pdb>  (122) 
z0221a

>  <inchikey>  (122) 
OSHPRRCLGZCWRO-ZETCQYMHSA-N

$$$$
OSHPRRCLGZCWRO-ZETCQYMHSA-N
     RDKit          3D

 13 14  0  0  0  0  0  0  0  0999 V2000
  -27.9633  -29.7274  -21.9742 C   0  0  0  0  0  0  0  0  0  0  0  0
  -27.5828  -30.1485  -20.5790 C   0  0  0  0  0  0  0  0  0  0  0  0
  -28.1489  -29.1794  -19.6455 N   0  0  0  0  0  0  0  0  0  0  0  0
  -28.1780  -29.6169  -18.2335 C   0  0  1  0  0  0  0  0  0  0  0  0
  -29.4466  -30.4144  -17.9361 C   0  0  0  0  0  0  0  0  0  0  0  0
  -26.9305  -30.3145  -17.7170 C   0  0  0  0  0  0  0  0  0  0  0  0
  -26.2139  -31.2256  -18.3689 N   0  0  0  0  0  0  0  0  0  0  0  0
  -25.1228  -31.5192  -17.6110 C   0  0  0  0  0  0  0  0  0  0  0  0
  -25.0382  -30.9084  -16.3951 C   0  0  0  0  0  0  0  0  0  0  0  0
  -26.3377  -29.9029  -16.1195 S   0  0  0  0  0  0  0  0  0  0  0  0
  -23.8347  -31.2718  -15.6243 C   0  0  0  0  0  0  0  0  0  0  0  0
  -23.3083  -32.4872  -16.4565 C   0  0  0  0  0  0  0  0  0  0  0  0
  -23.9579  -32.3869  -17.8760 C   0  0  0  0  0  0  0  0  0  0  0  0
  1  2  1  0
  2  3  1  0
  3  4  1  0
  4  5  1  6
  4  6  1  0
  6  7  2  0
  7  8  1  0
  8  9  2  0
  9 10  1  0
  9 11  1  0
 11 12  1  0
 12 13  1  0
 10  6  1  0
 13  8  1  0
M  END
>  <fragmenstein_mode>  (123) 
expansion

>  <name>  (123) 
OSHPRRCLGZCWRO-ZETCQYMHSA-N

>  <fragmenstein_runtime>  (123) 
1.723418

>  <HIPPO Compound ID>  (123) 
37787

>  <SLURM_JOB_NAME>  (123) 
BulkDock.place:Flavi_NS5_RdRp:RdRp_knitwork_green_site_rna_tunnel_impure_split4000_batch000

>  <ref_mols>  (123) 
z0221a,z0521a

>  <Multi-SuCOS>  (123) 
0.409959

>  <tags>  (123) 
['Fragmenstein placed', 'RdRp_knitwork_green_site_rna_tunnel_impure_fragalysis.sdf Pose OK']

>  <scratch_subdir>  (123) 
/opt/xchem-fragalysis-2/maxwin/BulkDock/SCRATCH/220451/C37787-P141

>  <energy_score>  (123) 
-72.291219

>  <fragmenstein_error>  (123) 
None

>  <csv_name>  (123) 
RdRp_knitwork_green_site_rna_tunnel_impure_split4000_batch000.csv

>  <merge_set>  (123) 
RdRp_knitwork_green_site_rna_tunnel_impure_fragalysis.sdf

>  <original ID>  (123) 
OSHPRRCLGZCWRO-ZETCQYMHSA-N

>  <HIPPO Pose ID>  (123) 
178322

>  <fragmenstein_outcome>  (123) 
acceptable

>  <exports>  (123) 
['/opt/xchem-fragalysis-2/maxwin/BulkDock/OUTPUTS/RdRp_knitwork_green_site_rna_tunnel_impure_split4000_batch000_220451.sdf', '/opt/xchem-fragalysis-2/maxwin/BulkDock/OUTPUTS/RdRp_knitwork_green_site_rna_tunnel_impure_fragalysis.sdf']

>  <SLURM_JOB_ID>  (123) 
220451

>  <distance_score>  (123) 
0.992093

>  <original SMILES>  (123) 
CCN[C@@H](C)c1nc2c(s1)CCC2

>  <alias>  (123) 
None

>  <ref_pdb>  (123) 
z0521a

>  <inchikey>  (123) 
OSHPRRCLGZCWRO-ZETCQYMHSA-N

$$$$
RROHNGOYABGUOX-UHFFFAOYSA-N
     RDKit          3D

 14 15  0  0  0  0  0  0  0  0999 V2000
  -25.6687  -30.2600  -20.3608 C   0  0  0  0  0  0  0  0  0  0  0  0
  -25.1475  -31.0725  -21.5141 C   0  0  0  0  0  0  0  0  0  0  0  0
  -25.1438  -30.6238  -22.6599 O   0  0  0  0  0  0  0  0  0  0  0  0
  -24.6619  -32.4680  -21.1536 C   0  0  0  0  0  0  0  0  0  0  0  0
  -23.9458  -33.1247  -22.2636 N   0  0  0  0  0  0  0  0  0  0  0  0
  -22.9573  -33.9746  -21.8792 C   0  0  0  0  0  0  0  0  0  0  0  0
  -22.9834  -35.3481  -21.9181 C   0  0  0  0  0  0  0  0  0  0  0  0
  -21.8688  -35.8524  -21.3195 O   0  0  0  0  0  0  0  0  0  0  0  0
  -21.1024  -34.7918  -20.9396 C   0  0  0  0  0  0  0  0  0  0  0  0
  -19.8732  -34.8695  -20.2894 C   0  0  0  0  0  0  0  0  0  0  0  0
  -19.2198  -33.6554  -20.0429 C   0  0  0  0  0  0  0  0  0  0  0  0
  -19.7879  -32.4351  -20.4220 C   0  0  0  0  0  0  0  0  0  0  0  0
  -21.0418  -32.3885  -21.0458 C   0  0  0  0  0  0  0  0  0  0  0  0
  -21.7130  -33.5987  -21.3060 C   0  0  0  0  0  0  0  0  0  0  0  0
  1  2  1  0
  2  3  2  0
  2  4  1  0
  4  5  1  0
  5  6  1  0
  6  7  2  0
  7  8  1  0
  8  9  1  0
  9 10  2  0
 10 11  1  0
 11 12  2  0
 12 13  1  0
 13 14  2  0
 14  6  1  0
 14  9  1  0
M  END
>  <fragmenstein_mode>  (124) 
expansion

>  <name>  (124) 
RROHNGOYABGUOX-UHFFFAOYSA-N

>  <fragmenstein_runtime>  (124) 
1.217767

>  <HIPPO Compound ID>  (124) 
39026

>  <SLURM_JOB_NAME>  (124) 
BulkDock.place:Flavi_NS5_RdRp:RdRp_knitwork_green_site_rna_tunnel_impure_split4000_batch014

>  <ref_mols>  (124) 
z0384a,3vws-b

>  <Multi-SuCOS>  (124) 
0.778271

>  <tags>  (124) 
['Fragmenstein placed', 'RdRp_knitwork_green_site_rna_tunnel_impure_fragalysis.sdf Pose OK']

>  <scratch_subdir>  (124) 
/opt/xchem-fragalysis-2/maxwin/BulkDock/SCRATCH/220465/C39026-P217

>  <energy_score>  (124) 
-21.057981

>  <fragmenstein_error>  (124) 
None

>  <csv_name>  (124) 
RdRp_knitwork_green_site_rna_tunnel_impure_split4000_batch014.csv

>  <merge_set>  (124) 
RdRp_knitwork_green_site_rna_tunnel_impure_fragalysis.sdf

>  <original ID>  (124) 
RROHNGOYABGUOX-UHFFFAOYSA-N

>  <HIPPO Pose ID>  (124) 
178448

>  <fragmenstein_outcome>  (124) 
acceptable

>  <exports>  (124) 
['/opt/xchem-fragalysis-2/maxwin/BulkDock/OUTPUTS/RdRp_knitwork_green_site_rna_tunnel_impure_split4000_batch014_220465.sdf', '/opt/xchem-fragalysis-2/maxwin/BulkDock/OUTPUTS/RdRp_knitwork_green_site_rna_tunnel_impure_fragalysis.sdf']

>  <SLURM_JOB_ID>  (124) 
220465

>  <distance_score>  (124) 
0.875477

>  <original SMILES>  (124) 
CC(=O)CNc1coc2ccccc12

>  <alias>  (124) 
None

>  <ref_pdb>  (124) 
3vws-b

>  <inchikey>  (124) 
RROHNGOYABGUOX-UHFFFAOYSA-N

$$$$
KCUJMVHTQVVAKM-ZIAGYGMSSA-N
     RDKit          3D

 21 23  0  0  0  0  0  0  0  0999 V2000
  -23.8056  -27.9774  -19.2252 C   0  0  0  0  0  0  0  0  0  0  0  0
  -24.5072  -28.7737  -19.7820 C   0  0  0  0  0  0  0  0  0  0  0  0
  -25.7052  -29.5045  -20.1382 C   0  0  1  0  0  0  0  0  0  0  0  0
  -26.4556  -28.6939  -21.0260 O   0  0  0  0  0  0  0  0  0  0  0  0
  -27.5322  -28.3033  -20.2949 C   0  0  0  0  0  0  0  0  0  0  0  0
  -27.6684  -27.1985  -19.7978 O   0  0  0  0  0  0  0  0  0  0  0  0
  -28.4735  -29.4506  -20.1627 C   0  0  2  0  0  0  0  0  0  0  0  0
  -29.5865  -29.1888  -21.1242 C   0  0  0  0  0  0  0  0  0  0  0  0
  -30.6622  -30.2094  -20.9288 C   0  0  0  0  0  0  0  0  0  0  0  0
  -31.1699  -30.4139  -19.5100 C   0  0  0  0  0  0  0  0  0  0  0  0
  -30.1168  -30.2166  -18.4806 C   0  0  0  0  0  0  0  0  0  0  0  0
  -30.2571  -30.5340  -16.8161 S   0  0  0  0  0  0  0  0  0  0  0  0
  -28.6384  -30.0004  -16.5977 C   0  0  0  0  0  0  0  0  0  0  0  0
  -28.0062  -29.6305  -17.6920 N   0  0  0  0  0  0  0  0  0  0  0  0
  -28.8733  -29.7198  -18.7623 C   0  0  0  0  0  0  0  0  0  0  0  0
  -25.7564  -30.9974  -20.4022 C   0  0  0  0  0  0  0  0  0  0  0  0
  -25.9931  -31.5160  -21.6821 C   0  0  0  0  0  0  0  0  0  0  0  0
  -26.1507  -32.8912  -21.8540 C   0  0  0  0  0  0  0  0  0  0  0  0
  -26.0882  -33.7618  -20.7649 C   0  0  0  0  0  0  0  0  0  0  0  0
  -25.8570  -33.2668  -19.4893 C   0  0  0  0  0  0  0  0  0  0  0  0
  -25.6978  -31.8968  -19.3095 C   0  0  0  0  0  0  0  0  0  0  0  0
  1  2  3  0
  3  2  1  6
  3  4  1  0
  4  5  1  0
  5  6  2  0
  7  5  1  1
  7  8  1  0
  8  9  1  0
  9 10  1  0
 10 11  1  0
 11 12  1  0
 12 13  1  0
 13 14  2  0
 14 15  1  0
  3 16  1  0
 16 17  2  0
 17 18  1  0
 18 19  2  0
 19 20  1  0
 20 21  2  0
 15  7  1  0
 21 16  1  0
 15 11  2  0
M  END
>  <fragmenstein_mode>  (125) 
expansion

>  <name>  (125) 
KCUJMVHTQVVAKM-ZIAGYGMSSA-N

>  <fragmenstein_runtime>  (125) 
6.556299

>  <HIPPO Compound ID>  (125) 
32584

>  <SLURM_JOB_NAME>  (125) 
BulkDock.place:Flavi_NS5_RdRp:RdRp_knitwork_green_site_rna_tunnel_impure_split4000_batch008

>  <ref_mols>  (125) 
d0472b,z0200a

>  <Multi-SuCOS>  (125) 
0.519639

>  <tags>  (125) 
['Fragmenstein placed', 'RdRp_knitwork_green_site_rna_tunnel_impure_fragalysis.sdf Pose OK']

>  <scratch_subdir>  (125) 
/opt/xchem-fragalysis-2/maxwin/BulkDock/SCRATCH/220459/C32584-P100

>  <energy_score>  (125) 
-24.603914

>  <fragmenstein_error>  (125) 
None

>  <csv_name>  (125) 
RdRp_knitwork_green_site_rna_tunnel_impure_split4000_batch008.csv

>  <merge_set>  (125) 
RdRp_knitwork_green_site_rna_tunnel_impure_fragalysis.sdf

>  <original ID>  (125) 
KCUJMVHTQVVAKM-ZIAGYGMSSA-N

>  <HIPPO Pose ID>  (125) 
178470

>  <fragmenstein_outcome>  (125) 
acceptable

>  <exports>  (125) 
['/opt/xchem-fragalysis-2/maxwin/BulkDock/OUTPUTS/RdRp_knitwork_green_site_rna_tunnel_impure_split4000_batch008_220459.sdf', '/opt/xchem-fragalysis-2/maxwin/BulkDock/OUTPUTS/RdRp_knitwork_green_site_rna_tunnel_impure_fragalysis.sdf']

>  <SLURM_JOB_ID>  (125) 
220459

>  <distance_score>  (125) 
0.933799

>  <original SMILES>  (125) 
C#C[C@@H](OC(=O)[C@@H]1CCCc2scnc21)c1ccccc1

>  <alias>  (125) 
None

>  <ref_pdb>  (125) 
z0200a

>  <inchikey>  (125) 
KCUJMVHTQVVAKM-ZIAGYGMSSA-N

$$$$
MJRDLXQOMMUSNB-UHFFFAOYSA-N
     RDKit          3D

 16 17  0  0  0  0  0  0  0  0999 V2000
  -25.6952  -31.0182  -22.6794 C   0  0  0  0  0  0  0  0  0  0  0  0
  -26.4400  -30.6436  -21.4205 C   0  0  0  0  0  0  0  0  0  0  0  0
  -27.3105  -29.5404  -21.6942 O   0  0  0  0  0  0  0  0  0  0  0  0
  -28.1388  -29.2229  -20.6603 C   0  0  0  0  0  0  0  0  0  0  0  0
  -29.3524  -29.1722  -20.7727 O   0  0  0  0  0  0  0  0  0  0  0  0
  -27.4379  -28.9332  -19.3816 C   0  0  0  0  0  0  0  0  0  0  0  0
  -26.3592  -28.0372  -19.4174 C   0  0  0  0  0  0  0  0  0  0  0  0
  -25.6281  -27.7999  -18.2673 C   0  0  0  0  0  0  0  0  0  0  0  0
  -25.9494  -28.4864  -17.0993 C   0  0  0  0  0  0  0  0  0  0  0  0
  -27.0481  -29.3661  -17.0308 C   0  0  0  0  0  0  0  0  0  0  0  0
  -27.8615  -29.5426  -18.1739 C   0  0  0  0  0  0  0  0  0  0  0  0
  -29.0039  -30.3794  -18.1781 N   0  0  0  0  0  0  0  0  0  0  0  0
  -29.8578  -30.2770  -16.9981 C   0  0  0  0  0  0  0  0  0  0  0  0
  -29.4542  -31.2955  -15.9452 C   0  0  0  0  0  0  0  0  0  0  0  0
  -27.9514  -31.3742  -15.7004 C   0  0  0  0  0  0  0  0  0  0  0  0
  -27.2900  -30.0062  -15.6776 C   0  0  0  0  0  0  0  0  0  0  0  0
  1  2  1  0
  2  3  1  0
  3  4  1  0
  4  5  2  0
  4  6  1  0
  6  7  2  0
  7  8  1  0
  8  9  2  0
  9 10  1  0
 10 11  2  0
 11 12  1  0
 12 13  1  0
 13 14  1  0
 14 15  1  0
 15 16  1  0
 11  6  1  0
 16 10  1  0
M  END
>  <fragmenstein_mode>  (126) 
expansion

>  <name>  (126) 
MJRDLXQOMMUSNB-UHFFFAOYSA-N

>  <fragmenstein_runtime>  (126) 
2.480339

>  <HIPPO Compound ID>  (126) 
49149

>  <SLURM_JOB_NAME>  (126) 
BulkDock.place:Flavi_NS5_RdRp:RdRp_knitwork_green_site_rna_tunnel_impure_split4000_batch013

>  <ref_mols>  (126) 
z0165a,z0628a

>  <Multi-SuCOS>  (126) 
0.65396

>  <tags>  (126) 
['Fragmenstein placed', 'RdRp_knitwork_green_site_rna_tunnel_impure_fragalysis.sdf Pose OK']

>  <scratch_subdir>  (126) 
/opt/xchem-fragalysis-2/maxwin/BulkDock/SCRATCH/220464/C49149-P150

>  <energy_score>  (126) 
-142.573046

>  <fragmenstein_error>  (126) 
None

>  <csv_name>  (126) 
RdRp_knitwork_green_site_rna_tunnel_impure_split4000_batch013.csv

>  <merge_set>  (126) 
RdRp_knitwork_green_site_rna_tunnel_impure_fragalysis.sdf

>  <original ID>  (126) 
MJRDLXQOMMUSNB-UHFFFAOYSA-N

>  <HIPPO Pose ID>  (126) 
178636

>  <fragmenstein_outcome>  (126) 
acceptable

>  <exports>  (126) 
['/opt/xchem-fragalysis-2/maxwin/BulkDock/OUTPUTS/RdRp_knitwork_green_site_rna_tunnel_impure_split4000_batch013_220464.sdf', '/opt/xchem-fragalysis-2/maxwin/BulkDock/OUTPUTS/RdRp_knitwork_green_site_rna_tunnel_impure_fragalysis.sdf']

>  <SLURM_JOB_ID>  (126) 
220464

>  <distance_score>  (126) 
0.863174

>  <original SMILES>  (126) 
CCOC(=O)c1cccc2c1NCCCC2

>  <alias>  (126) 
None

>  <ref_pdb>  (126) 
z0628a

>  <inchikey>  (126) 
MJRDLXQOMMUSNB-UHFFFAOYSA-N

$$$$
PUMUQPFVDBPKQC-UHFFFAOYSA-N
     RDKit          3D

 10 10  0  0  0  0  0  0  0  0999 V2000
  -29.3404  -30.2171  -17.0830 C   0  0  0  0  0  0  0  0  0  0  0  0
  -27.8801  -29.7923  -17.0499 C   0  0  0  0  0  0  0  0  0  0  0  0
  -27.1232  -30.7809  -16.3099 N   0  0  0  0  0  0  0  0  0  0  0  0
  -25.6852  -30.5705  -16.1791 C   0  0  0  0  0  0  0  0  0  0  0  0
  -24.8772  -30.1259  -17.3949 C   0  0  0  0  0  0  0  0  0  0  0  0
  -25.1508  -30.8966  -18.6366 C   0  0  0  0  0  0  0  0  0  0  0  0
  -25.7729  -30.4842  -19.7274 N   0  0  0  0  0  0  0  0  0  0  0  0
  -25.6626  -31.5390  -20.5886 C   0  0  0  0  0  0  0  0  0  0  0  0
  -24.9661  -32.5523  -19.9884 C   0  0  0  0  0  0  0  0  0  0  0  0
  -24.6479  -32.1640  -18.7222 O   0  0  0  0  0  0  0  0  0  0  0  0
  1  2  1  0
  2  3  1  0
  3  4  1  0
  4  5  1  0
  5  6  1  0
  6  7  2  0
  7  8  1  0
  8  9  2  0
  9 10  1  0
 10  6  1  0
M  END
>  <fragmenstein_mode>  (127) 
expansion

>  <name>  (127) 
PUMUQPFVDBPKQC-UHFFFAOYSA-N

>  <fragmenstein_runtime>  (127) 
2.264592

>  <HIPPO Compound ID>  (127) 
37475

>  <SLURM_JOB_NAME>  (127) 
BulkDock.place:Flavi_NS5_RdRp:RdRp_knitwork_green_site_rna_tunnel_impure_split4000_batch001

>  <ref_mols>  (127) 
d0472b,z0521a

>  <Multi-SuCOS>  (127) 
0.499403

>  <tags>  (127) 
['Fragmenstein placed', 'RdRp_knitwork_green_site_rna_tunnel_impure_fragalysis.sdf Pose OK']

>  <scratch_subdir>  (127) 
/opt/xchem-fragalysis-2/maxwin/BulkDock/SCRATCH/220452/C37475-P141

>  <energy_score>  (127) 
-24.23322

>  <fragmenstein_error>  (127) 
None

>  <csv_name>  (127) 
RdRp_knitwork_green_site_rna_tunnel_impure_split4000_batch001.csv

>  <merge_set>  (127) 
RdRp_knitwork_green_site_rna_tunnel_impure_fragalysis.sdf

>  <original ID>  (127) 
PUMUQPFVDBPKQC-UHFFFAOYSA-N

>  <HIPPO Pose ID>  (127) 
178725

>  <fragmenstein_outcome>  (127) 
acceptable

>  <exports>  (127) 
['/opt/xchem-fragalysis-2/maxwin/BulkDock/OUTPUTS/RdRp_knitwork_green_site_rna_tunnel_impure_split4000_batch001_220452.sdf', '/opt/xchem-fragalysis-2/maxwin/BulkDock/OUTPUTS/RdRp_knitwork_green_site_rna_tunnel_impure_fragalysis.sdf']

>  <SLURM_JOB_ID>  (127) 
220452

>  <distance_score>  (127) 
0.913607

>  <original SMILES>  (127) 
CCNCCc1ncco1

>  <alias>  (127) 
None

>  <ref_pdb>  (127) 
z0521a

>  <inchikey>  (127) 
PUMUQPFVDBPKQC-UHFFFAOYSA-N

$$$$
VVUKYTGIGYABGZ-UHFFFAOYSA-N
     RDKit          3D

 15 16  0  0  0  0  0  0  0  0999 V2000
  -27.3925  -31.8751  -22.8210 C   0  0  0  0  0  0  0  0  0  0  0  0
  -28.2462  -30.8584  -22.0988 C   0  0  0  0  0  0  0  0  0  0  0  0
  -27.4024  -30.1013  -21.2288 O   0  0  0  0  0  0  0  0  0  0  0  0
  -28.1159  -29.2900  -20.4091 C   0  0  0  0  0  0  0  0  0  0  0  0
  -29.2667  -28.9212  -20.5610 O   0  0  0  0  0  0  0  0  0  0  0  0
  -27.2982  -28.9977  -19.2243 C   0  0  0  0  0  0  0  0  0  0  0  0
  -26.0992  -28.2872  -19.3609 C   0  0  0  0  0  0  0  0  0  0  0  0
  -25.2626  -28.1474  -18.2604 C   0  0  0  0  0  0  0  0  0  0  0  0
  -25.5829  -28.7880  -17.0649 C   0  0  0  0  0  0  0  0  0  0  0  0
  -26.8008  -29.4669  -16.9297 C   0  0  0  0  0  0  0  0  0  0  0  0
  -27.7331  -29.5065  -17.9849 C   0  0  0  0  0  0  0  0  0  0  0  0
  -28.9824  -30.1419  -17.8784 N   0  0  0  0  0  0  0  0  0  0  0  0
  -29.6568  -30.2743  -16.5851 C   0  0  0  0  0  0  0  0  0  0  0  0
  -28.8917  -29.7914  -15.3625 C   0  0  0  0  0  0  0  0  0  0  0  0
  -27.1544  -30.2503  -15.3692 S   0  0  0  0  0  0  0  0  0  0  0  0
  1  2  1  0
  2  3  1  0
  3  4  1  0
  4  5  2  0
  4  6  1  0
  6  7  2  0
  7  8  1  0
  8  9  2  0
  9 10  1  0
 10 11  2  0
 11 12  1  0
 12 13  1  0
 13 14  1  0
 14 15  1  0
 11  6  1  0
 15 10  1  0
M  END
>  <fragmenstein_mode>  (128) 
expansion

>  <name>  (128) 
VVUKYTGIGYABGZ-UHFFFAOYSA-N

>  <fragmenstein_runtime>  (128) 
2.685457

>  <HIPPO Compound ID>  (128) 
49559

>  <SLURM_JOB_NAME>  (128) 
BulkDock.place:Flavi_NS5_RdRp:RdRp_knitwork_green_site_rna_tunnel_impure_split4000_batch013

>  <ref_mols>  (128) 
z0165a,z0628a

>  <Multi-SuCOS>  (128) 
0.694299

>  <tags>  (128) 
['Fragmenstein placed', 'RdRp_knitwork_green_site_rna_tunnel_impure_fragalysis.sdf Pose OK']

>  <scratch_subdir>  (128) 
/opt/xchem-fragalysis-2/maxwin/BulkDock/SCRATCH/220464/C49559-P3

>  <energy_score>  (128) 
-53.100008

>  <fragmenstein_error>  (128) 
None

>  <csv_name>  (128) 
RdRp_knitwork_green_site_rna_tunnel_impure_split4000_batch013.csv

>  <merge_set>  (128) 
RdRp_knitwork_green_site_rna_tunnel_impure_fragalysis.sdf

>  <original ID>  (128) 
VVUKYTGIGYABGZ-UHFFFAOYSA-N

>  <HIPPO Pose ID>  (128) 
178795

>  <fragmenstein_outcome>  (128) 
acceptable

>  <exports>  (128) 
['/opt/xchem-fragalysis-2/maxwin/BulkDock/OUTPUTS/RdRp_knitwork_green_site_rna_tunnel_impure_split4000_batch013_220464.sdf', '/opt/xchem-fragalysis-2/maxwin/BulkDock/OUTPUTS/RdRp_knitwork_green_site_rna_tunnel_impure_fragalysis.sdf']

>  <SLURM_JOB_ID>  (128) 
220464

>  <distance_score>  (128) 
0.948378

>  <original SMILES>  (128) 
CCOC(=O)c1cccc2c1NCCS2

>  <alias>  (128) 
None

>  <ref_pdb>  (128) 
z0165a

>  <inchikey>  (128) 
VVUKYTGIGYABGZ-UHFFFAOYSA-N

$$$$
VVUKYTGIGYABGZ-UHFFFAOYSA-N
     RDKit          3D

 15 16  0  0  0  0  0  0  0  0999 V2000
  -25.6675  -31.1308  -22.7015 C   0  0  0  0  0  0  0  0  0  0  0  0
  -26.2704  -30.5465  -21.4465 C   0  0  0  0  0  0  0  0  0  0  0  0
  -27.2877  -29.5981  -21.7900 O   0  0  0  0  0  0  0  0  0  0  0  0
  -28.1062  -29.1923  -20.7787 C   0  0  0  0  0  0  0  0  0  0  0  0
  -29.3056  -29.0237  -20.9339 O   0  0  0  0  0  0  0  0  0  0  0  0
  -27.4502  -28.9558  -19.4678 C   0  0  0  0  0  0  0  0  0  0  0  0
  -26.3809  -28.0489  -19.4107 C   0  0  0  0  0  0  0  0  0  0  0  0
  -25.6815  -27.8843  -18.2242 C   0  0  0  0  0  0  0  0  0  0  0  0
  -26.0407  -28.6304  -17.1031 C   0  0  0  0  0  0  0  0  0  0  0  0
  -27.1531  -29.4842  -17.1375 C   0  0  0  0  0  0  0  0  0  0  0  0
  -27.9064  -29.6409  -18.3208 C   0  0  0  0  0  0  0  0  0  0  0  0
  -28.9991  -30.5116  -18.4285 N   0  0  0  0  0  0  0  0  0  0  0  0
  -29.5574  -31.1943  -17.2650 C   0  0  0  0  0  0  0  0  0  0  0  0
  -29.3800  -30.4432  -15.9546 C   0  0  0  0  0  0  0  0  0  0  0  0
  -27.6103  -30.2713  -15.5967 S   0  0  0  0  0  0  0  0  0  0  0  0
  1  2  1  0
  2  3  1  0
  3  4  1  0
  4  5  2  0
  4  6  1  0
  6  7  2  0
  7  8  1  0
  8  9  2  0
  9 10  1  0
 10 11  2  0
 11 12  1  0
 12 13  1  0
 13 14  1  0
 14 15  1  0
 11  6  1  0
 15 10  1  0
M  END
>  <fragmenstein_mode>  (129) 
expansion

>  <name>  (129) 
VVUKYTGIGYABGZ-UHFFFAOYSA-N

>  <fragmenstein_runtime>  (129) 
1.625363

>  <HIPPO Compound ID>  (129) 
49559

>  <SLURM_JOB_NAME>  (129) 
BulkDock.place:Flavi_NS5_RdRp:RdRp_knitwork_green_site_rna_tunnel_impure_split4000_batch013

>  <ref_mols>  (129) 
z0165a,z0628a

>  <Multi-SuCOS>  (129) 
0.641282

>  <tags>  (129) 
['Fragmenstein placed', 'RdRp_knitwork_green_site_rna_tunnel_impure_fragalysis.sdf Pose OK']

>  <scratch_subdir>  (129) 
/opt/xchem-fragalysis-2/maxwin/BulkDock/SCRATCH/220464/C49559-P150

>  <energy_score>  (129) 
-47.936596

>  <fragmenstein_error>  (129) 
None

>  <csv_name>  (129) 
RdRp_knitwork_green_site_rna_tunnel_impure_split4000_batch013.csv

>  <merge_set>  (129) 
RdRp_knitwork_green_site_rna_tunnel_impure_fragalysis.sdf

>  <original ID>  (129) 
VVUKYTGIGYABGZ-UHFFFAOYSA-N

>  <HIPPO Pose ID>  (129) 
178803

>  <fragmenstein_outcome>  (129) 
acceptable

>  <exports>  (129) 
['/opt/xchem-fragalysis-2/maxwin/BulkDock/OUTPUTS/RdRp_knitwork_green_site_rna_tunnel_impure_split4000_batch013_220464.sdf', '/opt/xchem-fragalysis-2/maxwin/BulkDock/OUTPUTS/RdRp_knitwork_green_site_rna_tunnel_impure_fragalysis.sdf']

>  <SLURM_JOB_ID>  (129) 
220464

>  <distance_score>  (129) 
0.838902

>  <original SMILES>  (129) 
CCOC(=O)c1cccc2c1NCCS2

>  <alias>  (129) 
None

>  <ref_pdb>  (129) 
z0628a

>  <inchikey>  (129) 
VVUKYTGIGYABGZ-UHFFFAOYSA-N

$$$$
CKALIVKFFNYAFU-INIZCTEOSA-N
     RDKit          3D

 22 24  0  0  0  0  0  0  0  0999 V2000
  -27.2237  -33.0819  -15.6851 C   0  0  0  0  0  0  0  0  0  0  0  0
  -27.7630  -32.2463  -14.6136 N   0  0  0  0  0  0  0  0  0  0  0  0
  -29.0203  -32.7400  -14.0449 C   0  0  0  0  0  0  0  0  0  0  0  0
  -29.0157  -34.1682  -13.4764 C   0  0  0  0  0  0  0  0  0  0  0  0
  -27.8665  -34.5461  -12.5319 C   0  0  2  0  0  0  0  0  0  0  0  0
  -28.1379  -35.8752  -12.0471 O   0  0  0  0  0  0  0  0  0  0  0  0
  -27.5986  -33.6486  -11.3443 C   0  0  0  0  0  0  0  0  0  0  0  0
  -26.2694  -33.4285  -10.9430 C   0  0  0  0  0  0  0  0  0  0  0  0
  -25.9774  -32.6457   -9.8257 C   0  0  0  0  0  0  0  0  0  0  0  0
  -27.0108  -32.0791   -9.0873 C   0  0  0  0  0  0  0  0  0  0  0  0
  -28.3328  -32.2969   -9.4663 C   0  0  0  0  0  0  0  0  0  0  0  0
  -28.6276  -33.0782  -10.5858 C   0  0  0  0  0  0  0  0  0  0  0  0
  -27.8638  -30.8117  -15.0256 C   0  0  0  0  0  0  0  0  0  0  0  0
  -28.3479  -30.5423  -16.4334 C   0  0  0  0  0  0  0  0  0  0  0  0
  -27.5465  -30.2842  -17.4533 N   0  0  0  0  0  0  0  0  0  0  0  0
  -28.2813  -30.1852  -18.6055 C   0  0  0  0  0  0  0  0  0  0  0  0
  -29.6334  -30.4031  -18.4638 C   0  0  0  0  0  0  0  0  0  0  0  0
  -30.0277  -30.5966  -16.8223 S   0  0  0  0  0  0  0  0  0  0  0  0
  -30.6225  -30.4225  -19.5742 C   0  0  0  0  0  0  0  0  0  0  0  0
  -29.9135  -30.3008  -20.9308 C   0  0  0  0  0  0  0  0  0  0  0  0
  -28.6753  -29.3967  -20.9190 C   0  0  0  0  0  0  0  0  0  0  0  0
  -27.6338  -29.8993  -19.9127 C   0  0  0  0  0  0  0  0  0  0  0  0
  1  2  1  0
  2  3  1  0
  3  4  1  0
  4  5  1  0
  5  6  1  1
  5  7  1  0
  7  8  2  0
  8  9  1  0
  9 10  2  0
 10 11  1  0
 11 12  2  0
  2 13  1  0
 13 14  1  0
 14 15  2  0
 15 16  1  0
 16 17  2  0
 17 18  1  0
 17 19  1  0
 19 20  1  0
 20 21  1  0
 21 22  1  0
 12  7  1  0
 18 14  1  0
 22 16  1  0
M  END
>  <fragmenstein_mode>  (130) 
expansion

>  <name>  (130) 
CKALIVKFFNYAFU-INIZCTEOSA-N

>  <fragmenstein_runtime>  (130) 
7.546326

>  <HIPPO Compound ID>  (130) 
33298

>  <SLURM_JOB_NAME>  (130) 
BulkDock.place:Flavi_NS5_RdRp:RdRp_knitwork_green_site_rna_tunnel_impure_split4000_batch008

>  <ref_mols>  (130) 
d0472b,z0200a

>  <Multi-SuCOS>  (130) 
0.369871

>  <tags>  (130) 
['Fragmenstein placed', 'RdRp_knitwork_green_site_rna_tunnel_impure_fragalysis.sdf Pose OK']

>  <scratch_subdir>  (130) 
/opt/xchem-fragalysis-2/maxwin/BulkDock/SCRATCH/220459/C33298-P100

>  <energy_score>  (130) 
-73.389835

>  <fragmenstein_error>  (130) 
None

>  <csv_name>  (130) 
RdRp_knitwork_green_site_rna_tunnel_impure_split4000_batch008.csv

>  <merge_set>  (130) 
RdRp_knitwork_green_site_rna_tunnel_impure_fragalysis.sdf

>  <original ID>  (130) 
CKALIVKFFNYAFU-INIZCTEOSA-N

>  <HIPPO Pose ID>  (130) 
178829

>  <fragmenstein_outcome>  (130) 
acceptable

>  <exports>  (130) 
['/opt/xchem-fragalysis-2/maxwin/BulkDock/OUTPUTS/RdRp_knitwork_green_site_rna_tunnel_impure_split4000_batch008_220459.sdf', '/opt/xchem-fragalysis-2/maxwin/BulkDock/OUTPUTS/RdRp_knitwork_green_site_rna_tunnel_impure_fragalysis.sdf']

>  <SLURM_JOB_ID>  (130) 
220459

>  <distance_score>  (130) 
0.613911

>  <original SMILES>  (130) 
CN(CC[C@H](O)c1ccccc1)Cc1nc2c(s1)CCCC2

>  <alias>  (130) 
None

>  <ref_pdb>  (130) 
z0200a

>  <inchikey>  (130) 
CKALIVKFFNYAFU-INIZCTEOSA-N

$$$$
KIWLUFFHGMQEGP-UHFFFAOYSA-N
     RDKit          3D

 16 17  0  0  0  0  0  0  0  0999 V2000
  -25.9189  -31.0663  -22.0336 C   0  0  0  0  0  0  0  0  0  0  0  0
  -26.7747  -31.3874  -20.8242 C   0  0  0  0  0  0  0  0  0  0  0  0
  -27.9935  -30.6209  -20.9018 O   0  0  0  0  0  0  0  0  0  0  0  0
  -28.0762  -29.3712  -20.3842 C   0  0  0  0  0  0  0  0  0  0  0  0
  -28.7421  -28.4877  -20.8986 O   0  0  0  0  0  0  0  0  0  0  0  0
  -27.3346  -29.1268  -19.1371 C   0  0  0  0  0  0  0  0  0  0  0  0
  -26.4462  -28.0445  -19.1418 C   0  0  0  0  0  0  0  0  0  0  0  0
  -25.6921  -27.7819  -18.0130 C   0  0  0  0  0  0  0  0  0  0  0  0
  -25.8213  -28.6067  -16.8957 C   0  0  0  0  0  0  0  0  0  0  0  0
  -26.7238  -29.6806  -16.8682 C   0  0  0  0  0  0  0  0  0  0  0  0
  -27.5216  -29.9452  -17.9987 C   0  0  0  0  0  0  0  0  0  0  0  0
  -28.5026  -30.9641  -17.9849 N   0  0  0  0  0  0  0  0  0  0  0  0
  -29.7064  -30.6255  -17.2193 C   0  0  0  0  0  0  0  0  0  0  0  0
  -29.4411  -30.3841  -15.7388 C   0  0  0  0  0  0  0  0  0  0  0  0
  -28.3588  -31.3019  -15.1948 C   0  0  0  0  0  0  0  0  0  0  0  0
  -26.6669  -30.6458  -15.3568 S   0  0  0  0  0  0  0  0  0  0  0  0
  1  2  1  0
  2  3  1  0
  3  4  1  0
  4  5  2  0
  4  6  1  0
  6  7  2  0
  7  8  1  0
  8  9  2  0
  9 10  1  0
 10 11  2  0
 11 12  1  0
 12 13  1  0
 13 14  1  0
 14 15  1  0
 15 16  1  0
 11  6  1  0
 16 10  1  0
M  END
>  <fragmenstein_mode>  (131) 
expansion

>  <name>  (131) 
KIWLUFFHGMQEGP-UHFFFAOYSA-N

>  <fragmenstein_runtime>  (131) 
2.150746

>  <HIPPO Compound ID>  (131) 
49677

>  <SLURM_JOB_NAME>  (131) 
BulkDock.place:Flavi_NS5_RdRp:RdRp_knitwork_green_site_rna_tunnel_impure_split4000_batch013

>  <ref_mols>  (131) 
z0165a,z0628a

>  <Multi-SuCOS>  (131) 
0.639485

>  <tags>  (131) 
['Fragmenstein placed', 'RdRp_knitwork_green_site_rna_tunnel_impure_fragalysis.sdf Pose OK']

>  <scratch_subdir>  (131) 
/opt/xchem-fragalysis-2/maxwin/BulkDock/SCRATCH/220464/C49677-P150

>  <energy_score>  (131) 
-156.181381

>  <fragmenstein_error>  (131) 
None

>  <csv_name>  (131) 
RdRp_knitwork_green_site_rna_tunnel_impure_split4000_batch013.csv

>  <merge_set>  (131) 
RdRp_knitwork_green_site_rna_tunnel_impure_fragalysis.sdf

>  <original ID>  (131) 
KIWLUFFHGMQEGP-UHFFFAOYSA-N

>  <HIPPO Pose ID>  (131) 
178866

>  <fragmenstein_outcome>  (131) 
acceptable

>  <exports>  (131) 
['/opt/xchem-fragalysis-2/maxwin/BulkDock/OUTPUTS/RdRp_knitwork_green_site_rna_tunnel_impure_split4000_batch013_220464.sdf', '/opt/xchem-fragalysis-2/maxwin/BulkDock/OUTPUTS/RdRp_knitwork_green_site_rna_tunnel_impure_fragalysis.sdf']

>  <SLURM_JOB_ID>  (131) 
220464

>  <distance_score>  (131) 
0.979353

>  <original SMILES>  (131) 
CCOC(=O)c1cccc2c1NCCCS2

>  <alias>  (131) 
None

>  <ref_pdb>  (131) 
z0628a

>  <inchikey>  (131) 
KIWLUFFHGMQEGP-UHFFFAOYSA-N

$$$$
AOCUXTZGICCFPN-OAHLLOKOSA-N
     RDKit          3D

 21 23  0  0  0  0  0  0  0  0999 V2000
  -24.6733  -32.4331  -15.8368 O   0  0  0  0  0  0  0  0  0  0  0  0
  -25.1794  -33.6511  -15.2895 C   0  0  2  0  0  0  0  0  0  0  0  0
  -26.4214  -33.4730  -14.4047 C   0  0  0  0  0  0  0  0  0  0  0  0
  -27.4836  -32.5375  -14.9670 C   0  0  0  0  0  0  0  0  0  0  0  0
  -27.0837  -31.1620  -14.7096 N   0  0  0  0  0  0  0  0  0  0  0  0
  -28.1264  -30.1815  -15.0140 C   0  0  0  0  0  0  0  0  0  0  0  0
  -28.5084  -30.1381  -16.4621 C   0  0  0  0  0  0  0  0  0  0  0  0
  -27.6824  -29.8551  -17.4523 N   0  0  0  0  0  0  0  0  0  0  0  0
  -28.3514  -29.9578  -18.6420 C   0  0  0  0  0  0  0  0  0  0  0  0
  -29.6804  -30.3081  -18.5478 C   0  0  0  0  0  0  0  0  0  0  0  0
  -30.1229  -30.5136  -16.9236 S   0  0  0  0  0  0  0  0  0  0  0  0
  -30.6207  -30.4434  -19.6888 C   0  0  0  0  0  0  0  0  0  0  0  0
  -29.8678  -30.3165  -21.0191 C   0  0  0  0  0  0  0  0  0  0  0  0
  -28.6968  -29.3277  -21.0034 C   0  0  0  0  0  0  0  0  0  0  0  0
  -27.6670  -29.6950  -19.9327 C   0  0  0  0  0  0  0  0  0  0  0  0
  -24.0896  -34.3201  -14.4811 C   0  0  0  0  0  0  0  0  0  0  0  0
  -23.2699  -33.5634  -13.6250 C   0  0  0  0  0  0  0  0  0  0  0  0
  -22.3144  -34.1842  -12.8266 C   0  0  0  0  0  0  0  0  0  0  0  0
  -22.1818  -35.5679  -12.8645 C   0  0  0  0  0  0  0  0  0  0  0  0
  -22.9988  -36.3296  -13.7020 C   0  0  0  0  0  0  0  0  0  0  0  0
  -23.9453  -35.7104  -14.5122 C   0  0  0  0  0  0  0  0  0  0  0  0
  2  1  1  1
  2  3  1  0
  3  4  1  0
  4  5  1  0
  5  6  1  0
  6  7  1  0
  7  8  2  0
  8  9  1  0
  9 10  2  0
 10 11  1  0
 10 12  1  0
 12 13  1  0
 13 14  1  0
 14 15  1  0
  2 16  1  0
 16 17  2  0
 17 18  1  0
 18 19  2  0
 19 20  1  0
 20 21  2  0
 11  7  1  0
 21 16  1  0
 15  9  1  0
M  END
>  <fragmenstein_mode>  (132) 
expansion

>  <name>  (132) 
AOCUXTZGICCFPN-OAHLLOKOSA-N

>  <fragmenstein_runtime>  (132) 
5.498926

>  <HIPPO Compound ID>  (132) 
33426

>  <SLURM_JOB_NAME>  (132) 
BulkDock.place:Flavi_NS5_RdRp:RdRp_knitwork_green_site_rna_tunnel_impure_split4000_batch008

>  <ref_mols>  (132) 
d0472b,z0200a

>  <Multi-SuCOS>  (132) 
0.379317

>  <tags>  (132) 
['Fragmenstein placed', 'RdRp_knitwork_green_site_rna_tunnel_impure_fragalysis.sdf Pose OK']

>  <scratch_subdir>  (132) 
/opt/xchem-fragalysis-2/maxwin/BulkDock/SCRATCH/220459/C33426-P100

>  <energy_score>  (132) 
-74.531242

>  <fragmenstein_error>  (132) 
None

>  <csv_name>  (132) 
RdRp_knitwork_green_site_rna_tunnel_impure_split4000_batch008.csv

>  <merge_set>  (132) 
RdRp_knitwork_green_site_rna_tunnel_impure_fragalysis.sdf

>  <original ID>  (132) 
AOCUXTZGICCFPN-OAHLLOKOSA-N

>  <HIPPO Pose ID>  (132) 
178918

>  <fragmenstein_outcome>  (132) 
acceptable

>  <exports>  (132) 
['/opt/xchem-fragalysis-2/maxwin/BulkDock/OUTPUTS/RdRp_knitwork_green_site_rna_tunnel_impure_split4000_batch008_220459.sdf', '/opt/xchem-fragalysis-2/maxwin/BulkDock/OUTPUTS/RdRp_knitwork_green_site_rna_tunnel_impure_fragalysis.sdf']

>  <SLURM_JOB_ID>  (132) 
220459

>  <distance_score>  (132) 
0.693047

>  <original SMILES>  (132) 
O[C@H](CCNCc1nc2c(s1)CCCC2)c1ccccc1

>  <alias>  (132) 
None

>  <ref_pdb>  (132) 
z0200a

>  <inchikey>  (132) 
AOCUXTZGICCFPN-OAHLLOKOSA-N

$$$$
BPAMHFKPRFMLFL-UHFFFAOYSA-N
     RDKit          3D

 10 10  0  0  0  0  0  0  0  0999 V2000
  -28.8402  -30.4971  -17.1019 C   0  0  0  0  0  0  0  0  0  0  0  0
  -27.5925  -29.6698  -17.3732 C   0  0  0  0  0  0  0  0  0  0  0  0
  -26.4082  -30.5224  -17.4883 N   0  0  0  0  0  0  0  0  0  0  0  0
  -25.6283  -30.7380  -16.2716 C   0  0  0  0  0  0  0  0  0  0  0  0
  -24.4725  -29.7480  -16.2123 C   0  0  0  0  0  0  0  0  0  0  0  0
  -26.0276  -31.0389  -18.6890 C   0  0  0  0  0  0  0  0  0  0  0  0
  -25.0660  -32.0087  -18.8978 C   0  0  0  0  0  0  0  0  0  0  0  0
  -24.9502  -32.3784  -20.5673 S   0  0  0  0  0  0  0  0  0  0  0  0
  -26.1334  -31.1906  -20.8802 C   0  0  0  0  0  0  0  0  0  0  0  0
  -26.6386  -30.5796  -19.8351 N   0  0  0  0  0  0  0  0  0  0  0  0
  1  2  1  0
  2  3  1  0
  3  4  1  0
  4  5  1  0
  3  6  1  0
  6  7  2  0
  7  8  1  0
  8  9  1  0
  9 10  2  0
 10  6  1  0
M  END
>  <fragmenstein_mode>  (133) 
expansion

>  <name>  (133) 
BPAMHFKPRFMLFL-UHFFFAOYSA-N

>  <fragmenstein_runtime>  (133) 
1.67408

>  <HIPPO Compound ID>  (133) 
30888

>  <SLURM_JOB_NAME>  (133) 
BulkDock.place:Flavi_NS5_RdRp:RdRp_knitwork_green_site_rna_tunnel_impure_split4000_batch001

>  <ref_mols>  (133) 
d0472b,z0521a

>  <Multi-SuCOS>  (133) 
0.633052

>  <tags>  (133) 
['Fragmenstein placed', 'RdRp_knitwork_green_site_rna_tunnel_impure_fragalysis.sdf Pose OK']

>  <scratch_subdir>  (133) 
/opt/xchem-fragalysis-2/maxwin/BulkDock/SCRATCH/220452/C30888-P141

>  <energy_score>  (133) 
-88.121923

>  <fragmenstein_error>  (133) 
None

>  <csv_name>  (133) 
RdRp_knitwork_green_site_rna_tunnel_impure_split4000_batch001.csv

>  <merge_set>  (133) 
RdRp_knitwork_green_site_rna_tunnel_impure_fragalysis.sdf

>  <original ID>  (133) 
BPAMHFKPRFMLFL-UHFFFAOYSA-N

>  <HIPPO Pose ID>  (133) 
178983

>  <fragmenstein_outcome>  (133) 
acceptable

>  <exports>  (133) 
['/opt/xchem-fragalysis-2/maxwin/BulkDock/OUTPUTS/RdRp_knitwork_green_site_rna_tunnel_impure_split4000_batch001_220452.sdf', '/opt/xchem-fragalysis-2/maxwin/BulkDock/OUTPUTS/RdRp_knitwork_green_site_rna_tunnel_impure_fragalysis.sdf']

>  <SLURM_JOB_ID>  (133) 
220452

>  <distance_score>  (133) 
0.840701

>  <original SMILES>  (133) 
CCN(CC)c1cscn1

>  <alias>  (133) 
None

>  <ref_pdb>  (133) 
z0521a

>  <inchikey>  (133) 
BPAMHFKPRFMLFL-UHFFFAOYSA-N

$$$$
QSIVCLPERYDFLE-UHFFFAOYSA-N
     RDKit          3D

 19 21  0  0  0  0  0  0  0  0999 V2000
  -28.8657  -28.3266  -20.8531 O   0  0  0  0  0  0  0  0  0  0  0  0
  -28.2216  -29.2324  -20.3518 C   0  0  0  0  0  0  0  0  0  0  0  0
  -28.0567  -30.4365  -20.9588 O   0  0  0  0  0  0  0  0  0  0  0  0
  -26.8531  -31.2006  -20.7459 C   0  0  0  0  0  0  0  0  0  0  0  0
  -26.0025  -31.1327  -22.0032 C   0  0  0  0  0  0  0  0  0  0  0  0
  -25.7212  -29.7801  -22.4228 N   0  0  0  0  0  0  0  0  0  0  0  0
  -25.9675  -29.2516  -23.6447 C   0  0  0  0  0  0  0  0  0  0  0  0
  -25.4752  -28.0359  -23.7046 N   0  0  0  0  0  0  0  0  0  0  0  0
  -25.0215  -27.8266  -22.4358 C   0  0  0  0  0  0  0  0  0  0  0  0
  -25.1279  -28.8755  -21.6165 N   0  0  0  0  0  0  0  0  0  0  0  0
  -27.6092  -29.0717  -19.0306 C   0  0  0  0  0  0  0  0  0  0  0  0
  -26.5619  -28.1647  -18.8501 C   0  0  0  0  0  0  0  0  0  0  0  0
  -25.8898  -28.1139  -17.6252 C   0  0  0  0  0  0  0  0  0  0  0  0
  -26.2699  -28.9426  -16.5658 C   0  0  0  0  0  0  0  0  0  0  0  0
  -27.3842  -29.7477  -16.7350 C   0  0  0  0  0  0  0  0  0  0  0  0
  -28.0595  -29.8146  -17.9536 C   0  0  0  0  0  0  0  0  0  0  0  0
  -29.1090  -30.7672  -17.9410 N   0  0  0  0  0  0  0  0  0  0  0  0
  -29.3820  -30.9238  -16.5054 C   0  0  0  0  0  0  0  0  0  0  0  0
  -28.0658  -30.6440  -15.7560 C   0  0  0  0  0  0  0  0  0  0  0  0
  1  2  2  0
  2  3  1  0
  3  4  1  0
  4  5  1  0
  5  6  1  0
  6  7  1  0
  7  8  2  0
  8  9  1  0
  9 10  2  0
  2 11  1  0
 11 12  2  0
 12 13  1  0
 13 14  2  0
 14 15  1  0
 15 16  2  0
 16 17  1  0
 17 18  1  0
 18 19  1  0
 10  6  1  0
 16 11  1  0
 19 15  1  0
M  END
>  <fragmenstein_mode>  (134) 
expansion

>  <name>  (134) 
QSIVCLPERYDFLE-UHFFFAOYSA-N

>  <fragmenstein_runtime>  (134) 
2.505699

>  <HIPPO Compound ID>  (134) 
50103

>  <SLURM_JOB_NAME>  (134) 
BulkDock.place:Flavi_NS5_RdRp:RdRp_knitwork_green_site_rna_tunnel_impure_split4000_batch013

>  <ref_mols>  (134) 
z0165a,z0628a

>  <Multi-SuCOS>  (134) 
0.497019

>  <tags>  (134) 
['Fragmenstein placed', 'RdRp_knitwork_green_site_rna_tunnel_impure_fragalysis.sdf Pose OK']

>  <scratch_subdir>  (134) 
/opt/xchem-fragalysis-2/maxwin/BulkDock/SCRATCH/220464/C50103-P150

>  <energy_score>  (134) 
-17.744583

>  <fragmenstein_error>  (134) 
None

>  <csv_name>  (134) 
RdRp_knitwork_green_site_rna_tunnel_impure_split4000_batch013.csv

>  <merge_set>  (134) 
RdRp_knitwork_green_site_rna_tunnel_impure_fragalysis.sdf

>  <original ID>  (134) 
QSIVCLPERYDFLE-UHFFFAOYSA-N

>  <HIPPO Pose ID>  (134) 
179031

>  <fragmenstein_outcome>  (134) 
acceptable

>  <exports>  (134) 
['/opt/xchem-fragalysis-2/maxwin/BulkDock/OUTPUTS/RdRp_knitwork_green_site_rna_tunnel_impure_split4000_batch013_220464.sdf', '/opt/xchem-fragalysis-2/maxwin/BulkDock/OUTPUTS/RdRp_knitwork_green_site_rna_tunnel_impure_fragalysis.sdf']

>  <SLURM_JOB_ID>  (134) 
220464

>  <distance_score>  (134) 
0.966459

>  <original SMILES>  (134) 
O=C(OCCn1cncn1)c1cccc2c1NCC2

>  <alias>  (134) 
None

>  <ref_pdb>  (134) 
z0628a

>  <inchikey>  (134) 
QSIVCLPERYDFLE-UHFFFAOYSA-N

$$$$
COOGNGYQDXFQQF-ZCFIWIBFSA-N
     RDKit          3D

 10 10  0  0  0  0  0  0  0  0999 V2000
  -29.3647  -30.2465  -16.7815 C   0  0  0  0  0  0  0  0  0  0  0  0
  -27.9512  -29.9882  -17.2740 C   0  0  0  0  0  0  0  0  0  0  0  0
  -27.0163  -30.7683  -16.4757 N   0  0  0  0  0  0  0  0  0  0  0  0
  -25.6044  -30.7416  -16.8996 C   0  0  2  0  0  0  0  0  0  0  0  0
  -24.9581  -29.3888  -16.6258 C   0  0  0  0  0  0  0  0  0  0  0  0
  -25.3674  -31.1994  -18.3295 C   0  0  0  0  0  0  0  0  0  0  0  0
  -25.9372  -30.7000  -19.4135 N   0  0  0  0  0  0  0  0  0  0  0  0
  -25.5944  -31.4516  -20.5168 C   0  0  0  0  0  0  0  0  0  0  0  0
  -24.7204  -32.4845  -20.2770 C   0  0  0  0  0  0  0  0  0  0  0  0
  -24.2511  -32.4736  -18.6314 S   0  0  0  0  0  0  0  0  0  0  0  0
  1  2  1  0
  2  3  1  0
  3  4  1  0
  4  5  1  6
  4  6  1  0
  6  7  2  0
  7  8  1  0
  8  9  2  0
  9 10  1  0
 10  6  1  0
M  END
>  <fragmenstein_mode>  (135) 
expansion

>  <name>  (135) 
COOGNGYQDXFQQF-ZCFIWIBFSA-N

>  <fragmenstein_runtime>  (135) 
2.19496

>  <HIPPO Compound ID>  (135) 
38045

>  <SLURM_JOB_NAME>  (135) 
BulkDock.place:Flavi_NS5_RdRp:RdRp_knitwork_green_site_rna_tunnel_impure_split4000_batch001

>  <ref_mols>  (135) 
d0472b,z0521a

>  <Multi-SuCOS>  (135) 
0.493018

>  <tags>  (135) 
['Fragmenstein placed', 'RdRp_knitwork_green_site_rna_tunnel_impure_fragalysis.sdf Pose OK']

>  <scratch_subdir>  (135) 
/opt/xchem-fragalysis-2/maxwin/BulkDock/SCRATCH/220452/C38045-P141

>  <energy_score>  (135) 
-56.015834

>  <fragmenstein_error>  (135) 
None

>  <csv_name>  (135) 
RdRp_knitwork_green_site_rna_tunnel_impure_split4000_batch001.csv

>  <merge_set>  (135) 
RdRp_knitwork_green_site_rna_tunnel_impure_fragalysis.sdf

>  <original ID>  (135) 
COOGNGYQDXFQQF-ZCFIWIBFSA-N

>  <HIPPO Pose ID>  (135) 
179033

>  <fragmenstein_outcome>  (135) 
acceptable

>  <exports>  (135) 
['/opt/xchem-fragalysis-2/maxwin/BulkDock/OUTPUTS/RdRp_knitwork_green_site_rna_tunnel_impure_split4000_batch001_220452.sdf', '/opt/xchem-fragalysis-2/maxwin/BulkDock/OUTPUTS/RdRp_knitwork_green_site_rna_tunnel_impure_fragalysis.sdf']

>  <SLURM_JOB_ID>  (135) 
220452

>  <distance_score>  (135) 
0.931243

>  <original SMILES>  (135) 
CCN[C@H](C)c1nccs1

>  <alias>  (135) 
None

>  <ref_pdb>  (135) 
z0521a

>  <inchikey>  (135) 
COOGNGYQDXFQQF-ZCFIWIBFSA-N

$$$$
FLAYKWGMMVFRIA-UHFFFAOYSA-N
     RDKit          3D

 18 20  0  0  0  0  0  0  0  0999 V2000
  -31.0402  -33.7774  -12.4959 C   0  0  0  0  0  0  0  0  0  0  0  0
  -31.1576  -34.0414  -13.8573 C   0  0  0  0  0  0  0  0  0  0  0  0
  -30.0775  -33.7988  -14.7081 C   0  0  0  0  0  0  0  0  0  0  0  0
  -28.8797  -33.2602  -14.2191 C   0  0  0  0  0  0  0  0  0  0  0  0
  -27.8289  -33.0024  -15.1097 N   0  0  0  0  0  0  0  0  0  0  0  0
  -27.0565  -31.7590  -14.9299 C   0  0  0  0  0  0  0  0  0  0  0  0
  -27.9012  -30.4839  -15.0695 C   0  0  0  0  0  0  0  0  0  0  0  0
  -28.3743  -30.3100  -16.4749 C   0  0  0  0  0  0  0  0  0  0  0  0
  -27.5866  -29.9946  -17.4844 N   0  0  0  0  0  0  0  0  0  0  0  0
  -28.3086  -30.0206  -18.6480 C   0  0  0  0  0  0  0  0  0  0  0  0
  -29.6406  -30.3444  -18.5122 C   0  0  0  0  0  0  0  0  0  0  0  0
  -30.0265  -30.5769  -16.8757 S   0  0  0  0  0  0  0  0  0  0  0  0
  -30.6215  -30.4423  -19.6242 C   0  0  0  0  0  0  0  0  0  0  0  0
  -29.9095  -30.3153  -20.9774 C   0  0  0  0  0  0  0  0  0  0  0  0
  -28.7275  -29.3399  -20.9876 C   0  0  0  0  0  0  0  0  0  0  0  0
  -27.6672  -29.7347  -19.9568 C   0  0  0  0  0  0  0  0  0  0  0  0
  -28.7636  -33.0568  -12.8398 C   0  0  0  0  0  0  0  0  0  0  0  0
  -29.8400  -33.2961  -11.9837 C   0  0  0  0  0  0  0  0  0  0  0  0
  1  2  2  0
  2  3  1  0
  3  4  2  0
  4  5  1  0
  5  6  1  0
  6  7  1  0
  7  8  1  0
  8  9  2  0
  9 10  1  0
 10 11  2  0
 11 12  1  0
 11 13  1  0
 13 14  1  0
 14 15  1  0
 15 16  1  0
  4 17  1  0
 17 18  2  0
 18  1  1  0
 12  8  1  0
 16 10  1  0
M  END
>  <fragmenstein_mode>  (136) 
expansion

>  <name>  (136) 
FLAYKWGMMVFRIA-UHFFFAOYSA-N

>  <fragmenstein_runtime>  (136) 
5.893648

>  <HIPPO Compound ID>  (136) 
33787

>  <SLURM_JOB_NAME>  (136) 
BulkDock.place:Flavi_NS5_RdRp:RdRp_knitwork_green_site_rna_tunnel_impure_split4000_batch008

>  <ref_mols>  (136) 
d0472b,z0200a

>  <Multi-SuCOS>  (136) 
0.496283

>  <tags>  (136) 
['Fragmenstein placed', 'RdRp_knitwork_green_site_rna_tunnel_impure_fragalysis.sdf Pose OK']

>  <scratch_subdir>  (136) 
/opt/xchem-fragalysis-2/maxwin/BulkDock/SCRATCH/220459/C33787-P100

>  <energy_score>  (136) 
-53.06747

>  <fragmenstein_error>  (136) 
None

>  <csv_name>  (136) 
RdRp_knitwork_green_site_rna_tunnel_impure_split4000_batch008.csv

>  <merge_set>  (136) 
RdRp_knitwork_green_site_rna_tunnel_impure_fragalysis.sdf

>  <original ID>  (136) 
FLAYKWGMMVFRIA-UHFFFAOYSA-N

>  <HIPPO Pose ID>  (136) 
179057

>  <fragmenstein_outcome>  (136) 
acceptable

>  <exports>  (136) 
['/opt/xchem-fragalysis-2/maxwin/BulkDock/OUTPUTS/RdRp_knitwork_green_site_rna_tunnel_impure_split4000_batch008_220459.sdf', '/opt/xchem-fragalysis-2/maxwin/BulkDock/OUTPUTS/RdRp_knitwork_green_site_rna_tunnel_impure_fragalysis.sdf']

>  <SLURM_JOB_ID>  (136) 
220459

>  <distance_score>  (136) 
0.670044

>  <original SMILES>  (136) 
c1ccc(NCCc2nc3c(s2)CCCC3)cc1

>  <alias>  (136) 
None

>  <ref_pdb>  (136) 
z0200a

>  <inchikey>  (136) 
FLAYKWGMMVFRIA-UHFFFAOYSA-N

$$$$
WRPVUBWGAIPFSE-UHFFFAOYSA-N
     RDKit          3D

 14 16  0  0  0  0  0  0  0  0999 V2000
  -25.5740  -28.3531  -23.3117 C   0  0  0  0  0  0  0  0  0  0  0  0
  -26.4869  -29.4010  -23.5146 C   0  0  0  0  0  0  0  0  0  0  0  0
  -27.0897  -29.7909  -22.3854 N   0  0  0  0  0  0  0  0  0  0  0  0
  -26.5008  -29.0417  -21.4055 N   0  0  0  0  0  0  0  0  0  0  0  0
  -26.7767  -29.3088  -20.0483 C   0  0  0  0  0  0  0  0  0  0  0  0
  -27.8742  -29.8584  -19.5522 N   0  0  0  0  0  0  0  0  0  0  0  0
  -27.7593  -29.9215  -18.1671 C   0  0  0  0  0  0  0  0  0  0  0  0
  -26.5238  -29.5663  -17.6664 C   0  0  0  0  0  0  0  0  0  0  0  0
  -25.5544  -28.9211  -18.9036 S   0  0  0  0  0  0  0  0  0  0  0  0
  -26.0998  -29.6397  -16.2415 C   0  0  0  0  0  0  0  0  0  0  0  0
  -27.1588  -30.3661  -15.3968 C   0  0  0  0  0  0  0  0  0  0  0  0
  -28.5973  -30.0081  -15.8084 C   0  0  0  0  0  0  0  0  0  0  0  0
  -28.8749  -30.3781  -17.2825 C   0  0  0  0  0  0  0  0  0  0  0  0
  -25.6224  -28.1209  -21.9584 C   0  0  0  0  0  0  0  0  0  0  0  0
  1  2  1  0
  2  3  2  0
  3  4  1  0
  4  5  1  0
  5  6  2  0
  6  7  1  0
  7  8  2  0
  8  9  1  0
  8 10  1  0
 10 11  1  0
 11 12  1  0
 12 13  1  0
  4 14  1  0
 14  1  2  0
  9  5  1  0
 13  7  1  0
M  END
>  <fragmenstein_mode>  (137) 
expansion

>  <name>  (137) 
WRPVUBWGAIPFSE-UHFFFAOYSA-N

>  <fragmenstein_runtime>  (137) 
39.746898

>  <HIPPO Compound ID>  (137) 
12047

>  <SLURM_JOB_NAME>  (137) 
BulkDock.place:Flavi_NS5_RdRp:RdRp_knitwork_green_site_rna_tunnel_impure_split4000_batch018

>  <ref_mols>  (137) 
z0221a,z0936a

>  <Multi-SuCOS>  (137) 
0.655067

>  <tags>  (137) 
['Fragmenstein placed', 'RdRp_knitwork_green_site_rna_tunnel_impure_fragalysis.sdf Pose OK']

>  <scratch_subdir>  (137) 
/opt/xchem-fragalysis-2/maxwin/BulkDock/SCRATCH/220469/C12047-P105

>  <energy_score>  (137) 
-91.870248

>  <fragmenstein_error>  (137) 
None

>  <csv_name>  (137) 
RdRp_knitwork_green_site_rna_tunnel_impure_split4000_batch018.csv

>  <merge_set>  (137) 
RdRp_knitwork_green_site_rna_tunnel_impure_fragalysis.sdf

>  <original ID>  (137) 
WRPVUBWGAIPFSE-UHFFFAOYSA-N

>  <HIPPO Pose ID>  (137) 
179236

>  <fragmenstein_outcome>  (137) 
acceptable

>  <exports>  (137) 
['/opt/xchem-fragalysis-2/maxwin/BulkDock/OUTPUTS/RdRp_knitwork_green_site_rna_tunnel_impure_split4000_batch018_220469.sdf', '/opt/xchem-fragalysis-2/maxwin/BulkDock/OUTPUTS/RdRp_knitwork_green_site_rna_tunnel_impure_fragalysis.sdf']

>  <SLURM_JOB_ID>  (137) 
220469

>  <distance_score>  (137) 
0.975564

>  <original SMILES>  (137) 
c1cnn(-c2nc3c(s2)CCCC3)c1

>  <alias>  (137) 
None

>  <ref_pdb>  (137) 
z0221a

>  <inchikey>  (137) 
WRPVUBWGAIPFSE-UHFFFAOYSA-N

$$$$
DHWVGHDFEAOZAX-UHFFFAOYSA-N
     RDKit          3D

 24 27  0  0  0  0  0  0  0  0999 V2000
  -25.0033  -33.2049  -23.8733 O   0  0  0  0  0  0  0  0  0  0  0  0
  -24.5264  -32.9427  -22.8432 C   0  0  0  0  0  0  0  0  0  0  0  0
  -24.7590  -31.7383  -21.9141 N   0  0  0  0  0  0  0  0  0  0  0  0
  -25.7044  -30.6408  -22.0114 C   0  0  0  0  0  0  0  0  0  0  0  0
  -27.1241  -31.0229  -21.5654 C   0  0  0  0  0  0  0  0  0  0  0  0
  -27.6239  -30.5233  -20.2897 N   0  0  0  0  0  0  0  0  0  0  0  0
  -28.9441  -30.1643  -20.1069 C   0  0  0  0  0  0  0  0  0  0  0  0
  -29.1233  -29.8294  -18.7869 C   0  0  0  0  0  0  0  0  0  0  0  0
  -27.8700  -29.9606  -18.1385 C   0  0  0  0  0  0  0  0  0  0  0  0
  -27.4403  -29.7396  -16.8148 C   0  0  0  0  0  0  0  0  0  0  0  0
  -26.1038  -29.9620  -16.4746 C   0  0  0  0  0  0  0  0  0  0  0  0
  -25.2052  -30.4274  -17.4231 C   0  0  0  0  0  0  0  0  0  0  0  0
  -25.6182  -30.6793  -18.7316 C   0  0  0  0  0  0  0  0  0  0  0  0
  -26.9496  -30.4198  -19.0898 C   0  0  0  0  0  0  0  0  0  0  0  0
  -23.5917  -33.9290  -22.2047 C   0  0  0  0  0  0  0  0  0  0  0  0
  -24.1149  -35.2253  -22.0649 C   0  0  0  0  0  0  0  0  0  0  0  0
  -23.4058  -36.2032  -21.3837 C   0  0  0  0  0  0  0  0  0  0  0  0
  -22.1662  -35.8867  -20.8328 C   0  0  0  0  0  0  0  0  0  0  0  0
  -21.5902  -34.6148  -21.0007 C   0  0  0  0  0  0  0  0  0  0  0  0
  -20.3199  -34.3411  -20.4606 C   0  0  0  0  0  0  0  0  0  0  0  0
  -19.7242  -33.0911  -20.6181 C   0  0  0  0  0  0  0  0  0  0  0  0
  -20.3879  -32.1026  -21.3322 C   0  0  0  0  0  0  0  0  0  0  0  0
  -21.6475  -32.3615  -21.8826 C   0  0  0  0  0  0  0  0  0  0  0  0
  -22.2944  -33.6091  -21.7122 C   0  0  0  0  0  0  0  0  0  0  0  0
  1  2  2  0
  2  3  1  0
  3  4  1  0
  4  5  1  0
  5  6  1  0
  6  7  1  0
  7  8  2  0
  8  9  1  0
  9 10  2  0
 10 11  1  0
 11 12  2  0
 12 13  1  0
 13 14  2  0
  2 15  1  0
 15 16  2  0
 16 17  1  0
 17 18  2  0
 18 19  1  0
 19 20  2  0
 20 21  1  0
 21 22  2  0
 22 23  1  0
 23 24  2  0
 14  6  1  0
 24 15  1  0
 14  9  1  0
 24 19  1  0
M  END
>  <fragmenstein_mode>  (138) 
expansion

>  <name>  (138) 
DHWVGHDFEAOZAX-UHFFFAOYSA-N

>  <fragmenstein_runtime>  (138) 
3.025118

>  <HIPPO Compound ID>  (138) 
28238

>  <SLURM_JOB_NAME>  (138) 
BulkDock.place:Flavi_NS5_RdRp:RdRp_knitwork_green_site_rna_tunnel_impure_split4000_batch010

>  <ref_mols>  (138) 
z0107a,3vws-b

>  <Multi-SuCOS>  (138) 
0.687743

>  <tags>  (138) 
['Fragmenstein placed', 'RdRp_knitwork_green_site_rna_tunnel_impure_fragalysis.sdf Pose OK']

>  <scratch_subdir>  (138) 
/opt/xchem-fragalysis-2/maxwin/BulkDock/SCRATCH/220461/C28238-P86

>  <energy_score>  (138) 
-11.001003

>  <fragmenstein_error>  (138) 
None

>  <csv_name>  (138) 
RdRp_knitwork_green_site_rna_tunnel_impure_split4000_batch010.csv

>  <merge_set>  (138) 
RdRp_knitwork_green_site_rna_tunnel_impure_fragalysis.sdf

>  <original ID>  (138) 
DHWVGHDFEAOZAX-UHFFFAOYSA-N

>  <HIPPO Pose ID>  (138) 
179272

>  <fragmenstein_outcome>  (138) 
acceptable

>  <exports>  (138) 
['/opt/xchem-fragalysis-2/maxwin/BulkDock/OUTPUTS/RdRp_knitwork_green_site_rna_tunnel_impure_split4000_batch010_220461.sdf', '/opt/xchem-fragalysis-2/maxwin/BulkDock/OUTPUTS/RdRp_knitwork_green_site_rna_tunnel_impure_fragalysis.sdf']

>  <SLURM_JOB_ID>  (138) 
220461

>  <distance_score>  (138) 
0.873389

>  <original SMILES>  (138) 
O=C(NCCn1ccc2ccccc21)c1cccc2ccccc12

>  <alias>  (138) 
None

>  <ref_pdb>  (138) 
z0107a

>  <inchikey>  (138) 
DHWVGHDFEAOZAX-UHFFFAOYSA-N

$$$$
BSBMVSTXXPZLGY-NSHDSACASA-N
     RDKit          3D

 19 21  0  0  0  0  0  0  0  0999 V2000
  -28.4446  -29.4581  -21.5046 O   0  0  0  0  0  0  0  0  0  0  0  0
  -27.4733  -29.7977  -20.8551 C   0  0  0  0  0  0  0  0  0  0  0  0
  -26.4700  -30.5862  -21.3152 O   0  0  0  0  0  0  0  0  0  0  0  0
  -26.5278  -31.9251  -20.7952 C   0  0  0  0  0  0  0  0  0  0  0  0
  -25.8142  -32.8329  -21.7942 C   0  0  0  0  0  0  0  0  0  0  0  0
  -26.1210  -34.3233  -21.5531 C   0  0  2  0  0  0  0  0  0  0  0  0
  -25.4094  -34.9002  -20.3445 C   0  0  0  0  0  0  0  0  0  0  0  0
  -24.0711  -35.3493  -20.8968 C   0  0  0  0  0  0  0  0  0  0  0  0
  -24.2336  -35.5541  -22.3032 O   0  0  0  0  0  0  0  0  0  0  0  0
  -25.5704  -35.1994  -22.6692 C   0  0  0  0  0  0  0  0  0  0  0  0
  -27.1568  -29.3366  -19.4986 C   0  0  0  0  0  0  0  0  0  0  0  0
  -26.1068  -28.4313  -19.3128 C   0  0  0  0  0  0  0  0  0  0  0  0
  -25.6970  -28.1053  -18.0180 C   0  0  0  0  0  0  0  0  0  0  0  0
  -26.2808  -28.7239  -16.9092 C   0  0  0  0  0  0  0  0  0  0  0  0
  -27.3783  -29.5429  -17.1143 C   0  0  0  0  0  0  0  0  0  0  0  0
  -27.8385  -29.8332  -18.3988 C   0  0  0  0  0  0  0  0  0  0  0  0
  -28.9160  -30.7548  -18.3907 N   0  0  0  0  0  0  0  0  0  0  0  0
  -29.4191  -30.6584  -17.0089 C   0  0  0  0  0  0  0  0  0  0  0  0
  -28.2338  -30.2488  -16.1147 C   0  0  0  0  0  0  0  0  0  0  0  0
  1  2  2  0
  2  3  1  0
  3  4  1  0
  4  5  1  0
  6  5  1  6
  6  7  1  0
  7  8  1  0
  8  9  1  0
  9 10  1  0
  2 11  1  0
 11 12  2  0
 12 13  1  0
 13 14  2  0
 14 15  1  0
 15 16  2  0
 16 17  1  0
 17 18  1  0
 18 19  1  0
 10  6  1  0
 16 11  1  0
 19 15  1  0
M  END
>  <fragmenstein_mode>  (139) 
expansion

>  <name>  (139) 
BSBMVSTXXPZLGY-NSHDSACASA-N

>  <fragmenstein_runtime>  (139) 
3.032844

>  <HIPPO Compound ID>  (139) 
50735

>  <SLURM_JOB_NAME>  (139) 
BulkDock.place:Flavi_NS5_RdRp:RdRp_knitwork_green_site_rna_tunnel_impure_split4000_batch013

>  <ref_mols>  (139) 
z0165a,z0628a

>  <Multi-SuCOS>  (139) 
0.433589

>  <tags>  (139) 
['Fragmenstein placed', 'RdRp_knitwork_green_site_rna_tunnel_impure_fragalysis.sdf Pose OK']

>  <scratch_subdir>  (139) 
/opt/xchem-fragalysis-2/maxwin/BulkDock/SCRATCH/220464/C50735-P150

>  <energy_score>  (139) 
-23.625632

>  <fragmenstein_error>  (139) 
None

>  <csv_name>  (139) 
RdRp_knitwork_green_site_rna_tunnel_impure_split4000_batch013.csv

>  <merge_set>  (139) 
RdRp_knitwork_green_site_rna_tunnel_impure_fragalysis.sdf

>  <original ID>  (139) 
BSBMVSTXXPZLGY-NSHDSACASA-N

>  <HIPPO Pose ID>  (139) 
179282

>  <fragmenstein_outcome>  (139) 
acceptable

>  <exports>  (139) 
['/opt/xchem-fragalysis-2/maxwin/BulkDock/OUTPUTS/RdRp_knitwork_green_site_rna_tunnel_impure_split4000_batch013_220464.sdf', '/opt/xchem-fragalysis-2/maxwin/BulkDock/OUTPUTS/RdRp_knitwork_green_site_rna_tunnel_impure_fragalysis.sdf']

>  <SLURM_JOB_ID>  (139) 
220464

>  <distance_score>  (139) 
0.956089

>  <original SMILES>  (139) 
O=C(OCC[C@@H]1CCOC1)c1cccc2c1NCC2

>  <alias>  (139) 
None

>  <ref_pdb>  (139) 
z0628a

>  <inchikey>  (139) 
BSBMVSTXXPZLGY-NSHDSACASA-N

$$$$
JYTCQIKLOUNPIM-UHFFFAOYSA-N
     RDKit          3D

 25 28  0  0  0  0  0  0  0  0999 V2000
  -30.1944  -30.3527  -20.8085 C   0  0  0  0  0  0  0  0  0  0  0  0
  -29.0623  -30.2464  -19.8472 C   0  0  0  0  0  0  0  0  0  0  0  0
  -29.1220  -29.9028  -18.5145 C   0  0  0  0  0  0  0  0  0  0  0  0
  -27.8166  -29.9777  -17.9811 C   0  0  0  0  0  0  0  0  0  0  0  0
  -27.2962  -29.7503  -16.6912 C   0  0  0  0  0  0  0  0  0  0  0  0
  -25.9282  -29.8954  -16.4592 C   0  0  0  0  0  0  0  0  0  0  0  0
  -25.0817  -30.2723  -17.4885 C   0  0  0  0  0  0  0  0  0  0  0  0
  -25.5823  -30.5183  -18.7681 C   0  0  0  0  0  0  0  0  0  0  0  0
  -26.9576  -30.3676  -19.0170 C   0  0  0  0  0  0  0  0  0  0  0  0
  -27.7332  -30.5289  -20.1553 N   0  0  0  0  0  0  0  0  0  0  0  0
  -27.3125  -31.0342  -21.4609 C   0  0  0  0  0  0  0  0  0  0  0  0
  -25.8814  -30.7925  -21.9675 C   0  0  0  0  0  0  0  0  0  0  0  0
  -25.0083  -31.9454  -21.8207 N   0  0  0  0  0  0  0  0  0  0  0  0
  -24.5567  -32.9943  -22.8511 C   0  0  0  0  0  0  0  0  0  0  0  0
  -24.8723  -33.1462  -23.9615 O   0  0  0  0  0  0  0  0  0  0  0  0
  -23.6415  -33.9857  -22.2058 C   0  0  0  0  0  0  0  0  0  0  0  0
  -24.1406  -35.2935  -22.1191 C   0  0  0  0  0  0  0  0  0  0  0  0
  -23.4234  -36.2724  -21.4478 C   0  0  0  0  0  0  0  0  0  0  0  0
  -22.2001  -35.9450  -20.8642 C   0  0  0  0  0  0  0  0  0  0  0  0
  -21.6495  -34.6557  -20.9818 C   0  0  0  0  0  0  0  0  0  0  0  0
  -20.3921  -34.3674  -20.4184 C   0  0  0  0  0  0  0  0  0  0  0  0
  -19.8299  -33.0960  -20.5243 C   0  0  0  0  0  0  0  0  0  0  0  0
  -20.5185  -32.0973  -21.2006 C   0  0  0  0  0  0  0  0  0  0  0  0
  -21.7668  -32.3692  -21.7711 C   0  0  0  0  0  0  0  0  0  0  0  0
  -22.3692  -33.6450  -21.6679 C   0  0  0  0  0  0  0  0  0  0  0  0
  1  2  1  0
  2  3  2  0
  3  4  1  0
  4  5  2  0
  5  6  1  0
  6  7  2  0
  7  8  1  0
  8  9  2  0
  9 10  1  0
 10 11  1  0
 11 12  1  0
 12 13  1  0
 13 14  1  0
 14 15  2  0
 14 16  1  0
 16 17  2  0
 17 18  1  0
 18 19  2  0
 19 20  1  0
 20 21  2  0
 21 22  1  0
 22 23  2  0
 23 24  1  0
 24 25  2  0
 10  2  1  0
 25 16  1  0
  9  4  1  0
 25 20  1  0
M  END
>  <fragmenstein_mode>  (140) 
expansion

>  <name>  (140) 
JYTCQIKLOUNPIM-UHFFFAOYSA-N

>  <fragmenstein_runtime>  (140) 
3.607255

>  <HIPPO Compound ID>  (140) 
28296

>  <SLURM_JOB_NAME>  (140) 
BulkDock.place:Flavi_NS5_RdRp:RdRp_knitwork_green_site_rna_tunnel_impure_split4000_batch010

>  <ref_mols>  (140) 
z0107a,3vws-b

>  <Multi-SuCOS>  (140) 
0.65635

>  <tags>  (140) 
['Fragmenstein placed', 'RdRp_knitwork_green_site_rna_tunnel_impure_fragalysis.sdf Pose OK']

>  <scratch_subdir>  (140) 
/opt/xchem-fragalysis-2/maxwin/BulkDock/SCRATCH/220461/C28296-P86

>  <energy_score>  (140) 
-9.179161

>  <fragmenstein_error>  (140) 
None

>  <csv_name>  (140) 
RdRp_knitwork_green_site_rna_tunnel_impure_split4000_batch010.csv

>  <merge_set>  (140) 
RdRp_knitwork_green_site_rna_tunnel_impure_fragalysis.sdf

>  <original ID>  (140) 
JYTCQIKLOUNPIM-UHFFFAOYSA-N

>  <HIPPO Pose ID>  (140) 
179320

>  <fragmenstein_outcome>  (140) 
acceptable

>  <exports>  (140) 
['/opt/xchem-fragalysis-2/maxwin/BulkDock/OUTPUTS/RdRp_knitwork_green_site_rna_tunnel_impure_split4000_batch010_220461.sdf', '/opt/xchem-fragalysis-2/maxwin/BulkDock/OUTPUTS/RdRp_knitwork_green_site_rna_tunnel_impure_fragalysis.sdf']

>  <SLURM_JOB_ID>  (140) 
220461

>  <distance_score>  (140) 
0.86335

>  <original SMILES>  (140) 
Cc1cc2ccccc2n1CCNC(=O)c1cccc2ccccc12

>  <alias>  (140) 
None

>  <ref_pdb>  (140) 
z0107a

>  <inchikey>  (140) 
JYTCQIKLOUNPIM-UHFFFAOYSA-N

$$$$
VWCRUZVKTNJOAL-UHFFFAOYSA-N
     RDKit          3D

 14 15  0  0  0  0  0  0  0  0999 V2000
  -27.3350  -29.7113  -16.3732 N   0  0  0  0  0  0  0  0  0  0  0  0
  -27.5570  -29.7149  -17.7670 C   0  0  0  0  0  0  0  0  0  0  0  0
  -28.8372  -29.5788  -18.2928 C   0  0  0  0  0  0  0  0  0  0  0  0
  -29.1297  -29.6413  -19.6081 N   0  0  0  0  0  0  0  0  0  0  0  0
  -28.0890  -29.8479  -20.4376 C   0  0  0  0  0  0  0  0  0  0  0  0
  -26.7923  -30.0829  -20.0174 C   0  0  0  0  0  0  0  0  0  0  0  0
  -26.5312  -30.1142  -18.6500 C   0  0  0  0  0  0  0  0  0  0  0  0
  -25.2562  -30.4265  -18.1236 N   0  0  0  0  0  0  0  0  0  0  0  0
  -24.4038  -31.3195  -18.9341 C   0  0  0  0  0  0  0  0  0  0  0  0
  -23.3130  -32.0518  -18.2139 C   0  0  0  0  0  0  0  0  0  0  0  0
  -22.9585  -32.0177  -16.8800 C   0  0  0  0  0  0  0  0  0  0  0  0
  -21.9611  -32.9414  -16.7506 N   0  0  0  0  0  0  0  0  0  0  0  0
  -21.7374  -33.4869  -17.9803 C   0  0  0  0  0  0  0  0  0  0  0  0
  -22.5209  -32.9588  -18.8894 N   0  0  0  0  0  0  0  0  0  0  0  0
  1  2  1  0
  2  3  2  0
  3  4  1  0
  4  5  2  0
  5  6  1  0
  6  7  2  0
  7  8  1  0
  8  9  1  0
  9 10  1  0
 10 11  2  0
 11 12  1  0
 12 13  1  0
 13 14  2  0
  7  2  1  0
 14 10  1  0
M  END
>  <fragmenstein_mode>  (141) 
expansion

>  <name>  (141) 
VWCRUZVKTNJOAL-UHFFFAOYSA-N

>  <fragmenstein_runtime>  (141) 
7.666184

>  <HIPPO Compound ID>  (141) 
12606

>  <SLURM_JOB_NAME>  (141) 
BulkDock.place:Flavi_NS5_RdRp:RdRp_knitwork_green_site_rna_tunnel_impure_split4000_batch003

>  <ref_mols>  (141) 
d0378a,z0637a

>  <Multi-SuCOS>  (141) 
0.525609

>  <tags>  (141) 
['Fragmenstein placed', 'RdRp_knitwork_green_site_rna_tunnel_impure_fragalysis.sdf Pose OK']

>  <scratch_subdir>  (141) 
/opt/xchem-fragalysis-2/maxwin/BulkDock/SCRATCH/220454/C12606-P151

>  <energy_score>  (141) 
-35.951767

>  <fragmenstein_error>  (141) 
None

>  <csv_name>  (141) 
RdRp_knitwork_green_site_rna_tunnel_impure_split4000_batch003.csv

>  <merge_set>  (141) 
RdRp_knitwork_green_site_rna_tunnel_impure_fragalysis.sdf

>  <original ID>  (141) 
VWCRUZVKTNJOAL-UHFFFAOYSA-N

>  <HIPPO Pose ID>  (141) 
179510

>  <fragmenstein_outcome>  (141) 
acceptable

>  <exports>  (141) 
['/opt/xchem-fragalysis-2/maxwin/BulkDock/OUTPUTS/RdRp_knitwork_green_site_rna_tunnel_impure_split4000_batch003_220454.sdf', '/opt/xchem-fragalysis-2/maxwin/BulkDock/OUTPUTS/RdRp_knitwork_green_site_rna_tunnel_impure_fragalysis.sdf']

>  <SLURM_JOB_ID>  (141) 
220454

>  <distance_score>  (141) 
0.968532

>  <original SMILES>  (141) 
Nc1cnccc1NCc1c[nH]cn1

>  <alias>  (141) 
None

>  <ref_pdb>  (141) 
z0637a

>  <inchikey>  (141) 
VWCRUZVKTNJOAL-UHFFFAOYSA-N

$$$$
PQTXKSNPQJSGBY-UHFFFAOYSA-N
     RDKit          3D

 21 23  0  0  0  0  0  0  0  0999 V2000
  -28.4485  -31.1142  -14.1872 O   0  0  0  0  0  0  0  0  0  0  0  0
  -27.8313  -31.2531  -15.2457 C   0  0  0  0  0  0  0  0  0  0  0  0
  -26.5734  -32.1153  -15.3095 C   0  0  0  0  0  0  0  0  0  0  0  0
  -25.7534  -32.0183  -14.0332 C   0  0  0  0  0  0  0  0  0  0  0  0
  -24.4877  -32.7472  -14.1800 N   0  0  0  0  0  0  0  0  0  0  0  0
  -23.6699  -32.6030  -12.9712 C   0  0  0  0  0  0  0  0  0  0  0  0
  -22.4023  -33.4218  -13.0601 C   0  0  0  0  0  0  0  0  0  0  0  0
  -21.5140  -33.2552  -14.1338 C   0  0  0  0  0  0  0  0  0  0  0  0
  -20.3322  -33.9952  -14.2017 C   0  0  0  0  0  0  0  0  0  0  0  0
  -20.0201  -34.9036  -13.1926 C   0  0  0  0  0  0  0  0  0  0  0  0
  -20.8893  -35.0736  -12.1168 C   0  0  0  0  0  0  0  0  0  0  0  0
  -22.0742  -34.3380  -12.0501 C   0  0  0  0  0  0  0  0  0  0  0  0
  -28.3045  -30.7778  -16.5344 C   0  0  0  0  0  0  0  0  0  0  0  0
  -27.5046  -30.4823  -17.5426 N   0  0  0  0  0  0  0  0  0  0  0  0
  -28.2606  -30.2639  -18.6653 C   0  0  0  0  0  0  0  0  0  0  0  0
  -29.6180  -30.4442  -18.5062 C   0  0  0  0  0  0  0  0  0  0  0  0
  -29.9875  -30.7133  -16.8678 S   0  0  0  0  0  0  0  0  0  0  0  0
  -30.6265  -30.3935  -19.5975 C   0  0  0  0  0  0  0  0  0  0  0  0
  -29.9324  -30.2541  -20.9593 C   0  0  0  0  0  0  0  0  0  0  0  0
  -28.6760  -29.3758  -20.9401 C   0  0  0  0  0  0  0  0  0  0  0  0
  -27.6279  -29.9321  -19.9694 C   0  0  0  0  0  0  0  0  0  0  0  0
  1  2  2  0
  2  3  1  0
  3  4  1  0
  4  5  1  0
  5  6  1  0
  6  7  1  0
  7  8  2  0
  8  9  1  0
  9 10  2  0
 10 11  1  0
 11 12  2  0
  2 13  1  0
 13 14  2  0
 14 15  1  0
 15 16  2  0
 16 17  1  0
 16 18  1  0
 18 19  1  0
 19 20  1  0
 20 21  1  0
 12  7  1  0
 17 13  1  0
 21 15  1  0
M  END
>  <fragmenstein_mode>  (142) 
expansion

>  <name>  (142) 
PQTXKSNPQJSGBY-UHFFFAOYSA-N

>  <fragmenstein_runtime>  (142) 
6.848968

>  <HIPPO Compound ID>  (142) 
34576

>  <SLURM_JOB_NAME>  (142) 
BulkDock.place:Flavi_NS5_RdRp:RdRp_knitwork_green_site_rna_tunnel_impure_split4000_batch008

>  <ref_mols>  (142) 
d0472b,z0200a

>  <Multi-SuCOS>  (142) 
0.389305

>  <tags>  (142) 
['Fragmenstein placed', 'RdRp_knitwork_green_site_rna_tunnel_impure_fragalysis.sdf Pose OK']

>  <scratch_subdir>  (142) 
/opt/xchem-fragalysis-2/maxwin/BulkDock/SCRATCH/220459/C34576-P100

>  <energy_score>  (142) 
-99.51423

>  <fragmenstein_error>  (142) 
None

>  <csv_name>  (142) 
RdRp_knitwork_green_site_rna_tunnel_impure_split4000_batch008.csv

>  <merge_set>  (142) 
RdRp_knitwork_green_site_rna_tunnel_impure_fragalysis.sdf

>  <original ID>  (142) 
PQTXKSNPQJSGBY-UHFFFAOYSA-N

>  <HIPPO Pose ID>  (142) 
179521

>  <fragmenstein_outcome>  (142) 
acceptable

>  <exports>  (142) 
['/opt/xchem-fragalysis-2/maxwin/BulkDock/OUTPUTS/RdRp_knitwork_green_site_rna_tunnel_impure_split4000_batch008_220459.sdf', '/opt/xchem-fragalysis-2/maxwin/BulkDock/OUTPUTS/RdRp_knitwork_green_site_rna_tunnel_impure_fragalysis.sdf']

>  <SLURM_JOB_ID>  (142) 
220459

>  <distance_score>  (142) 
0.668253

>  <original SMILES>  (142) 
O=C(CCNCc1ccccc1)c1nc2c(s1)CCCC2

>  <alias>  (142) 
None

>  <ref_pdb>  (142) 
z0200a

>  <inchikey>  (142) 
PQTXKSNPQJSGBY-UHFFFAOYSA-N

$$$$
TWJPGDRVRGEHLO-UHFFFAOYSA-N
     RDKit          3D

 23 26  0  0  0  0  0  0  0  0999 V2000
  -25.7101  -36.2331  -19.8384 O   0  0  0  0  0  0  0  0  0  0  0  0
  -24.5654  -36.0105  -19.7225 C   0  0  0  0  0  0  0  0  0  0  0  0
  -23.5202  -36.6848  -20.6385 C   0  0  0  0  0  0  0  0  0  0  0  0
  -22.5707  -35.6449  -21.1161 C   0  0  0  0  0  0  0  0  0  0  0  0
  -22.7260  -34.4396  -21.7767 C   0  0  0  0  0  0  0  0  0  0  0  0
  -21.5732  -33.6712  -21.4507 C   0  0  0  0  0  0  0  0  0  0  0  0
  -21.1707  -32.3348  -21.6155 C   0  0  0  0  0  0  0  0  0  0  0  0
  -19.9395  -31.9304  -21.0763 C   0  0  0  0  0  0  0  0  0  0  0  0
  -19.1184  -32.8327  -20.3924 C   0  0  0  0  0  0  0  0  0  0  0  0
  -19.5005  -34.1645  -20.2144 C   0  0  0  0  0  0  0  0  0  0  0  0
  -20.7347  -34.5250  -20.7447 C   0  0  0  0  0  0  0  0  0  0  0  0
  -21.3218  -35.7356  -20.5857 O   0  0  0  0  0  0  0  0  0  0  0  0
  -23.8212  -34.9982  -18.7968 N   0  0  0  0  0  0  0  0  0  0  0  0
  -24.3347  -34.0021  -17.9082 C   0  0  0  0  0  0  0  0  0  0  0  0
  -23.2922  -33.4136  -16.9915 C   0  0  0  0  0  0  0  0  0  0  0  0
  -23.4881  -33.5364  -15.6106 C   0  0  0  0  0  0  0  0  0  0  0  0
  -22.6608  -32.9168  -14.6691 C   0  0  0  0  0  0  0  0  0  0  0  0
  -21.5899  -32.1477  -15.1330 C   0  0  0  0  0  0  0  0  0  0  0  0
  -20.5831  -31.3545  -14.5271 C   0  0  0  0  0  0  0  0  0  0  0  0
  -19.8180  -30.8539  -15.5541 C   0  0  0  0  0  0  0  0  0  0  0  0
  -20.2838  -31.2901  -16.7556 O   0  0  0  0  0  0  0  0  0  0  0  0
  -21.3759  -32.0680  -16.5041 C   0  0  0  0  0  0  0  0  0  0  0  0
  -22.1882  -32.6816  -17.4648 C   0  0  0  0  0  0  0  0  0  0  0  0
  1  2  2  0
  2  3  1  0
  3  4  1  0
  4  5  2  0
  5  6  1  0
  6  7  2  0
  7  8  1  0
  8  9  2  0
  9 10  1  0
 10 11  2  0
 11 12  1  0
  2 13  1  0
 13 14  1  0
 14 15  1  0
 15 16  2  0
 16 17  1  0
 17 18  2  0
 18 19  1  0
 19 20  2  0
 20 21  1  0
 21 22  1  0
 22 23  2  0
 12  4  1  0
 23 15  1  0
 11  6  1  0
 22 18  1  0
M  END
>  <fragmenstein_mode>  (143) 
expansion

>  <name>  (143) 
TWJPGDRVRGEHLO-UHFFFAOYSA-N

>  <fragmenstein_runtime>  (143) 
7.158182

>  <HIPPO Compound ID>  (143) 
28778

>  <SLURM_JOB_NAME>  (143) 
BulkDock.place:Flavi_NS5_RdRp:RdRp_knitwork_green_site_rna_tunnel_impure_split4000_batch005

>  <ref_mols>  (143) 
3vws-b,3vws-a

>  <Multi-SuCOS>  (143) 
0.689671

>  <tags>  (143) 
['Fragmenstein placed', 'RdRp_knitwork_green_site_rna_tunnel_impure_fragalysis.sdf Pose OK']

>  <scratch_subdir>  (143) 
/opt/xchem-fragalysis-2/maxwin/BulkDock/SCRATCH/220456/C28778-P217

>  <energy_score>  (143) 
-30.447201

>  <fragmenstein_error>  (143) 
None

>  <csv_name>  (143) 
RdRp_knitwork_green_site_rna_tunnel_impure_split4000_batch005.csv

>  <merge_set>  (143) 
RdRp_knitwork_green_site_rna_tunnel_impure_fragalysis.sdf

>  <original ID>  (143) 
TWJPGDRVRGEHLO-UHFFFAOYSA-N

>  <HIPPO Pose ID>  (143) 
179663

>  <fragmenstein_outcome>  (143) 
acceptable

>  <exports>  (143) 
['/opt/xchem-fragalysis-2/maxwin/BulkDock/OUTPUTS/RdRp_knitwork_green_site_rna_tunnel_impure_split4000_batch005_220456.sdf', '/opt/xchem-fragalysis-2/maxwin/BulkDock/OUTPUTS/RdRp_knitwork_green_site_rna_tunnel_impure_fragalysis.sdf']

>  <SLURM_JOB_ID>  (143) 
220456

>  <distance_score>  (143) 
0.943312

>  <original SMILES>  (143) 
O=C(Cc1cc2ccccc2o1)NCc1ccc2ccoc2c1

>  <alias>  (143) 
None

>  <ref_pdb>  (143) 
3vws-b

>  <inchikey>  (143) 
TWJPGDRVRGEHLO-UHFFFAOYSA-N

$$$$
TWJPGDRVRGEHLO-UHFFFAOYSA-N
     RDKit          3D

 23 26  0  0  0  0  0  0  0  0999 V2000
  -25.7101  -36.2331  -19.8384 O   0  0  0  0  0  0  0  0  0  0  0  0
  -24.5654  -36.0105  -19.7225 C   0  0  0  0  0  0  0  0  0  0  0  0
  -23.5202  -36.6848  -20.6385 C   0  0  0  0  0  0  0  0  0  0  0  0
  -22.5707  -35.6449  -21.1161 C   0  0  0  0  0  0  0  0  0  0  0  0
  -22.7260  -34.4396  -21.7767 C   0  0  0  0  0  0  0  0  0  0  0  0
  -21.5732  -33.6712  -21.4507 C   0  0  0  0  0  0  0  0  0  0  0  0
  -21.1707  -32.3348  -21.6155 C   0  0  0  0  0  0  0  0  0  0  0  0
  -19.9395  -31.9304  -21.0763 C   0  0  0  0  0  0  0  0  0  0  0  0
  -19.1184  -32.8327  -20.3924 C   0  0  0  0  0  0  0  0  0  0  0  0
  -19.5005  -34.1645  -20.2144 C   0  0  0  0  0  0  0  0  0  0  0  0
  -20.7347  -34.5250  -20.7447 C   0  0  0  0  0  0  0  0  0  0  0  0
  -21.3218  -35.7356  -20.5857 O   0  0  0  0  0  0  0  0  0  0  0  0
  -23.8212  -34.9982  -18.7968 N   0  0  0  0  0  0  0  0  0  0  0  0
  -24.3347  -34.0021  -17.9082 C   0  0  0  0  0  0  0  0  0  0  0  0
  -23.2922  -33.4136  -16.9915 C   0  0  0  0  0  0  0  0  0  0  0  0
  -23.4881  -33.5364  -15.6106 C   0  0  0  0  0  0  0  0  0  0  0  0
  -22.6608  -32.9168  -14.6691 C   0  0  0  0  0  0  0  0  0  0  0  0
  -21.5899  -32.1477  -15.1330 C   0  0  0  0  0  0  0  0  0  0  0  0
  -20.5831  -31.3545  -14.5271 C   0  0  0  0  0  0  0  0  0  0  0  0
  -19.8180  -30.8539  -15.5541 C   0  0  0  0  0  0  0  0  0  0  0  0
  -20.2838  -31.2901  -16.7556 O   0  0  0  0  0  0  0  0  0  0  0  0
  -21.3759  -32.0680  -16.5041 C   0  0  0  0  0  0  0  0  0  0  0  0
  -22.1882  -32.6816  -17.4648 C   0  0  0  0  0  0  0  0  0  0  0  0
  1  2  2  0
  2  3  1  0
  3  4  1  0
  4  5  2  0
  5  6  1  0
  6  7  2  0
  7  8  1  0
  8  9  2  0
  9 10  1  0
 10 11  2  0
 11 12  1  0
  2 13  1  0
 13 14  1  0
 14 15  1  0
 15 16  2  0
 16 17  1  0
 17 18  2  0
 18 19  1  0
 19 20  2  0
 20 21  1  0
 21 22  1  0
 22 23  2  0
 12  4  1  0
 23 15  1  0
 11  6  1  0
 22 18  1  0
M  END
>  <fragmenstein_mode>  (144) 
expansion

>  <name>  (144) 
TWJPGDRVRGEHLO-UHFFFAOYSA-N

>  <fragmenstein_runtime>  (144) 
7.31438

>  <HIPPO Compound ID>  (144) 
28778

>  <SLURM_JOB_NAME>  (144) 
BulkDock.place:Flavi_NS5_RdRp:RdRp_knitwork_green_site_rna_tunnel_impure_split4000_batch005

>  <ref_mols>  (144) 
3vws-b,3vws-a

>  <Multi-SuCOS>  (144) 
0.689671

>  <tags>  (144) 
['Fragmenstein placed', 'RdRp_knitwork_green_site_rna_tunnel_impure_fragalysis.sdf Pose OK']

>  <scratch_subdir>  (144) 
/opt/xchem-fragalysis-2/maxwin/BulkDock/SCRATCH/220456/C28778-P218

>  <energy_score>  (144) 
-30.447201

>  <fragmenstein_error>  (144) 
None

>  <csv_name>  (144) 
RdRp_knitwork_green_site_rna_tunnel_impure_split4000_batch005.csv

>  <merge_set>  (144) 
RdRp_knitwork_green_site_rna_tunnel_impure_fragalysis.sdf

>  <original ID>  (144) 
TWJPGDRVRGEHLO-UHFFFAOYSA-N

>  <HIPPO Pose ID>  (144) 
179672

>  <fragmenstein_outcome>  (144) 
acceptable

>  <exports>  (144) 
['/opt/xchem-fragalysis-2/maxwin/BulkDock/OUTPUTS/RdRp_knitwork_green_site_rna_tunnel_impure_split4000_batch005_220456.sdf', '/opt/xchem-fragalysis-2/maxwin/BulkDock/OUTPUTS/RdRp_knitwork_green_site_rna_tunnel_impure_fragalysis.sdf']

>  <SLURM_JOB_ID>  (144) 
220456

>  <distance_score>  (144) 
0.943312

>  <original SMILES>  (144) 
O=C(Cc1cc2ccccc2o1)NCc1ccc2ccoc2c1

>  <alias>  (144) 
None

>  <ref_pdb>  (144) 
3vws-a

>  <inchikey>  (144) 
TWJPGDRVRGEHLO-UHFFFAOYSA-N

$$$$
DZIYVRSODBULPW-UHFFFAOYSA-N
     RDKit          3D

 22 24  0  0  0  0  0  0  0  0999 V2000
  -28.9323  -34.6580  -12.5338 C   0  0  0  0  0  0  0  0  0  0  0  0
  -29.7343  -33.3456  -12.5247 C   0  0  0  0  0  0  0  0  0  0  0  0
  -29.6260  -32.7157  -11.1210 C   0  0  0  0  0  0  0  0  0  0  0  0
  -31.2198  -33.6507  -12.7880 C   0  0  0  0  0  0  0  0  0  0  0  0
  -29.1733  -32.4044  -13.5713 C   0  0  0  0  0  0  0  0  0  0  0  0
  -28.2155  -31.4133  -13.4958 C   0  0  0  0  0  0  0  0  0  0  0  0
  -28.0950  -30.8838  -14.8025 C   0  0  0  0  0  0  0  0  0  0  0  0
  -27.1648  -29.7878  -15.2376 C   0  0  0  0  0  0  0  0  0  0  0  0
  -27.7750  -28.8491  -16.2027 N   0  0  0  0  0  0  0  0  0  0  0  0
  -27.6007  -29.2821  -17.5979 C   0  0  0  0  0  0  0  0  0  0  0  0
  -26.1508  -29.2423  -18.0877 C   0  0  0  0  0  0  0  0  0  0  0  0
  -26.0417  -29.6952  -19.4581 N   0  0  0  0  0  0  0  0  0  0  0  0
  -25.7986  -28.8999  -20.5416 C   0  0  0  0  0  0  0  0  0  0  0  0
  -25.7793  -29.5878  -21.6639 N   0  0  0  0  0  0  0  0  0  0  0  0
  -25.9752  -30.8871  -21.2791 C   0  0  0  0  0  0  0  0  0  0  0  0
  -26.1024  -30.9785  -19.9103 C   0  0  0  0  0  0  0  0  0  0  0  0
  -26.2224  -32.2279  -19.1230 C   0  0  0  0  0  0  0  0  0  0  0  0
  -25.7426  -33.4099  -19.9823 C   0  0  0  0  0  0  0  0  0  0  0  0
  -26.3094  -33.3523  -21.4209 C   0  0  0  0  0  0  0  0  0  0  0  0
  -25.9046  -32.0684  -22.1790 C   0  0  0  0  0  0  0  0  0  0  0  0
  -28.9213  -31.5077  -15.6494 N   0  0  0  0  0  0  0  0  0  0  0  0
  -29.5297  -32.4364  -14.8965 N   0  0  0  0  0  0  0  0  0  0  0  0
  1  2  1  0
  2  3  1  0
  2  4  1  0
  2  5  1  0
  5  6  2  0
  6  7  1  0
  7  8  1  0
  8  9  1  0
  9 10  1  0
 10 11  1  0
 11 12  1  0
 12 13  1  0
 13 14  2  0
 14 15  1  0
 15 16  2  0
 16 17  1  0
 17 18  1  0
 18 19  1  0
 19 20  1  0
  7 21  2  0
 21 22  1  0
 22  5  1  0
 16 12  1  0
 20 15  1  0
M  END
>  <fragmenstein_mode>  (145) 
expansion

>  <name>  (145) 
DZIYVRSODBULPW-UHFFFAOYSA-N

>  <fragmenstein_runtime>  (145) 
126.399386

>  <HIPPO Compound ID>  (145) 
34646

>  <SLURM_JOB_NAME>  (145) 
BulkDock.place:Flavi_NS5_RdRp:RdRp_knitwork_green_site_rna_tunnel_impure_split4000_batch019

>  <ref_mols>  (145) 
d0378a,z0653a

>  <Multi-SuCOS>  (145) 
0.343154

>  <tags>  (145) 
['Fragmenstein placed', 'RdRp_knitwork_green_site_rna_tunnel_impure_fragalysis.sdf Pose OK']

>  <scratch_subdir>  (145) 
/opt/xchem-fragalysis-2/maxwin/BulkDock/SCRATCH/220470/C34646-P1

>  <energy_score>  (145) 
-45.587686

>  <fragmenstein_error>  (145) 
None

>  <csv_name>  (145) 
RdRp_knitwork_green_site_rna_tunnel_impure_split4000_batch019.csv

>  <merge_set>  (145) 
RdRp_knitwork_green_site_rna_tunnel_impure_fragalysis.sdf

>  <original ID>  (145) 
DZIYVRSODBULPW-UHFFFAOYSA-N

>  <HIPPO Pose ID>  (145) 
179914

>  <fragmenstein_outcome>  (145) 
acceptable

>  <exports>  (145) 
['/opt/xchem-fragalysis-2/maxwin/BulkDock/OUTPUTS/RdRp_knitwork_green_site_rna_tunnel_impure_split4000_batch019_220470.sdf', '/opt/xchem-fragalysis-2/maxwin/BulkDock/OUTPUTS/RdRp_knitwork_green_site_rna_tunnel_impure_fragalysis.sdf']

>  <SLURM_JOB_ID>  (145) 
220470

>  <distance_score>  (145) 
0.914717

>  <original SMILES>  (145) 
CC(C)(C)c1cc(CNCCn2cnc3c2CCCC3)n[nH]1

>  <alias>  (145) 
None

>  <ref_pdb>  (145) 
d0378a

>  <inchikey>  (145) 
DZIYVRSODBULPW-UHFFFAOYSA-N

$$$$
UFIIGHUQDRTAJN-UHFFFAOYSA-N
     RDKit          3D

 18 20  0  0  0  0  0  0  0  0999 V2000
  -31.0639  -35.7918  -14.6757 C   0  0  0  0  0  0  0  0  0  0  0  0
  -30.1096  -35.4124  -13.7414 C   0  0  0  0  0  0  0  0  0  0  0  0
  -29.8610  -34.0568  -13.5302 C   0  0  0  0  0  0  0  0  0  0  0  0
  -30.5670  -33.1175  -14.2688 C   0  0  0  0  0  0  0  0  0  0  0  0
  -30.4116  -31.7521  -14.1217 N   0  0  0  0  0  0  0  0  0  0  0  0
  -29.0829  -31.1497  -14.0448 C   0  0  0  0  0  0  0  0  0  0  0  0
  -28.1380  -31.3775  -15.2221 C   0  0  0  0  0  0  0  0  0  0  0  0
  -28.5299  -30.7974  -16.5464 C   0  0  0  0  0  0  0  0  0  0  0  0
  -27.6546  -30.3564  -17.4338 N   0  0  0  0  0  0  0  0  0  0  0  0
  -28.2902  -30.1366  -18.6331 C   0  0  0  0  0  0  0  0  0  0  0  0
  -29.6389  -30.4096  -18.6434 C   0  0  0  0  0  0  0  0  0  0  0  0
  -30.1569  -30.8293  -17.0951 S   0  0  0  0  0  0  0  0  0  0  0  0
  -30.5359  -30.3483  -19.8235 C   0  0  0  0  0  0  0  0  0  0  0  0
  -29.7064  -30.1577  -21.0994 C   0  0  0  0  0  0  0  0  0  0  0  0
  -28.5101  -29.2134  -20.9244 C   0  0  0  0  0  0  0  0  0  0  0  0
  -27.5426  -29.7142  -19.8447 C   0  0  0  0  0  0  0  0  0  0  0  0
  -31.5074  -33.4757  -15.1633 N   0  0  0  0  0  0  0  0  0  0  0  0
  -31.7358  -34.7936  -15.3557 C   0  0  0  0  0  0  0  0  0  0  0  0
  1  2  2  0
  2  3  1  0
  3  4  2  0
  4  5  1  0
  5  6  1  0
  6  7  1  0
  7  8  1  0
  8  9  2  0
  9 10  1  0
 10 11  2  0
 11 12  1  0
 11 13  1  0
 13 14  1  0
 14 15  1  0
 15 16  1  0
  4 17  1  0
 17 18  2  0
 18  1  1  0
 12  8  1  0
 16 10  1  0
M  END
>  <fragmenstein_mode>  (146) 
expansion

>  <name>  (146) 
UFIIGHUQDRTAJN-UHFFFAOYSA-N

>  <fragmenstein_runtime>  (146) 
6.150391

>  <HIPPO Compound ID>  (146) 
34187

>  <SLURM_JOB_NAME>  (146) 
BulkDock.place:Flavi_NS5_RdRp:RdRp_knitwork_green_site_rna_tunnel_impure_split4000_batch008

>  <ref_mols>  (146) 
d0472b,z0200a

>  <Multi-SuCOS>  (146) 
0.484421

>  <tags>  (146) 
['Fragmenstein placed', 'RdRp_knitwork_green_site_rna_tunnel_impure_fragalysis.sdf Pose OK']

>  <scratch_subdir>  (146) 
/opt/xchem-fragalysis-2/maxwin/BulkDock/SCRATCH/220459/C34187-P100

>  <energy_score>  (146) 
-65.134592

>  <fragmenstein_error>  (146) 
None

>  <csv_name>  (146) 
RdRp_knitwork_green_site_rna_tunnel_impure_split4000_batch008.csv

>  <merge_set>  (146) 
RdRp_knitwork_green_site_rna_tunnel_impure_fragalysis.sdf

>  <original ID>  (146) 
UFIIGHUQDRTAJN-UHFFFAOYSA-N

>  <HIPPO Pose ID>  (146) 
180105

>  <fragmenstein_outcome>  (146) 
acceptable

>  <exports>  (146) 
['/opt/xchem-fragalysis-2/maxwin/BulkDock/OUTPUTS/RdRp_knitwork_green_site_rna_tunnel_impure_split4000_batch008_220459.sdf', '/opt/xchem-fragalysis-2/maxwin/BulkDock/OUTPUTS/RdRp_knitwork_green_site_rna_tunnel_impure_fragalysis.sdf']

>  <SLURM_JOB_ID>  (146) 
220459

>  <distance_score>  (146) 
0.802235

>  <original SMILES>  (146) 
c1ccc(NCCc2nc3c(s2)CCCC3)nc1

>  <alias>  (146) 
None

>  <ref_pdb>  (146) 
z0200a

>  <inchikey>  (146) 
UFIIGHUQDRTAJN-UHFFFAOYSA-N

$$$$
XKHULUNWNRAGFG-UHFFFAOYSA-N
     RDKit          3D

 22 25  0  0  0  0  0  0  0  0999 V2000
  -17.9426  -34.1019  -17.8922 O   0  0  0  0  0  0  0  0  0  0  0  0
  -18.4386  -33.0425  -17.8208 C   0  0  0  0  0  0  0  0  0  0  0  0
  -18.2886  -32.1432  -16.6021 C   0  0  0  0  0  0  0  0  0  0  0  0
  -19.5535  -31.8613  -15.9032 N   0  0  0  0  0  0  0  0  0  0  0  0
  -19.7003  -30.7722  -15.0720 C   0  0  0  0  0  0  0  0  0  0  0  0
  -21.0218  -30.6870  -14.7003 C   0  0  0  0  0  0  0  0  0  0  0  0
  -21.7144  -31.7597  -15.3182 C   0  0  0  0  0  0  0  0  0  0  0  0
  -23.0664  -32.1559  -15.3467 C   0  0  0  0  0  0  0  0  0  0  0  0
  -23.4601  -33.2732  -16.0841 C   0  0  0  0  0  0  0  0  0  0  0  0
  -22.5124  -34.0346  -16.7449 C   0  0  0  0  0  0  0  0  0  0  0  0
  -21.1585  -33.7015  -16.6782 C   0  0  0  0  0  0  0  0  0  0  0  0
  -20.7691  -32.5226  -16.0129 C   0  0  0  0  0  0  0  0  0  0  0  0
  -19.4147  -32.3133  -18.8005 N   0  0  0  0  0  0  0  0  0  0  0  0
  -20.0247  -32.7619  -19.9667 C   0  0  0  0  0  0  0  0  0  0  0  0
  -20.7597  -31.8268  -20.7007 C   0  0  0  0  0  0  0  0  0  0  0  0
  -21.7479  -32.2389  -21.6031 C   0  0  0  0  0  0  0  0  0  0  0  0
  -22.0127  -33.6119  -21.7258 C   0  0  0  0  0  0  0  0  0  0  0  0
  -22.9846  -34.4006  -22.3960 C   0  0  0  0  0  0  0  0  0  0  0  0
  -22.7317  -35.7071  -22.0456 C   0  0  0  0  0  0  0  0  0  0  0  0
  -21.6392  -35.7819  -21.2410 O   0  0  0  0  0  0  0  0  0  0  0  0
  -21.2093  -34.5075  -21.0300 C   0  0  0  0  0  0  0  0  0  0  0  0
  -20.1577  -34.1383  -20.1922 C   0  0  0  0  0  0  0  0  0  0  0  0
  1  2  2  0
  2  3  1  0
  3  4  1  0
  4  5  1  0
  5  6  2  0
  6  7  1  0
  7  8  2  0
  8  9  1  0
  9 10  2  0
 10 11  1  0
 11 12  2  0
  2 13  1  0
 13 14  1  0
 14 15  2  0
 15 16  1  0
 16 17  2  0
 17 18  1  0
 18 19  2  0
 19 20  1  0
 20 21  1  0
 21 22  2  0
 12  4  1  0
 22 14  1  0
 12  7  1  0
 21 17  1  0
M  END
>  <fragmenstein_mode>  (147) 
expansion

>  <name>  (147) 
XKHULUNWNRAGFG-UHFFFAOYSA-N

>  <fragmenstein_runtime>  (147) 
2.360008

>  <HIPPO Compound ID>  (147) 
36014

>  <SLURM_JOB_NAME>  (147) 
BulkDock.place:Flavi_NS5_RdRp:RdRp_knitwork_green_site_rna_tunnel_impure_split4000_batch005

>  <ref_mols>  (147) 
3vws-b,3vws-a

>  <Multi-SuCOS>  (147) 
0.706489

>  <tags>  (147) 
['Fragmenstein placed', 'RdRp_knitwork_green_site_rna_tunnel_impure_fragalysis.sdf Pose OK']

>  <scratch_subdir>  (147) 
/opt/xchem-fragalysis-2/maxwin/BulkDock/SCRATCH/220456/C36014-P217

>  <energy_score>  (147) 
-14.455367

>  <fragmenstein_error>  (147) 
None

>  <csv_name>  (147) 
RdRp_knitwork_green_site_rna_tunnel_impure_split4000_batch005.csv

>  <merge_set>  (147) 
RdRp_knitwork_green_site_rna_tunnel_impure_fragalysis.sdf

>  <original ID>  (147) 
XKHULUNWNRAGFG-UHFFFAOYSA-N

>  <HIPPO Pose ID>  (147) 
180226

>  <fragmenstein_outcome>  (147) 
acceptable

>  <exports>  (147) 
['/opt/xchem-fragalysis-2/maxwin/BulkDock/OUTPUTS/RdRp_knitwork_green_site_rna_tunnel_impure_split4000_batch005_220456.sdf', '/opt/xchem-fragalysis-2/maxwin/BulkDock/OUTPUTS/RdRp_knitwork_green_site_rna_tunnel_impure_fragalysis.sdf']

>  <SLURM_JOB_ID>  (147) 
220456

>  <distance_score>  (147) 
0.838614

>  <original SMILES>  (147) 
O=C(Cn1ccc2ccccc21)Nc1ccc2ccoc2c1

>  <alias>  (147) 
None

>  <ref_pdb>  (147) 
3vws-b

>  <inchikey>  (147) 
XKHULUNWNRAGFG-UHFFFAOYSA-N

$$$$
XKHULUNWNRAGFG-UHFFFAOYSA-N
     RDKit          3D

 22 25  0  0  0  0  0  0  0  0999 V2000
  -17.9426  -34.1019  -17.8922 O   0  0  0  0  0  0  0  0  0  0  0  0
  -18.4386  -33.0425  -17.8208 C   0  0  0  0  0  0  0  0  0  0  0  0
  -18.2886  -32.1432  -16.6021 C   0  0  0  0  0  0  0  0  0  0  0  0
  -19.5535  -31.8613  -15.9032 N   0  0  0  0  0  0  0  0  0  0  0  0
  -19.7003  -30.7722  -15.0720 C   0  0  0  0  0  0  0  0  0  0  0  0
  -21.0218  -30.6870  -14.7003 C   0  0  0  0  0  0  0  0  0  0  0  0
  -21.7144  -31.7597  -15.3182 C   0  0  0  0  0  0  0  0  0  0  0  0
  -23.0664  -32.1559  -15.3467 C   0  0  0  0  0  0  0  0  0  0  0  0
  -23.4601  -33.2732  -16.0841 C   0  0  0  0  0  0  0  0  0  0  0  0
  -22.5124  -34.0346  -16.7449 C   0  0  0  0  0  0  0  0  0  0  0  0
  -21.1585  -33.7015  -16.6782 C   0  0  0  0  0  0  0  0  0  0  0  0
  -20.7691  -32.5226  -16.0129 C   0  0  0  0  0  0  0  0  0  0  0  0
  -19.4147  -32.3133  -18.8005 N   0  0  0  0  0  0  0  0  0  0  0  0
  -20.0247  -32.7619  -19.9667 C   0  0  0  0  0  0  0  0  0  0  0  0
  -20.7597  -31.8268  -20.7007 C   0  0  0  0  0  0  0  0  0  0  0  0
  -21.7479  -32.2389  -21.6031 C   0  0  0  0  0  0  0  0  0  0  0  0
  -22.0127  -33.6119  -21.7258 C   0  0  0  0  0  0  0  0  0  0  0  0
  -22.9846  -34.4006  -22.3960 C   0  0  0  0  0  0  0  0  0  0  0  0
  -22.7317  -35.7071  -22.0456 C   0  0  0  0  0  0  0  0  0  0  0  0
  -21.6392  -35.7819  -21.2410 O   0  0  0  0  0  0  0  0  0  0  0  0
  -21.2093  -34.5075  -21.0300 C   0  0  0  0  0  0  0  0  0  0  0  0
  -20.1577  -34.1383  -20.1922 C   0  0  0  0  0  0  0  0  0  0  0  0
  1  2  2  0
  2  3  1  0
  3  4  1  0
  4  5  1  0
  5  6  2  0
  6  7  1  0
  7  8  2  0
  8  9  1  0
  9 10  2  0
 10 11  1  0
 11 12  2  0
  2 13  1  0
 13 14  1  0
 14 15  2  0
 15 16  1  0
 16 17  2  0
 17 18  1  0
 18 19  2  0
 19 20  1  0
 20 21  1  0
 21 22  2  0
 12  4  1  0
 22 14  1  0
 12  7  1  0
 21 17  1  0
M  END
>  <fragmenstein_mode>  (148) 
expansion

>  <name>  (148) 
XKHULUNWNRAGFG-UHFFFAOYSA-N

>  <fragmenstein_runtime>  (148) 
2.50158

>  <HIPPO Compound ID>  (148) 
36014

>  <SLURM_JOB_NAME>  (148) 
BulkDock.place:Flavi_NS5_RdRp:RdRp_knitwork_green_site_rna_tunnel_impure_split4000_batch005

>  <ref_mols>  (148) 
3vws-b,3vws-a

>  <Multi-SuCOS>  (148) 
0.706489

>  <tags>  (148) 
['Fragmenstein placed', 'RdRp_knitwork_green_site_rna_tunnel_impure_fragalysis.sdf Pose OK']

>  <scratch_subdir>  (148) 
/opt/xchem-fragalysis-2/maxwin/BulkDock/SCRATCH/220456/C36014-P218

>  <energy_score>  (148) 
-14.455367

>  <fragmenstein_error>  (148) 
None

>  <csv_name>  (148) 
RdRp_knitwork_green_site_rna_tunnel_impure_split4000_batch005.csv

>  <merge_set>  (148) 
RdRp_knitwork_green_site_rna_tunnel_impure_fragalysis.sdf

>  <original ID>  (148) 
XKHULUNWNRAGFG-UHFFFAOYSA-N

>  <HIPPO Pose ID>  (148) 
180239

>  <fragmenstein_outcome>  (148) 
acceptable

>  <exports>  (148) 
['/opt/xchem-fragalysis-2/maxwin/BulkDock/OUTPUTS/RdRp_knitwork_green_site_rna_tunnel_impure_split4000_batch005_220456.sdf', '/opt/xchem-fragalysis-2/maxwin/BulkDock/OUTPUTS/RdRp_knitwork_green_site_rna_tunnel_impure_fragalysis.sdf']

>  <SLURM_JOB_ID>  (148) 
220456

>  <distance_score>  (148) 
0.838614

>  <original SMILES>  (148) 
O=C(Cn1ccc2ccccc21)Nc1ccc2ccoc2c1

>  <alias>  (148) 
None

>  <ref_pdb>  (148) 
3vws-a

>  <inchikey>  (148) 
XKHULUNWNRAGFG-UHFFFAOYSA-N

$$$$
DONZOHXYTODFNC-GFCCVEGCSA-N
     RDKit          3D

 23 26  0  0  0  0  0  0  0  0999 V2000
  -24.9070  -33.1427  -23.6555 C   0  0  0  0  0  0  0  0  0  0  0  0
  -23.9455  -32.6088  -22.5980 C   0  0  1  0  0  0  0  0  0  0  0  0
  -24.5929  -31.8787  -21.5311 N   0  0  0  0  0  0  0  0  0  0  0  0
  -26.0522  -31.9077  -21.0410 C   0  0  0  0  0  0  0  0  0  0  0  0
  -26.9827  -32.4671  -21.4685 O   0  0  0  0  0  0  0  0  0  0  0  0
  -26.2378  -31.1337  -19.7625 C   0  0  0  0  0  0  0  0  0  0  0  0
  -25.2419  -30.9784  -18.7783 C   0  0  0  0  0  0  0  0  0  0  0  0
  -25.5005  -30.3104  -17.5780 C   0  0  0  0  0  0  0  0  0  0  0  0
  -26.7749  -29.8081  -17.3003 C   0  0  0  0  0  0  0  0  0  0  0  0
  -27.7995  -29.9704  -18.2506 C   0  0  0  0  0  0  0  0  0  0  0  0
  -29.1797  -29.6352  -18.2759 C   0  0  0  0  0  0  0  0  0  0  0  0
  -29.6917  -30.0419  -19.4864 C   0  0  0  0  0  0  0  0  0  0  0  0
  -28.6782  -30.6292  -20.1904 N   0  0  0  0  0  0  0  0  0  0  0  0
  -27.5093  -30.6107  -19.4557 C   0  0  0  0  0  0  0  0  0  0  0  0
  -23.1115  -33.6784  -21.9249 C   0  0  0  0  0  0  0  0  0  0  0  0
  -23.5238  -34.9741  -21.6714 C   0  0  0  0  0  0  0  0  0  0  0  0
  -22.3734  -35.8898  -20.8214 S   0  0  0  0  0  0  0  0  0  0  0  0
  -21.2593  -34.5823  -20.7695 C   0  0  0  0  0  0  0  0  0  0  0  0
  -19.9822  -34.5832  -20.1723 C   0  0  0  0  0  0  0  0  0  0  0  0
  -19.2287  -33.4089  -20.1758 C   0  0  0  0  0  0  0  0  0  0  0  0
  -19.7288  -32.2591  -20.7653 C   0  0  0  0  0  0  0  0  0  0  0  0
  -20.9813  -32.2715  -21.3841 C   0  0  0  0  0  0  0  0  0  0  0  0
  -21.7785  -33.4454  -21.3939 C   0  0  0  0  0  0  0  0  0  0  0  0
  2  1  1  6
  2  3  1  0
  3  4  1  0
  4  5  2  0
  4  6  1  0
  6  7  2  0
  7  8  1  0
  8  9  2  0
  9 10  1  0
 10 11  1  0
 11 12  2  0
 12 13  1  0
 13 14  1  0
  2 15  1  0
 15 16  2  0
 16 17  1  0
 17 18  1  0
 18 19  2  0
 19 20  1  0
 20 21  2  0
 21 22  1  0
 22 23  2  0
 14  6  1  0
 23 15  1  0
 14 10  2  0
 23 18  1  0
M  END
>  <fragmenstein_mode>  (149) 
expansion

>  <name>  (149) 
DONZOHXYTODFNC-GFCCVEGCSA-N

>  <fragmenstein_runtime>  (149) 
3.341005

>  <HIPPO Compound ID>  (149) 
28101

>  <SLURM_JOB_NAME>  (149) 
BulkDock.place:Flavi_NS5_RdRp:RdRp_knitwork_green_site_rna_tunnel_impure_split4000_batch010

>  <ref_mols>  (149) 
z0107a,3vws-b

>  <Multi-SuCOS>  (149) 
0.692714

>  <tags>  (149) 
['Fragmenstein placed', 'RdRp_knitwork_green_site_rna_tunnel_impure_fragalysis.sdf Pose OK']

>  <scratch_subdir>  (149) 
/opt/xchem-fragalysis-2/maxwin/BulkDock/SCRATCH/220461/C28101-P86

>  <energy_score>  (149) 
-59.138298

>  <fragmenstein_error>  (149) 
None

>  <csv_name>  (149) 
RdRp_knitwork_green_site_rna_tunnel_impure_split4000_batch010.csv

>  <merge_set>  (149) 
RdRp_knitwork_green_site_rna_tunnel_impure_fragalysis.sdf

>  <original ID>  (149) 
DONZOHXYTODFNC-GFCCVEGCSA-N

>  <HIPPO Pose ID>  (149) 
180722

>  <fragmenstein_outcome>  (149) 
acceptable

>  <exports>  (149) 
['/opt/xchem-fragalysis-2/maxwin/BulkDock/OUTPUTS/RdRp_knitwork_green_site_rna_tunnel_impure_split4000_batch010_220461.sdf', '/opt/xchem-fragalysis-2/maxwin/BulkDock/OUTPUTS/RdRp_knitwork_green_site_rna_tunnel_impure_fragalysis.sdf']

>  <SLURM_JOB_ID>  (149) 
220461

>  <distance_score>  (149) 
0.817676

>  <original SMILES>  (149) 
C[C@@H](NC(=O)c1cccc2cc[nH]c12)c1csc2ccccc12

>  <alias>  (149) 
None

>  <ref_pdb>  (149) 
z0107a

>  <inchikey>  (149) 
DONZOHXYTODFNC-GFCCVEGCSA-N

$$$$
KYSUMIGKZOUZKY-AWEZNQCLSA-N
     RDKit          3D

 24 27  0  0  0  0  0  0  0  0999 V2000
  -24.3757  -32.8903  -23.6941 C   0  0  0  0  0  0  0  0  0  0  0  0
  -24.6471  -33.4816  -22.3208 C   0  0  2  0  0  0  0  0  0  0  0  0
  -25.0298  -32.5247  -21.3138 N   0  0  0  0  0  0  0  0  0  0  0  0
  -26.1695  -31.4939  -21.2975 C   0  0  0  0  0  0  0  0  0  0  0  0
  -26.9345  -31.1998  -22.1267 O   0  0  0  0  0  0  0  0  0  0  0  0
  -26.3259  -30.8717  -19.9310 C   0  0  0  0  0  0  0  0  0  0  0  0
  -25.2924  -30.7053  -18.9887 C   0  0  0  0  0  0  0  0  0  0  0  0
  -25.5470  -30.2068  -17.7067 C   0  0  0  0  0  0  0  0  0  0  0  0
  -26.8448  -29.8595  -17.3187 C   0  0  0  0  0  0  0  0  0  0  0  0
  -27.8932  -29.9779  -18.2495 C   0  0  0  0  0  0  0  0  0  0  0  0
  -29.2910  -29.7254  -18.1998 C   0  0  0  0  0  0  0  0  0  0  0  0
  -29.8141  -30.0014  -19.4425 C   0  0  0  0  0  0  0  0  0  0  0  0
  -28.7902  -30.4213  -20.2423 N   0  0  0  0  0  0  0  0  0  0  0  0
  -27.6084  -30.4522  -19.5298 C   0  0  0  0  0  0  0  0  0  0  0  0
  -23.5386  -34.3752  -21.7847 C   0  0  0  0  0  0  0  0  0  0  0  0
  -23.8772  -35.7357  -21.6303 C   0  0  0  0  0  0  0  0  0  0  0  0
  -23.0265  -36.6185  -20.9911 C   0  0  0  0  0  0  0  0  0  0  0  0
  -21.8135  -36.1534  -20.4985 C   0  0  0  0  0  0  0  0  0  0  0  0
  -21.3971  -34.8277  -20.6972 C   0  0  0  0  0  0  0  0  0  0  0  0
  -20.1318  -34.4216  -20.2339 C   0  0  0  0  0  0  0  0  0  0  0  0
  -19.6936  -33.1086  -20.3865 C   0  0  0  0  0  0  0  0  0  0  0  0
  -20.5245  -32.1822  -20.9976 C   0  0  0  0  0  0  0  0  0  0  0  0
  -21.7846  -32.5737  -21.4656 C   0  0  0  0  0  0  0  0  0  0  0  0
  -22.2578  -33.9057  -21.3438 C   0  0  0  0  0  0  0  0  0  0  0  0
  2  1  1  6
  2  3  1  0
  3  4  1  0
  4  5  2  0
  4  6  1  0
  6  7  2  0
  7  8  1  0
  8  9  2  0
  9 10  1  0
 10 11  1  0
 11 12  2  0
 12 13  1  0
 13 14  1  0
  2 15  1  0
 15 16  2  0
 16 17  1  0
 17 18  2  0
 18 19  1  0
 19 20  2  0
 20 21  1  0
 21 22  2  0
 22 23  1  0
 23 24  2  0
 14  6  1  0
 24 15  1  0
 14 10  2  0
 24 19  1  0
M  END
>  <fragmenstein_mode>  (150) 
expansion

>  <name>  (150) 
KYSUMIGKZOUZKY-AWEZNQCLSA-N

>  <fragmenstein_runtime>  (150) 
3.837948

>  <HIPPO Compound ID>  (150) 
28421

>  <SLURM_JOB_NAME>  (150) 
BulkDock.place:Flavi_NS5_RdRp:RdRp_knitwork_green_site_rna_tunnel_impure_split4000_batch010

>  <ref_mols>  (150) 
z0107a,3vws-b

>  <Multi-SuCOS>  (150) 
0.654188

>  <tags>  (150) 
['Fragmenstein placed', 'RdRp_knitwork_green_site_rna_tunnel_impure_fragalysis.sdf Pose OK']

>  <scratch_subdir>  (150) 
/opt/xchem-fragalysis-2/maxwin/BulkDock/SCRATCH/220461/C28421-P86

>  <energy_score>  (150) 
-44.955565

>  <fragmenstein_error>  (150) 
None

>  <csv_name>  (150) 
RdRp_knitwork_green_site_rna_tunnel_impure_split4000_batch010.csv

>  <merge_set>  (150) 
RdRp_knitwork_green_site_rna_tunnel_impure_fragalysis.sdf

>  <original ID>  (150) 
KYSUMIGKZOUZKY-AWEZNQCLSA-N

>  <HIPPO Pose ID>  (150) 
180785

>  <fragmenstein_outcome>  (150) 
acceptable

>  <exports>  (150) 
['/opt/xchem-fragalysis-2/maxwin/BulkDock/OUTPUTS/RdRp_knitwork_green_site_rna_tunnel_impure_split4000_batch010_220461.sdf', '/opt/xchem-fragalysis-2/maxwin/BulkDock/OUTPUTS/RdRp_knitwork_green_site_rna_tunnel_impure_fragalysis.sdf']

>  <SLURM_JOB_ID>  (150) 
220461

>  <distance_score>  (150) 
0.931501

>  <original SMILES>  (150) 
C[C@H](NC(=O)c1cccc2cc[nH]c12)c1cccc2ccccc12

>  <alias>  (150) 
None

>  <ref_pdb>  (150) 
z0107a

>  <inchikey>  (150) 
KYSUMIGKZOUZKY-AWEZNQCLSA-N

$$$$
LUQKBBAOAYZWBA-QFIPXVFZSA-N
     RDKit          3D

 22 24  0  0  0  0  0  0  0  0999 V2000
  -29.3733  -31.4926  -10.8321 C   0  0  0  0  0  0  0  0  0  0  0  0
  -28.5840  -31.3136  -12.0261 N   0  0  0  0  0  0  0  0  0  0  0  0
  -29.0106  -30.8109  -13.2241 C   0  0  0  0  0  0  0  0  0  0  0  0
  -27.9300  -30.9219  -14.0726 C   0  0  0  0  0  0  0  0  0  0  0  0
  -27.8526  -30.7424  -15.7675 S   0  0  2  0  0  0  0  0  0  0  0  0
  -29.5019  -31.0006  -16.3354 C   0  0  0  0  0  0  0  0  0  0  0  0
  -27.0440  -31.8621  -16.1872 O   0  0  0  0  0  0  0  0  0  0  0  0
  -27.4743  -29.2753  -16.0220 N   0  0  0  0  0  0  0  0  0  0  0  0
  -27.2936  -29.0134  -17.4004 C   0  0  0  0  0  0  0  0  0  0  0  0
  -28.2603  -28.7114  -18.0929 O   0  0  0  0  0  0  0  0  0  0  0  0
  -25.9060  -29.2220  -17.9875 C   0  0  0  0  0  0  0  0  0  0  0  0
  -25.9444  -29.6466  -19.3741 N   0  0  0  0  0  0  0  0  0  0  0  0
  -25.7016  -28.8240  -20.4427 C   0  0  0  0  0  0  0  0  0  0  0  0
  -25.7483  -29.4713  -21.5871 N   0  0  0  0  0  0  0  0  0  0  0  0
  -25.9992  -30.7685  -21.2429 C   0  0  0  0  0  0  0  0  0  0  0  0
  -26.1108  -30.9077  -19.8764 C   0  0  0  0  0  0  0  0  0  0  0  0
  -26.3144  -32.1901  -19.1576 C   0  0  0  0  0  0  0  0  0  0  0  0
  -26.0163  -33.3774  -20.0975 C   0  0  0  0  0  0  0  0  0  0  0  0
  -26.5833  -33.1712  -21.5150 C   0  0  0  0  0  0  0  0  0  0  0  0
  -26.0168  -31.9083  -22.1933 C   0  0  0  0  0  0  0  0  0  0  0  0
  -26.8986  -31.4603  -13.2824 C   0  0  0  0  0  0  0  0  0  0  0  0
  -27.2983  -31.7073  -12.0283 N   0  0  0  0  0  0  0  0  0  0  0  0
  1  2  1  0
  2  3  1  0
  3  4  2  0
  4  5  1  0
  5  6  1  6
  5  7  2  0
  5  8  2  0
  8  9  1  0
  9 10  2  0
  9 11  1  0
 11 12  1  0
 12 13  1  0
 13 14  2  0
 14 15  1  0
 15 16  2  0
 16 17  1  0
 17 18  1  0
 18 19  1  0
 19 20  1  0
  4 21  1  0
 21 22  2  0
 22  2  1  0
 16 12  1  0
 20 15  1  0
M  END
>  <fragmenstein_mode>  (151) 
expansion

>  <name>  (151) 
LUQKBBAOAYZWBA-QFIPXVFZSA-N

>  <fragmenstein_runtime>  (151) 
6.633087

>  <HIPPO Compound ID>  (151) 
33689

>  <SLURM_JOB_NAME>  (151) 
BulkDock.place:Flavi_NS5_RdRp:RdRp_knitwork_green_site_rna_tunnel_impure_split4000_batch003

>  <ref_mols>  (151) 
d0378a,z0215a

>  <Multi-SuCOS>  (151) 
0.40814

>  <tags>  (151) 
['Fragmenstein placed', 'RdRp_knitwork_green_site_rna_tunnel_impure_fragalysis.sdf Pose OK']

>  <scratch_subdir>  (151) 
/opt/xchem-fragalysis-2/maxwin/BulkDock/SCRATCH/220454/C33689-P1

>  <energy_score>  (151) 
-107.897598

>  <fragmenstein_error>  (151) 
None

>  <csv_name>  (151) 
RdRp_knitwork_green_site_rna_tunnel_impure_split4000_batch003.csv

>  <merge_set>  (151) 
RdRp_knitwork_green_site_rna_tunnel_impure_fragalysis.sdf

>  <original ID>  (151) 
LUQKBBAOAYZWBA-QFIPXVFZSA-N

>  <HIPPO Pose ID>  (151) 
180796

>  <fragmenstein_outcome>  (151) 
acceptable

>  <exports>  (151) 
['/opt/xchem-fragalysis-2/maxwin/BulkDock/OUTPUTS/RdRp_knitwork_green_site_rna_tunnel_impure_split4000_batch003_220454.sdf', '/opt/xchem-fragalysis-2/maxwin/BulkDock/OUTPUTS/RdRp_knitwork_green_site_rna_tunnel_impure_fragalysis.sdf']

>  <SLURM_JOB_ID>  (151) 
220454

>  <distance_score>  (151) 
0.894966

>  <original SMILES>  (151) 
Cn1cc([S@](C)(=O)=NC(=O)Cn2cnc3c2CCCC3)cn1

>  <alias>  (151) 
None

>  <ref_pdb>  (151) 
d0378a

>  <inchikey>  (151) 
LUQKBBAOAYZWBA-QFIPXVFZSA-N

$$$$
DHXCDLUKFAKLSY-UHFFFAOYSA-N
     RDKit          3D

 24 27  0  0  0  0  0  0  0  0999 V2000
  -27.1161  -31.9055  -21.8911 O   0  0  0  0  0  0  0  0  0  0  0  0
  -26.1661  -31.5333  -21.3268 C   0  0  0  0  0  0  0  0  0  0  0  0
  -24.7242  -31.3444  -21.8216 N   0  0  0  0  0  0  0  0  0  0  0  0
  -24.1230  -31.6610  -23.0853 C   0  0  0  0  0  0  0  0  0  0  0  0
  -23.8692  -33.1457  -23.3490 C   0  0  0  0  0  0  0  0  0  0  0  0
  -23.1911  -34.0175  -22.3041 C   0  0  0  0  0  0  0  0  0  0  0  0
  -23.8404  -35.2396  -22.0204 C   0  0  0  0  0  0  0  0  0  0  0  0
  -23.3093  -36.1592  -21.1291 C   0  0  0  0  0  0  0  0  0  0  0  0
  -22.1094  -35.8716  -20.4922 C   0  0  0  0  0  0  0  0  0  0  0  0
  -21.4179  -34.6794  -20.7518 C   0  0  0  0  0  0  0  0  0  0  0  0
  -20.2010  -34.4348  -20.0912 C   0  0  0  0  0  0  0  0  0  0  0  0
  -19.4836  -33.2634  -20.3131 C   0  0  0  0  0  0  0  0  0  0  0  0
  -19.9690  -32.3329  -21.2173 C   0  0  0  0  0  0  0  0  0  0  0  0
  -21.1628  -32.5762  -21.9033 C   0  0  0  0  0  0  0  0  0  0  0  0
  -21.9414  -33.7342  -21.6758 C   0  0  0  0  0  0  0  0  0  0  0  0
  -26.3344  -31.0529  -19.9078 C   0  0  0  0  0  0  0  0  0  0  0  0
  -25.3192  -31.0511  -18.9333 C   0  0  0  0  0  0  0  0  0  0  0  0
  -25.5464  -30.5497  -17.6476 C   0  0  0  0  0  0  0  0  0  0  0  0
  -26.8060  -30.0652  -17.2783 C   0  0  0  0  0  0  0  0  0  0  0  0
  -27.8525  -30.0893  -18.2185 C   0  0  0  0  0  0  0  0  0  0  0  0
  -29.2262  -29.7258  -18.1772 C   0  0  0  0  0  0  0  0  0  0  0  0
  -29.7652  -29.9719  -19.4193 C   0  0  0  0  0  0  0  0  0  0  0  0
  -28.7707  -30.4636  -20.2158 N   0  0  0  0  0  0  0  0  0  0  0  0
  -27.5935  -30.5689  -19.5024 C   0  0  0  0  0  0  0  0  0  0  0  0
  1  2  2  0
  2  3  1  0
  3  4  1  0
  4  5  1  0
  5  6  1  0
  6  7  2  0
  7  8  1  0
  8  9  2  0
  9 10  1  0
 10 11  2  0
 11 12  1  0
 12 13  2  0
 13 14  1  0
 14 15  2  0
  2 16  1  0
 16 17  2  0
 17 18  1  0
 18 19  2  0
 19 20  1  0
 20 21  1  0
 21 22  2  0
 22 23  1  0
 23 24  1  0
 15  6  1  0
 24 16  1  0
 15 10  1  0
 24 20  2  0
M  END
>  <fragmenstein_mode>  (152) 
expansion

>  <name>  (152) 
DHXCDLUKFAKLSY-UHFFFAOYSA-N

>  <fragmenstein_runtime>  (152) 
3.634602

>  <HIPPO Compound ID>  (152) 
28628

>  <SLURM_JOB_NAME>  (152) 
BulkDock.place:Flavi_NS5_RdRp:RdRp_knitwork_green_site_rna_tunnel_impure_split4000_batch010

>  <ref_mols>  (152) 
z0107a,3vws-b

>  <Multi-SuCOS>  (152) 
0.675235

>  <tags>  (152) 
['Fragmenstein placed', 'RdRp_knitwork_green_site_rna_tunnel_impure_fragalysis.sdf Pose OK']

>  <scratch_subdir>  (152) 
/opt/xchem-fragalysis-2/maxwin/BulkDock/SCRATCH/220461/C28628-P86

>  <energy_score>  (152) 
-41.775808

>  <fragmenstein_error>  (152) 
None

>  <csv_name>  (152) 
RdRp_knitwork_green_site_rna_tunnel_impure_split4000_batch010.csv

>  <merge_set>  (152) 
RdRp_knitwork_green_site_rna_tunnel_impure_fragalysis.sdf

>  <original ID>  (152) 
DHXCDLUKFAKLSY-UHFFFAOYSA-N

>  <HIPPO Pose ID>  (152) 
180920

>  <fragmenstein_outcome>  (152) 
acceptable

>  <exports>  (152) 
['/opt/xchem-fragalysis-2/maxwin/BulkDock/OUTPUTS/RdRp_knitwork_green_site_rna_tunnel_impure_split4000_batch010_220461.sdf', '/opt/xchem-fragalysis-2/maxwin/BulkDock/OUTPUTS/RdRp_knitwork_green_site_rna_tunnel_impure_fragalysis.sdf']

>  <SLURM_JOB_ID>  (152) 
220461

>  <distance_score>  (152) 
0.774008

>  <original SMILES>  (152) 
O=C(NCCc1cccc2ccccc12)c1cccc2cc[nH]c12

>  <alias>  (152) 
None

>  <ref_pdb>  (152) 
z0107a

>  <inchikey>  (152) 
DHXCDLUKFAKLSY-UHFFFAOYSA-N

$$$$
UJWBUTQSIAGJEY-UHFFFAOYSA-N
     RDKit          3D

 24 27  0  0  0  0  0  0  0  0999 V2000
  -24.4872  -31.0434  -21.9796 O   0  0  0  0  0  0  0  0  0  0  0  0
  -24.8534  -32.0903  -22.3437 C   0  0  0  0  0  0  0  0  0  0  0  0
  -23.9806  -33.0090  -23.2077 C   0  0  0  0  0  0  0  0  0  0  0  0
  -23.1065  -33.8879  -22.3641 C   0  0  0  0  0  0  0  0  0  0  0  0
  -23.2900  -35.2289  -22.0814 C   0  0  0  0  0  0  0  0  0  0  0  0
  -22.2695  -35.6388  -21.2635 N   0  0  0  0  0  0  0  0  0  0  0  0
  -21.3942  -34.6043  -21.0312 C   0  0  0  0  0  0  0  0  0  0  0  0
  -20.2126  -34.5652  -20.2778 C   0  0  0  0  0  0  0  0  0  0  0  0
  -19.5394  -33.3429  -20.1863 C   0  0  0  0  0  0  0  0  0  0  0  0
  -20.0325  -32.2073  -20.8224 C   0  0  0  0  0  0  0  0  0  0  0  0
  -21.2028  -32.2708  -21.5864 C   0  0  0  0  0  0  0  0  0  0  0  0
  -21.9013  -33.4894  -21.6964 C   0  0  0  0  0  0  0  0  0  0  0  0
  -26.1889  -32.8395  -22.0743 N   0  0  0  0  0  0  0  0  0  0  0  0
  -27.3060  -32.4911  -21.2228 C   0  0  0  0  0  0  0  0  0  0  0  0
  -27.6974  -31.0069  -21.2684 C   0  0  0  0  0  0  0  0  0  0  0  0
  -28.1239  -30.5314  -19.9623 N   0  0  0  0  0  0  0  0  0  0  0  0
  -29.4135  -30.2639  -19.5901 C   0  0  0  0  0  0  0  0  0  0  0  0
  -29.3989  -29.9357  -18.2520 C   0  0  0  0  0  0  0  0  0  0  0  0
  -28.0500  -29.9808  -17.8043 C   0  0  0  0  0  0  0  0  0  0  0  0
  -27.4161  -29.7524  -16.5678 C   0  0  0  0  0  0  0  0  0  0  0  0
  -26.0238  -29.8771  -16.4721 C   0  0  0  0  0  0  0  0  0  0  0  0
  -25.2621  -30.2311  -17.5797 C   0  0  0  0  0  0  0  0  0  0  0  0
  -25.8707  -30.4732  -18.8097 C   0  0  0  0  0  0  0  0  0  0  0  0
  -27.2657  -30.3395  -18.8996 C   0  0  0  0  0  0  0  0  0  0  0  0
  1  2  2  0
  2  3  1  0
  3  4  1  0
  4  5  2  0
  5  6  1  0
  6  7  1  0
  7  8  2  0
  8  9  1  0
  9 10  2  0
 10 11  1  0
 11 12  2  0
  2 13  1  0
 13 14  1  0
 14 15  1  0
 15 16  1  0
 16 17  1  0
 17 18  2  0
 18 19  1  0
 19 20  2  0
 20 21  1  0
 21 22  2  0
 22 23  1  0
 23 24  2  0
 12  4  1  0
 24 16  1  0
 12  7  1  0
 24 19  1  0
M  END
>  <fragmenstein_mode>  (153) 
expansion

>  <name>  (153) 
UJWBUTQSIAGJEY-UHFFFAOYSA-N

>  <fragmenstein_runtime>  (153) 
3.169605

>  <HIPPO Compound ID>  (153) 
27509

>  <SLURM_JOB_NAME>  (153) 
BulkDock.place:Flavi_NS5_RdRp:RdRp_knitwork_green_site_rna_tunnel_impure_split4000_batch010

>  <ref_mols>  (153) 
z0107a,3vws-b

>  <Multi-SuCOS>  (153) 
0.690105

>  <tags>  (153) 
['Fragmenstein placed', 'RdRp_knitwork_green_site_rna_tunnel_impure_fragalysis.sdf Pose OK']

>  <scratch_subdir>  (153) 
/opt/xchem-fragalysis-2/maxwin/BulkDock/SCRATCH/220461/C27509-P86

>  <energy_score>  (153) 
-10.237155

>  <fragmenstein_error>  (153) 
None

>  <csv_name>  (153) 
RdRp_knitwork_green_site_rna_tunnel_impure_split4000_batch010.csv

>  <merge_set>  (153) 
RdRp_knitwork_green_site_rna_tunnel_impure_fragalysis.sdf

>  <original ID>  (153) 
UJWBUTQSIAGJEY-UHFFFAOYSA-N

>  <HIPPO Pose ID>  (153) 
181428

>  <fragmenstein_outcome>  (153) 
acceptable

>  <exports>  (153) 
['/opt/xchem-fragalysis-2/maxwin/BulkDock/OUTPUTS/RdRp_knitwork_green_site_rna_tunnel_impure_split4000_batch010_220461.sdf', '/opt/xchem-fragalysis-2/maxwin/BulkDock/OUTPUTS/RdRp_knitwork_green_site_rna_tunnel_impure_fragalysis.sdf']

>  <SLURM_JOB_ID>  (153) 
220461

>  <distance_score>  (153) 
0.663657

>  <original SMILES>  (153) 
O=C(Cc1c[nH]c2ccccc12)NCCn1ccc2ccccc21

>  <alias>  (153) 
None

>  <ref_pdb>  (153) 
z0107a

>  <inchikey>  (153) 
UJWBUTQSIAGJEY-UHFFFAOYSA-N

$$$$
JBUOOGSHBLXKDO-UHFFFAOYSA-N
     RDKit          3D

 22 24  0  0  0  0  0  0  0  0999 V2000
  -27.3499  -33.9088  -10.9522 C   0  0  0  0  0  0  0  0  0  0  0  0
  -25.8229  -33.9203  -11.0615 C   0  0  0  0  0  0  0  0  0  0  0  0
  -25.2058  -33.7555   -9.6711 C   0  0  0  0  0  0  0  0  0  0  0  0
  -25.2988  -35.2137  -11.7127 C   0  0  0  0  0  0  0  0  0  0  0  0
  -25.7210  -35.3870  -13.1361 C   0  0  0  0  0  0  0  0  0  0  0  0
  -25.3613  -34.5890  -14.2503 C   0  0  0  0  0  0  0  0  0  0  0  0
  -26.0236  -35.1349  -15.3343 C   0  0  0  0  0  0  0  0  0  0  0  0
  -26.1272  -34.7923  -16.7471 C   0  0  0  0  0  0  0  0  0  0  0  0
  -26.7469  -35.4818  -17.4513 O   0  0  0  0  0  0  0  0  0  0  0  0
  -25.3701  -33.4894  -17.0435 N   0  0  0  0  0  0  0  0  0  0  0  0
  -25.1337  -32.8043  -18.2935 C   0  0  0  0  0  0  0  0  0  0  0  0
  -26.4129  -32.3273  -18.9907 C   0  0  0  0  0  0  0  0  0  0  0  0
  -26.1587  -31.1393  -19.8549 C   0  0  0  0  0  0  0  0  0  0  0  0
  -26.0862  -31.0288  -21.2396 C   0  0  0  0  0  0  0  0  0  0  0  0
  -25.6680  -29.7533  -21.4405 N   0  0  0  0  0  0  0  0  0  0  0  0
  -25.5272  -29.1562  -20.2316 C   0  0  0  0  0  0  0  0  0  0  0  0
  -25.8513  -29.9344  -19.2442 N   0  0  0  0  0  0  0  0  0  0  0  0
  -24.7775  -27.6169  -20.2824 S   0  0  0  0  0  0  0  0  0  0  0  0
  -24.4003  -27.8085  -22.0690 C   0  0  0  0  0  0  0  0  0  0  0  0
  -25.1678  -29.0397  -22.5908 C   0  0  0  0  0  0  0  0  0  0  0  0
  -26.6841  -36.2225  -14.8174 N   0  0  0  0  0  0  0  0  0  0  0  0
  -26.5267  -36.3949  -13.4902 N   0  0  0  0  0  0  0  0  0  0  0  0
  1  2  1  0
  2  3  1  0
  2  4  1  0
  4  5  1  0
  5  6  1  0
  6  7  2  0
  7  8  1  0
  8  9  2  0
  8 10  1  0
 10 11  1  0
 11 12  1  0
 12 13  1  0
 13 14  2  0
 14 15  1  0
 15 16  1  0
 16 17  2  0
 16 18  1  0
 18 19  1  0
 19 20  1  0
  7 21  1  0
 21 22  1  0
 22  5  2  0
 17 13  1  0
 20 15  1  0
M  END
>  <fragmenstein_mode>  (154) 
expansion

>  <name>  (154) 
JBUOOGSHBLXKDO-UHFFFAOYSA-N

>  <fragmenstein_runtime>  (154) 
6.342801

>  <HIPPO Compound ID>  (154) 
37739

>  <SLURM_JOB_NAME>  (154) 
BulkDock.place:Flavi_NS5_RdRp:RdRp_knitwork_green_site_rna_tunnel_impure_split4000_batch019

>  <ref_mols>  (154) 
d0378a,z0653a

>  <Multi-SuCOS>  (154) 
0.253747

>  <tags>  (154) 
['Fragmenstein placed', 'RdRp_knitwork_green_site_rna_tunnel_impure_fragalysis.sdf Pose OK']

>  <scratch_subdir>  (154) 
/opt/xchem-fragalysis-2/maxwin/BulkDock/SCRATCH/220470/C37739-P1

>  <energy_score>  (154) 
-40.616781

>  <fragmenstein_error>  (154) 
None

>  <csv_name>  (154) 
RdRp_knitwork_green_site_rna_tunnel_impure_split4000_batch019.csv

>  <merge_set>  (154) 
RdRp_knitwork_green_site_rna_tunnel_impure_fragalysis.sdf

>  <original ID>  (154) 
JBUOOGSHBLXKDO-UHFFFAOYSA-N

>  <HIPPO Pose ID>  (154) 
181880

>  <fragmenstein_outcome>  (154) 
acceptable

>  <exports>  (154) 
['/opt/xchem-fragalysis-2/maxwin/BulkDock/OUTPUTS/RdRp_knitwork_green_site_rna_tunnel_impure_split4000_batch019_220470.sdf', '/opt/xchem-fragalysis-2/maxwin/BulkDock/OUTPUTS/RdRp_knitwork_green_site_rna_tunnel_impure_fragalysis.sdf']

>  <SLURM_JOB_ID>  (154) 
220470

>  <distance_score>  (154) 
0.982684

>  <original SMILES>  (154) 
CC(C)Cc1cc(C(=O)NCCc2cn3c(n2)SCC3)[nH]n1

>  <alias>  (154) 
None

>  <ref_pdb>  (154) 
d0378a

>  <inchikey>  (154) 
JBUOOGSHBLXKDO-UHFFFAOYSA-N

$$$$
DYAOPNDSHRZCDK-KRWDZBQOSA-N
     RDKit          3D

 24 26  0  0  0  0  0  0  0  0999 V2000
  -24.3029  -32.6209  -15.0289 C   0  0  0  0  0  0  0  0  0  0  0  0
  -25.0584  -31.4163  -15.5669 C   0  0  0  0  0  0  0  0  0  0  0  0
  -26.1824  -30.9883  -14.6215 C   0  0  0  0  0  0  0  0  0  0  0  0
  -26.9157  -29.7417  -15.1216 C   0  0  0  0  0  0  0  0  0  0  0  0
  -27.8302  -30.0277  -16.2922 C   0  0  0  0  0  0  0  0  0  0  0  0
  -27.5244  -29.3076  -17.5629 C   0  0  0  0  0  0  0  0  0  0  0  0
  -28.1572  -29.7479  -18.6628 C   0  0  0  0  0  0  0  0  0  0  0  0
  -27.7676  -29.3657  -19.9491 N   0  0  0  0  0  0  0  0  0  0  0  0
  -26.5839  -30.0080  -20.5757 C   0  0  2  0  0  0  0  0  0  0  0  0
  -26.3926  -29.3040  -21.9010 C   0  0  0  0  0  0  0  0  0  0  0  0
  -26.9883  -29.7847  -23.0611 C   0  0  0  0  0  0  0  0  0  0  0  0
  -26.5801  -29.2980  -24.2879 C   0  0  0  0  0  0  0  0  0  0  0  0
  -25.7506  -28.2531  -24.4115 N   0  0  0  0  0  0  0  0  0  0  0  0
  -25.3085  -27.6842  -23.2730 C   0  0  0  0  0  0  0  0  0  0  0  0
  -25.5920  -28.1645  -22.0072 C   0  0  0  0  0  0  0  0  0  0  0  0
  -26.6896  -31.5831  -20.6229 C   0  0  0  0  0  0  0  0  0  0  0  0
  -26.2630  -32.2268  -19.2880 C   0  0  0  0  0  0  0  0  0  0  0  0
  -25.8257  -32.3182  -21.6591 C   0  0  0  0  0  0  0  0  0  0  0  0
  -29.1333  -30.7644  -18.5174 N   0  0  0  0  0  0  0  0  0  0  0  0
  -29.7946  -31.4714  -19.4758 N   0  0  0  0  0  0  0  0  0  0  0  0
  -30.3163  -32.4705  -18.7684 C   0  0  0  0  0  0  0  0  0  0  0  0
  -30.1631  -32.3900  -17.4201 N   0  0  0  0  0  0  0  0  0  0  0  0
  -29.4090  -31.3234  -17.2610 C   0  0  0  0  0  0  0  0  0  0  0  0
  -28.7730  -30.9055  -16.1294 N   0  0  0  0  0  0  0  0  0  0  0  0
  1  2  1  0
  2  3  1  0
  3  4  1  0
  4  5  1  0
  5  6  1  0
  6  7  2  0
  7  8  1  0
  9  8  1  6
  9 10  1  0
 10 11  2  0
 11 12  1  0
 12 13  2  0
 13 14  1  0
 14 15  2  0
  9 16  1  0
 16 17  1  0
 16 18  1  0
  7 19  1  0
 19 20  1  0
 20 21  2  0
 21 22  1  0
 22 23  2  0
 23 24  1  0
 24  5  2  0
 15 10  1  0
 23 19  1  0
M  END
>  <fragmenstein_mode>  (155) 
expansion

>  <name>  (155) 
DYAOPNDSHRZCDK-KRWDZBQOSA-N

>  <fragmenstein_runtime>  (155) 
6.256551

>  <HIPPO Compound ID>  (155) 
35016

>  <SLURM_JOB_NAME>  (155) 
BulkDock.place:Flavi_NS5_RdRp:RdRp_knitwork_green_site_rna_tunnel_impure_split4000_batch000

>  <ref_mols>  (155) 
z0221a,z0521a

>  <Multi-SuCOS>  (155) 
0.514643

>  <tags>  (155) 
['Fragmenstein placed', 'RdRp_knitwork_green_site_rna_tunnel_impure_fragalysis.sdf Pose OK']

>  <scratch_subdir>  (155) 
/opt/xchem-fragalysis-2/maxwin/BulkDock/SCRATCH/220451/C35016-P105

>  <energy_score>  (155) 
-59.495316

>  <fragmenstein_error>  (155) 
None

>  <csv_name>  (155) 
RdRp_knitwork_green_site_rna_tunnel_impure_split4000_batch000.csv

>  <merge_set>  (155) 
RdRp_knitwork_green_site_rna_tunnel_impure_fragalysis.sdf

>  <original ID>  (155) 
DYAOPNDSHRZCDK-KRWDZBQOSA-N

>  <HIPPO Pose ID>  (155) 
181916

>  <fragmenstein_outcome>  (155) 
acceptable

>  <exports>  (155) 
['/opt/xchem-fragalysis-2/maxwin/BulkDock/OUTPUTS/RdRp_knitwork_green_site_rna_tunnel_impure_split4000_batch000_220451.sdf', '/opt/xchem-fragalysis-2/maxwin/BulkDock/OUTPUTS/RdRp_knitwork_green_site_rna_tunnel_impure_fragalysis.sdf']

>  <SLURM_JOB_ID>  (155) 
220451

>  <distance_score>  (155) 
0.880035

>  <original SMILES>  (155) 
CCCCc1cc(N[C@H](c2ccncc2)C(C)C)n2ncnc2n1

>  <alias>  (155) 
None

>  <ref_pdb>  (155) 
z0221a

>  <inchikey>  (155) 
DYAOPNDSHRZCDK-KRWDZBQOSA-N

$$$$
FRWWNOVINLYXEA-UHFFFAOYSA-N
     RDKit          3D

 26 29  0  0  0  0  0  0  0  0999 V2000
  -26.0492  -30.3828  -23.8171 O   0  0  0  0  0  0  0  0  0  0  0  0
  -25.6198  -31.1600  -23.0602 C   0  0  0  0  0  0  0  0  0  0  0  0
  -25.0611  -32.5309  -23.4733 C   0  0  0  0  0  0  0  0  0  0  0  0
  -23.6964  -32.5848  -23.0712 O   0  0  0  0  0  0  0  0  0  0  0  0
  -23.2238  -33.6745  -22.3939 C   0  0  0  0  0  0  0  0  0  0  0  0
  -23.7768  -34.9521  -22.5077 C   0  0  0  0  0  0  0  0  0  0  0  0
  -23.2334  -36.0123  -21.7944 C   0  0  0  0  0  0  0  0  0  0  0  0
  -22.1250  -35.7953  -20.9748 C   0  0  0  0  0  0  0  0  0  0  0  0
  -21.5311  -34.5284  -20.8617 C   0  0  0  0  0  0  0  0  0  0  0  0
  -20.3850  -34.3323  -20.0667 C   0  0  0  0  0  0  0  0  0  0  0  0
  -19.7675  -33.0845  -19.9909 C   0  0  0  0  0  0  0  0  0  0  0  0
  -20.2998  -32.0111  -20.6931 C   0  0  0  0  0  0  0  0  0  0  0  0
  -21.4401  -32.1902  -21.4802 C   0  0  0  0  0  0  0  0  0  0  0  0
  -22.0755  -33.4488  -21.5887 C   0  0  0  0  0  0  0  0  0  0  0  0
  -25.5389  -31.1159  -21.5118 N   0  0  0  0  0  0  0  0  0  0  0  0
  -25.8810  -30.0731  -20.5930 C   0  0  0  0  0  0  0  0  0  0  0  0
  -27.2802  -30.1530  -20.0326 C   0  0  0  0  0  0  0  0  0  0  0  0
  -28.2730  -30.0325  -20.9596 N   0  0  0  0  0  0  0  0  0  0  0  0
  -29.5413  -29.9705  -20.5253 C   0  0  0  0  0  0  0  0  0  0  0  0
  -29.8893  -30.0256  -19.1939 C   0  0  0  0  0  0  0  0  0  0  0  0
  -28.8838  -30.1483  -18.2339 C   0  0  0  0  0  0  0  0  0  0  0  0
  -29.2166  -30.1905  -16.8712 C   0  0  0  0  0  0  0  0  0  0  0  0
  -28.2302  -30.3296  -15.8989 C   0  0  0  0  0  0  0  0  0  0  0  0
  -26.8980  -30.4280  -16.2752 C   0  0  0  0  0  0  0  0  0  0  0  0
  -26.5506  -30.3741  -17.6260 C   0  0  0  0  0  0  0  0  0  0  0  0
  -27.5323  -30.2295  -18.6395 C   0  0  0  0  0  0  0  0  0  0  0  0
  1  2  2  0
  2  3  1  0
  3  4  1  0
  4  5  1  0
  5  6  2  0
  6  7  1  0
  7  8  2  0
  8  9  1  0
  9 10  2  0
 10 11  1  0
 11 12  2  0
 12 13  1  0
 13 14  2  0
  2 15  1  0
 15 16  1  0
 16 17  1  0
 17 18  2  0
 18 19  1  0
 19 20  2  0
 20 21  1  0
 21 22  2  0
 22 23  1  0
 23 24  2  0
 24 25  1  0
 25 26  2  0
 14  5  1  0
 26 17  1  0
 14  9  1  0
 26 21  1  0
M  END
>  <fragmenstein_mode>  (156) 
expansion

>  <name>  (156) 
FRWWNOVINLYXEA-UHFFFAOYSA-N

>  <fragmenstein_runtime>  (156) 
5.287586

>  <HIPPO Compound ID>  (156) 
27685

>  <SLURM_JOB_NAME>  (156) 
BulkDock.place:Flavi_NS5_RdRp:RdRp_knitwork_green_site_rna_tunnel_impure_split4000_batch007

>  <ref_mols>  (156) 
z0111a,3vws-b

>  <Multi-SuCOS>  (156) 
0.745496

>  <tags>  (156) 
['Fragmenstein placed', 'RdRp_knitwork_green_site_rna_tunnel_impure_fragalysis.sdf Pose OK']

>  <scratch_subdir>  (156) 
/opt/xchem-fragalysis-2/maxwin/BulkDock/SCRATCH/220458/C27685-P88

>  <energy_score>  (156) 
-23.59014

>  <fragmenstein_error>  (156) 
None

>  <csv_name>  (156) 
RdRp_knitwork_green_site_rna_tunnel_impure_split4000_batch007.csv

>  <merge_set>  (156) 
RdRp_knitwork_green_site_rna_tunnel_impure_fragalysis.sdf

>  <original ID>  (156) 
FRWWNOVINLYXEA-UHFFFAOYSA-N

>  <HIPPO Pose ID>  (156) 
182011

>  <fragmenstein_outcome>  (156) 
acceptable

>  <exports>  (156) 
['/opt/xchem-fragalysis-2/maxwin/BulkDock/OUTPUTS/RdRp_knitwork_green_site_rna_tunnel_impure_split4000_batch007_220458.sdf', '/opt/xchem-fragalysis-2/maxwin/BulkDock/OUTPUTS/RdRp_knitwork_green_site_rna_tunnel_impure_fragalysis.sdf']

>  <SLURM_JOB_ID>  (156) 
220458

>  <distance_score>  (156) 
0.651664

>  <original SMILES>  (156) 
O=C(COc1cccc2ccccc12)NCc1nccc2ccccc12

>  <alias>  (156) 
None

>  <ref_pdb>  (156) 
z0111a

>  <inchikey>  (156) 
FRWWNOVINLYXEA-UHFFFAOYSA-N

$$$$
GOZDBEWLGVYIRG-UHFFFAOYSA-N
     RDKit          3D

 15 17  0  0  0  0  0  0  0  0999 V2000
  -30.8472  -30.0634  -19.7282 C   0  0  0  0  0  0  0  0  0  0  0  0
  -29.9620  -30.0081  -20.7937 C   0  0  0  0  0  0  0  0  0  0  0  0
  -28.5960  -30.1385  -20.5622 C   0  0  0  0  0  0  0  0  0  0  0  0
  -28.1005  -30.2980  -19.2778 C   0  0  0  0  0  0  0  0  0  0  0  0
  -26.7931  -30.4921  -19.1085 N   0  0  0  0  0  0  0  0  0  0  0  0
  -26.3397  -30.7035  -17.8496 C   0  0  0  0  0  0  0  0  0  0  0  0
  -24.9894  -31.2215  -17.7716 C   0  0  0  0  0  0  0  0  0  0  0  0
  -24.0000  -31.0224  -16.7620 C   0  0  0  0  0  0  0  0  0  0  0  0
  -22.8714  -31.7782  -16.9978 C   0  0  0  0  0  0  0  0  0  0  0  0
  -23.0233  -32.7553  -18.3937 S   0  0  0  0  0  0  0  0  0  0  0  0
  -24.5689  -32.1309  -18.7237 C   0  0  0  0  0  0  0  0  0  0  0  0
  -27.1330  -30.6271  -16.7154 C   0  0  0  0  0  0  0  0  0  0  0  0
  -28.4889  -30.4057  -16.8935 C   0  0  0  0  0  0  0  0  0  0  0  0
  -28.9943  -30.2806  -18.1914 C   0  0  0  0  0  0  0  0  0  0  0  0
  -30.3618  -30.1663  -18.4265 C   0  0  0  0  0  0  0  0  0  0  0  0
  1  2  2  0
  2  3  1  0
  3  4  2  0
  4  5  1  0
  5  6  2  0
  6  7  1  0
  7  8  1  0
  8  9  2  0
  9 10  1  0
 10 11  1  0
  6 12  1  0
 12 13  2  0
 13 14  1  0
 14 15  2  0
 15  1  1  0
 14  4  1  0
 11  7  2  0
M  END
>  <fragmenstein_mode>  (157) 
expansion

>  <name>  (157) 
GOZDBEWLGVYIRG-UHFFFAOYSA-N

>  <fragmenstein_runtime>  (157) 
4.586236

>  <HIPPO Compound ID>  (157) 
57483

>  <SLURM_JOB_NAME>  (157) 
BulkDock.place:Flavi_NS5_RdRp:RdRp_knitwork_green_site_rna_tunnel_impure_split4000_batch009

>  <ref_mols>  (157) 
d0472b,z1040a

>  <Multi-SuCOS>  (157) 
0.699738

>  <tags>  (157) 
['Fragmenstein placed', 'RdRp_knitwork_green_site_rna_tunnel_impure_fragalysis.sdf Pose OK']

>  <scratch_subdir>  (157) 
/opt/xchem-fragalysis-2/maxwin/BulkDock/SCRATCH/220460/C57483-P208

>  <energy_score>  (157) 
-18.844092

>  <fragmenstein_error>  (157) 
None

>  <csv_name>  (157) 
RdRp_knitwork_green_site_rna_tunnel_impure_split4000_batch009.csv

>  <merge_set>  (157) 
RdRp_knitwork_green_site_rna_tunnel_impure_fragalysis.sdf

>  <original ID>  (157) 
GOZDBEWLGVYIRG-UHFFFAOYSA-N

>  <HIPPO Pose ID>  (157) 
182063

>  <fragmenstein_outcome>  (157) 
acceptable

>  <exports>  (157) 
['/opt/xchem-fragalysis-2/maxwin/BulkDock/OUTPUTS/RdRp_knitwork_green_site_rna_tunnel_impure_split4000_batch009_220460.sdf', '/opt/xchem-fragalysis-2/maxwin/BulkDock/OUTPUTS/RdRp_knitwork_green_site_rna_tunnel_impure_fragalysis.sdf']

>  <SLURM_JOB_ID>  (157) 
220460

>  <distance_score>  (157) 
0.872173

>  <original SMILES>  (157) 
c1ccc2nc(-c3ccsc3)ccc2c1

>  <alias>  (157) 
None

>  <ref_pdb>  (157) 
z1040a

>  <inchikey>  (157) 
GOZDBEWLGVYIRG-UHFFFAOYSA-N

$$$$
UAUAPCGZSAZISZ-SSDOTTSWSA-N
     RDKit          3D

 20 21  0  0  0  0  0  0  0  0999 V2000
  -21.4393  -33.1412  -23.4918 C   0  0  0  0  0  0  0  0  0  0  0  0
  -22.4106  -32.9058  -24.6417 C   0  0  2  0  0  0  0  0  0  0  0  0
  -23.9065  -33.1869  -24.3358 C   0  0  0  0  0  0  0  0  0  0  0  0
  -24.3906  -32.7318  -23.0329 N   0  0  0  0  0  0  0  0  0  0  0  0
  -24.2559  -33.5384  -21.8462 C   0  0  0  0  0  0  0  0  0  0  0  0
  -24.7624  -32.5936  -20.7829 C   0  0  0  0  0  0  0  0  0  0  0  0
  -24.7378  -32.8317  -19.5828 O   0  0  0  0  0  0  0  0  0  0  0  0
  -25.2480  -31.4731  -21.3869 N   0  0  0  0  0  0  0  0  0  0  0  0
  -25.5268  -30.2636  -20.6584 C   0  0  0  0  0  0  0  0  0  0  0  0
  -26.7780  -30.3095  -19.8543 C   0  0  0  0  0  0  0  0  0  0  0  0
  -26.9466  -30.5586  -18.5059 C   0  0  0  0  0  0  0  0  0  0  0  0
  -28.3060  -30.3739  -18.1320 C   0  0  0  0  0  0  0  0  0  0  0  0
  -29.1508  -30.0268  -19.0974 N   0  0  0  0  0  0  0  0  0  0  0  0
  -28.2928  -29.8795  -20.5122 S   0  0  0  0  0  0  0  0  0  0  0  0
  -24.9837  -31.5025  -22.7362 C   0  0  0  0  0  0  0  0  0  0  0  0
  -25.2276  -30.6058  -23.5276 O   0  0  0  0  0  0  0  0  0  0  0  0
  -21.9154  -33.5498  -25.8297 O   0  0  0  0  0  0  0  0  0  0  0  0
  -22.1105  -34.9479  -25.8975 C   0  0  0  0  0  0  0  0  0  0  0  0
  -21.1045  -35.4634  -26.6453 F   0  0  0  0  0  0  0  0  0  0  0  0
  -23.2648  -35.1736  -26.5654 F   0  0  0  0  0  0  0  0  0  0  0  0
  2  1  1  1
  2  3  1  0
  3  4  1  0
  4  5  1  0
  5  6  1  0
  6  7  2  0
  6  8  1  0
  8  9  1  0
  9 10  1  0
 10 11  2  0
 11 12  1  0
 12 13  2  0
 13 14  1  0
  8 15  1  0
 15 16  2  0
  2 17  1  0
 17 18  1  0
 18 19  1  0
 18 20  1  0
 15  4  1  0
 14 10  1  0
M  END
>  <fragmenstein_mode>  (158) 
expansion

>  <name>  (158) 
UAUAPCGZSAZISZ-SSDOTTSWSA-N

>  <fragmenstein_runtime>  (158) 
2.390046

>  <HIPPO Compound ID>  (158) 
40580

>  <SLURM_JOB_NAME>  (158) 
BulkDock.place:Flavi_NS5_RdRp:RdRp_knitwork_green_site_rna_tunnel_impure_split4000_batch012

>  <ref_mols>  (158) 
z0411a,z0519a

>  <Multi-SuCOS>  (158) 
0.570634

>  <tags>  (158) 
['Fragmenstein placed', 'RdRp_knitwork_green_site_rna_tunnel_impure_fragalysis.sdf Pose OK']

>  <scratch_subdir>  (158) 
/opt/xchem-fragalysis-2/maxwin/BulkDock/SCRATCH/220463/C40580-P140

>  <energy_score>  (158) 
-58.344525

>  <fragmenstein_error>  (158) 
None

>  <csv_name>  (158) 
RdRp_knitwork_green_site_rna_tunnel_impure_split4000_batch012.csv

>  <merge_set>  (158) 
RdRp_knitwork_green_site_rna_tunnel_impure_fragalysis.sdf

>  <original ID>  (158) 
UAUAPCGZSAZISZ-SSDOTTSWSA-N

>  <HIPPO Pose ID>  (158) 
182170

>  <fragmenstein_outcome>  (158) 
acceptable

>  <exports>  (158) 
['/opt/xchem-fragalysis-2/maxwin/BulkDock/OUTPUTS/RdRp_knitwork_green_site_rna_tunnel_impure_split4000_batch012_220463.sdf', '/opt/xchem-fragalysis-2/maxwin/BulkDock/OUTPUTS/RdRp_knitwork_green_site_rna_tunnel_impure_fragalysis.sdf']

>  <SLURM_JOB_ID>  (158) 
220463

>  <distance_score>  (158) 
0.84068

>  <original SMILES>  (158) 
C[C@H](CN1CC(=O)N(Cc2ccns2)C1=O)OC(F)F

>  <alias>  (158) 
None

>  <ref_pdb>  (158) 
z0519a

>  <inchikey>  (158) 
UAUAPCGZSAZISZ-SSDOTTSWSA-N

$$$$
ZOPZYWPRKRGGTC-UHFFFAOYSA-N
     RDKit          3D

 14 15  0  0  0  0  0  0  0  0999 V2000
  -27.3698  -30.7621  -20.6509 C   0  0  0  0  0  0  0  0  0  0  0  0
  -28.8706  -29.8830  -20.2618 S   0  0  0  0  0  0  0  0  0  0  0  0
  -28.8261  -28.6430  -20.9991 O   0  0  0  0  0  0  0  0  0  0  0  0
  -29.9721  -30.8039  -20.4529 O   0  0  0  0  0  0  0  0  0  0  0  0
  -28.7092  -29.5480  -18.6018 N   0  0  0  0  0  0  0  0  0  0  0  0
  -29.5896  -30.3370  -17.7115 C   0  0  0  0  0  0  0  0  0  0  0  0
  -29.1966  -30.2274  -16.2469 C   0  0  0  0  0  0  0  0  0  0  0  0
  -27.7169  -30.5322  -16.0764 C   0  0  0  0  0  0  0  0  0  0  0  0
  -26.9211  -29.5765  -16.9181 C   0  0  0  0  0  0  0  0  0  0  0  0
  -25.6488  -29.1895  -16.4976 C   0  0  0  0  0  0  0  0  0  0  0  0
  -24.9381  -28.2425  -17.2266 C   0  0  0  0  0  0  0  0  0  0  0  0
  -25.4791  -27.6695  -18.3713 C   0  0  0  0  0  0  0  0  0  0  0  0
  -26.7377  -28.0717  -18.8054 C   0  0  0  0  0  0  0  0  0  0  0  0
  -27.4452  -29.0623  -18.1153 C   0  0  0  0  0  0  0  0  0  0  0  0
  1  2  1  0
  2  3  2  0
  2  4  2  0
  2  5  1  0
  5  6  1  0
  6  7  1  0
  7  8  1  0
  8  9  1  0
  9 10  2  0
 10 11  1  0
 11 12  2  0
 12 13  1  0
 13 14  2  0
 14  5  1  0
 14  9  1  0
M  END
>  <fragmenstein_mode>  (159) 
expansion

>  <name>  (159) 
ZOPZYWPRKRGGTC-UHFFFAOYSA-N

>  <fragmenstein_runtime>  (159) 
1.919771

>  <HIPPO Compound ID>  (159) 
61134

>  <SLURM_JOB_NAME>  (159) 
BulkDock.place:Flavi_NS5_RdRp:RdRp_knitwork_green_site_rna_tunnel_impure_split4000_batch007

>  <ref_mols>  (159) 
z0165a,z0628a

>  <Multi-SuCOS>  (159) 
0.765545

>  <tags>  (159) 
['Fragmenstein placed', 'RdRp_knitwork_green_site_rna_tunnel_impure_fragalysis.sdf Pose OK']

>  <scratch_subdir>  (159) 
/opt/xchem-fragalysis-2/maxwin/BulkDock/SCRATCH/220458/C61134-P3

>  <energy_score>  (159) 
-32.921421

>  <fragmenstein_error>  (159) 
None

>  <csv_name>  (159) 
RdRp_knitwork_green_site_rna_tunnel_impure_split4000_batch007.csv

>  <merge_set>  (159) 
RdRp_knitwork_green_site_rna_tunnel_impure_fragalysis.sdf

>  <original ID>  (159) 
ZOPZYWPRKRGGTC-UHFFFAOYSA-N

>  <HIPPO Pose ID>  (159) 
183500

>  <fragmenstein_outcome>  (159) 
acceptable

>  <exports>  (159) 
['/opt/xchem-fragalysis-2/maxwin/BulkDock/OUTPUTS/RdRp_knitwork_green_site_rna_tunnel_impure_split4000_batch007_220458.sdf', '/opt/xchem-fragalysis-2/maxwin/BulkDock/OUTPUTS/RdRp_knitwork_green_site_rna_tunnel_impure_fragalysis.sdf']

>  <SLURM_JOB_ID>  (159) 
220458

>  <distance_score>  (159) 
0.829974

>  <original SMILES>  (159) 
CS(=O)(=O)N1CCCc2ccccc21

>  <alias>  (159) 
None

>  <ref_pdb>  (159) 
z0165a

>  <inchikey>  (159) 
ZOPZYWPRKRGGTC-UHFFFAOYSA-N

$$$$
YSLWXKCPGGRUHP-SNVBAGLBSA-N
     RDKit          3D

 17 18  0  0  0  0  0  0  0  0999 V2000
  -27.3761  -29.3351  -21.7162 C   0  0  0  0  0  0  0  0  0  0  0  0
  -27.4669  -30.4557  -20.7122 C   0  0  2  0  0  0  0  0  0  0  0  0
  -27.3816  -31.8411  -21.3271 C   0  0  0  0  0  0  0  0  0  0  0  0
  -27.2672  -31.9157  -23.1098 Cl  0  0  0  0  0  0  0  0  0  0  0  0
  -29.0182  -30.2152  -19.7873 S   0  0  0  0  0  0  0  0  0  0  0  0
  -29.8310  -31.4094  -19.8761 O   0  0  0  0  0  0  0  0  0  0  0  0
  -29.5776  -28.9521  -20.2076 O   0  0  0  0  0  0  0  0  0  0  0  0
  -28.5337  -30.0595  -18.1880 N   0  0  0  0  0  0  0  0  0  0  0  0
  -29.5469  -30.2874  -17.1330 C   0  0  0  0  0  0  0  0  0  0  0  0
  -28.8976  -30.4488  -15.7496 C   0  0  0  0  0  0  0  0  0  0  0  0
  -27.4116  -30.8117  -15.8185 C   0  0  0  0  0  0  0  0  0  0  0  0
  -26.7191  -29.7781  -16.6628 C   0  0  0  0  0  0  0  0  0  0  0  0
  -25.4708  -29.2672  -16.3333 C   0  0  0  0  0  0  0  0  0  0  0  0
  -24.9217  -28.2556  -17.1174 C   0  0  0  0  0  0  0  0  0  0  0  0
  -25.6223  -27.7145  -18.1924 C   0  0  0  0  0  0  0  0  0  0  0  0
  -26.8745  -28.2254  -18.5128 C   0  0  0  0  0  0  0  0  0  0  0  0
  -27.3756  -29.3167  -17.8094 C   0  0  0  0  0  0  0  0  0  0  0  0
  2  1  1  6
  2  3  1  0
  3  4  1  0
  2  5  1  0
  5  6  2  0
  5  7  2  0
  5  8  1  0
  8  9  1  0
  9 10  1  0
 10 11  1  0
 11 12  1  0
 12 13  2  0
 13 14  1  0
 14 15  2  0
 15 16  1  0
 16 17  2  0
 17  8  1  0
 17 12  1  0
M  END
>  <fragmenstein_mode>  (160) 
expansion

>  <name>  (160) 
YSLWXKCPGGRUHP-SNVBAGLBSA-N

>  <fragmenstein_runtime>  (160) 
2.035602

>  <HIPPO Compound ID>  (160) 
61200

>  <SLURM_JOB_NAME>  (160) 
BulkDock.place:Flavi_NS5_RdRp:RdRp_knitwork_green_site_rna_tunnel_impure_split4000_batch007

>  <ref_mols>  (160) 
z0165a,z0628a

>  <Multi-SuCOS>  (160) 
0.590494

>  <tags>  (160) 
['Fragmenstein placed', 'RdRp_knitwork_green_site_rna_tunnel_impure_fragalysis.sdf Pose OK']

>  <scratch_subdir>  (160) 
/opt/xchem-fragalysis-2/maxwin/BulkDock/SCRATCH/220458/C61200-P3

>  <energy_score>  (160) 
-49.822753

>  <fragmenstein_error>  (160) 
None

>  <csv_name>  (160) 
RdRp_knitwork_green_site_rna_tunnel_impure_split4000_batch007.csv

>  <merge_set>  (160) 
RdRp_knitwork_green_site_rna_tunnel_impure_fragalysis.sdf

>  <original ID>  (160) 
YSLWXKCPGGRUHP-SNVBAGLBSA-N

>  <HIPPO Pose ID>  (160) 
183615

>  <fragmenstein_outcome>  (160) 
acceptable

>  <exports>  (160) 
['/opt/xchem-fragalysis-2/maxwin/BulkDock/OUTPUTS/RdRp_knitwork_green_site_rna_tunnel_impure_split4000_batch007_220458.sdf', '/opt/xchem-fragalysis-2/maxwin/BulkDock/OUTPUTS/RdRp_knitwork_green_site_rna_tunnel_impure_fragalysis.sdf']

>  <SLURM_JOB_ID>  (160) 
220458

>  <distance_score>  (160) 
0.957587

>  <original SMILES>  (160) 
C[C@H](CCl)S(=O)(=O)N1CCCc2ccccc21

>  <alias>  (160) 
None

>  <ref_pdb>  (160) 
z0165a

>  <inchikey>  (160) 
YSLWXKCPGGRUHP-SNVBAGLBSA-N

$$$$
YSLWXKCPGGRUHP-SNVBAGLBSA-N
     RDKit          3D

 17 18  0  0  0  0  0  0  0  0999 V2000
  -26.5179  -29.6576  -21.6283 C   0  0  0  0  0  0  0  0  0  0  0  0
  -26.9157  -30.5782  -20.4680 C   0  0  2  0  0  0  0  0  0  0  0  0
  -26.5904  -32.0605  -20.6479 C   0  0  0  0  0  0  0  0  0  0  0  0
  -25.6262  -32.4331  -22.1041 Cl  0  0  0  0  0  0  0  0  0  0  0  0
  -28.6921  -30.3603  -20.0384 S   0  0  0  0  0  0  0  0  0  0  0  0
  -29.3263  -31.6543  -19.9454 O   0  0  0  0  0  0  0  0  0  0  0  0
  -29.2354  -29.3413  -20.9118 O   0  0  0  0  0  0  0  0  0  0  0  0
  -28.6855  -29.7572  -18.4449 N   0  0  0  0  0  0  0  0  0  0  0  0
  -29.1552  -30.7138  -17.4012 C   0  0  0  0  0  0  0  0  0  0  0  0
  -28.7466  -30.2754  -16.0041 C   0  0  0  0  0  0  0  0  0  0  0  0
  -27.2359  -30.0896  -15.9787 C   0  0  0  0  0  0  0  0  0  0  0  0
  -26.8471  -29.0686  -17.0101 C   0  0  0  0  0  0  0  0  0  0  0  0
  -25.6998  -28.3052  -16.8555 C   0  0  0  0  0  0  0  0  0  0  0  0
  -25.3875  -27.2954  -17.7786 C   0  0  0  0  0  0  0  0  0  0  0  0
  -26.2160  -27.0234  -18.8505 C   0  0  0  0  0  0  0  0  0  0  0  0
  -27.3664  -27.7742  -19.0009 C   0  0  0  0  0  0  0  0  0  0  0  0
  -27.6435  -28.8361  -18.1320 C   0  0  0  0  0  0  0  0  0  0  0  0
  2  1  1  6
  2  3  1  0
  3  4  1  0
  2  5  1  0
  5  6  2  0
  5  7  2  0
  5  8  1  0
  8  9  1  0
  9 10  1  0
 10 11  1  0
 11 12  1  0
 12 13  2  0
 13 14  1  0
 14 15  2  0
 15 16  1  0
 16 17  2  0
 17  8  1  0
 17 12  1  0
M  END
>  <fragmenstein_mode>  (161) 
expansion

>  <name>  (161) 
YSLWXKCPGGRUHP-SNVBAGLBSA-N

>  <fragmenstein_runtime>  (161) 
1.768852

>  <HIPPO Compound ID>  (161) 
61200

>  <SLURM_JOB_NAME>  (161) 
BulkDock.place:Flavi_NS5_RdRp:RdRp_knitwork_green_site_rna_tunnel_impure_split4000_batch007

>  <ref_mols>  (161) 
z0165a,z0628a

>  <Multi-SuCOS>  (161) 
0.548753

>  <tags>  (161) 
['Fragmenstein placed', 'RdRp_knitwork_green_site_rna_tunnel_impure_fragalysis.sdf Pose OK']

>  <scratch_subdir>  (161) 
/opt/xchem-fragalysis-2/maxwin/BulkDock/SCRATCH/220458/C61200-P150

>  <energy_score>  (161) 
-53.976505

>  <fragmenstein_error>  (161) 
None

>  <csv_name>  (161) 
RdRp_knitwork_green_site_rna_tunnel_impure_split4000_batch007.csv

>  <merge_set>  (161) 
RdRp_knitwork_green_site_rna_tunnel_impure_fragalysis.sdf

>  <original ID>  (161) 
YSLWXKCPGGRUHP-SNVBAGLBSA-N

>  <HIPPO Pose ID>  (161) 
183619

>  <fragmenstein_outcome>  (161) 
acceptable

>  <exports>  (161) 
['/opt/xchem-fragalysis-2/maxwin/BulkDock/OUTPUTS/RdRp_knitwork_green_site_rna_tunnel_impure_split4000_batch007_220458.sdf', '/opt/xchem-fragalysis-2/maxwin/BulkDock/OUTPUTS/RdRp_knitwork_green_site_rna_tunnel_impure_fragalysis.sdf']

>  <SLURM_JOB_ID>  (161) 
220458

>  <distance_score>  (161) 
0.994284

>  <original SMILES>  (161) 
C[C@H](CCl)S(=O)(=O)N1CCCc2ccccc21

>  <alias>  (161) 
None

>  <ref_pdb>  (161) 
z0628a

>  <inchikey>  (161) 
YSLWXKCPGGRUHP-SNVBAGLBSA-N

$$$$
XDTRPVIWWKMHJI-GOSISDBHSA-N
     RDKit          3D

 27 30  0  0  0  0  0  0  0  0999 V2000
  -25.3564  -30.2375  -15.8986 C   0  0  0  0  0  0  0  0  0  0  0  0
  -26.5275  -29.4336  -15.8665 O   0  0  0  0  0  0  0  0  0  0  0  0
  -27.3905  -29.5896  -16.9269 C   0  0  0  0  0  0  0  0  0  0  0  0
  -28.7423  -29.3544  -16.6564 C   0  0  0  0  0  0  0  0  0  0  0  0
  -29.7219  -29.5503  -17.6295 C   0  0  0  0  0  0  0  0  0  0  0  0
  -29.3810  -29.9128  -18.9359 C   0  0  0  0  0  0  0  0  0  0  0  0
  -28.0283  -30.1431  -19.2286 C   0  0  0  0  0  0  0  0  0  0  0  0
  -27.3170  -30.5878  -20.3662 C   0  0  0  0  0  0  0  0  0  0  0  0
  -26.0010  -30.7722  -19.9806 C   0  0  0  0  0  0  0  0  0  0  0  0
  -24.8267  -31.3254  -20.6461 C   0  0  0  0  0  0  0  0  0  0  0  0
  -23.8872  -31.6186  -20.0263 O   0  0  0  0  0  0  0  0  0  0  0  0
  -25.0845  -31.3996  -22.1596 N   0  0  0  0  0  0  0  0  0  0  0  0
  -24.2766  -31.9380  -23.2189 C   0  0  0  0  0  0  0  0  0  0  0  0
  -24.1640  -33.4714  -23.1708 C   0  0  1  0  0  0  0  0  0  0  0  0
  -23.9628  -33.9403  -24.5058 O   0  0  0  0  0  0  0  0  0  0  0  0
  -23.2658  -34.2596  -22.2239 C   0  0  0  0  0  0  0  0  0  0  0  0
  -23.7881  -35.5399  -21.9030 C   0  0  0  0  0  0  0  0  0  0  0  0
  -23.1294  -36.4211  -21.0636 C   0  0  0  0  0  0  0  0  0  0  0  0
  -21.9167  -36.0435  -20.5103 C   0  0  0  0  0  0  0  0  0  0  0  0
  -21.3387  -34.8030  -20.8080 C   0  0  0  0  0  0  0  0  0  0  0  0
  -20.1021  -34.4874  -20.2170 C   0  0  0  0  0  0  0  0  0  0  0  0
  -19.4642  -33.2812  -20.4790 C   0  0  0  0  0  0  0  0  0  0  0  0
  -20.0499  -32.3899  -21.3601 C   0  0  0  0  0  0  0  0  0  0  0  0
  -21.2698  -32.7021  -21.9732 C   0  0  0  0  0  0  0  0  0  0  0  0
  -21.9853  -33.8927  -21.6956 C   0  0  0  0  0  0  0  0  0  0  0  0
  -25.8522  -30.3546  -18.6869 O   0  0  0  0  0  0  0  0  0  0  0  0
  -27.0782  -29.9948  -18.2236 C   0  0  0  0  0  0  0  0  0  0  0  0
  1  2  1  0
  2  3  1  0
  3  4  2  0
  4  5  1  0
  5  6  2  0
  6  7  1  0
  7  8  1  0
  8  9  2  0
  9 10  1  0
 10 11  2  0
 10 12  1  0
 12 13  1  0
 13 14  1  0
 14 15  1  6
 14 16  1  0
 16 17  2  0
 17 18  1  0
 18 19  2  0
 19 20  1  0
 20 21  2  0
 21 22  1  0
 22 23  2  0
 23 24  1  0
 24 25  2  0
  9 26  1  0
 26 27  1  0
 27  3  1  0
 27  7  2  0
 25 16  1  0
 25 20  1  0
M  END
>  <fragmenstein_mode>  (162) 
expansion

>  <name>  (162) 
XDTRPVIWWKMHJI-GOSISDBHSA-N

>  <fragmenstein_runtime>  (162) 
9.812205

>  <HIPPO Compound ID>  (162) 
30332

>  <SLURM_JOB_NAME>  (162) 
BulkDock.place:Flavi_NS5_RdRp:RdRp_knitwork_green_site_rna_tunnel_impure_split4000_batch002

>  <ref_mols>  (162) 
z0041a,3vws-b

>  <Multi-SuCOS>  (162) 
0.668904

>  <tags>  (162) 
['Fragmenstein placed', 'RdRp_knitwork_green_site_rna_tunnel_impure_fragalysis.sdf Pose OK']

>  <scratch_subdir>  (162) 
/opt/xchem-fragalysis-2/maxwin/BulkDock/SCRATCH/220453/C30332-P82

>  <energy_score>  (162) 
-80.163628

>  <fragmenstein_error>  (162) 
None

>  <csv_name>  (162) 
RdRp_knitwork_green_site_rna_tunnel_impure_split4000_batch002.csv

>  <merge_set>  (162) 
RdRp_knitwork_green_site_rna_tunnel_impure_fragalysis.sdf

>  <original ID>  (162) 
XDTRPVIWWKMHJI-GOSISDBHSA-N

>  <HIPPO Pose ID>  (162) 
183982

>  <fragmenstein_outcome>  (162) 
acceptable

>  <exports>  (162) 
['/opt/xchem-fragalysis-2/maxwin/BulkDock/OUTPUTS/RdRp_knitwork_green_site_rna_tunnel_impure_split4000_batch002_220453.sdf', '/opt/xchem-fragalysis-2/maxwin/BulkDock/OUTPUTS/RdRp_knitwork_green_site_rna_tunnel_impure_fragalysis.sdf']

>  <SLURM_JOB_ID>  (162) 
220453

>  <distance_score>  (162) 
0.815945

>  <original SMILES>  (162) 
COc1cccc2cc(C(=O)NC[C@@H](O)c3cccc4ccccc34)oc12

>  <alias>  (162) 
None

>  <ref_pdb>  (162) 
z0041a

>  <inchikey>  (162) 
XDTRPVIWWKMHJI-GOSISDBHSA-N

$$$$
YTMLZNPBXCZNOT-HNNXBMFYSA-N
     RDKit          3D

 26 29  0  0  0  0  0  0  0  0999 V2000
  -25.7190  -30.4573  -15.5863 C   0  0  0  0  0  0  0  0  0  0  0  0
  -26.3037  -29.2794  -16.1326 O   0  0  0  0  0  0  0  0  0  0  0  0
  -27.2491  -29.5662  -17.0798 C   0  0  0  0  0  0  0  0  0  0  0  0
  -28.5940  -29.3170  -16.8025 C   0  0  0  0  0  0  0  0  0  0  0  0
  -29.5769  -29.5609  -17.7636 C   0  0  0  0  0  0  0  0  0  0  0  0
  -29.2407  -29.9838  -19.0569 C   0  0  0  0  0  0  0  0  0  0  0  0
  -27.8891  -30.2345  -19.3465 C   0  0  0  0  0  0  0  0  0  0  0  0
  -27.1666  -30.7217  -20.4634 C   0  0  0  0  0  0  0  0  0  0  0  0
  -25.8491  -30.8829  -20.0658 C   0  0  0  0  0  0  0  0  0  0  0  0
  -24.6567  -31.4437  -20.6991 C   0  0  0  0  0  0  0  0  0  0  0  0
  -23.7227  -31.6940  -20.0525 O   0  0  0  0  0  0  0  0  0  0  0  0
  -24.8864  -31.5816  -22.2139 N   0  0  0  0  0  0  0  0  0  0  0  0
  -23.9781  -31.9695  -23.2704 C   0  0  0  0  0  0  0  0  0  0  0  0
  -23.7429  -33.4853  -23.3646 C   0  0  2  0  0  0  0  0  0  0  0  0
  -25.0582  -34.0760  -23.4766 O   0  0  0  0  0  0  0  0  0  0  0  0
  -22.9339  -34.1730  -22.2785 C   0  0  0  0  0  0  0  0  0  0  0  0
  -23.2821  -35.4230  -21.7884 C   0  0  0  0  0  0  0  0  0  0  0  0
  -22.2228  -36.0239  -20.6114 S   0  0  0  0  0  0  0  0  0  0  0  0
  -21.2084  -34.6476  -20.7275 C   0  0  0  0  0  0  0  0  0  0  0  0
  -20.0225  -34.4372  -19.9924 C   0  0  0  0  0  0  0  0  0  0  0  0
  -19.3067  -33.2585  -20.1766 C   0  0  0  0  0  0  0  0  0  0  0  0
  -19.7491  -32.3202  -21.0905 C   0  0  0  0  0  0  0  0  0  0  0  0
  -20.9016  -32.5524  -21.8502 C   0  0  0  0  0  0  0  0  0  0  0  0
  -21.6866  -33.7217  -21.6658 C   0  0  0  0  0  0  0  0  0  0  0  0
  -25.7104  -30.4076  -18.7883 O   0  0  0  0  0  0  0  0  0  0  0  0
  -26.9414  -30.0393  -18.3512 C   0  0  0  0  0  0  0  0  0  0  0  0
  1  2  1  0
  2  3  1  0
  3  4  2  0
  4  5  1  0
  5  6  2  0
  6  7  1  0
  7  8  1  0
  8  9  2  0
  9 10  1  0
 10 11  2  0
 10 12  1  0
 12 13  1  0
 13 14  1  0
 14 15  1  1
 14 16  1  0
 16 17  2  0
 17 18  1  0
 18 19  1  0
 19 20  2  0
 20 21  1  0
 21 22  2  0
 22 23  1  0
 23 24  2  0
  9 25  1  0
 25 26  1  0
 26  3  1  0
 26  7  2  0
 24 16  1  0
 24 19  1  0
M  END
>  <fragmenstein_mode>  (163) 
expansion

>  <name>  (163) 
YTMLZNPBXCZNOT-HNNXBMFYSA-N

>  <fragmenstein_runtime>  (163) 
4.848889

>  <HIPPO Compound ID>  (163) 
30406

>  <SLURM_JOB_NAME>  (163) 
BulkDock.place:Flavi_NS5_RdRp:RdRp_knitwork_green_site_rna_tunnel_impure_split4000_batch002

>  <ref_mols>  (163) 
z0041a,3vws-b

>  <Multi-SuCOS>  (163) 
0.721797

>  <tags>  (163) 
['Fragmenstein placed', 'RdRp_knitwork_green_site_rna_tunnel_impure_fragalysis.sdf Pose OK']

>  <scratch_subdir>  (163) 
/opt/xchem-fragalysis-2/maxwin/BulkDock/SCRATCH/220453/C30406-P82

>  <energy_score>  (163) 
-41.023354

>  <fragmenstein_error>  (163) 
None

>  <csv_name>  (163) 
RdRp_knitwork_green_site_rna_tunnel_impure_split4000_batch002.csv

>  <merge_set>  (163) 
RdRp_knitwork_green_site_rna_tunnel_impure_fragalysis.sdf

>  <original ID>  (163) 
YTMLZNPBXCZNOT-HNNXBMFYSA-N

>  <HIPPO Pose ID>  (163) 
184011

>  <fragmenstein_outcome>  (163) 
acceptable

>  <exports>  (163) 
['/opt/xchem-fragalysis-2/maxwin/BulkDock/OUTPUTS/RdRp_knitwork_green_site_rna_tunnel_impure_split4000_batch002_220453.sdf', '/opt/xchem-fragalysis-2/maxwin/BulkDock/OUTPUTS/RdRp_knitwork_green_site_rna_tunnel_impure_fragalysis.sdf']

>  <SLURM_JOB_ID>  (163) 
220453

>  <distance_score>  (163) 
0.842008

>  <original SMILES>  (163) 
COc1cccc2cc(C(=O)NC[C@H](O)c3csc4ccccc34)oc12

>  <alias>  (163) 
None

>  <ref_pdb>  (163) 
z0041a

>  <inchikey>  (163) 
YTMLZNPBXCZNOT-HNNXBMFYSA-N

$$$$
OYDDVOOIYHGOBN-UHFFFAOYSA-N
     RDKit          3D

 15 15  0  0  0  0  0  0  0  0999 V2000
  -27.2683  -31.8181  -21.1042 O   0  0  0  0  0  0  0  0  0  0  0  0
  -26.3509  -31.0566  -20.8258 C   0  0  0  0  0  0  0  0  0  0  0  0
  -24.9337  -31.4955  -20.5588 C   0  0  0  0  0  0  0  0  0  0  0  0
  -24.6144  -31.2906  -19.0791 C   0  0  0  0  0  0  0  0  0  0  0  0
  -23.2901  -31.8500  -18.6615 C   0  0  0  0  0  0  0  0  0  0  0  0
  -23.0820  -32.4015  -17.4604 C   0  0  0  0  0  0  0  0  0  0  0  0
  -21.4419  -33.0427  -16.8875 Br  0  0  0  0  0  0  0  0  0  0  0  0
  -26.4864  -29.7151  -20.6536 O   0  0  0  0  0  0  0  0  0  0  0  0
  -27.8202  -29.3021  -20.3124 C   0  0  0  0  0  0  0  0  0  0  0  0
  -28.0760  -29.5137  -18.8328 C   0  0  0  0  0  0  0  0  0  0  0  0
  -29.3706  -29.6363  -18.3456 C   0  0  0  0  0  0  0  0  0  0  0  0
  -29.5648  -29.7491  -16.9705 C   0  0  0  0  0  0  0  0  0  0  0  0
  -28.4708  -29.7646  -16.1193 C   0  0  0  0  0  0  0  0  0  0  0  0
  -27.2155  -29.6810  -16.6842 C   0  0  0  0  0  0  0  0  0  0  0  0
  -27.0013  -29.5272  -18.0050 N   0  0  0  0  0  0  0  0  0  0  0  0
  1  2  2  0
  2  3  1  0
  3  4  1  0
  4  5  1  0
  5  6  2  3
  6  7  1  0
  2  8  1  0
  8  9  1  0
  9 10  1  0
 10 11  2  0
 11 12  1  0
 12 13  2  0
 13 14  1  0
 14 15  2  0
 15 10  1  0
M  END
>  <fragmenstein_mode>  (164) 
expansion

>  <name>  (164) 
OYDDVOOIYHGOBN-UHFFFAOYSA-N

>  <fragmenstein_runtime>  (164) 
6.280342

>  <HIPPO Compound ID>  (164) 
51012

>  <SLURM_JOB_NAME>  (164) 
BulkDock.place:Flavi_NS5_RdRp:RdRp_knitwork_green_site_rna_tunnel_impure_split4000_batch005

>  <ref_mols>  (164) 
z0628a,z0637a

>  <Multi-SuCOS>  (164) 
0.626634

>  <tags>  (164) 
['Fragmenstein placed', 'RdRp_knitwork_green_site_rna_tunnel_impure_fragalysis.sdf Pose OK']

>  <scratch_subdir>  (164) 
/opt/xchem-fragalysis-2/maxwin/BulkDock/SCRATCH/220456/C51012-P151

>  <energy_score>  (164) 
-25.311146

>  <fragmenstein_error>  (164) 
None

>  <csv_name>  (164) 
RdRp_knitwork_green_site_rna_tunnel_impure_split4000_batch005.csv

>  <merge_set>  (164) 
RdRp_knitwork_green_site_rna_tunnel_impure_fragalysis.sdf

>  <original ID>  (164) 
OYDDVOOIYHGOBN-UHFFFAOYSA-N

>  <HIPPO Pose ID>  (164) 
184176

>  <fragmenstein_outcome>  (164) 
acceptable

>  <exports>  (164) 
['/opt/xchem-fragalysis-2/maxwin/BulkDock/OUTPUTS/RdRp_knitwork_green_site_rna_tunnel_impure_split4000_batch005_220456.sdf', '/opt/xchem-fragalysis-2/maxwin/BulkDock/OUTPUTS/RdRp_knitwork_green_site_rna_tunnel_impure_fragalysis.sdf']

>  <SLURM_JOB_ID>  (164) 
220456

>  <distance_score>  (164) 
0.762909

>  <original SMILES>  (164) 
O=C(CCC=CBr)OCc1ccccn1

>  <alias>  (164) 
None

>  <ref_pdb>  (164) 
z0637a

>  <inchikey>  (164) 
OYDDVOOIYHGOBN-UHFFFAOYSA-N

$$$$
FDOUBSCAUCWCMK-UHFFFAOYSA-N
     RDKit          3D

 21 21  0  0  0  0  0  0  0  0999 V2000
  -24.0952  -35.0513  -23.4502 C   0  0  0  0  0  0  0  0  0  0  0  0
  -23.2231  -33.8055  -23.4619 C   0  0  0  0  0  0  0  0  0  0  0  0
  -23.8194  -32.6388  -22.6724 C   0  0  0  0  0  0  0  0  0  0  0  0
  -23.9530  -32.9274  -21.1772 C   0  0  0  0  0  0  0  0  0  0  0  0
  -24.3765  -31.6876  -20.4720 N   0  0  0  0  0  0  0  0  0  0  0  0
  -23.4713  -31.3479  -19.3184 C   0  0  0  0  0  0  0  0  0  0  0  0
  -23.5677  -32.2895  -18.1063 C   0  0  0  0  0  0  0  0  0  0  0  0
  -22.2405  -32.5460  -17.3888 C   0  0  0  0  0  0  0  0  0  0  0  0
  -21.3507  -33.5171  -18.1441 C   0  0  0  0  0  0  0  0  0  0  0  0
  -26.0258  -31.4840  -20.2437 S   0  0  0  0  0  0  0  0  0  0  0  0
  -26.2492  -31.6336  -18.8308 O   0  0  0  0  0  0  0  0  0  0  0  0
  -26.7585  -32.2617  -21.2229 O   0  0  0  0  0  0  0  0  0  0  0  0
  -26.3217  -29.8670  -20.6546 N   0  0  0  0  0  0  0  0  0  0  0  0
  -26.1314  -29.6780  -22.1165 C   0  0  0  0  0  0  0  0  0  0  0  0
  -27.6835  -29.3801  -20.2305 C   0  0  0  0  0  0  0  0  0  0  0  0
  -28.0469  -29.4562  -18.7603 C   0  0  0  0  0  0  0  0  0  0  0  0
  -29.3718  -29.6702  -18.3740 C   0  0  0  0  0  0  0  0  0  0  0  0
  -29.6679  -29.7990  -17.0229 C   0  0  0  0  0  0  0  0  0  0  0  0
  -28.7547  -29.7720  -16.0354 N   0  0  0  0  0  0  0  0  0  0  0  0
  -27.4805  -29.6007  -16.4317 C   0  0  0  0  0  0  0  0  0  0  0  0
  -27.0965  -29.3555  -17.7419 C   0  0  0  0  0  0  0  0  0  0  0  0
  1  2  1  0
  2  3  1  0
  3  4  1  0
  4  5  1  0
  5  6  1  0
  6  7  1  0
  7  8  1  0
  8  9  1  0
  5 10  1  0
 10 11  2  0
 10 12  2  0
 10 13  1  0
 13 14  1  0
 13 15  1  0
 15 16  1  0
 16 17  2  0
 17 18  1  0
 18 19  2  0
 19 20  1  0
 20 21  2  0
 21 16  1  0
M  END
>  <fragmenstein_mode>  (165) 
expansion

>  <name>  (165) 
FDOUBSCAUCWCMK-UHFFFAOYSA-N

>  <fragmenstein_runtime>  (165) 
226.975065

>  <HIPPO Compound ID>  (165) 
51345

>  <SLURM_JOB_NAME>  (165) 
BulkDock.place:Flavi_NS5_RdRp:RdRp_knitwork_green_site_rna_tunnel_impure_split4000_batch005

>  <ref_mols>  (165) 
z0628a,z0637a

>  <Multi-SuCOS>  (165) 
0.481202

>  <tags>  (165) 
['Fragmenstein placed', 'RdRp_knitwork_green_site_rna_tunnel_impure_fragalysis.sdf Pose OK']

>  <scratch_subdir>  (165) 
/opt/xchem-fragalysis-2/maxwin/BulkDock/SCRATCH/220456/C51345-P151

>  <energy_score>  (165) 
-38.889206

>  <fragmenstein_error>  (165) 
None

>  <csv_name>  (165) 
RdRp_knitwork_green_site_rna_tunnel_impure_split4000_batch005.csv

>  <merge_set>  (165) 
RdRp_knitwork_green_site_rna_tunnel_impure_fragalysis.sdf

>  <original ID>  (165) 
FDOUBSCAUCWCMK-UHFFFAOYSA-N

>  <HIPPO Pose ID>  (165) 
184413

>  <fragmenstein_outcome>  (165) 
acceptable

>  <exports>  (165) 
['/opt/xchem-fragalysis-2/maxwin/BulkDock/OUTPUTS/RdRp_knitwork_green_site_rna_tunnel_impure_split4000_batch005_220456.sdf', '/opt/xchem-fragalysis-2/maxwin/BulkDock/OUTPUTS/RdRp_knitwork_green_site_rna_tunnel_impure_fragalysis.sdf']

>  <SLURM_JOB_ID>  (165) 
220456

>  <distance_score>  (165) 
0.969257

>  <original SMILES>  (165) 
CCCCN(CCCC)S(=O)(=O)N(C)Cc1ccncc1

>  <alias>  (165) 
None

>  <ref_pdb>  (165) 
z0637a

>  <inchikey>  (165) 
FDOUBSCAUCWCMK-UHFFFAOYSA-N

$$$$
OQYVIEWMSVWFQL-UHFFFAOYSA-N
     RDKit          3D

 21 23  0  0  0  0  0  0  0  0999 V2000
  -30.9169  -30.1396  -20.3511 C   0  0  0  0  0  0  0  0  0  0  0  0
  -29.5016  -29.9944  -20.1373 N   0  0  0  0  0  0  0  0  0  0  0  0
  -28.5148  -30.3890  -20.9851 C   0  0  0  0  0  0  0  0  0  0  0  0
  -27.3517  -30.3044  -20.2682 C   0  0  0  0  0  0  0  0  0  0  0  0
  -26.1397  -30.7200  -20.7165 N   0  0  0  0  0  0  0  0  0  0  0  0
  -25.7697  -31.6542  -21.8981 C   0  0  0  0  0  0  0  0  0  0  0  0
  -26.4511  -32.2689  -22.6166 O   0  0  0  0  0  0  0  0  0  0  0  0
  -24.2691  -31.5543  -22.0446 C   0  0  0  0  0  0  0  0  0  0  0  0
  -23.7469  -32.1815  -23.3306 C   0  0  0  0  0  0  0  0  0  0  0  0
  -23.6028  -33.6950  -23.2916 C   0  0  0  0  0  0  0  0  0  0  0  0
  -22.8361  -34.3035  -22.1420 C   0  0  0  0  0  0  0  0  0  0  0  0
  -23.2183  -35.5221  -21.6093 C   0  0  0  0  0  0  0  0  0  0  0  0
  -22.2194  -36.0539  -20.3487 S   0  0  0  0  0  0  0  0  0  0  0  0
  -21.2271  -34.6579  -20.4530 C   0  0  0  0  0  0  0  0  0  0  0  0
  -20.1026  -34.3810  -19.6473 C   0  0  0  0  0  0  0  0  0  0  0  0
  -19.3958  -33.1972  -19.8444 C   0  0  0  0  0  0  0  0  0  0  0  0
  -19.7902  -32.3114  -20.8302 C   0  0  0  0  0  0  0  0  0  0  0  0
  -20.8830  -32.6075  -21.6522 C   0  0  0  0  0  0  0  0  0  0  0  0
  -21.6498  -33.7904  -21.4683 C   0  0  0  0  0  0  0  0  0  0  0  0
  -27.7205  -29.7385  -19.0400 C   0  0  0  0  0  0  0  0  0  0  0  0
  -29.0381  -29.5539  -18.9511 N   0  0  0  0  0  0  0  0  0  0  0  0
  1  2  1  0
  2  3  1  0
  3  4  2  0
  4  5  1  0
  5  6  1  0
  6  7  2  0
  6  8  1  0
  8  9  1  0
  9 10  1  0
 10 11  1  0
 11 12  2  0
 12 13  1  0
 13 14  1  0
 14 15  2  0
 15 16  1  0
 16 17  2  0
 17 18  1  0
 18 19  2  0
  4 20  1  0
 20 21  2  0
 21  2  1  0
 19 11  1  0
 19 14  1  0
M  END
>  <fragmenstein_mode>  (166) 
expansion

>  <name>  (166) 
OQYVIEWMSVWFQL-UHFFFAOYSA-N

>  <fragmenstein_runtime>  (166) 
2.737078

>  <HIPPO Compound ID>  (166) 
27982

>  <SLURM_JOB_NAME>  (166) 
BulkDock.place:Flavi_NS5_RdRp:RdRp_knitwork_green_site_rna_tunnel_impure_split4000_batch004

>  <ref_mols>  (166) 
z0215a,3vws-b

>  <Multi-SuCOS>  (166) 
0.534802

>  <tags>  (166) 
['Fragmenstein placed', 'RdRp_knitwork_green_site_rna_tunnel_impure_fragalysis.sdf Pose OK']

>  <scratch_subdir>  (166) 
/opt/xchem-fragalysis-2/maxwin/BulkDock/SCRATCH/220455/C27982-P104

>  <energy_score>  (166) 
-24.569422

>  <fragmenstein_error>  (166) 
None

>  <csv_name>  (166) 
RdRp_knitwork_green_site_rna_tunnel_impure_split4000_batch004.csv

>  <merge_set>  (166) 
RdRp_knitwork_green_site_rna_tunnel_impure_fragalysis.sdf

>  <original ID>  (166) 
OQYVIEWMSVWFQL-UHFFFAOYSA-N

>  <HIPPO Pose ID>  (166) 
184440

>  <fragmenstein_outcome>  (166) 
acceptable

>  <exports>  (166) 
['/opt/xchem-fragalysis-2/maxwin/BulkDock/OUTPUTS/RdRp_knitwork_green_site_rna_tunnel_impure_split4000_batch004_220455.sdf', '/opt/xchem-fragalysis-2/maxwin/BulkDock/OUTPUTS/RdRp_knitwork_green_site_rna_tunnel_impure_fragalysis.sdf']

>  <SLURM_JOB_ID>  (166) 
220455

>  <distance_score>  (166) 
0.786387

>  <original SMILES>  (166) 
Cn1cc(NC(=O)CCCc2csc3ccccc23)cn1

>  <alias>  (166) 
None

>  <ref_pdb>  (166) 
z0215a

>  <inchikey>  (166) 
OQYVIEWMSVWFQL-UHFFFAOYSA-N

$$$$
SEXBZMJMGRUWGS-UHFFFAOYSA-N
     RDKit          3D

 22 24  0  0  0  0  0  0  0  0999 V2000
  -31.0069  -30.4844  -20.2150 C   0  0  0  0  0  0  0  0  0  0  0  0
  -30.0584  -30.1243  -19.0856 C   0  0  0  0  0  0  0  0  0  0  0  0
  -28.8361  -29.5612  -19.6338 N   0  0  0  0  0  0  0  0  0  0  0  0
  -27.5899  -30.0804  -19.4050 C   0  0  0  0  0  0  0  0  0  0  0  0
  -27.0062  -30.0776  -20.6421 C   0  0  0  0  0  0  0  0  0  0  0  0
  -25.9140  -30.7612  -21.0408 N   0  0  0  0  0  0  0  0  0  0  0  0
  -25.2097  -30.8181  -22.4244 C   0  0  0  0  0  0  0  0  0  0  0  0
  -25.4221  -30.2233  -23.4061 O   0  0  0  0  0  0  0  0  0  0  0  0
  -24.2024  -31.9300  -22.2701 C   0  0  0  0  0  0  0  0  0  0  0  0
  -23.5083  -32.2686  -23.5752 C   0  0  0  0  0  0  0  0  0  0  0  0
  -23.0642  -33.7248  -23.6423 C   0  0  0  0  0  0  0  0  0  0  0  0
  -22.5167  -34.3218  -22.3725 C   0  0  0  0  0  0  0  0  0  0  0  0
  -22.9839  -35.5163  -21.8569 C   0  0  0  0  0  0  0  0  0  0  0  0
  -22.1863  -35.9875  -20.4352 S   0  0  0  0  0  0  0  0  0  0  0  0
  -21.1725  -34.6013  -20.4606 C   0  0  0  0  0  0  0  0  0  0  0  0
  -20.1572  -34.2919  -19.5343 C   0  0  0  0  0  0  0  0  0  0  0  0
  -19.4359  -33.1084  -19.6852 C   0  0  0  0  0  0  0  0  0  0  0  0
  -19.7116  -32.2515  -20.7367 C   0  0  0  0  0  0  0  0  0  0  0  0
  -20.6904  -32.5818  -21.6782 C   0  0  0  0  0  0  0  0  0  0  0  0
  -21.4557  -33.7712  -21.5502 C   0  0  0  0  0  0  0  0  0  0  0  0
  -27.8351  -29.2954  -21.4489 C   0  0  0  0  0  0  0  0  0  0  0  0
  -28.8968  -28.8526  -20.7811 N   0  0  0  0  0  0  0  0  0  0  0  0
  1  2  1  0
  2  3  1  0
  3  4  1  0
  4  5  2  0
  5  6  1  0
  6  7  1  0
  7  8  2  0
  7  9  1  0
  9 10  1  0
 10 11  1  0
 11 12  1  0
 12 13  2  0
 13 14  1  0
 14 15  1  0
 15 16  2  0
 16 17  1  0
 17 18  2  0
 18 19  1  0
 19 20  2  0
  5 21  1  0
 21 22  2  0
 22  3  1  0
 20 12  1  0
 20 15  1  0
M  END
>  <fragmenstein_mode>  (167) 
expansion

>  <name>  (167) 
SEXBZMJMGRUWGS-UHFFFAOYSA-N

>  <fragmenstein_runtime>  (167) 
5.225038

>  <HIPPO Compound ID>  (167) 
28301

>  <SLURM_JOB_NAME>  (167) 
BulkDock.place:Flavi_NS5_RdRp:RdRp_knitwork_green_site_rna_tunnel_impure_split4000_batch004

>  <ref_mols>  (167) 
z0215a,3vws-b

>  <Multi-SuCOS>  (167) 
0.518134

>  <tags>  (167) 
['Fragmenstein placed', 'RdRp_knitwork_green_site_rna_tunnel_impure_fragalysis.sdf Pose OK']

>  <scratch_subdir>  (167) 
/opt/xchem-fragalysis-2/maxwin/BulkDock/SCRATCH/220455/C28301-P104

>  <energy_score>  (167) 
-15.401844

>  <fragmenstein_error>  (167) 
None

>  <csv_name>  (167) 
RdRp_knitwork_green_site_rna_tunnel_impure_split4000_batch004.csv

>  <merge_set>  (167) 
RdRp_knitwork_green_site_rna_tunnel_impure_fragalysis.sdf

>  <original ID>  (167) 
SEXBZMJMGRUWGS-UHFFFAOYSA-N

>  <HIPPO Pose ID>  (167) 
184490

>  <fragmenstein_outcome>  (167) 
acceptable

>  <exports>  (167) 
['/opt/xchem-fragalysis-2/maxwin/BulkDock/OUTPUTS/RdRp_knitwork_green_site_rna_tunnel_impure_split4000_batch004_220455.sdf', '/opt/xchem-fragalysis-2/maxwin/BulkDock/OUTPUTS/RdRp_knitwork_green_site_rna_tunnel_impure_fragalysis.sdf']

>  <SLURM_JOB_ID>  (167) 
220455

>  <distance_score>  (167) 
0.837353

>  <original SMILES>  (167) 
CCn1cc(NC(=O)CCCc2csc3ccccc23)cn1

>  <alias>  (167) 
None

>  <ref_pdb>  (167) 
z0215a

>  <inchikey>  (167) 
SEXBZMJMGRUWGS-UHFFFAOYSA-N

$$$$
RCJOEGWWWGETNI-UHFFFAOYSA-N
     RDKit          3D

 22 24  0  0  0  0  0  0  0  0999 V2000
  -30.6360  -29.5434  -21.6452 C   0  0  0  0  0  0  0  0  0  0  0  0
  -29.3234  -29.6584  -21.0922 N   0  0  0  0  0  0  0  0  0  0  0  0
  -28.1844  -29.9032  -21.7886 C   0  0  0  0  0  0  0  0  0  0  0  0
  -27.2090  -30.1105  -20.8446 C   0  0  0  0  0  0  0  0  0  0  0  0
  -25.8451  -30.5039  -21.1135 C   0  0  0  0  0  0  0  0  0  0  0  0
  -25.3055  -30.2454  -22.1867 O   0  0  0  0  0  0  0  0  0  0  0  0
  -25.1335  -31.1932  -19.9621 C   0  0  0  0  0  0  0  0  0  0  0  0
  -24.2268  -32.2145  -20.3686 N   0  0  0  0  0  0  0  0  0  0  0  0
  -24.3662  -33.3041  -21.4465 C   0  0  0  0  0  0  0  0  0  0  0  0
  -25.2114  -33.4918  -22.2249 O   0  0  0  0  0  0  0  0  0  0  0  0
  -23.2376  -34.2746  -21.3302 C   0  0  0  0  0  0  0  0  0  0  0  0
  -23.6310  -35.6206  -21.2900 C   0  0  0  0  0  0  0  0  0  0  0  0
  -22.7515  -36.5814  -20.8254 C   0  0  0  0  0  0  0  0  0  0  0  0
  -21.4990  -36.1837  -20.3570 C   0  0  0  0  0  0  0  0  0  0  0  0
  -21.0651  -34.8457  -20.4468 C   0  0  0  0  0  0  0  0  0  0  0  0
  -19.7938  -34.4650  -19.9774 C   0  0  0  0  0  0  0  0  0  0  0  0
  -19.3205  -33.1623  -20.1410 C   0  0  0  0  0  0  0  0  0  0  0  0
  -20.1095  -32.2182  -20.7833 C   0  0  0  0  0  0  0  0  0  0  0  0
  -21.3851  -32.5705  -21.2244 C   0  0  0  0  0  0  0  0  0  0  0  0
  -21.9099  -33.8751  -21.0223 C   0  0  0  0  0  0  0  0  0  0  0  0
  -27.8591  -29.8887  -19.6118 C   0  0  0  0  0  0  0  0  0  0  0  0
  -29.1472  -29.5985  -19.7633 N   0  0  0  0  0  0  0  0  0  0  0  0
  1  2  1  0
  2  3  1  0
  3  4  2  0
  4  5  1  0
  5  6  2  0
  5  7  1  0
  7  8  1  0
  8  9  1  0
  9 10  2  0
  9 11  1  0
 11 12  2  0
 12 13  1  0
 13 14  2  0
 14 15  1  0
 15 16  2  0
 16 17  1  0
 17 18  2  0
 18 19  1  0
 19 20  2  0
  4 21  1  0
 21 22  2  0
 22  2  1  0
 20 11  1  0
 20 15  1  0
M  END
>  <fragmenstein_mode>  (168) 
expansion

>  <name>  (168) 
RCJOEGWWWGETNI-UHFFFAOYSA-N

>  <fragmenstein_runtime>  (168) 
3.135983

>  <HIPPO Compound ID>  (168) 
28581

>  <SLURM_JOB_NAME>  (168) 
BulkDock.place:Flavi_NS5_RdRp:RdRp_knitwork_green_site_rna_tunnel_impure_split4000_batch004

>  <ref_mols>  (168) 
z0215a,3vws-b

>  <Multi-SuCOS>  (168) 
0.520203

>  <tags>  (168) 
['Fragmenstein placed', 'RdRp_knitwork_green_site_rna_tunnel_impure_fragalysis.sdf Pose OK']

>  <scratch_subdir>  (168) 
/opt/xchem-fragalysis-2/maxwin/BulkDock/SCRATCH/220455/C28581-P104

>  <energy_score>  (168) 
-6.598497

>  <fragmenstein_error>  (168) 
None

>  <csv_name>  (168) 
RdRp_knitwork_green_site_rna_tunnel_impure_split4000_batch004.csv

>  <merge_set>  (168) 
RdRp_knitwork_green_site_rna_tunnel_impure_fragalysis.sdf

>  <original ID>  (168) 
RCJOEGWWWGETNI-UHFFFAOYSA-N

>  <HIPPO Pose ID>  (168) 
184558

>  <fragmenstein_outcome>  (168) 
acceptable

>  <exports>  (168) 
['/opt/xchem-fragalysis-2/maxwin/BulkDock/OUTPUTS/RdRp_knitwork_green_site_rna_tunnel_impure_split4000_batch004_220455.sdf', '/opt/xchem-fragalysis-2/maxwin/BulkDock/OUTPUTS/RdRp_knitwork_green_site_rna_tunnel_impure_fragalysis.sdf']

>  <SLURM_JOB_ID>  (168) 
220455

>  <distance_score>  (168) 
0.994717

>  <original SMILES>  (168) 
Cn1cc(C(=O)CNC(=O)c2cccc3ccccc23)cn1

>  <alias>  (168) 
None

>  <ref_pdb>  (168) 
z0215a

>  <inchikey>  (168) 
RCJOEGWWWGETNI-UHFFFAOYSA-N

$$$$
QHZAAMCZSQUDDH-UHFFFAOYSA-N
     RDKit          3D

 26 29  0  0  0  0  0  0  0  0999 V2000
  -24.9963  -36.9128  -22.9618 C   0  0  0  0  0  0  0  0  0  0  0  0
  -24.7132  -35.5150  -22.4553 C   0  0  0  0  0  0  0  0  0  0  0  0
  -25.6367  -34.6150  -22.6697 N   0  0  0  0  0  0  0  0  0  0  0  0
  -25.5521  -33.3975  -22.0929 N   0  0  0  0  0  0  0  0  0  0  0  0
  -25.1434  -32.9871  -20.6273 C   0  0  0  0  0  0  0  0  0  0  0  0
  -24.8975  -33.6530  -19.6927 O   0  0  0  0  0  0  0  0  0  0  0  0
  -25.0335  -31.4561  -20.6274 C   0  0  0  0  0  0  0  0  0  0  0  0
  -25.5286  -30.8206  -19.3631 C   0  0  0  0  0  0  0  0  0  0  0  0
  -24.7975  -30.5942  -18.2123 C   0  0  0  0  0  0  0  0  0  0  0  0
  -25.6245  -30.0435  -17.2701 N   0  0  0  0  0  0  0  0  0  0  0  0
  -26.8907  -29.8893  -17.7854 C   0  0  0  0  0  0  0  0  0  0  0  0
  -28.0663  -29.4398  -17.1713 C   0  0  0  0  0  0  0  0  0  0  0  0
  -29.2427  -29.4820  -17.9222 C   0  0  0  0  0  0  0  0  0  0  0  0
  -29.2331  -29.8762  -19.2569 C   0  0  0  0  0  0  0  0  0  0  0  0
  -28.0445  -30.2933  -19.8643 C   0  0  0  0  0  0  0  0  0  0  0  0
  -26.8558  -30.3420  -19.1055 C   0  0  0  0  0  0  0  0  0  0  0  0
  -23.3844  -35.2862  -21.8311 C   0  0  0  0  0  0  0  0  0  0  0  0
  -22.8810  -36.1939  -20.9012 C   0  0  0  0  0  0  0  0  0  0  0  0
  -21.6584  -35.9355  -20.2827 C   0  0  0  0  0  0  0  0  0  0  0  0
  -20.9541  -34.7502  -20.5499 C   0  0  0  0  0  0  0  0  0  0  0  0
  -19.7615  -34.4442  -19.8788 C   0  0  0  0  0  0  0  0  0  0  0  0
  -19.1130  -33.2286  -20.0986 C   0  0  0  0  0  0  0  0  0  0  0  0
  -19.6438  -32.3113  -21.0004 C   0  0  0  0  0  0  0  0  0  0  0  0
  -20.8008  -32.6181  -21.7144 C   0  0  0  0  0  0  0  0  0  0  0  0
  -21.4679  -33.8318  -21.4938 C   0  0  0  0  0  0  0  0  0  0  0  0
  -22.6544  -34.1390  -22.1673 C   0  0  0  0  0  0  0  0  0  0  0  0
  1  2  1  0
  2  3  2  3
  3  4  1  0
  4  5  1  0
  5  6  2  0
  5  7  1  0
  7  8  1  0
  8  9  2  0
  9 10  1  0
 10 11  1  0
 11 12  2  0
 12 13  1  0
 13 14  2  0
 14 15  1  0
 15 16  2  0
  2 17  1  0
 17 18  2  0
 18 19  1  0
 19 20  2  0
 20 21  1  0
 21 22  2  0
 22 23  1  0
 23 24  2  0
 24 25  1  0
 25 26  2  0
 16  8  1  0
 26 17  1  0
 16 11  1  0
 25 20  1  0
M  END
>  <fragmenstein_mode>  (169) 
expansion

>  <name>  (169) 
QHZAAMCZSQUDDH-UHFFFAOYSA-N

>  <fragmenstein_runtime>  (169) 
6.618577

>  <HIPPO Compound ID>  (169) 
29524

>  <SLURM_JOB_NAME>  (169) 
BulkDock.place:Flavi_NS5_RdRp:RdRp_knitwork_green_site_rna_tunnel_impure_split4000_batch013

>  <ref_mols>  (169) 
z0041a,3vws-b

>  <Multi-SuCOS>  (169) 
0.658603

>  <tags>  (169) 
['Fragmenstein placed', 'RdRp_knitwork_green_site_rna_tunnel_impure_fragalysis.sdf Pose OK']

>  <scratch_subdir>  (169) 
/opt/xchem-fragalysis-2/maxwin/BulkDock/SCRATCH/220464/C29524-P82

>  <energy_score>  (169) 
-58.302901

>  <fragmenstein_error>  (169) 
None

>  <csv_name>  (169) 
RdRp_knitwork_green_site_rna_tunnel_impure_split4000_batch013.csv

>  <merge_set>  (169) 
RdRp_knitwork_green_site_rna_tunnel_impure_fragalysis.sdf

>  <original ID>  (169) 
QHZAAMCZSQUDDH-UHFFFAOYSA-N

>  <HIPPO Pose ID>  (169) 
184723

>  <fragmenstein_outcome>  (169) 
acceptable

>  <exports>  (169) 
['/opt/xchem-fragalysis-2/maxwin/BulkDock/OUTPUTS/RdRp_knitwork_green_site_rna_tunnel_impure_split4000_batch013_220464.sdf', '/opt/xchem-fragalysis-2/maxwin/BulkDock/OUTPUTS/RdRp_knitwork_green_site_rna_tunnel_impure_fragalysis.sdf']

>  <SLURM_JOB_ID>  (169) 
220464

>  <distance_score>  (169) 
0.856665

>  <original SMILES>  (169) 
CC(=NNC(=O)Cc1c[nH]c2ccccc12)c1ccc2ccccc2c1

>  <alias>  (169) 
None

>  <ref_pdb>  (169) 
z0041a

>  <inchikey>  (169) 
QHZAAMCZSQUDDH-UHFFFAOYSA-N

$$$$
IWXDEROOIURHCK-JTQLQIEISA-N
     RDKit          3D

 15 15  0  0  0  0  0  0  0  0999 V2000
  -22.8299  -32.1001  -17.3707 C   0  0  0  0  0  0  0  0  0  0  0  0
  -23.2241  -32.1848  -18.8395 C   0  0  0  0  0  0  0  0  0  0  0  0
  -24.5237  -31.4331  -19.0919 C   0  0  0  0  0  0  0  0  0  0  0  0
  -24.9719  -31.4750  -20.5515 C   0  0  0  0  0  0  0  0  0  0  0  0
  -26.3923  -30.9746  -20.6621 C   0  0  0  0  0  0  0  0  0  0  0  0
  -27.3445  -31.6828  -20.9549 O   0  0  0  0  0  0  0  0  0  0  0  0
  -26.4589  -29.6583  -20.3327 O   0  0  0  0  0  0  0  0  0  0  0  0
  -27.7350  -29.0807  -19.9672 C   0  0  1  0  0  0  0  0  0  0  0  0
  -28.8230  -29.2965  -21.0165 C   0  0  0  0  0  0  0  0  0  0  0  0
  -28.0824  -29.4312  -18.5311 C   0  0  0  0  0  0  0  0  0  0  0  0
  -29.3902  -29.6411  -18.0975 C   0  0  0  0  0  0  0  0  0  0  0  0
  -29.6241  -29.8665  -16.7495 C   0  0  0  0  0  0  0  0  0  0  0  0
  -28.6644  -29.9256  -15.8061 N   0  0  0  0  0  0  0  0  0  0  0  0
  -27.4033  -29.7680  -16.2445 C   0  0  0  0  0  0  0  0  0  0  0  0
  -27.0747  -29.4877  -17.5612 C   0  0  0  0  0  0  0  0  0  0  0  0
  1  2  1  0
  2  3  1  0
  3  4  1  0
  4  5  1  0
  5  6  2  0
  5  7  1  0
  7  8  1  0
  8  9  1  6
  8 10  1  0
 10 11  2  0
 11 12  1  0
 12 13  2  0
 13 14  1  0
 14 15  2  0
 15 10  1  0
M  END
>  <fragmenstein_mode>  (170) 
expansion

>  <name>  (170) 
IWXDEROOIURHCK-JTQLQIEISA-N

>  <fragmenstein_runtime>  (170) 
21.238141

>  <HIPPO Compound ID>  (170) 
52072

>  <SLURM_JOB_NAME>  (170) 
BulkDock.place:Flavi_NS5_RdRp:RdRp_knitwork_green_site_rna_tunnel_impure_split4000_batch005

>  <ref_mols>  (170) 
z0628a,z0637a

>  <Multi-SuCOS>  (170) 
0.660374

>  <tags>  (170) 
['Fragmenstein placed', 'RdRp_knitwork_green_site_rna_tunnel_impure_fragalysis.sdf Pose OK']

>  <scratch_subdir>  (170) 
/opt/xchem-fragalysis-2/maxwin/BulkDock/SCRATCH/220456/C52072-P151

>  <energy_score>  (170) 
-37.132376

>  <fragmenstein_error>  (170) 
None

>  <csv_name>  (170) 
RdRp_knitwork_green_site_rna_tunnel_impure_split4000_batch005.csv

>  <merge_set>  (170) 
RdRp_knitwork_green_site_rna_tunnel_impure_fragalysis.sdf

>  <original ID>  (170) 
IWXDEROOIURHCK-JTQLQIEISA-N

>  <HIPPO Pose ID>  (170) 
185051

>  <fragmenstein_outcome>  (170) 
acceptable

>  <exports>  (170) 
['/opt/xchem-fragalysis-2/maxwin/BulkDock/OUTPUTS/RdRp_knitwork_green_site_rna_tunnel_impure_split4000_batch005_220456.sdf', '/opt/xchem-fragalysis-2/maxwin/BulkDock/OUTPUTS/RdRp_knitwork_green_site_rna_tunnel_impure_fragalysis.sdf']

>  <SLURM_JOB_ID>  (170) 
220456

>  <distance_score>  (170) 
0.803577

>  <original SMILES>  (170) 
CCCCC(=O)O[C@@H](C)c1ccncc1

>  <alias>  (170) 
None

>  <ref_pdb>  (170) 
z0637a

>  <inchikey>  (170) 
IWXDEROOIURHCK-JTQLQIEISA-N

$$$$
ROZFRJNSINPXLR-ZCFIWIBFSA-N
     RDKit          3D

 11 12  0  0  0  0  0  0  0  0999 V2000
  -27.0103  -30.8977  -21.7440 O   0  0  0  0  0  0  0  0  0  0  0  0
  -27.6523  -30.4166  -20.8269 C   0  0  0  0  0  0  0  0  0  0  0  0
  -28.8447  -29.4901  -20.9220 C   0  0  0  0  0  0  0  0  0  0  0  0
  -29.0698  -29.0659  -19.4754 C   0  0  0  0  0  0  0  0  0  0  0  0
  -28.5100  -30.2250  -18.6954 C   0  0  2  0  0  0  0  0  0  0  0  0
  -28.0871  -29.9309  -17.3161 C   0  0  0  0  0  0  0  0  0  0  0  0
  -26.7870  -29.7815  -16.7756 C   0  0  0  0  0  0  0  0  0  0  0  0
  -26.8029  -29.6729  -15.4456 N   0  0  0  0  0  0  0  0  0  0  0  0
  -28.1073  -29.7282  -15.1417 N   0  0  0  0  0  0  0  0  0  0  0  0
  -28.9200  -29.8324  -16.2220 C   0  0  0  0  0  0  0  0  0  0  0  0
  -27.4164  -30.6707  -19.4951 N   0  0  0  0  0  0  0  0  0  0  0  0
  1  2  2  0
  2  3  1  0
  3  4  1  0
  4  5  1  0
  5  6  1  1
  6  7  1  0
  7  8  2  0
  8  9  1  0
  9 10  1  0
  5 11  1  0
 11  2  1  0
 10  6  2  0
M  END
>  <fragmenstein_mode>  (171) 
expansion

>  <name>  (171) 
ROZFRJNSINPXLR-ZCFIWIBFSA-N

>  <fragmenstein_runtime>  (171) 
1.853544

>  <HIPPO Compound ID>  (171) 
50511

>  <SLURM_JOB_NAME>  (171) 
BulkDock.place:Flavi_NS5_RdRp:RdRp_knitwork_green_site_rna_tunnel_impure_split4000_batch019

>  <ref_mols>  (171) 
z0936a,z1018a

>  <Multi-SuCOS>  (171) 
0.636006

>  <tags>  (171) 
['Fragmenstein placed', 'RdRp_knitwork_green_site_rna_tunnel_impure_fragalysis.sdf Pose OK']

>  <scratch_subdir>  (171) 
/opt/xchem-fragalysis-2/maxwin/BulkDock/SCRATCH/220470/C50511-P206

>  <energy_score>  (171) 
-23.221575

>  <fragmenstein_error>  (171) 
None

>  <csv_name>  (171) 
RdRp_knitwork_green_site_rna_tunnel_impure_split4000_batch019.csv

>  <merge_set>  (171) 
RdRp_knitwork_green_site_rna_tunnel_impure_fragalysis.sdf

>  <original ID>  (171) 
ROZFRJNSINPXLR-ZCFIWIBFSA-N

>  <HIPPO Pose ID>  (171) 
185057

>  <fragmenstein_outcome>  (171) 
acceptable

>  <exports>  (171) 
['/opt/xchem-fragalysis-2/maxwin/BulkDock/OUTPUTS/RdRp_knitwork_green_site_rna_tunnel_impure_split4000_batch019_220470.sdf', '/opt/xchem-fragalysis-2/maxwin/BulkDock/OUTPUTS/RdRp_knitwork_green_site_rna_tunnel_impure_fragalysis.sdf']

>  <SLURM_JOB_ID>  (171) 
220470

>  <distance_score>  (171) 
0.963484

>  <original SMILES>  (171) 
O=C1CC[C@H](c2cn[nH]c2)N1

>  <alias>  (171) 
None

>  <ref_pdb>  (171) 
z1018a

>  <inchikey>  (171) 
ROZFRJNSINPXLR-ZCFIWIBFSA-N

$$$$
CQQPOEPVLMKPHG-UHFFFAOYSA-N
     RDKit          3D

 19 20  0  0  0  0  0  0  0  0999 V2000
  -27.4336  -31.9029  -22.6080 C   0  0  0  0  0  0  0  0  0  0  0  0
  -27.1433  -31.6981  -21.1356 C   0  0  0  0  0  0  0  0  0  0  0  0
  -26.6250  -30.3875  -20.9160 O   0  0  0  0  0  0  0  0  0  0  0  0
  -27.4305  -29.3086  -20.8335 C   0  0  0  0  0  0  0  0  0  0  0  0
  -27.0036  -28.1990  -21.1279 O   0  0  0  0  0  0  0  0  0  0  0  0
  -28.8180  -29.5145  -20.4012 C   0  0  0  0  0  0  0  0  0  0  0  0
  -29.8023  -29.4072  -21.4020 C   0  0  0  0  0  0  0  0  0  0  0  0
  -30.6837  -29.3481  -22.1477 N   0  0  0  0  0  0  0  0  0  0  0  0
  -29.2458  -29.7358  -19.1470 C   0  0  0  0  0  0  0  0  0  0  0  0
  -28.6769  -29.8132  -17.8837 N   0  0  0  0  0  0  0  0  0  0  0  0
  -29.5228  -30.2370  -16.7413 C   0  0  0  0  0  0  0  0  0  0  0  0
  -28.7859  -30.5055  -15.4347 C   0  0  0  0  0  0  0  0  0  0  0  0
  -27.3661  -30.9801  -15.6705 C   0  0  0  0  0  0  0  0  0  0  0  0
  -26.6915  -29.9165  -16.4781 C   0  0  0  0  0  0  0  0  0  0  0  0
  -25.4013  -29.5033  -16.1564 C   0  0  0  0  0  0  0  0  0  0  0  0
  -24.8163  -28.4703  -16.8723 C   0  0  0  0  0  0  0  0  0  0  0  0
  -25.4985  -27.8435  -17.9017 C   0  0  0  0  0  0  0  0  0  0  0  0
  -26.7974  -28.2459  -18.1917 C   0  0  0  0  0  0  0  0  0  0  0  0
  -27.3983  -29.3255  -17.5386 C   0  0  0  0  0  0  0  0  0  0  0  0
  1  2  1  0
  2  3  1  0
  3  4  1  0
  4  5  2  0
  4  6  1  0
  6  7  1  0
  7  8  3  0
  6  9  2  3
  9 10  1  0
 10 11  1  0
 11 12  1  0
 12 13  1  0
 13 14  1  0
 14 15  2  0
 15 16  1  0
 16 17  2  0
 17 18  1  0
 18 19  2  0
 19 10  1  0
 19 14  1  0
M  END
>  <fragmenstein_mode>  (172) 
expansion

>  <name>  (172) 
CQQPOEPVLMKPHG-UHFFFAOYSA-N

>  <fragmenstein_runtime>  (172) 
3.395983

>  <HIPPO Compound ID>  (172) 
65168

>  <SLURM_JOB_NAME>  (172) 
BulkDock.place:Flavi_NS5_RdRp:RdRp_knitwork_green_site_rna_tunnel_impure_split4000_batch007

>  <ref_mols>  (172) 
z0165a,z0628a

>  <Multi-SuCOS>  (172) 
0.600368

>  <tags>  (172) 
['Fragmenstein placed', 'RdRp_knitwork_green_site_rna_tunnel_impure_fragalysis.sdf Pose OK']

>  <scratch_subdir>  (172) 
/opt/xchem-fragalysis-2/maxwin/BulkDock/SCRATCH/220458/C65168-P3

>  <energy_score>  (172) 
-7.985352

>  <fragmenstein_error>  (172) 
None

>  <csv_name>  (172) 
RdRp_knitwork_green_site_rna_tunnel_impure_split4000_batch007.csv

>  <merge_set>  (172) 
RdRp_knitwork_green_site_rna_tunnel_impure_fragalysis.sdf

>  <original ID>  (172) 
CQQPOEPVLMKPHG-UHFFFAOYSA-N

>  <HIPPO Pose ID>  (172) 
185286

>  <fragmenstein_outcome>  (172) 
acceptable

>  <exports>  (172) 
['/opt/xchem-fragalysis-2/maxwin/BulkDock/OUTPUTS/RdRp_knitwork_green_site_rna_tunnel_impure_split4000_batch007_220458.sdf', '/opt/xchem-fragalysis-2/maxwin/BulkDock/OUTPUTS/RdRp_knitwork_green_site_rna_tunnel_impure_fragalysis.sdf']

>  <SLURM_JOB_ID>  (172) 
220458

>  <distance_score>  (172) 
0.918463

>  <original SMILES>  (172) 
CCOC(=O)C(C#N)=CN1CCCc2ccccc21

>  <alias>  (172) 
None

>  <ref_pdb>  (172) 
z0165a

>  <inchikey>  (172) 
CQQPOEPVLMKPHG-UHFFFAOYSA-N

$$$$
AVCFMOUUDCFYLI-UHFFFAOYSA-N
     RDKit          3D

 24 27  0  0  0  0  0  0  0  0999 V2000
  -25.0352  -37.0173  -22.1970 N   0  0  0  0  0  0  0  0  0  0  0  0
  -24.2676  -36.1960  -21.9043 C   0  0  0  0  0  0  0  0  0  0  0  0
  -23.3078  -35.1963  -21.5982 C   0  0  0  0  0  0  0  0  0  0  0  0
  -22.0712  -35.6329  -21.2387 O   0  0  0  0  0  0  0  0  0  0  0  0
  -21.3057  -34.5242  -21.0569 C   0  0  0  0  0  0  0  0  0  0  0  0
  -19.9698  -34.5413  -20.6505 C   0  0  0  0  0  0  0  0  0  0  0  0
  -19.3176  -33.3101  -20.5708 C   0  0  0  0  0  0  0  0  0  0  0  0
  -19.9839  -32.1318  -20.8996 C   0  0  0  0  0  0  0  0  0  0  0  0
  -21.3280  -32.1500  -21.3035 C   0  0  0  0  0  0  0  0  0  0  0  0
  -22.0316  -33.3705  -21.3523 C   0  0  0  0  0  0  0  0  0  0  0  0
  -23.3747  -33.8155  -21.5872 C   0  0  0  0  0  0  0  0  0  0  0  0
  -24.5587  -33.1718  -21.7918 O   0  0  0  0  0  0  0  0  0  0  0  0
  -24.7029  -31.8283  -21.3322 C   0  0  0  0  0  0  0  0  0  0  0  0
  -24.5114  -31.5403  -19.8377 C   0  0  0  0  0  0  0  0  0  0  0  0
  -23.4666  -31.9294  -19.3097 O   0  0  0  0  0  0  0  0  0  0  0  0
  -25.4501  -30.7805  -18.9837 C   0  0  0  0  0  0  0  0  0  0  0  0
  -24.9849  -30.4124  -17.7261 C   0  0  0  0  0  0  0  0  0  0  0  0
  -26.1345  -29.6658  -16.7450 S   0  0  0  0  0  0  0  0  0  0  0  0
  -27.3398  -29.8126  -17.9519 C   0  0  0  0  0  0  0  0  0  0  0  0
  -28.6974  -29.4773  -17.7775 C   0  0  0  0  0  0  0  0  0  0  0  0
  -29.5816  -29.6828  -18.8279 C   0  0  0  0  0  0  0  0  0  0  0  0
  -29.1130  -30.1073  -20.0550 C   0  0  0  0  0  0  0  0  0  0  0  0
  -27.7633  -30.4449  -20.2231 C   0  0  0  0  0  0  0  0  0  0  0  0
  -26.8363  -30.3545  -19.1488 C   0  0  0  0  0  0  0  0  0  0  0  0
  1  2  3  0
  2  3  1  0
  3  4  1  0
  4  5  1  0
  5  6  2  0
  6  7  1  0
  7  8  2  0
  8  9  1  0
  9 10  2  0
 10 11  1  0
 11 12  1  0
 12 13  1  0
 13 14  1  0
 14 15  2  0
 14 16  1  0
 16 17  2  0
 17 18  1  0
 18 19  1  0
 19 20  2  0
 20 21  1  0
 21 22  2  0
 22 23  1  0
 23 24  2  0
 11  3  2  0
 24 16  1  0
 10  5  1  0
 24 19  1  0
M  END
>  <fragmenstein_mode>  (173) 
expansion

>  <name>  (173) 
AVCFMOUUDCFYLI-UHFFFAOYSA-N

>  <fragmenstein_runtime>  (173) 
3.541044

>  <HIPPO Compound ID>  (173) 
28594

>  <SLURM_JOB_NAME>  (173) 
BulkDock.place:Flavi_NS5_RdRp:RdRp_knitwork_green_site_rna_tunnel_impure_split4000_batch002

>  <ref_mols>  (173) 
z0041a,3vws-b

>  <Multi-SuCOS>  (173) 
0.769715

>  <tags>  (173) 
['Fragmenstein placed', 'RdRp_knitwork_green_site_rna_tunnel_impure_fragalysis.sdf Pose OK']

>  <scratch_subdir>  (173) 
/opt/xchem-fragalysis-2/maxwin/BulkDock/SCRATCH/220453/C28594-P82

>  <energy_score>  (173) 
-42.904932

>  <fragmenstein_error>  (173) 
None

>  <csv_name>  (173) 
RdRp_knitwork_green_site_rna_tunnel_impure_split4000_batch002.csv

>  <merge_set>  (173) 
RdRp_knitwork_green_site_rna_tunnel_impure_fragalysis.sdf

>  <original ID>  (173) 
AVCFMOUUDCFYLI-UHFFFAOYSA-N

>  <HIPPO Pose ID>  (173) 
185355

>  <fragmenstein_outcome>  (173) 
acceptable

>  <exports>  (173) 
['/opt/xchem-fragalysis-2/maxwin/BulkDock/OUTPUTS/RdRp_knitwork_green_site_rna_tunnel_impure_split4000_batch002_220453.sdf', '/opt/xchem-fragalysis-2/maxwin/BulkDock/OUTPUTS/RdRp_knitwork_green_site_rna_tunnel_impure_fragalysis.sdf']

>  <SLURM_JOB_ID>  (173) 
220453

>  <distance_score>  (173) 
0.739038

>  <original SMILES>  (173) 
N#Cc1oc2ccccc2c1OCC(=O)c1csc2ccccc12

>  <alias>  (173) 
None

>  <ref_pdb>  (173) 
z0041a

>  <inchikey>  (173) 
AVCFMOUUDCFYLI-UHFFFAOYSA-N

$$$$
FRNXPLHZHRXKEC-UHFFFAOYSA-N
     RDKit          3D

 24 26  0  0  0  0  0  0  0  0999 V2000
  -24.7739  -32.8161  -24.8307 O   0  0  0  0  0  0  0  0  0  0  0  0
  -23.6069  -33.0919  -24.5517 C   0  0  0  0  0  0  0  0  0  0  0  0
  -22.8134  -34.1071  -25.3440 C   0  0  0  0  0  0  0  0  0  0  0  0
  -21.3955  -33.6290  -25.6053 C   0  0  0  0  0  0  0  0  0  0  0  0
  -20.7128  -33.0577  -24.3666 C   0  0  0  0  0  0  0  0  0  0  0  0
  -21.5990  -33.0337  -23.1317 C   0  0  0  0  0  0  0  0  0  0  0  0
  -22.9301  -32.5643  -23.4654 N   0  0  0  0  0  0  0  0  0  0  0  0
  -23.6531  -31.7904  -22.4798 C   0  0  0  0  0  0  0  0  0  0  0  0
  -24.5986  -32.6532  -21.6498 C   0  0  0  0  0  0  0  0  0  0  0  0
  -25.3883  -31.7831  -20.6913 C   0  0  0  0  0  0  0  0  0  0  0  0
  -26.4285  -31.0268  -21.3806 N   0  0  0  0  0  0  0  0  0  0  0  0
  -27.4918  -30.3485  -20.7839 C   0  0  0  0  0  0  0  0  0  0  0  0
  -28.4559  -29.8199  -21.6381 C   0  0  0  0  0  0  0  0  0  0  0  0
  -29.6637  -29.3792  -21.1300 C   0  0  0  0  0  0  0  0  0  0  0  0
  -29.9700  -29.3935  -19.8240 N   0  0  0  0  0  0  0  0  0  0  0  0
  -29.0058  -29.7379  -18.9703 C   0  0  0  0  0  0  0  0  0  0  0  0
  -29.2512  -29.5758  -17.6086 C   0  0  0  0  0  0  0  0  0  0  0  0
  -28.2463  -29.7382  -16.6516 C   0  0  0  0  0  0  0  0  0  0  0  0
  -26.9797  -30.0967  -17.0925 C   0  0  0  0  0  0  0  0  0  0  0  0
  -25.8634  -30.2975  -16.1832 N   0  0  0  0  0  4  0  0  0  0  0  0
  -25.8738  -29.6589  -15.1317 O   0  0  0  0  0  0  0  0  0  0  0  0
  -24.9925  -31.1188  -16.5005 O   0  0  0  0  0  1  0  0  0  0  0  0
  -26.7374  -30.3365  -18.4333 C   0  0  0  0  0  0  0  0  0  0  0  0
  -27.7357  -30.1910  -19.4016 C   0  0  0  0  0  0  0  0  0  0  0  0
  1  2  2  0
  2  3  1  0
  3  4  1  0
  4  5  1  0
  5  6  1  0
  6  7  1  0
  7  8  1  0
  8  9  1  0
  9 10  1  0
 10 11  1  0
 11 12  1  0
 12 13  2  0
 13 14  1  0
 14 15  2  0
 15 16  1  0
 16 17  2  0
 17 18  1  0
 18 19  2  0
 19 20  1  0
 20 21  2  0
 20 22  1  0
 19 23  1  0
 23 24  2  0
  7  2  1  0
 24 12  1  0
 24 16  1  0
M  CHG  2  20   1  22  -1
M  END
>  <fragmenstein_mode>  (174) 
expansion

>  <name>  (174) 
FRNXPLHZHRXKEC-UHFFFAOYSA-N

>  <fragmenstein_runtime>  (174) 
3.254548

>  <HIPPO Compound ID>  (174) 
54938

>  <SLURM_JOB_NAME>  (174) 
BulkDock.place:Flavi_NS5_RdRp:RdRp_knitwork_green_site_rna_tunnel_impure_split4000_batch017

>  <ref_mols>  (174) 
z1018a,z1040a

>  <Multi-SuCOS>  (174) 
0.57694

>  <tags>  (174) 
['Fragmenstein placed', 'RdRp_knitwork_green_site_rna_tunnel_impure_fragalysis.sdf Pose OK']

>  <scratch_subdir>  (174) 
/opt/xchem-fragalysis-2/maxwin/BulkDock/SCRATCH/220468/C54938-P206

>  <energy_score>  (174) 
-31.638829

>  <fragmenstein_error>  (174) 
None

>  <csv_name>  (174) 
RdRp_knitwork_green_site_rna_tunnel_impure_split4000_batch017.csv

>  <merge_set>  (174) 
RdRp_knitwork_green_site_rna_tunnel_impure_fragalysis.sdf

>  <original ID>  (174) 
FRNXPLHZHRXKEC-UHFFFAOYSA-N

>  <HIPPO Pose ID>  (174) 
185607

>  <fragmenstein_outcome>  (174) 
acceptable

>  <exports>  (174) 
['/opt/xchem-fragalysis-2/maxwin/BulkDock/OUTPUTS/RdRp_knitwork_green_site_rna_tunnel_impure_split4000_batch017_220468.sdf', '/opt/xchem-fragalysis-2/maxwin/BulkDock/OUTPUTS/RdRp_knitwork_green_site_rna_tunnel_impure_fragalysis.sdf']

>  <SLURM_JOB_ID>  (174) 
220468

>  <distance_score>  (174) 
0.933179

>  <original SMILES>  (174) 
O=C1CCCCN1CCCNc1ccnc2ccc([N+](=O)[O-])cc12

>  <alias>  (174) 
None

>  <ref_pdb>  (174) 
z1018a

>  <inchikey>  (174) 
FRNXPLHZHRXKEC-UHFFFAOYSA-N

$$$$
FRNXPLHZHRXKEC-UHFFFAOYSA-N
     RDKit          3D

 24 26  0  0  0  0  0  0  0  0999 V2000
  -25.0081  -32.7545  -24.6973 O   0  0  0  0  0  0  0  0  0  0  0  0
  -23.8459  -33.0993  -24.4987 C   0  0  0  0  0  0  0  0  0  0  0  0
  -23.1514  -34.0973  -25.3991 C   0  0  0  0  0  0  0  0  0  0  0  0
  -21.7186  -33.6944  -25.7005 C   0  0  0  0  0  0  0  0  0  0  0  0
  -20.9752  -33.1554  -24.4779 C   0  0  0  0  0  0  0  0  0  0  0  0
  -21.7737  -33.2400  -23.1909 C   0  0  0  0  0  0  0  0  0  0  0  0
  -23.0877  -32.6849  -23.4154 N   0  0  0  0  0  0  0  0  0  0  0  0
  -23.7127  -31.9050  -22.3624 C   0  0  0  0  0  0  0  0  0  0  0  0
  -24.6293  -32.7849  -21.5158 C   0  0  0  0  0  0  0  0  0  0  0  0
  -25.4383  -31.9639  -20.5295 C   0  0  0  0  0  0  0  0  0  0  0  0
  -26.3103  -31.0118  -21.2210 N   0  0  0  0  0  0  0  0  0  0  0  0
  -27.5365  -30.6047  -20.6732 C   0  0  0  0  0  0  0  0  0  0  0  0
  -28.5358  -30.2351  -21.5622 C   0  0  0  0  0  0  0  0  0  0  0  0
  -29.7975  -29.9223  -21.0928 C   0  0  0  0  0  0  0  0  0  0  0  0
  -30.1362  -29.9598  -19.7955 N   0  0  0  0  0  0  0  0  0  0  0  0
  -29.1627  -30.1852  -18.9140 C   0  0  0  0  0  0  0  0  0  0  0  0
  -29.4757  -30.1415  -17.5591 C   0  0  0  0  0  0  0  0  0  0  0  0
  -28.4977  -30.2989  -16.5753 C   0  0  0  0  0  0  0  0  0  0  0  0
  -27.1762  -30.4478  -16.9812 C   0  0  0  0  0  0  0  0  0  0  0  0
  -26.0939  -30.6443  -16.0326 N   0  0  0  0  0  4  0  0  0  0  0  0
  -24.9333  -30.4858  -16.4397 O   0  0  0  0  0  0  0  0  0  0  0  0
  -26.3996  -31.0022  -14.8885 O   0  0  0  0  0  1  0  0  0  0  0  0
  -26.8429  -30.4678  -18.3251 C   0  0  0  0  0  0  0  0  0  0  0  0
  -27.8275  -30.4338  -19.3096 C   0  0  0  0  0  0  0  0  0  0  0  0
  1  2  2  0
  2  3  1  0
  3  4  1  0
  4  5  1  0
  5  6  1  0
  6  7  1  0
  7  8  1  0
  8  9  1  0
  9 10  1  0
 10 11  1  0
 11 12  1  0
 12 13  2  0
 13 14  1  0
 14 15  2  0
 15 16  1  0
 16 17  2  0
 17 18  1  0
 18 19  2  0
 19 20  1  0
 20 21  2  0
 20 22  1  0
 19 23  1  0
 23 24  2  0
  7  2  1  0
 24 12  1  0
 24 16  1  0
M  CHG  2  20   1  22  -1
M  END
>  <fragmenstein_mode>  (175) 
expansion

>  <name>  (175) 
FRNXPLHZHRXKEC-UHFFFAOYSA-N

>  <fragmenstein_runtime>  (175) 
2.574526

>  <HIPPO Compound ID>  (175) 
54938

>  <SLURM_JOB_NAME>  (175) 
BulkDock.place:Flavi_NS5_RdRp:RdRp_knitwork_green_site_rna_tunnel_impure_split4000_batch017

>  <ref_mols>  (175) 
z1018a,z1040a

>  <Multi-SuCOS>  (175) 
0.597887

>  <tags>  (175) 
['Fragmenstein placed', 'RdRp_knitwork_green_site_rna_tunnel_impure_fragalysis.sdf Pose OK']

>  <scratch_subdir>  (175) 
/opt/xchem-fragalysis-2/maxwin/BulkDock/SCRATCH/220468/C54938-P208

>  <energy_score>  (175) 
-36.739179

>  <fragmenstein_error>  (175) 
None

>  <csv_name>  (175) 
RdRp_knitwork_green_site_rna_tunnel_impure_split4000_batch017.csv

>  <merge_set>  (175) 
RdRp_knitwork_green_site_rna_tunnel_impure_fragalysis.sdf

>  <original ID>  (175) 
FRNXPLHZHRXKEC-UHFFFAOYSA-N

>  <HIPPO Pose ID>  (175) 
185617

>  <fragmenstein_outcome>  (175) 
acceptable

>  <exports>  (175) 
['/opt/xchem-fragalysis-2/maxwin/BulkDock/OUTPUTS/RdRp_knitwork_green_site_rna_tunnel_impure_split4000_batch017_220468.sdf', '/opt/xchem-fragalysis-2/maxwin/BulkDock/OUTPUTS/RdRp_knitwork_green_site_rna_tunnel_impure_fragalysis.sdf']

>  <SLURM_JOB_ID>  (175) 
220468

>  <distance_score>  (175) 
0.708355

>  <original SMILES>  (175) 
O=C1CCCCN1CCCNc1ccnc2ccc([N+](=O)[O-])cc12

>  <alias>  (175) 
None

>  <ref_pdb>  (175) 
z1040a

>  <inchikey>  (175) 
FRNXPLHZHRXKEC-UHFFFAOYSA-N

$$$$
NHWWVGMPOUZEOS-UHFFFAOYSA-N
     RDKit          3D

 29 33  0  0  0  0  0  0  0  0999 V2000
  -26.1626  -30.5230  -22.4100 O   0  0  0  0  0  0  0  0  0  0  0  0
  -26.0084  -31.5584  -21.7724 C   0  0  0  0  0  0  0  0  0  0  0  0
  -26.5509  -32.7188  -22.1690 O   0  0  0  0  0  0  0  0  0  0  0  0
  -26.5205  -33.9712  -21.4454 C   0  0  0  0  0  0  0  0  0  0  0  0
  -25.5952  -34.9648  -22.0308 C   0  0  0  0  0  0  0  0  0  0  0  0
  -24.5514  -34.6865  -22.9284 C   0  0  0  0  0  0  0  0  0  0  0  0
  -23.5387  -35.4107  -22.3307 C   0  0  0  0  0  0  0  0  0  0  0  0
  -22.2482  -34.8879  -22.0367 C   0  0  0  0  0  0  0  0  0  0  0  0
  -21.7912  -33.6278  -22.3872 C   0  0  0  0  0  0  0  0  0  0  0  0
  -20.7157  -33.3306  -21.5303 C   0  0  0  0  0  0  0  0  0  0  0  0
  -19.9425  -32.1899  -21.2784 C   0  0  0  0  0  0  0  0  0  0  0  0
  -18.9332  -32.2804  -20.3157 C   0  0  0  0  0  0  0  0  0  0  0  0
  -18.6901  -33.4782  -19.6355 C   0  0  0  0  0  0  0  0  0  0  0  0
  -19.4681  -34.6186  -19.8632 C   0  0  0  0  0  0  0  0  0  0  0  0
  -20.4828  -34.4884  -20.8026 C   0  0  0  0  0  0  0  0  0  0  0  0
  -21.3959  -35.4454  -21.1236 O   0  0  0  0  0  0  0  0  0  0  0  0
  -24.0993  -36.4694  -21.6731 O   0  0  0  0  0  0  0  0  0  0  0  0
  -25.4492  -36.1751  -21.4766 N   0  0  0  0  0  0  0  0  0  0  0  0
  -25.1723  -31.5166  -20.4952 C   0  0  0  0  0  0  0  0  0  0  0  0
  -24.0636  -32.0428  -20.5389 O   0  0  0  0  0  0  0  0  0  0  0  0
  -25.6702  -30.8353  -19.3022 C   0  0  0  0  0  0  0  0  0  0  0  0
  -24.9077  -30.6270  -18.1647 C   0  0  0  0  0  0  0  0  0  0  0  0
  -25.6867  -30.0291  -17.2141 N   0  0  0  0  0  0  0  0  0  0  0  0
  -26.9656  -29.8676  -17.6940 C   0  0  0  0  0  0  0  0  0  0  0  0
  -28.1153  -29.4156  -17.0351 C   0  0  0  0  0  0  0  0  0  0  0  0
  -29.3186  -29.4465  -17.7390 C   0  0  0  0  0  0  0  0  0  0  0  0
  -29.3590  -29.8229  -19.0763 C   0  0  0  0  0  0  0  0  0  0  0  0
  -28.1958  -30.2350  -19.7326 C   0  0  0  0  0  0  0  0  0  0  0  0
  -26.9779  -30.3140  -19.0196 C   0  0  0  0  0  0  0  0  0  0  0  0
  1  2  2  0
  2  3  1  0
  3  4  1  0
  4  5  1  0
  5  6  1  0
  6  7  2  0
  7  8  1  0
  8  9  2  0
  9 10  1  0
 10 11  2  0
 11 12  1  0
 12 13  2  0
 13 14  1  0
 14 15  2  0
 15 16  1  0
  7 17  1  0
 17 18  1  0
  2 19  1  0
 19 20  2  0
 19 21  1  0
 21 22  2  0
 22 23  1  0
 23 24  1  0
 24 25  2  0
 25 26  1  0
 26 27  2  0
 27 28  1  0
 28 29  2  0
 18  5  2  0
 29 21  1  0
 16  8  1  0
 29 24  1  0
 15 10  1  0
M  END
>  <fragmenstein_mode>  (176) 
expansion

>  <name>  (176) 
NHWWVGMPOUZEOS-UHFFFAOYSA-N

>  <fragmenstein_runtime>  (176) 
3.89752

>  <HIPPO Compound ID>  (176) 
31116

>  <SLURM_JOB_NAME>  (176) 
BulkDock.place:Flavi_NS5_RdRp:RdRp_knitwork_green_site_rna_tunnel_impure_split4000_batch013

>  <ref_mols>  (176) 
z0041a,3vws-b

>  <Multi-SuCOS>  (176) 
0.627201

>  <tags>  (176) 
['Fragmenstein placed', 'RdRp_knitwork_green_site_rna_tunnel_impure_fragalysis.sdf Pose OK']

>  <scratch_subdir>  (176) 
/opt/xchem-fragalysis-2/maxwin/BulkDock/SCRATCH/220464/C31116-P82

>  <energy_score>  (176) 
-225.627753

>  <fragmenstein_error>  (176) 
None

>  <csv_name>  (176) 
RdRp_knitwork_green_site_rna_tunnel_impure_split4000_batch013.csv

>  <merge_set>  (176) 
RdRp_knitwork_green_site_rna_tunnel_impure_fragalysis.sdf

>  <original ID>  (176) 
NHWWVGMPOUZEOS-UHFFFAOYSA-N

>  <HIPPO Pose ID>  (176) 
185631

>  <fragmenstein_outcome>  (176) 
acceptable

>  <exports>  (176) 
['/opt/xchem-fragalysis-2/maxwin/BulkDock/OUTPUTS/RdRp_knitwork_green_site_rna_tunnel_impure_split4000_batch013_220464.sdf', '/opt/xchem-fragalysis-2/maxwin/BulkDock/OUTPUTS/RdRp_knitwork_green_site_rna_tunnel_impure_fragalysis.sdf']

>  <SLURM_JOB_ID>  (176) 
220464

>  <distance_score>  (176) 
0.98393

>  <original SMILES>  (176) 
O=C(OCc1cc(-c2cc3ccccc3o2)on1)C(=O)c1c[nH]c2ccccc12

>  <alias>  (176) 
None

>  <ref_pdb>  (176) 
z0041a

>  <inchikey>  (176) 
NHWWVGMPOUZEOS-UHFFFAOYSA-N

$$$$
UCXOUSGPQWXLPI-SNVBAGLBSA-N
     RDKit          3D

 22 23  0  0  0  0  0  0  0  0999 V2000
  -23.8863  -32.1413  -17.2650 C   0  0  0  0  0  0  0  0  0  0  0  0
  -24.0486  -32.3582  -19.0520 S   0  0  0  0  0  0  0  0  0  0  0  0
  -22.3680  -32.9474  -19.4039 C   0  0  0  0  0  0  0  0  0  0  0  0
  -22.1279  -33.4004  -20.8456 C   0  0  0  0  0  0  0  0  0  0  0  0
  -22.0296  -32.3464  -21.9701 C   0  0  2  0  0  0  0  0  0  0  0  0
  -20.7638  -31.4827  -21.9414 C   0  0  0  0  0  0  0  0  0  0  0  0
  -20.6353  -30.5379  -20.8881 O   0  0  0  0  0  0  0  0  0  0  0  0
  -23.2599  -31.6179  -22.1527 N   0  0  0  0  0  0  0  0  0  0  0  0
  -24.6849  -32.1196  -22.4238 C   0  0  0  0  0  0  0  0  0  0  0  0
  -25.0818  -33.1973  -22.6197 O   0  0  0  0  0  0  0  0  0  0  0  0
  -25.7568  -31.0089  -22.3133 C   0  0  0  0  0  0  0  0  0  0  0  0
  -26.1785  -30.4681  -23.2548 O   0  0  0  0  0  0  0  0  0  0  0  0
  -26.1615  -30.8921  -20.8252 N   0  0  0  0  0  0  0  0  0  0  0  0
  -27.1961  -30.1820  -20.2229 C   0  0  0  0  0  0  0  0  0  0  0  0
  -28.3711  -30.0026  -20.9573 C   0  0  0  0  0  0  0  0  0  0  0  0
  -29.5914  -29.8623  -20.3051 C   0  0  0  0  0  0  0  0  0  0  0  0
  -29.6621  -29.8369  -18.9114 C   0  0  0  0  0  0  0  0  0  0  0  0
  -28.4597  -29.7950  -18.2051 C   0  0  0  0  0  0  0  0  0  0  0  0
  -28.2291  -29.6670  -16.8545 N   0  0  0  0  0  0  0  0  0  0  0  0
  -26.8842  -29.6718  -16.6050 C   0  0  0  0  0  0  0  0  0  0  0  0
  -26.2395  -29.8186  -17.8113 C   0  0  0  0  0  0  0  0  0  0  0  0
  -27.2220  -29.9495  -18.8313 C   0  0  0  0  0  0  0  0  0  0  0  0
  1  2  1  0
  2  3  1  0
  3  4  1  0
  5  4  1  1
  5  6  1  0
  6  7  1  0
  5  8  1  0
  8  9  1  0
  9 10  2  0
  9 11  1  0
 11 12  2  0
 11 13  1  0
 13 14  1  0
 14 15  2  0
 15 16  1  0
 16 17  2  0
 17 18  1  0
 18 19  1  0
 19 20  1  0
 20 21  2  0
 21 22  1  0
 22 14  1  0
 22 18  2  0
M  END
>  <fragmenstein_mode>  (177) 
expansion

>  <name>  (177) 
UCXOUSGPQWXLPI-SNVBAGLBSA-N

>  <fragmenstein_runtime>  (177) 
9.832323

>  <HIPPO Compound ID>  (177) 
43304

>  <SLURM_JOB_NAME>  (177) 
BulkDock.place:Flavi_NS5_RdRp:RdRp_knitwork_green_site_rna_tunnel_impure_split4000_batch008

>  <ref_mols>  (177) 
z0136a,z0211a

>  <Multi-SuCOS>  (177) 
0.503273

>  <tags>  (177) 
['Fragmenstein placed', 'RdRp_knitwork_green_site_rna_tunnel_impure_fragalysis.sdf Pose OK']

>  <scratch_subdir>  (177) 
/opt/xchem-fragalysis-2/maxwin/BulkDock/SCRATCH/220459/C43304-P102

>  <energy_score>  (177) 
-24.642004

>  <fragmenstein_error>  (177) 
None

>  <csv_name>  (177) 
RdRp_knitwork_green_site_rna_tunnel_impure_split4000_batch008.csv

>  <merge_set>  (177) 
RdRp_knitwork_green_site_rna_tunnel_impure_fragalysis.sdf

>  <original ID>  (177) 
UCXOUSGPQWXLPI-SNVBAGLBSA-N

>  <HIPPO Pose ID>  (177) 
185725

>  <fragmenstein_outcome>  (177) 
acceptable

>  <exports>  (177) 
['/opt/xchem-fragalysis-2/maxwin/BulkDock/OUTPUTS/RdRp_knitwork_green_site_rna_tunnel_impure_split4000_batch008_220459.sdf', '/opt/xchem-fragalysis-2/maxwin/BulkDock/OUTPUTS/RdRp_knitwork_green_site_rna_tunnel_impure_fragalysis.sdf']

>  <SLURM_JOB_ID>  (177) 
220459

>  <distance_score>  (177) 
0.963323

>  <original SMILES>  (177) 
CSCC[C@H](CO)NC(=O)C(=O)Nc1cccc2[nH]ccc12

>  <alias>  (177) 
None

>  <ref_pdb>  (177) 
z0211a

>  <inchikey>  (177) 
UCXOUSGPQWXLPI-SNVBAGLBSA-N

$$$$
XWUQVDZICNOZJP-NSHDSACASA-N
     RDKit          3D

 22 24  0  0  0  0  0  0  0  0999 V2000
  -25.8899  -33.0968  -22.6342 C   0  0  0  0  0  0  0  0  0  0  0  0
  -25.1034  -32.0748  -21.8259 C   0  0  1  0  0  0  0  0  0  0  0  0
  -24.0125  -31.4022  -22.6529 C   0  0  0  0  0  0  0  0  0  0  0  0
  -23.0177  -32.2930  -23.2151 N   0  0  0  0  0  0  0  0  0  0  0  0
  -21.7101  -32.4585  -22.6411 C   0  0  0  0  0  0  0  0  0  0  0  0
  -20.8811  -32.8714  -23.8374 C   0  0  0  0  0  0  0  0  0  0  0  0
  -21.8614  -33.6520  -24.7059 C   0  0  0  0  0  0  0  0  0  0  0  0
  -23.1658  -32.9664  -24.4116 C   0  0  0  0  0  0  0  0  0  0  0  0
  -24.1623  -33.0375  -25.1083 O   0  0  0  0  0  0  0  0  0  0  0  0
  -25.9822  -31.0739  -21.2218 N   0  0  0  0  0  0  0  0  0  0  0  0
  -27.1864  -30.3001  -21.8179 C   0  0  0  0  0  0  0  0  0  0  0  0
  -27.6137  -30.2860  -22.9057 O   0  0  0  0  0  0  0  0  0  0  0  0
  -27.7705  -29.3715  -20.7548 C   0  0  0  0  0  0  0  0  0  0  0  0
  -28.2385  -29.8863  -19.4161 C   0  0  0  0  0  0  0  0  0  0  0  0
  -29.5681  -30.0705  -19.3205 N   0  0  0  0  0  0  0  0  0  0  0  0
  -29.8210  -30.1548  -18.0180 N   0  0  0  0  0  0  0  0  0  0  0  0
  -28.7063  -30.1095  -17.2559 C   0  0  0  0  0  0  0  0  0  0  0  0
  -27.6300  -30.0391  -18.1103 C   0  0  0  0  0  0  0  0  0  0  0  0
  -26.2555  -30.0320  -17.5083 C   0  0  0  0  0  0  0  0  0  0  0  0
  -26.1859  -30.6677  -16.1089 C   0  0  0  0  0  0  0  0  0  0  0  0
  -27.2955  -30.1363  -15.1961 C   0  0  0  0  0  0  0  0  0  0  0  0
  -28.7017  -30.2247  -15.7865 C   0  0  0  0  0  0  0  0  0  0  0  0
  2  1  1  6
  2  3  1  0
  3  4  1  0
  4  5  1  0
  5  6  1  0
  6  7  1  0
  7  8  1  0
  8  9  2  0
  2 10  1  0
 10 11  1  0
 11 12  2  0
 11 13  1  0
 13 14  1  0
 14 15  2  0
 15 16  1  0
 16 17  1  0
 17 18  2  0
 18 19  1  0
 19 20  1  0
 20 21  1  0
 21 22  1  0
  8  4  1  0
 18 14  1  0
 22 17  1  0
M  END
>  <fragmenstein_mode>  (178) 
expansion

>  <name>  (178) 
XWUQVDZICNOZJP-NSHDSACASA-N

>  <fragmenstein_runtime>  (178) 
9.202245

>  <HIPPO Compound ID>  (178) 
52471

>  <SLURM_JOB_NAME>  (178) 
BulkDock.place:Flavi_NS5_RdRp:RdRp_knitwork_green_site_rna_tunnel_impure_split4000_batch019

>  <ref_mols>  (178) 
z0936a,z1018a

>  <Multi-SuCOS>  (178) 
0.53963

>  <tags>  (178) 
['Fragmenstein placed', 'RdRp_knitwork_green_site_rna_tunnel_impure_fragalysis.sdf Pose OK']

>  <scratch_subdir>  (178) 
/opt/xchem-fragalysis-2/maxwin/BulkDock/SCRATCH/220470/C52471-P196

>  <energy_score>  (178) 
-32.978494

>  <fragmenstein_error>  (178) 
None

>  <csv_name>  (178) 
RdRp_knitwork_green_site_rna_tunnel_impure_split4000_batch019.csv

>  <merge_set>  (178) 
RdRp_knitwork_green_site_rna_tunnel_impure_fragalysis.sdf

>  <original ID>  (178) 
XWUQVDZICNOZJP-NSHDSACASA-N

>  <HIPPO Pose ID>  (178) 
185894

>  <fragmenstein_outcome>  (178) 
acceptable

>  <exports>  (178) 
['/opt/xchem-fragalysis-2/maxwin/BulkDock/OUTPUTS/RdRp_knitwork_green_site_rna_tunnel_impure_split4000_batch019_220470.sdf', '/opt/xchem-fragalysis-2/maxwin/BulkDock/OUTPUTS/RdRp_knitwork_green_site_rna_tunnel_impure_fragalysis.sdf']

>  <SLURM_JOB_ID>  (178) 
220470

>  <distance_score>  (178) 
0.956121

>  <original SMILES>  (178) 
C[C@@H](CN1CCCC1=O)NC(=O)Cc1n[nH]c2c1CCCC2

>  <alias>  (178) 
None

>  <ref_pdb>  (178) 
z0936a

>  <inchikey>  (178) 
XWUQVDZICNOZJP-NSHDSACASA-N

$$$$
XWUQVDZICNOZJP-NSHDSACASA-N
     RDKit          3D

 22 24  0  0  0  0  0  0  0  0999 V2000
  -23.9030  -33.7703  -20.5886 C   0  0  0  0  0  0  0  0  0  0  0  0
  -23.7672  -32.2572  -20.6462 C   0  0  1  0  0  0  0  0  0  0  0  0
  -22.9300  -31.7208  -21.8251 C   0  0  0  0  0  0  0  0  0  0  0  0
  -22.5954  -32.6147  -22.9131 N   0  0  0  0  0  0  0  0  0  0  0  0
  -21.2238  -32.9708  -23.1733 C   0  0  0  0  0  0  0  0  0  0  0  0
  -21.2082  -33.3700  -24.6353 C   0  0  0  0  0  0  0  0  0  0  0  0
  -22.6448  -33.7744  -24.9328 C   0  0  0  0  0  0  0  0  0  0  0  0
  -23.4346  -32.9267  -23.9683 C   0  0  0  0  0  0  0  0  0  0  0  0
  -24.6017  -32.6002  -24.1100 O   0  0  0  0  0  0  0  0  0  0  0  0
  -25.0444  -31.5618  -20.5958 N   0  0  0  0  0  0  0  0  0  0  0  0
  -26.4682  -32.0502  -20.9484 C   0  0  0  0  0  0  0  0  0  0  0  0
  -26.8486  -33.1075  -21.2600 O   0  0  0  0  0  0  0  0  0  0  0  0
  -27.3772  -30.8253  -20.9298 C   0  0  0  0  0  0  0  0  0  0  0  0
  -27.9857  -30.4268  -19.6291 C   0  0  0  0  0  0  0  0  0  0  0  0
  -29.2967  -30.1248  -19.6448 N   0  0  0  0  0  0  0  0  0  0  0  0
  -29.6009  -29.8204  -18.3828 N   0  0  0  0  0  0  0  0  0  0  0  0
  -28.5296  -29.9009  -17.5548 C   0  0  0  0  0  0  0  0  0  0  0  0
  -27.4411  -30.2342  -18.3308 C   0  0  0  0  0  0  0  0  0  0  0  0
  -26.0751  -30.3646  -17.7596 C   0  0  0  0  0  0  0  0  0  0  0  0
  -26.0036  -29.7783  -16.3359 C   0  0  0  0  0  0  0  0  0  0  0  0
  -27.2379  -30.0166  -15.4518 C   0  0  0  0  0  0  0  0  0  0  0  0
  -28.5773  -29.6587  -16.1040 C   0  0  0  0  0  0  0  0  0  0  0  0
  2  1  1  6
  2  3  1  0
  3  4  1  0
  4  5  1  0
  5  6  1  0
  6  7  1  0
  7  8  1  0
  8  9  2  0
  2 10  1  0
 10 11  1  0
 11 12  2  0
 11 13  1  0
 13 14  1  0
 14 15  2  0
 15 16  1  0
 16 17  1  0
 17 18  2  0
 18 19  1  0
 19 20  1  0
 20 21  1  0
 21 22  1  0
  8  4  1  0
 18 14  1  0
 22 17  1  0
M  END
>  <fragmenstein_mode>  (179) 
expansion

>  <name>  (179) 
XWUQVDZICNOZJP-NSHDSACASA-N

>  <fragmenstein_runtime>  (179) 
6.67232

>  <HIPPO Compound ID>  (179) 
52471

>  <SLURM_JOB_NAME>  (179) 
BulkDock.place:Flavi_NS5_RdRp:RdRp_knitwork_green_site_rna_tunnel_impure_split4000_batch019

>  <ref_mols>  (179) 
z0936a,z1018a

>  <Multi-SuCOS>  (179) 
0.598991

>  <tags>  (179) 
['Fragmenstein placed', 'RdRp_knitwork_green_site_rna_tunnel_impure_fragalysis.sdf Pose OK']

>  <scratch_subdir>  (179) 
/opt/xchem-fragalysis-2/maxwin/BulkDock/SCRATCH/220470/C52471-P206

>  <energy_score>  (179) 
-36.06925

>  <fragmenstein_error>  (179) 
None

>  <csv_name>  (179) 
RdRp_knitwork_green_site_rna_tunnel_impure_split4000_batch019.csv

>  <merge_set>  (179) 
RdRp_knitwork_green_site_rna_tunnel_impure_fragalysis.sdf

>  <original ID>  (179) 
XWUQVDZICNOZJP-NSHDSACASA-N

>  <HIPPO Pose ID>  (179) 
185920

>  <fragmenstein_outcome>  (179) 
acceptable

>  <exports>  (179) 
['/opt/xchem-fragalysis-2/maxwin/BulkDock/OUTPUTS/RdRp_knitwork_green_site_rna_tunnel_impure_split4000_batch019_220470.sdf', '/opt/xchem-fragalysis-2/maxwin/BulkDock/OUTPUTS/RdRp_knitwork_green_site_rna_tunnel_impure_fragalysis.sdf']

>  <SLURM_JOB_ID>  (179) 
220470

>  <distance_score>  (179) 
0.851756

>  <original SMILES>  (179) 
C[C@@H](CN1CCCC1=O)NC(=O)Cc1n[nH]c2c1CCCC2

>  <alias>  (179) 
None

>  <ref_pdb>  (179) 
z1018a

>  <inchikey>  (179) 
XWUQVDZICNOZJP-NSHDSACASA-N

$$$$
YJLPYZNIZMWRSU-UHFFFAOYSA-N
     RDKit          3D

 20 21  0  0  0  0  0  0  0  0999 V2000
  -27.1825  -31.6470  -22.9432 C   0  0  0  0  0  0  0  0  0  0  0  0
  -27.5921  -31.2378  -21.5149 C   0  0  0  0  0  0  0  0  0  0  0  0
  -26.5145  -31.6048  -20.4988 C   0  0  0  0  0  0  0  0  0  0  0  0
  -27.7549  -29.7267  -21.4381 C   0  0  0  0  0  0  0  0  0  0  0  0
  -28.8667  -29.0370  -20.2386 S   0  0  0  0  0  0  0  0  0  0  0  0
  -28.6336  -27.6120  -20.2681 O   0  0  0  0  0  0  0  0  0  0  0  0
  -30.1693  -29.5517  -20.5989 O   0  0  0  0  0  0  0  0  0  0  0  0
  -28.4071  -29.6184  -18.7227 N   0  0  0  0  0  0  0  0  0  0  0  0
  -29.5182  -30.1680  -17.8780 C   0  0  0  0  0  0  0  0  0  0  0  0
  -29.2833  -30.0206  -16.3830 C   0  0  0  0  0  0  0  0  0  0  0  0
  -27.8851  -30.4803  -16.0231 C   0  0  0  0  0  0  0  0  0  0  0  0
  -26.9047  -29.6321  -16.7768 C   0  0  0  0  0  0  0  0  0  0  0  0
  -25.6912  -29.3169  -16.1625 C   0  0  0  0  0  0  0  0  0  0  0  0
  -24.8036  -28.4596  -16.7902 C   0  0  0  0  0  0  0  0  0  0  0  0
  -25.1019  -27.9272  -18.0363 C   0  0  0  0  0  0  0  0  0  0  0  0
  -26.2809  -28.2916  -18.6768 C   0  0  0  0  0  0  0  0  0  0  0  0
  -27.2081  -29.1406  -18.0610 C   0  0  0  0  0  0  0  0  0  0  0  0
  -28.9262  -31.9631  -21.3406 C   0  0  0  0  0  0  0  0  0  0  0  0
  -29.3504  -31.9182  -20.0699 F   0  0  0  0  0  0  0  0  0  0  0  0
  -28.7889  -33.2725  -21.6691 F   0  0  0  0  0  0  0  0  0  0  0  0
  1  2  1  0
  2  3  1  0
  2  4  1  0
  4  5  1  0
  5  6  2  0
  5  7  2  0
  5  8  1  0
  8  9  1  0
  9 10  1  0
 10 11  1  0
 11 12  1  0
 12 13  2  0
 13 14  1  0
 14 15  2  0
 15 16  1  0
 16 17  2  0
  2 18  1  0
 18 19  1  0
 18 20  1  0
 17  8  1  0
 17 12  1  0
M  END
>  <fragmenstein_mode>  (180) 
expansion

>  <name>  (180) 
YJLPYZNIZMWRSU-UHFFFAOYSA-N

>  <fragmenstein_runtime>  (180) 
3.338219

>  <HIPPO Compound ID>  (180) 
65250

>  <SLURM_JOB_NAME>  (180) 
BulkDock.place:Flavi_NS5_RdRp:RdRp_knitwork_green_site_rna_tunnel_impure_split4000_batch007

>  <ref_mols>  (180) 
z0165a,z0628a

>  <Multi-SuCOS>  (180) 
0.549869

>  <tags>  (180) 
['Fragmenstein placed', 'RdRp_knitwork_green_site_rna_tunnel_impure_fragalysis.sdf Pose OK']

>  <scratch_subdir>  (180) 
/opt/xchem-fragalysis-2/maxwin/BulkDock/SCRATCH/220458/C65250-P3

>  <energy_score>  (180) 
-36.497578

>  <fragmenstein_error>  (180) 
None

>  <csv_name>  (180) 
RdRp_knitwork_green_site_rna_tunnel_impure_split4000_batch007.csv

>  <merge_set>  (180) 
RdRp_knitwork_green_site_rna_tunnel_impure_fragalysis.sdf

>  <original ID>  (180) 
YJLPYZNIZMWRSU-UHFFFAOYSA-N

>  <HIPPO Pose ID>  (180) 
186031

>  <fragmenstein_outcome>  (180) 
acceptable

>  <exports>  (180) 
['/opt/xchem-fragalysis-2/maxwin/BulkDock/OUTPUTS/RdRp_knitwork_green_site_rna_tunnel_impure_split4000_batch007_220458.sdf', '/opt/xchem-fragalysis-2/maxwin/BulkDock/OUTPUTS/RdRp_knitwork_green_site_rna_tunnel_impure_fragalysis.sdf']

>  <SLURM_JOB_ID>  (180) 
220458

>  <distance_score>  (180) 
0.970041

>  <original SMILES>  (180) 
CC(C)(CS(=O)(=O)N1CCCc2ccccc21)C(F)F

>  <alias>  (180) 
None

>  <ref_pdb>  (180) 
z0165a

>  <inchikey>  (180) 
YJLPYZNIZMWRSU-UHFFFAOYSA-N

$$$$
VEAPFDSOFLPSJN-BDAKNGLRSA-N
     RDKit          3D

 17 17  0  0  0  0  0  0  0  0999 V2000
  -24.6759  -32.7604  -21.3407 C   0  0  0  0  0  0  0  0  0  0  0  0
  -24.8395  -31.4315  -20.6063 C   0  0  2  0  0  0  0  0  0  0  0  0
  -24.3972  -31.4810  -19.1355 C   0  0  0  0  0  0  0  0  0  0  0  0
  -23.0011  -32.0088  -18.8868 C   0  0  0  0  0  0  0  0  0  0  0  0
  -22.9458  -33.3378  -19.1271 F   0  0  0  0  0  0  0  0  0  0  0  0
  -22.7048  -31.8453  -17.5686 F   0  0  0  0  0  0  0  0  0  0  0  0
  -26.2944  -30.9788  -20.6549 C   0  0  0  0  0  0  0  0  0  0  0  0
  -27.2428  -31.6925  -20.9421 O   0  0  0  0  0  0  0  0  0  0  0  0
  -26.3853  -29.6682  -20.2997 O   0  0  0  0  0  0  0  0  0  0  0  0
  -27.6749  -29.1048  -19.9462 C   0  0  1  0  0  0  0  0  0  0  0  0
  -28.7513  -29.3248  -21.0072 C   0  0  0  0  0  0  0  0  0  0  0  0
  -28.0391  -29.4541  -18.5152 C   0  0  0  0  0  0  0  0  0  0  0  0
  -29.3547  -29.6503  -18.0964 C   0  0  0  0  0  0  0  0  0  0  0  0
  -29.6075  -29.8655  -16.7503 C   0  0  0  0  0  0  0  0  0  0  0  0
  -28.6592  -29.9263  -15.7959 N   0  0  0  0  0  0  0  0  0  0  0  0
  -27.3912  -29.7814  -16.2187 C   0  0  0  0  0  0  0  0  0  0  0  0
  -27.0438  -29.5126  -17.5331 C   0  0  0  0  0  0  0  0  0  0  0  0
  2  1  1  1
  2  3  1  0
  3  4  1  0
  4  5  1  0
  4  6  1  0
  2  7  1  0
  7  8  2  0
  7  9  1  0
  9 10  1  0
 10 11  1  6
 10 12  1  0
 12 13  2  0
 13 14  1  0
 14 15  2  0
 15 16  1  0
 16 17  2  0
 17 12  1  0
M  END
>  <fragmenstein_mode>  (181) 
expansion

>  <name>  (181) 
VEAPFDSOFLPSJN-BDAKNGLRSA-N

>  <fragmenstein_runtime>  (181) 
9.95296

>  <HIPPO Compound ID>  (181) 
54105

>  <SLURM_JOB_NAME>  (181) 
BulkDock.place:Flavi_NS5_RdRp:RdRp_knitwork_green_site_rna_tunnel_impure_split4000_batch005

>  <ref_mols>  (181) 
z0628a,z0637a

>  <Multi-SuCOS>  (181) 
0.614669

>  <tags>  (181) 
['Fragmenstein placed', 'RdRp_knitwork_green_site_rna_tunnel_impure_fragalysis.sdf Pose OK']

>  <scratch_subdir>  (181) 
/opt/xchem-fragalysis-2/maxwin/BulkDock/SCRATCH/220456/C54105-P151

>  <energy_score>  (181) 
-23.729054

>  <fragmenstein_error>  (181) 
None

>  <csv_name>  (181) 
RdRp_knitwork_green_site_rna_tunnel_impure_split4000_batch005.csv

>  <merge_set>  (181) 
RdRp_knitwork_green_site_rna_tunnel_impure_fragalysis.sdf

>  <original ID>  (181) 
VEAPFDSOFLPSJN-BDAKNGLRSA-N

>  <HIPPO Pose ID>  (181) 
186152

>  <fragmenstein_outcome>  (181) 
acceptable

>  <exports>  (181) 
['/opt/xchem-fragalysis-2/maxwin/BulkDock/OUTPUTS/RdRp_knitwork_green_site_rna_tunnel_impure_split4000_batch005_220456.sdf', '/opt/xchem-fragalysis-2/maxwin/BulkDock/OUTPUTS/RdRp_knitwork_green_site_rna_tunnel_impure_fragalysis.sdf']

>  <SLURM_JOB_ID>  (181) 
220456

>  <distance_score>  (181) 
0.870226

>  <original SMILES>  (181) 
C[C@H](CC(F)F)C(=O)O[C@@H](C)c1ccncc1

>  <alias>  (181) 
None

>  <ref_pdb>  (181) 
z0637a

>  <inchikey>  (181) 
VEAPFDSOFLPSJN-BDAKNGLRSA-N

$$$$
KOQNTKIDGWWPRP-UHFFFAOYSA-N
     RDKit          3D

 16 17  0  0  0  0  0  0  0  0999 V2000
  -27.1658  -31.5041  -22.8776 N   0  0  0  0  0  0  0  0  0  0  0  0
  -27.2534  -31.1538  -21.7743 C   0  0  0  0  0  0  0  0  0  0  0  0
  -27.2564  -30.7095  -20.3977 C   0  0  0  0  0  0  0  0  0  0  0  0
  -28.8086  -29.8700  -20.1598 S   0  0  0  0  0  0  0  0  0  0  0  0
  -28.7661  -28.6411  -20.9176 O   0  0  0  0  0  0  0  0  0  0  0  0
  -29.8882  -30.8164  -20.3550 O   0  0  0  0  0  0  0  0  0  0  0  0
  -28.7446  -29.4671  -18.4903 N   0  0  0  0  0  0  0  0  0  0  0  0
  -29.6110  -30.2903  -17.6123 C   0  0  0  0  0  0  0  0  0  0  0  0
  -29.2005  -30.2179  -16.1503 C   0  0  0  0  0  0  0  0  0  0  0  0
  -27.7187  -30.5285  -16.0060 C   0  0  0  0  0  0  0  0  0  0  0  0
  -26.9320  -29.5549  -16.8353 C   0  0  0  0  0  0  0  0  0  0  0  0
  -25.6373  -29.2112  -16.4506 C   0  0  0  0  0  0  0  0  0  0  0  0
  -24.9303  -28.2586  -17.1771 C   0  0  0  0  0  0  0  0  0  0  0  0
  -25.4977  -27.6300  -18.2798 C   0  0  0  0  0  0  0  0  0  0  0  0
  -26.7847  -27.9785  -18.6724 C   0  0  0  0  0  0  0  0  0  0  0  0
  -27.4850  -28.9803  -17.9898 C   0  0  0  0  0  0  0  0  0  0  0  0
  1  2  3  0
  2  3  1  0
  3  4  1  0
  4  5  2  0
  4  6  2  0
  4  7  1  0
  7  8  1  0
  8  9  1  0
  9 10  1  0
 10 11  1  0
 11 12  2  0
 12 13  1  0
 13 14  2  0
 14 15  1  0
 15 16  2  0
 16  7  1  0
 16 11  1  0
M  END
>  <fragmenstein_mode>  (182) 
expansion

>  <name>  (182) 
KOQNTKIDGWWPRP-UHFFFAOYSA-N

>  <fragmenstein_runtime>  (182) 
1.72358

>  <HIPPO Compound ID>  (182) 
65264

>  <SLURM_JOB_NAME>  (182) 
BulkDock.place:Flavi_NS5_RdRp:RdRp_knitwork_green_site_rna_tunnel_impure_split4000_batch007

>  <ref_mols>  (182) 
z0165a,z0628a

>  <Multi-SuCOS>  (182) 
0.679147

>  <tags>  (182) 
['Fragmenstein placed', 'RdRp_knitwork_green_site_rna_tunnel_impure_fragalysis.sdf Pose OK']

>  <scratch_subdir>  (182) 
/opt/xchem-fragalysis-2/maxwin/BulkDock/SCRATCH/220458/C65264-P3

>  <energy_score>  (182) 
-37.581185

>  <fragmenstein_error>  (182) 
None

>  <csv_name>  (182) 
RdRp_knitwork_green_site_rna_tunnel_impure_split4000_batch007.csv

>  <merge_set>  (182) 
RdRp_knitwork_green_site_rna_tunnel_impure_fragalysis.sdf

>  <original ID>  (182) 
KOQNTKIDGWWPRP-UHFFFAOYSA-N

>  <HIPPO Pose ID>  (182) 
186233

>  <fragmenstein_outcome>  (182) 
acceptable

>  <exports>  (182) 
['/opt/xchem-fragalysis-2/maxwin/BulkDock/OUTPUTS/RdRp_knitwork_green_site_rna_tunnel_impure_split4000_batch007_220458.sdf', '/opt/xchem-fragalysis-2/maxwin/BulkDock/OUTPUTS/RdRp_knitwork_green_site_rna_tunnel_impure_fragalysis.sdf']

>  <SLURM_JOB_ID>  (182) 
220458

>  <distance_score>  (182) 
0.817618

>  <original SMILES>  (182) 
N#CCS(=O)(=O)N1CCCc2ccccc21

>  <alias>  (182) 
None

>  <ref_pdb>  (182) 
z0165a

>  <inchikey>  (182) 
KOQNTKIDGWWPRP-UHFFFAOYSA-N

$$$$
KOQNTKIDGWWPRP-UHFFFAOYSA-N
     RDKit          3D

 16 17  0  0  0  0  0  0  0  0999 V2000
  -26.0794  -30.4900  -21.9878 N   0  0  0  0  0  0  0  0  0  0  0  0
  -26.7547  -30.8676  -21.1229 C   0  0  0  0  0  0  0  0  0  0  0  0
  -27.5360  -31.4506  -20.0511 C   0  0  0  0  0  0  0  0  0  0  0  0
  -29.0733  -30.5526  -19.8711 S   0  0  0  0  0  0  0  0  0  0  0  0
  -29.1985  -29.5553  -20.9103 O   0  0  0  0  0  0  0  0  0  0  0  0
  -30.1302  -31.5279  -19.6733 O   0  0  0  0  0  0  0  0  0  0  0  0
  -28.8611  -29.8027  -18.3468 N   0  0  0  0  0  0  0  0  0  0  0  0
  -29.3463  -30.6205  -17.1968 C   0  0  0  0  0  0  0  0  0  0  0  0
  -28.8241  -30.1094  -15.8668 C   0  0  0  0  0  0  0  0  0  0  0  0
  -27.3074  -30.0532  -15.9270 C   0  0  0  0  0  0  0  0  0  0  0  0
  -26.8975  -29.1360  -17.0446 C   0  0  0  0  0  0  0  0  0  0  0  0
  -25.7472  -28.3638  -16.9222 C   0  0  0  0  0  0  0  0  0  0  0  0
  -25.4157  -27.4245  -17.9052 C   0  0  0  0  0  0  0  0  0  0  0  0
  -26.1969  -27.2745  -19.0343 C   0  0  0  0  0  0  0  0  0  0  0  0
  -27.3373  -28.0486  -19.1664 C   0  0  0  0  0  0  0  0  0  0  0  0
  -27.6819  -28.9966  -18.1950 C   0  0  0  0  0  0  0  0  0  0  0  0
  1  2  3  0
  2  3  1  0
  3  4  1  0
  4  5  2  0
  4  6  2  0
  4  7  1  0
  7  8  1  0
  8  9  1  0
  9 10  1  0
 10 11  1  0
 11 12  2  0
 12 13  1  0
 13 14  2  0
 14 15  1  0
 15 16  2  0
 16  7  1  0
 16 11  1  0
M  END
>  <fragmenstein_mode>  (183) 
expansion

>  <name>  (183) 
KOQNTKIDGWWPRP-UHFFFAOYSA-N

>  <fragmenstein_runtime>  (183) 
2.200037

>  <HIPPO Compound ID>  (183) 
65264

>  <SLURM_JOB_NAME>  (183) 
BulkDock.place:Flavi_NS5_RdRp:RdRp_knitwork_green_site_rna_tunnel_impure_split4000_batch007

>  <ref_mols>  (183) 
z0165a,z0628a

>  <Multi-SuCOS>  (183) 
0.626468

>  <tags>  (183) 
['Fragmenstein placed', 'RdRp_knitwork_green_site_rna_tunnel_impure_fragalysis.sdf Pose OK']

>  <scratch_subdir>  (183) 
/opt/xchem-fragalysis-2/maxwin/BulkDock/SCRATCH/220458/C65264-P150

>  <energy_score>  (183) 
-34.325769

>  <fragmenstein_error>  (183) 
None

>  <csv_name>  (183) 
RdRp_knitwork_green_site_rna_tunnel_impure_split4000_batch007.csv

>  <merge_set>  (183) 
RdRp_knitwork_green_site_rna_tunnel_impure_fragalysis.sdf

>  <original ID>  (183) 
KOQNTKIDGWWPRP-UHFFFAOYSA-N

>  <HIPPO Pose ID>  (183) 
186246

>  <fragmenstein_outcome>  (183) 
acceptable

>  <exports>  (183) 
['/opt/xchem-fragalysis-2/maxwin/BulkDock/OUTPUTS/RdRp_knitwork_green_site_rna_tunnel_impure_split4000_batch007_220458.sdf', '/opt/xchem-fragalysis-2/maxwin/BulkDock/OUTPUTS/RdRp_knitwork_green_site_rna_tunnel_impure_fragalysis.sdf']

>  <SLURM_JOB_ID>  (183) 
220458

>  <distance_score>  (183) 
0.880578

>  <original SMILES>  (183) 
N#CCS(=O)(=O)N1CCCc2ccccc21

>  <alias>  (183) 
None

>  <ref_pdb>  (183) 
z0628a

>  <inchikey>  (183) 
KOQNTKIDGWWPRP-UHFFFAOYSA-N

$$$$
GRYPAWLXJQORMF-DNVCBOLYSA-N
     RDKit          3D

 23 26  0  0  0  0  0  0  0  0999 V2000
  -24.3907  -30.8359  -22.6304 O   0  0  0  0  0  0  0  0  0  0  0  0
  -24.1452  -31.9518  -22.1877 C   0  0  0  0  0  0  0  0  0  0  0  0
  -24.5778  -32.4095  -20.9883 O   0  0  0  0  0  0  0  0  0  0  0  0
  -25.3660  -31.5103  -20.1758 C   0  0  0  0  0  0  0  0  0  0  0  0
  -26.6759  -31.1073  -20.8532 C   0  0  0  0  0  0  0  0  0  0  0  0
  -27.7971  -30.3791  -20.1369 C   0  0  0  0  0  0  0  0  0  0  0  0
  -28.8752  -30.0234  -20.9600 C   0  0  0  0  0  0  0  0  0  0  0  0
  -30.1072  -29.7442  -20.4104 C   0  0  0  0  0  0  0  0  0  0  0  0
  -30.3223  -29.7319  -19.0931 N   0  0  0  0  0  0  0  0  0  0  0  0
  -29.2586  -29.8605  -18.2964 C   0  0  0  0  0  0  0  0  0  0  0  0
  -29.4928  -29.6887  -16.9475 C   0  0  0  0  0  0  0  0  0  0  0  0
  -28.4582  -29.6972  -16.0184 C   0  0  0  0  0  0  0  0  0  0  0  0
  -27.1544  -29.8737  -16.4502 C   0  0  0  0  0  0  0  0  0  0  0  0
  -26.9003  -30.1065  -17.8012 C   0  0  0  0  0  0  0  0  0  0  0  0
  -27.9445  -30.1373  -18.7543 C   0  0  0  0  0  0  0  0  0  0  0  0
  -23.3908  -32.9889  -22.9757 C   0  0  2  0  0  0  0  0  0  0  0  0
  -21.9024  -32.5906  -23.1449 C   0  0  0  0  0  0  0  0  0  0  0  0
  -21.2257  -33.3421  -24.2696 C   0  0  0  0  0  0  0  0  0  0  0  0
  -21.9201  -34.1982  -25.0395 C   0  0  0  0  0  0  0  0  0  0  0  0
  -23.3932  -34.3992  -24.8130 C   0  0  2  0  0  0  0  0  0  0  0  0
  -24.0356  -33.1128  -24.3523 C   0  0  0  0  0  0  0  0  0  0  0  0
  -23.5284  -35.2768  -23.6814 O   0  0  0  0  0  0  0  0  0  0  0  0
  -23.5515  -34.4370  -22.4966 C   0  0  0  0  0  0  0  0  0  0  0  0
  1  2  2  0
  2  3  1  0
  3  4  1  0
  4  5  1  0
  5  6  1  0
  6  7  2  0
  7  8  1  0
  8  9  2  0
  9 10  1  0
 10 11  2  0
 11 12  1  0
 12 13  2  0
 13 14  1  0
 14 15  2  0
 16  2  1  1
 16 17  1  0
 17 18  1  0
 18 19  2  0
 19 20  1  0
 20 21  1  0
 20 22  1  1
 22 23  1  0
 15  6  1  0
 21 16  1  0
 15 10  1  0
 23 16  1  0
M  END
>  <fragmenstein_mode>  (184) 
expansion

>  <name>  (184) 
GRYPAWLXJQORMF-DNVCBOLYSA-N

>  <fragmenstein_runtime>  (184) 
11.895733

>  <HIPPO Compound ID>  (184) 
55825

>  <SLURM_JOB_NAME>  (184) 
BulkDock.place:Flavi_NS5_RdRp:RdRp_knitwork_green_site_rna_tunnel_impure_split4000_batch017

>  <ref_mols>  (184) 
z1018a,z1040a

>  <Multi-SuCOS>  (184) 
0.478862

>  <tags>  (184) 
['Fragmenstein placed', 'RdRp_knitwork_green_site_rna_tunnel_impure_fragalysis.sdf Pose OK']

>  <scratch_subdir>  (184) 
/opt/xchem-fragalysis-2/maxwin/BulkDock/SCRATCH/220468/C55825-P206

>  <energy_score>  (184) 
-49.478975

>  <fragmenstein_error>  (184) 
None

>  <csv_name>  (184) 
RdRp_knitwork_green_site_rna_tunnel_impure_split4000_batch017.csv

>  <merge_set>  (184) 
RdRp_knitwork_green_site_rna_tunnel_impure_fragalysis.sdf

>  <original ID>  (184) 
GRYPAWLXJQORMF-DNVCBOLYSA-N

>  <HIPPO Pose ID>  (184) 
186293

>  <fragmenstein_outcome>  (184) 
acceptable

>  <exports>  (184) 
['/opt/xchem-fragalysis-2/maxwin/BulkDock/OUTPUTS/RdRp_knitwork_green_site_rna_tunnel_impure_split4000_batch017_220468.sdf', '/opt/xchem-fragalysis-2/maxwin/BulkDock/OUTPUTS/RdRp_knitwork_green_site_rna_tunnel_impure_fragalysis.sdf']

>  <SLURM_JOB_ID>  (184) 
220468

>  <distance_score>  (184) 
0.886513

>  <original SMILES>  (184) 
O=C(OCCc1ccnc2ccccc12)[C@]12CC=C[C@H](C1)OC2

>  <alias>  (184) 
None

>  <ref_pdb>  (184) 
z1018a

>  <inchikey>  (184) 
GRYPAWLXJQORMF-DNVCBOLYSA-N

$$$$
LVEXTPKRRNHUAM-UHFFFAOYSA-N
     RDKit          3D

 10 11  0  0  0  0  0  0  0  0999 V2000
  -29.3641  -30.5274  -19.3715 C   0  0  0  0  0  0  0  0  0  0  0  0
  -28.7029  -30.1863  -20.5900 C   0  0  0  0  0  0  0  0  0  0  0  0
  -27.7114  -29.2597  -20.3491 C   0  0  0  0  0  0  0  0  0  0  0  0
  -26.7771  -28.6528  -21.4501 C   0  0  0  0  0  0  0  0  0  0  0  0
  -25.9963  -27.5267  -21.2769 C   0  0  0  0  0  0  0  0  0  0  0  0
  -25.1271  -27.1864  -22.7250 S   0  0  0  0  0  0  0  0  0  0  0  0
  -25.7932  -28.6036  -23.4300 C   0  0  0  0  0  0  0  0  0  0  0  0
  -26.6826  -29.2469  -22.6998 N   0  0  0  0  0  0  0  0  0  0  0  0
  -27.6792  -28.9230  -18.6783 S   0  0  0  0  0  0  0  0  0  0  0  0
  -28.9136  -29.9539  -18.2558 N   0  0  0  0  0  0  0  0  0  0  0  0
  1  2  1  0
  2  3  2  0
  3  4  1  0
  4  5  2  0
  5  6  1  0
  6  7  1  0
  7  8  2  0
  3  9  1  0
  9 10  1  0
 10  1  2  0
  8  4  1  0
M  END
>  <fragmenstein_mode>  (185) 
expansion

>  <name>  (185) 
LVEXTPKRRNHUAM-UHFFFAOYSA-N

>  <fragmenstein_runtime>  (185) 
1.568694

>  <HIPPO Compound ID>  (185) 
8347

>  <SLURM_JOB_NAME>  (185) 
BulkDock.place:Flavi_NS5_RdRp:RdRp_knitwork_green_site_rna_tunnel_impure_split4000_batch018

>  <ref_mols>  (185) 
z0496a,z0653a

>  <Multi-SuCOS>  (185) 
0.800783

>  <tags>  (185) 
['Fragmenstein placed', 'RdRp_knitwork_green_site_rna_tunnel_impure_fragalysis.sdf Pose OK']

>  <scratch_subdir>  (185) 
/opt/xchem-fragalysis-2/maxwin/BulkDock/SCRATCH/220469/C8347-P136

>  <energy_score>  (185) 
-60.498512

>  <fragmenstein_error>  (185) 
None

>  <csv_name>  (185) 
RdRp_knitwork_green_site_rna_tunnel_impure_split4000_batch018.csv

>  <merge_set>  (185) 
RdRp_knitwork_green_site_rna_tunnel_impure_fragalysis.sdf

>  <original ID>  (185) 
LVEXTPKRRNHUAM-UHFFFAOYSA-N

>  <HIPPO Pose ID>  (185) 
186382

>  <fragmenstein_outcome>  (185) 
acceptable

>  <exports>  (185) 
['/opt/xchem-fragalysis-2/maxwin/BulkDock/OUTPUTS/RdRp_knitwork_green_site_rna_tunnel_impure_split4000_batch018_220469.sdf', '/opt/xchem-fragalysis-2/maxwin/BulkDock/OUTPUTS/RdRp_knitwork_green_site_rna_tunnel_impure_fragalysis.sdf']

>  <SLURM_JOB_ID>  (185) 
220469

>  <distance_score>  (185) 
0.792101

>  <original SMILES>  (185) 
c1cc(-c2cscn2)sn1

>  <alias>  (185) 
None

>  <ref_pdb>  (185) 
z0496a

>  <inchikey>  (185) 
LVEXTPKRRNHUAM-UHFFFAOYSA-N

$$$$
WJLWEAAMOGNHGR-UHFFFAOYSA-N
     RDKit          3D

 10 11  0  0  0  0  0  0  0  0999 V2000
  -29.3094  -30.4080  -19.2288 C   0  0  0  0  0  0  0  0  0  0  0  0
  -28.7085  -30.2070  -20.4841 C   0  0  0  0  0  0  0  0  0  0  0  0
  -27.7758  -29.2203  -20.2663 C   0  0  0  0  0  0  0  0  0  0  0  0
  -26.8180  -28.6259  -21.3502 C   0  0  0  0  0  0  0  0  0  0  0  0
  -26.0642  -27.4870  -21.1522 C   0  0  0  0  0  0  0  0  0  0  0  0
  -25.1654  -27.1274  -22.5774 S   0  0  0  0  0  0  0  0  0  0  0  0
  -25.7778  -28.5620  -23.2990 C   0  0  0  0  0  0  0  0  0  0  0  0
  -26.6697  -29.2277  -22.5916 N   0  0  0  0  0  0  0  0  0  0  0  0
  -27.8306  -28.8535  -18.9486 O   0  0  0  0  0  0  0  0  0  0  0  0
  -28.7778  -29.6272  -18.2839 N   0  0  0  0  0  0  0  0  0  0  0  0
  1  2  1  0
  2  3  2  0
  3  4  1  0
  4  5  2  0
  5  6  1  0
  6  7  1  0
  7  8  2  0
  3  9  1  0
  9 10  1  0
 10  1  2  0
  8  4  1  0
M  END
>  <fragmenstein_mode>  (186) 
expansion

>  <name>  (186) 
WJLWEAAMOGNHGR-UHFFFAOYSA-N

>  <fragmenstein_runtime>  (186) 
1.09624

>  <HIPPO Compound ID>  (186) 
8728

>  <SLURM_JOB_NAME>  (186) 
BulkDock.place:Flavi_NS5_RdRp:RdRp_knitwork_green_site_rna_tunnel_impure_split4000_batch018

>  <ref_mols>  (186) 
z0496a,z0653a

>  <Multi-SuCOS>  (186) 
0.76365

>  <tags>  (186) 
['Fragmenstein placed', 'RdRp_knitwork_green_site_rna_tunnel_impure_fragalysis.sdf Pose OK']

>  <scratch_subdir>  (186) 
/opt/xchem-fragalysis-2/maxwin/BulkDock/SCRATCH/220469/C8728-P136

>  <energy_score>  (186) 
-76.017297

>  <fragmenstein_error>  (186) 
None

>  <csv_name>  (186) 
RdRp_knitwork_green_site_rna_tunnel_impure_split4000_batch018.csv

>  <merge_set>  (186) 
RdRp_knitwork_green_site_rna_tunnel_impure_fragalysis.sdf

>  <original ID>  (186) 
WJLWEAAMOGNHGR-UHFFFAOYSA-N

>  <HIPPO Pose ID>  (186) 
186420

>  <fragmenstein_outcome>  (186) 
acceptable

>  <exports>  (186) 
['/opt/xchem-fragalysis-2/maxwin/BulkDock/OUTPUTS/RdRp_knitwork_green_site_rna_tunnel_impure_split4000_batch018_220469.sdf', '/opt/xchem-fragalysis-2/maxwin/BulkDock/OUTPUTS/RdRp_knitwork_green_site_rna_tunnel_impure_fragalysis.sdf']

>  <SLURM_JOB_ID>  (186) 
220469

>  <distance_score>  (186) 
0.945163

>  <original SMILES>  (186) 
c1cc(-c2cscn2)on1

>  <alias>  (186) 
None

>  <ref_pdb>  (186) 
z0496a

>  <inchikey>  (186) 
WJLWEAAMOGNHGR-UHFFFAOYSA-N

$$$$
CQIIYFHECUTTLO-UHFFFAOYSA-N
     RDKit          3D

 18 19  0  0  0  0  0  0  0  0999 V2000
  -25.3146  -28.4026  -22.6501 C   0  0  0  0  0  0  0  0  0  0  0  0
  -26.0603  -29.6182  -23.1824 C   0  0  0  0  0  0  0  0  0  0  0  0
  -25.9690  -30.8878  -22.3509 C   0  0  0  0  0  0  0  0  0  0  0  0
  -26.6244  -30.7829  -20.7010 S   0  0  0  0  0  0  0  0  0  0  0  0
  -26.8815  -32.1431  -20.2676 O   0  0  0  0  0  0  0  0  0  0  0  0
  -25.7041  -29.9199  -19.9916 O   0  0  0  0  0  0  0  0  0  0  0  0
  -28.1626  -29.9421  -20.8764 C   0  0  0  0  0  0  0  0  0  0  0  0
  -29.1714  -30.1538  -19.7693 C   0  0  0  0  0  0  0  0  0  0  0  0
  -28.8329  -29.8152  -18.3790 N   0  0  0  0  0  0  0  0  0  0  0  0
  -29.1711  -30.8675  -17.4055 C   0  0  0  0  0  0  0  0  0  0  0  0
  -28.7490  -30.5102  -15.9915 C   0  0  0  0  0  0  0  0  0  0  0  0
  -27.2502  -30.2610  -15.9933 C   0  0  0  0  0  0  0  0  0  0  0  0
  -26.9241  -29.1979  -17.0053 C   0  0  0  0  0  0  0  0  0  0  0  0
  -25.7670  -28.4335  -16.8511 C   0  0  0  0  0  0  0  0  0  0  0  0
  -25.4740  -27.3975  -17.7439 C   0  0  0  0  0  0  0  0  0  0  0  0
  -26.3446  -27.0898  -18.7682 C   0  0  0  0  0  0  0  0  0  0  0  0
  -27.5017  -27.8437  -18.9048 C   0  0  0  0  0  0  0  0  0  0  0  0
  -27.7676  -28.9683  -18.1021 C   0  0  0  0  0  0  0  0  0  0  0  0
  1  2  1  0
  2  3  1  0
  3  4  1  0
  4  5  2  0
  4  6  2  0
  4  7  1  0
  7  8  1  0
  8  9  1  0
  9 10  1  0
 10 11  1  0
 11 12  1  0
 12 13  1  0
 13 14  2  0
 14 15  1  0
 15 16  2  0
 16 17  1  0
 17 18  2  0
 18  9  1  0
 18 13  1  0
M  END
>  <fragmenstein_mode>  (187) 
expansion

>  <name>  (187) 
CQIIYFHECUTTLO-UHFFFAOYSA-N

>  <fragmenstein_runtime>  (187) 
3.336678

>  <HIPPO Compound ID>  (187) 
65268

>  <SLURM_JOB_NAME>  (187) 
BulkDock.place:Flavi_NS5_RdRp:RdRp_knitwork_green_site_rna_tunnel_impure_split4000_batch007

>  <ref_mols>  (187) 
z0165a,z0628a

>  <Multi-SuCOS>  (187) 
0.476364

>  <tags>  (187) 
['Fragmenstein placed', 'RdRp_knitwork_green_site_rna_tunnel_impure_fragalysis.sdf Pose OK']

>  <scratch_subdir>  (187) 
/opt/xchem-fragalysis-2/maxwin/BulkDock/SCRATCH/220458/C65268-P150

>  <energy_score>  (187) 
-32.827203

>  <fragmenstein_error>  (187) 
None

>  <csv_name>  (187) 
RdRp_knitwork_green_site_rna_tunnel_impure_split4000_batch007.csv

>  <merge_set>  (187) 
RdRp_knitwork_green_site_rna_tunnel_impure_fragalysis.sdf

>  <original ID>  (187) 
CQIIYFHECUTTLO-UHFFFAOYSA-N

>  <HIPPO Pose ID>  (187) 
186498

>  <fragmenstein_outcome>  (187) 
acceptable

>  <exports>  (187) 
['/opt/xchem-fragalysis-2/maxwin/BulkDock/OUTPUTS/RdRp_knitwork_green_site_rna_tunnel_impure_split4000_batch007_220458.sdf', '/opt/xchem-fragalysis-2/maxwin/BulkDock/OUTPUTS/RdRp_knitwork_green_site_rna_tunnel_impure_fragalysis.sdf']

>  <SLURM_JOB_ID>  (187) 
220458

>  <distance_score>  (187) 
0.969604

>  <original SMILES>  (187) 
CCCS(=O)(=O)CCN1CCCc2ccccc21

>  <alias>  (187) 
None

>  <ref_pdb>  (187) 
z0628a

>  <inchikey>  (187) 
CQIIYFHECUTTLO-UHFFFAOYSA-N

$$$$
NLUVVFSFDDSRQF-UHFFFAOYSA-N
     RDKit          3D

 22 24  0  0  0  0  0  0  0  0999 V2000
  -27.1478  -31.6500  -14.8685 C   0  0  0  0  0  0  0  0  0  0  0  0
  -27.9039  -30.4635  -15.1050 O   0  0  0  0  0  0  0  0  0  0  0  0
  -27.7778  -30.1231  -16.4205 C   0  0  0  0  0  0  0  0  0  0  0  0
  -28.9278  -30.1878  -17.2022 C   0  0  0  0  0  0  0  0  0  0  0  0
  -28.8420  -29.9547  -18.5798 C   0  0  0  0  0  0  0  0  0  0  0  0
  -29.9544  -30.0490  -19.4178 C   0  0  0  0  0  0  0  0  0  0  0  0
  -29.7899  -29.8188  -20.7715 C   0  0  0  0  0  0  0  0  0  0  0  0
  -28.6077  -29.5265  -21.3475 N   0  0  0  0  0  0  0  0  0  0  0  0
  -27.5481  -29.4147  -20.5203 C   0  0  0  0  0  0  0  0  0  0  0  0
  -27.5971  -29.6177  -19.1451 C   0  0  0  0  0  0  0  0  0  0  0  0
  -26.4599  -29.4925  -18.3390 C   0  0  0  0  0  0  0  0  0  0  0  0
  -26.5539  -29.7615  -16.9861 C   0  0  0  0  0  0  0  0  0  0  0  0
  -25.4396  -29.5344  -16.1470 O   0  0  0  0  0  0  0  0  0  0  0  0
  -24.1755  -30.0735  -16.3520 C   0  0  0  0  0  0  0  0  0  0  0  0
  -23.1694  -29.4748  -15.9792 O   0  0  0  0  0  0  0  0  0  0  0  0
  -24.1321  -31.4480  -16.9692 C   0  0  0  0  0  0  0  0  0  0  0  0
  -23.4454  -31.4023  -18.3253 C   0  0  0  0  0  0  0  0  0  0  0  0
  -24.2558  -32.0627  -19.3915 C   0  0  0  0  0  0  0  0  0  0  0  0
  -24.3978  -33.4219  -19.5931 C   0  0  0  0  0  0  0  0  0  0  0  0
  -25.3738  -33.7126  -20.9697 S   0  0  0  0  0  0  0  0  0  0  0  0
  -25.5457  -32.0287  -21.1839 C   0  0  0  0  0  0  0  0  0  0  0  0
  -24.9366  -31.2679  -20.2999 N   0  0  0  0  0  0  0  0  0  0  0  0
  1  2  1  0
  2  3  1  0
  3  4  2  0
  4  5  1  0
  5  6  2  0
  6  7  1  0
  7  8  2  0
  8  9  1  0
  9 10  2  0
 10 11  1  0
 11 12  2  0
 12 13  1  0
 13 14  1  0
 14 15  2  0
 14 16  1  0
 16 17  1  0
 17 18  1  0
 18 19  2  0
 19 20  1  0
 20 21  1  0
 21 22  2  0
 12  3  1  0
 22 18  1  0
 10  5  1  0
M  END
>  <fragmenstein_mode>  (188) 
expansion

>  <name>  (188) 
NLUVVFSFDDSRQF-UHFFFAOYSA-N

>  <fragmenstein_runtime>  (188) 
4.701137

>  <HIPPO Compound ID>  (188) 
32616

>  <SLURM_JOB_NAME>  (188) 
BulkDock.place:Flavi_NS5_RdRp:RdRp_knitwork_green_site_rna_tunnel_impure_split4000_batch009

>  <ref_mols>  (188) 
d0472b,z0111a

>  <Multi-SuCOS>  (188) 
0.477435

>  <tags>  (188) 
['Fragmenstein placed', 'RdRp_knitwork_green_site_rna_tunnel_impure_fragalysis.sdf Pose OK']

>  <scratch_subdir>  (188) 
/opt/xchem-fragalysis-2/maxwin/BulkDock/SCRATCH/220460/C32616-P88

>  <energy_score>  (188) 
-37.646064

>  <fragmenstein_error>  (188) 
None

>  <csv_name>  (188) 
RdRp_knitwork_green_site_rna_tunnel_impure_split4000_batch009.csv

>  <merge_set>  (188) 
RdRp_knitwork_green_site_rna_tunnel_impure_fragalysis.sdf

>  <original ID>  (188) 
NLUVVFSFDDSRQF-UHFFFAOYSA-N

>  <HIPPO Pose ID>  (188) 
186514

>  <fragmenstein_outcome>  (188) 
acceptable

>  <exports>  (188) 
['/opt/xchem-fragalysis-2/maxwin/BulkDock/OUTPUTS/RdRp_knitwork_green_site_rna_tunnel_impure_split4000_batch009_220460.sdf', '/opt/xchem-fragalysis-2/maxwin/BulkDock/OUTPUTS/RdRp_knitwork_green_site_rna_tunnel_impure_fragalysis.sdf']

>  <SLURM_JOB_ID>  (188) 
220460

>  <distance_score>  (188) 
0.871213

>  <original SMILES>  (188) 
COc1cc2ccncc2cc1OC(=O)CCc1cscn1

>  <alias>  (188) 
None

>  <ref_pdb>  (188) 
z0111a

>  <inchikey>  (188) 
NLUVVFSFDDSRQF-UHFFFAOYSA-N

$$$$
IIXCXKCXGVYMGT-UHFFFAOYSA-N
     RDKit          3D

 26 29  0  0  0  0  0  0  0  0999 V2000
  -24.6776  -31.6923  -22.5333 O   0  0  0  0  0  0  0  0  0  0  0  0
  -25.5235  -32.4496  -22.4382 C   0  0  0  0  0  0  0  0  0  0  0  0
  -25.5345  -33.9864  -22.7071 N   0  0  0  0  0  0  0  0  0  0  0  0
  -24.5071  -34.8483  -23.2386 C   0  0  0  0  0  0  0  0  0  0  0  0
  -23.3061  -34.8475  -22.3331 C   0  0  0  0  0  0  0  0  0  0  0  0
  -23.0692  -35.8663  -21.4091 C   0  0  0  0  0  0  0  0  0  0  0  0
  -21.9961  -35.7659  -20.5182 C   0  0  0  0  0  0  0  0  0  0  0  0
  -21.1631  -34.6318  -20.5127 C   0  0  0  0  0  0  0  0  0  0  0  0
  -20.0928  -34.4939  -19.6143 C   0  0  0  0  0  0  0  0  0  0  0  0
  -19.3006  -33.3424  -19.6171 C   0  0  0  0  0  0  0  0  0  0  0  0
  -19.5708  -32.3091  -20.5099 C   0  0  0  0  0  0  0  0  0  0  0  0
  -20.6119  -32.4399  -21.4259 C   0  0  0  0  0  0  0  0  0  0  0  0
  -21.4043  -33.5975  -21.4391 C   0  0  0  0  0  0  0  0  0  0  0  0
  -22.4483  -33.7368  -22.3553 C   0  0  0  0  0  0  0  0  0  0  0  0
  -26.9829  -32.2656  -21.9411 N   0  0  0  0  0  0  0  0  0  0  0  0
  -27.5965  -31.1853  -21.4114 C   0  0  0  0  0  0  0  0  0  0  0  0
  -28.8807  -30.9539  -21.3242 N   0  0  0  0  0  0  0  0  0  0  0  0
  -29.1673  -30.1381  -20.2478 N   0  0  0  0  0  0  0  0  0  0  0  0
  -28.0913  -29.9448  -19.5016 C   0  0  0  0  0  0  0  0  0  0  0  0
  -28.0812  -29.7994  -18.0404 C   0  0  0  0  0  0  0  0  0  0  0  0
  -26.9202  -29.7671  -17.2680 C   0  0  0  0  0  0  0  0  0  0  0  0
  -27.0281  -29.9068  -15.8876 C   0  0  0  0  0  0  0  0  0  0  0  0
  -28.2825  -30.0700  -15.3183 C   0  0  0  0  0  0  0  0  0  0  0  0
  -29.3847  -30.0754  -16.1481 C   0  0  0  0  0  0  0  0  0  0  0  0
  -29.3099  -29.9307  -17.4813 N   0  0  0  0  0  0  0  0  0  0  0  0
  -26.6426  -30.2340  -20.3963 S   0  0  0  0  0  0  0  0  0  0  0  0
  1  2  2  0
  2  3  1  0
  3  4  1  0
  4  5  1  0
  5  6  2  0
  6  7  1  0
  7  8  2  0
  8  9  1  0
  9 10  2  0
 10 11  1  0
 11 12  2  0
 12 13  1  0
 13 14  2  0
  2 15  1  0
 15 16  1  0
 16 17  2  0
 17 18  1  0
 18 19  2  0
 19 20  1  0
 20 21  2  0
 21 22  1  0
 22 23  2  0
 23 24  1  0
 24 25  2  0
 19 26  1  0
 14  5  1  0
 26 16  1  0
 13  8  1  0
 25 20  1  0
M  END
>  <fragmenstein_mode>  (189) 
expansion

>  <name>  (189) 
IIXCXKCXGVYMGT-UHFFFAOYSA-N

>  <fragmenstein_runtime>  (189) 
2.271937

>  <HIPPO Compound ID>  (189) 
27931

>  <SLURM_JOB_NAME>  (189) 
BulkDock.place:Flavi_NS5_RdRp:RdRp_knitwork_green_site_rna_tunnel_impure_split4000_batch004

>  <ref_mols>  (189) 
z0215a,3vws-b

>  <Multi-SuCOS>  (189) 
0.619295

>  <tags>  (189) 
['Fragmenstein placed', 'RdRp_knitwork_green_site_rna_tunnel_impure_fragalysis.sdf Pose OK']

>  <scratch_subdir>  (189) 
/opt/xchem-fragalysis-2/maxwin/BulkDock/SCRATCH/220455/C27931-P104

>  <energy_score>  (189) 
-76.339546

>  <fragmenstein_error>  (189) 
None

>  <csv_name>  (189) 
RdRp_knitwork_green_site_rna_tunnel_impure_split4000_batch004.csv

>  <merge_set>  (189) 
RdRp_knitwork_green_site_rna_tunnel_impure_fragalysis.sdf

>  <original ID>  (189) 
IIXCXKCXGVYMGT-UHFFFAOYSA-N

>  <HIPPO Pose ID>  (189) 
186698

>  <fragmenstein_outcome>  (189) 
acceptable

>  <exports>  (189) 
['/opt/xchem-fragalysis-2/maxwin/BulkDock/OUTPUTS/RdRp_knitwork_green_site_rna_tunnel_impure_split4000_batch004_220455.sdf', '/opt/xchem-fragalysis-2/maxwin/BulkDock/OUTPUTS/RdRp_knitwork_green_site_rna_tunnel_impure_fragalysis.sdf']

>  <SLURM_JOB_ID>  (189) 
220455

>  <distance_score>  (189) 
0.872473

>  <original SMILES>  (189) 
O=C(NCc1ccc2ccccc2c1)Nc1nnc(-c2ccccn2)s1

>  <alias>  (189) 
None

>  <ref_pdb>  (189) 
z0215a

>  <inchikey>  (189) 
IIXCXKCXGVYMGT-UHFFFAOYSA-N

$$$$
SQBVMNPCPDEOCQ-UHFFFAOYSA-N
     RDKit          3D

 23 26  0  0  0  0  0  0  0  0999 V2000
  -28.5564  -30.0301  -15.6068 C   0  0  0  0  0  0  0  0  0  0  0  0
  -27.2166  -29.9469  -15.9522 C   0  0  0  0  0  0  0  0  0  0  0  0
  -26.8626  -29.9038  -17.2981 C   0  0  0  0  0  0  0  0  0  0  0  0
  -27.8636  -29.9635  -18.2728 C   0  0  0  0  0  0  0  0  0  0  0  0
  -27.5800  -30.1163  -19.7150 C   0  0  0  0  0  0  0  0  0  0  0  0
  -28.4147  -29.9442  -20.7237 N   0  0  0  0  0  0  0  0  0  0  0  0
  -27.8816  -30.3848  -21.9330 N   0  0  0  0  0  0  0  0  0  0  0  0
  -26.6654  -30.8816  -21.8148 C   0  0  0  0  0  0  0  0  0  0  0  0
  -25.9894  -31.5242  -22.8103 N   0  0  0  0  0  0  0  0  0  0  0  0
  -24.5228  -31.5860  -22.8828 C   0  0  0  0  0  0  0  0  0  0  0  0
  -24.0130  -32.9579  -23.3607 C   0  0  0  0  0  0  0  0  0  0  0  0
  -23.2809  -33.7841  -22.3217 C   0  0  0  0  0  0  0  0  0  0  0  0
  -23.6998  -35.0341  -21.9071 C   0  0  0  0  0  0  0  0  0  0  0  0
  -22.6441  -35.7602  -20.7877 S   0  0  0  0  0  0  0  0  0  0  0  0
  -21.5871  -34.4061  -20.7932 C   0  0  0  0  0  0  0  0  0  0  0  0
  -20.4054  -34.2584  -20.0362 C   0  0  0  0  0  0  0  0  0  0  0  0
  -19.6557  -33.0897  -20.1676 C   0  0  0  0  0  0  0  0  0  0  0  0
  -20.0671  -32.0920  -21.0368 C   0  0  0  0  0  0  0  0  0  0  0  0
  -21.2278  -32.2519  -21.8012 C   0  0  0  0  0  0  0  0  0  0  0  0
  -22.0300  -33.4156  -21.6766 C   0  0  0  0  0  0  0  0  0  0  0  0
  -26.0481  -30.7144  -20.2281 S   0  0  0  0  0  0  0  0  0  0  0  0
  -29.1763  -30.0169  -17.9378 N   0  0  0  0  0  0  0  0  0  0  0  0
  -29.4917  -30.0550  -16.6253 C   0  0  0  0  0  0  0  0  0  0  0  0
  1  2  2  0
  2  3  1  0
  3  4  2  0
  4  5  1  0
  5  6  2  0
  6  7  1  0
  7  8  2  0
  8  9  1  0
  9 10  1  0
 10 11  1  0
 11 12  1  0
 12 13  2  0
 13 14  1  0
 14 15  1  0
 15 16  2  0
 16 17  1  0
 17 18  2  0
 18 19  1  0
 19 20  2  0
  8 21  1  0
  4 22  1  0
 22 23  2  0
 23  1  1  0
 21  5  1  0
 20 12  1  0
 20 15  1  0
M  END
>  <fragmenstein_mode>  (190) 
expansion

>  <name>  (190) 
SQBVMNPCPDEOCQ-UHFFFAOYSA-N

>  <fragmenstein_runtime>  (190) 
2.250314

>  <HIPPO Compound ID>  (190) 
27959

>  <SLURM_JOB_NAME>  (190) 
BulkDock.place:Flavi_NS5_RdRp:RdRp_knitwork_green_site_rna_tunnel_impure_split4000_batch004

>  <ref_mols>  (190) 
z0215a,3vws-b

>  <Multi-SuCOS>  (190) 
0.614547

>  <tags>  (190) 
['Fragmenstein placed', 'RdRp_knitwork_green_site_rna_tunnel_impure_fragalysis.sdf Pose OK']

>  <scratch_subdir>  (190) 
/opt/xchem-fragalysis-2/maxwin/BulkDock/SCRATCH/220455/C27959-P104

>  <energy_score>  (190) 
-91.249269

>  <fragmenstein_error>  (190) 
None

>  <csv_name>  (190) 
RdRp_knitwork_green_site_rna_tunnel_impure_split4000_batch004.csv

>  <merge_set>  (190) 
RdRp_knitwork_green_site_rna_tunnel_impure_fragalysis.sdf

>  <original ID>  (190) 
SQBVMNPCPDEOCQ-UHFFFAOYSA-N

>  <HIPPO Pose ID>  (190) 
186752

>  <fragmenstein_outcome>  (190) 
acceptable

>  <exports>  (190) 
['/opt/xchem-fragalysis-2/maxwin/BulkDock/OUTPUTS/RdRp_knitwork_green_site_rna_tunnel_impure_split4000_batch004_220455.sdf', '/opt/xchem-fragalysis-2/maxwin/BulkDock/OUTPUTS/RdRp_knitwork_green_site_rna_tunnel_impure_fragalysis.sdf']

>  <SLURM_JOB_ID>  (190) 
220455

>  <distance_score>  (190) 
0.859971

>  <original SMILES>  (190) 
c1ccc(-c2nnc(NCCc3csc4ccccc34)s2)nc1

>  <alias>  (190) 
None

>  <ref_pdb>  (190) 
z0215a

>  <inchikey>  (190) 
SQBVMNPCPDEOCQ-UHFFFAOYSA-N

$$$$
FFSKKBLZIMCEMM-UHFFFAOYSA-N
     RDKit          3D

 25 28  0  0  0  0  0  0  0  0999 V2000
  -23.6538  -31.3587  -21.4125 O   0  0  0  0  0  0  0  0  0  0  0  0
  -24.3669  -31.7620  -22.2459 C   0  0  0  0  0  0  0  0  0  0  0  0
  -23.8205  -32.7603  -23.2818 C   0  0  0  0  0  0  0  0  0  0  0  0
  -23.1525  -33.9288  -22.5443 C   0  0  0  0  0  0  0  0  0  0  0  0
  -23.8473  -35.1509  -22.4905 C   0  0  0  0  0  0  0  0  0  0  0  0
  -23.4059  -36.1875  -21.6773 C   0  0  0  0  0  0  0  0  0  0  0  0
  -22.2812  -36.0044  -20.8757 C   0  0  0  0  0  0  0  0  0  0  0  0
  -21.5507  -34.8067  -20.9091 C   0  0  0  0  0  0  0  0  0  0  0  0
  -20.4300  -34.6393  -20.0713 C   0  0  0  0  0  0  0  0  0  0  0  0
  -19.6669  -33.4733  -20.1066 C   0  0  0  0  0  0  0  0  0  0  0  0
  -20.0146  -32.4587  -20.9844 C   0  0  0  0  0  0  0  0  0  0  0  0
  -21.1258  -32.6098  -21.8188 C   0  0  0  0  0  0  0  0  0  0  0  0
  -21.9460  -33.7663  -21.7862 C   0  0  0  0  0  0  0  0  0  0  0  0
  -25.8903  -31.5388  -22.4624 N   0  0  0  0  0  0  0  0  0  0  0  0
  -26.8055  -30.8925  -21.6920 C   0  0  0  0  0  0  0  0  0  0  0  0
  -28.0710  -30.6212  -21.8962 N   0  0  0  0  0  0  0  0  0  0  0  0
  -28.6860  -30.1469  -20.7209 N   0  0  0  0  0  0  0  0  0  0  0  0
  -27.8510  -30.1069  -19.6915 C   0  0  0  0  0  0  0  0  0  0  0  0
  -28.1441  -29.9412  -18.2513 C   0  0  0  0  0  0  0  0  0  0  0  0
  -27.1394  -29.7938  -17.2838 C   0  0  0  0  0  0  0  0  0  0  0  0
  -27.4641  -29.8772  -15.9344 C   0  0  0  0  0  0  0  0  0  0  0  0
  -28.7843  -30.0787  -15.5749 C   0  0  0  0  0  0  0  0  0  0  0  0
  -29.7274  -30.1791  -16.5826 C   0  0  0  0  0  0  0  0  0  0  0  0
  -29.4396  -30.1120  -17.9011 N   0  0  0  0  0  0  0  0  0  0  0  0
  -26.2472  -30.4940  -20.1511 S   0  0  0  0  0  0  0  0  0  0  0  0
  1  2  2  0
  2  3  1  0
  3  4  1  0
  4  5  2  0
  5  6  1  0
  6  7  2  0
  7  8  1  0
  8  9  2  0
  9 10  1  0
 10 11  2  0
 11 12  1  0
 12 13  2  0
  2 14  1  0
 14 15  1  0
 15 16  2  0
 16 17  1  0
 17 18  2  0
 18 19  1  0
 19 20  2  0
 20 21  1  0
 21 22  2  0
 22 23  1  0
 23 24  2  0
 18 25  1  0
 13  4  1  0
 25 15  1  0
 13  8  1  0
 24 19  1  0
M  END
>  <fragmenstein_mode>  (191) 
expansion

>  <name>  (191) 
FFSKKBLZIMCEMM-UHFFFAOYSA-N

>  <fragmenstein_runtime>  (191) 
2.915832

>  <HIPPO Compound ID>  (191) 
28597

>  <SLURM_JOB_NAME>  (191) 
BulkDock.place:Flavi_NS5_RdRp:RdRp_knitwork_green_site_rna_tunnel_impure_split4000_batch004

>  <ref_mols>  (191) 
z0215a,3vws-b

>  <Multi-SuCOS>  (191) 
0.610007

>  <tags>  (191) 
['Fragmenstein placed', 'RdRp_knitwork_green_site_rna_tunnel_impure_fragalysis.sdf Pose OK']

>  <scratch_subdir>  (191) 
/opt/xchem-fragalysis-2/maxwin/BulkDock/SCRATCH/220455/C28597-P104

>  <energy_score>  (191) 
-65.957518

>  <fragmenstein_error>  (191) 
None

>  <csv_name>  (191) 
RdRp_knitwork_green_site_rna_tunnel_impure_split4000_batch004.csv

>  <merge_set>  (191) 
RdRp_knitwork_green_site_rna_tunnel_impure_fragalysis.sdf

>  <original ID>  (191) 
FFSKKBLZIMCEMM-UHFFFAOYSA-N

>  <HIPPO Pose ID>  (191) 
186832

>  <fragmenstein_outcome>  (191) 
acceptable

>  <exports>  (191) 
['/opt/xchem-fragalysis-2/maxwin/BulkDock/OUTPUTS/RdRp_knitwork_green_site_rna_tunnel_impure_split4000_batch004_220455.sdf', '/opt/xchem-fragalysis-2/maxwin/BulkDock/OUTPUTS/RdRp_knitwork_green_site_rna_tunnel_impure_fragalysis.sdf']

>  <SLURM_JOB_ID>  (191) 
220455

>  <distance_score>  (191) 
0.837988

>  <original SMILES>  (191) 
O=C(Cc1cccc2ccccc12)Nc1nnc(-c2ccccn2)s1

>  <alias>  (191) 
None

>  <ref_pdb>  (191) 
z0215a

>  <inchikey>  (191) 
FFSKKBLZIMCEMM-UHFFFAOYSA-N

$$$$
KOOFTMGGPVJFLI-UHFFFAOYSA-N
     RDKit          3D

 10 11  0  0  0  0  0  0  0  0999 V2000
  -26.0767  -30.8317  -21.4073 C   0  0  0  0  0  0  0  0  0  0  0  0
  -26.5129  -31.1879  -20.1521 C   0  0  0  0  0  0  0  0  0  0  0  0
  -26.5251  -30.0244  -19.4141 N   0  0  0  0  0  0  0  0  0  0  0  0
  -26.9415  -29.8674  -18.0926 C   0  0  0  0  0  0  0  0  0  0  0  0
  -27.0430  -28.6759  -17.5242 N   0  0  0  0  0  0  0  0  0  0  0  0
  -27.5186  -28.9420  -16.2673 C   0  0  0  0  0  0  0  0  0  0  0  0
  -27.6807  -30.2913  -16.0994 C   0  0  0  0  0  0  0  0  0  0  0  0
  -27.3178  -30.8998  -17.2604 O   0  0  0  0  0  0  0  0  0  0  0  0
  -26.0628  -29.0403  -20.2550 C   0  0  0  0  0  0  0  0  0  0  0  0
  -25.7915  -29.4937  -21.4603 N   0  0  0  0  0  0  0  0  0  0  0  0
  1  2  2  0
  2  3  1  0
  3  4  1  0
  4  5  2  0
  5  6  1  0
  6  7  2  0
  7  8  1  0
  3  9  1  0
  9 10  2  0
 10  1  1  0
  8  4  1  0
M  END
>  <fragmenstein_mode>  (192) 
expansion

>  <name>  (192) 
KOOFTMGGPVJFLI-UHFFFAOYSA-N

>  <fragmenstein_runtime>  (192) 
1.383435

>  <HIPPO Compound ID>  (192) 
8713

>  <SLURM_JOB_NAME>  (192) 
BulkDock.place:Flavi_NS5_RdRp:RdRp_knitwork_green_site_rna_tunnel_impure_split4000_batch015

>  <ref_mols>  (192) 
d0378a,z0215a

>  <Multi-SuCOS>  (192) 
0.787285

>  <tags>  (192) 
['Fragmenstein placed', 'RdRp_knitwork_green_site_rna_tunnel_impure_fragalysis.sdf Pose OK']

>  <scratch_subdir>  (192) 
/opt/xchem-fragalysis-2/maxwin/BulkDock/SCRATCH/220466/C8713-P1

>  <energy_score>  (192) 
-15.540871

>  <fragmenstein_error>  (192) 
None

>  <csv_name>  (192) 
RdRp_knitwork_green_site_rna_tunnel_impure_split4000_batch015.csv

>  <merge_set>  (192) 
RdRp_knitwork_green_site_rna_tunnel_impure_fragalysis.sdf

>  <original ID>  (192) 
KOOFTMGGPVJFLI-UHFFFAOYSA-N

>  <HIPPO Pose ID>  (192) 
187075

>  <fragmenstein_outcome>  (192) 
acceptable

>  <exports>  (192) 
['/opt/xchem-fragalysis-2/maxwin/BulkDock/OUTPUTS/RdRp_knitwork_green_site_rna_tunnel_impure_split4000_batch015_220466.sdf', '/opt/xchem-fragalysis-2/maxwin/BulkDock/OUTPUTS/RdRp_knitwork_green_site_rna_tunnel_impure_fragalysis.sdf']

>  <SLURM_JOB_ID>  (192) 
220466

>  <distance_score>  (192) 
0.877084

>  <original SMILES>  (192) 
c1cn(-c2ncco2)cn1

>  <alias>  (192) 
None

>  <ref_pdb>  (192) 
d0378a

>  <inchikey>  (192) 
KOOFTMGGPVJFLI-UHFFFAOYSA-N

$$$$
YIUWBOMTSWJYQS-UHFFFAOYSA-N
     RDKit          3D

 10 11  0  0  0  0  0  0  0  0999 V2000
  -26.0579  -30.8279  -21.4772 C   0  0  0  0  0  0  0  0  0  0  0  0
  -26.4944  -31.2104  -20.2296 C   0  0  0  0  0  0  0  0  0  0  0  0
  -26.5185  -30.0622  -19.4607 N   0  0  0  0  0  0  0  0  0  0  0  0
  -26.9229  -29.8753  -18.1372 C   0  0  0  0  0  0  0  0  0  0  0  0
  -27.0289  -28.6866  -17.5858 N   0  0  0  0  0  0  0  0  0  0  0  0
  -27.4805  -28.8396  -16.2911 C   0  0  0  0  0  0  0  0  0  0  0  0
  -27.6934  -30.1366  -15.8740 C   0  0  0  0  0  0  0  0  0  0  0  0
  -27.3255  -31.2107  -17.1579 S   0  0  0  0  0  0  0  0  0  0  0  0
  -26.0624  -29.0618  -20.2941 C   0  0  0  0  0  0  0  0  0  0  0  0
  -25.7833  -29.4903  -21.5056 N   0  0  0  0  0  0  0  0  0  0  0  0
  1  2  2  0
  2  3  1  0
  3  4  1  0
  4  5  2  0
  5  6  1  0
  6  7  2  0
  7  8  1  0
  3  9  1  0
  9 10  2  0
 10  1  1  0
  8  4  1  0
M  END
>  <fragmenstein_mode>  (193) 
expansion

>  <name>  (193) 
YIUWBOMTSWJYQS-UHFFFAOYSA-N

>  <fragmenstein_runtime>  (193) 
1.132796

>  <HIPPO Compound ID>  (193) 
8782

>  <SLURM_JOB_NAME>  (193) 
BulkDock.place:Flavi_NS5_RdRp:RdRp_knitwork_green_site_rna_tunnel_impure_split4000_batch015

>  <ref_mols>  (193) 
d0378a,z0215a

>  <Multi-SuCOS>  (193) 
0.770107

>  <tags>  (193) 
['Fragmenstein placed', 'RdRp_knitwork_green_site_rna_tunnel_impure_fragalysis.sdf Pose OK']

>  <scratch_subdir>  (193) 
/opt/xchem-fragalysis-2/maxwin/BulkDock/SCRATCH/220466/C8782-P1

>  <energy_score>  (193) 
-75.521956

>  <fragmenstein_error>  (193) 
None

>  <csv_name>  (193) 
RdRp_knitwork_green_site_rna_tunnel_impure_split4000_batch015.csv

>  <merge_set>  (193) 
RdRp_knitwork_green_site_rna_tunnel_impure_fragalysis.sdf

>  <original ID>  (193) 
YIUWBOMTSWJYQS-UHFFFAOYSA-N

>  <HIPPO Pose ID>  (193) 
187119

>  <fragmenstein_outcome>  (193) 
acceptable

>  <exports>  (193) 
['/opt/xchem-fragalysis-2/maxwin/BulkDock/OUTPUTS/RdRp_knitwork_green_site_rna_tunnel_impure_split4000_batch015_220466.sdf', '/opt/xchem-fragalysis-2/maxwin/BulkDock/OUTPUTS/RdRp_knitwork_green_site_rna_tunnel_impure_fragalysis.sdf']

>  <SLURM_JOB_ID>  (193) 
220466

>  <distance_score>  (193) 
0.891363

>  <original SMILES>  (193) 
c1cn(-c2nccs2)cn1

>  <alias>  (193) 
None

>  <ref_pdb>  (193) 
d0378a

>  <inchikey>  (193) 
YIUWBOMTSWJYQS-UHFFFAOYSA-N

$$$$
ZRMQVLXXFHZAPR-UHFFFAOYSA-N
     RDKit          3D

 12 12  0  0  0  0  0  0  0  0999 V2000
  -25.1883  -28.0000  -21.2683 C   0  0  0  0  0  0  0  0  0  0  0  0
  -25.5599  -28.9964  -22.7229 S   0  0  0  0  0  0  0  0  0  0  0  0
  -26.0618  -30.6012  -21.9977 C   0  0  0  0  0  0  0  0  0  0  0  0
  -26.7757  -30.5592  -20.6516 C   0  0  0  0  0  0  0  0  0  0  0  0
  -27.8909  -29.6635  -20.7152 O   0  0  0  0  0  0  0  0  0  0  0  0
  -28.9211  -29.9413  -19.8654 C   0  0  0  0  0  0  0  0  0  0  0  0
  -30.0494  -30.1454  -20.2910 O   0  0  0  0  0  0  0  0  0  0  0  0
  -28.6075  -29.9017  -18.4364 C   0  0  0  0  0  0  0  0  0  0  0  0
  -27.4763  -29.3688  -17.7470 C   0  0  0  0  0  0  0  0  0  0  0  0
  -27.6563  -29.5879  -16.3995 C   0  0  0  0  0  0  0  0  0  0  0  0
  -28.8818  -30.1728  -16.2279 N   0  0  0  0  0  0  0  0  0  0  0  0
  -29.4617  -30.3670  -17.4505 C   0  0  0  0  0  0  0  0  0  0  0  0
  1  2  1  0
  2  3  1  0
  3  4  1  0
  4  5  1  0
  5  6  1  0
  6  7  2  0
  6  8  1  0
  8  9  1  0
  9 10  2  0
 10 11  1  0
 11 12  1  0
 12  8  2  0
M  END
>  <fragmenstein_mode>  (194) 
expansion

>  <name>  (194) 
ZRMQVLXXFHZAPR-UHFFFAOYSA-N

>  <fragmenstein_runtime>  (194) 
2.576801

>  <HIPPO Compound ID>  (194) 
53602

>  <SLURM_JOB_NAME>  (194) 
BulkDock.place:Flavi_NS5_RdRp:RdRp_knitwork_green_site_rna_tunnel_impure_split4000_batch011

>  <ref_mols>  (194) 
d0472b,z0628a

>  <Multi-SuCOS>  (194) 
0.678185

>  <tags>  (194) 
['Fragmenstein placed', 'RdRp_knitwork_green_site_rna_tunnel_impure_fragalysis.sdf Pose OK']

>  <scratch_subdir>  (194) 
/opt/xchem-fragalysis-2/maxwin/BulkDock/SCRATCH/220462/C53602-P150

>  <energy_score>  (194) 
-4.131059

>  <fragmenstein_error>  (194) 
None

>  <csv_name>  (194) 
RdRp_knitwork_green_site_rna_tunnel_impure_split4000_batch011.csv

>  <merge_set>  (194) 
RdRp_knitwork_green_site_rna_tunnel_impure_fragalysis.sdf

>  <original ID>  (194) 
ZRMQVLXXFHZAPR-UHFFFAOYSA-N

>  <HIPPO Pose ID>  (194) 
187128

>  <fragmenstein_outcome>  (194) 
acceptable

>  <exports>  (194) 
['/opt/xchem-fragalysis-2/maxwin/BulkDock/OUTPUTS/RdRp_knitwork_green_site_rna_tunnel_impure_split4000_batch011_220462.sdf', '/opt/xchem-fragalysis-2/maxwin/BulkDock/OUTPUTS/RdRp_knitwork_green_site_rna_tunnel_impure_fragalysis.sdf']

>  <SLURM_JOB_ID>  (194) 
220462

>  <distance_score>  (194) 
0.967618

>  <original SMILES>  (194) 
CSCCOC(=O)c1cc[nH]c1

>  <alias>  (194) 
None

>  <ref_pdb>  (194) 
z0628a

>  <inchikey>  (194) 
ZRMQVLXXFHZAPR-UHFFFAOYSA-N

$$$$
LWNCQDDAEOYCHK-UHFFFAOYSA-N
     RDKit          3D

 26 29  0  0  0  0  0  0  0  0999 V2000
  -26.0475  -29.8842  -15.4034 C   0  0  0  0  0  0  0  0  0  0  0  0
  -26.1328  -29.9776  -16.8423 N   0  0  0  0  0  0  0  0  0  0  0  0
  -25.0947  -30.4169  -17.6166 C   0  0  0  0  0  0  0  0  0  0  0  0
  -25.5644  -30.6130  -18.8999 C   0  0  0  0  0  0  0  0  0  0  0  0
  -24.7524  -31.1922  -19.9378 C   0  0  0  0  0  0  0  0  0  0  0  0
  -25.1348  -31.2208  -21.1741 N   0  0  0  0  0  0  0  0  0  0  0  0
  -24.2326  -31.8233  -21.9734 N   0  0  0  0  0  0  0  0  0  0  0  0
  -24.2782  -32.1271  -23.5041 C   0  0  0  0  0  0  0  0  0  0  0  0
  -25.0717  -31.8307  -24.3132 O   0  0  0  0  0  0  0  0  0  0  0  0
  -23.0185  -32.9371  -23.8507 C   0  0  0  0  0  0  0  0  0  0  0  0
  -22.6078  -33.9708  -22.8066 C   0  0  0  0  0  0  0  0  0  0  0  0
  -23.3695  -35.1535  -22.7352 C   0  0  0  0  0  0  0  0  0  0  0  0
  -23.1044  -36.1193  -21.7741 C   0  0  0  0  0  0  0  0  0  0  0  0
  -22.0631  -35.9203  -20.8715 C   0  0  0  0  0  0  0  0  0  0  0  0
  -21.2825  -34.7539  -20.9075 C   0  0  0  0  0  0  0  0  0  0  0  0
  -20.2407  -34.5783  -19.9814 C   0  0  0  0  0  0  0  0  0  0  0  0
  -19.4783  -33.4120  -19.9663 C   0  0  0  0  0  0  0  0  0  0  0  0
  -19.7501  -32.4034  -20.8781 C   0  0  0  0  0  0  0  0  0  0  0  0
  -20.7614  -32.5741  -21.8260 C   0  0  0  0  0  0  0  0  0  0  0  0
  -21.5504  -33.7503  -21.8734 C   0  0  0  0  0  0  0  0  0  0  0  0
  -26.9346  -30.2113  -18.9130 C   0  0  0  0  0  0  0  0  0  0  0  0
  -27.9427  -30.2080  -19.9019 C   0  0  0  0  0  0  0  0  0  0  0  0
  -29.2594  -29.9136  -19.5453 C   0  0  0  0  0  0  0  0  0  0  0  0
  -29.5748  -29.5992  -18.2294 C   0  0  0  0  0  0  0  0  0  0  0  0
  -28.5854  -29.4912  -17.2504 C   0  0  0  0  0  0  0  0  0  0  0  0
  -27.2694  -29.8268  -17.6080 C   0  0  0  0  0  0  0  0  0  0  0  0
  1  2  1  0
  2  3  1  0
  3  4  2  0
  4  5  1  0
  5  6  2  3
  6  7  1  0
  7  8  1  0
  8  9  2  0
  8 10  1  0
 10 11  1  0
 11 12  2  0
 12 13  1  0
 13 14  2  0
 14 15  1  0
 15 16  2  0
 16 17  1  0
 17 18  2  0
 18 19  1  0
 19 20  2  0
  4 21  1  0
 21 22  2  0
 22 23  1  0
 23 24  2  0
 24 25  1  0
 25 26  2  0
 26  2  1  0
 20 11  1  0
 26 21  1  0
 20 15  1  0
M  END
>  <fragmenstein_mode>  (195) 
expansion

>  <name>  (195) 
LWNCQDDAEOYCHK-UHFFFAOYSA-N

>  <fragmenstein_runtime>  (195) 
4.462844

>  <HIPPO Compound ID>  (195) 
31839

>  <SLURM_JOB_NAME>  (195) 
BulkDock.place:Flavi_NS5_RdRp:RdRp_knitwork_green_site_rna_tunnel_impure_split4000_batch013

>  <ref_mols>  (195) 
z0041a,3vws-b

>  <Multi-SuCOS>  (195) 
0.759281

>  <tags>  (195) 
['Fragmenstein placed', 'RdRp_knitwork_green_site_rna_tunnel_impure_fragalysis.sdf Pose OK']

>  <scratch_subdir>  (195) 
/opt/xchem-fragalysis-2/maxwin/BulkDock/SCRATCH/220464/C31839-P82

>  <energy_score>  (195) 
-62.585245

>  <fragmenstein_error>  (195) 
None

>  <csv_name>  (195) 
RdRp_knitwork_green_site_rna_tunnel_impure_split4000_batch013.csv

>  <merge_set>  (195) 
RdRp_knitwork_green_site_rna_tunnel_impure_fragalysis.sdf

>  <original ID>  (195) 
LWNCQDDAEOYCHK-UHFFFAOYSA-N

>  <HIPPO Pose ID>  (195) 
187211

>  <fragmenstein_outcome>  (195) 
acceptable

>  <exports>  (195) 
['/opt/xchem-fragalysis-2/maxwin/BulkDock/OUTPUTS/RdRp_knitwork_green_site_rna_tunnel_impure_split4000_batch013_220464.sdf', '/opt/xchem-fragalysis-2/maxwin/BulkDock/OUTPUTS/RdRp_knitwork_green_site_rna_tunnel_impure_fragalysis.sdf']

>  <SLURM_JOB_ID>  (195) 
220464

>  <distance_score>  (195) 
0.833486

>  <original SMILES>  (195) 
Cn1cc(C=NNC(=O)Cc2cccc3ccccc23)c2ccccc21

>  <alias>  (195) 
None

>  <ref_pdb>  (195) 
z0041a

>  <inchikey>  (195) 
LWNCQDDAEOYCHK-UHFFFAOYSA-N

$$$$
QKRYZFKUELKZLT-UHFFFAOYSA-N
     RDKit          3D

 27 30  0  0  0  0  0  0  0  0999 V2000
  -25.6548  -30.0777  -15.4266 C   0  0  0  0  0  0  0  0  0  0  0  0
  -25.8582  -30.0726  -16.8580 N   0  0  0  0  0  0  0  0  0  0  0  0
  -24.9260  -30.4919  -17.7699 C   0  0  0  0  0  0  0  0  0  0  0  0
  -25.5712  -30.6957  -18.9743 C   0  0  0  0  0  0  0  0  0  0  0  0
  -24.9543  -31.3265  -20.1179 C   0  0  0  0  0  0  0  0  0  0  0  0
  -25.7071  -31.8401  -21.0329 N   0  0  0  0  0  0  0  0  0  0  0  0
  -25.0514  -32.4010  -22.0579 N   0  0  0  0  0  0  0  0  0  0  0  0
  -25.4437  -33.5999  -22.9760 C   0  0  0  0  0  0  0  0  0  0  0  0
  -26.4308  -34.2264  -23.0241 O   0  0  0  0  0  0  0  0  0  0  0  0
  -24.2820  -33.7787  -23.9515 C   0  0  0  0  0  0  0  0  0  0  0  0
  -23.0295  -33.5148  -23.3401 O   0  0  0  0  0  0  0  0  0  0  0  0
  -22.6087  -34.3927  -22.3672 C   0  0  0  0  0  0  0  0  0  0  0  0
  -23.1841  -35.6515  -22.1494 C   0  0  0  0  0  0  0  0  0  0  0  0
  -22.7075  -36.4773  -21.1408 C   0  0  0  0  0  0  0  0  0  0  0  0
  -21.6307  -36.0625  -20.3613 C   0  0  0  0  0  0  0  0  0  0  0  0
  -21.0312  -34.8089  -20.5618 C   0  0  0  0  0  0  0  0  0  0  0  0
  -19.9440  -34.3994  -19.7730 C   0  0  0  0  0  0  0  0  0  0  0  0
  -19.3673  -33.1401  -19.9414 C   0  0  0  0  0  0  0  0  0  0  0  0
  -19.8700  -32.2724  -20.9024 C   0  0  0  0  0  0  0  0  0  0  0  0
  -20.9290  -32.6758  -21.7157 C   0  0  0  0  0  0  0  0  0  0  0  0
  -21.5299  -33.9470  -21.5654 C   0  0  0  0  0  0  0  0  0  0  0  0
  -26.9204  -30.2428  -18.8107 C   0  0  0  0  0  0  0  0  0  0  0  0
  -28.0500  -30.1982  -19.6585 C   0  0  0  0  0  0  0  0  0  0  0  0
  -29.2938  -29.8367  -19.1378 C   0  0  0  0  0  0  0  0  0  0  0  0
  -29.4178  -29.4860  -17.7983 C   0  0  0  0  0  0  0  0  0  0  0  0
  -28.3063  -29.4372  -16.9552 C   0  0  0  0  0  0  0  0  0  0  0  0
  -27.0680  -29.8432  -17.4790 C   0  0  0  0  0  0  0  0  0  0  0  0
  1  2  1  0
  2  3  1  0
  3  4  2  0
  4  5  1  0
  5  6  2  3
  6  7  1  0
  7  8  1  0
  8  9  2  0
  8 10  1  0
 10 11  1  0
 11 12  1  0
 12 13  2  0
 13 14  1  0
 14 15  2  0
 15 16  1  0
 16 17  2  0
 17 18  1  0
 18 19  2  0
 19 20  1  0
 20 21  2  0
  4 22  1  0
 22 23  2  0
 23 24  1  0
 24 25  2  0
 25 26  1  0
 26 27  2  0
 27  2  1  0
 21 12  1  0
 27 22  1  0
 21 16  1  0
M  END
>  <fragmenstein_mode>  (196) 
expansion

>  <name>  (196) 
QKRYZFKUELKZLT-UHFFFAOYSA-N

>  <fragmenstein_runtime>  (196) 
4.648639

>  <HIPPO Compound ID>  (196) 
32315

>  <SLURM_JOB_NAME>  (196) 
BulkDock.place:Flavi_NS5_RdRp:RdRp_knitwork_green_site_rna_tunnel_impure_split4000_batch013

>  <ref_mols>  (196) 
z0041a,3vws-b

>  <Multi-SuCOS>  (196) 
0.726889

>  <tags>  (196) 
['Fragmenstein placed', 'RdRp_knitwork_green_site_rna_tunnel_impure_fragalysis.sdf Pose OK']

>  <scratch_subdir>  (196) 
/opt/xchem-fragalysis-2/maxwin/BulkDock/SCRATCH/220464/C32315-P82

>  <energy_score>  (196) 
-67.671247

>  <fragmenstein_error>  (196) 
None

>  <csv_name>  (196) 
RdRp_knitwork_green_site_rna_tunnel_impure_split4000_batch013.csv

>  <merge_set>  (196) 
RdRp_knitwork_green_site_rna_tunnel_impure_fragalysis.sdf

>  <original ID>  (196) 
QKRYZFKUELKZLT-UHFFFAOYSA-N

>  <HIPPO Pose ID>  (196) 
187398

>  <fragmenstein_outcome>  (196) 
acceptable

>  <exports>  (196) 
['/opt/xchem-fragalysis-2/maxwin/BulkDock/OUTPUTS/RdRp_knitwork_green_site_rna_tunnel_impure_split4000_batch013_220464.sdf', '/opt/xchem-fragalysis-2/maxwin/BulkDock/OUTPUTS/RdRp_knitwork_green_site_rna_tunnel_impure_fragalysis.sdf']

>  <SLURM_JOB_ID>  (196) 
220464

>  <distance_score>  (196) 
0.682828

>  <original SMILES>  (196) 
Cn1cc(C=NNC(=O)COc2cccc3ccccc23)c2ccccc21

>  <alias>  (196) 
None

>  <ref_pdb>  (196) 
z0041a

>  <inchikey>  (196) 
QKRYZFKUELKZLT-UHFFFAOYSA-N

$$$$
SIDIOSPHPBBBDU-MRVPVSSYSA-N
     RDKit          3D

 13 13  0  0  0  0  0  0  0  0999 V2000
  -25.0960  -26.1595  -20.0336 C   0  0  0  0  0  0  0  0  0  0  0  0
  -24.3111  -27.1581  -20.6660 O   0  0  0  0  0  0  0  0  0  0  0  0
  -25.0282  -27.9305  -21.6296 C   0  0  0  0  0  0  0  0  0  0  0  0
  -26.1968  -28.7970  -21.0986 C   0  0  1  0  0  0  0  0  0  0  0  0
  -26.6620  -29.7088  -22.0968 O   0  0  0  0  0  0  0  0  0  0  0  0
  -25.8583  -30.8614  -22.3009 C   0  0  0  0  0  0  0  0  0  0  0  0
  -26.0068  -29.2715  -19.6195 C   0  0  0  0  0  0  0  0  0  0  0  0
  -24.9121  -29.2442  -19.0575 O   0  0  0  0  0  0  0  0  0  0  0  0
  -27.1959  -29.6418  -18.8637 C   0  0  0  0  0  0  0  0  0  0  0  0
  -28.4986  -29.8771  -19.2644 C   0  0  0  0  0  0  0  0  0  0  0  0
  -29.2665  -30.1750  -18.1099 C   0  0  0  0  0  0  0  0  0  0  0  0
  -28.4233  -30.1054  -17.0263 C   0  0  0  0  0  0  0  0  0  0  0  0
  -27.1707  -29.8124  -17.4921 N   0  0  0  0  0  0  0  0  0  0  0  0
  1  2  1  0
  2  3  1  0
  4  3  1  6
  4  5  1  0
  5  6  1  0
  4  7  1  0
  7  8  2  0
  7  9  1  0
  9 10  2  0
 10 11  1  0
 11 12  2  0
 12 13  1  0
 13  9  1  0
M  END
>  <fragmenstein_mode>  (197) 
expansion

>  <name>  (197) 
SIDIOSPHPBBBDU-MRVPVSSYSA-N

>  <fragmenstein_runtime>  (197) 
2.460316

>  <HIPPO Compound ID>  (197) 
53916

>  <SLURM_JOB_NAME>  (197) 
BulkDock.place:Flavi_NS5_RdRp:RdRp_knitwork_green_site_rna_tunnel_impure_split4000_batch011

>  <ref_mols>  (197) 
d0472b,z0628a

>  <Multi-SuCOS>  (197) 
0.598977

>  <tags>  (197) 
['Fragmenstein placed', 'RdRp_knitwork_green_site_rna_tunnel_impure_fragalysis.sdf Pose OK']

>  <scratch_subdir>  (197) 
/opt/xchem-fragalysis-2/maxwin/BulkDock/SCRATCH/220462/C53916-P150

>  <energy_score>  (197) 
-37.372621

>  <fragmenstein_error>  (197) 
None

>  <csv_name>  (197) 
RdRp_knitwork_green_site_rna_tunnel_impure_split4000_batch011.csv

>  <merge_set>  (197) 
RdRp_knitwork_green_site_rna_tunnel_impure_fragalysis.sdf

>  <original ID>  (197) 
SIDIOSPHPBBBDU-MRVPVSSYSA-N

>  <HIPPO Pose ID>  (197) 
187412

>  <fragmenstein_outcome>  (197) 
acceptable

>  <exports>  (197) 
['/opt/xchem-fragalysis-2/maxwin/BulkDock/OUTPUTS/RdRp_knitwork_green_site_rna_tunnel_impure_split4000_batch011_220462.sdf', '/opt/xchem-fragalysis-2/maxwin/BulkDock/OUTPUTS/RdRp_knitwork_green_site_rna_tunnel_impure_fragalysis.sdf']

>  <SLURM_JOB_ID>  (197) 
220462

>  <distance_score>  (197) 
0.93051

>  <original SMILES>  (197) 
COC[C@@H](OC)C(=O)c1ccc[nH]1

>  <alias>  (197) 
None

>  <ref_pdb>  (197) 
z0628a

>  <inchikey>  (197) 
SIDIOSPHPBBBDU-MRVPVSSYSA-N

$$$$
ZKOKYJVIUKLQAB-UHFFFAOYSA-N
     RDKit          3D

 20 23  0  0  0  0  0  0  0  0999 V2000
  -26.6855  -33.2134  -20.6690 C   0  0  0  0  0  0  0  0  0  0  0  0
  -26.7551  -33.8653  -19.4492 C   0  0  0  0  0  0  0  0  0  0  0  0
  -25.8456  -33.5256  -18.4531 C   0  0  0  0  0  0  0  0  0  0  0  0
  -24.8791  -32.5428  -18.6898 C   0  0  0  0  0  0  0  0  0  0  0  0
  -23.9140  -32.1298  -17.5687 C   0  0  0  0  0  0  0  0  0  0  0  0
  -24.4665  -31.2372  -16.5020 N   0  0  0  0  0  0  0  0  0  0  0  0
  -25.1147  -30.0340  -17.0531 C   0  0  0  0  0  0  0  0  0  0  0  0
  -26.5711  -30.2193  -17.4528 C   0  0  0  0  0  0  0  0  0  0  0  0
  -27.4921  -30.7014  -16.5106 C   0  0  0  0  0  0  0  0  0  0  0  0
  -28.8376  -30.8548  -16.8503 C   0  0  0  0  0  0  0  0  0  0  0  0
  -29.1474  -30.5184  -18.1582 C   0  0  0  0  0  0  0  0  0  0  0  0
  -30.3643  -30.5845  -18.7607 O   0  0  0  0  0  0  0  0  0  0  0  0
  -30.1872  -30.1645  -20.0457 C   0  0  0  0  0  0  0  0  0  0  0  0
  -28.8718  -29.8280  -20.2724 C   0  0  0  0  0  0  0  0  0  0  0  0
  -28.1994  -30.0458  -19.0504 C   0  0  0  0  0  0  0  0  0  0  0  0
  -26.9047  -29.8552  -18.7175 N   0  0  0  0  0  0  0  0  0  0  0  0
  -22.4405  -31.9969  -17.8991 C   0  0  0  0  0  0  0  0  0  0  0  0
  -22.9088  -33.1782  -17.1111 C   0  0  0  0  0  0  0  0  0  0  0  0
  -24.8042  -31.9123  -19.8938 N   0  0  0  0  0  0  0  0  0  0  0  0
  -25.7046  -32.2536  -20.8413 C   0  0  0  0  0  0  0  0  0  0  0  0
  1  2  2  0
  2  3  1  0
  3  4  2  0
  4  5  1  0
  5  6  1  0
  6  7  1  0
  7  8  1  0
  8  9  2  0
  9 10  1  0
 10 11  2  0
 11 12  1  0
 12 13  1  0
 13 14  2  0
 14 15  1  0
 15 16  2  0
  5 17  1  0
 17 18  1  0
  4 19  1  0
 19 20  2  0
 20  1  1  0
 18  5  1  0
 16  8  1  0
 15 11  1  0
M  END
>  <fragmenstein_mode>  (198) 
expansion

>  <name>  (198) 
ZKOKYJVIUKLQAB-UHFFFAOYSA-N

>  <fragmenstein_runtime>  (198) 
1.738264

>  <HIPPO Compound ID>  (198) 
30433

>  <SLURM_JOB_NAME>  (198) 
BulkDock.place:Flavi_NS5_RdRp:RdRp_knitwork_green_site_rna_tunnel_impure_split4000_batch012

>  <ref_mols>  (198) 
d0472b,z1040a

>  <Multi-SuCOS>  (198) 
0.581613

>  <tags>  (198) 
['Fragmenstein placed', 'RdRp_knitwork_green_site_rna_tunnel_impure_fragalysis.sdf Pose OK']

>  <scratch_subdir>  (198) 
/opt/xchem-fragalysis-2/maxwin/BulkDock/SCRATCH/220463/C30433-P208

>  <energy_score>  (198) 
-40.575199

>  <fragmenstein_error>  (198) 
None

>  <csv_name>  (198) 
RdRp_knitwork_green_site_rna_tunnel_impure_split4000_batch012.csv

>  <merge_set>  (198) 
RdRp_knitwork_green_site_rna_tunnel_impure_fragalysis.sdf

>  <original ID>  (198) 
ZKOKYJVIUKLQAB-UHFFFAOYSA-N

>  <HIPPO Pose ID>  (198) 
187420

>  <fragmenstein_outcome>  (198) 
acceptable

>  <exports>  (198) 
['/opt/xchem-fragalysis-2/maxwin/BulkDock/OUTPUTS/RdRp_knitwork_green_site_rna_tunnel_impure_split4000_batch012_220463.sdf', '/opt/xchem-fragalysis-2/maxwin/BulkDock/OUTPUTS/RdRp_knitwork_green_site_rna_tunnel_impure_fragalysis.sdf']

>  <SLURM_JOB_ID>  (198) 
220463

>  <distance_score>  (198) 
0.841751

>  <original SMILES>  (198) 
c1ccc(C2(NCc3ccc4occc4n3)CC2)nc1

>  <alias>  (198) 
None

>  <ref_pdb>  (198) 
z1040a

>  <inchikey>  (198) 
ZKOKYJVIUKLQAB-UHFFFAOYSA-N

$$$$
OOLACDMCGXUDPT-ZDUSSCGKSA-N
     RDKit          3D

 16 18  0  0  0  0  0  0  0  0999 V2000
  -25.2494  -28.1143  -23.8736 C   0  0  0  0  0  0  0  0  0  0  0  0
  -25.9701  -29.2713  -24.1001 C   0  0  0  0  0  0  0  0  0  0  0  0
  -26.7116  -29.7931  -23.0537 C   0  0  0  0  0  0  0  0  0  0  0  0
  -26.7486  -29.1529  -21.8197 C   0  0  0  0  0  0  0  0  0  0  0  0
  -27.5875  -29.7805  -20.7291 C   0  0  2  0  0  0  0  0  0  0  0  0
  -27.8061  -28.8893  -19.5110 C   0  0  0  0  0  0  0  0  0  0  0  0
  -28.8972  -29.3919  -18.6565 N   0  0  0  0  0  0  0  0  0  0  0  0
  -28.8310  -30.7405  -18.2533 C   0  0  0  0  0  0  0  0  0  0  0  0
  -29.7038  -31.1306  -17.2250 C   0  0  0  0  0  0  0  0  0  0  0  0
  -29.7447  -32.4471  -16.7640 C   0  0  0  0  0  0  0  0  0  0  0  0
  -28.9062  -33.4015  -17.3266 C   0  0  0  0  0  0  0  0  0  0  0  0
  -28.0317  -33.0373  -18.3500 C   0  0  0  0  0  0  0  0  0  0  0  0
  -27.9934  -31.7172  -18.8254 C   0  0  0  0  0  0  0  0  0  0  0  0
  -26.8757  -31.3783  -20.1780 S   0  0  0  0  0  0  0  0  0  0  0  0
  -26.0963  -27.9909  -21.6059 N   0  0  0  0  0  0  0  0  0  0  0  0
  -25.3577  -27.5078  -22.6323 C   0  0  0  0  0  0  0  0  0  0  0  0
  1  2  2  0
  2  3  1  0
  3  4  2  0
  5  4  1  6
  5  6  1  0
  6  7  1  0
  7  8  1  0
  8  9  2  0
  9 10  1  0
 10 11  2  0
 11 12  1  0
 12 13  2  0
 13 14  1  0
  4 15  1  0
 15 16  2  0
 16  1  1  0
 14  5  1  0
 13  8  1  0
M  END
>  <fragmenstein_mode>  (199) 
expansion

>  <name>  (199) 
OOLACDMCGXUDPT-ZDUSSCGKSA-N

>  <fragmenstein_runtime>  (199) 
24.160194

>  <HIPPO Compound ID>  (199) 
36977

>  <SLURM_JOB_NAME>  (199) 
BulkDock.place:Flavi_NS5_RdRp:RdRp_knitwork_green_site_rna_tunnel_impure_split4000_batch019

>  <ref_mols>  (199) 
z0221a,z0364a

>  <Multi-SuCOS>  (199) 
0.440454

>  <tags>  (199) 
['Fragmenstein placed', 'RdRp_knitwork_green_site_rna_tunnel_impure_fragalysis.sdf Pose OK']

>  <scratch_subdir>  (199) 
/opt/xchem-fragalysis-2/maxwin/BulkDock/SCRATCH/220470/C36977-P105

>  <energy_score>  (199) 
-15.403012

>  <fragmenstein_error>  (199) 
None

>  <csv_name>  (199) 
RdRp_knitwork_green_site_rna_tunnel_impure_split4000_batch019.csv

>  <merge_set>  (199) 
RdRp_knitwork_green_site_rna_tunnel_impure_fragalysis.sdf

>  <original ID>  (199) 
OOLACDMCGXUDPT-ZDUSSCGKSA-N

>  <HIPPO Pose ID>  (199) 
187759

>  <fragmenstein_outcome>  (199) 
acceptable

>  <exports>  (199) 
['/opt/xchem-fragalysis-2/maxwin/BulkDock/OUTPUTS/RdRp_knitwork_green_site_rna_tunnel_impure_split4000_batch019_220470.sdf', '/opt/xchem-fragalysis-2/maxwin/BulkDock/OUTPUTS/RdRp_knitwork_green_site_rna_tunnel_impure_fragalysis.sdf']

>  <SLURM_JOB_ID>  (199) 
220470

>  <distance_score>  (199) 
0.872148

>  <original SMILES>  (199) 
c1ccc([C@@H]2CNc3ccccc3S2)nc1

>  <alias>  (199) 
None

>  <ref_pdb>  (199) 
z0221a

>  <inchikey>  (199) 
OOLACDMCGXUDPT-ZDUSSCGKSA-N

$$$$
ZFEGRHYJPRCZIJ-UHFFFAOYSA-N
     RDKit          3D

 18 20  0  0  0  0  0  0  0  0999 V2000
  -30.4383  -30.5559  -19.8084 C   0  0  0  0  0  0  0  0  0  0  0  0
  -29.6115  -30.4818  -18.5601 C   0  0  0  0  0  0  0  0  0  0  0  0
  -30.0905  -31.0339  -17.3739 C   0  0  0  0  0  0  0  0  0  0  0  0
  -29.4465  -30.9972  -16.1892 N   0  0  0  0  0  0  0  0  0  0  0  0
  -28.2338  -30.4271  -16.2051 C   0  0  0  0  0  0  0  0  0  0  0  0
  -27.6441  -29.8901  -17.3381 C   0  0  0  0  0  0  0  0  0  0  0  0
  -28.3290  -29.9134  -18.5513 C   0  0  0  0  0  0  0  0  0  0  0  0
  -27.8414  -29.3054  -19.7172 N   0  0  0  0  0  0  0  0  0  0  0  0
  -26.4415  -28.9069  -19.7962 C   0  0  0  0  0  0  0  0  0  0  0  0
  -26.0795  -28.6640  -21.2235 C   0  0  0  0  0  0  0  0  0  0  0  0
  -25.5359  -27.4555  -21.7013 C   0  0  0  0  0  0  0  0  0  0  0  0
  -25.1235  -27.2683  -23.0463 C   0  0  0  0  0  0  0  0  0  0  0  0
  -25.1924  -28.2645  -24.0351 C   0  0  0  0  0  0  0  0  0  0  0  0
  -25.7085  -29.4776  -23.5748 C   0  0  0  0  0  0  0  0  0  0  0  0
  -25.8270  -30.6445  -24.2132 N   0  0  0  0  0  0  0  0  0  0  0  0
  -26.2086  -31.5582  -23.2423 O   0  0  0  0  0  0  0  0  0  0  0  0
  -26.5408  -30.9408  -22.0562 N   0  0  0  0  0  0  0  0  0  0  0  0
  -26.1436  -29.6706  -22.2035 C   0  0  0  0  0  0  0  0  0  0  0  0
  1  2  1  0
  2  3  2  0
  3  4  1  0
  4  5  2  0
  5  6  1  0
  6  7  2  0
  7  8  1  0
  8  9  1  0
  9 10  1  0
 10 11  2  0
 11 12  1  0
 12 13  2  0
 13 14  1  0
 14 15  2  0
 15 16  1  0
 16 17  1  0
 17 18  2  0
  7  2  1  0
 18 10  1  0
 18 14  1  0
M  END
>  <fragmenstein_mode>  (200) 
expansion

>  <name>  (200) 
ZFEGRHYJPRCZIJ-UHFFFAOYSA-N

>  <fragmenstein_runtime>  (200) 
2.459651

>  <HIPPO Compound ID>  (200) 
29497

>  <SLURM_JOB_NAME>  (200) 
BulkDock.place:Flavi_NS5_RdRp:RdRp_knitwork_green_site_rna_tunnel_impure_split4000_batch005

>  <ref_mols>  (200) 
z0386a,z0521a

>  <Multi-SuCOS>  (200) 
0.617157

>  <tags>  (200) 
['Fragmenstein placed', 'RdRp_knitwork_green_site_rna_tunnel_impure_fragalysis.sdf Pose OK']

>  <scratch_subdir>  (200) 
/opt/xchem-fragalysis-2/maxwin/BulkDock/SCRATCH/220456/C29497-P121

>  <energy_score>  (200) 
-31.610973

>  <fragmenstein_error>  (200) 
None

>  <csv_name>  (200) 
RdRp_knitwork_green_site_rna_tunnel_impure_split4000_batch005.csv

>  <merge_set>  (200) 
RdRp_knitwork_green_site_rna_tunnel_impure_fragalysis.sdf

>  <original ID>  (200) 
ZFEGRHYJPRCZIJ-UHFFFAOYSA-N

>  <HIPPO Pose ID>  (200) 
188383

>  <fragmenstein_outcome>  (200) 
acceptable

>  <exports>  (200) 
['/opt/xchem-fragalysis-2/maxwin/BulkDock/OUTPUTS/RdRp_knitwork_green_site_rna_tunnel_impure_split4000_batch005_220456.sdf', '/opt/xchem-fragalysis-2/maxwin/BulkDock/OUTPUTS/RdRp_knitwork_green_site_rna_tunnel_impure_fragalysis.sdf']

>  <SLURM_JOB_ID>  (200) 
220456

>  <distance_score>  (200) 
0.843732

>  <original SMILES>  (200) 
Cc1cnccc1NCc1cccc2nonc12

>  <alias>  (200) 
None

>  <ref_pdb>  (200) 
z0386a

>  <inchikey>  (200) 
ZFEGRHYJPRCZIJ-UHFFFAOYSA-N

$$$$
KKQJKZBVNODONW-UHFFFAOYSA-N
     RDKit          3D

 18 20  0  0  0  0  0  0  0  0999 V2000
  -30.3067  -30.1356  -19.8810 F   0  0  0  0  0  0  0  0  0  0  0  0
  -29.6089  -30.3216  -18.7488 C   0  0  0  0  0  0  0  0  0  0  0  0
  -30.0708  -31.2056  -17.7901 C   0  0  0  0  0  0  0  0  0  0  0  0
  -29.4482  -31.4372  -16.6125 N   0  0  0  0  0  0  0  0  0  0  0  0
  -28.2794  -30.7945  -16.4342 C   0  0  0  0  0  0  0  0  0  0  0  0
  -27.7239  -29.9169  -17.3554 C   0  0  0  0  0  0  0  0  0  0  0  0
  -28.4022  -29.6439  -18.5420 C   0  0  0  0  0  0  0  0  0  0  0  0
  -28.0094  -28.6438  -19.4435 N   0  0  0  0  0  0  0  0  0  0  0  0
  -26.5979  -28.3226  -19.6441 C   0  0  0  0  0  0  0  0  0  0  0  0
  -26.2145  -28.5963  -21.0607 C   0  0  0  0  0  0  0  0  0  0  0  0
  -25.6077  -27.6357  -21.8988 C   0  0  0  0  0  0  0  0  0  0  0  0
  -25.2695  -27.8863  -23.2490 C   0  0  0  0  0  0  0  0  0  0  0  0
  -25.5244  -29.1086  -23.8905 C   0  0  0  0  0  0  0  0  0  0  0  0
  -26.0129  -30.1398  -23.0585 C   0  0  0  0  0  0  0  0  0  0  0  0
  -26.1359  -31.4390  -23.3755 N   0  0  0  0  0  0  0  0  0  0  0  0
  -26.5368  -32.2510  -21.9830 S   0  0  0  0  0  0  0  0  0  0  0  0
  -26.7556  -30.9778  -20.9735 N   0  0  0  0  0  0  0  0  0  0  0  0
  -26.3541  -29.8805  -21.6332 C   0  0  0  0  0  0  0  0  0  0  0  0
  1  2  1  0
  2  3  2  0
  3  4  1  0
  4  5  2  0
  5  6  1  0
  6  7  2  0
  7  8  1  0
  8  9  1  0
  9 10  1  0
 10 11  2  0
 11 12  1  0
 12 13  2  0
 13 14  1  0
 14 15  2  0
 15 16  1  0
 16 17  1  0
 17 18  2  0
  7  2  1  0
 18 10  1  0
 18 14  1  0
M  END
>  <fragmenstein_mode>  (201) 
expansion

>  <name>  (201) 
KKQJKZBVNODONW-UHFFFAOYSA-N

>  <fragmenstein_runtime>  (201) 
2.692037

>  <HIPPO Compound ID>  (201) 
29623

>  <SLURM_JOB_NAME>  (201) 
BulkDock.place:Flavi_NS5_RdRp:RdRp_knitwork_green_site_rna_tunnel_impure_split4000_batch005

>  <ref_mols>  (201) 
z0386a,z0521a

>  <Multi-SuCOS>  (201) 
0.518995

>  <tags>  (201) 
['Fragmenstein placed', 'RdRp_knitwork_green_site_rna_tunnel_impure_fragalysis.sdf Pose OK']

>  <scratch_subdir>  (201) 
/opt/xchem-fragalysis-2/maxwin/BulkDock/SCRATCH/220456/C29623-P121

>  <energy_score>  (201) 
-52.527894

>  <fragmenstein_error>  (201) 
None

>  <csv_name>  (201) 
RdRp_knitwork_green_site_rna_tunnel_impure_split4000_batch005.csv

>  <merge_set>  (201) 
RdRp_knitwork_green_site_rna_tunnel_impure_fragalysis.sdf

>  <original ID>  (201) 
KKQJKZBVNODONW-UHFFFAOYSA-N

>  <HIPPO Pose ID>  (201) 
188430

>  <fragmenstein_outcome>  (201) 
acceptable

>  <exports>  (201) 
['/opt/xchem-fragalysis-2/maxwin/BulkDock/OUTPUTS/RdRp_knitwork_green_site_rna_tunnel_impure_split4000_batch005_220456.sdf', '/opt/xchem-fragalysis-2/maxwin/BulkDock/OUTPUTS/RdRp_knitwork_green_site_rna_tunnel_impure_fragalysis.sdf']

>  <SLURM_JOB_ID>  (201) 
220456

>  <distance_score>  (201) 
0.942254

>  <original SMILES>  (201) 
Fc1cnccc1NCc1cccc2nsnc12

>  <alias>  (201) 
None

>  <ref_pdb>  (201) 
z0386a

>  <inchikey>  (201) 
KKQJKZBVNODONW-UHFFFAOYSA-N

$$$$
OOPSUYLMFZASEG-UHFFFAOYSA-N
     RDKit          3D

 13 13  0  0  0  0  0  0  0  0999 V2000
  -25.5041  -32.7682  -22.1768 C   0  0  0  0  0  0  0  0  0  0  0  0
  -25.9870  -31.3288  -22.0217 C   0  0  0  0  0  0  0  0  0  0  0  0
  -26.8826  -31.1399  -20.8721 N   0  0  0  0  0  0  0  0  0  0  0  0
  -27.3445  -29.7374  -20.8215 C   0  0  0  0  0  0  0  0  0  0  0  0
  -28.5905  -29.6551  -19.9517 C   0  0  0  0  0  0  0  0  0  0  0  0
  -29.6952  -29.6203  -20.4949 O   0  0  0  0  0  0  0  0  0  0  0  0
  -28.4350  -29.6602  -18.5000 C   0  0  0  0  0  0  0  0  0  0  0  0
  -29.4076  -29.9276  -17.5484 C   0  0  0  0  0  0  0  0  0  0  0  0
  -28.8131  -29.8499  -16.2686 C   0  0  0  0  0  0  0  0  0  0  0  0
  -27.4855  -29.5493  -16.4582 C   0  0  0  0  0  0  0  0  0  0  0  0
  -27.2712  -29.4137  -17.8040 N   0  0  0  0  0  0  0  0  0  0  0  0
  -26.0883  -31.2972  -19.6629 O   0  0  0  0  0  0  0  0  0  0  0  0
  -26.4768  -32.4702  -18.9574 C   0  0  0  0  0  0  0  0  0  0  0  0
  1  2  1  0
  2  3  1  0
  3  4  1  0
  4  5  1  0
  5  6  2  0
  5  7  1  0
  7  8  2  0
  8  9  1  0
  9 10  2  0
 10 11  1  0
  3 12  1  0
 12 13  1  0
 11  7  1  0
M  END
>  <fragmenstein_mode>  (202) 
expansion

>  <name>  (202) 
OOPSUYLMFZASEG-UHFFFAOYSA-N

>  <fragmenstein_runtime>  (202) 
4.629849

>  <HIPPO Compound ID>  (202) 
56523

>  <SLURM_JOB_NAME>  (202) 
BulkDock.place:Flavi_NS5_RdRp:RdRp_knitwork_green_site_rna_tunnel_impure_split4000_batch011

>  <ref_mols>  (202) 
d0472b,z0628a

>  <Multi-SuCOS>  (202) 
0.634563

>  <tags>  (202) 
['Fragmenstein placed', 'RdRp_knitwork_green_site_rna_tunnel_impure_fragalysis.sdf Pose OK']

>  <scratch_subdir>  (202) 
/opt/xchem-fragalysis-2/maxwin/BulkDock/SCRATCH/220462/C56523-P150

>  <energy_score>  (202) 
-38.918307

>  <fragmenstein_error>  (202) 
None

>  <csv_name>  (202) 
RdRp_knitwork_green_site_rna_tunnel_impure_split4000_batch011.csv

>  <merge_set>  (202) 
RdRp_knitwork_green_site_rna_tunnel_impure_fragalysis.sdf

>  <original ID>  (202) 
OOPSUYLMFZASEG-UHFFFAOYSA-N

>  <HIPPO Pose ID>  (202) 
188979

>  <fragmenstein_outcome>  (202) 
acceptable

>  <exports>  (202) 
['/opt/xchem-fragalysis-2/maxwin/BulkDock/OUTPUTS/RdRp_knitwork_green_site_rna_tunnel_impure_split4000_batch011_220462.sdf', '/opt/xchem-fragalysis-2/maxwin/BulkDock/OUTPUTS/RdRp_knitwork_green_site_rna_tunnel_impure_fragalysis.sdf']

>  <SLURM_JOB_ID>  (202) 
220462

>  <distance_score>  (202) 
0.968663

>  <original SMILES>  (202) 
CCN(CC(=O)c1ccc[nH]1)OC

>  <alias>  (202) 
None

>  <ref_pdb>  (202) 
z0628a

>  <inchikey>  (202) 
OOPSUYLMFZASEG-UHFFFAOYSA-N

$$$$
HAWDEDPXVLRXSR-SSDOTTSWSA-N
     RDKit          3D

 12 12  0  0  0  0  0  0  0  0999 V2000
  -25.8522  -33.2932  -19.1491 C   0  0  0  0  0  0  0  0  0  0  0  0
  -27.0087  -32.6828  -19.9296 C   0  0  0  0  0  0  0  0  0  0  0  0
  -26.6693  -31.3122  -20.5444 C   0  0  1  0  0  0  0  0  0  0  0  0
  -25.8645  -31.4346  -21.8423 C   0  0  0  0  0  0  0  0  0  0  0  0
  -27.8493  -30.5620  -20.9078 O   0  0  0  0  0  0  0  0  0  0  0  0
  -28.7991  -30.1251  -20.0270 C   0  0  0  0  0  0  0  0  0  0  0  0
  -29.9287  -29.8852  -20.4365 O   0  0  0  0  0  0  0  0  0  0  0  0
  -28.4475  -29.9557  -18.6172 C   0  0  0  0  0  0  0  0  0  0  0  0
  -27.2668  -29.4465  -17.9991 C   0  0  0  0  0  0  0  0  0  0  0  0
  -27.4415  -29.4994  -16.6339 C   0  0  0  0  0  0  0  0  0  0  0  0
  -28.7119  -29.9446  -16.3886 N   0  0  0  0  0  0  0  0  0  0  0  0
  -29.3289  -30.2155  -17.5784 C   0  0  0  0  0  0  0  0  0  0  0  0
  1  2  1  0
  2  3  1  0
  3  4  1  6
  3  5  1  0
  5  6  1  0
  6  7  2  0
  6  8  1  0
  8  9  1  0
  9 10  2  0
 10 11  1  0
 11 12  1  0
 12  8  2  0
M  END
>  <fragmenstein_mode>  (203) 
expansion

>  <name>  (203) 
HAWDEDPXVLRXSR-SSDOTTSWSA-N

>  <fragmenstein_runtime>  (203) 
7.365104

>  <HIPPO Compound ID>  (203) 
56784

>  <SLURM_JOB_NAME>  (203) 
BulkDock.place:Flavi_NS5_RdRp:RdRp_knitwork_green_site_rna_tunnel_impure_split4000_batch011

>  <ref_mols>  (203) 
d0472b,z0628a

>  <Multi-SuCOS>  (203) 
0.71152

>  <tags>  (203) 
['Fragmenstein placed', 'RdRp_knitwork_green_site_rna_tunnel_impure_fragalysis.sdf Pose OK']

>  <scratch_subdir>  (203) 
/opt/xchem-fragalysis-2/maxwin/BulkDock/SCRATCH/220462/C56784-P150

>  <energy_score>  (203) 
-9.058624

>  <fragmenstein_error>  (203) 
None

>  <csv_name>  (203) 
RdRp_knitwork_green_site_rna_tunnel_impure_split4000_batch011.csv

>  <merge_set>  (203) 
RdRp_knitwork_green_site_rna_tunnel_impure_fragalysis.sdf

>  <original ID>  (203) 
HAWDEDPXVLRXSR-SSDOTTSWSA-N

>  <HIPPO Pose ID>  (203) 
189223

>  <fragmenstein_outcome>  (203) 
acceptable

>  <exports>  (203) 
['/opt/xchem-fragalysis-2/maxwin/BulkDock/OUTPUTS/RdRp_knitwork_green_site_rna_tunnel_impure_split4000_batch011_220462.sdf', '/opt/xchem-fragalysis-2/maxwin/BulkDock/OUTPUTS/RdRp_knitwork_green_site_rna_tunnel_impure_fragalysis.sdf']

>  <SLURM_JOB_ID>  (203) 
220462

>  <distance_score>  (203) 
0.952171

>  <original SMILES>  (203) 
CC[C@@H](C)OC(=O)c1cc[nH]c1

>  <alias>  (203) 
None

>  <ref_pdb>  (203) 
z0628a

>  <inchikey>  (203) 
HAWDEDPXVLRXSR-SSDOTTSWSA-N

$$$$
OUQWDACADZAJBZ-NSHDSACASA-N
     RDKit          3D

 21 22  0  0  0  0  0  0  0  0999 V2000
  -26.6178  -30.4778  -22.9825 O   0  0  0  0  0  0  0  0  0  0  0  0
  -25.9289  -30.6772  -22.0993 C   0  0  0  0  0  0  0  0  0  0  0  0
  -24.4783  -31.2178  -22.0647 N   0  0  0  0  0  0  0  0  0  0  0  0
  -23.6431  -31.7025  -23.1240 C   0  0  0  0  0  0  0  0  0  0  0  0
  -22.4981  -32.5781  -22.6574 C   0  0  0  0  0  0  0  0  0  0  0  0
  -21.6724  -33.1561  -23.8086 C   0  0  2  0  0  0  0  0  0  0  0  0
  -20.8269  -32.1464  -24.3713 O   0  0  0  0  0  0  0  0  0  0  0  0
  -22.5015  -33.8190  -24.9142 C   0  0  0  0  0  0  0  0  0  0  0  0
  -21.6513  -34.2687  -25.8866 F   0  0  0  0  0  0  0  0  0  0  0  0
  -23.1431  -34.9111  -24.4349 F   0  0  0  0  0  0  0  0  0  0  0  0
  -26.1917  -30.5483  -20.5719 N   0  0  0  0  0  0  0  0  0  0  0  0
  -27.3595  -30.2458  -19.8829 C   0  0  0  0  0  0  0  0  0  0  0  0
  -28.5588  -30.1405  -20.5861 C   0  0  0  0  0  0  0  0  0  0  0  0
  -29.7609  -30.0134  -19.9053 C   0  0  0  0  0  0  0  0  0  0  0  0
  -29.7555  -29.9266  -18.5182 C   0  0  0  0  0  0  0  0  0  0  0  0
  -28.5516  -29.9293  -17.8052 C   0  0  0  0  0  0  0  0  0  0  0  0
  -27.3471  -30.0996  -18.4952 C   0  0  0  0  0  0  0  0  0  0  0  0
  -26.1353  -30.1959  -17.8650 O   0  0  0  0  0  0  0  0  0  0  0  0
  -26.1048  -29.6521  -16.5485 C   0  0  0  0  0  0  0  0  0  0  0  0
  -27.2564  -30.1202  -15.6795 C   0  0  0  0  0  0  0  0  0  0  0  0
  -28.5894  -29.7731  -16.3174 C   0  0  0  0  0  0  0  0  0  0  0  0
  1  2  2  0
  2  3  1  0
  3  4  1  0
  4  5  1  0
  5  6  1  0
  6  7  1  6
  6  8  1  0
  8  9  1  0
  8 10  1  0
  2 11  1  0
 11 12  1  0
 12 13  2  0
 13 14  1  0
 14 15  2  0
 15 16  1  0
 16 17  2  0
 17 18  1  0
 18 19  1  0
 19 20  1  0
 20 21  1  0
 17 12  1  0
 21 16  1  0
M  END
>  <fragmenstein_mode>  (204) 
expansion

>  <name>  (204) 
OUQWDACADZAJBZ-NSHDSACASA-N

>  <fragmenstein_runtime>  (204) 
4.027813

>  <HIPPO Compound ID>  (204) 
46050

>  <SLURM_JOB_NAME>  (204) 
BulkDock.place:Flavi_NS5_RdRp:RdRp_knitwork_green_site_rna_tunnel_impure_split4000_batch003

>  <ref_mols>  (204) 
z0211a,z0991a

>  <Multi-SuCOS>  (204) 
0.553927

>  <tags>  (204) 
['Fragmenstein placed', 'RdRp_knitwork_green_site_rna_tunnel_impure_fragalysis.sdf Pose OK']

>  <scratch_subdir>  (204) 
/opt/xchem-fragalysis-2/maxwin/BulkDock/SCRATCH/220454/C46050-P102

>  <energy_score>  (204) 
-26.807869

>  <fragmenstein_error>  (204) 
None

>  <csv_name>  (204) 
RdRp_knitwork_green_site_rna_tunnel_impure_split4000_batch003.csv

>  <merge_set>  (204) 
RdRp_knitwork_green_site_rna_tunnel_impure_fragalysis.sdf

>  <original ID>  (204) 
OUQWDACADZAJBZ-NSHDSACASA-N

>  <HIPPO Pose ID>  (204) 
190176

>  <fragmenstein_outcome>  (204) 
acceptable

>  <exports>  (204) 
['/opt/xchem-fragalysis-2/maxwin/BulkDock/OUTPUTS/RdRp_knitwork_green_site_rna_tunnel_impure_split4000_batch003_220454.sdf', '/opt/xchem-fragalysis-2/maxwin/BulkDock/OUTPUTS/RdRp_knitwork_green_site_rna_tunnel_impure_fragalysis.sdf']

>  <SLURM_JOB_ID>  (204) 
220454

>  <distance_score>  (204) 
0.896278

>  <original SMILES>  (204) 
O=C(NCC[C@H](O)C(F)F)Nc1cccc2c1OCCC2

>  <alias>  (204) 
None

>  <ref_pdb>  (204) 
z0211a

>  <inchikey>  (204) 
OUQWDACADZAJBZ-NSHDSACASA-N

$$$$
NMMXBQGIKBOYHS-LBPRGKRZSA-N
     RDKit          3D

 16 18  0  0  0  0  0  0  0  0999 V2000
  -23.5534  -27.8274  -21.0270 O   0  0  0  0  0  0  0  0  0  0  0  0
  -23.9444  -27.0218  -20.1837 C   0  0  0  0  0  0  0  0  0  0  0  0
  -22.9545  -26.3477  -19.3744 C   0  0  0  0  0  0  0  0  0  0  0  0
  -21.5922  -26.2964  -19.6097 C   0  0  0  0  0  0  0  0  0  0  0  0
  -20.9928  -25.3829  -18.7307 C   0  0  0  0  0  0  0  0  0  0  0  0
  -21.9369  -25.1049  -17.7992 C   0  0  0  0  0  0  0  0  0  0  0  0
  -23.1286  -25.6346  -18.2264 N   0  0  0  0  0  0  0  0  0  0  0  0
  -25.4331  -26.6830  -20.0959 C   0  0  2  0  0  0  0  0  0  0  0  0
  -26.0470  -27.0864  -18.7509 C   0  0  0  0  0  0  0  0  0  0  0  0
  -26.8840  -28.2608  -19.1160 C   0  0  0  0  0  0  0  0  0  0  0  0
  -27.5834  -29.1193  -18.2841 C   0  0  0  0  0  0  0  0  0  0  0  0
  -28.3394  -30.1342  -18.8716 C   0  0  0  0  0  0  0  0  0  0  0  0
  -28.3860  -30.2694  -20.2670 C   0  0  0  0  0  0  0  0  0  0  0  0
  -27.6732  -29.3944  -21.0908 C   0  0  0  0  0  0  0  0  0  0  0  0
  -26.9177  -28.3993  -20.4986 C   0  0  0  0  0  0  0  0  0  0  0  0
  -26.1815  -27.4065  -21.1785 N   0  0  0  0  0  0  0  0  0  0  0  0
  1  2  2  0
  2  3  1  0
  3  4  2  0
  4  5  1  0
  5  6  2  0
  6  7  1  0
  8  2  1  1
  8  9  1  0
  9 10  1  0
 10 11  2  0
 11 12  1  0
 12 13  2  0
 13 14  1  0
 14 15  2  0
 15 16  1  0
  7  3  1  0
 16  8  1  0
 15 10  1  0
M  END
>  <fragmenstein_mode>  (205) 
expansion

>  <name>  (205) 
NMMXBQGIKBOYHS-LBPRGKRZSA-N

>  <fragmenstein_runtime>  (205) 
1.396667

>  <HIPPO Compound ID>  (205) 
61129

>  <SLURM_JOB_NAME>  (205) 
BulkDock.place:Flavi_NS5_RdRp:RdRp_knitwork_green_site_rna_tunnel_impure_split4000_batch005

>  <ref_mols>  (205) 
d0472b,z0364a

>  <Multi-SuCOS>  (205) 
0.637957

>  <tags>  (205) 
['Fragmenstein placed', 'RdRp_knitwork_green_site_rna_tunnel_impure_fragalysis.sdf Pose OK']

>  <scratch_subdir>  (205) 
/opt/xchem-fragalysis-2/maxwin/BulkDock/SCRATCH/220456/C61129-P118

>  <energy_score>  (205) 
-15.254844

>  <fragmenstein_error>  (205) 
None

>  <csv_name>  (205) 
RdRp_knitwork_green_site_rna_tunnel_impure_split4000_batch005.csv

>  <merge_set>  (205) 
RdRp_knitwork_green_site_rna_tunnel_impure_fragalysis.sdf

>  <original ID>  (205) 
NMMXBQGIKBOYHS-LBPRGKRZSA-N

>  <HIPPO Pose ID>  (205) 
190654

>  <fragmenstein_outcome>  (205) 
acceptable

>  <exports>  (205) 
['/opt/xchem-fragalysis-2/maxwin/BulkDock/OUTPUTS/RdRp_knitwork_green_site_rna_tunnel_impure_split4000_batch005_220456.sdf', '/opt/xchem-fragalysis-2/maxwin/BulkDock/OUTPUTS/RdRp_knitwork_green_site_rna_tunnel_impure_fragalysis.sdf']

>  <SLURM_JOB_ID>  (205) 
220456

>  <distance_score>  (205) 
0.967053

>  <original SMILES>  (205) 
O=C(c1ccc[nH]1)[C@@H]1Cc2ccccc2N1

>  <alias>  (205) 
None

>  <ref_pdb>  (205) 
z0364a

>  <inchikey>  (205) 
NMMXBQGIKBOYHS-LBPRGKRZSA-N

$$$$
IANQXEAOAZTNLW-LLVKDONJSA-N
     RDKit          3D

 22 23  0  0  0  0  0  0  0  0999 V2000
  -26.2791  -30.5934  -23.0191 O   0  0  0  0  0  0  0  0  0  0  0  0
  -25.6534  -30.8410  -22.1006 C   0  0  0  0  0  0  0  0  0  0  0  0
  -25.9933  -30.7043  -20.5846 N   0  0  0  0  0  0  0  0  0  0  0  0
  -27.1802  -30.3321  -19.9567 C   0  0  0  0  0  0  0  0  0  0  0  0
  -28.3453  -30.2149  -20.7159 C   0  0  0  0  0  0  0  0  0  0  0  0
  -29.5746  -30.0244  -20.0962 C   0  0  0  0  0  0  0  0  0  0  0  0
  -29.6357  -29.9125  -18.7126 C   0  0  0  0  0  0  0  0  0  0  0  0
  -28.4674  -29.9298  -17.9430 C   0  0  0  0  0  0  0  0  0  0  0  0
  -27.2334  -30.1407  -18.5730 C   0  0  0  0  0  0  0  0  0  0  0  0
  -26.0572  -30.2412  -17.8780 O   0  0  0  0  0  0  0  0  0  0  0  0
  -26.0834  -29.6495  -16.5807 C   0  0  0  0  0  0  0  0  0  0  0  0
  -27.2756  -30.0897  -15.7520 C   0  0  0  0  0  0  0  0  0  0  0  0
  -28.5749  -29.7467  -16.4595 C   0  0  0  0  0  0  0  0  0  0  0  0
  -24.2567  -31.5069  -21.9897 N   0  0  0  0  0  0  0  0  0  0  0  0
  -23.3138  -31.9136  -23.0355 C   0  0  2  0  0  0  0  0  0  0  0  0
  -23.9727  -32.9290  -23.9910 C   0  0  0  0  0  0  0  0  0  0  0  0
  -24.3839  -34.2453  -23.3430 C   0  0  0  0  0  0  0  0  0  0  0  0
  -24.9710  -35.0849  -24.3343 O   0  0  0  0  0  0  0  0  0  0  0  0
  -21.9548  -32.4125  -22.5363 C   0  0  0  0  0  0  0  0  0  0  0  0
  -21.1591  -32.7893  -23.5669 F   0  0  0  0  0  0  0  0  0  0  0  0
  -21.2923  -31.4823  -21.8211 F   0  0  0  0  0  0  0  0  0  0  0  0
  -22.0989  -33.4943  -21.7314 F   0  0  0  0  0  0  0  0  0  0  0  0
  1  2  2  0
  2  3  1  0
  3  4  1  0
  4  5  2  0
  5  6  1  0
  6  7  2  0
  7  8  1  0
  8  9  2  0
  9 10  1  0
 10 11  1  0
 11 12  1  0
 12 13  1  0
  2 14  1  0
 14 15  1  0
 15 16  1  1
 16 17  1  0
 17 18  1  0
 15 19  1  0
 19 20  1  0
 19 21  1  0
 19 22  1  0
  9  4  1  0
 13  8  1  0
M  END
>  <fragmenstein_mode>  (206) 
expansion

>  <name>  (206) 
IANQXEAOAZTNLW-LLVKDONJSA-N

>  <fragmenstein_runtime>  (206) 
8.260692

>  <HIPPO Compound ID>  (206) 
46539

>  <SLURM_JOB_NAME>  (206) 
BulkDock.place:Flavi_NS5_RdRp:RdRp_knitwork_green_site_rna_tunnel_impure_split4000_batch003

>  <ref_mols>  (206) 
z0211a,z0991a

>  <Multi-SuCOS>  (206) 
0.600998

>  <tags>  (206) 
['Fragmenstein placed', 'RdRp_knitwork_green_site_rna_tunnel_impure_fragalysis.sdf Pose OK']

>  <scratch_subdir>  (206) 
/opt/xchem-fragalysis-2/maxwin/BulkDock/SCRATCH/220454/C46539-P102

>  <energy_score>  (206) 
-27.821767

>  <fragmenstein_error>  (206) 
None

>  <csv_name>  (206) 
RdRp_knitwork_green_site_rna_tunnel_impure_split4000_batch003.csv

>  <merge_set>  (206) 
RdRp_knitwork_green_site_rna_tunnel_impure_fragalysis.sdf

>  <original ID>  (206) 
IANQXEAOAZTNLW-LLVKDONJSA-N

>  <HIPPO Pose ID>  (206) 
190746

>  <fragmenstein_outcome>  (206) 
acceptable

>  <exports>  (206) 
['/opt/xchem-fragalysis-2/maxwin/BulkDock/OUTPUTS/RdRp_knitwork_green_site_rna_tunnel_impure_split4000_batch003_220454.sdf', '/opt/xchem-fragalysis-2/maxwin/BulkDock/OUTPUTS/RdRp_knitwork_green_site_rna_tunnel_impure_fragalysis.sdf']

>  <SLURM_JOB_ID>  (206) 
220454

>  <distance_score>  (206) 
0.684172

>  <original SMILES>  (206) 
O=C(Nc1cccc2c1OCCC2)N[C@H](CCO)C(F)(F)F

>  <alias>  (206) 
None

>  <ref_pdb>  (206) 
z0211a

>  <inchikey>  (206) 
IANQXEAOAZTNLW-LLVKDONJSA-N

$$$$
FNDKNCMYCLIYBA-INIZCTEOSA-N
     RDKit          3D

 21 22  0  0  0  0  0  0  0  0999 V2000
  -21.0876  -33.4788  -26.2303 C   0  0  0  0  0  0  0  0  0  0  0  0
  -21.9740  -33.3935  -25.0029 C   0  0  0  0  0  0  0  0  0  0  0  0
  -21.2442  -32.7798  -23.8011 C   0  0  0  0  0  0  0  0  0  0  0  0
  -22.1180  -32.6480  -22.5308 C   0  0  2  0  0  0  0  0  0  0  0  0
  -21.3166  -31.9529  -21.4305 C   0  0  0  0  0  0  0  0  0  0  0  0
  -22.4253  -33.9714  -22.0706 O   0  0  0  0  0  0  0  0  0  0  0  0
  -23.4222  -31.9187  -22.8698 C   0  0  0  0  0  0  0  0  0  0  0  0
  -24.2841  -31.5149  -21.7912 N   0  0  0  0  0  0  0  0  0  0  0  0
  -25.7733  -31.8346  -21.5267 C   0  0  0  0  0  0  0  0  0  0  0  0
  -26.4869  -32.5180  -22.0860 O   0  0  0  0  0  0  0  0  0  0  0  0
  -26.0334  -30.8722  -20.3394 N   0  0  0  0  0  0  0  0  0  0  0  0
  -27.2182  -30.5241  -19.7097 C   0  0  0  0  0  0  0  0  0  0  0  0
  -28.3997  -30.6008  -20.4530 C   0  0  0  0  0  0  0  0  0  0  0  0
  -29.6250  -30.3025  -19.8735 C   0  0  0  0  0  0  0  0  0  0  0  0
  -29.6702  -29.9767  -18.5269 C   0  0  0  0  0  0  0  0  0  0  0  0
  -28.4908  -29.8877  -17.7746 C   0  0  0  0  0  0  0  0  0  0  0  0
  -27.2500  -30.1023  -18.3879 C   0  0  0  0  0  0  0  0  0  0  0  0
  -26.0566  -30.0786  -17.7240 O   0  0  0  0  0  0  0  0  0  0  0  0
  -26.1060  -29.5866  -16.3924 C   0  0  0  0  0  0  0  0  0  0  0  0
  -27.3123  -30.0586  -15.6033 C   0  0  0  0  0  0  0  0  0  0  0  0
  -28.5969  -29.6560  -16.3021 C   0  0  0  0  0  0  0  0  0  0  0  0
  1  2  1  0
  2  3  1  0
  3  4  1  0
  4  5  1  1
  4  6  1  0
  4  7  1  0
  7  8  1  0
  8  9  1  0
  9 10  2  0
  9 11  1  0
 11 12  1  0
 12 13  2  0
 13 14  1  0
 14 15  2  0
 15 16  1  0
 16 17  2  0
 17 18  1  0
 18 19  1  0
 19 20  1  0
 20 21  1  0
 17 12  1  0
 21 16  1  0
M  END
>  <fragmenstein_mode>  (207) 
expansion

>  <name>  (207) 
FNDKNCMYCLIYBA-INIZCTEOSA-N

>  <fragmenstein_runtime>  (207) 
12.116793

>  <HIPPO Compound ID>  (207) 
46627

>  <SLURM_JOB_NAME>  (207) 
BulkDock.place:Flavi_NS5_RdRp:RdRp_knitwork_green_site_rna_tunnel_impure_split4000_batch003

>  <ref_mols>  (207) 
z0211a,z0991a

>  <Multi-SuCOS>  (207) 
0.524782

>  <tags>  (207) 
['Fragmenstein placed', 'RdRp_knitwork_green_site_rna_tunnel_impure_fragalysis.sdf Pose OK']

>  <scratch_subdir>  (207) 
/opt/xchem-fragalysis-2/maxwin/BulkDock/SCRATCH/220454/C46627-P102

>  <energy_score>  (207) 
-56.336949

>  <fragmenstein_error>  (207) 
None

>  <csv_name>  (207) 
RdRp_knitwork_green_site_rna_tunnel_impure_split4000_batch003.csv

>  <merge_set>  (207) 
RdRp_knitwork_green_site_rna_tunnel_impure_fragalysis.sdf

>  <original ID>  (207) 
FNDKNCMYCLIYBA-INIZCTEOSA-N

>  <HIPPO Pose ID>  (207) 
190882

>  <fragmenstein_outcome>  (207) 
acceptable

>  <exports>  (207) 
['/opt/xchem-fragalysis-2/maxwin/BulkDock/OUTPUTS/RdRp_knitwork_green_site_rna_tunnel_impure_split4000_batch003_220454.sdf', '/opt/xchem-fragalysis-2/maxwin/BulkDock/OUTPUTS/RdRp_knitwork_green_site_rna_tunnel_impure_fragalysis.sdf']

>  <SLURM_JOB_ID>  (207) 
220454

>  <distance_score>  (207) 
0.826301

>  <original SMILES>  (207) 
CCC[C@](C)(O)CNC(=O)Nc1cccc2c1OCCC2

>  <alias>  (207) 
None

>  <ref_pdb>  (207) 
z0211a

>  <inchikey>  (207) 
FNDKNCMYCLIYBA-INIZCTEOSA-N

$$$$
MLWDIORXDQSFDR-UHFFFAOYSA-N
     RDKit          3D

 20 21  0  0  0  0  0  0  0  0999 V2000
  -21.5076  -34.2770  -21.5946 C   0  0  0  0  0  0  0  0  0  0  0  0
  -21.7230  -33.6499  -22.9022 N   0  0  0  0  0  0  0  0  0  0  0  0
  -21.5243  -31.9999  -23.0065 S   0  0  0  0  0  0  0  0  0  0  0  0
  -20.8942  -31.5308  -21.7997 O   0  0  0  0  0  0  0  0  0  0  0  0
  -20.9432  -31.7718  -24.3078 O   0  0  0  0  0  0  0  0  0  0  0  0
  -23.1168  -31.5380  -23.0359 N   0  0  0  0  0  0  0  0  0  0  0  0
  -23.8420  -31.6409  -21.7520 C   0  0  0  0  0  0  0  0  0  0  0  0
  -25.2549  -31.0586  -21.8743 C   0  0  0  0  0  0  0  0  0  0  0  0
  -25.8121  -30.9626  -22.8989 O   0  0  0  0  0  0  0  0  0  0  0  0
  -25.7468  -30.7542  -20.4226 N   0  0  0  0  0  0  0  0  0  0  0  0
  -27.0041  -30.3767  -19.9542 C   0  0  0  0  0  0  0  0  0  0  0  0
  -28.0818  -30.2611  -20.8307 C   0  0  0  0  0  0  0  0  0  0  0  0
  -29.3623  -30.0332  -20.3338 C   0  0  0  0  0  0  0  0  0  0  0  0
  -29.5633  -29.9052  -18.9634 C   0  0  0  0  0  0  0  0  0  0  0  0
  -28.4807  -29.9256  -18.0786 C   0  0  0  0  0  0  0  0  0  0  0  0
  -27.1958  -30.1594  -18.5829 C   0  0  0  0  0  0  0  0  0  0  0  0
  -26.0929  -30.2641  -17.7746 O   0  0  0  0  0  0  0  0  0  0  0  0
  -26.2322  -29.6570  -16.4921 C   0  0  0  0  0  0  0  0  0  0  0  0
  -27.5089  -30.0563  -15.7766 C   0  0  0  0  0  0  0  0  0  0  0  0
  -28.7269  -29.7098  -16.6156 C   0  0  0  0  0  0  0  0  0  0  0  0
  1  2  1  0
  2  3  1  0
  3  4  2  0
  3  5  2  0
  3  6  1  0
  6  7  1  0
  7  8  1  0
  8  9  2  0
  8 10  1  0
 10 11  1  0
 11 12  2  0
 12 13  1  0
 13 14  2  0
 14 15  1  0
 15 16  2  0
 16 17  1  0
 17 18  1  0
 18 19  1  0
 19 20  1  0
 16 11  1  0
 20 15  1  0
M  END
>  <fragmenstein_mode>  (208) 
expansion

>  <name>  (208) 
MLWDIORXDQSFDR-UHFFFAOYSA-N

>  <fragmenstein_runtime>  (208) 
4.773731

>  <HIPPO Compound ID>  (208) 
46716

>  <SLURM_JOB_NAME>  (208) 
BulkDock.place:Flavi_NS5_RdRp:RdRp_knitwork_green_site_rna_tunnel_impure_split4000_batch003

>  <ref_mols>  (208) 
z0211a,z0991a

>  <Multi-SuCOS>  (208) 
0.620722

>  <tags>  (208) 
['Fragmenstein placed', 'RdRp_knitwork_green_site_rna_tunnel_impure_fragalysis.sdf Pose OK']

>  <scratch_subdir>  (208) 
/opt/xchem-fragalysis-2/maxwin/BulkDock/SCRATCH/220454/C46716-P102

>  <energy_score>  (208) 
-64.955475

>  <fragmenstein_error>  (208) 
None

>  <csv_name>  (208) 
RdRp_knitwork_green_site_rna_tunnel_impure_split4000_batch003.csv

>  <merge_set>  (208) 
RdRp_knitwork_green_site_rna_tunnel_impure_fragalysis.sdf

>  <original ID>  (208) 
MLWDIORXDQSFDR-UHFFFAOYSA-N

>  <HIPPO Pose ID>  (208) 
191040

>  <fragmenstein_outcome>  (208) 
acceptable

>  <exports>  (208) 
['/opt/xchem-fragalysis-2/maxwin/BulkDock/OUTPUTS/RdRp_knitwork_green_site_rna_tunnel_impure_split4000_batch003_220454.sdf', '/opt/xchem-fragalysis-2/maxwin/BulkDock/OUTPUTS/RdRp_knitwork_green_site_rna_tunnel_impure_fragalysis.sdf']

>  <SLURM_JOB_ID>  (208) 
220454

>  <distance_score>  (208) 
0.654824

>  <original SMILES>  (208) 
CNS(=O)(=O)NCC(=O)Nc1cccc2c1OCCC2

>  <alias>  (208) 
None

>  <ref_pdb>  (208) 
z0211a

>  <inchikey>  (208) 
MLWDIORXDQSFDR-UHFFFAOYSA-N

$$$$
UFFLSBNXFSNCOZ-UHFFFAOYSA-N
     RDKit          3D

 14 16  0  0  0  0  0  0  0  0999 V2000
  -30.0213  -30.2309  -20.3840 C   0  0  0  0  0  0  0  0  0  0  0  0
  -29.0151  -29.6592  -21.1686 C   0  0  0  0  0  0  0  0  0  0  0  0
  -27.7882  -29.2443  -20.6088 C   0  0  0  0  0  0  0  0  0  0  0  0
  -26.7740  -28.6519  -21.4582 C   0  0  0  0  0  0  0  0  0  0  0  0
  -26.1165  -27.4686  -21.1789 C   0  0  0  0  0  0  0  0  0  0  0  0
  -25.1221  -27.0212  -22.5119 S   0  0  0  0  0  0  0  0  0  0  0  0
  -25.5771  -28.4691  -23.3134 C   0  0  0  0  0  0  0  0  0  0  0  0
  -26.4721  -29.2120  -22.6946 N   0  0  0  0  0  0  0  0  0  0  0  0
  -27.5871  -29.4420  -19.2272 C   0  0  0  0  0  0  0  0  0  0  0  0
  -26.5311  -29.1853  -18.3721 N   0  0  0  0  0  0  0  0  0  0  0  0
  -26.9542  -29.6280  -17.2081 C   0  0  0  0  0  0  0  0  0  0  0  0
  -28.2123  -30.1422  -17.1970 O   0  0  0  0  0  0  0  0  0  0  0  0
  -28.6143  -30.0292  -18.4965 C   0  0  0  0  0  0  0  0  0  0  0  0
  -29.8377  -30.4327  -19.0152 C   0  0  0  0  0  0  0  0  0  0  0  0
  1  2  2  0
  2  3  1  0
  3  4  1  0
  4  5  2  0
  5  6  1  0
  6  7  1  0
  7  8  2  0
  3  9  2  0
  9 10  1  0
 10 11  2  0
 11 12  1  0
 12 13  1  0
 13 14  2  0
 14  1  1  0
  8  4  1  0
 13  9  1  0
M  END
>  <fragmenstein_mode>  (209) 
expansion

>  <name>  (209) 
UFFLSBNXFSNCOZ-UHFFFAOYSA-N

>  <fragmenstein_runtime>  (209) 
0.972353

>  <HIPPO Compound ID>  (209) 
49938

>  <SLURM_JOB_NAME>  (209) 
BulkDock.place:Flavi_NS5_RdRp:RdRp_knitwork_green_site_rna_tunnel_impure_split4000_batch016

>  <ref_mols>  (209) 
z0496a,z1040a

>  <Multi-SuCOS>  (209) 
0.820228

>  <tags>  (209) 
['Fragmenstein placed', 'RdRp_knitwork_green_site_rna_tunnel_impure_fragalysis.sdf Pose OK']

>  <scratch_subdir>  (209) 
/opt/xchem-fragalysis-2/maxwin/BulkDock/SCRATCH/220467/C49938-P136

>  <energy_score>  (209) 
-31.512034

>  <fragmenstein_error>  (209) 
None

>  <csv_name>  (209) 
RdRp_knitwork_green_site_rna_tunnel_impure_split4000_batch016.csv

>  <merge_set>  (209) 
RdRp_knitwork_green_site_rna_tunnel_impure_fragalysis.sdf

>  <original ID>  (209) 
UFFLSBNXFSNCOZ-UHFFFAOYSA-N

>  <HIPPO Pose ID>  (209) 
191110

>  <fragmenstein_outcome>  (209) 
acceptable

>  <exports>  (209) 
['/opt/xchem-fragalysis-2/maxwin/BulkDock/OUTPUTS/RdRp_knitwork_green_site_rna_tunnel_impure_split4000_batch016_220467.sdf', '/opt/xchem-fragalysis-2/maxwin/BulkDock/OUTPUTS/RdRp_knitwork_green_site_rna_tunnel_impure_fragalysis.sdf']

>  <SLURM_JOB_ID>  (209) 
220467

>  <distance_score>  (209) 
0.70255

>  <original SMILES>  (209) 
c1cc(-c2cscn2)c2ncoc2c1

>  <alias>  (209) 
None

>  <ref_pdb>  (209) 
z0496a

>  <inchikey>  (209) 
UFFLSBNXFSNCOZ-UHFFFAOYSA-N

$$$$
FSIXMIWBSLDHCE-KRWDZBQOSA-N
     RDKit          3D

 22 23  0  0  0  0  0  0  0  0999 V2000
  -22.9030  -34.2817  -24.2577 C   0  0  0  0  0  0  0  0  0  0  0  0
  -22.1966  -32.9337  -24.2173 C   0  0  0  0  0  0  0  0  0  0  0  0
  -20.7134  -33.0323  -24.5046 C   0  0  0  0  0  0  0  0  0  0  0  0
  -22.4873  -32.0135  -23.0187 C   0  0  0  0  0  0  0  0  0  0  0  0
  -22.4345  -32.4334  -21.5124 C   0  0  1  0  0  0  0  0  0  0  0  0
  -22.5500  -33.9347  -21.2384 C   0  0  0  0  0  0  0  0  0  0  0  0
  -21.1277  -31.9107  -20.8431 C   0  0  0  0  0  0  0  0  0  0  0  0
  -19.9453  -32.5579  -21.3056 O   0  0  0  0  0  0  0  0  0  0  0  0
  -23.5740  -31.7782  -20.8369 N   0  0  0  0  0  0  0  0  0  0  0  0
  -25.0913  -31.7723  -21.1947 C   0  0  0  0  0  0  0  0  0  0  0  0
  -25.6375  -32.2095  -22.0962 O   0  0  0  0  0  0  0  0  0  0  0  0
  -25.6279  -30.9080  -20.0160 N   0  0  0  0  0  0  0  0  0  0  0  0
  -26.9264  -30.5190  -19.7026 C   0  0  0  0  0  0  0  0  0  0  0  0
  -27.9331  -30.5385  -20.6664 C   0  0  0  0  0  0  0  0  0  0  0  0
  -29.2431  -30.2320  -20.3071 C   0  0  0  0  0  0  0  0  0  0  0  0
  -29.5514  -29.9475  -18.9825 C   0  0  0  0  0  0  0  0  0  0  0  0
  -28.5445  -29.8881  -18.0141 C   0  0  0  0  0  0  0  0  0  0  0  0
  -27.2208  -30.1407  -18.3886 C   0  0  0  0  0  0  0  0  0  0  0  0
  -26.1813  -30.1863  -17.4969 O   0  0  0  0  0  0  0  0  0  0  0  0
  -26.4491  -29.6528  -16.2074 C   0  0  0  0  0  0  0  0  0  0  0  0
  -27.8081  -30.0215  -15.6431 C   0  0  0  0  0  0  0  0  0  0  0  0
  -28.9143  -29.6055  -16.5928 C   0  0  0  0  0  0  0  0  0  0  0  0
  1  2  1  0
  2  3  1  0
  2  4  1  0
  4  5  1  0
  5  6  1  6
  5  7  1  0
  7  8  1  0
  5  9  1  0
  9 10  1  0
 10 11  2  0
 10 12  1  0
 12 13  1  0
 13 14  2  0
 14 15  1  0
 15 16  2  0
 16 17  1  0
 17 18  2  0
 18 19  1  0
 19 20  1  0
 20 21  1  0
 21 22  1  0
 18 13  1  0
 22 17  1  0
M  END
>  <fragmenstein_mode>  (210) 
expansion

>  <name>  (210) 
FSIXMIWBSLDHCE-KRWDZBQOSA-N

>  <fragmenstein_runtime>  (210) 
15.178488

>  <HIPPO Compound ID>  (210) 
46780

>  <SLURM_JOB_NAME>  (210) 
BulkDock.place:Flavi_NS5_RdRp:RdRp_knitwork_green_site_rna_tunnel_impure_split4000_batch003

>  <ref_mols>  (210) 
z0211a,z0991a

>  <Multi-SuCOS>  (210) 
0.465666

>  <tags>  (210) 
['Fragmenstein placed', 'RdRp_knitwork_green_site_rna_tunnel_impure_fragalysis.sdf Pose OK']

>  <scratch_subdir>  (210) 
/opt/xchem-fragalysis-2/maxwin/BulkDock/SCRATCH/220454/C46780-P102

>  <energy_score>  (210) 
-30.713981

>  <fragmenstein_error>  (210) 
None

>  <csv_name>  (210) 
RdRp_knitwork_green_site_rna_tunnel_impure_split4000_batch003.csv

>  <merge_set>  (210) 
RdRp_knitwork_green_site_rna_tunnel_impure_fragalysis.sdf

>  <original ID>  (210) 
FSIXMIWBSLDHCE-KRWDZBQOSA-N

>  <HIPPO Pose ID>  (210) 
191214

>  <fragmenstein_outcome>  (210) 
acceptable

>  <exports>  (210) 
['/opt/xchem-fragalysis-2/maxwin/BulkDock/OUTPUTS/RdRp_knitwork_green_site_rna_tunnel_impure_split4000_batch003_220454.sdf', '/opt/xchem-fragalysis-2/maxwin/BulkDock/OUTPUTS/RdRp_knitwork_green_site_rna_tunnel_impure_fragalysis.sdf']

>  <SLURM_JOB_ID>  (210) 
220454

>  <distance_score>  (210) 
0.954051

>  <original SMILES>  (210) 
CC(C)C[C@@](C)(CO)NC(=O)Nc1cccc2c1OCCC2

>  <alias>  (210) 
None

>  <ref_pdb>  (210) 
z0211a

>  <inchikey>  (210) 
FSIXMIWBSLDHCE-KRWDZBQOSA-N

$$$$
BQDZOCBXQMPJSB-UHFFFAOYSA-N
     RDKit          3D

 19 20  0  0  0  0  0  0  0  0999 V2000
  -25.7043  -32.2246  -22.2781 O   0  0  0  0  0  0  0  0  0  0  0  0
  -25.1169  -31.8610  -21.3721 C   0  0  0  0  0  0  0  0  0  0  0  0
  -25.5734  -30.9981  -20.1573 N   0  0  0  0  0  0  0  0  0  0  0  0
  -26.8384  -30.5222  -19.8126 C   0  0  0  0  0  0  0  0  0  0  0  0
  -27.8704  -30.4943  -20.7506 C   0  0  0  0  0  0  0  0  0  0  0  0
  -29.1654  -30.1677  -20.3539 C   0  0  0  0  0  0  0  0  0  0  0  0
  -29.4371  -29.9093  -19.0162 C   0  0  0  0  0  0  0  0  0  0  0  0
  -28.4055  -29.8855  -18.0728 C   0  0  0  0  0  0  0  0  0  0  0  0
  -27.0939  -30.1534  -18.4859 C   0  0  0  0  0  0  0  0  0  0  0  0
  -26.0364  -30.2167  -17.6160 O   0  0  0  0  0  0  0  0  0  0  0  0
  -26.2660  -29.6346  -16.3377 C   0  0  0  0  0  0  0  0  0  0  0  0
  -27.5951  -30.0259  -15.7204 C   0  0  0  0  0  0  0  0  0  0  0  0
  -28.7416  -29.6348  -16.6346 C   0  0  0  0  0  0  0  0  0  0  0  0
  -23.6591  -32.1647  -20.9355 N   0  0  0  0  0  0  0  0  0  0  0  0
  -22.6094  -32.9186  -21.6101 C   0  0  0  0  0  0  0  0  0  0  0  0
  -22.2249  -32.2911  -22.9632 C   0  0  0  0  0  0  0  0  0  0  0  0
  -21.1246  -32.9717  -23.5690 O   0  0  0  0  0  0  0  0  0  0  0  0
  -23.0291  -34.3984  -21.7675 C   0  0  0  0  0  0  0  0  0  0  0  0
  -24.0770  -34.6065  -22.7157 O   0  0  0  0  0  0  0  0  0  0  0  0
  1  2  2  0
  2  3  1  0
  3  4  1  0
  4  5  2  0
  5  6  1  0
  6  7  2  0
  7  8  1  0
  8  9  2  0
  9 10  1  0
 10 11  1  0
 11 12  1  0
 12 13  1  0
  2 14  1  0
 14 15  1  0
 15 16  1  0
 16 17  1  0
 15 18  1  0
 18 19  1  0
  9  4  1  0
 13  8  1  0
M  END
>  <fragmenstein_mode>  (211) 
expansion

>  <name>  (211) 
BQDZOCBXQMPJSB-UHFFFAOYSA-N

>  <fragmenstein_runtime>  (211) 
7.159968

>  <HIPPO Compound ID>  (211) 
46814

>  <SLURM_JOB_NAME>  (211) 
BulkDock.place:Flavi_NS5_RdRp:RdRp_knitwork_green_site_rna_tunnel_impure_split4000_batch003

>  <ref_mols>  (211) 
z0211a,z0991a

>  <Multi-SuCOS>  (211) 
0.5242

>  <tags>  (211) 
['Fragmenstein placed', 'RdRp_knitwork_green_site_rna_tunnel_impure_fragalysis.sdf Pose OK']

>  <scratch_subdir>  (211) 
/opt/xchem-fragalysis-2/maxwin/BulkDock/SCRATCH/220454/C46814-P102

>  <energy_score>  (211) 
-17.772995

>  <fragmenstein_error>  (211) 
None

>  <csv_name>  (211) 
RdRp_knitwork_green_site_rna_tunnel_impure_split4000_batch003.csv

>  <merge_set>  (211) 
RdRp_knitwork_green_site_rna_tunnel_impure_fragalysis.sdf

>  <original ID>  (211) 
BQDZOCBXQMPJSB-UHFFFAOYSA-N

>  <HIPPO Pose ID>  (211) 
191250

>  <fragmenstein_outcome>  (211) 
acceptable

>  <exports>  (211) 
['/opt/xchem-fragalysis-2/maxwin/BulkDock/OUTPUTS/RdRp_knitwork_green_site_rna_tunnel_impure_split4000_batch003_220454.sdf', '/opt/xchem-fragalysis-2/maxwin/BulkDock/OUTPUTS/RdRp_knitwork_green_site_rna_tunnel_impure_fragalysis.sdf']

>  <SLURM_JOB_ID>  (211) 
220454

>  <distance_score>  (211) 
0.916685

>  <original SMILES>  (211) 
O=C(Nc1cccc2c1OCCC2)NC(CO)CO

>  <alias>  (211) 
None

>  <ref_pdb>  (211) 
z0211a

>  <inchikey>  (211) 
BQDZOCBXQMPJSB-UHFFFAOYSA-N

$$$$
SVXFPAWZUPZNNX-CYBMUJFWSA-N
     RDKit          3D

 23 24  0  0  0  0  0  0  0  0999 V2000
  -22.5168  -33.7975  -26.8162 C   0  0  0  0  0  0  0  0  0  0  0  0
  -21.6392  -33.5651  -25.6337 C   0  0  0  0  0  0  0  0  0  0  0  0
  -22.1161  -33.3569  -24.3986 C   0  0  0  0  0  0  0  0  0  0  0  0
  -21.2682  -33.2029  -23.1598 C   0  0  0  0  0  0  0  0  0  0  0  0
  -21.4483  -31.8503  -22.4524 C   0  0  2  0  0  0  0  0  0  0  0  0
  -20.7589  -31.8172  -21.0806 C   0  0  0  0  0  0  0  0  0  0  0  0
  -19.3518  -32.0285  -21.1438 O   0  0  0  0  0  0  0  0  0  0  0  0
  -22.8494  -31.5232  -22.2950 N   0  0  0  0  0  0  0  0  0  0  0  0
  -23.8848  -32.0352  -21.2873 C   0  0  0  0  0  0  0  0  0  0  0  0
  -23.7991  -32.8589  -20.4697 O   0  0  0  0  0  0  0  0  0  0  0  0
  -25.2314  -31.3244  -21.5107 C   0  0  0  0  0  0  0  0  0  0  0  0
  -25.6837  -31.2357  -22.5787 O   0  0  0  0  0  0  0  0  0  0  0  0
  -25.8098  -30.9161  -20.1461 N   0  0  0  0  0  0  0  0  0  0  0  0
  -27.0618  -30.4168  -19.8094 C   0  0  0  0  0  0  0  0  0  0  0  0
  -28.0666  -30.2859  -20.7652 C   0  0  0  0  0  0  0  0  0  0  0  0
  -29.3701  -30.0211  -20.3585 C   0  0  0  0  0  0  0  0  0  0  0  0
  -29.6595  -29.8778  -19.0052 C   0  0  0  0  0  0  0  0  0  0  0  0
  -28.6405  -29.8928  -18.0481 C   0  0  0  0  0  0  0  0  0  0  0  0
  -27.3334  -30.1550  -18.4602 C   0  0  0  0  0  0  0  0  0  0  0  0
  -26.2861  -30.2789  -17.5833 O   0  0  0  0  0  0  0  0  0  0  0  0
  -26.4960  -29.6982  -16.3006 C   0  0  0  0  0  0  0  0  0  0  0  0
  -27.8398  -30.0388  -15.6845 C   0  0  0  0  0  0  0  0  0  0  0  0
  -28.9774  -29.6502  -16.6104 C   0  0  0  0  0  0  0  0  0  0  0  0
  1  2  1  0
  2  3  2  3
  3  4  1  0
  5  4  1  1
  5  6  1  0
  6  7  1  0
  5  8  1  0
  8  9  1  0
  9 10  2  0
  9 11  1  0
 11 12  2  0
 11 13  1  0
 13 14  1  0
 14 15  2  0
 15 16  1  0
 16 17  2  0
 17 18  1  0
 18 19  2  0
 19 20  1  0
 20 21  1  0
 21 22  1  0
 22 23  1  0
 19 14  1  0
 23 18  1  0
M  END
>  <fragmenstein_mode>  (212) 
expansion

>  <name>  (212) 
SVXFPAWZUPZNNX-CYBMUJFWSA-N

>  <fragmenstein_runtime>  (212) 
6.806357

>  <HIPPO Compound ID>  (212) 
47051

>  <SLURM_JOB_NAME>  (212) 
BulkDock.place:Flavi_NS5_RdRp:RdRp_knitwork_green_site_rna_tunnel_impure_split4000_batch003

>  <ref_mols>  (212) 
z0211a,z0991a

>  <Multi-SuCOS>  (212) 
0.491769

>  <tags>  (212) 
['Fragmenstein placed', 'RdRp_knitwork_green_site_rna_tunnel_impure_fragalysis.sdf Pose OK']

>  <scratch_subdir>  (212) 
/opt/xchem-fragalysis-2/maxwin/BulkDock/SCRATCH/220454/C47051-P102

>  <energy_score>  (212) 
-56.257876

>  <fragmenstein_error>  (212) 
None

>  <csv_name>  (212) 
RdRp_knitwork_green_site_rna_tunnel_impure_split4000_batch003.csv

>  <merge_set>  (212) 
RdRp_knitwork_green_site_rna_tunnel_impure_fragalysis.sdf

>  <original ID>  (212) 
SVXFPAWZUPZNNX-CYBMUJFWSA-N

>  <HIPPO Pose ID>  (212) 
191431

>  <fragmenstein_outcome>  (212) 
acceptable

>  <exports>  (212) 
['/opt/xchem-fragalysis-2/maxwin/BulkDock/OUTPUTS/RdRp_knitwork_green_site_rna_tunnel_impure_split4000_batch003_220454.sdf', '/opt/xchem-fragalysis-2/maxwin/BulkDock/OUTPUTS/RdRp_knitwork_green_site_rna_tunnel_impure_fragalysis.sdf']

>  <SLURM_JOB_ID>  (212) 
220454

>  <distance_score>  (212) 
0.686187

>  <original SMILES>  (212) 
CC=CC[C@H](CO)NC(=O)C(=O)Nc1cccc2c1OCCC2

>  <alias>  (212) 
None

>  <ref_pdb>  (212) 
z0211a

>  <inchikey>  (212) 
SVXFPAWZUPZNNX-CYBMUJFWSA-N

$$$$
BEOSGHBWTZVQHX-MRXNPFEDSA-N
     RDKit          3D

 21 22  0  0  0  0  0  0  0  0999 V2000
  -21.2771  -32.9376  -23.8107 C   0  0  0  0  0  0  0  0  0  0  0  0
  -22.0105  -32.2112  -22.6818 C   0  0  0  0  0  0  0  0  0  0  0  0
  -20.9712  -31.4414  -21.8607 C   0  0  0  0  0  0  0  0  0  0  0  0
  -22.9261  -33.1286  -21.7996 C   0  0  1  0  0  0  0  0  0  0  0  0
  -23.7405  -34.1012  -22.6817 C   0  0  0  0  0  0  0  0  0  0  0  0
  -22.1625  -34.0011  -20.7622 C   0  0  0  0  0  0  0  0  0  0  0  0
  -21.6821  -33.2206  -19.6706 O   0  0  0  0  0  0  0  0  0  0  0  0
  -23.8635  -32.2689  -21.0711 N   0  0  0  0  0  0  0  0  0  0  0  0
  -25.1891  -31.6059  -21.5358 C   0  0  0  0  0  0  0  0  0  0  0  0
  -25.6795  -31.5832  -22.5642 O   0  0  0  0  0  0  0  0  0  0  0  0
  -25.7010  -31.0707  -20.1655 N   0  0  0  0  0  0  0  0  0  0  0  0
  -26.9276  -30.5080  -19.8182 C   0  0  0  0  0  0  0  0  0  0  0  0
  -27.9491  -30.3912  -20.7614 C   0  0  0  0  0  0  0  0  0  0  0  0
  -29.2398  -30.0659  -20.3543 C   0  0  0  0  0  0  0  0  0  0  0  0
  -29.5108  -29.8707  -19.0055 C   0  0  0  0  0  0  0  0  0  0  0  0
  -28.4809  -29.8909  -18.0603 C   0  0  0  0  0  0  0  0  0  0  0  0
  -27.1773  -30.1833  -18.4792 C   0  0  0  0  0  0  0  0  0  0  0  0
  -26.1265  -30.2976  -17.6055 O   0  0  0  0  0  0  0  0  0  0  0  0
  -26.3293  -29.6779  -16.3398 C   0  0  0  0  0  0  0  0  0  0  0  0
  -27.6600  -30.0357  -15.7057 C   0  0  0  0  0  0  0  0  0  0  0  0
  -28.8088  -29.6474  -16.6190 C   0  0  0  0  0  0  0  0  0  0  0  0
  1  2  1  0
  2  3  1  0
  2  4  1  0
  4  5  1  6
  4  6  1  0
  6  7  1  0
  4  8  1  0
  8  9  1  0
  9 10  2  0
  9 11  1  0
 11 12  1  0
 12 13  2  0
 13 14  1  0
 14 15  2  0
 15 16  1  0
 16 17  2  0
 17 18  1  0
 18 19  1  0
 19 20  1  0
 20 21  1  0
 17 12  1  0
 21 16  1  0
M  END
>  <fragmenstein_mode>  (213) 
expansion

>  <name>  (213) 
BEOSGHBWTZVQHX-MRXNPFEDSA-N

>  <fragmenstein_runtime>  (213) 
10.725511

>  <HIPPO Compound ID>  (213) 
47066

>  <SLURM_JOB_NAME>  (213) 
BulkDock.place:Flavi_NS5_RdRp:RdRp_knitwork_green_site_rna_tunnel_impure_split4000_batch003

>  <ref_mols>  (213) 
z0211a,z0991a

>  <Multi-SuCOS>  (213) 
0.53113

>  <tags>  (213) 
['Fragmenstein placed', 'RdRp_knitwork_green_site_rna_tunnel_impure_fragalysis.sdf Pose OK']

>  <scratch_subdir>  (213) 
/opt/xchem-fragalysis-2/maxwin/BulkDock/SCRATCH/220454/C47066-P102

>  <energy_score>  (213) 
-51.336902

>  <fragmenstein_error>  (213) 
None

>  <csv_name>  (213) 
RdRp_knitwork_green_site_rna_tunnel_impure_split4000_batch003.csv

>  <merge_set>  (213) 
RdRp_knitwork_green_site_rna_tunnel_impure_fragalysis.sdf

>  <original ID>  (213) 
BEOSGHBWTZVQHX-MRXNPFEDSA-N

>  <HIPPO Pose ID>  (213) 
191463

>  <fragmenstein_outcome>  (213) 
acceptable

>  <exports>  (213) 
['/opt/xchem-fragalysis-2/maxwin/BulkDock/OUTPUTS/RdRp_knitwork_green_site_rna_tunnel_impure_split4000_batch003_220454.sdf', '/opt/xchem-fragalysis-2/maxwin/BulkDock/OUTPUTS/RdRp_knitwork_green_site_rna_tunnel_impure_fragalysis.sdf']

>  <SLURM_JOB_ID>  (213) 
220454

>  <distance_score>  (213) 
0.778117

>  <original SMILES>  (213) 
CC(C)[C@@](C)(CO)NC(=O)Nc1cccc2c1OCCC2

>  <alias>  (213) 
None

>  <ref_pdb>  (213) 
z0211a

>  <inchikey>  (213) 
BEOSGHBWTZVQHX-MRXNPFEDSA-N

$$$$
UBIHDOHNASSPBB-UHFFFAOYSA-N
     RDKit          3D

 14 16  0  0  0  0  0  0  0  0999 V2000
  -29.1430  -30.6988  -16.8213 C   0  0  0  0  0  0  0  0  0  0  0  0
  -27.9983  -30.0207  -17.1727 C   0  0  0  0  0  0  0  0  0  0  0  0
  -28.0651  -29.7552  -18.5638 C   0  0  0  0  0  0  0  0  0  0  0  0
  -27.1989  -29.1265  -19.4741 C   0  0  0  0  0  0  0  0  0  0  0  0
  -27.5385  -29.0888  -20.8333 C   0  0  0  0  0  0  0  0  0  0  0  0
  -26.6123  -28.5000  -21.7718 C   0  0  0  0  0  0  0  0  0  0  0  0
  -25.8600  -27.3053  -21.7130 C   0  0  0  0  0  0  0  0  0  0  0  0
  -25.1485  -27.1047  -22.8243 N   0  0  0  0  0  0  0  0  0  0  0  0
  -25.4046  -28.2059  -23.6273 O   0  0  0  0  0  0  0  0  0  0  0  0
  -26.2706  -29.0351  -22.9912 C   0  0  0  0  0  0  0  0  0  0  0  0
  -28.7624  -29.6168  -21.2643 C   0  0  0  0  0  0  0  0  0  0  0  0
  -29.6579  -30.2112  -20.3689 C   0  0  0  0  0  0  0  0  0  0  0  0
  -29.2689  -30.2808  -19.0290 C   0  0  0  0  0  0  0  0  0  0  0  0
  -29.9096  -30.8381  -17.9474 N   0  0  0  0  0  0  0  0  0  0  0  0
  1  2  2  0
  2  3  1  0
  3  4  2  0
  4  5  1  0
  5  6  1  0
  6  7  1  0
  7  8  2  0
  8  9  1  0
  9 10  1  0
  5 11  2  0
 11 12  1  0
 12 13  2  0
 13 14  1  0
 14  1  1  0
 13  3  1  0
 10  6  2  0
M  END
>  <fragmenstein_mode>  (214) 
expansion

>  <name>  (214) 
UBIHDOHNASSPBB-UHFFFAOYSA-N

>  <fragmenstein_runtime>  (214) 
2.250742

>  <HIPPO Compound ID>  (214) 
29131

>  <SLURM_JOB_NAME>  (214) 
BulkDock.place:Flavi_NS5_RdRp:RdRp_knitwork_green_site_rna_tunnel_impure_split4000_batch005

>  <ref_mols>  (214) 
z0136a,z0496a

>  <Multi-SuCOS>  (214) 
0.736366

>  <tags>  (214) 
['Fragmenstein placed', 'RdRp_knitwork_green_site_rna_tunnel_impure_fragalysis.sdf Pose OK']

>  <scratch_subdir>  (214) 
/opt/xchem-fragalysis-2/maxwin/BulkDock/SCRATCH/220456/C29131-P136

>  <energy_score>  (214) 
-15.875369

>  <fragmenstein_error>  (214) 
None

>  <csv_name>  (214) 
RdRp_knitwork_green_site_rna_tunnel_impure_split4000_batch005.csv

>  <merge_set>  (214) 
RdRp_knitwork_green_site_rna_tunnel_impure_fragalysis.sdf

>  <original ID>  (214) 
UBIHDOHNASSPBB-UHFFFAOYSA-N

>  <HIPPO Pose ID>  (214) 
191540

>  <fragmenstein_outcome>  (214) 
acceptable

>  <exports>  (214) 
['/opt/xchem-fragalysis-2/maxwin/BulkDock/OUTPUTS/RdRp_knitwork_green_site_rna_tunnel_impure_split4000_batch005_220456.sdf', '/opt/xchem-fragalysis-2/maxwin/BulkDock/OUTPUTS/RdRp_knitwork_green_site_rna_tunnel_impure_fragalysis.sdf']

>  <SLURM_JOB_ID>  (214) 
220456

>  <distance_score>  (214) 
0.953146

>  <original SMILES>  (214) 
c1cc2cc(-c3cnoc3)ccc2[nH]1

>  <alias>  (214) 
None

>  <ref_pdb>  (214) 
z0496a

>  <inchikey>  (214) 
UBIHDOHNASSPBB-UHFFFAOYSA-N

$$$$
JYGQXEKLUMQOMZ-ZDUSSCGKSA-N
     RDKit          3D

 21 22  0  0  0  0  0  0  0  0999 V2000
  -21.2567  -33.5307  -23.0930 C   0  0  0  0  0  0  0  0  0  0  0  0
  -22.1239  -32.4864  -22.3880 C   0  0  0  0  0  0  0  0  0  0  0  0
  -21.1652  -31.4732  -21.7404 C   0  0  0  0  0  0  0  0  0  0  0  0
  -22.9763  -31.8101  -23.4670 C   0  0  0  0  0  0  0  0  0  0  0  0
  -22.9889  -33.1322  -21.2615 C   0  0  2  0  0  0  0  0  0  0  0  0
  -23.7019  -34.4369  -21.6834 C   0  0  0  0  0  0  0  0  0  0  0  0
  -24.5957  -34.8708  -20.6559 O   0  0  0  0  0  0  0  0  0  0  0  0
  -23.9597  -32.1923  -20.7208 N   0  0  0  0  0  0  0  0  0  0  0  0
  -25.3935  -31.8479  -21.1946 C   0  0  0  0  0  0  0  0  0  0  0  0
  -25.9686  -32.1997  -22.1103 O   0  0  0  0  0  0  0  0  0  0  0  0
  -25.8487  -30.9671  -20.0051 N   0  0  0  0  0  0  0  0  0  0  0  0
  -27.0989  -30.4521  -19.6958 C   0  0  0  0  0  0  0  0  0  0  0  0
  -28.1168  -30.4338  -20.6473 C   0  0  0  0  0  0  0  0  0  0  0  0
  -29.4190  -30.1477  -20.2563 C   0  0  0  0  0  0  0  0  0  0  0  0
  -29.6971  -29.9060  -18.9163 C   0  0  0  0  0  0  0  0  0  0  0  0
  -28.6704  -29.8523  -17.9667 C   0  0  0  0  0  0  0  0  0  0  0  0
  -27.3578  -30.0976  -18.3695 C   0  0  0  0  0  0  0  0  0  0  0  0
  -26.3026  -30.1833  -17.4993 O   0  0  0  0  0  0  0  0  0  0  0  0
  -26.5361  -29.6746  -16.1928 C   0  0  0  0  0  0  0  0  0  0  0  0
  -27.8926  -30.0243  -15.6104 C   0  0  0  0  0  0  0  0  0  0  0  0
  -29.0098  -29.5863  -16.5363 C   0  0  0  0  0  0  0  0  0  0  0  0
  1  2  1  0
  2  3  1  0
  2  4  1  0
  2  5  1  0
  5  6  1  6
  6  7  1  0
  5  8  1  0
  8  9  1  0
  9 10  2  0
  9 11  1  0
 11 12  1  0
 12 13  2  0
 13 14  1  0
 14 15  2  0
 15 16  1  0
 16 17  2  0
 17 18  1  0
 18 19  1  0
 19 20  1  0
 20 21  1  0
 17 12  1  0
 21 16  1  0
M  END
>  <fragmenstein_mode>  (215) 
expansion

>  <name>  (215) 
JYGQXEKLUMQOMZ-ZDUSSCGKSA-N

>  <fragmenstein_runtime>  (215) 
11.735985

>  <HIPPO Compound ID>  (215) 
47534

>  <SLURM_JOB_NAME>  (215) 
BulkDock.place:Flavi_NS5_RdRp:RdRp_knitwork_green_site_rna_tunnel_impure_split4000_batch003

>  <ref_mols>  (215) 
z0211a,z0991a

>  <Multi-SuCOS>  (215) 
0.492785

>  <tags>  (215) 
['Fragmenstein placed', 'RdRp_knitwork_green_site_rna_tunnel_impure_fragalysis.sdf Pose OK']

>  <scratch_subdir>  (215) 
/opt/xchem-fragalysis-2/maxwin/BulkDock/SCRATCH/220454/C47534-P102

>  <energy_score>  (215) 
-36.71933

>  <fragmenstein_error>  (215) 
None

>  <csv_name>  (215) 
RdRp_knitwork_green_site_rna_tunnel_impure_split4000_batch003.csv

>  <merge_set>  (215) 
RdRp_knitwork_green_site_rna_tunnel_impure_fragalysis.sdf

>  <original ID>  (215) 
JYGQXEKLUMQOMZ-ZDUSSCGKSA-N

>  <HIPPO Pose ID>  (215) 
191956

>  <fragmenstein_outcome>  (215) 
acceptable

>  <exports>  (215) 
['/opt/xchem-fragalysis-2/maxwin/BulkDock/OUTPUTS/RdRp_knitwork_green_site_rna_tunnel_impure_split4000_batch003_220454.sdf', '/opt/xchem-fragalysis-2/maxwin/BulkDock/OUTPUTS/RdRp_knitwork_green_site_rna_tunnel_impure_fragalysis.sdf']

>  <SLURM_JOB_ID>  (215) 
220454

>  <distance_score>  (215) 
0.90443

>  <original SMILES>  (215) 
CC(C)(C)[C@H](CO)NC(=O)Nc1cccc2c1OCCC2

>  <alias>  (215) 
None

>  <ref_pdb>  (215) 
z0211a

>  <inchikey>  (215) 
JYGQXEKLUMQOMZ-ZDUSSCGKSA-N

$$$$
YMVIHBOGWYDRMU-LBPRGKRZSA-N
     RDKit          3D

 20 21  0  0  0  0  0  0  0  0999 V2000
  -21.0507  -33.1876  -24.9167 C   0  0  0  0  0  0  0  0  0  0  0  0
  -21.5145  -32.6514  -23.9487 C   0  0  0  0  0  0  0  0  0  0  0  0
  -22.1220  -31.9240  -22.8215 C   0  0  0  0  0  0  0  0  0  0  0  0
  -22.5853  -32.8526  -21.6890 C   0  0  1  0  0  0  0  0  0  0  0  0
  -21.4249  -33.2728  -20.7770 C   0  0  0  0  0  0  0  0  0  0  0  0
  -21.7992  -34.3773  -19.9535 O   0  0  0  0  0  0  0  0  0  0  0  0
  -23.6583  -32.2176  -20.9298 N   0  0  0  0  0  0  0  0  0  0  0  0
  -25.1753  -32.0886  -21.2463 C   0  0  0  0  0  0  0  0  0  0  0  0
  -25.7886  -32.5269  -22.1015 O   0  0  0  0  0  0  0  0  0  0  0  0
  -25.6159  -31.1955  -20.0457 N   0  0  0  0  0  0  0  0  0  0  0  0
  -26.8557  -30.6325  -19.7472 C   0  0  0  0  0  0  0  0  0  0  0  0
  -27.8724  -30.5980  -20.7014 C   0  0  0  0  0  0  0  0  0  0  0  0
  -29.1599  -30.2114  -20.3370 C   0  0  0  0  0  0  0  0  0  0  0  0
  -29.4416  -29.9078  -19.0119 C   0  0  0  0  0  0  0  0  0  0  0  0
  -28.4222  -29.8855  -18.0556 C   0  0  0  0  0  0  0  0  0  0  0  0
  -27.1119  -30.1967  -18.4421 C   0  0  0  0  0  0  0  0  0  0  0  0
  -26.0666  -30.2579  -17.5572 O   0  0  0  0  0  0  0  0  0  0  0  0
  -26.3065  -29.6525  -16.2919 C   0  0  0  0  0  0  0  0  0  0  0  0
  -27.6516  -30.0159  -15.6919 C   0  0  0  0  0  0  0  0  0  0  0  0
  -28.7745  -29.6069  -16.6268 C   0  0  0  0  0  0  0  0  0  0  0  0
  1  2  3  0
  2  3  1  0
  4  3  1  6
  4  5  1  0
  5  6  1  0
  4  7  1  0
  7  8  1  0
  8  9  2  0
  8 10  1  0
 10 11  1  0
 11 12  2  0
 12 13  1  0
 13 14  2  0
 14 15  1  0
 15 16  2  0
 16 17  1  0
 17 18  1  0
 18 19  1  0
 19 20  1  0
 16 11  1  0
 20 15  1  0
M  END
>  <fragmenstein_mode>  (216) 
expansion

>  <name>  (216) 
YMVIHBOGWYDRMU-LBPRGKRZSA-N

>  <fragmenstein_runtime>  (216) 
6.531968

>  <HIPPO Compound ID>  (216) 
47645

>  <SLURM_JOB_NAME>  (216) 
BulkDock.place:Flavi_NS5_RdRp:RdRp_knitwork_green_site_rna_tunnel_impure_split4000_batch003

>  <ref_mols>  (216) 
z0211a,z0991a

>  <Multi-SuCOS>  (216) 
0.487856

>  <tags>  (216) 
['Fragmenstein placed', 'RdRp_knitwork_green_site_rna_tunnel_impure_fragalysis.sdf Pose OK']

>  <scratch_subdir>  (216) 
/opt/xchem-fragalysis-2/maxwin/BulkDock/SCRATCH/220454/C47645-P102

>  <energy_score>  (216) 
-19.367957

>  <fragmenstein_error>  (216) 
None

>  <csv_name>  (216) 
RdRp_knitwork_green_site_rna_tunnel_impure_split4000_batch003.csv

>  <merge_set>  (216) 
RdRp_knitwork_green_site_rna_tunnel_impure_fragalysis.sdf

>  <original ID>  (216) 
YMVIHBOGWYDRMU-LBPRGKRZSA-N

>  <HIPPO Pose ID>  (216) 
192046

>  <fragmenstein_outcome>  (216) 
acceptable

>  <exports>  (216) 
['/opt/xchem-fragalysis-2/maxwin/BulkDock/OUTPUTS/RdRp_knitwork_green_site_rna_tunnel_impure_split4000_batch003_220454.sdf', '/opt/xchem-fragalysis-2/maxwin/BulkDock/OUTPUTS/RdRp_knitwork_green_site_rna_tunnel_impure_fragalysis.sdf']

>  <SLURM_JOB_ID>  (216) 
220454

>  <distance_score>  (216) 
0.941628

>  <original SMILES>  (216) 
C#CC[C@@H](CO)NC(=O)Nc1cccc2c1OCCC2

>  <alias>  (216) 
None

>  <ref_pdb>  (216) 
z0211a

>  <inchikey>  (216) 
YMVIHBOGWYDRMU-LBPRGKRZSA-N

$$$$
NDDIXOCBAUDTPC-UHFFFAOYSA-N
     RDKit          3D

 15 16  0  0  0  0  0  0  0  0999 V2000
  -26.9107  -31.7653  -21.2511 N   0  0  0  0  0  0  0  0  0  0  0  0
  -26.1280  -31.9041  -20.1856 C   0  0  0  0  0  0  0  0  0  0  0  0
  -25.7149  -33.1413  -19.6719 C   0  0  0  0  0  0  0  0  0  0  0  0
  -24.7907  -32.8667  -18.6873 C   0  0  0  0  0  0  0  0  0  0  0  0
  -23.9511  -33.7827  -17.9862 C   0  0  0  0  0  0  0  0  0  0  0  0
  -24.1538  -34.9728  -17.7914 O   0  0  0  0  0  0  0  0  0  0  0  0
  -22.8089  -33.1868  -17.5803 O   0  0  0  0  0  0  0  0  0  0  0  0
  -24.8214  -31.5000  -18.4847 N   0  0  0  0  0  0  0  0  0  0  0  0
  -25.5196  -30.8823  -19.4985 C   0  0  0  0  0  0  0  0  0  0  0  0
  -25.3824  -29.4641  -19.7884 C   0  0  0  0  0  0  0  0  0  0  0  0
  -25.2229  -29.0139  -21.0976 C   0  0  0  0  0  0  0  0  0  0  0  0
  -24.9004  -27.6805  -21.3166 C   0  0  0  0  0  0  0  0  0  0  0  0
  -24.8246  -26.8258  -20.2301 C   0  0  0  0  0  0  0  0  0  0  0  0
  -25.0450  -27.3499  -18.9650 C   0  0  0  0  0  0  0  0  0  0  0  0
  -25.2894  -28.6540  -18.7133 N   0  0  0  0  0  0  0  0  0  0  0  0
  1  2  1  0
  2  3  1  0
  3  4  2  0
  4  5  1  0
  5  6  2  0
  5  7  1  0
  4  8  1  0
  8  9  1  0
  9 10  1  0
 10 11  2  0
 11 12  1  0
 12 13  2  0
 13 14  1  0
 14 15  2  0
  9  2  2  0
 15 10  1  0
M  END
>  <fragmenstein_mode>  (217) 
expansion

>  <name>  (217) 
NDDIXOCBAUDTPC-UHFFFAOYSA-N

>  <fragmenstein_runtime>  (217) 
1.756253

>  <HIPPO Compound ID>  (217) 
11120

>  <SLURM_JOB_NAME>  (217) 
BulkDock.place:Flavi_NS5_RdRp:RdRp_knitwork_green_site_rna_tunnel_impure_split4000_batch012

>  <ref_mols>  (217) 
d0472b,z0384a

>  <Multi-SuCOS>  (217) 
0.466186

>  <tags>  (217) 
['Fragmenstein placed', 'RdRp_knitwork_green_site_rna_tunnel_impure_fragalysis.sdf Pose OK']

>  <scratch_subdir>  (217) 
/opt/xchem-fragalysis-2/maxwin/BulkDock/SCRATCH/220463/C11120-P41

>  <energy_score>  (217) 
-48.618738

>  <fragmenstein_error>  (217) 
None

>  <csv_name>  (217) 
RdRp_knitwork_green_site_rna_tunnel_impure_split4000_batch012.csv

>  <merge_set>  (217) 
RdRp_knitwork_green_site_rna_tunnel_impure_fragalysis.sdf

>  <original ID>  (217) 
NDDIXOCBAUDTPC-UHFFFAOYSA-N

>  <HIPPO Pose ID>  (217) 
192062

>  <fragmenstein_outcome>  (217) 
acceptable

>  <exports>  (217) 
['/opt/xchem-fragalysis-2/maxwin/BulkDock/OUTPUTS/RdRp_knitwork_green_site_rna_tunnel_impure_split4000_batch012_220463.sdf', '/opt/xchem-fragalysis-2/maxwin/BulkDock/OUTPUTS/RdRp_knitwork_green_site_rna_tunnel_impure_fragalysis.sdf']

>  <SLURM_JOB_ID>  (217) 
220463

>  <distance_score>  (217) 
0.944316

>  <original SMILES>  (217) 
Nc1cc(C(=O)O)[nH]c1-c1ccccn1

>  <alias>  (217) 
None

>  <ref_pdb>  (217) 
d0472b

>  <inchikey>  (217) 
NDDIXOCBAUDTPC-UHFFFAOYSA-N

$$$$
BDALZSRNMACHHP-CQSZACIVSA-N
     RDKit          3D

 18 20  0  0  0  0  0  0  0  0999 V2000
  -29.6343  -29.5221  -21.7249 C   0  0  0  0  0  0  0  0  0  0  0  0
  -28.8378  -30.5855  -21.2372 O   0  0  0  0  0  0  0  0  0  0  0  0
  -28.7739  -30.6082  -19.8801 C   0  0  0  0  0  0  0  0  0  0  0  0
  -29.8638  -30.5407  -19.0212 C   0  0  0  0  0  0  0  0  0  0  0  0
  -29.6744  -30.6371  -17.6333 C   0  0  0  0  0  0  0  0  0  0  0  0
  -28.3974  -30.7277  -17.0849 C   0  0  0  0  0  0  0  0  0  0  0  0
  -27.3150  -30.7474  -17.9681 C   0  0  0  0  0  0  0  0  0  0  0  0
  -27.5056  -30.7465  -19.3608 C   0  0  0  0  0  0  0  0  0  0  0  0
  -25.9387  -30.4165  -17.4712 C   0  0  1  0  0  0  0  0  0  0  0  0
  -25.7183  -28.9207  -17.6705 C   0  0  0  0  0  0  0  0  0  0  0  0
  -26.6913  -28.1046  -18.3091 C   0  0  0  0  0  0  0  0  0  0  0  0
  -26.4781  -26.7794  -18.6144 C   0  0  0  0  0  0  0  0  0  0  0  0
  -25.3026  -26.1894  -18.1748 C   0  0  0  0  0  0  0  0  0  0  0  0
  -24.3140  -26.9639  -17.5316 C   0  0  0  0  0  0  0  0  0  0  0  0
  -24.5148  -28.3335  -17.3047 C   0  0  0  0  0  0  0  0  0  0  0  0
  -25.7641  -30.9764  -16.0601 C   0  0  0  0  0  0  0  0  0  0  0  0
  -26.9192  -30.6376  -15.1355 C   0  0  0  0  0  0  0  0  0  0  0  0
  -28.2466  -30.8752  -15.6997 N   0  0  0  0  0  0  0  0  0  0  0  0
  1  2  1  0
  2  3  1  0
  3  4  2  0
  4  5  1  0
  5  6  2  0
  6  7  1  0
  7  8  2  0
  7  9  1  0
  9 10  1  1
 10 11  2  0
 11 12  1  0
 12 13  2  0
 13 14  1  0
 14 15  2  0
  9 16  1  0
 16 17  1  0
 17 18  1  0
  8  3  1  0
 15 10  1  0
 18  6  1  0
M  END
>  <fragmenstein_mode>  (218) 
expansion

>  <name>  (218) 
BDALZSRNMACHHP-CQSZACIVSA-N

>  <fragmenstein_runtime>  (218) 
3.761285

>  <HIPPO Compound ID>  (218) 
33958

>  <SLURM_JOB_NAME>  (218) 
BulkDock.place:Flavi_NS5_RdRp:RdRp_knitwork_green_site_rna_tunnel_impure_split4000_batch002

>  <ref_mols>  (218) 
z0904a,d0472b

>  <Multi-SuCOS>  (218) 
0.450701

>  <tags>  (218) 
['Fragmenstein placed', 'RdRp_knitwork_green_site_rna_tunnel_impure_fragalysis.sdf Pose OK']

>  <scratch_subdir>  (218) 
/opt/xchem-fragalysis-2/maxwin/BulkDock/SCRATCH/220453/C33958-P7

>  <energy_score>  (218) 
-10.000847

>  <fragmenstein_error>  (218) 
None

>  <csv_name>  (218) 
RdRp_knitwork_green_site_rna_tunnel_impure_split4000_batch002.csv

>  <merge_set>  (218) 
RdRp_knitwork_green_site_rna_tunnel_impure_fragalysis.sdf

>  <original ID>  (218) 
BDALZSRNMACHHP-CQSZACIVSA-N

>  <HIPPO Pose ID>  (218) 
192225

>  <fragmenstein_outcome>  (218) 
acceptable

>  <exports>  (218) 
['/opt/xchem-fragalysis-2/maxwin/BulkDock/OUTPUTS/RdRp_knitwork_green_site_rna_tunnel_impure_split4000_batch002_220453.sdf', '/opt/xchem-fragalysis-2/maxwin/BulkDock/OUTPUTS/RdRp_knitwork_green_site_rna_tunnel_impure_fragalysis.sdf']

>  <SLURM_JOB_ID>  (218) 
220453

>  <distance_score>  (218) 
0.928179

>  <original SMILES>  (218) 
COc1ccc2c(c1)[C@@H](c1ccccc1)CCN2

>  <alias>  (218) 
None

>  <ref_pdb>  (218) 
z0904a

>  <inchikey>  (218) 
BDALZSRNMACHHP-CQSZACIVSA-N

$$$$
COAHEEANQWOQSM-CQSZACIVSA-N
     RDKit          3D

 24 25  0  0  0  0  0  0  0  0999 V2000
  -23.3999  -37.8811  -26.7223 C   0  0  0  0  0  0  0  0  0  0  0  0
  -23.6357  -36.9569  -25.5408 C   0  0  0  0  0  0  0  0  0  0  0  0
  -22.6527  -35.9265  -25.4967 O   0  0  0  0  0  0  0  0  0  0  0  0
  -22.9628  -34.8046  -26.3278 C   0  0  0  0  0  0  0  0  0  0  0  0
  -21.7974  -33.8098  -26.2962 C   0  0  0  0  0  0  0  0  0  0  0  0
  -21.9282  -32.8151  -25.2799 O   0  0  0  0  0  0  0  0  0  0  0  0
  -21.7642  -33.2985  -23.9359 C   0  0  0  0  0  0  0  0  0  0  0  0
  -22.2114  -32.2013  -22.9600 C   0  0  2  0  0  0  0  0  0  0  0  0
  -21.1463  -31.2516  -22.8027 O   0  0  0  0  0  0  0  0  0  0  0  0
  -22.5579  -32.7598  -21.5711 C   0  0  0  0  0  0  0  0  0  0  0  0
  -23.5939  -31.9849  -20.9203 N   0  0  0  0  0  0  0  0  0  0  0  0
  -25.0376  -31.6451  -21.3844 C   0  0  0  0  0  0  0  0  0  0  0  0
  -25.5658  -31.8688  -22.3691 O   0  0  0  0  0  0  0  0  0  0  0  0
  -25.5672  -30.9521  -20.0940 N   0  0  0  0  0  0  0  0  0  0  0  0
  -26.8479  -30.5069  -19.7695 C   0  0  0  0  0  0  0  0  0  0  0  0
  -27.8656  -30.4813  -20.7233 C   0  0  0  0  0  0  0  0  0  0  0  0
  -29.1690  -30.1666  -20.3448 C   0  0  0  0  0  0  0  0  0  0  0  0
  -29.4632  -29.9147  -19.0107 C   0  0  0  0  0  0  0  0  0  0  0  0
  -28.4468  -29.8888  -18.0513 C   0  0  0  0  0  0  0  0  0  0  0  0
  -27.1284  -30.1517  -18.4444 C   0  0  0  0  0  0  0  0  0  0  0  0
  -26.0846  -30.2184  -17.5582 O   0  0  0  0  0  0  0  0  0  0  0  0
  -26.3328  -29.6449  -16.2806 C   0  0  0  0  0  0  0  0  0  0  0  0
  -27.6746  -30.0285  -15.6866 C   0  0  0  0  0  0  0  0  0  0  0  0
  -28.8036  -29.6327  -16.6198 C   0  0  0  0  0  0  0  0  0  0  0  0
  1  2  1  0
  2  3  1  0
  3  4  1  0
  4  5  1  0
  5  6  1  0
  6  7  1  0
  7  8  1  0
  8  9  1  1
  8 10  1  0
 10 11  1  0
 11 12  1  0
 12 13  2  0
 12 14  1  0
 14 15  1  0
 15 16  2  0
 16 17  1  0
 17 18  2  0
 18 19  1  0
 19 20  2  0
 20 21  1  0
 21 22  1  0
 22 23  1  0
 23 24  1  0
 20 15  1  0
 24 19  1  0
M  END
>  <fragmenstein_mode>  (219) 
expansion

>  <name>  (219) 
COAHEEANQWOQSM-CQSZACIVSA-N

>  <fragmenstein_runtime>  (219) 
12.980297

>  <HIPPO Compound ID>  (219) 
47755

>  <SLURM_JOB_NAME>  (219) 
BulkDock.place:Flavi_NS5_RdRp:RdRp_knitwork_green_site_rna_tunnel_impure_split4000_batch003

>  <ref_mols>  (219) 
z0211a,z0991a

>  <Multi-SuCOS>  (219) 
0.479883

>  <tags>  (219) 
['Fragmenstein placed', 'RdRp_knitwork_green_site_rna_tunnel_impure_fragalysis.sdf Pose OK']

>  <scratch_subdir>  (219) 
/opt/xchem-fragalysis-2/maxwin/BulkDock/SCRATCH/220454/C47755-P102

>  <energy_score>  (219) 
-25.426141

>  <fragmenstein_error>  (219) 
None

>  <csv_name>  (219) 
RdRp_knitwork_green_site_rna_tunnel_impure_split4000_batch003.csv

>  <merge_set>  (219) 
RdRp_knitwork_green_site_rna_tunnel_impure_fragalysis.sdf

>  <original ID>  (219) 
COAHEEANQWOQSM-CQSZACIVSA-N

>  <HIPPO Pose ID>  (219) 
192289

>  <fragmenstein_outcome>  (219) 
acceptable

>  <exports>  (219) 
['/opt/xchem-fragalysis-2/maxwin/BulkDock/OUTPUTS/RdRp_knitwork_green_site_rna_tunnel_impure_split4000_batch003_220454.sdf', '/opt/xchem-fragalysis-2/maxwin/BulkDock/OUTPUTS/RdRp_knitwork_green_site_rna_tunnel_impure_fragalysis.sdf']

>  <SLURM_JOB_ID>  (219) 
220454

>  <distance_score>  (219) 
0.877676

>  <original SMILES>  (219) 
CCOCCOC[C@H](O)CNC(=O)Nc1cccc2c1OCCC2

>  <alias>  (219) 
None

>  <ref_pdb>  (219) 
z0211a

>  <inchikey>  (219) 
COAHEEANQWOQSM-CQSZACIVSA-N

$$$$
VZKKLUGLBOPNNE-UHFFFAOYSA-N
     RDKit          3D

 10 11  0  0  0  0  0  0  0  0999 V2000
  -25.2243  -33.6100  -17.9459 C   0  0  0  0  0  0  0  0  0  0  0  0
  -24.0388  -32.9700  -18.2238 C   0  0  0  0  0  0  0  0  0  0  0  0
  -24.3037  -31.9569  -19.1142 N   0  0  0  0  0  0  0  0  0  0  0  0
  -25.6446  -31.9462  -19.4080 C   0  0  0  0  0  0  0  0  0  0  0  0
  -26.2440  -31.0232  -20.3117 C   0  0  0  0  0  0  0  0  0  0  0  0
  -27.2773  -30.1435  -20.0666 C   0  0  0  0  0  0  0  0  0  0  0  0
  -27.6364  -29.4641  -21.2629 C   0  0  0  0  0  0  0  0  0  0  0  0
  -26.9569  -29.7741  -22.3637 N   0  0  0  0  0  0  0  0  0  0  0  0
  -25.8087  -30.9088  -21.9626 S   0  0  0  0  0  0  0  0  0  0  0  0
  -26.2400  -32.9615  -18.6881 C   0  0  0  0  0  0  0  0  0  0  0  0
  1  2  2  0
  2  3  1  0
  3  4  1  0
  4  5  1  0
  5  6  2  0
  6  7  1  0
  7  8  2  0
  8  9  1  0
  4 10  2  0
 10  1  1  0
  9  5  1  0
M  END
>  <fragmenstein_mode>  (220) 
expansion

>  <name>  (220) 
VZKKLUGLBOPNNE-UHFFFAOYSA-N

>  <fragmenstein_runtime>  (220) 
4.369108

>  <HIPPO Compound ID>  (220) 
8566

>  <SLURM_JOB_NAME>  (220) 
BulkDock.place:Flavi_NS5_RdRp:RdRp_knitwork_green_site_rna_tunnel_impure_split4000_batch018

>  <ref_mols>  (220) 
d0472b,z0653a

>  <Multi-SuCOS>  (220) 
0.618517

>  <tags>  (220) 
['Fragmenstein placed', 'RdRp_knitwork_green_site_rna_tunnel_impure_fragalysis.sdf Pose OK']

>  <scratch_subdir>  (220) 
/opt/xchem-fragalysis-2/maxwin/BulkDock/SCRATCH/220469/C8566-P153

>  <energy_score>  (220) 
-15.933126

>  <fragmenstein_error>  (220) 
None

>  <csv_name>  (220) 
RdRp_knitwork_green_site_rna_tunnel_impure_split4000_batch018.csv

>  <merge_set>  (220) 
RdRp_knitwork_green_site_rna_tunnel_impure_fragalysis.sdf

>  <original ID>  (220) 
VZKKLUGLBOPNNE-UHFFFAOYSA-N

>  <HIPPO Pose ID>  (220) 
192377

>  <fragmenstein_outcome>  (220) 
acceptable

>  <exports>  (220) 
['/opt/xchem-fragalysis-2/maxwin/BulkDock/OUTPUTS/RdRp_knitwork_green_site_rna_tunnel_impure_split4000_batch018_220469.sdf', '/opt/xchem-fragalysis-2/maxwin/BulkDock/OUTPUTS/RdRp_knitwork_green_site_rna_tunnel_impure_fragalysis.sdf']

>  <SLURM_JOB_ID>  (220) 
220469

>  <distance_score>  (220) 
0.925953

>  <original SMILES>  (220) 
c1c[nH]c(-c2ccns2)c1

>  <alias>  (220) 
None

>  <ref_pdb>  (220) 
z0653a

>  <inchikey>  (220) 
VZKKLUGLBOPNNE-UHFFFAOYSA-N

$$$$
WKPUEUDAXGSKRZ-UHFFFAOYSA-N
     RDKit          3D

 20 22  0  0  0  0  0  0  0  0999 V2000
  -27.6839  -33.8283  -14.9101 O   0  0  0  0  0  0  0  0  0  0  0  0
  -28.7586  -33.2882  -14.6639 C   0  0  0  0  0  0  0  0  0  0  0  0
  -29.6001  -32.9220  -15.6763 O   0  0  0  0  0  0  0  0  0  0  0  0
  -30.4136  -31.7343  -15.5724 C   0  0  0  0  0  0  0  0  0  0  0  0
  -30.4147  -31.0224  -16.9327 C   0  0  0  0  0  0  0  0  0  0  0  0
  -29.1024  -30.4410  -17.4200 C   0  0  0  0  0  0  0  0  0  0  0  0
  -28.0459  -30.2047  -16.5362 C   0  0  0  0  0  0  0  0  0  0  0  0
  -26.8558  -29.7173  -17.0319 C   0  0  0  0  0  0  0  0  0  0  0  0
  -26.6477  -29.4314  -18.3279 N   0  0  0  0  0  0  0  0  0  0  0  0
  -27.6615  -29.6198  -19.1889 C   0  0  0  0  0  0  0  0  0  0  0  0
  -27.4552  -29.3319  -20.5298 C   0  0  0  0  0  0  0  0  0  0  0  0
  -28.4612  -29.5052  -21.4796 C   0  0  0  0  0  0  0  0  0  0  0  0
  -29.7170  -29.9348  -21.0875 C   0  0  0  0  0  0  0  0  0  0  0  0
  -29.9468  -30.2417  -19.7545 C   0  0  0  0  0  0  0  0  0  0  0  0
  -28.9248  -30.1103  -18.7869 C   0  0  0  0  0  0  0  0  0  0  0  0
  -29.1985  -33.0602  -13.2794 C   0  0  0  0  0  0  0  0  0  0  0  0
  -28.3501  -33.2135  -12.1927 C   0  0  0  0  0  0  0  0  0  0  0  0
  -29.1790  -32.8999  -10.7275 S   0  0  0  0  0  0  0  0  0  0  0  0
  -30.6053  -32.6070  -11.6258 C   0  0  0  0  0  0  0  0  0  0  0  0
  -30.5039  -32.7102  -12.9314 N   0  0  0  0  0  0  0  0  0  0  0  0
  1  2  2  0
  2  3  1  0
  3  4  1  0
  4  5  1  0
  5  6  1  0
  6  7  2  0
  7  8  1  0
  8  9  2  0
  9 10  1  0
 10 11  2  0
 11 12  1  0
 12 13  2  0
 13 14  1  0
 14 15  2  0
  2 16  1  0
 16 17  2  0
 17 18  1  0
 18 19  1  0
 19 20  2  0
 15  6  1  0
 20 16  1  0
 15 10  1  0
M  END
>  <fragmenstein_mode>  (221) 
expansion

>  <name>  (221) 
WKPUEUDAXGSKRZ-UHFFFAOYSA-N

>  <fragmenstein_runtime>  (221) 
5.052147

>  <HIPPO Compound ID>  (221) 
36729

>  <SLURM_JOB_NAME>  (221) 
BulkDock.place:Flavi_NS5_RdRp:RdRp_knitwork_green_site_rna_tunnel_impure_split4000_batch016

>  <ref_mols>  (221) 
z0496a,z1040a

>  <Multi-SuCOS>  (221) 
0.42909

>  <tags>  (221) 
['Fragmenstein placed', 'RdRp_knitwork_green_site_rna_tunnel_impure_fragalysis.sdf Pose OK']

>  <scratch_subdir>  (221) 
/opt/xchem-fragalysis-2/maxwin/BulkDock/SCRATCH/220467/C36729-P136

>  <energy_score>  (221) 
-92.03971

>  <fragmenstein_error>  (221) 
None

>  <csv_name>  (221) 
RdRp_knitwork_green_site_rna_tunnel_impure_split4000_batch016.csv

>  <merge_set>  (221) 
RdRp_knitwork_green_site_rna_tunnel_impure_fragalysis.sdf

>  <original ID>  (221) 
WKPUEUDAXGSKRZ-UHFFFAOYSA-N

>  <HIPPO Pose ID>  (221) 
192391

>  <fragmenstein_outcome>  (221) 
acceptable

>  <exports>  (221) 
['/opt/xchem-fragalysis-2/maxwin/BulkDock/OUTPUTS/RdRp_knitwork_green_site_rna_tunnel_impure_split4000_batch016_220467.sdf', '/opt/xchem-fragalysis-2/maxwin/BulkDock/OUTPUTS/RdRp_knitwork_green_site_rna_tunnel_impure_fragalysis.sdf']

>  <SLURM_JOB_ID>  (221) 
220467

>  <distance_score>  (221) 
0.946735

>  <original SMILES>  (221) 
O=C(OCCc1ccnc2ccccc12)c1cscn1

>  <alias>  (221) 
None

>  <ref_pdb>  (221) 
z0496a

>  <inchikey>  (221) 
WKPUEUDAXGSKRZ-UHFFFAOYSA-N

$$$$
IOPGETFDVKMTBS-UHFFFAOYSA-N
     RDKit          3D

 10 11  0  0  0  0  0  0  0  0999 V2000
  -25.2123  -33.5757  -17.9904 C   0  0  0  0  0  0  0  0  0  0  0  0
  -24.0383  -32.9596  -18.3564 C   0  0  0  0  0  0  0  0  0  0  0  0
  -24.3467  -31.9461  -19.2335 N   0  0  0  0  0  0  0  0  0  0  0  0
  -25.7053  -31.9033  -19.4195 C   0  0  0  0  0  0  0  0  0  0  0  0
  -26.3394  -30.9621  -20.2792 C   0  0  0  0  0  0  0  0  0  0  0  0
  -27.4454  -30.1809  -20.0238 C   0  0  0  0  0  0  0  0  0  0  0  0
  -27.6752  -29.4854  -21.2191 C   0  0  0  0  0  0  0  0  0  0  0  0
  -26.7893  -29.8047  -22.1625 N   0  0  0  0  0  0  0  0  0  0  0  0
  -25.9368  -30.7225  -21.5648 O   0  0  0  0  0  0  0  0  0  0  0  0
  -26.2666  -32.9065  -18.6566 C   0  0  0  0  0  0  0  0  0  0  0  0
  1  2  2  0
  2  3  1  0
  3  4  1  0
  4  5  1  0
  5  6  2  0
  6  7  1  0
  7  8  2  0
  8  9  1  0
  4 10  2  0
 10  1  1  0
  9  5  1  0
M  END
>  <fragmenstein_mode>  (222) 
expansion

>  <name>  (222) 
IOPGETFDVKMTBS-UHFFFAOYSA-N

>  <fragmenstein_runtime>  (222) 
6.904431

>  <HIPPO Compound ID>  (222) 
8570

>  <SLURM_JOB_NAME>  (222) 
BulkDock.place:Flavi_NS5_RdRp:RdRp_knitwork_green_site_rna_tunnel_impure_split4000_batch018

>  <ref_mols>  (222) 
d0472b,z0653a

>  <Multi-SuCOS>  (222) 
0.54667

>  <tags>  (222) 
['Fragmenstein placed', 'RdRp_knitwork_green_site_rna_tunnel_impure_fragalysis.sdf Pose OK']

>  <scratch_subdir>  (222) 
/opt/xchem-fragalysis-2/maxwin/BulkDock/SCRATCH/220469/C8570-P153

>  <energy_score>  (222) 
-11.12232

>  <fragmenstein_error>  (222) 
None

>  <csv_name>  (222) 
RdRp_knitwork_green_site_rna_tunnel_impure_split4000_batch018.csv

>  <merge_set>  (222) 
RdRp_knitwork_green_site_rna_tunnel_impure_fragalysis.sdf

>  <original ID>  (222) 
IOPGETFDVKMTBS-UHFFFAOYSA-N

>  <HIPPO Pose ID>  (222) 
192412

>  <fragmenstein_outcome>  (222) 
acceptable

>  <exports>  (222) 
['/opt/xchem-fragalysis-2/maxwin/BulkDock/OUTPUTS/RdRp_knitwork_green_site_rna_tunnel_impure_split4000_batch018_220469.sdf', '/opt/xchem-fragalysis-2/maxwin/BulkDock/OUTPUTS/RdRp_knitwork_green_site_rna_tunnel_impure_fragalysis.sdf']

>  <SLURM_JOB_ID>  (222) 
220469

>  <distance_score>  (222) 
0.973463

>  <original SMILES>  (222) 
c1c[nH]c(-c2ccno2)c1

>  <alias>  (222) 
None

>  <ref_pdb>  (222) 
z0653a

>  <inchikey>  (222) 
IOPGETFDVKMTBS-UHFFFAOYSA-N

$$$$
SQVZHSQLAZOSDP-UHFFFAOYSA-N
     RDKit          3D

 10 11  0  0  0  0  0  0  0  0999 V2000
  -24.6377  -34.1407  -18.8552 C   0  0  0  0  0  0  0  0  0  0  0  0
  -24.1083  -33.1559  -18.0501 C   0  0  0  0  0  0  0  0  0  0  0  0
  -24.5558  -31.9485  -18.5218 N   0  0  0  0  0  0  0  0  0  0  0  0
  -25.3664  -32.1574  -19.6034 C   0  0  0  0  0  0  0  0  0  0  0  0
  -26.0987  -31.0593  -20.4036 C   0  0  0  0  0  0  0  0  0  0  0  0
  -26.3486  -29.8030  -19.8947 C   0  0  0  0  0  0  0  0  0  0  0  0
  -27.3488  -28.9471  -20.9860 S   0  0  0  0  0  0  0  0  0  0  0  0
  -27.1405  -30.2027  -22.1259 C   0  0  0  0  0  0  0  0  0  0  0  0
  -26.5783  -31.3002  -21.6735 N   0  0  0  0  0  0  0  0  0  0  0  0
  -25.3988  -33.5062  -19.8660 C   0  0  0  0  0  0  0  0  0  0  0  0
  1  2  2  0
  2  3  1  0
  3  4  1  0
  4  5  1  0
  5  6  2  0
  6  7  1  0
  7  8  1  0
  8  9  2  0
  4 10  2  0
 10  1  1  0
  9  5  1  0
M  END
>  <fragmenstein_mode>  (223) 
expansion

>  <name>  (223) 
SQVZHSQLAZOSDP-UHFFFAOYSA-N

>  <fragmenstein_runtime>  (223) 
4.030588

>  <HIPPO Compound ID>  (223) 
8633

>  <SLURM_JOB_NAME>  (223) 
BulkDock.place:Flavi_NS5_RdRp:RdRp_knitwork_green_site_rna_tunnel_impure_split4000_batch018

>  <ref_mols>  (223) 
d0472b,z0653a

>  <Multi-SuCOS>  (223) 
0.488256

>  <tags>  (223) 
['Fragmenstein placed', 'RdRp_knitwork_green_site_rna_tunnel_impure_fragalysis.sdf Pose OK']

>  <scratch_subdir>  (223) 
/opt/xchem-fragalysis-2/maxwin/BulkDock/SCRATCH/220469/C8633-P153

>  <energy_score>  (223) 
-55.838453

>  <fragmenstein_error>  (223) 
None

>  <csv_name>  (223) 
RdRp_knitwork_green_site_rna_tunnel_impure_split4000_batch018.csv

>  <merge_set>  (223) 
RdRp_knitwork_green_site_rna_tunnel_impure_fragalysis.sdf

>  <original ID>  (223) 
SQVZHSQLAZOSDP-UHFFFAOYSA-N

>  <HIPPO Pose ID>  (223) 
192449

>  <fragmenstein_outcome>  (223) 
acceptable

>  <exports>  (223) 
['/opt/xchem-fragalysis-2/maxwin/BulkDock/OUTPUTS/RdRp_knitwork_green_site_rna_tunnel_impure_split4000_batch018_220469.sdf', '/opt/xchem-fragalysis-2/maxwin/BulkDock/OUTPUTS/RdRp_knitwork_green_site_rna_tunnel_impure_fragalysis.sdf']

>  <SLURM_JOB_ID>  (223) 
220469

>  <distance_score>  (223) 
0.788998

>  <original SMILES>  (223) 
c1c[nH]c(-c2cscn2)c1

>  <alias>  (223) 
None

>  <ref_pdb>  (223) 
z0653a

>  <inchikey>  (223) 
SQVZHSQLAZOSDP-UHFFFAOYSA-N

$$$$
GAEYZDOXZNEUSE-GFCCVEGCSA-N
     RDKit          3D

 19 19  0  0  0  0  0  0  0  0999 V2000
  -22.1814  -33.3010  -16.9917 C   0  0  0  0  0  0  0  0  0  0  0  0
  -22.6878  -32.0403  -17.6808 C   0  0  0  0  0  0  0  0  0  0  0  0
  -24.1874  -31.8675  -17.5031 C   0  0  0  0  0  0  0  0  0  0  0  0
  -22.2951  -32.0182  -19.1677 C   0  0  0  0  0  0  0  0  0  0  0  0
  -22.8566  -33.1017  -19.9094 O   0  0  0  0  0  0  0  0  0  0  0  0
  -22.0309  -33.5192  -21.0211 C   0  0  0  0  0  0  0  0  0  0  0  0
  -21.9853  -32.5633  -22.2470 C   0  0  2  0  0  0  0  0  0  0  0  0
  -21.3407  -31.3353  -21.8852 O   0  0  0  0  0  0  0  0  0  0  0  0
  -23.3660  -32.3037  -22.8653 C   0  0  0  0  0  0  0  0  0  0  0  0
  -24.2483  -31.7113  -21.9008 N   0  0  0  0  0  0  0  0  0  0  0  0
  -25.4390  -30.7408  -22.0936 C   0  0  0  0  0  0  0  0  0  0  0  0
  -25.8270  -30.2262  -23.0365 O   0  0  0  0  0  0  0  0  0  0  0  0
  -26.0106  -30.7508  -20.6443 N   0  0  0  0  0  0  0  0  0  0  0  0
  -27.1860  -30.2156  -20.1389 C   0  0  0  0  0  0  0  0  0  0  0  0
  -28.1899  -29.7361  -20.9615 C   0  0  0  0  0  0  0  0  0  0  0  0
  -29.4373  -29.4641  -20.4122 C   0  0  0  0  0  0  0  0  0  0  0  0
  -29.6069  -29.6155  -19.0450 C   0  0  0  0  0  0  0  0  0  0  0  0
  -28.6248  -29.9813  -18.2010 N   0  0  0  0  0  0  0  0  0  0  0  0
  -27.4403  -30.2843  -18.7734 C   0  0  0  0  0  0  0  0  0  0  0  0
  1  2  1  0
  2  3  1  0
  2  4  1  0
  4  5  1  0
  5  6  1  0
  6  7  1  0
  7  8  1  1
  7  9  1  0
  9 10  1  0
 10 11  1  0
 11 12  2  0
 11 13  1  0
 13 14  1  0
 14 15  2  0
 15 16  1  0
 16 17  2  0
 17 18  1  0
 18 19  2  0
 19 14  1  0
M  END
>  <fragmenstein_mode>  (224) 
expansion

>  <name>  (224) 
GAEYZDOXZNEUSE-GFCCVEGCSA-N

>  <fragmenstein_runtime>  (224) 
11.382561

>  <HIPPO Compound ID>  (224) 
37360

>  <SLURM_JOB_NAME>  (224) 
BulkDock.place:Flavi_NS5_RdRp:RdRp_knitwork_green_site_rna_tunnel_impure_split4000_batch001

>  <ref_mols>  (224) 
z0211a,z0637a

>  <Multi-SuCOS>  (224) 
0.640622

>  <tags>  (224) 
['Fragmenstein placed', 'RdRp_knitwork_green_site_rna_tunnel_impure_fragalysis.sdf Pose OK']

>  <scratch_subdir>  (224) 
/opt/xchem-fragalysis-2/maxwin/BulkDock/SCRATCH/220452/C37360-P151

>  <energy_score>  (224) 
-42.685029

>  <fragmenstein_error>  (224) 
None

>  <csv_name>  (224) 
RdRp_knitwork_green_site_rna_tunnel_impure_split4000_batch001.csv

>  <merge_set>  (224) 
RdRp_knitwork_green_site_rna_tunnel_impure_fragalysis.sdf

>  <original ID>  (224) 
GAEYZDOXZNEUSE-GFCCVEGCSA-N

>  <HIPPO Pose ID>  (224) 
192657

>  <fragmenstein_outcome>  (224) 
acceptable

>  <exports>  (224) 
['/opt/xchem-fragalysis-2/maxwin/BulkDock/OUTPUTS/RdRp_knitwork_green_site_rna_tunnel_impure_split4000_batch001_220452.sdf', '/opt/xchem-fragalysis-2/maxwin/BulkDock/OUTPUTS/RdRp_knitwork_green_site_rna_tunnel_impure_fragalysis.sdf']

>  <SLURM_JOB_ID>  (224) 
220452

>  <distance_score>  (224) 
0.911185

>  <original SMILES>  (224) 
CC(C)COC[C@H](O)CNC(=O)Nc1cccnc1

>  <alias>  (224) 
None

>  <ref_pdb>  (224) 
z0637a

>  <inchikey>  (224) 
GAEYZDOXZNEUSE-GFCCVEGCSA-N

$$$$
KSDRMZJOSQWYOE-GFCCVEGCSA-N
     RDKit          3D

 22 22  0  0  0  0  0  0  0  0999 V2000
  -21.2658  -33.8944  -16.7930 C   0  0  0  0  0  0  0  0  0  0  0  0
  -21.9096  -32.5250  -16.8783 C   0  0  0  0  0  0  0  0  0  0  0  0
  -23.2376  -32.6210  -17.3641 O   0  0  0  0  0  0  0  0  0  0  0  0
  -23.3914  -32.4233  -18.7656 C   0  0  0  0  0  0  0  0  0  0  0  0
  -22.5622  -33.3382  -19.6742 C   0  0  0  0  0  0  0  0  0  0  0  0
  -23.0947  -33.3504  -21.0048 O   0  0  0  0  0  0  0  0  0  0  0  0
  -22.1523  -33.8037  -21.9720 C   0  0  0  0  0  0  0  0  0  0  0  0
  -22.7521  -33.7469  -23.3875 C   0  0  2  0  0  0  0  0  0  0  0  0
  -21.8884  -34.3926  -24.3243 O   0  0  0  0  0  0  0  0  0  0  0  0
  -23.0113  -32.3378  -23.9188 C   0  0  0  0  0  0  0  0  0  0  0  0
  -24.1620  -31.6783  -23.3809 N   0  0  0  0  0  0  0  0  0  0  0  0
  -24.3620  -30.9609  -22.0464 C   0  0  0  0  0  0  0  0  0  0  0  0
  -23.6051  -30.7215  -21.1992 O   0  0  0  0  0  0  0  0  0  0  0  0
  -25.7983  -30.4501  -21.9110 C   0  0  0  0  0  0  0  0  0  0  0  0
  -26.4613  -30.2225  -22.8419 O   0  0  0  0  0  0  0  0  0  0  0  0
  -26.1182  -30.3488  -20.4085 N   0  0  0  0  0  0  0  0  0  0  0  0
  -27.3033  -30.0491  -19.7598 C   0  0  0  0  0  0  0  0  0  0  0  0
  -28.4939  -29.8762  -20.4497 C   0  0  0  0  0  0  0  0  0  0  0  0
  -29.6737  -29.7240  -19.7339 C   0  0  0  0  0  0  0  0  0  0  0  0
  -29.6019  -29.6879  -18.3505 C   0  0  0  0  0  0  0  0  0  0  0  0
  -28.4547  -29.7907  -17.6504 N   0  0  0  0  0  0  0  0  0  0  0  0
  -27.3299  -29.9863  -18.3716 C   0  0  0  0  0  0  0  0  0  0  0  0
  1  2  1  0
  2  3  1  0
  3  4  1  0
  4  5  1  0
  5  6  1  0
  6  7  1  0
  7  8  1  0
  8  9  1  6
  8 10  1  0
 10 11  1  0
 11 12  1  0
 12 13  2  0
 12 14  1  0
 14 15  2  0
 14 16  1  0
 16 17  1  0
 17 18  2  0
 18 19  1  0
 19 20  2  0
 20 21  1  0
 21 22  2  0
 22 17  1  0
M  END
>  <fragmenstein_mode>  (225) 
expansion

>  <name>  (225) 
KSDRMZJOSQWYOE-GFCCVEGCSA-N

>  <fragmenstein_runtime>  (225) 
6.605

>  <HIPPO Compound ID>  (225) 
37458

>  <SLURM_JOB_NAME>  (225) 
BulkDock.place:Flavi_NS5_RdRp:RdRp_knitwork_green_site_rna_tunnel_impure_split4000_batch001

>  <ref_mols>  (225) 
z0211a,z0637a

>  <Multi-SuCOS>  (225) 
0.460136

>  <tags>  (225) 
['Fragmenstein placed', 'RdRp_knitwork_green_site_rna_tunnel_impure_fragalysis.sdf Pose OK']

>  <scratch_subdir>  (225) 
/opt/xchem-fragalysis-2/maxwin/BulkDock/SCRATCH/220452/C37458-P151

>  <energy_score>  (225) 
-45.702305

>  <fragmenstein_error>  (225) 
None

>  <csv_name>  (225) 
RdRp_knitwork_green_site_rna_tunnel_impure_split4000_batch001.csv

>  <merge_set>  (225) 
RdRp_knitwork_green_site_rna_tunnel_impure_fragalysis.sdf

>  <original ID>  (225) 
KSDRMZJOSQWYOE-GFCCVEGCSA-N

>  <HIPPO Pose ID>  (225) 
192684

>  <fragmenstein_outcome>  (225) 
acceptable

>  <exports>  (225) 
['/opt/xchem-fragalysis-2/maxwin/BulkDock/OUTPUTS/RdRp_knitwork_green_site_rna_tunnel_impure_split4000_batch001_220452.sdf', '/opt/xchem-fragalysis-2/maxwin/BulkDock/OUTPUTS/RdRp_knitwork_green_site_rna_tunnel_impure_fragalysis.sdf']

>  <SLURM_JOB_ID>  (225) 
220452

>  <distance_score>  (225) 
0.986722

>  <original SMILES>  (225) 
CCOCCOC[C@H](O)CNC(=O)C(=O)Nc1cccnc1

>  <alias>  (225) 
None

>  <ref_pdb>  (225) 
z0637a

>  <inchikey>  (225) 
KSDRMZJOSQWYOE-GFCCVEGCSA-N

$$$$
LTWQQOIPNFENKP-GMSGAONNSA-N
     RDKit          3D

 16 17  0  0  0  0  0  0  0  0999 V2000
  -24.2225  -32.0389  -20.2950 C   0  0  0  0  0  0  0  0  0  0  0  0
  -25.5953  -31.6676  -20.1401 O   0  0  0  0  0  0  0  0  0  0  0  0
  -26.0757  -30.7442  -21.0065 C   0  0  0  0  0  0  0  0  0  0  0  0
  -25.4054  -30.1389  -21.8277 O   0  0  0  0  0  0  0  0  0  0  0  0
  -27.5620  -30.6224  -20.8688 C   0  0  2  0  0  0  0  0  0  0  0  0
  -28.1782  -29.9618  -22.1056 C   0  0  0  0  0  0  0  0  0  0  0  0
  -29.5450  -29.6121  -21.5804 C   0  0  0  0  0  0  0  0  0  0  0  0
  -30.5743  -29.4692  -22.2092 O   0  0  0  0  0  0  0  0  0  0  0  0
  -29.4224  -29.4727  -20.2221 N   0  0  0  0  0  0  0  0  0  0  0  0
  -28.0717  -29.6945  -19.7745 C   0  0  1  0  0  0  0  0  0  0  0  0
  -28.0192  -30.0590  -18.3102 C   0  0  0  0  0  0  0  0  0  0  0  0
  -26.8143  -30.0453  -17.6102 C   0  0  0  0  0  0  0  0  0  0  0  0
  -26.8247  -30.2975  -16.2410 C   0  0  0  0  0  0  0  0  0  0  0  0
  -28.0307  -30.5513  -15.6036 C   0  0  0  0  0  0  0  0  0  0  0  0
  -29.1856  -30.5445  -16.3618 C   0  0  0  0  0  0  0  0  0  0  0  0
  -29.2071  -30.2955  -17.6878 N   0  0  0  0  0  0  0  0  0  0  0  0
  1  2  1  0
  2  3  1  0
  3  4  2  0
  5  3  1  6
  5  6  1  0
  6  7  1  0
  7  8  2  0
  7  9  1  0
  9 10  1  0
 10 11  1  1
 11 12  2  0
 12 13  1  0
 13 14  2  0
 14 15  1  0
 15 16  2  0
 10  5  1  0
 16 11  1  0
M  END
>  <fragmenstein_mode>  (226) 
expansion

>  <name>  (226) 
LTWQQOIPNFENKP-GMSGAONNSA-N

>  <fragmenstein_runtime>  (226) 
1.246208

>  <HIPPO Compound ID>  (226) 
1614

>  <SLURM_JOB_NAME>  (226) 
BulkDock.place:Flavi_NS5_RdRp:RdRp_knitwork_green_site_rna_tunnel_impure_split4000_batch013

>  <ref_mols>  (226) 
z0215a,z1018a

>  <Multi-SuCOS>  (226) 
0.61727

>  <tags>  (226) 
['Fragmenstein placed', 'RdRp_knitwork_green_site_rna_tunnel_impure_fragalysis.sdf Pose OK']

>  <scratch_subdir>  (226) 
/opt/xchem-fragalysis-2/maxwin/BulkDock/SCRATCH/220464/C1614-P104

>  <energy_score>  (226) 
-17.834505

>  <fragmenstein_error>  (226) 
None

>  <csv_name>  (226) 
RdRp_knitwork_green_site_rna_tunnel_impure_split4000_batch013.csv

>  <merge_set>  (226) 
RdRp_knitwork_green_site_rna_tunnel_impure_fragalysis.sdf

>  <original ID>  (226) 
LTWQQOIPNFENKP-GMSGAONNSA-N

>  <HIPPO Pose ID>  (226) 
193079

>  <fragmenstein_outcome>  (226) 
acceptable

>  <exports>  (226) 
['/opt/xchem-fragalysis-2/maxwin/BulkDock/OUTPUTS/RdRp_knitwork_green_site_rna_tunnel_impure_split4000_batch013_220464.sdf', '/opt/xchem-fragalysis-2/maxwin/BulkDock/OUTPUTS/RdRp_knitwork_green_site_rna_tunnel_impure_fragalysis.sdf']

>  <SLURM_JOB_ID>  (226) 
220464

>  <distance_score>  (226) 
0.839238

>  <original SMILES>  (226) 
COC(=O)[C@@H]1CC(=O)N[C@H]1c1ccccn1

>  <alias>  (226) 
None

>  <ref_pdb>  (226) 
z0215a

>  <inchikey>  (226) 
LTWQQOIPNFENKP-GMSGAONNSA-N

$$$$
LTWQQOIPNFENKP-GMSGAONNSA-N
     RDKit          3D

 16 17  0  0  0  0  0  0  0  0999 V2000
  -24.8437  -31.8858  -19.8592 C   0  0  0  0  0  0  0  0  0  0  0  0
  -26.0990  -31.2016  -19.7725 O   0  0  0  0  0  0  0  0  0  0  0  0
  -26.6600  -30.8769  -20.9573 C   0  0  0  0  0  0  0  0  0  0  0  0
  -26.1415  -31.0876  -22.0481 O   0  0  0  0  0  0  0  0  0  0  0  0
  -28.0453  -30.3235  -20.8087 C   0  0  2  0  0  0  0  0  0  0  0  0
  -28.4469  -29.3949  -21.9665 C   0  0  0  0  0  0  0  0  0  0  0  0
  -29.8277  -29.0158  -21.4956 C   0  0  0  0  0  0  0  0  0  0  0  0
  -30.7837  -28.7134  -22.1801 O   0  0  0  0  0  0  0  0  0  0  0  0
  -29.7908  -29.0820  -20.1186 N   0  0  0  0  0  0  0  0  0  0  0  0
  -28.4669  -29.4257  -19.6564 C   0  0  1  0  0  0  0  0  0  0  0  0
  -28.4078  -29.8133  -18.2075 C   0  0  0  0  0  0  0  0  0  0  0  0
  -27.1982  -29.7301  -17.5088 C   0  0  0  0  0  0  0  0  0  0  0  0
  -27.1950  -29.8381  -16.1251 C   0  0  0  0  0  0  0  0  0  0  0  0
  -28.4034  -29.9983  -15.4720 C   0  0  0  0  0  0  0  0  0  0  0  0
  -29.5558  -30.0804  -16.2333 C   0  0  0  0  0  0  0  0  0  0  0  0
  -29.5885  -30.0032  -17.5754 N   0  0  0  0  0  0  0  0  0  0  0  0
  1  2  1  0
  2  3  1  0
  3  4  2  0
  5  3  1  1
  5  6  1  0
  6  7  1  0
  7  8  2  0
  7  9  1  0
  9 10  1  0
 10 11  1  1
 11 12  2  0
 12 13  1  0
 13 14  2  0
 14 15  1  0
 15 16  2  0
 10  5  1  0
 16 11  1  0
M  END
>  <fragmenstein_mode>  (227) 
expansion

>  <name>  (227) 
LTWQQOIPNFENKP-GMSGAONNSA-N

>  <fragmenstein_runtime>  (227) 
1.6752

>  <HIPPO Compound ID>  (227) 
1614

>  <SLURM_JOB_NAME>  (227) 
BulkDock.place:Flavi_NS5_RdRp:RdRp_knitwork_green_site_rna_tunnel_impure_split4000_batch013

>  <ref_mols>  (227) 
z0215a,z1018a

>  <Multi-SuCOS>  (227) 
0.60867

>  <tags>  (227) 
['Fragmenstein placed', 'RdRp_knitwork_green_site_rna_tunnel_impure_fragalysis.sdf Pose OK']

>  <scratch_subdir>  (227) 
/opt/xchem-fragalysis-2/maxwin/BulkDock/SCRATCH/220464/C1614-P206

>  <energy_score>  (227) 
-7.948123

>  <fragmenstein_error>  (227) 
None

>  <csv_name>  (227) 
RdRp_knitwork_green_site_rna_tunnel_impure_split4000_batch013.csv

>  <merge_set>  (227) 
RdRp_knitwork_green_site_rna_tunnel_impure_fragalysis.sdf

>  <original ID>  (227) 
LTWQQOIPNFENKP-GMSGAONNSA-N

>  <HIPPO Pose ID>  (227) 
193094

>  <fragmenstein_outcome>  (227) 
acceptable

>  <exports>  (227) 
['/opt/xchem-fragalysis-2/maxwin/BulkDock/OUTPUTS/RdRp_knitwork_green_site_rna_tunnel_impure_split4000_batch013_220464.sdf', '/opt/xchem-fragalysis-2/maxwin/BulkDock/OUTPUTS/RdRp_knitwork_green_site_rna_tunnel_impure_fragalysis.sdf']

>  <SLURM_JOB_ID>  (227) 
220464

>  <distance_score>  (227) 
0.858372

>  <original SMILES>  (227) 
COC(=O)[C@@H]1CC(=O)N[C@H]1c1ccccn1

>  <alias>  (227) 
None

>  <ref_pdb>  (227) 
z1018a

>  <inchikey>  (227) 
LTWQQOIPNFENKP-GMSGAONNSA-N

$$$$
FVYFKEMCFKEECH-ZCFIWIBFSA-N
     RDKit          3D

 11 12  0  0  0  0  0  0  0  0999 V2000
  -30.4262  -30.1455  -19.1376 O   0  0  0  0  0  0  0  0  0  0  0  0
  -29.4054  -29.9818  -19.7803 C   0  0  0  0  0  0  0  0  0  0  0  0
  -29.3115  -30.1215  -21.1523 N   0  0  0  0  0  0  0  0  0  0  0  0
  -27.9655  -30.0109  -21.6168 C   0  0  0  0  0  0  0  0  0  0  0  0
  -27.1420  -30.1760  -20.3547 C   0  0  0  0  0  0  0  0  0  0  0  0
  -28.0402  -29.5613  -19.2699 C   0  0  2  0  0  0  0  0  0  0  0  0
  -27.7422  -29.9310  -17.8533 C   0  0  0  0  0  0  0  0  0  0  0  0
  -26.4746  -29.9849  -17.2210 C   0  0  0  0  0  0  0  0  0  0  0  0
  -26.5532  -30.2772  -15.9203 N   0  0  0  0  0  0  0  0  0  0  0  0
  -27.8619  -30.4712  -15.7175 N   0  0  0  0  0  0  0  0  0  0  0  0
  -28.6173  -30.2277  -16.8225 C   0  0  0  0  0  0  0  0  0  0  0  0
  1  2  2  0
  2  3  1  0
  3  4  1  0
  4  5  1  0
  5  6  1  0
  6  7  1  1
  7  8  1  0
  8  9  2  0
  9 10  1  0
 10 11  1  0
  6  2  1  0
 11  7  2  0
M  END
>  <fragmenstein_mode>  (228) 
expansion

>  <name>  (228) 
FVYFKEMCFKEECH-ZCFIWIBFSA-N

>  <fragmenstein_runtime>  (228) 
1.796462

>  <HIPPO Compound ID>  (228) 
50273

>  <SLURM_JOB_NAME>  (228) 
BulkDock.place:Flavi_NS5_RdRp:RdRp_knitwork_green_site_rna_tunnel_impure_split4000_batch013

>  <ref_mols>  (228) 
z0215a,z1018a

>  <Multi-SuCOS>  (228) 
0.555268

>  <tags>  (228) 
['Fragmenstein placed', 'RdRp_knitwork_green_site_rna_tunnel_impure_fragalysis.sdf Pose OK']

>  <scratch_subdir>  (228) 
/opt/xchem-fragalysis-2/maxwin/BulkDock/SCRATCH/220464/C50273-P104

>  <energy_score>  (228) 
-22.178906

>  <fragmenstein_error>  (228) 
None

>  <csv_name>  (228) 
RdRp_knitwork_green_site_rna_tunnel_impure_split4000_batch013.csv

>  <merge_set>  (228) 
RdRp_knitwork_green_site_rna_tunnel_impure_fragalysis.sdf

>  <original ID>  (228) 
FVYFKEMCFKEECH-ZCFIWIBFSA-N

>  <HIPPO Pose ID>  (228) 
193112

>  <fragmenstein_outcome>  (228) 
acceptable

>  <exports>  (228) 
['/opt/xchem-fragalysis-2/maxwin/BulkDock/OUTPUTS/RdRp_knitwork_green_site_rna_tunnel_impure_split4000_batch013_220464.sdf', '/opt/xchem-fragalysis-2/maxwin/BulkDock/OUTPUTS/RdRp_knitwork_green_site_rna_tunnel_impure_fragalysis.sdf']

>  <SLURM_JOB_ID>  (228) 
220464

>  <distance_score>  (228) 
0.930301

>  <original SMILES>  (228) 
O=C1NCC[C@@H]1c1cn[nH]c1

>  <alias>  (228) 
None

>  <ref_pdb>  (228) 
z0215a

>  <inchikey>  (228) 
FVYFKEMCFKEECH-ZCFIWIBFSA-N

$$$$
FXEOQDXFTJQLII-QMMMGPOBSA-N
     RDKit          3D

 18 19  0  0  0  0  0  0  0  0999 V2000
  -26.9935  -29.7432  -17.2414 O   0  0  0  0  0  0  0  0  0  0  0  0
  -28.1116  -29.9821  -17.6558 C   0  0  0  0  0  0  0  0  0  0  0  0
  -28.6800  -29.6491  -19.0283 C   0  0  1  0  0  0  0  0  0  0  0  0
  -27.9040  -30.0487  -20.2147 N   0  0  0  0  0  0  0  0  0  0  0  0
  -26.3416  -29.4159  -20.2711 S   0  0  0  0  0  0  0  0  0  0  0  0
  -26.2715  -28.1844  -19.5243 O   0  0  0  0  0  0  0  0  0  0  0  0
  -25.4995  -30.5771  -20.1364 O   0  0  0  0  0  0  0  0  0  0  0  0
  -25.9890  -28.9339  -21.8646 C   0  0  0  0  0  0  0  0  0  0  0  0
  -26.6587  -29.4222  -23.0054 C   0  0  0  0  0  0  0  0  0  0  0  0
  -26.1758  -29.0357  -24.1830 N   0  0  0  0  0  0  0  0  0  0  0  0
  -24.8526  -28.0712  -23.9038 S   0  0  0  0  0  0  0  0  0  0  0  0
  -24.9387  -28.1119  -22.2055 C   0  0  0  0  0  0  0  0  0  0  0  0
  -30.0046  -30.4149  -19.0326 C   0  0  0  0  0  0  0  0  0  0  0  0
  -30.3792  -30.4911  -17.5711 C   0  0  0  0  0  0  0  0  0  0  0  0
  -29.1185  -30.5650  -16.8970 N   0  0  0  0  0  0  0  0  0  0  0  0
  -29.0430  -30.6459  -15.4517 C   0  0  0  0  0  0  0  0  0  0  0  0
  -27.8824  -31.4842  -14.9390 C   0  0  0  0  0  0  0  0  0  0  0  0
  -26.9228  -30.6800  -14.4120 F   0  0  0  0  0  0  0  0  0  0  0  0
  1  2  2  0
  2  3  1  0
  3  4  1  6
  4  5  1  0
  5  6  2  0
  5  7  2  0
  5  8  1  0
  8  9  1  0
  9 10  2  0
 10 11  1  0
 11 12  1  0
  3 13  1  0
 13 14  1  0
 14 15  1  0
 15 16  1  0
 16 17  1  0
 17 18  1  0
 15  2  1  0
 12  8  2  0
M  END
>  <fragmenstein_mode>  (229) 
expansion

>  <name>  (229) 
FXEOQDXFTJQLII-QMMMGPOBSA-N

>  <fragmenstein_runtime>  (229) 
4.481728

>  <HIPPO Compound ID>  (229) 
1272

>  <SLURM_JOB_NAME>  (229) 
BulkDock.place:Flavi_NS5_RdRp:RdRp_knitwork_green_site_rna_tunnel_impure_split4000_batch003

>  <ref_mols>  (229) 
z0386a,z1018a

>  <Multi-SuCOS>  (229) 
0.643909

>  <tags>  (229) 
['Fragmenstein placed', 'RdRp_knitwork_green_site_rna_tunnel_impure_fragalysis.sdf Pose OK']

>  <scratch_subdir>  (229) 
/opt/xchem-fragalysis-2/maxwin/BulkDock/SCRATCH/220454/C1272-P121

>  <energy_score>  (229) 
-52.063775

>  <fragmenstein_error>  (229) 
None

>  <csv_name>  (229) 
RdRp_knitwork_green_site_rna_tunnel_impure_split4000_batch003.csv

>  <merge_set>  (229) 
RdRp_knitwork_green_site_rna_tunnel_impure_fragalysis.sdf

>  <original ID>  (229) 
FXEOQDXFTJQLII-QMMMGPOBSA-N

>  <HIPPO Pose ID>  (229) 
193418

>  <fragmenstein_outcome>  (229) 
acceptable

>  <exports>  (229) 
['/opt/xchem-fragalysis-2/maxwin/BulkDock/OUTPUTS/RdRp_knitwork_green_site_rna_tunnel_impure_split4000_batch003_220454.sdf', '/opt/xchem-fragalysis-2/maxwin/BulkDock/OUTPUTS/RdRp_knitwork_green_site_rna_tunnel_impure_fragalysis.sdf']

>  <SLURM_JOB_ID>  (229) 
220454

>  <distance_score>  (229) 
0.895452

>  <original SMILES>  (229) 
O=C1[C@@H](NS(=O)(=O)c2cnsc2)CCN1CCF

>  <alias>  (229) 
None

>  <ref_pdb>  (229) 
z0386a

>  <inchikey>  (229) 
FXEOQDXFTJQLII-QMMMGPOBSA-N

$$$$
UZVRCDMSZJHAFD-ZETCQYMHSA-N
     RDKit          3D

 18 19  0  0  0  0  0  0  0  0999 V2000
  -26.9068  -29.7218  -17.3810 O   0  0  0  0  0  0  0  0  0  0  0  0
  -27.9943  -30.0563  -17.8142 C   0  0  0  0  0  0  0  0  0  0  0  0
  -28.6987  -29.5276  -19.0495 C   0  0  1  0  0  0  0  0  0  0  0  0
  -28.0191  -29.8078  -20.3314 N   0  0  0  0  0  0  0  0  0  0  0  0
  -26.4131  -29.2589  -20.4126 S   0  0  0  0  0  0  0  0  0  0  0  0
  -26.3001  -28.0053  -19.7072 O   0  0  0  0  0  0  0  0  0  0  0  0
  -25.6401  -30.4596  -20.1995 O   0  0  0  0  0  0  0  0  0  0  0  0
  -26.0660  -28.8985  -22.0782 C   0  0  0  0  0  0  0  0  0  0  0  0
  -26.7669  -29.4982  -23.1023 C   0  0  0  0  0  0  0  0  0  0  0  0
  -26.0189  -29.1563  -24.5942 S   0  0  0  0  0  0  0  0  0  0  0  0
  -24.8638  -28.1858  -23.7772 C   0  0  0  0  0  0  0  0  0  0  0  0
  -25.0022  -28.0944  -22.4738 N   0  0  0  0  0  0  0  0  0  0  0  0
  -30.0361  -30.2885  -19.0423 C   0  0  0  0  0  0  0  0  0  0  0  0
  -30.1892  -30.7767  -17.6181 C   0  0  0  0  0  0  0  0  0  0  0  0
  -28.8296  -30.9779  -17.2128 N   0  0  0  0  0  0  0  0  0  0  0  0
  -28.4567  -31.6572  -15.9993 C   0  0  0  0  0  0  0  0  0  0  0  0
  -28.3657  -30.7667  -14.7820 C   0  0  0  0  0  0  0  0  0  0  0  0
  -29.6077  -30.3170  -14.4554 F   0  0  0  0  0  0  0  0  0  0  0  0
  1  2  2  0
  2  3  1  0
  3  4  1  6
  4  5  1  0
  5  6  2  0
  5  7  2  0
  5  8  1  0
  8  9  2  0
  9 10  1  0
 10 11  1  0
 11 12  2  0
  3 13  1  0
 13 14  1  0
 14 15  1  0
 15 16  1  0
 16 17  1  0
 17 18  1  0
 15  2  1  0
 12  8  1  0
M  END
>  <fragmenstein_mode>  (230) 
expansion

>  <name>  (230) 
UZVRCDMSZJHAFD-ZETCQYMHSA-N

>  <fragmenstein_runtime>  (230) 
4.914594

>  <HIPPO Compound ID>  (230) 
1275

>  <SLURM_JOB_NAME>  (230) 
BulkDock.place:Flavi_NS5_RdRp:RdRp_knitwork_green_site_rna_tunnel_impure_split4000_batch003

>  <ref_mols>  (230) 
z0386a,z1018a

>  <Multi-SuCOS>  (230) 
0.55358

>  <tags>  (230) 
['Fragmenstein placed', 'RdRp_knitwork_green_site_rna_tunnel_impure_fragalysis.sdf Pose OK']

>  <scratch_subdir>  (230) 
/opt/xchem-fragalysis-2/maxwin/BulkDock/SCRATCH/220454/C1275-P121

>  <energy_score>  (230) 
-103.205421

>  <fragmenstein_error>  (230) 
None

>  <csv_name>  (230) 
RdRp_knitwork_green_site_rna_tunnel_impure_split4000_batch003.csv

>  <merge_set>  (230) 
RdRp_knitwork_green_site_rna_tunnel_impure_fragalysis.sdf

>  <original ID>  (230) 
UZVRCDMSZJHAFD-ZETCQYMHSA-N

>  <HIPPO Pose ID>  (230) 
193447

>  <fragmenstein_outcome>  (230) 
acceptable

>  <exports>  (230) 
['/opt/xchem-fragalysis-2/maxwin/BulkDock/OUTPUTS/RdRp_knitwork_green_site_rna_tunnel_impure_split4000_batch003_220454.sdf', '/opt/xchem-fragalysis-2/maxwin/BulkDock/OUTPUTS/RdRp_knitwork_green_site_rna_tunnel_impure_fragalysis.sdf']

>  <SLURM_JOB_ID>  (230) 
220454

>  <distance_score>  (230) 
0.961889

>  <original SMILES>  (230) 
O=C1[C@@H](NS(=O)(=O)c2cscn2)CCN1CCF

>  <alias>  (230) 
None

>  <ref_pdb>  (230) 
z0386a

>  <inchikey>  (230) 
UZVRCDMSZJHAFD-ZETCQYMHSA-N

$$$$
RLFOBNOSFXKDCQ-GFCCVEGCSA-N
     RDKit          3D

 20 22  0  0  0  0  0  0  0  0999 V2000
  -24.7663  -33.8646  -23.6700 C   0  0  0  0  0  0  0  0  0  0  0  0
  -23.4092  -33.3190  -23.2079 C   0  0  1  0  0  0  0  0  0  0  0  0
  -23.5876  -31.9289  -22.7908 N   0  0  0  0  0  0  0  0  0  0  0  0
  -23.7147  -31.6129  -21.3637 C   0  0  0  0  0  0  0  0  0  0  0  0
  -24.7816  -32.2933  -20.5099 C   0  0  0  0  0  0  0  0  0  0  0  0
  -26.0027  -31.4628  -20.4152 C   0  0  0  0  0  0  0  0  0  0  0  0
  -26.5481  -30.8406  -19.3126 C   0  0  0  0  0  0  0  0  0  0  0  0
  -27.6780  -30.2416  -19.7841 N   0  0  0  0  0  0  0  0  0  0  0  0
  -28.6680  -29.5731  -18.9911 C   0  0  0  0  0  0  0  0  0  0  0  0
  -27.7493  -30.4550  -21.1260 C   0  0  0  0  0  0  0  0  0  0  0  0
  -26.7593  -31.2100  -21.5361 N   0  0  0  0  0  0  0  0  0  0  0  0
  -22.6433  -34.1996  -22.2352 C   0  0  0  0  0  0  0  0  0  0  0  0
  -23.0600  -35.4599  -21.8418 C   0  0  0  0  0  0  0  0  0  0  0  0
  -22.0170  -36.2160  -20.7372 S   0  0  0  0  0  0  0  0  0  0  0  0
  -20.9588  -34.8720  -20.7110 C   0  0  0  0  0  0  0  0  0  0  0  0
  -19.8005  -34.7442  -19.9180 C   0  0  0  0  0  0  0  0  0  0  0  0
  -19.0331  -33.5884  -20.0221 C   0  0  0  0  0  0  0  0  0  0  0  0
  -19.3981  -32.5948  -20.9118 C   0  0  0  0  0  0  0  0  0  0  0  0
  -20.5282  -32.7373  -21.7203 C   0  0  0  0  0  0  0  0  0  0  0  0
  -21.3642  -33.8786  -21.6085 C   0  0  0  0  0  0  0  0  0  0  0  0
  2  1  1  1
  2  3  1  0
  3  4  1  0
  4  5  1  0
  5  6  1  0
  6  7  2  0
  7  8  1  0
  8  9  1  0
  8 10  1  0
 10 11  2  0
  2 12  1  0
 12 13  2  0
 13 14  1  0
 14 15  1  0
 15 16  2  0
 16 17  1  0
 17 18  2  0
 18 19  1  0
 19 20  2  0
 11  6  1  0
 20 12  1  0
 20 15  1  0
M  END
>  <fragmenstein_mode>  (231) 
expansion

>  <name>  (231) 
RLFOBNOSFXKDCQ-GFCCVEGCSA-N

>  <fragmenstein_runtime>  (231) 
3.309293

>  <HIPPO Compound ID>  (231) 
45043

>  <SLURM_JOB_NAME>  (231) 
BulkDock.place:Flavi_NS5_RdRp:RdRp_knitwork_green_site_rna_tunnel_impure_split4000_batch002

>  <ref_mols>  (231) 
z0521a,3vws-b

>  <Multi-SuCOS>  (231) 
0.675759

>  <tags>  (231) 
['Fragmenstein placed', 'RdRp_knitwork_green_site_rna_tunnel_impure_fragalysis.sdf Pose OK']

>  <scratch_subdir>  (231) 
/opt/xchem-fragalysis-2/maxwin/BulkDock/SCRATCH/220453/C45043-P141

>  <energy_score>  (231) 
-67.530085

>  <fragmenstein_error>  (231) 
None

>  <csv_name>  (231) 
RdRp_knitwork_green_site_rna_tunnel_impure_split4000_batch002.csv

>  <merge_set>  (231) 
RdRp_knitwork_green_site_rna_tunnel_impure_fragalysis.sdf

>  <original ID>  (231) 
RLFOBNOSFXKDCQ-GFCCVEGCSA-N

>  <HIPPO Pose ID>  (231) 
194793

>  <fragmenstein_outcome>  (231) 
acceptable

>  <exports>  (231) 
['/opt/xchem-fragalysis-2/maxwin/BulkDock/OUTPUTS/RdRp_knitwork_green_site_rna_tunnel_impure_split4000_batch002_220453.sdf', '/opt/xchem-fragalysis-2/maxwin/BulkDock/OUTPUTS/RdRp_knitwork_green_site_rna_tunnel_impure_fragalysis.sdf']

>  <SLURM_JOB_ID>  (231) 
220453

>  <distance_score>  (231) 
0.786942

>  <original SMILES>  (231) 
C[C@@H](NCCc1cn(C)cn1)c1csc2ccccc12

>  <alias>  (231) 
None

>  <ref_pdb>  (231) 
z0521a

>  <inchikey>  (231) 
RLFOBNOSFXKDCQ-GFCCVEGCSA-N

$$$$
KVRGIBNRDLUZFZ-QMMMGPOBSA-N
     RDKit          3D

 15 15  0  0  0  0  0  0  0  0999 V2000
  -25.9882  -31.8610  -21.9987 C   0  0  0  0  0  0  0  0  0  0  0  0
  -26.7703  -31.3326  -20.7876 C   0  0  1  0  0  0  0  0  0  0  0  0
  -26.3856  -32.1420  -19.5987 C   0  0  0  0  0  0  0  0  0  0  0  0
  -26.0441  -32.7659  -18.6802 N   0  0  0  0  0  0  0  0  0  0  0  0
  -26.6007  -29.8375  -20.5700 N   0  0  0  0  0  0  0  0  0  0  0  0
  -26.1097  -29.0722  -21.7431 C   0  0  0  0  0  0  0  0  0  0  0  0
  -27.9956  -29.0774  -19.9054 S   0  0  0  0  0  0  0  0  0  0  0  0
  -29.1255  -29.5476  -20.6746 O   0  0  0  0  0  0  0  0  0  0  0  0
  -27.7069  -27.6657  -19.7851 O   0  0  0  0  0  0  0  0  0  0  0  0
  -28.1013  -29.6786  -18.2702 C   0  0  0  0  0  0  0  0  0  0  0  0
  -27.0322  -29.5042  -17.3931 C   0  0  0  0  0  0  0  0  0  0  0  0
  -27.1762  -29.9232  -16.0765 C   0  0  0  0  0  0  0  0  0  0  0  0
  -28.3851  -30.4829  -15.6939 C   0  0  0  0  0  0  0  0  0  0  0  0
  -29.4373  -30.6391  -16.5276 N   0  0  0  0  0  0  0  0  0  0  0  0
  -29.2778  -30.2346  -17.8086 C   0  0  0  0  0  0  0  0  0  0  0  0
  2  1  1  6
  2  3  1  0
  3  4  3  0
  2  5  1  0
  5  6  1  0
  5  7  1  0
  7  8  2  0
  7  9  2  0
  7 10  1  0
 10 11  2  0
 11 12  1  0
 12 13  2  0
 13 14  1  0
 14 15  2  0
 15 10  1  0
M  END
>  <fragmenstein_mode>  (232) 
expansion

>  <name>  (232) 
KVRGIBNRDLUZFZ-QMMMGPOBSA-N

>  <fragmenstein_runtime>  (232) 
7.199638

>  <HIPPO Compound ID>  (232) 
51399

>  <SLURM_JOB_NAME>  (232) 
BulkDock.place:Flavi_NS5_RdRp:RdRp_knitwork_green_site_rna_tunnel_impure_split4000_batch011

>  <ref_mols>  (232) 
d0472b,z0628a

>  <Multi-SuCOS>  (232) 
0.653054

>  <tags>  (232) 
['Fragmenstein placed', 'RdRp_knitwork_green_site_rna_tunnel_impure_fragalysis.sdf Pose OK']

>  <scratch_subdir>  (232) 
/opt/xchem-fragalysis-2/maxwin/BulkDock/SCRATCH/220462/C51399-P150

>  <energy_score>  (232) 
-31.788661

>  <fragmenstein_error>  (232) 
None

>  <csv_name>  (232) 
RdRp_knitwork_green_site_rna_tunnel_impure_split4000_batch011.csv

>  <merge_set>  (232) 
RdRp_knitwork_green_site_rna_tunnel_impure_fragalysis.sdf

>  <original ID>  (232) 
KVRGIBNRDLUZFZ-QMMMGPOBSA-N

>  <HIPPO Pose ID>  (232) 
194849

>  <fragmenstein_outcome>  (232) 
acceptable

>  <exports>  (232) 
['/opt/xchem-fragalysis-2/maxwin/BulkDock/OUTPUTS/RdRp_knitwork_green_site_rna_tunnel_impure_split4000_batch011_220462.sdf', '/opt/xchem-fragalysis-2/maxwin/BulkDock/OUTPUTS/RdRp_knitwork_green_site_rna_tunnel_impure_fragalysis.sdf']

>  <SLURM_JOB_ID>  (232) 
220462

>  <distance_score>  (232) 
0.942332

>  <original SMILES>  (232) 
C[C@@H](C#N)N(C)S(=O)(=O)c1cccnc1

>  <alias>  (232) 
None

>  <ref_pdb>  (232) 
z0628a

>  <inchikey>  (232) 
KVRGIBNRDLUZFZ-QMMMGPOBSA-N

$$$$
LDLKHHIATCLSAA-UHFFFAOYSA-N
     RDKit          3D

 14 14  0  0  0  0  0  0  0  0999 V2000
  -25.5548  -35.4745  -20.0460 C   0  0  0  0  0  0  0  0  0  0  0  0
  -25.8878  -34.1482  -19.6315 O   0  0  0  0  0  0  0  0  0  0  0  0
  -24.8185  -33.3530  -19.3691 C   0  0  0  0  0  0  0  0  0  0  0  0
  -23.6596  -33.7482  -19.3867 O   0  0  0  0  0  0  0  0  0  0  0  0
  -25.2465  -31.9548  -18.9767 C   0  0  0  0  0  0  0  0  0  0  0  0
  -26.1014  -31.1199  -19.9769 C   0  0  0  0  0  0  0  0  0  0  0  0
  -27.4876  -30.9505  -19.3309 C   0  0  0  0  0  0  0  0  0  0  0  0
  -26.3374  -31.7936  -21.3475 C   0  0  0  0  0  0  0  0  0  0  0  0
  -25.5470  -29.6875  -20.1243 C   0  0  0  0  0  0  0  0  0  0  0  0
  -25.2728  -29.1068  -21.3648 C   0  0  0  0  0  0  0  0  0  0  0  0
  -24.8224  -27.7892  -21.4336 C   0  0  0  0  0  0  0  0  0  0  0  0
  -24.6858  -27.0586  -20.2690 C   0  0  0  0  0  0  0  0  0  0  0  0
  -24.9863  -27.6871  -19.0763 C   0  0  0  0  0  0  0  0  0  0  0  0
  -25.4064  -28.9693  -18.9813 N   0  0  0  0  0  0  0  0  0  0  0  0
  1  2  1  0
  2  3  1  0
  3  4  2  0
  3  5  1  0
  5  6  1  0
  6  7  1  0
  6  8  1  0
  6  9  1  0
  9 10  2  0
 10 11  1  0
 11 12  2  0
 12 13  1  0
 13 14  2  0
 14  9  1  0
M  END
>  <fragmenstein_mode>  (233) 
expansion

>  <name>  (233) 
LDLKHHIATCLSAA-UHFFFAOYSA-N

>  <fragmenstein_runtime>  (233) 
13.412701

>  <HIPPO Compound ID>  (233) 
51624

>  <SLURM_JOB_NAME>  (233) 
BulkDock.place:Flavi_NS5_RdRp:RdRp_knitwork_green_site_rna_tunnel_impure_split4000_batch011

>  <ref_mols>  (233) 
d0472b,z0628a

>  <Multi-SuCOS>  (233) 
0.511018

>  <tags>  (233) 
['Fragmenstein placed', 'RdRp_knitwork_green_site_rna_tunnel_impure_fragalysis.sdf Pose OK']

>  <scratch_subdir>  (233) 
/opt/xchem-fragalysis-2/maxwin/BulkDock/SCRATCH/220462/C51624-P41

>  <energy_score>  (233) 
-92.642236

>  <fragmenstein_error>  (233) 
None

>  <csv_name>  (233) 
RdRp_knitwork_green_site_rna_tunnel_impure_split4000_batch011.csv

>  <merge_set>  (233) 
RdRp_knitwork_green_site_rna_tunnel_impure_fragalysis.sdf

>  <original ID>  (233) 
LDLKHHIATCLSAA-UHFFFAOYSA-N

>  <HIPPO Pose ID>  (233) 
195119

>  <fragmenstein_outcome>  (233) 
acceptable

>  <exports>  (233) 
['/opt/xchem-fragalysis-2/maxwin/BulkDock/OUTPUTS/RdRp_knitwork_green_site_rna_tunnel_impure_split4000_batch011_220462.sdf', '/opt/xchem-fragalysis-2/maxwin/BulkDock/OUTPUTS/RdRp_knitwork_green_site_rna_tunnel_impure_fragalysis.sdf']

>  <SLURM_JOB_ID>  (233) 
220462

>  <distance_score>  (233) 
0.822262

>  <original SMILES>  (233) 
COC(=O)CC(C)(C)c1ccccn1

>  <alias>  (233) 
None

>  <ref_pdb>  (233) 
d0472b

>  <inchikey>  (233) 
LDLKHHIATCLSAA-UHFFFAOYSA-N

$$$$
XTPHMNAAWQKLEC-UHFFFAOYSA-N
     RDKit          3D

 14 15  0  0  0  0  0  0  0  0999 V2000
  -25.5809  -28.9071  -24.1072 C   0  0  0  0  0  0  0  0  0  0  0  0
  -26.2700  -28.9842  -22.7533 C   0  0  0  0  0  0  0  0  0  0  0  0
  -26.2308  -27.6725  -22.1500 O   0  0  0  0  0  0  0  0  0  0  0  0
  -26.0367  -27.4874  -20.8046 C   0  0  0  0  0  0  0  0  0  0  0  0
  -25.3068  -26.5763  -20.4189 O   0  0  0  0  0  0  0  0  0  0  0  0
  -26.7723  -28.3758  -19.9033 C   0  0  0  0  0  0  0  0  0  0  0  0
  -26.3336  -28.6512  -18.6823 N   0  0  0  0  0  0  0  0  0  0  0  0
  -27.2647  -29.4107  -18.0102 C   0  0  0  0  0  0  0  0  0  0  0  0
  -28.4167  -29.6827  -18.7134 C   0  0  0  0  0  0  0  0  0  0  0  0
  -28.3241  -29.0292  -20.2755 S   0  0  0  0  0  0  0  0  0  0  0  0
  -29.5825  -30.4448  -18.1858 C   0  0  0  0  0  0  0  0  0  0  0  0
  -29.5113  -30.5008  -16.6488 C   0  0  0  0  0  0  0  0  0  0  0  0
  -28.1019  -30.8719  -16.1576 C   0  0  0  0  0  0  0  0  0  0  0  0
  -27.0548  -29.8354  -16.5974 C   0  0  0  0  0  0  0  0  0  0  0  0
  1  2  1  0
  2  3  1  0
  3  4  1  0
  4  5  2  0
  4  6  1  0
  6  7  2  0
  7  8  1  0
  8  9  2  0
  9 10  1  0
  9 11  1  0
 11 12  1  0
 12 13  1  0
 13 14  1  0
 10  6  1  0
 14  8  1  0
M  END
>  <fragmenstein_mode>  (234) 
expansion

>  <name>  (234) 
XTPHMNAAWQKLEC-UHFFFAOYSA-N

>  <fragmenstein_runtime>  (234) 
3.59155

>  <HIPPO Compound ID>  (234) 
50501

>  <SLURM_JOB_NAME>  (234) 
BulkDock.place:Flavi_NS5_RdRp:RdRp_knitwork_green_site_rna_tunnel_impure_split4000_batch016

>  <ref_mols>  (234) 
z0496a,z0628a

>  <Multi-SuCOS>  (234) 
0.48367

>  <tags>  (234) 
['Fragmenstein placed', 'RdRp_knitwork_green_site_rna_tunnel_impure_fragalysis.sdf Pose OK']

>  <scratch_subdir>  (234) 
/opt/xchem-fragalysis-2/maxwin/BulkDock/SCRATCH/220467/C50501-P136

>  <energy_score>  (234) 
-52.884933

>  <fragmenstein_error>  (234) 
None

>  <csv_name>  (234) 
RdRp_knitwork_green_site_rna_tunnel_impure_split4000_batch016.csv

>  <merge_set>  (234) 
RdRp_knitwork_green_site_rna_tunnel_impure_fragalysis.sdf

>  <original ID>  (234) 
XTPHMNAAWQKLEC-UHFFFAOYSA-N

>  <HIPPO Pose ID>  (234) 
195353

>  <fragmenstein_outcome>  (234) 
acceptable

>  <exports>  (234) 
['/opt/xchem-fragalysis-2/maxwin/BulkDock/OUTPUTS/RdRp_knitwork_green_site_rna_tunnel_impure_split4000_batch016_220467.sdf', '/opt/xchem-fragalysis-2/maxwin/BulkDock/OUTPUTS/RdRp_knitwork_green_site_rna_tunnel_impure_fragalysis.sdf']

>  <SLURM_JOB_ID>  (234) 
220467

>  <distance_score>  (234) 
0.981124

>  <original SMILES>  (234) 
CCOC(=O)c1nc2c(s1)CCCC2

>  <alias>  (234) 
None

>  <ref_pdb>  (234) 
z0496a

>  <inchikey>  (234) 
XTPHMNAAWQKLEC-UHFFFAOYSA-N

$$$$
XLCMBFZLSRKVDW-UHFFFAOYSA-N
     RDKit          3D

 21 24  0  0  0  0  0  0  0  0999 V2000
  -24.5713  -28.3039  -17.1573 C   0  0  0  0  0  0  0  0  0  0  0  0
  -25.0973  -28.0891  -18.4224 C   0  0  0  0  0  0  0  0  0  0  0  0
  -26.3847  -28.5382  -18.7259 C   0  0  0  0  0  0  0  0  0  0  0  0
  -27.1830  -29.2103  -17.7823 C   0  0  0  0  0  0  0  0  0  0  0  0
  -26.6469  -29.3736  -16.4883 C   0  0  0  0  0  0  0  0  0  0  0  0
  -25.3396  -28.9498  -16.1950 C   0  0  0  0  0  0  0  0  0  0  0  0
  -27.4396  -30.0553  -15.4037 C   0  0  0  0  0  0  0  0  0  0  0  0
  -28.9283  -29.9467  -15.6818 C   0  0  0  0  0  0  0  0  0  0  0  0
  -29.1900  -30.4483  -17.0886 C   0  0  0  0  0  0  0  0  0  0  0  0
  -28.4782  -29.6494  -18.0904 N   0  0  0  0  0  0  0  0  0  0  0  0
  -28.7420  -30.0475  -19.4877 C   0  0  0  0  0  0  0  0  0  0  0  0
  -27.9984  -31.2355  -20.0442 C   0  0  0  0  0  0  0  0  0  0  0  0
  -28.0866  -32.5589  -19.6696 C   0  0  0  0  0  0  0  0  0  0  0  0
  -27.2583  -33.2396  -20.5155 N   0  0  0  0  0  0  0  0  0  0  0  0
  -26.6955  -32.3352  -21.3826 C   0  0  0  0  0  0  0  0  0  0  0  0
  -27.1193  -31.1128  -21.1034 N   0  0  0  0  0  0  0  0  0  0  0  0
  -25.7967  -32.6617  -22.5326 C   0  0  0  0  0  0  0  0  0  0  0  0
  -25.6703  -34.1242  -22.9560 C   0  0  0  0  0  0  0  0  0  0  0  0
  -27.0072  -34.8523  -23.0650 C   0  0  0  0  0  0  0  0  0  0  0  0
  -27.5467  -35.3849  -21.7331 C   0  0  0  0  0  0  0  0  0  0  0  0
  -27.0470  -34.6687  -20.4831 C   0  0  0  0  0  0  0  0  0  0  0  0
  1  2  2  0
  2  3  1  0
  3  4  2  0
  4  5  1  0
  5  6  2  0
  5  7  1  0
  7  8  1  0
  8  9  1  0
  9 10  1  0
 10 11  1  0
 11 12  1  0
 12 13  2  0
 13 14  1  0
 14 15  1  0
 15 16  2  0
 15 17  1  0
 17 18  1  0
 18 19  1  0
 19 20  1  0
 20 21  1  0
  6  1  1  0
 16 12  1  0
 10  4  1  0
 21 14  1  0
M  END
>  <fragmenstein_mode>  (235) 
expansion

>  <name>  (235) 
XLCMBFZLSRKVDW-UHFFFAOYSA-N

>  <fragmenstein_runtime>  (235) 
4.84906

>  <HIPPO Compound ID>  (235) 
45407

>  <SLURM_JOB_NAME>  (235) 
BulkDock.place:Flavi_NS5_RdRp:RdRp_knitwork_green_site_rna_tunnel_impure_split4000_batch005

>  <ref_mols>  (235) 
d0378a,z0165a

>  <Multi-SuCOS>  (235) 
0.487988

>  <tags>  (235) 
['Fragmenstein placed', 'RdRp_knitwork_green_site_rna_tunnel_impure_fragalysis.sdf Pose OK']

>  <scratch_subdir>  (235) 
/opt/xchem-fragalysis-2/maxwin/BulkDock/SCRATCH/220456/C45407-P1

>  <energy_score>  (235) 
-36.337925

>  <fragmenstein_error>  (235) 
None

>  <csv_name>  (235) 
RdRp_knitwork_green_site_rna_tunnel_impure_split4000_batch005.csv

>  <merge_set>  (235) 
RdRp_knitwork_green_site_rna_tunnel_impure_fragalysis.sdf

>  <original ID>  (235) 
XLCMBFZLSRKVDW-UHFFFAOYSA-N

>  <HIPPO Pose ID>  (235) 
195405

>  <fragmenstein_outcome>  (235) 
acceptable

>  <exports>  (235) 
['/opt/xchem-fragalysis-2/maxwin/BulkDock/OUTPUTS/RdRp_knitwork_green_site_rna_tunnel_impure_split4000_batch005_220456.sdf', '/opt/xchem-fragalysis-2/maxwin/BulkDock/OUTPUTS/RdRp_knitwork_green_site_rna_tunnel_impure_fragalysis.sdf']

>  <SLURM_JOB_ID>  (235) 
220456

>  <distance_score>  (235) 
0.740671

>  <original SMILES>  (235) 
c1ccc2c(c1)CCCN2Cc1cn2c(n1)CCCCC2

>  <alias>  (235) 
None

>  <ref_pdb>  (235) 
d0378a

>  <inchikey>  (235) 
XLCMBFZLSRKVDW-UHFFFAOYSA-N

$$$$
NWETUIPYPFDDRQ-UONOGXRCSA-N
     RDKit          3D

 22 24  0  0  0  0  0  0  0  0999 V2000
  -26.3222  -34.8316  -22.1275 C   0  0  0  0  0  0  0  0  0  0  0  0
  -25.2843  -33.7171  -21.9198 C   0  0  1  0  0  0  0  0  0  0  0  0
  -24.8059  -33.4479  -23.2934 N   0  0  0  0  0  0  0  0  0  0  0  0
  -23.3623  -33.1303  -23.3624 C   0  0  1  0  0  0  0  0  0  0  0  0
  -23.2251  -31.6450  -23.0449 C   0  0  0  0  0  0  0  0  0  0  0  0
  -22.5190  -34.1839  -22.6138 C   0  0  0  0  0  0  0  0  0  0  0  0
  -22.9410  -35.5279  -22.8063 C   0  0  0  0  0  0  0  0  0  0  0  0
  -22.5692  -36.5459  -21.9455 C   0  0  0  0  0  0  0  0  0  0  0  0
  -21.6778  -36.2637  -20.9225 C   0  0  0  0  0  0  0  0  0  0  0  0
  -21.0844  -34.9999  -20.8115 C   0  0  0  0  0  0  0  0  0  0  0  0
  -20.0744  -34.8187  -19.8520 C   0  0  0  0  0  0  0  0  0  0  0  0
  -19.3995  -33.6104  -19.7380 C   0  0  0  0  0  0  0  0  0  0  0  0
  -19.7394  -32.5686  -20.5797 C   0  0  0  0  0  0  0  0  0  0  0  0
  -20.7588  -32.7243  -21.5213 C   0  0  0  0  0  0  0  0  0  0  0  0
  -21.4751  -33.9349  -21.6719 C   0  0  0  0  0  0  0  0  0  0  0  0
  -25.7968  -32.4718  -21.1953 C   0  0  0  0  0  0  0  0  0  0  0  0
  -25.4319  -32.1937  -19.8738 C   0  0  0  0  0  0  0  0  0  0  0  0
  -26.0611  -31.1440  -19.1981 C   0  0  0  0  0  0  0  0  0  0  0  0
  -27.0207  -30.4005  -19.8659 C   0  0  0  0  0  0  0  0  0  0  0  0
  -27.7232  -29.4499  -19.2387 F   0  0  0  0  0  0  0  0  0  0  0  0
  -27.2672  -30.6745  -21.1933 C   0  0  0  0  0  0  0  0  0  0  0  0
  -26.6665  -31.6790  -21.8737 N   0  0  0  0  0  0  0  0  0  0  0  0
  2  1  1  6
  2  3  1  0
  3  4  1  0
  4  5  1  1
  4  6  1  0
  6  7  2  0
  7  8  1  0
  8  9  2  0
  9 10  1  0
 10 11  2  0
 11 12  1  0
 12 13  2  0
 13 14  1  0
 14 15  2  0
  2 16  1  0
 16 17  2  0
 17 18  1  0
 18 19  2  0
 19 20  1  0
 19 21  1  0
 21 22  2  0
 15  6  1  0
 22 16  1  0
 15 10  1  0
M  END
>  <fragmenstein_mode>  (236) 
expansion

>  <name>  (236) 
NWETUIPYPFDDRQ-UONOGXRCSA-N

>  <fragmenstein_runtime>  (236) 
2.238511

>  <HIPPO Compound ID>  (236) 
45555

>  <SLURM_JOB_NAME>  (236) 
BulkDock.place:Flavi_NS5_RdRp:RdRp_knitwork_green_site_rna_tunnel_impure_split4000_batch002

>  <ref_mols>  (236) 
z0521a,3vws-b

>  <Multi-SuCOS>  (236) 
0.610614

>  <tags>  (236) 
['Fragmenstein placed', 'RdRp_knitwork_green_site_rna_tunnel_impure_fragalysis.sdf Pose OK']

>  <scratch_subdir>  (236) 
/opt/xchem-fragalysis-2/maxwin/BulkDock/SCRATCH/220453/C45555-P141

>  <energy_score>  (236) 
-23.062737

>  <fragmenstein_error>  (236) 
None

>  <csv_name>  (236) 
RdRp_knitwork_green_site_rna_tunnel_impure_split4000_batch002.csv

>  <merge_set>  (236) 
RdRp_knitwork_green_site_rna_tunnel_impure_fragalysis.sdf

>  <original ID>  (236) 
NWETUIPYPFDDRQ-UONOGXRCSA-N

>  <HIPPO Pose ID>  (236) 
195418

>  <fragmenstein_outcome>  (236) 
acceptable

>  <exports>  (236) 
['/opt/xchem-fragalysis-2/maxwin/BulkDock/OUTPUTS/RdRp_knitwork_green_site_rna_tunnel_impure_split4000_batch002_220453.sdf', '/opt/xchem-fragalysis-2/maxwin/BulkDock/OUTPUTS/RdRp_knitwork_green_site_rna_tunnel_impure_fragalysis.sdf']

>  <SLURM_JOB_ID>  (236) 
220453

>  <distance_score>  (236) 
0.800116

>  <original SMILES>  (236) 
C[C@H](N[C@H](C)c1ccc(F)cn1)c1cccc2ccccc12

>  <alias>  (236) 
None

>  <ref_pdb>  (236) 
z0521a

>  <inchikey>  (236) 
NWETUIPYPFDDRQ-UONOGXRCSA-N

$$$$
XLCMBFZLSRKVDW-UHFFFAOYSA-N
     RDKit          3D

 21 24  0  0  0  0  0  0  0  0999 V2000
  -25.0583  -28.1970  -17.5835 C   0  0  0  0  0  0  0  0  0  0  0  0
  -25.3537  -27.9644  -18.9174 C   0  0  0  0  0  0  0  0  0  0  0  0
  -26.4844  -28.5503  -19.4924 C   0  0  0  0  0  0  0  0  0  0  0  0
  -27.3781  -29.3373  -18.7490 C   0  0  0  0  0  0  0  0  0  0  0  0
  -27.0585  -29.5389  -17.3848 C   0  0  0  0  0  0  0  0  0  0  0  0
  -25.8895  -29.0045  -16.8225 C   0  0  0  0  0  0  0  0  0  0  0  0
  -27.9629  -30.3449  -16.4937 C   0  0  0  0  0  0  0  0  0  0  0  0
  -29.3941  -30.2003  -16.9737 C   0  0  0  0  0  0  0  0  0  0  0  0
  -29.4918  -30.5746  -18.4478 C   0  0  0  0  0  0  0  0  0  0  0  0
  -28.5511  -29.8436  -19.2971 N   0  0  0  0  0  0  0  0  0  0  0  0
  -28.8360  -29.8290  -20.7506 C   0  0  0  0  0  0  0  0  0  0  0  0
  -28.4091  -30.9863  -21.6486 C   0  0  0  0  0  0  0  0  0  0  0  0
  -28.9486  -32.2517  -21.6843 C   0  0  0  0  0  0  0  0  0  0  0  0
  -28.3684  -32.9092  -22.7355 N   0  0  0  0  0  0  0  0  0  0  0  0
  -27.4220  -32.0694  -23.2703 C   0  0  0  0  0  0  0  0  0  0  0  0
  -27.4799  -30.8803  -22.6800 N   0  0  0  0  0  0  0  0  0  0  0  0
  -26.4819  -32.4773  -24.3707 C   0  0  0  0  0  0  0  0  0  0  0  0
  -26.0007  -33.9224  -24.2832 C   0  0  0  0  0  0  0  0  0  0  0  0
  -26.9942  -34.9013  -24.9153 C   0  0  0  0  0  0  0  0  0  0  0  0
  -28.4645  -34.5992  -24.6156 C   0  0  0  0  0  0  0  0  0  0  0  0
  -28.6989  -34.2621  -23.1480 C   0  0  0  0  0  0  0  0  0  0  0  0
  1  2  2  0
  2  3  1  0
  3  4  2  0
  4  5  1  0
  5  6  2  0
  5  7  1  0
  7  8  1  0
  8  9  1  0
  9 10  1  0
 10 11  1  0
 11 12  1  0
 12 13  2  0
 13 14  1  0
 14 15  1  0
 15 16  2  0
 15 17  1  0
 17 18  1  0
 18 19  1  0
 19 20  1  0
 20 21  1  0
  6  1  1  0
 16 12  1  0
 10  4  1  0
 21 14  1  0
M  END
>  <fragmenstein_mode>  (237) 
expansion

>  <name>  (237) 
XLCMBFZLSRKVDW-UHFFFAOYSA-N

>  <fragmenstein_runtime>  (237) 
7.210077

>  <HIPPO Compound ID>  (237) 
45407

>  <SLURM_JOB_NAME>  (237) 
BulkDock.place:Flavi_NS5_RdRp:RdRp_knitwork_green_site_rna_tunnel_impure_split4000_batch005

>  <ref_mols>  (237) 
d0378a,z0165a

>  <Multi-SuCOS>  (237) 
0.446922

>  <tags>  (237) 
['Fragmenstein placed', 'RdRp_knitwork_green_site_rna_tunnel_impure_fragalysis.sdf Pose OK']

>  <scratch_subdir>  (237) 
/opt/xchem-fragalysis-2/maxwin/BulkDock/SCRATCH/220456/C45407-P3

>  <energy_score>  (237) 
-34.466876

>  <fragmenstein_error>  (237) 
None

>  <csv_name>  (237) 
RdRp_knitwork_green_site_rna_tunnel_impure_split4000_batch005.csv

>  <merge_set>  (237) 
RdRp_knitwork_green_site_rna_tunnel_impure_fragalysis.sdf

>  <original ID>  (237) 
XLCMBFZLSRKVDW-UHFFFAOYSA-N

>  <HIPPO Pose ID>  (237) 
195420

>  <fragmenstein_outcome>  (237) 
acceptable

>  <exports>  (237) 
['/opt/xchem-fragalysis-2/maxwin/BulkDock/OUTPUTS/RdRp_knitwork_green_site_rna_tunnel_impure_split4000_batch005_220456.sdf', '/opt/xchem-fragalysis-2/maxwin/BulkDock/OUTPUTS/RdRp_knitwork_green_site_rna_tunnel_impure_fragalysis.sdf']

>  <SLURM_JOB_ID>  (237) 
220456

>  <distance_score>  (237) 
0.957927

>  <original SMILES>  (237) 
c1ccc2c(c1)CCCN2Cc1cn2c(n1)CCCCC2

>  <alias>  (237) 
None

>  <ref_pdb>  (237) 
z0165a

>  <inchikey>  (237) 
XLCMBFZLSRKVDW-UHFFFAOYSA-N

$$$$
SNUOSRAMAPPDSM-WDSKDSINSA-N
     RDKit          3D

 14 16  0  0  0  0  0  0  0  0999 V2000
  -25.5604  -28.9007  -24.1266 C   0  0  0  0  0  0  0  0  0  0  0  0
  -26.2601  -28.9875  -22.7797 C   0  0  0  0  0  0  0  0  0  0  0  0
  -26.2308  -27.6794  -22.1693 O   0  0  0  0  0  0  0  0  0  0  0  0
  -26.0386  -27.5054  -20.8228 C   0  0  0  0  0  0  0  0  0  0  0  0
  -25.2840  -26.6182  -20.4293 O   0  0  0  0  0  0  0  0  0  0  0  0
  -26.8093  -28.3719  -19.9279 C   0  0  0  0  0  0  0  0  0  0  0  0
  -26.4163  -28.6098  -18.6742 N   0  0  0  0  0  0  0  0  0  0  0  0
  -27.3937  -29.3319  -18.0506 C   0  0  0  0  0  0  0  0  0  0  0  0
  -28.4868  -29.6293  -18.8132 C   0  0  0  0  0  0  0  0  0  0  0  0
  -28.3627  -29.0418  -20.3584 S   0  0  0  0  0  0  0  0  0  0  0  0
  -29.5410  -30.3767  -17.9679 C   0  0  1  0  0  0  0  0  0  0  0  0
  -29.2242  -31.7074  -17.3458 C   0  0  0  0  0  0  0  0  0  0  0  0
  -28.8848  -30.4541  -16.5776 C   0  0  1  0  0  0  0  0  0  0  0  0
  -27.4880  -29.8120  -16.6427 C   0  0  0  0  0  0  0  0  0  0  0  0
  1  2  1  0
  2  3  1  0
  3  4  1  0
  4  5  2  0
  4  6  1  0
  6  7  2  0
  7  8  1  0
  8  9  2  0
  9 10  1  0
  9 11  1  0
 11 12  1  6
 13 12  1  6
 13 14  1  0
 10  6  1  0
 13 11  1  0
 14  8  1  0
M  END
>  <fragmenstein_mode>  (238) 
expansion

>  <name>  (238) 
SNUOSRAMAPPDSM-WDSKDSINSA-N

>  <fragmenstein_runtime>  (238) 
13.128726

>  <HIPPO Compound ID>  (238) 
50595

>  <SLURM_JOB_NAME>  (238) 
BulkDock.place:Flavi_NS5_RdRp:RdRp_knitwork_green_site_rna_tunnel_impure_split4000_batch016

>  <ref_mols>  (238) 
z0496a,z0628a

>  <Multi-SuCOS>  (238) 
0.483234

>  <tags>  (238) 
['Fragmenstein placed', 'RdRp_knitwork_green_site_rna_tunnel_impure_fragalysis.sdf Pose OK']

>  <scratch_subdir>  (238) 
/opt/xchem-fragalysis-2/maxwin/BulkDock/SCRATCH/220467/C50595-P136

>  <energy_score>  (238) 
-135.120616

>  <fragmenstein_error>  (238) 
None

>  <csv_name>  (238) 
RdRp_knitwork_green_site_rna_tunnel_impure_split4000_batch016.csv

>  <merge_set>  (238) 
RdRp_knitwork_green_site_rna_tunnel_impure_fragalysis.sdf

>  <original ID>  (238) 
SNUOSRAMAPPDSM-WDSKDSINSA-N

>  <HIPPO Pose ID>  (238) 
195421

>  <fragmenstein_outcome>  (238) 
acceptable

>  <exports>  (238) 
['/opt/xchem-fragalysis-2/maxwin/BulkDock/OUTPUTS/RdRp_knitwork_green_site_rna_tunnel_impure_split4000_batch016_220467.sdf', '/opt/xchem-fragalysis-2/maxwin/BulkDock/OUTPUTS/RdRp_knitwork_green_site_rna_tunnel_impure_fragalysis.sdf']

>  <SLURM_JOB_ID>  (238) 
220467

>  <distance_score>  (238) 
0.898924

>  <original SMILES>  (238) 
CCOC(=O)c1nc2c(s1)[C@H]1C[C@H]1C2

>  <alias>  (238) 
None

>  <ref_pdb>  (238) 
z0496a

>  <inchikey>  (238) 
SNUOSRAMAPPDSM-WDSKDSINSA-N

$$$$
NWETUIPYPFDDRQ-UONOGXRCSA-N
     RDKit          3D

 22 24  0  0  0  0  0  0  0  0999 V2000
  -26.0703  -34.6072  -20.9963 C   0  0  0  0  0  0  0  0  0  0  0  0
  -25.1797  -33.3682  -21.0135 C   0  0  1  0  0  0  0  0  0  0  0  0
  -24.8902  -33.1409  -22.4565 N   0  0  0  0  0  0  0  0  0  0  0  0
  -23.4592  -32.8254  -22.6882 C   0  0  1  0  0  0  0  0  0  0  0  0
  -23.2488  -31.3938  -22.1903 C   0  0  0  0  0  0  0  0  0  0  0  0
  -22.5777  -33.9706  -22.1667 C   0  0  0  0  0  0  0  0  0  0  0  0
  -23.0751  -35.2684  -22.4664 C   0  0  0  0  0  0  0  0  0  0  0  0
  -22.6317  -36.3952  -21.8027 C   0  0  0  0  0  0  0  0  0  0  0  0
  -21.5951  -36.2620  -20.8958 C   0  0  0  0  0  0  0  0  0  0  0  0
  -20.9537  -35.0336  -20.6915 C   0  0  0  0  0  0  0  0  0  0  0  0
  -19.8316  -34.9984  -19.8481 C   0  0  0  0  0  0  0  0  0  0  0  0
  -19.1214  -33.8221  -19.6343 C   0  0  0  0  0  0  0  0  0  0  0  0
  -19.5314  -32.6611  -20.2610 C   0  0  0  0  0  0  0  0  0  0  0  0
  -20.6569  -32.6818  -21.0891 C   0  0  0  0  0  0  0  0  0  0  0  0
  -21.4202  -33.8554  -21.3326 C   0  0  0  0  0  0  0  0  0  0  0  0
  -25.8645  -32.1798  -20.3395 C   0  0  0  0  0  0  0  0  0  0  0  0
  -26.4574  -32.3293  -19.0908 C   0  0  0  0  0  0  0  0  0  0  0  0
  -27.2904  -31.3222  -18.6254 C   0  0  0  0  0  0  0  0  0  0  0  0
  -27.4415  -30.1681  -19.3716 C   0  0  0  0  0  0  0  0  0  0  0  0
  -28.2918  -29.2133  -18.9900 F   0  0  0  0  0  0  0  0  0  0  0  0
  -26.7236  -30.0312  -20.5341 C   0  0  0  0  0  0  0  0  0  0  0  0
  -25.9471  -31.0142  -21.0371 N   0  0  0  0  0  0  0  0  0  0  0  0
  2  1  1  6
  2  3  1  0
  3  4  1  0
  4  5  1  1
  4  6  1  0
  6  7  2  0
  7  8  1  0
  8  9  2  0
  9 10  1  0
 10 11  2  0
 11 12  1  0
 12 13  2  0
 13 14  1  0
 14 15  2  0
  2 16  1  0
 16 17  2  0
 17 18  1  0
 18 19  2  0
 19 20  1  0
 19 21  1  0
 21 22  2  0
 15  6  1  0
 22 16  1  0
 15 10  1  0
M  END
>  <fragmenstein_mode>  (239) 
expansion

>  <name>  (239) 
NWETUIPYPFDDRQ-UONOGXRCSA-N

>  <fragmenstein_runtime>  (239) 
2.415592

>  <HIPPO Compound ID>  (239) 
45555

>  <SLURM_JOB_NAME>  (239) 
BulkDock.place:Flavi_NS5_RdRp:RdRp_knitwork_green_site_rna_tunnel_impure_split4000_batch002

>  <ref_mols>  (239) 
z0521a,3vws-b

>  <Multi-SuCOS>  (239) 
0.605356

>  <tags>  (239) 
['Fragmenstein placed', 'RdRp_knitwork_green_site_rna_tunnel_impure_fragalysis.sdf Pose OK']

>  <scratch_subdir>  (239) 
/opt/xchem-fragalysis-2/maxwin/BulkDock/SCRATCH/220453/C45555-P217

>  <energy_score>  (239) 
-21.562046

>  <fragmenstein_error>  (239) 
None

>  <csv_name>  (239) 
RdRp_knitwork_green_site_rna_tunnel_impure_split4000_batch002.csv

>  <merge_set>  (239) 
RdRp_knitwork_green_site_rna_tunnel_impure_fragalysis.sdf

>  <original ID>  (239) 
NWETUIPYPFDDRQ-UONOGXRCSA-N

>  <HIPPO Pose ID>  (239) 
195427

>  <fragmenstein_outcome>  (239) 
acceptable

>  <exports>  (239) 
['/opt/xchem-fragalysis-2/maxwin/BulkDock/OUTPUTS/RdRp_knitwork_green_site_rna_tunnel_impure_split4000_batch002_220453.sdf', '/opt/xchem-fragalysis-2/maxwin/BulkDock/OUTPUTS/RdRp_knitwork_green_site_rna_tunnel_impure_fragalysis.sdf']

>  <SLURM_JOB_ID>  (239) 
220453

>  <distance_score>  (239) 
0.98108

>  <original SMILES>  (239) 
C[C@H](N[C@H](C)c1ccc(F)cn1)c1cccc2ccccc12

>  <alias>  (239) 
None

>  <ref_pdb>  (239) 
3vws-b

>  <inchikey>  (239) 
NWETUIPYPFDDRQ-UONOGXRCSA-N

$$$$
IWXDEROOIURHCK-JTQLQIEISA-N
     RDKit          3D

 15 15  0  0  0  0  0  0  0  0999 V2000
  -24.6405  -27.4490  -22.1768 C   0  0  0  0  0  0  0  0  0  0  0  0
  -25.3555  -28.6102  -21.5262 C   0  0  0  0  0  0  0  0  0  0  0  0
  -25.7709  -29.6698  -22.5518 C   0  0  0  0  0  0  0  0  0  0  0  0
  -26.1372  -31.0269  -21.9539 C   0  0  0  0  0  0  0  0  0  0  0  0
  -27.1708  -31.0134  -20.8474 C   0  0  0  0  0  0  0  0  0  0  0  0
  -27.4175  -31.9734  -20.1350 O   0  0  0  0  0  0  0  0  0  0  0  0
  -27.7712  -29.8061  -20.7817 O   0  0  0  0  0  0  0  0  0  0  0  0
  -28.7483  -29.5160  -19.7694 C   0  0  1  0  0  0  0  0  0  0  0  0
  -30.0680  -30.1410  -20.1700 C   0  0  0  0  0  0  0  0  0  0  0  0
  -28.2836  -29.7206  -18.3417 C   0  0  0  0  0  0  0  0  0  0  0  0
  -29.0808  -30.3505  -17.3792 C   0  0  0  0  0  0  0  0  0  0  0  0
  -28.6198  -30.4432  -16.0752 C   0  0  0  0  0  0  0  0  0  0  0  0
  -27.4321  -29.9594  -15.6614 N   0  0  0  0  0  0  0  0  0  0  0  0
  -26.6688  -29.3699  -16.6014 C   0  0  0  0  0  0  0  0  0  0  0  0
  -27.0464  -29.2160  -17.9265 C   0  0  0  0  0  0  0  0  0  0  0  0
  1  2  1  0
  2  3  1  0
  3  4  1  0
  4  5  1  0
  5  6  2  0
  5  7  1  0
  7  8  1  0
  8  9  1  6
  8 10  1  0
 10 11  2  0
 11 12  1  0
 12 13  2  0
 13 14  1  0
 14 15  2  0
 15 10  1  0
M  END
>  <fragmenstein_mode>  (240) 
expansion

>  <name>  (240) 
IWXDEROOIURHCK-JTQLQIEISA-N

>  <fragmenstein_runtime>  (240) 
2.713791

>  <HIPPO Compound ID>  (240) 
52072

>  <SLURM_JOB_NAME>  (240) 
BulkDock.place:Flavi_NS5_RdRp:RdRp_knitwork_green_site_rna_tunnel_impure_split4000_batch011

>  <ref_mols>  (240) 
d0472b,z0628a

>  <Multi-SuCOS>  (240) 
0.510381

>  <tags>  (240) 
['Fragmenstein placed', 'RdRp_knitwork_green_site_rna_tunnel_impure_fragalysis.sdf Pose OK']

>  <scratch_subdir>  (240) 
/opt/xchem-fragalysis-2/maxwin/BulkDock/SCRATCH/220462/C52072-P150

>  <energy_score>  (240) 
-16.115644

>  <fragmenstein_error>  (240) 
None

>  <csv_name>  (240) 
RdRp_knitwork_green_site_rna_tunnel_impure_split4000_batch011.csv

>  <merge_set>  (240) 
RdRp_knitwork_green_site_rna_tunnel_impure_fragalysis.sdf

>  <original ID>  (240) 
IWXDEROOIURHCK-JTQLQIEISA-N

>  <HIPPO Pose ID>  (240) 
195513

>  <fragmenstein_outcome>  (240) 
acceptable

>  <exports>  (240) 
['/opt/xchem-fragalysis-2/maxwin/BulkDock/OUTPUTS/RdRp_knitwork_green_site_rna_tunnel_impure_split4000_batch011_220462.sdf', '/opt/xchem-fragalysis-2/maxwin/BulkDock/OUTPUTS/RdRp_knitwork_green_site_rna_tunnel_impure_fragalysis.sdf']

>  <SLURM_JOB_ID>  (240) 
220462

>  <distance_score>  (240) 
0.915

>  <original SMILES>  (240) 
CCCCC(=O)O[C@@H](C)c1ccncc1

>  <alias>  (240) 
None

>  <ref_pdb>  (240) 
z0628a

>  <inchikey>  (240) 
IWXDEROOIURHCK-JTQLQIEISA-N

$$$$
JHOQUVAQXZJJPX-UHFFFAOYSA-N
     RDKit          3D

 14 15  0  0  0  0  0  0  0  0999 V2000
  -30.5366  -34.1632  -15.2311 C   0  0  0  0  0  0  0  0  0  0  0  0
  -31.3453  -33.0188  -15.8092 C   0  0  0  0  0  0  0  0  0  0  0  0
  -30.4566  -31.9451  -16.1649 O   0  0  0  0  0  0  0  0  0  0  0  0
  -30.0944  -31.8757  -17.4707 C   0  0  0  0  0  0  0  0  0  0  0  0
  -30.4942  -32.5858  -18.3764 O   0  0  0  0  0  0  0  0  0  0  0  0
  -29.0840  -30.8066  -17.6623 C   0  0  0  0  0  0  0  0  0  0  0  0
  -28.2919  -30.3646  -16.5986 C   0  0  0  0  0  0  0  0  0  0  0  0
  -27.2608  -29.4735  -16.8646 C   0  0  0  0  0  0  0  0  0  0  0  0
  -26.9721  -28.9828  -18.0909 N   0  0  0  0  0  0  0  0  0  0  0  0
  -27.7729  -29.4017  -19.0835 C   0  0  0  0  0  0  0  0  0  0  0  0
  -28.8295  -30.2871  -18.9245 C   0  0  0  0  0  0  0  0  0  0  0  0
  -29.4866  -30.5737  -20.2380 C   0  0  0  0  0  0  0  0  0  0  0  0
  -28.9381  -29.4406  -21.1170 C   0  0  0  0  0  0  0  0  0  0  0  0
  -27.5828  -29.0369  -20.5284 C   0  0  0  0  0  0  0  0  0  0  0  0
  1  2  1  0
  2  3  1  0
  3  4  1  0
  4  5  2  0
  4  6  1  0
  6  7  2  0
  7  8  1  0
  8  9  2  0
  9 10  1  0
 10 11  2  0
 11 12  1  0
 12 13  1  0
 13 14  1  0
 11  6  1  0
 14 10  1  0
M  END
>  <fragmenstein_mode>  (241) 
expansion

>  <name>  (241) 
JHOQUVAQXZJJPX-UHFFFAOYSA-N

>  <fragmenstein_runtime>  (241) 
2.963736

>  <HIPPO Compound ID>  (241) 
51103

>  <SLURM_JOB_NAME>  (241) 
BulkDock.place:Flavi_NS5_RdRp:RdRp_knitwork_green_site_rna_tunnel_impure_split4000_batch016

>  <ref_mols>  (241) 
z0496a,z0628a

>  <Multi-SuCOS>  (241) 
0.470117

>  <tags>  (241) 
['Fragmenstein placed', 'RdRp_knitwork_green_site_rna_tunnel_impure_fragalysis.sdf Pose OK']

>  <scratch_subdir>  (241) 
/opt/xchem-fragalysis-2/maxwin/BulkDock/SCRATCH/220467/C51103-P136

>  <energy_score>  (241) 
-25.560853

>  <fragmenstein_error>  (241) 
None

>  <csv_name>  (241) 
RdRp_knitwork_green_site_rna_tunnel_impure_split4000_batch016.csv

>  <merge_set>  (241) 
RdRp_knitwork_green_site_rna_tunnel_impure_fragalysis.sdf

>  <original ID>  (241) 
JHOQUVAQXZJJPX-UHFFFAOYSA-N

>  <HIPPO Pose ID>  (241) 
195529

>  <fragmenstein_outcome>  (241) 
acceptable

>  <exports>  (241) 
['/opt/xchem-fragalysis-2/maxwin/BulkDock/OUTPUTS/RdRp_knitwork_green_site_rna_tunnel_impure_split4000_batch016_220467.sdf', '/opt/xchem-fragalysis-2/maxwin/BulkDock/OUTPUTS/RdRp_knitwork_green_site_rna_tunnel_impure_fragalysis.sdf']

>  <SLURM_JOB_ID>  (241) 
220467

>  <distance_score>  (241) 
0.864679

>  <original SMILES>  (241) 
CCOC(=O)c1ccnc2c1CCC2

>  <alias>  (241) 
None

>  <ref_pdb>  (241) 
z0496a

>  <inchikey>  (241) 
JHOQUVAQXZJJPX-UHFFFAOYSA-N

$$$$
MCKMUQPFTLOLMP-UHFFFAOYSA-N
     RDKit          3D

 21 24  0  0  0  0  0  0  0  0999 V2000
  -23.9030  -30.0422  -15.2456 C   0  0  0  0  0  0  0  0  0  0  0  0
  -24.4321  -28.7336  -15.4810 O   0  0  0  0  0  0  0  0  0  0  0  0
  -25.1772  -28.6967  -16.6297 C   0  0  0  0  0  0  0  0  0  0  0  0
  -24.6038  -28.0020  -17.6914 C   0  0  0  0  0  0  0  0  0  0  0  0
  -25.2986  -27.8668  -18.8803 C   0  0  0  0  0  0  0  0  0  0  0  0
  -26.5615  -28.4426  -19.0041 C   0  0  0  0  0  0  0  0  0  0  0  0
  -27.1651  -29.1663  -17.9582 C   0  0  0  0  0  0  0  0  0  0  0  0
  -26.4735  -29.2353  -16.7282 C   0  0  0  0  0  0  0  0  0  0  0  0
  -27.1330  -29.8936  -15.5434 C   0  0  0  0  0  0  0  0  0  0  0  0
  -28.6447  -29.7862  -15.6520 C   0  0  0  0  0  0  0  0  0  0  0  0
  -29.0645  -30.3969  -16.9725 C   0  0  0  0  0  0  0  0  0  0  0  0
  -28.4383  -29.7256  -18.1199 N   0  0  0  0  0  0  0  0  0  0  0  0
  -28.7635  -30.3311  -19.4187 C   0  0  0  0  0  0  0  0  0  0  0  0
  -28.0807  -31.6215  -19.7277 C   0  0  0  0  0  0  0  0  0  0  0  0
  -28.2847  -32.9167  -19.2613 C   0  0  0  0  0  0  0  0  0  0  0  0
  -27.4486  -33.8300  -19.8705 N   0  0  0  0  0  0  0  0  0  0  0  0
  -26.7421  -33.1045  -20.6903 C   0  0  0  0  0  0  0  0  0  0  0  0
  -27.0675  -31.7843  -20.6090 N   0  0  0  0  0  0  0  0  0  0  0  0
  -26.3369  -30.9745  -21.5598 C   0  0  0  0  0  0  0  0  0  0  0  0
  -25.7883  -32.0378  -22.5298 C   0  0  0  0  0  0  0  0  0  0  0  0
  -25.7215  -33.3552  -21.7233 C   0  0  0  0  0  0  0  0  0  0  0  0
  1  2  1  0
  2  3  1  0
  3  4  2  0
  4  5  1  0
  5  6  2  0
  6  7  1  0
  7  8  2  0
  8  9  1  0
  9 10  1  0
 10 11  1  0
 11 12  1  0
 12 13  1  0
 13 14  1  0
 14 15  2  0
 15 16  1  0
 16 17  2  0
 17 18  1  0
 18 19  1  0
 19 20  1  0
 20 21  1  0
  8  3  1  0
 18 14  1  0
 12  7  1  0
 21 17  1  0
M  END
>  <fragmenstein_mode>  (242) 
expansion

>  <name>  (242) 
MCKMUQPFTLOLMP-UHFFFAOYSA-N

>  <fragmenstein_runtime>  (242) 
4.645456

>  <HIPPO Compound ID>  (242) 
45467

>  <SLURM_JOB_NAME>  (242) 
BulkDock.place:Flavi_NS5_RdRp:RdRp_knitwork_green_site_rna_tunnel_impure_split4000_batch005

>  <ref_mols>  (242) 
d0378a,z0165a

>  <Multi-SuCOS>  (242) 
0.472702

>  <tags>  (242) 
['Fragmenstein placed', 'RdRp_knitwork_green_site_rna_tunnel_impure_fragalysis.sdf Pose OK']

>  <scratch_subdir>  (242) 
/opt/xchem-fragalysis-2/maxwin/BulkDock/SCRATCH/220456/C45467-P1

>  <energy_score>  (242) 
-24.77892

>  <fragmenstein_error>  (242) 
None

>  <csv_name>  (242) 
RdRp_knitwork_green_site_rna_tunnel_impure_split4000_batch005.csv

>  <merge_set>  (242) 
RdRp_knitwork_green_site_rna_tunnel_impure_fragalysis.sdf

>  <original ID>  (242) 
MCKMUQPFTLOLMP-UHFFFAOYSA-N

>  <HIPPO Pose ID>  (242) 
195539

>  <fragmenstein_outcome>  (242) 
acceptable

>  <exports>  (242) 
['/opt/xchem-fragalysis-2/maxwin/BulkDock/OUTPUTS/RdRp_knitwork_green_site_rna_tunnel_impure_split4000_batch005_220456.sdf', '/opt/xchem-fragalysis-2/maxwin/BulkDock/OUTPUTS/RdRp_knitwork_green_site_rna_tunnel_impure_fragalysis.sdf']

>  <SLURM_JOB_ID>  (242) 
220456

>  <distance_score>  (242) 
0.735658

>  <original SMILES>  (242) 
COc1cccc2c1CCCN2Cc1cnc2n1CCC2

>  <alias>  (242) 
None

>  <ref_pdb>  (242) 
d0378a

>  <inchikey>  (242) 
MCKMUQPFTLOLMP-UHFFFAOYSA-N

$$$$
OJYHZLYUGBGHSI-UHFFFAOYSA-N
     RDKit          3D

 14 15  0  0  0  0  0  0  0  0999 V2000
  -31.2053  -33.3408  -14.4122 C   0  0  0  0  0  0  0  0  0  0  0  0
  -31.1340  -33.1719  -15.9169 C   0  0  0  0  0  0  0  0  0  0  0  0
  -30.2512  -32.0750  -16.2014 O   0  0  0  0  0  0  0  0  0  0  0  0
  -30.0585  -31.8485  -17.5252 C   0  0  0  0  0  0  0  0  0  0  0  0
  -30.5965  -32.4517  -18.4381 O   0  0  0  0  0  0  0  0  0  0  0  0
  -29.0570  -30.7797  -17.7345 C   0  0  0  0  0  0  0  0  0  0  0  0
  -28.2623  -30.3012  -16.6969 C   0  0  0  0  0  0  0  0  0  0  0  0
  -27.2316  -29.4193  -16.8525 N   0  0  0  0  0  0  0  0  0  0  0  0
  -26.9745  -28.9888  -18.1084 C   0  0  0  0  0  0  0  0  0  0  0  0
  -27.7351  -29.3713  -19.1876 C   0  0  0  0  0  0  0  0  0  0  0  0
  -28.7941  -30.2614  -18.9972 C   0  0  0  0  0  0  0  0  0  0  0  0
  -29.4622  -30.5613  -20.3067 C   0  0  0  0  0  0  0  0  0  0  0  0
  -28.9239  -29.4330  -21.1975 C   0  0  0  0  0  0  0  0  0  0  0  0
  -27.5619  -29.0223  -20.6271 C   0  0  0  0  0  0  0  0  0  0  0  0
  1  2  1  0
  2  3  1  0
  3  4  1  0
  4  5  2  0
  4  6  1  0
  6  7  2  0
  7  8  1  0
  8  9  2  0
  9 10  1  0
 10 11  2  0
 11 12  1  0
 12 13  1  0
 13 14  1  0
 11  6  1  0
 14 10  1  0
M  END
>  <fragmenstein_mode>  (243) 
expansion

>  <name>  (243) 
OJYHZLYUGBGHSI-UHFFFAOYSA-N

>  <fragmenstein_runtime>  (243) 
3.242364

>  <HIPPO Compound ID>  (243) 
51237

>  <SLURM_JOB_NAME>  (243) 
BulkDock.place:Flavi_NS5_RdRp:RdRp_knitwork_green_site_rna_tunnel_impure_split4000_batch016

>  <ref_mols>  (243) 
z0496a,z0628a

>  <Multi-SuCOS>  (243) 
0.487975

>  <tags>  (243) 
['Fragmenstein placed', 'RdRp_knitwork_green_site_rna_tunnel_impure_fragalysis.sdf Pose OK']

>  <scratch_subdir>  (243) 
/opt/xchem-fragalysis-2/maxwin/BulkDock/SCRATCH/220467/C51237-P136

>  <energy_score>  (243) 
-28.055793

>  <fragmenstein_error>  (243) 
None

>  <csv_name>  (243) 
RdRp_knitwork_green_site_rna_tunnel_impure_split4000_batch016.csv

>  <merge_set>  (243) 
RdRp_knitwork_green_site_rna_tunnel_impure_fragalysis.sdf

>  <original ID>  (243) 
OJYHZLYUGBGHSI-UHFFFAOYSA-N

>  <HIPPO Pose ID>  (243) 
195564

>  <fragmenstein_outcome>  (243) 
acceptable

>  <exports>  (243) 
['/opt/xchem-fragalysis-2/maxwin/BulkDock/OUTPUTS/RdRp_knitwork_green_site_rna_tunnel_impure_split4000_batch016_220467.sdf', '/opt/xchem-fragalysis-2/maxwin/BulkDock/OUTPUTS/RdRp_knitwork_green_site_rna_tunnel_impure_fragalysis.sdf']

>  <SLURM_JOB_ID>  (243) 
220467

>  <distance_score>  (243) 
0.834068

>  <original SMILES>  (243) 
CCOC(=O)c1cncc2c1CCC2

>  <alias>  (243) 
None

>  <ref_pdb>  (243) 
z0496a

>  <inchikey>  (243) 
OJYHZLYUGBGHSI-UHFFFAOYSA-N

$$$$
HRUBXIBZOVZQFN-UHFFFAOYSA-N
     RDKit          3D

 21 24  0  0  0  0  0  0  0  0999 V2000
  -25.9728  -29.3440  -21.1572 C   0  0  0  0  0  0  0  0  0  0  0  0
  -26.8916  -28.8079  -20.2086 O   0  0  0  0  0  0  0  0  0  0  0  0
  -26.4106  -28.8236  -18.9215 C   0  0  0  0  0  0  0  0  0  0  0  0
  -25.1816  -28.2302  -18.6152 C   0  0  0  0  0  0  0  0  0  0  0  0
  -24.7064  -28.2508  -17.3069 C   0  0  0  0  0  0  0  0  0  0  0  0
  -25.4653  -28.8429  -16.3010 C   0  0  0  0  0  0  0  0  0  0  0  0
  -26.7252  -29.3827  -16.5906 C   0  0  0  0  0  0  0  0  0  0  0  0
  -27.2177  -29.3898  -17.9091 C   0  0  0  0  0  0  0  0  0  0  0  0
  -28.4499  -30.0001  -18.1937 N   0  0  0  0  0  0  0  0  0  0  0  0
  -28.3335  -31.2121  -19.0223 C   0  0  0  0  0  0  0  0  0  0  0  0
  -27.9786  -32.4546  -18.2675 C   0  0  0  0  0  0  0  0  0  0  0  0
  -28.7547  -33.4383  -17.6651 C   0  0  0  0  0  0  0  0  0  0  0  0
  -27.9858  -34.3555  -16.9719 N   0  0  0  0  0  0  0  0  0  0  0  0
  -26.7604  -33.9760  -17.2087 C   0  0  0  0  0  0  0  0  0  0  0  0
  -26.7202  -32.8554  -17.9787 N   0  0  0  0  0  0  0  0  0  0  0  0
  -25.3719  -32.4340  -18.2830 C   0  0  0  0  0  0  0  0  0  0  0  0
  -24.5483  -33.6798  -17.9076 C   0  0  0  0  0  0  0  0  0  0  0  0
  -25.4052  -34.4532  -16.8752 C   0  0  0  0  0  0  0  0  0  0  0  0
  -29.4764  -30.0532  -17.1391 C   0  0  0  0  0  0  0  0  0  0  0  0
  -28.9992  -29.6652  -15.7434 C   0  0  0  0  0  0  0  0  0  0  0  0
  -27.5464  -30.0309  -15.5110 C   0  0  0  0  0  0  0  0  0  0  0  0
  1  2  1  0
  2  3  1  0
  3  4  2  0
  4  5  1  0
  5  6  2  0
  6  7  1  0
  7  8  2  0
  8  9  1  0
  9 10  1  0
 10 11  1  0
 11 12  2  0
 12 13  1  0
 13 14  2  0
 14 15  1  0
 15 16  1  0
 16 17  1  0
 17 18  1  0
  9 19  1  0
 19 20  1  0
 20 21  1  0
  8  3  1  0
 15 11  1  0
 21  7  1  0
 18 14  1  0
M  END
>  <fragmenstein_mode>  (244) 
expansion

>  <name>  (244) 
HRUBXIBZOVZQFN-UHFFFAOYSA-N

>  <fragmenstein_runtime>  (244) 
4.10767

>  <HIPPO Compound ID>  (244) 
45590

>  <SLURM_JOB_NAME>  (244) 
BulkDock.place:Flavi_NS5_RdRp:RdRp_knitwork_green_site_rna_tunnel_impure_split4000_batch005

>  <ref_mols>  (244) 
d0378a,z0165a

>  <Multi-SuCOS>  (244) 
0.479039

>  <tags>  (244) 
['Fragmenstein placed', 'RdRp_knitwork_green_site_rna_tunnel_impure_fragalysis.sdf Pose OK']

>  <scratch_subdir>  (244) 
/opt/xchem-fragalysis-2/maxwin/BulkDock/SCRATCH/220456/C45590-P1

>  <energy_score>  (244) 
-50.775479

>  <fragmenstein_error>  (244) 
None

>  <csv_name>  (244) 
RdRp_knitwork_green_site_rna_tunnel_impure_split4000_batch005.csv

>  <merge_set>  (244) 
RdRp_knitwork_green_site_rna_tunnel_impure_fragalysis.sdf

>  <original ID>  (244) 
HRUBXIBZOVZQFN-UHFFFAOYSA-N

>  <HIPPO Pose ID>  (244) 
195589

>  <fragmenstein_outcome>  (244) 
acceptable

>  <exports>  (244) 
['/opt/xchem-fragalysis-2/maxwin/BulkDock/OUTPUTS/RdRp_knitwork_green_site_rna_tunnel_impure_split4000_batch005_220456.sdf', '/opt/xchem-fragalysis-2/maxwin/BulkDock/OUTPUTS/RdRp_knitwork_green_site_rna_tunnel_impure_fragalysis.sdf']

>  <SLURM_JOB_ID>  (244) 
220456

>  <distance_score>  (244) 
0.868124

>  <original SMILES>  (244) 
COc1cccc2c1N(Cc1cnc3n1CCC3)CCC2

>  <alias>  (244) 
None

>  <ref_pdb>  (244) 
d0378a

>  <inchikey>  (244) 
HRUBXIBZOVZQFN-UHFFFAOYSA-N

$$$$
GTYLWYSLFMUWSH-UHFFFAOYSA-N
     RDKit          3D

 23 26  0  0  0  0  0  0  0  0999 V2000
  -25.8498  -29.1319  -20.9782 C   0  0  0  0  0  0  0  0  0  0  0  0
  -26.7049  -28.4952  -20.0241 O   0  0  0  0  0  0  0  0  0  0  0  0
  -26.2872  -28.7271  -18.7351 C   0  0  0  0  0  0  0  0  0  0  0  0
  -25.0078  -28.2692  -18.3805 C   0  0  0  0  0  0  0  0  0  0  0  0
  -24.5282  -28.4538  -17.0934 C   0  0  0  0  0  0  0  0  0  0  0  0
  -25.3375  -29.0661  -16.1482 C   0  0  0  0  0  0  0  0  0  0  0  0
  -26.6464  -29.4646  -16.4742 C   0  0  0  0  0  0  0  0  0  0  0  0
  -27.1567  -29.3257  -17.7886 C   0  0  0  0  0  0  0  0  0  0  0  0
  -28.4705  -29.7253  -18.0711 N   0  0  0  0  0  0  0  0  0  0  0  0
  -28.7813  -30.2651  -19.4106 C   0  0  0  0  0  0  0  0  0  0  0  0
  -28.1126  -31.5513  -19.8365 C   0  0  0  0  0  0  0  0  0  0  0  0
  -28.1313  -32.7941  -19.2388 C   0  0  0  0  0  0  0  0  0  0  0  0
  -27.3873  -33.6136  -20.0477 N   0  0  0  0  0  0  0  0  0  0  0  0
  -26.9268  -32.8567  -21.0976 C   0  0  0  0  0  0  0  0  0  0  0  0
  -27.3775  -31.6211  -20.9992 N   0  0  0  0  0  0  0  0  0  0  0  0
  -26.0651  -33.3443  -22.2187 C   0  0  0  0  0  0  0  0  0  0  0  0
  -25.0455  -34.3941  -21.7970 C   0  0  0  0  0  0  0  0  0  0  0  0
  -25.6321  -35.8015  -21.6765 C   0  0  0  0  0  0  0  0  0  0  0  0
  -27.0099  -35.8922  -21.0187 C   0  0  0  0  0  0  0  0  0  0  0  0
  -27.1531  -35.0199  -19.7772 C   0  0  0  0  0  0  0  0  0  0  0  0
  -29.3169  -30.2772  -17.0107 C   0  0  0  0  0  0  0  0  0  0  0  0
  -28.9442  -29.7759  -15.6319 C   0  0  0  0  0  0  0  0  0  0  0  0
  -27.4829  -30.0881  -15.3878 C   0  0  0  0  0  0  0  0  0  0  0  0
  1  2  1  0
  2  3  1  0
  3  4  2  0
  4  5  1  0
  5  6  2  0
  6  7  1  0
  7  8  2  0
  8  9  1  0
  9 10  1  0
 10 11  1  0
 11 12  2  0
 12 13  1  0
 13 14  1  0
 14 15  2  0
 14 16  1  0
 16 17  1  0
 17 18  1  0
 18 19  1  0
 19 20  1  0
  9 21  1  0
 21 22  1  0
 22 23  1  0
  8  3  1  0
 15 11  1  0
 23  7  1  0
 20 13  1  0
M  END
>  <fragmenstein_mode>  (245) 
expansion

>  <name>  (245) 
GTYLWYSLFMUWSH-UHFFFAOYSA-N

>  <fragmenstein_runtime>  (245) 
5.021677

>  <HIPPO Compound ID>  (245) 
45669

>  <SLURM_JOB_NAME>  (245) 
BulkDock.place:Flavi_NS5_RdRp:RdRp_knitwork_green_site_rna_tunnel_impure_split4000_batch005

>  <ref_mols>  (245) 
d0378a,z0165a

>  <Multi-SuCOS>  (245) 
0.455475

>  <tags>  (245) 
['Fragmenstein placed', 'RdRp_knitwork_green_site_rna_tunnel_impure_fragalysis.sdf Pose OK']

>  <scratch_subdir>  (245) 
/opt/xchem-fragalysis-2/maxwin/BulkDock/SCRATCH/220456/C45669-P1

>  <energy_score>  (245) 
-51.278708

>  <fragmenstein_error>  (245) 
None

>  <csv_name>  (245) 
RdRp_knitwork_green_site_rna_tunnel_impure_split4000_batch005.csv

>  <merge_set>  (245) 
RdRp_knitwork_green_site_rna_tunnel_impure_fragalysis.sdf

>  <original ID>  (245) 
GTYLWYSLFMUWSH-UHFFFAOYSA-N

>  <HIPPO Pose ID>  (245) 
195605

>  <fragmenstein_outcome>  (245) 
acceptable

>  <exports>  (245) 
['/opt/xchem-fragalysis-2/maxwin/BulkDock/OUTPUTS/RdRp_knitwork_green_site_rna_tunnel_impure_split4000_batch005_220456.sdf', '/opt/xchem-fragalysis-2/maxwin/BulkDock/OUTPUTS/RdRp_knitwork_green_site_rna_tunnel_impure_fragalysis.sdf']

>  <SLURM_JOB_ID>  (245) 
220456

>  <distance_score>  (245) 
0.968468

>  <original SMILES>  (245) 
COc1cccc2c1N(Cc1cn3c(n1)CCCCC3)CCC2

>  <alias>  (245) 
None

>  <ref_pdb>  (245) 
d0378a

>  <inchikey>  (245) 
GTYLWYSLFMUWSH-UHFFFAOYSA-N

$$$$
NEXIQAMCCUEKLW-UHFFFAOYSA-N
     RDKit          3D

 22 25  0  0  0  0  0  0  0  0999 V2000
  -23.2278  -28.5221  -16.4923 C   0  0  0  0  0  0  0  0  0  0  0  0
  -24.6318  -28.7720  -16.9208 C   0  0  0  0  0  0  0  0  0  0  0  0
  -25.0753  -28.4237  -18.1942 C   0  0  0  0  0  0  0  0  0  0  0  0
  -26.3912  -28.6956  -18.5698 C   0  0  0  0  0  0  0  0  0  0  0  0
  -27.2994  -29.3093  -17.6902 C   0  0  0  0  0  0  0  0  0  0  0  0
  -26.8558  -29.5787  -16.3830 C   0  0  0  0  0  0  0  0  0  0  0  0
  -25.5300  -29.3299  -16.0148 C   0  0  0  0  0  0  0  0  0  0  0  0
  -27.7736  -30.1955  -15.3661 C   0  0  0  0  0  0  0  0  0  0  0  0
  -29.2073  -29.8208  -15.6804 C   0  0  0  0  0  0  0  0  0  0  0  0
  -29.5161  -30.2177  -17.1122 C   0  0  0  0  0  0  0  0  0  0  0  0
  -28.6107  -29.5969  -18.0822 N   0  0  0  0  0  0  0  0  0  0  0  0
  -28.7835  -30.0820  -19.4679 C   0  0  0  0  0  0  0  0  0  0  0  0
  -28.0946  -31.3647  -19.8685 C   0  0  0  0  0  0  0  0  0  0  0  0
  -28.2513  -32.6350  -19.3502 C   0  0  0  0  0  0  0  0  0  0  0  0
  -27.4375  -33.4394  -20.0925 N   0  0  0  0  0  0  0  0  0  0  0  0
  -26.8019  -32.6554  -21.0182 C   0  0  0  0  0  0  0  0  0  0  0  0
  -27.1834  -31.3977  -20.9071 N   0  0  0  0  0  0  0  0  0  0  0  0
  -25.8428  -33.1955  -22.0178 C   0  0  0  0  0  0  0  0  0  0  0  0
  -26.4871  -34.2118  -22.9581 C   0  0  0  0  0  0  0  0  0  0  0  0
  -26.7003  -35.5919  -22.3308 C   0  0  0  0  0  0  0  0  0  0  0  0
  -27.7300  -35.6383  -21.1994 C   0  0  0  0  0  0  0  0  0  0  0  0
  -27.3051  -34.8743  -19.9480 C   0  0  0  0  0  0  0  0  0  0  0  0
  1  2  1  0
  2  3  2  0
  3  4  1  0
  4  5  2  0
  5  6  1  0
  6  7  2  0
  6  8  1  0
  8  9  1  0
  9 10  1  0
 10 11  1  0
 11 12  1  0
 12 13  1  0
 13 14  2  0
 14 15  1  0
 15 16  1  0
 16 17  2  0
 16 18  1  0
 18 19  1  0
 19 20  1  0
 20 21  1  0
 21 22  1  0
  7  2  1  0
 17 13  1  0
 11  5  1  0
 22 15  1  0
M  END
>  <fragmenstein_mode>  (246) 
expansion

>  <name>  (246) 
NEXIQAMCCUEKLW-UHFFFAOYSA-N

>  <fragmenstein_runtime>  (246) 
3.439923

>  <HIPPO Compound ID>  (246) 
45740

>  <SLURM_JOB_NAME>  (246) 
BulkDock.place:Flavi_NS5_RdRp:RdRp_knitwork_green_site_rna_tunnel_impure_split4000_batch005

>  <ref_mols>  (246) 
d0378a,z0165a

>  <Multi-SuCOS>  (246) 
0.426139

>  <tags>  (246) 
['Fragmenstein placed', 'RdRp_knitwork_green_site_rna_tunnel_impure_fragalysis.sdf Pose OK']

>  <scratch_subdir>  (246) 
/opt/xchem-fragalysis-2/maxwin/BulkDock/SCRATCH/220456/C45740-P1

>  <energy_score>  (246) 
-42.487835

>  <fragmenstein_error>  (246) 
None

>  <csv_name>  (246) 
RdRp_knitwork_green_site_rna_tunnel_impure_split4000_batch005.csv

>  <merge_set>  (246) 
RdRp_knitwork_green_site_rna_tunnel_impure_fragalysis.sdf

>  <original ID>  (246) 
NEXIQAMCCUEKLW-UHFFFAOYSA-N

>  <HIPPO Pose ID>  (246) 
195626

>  <fragmenstein_outcome>  (246) 
acceptable

>  <exports>  (246) 
['/opt/xchem-fragalysis-2/maxwin/BulkDock/OUTPUTS/RdRp_knitwork_green_site_rna_tunnel_impure_split4000_batch005_220456.sdf', '/opt/xchem-fragalysis-2/maxwin/BulkDock/OUTPUTS/RdRp_knitwork_green_site_rna_tunnel_impure_fragalysis.sdf']

>  <SLURM_JOB_ID>  (246) 
220456

>  <distance_score>  (246) 
0.842648

>  <original SMILES>  (246) 
Cc1ccc2c(c1)CCCN2Cc1cn2c(n1)CCCCC2

>  <alias>  (246) 
None

>  <ref_pdb>  (246) 
d0378a

>  <inchikey>  (246) 
NEXIQAMCCUEKLW-UHFFFAOYSA-N

$$$$
VVLGHWUWZPEXOV-UHFFFAOYSA-N
     RDKit          3D

 20 23  0  0  0  0  0  0  0  0999 V2000
  -24.2628  -29.6941  -15.3821 C   0  0  0  0  0  0  0  0  0  0  0  0
  -25.1377  -29.1505  -16.4795 C   0  0  0  0  0  0  0  0  0  0  0  0
  -24.5370  -28.2841  -17.4038 C   0  0  0  0  0  0  0  0  0  0  0  0
  -25.2469  -27.8127  -18.4966 C   0  0  0  0  0  0  0  0  0  0  0  0
  -26.5445  -28.2624  -18.7127 C   0  0  0  0  0  0  0  0  0  0  0  0
  -27.1689  -29.1753  -17.8460 C   0  0  0  0  0  0  0  0  0  0  0  0
  -26.4877  -29.5314  -16.6601 C   0  0  0  0  0  0  0  0  0  0  0  0
  -27.2110  -30.3530  -15.6192 C   0  0  0  0  0  0  0  0  0  0  0  0
  -28.7185  -30.1925  -15.7562 C   0  0  0  0  0  0  0  0  0  0  0  0
  -29.1135  -30.5425  -17.1757 C   0  0  0  0  0  0  0  0  0  0  0  0
  -28.4284  -29.7011  -18.1553 N   0  0  0  0  0  0  0  0  0  0  0  0
  -28.7042  -30.0151  -19.5651 C   0  0  0  0  0  0  0  0  0  0  0  0
  -27.6966  -30.8316  -20.3114 C   0  0  0  0  0  0  0  0  0  0  0  0
  -26.8073  -30.4821  -21.3236 C   0  0  0  0  0  0  0  0  0  0  0  0
  -26.1010  -31.5684  -21.8058 N   0  0  0  0  0  0  0  0  0  0  0  0
  -26.5202  -32.5563  -21.0619 C   0  0  0  0  0  0  0  0  0  0  0  0
  -27.4509  -32.1517  -20.1505 N   0  0  0  0  0  0  0  0  0  0  0  0
  -27.9209  -33.2400  -19.3208 C   0  0  0  0  0  0  0  0  0  0  0  0
  -27.4571  -34.4770  -20.1100 C   0  0  0  0  0  0  0  0  0  0  0  0
  -26.2536  -34.0042  -20.9591 C   0  0  0  0  0  0  0  0  0  0  0  0
  1  2  1  0
  2  3  2  0
  3  4  1  0
  4  5  2  0
  5  6  1  0
  6  7  2  0
  7  8  1  0
  8  9  1  0
  9 10  1  0
 10 11  1  0
 11 12  1  0
 12 13  1  0
 13 14  2  0
 14 15  1  0
 15 16  2  0
 16 17  1  0
 17 18  1  0
 18 19  1  0
 19 20  1  0
  7  2  1  0
 17 13  1  0
 11  6  1  0
 20 16  1  0
M  END
>  <fragmenstein_mode>  (247) 
expansion

>  <name>  (247) 
VVLGHWUWZPEXOV-UHFFFAOYSA-N

>  <fragmenstein_runtime>  (247) 
4.330675

>  <HIPPO Compound ID>  (247) 
46528

>  <SLURM_JOB_NAME>  (247) 
BulkDock.place:Flavi_NS5_RdRp:RdRp_knitwork_green_site_rna_tunnel_impure_split4000_batch005

>  <ref_mols>  (247) 
d0378a,z0165a

>  <Multi-SuCOS>  (247) 
0.514707

>  <tags>  (247) 
['Fragmenstein placed', 'RdRp_knitwork_green_site_rna_tunnel_impure_fragalysis.sdf Pose OK']

>  <scratch_subdir>  (247) 
/opt/xchem-fragalysis-2/maxwin/BulkDock/SCRATCH/220456/C46528-P1

>  <energy_score>  (247) 
-32.094497

>  <fragmenstein_error>  (247) 
None

>  <csv_name>  (247) 
RdRp_knitwork_green_site_rna_tunnel_impure_split4000_batch005.csv

>  <merge_set>  (247) 
RdRp_knitwork_green_site_rna_tunnel_impure_fragalysis.sdf

>  <original ID>  (247) 
VVLGHWUWZPEXOV-UHFFFAOYSA-N

>  <HIPPO Pose ID>  (247) 
196042

>  <fragmenstein_outcome>  (247) 
acceptable

>  <exports>  (247) 
['/opt/xchem-fragalysis-2/maxwin/BulkDock/OUTPUTS/RdRp_knitwork_green_site_rna_tunnel_impure_split4000_batch005_220456.sdf', '/opt/xchem-fragalysis-2/maxwin/BulkDock/OUTPUTS/RdRp_knitwork_green_site_rna_tunnel_impure_fragalysis.sdf']

>  <SLURM_JOB_ID>  (247) 
220456

>  <distance_score>  (247) 
0.798601

>  <original SMILES>  (247) 
Cc1cccc2c1CCCN2Cc1cnc2n1CCC2

>  <alias>  (247) 
None

>  <ref_pdb>  (247) 
d0378a

>  <inchikey>  (247) 
VVLGHWUWZPEXOV-UHFFFAOYSA-N

$$$$
VVLGHWUWZPEXOV-UHFFFAOYSA-N
     RDKit          3D

 20 23  0  0  0  0  0  0  0  0999 V2000
  -24.9299  -29.4541  -15.4151 C   0  0  0  0  0  0  0  0  0  0  0  0
  -25.6869  -29.0997  -16.6657 C   0  0  0  0  0  0  0  0  0  0  0  0
  -25.1203  -28.1991  -17.5715 C   0  0  0  0  0  0  0  0  0  0  0  0
  -25.7784  -27.8572  -18.7432 C   0  0  0  0  0  0  0  0  0  0  0  0
  -27.0264  -28.4109  -19.0197 C   0  0  0  0  0  0  0  0  0  0  0  0
  -27.6593  -29.2956  -18.1328 C   0  0  0  0  0  0  0  0  0  0  0  0
  -26.9684  -29.6239  -16.9386 C   0  0  0  0  0  0  0  0  0  0  0  0
  -27.6429  -30.5660  -15.9726 C   0  0  0  0  0  0  0  0  0  0  0  0
  -29.1111  -30.1984  -15.9102 C   0  0  0  0  0  0  0  0  0  0  0  0
  -29.7609  -30.2850  -17.2787 C   0  0  0  0  0  0  0  0  0  0  0  0
  -28.9206  -29.8242  -18.3828 N   0  0  0  0  0  0  0  0  0  0  0  0
  -29.5526  -29.7848  -19.7011 C   0  0  0  0  0  0  0  0  0  0  0  0
  -29.0146  -30.7367  -20.7001 C   0  0  0  0  0  0  0  0  0  0  0  0
  -28.0160  -30.5995  -21.6525 C   0  0  0  0  0  0  0  0  0  0  0  0
  -27.8813  -31.7298  -22.4299 N   0  0  0  0  0  0  0  0  0  0  0  0
  -28.7699  -32.5514  -21.9354 C   0  0  0  0  0  0  0  0  0  0  0  0
  -29.4636  -31.9949  -20.8980 N   0  0  0  0  0  0  0  0  0  0  0  0
  -30.4639  -32.8692  -20.3045 C   0  0  0  0  0  0  0  0  0  0  0  0
  -30.2448  -34.2447  -21.1240 C   0  0  0  0  0  0  0  0  0  0  0  0
  -29.2018  -33.9265  -22.2519 C   0  0  0  0  0  0  0  0  0  0  0  0
  1  2  1  0
  2  3  2  0
  3  4  1  0
  4  5  2  0
  5  6  1  0
  6  7  2  0
  7  8  1  0
  8  9  1  0
  9 10  1  0
 10 11  1  0
 11 12  1  0
 12 13  1  0
 13 14  2  0
 14 15  1  0
 15 16  2  0
 16 17  1  0
 17 18  1  0
 18 19  1  0
 19 20  1  0
  7  2  1  0
 17 13  1  0
 11  6  1  0
 20 16  1  0
M  END
>  <fragmenstein_mode>  (248) 
expansion

>  <name>  (248) 
VVLGHWUWZPEXOV-UHFFFAOYSA-N

>  <fragmenstein_runtime>  (248) 
3.074444

>  <HIPPO Compound ID>  (248) 
46528

>  <SLURM_JOB_NAME>  (248) 
BulkDock.place:Flavi_NS5_RdRp:RdRp_knitwork_green_site_rna_tunnel_impure_split4000_batch005

>  <ref_mols>  (248) 
d0378a,z0165a

>  <Multi-SuCOS>  (248) 
0.509405

>  <tags>  (248) 
['Fragmenstein placed', 'RdRp_knitwork_green_site_rna_tunnel_impure_fragalysis.sdf Pose OK']

>  <scratch_subdir>  (248) 
/opt/xchem-fragalysis-2/maxwin/BulkDock/SCRATCH/220456/C46528-P3

>  <energy_score>  (248) 
-23.517037

>  <fragmenstein_error>  (248) 
None

>  <csv_name>  (248) 
RdRp_knitwork_green_site_rna_tunnel_impure_split4000_batch005.csv

>  <merge_set>  (248) 
RdRp_knitwork_green_site_rna_tunnel_impure_fragalysis.sdf

>  <original ID>  (248) 
VVLGHWUWZPEXOV-UHFFFAOYSA-N

>  <HIPPO Pose ID>  (248) 
196055

>  <fragmenstein_outcome>  (248) 
acceptable

>  <exports>  (248) 
['/opt/xchem-fragalysis-2/maxwin/BulkDock/OUTPUTS/RdRp_knitwork_green_site_rna_tunnel_impure_split4000_batch005_220456.sdf', '/opt/xchem-fragalysis-2/maxwin/BulkDock/OUTPUTS/RdRp_knitwork_green_site_rna_tunnel_impure_fragalysis.sdf']

>  <SLURM_JOB_ID>  (248) 
220456

>  <distance_score>  (248) 
0.735526

>  <original SMILES>  (248) 
Cc1cccc2c1CCCN2Cc1cnc2n1CCC2

>  <alias>  (248) 
None

>  <ref_pdb>  (248) 
z0165a

>  <inchikey>  (248) 
VVLGHWUWZPEXOV-UHFFFAOYSA-N

$$$$
LKUMVTLLZXTOIO-CHWSQXEVSA-N
     RDKit          3D

 20 22  0  0  0  0  0  0  0  0999 V2000
  -24.7468  -34.2180  -23.7502 C   0  0  0  0  0  0  0  0  0  0  0  0
  -23.4051  -33.5613  -23.4116 C   0  0  1  0  0  0  0  0  0  0  0  0
  -23.5592  -32.1202  -23.1283 N   0  0  0  0  0  0  0  0  0  0  0  0
  -24.3947  -31.8856  -21.9489 C   0  0  0  0  0  0  0  0  0  0  0  0
  -24.0489  -30.5492  -21.3001 C   0  0  0  0  0  0  0  0  0  0  0  0
  -25.1455  -30.1091  -20.3356 C   0  0  2  0  0  0  0  0  0  0  0  0
  -25.5219  -31.1628  -19.2769 C   0  0  0  0  0  0  0  0  0  0  0  0
  -26.6434  -30.7154  -18.5007 O   0  0  0  0  0  0  0  0  0  0  0  0
  -27.7572  -30.4350  -19.3576 C   0  0  0  0  0  0  0  0  0  0  0  0
  -27.3755  -29.3383  -20.3379 C   0  0  0  0  0  0  0  0  0  0  0  0
  -26.2866  -29.7780  -21.1514 O   0  0  0  0  0  0  0  0  0  0  0  0
  -22.6313  -34.2503  -22.3182 C   0  0  0  0  0  0  0  0  0  0  0  0
  -22.7982  -35.5544  -21.8813 C   0  0  0  0  0  0  0  0  0  0  0  0
  -21.8812  -35.8847  -20.9420 O   0  0  0  0  0  0  0  0  0  0  0  0
  -21.1027  -34.7929  -20.7418 C   0  0  0  0  0  0  0  0  0  0  0  0
  -20.0179  -34.7303  -19.8707 C   0  0  0  0  0  0  0  0  0  0  0  0
  -19.3337  -33.5119  -19.8077 C   0  0  0  0  0  0  0  0  0  0  0  0
  -19.7348  -32.4200  -20.5789 C   0  0  0  0  0  0  0  0  0  0  0  0
  -20.8280  -32.5207  -21.4501 C   0  0  0  0  0  0  0  0  0  0  0  0
  -21.5300  -33.7413  -21.5426 C   0  0  0  0  0  0  0  0  0  0  0  0
  2  1  1  1
  2  3  1  0
  3  4  1  0
  4  5  1  0
  6  5  1  6
  6  7  1  0
  7  8  1  0
  8  9  1  0
  9 10  1  0
 10 11  1  0
  2 12  1  0
 12 13  2  0
 13 14  1  0
 14 15  1  0
 15 16  2  0
 16 17  1  0
 17 18  2  0
 18 19  1  0
 19 20  2  0
 11  6  1  0
 20 12  1  0
 20 15  1  0
M  END
>  <fragmenstein_mode>  (249) 
expansion

>  <name>  (249) 
LKUMVTLLZXTOIO-CHWSQXEVSA-N

>  <fragmenstein_runtime>  (249) 
5.982753

>  <HIPPO Compound ID>  (249) 
27088

>  <SLURM_JOB_NAME>  (249) 
BulkDock.place:Flavi_NS5_RdRp:RdRp_knitwork_green_site_rna_tunnel_impure_split4000_batch002

>  <ref_mols>  (249) 
z0521a,3vws-b

>  <Multi-SuCOS>  (249) 
0.691355

>  <tags>  (249) 
['Fragmenstein placed', 'RdRp_knitwork_green_site_rna_tunnel_impure_fragalysis.sdf Pose OK']

>  <scratch_subdir>  (249) 
/opt/xchem-fragalysis-2/maxwin/BulkDock/SCRATCH/220453/C27088-P217

>  <energy_score>  (249) 
-42.62793

>  <fragmenstein_error>  (249) 
None

>  <csv_name>  (249) 
RdRp_knitwork_green_site_rna_tunnel_impure_split4000_batch002.csv

>  <merge_set>  (249) 
RdRp_knitwork_green_site_rna_tunnel_impure_fragalysis.sdf

>  <original ID>  (249) 
LKUMVTLLZXTOIO-CHWSQXEVSA-N

>  <HIPPO Pose ID>  (249) 
196289

>  <fragmenstein_outcome>  (249) 
acceptable

>  <exports>  (249) 
['/opt/xchem-fragalysis-2/maxwin/BulkDock/OUTPUTS/RdRp_knitwork_green_site_rna_tunnel_impure_split4000_batch002_220453.sdf', '/opt/xchem-fragalysis-2/maxwin/BulkDock/OUTPUTS/RdRp_knitwork_green_site_rna_tunnel_impure_fragalysis.sdf']

>  <SLURM_JOB_ID>  (249) 
220453

>  <distance_score>  (249) 
0.977256

>  <original SMILES>  (249) 
C[C@@H](NCC[C@@H]1COCCO1)c1coc2ccccc12

>  <alias>  (249) 
None

>  <ref_pdb>  (249) 
3vws-b

>  <inchikey>  (249) 
LKUMVTLLZXTOIO-CHWSQXEVSA-N

$$$$
LCYORUYVGXZFLD-UHFFFAOYSA-N
     RDKit          3D

 12 12  0  0  0  0  0  0  0  0999 V2000
  -25.7214  -31.5399  -22.3183 C   0  0  0  0  0  0  0  0  0  0  0  0
  -26.4971  -31.1539  -21.0918 C   0  0  0  0  0  0  0  0  0  0  0  0
  -26.8946  -31.9614  -20.2640 O   0  0  0  0  0  0  0  0  0  0  0  0
  -26.8397  -29.6834  -20.9484 C   0  0  0  0  0  0  0  0  0  0  0  0
  -26.1136  -28.8608  -21.4976 O   0  0  0  0  0  0  0  0  0  0  0  0
  -28.0910  -29.3391  -20.1804 C   0  0  0  0  0  0  0  0  0  0  0  0
  -28.0061  -29.5619  -18.6926 C   0  0  0  0  0  0  0  0  0  0  0  0
  -29.0803  -30.1387  -18.0058 C   0  0  0  0  0  0  0  0  0  0  0  0
  -28.9886  -30.2987  -16.6312 C   0  0  0  0  0  0  0  0  0  0  0  0
  -27.9140  -29.9336  -15.9030 N   0  0  0  0  0  0  0  0  0  0  0  0
  -26.8912  -29.3758  -16.5824 C   0  0  0  0  0  0  0  0  0  0  0  0
  -26.8937  -29.1555  -17.9518 C   0  0  0  0  0  0  0  0  0  0  0  0
  1  2  1  0
  2  3  2  0
  2  4  1  0
  4  5  2  0
  4  6  1  0
  6  7  1  0
  7  8  2  0
  8  9  1  0
  9 10  2  0
 10 11  1  0
 11 12  2  0
 12  7  1  0
M  END
>  <fragmenstein_mode>  (250) 
expansion

>  <name>  (250) 
LCYORUYVGXZFLD-UHFFFAOYSA-N

>  <fragmenstein_runtime>  (250) 
2.044814

>  <HIPPO Compound ID>  (250) 
52352

>  <SLURM_JOB_NAME>  (250) 
BulkDock.place:Flavi_NS5_RdRp:RdRp_knitwork_green_site_rna_tunnel_impure_split4000_batch011

>  <ref_mols>  (250) 
d0472b,z0628a

>  <Multi-SuCOS>  (250) 
0.61379

>  <tags>  (250) 
['Fragmenstein placed', 'RdRp_knitwork_green_site_rna_tunnel_impure_fragalysis.sdf Pose OK']

>  <scratch_subdir>  (250) 
/opt/xchem-fragalysis-2/maxwin/BulkDock/SCRATCH/220462/C52352-P150

>  <energy_score>  (250) 
-65.661226

>  <fragmenstein_error>  (250) 
None

>  <csv_name>  (250) 
RdRp_knitwork_green_site_rna_tunnel_impure_split4000_batch011.csv

>  <merge_set>  (250) 
RdRp_knitwork_green_site_rna_tunnel_impure_fragalysis.sdf

>  <original ID>  (250) 
LCYORUYVGXZFLD-UHFFFAOYSA-N

>  <HIPPO Pose ID>  (250) 
196340

>  <fragmenstein_outcome>  (250) 
acceptable

>  <exports>  (250) 
['/opt/xchem-fragalysis-2/maxwin/BulkDock/OUTPUTS/RdRp_knitwork_green_site_rna_tunnel_impure_split4000_batch011_220462.sdf', '/opt/xchem-fragalysis-2/maxwin/BulkDock/OUTPUTS/RdRp_knitwork_green_site_rna_tunnel_impure_fragalysis.sdf']

>  <SLURM_JOB_ID>  (250) 
220462

>  <distance_score>  (250) 
0.76417

>  <original SMILES>  (250) 
CC(=O)C(=O)Cc1ccncc1

>  <alias>  (250) 
None

>  <ref_pdb>  (250) 
z0628a

>  <inchikey>  (250) 
LCYORUYVGXZFLD-UHFFFAOYSA-N

$$$$
SNWIITIDKVFTEG-LLVKDONJSA-N
     RDKit          3D

 14 14  0  0  0  0  0  0  0  0999 V2000
  -21.0779  -32.1804  -17.5981 C   0  0  0  0  0  0  0  0  0  0  0  0
  -22.5627  -31.8439  -17.5293 C   0  0  0  0  0  0  0  0  0  0  0  0
  -23.3879  -32.3712  -18.7287 C   0  0  2  0  0  0  0  0  0  0  0  0
  -22.9167  -31.8261  -20.0876 C   0  0  0  0  0  0  0  0  0  0  0  0
  -24.8912  -32.0196  -18.5186 C   0  0  0  0  0  0  0  0  0  0  0  0
  -25.1701  -30.5767  -18.6436 N   0  0  0  0  0  0  0  0  0  0  0  0
  -26.4306  -30.2665  -18.1137 C   0  0  0  0  0  0  0  0  0  0  0  0
  -26.6240  -30.1664  -16.7399 C   0  0  0  0  0  0  0  0  0  0  0  0
  -27.9006  -29.8958  -16.2548 C   0  0  0  0  0  0  0  0  0  0  0  0
  -28.9448  -29.7416  -17.1557 C   0  0  0  0  0  0  0  0  0  0  0  0
  -28.6590  -29.8492  -18.5067 C   0  0  0  0  0  0  0  0  0  0  0  0
  -27.4265  -30.0986  -19.0010 N   0  0  0  0  0  0  0  0  0  0  0  0
  -23.2122  -33.7976  -18.8925 O   0  0  0  0  0  0  0  0  0  0  0  0
  -23.4080  -34.6134  -17.7547 C   0  0  0  0  0  0  0  0  0  0  0  0
  1  2  1  0
  2  3  1  0
  3  4  1  6
  3  5  1  0
  5  6  1  0
  6  7  1  0
  7  8  2  0
  8  9  1  0
  9 10  2  0
 10 11  1  0
 11 12  2  0
  3 13  1  0
 13 14  1  0
 12  7  1  0
M  END
>  <fragmenstein_mode>  (251) 
expansion

>  <name>  (251) 
SNWIITIDKVFTEG-LLVKDONJSA-N

>  <fragmenstein_runtime>  (251) 
1.508548

>  <HIPPO Compound ID>  (251) 
53282

>  <SLURM_JOB_NAME>  (251) 
BulkDock.place:Flavi_NS5_RdRp:RdRp_knitwork_green_site_rna_tunnel_impure_split4000_batch001

>  <ref_mols>  (251) 
z0384a,z0637a

>  <Multi-SuCOS>  (251) 
0.680422

>  <tags>  (251) 
['Fragmenstein placed', 'RdRp_knitwork_green_site_rna_tunnel_impure_fragalysis.sdf Pose OK']

>  <scratch_subdir>  (251) 
/opt/xchem-fragalysis-2/maxwin/BulkDock/SCRATCH/220452/C53282-P120

>  <energy_score>  (251) 
-45.18641

>  <fragmenstein_error>  (251) 
None

>  <csv_name>  (251) 
RdRp_knitwork_green_site_rna_tunnel_impure_split4000_batch001.csv

>  <merge_set>  (251) 
RdRp_knitwork_green_site_rna_tunnel_impure_fragalysis.sdf

>  <original ID>  (251) 
SNWIITIDKVFTEG-LLVKDONJSA-N

>  <HIPPO Pose ID>  (251) 
196489

>  <fragmenstein_outcome>  (251) 
acceptable

>  <exports>  (251) 
['/opt/xchem-fragalysis-2/maxwin/BulkDock/OUTPUTS/RdRp_knitwork_green_site_rna_tunnel_impure_split4000_batch001_220452.sdf', '/opt/xchem-fragalysis-2/maxwin/BulkDock/OUTPUTS/RdRp_knitwork_green_site_rna_tunnel_impure_fragalysis.sdf']

>  <SLURM_JOB_ID>  (251) 
220452

>  <distance_score>  (251) 
0.911356

>  <original SMILES>  (251) 
CC[C@](C)(CNc1ccccn1)OC

>  <alias>  (251) 
None

>  <ref_pdb>  (251) 
z0384a

>  <inchikey>  (251) 
SNWIITIDKVFTEG-LLVKDONJSA-N

$$$$
SNWIITIDKVFTEG-LLVKDONJSA-N
     RDKit          3D

 14 14  0  0  0  0  0  0  0  0999 V2000
  -21.8034  -32.2489  -16.7943 C   0  0  0  0  0  0  0  0  0  0  0  0
  -23.0117  -31.5744  -17.4267 C   0  0  0  0  0  0  0  0  0  0  0  0
  -23.4598  -32.0718  -18.8277 C   0  0  2  0  0  0  0  0  0  0  0  0
  -22.7849  -31.5371  -20.0966 C   0  0  0  0  0  0  0  0  0  0  0  0
  -24.9789  -31.7401  -18.9346 C   0  0  0  0  0  0  0  0  0  0  0  0
  -25.2705  -30.2909  -18.9495 N   0  0  0  0  0  0  0  0  0  0  0  0
  -26.5094  -30.0197  -18.3516 C   0  0  0  0  0  0  0  0  0  0  0  0
  -26.6399  -29.9642  -16.9685 C   0  0  0  0  0  0  0  0  0  0  0  0
  -27.8989  -29.7269  -16.4178 C   0  0  0  0  0  0  0  0  0  0  0  0
  -28.9850  -29.5527  -17.2628 C   0  0  0  0  0  0  0  0  0  0  0  0
  -28.7587  -29.6116  -18.6272 C   0  0  0  0  0  0  0  0  0  0  0  0
  -27.5473  -29.8308  -19.1864 N   0  0  0  0  0  0  0  0  0  0  0  0
  -23.3576  -33.4996  -18.8350 O   0  0  0  0  0  0  0  0  0  0  0  0
  -22.1157  -34.0879  -19.1996 C   0  0  0  0  0  0  0  0  0  0  0  0
  1  2  1  0
  2  3  1  0
  3  4  1  6
  3  5  1  0
  5  6  1  0
  6  7  1  0
  7  8  2  0
  8  9  1  0
  9 10  2  0
 10 11  1  0
 11 12  2  0
  3 13  1  0
 13 14  1  0
 12  7  1  0
M  END
>  <fragmenstein_mode>  (252) 
expansion

>  <name>  (252) 
SNWIITIDKVFTEG-LLVKDONJSA-N

>  <fragmenstein_runtime>  (252) 
1.829603

>  <HIPPO Compound ID>  (252) 
53282

>  <SLURM_JOB_NAME>  (252) 
BulkDock.place:Flavi_NS5_RdRp:RdRp_knitwork_green_site_rna_tunnel_impure_split4000_batch001

>  <ref_mols>  (252) 
z0384a,z0637a

>  <Multi-SuCOS>  (252) 
0.693032

>  <tags>  (252) 
['Fragmenstein placed', 'RdRp_knitwork_green_site_rna_tunnel_impure_fragalysis.sdf Pose OK']

>  <scratch_subdir>  (252) 
/opt/xchem-fragalysis-2/maxwin/BulkDock/SCRATCH/220452/C53282-P151

>  <energy_score>  (252) 
-35.493384

>  <fragmenstein_error>  (252) 
None

>  <csv_name>  (252) 
RdRp_knitwork_green_site_rna_tunnel_impure_split4000_batch001.csv

>  <merge_set>  (252) 
RdRp_knitwork_green_site_rna_tunnel_impure_fragalysis.sdf

>  <original ID>  (252) 
SNWIITIDKVFTEG-LLVKDONJSA-N

>  <HIPPO Pose ID>  (252) 
196494

>  <fragmenstein_outcome>  (252) 
acceptable

>  <exports>  (252) 
['/opt/xchem-fragalysis-2/maxwin/BulkDock/OUTPUTS/RdRp_knitwork_green_site_rna_tunnel_impure_split4000_batch001_220452.sdf', '/opt/xchem-fragalysis-2/maxwin/BulkDock/OUTPUTS/RdRp_knitwork_green_site_rna_tunnel_impure_fragalysis.sdf']

>  <SLURM_JOB_ID>  (252) 
220452

>  <distance_score>  (252) 
0.766824

>  <original SMILES>  (252) 
CC[C@](C)(CNc1ccccn1)OC

>  <alias>  (252) 
None

>  <ref_pdb>  (252) 
z0637a

>  <inchikey>  (252) 
SNWIITIDKVFTEG-LLVKDONJSA-N

$$$$
UXMDZSPXSZEEJJ-UHFFFAOYSA-N
     RDKit          3D

 12 12  0  0  0  0  0  0  0  0999 V2000
  -25.1255  -33.5341  -18.9287 C   0  0  0  0  0  0  0  0  0  0  0  0
  -25.8633  -33.3727  -20.0417 C   0  0  0  0  0  0  0  0  0  0  0  0
  -26.4813  -34.5472  -20.7476 C   0  0  0  0  0  0  0  0  0  0  0  0
  -25.9527  -32.0617  -20.7885 C   0  0  0  0  0  0  0  0  0  0  0  0
  -26.0561  -32.0686  -21.9511 O   0  0  0  0  0  0  0  0  0  0  0  0
  -25.7825  -30.8812  -19.8045 N   0  0  0  0  0  0  0  0  0  0  0  0
  -25.6162  -29.5339  -20.0429 C   0  0  0  0  0  0  0  0  0  0  0  0
  -25.3816  -29.0705  -21.3291 C   0  0  0  0  0  0  0  0  0  0  0  0
  -24.9336  -27.7619  -21.4965 C   0  0  0  0  0  0  0  0  0  0  0  0
  -24.8087  -26.9397  -20.3880 C   0  0  0  0  0  0  0  0  0  0  0  0
  -25.1292  -27.4689  -19.1502 C   0  0  0  0  0  0  0  0  0  0  0  0
  -25.5116  -28.7502  -18.9514 N   0  0  0  0  0  0  0  0  0  0  0  0
  1  2  2  0
  2  3  1  0
  2  4  1  0
  4  5  2  0
  4  6  1  0
  6  7  1  0
  7  8  2  0
  8  9  1  0
  9 10  2  0
 10 11  1  0
 11 12  2  0
 12  7  1  0
M  END
>  <fragmenstein_mode>  (253) 
expansion

>  <name>  (253) 
UXMDZSPXSZEEJJ-UHFFFAOYSA-N

>  <fragmenstein_runtime>  (253) 
1.800962

>  <HIPPO Compound ID>  (253) 
55657

>  <SLURM_JOB_NAME>  (253) 
BulkDock.place:Flavi_NS5_RdRp:RdRp_knitwork_green_site_rna_tunnel_impure_split4000_batch012

>  <ref_mols>  (253) 
d0472b,z0384a

>  <Multi-SuCOS>  (253) 
0.5804

>  <tags>  (253) 
['Fragmenstein placed', 'RdRp_knitwork_green_site_rna_tunnel_impure_fragalysis.sdf Pose OK']

>  <scratch_subdir>  (253) 
/opt/xchem-fragalysis-2/maxwin/BulkDock/SCRATCH/220463/C55657-P41

>  <energy_score>  (253) 
-250.281164

>  <fragmenstein_error>  (253) 
None

>  <csv_name>  (253) 
RdRp_knitwork_green_site_rna_tunnel_impure_split4000_batch012.csv

>  <merge_set>  (253) 
RdRp_knitwork_green_site_rna_tunnel_impure_fragalysis.sdf

>  <original ID>  (253) 
UXMDZSPXSZEEJJ-UHFFFAOYSA-N

>  <HIPPO Pose ID>  (253) 
196549

>  <fragmenstein_outcome>  (253) 
acceptable

>  <exports>  (253) 
['/opt/xchem-fragalysis-2/maxwin/BulkDock/OUTPUTS/RdRp_knitwork_green_site_rna_tunnel_impure_split4000_batch012_220463.sdf', '/opt/xchem-fragalysis-2/maxwin/BulkDock/OUTPUTS/RdRp_knitwork_green_site_rna_tunnel_impure_fragalysis.sdf']

>  <SLURM_JOB_ID>  (253) 
220463

>  <distance_score>  (253) 
0.794876

>  <original SMILES>  (253) 
C=C(C)C(=O)Nc1ccccn1

>  <alias>  (253) 
None

>  <ref_pdb>  (253) 
d0472b

>  <inchikey>  (253) 
UXMDZSPXSZEEJJ-UHFFFAOYSA-N

$$$$
ZTHISXNUAOFTJB-SNVBAGLBSA-N
     RDKit          3D

 23 25  0  0  0  0  0  0  0  0999 V2000
  -24.5596  -33.9366  -20.9674 C   0  0  0  0  0  0  0  0  0  0  0  0
  -23.4571  -33.0160  -21.4671 C   0  0  2  0  0  0  0  0  0  0  0  0
  -23.7420  -31.5652  -21.1345 C   0  0  0  0  0  0  0  0  0  0  0  0
  -24.9769  -30.9562  -21.8028 C   0  0  0  0  0  0  0  0  0  0  0  0
  -25.0179  -30.7253  -22.9502 O   0  0  0  0  0  0  0  0  0  0  0  0
  -26.0340  -30.6974  -20.6791 N   0  0  0  0  0  0  0  0  0  0  0  0
  -27.3146  -30.2181  -20.7573 C   0  0  0  0  0  0  0  0  0  0  0  0
  -27.9532  -29.9863  -21.9504 C   0  0  0  0  0  0  0  0  0  0  0  0
  -29.2267  -29.6285  -21.6408 N   0  0  0  0  0  0  0  0  0  0  0  0
  -29.4668  -29.6070  -20.3272 N   0  0  0  0  0  0  0  0  0  0  0  0
  -28.2886  -29.9162  -19.7612 C   0  0  0  0  0  0  0  0  0  0  0  0
  -28.1439  -29.9361  -18.1732 C   0  0  0  0  0  0  0  0  0  0  0  0
  -29.1958  -29.8360  -17.3812 N   0  0  0  0  0  0  0  0  0  0  0  0
  -28.8213  -30.0051  -16.0675 C   0  0  0  0  0  0  0  0  0  0  0  0
  -27.4709  -30.1502  -15.8508 C   0  0  0  0  0  0  0  0  0  0  0  0
  -26.6393  -30.0750  -17.3475 S   0  0  0  0  0  0  0  0  0  0  0  0
  -23.0028  -33.2298  -22.8497 N   0  0  0  0  0  0  0  0  0  0  0  0
  -21.5633  -33.0999  -23.0602 C   0  0  0  0  0  0  0  0  0  0  0  0
  -21.1075  -33.0623  -24.5038 C   0  0  0  0  0  0  0  0  0  0  0  0
  -21.8881  -34.0476  -25.3428 C   0  0  0  0  0  0  0  0  0  0  0  0
  -23.3500  -33.6895  -25.2657 C   0  0  0  0  0  0  0  0  0  0  0  0
  -23.8929  -33.5404  -23.8650 C   0  0  0  0  0  0  0  0  0  0  0  0
  -25.1045  -33.6712  -23.6924 O   0  0  0  0  0  0  0  0  0  0  0  0
  2  1  1  6
  2  3  1  0
  3  4  1  0
  4  5  2  0
  4  6  1  0
  6  7  1  0
  7  8  2  0
  8  9  1  0
  9 10  1  0
 10 11  2  0
 11 12  1  0
 12 13  2  0
 13 14  1  0
 14 15  2  0
 15 16  1  0
  2 17  1  0
 17 18  1  0
 18 19  1  0
 19 20  1  0
 20 21  1  0
 21 22  1  0
 22 23  2  0
 11  7  1  0
 16 12  1  0
 22 17  1  0
M  END
>  <fragmenstein_mode>  (254) 
expansion

>  <name>  (254) 
ZTHISXNUAOFTJB-SNVBAGLBSA-N

>  <fragmenstein_runtime>  (254) 
5.892197

>  <HIPPO Compound ID>  (254) 
23289

>  <SLURM_JOB_NAME>  (254) 
BulkDock.place:Flavi_NS5_RdRp:RdRp_knitwork_green_site_rna_tunnel_impure_split4000_batch014

>  <ref_mols>  (254) 
z0215a,z1018a

>  <Multi-SuCOS>  (254) 
0.739216

>  <tags>  (254) 
['Fragmenstein placed', 'RdRp_knitwork_green_site_rna_tunnel_impure_fragalysis.sdf Pose OK']

>  <scratch_subdir>  (254) 
/opt/xchem-fragalysis-2/maxwin/BulkDock/SCRATCH/220465/C23289-P104

>  <energy_score>  (254) 
-95.120887

>  <fragmenstein_error>  (254) 
None

>  <csv_name>  (254) 
RdRp_knitwork_green_site_rna_tunnel_impure_split4000_batch014.csv

>  <merge_set>  (254) 
RdRp_knitwork_green_site_rna_tunnel_impure_fragalysis.sdf

>  <original ID>  (254) 
ZTHISXNUAOFTJB-SNVBAGLBSA-N

>  <HIPPO Pose ID>  (254) 
196606

>  <fragmenstein_outcome>  (254) 
acceptable

>  <exports>  (254) 
['/opt/xchem-fragalysis-2/maxwin/BulkDock/OUTPUTS/RdRp_knitwork_green_site_rna_tunnel_impure_split4000_batch014_220465.sdf', '/opt/xchem-fragalysis-2/maxwin/BulkDock/OUTPUTS/RdRp_knitwork_green_site_rna_tunnel_impure_fragalysis.sdf']

>  <SLURM_JOB_ID>  (254) 
220465

>  <distance_score>  (254) 
0.923437

>  <original SMILES>  (254) 
C[C@H](CC(=O)Nc1c[nH]nc1-c1nccs1)N1CCCCC1=O

>  <alias>  (254) 
None

>  <ref_pdb>  (254) 
z0215a

>  <inchikey>  (254) 
ZTHISXNUAOFTJB-SNVBAGLBSA-N

$$$$
ZTHISXNUAOFTJB-SNVBAGLBSA-N
     RDKit          3D

 23 25  0  0  0  0  0  0  0  0999 V2000
  -24.5979  -34.0505  -21.2592 C   0  0  0  0  0  0  0  0  0  0  0  0
  -23.5565  -32.9875  -21.5901 C   0  0  2  0  0  0  0  0  0  0  0  0
  -24.0434  -31.6105  -21.1634 C   0  0  0  0  0  0  0  0  0  0  0  0
  -25.3492  -31.1389  -21.7965 C   0  0  0  0  0  0  0  0  0  0  0  0
  -25.4566  -30.9750  -22.9517 O   0  0  0  0  0  0  0  0  0  0  0  0
  -26.3574  -30.8526  -20.6346 N   0  0  0  0  0  0  0  0  0  0  0  0
  -27.5946  -30.2512  -20.6542 C   0  0  0  0  0  0  0  0  0  0  0  0
  -28.2207  -29.7842  -21.7812 C   0  0  0  0  0  0  0  0  0  0  0  0
  -29.4309  -29.3038  -21.3822 N   0  0  0  0  0  0  0  0  0  0  0  0
  -29.6377  -29.4180  -20.0674 N   0  0  0  0  0  0  0  0  0  0  0  0
  -28.4677  -29.8720  -19.5924 C   0  0  0  0  0  0  0  0  0  0  0  0
  -28.1701  -29.8790  -18.0370 C   0  0  0  0  0  0  0  0  0  0  0  0
  -29.1139  -29.6957  -17.1332 N   0  0  0  0  0  0  0  0  0  0  0  0
  -28.5712  -29.7628  -15.8701 C   0  0  0  0  0  0  0  0  0  0  0  0
  -27.2063  -29.9266  -15.8144 C   0  0  0  0  0  0  0  0  0  0  0  0
  -26.5752  -30.0323  -17.4021 S   0  0  0  0  0  0  0  0  0  0  0  0
  -22.9674  -33.0748  -22.9403 N   0  0  0  0  0  0  0  0  0  0  0  0
  -21.6906  -32.3902  -23.1518 C   0  0  0  0  0  0  0  0  0  0  0  0
  -20.7858  -33.0925  -24.1619 C   0  0  0  0  0  0  0  0  0  0  0  0
  -21.5482  -33.9685  -25.1423 C   0  0  0  0  0  0  0  0  0  0  0  0
  -22.9300  -33.3960  -25.3682 C   0  0  0  0  0  0  0  0  0  0  0  0
  -23.7230  -33.3674  -24.0753 C   0  0  0  0  0  0  0  0  0  0  0  0
  -24.9299  -33.5934  -24.0921 O   0  0  0  0  0  0  0  0  0  0  0  0
  2  1  1  6
  2  3  1  0
  3  4  1  0
  4  5  2  0
  4  6  1  0
  6  7  1  0
  7  8  2  0
  8  9  1  0
  9 10  1  0
 10 11  2  0
 11 12  1  0
 12 13  2  0
 13 14  1  0
 14 15  2  0
 15 16  1  0
  2 17  1  0
 17 18  1  0
 18 19  1  0
 19 20  1  0
 20 21  1  0
 21 22  1  0
 22 23  2  0
 11  7  1  0
 16 12  1  0
 22 17  1  0
M  END
>  <fragmenstein_mode>  (255) 
expansion

>  <name>  (255) 
ZTHISXNUAOFTJB-SNVBAGLBSA-N

>  <fragmenstein_runtime>  (255) 
6.914925

>  <HIPPO Compound ID>  (255) 
23289

>  <SLURM_JOB_NAME>  (255) 
BulkDock.place:Flavi_NS5_RdRp:RdRp_knitwork_green_site_rna_tunnel_impure_split4000_batch014

>  <ref_mols>  (255) 
z0215a,z1018a

>  <Multi-SuCOS>  (255) 
0.732563

>  <tags>  (255) 
['Fragmenstein placed', 'RdRp_knitwork_green_site_rna_tunnel_impure_fragalysis.sdf Pose OK']

>  <scratch_subdir>  (255) 
/opt/xchem-fragalysis-2/maxwin/BulkDock/SCRATCH/220465/C23289-P206

>  <energy_score>  (255) 
-91.16463

>  <fragmenstein_error>  (255) 
None

>  <csv_name>  (255) 
RdRp_knitwork_green_site_rna_tunnel_impure_split4000_batch014.csv

>  <merge_set>  (255) 
RdRp_knitwork_green_site_rna_tunnel_impure_fragalysis.sdf

>  <original ID>  (255) 
ZTHISXNUAOFTJB-SNVBAGLBSA-N

>  <HIPPO Pose ID>  (255) 
196624

>  <fragmenstein_outcome>  (255) 
acceptable

>  <exports>  (255) 
['/opt/xchem-fragalysis-2/maxwin/BulkDock/OUTPUTS/RdRp_knitwork_green_site_rna_tunnel_impure_split4000_batch014_220465.sdf', '/opt/xchem-fragalysis-2/maxwin/BulkDock/OUTPUTS/RdRp_knitwork_green_site_rna_tunnel_impure_fragalysis.sdf']

>  <SLURM_JOB_ID>  (255) 
220465

>  <distance_score>  (255) 
0.992799

>  <original SMILES>  (255) 
C[C@H](CC(=O)Nc1c[nH]nc1-c1nccs1)N1CCCCC1=O

>  <alias>  (255) 
None

>  <ref_pdb>  (255) 
z1018a

>  <inchikey>  (255) 
ZTHISXNUAOFTJB-SNVBAGLBSA-N

$$$$
MIWSTLAWHPJNFT-UHFFFAOYSA-N
     RDKit          3D

 15 15  0  0  0  0  0  0  0  0999 V2000
  -21.3911  -32.5304  -17.0307 C   0  0  0  0  0  0  0  0  0  0  0  0
  -22.9119  -32.6312  -16.9869 C   0  0  0  0  0  0  0  0  0  0  0  0
  -23.4557  -32.0721  -15.6701 C   0  0  0  0  0  0  0  0  0  0  0  0
  -23.5840  -31.9182  -18.1615 C   0  0  0  0  0  0  0  0  0  0  0  0
  -23.2839  -32.5205  -19.5311 C   0  0  0  0  0  0  0  0  0  0  0  0
  -23.9789  -31.7763  -20.5367 O   0  0  0  0  0  0  0  0  0  0  0  0
  -25.3521  -32.1489  -20.6972 C   0  0  0  0  0  0  0  0  0  0  0  0
  -26.1284  -30.9590  -21.2754 C   0  0  0  0  0  0  0  0  0  0  0  0
  -27.5158  -30.8886  -20.8004 N   0  0  0  0  0  0  0  0  0  0  0  0
  -27.8143  -30.4362  -19.5091 C   0  0  0  0  0  0  0  0  0  0  0  0
  -26.8498  -30.1418  -18.5461 C   0  0  0  0  0  0  0  0  0  0  0  0
  -27.2357  -29.8475  -17.2463 C   0  0  0  0  0  0  0  0  0  0  0  0
  -28.5131  -29.8193  -16.8318 N   0  0  0  0  0  0  0  0  0  0  0  0
  -29.4421  -30.0877  -17.7739 C   0  0  0  0  0  0  0  0  0  0  0  0
  -29.1480  -30.3984  -19.0972 C   0  0  0  0  0  0  0  0  0  0  0  0
  1  2  1  0
  2  3  1  0
  2  4  1  0
  4  5  1  0
  5  6  1  0
  6  7  1  0
  7  8  1  0
  8  9  1  0
  9 10  1  0
 10 11  2  0
 11 12  1  0
 12 13  2  0
 13 14  1  0
 14 15  2  0
 15 10  1  0
M  END
>  <fragmenstein_mode>  (256) 
expansion

>  <name>  (256) 
MIWSTLAWHPJNFT-UHFFFAOYSA-N

>  <fragmenstein_runtime>  (256) 
4.580264

>  <HIPPO Compound ID>  (256) 
54773

>  <SLURM_JOB_NAME>  (256) 
BulkDock.place:Flavi_NS5_RdRp:RdRp_knitwork_green_site_rna_tunnel_impure_split4000_batch001

>  <ref_mols>  (256) 
z0384a,z0637a

>  <Multi-SuCOS>  (256) 
0.582191

>  <tags>  (256) 
['Fragmenstein placed', 'RdRp_knitwork_green_site_rna_tunnel_impure_fragalysis.sdf Pose OK']

>  <scratch_subdir>  (256) 
/opt/xchem-fragalysis-2/maxwin/BulkDock/SCRATCH/220452/C54773-P120

>  <energy_score>  (256) 
-28.897389

>  <fragmenstein_error>  (256) 
None

>  <csv_name>  (256) 
RdRp_knitwork_green_site_rna_tunnel_impure_split4000_batch001.csv

>  <merge_set>  (256) 
RdRp_knitwork_green_site_rna_tunnel_impure_fragalysis.sdf

>  <original ID>  (256) 
MIWSTLAWHPJNFT-UHFFFAOYSA-N

>  <HIPPO Pose ID>  (256) 
196867

>  <fragmenstein_outcome>  (256) 
acceptable

>  <exports>  (256) 
['/opt/xchem-fragalysis-2/maxwin/BulkDock/OUTPUTS/RdRp_knitwork_green_site_rna_tunnel_impure_split4000_batch001_220452.sdf', '/opt/xchem-fragalysis-2/maxwin/BulkDock/OUTPUTS/RdRp_knitwork_green_site_rna_tunnel_impure_fragalysis.sdf']

>  <SLURM_JOB_ID>  (256) 
220452

>  <distance_score>  (256) 
0.989425

>  <original SMILES>  (256) 
CC(C)CCOCCNc1ccncc1

>  <alias>  (256) 
None

>  <ref_pdb>  (256) 
z0384a

>  <inchikey>  (256) 
MIWSTLAWHPJNFT-UHFFFAOYSA-N

$$$$
MIWSTLAWHPJNFT-UHFFFAOYSA-N
     RDKit          3D

 15 15  0  0  0  0  0  0  0  0999 V2000
  -21.4233  -32.7675  -17.2007 C   0  0  0  0  0  0  0  0  0  0  0  0
  -22.9338  -32.6293  -17.0481 C   0  0  0  0  0  0  0  0  0  0  0  0
  -23.2798  -31.9819  -15.7048 C   0  0  0  0  0  0  0  0  0  0  0  0
  -23.5886  -31.8391  -18.1849 C   0  0  0  0  0  0  0  0  0  0  0  0
  -23.2868  -32.3342  -19.5988 C   0  0  0  0  0  0  0  0  0  0  0  0
  -23.9050  -31.4577  -20.5567 O   0  0  0  0  0  0  0  0  0  0  0  0
  -25.2864  -31.7416  -20.7842 C   0  0  0  0  0  0  0  0  0  0  0  0
  -26.0126  -30.4890  -21.2994 C   0  0  0  0  0  0  0  0  0  0  0  0
  -27.4157  -30.4164  -20.8546 N   0  0  0  0  0  0  0  0  0  0  0  0
  -27.7233  -30.0673  -19.5314 C   0  0  0  0  0  0  0  0  0  0  0  0
  -26.7704  -29.9176  -18.5266 C   0  0  0  0  0  0  0  0  0  0  0  0
  -27.1723  -29.7008  -17.2180 C   0  0  0  0  0  0  0  0  0  0  0  0
  -28.4563  -29.6086  -16.8311 N   0  0  0  0  0  0  0  0  0  0  0  0
  -29.3723  -29.7427  -17.8129 C   0  0  0  0  0  0  0  0  0  0  0  0
  -29.0629  -29.9775  -19.1483 C   0  0  0  0  0  0  0  0  0  0  0  0
  1  2  1  0
  2  3  1  0
  2  4  1  0
  4  5  1  0
  5  6  1  0
  6  7  1  0
  7  8  1  0
  8  9  1  0
  9 10  1  0
 10 11  2  0
 11 12  1  0
 12 13  2  0
 13 14  1  0
 14 15  2  0
 15 10  1  0
M  END
>  <fragmenstein_mode>  (257) 
expansion

>  <name>  (257) 
MIWSTLAWHPJNFT-UHFFFAOYSA-N

>  <fragmenstein_runtime>  (257) 
5.244627

>  <HIPPO Compound ID>  (257) 
54773

>  <SLURM_JOB_NAME>  (257) 
BulkDock.place:Flavi_NS5_RdRp:RdRp_knitwork_green_site_rna_tunnel_impure_split4000_batch001

>  <ref_mols>  (257) 
z0384a,z0637a

>  <Multi-SuCOS>  (257) 
0.603916

>  <tags>  (257) 
['Fragmenstein placed', 'RdRp_knitwork_green_site_rna_tunnel_impure_fragalysis.sdf Pose OK']

>  <scratch_subdir>  (257) 
/opt/xchem-fragalysis-2/maxwin/BulkDock/SCRATCH/220452/C54773-P151

>  <energy_score>  (257) 
-28.5015

>  <fragmenstein_error>  (257) 
None

>  <csv_name>  (257) 
RdRp_knitwork_green_site_rna_tunnel_impure_split4000_batch001.csv

>  <merge_set>  (257) 
RdRp_knitwork_green_site_rna_tunnel_impure_fragalysis.sdf

>  <original ID>  (257) 
MIWSTLAWHPJNFT-UHFFFAOYSA-N

>  <HIPPO Pose ID>  (257) 
196874

>  <fragmenstein_outcome>  (257) 
acceptable

>  <exports>  (257) 
['/opt/xchem-fragalysis-2/maxwin/BulkDock/OUTPUTS/RdRp_knitwork_green_site_rna_tunnel_impure_split4000_batch001_220452.sdf', '/opt/xchem-fragalysis-2/maxwin/BulkDock/OUTPUTS/RdRp_knitwork_green_site_rna_tunnel_impure_fragalysis.sdf']

>  <SLURM_JOB_ID>  (257) 
220452

>  <distance_score>  (257) 
0.969189

>  <original SMILES>  (257) 
CC(C)CCOCCNc1ccncc1

>  <alias>  (257) 
None

>  <ref_pdb>  (257) 
z0637a

>  <inchikey>  (257) 
MIWSTLAWHPJNFT-UHFFFAOYSA-N

$$$$
YKHYHVCOTNOVNI-UHFFFAOYSA-N
     RDKit          3D

 14 14  0  0  0  0  0  0  0  0999 V2000
  -21.1363  -33.3441  -17.2254 C   0  0  0  0  0  0  0  0  0  0  0  0
  -22.2657  -32.3334  -17.1863 C   0  0  0  0  0  0  0  0  0  0  0  0
  -22.5627  -31.8822  -18.4944 O   0  0  0  0  0  0  0  0  0  0  0  0
  -23.7064  -32.4049  -19.1704 C   0  0  0  0  0  0  0  0  0  0  0  0
  -23.6657  -33.9393  -19.1985 C   0  0  0  0  0  0  0  0  0  0  0  0
  -23.6161  -31.9436  -20.6369 C   0  0  0  0  0  0  0  0  0  0  0  0
  -25.0409  -31.9345  -18.5282 C   0  0  0  0  0  0  0  0  0  0  0  0
  -25.2621  -30.4780  -18.6109 N   0  0  0  0  0  0  0  0  0  0  0  0
  -26.5172  -30.1721  -18.0612 C   0  0  0  0  0  0  0  0  0  0  0  0
  -26.6942  -30.0959  -16.6845 C   0  0  0  0  0  0  0  0  0  0  0  0
  -27.9710  -29.8654  -16.1807 C   0  0  0  0  0  0  0  0  0  0  0  0
  -29.0312  -29.7331  -17.0665 C   0  0  0  0  0  0  0  0  0  0  0  0
  -28.7614  -29.8200  -18.4221 C   0  0  0  0  0  0  0  0  0  0  0  0
  -27.5295  -30.0266  -18.9350 N   0  0  0  0  0  0  0  0  0  0  0  0
  1  2  1  0
  2  3  1  0
  3  4  1  0
  4  5  1  0
  4  6  1  0
  4  7  1  0
  7  8  1  0
  8  9  1  0
  9 10  2  0
 10 11  1  0
 11 12  2  0
 12 13  1  0
 13 14  2  0
 14  9  1  0
M  END
>  <fragmenstein_mode>  (258) 
expansion

>  <name>  (258) 
YKHYHVCOTNOVNI-UHFFFAOYSA-N

>  <fragmenstein_runtime>  (258) 
1.629299

>  <HIPPO Compound ID>  (258) 
55766

>  <SLURM_JOB_NAME>  (258) 
BulkDock.place:Flavi_NS5_RdRp:RdRp_knitwork_green_site_rna_tunnel_impure_split4000_batch001

>  <ref_mols>  (258) 
z0384a,z0637a

>  <Multi-SuCOS>  (258) 
0.762552

>  <tags>  (258) 
['Fragmenstein placed', 'RdRp_knitwork_green_site_rna_tunnel_impure_fragalysis.sdf Pose OK']

>  <scratch_subdir>  (258) 
/opt/xchem-fragalysis-2/maxwin/BulkDock/SCRATCH/220452/C55766-P120

>  <energy_score>  (258) 
-60.387049

>  <fragmenstein_error>  (258) 
None

>  <csv_name>  (258) 
RdRp_knitwork_green_site_rna_tunnel_impure_split4000_batch001.csv

>  <merge_set>  (258) 
RdRp_knitwork_green_site_rna_tunnel_impure_fragalysis.sdf

>  <original ID>  (258) 
YKHYHVCOTNOVNI-UHFFFAOYSA-N

>  <HIPPO Pose ID>  (258) 
197319

>  <fragmenstein_outcome>  (258) 
acceptable

>  <exports>  (258) 
['/opt/xchem-fragalysis-2/maxwin/BulkDock/OUTPUTS/RdRp_knitwork_green_site_rna_tunnel_impure_split4000_batch001_220452.sdf', '/opt/xchem-fragalysis-2/maxwin/BulkDock/OUTPUTS/RdRp_knitwork_green_site_rna_tunnel_impure_fragalysis.sdf']

>  <SLURM_JOB_ID>  (258) 
220452

>  <distance_score>  (258) 
0.89347

>  <original SMILES>  (258) 
CCOC(C)(C)CNc1ccccn1

>  <alias>  (258) 
None

>  <ref_pdb>  (258) 
z0384a

>  <inchikey>  (258) 
YKHYHVCOTNOVNI-UHFFFAOYSA-N

$$$$
YKHYHVCOTNOVNI-UHFFFAOYSA-N
     RDKit          3D

 14 14  0  0  0  0  0  0  0  0999 V2000
  -21.1456  -33.2798  -16.7956 C   0  0  0  0  0  0  0  0  0  0  0  0
  -22.3940  -32.4231  -16.8900 C   0  0  0  0  0  0  0  0  0  0  0  0
  -22.3884  -31.7107  -18.1191 O   0  0  0  0  0  0  0  0  0  0  0  0
  -23.2661  -32.1429  -19.1680 C   0  0  0  0  0  0  0  0  0  0  0  0
  -23.0148  -33.6174  -19.4550 C   0  0  0  0  0  0  0  0  0  0  0  0
  -22.9009  -31.4721  -20.5018 C   0  0  0  0  0  0  0  0  0  0  0  0
  -24.7489  -31.8366  -18.8088 C   0  0  0  0  0  0  0  0  0  0  0  0
  -25.0650  -30.3898  -18.8115 N   0  0  0  0  0  0  0  0  0  0  0  0
  -26.3211  -30.1144  -18.2613 C   0  0  0  0  0  0  0  0  0  0  0  0
  -26.5012  -30.0562  -16.8848 C   0  0  0  0  0  0  0  0  0  0  0  0
  -27.7709  -29.7731  -16.3802 C   0  0  0  0  0  0  0  0  0  0  0  0
  -28.8197  -29.5568  -17.2629 C   0  0  0  0  0  0  0  0  0  0  0  0
  -28.5470  -29.6266  -18.6179 C   0  0  0  0  0  0  0  0  0  0  0  0
  -27.3250  -29.8950  -19.1322 N   0  0  0  0  0  0  0  0  0  0  0  0
  1  2  1  0
  2  3  1  0
  3  4  1  0
  4  5  1  0
  4  6  1  0
  4  7  1  0
  7  8  1  0
  8  9  1  0
  9 10  2  0
 10 11  1  0
 11 12  2  0
 12 13  1  0
 13 14  2  0
 14  9  1  0
M  END
>  <fragmenstein_mode>  (259) 
expansion

>  <name>  (259) 
YKHYHVCOTNOVNI-UHFFFAOYSA-N

>  <fragmenstein_runtime>  (259) 
1.526097

>  <HIPPO Compound ID>  (259) 
55766

>  <SLURM_JOB_NAME>  (259) 
BulkDock.place:Flavi_NS5_RdRp:RdRp_knitwork_green_site_rna_tunnel_impure_split4000_batch001

>  <ref_mols>  (259) 
z0384a,z0637a

>  <Multi-SuCOS>  (259) 
0.74807

>  <tags>  (259) 
['Fragmenstein placed', 'RdRp_knitwork_green_site_rna_tunnel_impure_fragalysis.sdf Pose OK']

>  <scratch_subdir>  (259) 
/opt/xchem-fragalysis-2/maxwin/BulkDock/SCRATCH/220452/C55766-P151

>  <energy_score>  (259) 
-56.554191

>  <fragmenstein_error>  (259) 
None

>  <csv_name>  (259) 
RdRp_knitwork_green_site_rna_tunnel_impure_split4000_batch001.csv

>  <merge_set>  (259) 
RdRp_knitwork_green_site_rna_tunnel_impure_fragalysis.sdf

>  <original ID>  (259) 
YKHYHVCOTNOVNI-UHFFFAOYSA-N

>  <HIPPO Pose ID>  (259) 
197328

>  <fragmenstein_outcome>  (259) 
acceptable

>  <exports>  (259) 
['/opt/xchem-fragalysis-2/maxwin/BulkDock/OUTPUTS/RdRp_knitwork_green_site_rna_tunnel_impure_split4000_batch001_220452.sdf', '/opt/xchem-fragalysis-2/maxwin/BulkDock/OUTPUTS/RdRp_knitwork_green_site_rna_tunnel_impure_fragalysis.sdf']

>  <SLURM_JOB_ID>  (259) 
220452

>  <distance_score>  (259) 
0.824212

>  <original SMILES>  (259) 
CCOC(C)(C)CNc1ccccn1

>  <alias>  (259) 
None

>  <ref_pdb>  (259) 
z0637a

>  <inchikey>  (259) 
YKHYHVCOTNOVNI-UHFFFAOYSA-N

$$$$
UOACUAPJUHZJID-UHFFFAOYSA-N
     RDKit          3D

 23 26  0  0  0  0  0  0  0  0999 V2000
  -22.3393  -32.7512  -23.5627 C   0  0  0  0  0  0  0  0  0  0  0  0
  -21.9702  -33.6805  -22.4711 C   0  0  0  0  0  0  0  0  0  0  0  0
  -22.6320  -34.8167  -22.0404 C   0  0  0  0  0  0  0  0  0  0  0  0
  -23.9948  -35.3154  -22.3284 C   0  0  0  0  0  0  0  0  0  0  0  0
  -24.8506  -34.3944  -21.6411 O   0  0  0  0  0  0  0  0  0  0  0  0
  -25.1573  -33.2742  -22.3195 C   0  0  0  0  0  0  0  0  0  0  0  0
  -25.2136  -33.1919  -23.5383 O   0  0  0  0  0  0  0  0  0  0  0  0
  -25.4945  -32.1632  -21.3866 C   0  0  0  0  0  0  0  0  0  0  0  0
  -25.3555  -32.2168  -19.9298 C   0  0  0  0  0  0  0  0  0  0  0  0
  -26.0990  -31.3844  -19.1751 C   0  0  0  0  0  0  0  0  0  0  0  0
  -26.9929  -30.5190  -19.8033 N   0  0  0  0  0  0  0  0  0  0  0  0
  -28.0089  -29.7965  -19.2744 N   0  0  0  0  0  0  0  0  0  0  0  0
  -28.6477  -29.3779  -20.3683 C   0  0  0  0  0  0  0  0  0  0  0  0
  -28.0441  -29.6340  -21.5543 N   0  0  0  0  0  0  0  0  0  0  0  0
  -27.0209  -30.3664  -21.1896 C   0  0  0  0  0  0  0  0  0  0  0  0
  -26.1115  -31.1182  -21.9702 C   0  0  0  0  0  0  0  0  0  0  0  0
  -21.9325  -35.4413  -21.0501 O   0  0  0  0  0  0  0  0  0  0  0  0
  -20.8881  -34.6227  -20.7446 C   0  0  0  0  0  0  0  0  0  0  0  0
  -19.9441  -34.8442  -19.7475 C   0  0  0  0  0  0  0  0  0  0  0  0
  -18.9839  -33.8424  -19.5678 C   0  0  0  0  0  0  0  0  0  0  0  0
  -18.9927  -32.6815  -20.3433 C   0  0  0  0  0  0  0  0  0  0  0  0
  -19.9488  -32.4915  -21.3453 C   0  0  0  0  0  0  0  0  0  0  0  0
  -20.8986  -33.5009  -21.5619 C   0  0  0  0  0  0  0  0  0  0  0  0
  1  2  1  0
  2  3  2  0
  3  4  1  0
  4  5  1  0
  5  6  1  0
  6  7  2  0
  6  8  1  0
  8  9  1  0
  9 10  2  0
 10 11  1  0
 11 12  1  0
 12 13  2  0
 13 14  1  0
 14 15  2  0
 15 16  1  0
  3 17  1  0
 17 18  1  0
 18 19  2  0
 19 20  1  0
 20 21  2  0
 21 22  1  0
 22 23  2  0
 23  2  1  0
 16  8  2  0
 23 18  1  0
 15 11  1  0
M  END
>  <fragmenstein_mode>  (260) 
expansion

>  <name>  (260) 
UOACUAPJUHZJID-UHFFFAOYSA-N

>  <fragmenstein_runtime>  (260) 
2.498952

>  <HIPPO Compound ID>  (260) 
60115

>  <SLURM_JOB_NAME>  (260) 
BulkDock.place:Flavi_NS5_RdRp:RdRp_knitwork_green_site_rna_tunnel_impure_split4000_batch012

>  <ref_mols>  (260) 
z0521a,3vws-b

>  <Multi-SuCOS>  (260) 
0.676934

>  <tags>  (260) 
['Fragmenstein placed', 'RdRp_knitwork_green_site_rna_tunnel_impure_fragalysis.sdf Pose OK']

>  <scratch_subdir>  (260) 
/opt/xchem-fragalysis-2/maxwin/BulkDock/SCRATCH/220463/C60115-P141

>  <energy_score>  (260) 
-26.980923

>  <fragmenstein_error>  (260) 
None

>  <csv_name>  (260) 
RdRp_knitwork_green_site_rna_tunnel_impure_split4000_batch012.csv

>  <merge_set>  (260) 
RdRp_knitwork_green_site_rna_tunnel_impure_fragalysis.sdf

>  <original ID>  (260) 
UOACUAPJUHZJID-UHFFFAOYSA-N

>  <HIPPO Pose ID>  (260) 
198819

>  <fragmenstein_outcome>  (260) 
acceptable

>  <exports>  (260) 
['/opt/xchem-fragalysis-2/maxwin/BulkDock/OUTPUTS/RdRp_knitwork_green_site_rna_tunnel_impure_split4000_batch012_220463.sdf', '/opt/xchem-fragalysis-2/maxwin/BulkDock/OUTPUTS/RdRp_knitwork_green_site_rna_tunnel_impure_fragalysis.sdf']

>  <SLURM_JOB_ID>  (260) 
220463

>  <distance_score>  (260) 
0.984058

>  <original SMILES>  (260) 
Cc1c(COC(=O)c2ccn3ncnc3c2)oc2ccccc12

>  <alias>  (260) 
None

>  <ref_pdb>  (260) 
z0521a

>  <inchikey>  (260) 
UOACUAPJUHZJID-UHFFFAOYSA-N

$$$$
WZWRUMAZBYQWMH-MRXNPFEDSA-N
     RDKit          3D

 22 24  0  0  0  0  0  0  0  0999 V2000
  -21.1285  -32.8207  -24.1777 C   0  0  0  0  0  0  0  0  0  0  0  0
  -21.9633  -32.5385  -22.9281 C   0  0  1  0  0  0  0  0  0  0  0  0
  -21.2682  -31.5242  -22.1823 O   0  0  0  0  0  0  0  0  0  0  0  0
  -23.3465  -31.9872  -23.3391 C   0  0  0  0  0  0  0  0  0  0  0  0
  -24.0795  -31.4838  -22.2099 N   0  0  0  0  0  0  0  0  0  0  0  0
  -25.5024  -30.8951  -22.1245 C   0  0  0  0  0  0  0  0  0  0  0  0
  -26.2514  -30.6624  -22.9467 O   0  0  0  0  0  0  0  0  0  0  0  0
  -25.6129  -30.7160  -20.5915 N   0  0  0  0  0  0  0  0  0  0  0  0
  -26.6815  -30.3128  -19.8118 C   0  0  0  0  0  0  0  0  0  0  0  0
  -27.9575  -30.1517  -20.3393 C   0  0  0  0  0  0  0  0  0  0  0  0
  -29.0433  -29.9241  -19.4888 C   0  0  0  0  0  0  0  0  0  0  0  0
  -28.8385  -29.8675  -18.0896 C   0  0  0  0  0  0  0  0  0  0  0  0
  -29.7687  -29.8198  -17.0000 C   0  0  0  0  0  0  0  0  0  0  0  0
  -29.1545  -29.9146  -15.7740 C   0  0  0  0  0  0  0  0  0  0  0  0
  -27.4618  -29.9107  -15.8907 S   0  0  0  0  0  0  0  0  0  0  0  0
  -27.5310  -29.9507  -17.6071 C   0  0  0  0  0  0  0  0  0  0  0  0
  -26.4359  -30.1456  -18.4548 C   0  0  0  0  0  0  0  0  0  0  0  0
  -22.0707  -33.8157  -22.1027 C   0  0  0  0  0  0  0  0  0  0  0  0
  -22.9956  -34.8884  -22.3573 C   0  0  0  0  0  0  0  0  0  0  0  0
  -22.8464  -35.9436  -21.4882 C   0  0  0  0  0  0  0  0  0  0  0  0
  -21.5914  -35.6750  -20.3671 S   0  0  0  0  0  0  0  0  0  0  0  0
  -21.2622  -34.1330  -21.0227 C   0  0  0  0  0  0  0  0  0  0  0  0
  2  1  1  6
  2  3  1  0
  2  4  1  0
  4  5  1  0
  5  6  1  0
  6  7  2  0
  6  8  1  0
  8  9  1  0
  9 10  2  0
 10 11  1  0
 11 12  2  0
 12 13  1  0
 13 14  2  0
 14 15  1  0
 15 16  1  0
 16 17  2  0
  2 18  1  0
 18 19  1  0
 19 20  2  0
 20 21  1  0
 21 22  1  0
 17  9  1  0
 22 18  2  0
 16 12  1  0
M  END
>  <fragmenstein_mode>  (261) 
expansion

>  <name>  (261) 
WZWRUMAZBYQWMH-MRXNPFEDSA-N

>  <fragmenstein_runtime>  (261) 
151.430031

>  <HIPPO Compound ID>  (261) 
32188

>  <SLURM_JOB_NAME>  (261) 
BulkDock.place:Flavi_NS5_RdRp:RdRp_knitwork_green_site_rna_tunnel_impure_split4000_batch002

>  <ref_mols>  (261) 
z0211a,3vws-b

>  <Multi-SuCOS>  (261) 
0.61972

>  <tags>  (261) 
['Fragmenstein placed', 'RdRp_knitwork_green_site_rna_tunnel_impure_fragalysis.sdf Pose OK']

>  <scratch_subdir>  (261) 
/opt/xchem-fragalysis-2/maxwin/BulkDock/SCRATCH/220453/C32188-P102

>  <energy_score>  (261) 
-47.345174

>  <fragmenstein_error>  (261) 
None

>  <csv_name>  (261) 
RdRp_knitwork_green_site_rna_tunnel_impure_split4000_batch002.csv

>  <merge_set>  (261) 
RdRp_knitwork_green_site_rna_tunnel_impure_fragalysis.sdf

>  <original ID>  (261) 
WZWRUMAZBYQWMH-MRXNPFEDSA-N

>  <HIPPO Pose ID>  (261) 
198892

>  <fragmenstein_outcome>  (261) 
acceptable

>  <exports>  (261) 
['/opt/xchem-fragalysis-2/maxwin/BulkDock/OUTPUTS/RdRp_knitwork_green_site_rna_tunnel_impure_split4000_batch002_220453.sdf', '/opt/xchem-fragalysis-2/maxwin/BulkDock/OUTPUTS/RdRp_knitwork_green_site_rna_tunnel_impure_fragalysis.sdf']

>  <SLURM_JOB_ID>  (261) 
220453

>  <distance_score>  (261) 
0.848713

>  <original SMILES>  (261) 
C[C@@](O)(CNC(=O)Nc1ccc2ccsc2c1)c1ccsc1

>  <alias>  (261) 
None

>  <ref_pdb>  (261) 
z0211a

>  <inchikey>  (261) 
WZWRUMAZBYQWMH-MRXNPFEDSA-N

$$$$
AGCZLSDIIVUVLE-MRXNPFEDSA-N
     RDKit          3D

 22 24  0  0  0  0  0  0  0  0999 V2000
  -21.1745  -32.7169  -24.0462 C   0  0  0  0  0  0  0  0  0  0  0  0
  -22.0237  -32.4882  -22.7922 C   0  0  1  0  0  0  0  0  0  0  0  0
  -21.3457  -31.4973  -22.0024 O   0  0  0  0  0  0  0  0  0  0  0  0
  -23.4039  -31.9252  -23.1951 C   0  0  0  0  0  0  0  0  0  0  0  0
  -24.2128  -31.5284  -22.0700 N   0  0  0  0  0  0  0  0  0  0  0  0
  -25.6192  -30.8868  -22.0245 C   0  0  0  0  0  0  0  0  0  0  0  0
  -26.3501  -30.6585  -22.8655 O   0  0  0  0  0  0  0  0  0  0  0  0
  -25.7749  -30.7211  -20.4874 N   0  0  0  0  0  0  0  0  0  0  0  0
  -26.8750  -30.3390  -19.7317 C   0  0  0  0  0  0  0  0  0  0  0  0
  -28.1417  -30.2248  -20.3305 C   0  0  0  0  0  0  0  0  0  0  0  0
  -29.2783  -29.9527  -19.5703 C   0  0  0  0  0  0  0  0  0  0  0  0
  -29.1828  -29.7502  -18.1921 C   0  0  0  0  0  0  0  0  0  0  0  0
  -27.9078  -29.8147  -17.6349 C   0  0  0  0  0  0  0  0  0  0  0  0
  -27.6162  -29.6594  -16.3129 O   0  0  0  0  0  0  0  0  0  0  0  0
  -26.2800  -29.8647  -16.1756 C   0  0  0  0  0  0  0  0  0  0  0  0
  -25.6977  -30.1174  -17.3957 C   0  0  0  0  0  0  0  0  0  0  0  0
  -26.7518  -30.1051  -18.3522 C   0  0  0  0  0  0  0  0  0  0  0  0
  -22.1237  -33.7986  -22.0236 C   0  0  0  0  0  0  0  0  0  0  0  0
  -23.0461  -34.8619  -22.3205 C   0  0  0  0  0  0  0  0  0  0  0  0
  -22.8820  -35.9574  -21.5055 C   0  0  0  0  0  0  0  0  0  0  0  0
  -21.6196  -35.7349  -20.3822 S   0  0  0  0  0  0  0  0  0  0  0  0
  -21.3039  -34.1621  -20.9670 C   0  0  0  0  0  0  0  0  0  0  0  0
  2  1  1  6
  2  3  1  0
  2  4  1  0
  4  5  1  0
  5  6  1  0
  6  7  2  0
  6  8  1  0
  8  9  1  0
  9 10  2  0
 10 11  1  0
 11 12  2  0
 12 13  1  0
 13 14  1  0
 14 15  1  0
 15 16  2  0
 16 17  1  0
  2 18  1  0
 18 19  1  0
 19 20  2  0
 20 21  1  0
 21 22  1  0
 17  9  1  0
 22 18  2  0
 17 13  2  0
M  END
>  <fragmenstein_mode>  (262) 
expansion

>  <name>  (262) 
AGCZLSDIIVUVLE-MRXNPFEDSA-N

>  <fragmenstein_runtime>  (262) 
25.355073

>  <HIPPO Compound ID>  (262) 
32317

>  <SLURM_JOB_NAME>  (262) 
BulkDock.place:Flavi_NS5_RdRp:RdRp_knitwork_green_site_rna_tunnel_impure_split4000_batch002

>  <ref_mols>  (262) 
z0211a,3vws-b

>  <Multi-SuCOS>  (262) 
0.710579

>  <tags>  (262) 
['Fragmenstein placed', 'RdRp_knitwork_green_site_rna_tunnel_impure_fragalysis.sdf Pose OK']

>  <scratch_subdir>  (262) 
/opt/xchem-fragalysis-2/maxwin/BulkDock/SCRATCH/220453/C32317-P102

>  <energy_score>  (262) 
-64.809501

>  <fragmenstein_error>  (262) 
None

>  <csv_name>  (262) 
RdRp_knitwork_green_site_rna_tunnel_impure_split4000_batch002.csv

>  <merge_set>  (262) 
RdRp_knitwork_green_site_rna_tunnel_impure_fragalysis.sdf

>  <original ID>  (262) 
AGCZLSDIIVUVLE-MRXNPFEDSA-N

>  <HIPPO Pose ID>  (262) 
198916

>  <fragmenstein_outcome>  (262) 
acceptable

>  <exports>  (262) 
['/opt/xchem-fragalysis-2/maxwin/BulkDock/OUTPUTS/RdRp_knitwork_green_site_rna_tunnel_impure_split4000_batch002_220453.sdf', '/opt/xchem-fragalysis-2/maxwin/BulkDock/OUTPUTS/RdRp_knitwork_green_site_rna_tunnel_impure_fragalysis.sdf']

>  <SLURM_JOB_ID>  (262) 
220453

>  <distance_score>  (262) 
0.739609

>  <original SMILES>  (262) 
C[C@@](O)(CNC(=O)Nc1cccc2occc12)c1ccsc1

>  <alias>  (262) 
None

>  <ref_pdb>  (262) 
z0211a

>  <inchikey>  (262) 
AGCZLSDIIVUVLE-MRXNPFEDSA-N

$$$$
LVEXTPKRRNHUAM-UHFFFAOYSA-N
     RDKit          3D

 10 11  0  0  0  0  0  0  0  0999 V2000
  -29.5475  -30.3870  -20.0208 C   0  0  0  0  0  0  0  0  0  0  0  0
  -28.7770  -30.0091  -21.1556 C   0  0  0  0  0  0  0  0  0  0  0  0
  -27.7457  -29.1779  -20.7775 C   0  0  0  0  0  0  0  0  0  0  0  0
  -26.6938  -28.5801  -21.7576 C   0  0  0  0  0  0  0  0  0  0  0  0
  -25.9004  -27.4858  -21.4769 C   0  0  0  0  0  0  0  0  0  0  0  0
  -24.9553  -27.0879  -22.8580 S   0  0  0  0  0  0  0  0  0  0  0  0
  -25.5862  -28.4636  -23.6639 C   0  0  0  0  0  0  0  0  0  0  0  0
  -26.5238  -29.1267  -23.0197 N   0  0  0  0  0  0  0  0  0  0  0  0
  -27.8425  -28.9239  -19.1017 S   0  0  0  0  0  0  0  0  0  0  0  0
  -29.1363  -29.9253  -18.8417 N   0  0  0  0  0  0  0  0  0  0  0  0
  1  2  1  0
  2  3  2  0
  3  4  1  0
  4  5  2  0
  5  6  1  0
  6  7  1  0
  7  8  2  0
  3  9  1  0
  9 10  1  0
 10  1  2  0
  8  4  1  0
M  END
>  <fragmenstein_mode>  (263) 
expansion

>  <name>  (263) 
LVEXTPKRRNHUAM-UHFFFAOYSA-N

>  <fragmenstein_runtime>  (263) 
0.894769

>  <HIPPO Compound ID>  (263) 
8347

>  <SLURM_JOB_NAME>  (263) 
BulkDock.place:Flavi_NS5_RdRp:RdRp_knitwork_green_site_rna_tunnel_impure_split4000_batch017

>  <ref_mols>  (263) 
z0384a,z0496a

>  <Multi-SuCOS>  (263) 
0.832324

>  <tags>  (263) 
['Fragmenstein placed', 'RdRp_knitwork_green_site_rna_tunnel_impure_fragalysis.sdf Pose OK']

>  <scratch_subdir>  (263) 
/opt/xchem-fragalysis-2/maxwin/BulkDock/SCRATCH/220468/C8347-P136

>  <energy_score>  (263) 
-117.541477

>  <fragmenstein_error>  (263) 
None

>  <csv_name>  (263) 
RdRp_knitwork_green_site_rna_tunnel_impure_split4000_batch017.csv

>  <merge_set>  (263) 
RdRp_knitwork_green_site_rna_tunnel_impure_fragalysis.sdf

>  <original ID>  (263) 
LVEXTPKRRNHUAM-UHFFFAOYSA-N

>  <HIPPO Pose ID>  (263) 
198997

>  <fragmenstein_outcome>  (263) 
acceptable

>  <exports>  (263) 
['/opt/xchem-fragalysis-2/maxwin/BulkDock/OUTPUTS/RdRp_knitwork_green_site_rna_tunnel_impure_split4000_batch017_220468.sdf', '/opt/xchem-fragalysis-2/maxwin/BulkDock/OUTPUTS/RdRp_knitwork_green_site_rna_tunnel_impure_fragalysis.sdf']

>  <SLURM_JOB_ID>  (263) 
220468

>  <distance_score>  (263) 
0.944459

>  <original SMILES>  (263) 
c1cc(-c2cscn2)sn1

>  <alias>  (263) 
None

>  <ref_pdb>  (263) 
z0496a

>  <inchikey>  (263) 
LVEXTPKRRNHUAM-UHFFFAOYSA-N

$$$$
SMBKODDGONSFPJ-UHFFFAOYSA-N
     RDKit          3D

 10 11  0  0  0  0  0  0  0  0999 V2000
  -29.3517  -30.3174  -20.0312 C   0  0  0  0  0  0  0  0  0  0  0  0
  -28.7900  -29.8482  -21.1880 C   0  0  0  0  0  0  0  0  0  0  0  0
  -27.5964  -29.2312  -20.7613 C   0  0  0  0  0  0  0  0  0  0  0  0
  -26.6458  -28.5919  -21.6706 C   0  0  0  0  0  0  0  0  0  0  0  0
  -25.9593  -27.4165  -21.4376 C   0  0  0  0  0  0  0  0  0  0  0  0
  -25.0045  -27.0226  -22.8115 S   0  0  0  0  0  0  0  0  0  0  0  0
  -25.5233  -28.4730  -23.5682 C   0  0  0  0  0  0  0  0  0  0  0  0
  -26.4112  -29.1847  -22.9043 N   0  0  0  0  0  0  0  0  0  0  0  0
  -27.4453  -29.2992  -19.4316 N   0  0  0  0  0  0  0  0  0  0  0  0
  -28.5525  -30.0039  -18.9797 O   0  0  0  0  0  0  0  0  0  0  0  0
  1  2  2  0
  2  3  1  0
  3  4  1  0
  4  5  2  0
  5  6  1  0
  6  7  1  0
  7  8  2  0
  3  9  2  0
  9 10  1  0
 10  1  1  0
  8  4  1  0
M  END
>  <fragmenstein_mode>  (264) 
expansion

>  <name>  (264) 
SMBKODDGONSFPJ-UHFFFAOYSA-N

>  <fragmenstein_runtime>  (264) 
1.855052

>  <HIPPO Compound ID>  (264) 
8398

>  <SLURM_JOB_NAME>  (264) 
BulkDock.place:Flavi_NS5_RdRp:RdRp_knitwork_green_site_rna_tunnel_impure_split4000_batch017

>  <ref_mols>  (264) 
z0384a,z0496a

>  <Multi-SuCOS>  (264) 
0.806159

>  <tags>  (264) 
['Fragmenstein placed', 'RdRp_knitwork_green_site_rna_tunnel_impure_fragalysis.sdf Pose OK']

>  <scratch_subdir>  (264) 
/opt/xchem-fragalysis-2/maxwin/BulkDock/SCRATCH/220468/C8398-P136

>  <energy_score>  (264) 
-58.434103

>  <fragmenstein_error>  (264) 
None

>  <csv_name>  (264) 
RdRp_knitwork_green_site_rna_tunnel_impure_split4000_batch017.csv

>  <merge_set>  (264) 
RdRp_knitwork_green_site_rna_tunnel_impure_fragalysis.sdf

>  <original ID>  (264) 
SMBKODDGONSFPJ-UHFFFAOYSA-N

>  <HIPPO Pose ID>  (264) 
199018

>  <fragmenstein_outcome>  (264) 
acceptable

>  <exports>  (264) 
['/opt/xchem-fragalysis-2/maxwin/BulkDock/OUTPUTS/RdRp_knitwork_green_site_rna_tunnel_impure_split4000_batch017_220468.sdf', '/opt/xchem-fragalysis-2/maxwin/BulkDock/OUTPUTS/RdRp_knitwork_green_site_rna_tunnel_impure_fragalysis.sdf']

>  <SLURM_JOB_ID>  (264) 
220468

>  <distance_score>  (264) 
0.785984

>  <original SMILES>  (264) 
c1cc(-c2cscn2)no1

>  <alias>  (264) 
None

>  <ref_pdb>  (264) 
z0496a

>  <inchikey>  (264) 
SMBKODDGONSFPJ-UHFFFAOYSA-N

$$$$
AWQDWKYDKALBOD-UHFFFAOYSA-N
     RDKit          3D

 23 26  0  0  0  0  0  0  0  0999 V2000
  -23.6346  -36.7221  -22.2552 C   0  0  0  0  0  0  0  0  0  0  0  0
  -22.6538  -35.6960  -21.8436 C   0  0  0  0  0  0  0  0  0  0  0  0
  -21.6778  -36.0912  -20.9768 O   0  0  0  0  0  0  0  0  0  0  0  0
  -20.8850  -35.0073  -20.7512 C   0  0  0  0  0  0  0  0  0  0  0  0
  -19.7609  -34.9864  -19.9293 C   0  0  0  0  0  0  0  0  0  0  0  0
  -19.0441  -33.7870  -19.8802 C   0  0  0  0  0  0  0  0  0  0  0  0
  -19.4492  -32.6757  -20.6197 C   0  0  0  0  0  0  0  0  0  0  0  0
  -20.5906  -32.7194  -21.4274 C   0  0  0  0  0  0  0  0  0  0  0  0
  -21.3315  -33.9153  -21.4836 C   0  0  0  0  0  0  0  0  0  0  0  0
  -22.5298  -34.3471  -22.1229 C   0  0  0  0  0  0  0  0  0  0  0  0
  -23.4782  -33.5762  -22.8957 C   0  0  0  0  0  0  0  0  0  0  0  0
  -23.9866  -34.0038  -23.9268 O   0  0  0  0  0  0  0  0  0  0  0  0
  -23.7931  -32.3364  -22.4195 O   0  0  0  0  0  0  0  0  0  0  0  0
  -23.8216  -32.1029  -20.9958 C   0  0  0  0  0  0  0  0  0  0  0  0
  -25.1129  -31.4376  -20.6030 C   0  0  0  0  0  0  0  0  0  0  0  0
  -25.3585  -31.2960  -19.1647 C   0  0  0  0  0  0  0  0  0  0  0  0
  -26.5058  -30.7370  -18.7462 C   0  0  0  0  0  0  0  0  0  0  0  0
  -27.4466  -30.3125  -19.6817 N   0  0  0  0  0  0  0  0  0  0  0  0
  -28.6647  -29.7607  -19.4709 N   0  0  0  0  0  0  0  0  0  0  0  0
  -29.1294  -29.6189  -20.7134 C   0  0  0  0  0  0  0  0  0  0  0  0
  -28.2867  -29.9893  -21.7131 N   0  0  0  0  0  0  0  0  0  0  0  0
  -27.2440  -30.4374  -21.0560 C   0  0  0  0  0  0  0  0  0  0  0  0
  -26.0245  -31.0056  -21.4994 C   0  0  0  0  0  0  0  0  0  0  0  0
  1  2  1  0
  2  3  1  0
  3  4  1  0
  4  5  2  0
  5  6  1  0
  6  7  2  0
  7  8  1  0
  8  9  2  0
  9 10  1  0
 10 11  1  0
 11 12  2  0
 11 13  1  0
 13 14  1  0
 14 15  1  0
 15 16  1  0
 16 17  2  0
 17 18  1  0
 18 19  1  0
 19 20  2  0
 20 21  1  0
 21 22  2  0
 22 23  1  0
 10  2  2  0
 23 15  2  0
  9  4  1  0
 22 18  1  0
M  END
>  <fragmenstein_mode>  (265) 
expansion

>  <name>  (265) 
AWQDWKYDKALBOD-UHFFFAOYSA-N

>  <fragmenstein_runtime>  (265) 
1.898428

>  <HIPPO Compound ID>  (265) 
60687

>  <SLURM_JOB_NAME>  (265) 
BulkDock.place:Flavi_NS5_RdRp:RdRp_knitwork_green_site_rna_tunnel_impure_split4000_batch012

>  <ref_mols>  (265) 
z0521a,3vws-b

>  <Multi-SuCOS>  (265) 
0.793141

>  <tags>  (265) 
['Fragmenstein placed', 'RdRp_knitwork_green_site_rna_tunnel_impure_fragalysis.sdf Pose OK']

>  <scratch_subdir>  (265) 
/opt/xchem-fragalysis-2/maxwin/BulkDock/SCRATCH/220463/C60687-P141

>  <energy_score>  (265) 
-35.672788

>  <fragmenstein_error>  (265) 
None

>  <csv_name>  (265) 
RdRp_knitwork_green_site_rna_tunnel_impure_split4000_batch012.csv

>  <merge_set>  (265) 
RdRp_knitwork_green_site_rna_tunnel_impure_fragalysis.sdf

>  <original ID>  (265) 
AWQDWKYDKALBOD-UHFFFAOYSA-N

>  <HIPPO Pose ID>  (265) 
199035

>  <fragmenstein_outcome>  (265) 
acceptable

>  <exports>  (265) 
['/opt/xchem-fragalysis-2/maxwin/BulkDock/OUTPUTS/RdRp_knitwork_green_site_rna_tunnel_impure_split4000_batch012_220463.sdf', '/opt/xchem-fragalysis-2/maxwin/BulkDock/OUTPUTS/RdRp_knitwork_green_site_rna_tunnel_impure_fragalysis.sdf']

>  <SLURM_JOB_ID>  (265) 
220463

>  <distance_score>  (265) 
0.540496

>  <original SMILES>  (265) 
Cc1oc2ccccc2c1C(=O)OCc1ccn2ncnc2c1

>  <alias>  (265) 
None

>  <ref_pdb>  (265) 
z0521a

>  <inchikey>  (265) 
AWQDWKYDKALBOD-UHFFFAOYSA-N

$$$$
AWQDWKYDKALBOD-UHFFFAOYSA-N
     RDKit          3D

 23 26  0  0  0  0  0  0  0  0999 V2000
  -23.9702  -36.1833  -22.0084 C   0  0  0  0  0  0  0  0  0  0  0  0
  -22.8784  -35.2523  -21.6377 C   0  0  0  0  0  0  0  0  0  0  0  0
  -21.8393  -35.8082  -20.9578 O   0  0  0  0  0  0  0  0  0  0  0  0
  -20.9289  -34.8289  -20.7352 C   0  0  0  0  0  0  0  0  0  0  0  0
  -19.7235  -34.9921  -20.0588 C   0  0  0  0  0  0  0  0  0  0  0  0
  -18.9019  -33.8646  -19.9600 C   0  0  0  0  0  0  0  0  0  0  0  0
  -19.2752  -32.6475  -20.5306 C   0  0  0  0  0  0  0  0  0  0  0  0
  -20.4910  -32.5189  -21.2125 C   0  0  0  0  0  0  0  0  0  0  0  0
  -21.3580  -33.6318  -21.2918 C   0  0  0  0  0  0  0  0  0  0  0  0
  -22.6653  -33.8921  -21.8195 C   0  0  0  0  0  0  0  0  0  0  0  0
  -23.6077  -32.9850  -22.4510 C   0  0  0  0  0  0  0  0  0  0  0  0
  -24.5098  -33.3654  -23.1878 O   0  0  0  0  0  0  0  0  0  0  0  0
  -23.3912  -31.6476  -22.2536 O   0  0  0  0  0  0  0  0  0  0  0  0
  -23.4036  -31.1650  -20.8971 C   0  0  0  0  0  0  0  0  0  0  0  0
  -24.8069  -31.0250  -20.3926 C   0  0  0  0  0  0  0  0  0  0  0  0
  -25.2239  -31.8777  -19.2785 C   0  0  0  0  0  0  0  0  0  0  0  0
  -26.4676  -31.7501  -18.7891 C   0  0  0  0  0  0  0  0  0  0  0  0
  -27.3363  -30.8198  -19.3472 N   0  0  0  0  0  0  0  0  0  0  0  0
  -28.6206  -30.5654  -19.0220 N   0  0  0  0  0  0  0  0  0  0  0  0
  -28.9462  -29.6000  -19.8775 C   0  0  0  0  0  0  0  0  0  0  0  0
  -27.9583  -29.1935  -20.7214 N   0  0  0  0  0  0  0  0  0  0  0  0
  -26.9605  -29.9782  -20.3929 C   0  0  0  0  0  0  0  0  0  0  0  0
  -25.6490  -30.1095  -20.9149 C   0  0  0  0  0  0  0  0  0  0  0  0
  1  2  1  0
  2  3  1  0
  3  4  1  0
  4  5  2  0
  5  6  1  0
  6  7  2  0
  7  8  1  0
  8  9  2  0
  9 10  1  0
 10 11  1  0
 11 12  2  0
 11 13  1  0
 13 14  1  0
 14 15  1  0
 15 16  1  0
 16 17  2  0
 17 18  1  0
 18 19  1  0
 19 20  2  0
 20 21  1  0
 21 22  2  0
 22 23  1  0
 10  2  2  0
 23 15  2  0
  9  4  1  0
 22 18  1  0
M  END
>  <fragmenstein_mode>  (266) 
expansion

>  <name>  (266) 
AWQDWKYDKALBOD-UHFFFAOYSA-N

>  <fragmenstein_runtime>  (266) 
3.037513

>  <HIPPO Compound ID>  (266) 
60687

>  <SLURM_JOB_NAME>  (266) 
BulkDock.place:Flavi_NS5_RdRp:RdRp_knitwork_green_site_rna_tunnel_impure_split4000_batch012

>  <ref_mols>  (266) 
z0521a,3vws-b

>  <Multi-SuCOS>  (266) 
0.713811

>  <tags>  (266) 
['Fragmenstein placed', 'RdRp_knitwork_green_site_rna_tunnel_impure_fragalysis.sdf Pose OK']

>  <scratch_subdir>  (266) 
/opt/xchem-fragalysis-2/maxwin/BulkDock/SCRATCH/220463/C60687-P217

>  <energy_score>  (266) 
-33.633958

>  <fragmenstein_error>  (266) 
None

>  <csv_name>  (266) 
RdRp_knitwork_green_site_rna_tunnel_impure_split4000_batch012.csv

>  <merge_set>  (266) 
RdRp_knitwork_green_site_rna_tunnel_impure_fragalysis.sdf

>  <original ID>  (266) 
AWQDWKYDKALBOD-UHFFFAOYSA-N

>  <HIPPO Pose ID>  (266) 
199040

>  <fragmenstein_outcome>  (266) 
acceptable

>  <exports>  (266) 
['/opt/xchem-fragalysis-2/maxwin/BulkDock/OUTPUTS/RdRp_knitwork_green_site_rna_tunnel_impure_split4000_batch012_220463.sdf', '/opt/xchem-fragalysis-2/maxwin/BulkDock/OUTPUTS/RdRp_knitwork_green_site_rna_tunnel_impure_fragalysis.sdf']

>  <SLURM_JOB_ID>  (266) 
220463

>  <distance_score>  (266) 
0.899146

>  <original SMILES>  (266) 
Cc1oc2ccccc2c1C(=O)OCc1ccn2ncnc2c1

>  <alias>  (266) 
None

>  <ref_pdb>  (266) 
3vws-b

>  <inchikey>  (266) 
AWQDWKYDKALBOD-UHFFFAOYSA-N

$$$$
WFFJCTFBBWZISL-UHFFFAOYSA-N
     RDKit          3D

 14 16  0  0  0  0  0  0  0  0999 V2000
  -25.5296  -28.4995  -23.6607 C   0  0  0  0  0  0  0  0  0  0  0  0
  -25.0364  -27.3514  -23.0817 C   0  0  0  0  0  0  0  0  0  0  0  0
  -25.7401  -27.1335  -21.5340 S   0  0  0  0  0  0  0  0  0  0  0  0
  -26.6362  -28.5990  -21.7445 C   0  0  0  0  0  0  0  0  0  0  0  0
  -27.5336  -29.0811  -20.6873 C   0  0  0  0  0  0  0  0  0  0  0  0
  -28.7823  -29.6379  -21.0038 C   0  0  0  0  0  0  0  0  0  0  0  0
  -29.5805  -30.1603  -19.9833 C   0  0  0  0  0  0  0  0  0  0  0  0
  -29.0712  -30.1316  -18.7006 C   0  0  0  0  0  0  0  0  0  0  0  0
  -27.8266  -29.5564  -18.4765 C   0  0  0  0  0  0  0  0  0  0  0  0
  -27.0468  -29.0142  -19.4192 N   0  0  0  0  0  0  0  0  0  0  0  0
  -27.4582  -29.6042  -17.0243 C   0  0  0  0  0  0  0  0  0  0  0  0
  -28.4123  -30.6899  -16.5205 C   0  0  0  0  0  0  0  0  0  0  0  0
  -29.6624  -30.6192  -17.4195 C   0  0  0  0  0  0  0  0  0  0  0  0
  -26.4665  -29.1911  -22.9141 N   0  0  0  0  0  0  0  0  0  0  0  0
  1  2  2  0
  2  3  1  0
  3  4  1  0
  4  5  1  0
  5  6  2  0
  6  7  1  0
  7  8  2  0
  8  9  1  0
  9 10  2  0
  9 11  1  0
 11 12  1  0
 12 13  1  0
  4 14  2  0
 14  1  1  0
 10  5  1  0
 13  8  1  0
M  END
>  <fragmenstein_mode>  (267) 
expansion

>  <name>  (267) 
WFFJCTFBBWZISL-UHFFFAOYSA-N

>  <fragmenstein_runtime>  (267) 
3.080801

>  <HIPPO Compound ID>  (267) 
8461

>  <SLURM_JOB_NAME>  (267) 
BulkDock.place:Flavi_NS5_RdRp:RdRp_knitwork_green_site_rna_tunnel_impure_split4000_batch017

>  <ref_mols>  (267) 
z0384a,z0496a

>  <Multi-SuCOS>  (267) 
0.739787

>  <tags>  (267) 
['Fragmenstein placed', 'RdRp_knitwork_green_site_rna_tunnel_impure_fragalysis.sdf Pose OK']

>  <scratch_subdir>  (267) 
/opt/xchem-fragalysis-2/maxwin/BulkDock/SCRATCH/220468/C8461-P136

>  <energy_score>  (267) 
-89.339454

>  <fragmenstein_error>  (267) 
None

>  <csv_name>  (267) 
RdRp_knitwork_green_site_rna_tunnel_impure_split4000_batch017.csv

>  <merge_set>  (267) 
RdRp_knitwork_green_site_rna_tunnel_impure_fragalysis.sdf

>  <original ID>  (267) 
WFFJCTFBBWZISL-UHFFFAOYSA-N

>  <HIPPO Pose ID>  (267) 
199049

>  <fragmenstein_outcome>  (267) 
acceptable

>  <exports>  (267) 
['/opt/xchem-fragalysis-2/maxwin/BulkDock/OUTPUTS/RdRp_knitwork_green_site_rna_tunnel_impure_split4000_batch017_220468.sdf', '/opt/xchem-fragalysis-2/maxwin/BulkDock/OUTPUTS/RdRp_knitwork_green_site_rna_tunnel_impure_fragalysis.sdf']

>  <SLURM_JOB_ID>  (267) 
220468

>  <distance_score>  (267) 
0.770208

>  <original SMILES>  (267) 
c1csc(-c2ccc3c(n2)CCC3)n1

>  <alias>  (267) 
None

>  <ref_pdb>  (267) 
z0496a

>  <inchikey>  (267) 
WFFJCTFBBWZISL-UHFFFAOYSA-N

$$$$
KJOJCYOZXQMGKF-UHFFFAOYSA-N
     RDKit          3D

 17 19  0  0  0  0  0  0  0  0999 V2000
  -25.3287  -26.5210  -19.1485 F   0  0  0  0  0  0  0  0  0  0  0  0
  -25.8517  -27.3495  -18.2329 C   0  0  0  0  0  0  0  0  0  0  0  0
  -25.1259  -27.6595  -17.0944 C   0  0  0  0  0  0  0  0  0  0  0  0
  -25.6490  -28.5768  -16.1861 C   0  0  0  0  0  0  0  0  0  0  0  0
  -26.8709  -29.2202  -16.4456 C   0  0  0  0  0  0  0  0  0  0  0  0
  -27.5418  -29.0027  -17.6647 C   0  0  0  0  0  0  0  0  0  0  0  0
  -27.0711  -27.9674  -18.4895 C   0  0  0  0  0  0  0  0  0  0  0  0
  -28.5511  -29.8745  -18.0952 N   0  0  0  0  0  0  0  0  0  0  0  0
  -28.5783  -30.2852  -19.5268 C   0  0  0  0  0  0  0  0  0  0  0  0
  -27.2809  -30.3810  -20.2610 C   0  0  0  0  0  0  0  0  0  0  0  0
  -26.9488  -30.2050  -21.5870 C   0  0  0  0  0  0  0  0  0  0  0  0
  -25.6384  -29.8397  -21.7144 N   0  0  0  0  0  0  0  0  0  0  0  0
  -25.1859  -29.8559  -20.4873 C   0  0  0  0  0  0  0  0  0  0  0  0
  -26.0579  -30.4836  -19.6464 N   0  0  0  0  0  0  0  0  0  0  0  0
  -29.0415  -30.9004  -17.1650 C   0  0  0  0  0  0  0  0  0  0  0  0
  -28.8803  -30.4781  -15.7145 C   0  0  0  0  0  0  0  0  0  0  0  0
  -27.4060  -30.2137  -15.4476 C   0  0  0  0  0  0  0  0  0  0  0  0
  1  2  1  0
  2  3  2  0
  3  4  1  0
  4  5  2  0
  5  6  1  0
  6  7  2  0
  6  8  1  0
  8  9  1  0
  9 10  1  0
 10 11  2  0
 11 12  1  0
 12 13  2  0
 13 14  1  0
  8 15  1  0
 15 16  1  0
 16 17  1  0
  7  2  1  0
 14 10  1  0
 17  5  1  0
M  END
>  <fragmenstein_mode>  (268) 
expansion

>  <name>  (268) 
KJOJCYOZXQMGKF-UHFFFAOYSA-N

>  <fragmenstein_runtime>  (268) 
2.020278

>  <HIPPO Compound ID>  (268) 
36233

>  <SLURM_JOB_NAME>  (268) 
BulkDock.place:Flavi_NS5_RdRp:RdRp_knitwork_green_site_rna_tunnel_impure_split4000_batch005

>  <ref_mols>  (268) 
d0378a,z0165a

>  <Multi-SuCOS>  (268) 
0.685068

>  <tags>  (268) 
['Fragmenstein placed', 'RdRp_knitwork_green_site_rna_tunnel_impure_fragalysis.sdf Pose OK']

>  <scratch_subdir>  (268) 
/opt/xchem-fragalysis-2/maxwin/BulkDock/SCRATCH/220456/C36233-P1

>  <energy_score>  (268) 
-7.925336

>  <fragmenstein_error>  (268) 
None

>  <csv_name>  (268) 
RdRp_knitwork_green_site_rna_tunnel_impure_split4000_batch005.csv

>  <merge_set>  (268) 
RdRp_knitwork_green_site_rna_tunnel_impure_fragalysis.sdf

>  <original ID>  (268) 
KJOJCYOZXQMGKF-UHFFFAOYSA-N

>  <HIPPO Pose ID>  (268) 
199053

>  <fragmenstein_outcome>  (268) 
acceptable

>  <exports>  (268) 
['/opt/xchem-fragalysis-2/maxwin/BulkDock/OUTPUTS/RdRp_knitwork_green_site_rna_tunnel_impure_split4000_batch005_220456.sdf', '/opt/xchem-fragalysis-2/maxwin/BulkDock/OUTPUTS/RdRp_knitwork_green_site_rna_tunnel_impure_fragalysis.sdf']

>  <SLURM_JOB_ID>  (268) 
220456

>  <distance_score>  (268) 
0.966816

>  <original SMILES>  (268) 
Fc1ccc2c(c1)N(Cc1cnc[nH]1)CCC2

>  <alias>  (268) 
None

>  <ref_pdb>  (268) 
d0378a

>  <inchikey>  (268) 
KJOJCYOZXQMGKF-UHFFFAOYSA-N

$$$$
AQIWYYUUFDZEPS-UHFFFAOYSA-N
     RDKit          3D

 10 11  0  0  0  0  0  0  0  0999 V2000
  -25.7386  -28.7297  -23.7264 C   0  0  0  0  0  0  0  0  0  0  0  0
  -26.5521  -29.3247  -22.8782 N   0  0  0  0  0  0  0  0  0  0  0  0
  -26.5851  -28.6131  -21.6925 C   0  0  0  0  0  0  0  0  0  0  0  0
  -27.3964  -29.1302  -20.4586 C   0  0  0  0  0  0  0  0  0  0  0  0
  -27.3217  -28.6095  -19.1854 C   0  0  0  0  0  0  0  0  0  0  0  0
  -28.0585  -29.2684  -18.2171 N   0  0  0  0  0  0  0  0  0  0  0  0
  -28.7282  -30.2465  -18.7877 C   0  0  0  0  0  0  0  0  0  0  0  0
  -28.4793  -30.4524  -20.4711 S   0  0  0  0  0  0  0  0  0  0  0  0
  -25.8340  -27.4519  -21.6853 C   0  0  0  0  0  0  0  0  0  0  0  0
  -25.0296  -27.2617  -23.1920 S   0  0  0  0  0  0  0  0  0  0  0  0
  1  2  2  0
  2  3  1  0
  3  4  1  0
  4  5  2  0
  5  6  1  0
  6  7  2  0
  7  8  1  0
  3  9  2  0
  9 10  1  0
 10  1  1  0
  8  4  1  0
M  END
>  <fragmenstein_mode>  (269) 
expansion

>  <name>  (269) 
AQIWYYUUFDZEPS-UHFFFAOYSA-N

>  <fragmenstein_runtime>  (269) 
1.002756

>  <HIPPO Compound ID>  (269) 
8626

>  <SLURM_JOB_NAME>  (269) 
BulkDock.place:Flavi_NS5_RdRp:RdRp_knitwork_green_site_rna_tunnel_impure_split4000_batch017

>  <ref_mols>  (269) 
z0384a,z0496a

>  <Multi-SuCOS>  (269) 
0.776503

>  <tags>  (269) 
['Fragmenstein placed', 'RdRp_knitwork_green_site_rna_tunnel_impure_fragalysis.sdf Pose OK']

>  <scratch_subdir>  (269) 
/opt/xchem-fragalysis-2/maxwin/BulkDock/SCRATCH/220468/C8626-P136

>  <energy_score>  (269) 
-147.916759

>  <fragmenstein_error>  (269) 
None

>  <csv_name>  (269) 
RdRp_knitwork_green_site_rna_tunnel_impure_split4000_batch017.csv

>  <merge_set>  (269) 
RdRp_knitwork_green_site_rna_tunnel_impure_fragalysis.sdf

>  <original ID>  (269) 
AQIWYYUUFDZEPS-UHFFFAOYSA-N

>  <HIPPO Pose ID>  (269) 
199082

>  <fragmenstein_outcome>  (269) 
acceptable

>  <exports>  (269) 
['/opt/xchem-fragalysis-2/maxwin/BulkDock/OUTPUTS/RdRp_knitwork_green_site_rna_tunnel_impure_split4000_batch017_220468.sdf', '/opt/xchem-fragalysis-2/maxwin/BulkDock/OUTPUTS/RdRp_knitwork_green_site_rna_tunnel_impure_fragalysis.sdf']

>  <SLURM_JOB_ID>  (269) 
220468

>  <distance_score>  (269) 
0.923112

>  <original SMILES>  (269) 
c1nc(-c2cncs2)cs1

>  <alias>  (269) 
None

>  <ref_pdb>  (269) 
z0496a

>  <inchikey>  (269) 
AQIWYYUUFDZEPS-UHFFFAOYSA-N

$$$$
AMKPTKRUEXDZKZ-UHFFFAOYSA-N
     RDKit          3D

 10 11  0  0  0  0  0  0  0  0999 V2000
  -25.5599  -28.5672  -23.7017 C   0  0  0  0  0  0  0  0  0  0  0  0
  -26.4014  -29.1945  -22.9055 N   0  0  0  0  0  0  0  0  0  0  0  0
  -26.5378  -28.4800  -21.7299 C   0  0  0  0  0  0  0  0  0  0  0  0
  -27.3839  -29.0414  -20.6950 C   0  0  0  0  0  0  0  0  0  0  0  0
  -27.1929  -28.9356  -19.3091 C   0  0  0  0  0  0  0  0  0  0  0  0
  -28.1083  -29.6266  -18.6238 N   0  0  0  0  0  0  0  0  0  0  0  0
  -28.9438  -30.1783  -19.5916 O   0  0  0  0  0  0  0  0  0  0  0  0
  -28.5031  -29.8184  -20.8260 C   0  0  0  0  0  0  0  0  0  0  0  0
  -25.8265  -27.2979  -21.6656 C   0  0  0  0  0  0  0  0  0  0  0  0
  -24.9490  -27.0716  -23.1249 S   0  0  0  0  0  0  0  0  0  0  0  0
  1  2  2  0
  2  3  1  0
  3  4  1  0
  4  5  1  0
  5  6  2  0
  6  7  1  0
  7  8  1  0
  3  9  2  0
  9 10  1  0
 10  1  1  0
  8  4  2  0
M  END
>  <fragmenstein_mode>  (270) 
expansion

>  <name>  (270) 
AMKPTKRUEXDZKZ-UHFFFAOYSA-N

>  <fragmenstein_runtime>  (270) 
0.864088

>  <HIPPO Compound ID>  (270) 
8726

>  <SLURM_JOB_NAME>  (270) 
BulkDock.place:Flavi_NS5_RdRp:RdRp_knitwork_green_site_rna_tunnel_impure_split4000_batch017

>  <ref_mols>  (270) 
z0384a,z0496a

>  <Multi-SuCOS>  (270) 
0.809579

>  <tags>  (270) 
['Fragmenstein placed', 'RdRp_knitwork_green_site_rna_tunnel_impure_fragalysis.sdf Pose OK']

>  <scratch_subdir>  (270) 
/opt/xchem-fragalysis-2/maxwin/BulkDock/SCRATCH/220468/C8726-P136

>  <energy_score>  (270) 
-71.826101

>  <fragmenstein_error>  (270) 
None

>  <csv_name>  (270) 
RdRp_knitwork_green_site_rna_tunnel_impure_split4000_batch017.csv

>  <merge_set>  (270) 
RdRp_knitwork_green_site_rna_tunnel_impure_fragalysis.sdf

>  <original ID>  (270) 
AMKPTKRUEXDZKZ-UHFFFAOYSA-N

>  <HIPPO Pose ID>  (270) 
199093

>  <fragmenstein_outcome>  (270) 
acceptable

>  <exports>  (270) 
['/opt/xchem-fragalysis-2/maxwin/BulkDock/OUTPUTS/RdRp_knitwork_green_site_rna_tunnel_impure_split4000_batch017_220468.sdf', '/opt/xchem-fragalysis-2/maxwin/BulkDock/OUTPUTS/RdRp_knitwork_green_site_rna_tunnel_impure_fragalysis.sdf']

>  <SLURM_JOB_ID>  (270) 
220468

>  <distance_score>  (270) 
0.707596

>  <original SMILES>  (270) 
c1nc(-c2cnoc2)cs1

>  <alias>  (270) 
None

>  <ref_pdb>  (270) 
z0496a

>  <inchikey>  (270) 
AMKPTKRUEXDZKZ-UHFFFAOYSA-N

$$$$
WJLWEAAMOGNHGR-UHFFFAOYSA-N
     RDKit          3D

 10 11  0  0  0  0  0  0  0  0999 V2000
  -29.0613  -30.3232  -19.4879 C   0  0  0  0  0  0  0  0  0  0  0  0
  -28.5460  -30.1119  -20.7775 C   0  0  0  0  0  0  0  0  0  0  0  0
  -27.5695  -29.1611  -20.6034 C   0  0  0  0  0  0  0  0  0  0  0  0
  -26.6412  -28.5870  -21.7083 C   0  0  0  0  0  0  0  0  0  0  0  0
  -25.8671  -27.4592  -21.5256 C   0  0  0  0  0  0  0  0  0  0  0  0
  -24.9851  -27.1261  -22.9627 S   0  0  0  0  0  0  0  0  0  0  0  0
  -25.6483  -28.5407  -23.6740 C   0  0  0  0  0  0  0  0  0  0  0  0
  -26.5377  -29.1900  -22.9503 N   0  0  0  0  0  0  0  0  0  0  0  0
  -27.5374  -28.8051  -19.2885 O   0  0  0  0  0  0  0  0  0  0  0  0
  -28.4407  -29.5744  -18.5726 N   0  0  0  0  0  0  0  0  0  0  0  0
  1  2  1  0
  2  3  2  0
  3  4  1  0
  4  5  2  0
  5  6  1  0
  6  7  1  0
  7  8  2  0
  3  9  1  0
  9 10  1  0
 10  1  2  0
  8  4  1  0
M  END
>  <fragmenstein_mode>  (271) 
expansion

>  <name>  (271) 
WJLWEAAMOGNHGR-UHFFFAOYSA-N

>  <fragmenstein_runtime>  (271) 
1.423879

>  <HIPPO Compound ID>  (271) 
8728

>  <SLURM_JOB_NAME>  (271) 
BulkDock.place:Flavi_NS5_RdRp:RdRp_knitwork_green_site_rna_tunnel_impure_split4000_batch017

>  <ref_mols>  (271) 
z0384a,z0496a

>  <Multi-SuCOS>  (271) 
0.810924

>  <tags>  (271) 
['Fragmenstein placed', 'RdRp_knitwork_green_site_rna_tunnel_impure_fragalysis.sdf Pose OK']

>  <scratch_subdir>  (271) 
/opt/xchem-fragalysis-2/maxwin/BulkDock/SCRATCH/220468/C8728-P136

>  <energy_score>  (271) 
-71.03632

>  <fragmenstein_error>  (271) 
None

>  <csv_name>  (271) 
RdRp_knitwork_green_site_rna_tunnel_impure_split4000_batch017.csv

>  <merge_set>  (271) 
RdRp_knitwork_green_site_rna_tunnel_impure_fragalysis.sdf

>  <original ID>  (271) 
WJLWEAAMOGNHGR-UHFFFAOYSA-N

>  <HIPPO Pose ID>  (271) 
199099

>  <fragmenstein_outcome>  (271) 
acceptable

>  <exports>  (271) 
['/opt/xchem-fragalysis-2/maxwin/BulkDock/OUTPUTS/RdRp_knitwork_green_site_rna_tunnel_impure_split4000_batch017_220468.sdf', '/opt/xchem-fragalysis-2/maxwin/BulkDock/OUTPUTS/RdRp_knitwork_green_site_rna_tunnel_impure_fragalysis.sdf']

>  <SLURM_JOB_ID>  (271) 
220468

>  <distance_score>  (271) 
0.75344

>  <original SMILES>  (271) 
c1cc(-c2cscn2)on1

>  <alias>  (271) 
None

>  <ref_pdb>  (271) 
z0496a

>  <inchikey>  (271) 
WJLWEAAMOGNHGR-UHFFFAOYSA-N

$$$$
ADZNRMAOFPSKEN-UHFFFAOYSA-N
     RDKit          3D

 22 25  0  0  0  0  0  0  0  0999 V2000
  -19.3284  -21.7941  -20.8822 C   0  0  0  0  0  0  0  0  0  0  0  0
  -18.5363  -22.7528  -20.2612 C   0  0  0  0  0  0  0  0  0  0  0  0
  -19.1437  -23.8341  -19.6211 C   0  0  0  0  0  0  0  0  0  0  0  0
  -20.5248  -23.9521  -19.6705 C   0  0  0  0  0  0  0  0  0  0  0  0
  -21.2723  -25.0312  -19.0342 C   0  0  0  0  0  0  0  0  0  0  0  0
  -21.9600  -24.9672  -17.9210 N   0  0  0  0  0  0  0  0  0  0  0  0
  -23.0266  -25.8556  -17.9579 N   0  0  0  0  0  0  0  0  0  0  0  0
  -23.0809  -26.5566  -19.0625 C   0  0  0  0  0  0  0  0  0  0  0  0
  -24.1627  -27.2228  -19.6005 N   0  0  0  0  0  0  0  0  0  0  0  0
  -24.3297  -26.8078  -21.0090 C   0  0  0  0  0  0  0  0  0  0  0  0
  -25.7034  -26.9005  -21.6120 C   0  0  0  0  0  0  0  0  0  0  0  0
  -26.2459  -28.2360  -21.5700 N   0  0  0  0  0  0  0  0  0  0  0  0
  -26.8312  -28.6678  -20.3791 C   0  0  0  0  0  0  0  0  0  0  0  0
  -27.7978  -29.6893  -20.5056 C   0  0  0  0  0  0  0  0  0  0  0  0
  -28.3983  -30.2715  -19.3960 C   0  0  0  0  0  0  0  0  0  0  0  0
  -28.0131  -29.8645  -18.1297 C   0  0  0  0  0  0  0  0  0  0  0  0
  -27.0325  -28.8792  -17.9832 C   0  0  0  0  0  0  0  0  0  0  0  0
  -26.4189  -28.2587  -19.0946 C   0  0  0  0  0  0  0  0  0  0  0  0
  -25.4127  -27.1378  -18.8078 C   0  0  0  0  0  0  0  0  0  0  0  0
  -21.5323  -26.5370  -19.8166 S   0  0  0  0  0  0  0  0  0  0  0  0
  -21.3080  -23.0426  -20.3058 N   0  0  0  0  0  0  0  0  0  0  0  0
  -20.7007  -21.9724  -20.8662 C   0  0  0  0  0  0  0  0  0  0  0  0
  1  2  2  0
  2  3  1  0
  3  4  2  0
  4  5  1  0
  5  6  2  0
  6  7  1  0
  7  8  2  0
  8  9  1  0
  9 10  1  0
 10 11  1  0
 11 12  1  0
 12 13  1  0
 13 14  2  0
 14 15  1  0
 15 16  2  0
 16 17  1  0
 17 18  2  0
 18 19  1  0
  8 20  1  0
  4 21  1  0
 21 22  2  0
 22  1  1  0
 20  5  1  0
 19  9  1  0
 18 13  1  0
M  END
>  <fragmenstein_mode>  (272) 
expansion

>  <name>  (272) 
ADZNRMAOFPSKEN-UHFFFAOYSA-N

>  <fragmenstein_runtime>  (272) 
4.973006

>  <HIPPO Compound ID>  (272) 
37272

>  <SLURM_JOB_NAME>  (272) 
BulkDock.place:Flavi_NS5_RdRp:RdRp_knitwork_green_site_rna_tunnel_impure_split4000_batch008

>  <ref_mols>  (272) 
z0364a,z0637a

>  <Multi-SuCOS>  (272) 
0.462562

>  <tags>  (272) 
['Fragmenstein placed', 'RdRp_knitwork_green_site_rna_tunnel_impure_fragalysis.sdf Pose OK']

>  <scratch_subdir>  (272) 
/opt/xchem-fragalysis-2/maxwin/BulkDock/SCRATCH/220459/C37272-P118

>  <energy_score>  (272) 
-109.213069

>  <fragmenstein_error>  (272) 
None

>  <csv_name>  (272) 
RdRp_knitwork_green_site_rna_tunnel_impure_split4000_batch008.csv

>  <merge_set>  (272) 
RdRp_knitwork_green_site_rna_tunnel_impure_fragalysis.sdf

>  <original ID>  (272) 
ADZNRMAOFPSKEN-UHFFFAOYSA-N

>  <HIPPO Pose ID>  (272) 
199109

>  <fragmenstein_outcome>  (272) 
acceptable

>  <exports>  (272) 
['/opt/xchem-fragalysis-2/maxwin/BulkDock/OUTPUTS/RdRp_knitwork_green_site_rna_tunnel_impure_split4000_batch008_220459.sdf', '/opt/xchem-fragalysis-2/maxwin/BulkDock/OUTPUTS/RdRp_knitwork_green_site_rna_tunnel_impure_fragalysis.sdf']

>  <SLURM_JOB_ID>  (272) 
220459

>  <distance_score>  (272) 
0.871312

>  <original SMILES>  (272) 
c1ccc(-c2nnc(N3CCNc4ccccc4C3)s2)nc1

>  <alias>  (272) 
None

>  <ref_pdb>  (272) 
z0364a

>  <inchikey>  (272) 
ADZNRMAOFPSKEN-UHFFFAOYSA-N

$$$$
SNNDRMVSVZMXFH-UHFFFAOYSA-N
     RDKit          3D

 22 24  0  0  0  0  0  0  0  0999 V2000
  -31.1459  -30.3719  -19.0314 C   0  0  0  0  0  0  0  0  0  0  0  0
  -30.1680  -31.2050  -18.2002 C   0  0  0  0  0  0  0  0  0  0  0  0
  -30.8254  -32.4120  -17.5275 C   0  0  0  0  0  0  0  0  0  0  0  0
  -29.0964  -31.6364  -19.1959 C   0  0  0  0  0  0  0  0  0  0  0  0
  -29.1539  -31.3506  -20.3250 O   0  0  0  0  0  0  0  0  0  0  0  0
  -27.9892  -32.3635  -18.4032 N   0  0  0  0  0  0  0  0  0  0  0  0
  -26.7646  -32.7769  -18.7879 C   0  0  0  0  0  0  0  0  0  0  0  0
  -25.7501  -32.5011  -17.9963 N   0  0  0  0  0  0  0  0  0  0  0  0
  -25.5199  -31.1215  -18.1671 N   0  0  0  0  0  0  0  0  0  0  0  0
  -25.9181  -30.7135  -19.3842 C   0  0  0  0  0  0  0  0  0  0  0  0
  -25.7179  -29.3727  -19.9762 C   0  0  0  0  0  0  0  0  0  0  0  0
  -25.7264  -29.1205  -21.3473 C   0  0  0  0  0  0  0  0  0  0  0  0
  -25.3888  -27.8456  -21.8042 C   0  0  0  0  0  0  0  0  0  0  0  0
  -25.1093  -26.8395  -20.8898 C   0  0  0  0  0  0  0  0  0  0  0  0
  -25.1547  -27.1549  -19.5464 C   0  0  0  0  0  0  0  0  0  0  0  0
  -25.4187  -28.3936  -19.0769 N   0  0  0  0  0  0  0  0  0  0  0  0
  -26.3659  -32.1535  -20.3583 S   0  0  0  0  0  0  0  0  0  0  0  0
  -29.3846  -30.2948  -17.2552 C   0  0  0  0  0  0  0  0  0  0  0  0
  -28.5085  -29.2484  -17.6607 C   0  0  0  0  0  0  0  0  0  0  0  0
  -27.6622  -29.0699  -16.6018 C   0  0  0  0  0  0  0  0  0  0  0  0
  -28.1387  -29.8543  -15.6016 N   0  0  0  0  0  0  0  0  0  0  0  0
  -29.1742  -30.6253  -15.9742 N   0  0  0  0  0  0  0  0  0  0  0  0
  1  2  1  0
  2  3  1  0
  2  4  1  0
  4  5  2  0
  4  6  1  0
  6  7  1  0
  7  8  2  0
  8  9  1  0
  9 10  2  0
 10 11  1  0
 11 12  2  0
 12 13  1  0
 13 14  2  0
 14 15  1  0
 15 16  2  0
 10 17  1  0
  2 18  1  0
 18 19  1  0
 19 20  2  0
 20 21  1  0
 21 22  1  0
 17  7  1  0
 22 18  2  0
 16 11  1  0
M  END
>  <fragmenstein_mode>  (273) 
expansion

>  <name>  (273) 
SNNDRMVSVZMXFH-UHFFFAOYSA-N

>  <fragmenstein_runtime>  (273) 
4.139265

>  <HIPPO Compound ID>  (273) 
15975

>  <SLURM_JOB_NAME>  (273) 
BulkDock.place:Flavi_NS5_RdRp:RdRp_knitwork_green_site_rna_tunnel_impure_split4000_batch011

>  <ref_mols>  (273) 
d0472b,z0628a

>  <Multi-SuCOS>  (273) 
0.468962

>  <tags>  (273) 
['Fragmenstein placed', 'RdRp_knitwork_green_site_rna_tunnel_impure_fragalysis.sdf Pose OK']

>  <scratch_subdir>  (273) 
/opt/xchem-fragalysis-2/maxwin/BulkDock/SCRATCH/220462/C15975-P150

>  <energy_score>  (273) 
-52.183427

>  <fragmenstein_error>  (273) 
None

>  <csv_name>  (273) 
RdRp_knitwork_green_site_rna_tunnel_impure_split4000_batch011.csv

>  <merge_set>  (273) 
RdRp_knitwork_green_site_rna_tunnel_impure_fragalysis.sdf

>  <original ID>  (273) 
SNNDRMVSVZMXFH-UHFFFAOYSA-N

>  <HIPPO Pose ID>  (273) 
199167

>  <fragmenstein_outcome>  (273) 
acceptable

>  <exports>  (273) 
['/opt/xchem-fragalysis-2/maxwin/BulkDock/OUTPUTS/RdRp_knitwork_green_site_rna_tunnel_impure_split4000_batch011_220462.sdf', '/opt/xchem-fragalysis-2/maxwin/BulkDock/OUTPUTS/RdRp_knitwork_green_site_rna_tunnel_impure_fragalysis.sdf']

>  <SLURM_JOB_ID>  (273) 
220462

>  <distance_score>  (273) 
0.991001

>  <original SMILES>  (273) 
CC(C)(C(=O)Nc1nnc(-c2ccccn2)s1)c1cc[nH]n1

>  <alias>  (273) 
None

>  <ref_pdb>  (273) 
z0628a

>  <inchikey>  (273) 
SNNDRMVSVZMXFH-UHFFFAOYSA-N

$$$$
PUWXKXXBAQADDQ-MRXNPFEDSA-N
     RDKit          3D

 22 24  0  0  0  0  0  0  0  0999 V2000
  -21.2424  -33.1610  -24.3357 C   0  0  0  0  0  0  0  0  0  0  0  0
  -21.7314  -32.4158  -23.0936 C   0  0  1  0  0  0  0  0  0  0  0  0
  -21.1220  -31.1350  -23.1576 O   0  0  0  0  0  0  0  0  0  0  0  0
  -23.2614  -32.3218  -23.1878 C   0  0  0  0  0  0  0  0  0  0  0  0
  -23.9310  -31.6477  -22.1106 N   0  0  0  0  0  0  0  0  0  0  0  0
  -25.3499  -31.0307  -22.0420 C   0  0  0  0  0  0  0  0  0  0  0  0
  -26.1386  -30.9118  -22.8518 O   0  0  0  0  0  0  0  0  0  0  0  0
  -25.4173  -30.7167  -20.5246 N   0  0  0  0  0  0  0  0  0  0  0  0
  -26.4820  -30.2962  -19.7411 C   0  0  0  0  0  0  0  0  0  0  0  0
  -27.7525  -30.1157  -20.2843 C   0  0  0  0  0  0  0  0  0  0  0  0
  -28.8516  -29.8778  -19.4537 C   0  0  0  0  0  0  0  0  0  0  0  0
  -28.6705  -29.8368  -18.0523 C   0  0  0  0  0  0  0  0  0  0  0  0
  -29.6213  -29.7788  -16.9804 C   0  0  0  0  0  0  0  0  0  0  0  0
  -29.0328  -29.8903  -15.7432 C   0  0  0  0  0  0  0  0  0  0  0  0
  -27.3374  -29.9358  -15.8298 S   0  0  0  0  0  0  0  0  0  0  0  0
  -27.3721  -29.9489  -17.5488 C   0  0  0  0  0  0  0  0  0  0  0  0
  -26.2605  -30.1474  -18.3791 C   0  0  0  0  0  0  0  0  0  0  0  0
  -21.2303  -33.1251  -21.8433 C   0  0  0  0  0  0  0  0  0  0  0  0
  -21.5737  -34.3796  -21.3623 C   0  0  0  0  0  0  0  0  0  0  0  0
  -20.8192  -34.7588  -20.2133 C   0  0  0  0  0  0  0  0  0  0  0  0
  -19.9337  -33.7792  -19.8335 C   0  0  0  0  0  0  0  0  0  0  0  0
  -20.0236  -32.4105  -20.8408 S   0  0  0  0  0  0  0  0  0  0  0  0
  2  1  1  6
  2  3  1  0
  2  4  1  0
  4  5  1  0
  5  6  1  0
  6  7  2  0
  6  8  1  0
  8  9  1  0
  9 10  2  0
 10 11  1  0
 11 12  2  0
 12 13  1  0
 13 14  2  0
 14 15  1  0
 15 16  1  0
 16 17  2  0
  2 18  1  0
 18 19  2  0
 19 20  1  0
 20 21  2  0
 21 22  1  0
 17  9  1  0
 22 18  1  0
 16 12  1  0
M  END
>  <fragmenstein_mode>  (274) 
expansion

>  <name>  (274) 
PUWXKXXBAQADDQ-MRXNPFEDSA-N

>  <fragmenstein_runtime>  (274) 
15.902468

>  <HIPPO Compound ID>  (274) 
34397

>  <SLURM_JOB_NAME>  (274) 
BulkDock.place:Flavi_NS5_RdRp:RdRp_knitwork_green_site_rna_tunnel_impure_split4000_batch002

>  <ref_mols>  (274) 
z0211a,3vws-b

>  <Multi-SuCOS>  (274) 
0.574492

>  <tags>  (274) 
['Fragmenstein placed', 'RdRp_knitwork_green_site_rna_tunnel_impure_fragalysis.sdf Pose OK']

>  <scratch_subdir>  (274) 
/opt/xchem-fragalysis-2/maxwin/BulkDock/SCRATCH/220453/C34397-P102

>  <energy_score>  (274) 
-101.787427

>  <fragmenstein_error>  (274) 
None

>  <csv_name>  (274) 
RdRp_knitwork_green_site_rna_tunnel_impure_split4000_batch002.csv

>  <merge_set>  (274) 
RdRp_knitwork_green_site_rna_tunnel_impure_fragalysis.sdf

>  <original ID>  (274) 
PUWXKXXBAQADDQ-MRXNPFEDSA-N

>  <HIPPO Pose ID>  (274) 
199919

>  <fragmenstein_outcome>  (274) 
acceptable

>  <exports>  (274) 
['/opt/xchem-fragalysis-2/maxwin/BulkDock/OUTPUTS/RdRp_knitwork_green_site_rna_tunnel_impure_split4000_batch002_220453.sdf', '/opt/xchem-fragalysis-2/maxwin/BulkDock/OUTPUTS/RdRp_knitwork_green_site_rna_tunnel_impure_fragalysis.sdf']

>  <SLURM_JOB_ID>  (274) 
220453

>  <distance_score>  (274) 
0.994683

>  <original SMILES>  (274) 
C[C@@](O)(CNC(=O)Nc1ccc2ccsc2c1)c1cccs1

>  <alias>  (274) 
None

>  <ref_pdb>  (274) 
z0211a

>  <inchikey>  (274) 
PUWXKXXBAQADDQ-MRXNPFEDSA-N

$$$$
WHIZYTBRNFTLET-UHFFFAOYSA-N
     RDKit          3D

 22 25  0  0  0  0  0  0  0  0999 V2000
  -28.3666  -27.8838  -19.9832 O   0  0  0  0  0  0  0  0  0  0  0  0
  -28.3298  -29.3237  -19.9648 S   0  0  0  0  0  0  0  0  0  0  0  0
  -29.3103  -30.1197  -20.6710 O   0  0  0  0  0  0  0  0  0  0  0  0
  -26.8491  -29.9161  -20.5034 N   0  0  0  0  0  0  0  0  0  0  0  0
  -26.3712  -29.2343  -21.6761 C   0  0  0  0  0  0  0  0  0  0  0  0
  -26.6561  -29.7897  -22.9216 C   0  0  0  0  0  0  0  0  0  0  0  0
  -26.0863  -29.2480  -24.0620 C   0  0  0  0  0  0  0  0  0  0  0  0
  -25.2781  -28.1412  -23.8976 C   0  0  0  0  0  0  0  0  0  0  0  0
  -25.0910  -27.5073  -22.7122 N   0  0  0  0  0  0  0  0  0  0  0  0
  -25.6340  -28.0424  -21.5878 C   0  0  0  0  0  0  0  0  0  0  0  0
  -25.3492  -27.4047  -20.2420 C   0  0  0  0  0  0  0  0  0  0  0  0
  -23.9484  -27.0269  -19.8421 C   0  0  0  0  0  0  0  0  0  0  0  0
  -24.9773  -25.9622  -20.1000 C   0  0  0  0  0  0  0  0  0  0  0  0
  -28.3950  -29.7945  -18.2825 C   0  0  0  0  0  0  0  0  0  0  0  0
  -29.6260  -30.2535  -17.7749 C   0  0  0  0  0  0  0  0  0  0  0  0
  -29.8175  -30.6411  -16.4343 C   0  0  0  0  0  0  0  0  0  0  0  0
  -28.7939  -30.5949  -15.4804 C   0  0  0  0  0  0  0  0  0  0  0  0
  -27.5326  -30.1416  -15.9316 C   0  0  0  0  0  0  0  0  0  0  0  0
  -26.4329  -30.0353  -15.1716 N   0  0  0  0  0  0  0  0  0  0  0  0
  -25.2367  -29.4458  -16.1550 S   0  0  0  0  0  0  0  0  0  0  0  0
  -26.0511  -29.3429  -17.5919 N   0  0  0  0  0  0  0  0  0  0  0  0
  -27.3168  -29.7307  -17.3720 C   0  0  0  0  0  0  0  0  0  0  0  0
  1  2  2  0
  2  3  2  0
  2  4  1  0
  4  5  1  0
  5  6  2  0
  6  7  1  0
  7  8  2  0
  8  9  1  0
  9 10  2  0
 10 11  1  0
 11 12  1  0
 12 13  1  0
  2 14  1  0
 14 15  2  0
 15 16  1  0
 16 17  2  0
 17 18  1  0
 18 19  2  0
 19 20  1  0
 20 21  1  0
 21 22  2  0
 10  5  1  0
 13 11  1  0
 22 14  1  0
 22 18  1  0
M  END
>  <fragmenstein_mode>  (275) 
expansion

>  <name>  (275) 
WHIZYTBRNFTLET-UHFFFAOYSA-N

>  <fragmenstein_runtime>  (275) 
18.31021

>  <HIPPO Compound ID>  (275) 
27112

>  <SLURM_JOB_NAME>  (275) 
BulkDock.place:Flavi_NS5_RdRp:RdRp_knitwork_green_site_rna_tunnel_impure_split4000_batch009

>  <ref_mols>  (275) 
z0221a,z0521a

>  <Multi-SuCOS>  (275) 
0.470284

>  <tags>  (275) 
['Fragmenstein placed', 'RdRp_knitwork_green_site_rna_tunnel_impure_fragalysis.sdf Pose OK']

>  <scratch_subdir>  (275) 
/opt/xchem-fragalysis-2/maxwin/BulkDock/SCRATCH/220460/C27112-P105

>  <energy_score>  (275) 
-59.138192

>  <fragmenstein_error>  (275) 
None

>  <csv_name>  (275) 
RdRp_knitwork_green_site_rna_tunnel_impure_split4000_batch009.csv

>  <merge_set>  (275) 
RdRp_knitwork_green_site_rna_tunnel_impure_fragalysis.sdf

>  <original ID>  (275) 
WHIZYTBRNFTLET-UHFFFAOYSA-N

>  <HIPPO Pose ID>  (275) 
200691

>  <fragmenstein_outcome>  (275) 
acceptable

>  <exports>  (275) 
['/opt/xchem-fragalysis-2/maxwin/BulkDock/OUTPUTS/RdRp_knitwork_green_site_rna_tunnel_impure_split4000_batch009_220460.sdf', '/opt/xchem-fragalysis-2/maxwin/BulkDock/OUTPUTS/RdRp_knitwork_green_site_rna_tunnel_impure_fragalysis.sdf']

>  <SLURM_JOB_ID>  (275) 
220460

>  <distance_score>  (275) 
0.767067

>  <original SMILES>  (275) 
O=S(=O)(Nc1cccnc1C1CC1)c1cccc2nsnc12

>  <alias>  (275) 
None

>  <ref_pdb>  (275) 
z0221a

>  <inchikey>  (275) 
WHIZYTBRNFTLET-UHFFFAOYSA-N

$$$$
TWJPGDRVRGEHLO-UHFFFAOYSA-N
     RDKit          3D

 23 26  0  0  0  0  0  0  0  0999 V2000
  -25.7101  -36.2331  -19.8384 O   0  0  0  0  0  0  0  0  0  0  0  0
  -24.5654  -36.0105  -19.7225 C   0  0  0  0  0  0  0  0  0  0  0  0
  -23.5202  -36.6848  -20.6385 C   0  0  0  0  0  0  0  0  0  0  0  0
  -22.5707  -35.6449  -21.1161 C   0  0  0  0  0  0  0  0  0  0  0  0
  -22.7260  -34.4396  -21.7767 C   0  0  0  0  0  0  0  0  0  0  0  0
  -21.5732  -33.6712  -21.4507 C   0  0  0  0  0  0  0  0  0  0  0  0
  -21.1707  -32.3348  -21.6155 C   0  0  0  0  0  0  0  0  0  0  0  0
  -19.9395  -31.9304  -21.0763 C   0  0  0  0  0  0  0  0  0  0  0  0
  -19.1184  -32.8327  -20.3924 C   0  0  0  0  0  0  0  0  0  0  0  0
  -19.5005  -34.1645  -20.2144 C   0  0  0  0  0  0  0  0  0  0  0  0
  -20.7347  -34.5250  -20.7447 C   0  0  0  0  0  0  0  0  0  0  0  0
  -21.3218  -35.7356  -20.5857 O   0  0  0  0  0  0  0  0  0  0  0  0
  -23.8212  -34.9982  -18.7968 N   0  0  0  0  0  0  0  0  0  0  0  0
  -24.3347  -34.0021  -17.9082 C   0  0  0  0  0  0  0  0  0  0  0  0
  -23.2922  -33.4136  -16.9915 C   0  0  0  0  0  0  0  0  0  0  0  0
  -23.4881  -33.5364  -15.6106 C   0  0  0  0  0  0  0  0  0  0  0  0
  -22.6608  -32.9168  -14.6691 C   0  0  0  0  0  0  0  0  0  0  0  0
  -21.5899  -32.1477  -15.1330 C   0  0  0  0  0  0  0  0  0  0  0  0
  -20.5831  -31.3545  -14.5271 C   0  0  0  0  0  0  0  0  0  0  0  0
  -19.8180  -30.8539  -15.5541 C   0  0  0  0  0  0  0  0  0  0  0  0
  -20.2838  -31.2901  -16.7556 O   0  0  0  0  0  0  0  0  0  0  0  0
  -21.3759  -32.0680  -16.5041 C   0  0  0  0  0  0  0  0  0  0  0  0
  -22.1882  -32.6816  -17.4648 C   0  0  0  0  0  0  0  0  0  0  0  0
  1  2  2  0
  2  3  1  0
  3  4  1  0
  4  5  2  0
  5  6  1  0
  6  7  2  0
  7  8  1  0
  8  9  2  0
  9 10  1  0
 10 11  2  0
 11 12  1  0
  2 13  1  0
 13 14  1  0
 14 15  1  0
 15 16  2  0
 16 17  1  0
 17 18  2  0
 18 19  1  0
 19 20  2  0
 20 21  1  0
 21 22  1  0
 22 23  2  0
 12  4  1  0
 23 15  1  0
 11  6  1  0
 22 18  1  0
M  END
>  <fragmenstein_mode>  (276) 
expansion

>  <name>  (276) 
TWJPGDRVRGEHLO-UHFFFAOYSA-N

>  <fragmenstein_runtime>  (276) 
4.875182

>  <HIPPO Compound ID>  (276) 
28778

>  <SLURM_JOB_NAME>  (276) 
BulkDock.place:Flavi_NS5_RdRp:RdRp_knitwork_green_site_rna_tunnel_impure_split4000_batch015

>  <ref_mols>  (276) 
3vws-b,3vws-a

>  <Multi-SuCOS>  (276) 
0.689671

>  <tags>  (276) 
['Fragmenstein placed', 'RdRp_knitwork_green_site_rna_tunnel_impure_fragalysis.sdf Pose OK']

>  <scratch_subdir>  (276) 
/opt/xchem-fragalysis-2/maxwin/BulkDock/SCRATCH/220466/C28778-P217

>  <energy_score>  (276) 
-30.447201

>  <fragmenstein_error>  (276) 
None

>  <csv_name>  (276) 
RdRp_knitwork_green_site_rna_tunnel_impure_split4000_batch015.csv

>  <merge_set>  (276) 
RdRp_knitwork_green_site_rna_tunnel_impure_fragalysis.sdf

>  <original ID>  (276) 
TWJPGDRVRGEHLO-UHFFFAOYSA-N

>  <HIPPO Pose ID>  (276) 
202064

>  <fragmenstein_outcome>  (276) 
acceptable

>  <exports>  (276) 
['/opt/xchem-fragalysis-2/maxwin/BulkDock/OUTPUTS/RdRp_knitwork_green_site_rna_tunnel_impure_split4000_batch015_220466.sdf', '/opt/xchem-fragalysis-2/maxwin/BulkDock/OUTPUTS/RdRp_knitwork_green_site_rna_tunnel_impure_fragalysis.sdf']

>  <SLURM_JOB_ID>  (276) 
220466

>  <distance_score>  (276) 
0.943312

>  <original SMILES>  (276) 
O=C(Cc1cc2ccccc2o1)NCc1ccc2ccoc2c1

>  <alias>  (276) 
None

>  <ref_pdb>  (276) 
3vws-b

>  <inchikey>  (276) 
TWJPGDRVRGEHLO-UHFFFAOYSA-N

$$$$
TWJPGDRVRGEHLO-UHFFFAOYSA-N
     RDKit          3D

 23 26  0  0  0  0  0  0  0  0999 V2000
  -25.7101  -36.2331  -19.8384 O   0  0  0  0  0  0  0  0  0  0  0  0
  -24.5654  -36.0105  -19.7225 C   0  0  0  0  0  0  0  0  0  0  0  0
  -23.5202  -36.6848  -20.6385 C   0  0  0  0  0  0  0  0  0  0  0  0
  -22.5707  -35.6449  -21.1161 C   0  0  0  0  0  0  0  0  0  0  0  0
  -22.7260  -34.4396  -21.7767 C   0  0  0  0  0  0  0  0  0  0  0  0
  -21.5732  -33.6712  -21.4507 C   0  0  0  0  0  0  0  0  0  0  0  0
  -21.1707  -32.3348  -21.6155 C   0  0  0  0  0  0  0  0  0  0  0  0
  -19.9395  -31.9304  -21.0763 C   0  0  0  0  0  0  0  0  0  0  0  0
  -19.1184  -32.8327  -20.3924 C   0  0  0  0  0  0  0  0  0  0  0  0
  -19.5005  -34.1645  -20.2144 C   0  0  0  0  0  0  0  0  0  0  0  0
  -20.7347  -34.5250  -20.7447 C   0  0  0  0  0  0  0  0  0  0  0  0
  -21.3218  -35.7356  -20.5857 O   0  0  0  0  0  0  0  0  0  0  0  0
  -23.8212  -34.9982  -18.7968 N   0  0  0  0  0  0  0  0  0  0  0  0
  -24.3347  -34.0021  -17.9082 C   0  0  0  0  0  0  0  0  0  0  0  0
  -23.2922  -33.4136  -16.9915 C   0  0  0  0  0  0  0  0  0  0  0  0
  -23.4881  -33.5364  -15.6106 C   0  0  0  0  0  0  0  0  0  0  0  0
  -22.6608  -32.9168  -14.6691 C   0  0  0  0  0  0  0  0  0  0  0  0
  -21.5899  -32.1477  -15.1330 C   0  0  0  0  0  0  0  0  0  0  0  0
  -20.5831  -31.3545  -14.5271 C   0  0  0  0  0  0  0  0  0  0  0  0
  -19.8180  -30.8539  -15.5541 C   0  0  0  0  0  0  0  0  0  0  0  0
  -20.2838  -31.2901  -16.7556 O   0  0  0  0  0  0  0  0  0  0  0  0
  -21.3759  -32.0680  -16.5041 C   0  0  0  0  0  0  0  0  0  0  0  0
  -22.1882  -32.6816  -17.4648 C   0  0  0  0  0  0  0  0  0  0  0  0
  1  2  2  0
  2  3  1  0
  3  4  1  0
  4  5  2  0
  5  6  1  0
  6  7  2  0
  7  8  1  0
  8  9  2  0
  9 10  1  0
 10 11  2  0
 11 12  1  0
  2 13  1  0
 13 14  1  0
 14 15  1  0
 15 16  2  0
 16 17  1  0
 17 18  2  0
 18 19  1  0
 19 20  2  0
 20 21  1  0
 21 22  1  0
 22 23  2  0
 12  4  1  0
 23 15  1  0
 11  6  1  0
 22 18  1  0
M  END
>  <fragmenstein_mode>  (277) 
expansion

>  <name>  (277) 
TWJPGDRVRGEHLO-UHFFFAOYSA-N

>  <fragmenstein_runtime>  (277) 
5.51184

>  <HIPPO Compound ID>  (277) 
28778

>  <SLURM_JOB_NAME>  (277) 
BulkDock.place:Flavi_NS5_RdRp:RdRp_knitwork_green_site_rna_tunnel_impure_split4000_batch015

>  <ref_mols>  (277) 
3vws-b,3vws-a

>  <Multi-SuCOS>  (277) 
0.689671

>  <tags>  (277) 
['Fragmenstein placed', 'RdRp_knitwork_green_site_rna_tunnel_impure_fragalysis.sdf Pose OK']

>  <scratch_subdir>  (277) 
/opt/xchem-fragalysis-2/maxwin/BulkDock/SCRATCH/220466/C28778-P218

>  <energy_score>  (277) 
-30.447201

>  <fragmenstein_error>  (277) 
None

>  <csv_name>  (277) 
RdRp_knitwork_green_site_rna_tunnel_impure_split4000_batch015.csv

>  <merge_set>  (277) 
RdRp_knitwork_green_site_rna_tunnel_impure_fragalysis.sdf

>  <original ID>  (277) 
TWJPGDRVRGEHLO-UHFFFAOYSA-N

>  <HIPPO Pose ID>  (277) 
202073

>  <fragmenstein_outcome>  (277) 
acceptable

>  <exports>  (277) 
['/opt/xchem-fragalysis-2/maxwin/BulkDock/OUTPUTS/RdRp_knitwork_green_site_rna_tunnel_impure_split4000_batch015_220466.sdf', '/opt/xchem-fragalysis-2/maxwin/BulkDock/OUTPUTS/RdRp_knitwork_green_site_rna_tunnel_impure_fragalysis.sdf']

>  <SLURM_JOB_ID>  (277) 
220466

>  <distance_score>  (277) 
0.943312

>  <original SMILES>  (277) 
O=C(Cc1cc2ccccc2o1)NCc1ccc2ccoc2c1

>  <alias>  (277) 
None

>  <ref_pdb>  (277) 
3vws-a

>  <inchikey>  (277) 
TWJPGDRVRGEHLO-UHFFFAOYSA-N

$$$$
LIQIAWLLMVUPPD-UHFFFAOYSA-N
     RDKit          3D

 23 26  0  0  0  0  0  0  0  0999 V2000
  -22.6630  -32.6606  -19.4219 O   0  0  0  0  0  0  0  0  0  0  0  0
  -23.6152  -32.4666  -18.7795 C   0  0  0  0  0  0  0  0  0  0  0  0
  -23.8581  -32.6593  -17.2717 N   0  0  0  0  0  0  0  0  0  0  0  0
  -23.0090  -33.0174  -16.2860 C   0  0  0  0  0  0  0  0  0  0  0  0
  -21.7374  -33.3159  -16.3824 N   0  0  0  0  0  0  0  0  0  0  0  0
  -21.1842  -33.5489  -15.1341 N   0  0  0  0  0  0  0  0  0  0  0  0
  -22.0679  -33.4138  -14.1554 C   0  0  0  0  0  0  0  0  0  0  0  0
  -21.7687  -33.5864  -12.7269 C   0  0  0  0  0  0  0  0  0  0  0  0
  -20.5159  -34.0418  -12.3171 C   0  0  0  0  0  0  0  0  0  0  0  0
  -20.2590  -34.1816  -10.9552 C   0  0  0  0  0  0  0  0  0  0  0  0
  -21.2531  -33.8594  -10.0402 C   0  0  0  0  0  0  0  0  0  0  0  0
  -22.4691  -33.4104  -10.5262 C   0  0  0  0  0  0  0  0  0  0  0  0
  -22.7477  -33.2695  -11.8402 N   0  0  0  0  0  0  0  0  0  0  0  0
  -23.6473  -33.0016  -14.7146 S   0  0  0  0  0  0  0  0  0  0  0  0
  -24.8386  -31.9146  -19.4535 C   0  0  0  0  0  0  0  0  0  0  0  0
  -25.0103  -32.1483  -20.9287 C   0  0  0  0  0  0  0  0  0  0  0  0
  -25.9681  -31.6998  -21.6868 N   0  0  0  0  0  0  0  0  0  0  0  0
  -26.8913  -30.9108  -21.0703 C   0  0  0  0  0  0  0  0  0  0  0  0
  -27.9587  -30.3334  -21.5724 N   0  0  0  0  0  0  0  0  0  0  0  0
  -28.5153  -29.7093  -20.5031 C   0  0  0  0  0  0  0  0  0  0  0  0
  -27.8583  -29.8361  -19.3488 N   0  0  0  0  0  0  0  0  0  0  0  0
  -26.8091  -30.6160  -19.7060 N   0  0  0  0  0  0  0  0  0  0  0  0
  -25.7747  -31.1093  -18.9156 C   0  0  0  0  0  0  0  0  0  0  0  0
  1  2  2  0
  2  3  1  0
  3  4  1  0
  4  5  2  0
  5  6  1  0
  6  7  2  0
  7  8  1  0
  8  9  2  0
  9 10  1  0
 10 11  2  0
 11 12  1  0
 12 13  2  0
  7 14  1  0
  2 15  1  0
 15 16  1  0
 16 17  2  0
 17 18  1  0
 18 19  2  0
 19 20  1  0
 20 21  2  0
 21 22  1  0
 22 23  1  0
 14  4  1  0
 23 15  2  0
 13  8  1  0
 22 18  1  0
M  END
>  <fragmenstein_mode>  (278) 
expansion

>  <name>  (278) 
LIQIAWLLMVUPPD-UHFFFAOYSA-N

>  <fragmenstein_runtime>  (278) 
3.079027

>  <HIPPO Compound ID>  (278) 
31730

>  <SLURM_JOB_NAME>  (278) 
BulkDock.place:Flavi_NS5_RdRp:RdRp_knitwork_green_site_rna_tunnel_impure_split4000_batch012

>  <ref_mols>  (278) 
z0521a,z0637a

>  <Multi-SuCOS>  (278) 
0.40791

>  <tags>  (278) 
['Fragmenstein placed', 'RdRp_knitwork_green_site_rna_tunnel_impure_fragalysis.sdf Pose OK']

>  <scratch_subdir>  (278) 
/opt/xchem-fragalysis-2/maxwin/BulkDock/SCRATCH/220463/C31730-P141

>  <energy_score>  (278) 
-72.729398

>  <fragmenstein_error>  (278) 
None

>  <csv_name>  (278) 
RdRp_knitwork_green_site_rna_tunnel_impure_split4000_batch012.csv

>  <merge_set>  (278) 
RdRp_knitwork_green_site_rna_tunnel_impure_fragalysis.sdf

>  <original ID>  (278) 
LIQIAWLLMVUPPD-UHFFFAOYSA-N

>  <HIPPO Pose ID>  (278) 
202656

>  <fragmenstein_outcome>  (278) 
acceptable

>  <exports>  (278) 
['/opt/xchem-fragalysis-2/maxwin/BulkDock/OUTPUTS/RdRp_knitwork_green_site_rna_tunnel_impure_split4000_batch012_220463.sdf', '/opt/xchem-fragalysis-2/maxwin/BulkDock/OUTPUTS/RdRp_knitwork_green_site_rna_tunnel_impure_fragalysis.sdf']

>  <SLURM_JOB_ID>  (278) 
220463

>  <distance_score>  (278) 
0.916102

>  <original SMILES>  (278) 
O=C(Nc1nnc(-c2ccccn2)s1)c1cnc2ncnn2c1

>  <alias>  (278) 
None

>  <ref_pdb>  (278) 
z0521a

>  <inchikey>  (278) 
LIQIAWLLMVUPPD-UHFFFAOYSA-N

$$$$
LIQIAWLLMVUPPD-UHFFFAOYSA-N
     RDKit          3D

 23 26  0  0  0  0  0  0  0  0999 V2000
  -22.7462  -32.7299  -20.4465 O   0  0  0  0  0  0  0  0  0  0  0  0
  -23.3896  -32.2419  -19.6061 C   0  0  0  0  0  0  0  0  0  0  0  0
  -23.2058  -32.2479  -18.0777 N   0  0  0  0  0  0  0  0  0  0  0  0
  -22.3053  -32.8917  -17.3056 C   0  0  0  0  0  0  0  0  0  0  0  0
  -21.3129  -33.6581  -17.6777 N   0  0  0  0  0  0  0  0  0  0  0  0
  -20.6157  -34.1433  -16.5875 N   0  0  0  0  0  0  0  0  0  0  0  0
  -21.1220  -33.7293  -15.4375 C   0  0  0  0  0  0  0  0  0  0  0  0
  -20.6001  -34.1006  -14.1154 C   0  0  0  0  0  0  0  0  0  0  0  0
  -19.6223  -35.0872  -13.9933 C   0  0  0  0  0  0  0  0  0  0  0  0
  -19.1483  -35.4177  -12.7258 C   0  0  0  0  0  0  0  0  0  0  0  0
  -19.6577  -34.7549  -11.6167 C   0  0  0  0  0  0  0  0  0  0  0  0
  -20.6219  -33.7827  -11.8216 C   0  0  0  0  0  0  0  0  0  0  0  0
  -21.0993  -33.4402  -13.0383 N   0  0  0  0  0  0  0  0  0  0  0  0
  -22.4895  -32.6910  -15.6290 S   0  0  0  0  0  0  0  0  0  0  0  0
  -24.6291  -31.4762  -20.0064 C   0  0  0  0  0  0  0  0  0  0  0  0
  -24.8257  -31.1813  -21.4724 C   0  0  0  0  0  0  0  0  0  0  0  0
  -25.8542  -30.6146  -22.0288 N   0  0  0  0  0  0  0  0  0  0  0  0
  -26.8596  -30.2462  -21.1947 C   0  0  0  0  0  0  0  0  0  0  0  0
  -28.0092  -29.6731  -21.4711 N   0  0  0  0  0  0  0  0  0  0  0  0
  -28.6128  -29.5760  -20.2590 C   0  0  0  0  0  0  0  0  0  0  0  0
  -27.9123  -30.0355  -19.2206 N   0  0  0  0  0  0  0  0  0  0  0  0
  -26.7764  -30.4677  -19.8195 N   0  0  0  0  0  0  0  0  0  0  0  0
  -25.6662  -31.0795  -19.2419 C   0  0  0  0  0  0  0  0  0  0  0  0
  1  2  2  0
  2  3  1  0
  3  4  1  0
  4  5  2  0
  5  6  1  0
  6  7  2  0
  7  8  1  0
  8  9  2  0
  9 10  1  0
 10 11  2  0
 11 12  1  0
 12 13  2  0
  7 14  1  0
  2 15  1  0
 15 16  1  0
 16 17  2  0
 17 18  1  0
 18 19  2  0
 19 20  1  0
 20 21  2  0
 21 22  1  0
 22 23  1  0
 14  4  1  0
 23 15  2  0
 13  8  1  0
 22 18  1  0
M  END
>  <fragmenstein_mode>  (279) 
expansion

>  <name>  (279) 
LIQIAWLLMVUPPD-UHFFFAOYSA-N

>  <fragmenstein_runtime>  (279) 
2.583971

>  <HIPPO Compound ID>  (279) 
31730

>  <SLURM_JOB_NAME>  (279) 
BulkDock.place:Flavi_NS5_RdRp:RdRp_knitwork_green_site_rna_tunnel_impure_split4000_batch012

>  <ref_mols>  (279) 
z0521a,z0637a

>  <Multi-SuCOS>  (279) 
0.406942

>  <tags>  (279) 
['Fragmenstein placed', 'RdRp_knitwork_green_site_rna_tunnel_impure_fragalysis.sdf Pose OK']

>  <scratch_subdir>  (279) 
/opt/xchem-fragalysis-2/maxwin/BulkDock/SCRATCH/220463/C31730-P151

>  <energy_score>  (279) 
-71.904056

>  <fragmenstein_error>  (279) 
None

>  <csv_name>  (279) 
RdRp_knitwork_green_site_rna_tunnel_impure_split4000_batch012.csv

>  <merge_set>  (279) 
RdRp_knitwork_green_site_rna_tunnel_impure_fragalysis.sdf

>  <original ID>  (279) 
LIQIAWLLMVUPPD-UHFFFAOYSA-N

>  <HIPPO Pose ID>  (279) 
202671

>  <fragmenstein_outcome>  (279) 
acceptable

>  <exports>  (279) 
['/opt/xchem-fragalysis-2/maxwin/BulkDock/OUTPUTS/RdRp_knitwork_green_site_rna_tunnel_impure_split4000_batch012_220463.sdf', '/opt/xchem-fragalysis-2/maxwin/BulkDock/OUTPUTS/RdRp_knitwork_green_site_rna_tunnel_impure_fragalysis.sdf']

>  <SLURM_JOB_ID>  (279) 
220463

>  <distance_score>  (279) 
0.994923

>  <original SMILES>  (279) 
O=C(Nc1nnc(-c2ccccn2)s1)c1cnc2ncnn2c1

>  <alias>  (279) 
None

>  <ref_pdb>  (279) 
z0637a

>  <inchikey>  (279) 
LIQIAWLLMVUPPD-UHFFFAOYSA-N

$$$$
XKHULUNWNRAGFG-UHFFFAOYSA-N
     RDKit          3D

 22 25  0  0  0  0  0  0  0  0999 V2000
  -17.9426  -34.1019  -17.8922 O   0  0  0  0  0  0  0  0  0  0  0  0
  -18.4386  -33.0425  -17.8208 C   0  0  0  0  0  0  0  0  0  0  0  0
  -18.2886  -32.1432  -16.6021 C   0  0  0  0  0  0  0  0  0  0  0  0
  -19.5535  -31.8613  -15.9032 N   0  0  0  0  0  0  0  0  0  0  0  0
  -19.7003  -30.7722  -15.0720 C   0  0  0  0  0  0  0  0  0  0  0  0
  -21.0218  -30.6870  -14.7003 C   0  0  0  0  0  0  0  0  0  0  0  0
  -21.7144  -31.7597  -15.3182 C   0  0  0  0  0  0  0  0  0  0  0  0
  -23.0664  -32.1559  -15.3467 C   0  0  0  0  0  0  0  0  0  0  0  0
  -23.4601  -33.2732  -16.0841 C   0  0  0  0  0  0  0  0  0  0  0  0
  -22.5124  -34.0346  -16.7449 C   0  0  0  0  0  0  0  0  0  0  0  0
  -21.1585  -33.7015  -16.6782 C   0  0  0  0  0  0  0  0  0  0  0  0
  -20.7691  -32.5226  -16.0129 C   0  0  0  0  0  0  0  0  0  0  0  0
  -19.4147  -32.3133  -18.8005 N   0  0  0  0  0  0  0  0  0  0  0  0
  -20.0247  -32.7619  -19.9667 C   0  0  0  0  0  0  0  0  0  0  0  0
  -20.7597  -31.8268  -20.7007 C   0  0  0  0  0  0  0  0  0  0  0  0
  -21.7479  -32.2389  -21.6031 C   0  0  0  0  0  0  0  0  0  0  0  0
  -22.0127  -33.6119  -21.7258 C   0  0  0  0  0  0  0  0  0  0  0  0
  -22.9846  -34.4006  -22.3960 C   0  0  0  0  0  0  0  0  0  0  0  0
  -22.7317  -35.7071  -22.0456 C   0  0  0  0  0  0  0  0  0  0  0  0
  -21.6392  -35.7819  -21.2410 O   0  0  0  0  0  0  0  0  0  0  0  0
  -21.2093  -34.5075  -21.0300 C   0  0  0  0  0  0  0  0  0  0  0  0
  -20.1577  -34.1383  -20.1922 C   0  0  0  0  0  0  0  0  0  0  0  0
  1  2  2  0
  2  3  1  0
  3  4  1  0
  4  5  1  0
  5  6  2  0
  6  7  1  0
  7  8  2  0
  8  9  1  0
  9 10  2  0
 10 11  1  0
 11 12  2  0
  2 13  1  0
 13 14  1  0
 14 15  2  0
 15 16  1  0
 16 17  2  0
 17 18  1  0
 18 19  2  0
 19 20  1  0
 20 21  1  0
 21 22  2  0
 12  4  1  0
 22 14  1  0
 12  7  1  0
 21 17  1  0
M  END
>  <fragmenstein_mode>  (280) 
expansion

>  <name>  (280) 
XKHULUNWNRAGFG-UHFFFAOYSA-N

>  <fragmenstein_runtime>  (280) 
2.022425

>  <HIPPO Compound ID>  (280) 
36014

>  <SLURM_JOB_NAME>  (280) 
BulkDock.place:Flavi_NS5_RdRp:RdRp_knitwork_green_site_rna_tunnel_impure_split4000_batch015

>  <ref_mols>  (280) 
3vws-b,3vws-a

>  <Multi-SuCOS>  (280) 
0.706489

>  <tags>  (280) 
['Fragmenstein placed', 'RdRp_knitwork_green_site_rna_tunnel_impure_fragalysis.sdf Pose OK']

>  <scratch_subdir>  (280) 
/opt/xchem-fragalysis-2/maxwin/BulkDock/SCRATCH/220466/C36014-P217

>  <energy_score>  (280) 
-14.455367

>  <fragmenstein_error>  (280) 
None

>  <csv_name>  (280) 
RdRp_knitwork_green_site_rna_tunnel_impure_split4000_batch015.csv

>  <merge_set>  (280) 
RdRp_knitwork_green_site_rna_tunnel_impure_fragalysis.sdf

>  <original ID>  (280) 
XKHULUNWNRAGFG-UHFFFAOYSA-N

>  <HIPPO Pose ID>  (280) 
202767

>  <fragmenstein_outcome>  (280) 
acceptable

>  <exports>  (280) 
['/opt/xchem-fragalysis-2/maxwin/BulkDock/OUTPUTS/RdRp_knitwork_green_site_rna_tunnel_impure_split4000_batch015_220466.sdf', '/opt/xchem-fragalysis-2/maxwin/BulkDock/OUTPUTS/RdRp_knitwork_green_site_rna_tunnel_impure_fragalysis.sdf']

>  <SLURM_JOB_ID>  (280) 
220466

>  <distance_score>  (280) 
0.838614

>  <original SMILES>  (280) 
O=C(Cn1ccc2ccccc21)Nc1ccc2ccoc2c1

>  <alias>  (280) 
None

>  <ref_pdb>  (280) 
3vws-b

>  <inchikey>  (280) 
XKHULUNWNRAGFG-UHFFFAOYSA-N

$$$$
XKHULUNWNRAGFG-UHFFFAOYSA-N
     RDKit          3D

 22 25  0  0  0  0  0  0  0  0999 V2000
  -17.9426  -34.1019  -17.8922 O   0  0  0  0  0  0  0  0  0  0  0  0
  -18.4386  -33.0425  -17.8208 C   0  0  0  0  0  0  0  0  0  0  0  0
  -18.2886  -32.1432  -16.6021 C   0  0  0  0  0  0  0  0  0  0  0  0
  -19.5535  -31.8613  -15.9032 N   0  0  0  0  0  0  0  0  0  0  0  0
  -19.7003  -30.7722  -15.0720 C   0  0  0  0  0  0  0  0  0  0  0  0
  -21.0218  -30.6870  -14.7003 C   0  0  0  0  0  0  0  0  0  0  0  0
  -21.7144  -31.7597  -15.3182 C   0  0  0  0  0  0  0  0  0  0  0  0
  -23.0664  -32.1559  -15.3467 C   0  0  0  0  0  0  0  0  0  0  0  0
  -23.4601  -33.2732  -16.0841 C   0  0  0  0  0  0  0  0  0  0  0  0
  -22.5124  -34.0346  -16.7449 C   0  0  0  0  0  0  0  0  0  0  0  0
  -21.1585  -33.7015  -16.6782 C   0  0  0  0  0  0  0  0  0  0  0  0
  -20.7691  -32.5226  -16.0129 C   0  0  0  0  0  0  0  0  0  0  0  0
  -19.4147  -32.3133  -18.8005 N   0  0  0  0  0  0  0  0  0  0  0  0
  -20.0247  -32.7619  -19.9667 C   0  0  0  0  0  0  0  0  0  0  0  0
  -20.7597  -31.8268  -20.7007 C   0  0  0  0  0  0  0  0  0  0  0  0
  -21.7479  -32.2389  -21.6031 C   0  0  0  0  0  0  0  0  0  0  0  0
  -22.0127  -33.6119  -21.7258 C   0  0  0  0  0  0  0  0  0  0  0  0
  -22.9846  -34.4006  -22.3960 C   0  0  0  0  0  0  0  0  0  0  0  0
  -22.7317  -35.7071  -22.0456 C   0  0  0  0  0  0  0  0  0  0  0  0
  -21.6392  -35.7819  -21.2410 O   0  0  0  0  0  0  0  0  0  0  0  0
  -21.2093  -34.5075  -21.0300 C   0  0  0  0  0  0  0  0  0  0  0  0
  -20.1577  -34.1383  -20.1922 C   0  0  0  0  0  0  0  0  0  0  0  0
  1  2  2  0
  2  3  1  0
  3  4  1  0
  4  5  1  0
  5  6  2  0
  6  7  1  0
  7  8  2  0
  8  9  1  0
  9 10  2  0
 10 11  1  0
 11 12  2  0
  2 13  1  0
 13 14  1  0
 14 15  2  0
 15 16  1  0
 16 17  2  0
 17 18  1  0
 18 19  2  0
 19 20  1  0
 20 21  1  0
 21 22  2  0
 12  4  1  0
 22 14  1  0
 12  7  1  0
 21 17  1  0
M  END
>  <fragmenstein_mode>  (281) 
expansion

>  <name>  (281) 
XKHULUNWNRAGFG-UHFFFAOYSA-N

>  <fragmenstein_runtime>  (281) 
2.077424

>  <HIPPO Compound ID>  (281) 
36014

>  <SLURM_JOB_NAME>  (281) 
BulkDock.place:Flavi_NS5_RdRp:RdRp_knitwork_green_site_rna_tunnel_impure_split4000_batch015

>  <ref_mols>  (281) 
3vws-b,3vws-a

>  <Multi-SuCOS>  (281) 
0.706489

>  <tags>  (281) 
['Fragmenstein placed', 'RdRp_knitwork_green_site_rna_tunnel_impure_fragalysis.sdf Pose OK']

>  <scratch_subdir>  (281) 
/opt/xchem-fragalysis-2/maxwin/BulkDock/SCRATCH/220466/C36014-P218

>  <energy_score>  (281) 
-14.455367

>  <fragmenstein_error>  (281) 
None

>  <csv_name>  (281) 
RdRp_knitwork_green_site_rna_tunnel_impure_split4000_batch015.csv

>  <merge_set>  (281) 
RdRp_knitwork_green_site_rna_tunnel_impure_fragalysis.sdf

>  <original ID>  (281) 
XKHULUNWNRAGFG-UHFFFAOYSA-N

>  <HIPPO Pose ID>  (281) 
202780

>  <fragmenstein_outcome>  (281) 
acceptable

>  <exports>  (281) 
['/opt/xchem-fragalysis-2/maxwin/BulkDock/OUTPUTS/RdRp_knitwork_green_site_rna_tunnel_impure_split4000_batch015_220466.sdf', '/opt/xchem-fragalysis-2/maxwin/BulkDock/OUTPUTS/RdRp_knitwork_green_site_rna_tunnel_impure_fragalysis.sdf']

>  <SLURM_JOB_ID>  (281) 
220466

>  <distance_score>  (281) 
0.838614

>  <original SMILES>  (281) 
O=C(Cn1ccc2ccccc21)Nc1ccc2ccoc2c1

>  <alias>  (281) 
None

>  <ref_pdb>  (281) 
3vws-a

>  <inchikey>  (281) 
XKHULUNWNRAGFG-UHFFFAOYSA-N

$$$$
QFZNMLQVZUJASV-JTQLQIEISA-N
     RDKit          3D

 18 19  0  0  0  0  0  0  0  0999 V2000
  -22.0155  -33.7444  -23.1117 C   0  0  0  0  0  0  0  0  0  0  0  0
  -22.0653  -32.2507  -23.3400 C   0  0  2  0  0  0  0  0  0  0  0  0
  -21.6888  -31.6236  -22.1117 O   0  0  0  0  0  0  0  0  0  0  0  0
  -23.4602  -31.7988  -23.7817 C   0  0  0  0  0  0  0  0  0  0  0  0
  -24.3573  -31.6082  -22.6775 N   0  0  0  0  0  0  0  0  0  0  0  0
  -25.6732  -30.7974  -22.5828 C   0  0  0  0  0  0  0  0  0  0  0  0
  -26.2540  -30.2380  -23.3894 O   0  0  0  0  0  0  0  0  0  0  0  0
  -25.9181  -30.8889  -21.0470 N   0  0  0  0  0  0  0  0  0  0  0  0
  -26.9618  -30.3885  -20.2672 C   0  0  0  0  0  0  0  0  0  0  0  0
  -28.1682  -30.0495  -20.8816 C   0  0  0  0  0  0  0  0  0  0  0  0
  -29.2663  -29.6789  -20.1167 C   0  0  0  0  0  0  0  0  0  0  0  0
  -29.1348  -29.5606  -18.7373 C   0  0  0  0  0  0  0  0  0  0  0  0
  -27.8972  -29.7607  -18.1122 C   0  0  0  0  0  0  0  0  0  0  0  0
  -27.7505  -29.5126  -16.7382 C   0  0  0  0  0  0  0  0  0  0  0  0
  -26.5337  -29.7291  -16.0920 C   0  0  0  0  0  0  0  0  0  0  0  0
  -25.4433  -30.1929  -16.8121 C   0  0  0  0  0  0  0  0  0  0  0  0
  -25.5692  -30.4370  -18.1801 C   0  0  0  0  0  0  0  0  0  0  0  0
  -26.7920  -30.2223  -18.8662 C   0  0  0  0  0  0  0  0  0  0  0  0
  2  1  1  1
  2  3  1  0
  2  4  1  0
  4  5  1  0
  5  6  1  0
  6  7  2  0
  6  8  1  0
  8  9  1  0
  9 10  2  0
 10 11  1  0
 11 12  2  0
 12 13  1  0
 13 14  2  0
 14 15  1  0
 15 16  2  0
 16 17  1  0
 17 18  2  0
 18  9  1  0
 18 13  1  0
M  END
>  <fragmenstein_mode>  (282) 
expansion

>  <name>  (282) 
QFZNMLQVZUJASV-JTQLQIEISA-N

>  <fragmenstein_runtime>  (282) 
6.610785

>  <HIPPO Compound ID>  (282) 
32091

>  <SLURM_JOB_NAME>  (282) 
BulkDock.place:Flavi_NS5_RdRp:RdRp_knitwork_green_site_rna_tunnel_impure_split4000_batch008

>  <ref_mols>  (282) 
z0041a,z0211a

>  <Multi-SuCOS>  (282) 
0.724723

>  <tags>  (282) 
['Fragmenstein placed', 'RdRp_knitwork_green_site_rna_tunnel_impure_fragalysis.sdf Pose OK']

>  <scratch_subdir>  (282) 
/opt/xchem-fragalysis-2/maxwin/BulkDock/SCRATCH/220459/C32091-P82

>  <energy_score>  (282) 
-7.333943

>  <fragmenstein_error>  (282) 
None

>  <csv_name>  (282) 
RdRp_knitwork_green_site_rna_tunnel_impure_split4000_batch008.csv

>  <merge_set>  (282) 
RdRp_knitwork_green_site_rna_tunnel_impure_fragalysis.sdf

>  <original ID>  (282) 
QFZNMLQVZUJASV-JTQLQIEISA-N

>  <HIPPO Pose ID>  (282) 
203263

>  <fragmenstein_outcome>  (282) 
acceptable

>  <exports>  (282) 
['/opt/xchem-fragalysis-2/maxwin/BulkDock/OUTPUTS/RdRp_knitwork_green_site_rna_tunnel_impure_split4000_batch008_220459.sdf', '/opt/xchem-fragalysis-2/maxwin/BulkDock/OUTPUTS/RdRp_knitwork_green_site_rna_tunnel_impure_fragalysis.sdf']

>  <SLURM_JOB_ID>  (282) 
220459

>  <distance_score>  (282) 
0.862283

>  <original SMILES>  (282) 
C[C@H](O)CNC(=O)Nc1cccc2ccccc12

>  <alias>  (282) 
None

>  <ref_pdb>  (282) 
z0041a

>  <inchikey>  (282) 
QFZNMLQVZUJASV-JTQLQIEISA-N

$$$$
QFZNMLQVZUJASV-JTQLQIEISA-N
     RDKit          3D

 18 19  0  0  0  0  0  0  0  0999 V2000
  -21.1946  -33.0157  -24.1132 C   0  0  0  0  0  0  0  0  0  0  0  0
  -21.9029  -32.1315  -23.1036 C   0  0  2  0  0  0  0  0  0  0  0  0
  -21.6244  -32.6255  -21.7885 O   0  0  0  0  0  0  0  0  0  0  0  0
  -23.4078  -32.1335  -23.3674 C   0  0  0  0  0  0  0  0  0  0  0  0
  -24.1468  -31.5489  -22.2893 N   0  0  0  0  0  0  0  0  0  0  0  0
  -25.5320  -30.8627  -22.2813 C   0  0  0  0  0  0  0  0  0  0  0  0
  -26.2305  -30.6066  -23.1419 O   0  0  0  0  0  0  0  0  0  0  0  0
  -25.7343  -30.7190  -20.7495 N   0  0  0  0  0  0  0  0  0  0  0  0
  -26.8566  -30.3258  -20.0194 C   0  0  0  0  0  0  0  0  0  0  0  0
  -28.0824  -30.1881  -20.6806 C   0  0  0  0  0  0  0  0  0  0  0  0
  -29.2480  -29.9464  -19.9659 C   0  0  0  0  0  0  0  0  0  0  0  0
  -29.1890  -29.8150  -18.5833 C   0  0  0  0  0  0  0  0  0  0  0  0
  -27.9634  -29.8823  -17.9055 C   0  0  0  0  0  0  0  0  0  0  0  0
  -27.9221  -29.7534  -16.5105 C   0  0  0  0  0  0  0  0  0  0  0  0
  -26.7228  -29.8815  -15.8107 C   0  0  0  0  0  0  0  0  0  0  0  0
  -25.5398  -30.1041  -16.4978 C   0  0  0  0  0  0  0  0  0  0  0  0
  -25.5597  -30.2252  -17.8851 C   0  0  0  0  0  0  0  0  0  0  0  0
  -26.7679  -30.1406  -18.6197 C   0  0  0  0  0  0  0  0  0  0  0  0
  2  1  1  6
  2  3  1  0
  2  4  1  0
  4  5  1  0
  5  6  1  0
  6  7  2  0
  6  8  1  0
  8  9  1  0
  9 10  2  0
 10 11  1  0
 11 12  2  0
 12 13  1  0
 13 14  2  0
 14 15  1  0
 15 16  2  0
 16 17  1  0
 17 18  2  0
 18  9  1  0
 18 13  1  0
M  END
>  <fragmenstein_mode>  (283) 
expansion

>  <name>  (283) 
QFZNMLQVZUJASV-JTQLQIEISA-N

>  <fragmenstein_runtime>  (283) 
4.041204

>  <HIPPO Compound ID>  (283) 
32091

>  <SLURM_JOB_NAME>  (283) 
BulkDock.place:Flavi_NS5_RdRp:RdRp_knitwork_green_site_rna_tunnel_impure_split4000_batch008

>  <ref_mols>  (283) 
z0041a,z0211a

>  <Multi-SuCOS>  (283) 
0.750323

>  <tags>  (283) 
['Fragmenstein placed', 'RdRp_knitwork_green_site_rna_tunnel_impure_fragalysis.sdf Pose OK']

>  <scratch_subdir>  (283) 
/opt/xchem-fragalysis-2/maxwin/BulkDock/SCRATCH/220459/C32091-P102

>  <energy_score>  (283) 
-9.331546

>  <fragmenstein_error>  (283) 
None

>  <csv_name>  (283) 
RdRp_knitwork_green_site_rna_tunnel_impure_split4000_batch008.csv

>  <merge_set>  (283) 
RdRp_knitwork_green_site_rna_tunnel_impure_fragalysis.sdf

>  <original ID>  (283) 
QFZNMLQVZUJASV-JTQLQIEISA-N

>  <HIPPO Pose ID>  (283) 
203266

>  <fragmenstein_outcome>  (283) 
acceptable

>  <exports>  (283) 
['/opt/xchem-fragalysis-2/maxwin/BulkDock/OUTPUTS/RdRp_knitwork_green_site_rna_tunnel_impure_split4000_batch008_220459.sdf', '/opt/xchem-fragalysis-2/maxwin/BulkDock/OUTPUTS/RdRp_knitwork_green_site_rna_tunnel_impure_fragalysis.sdf']

>  <SLURM_JOB_ID>  (283) 
220459

>  <distance_score>  (283) 
0.724135

>  <original SMILES>  (283) 
C[C@H](O)CNC(=O)Nc1cccc2ccccc12

>  <alias>  (283) 
None

>  <ref_pdb>  (283) 
z0211a

>  <inchikey>  (283) 
QFZNMLQVZUJASV-JTQLQIEISA-N

$$$$
MOBHRKLLRZEQDP-QMMMGPOBSA-N
     RDKit          3D

 17 18  0  0  0  0  0  0  0  0999 V2000
  -20.8934  -32.9417  -23.9917 C   0  0  0  0  0  0  0  0  0  0  0  0
  -21.7238  -32.2354  -22.9385 C   0  0  2  0  0  0  0  0  0  0  0  0
  -21.7204  -33.0043  -21.7270 O   0  0  0  0  0  0  0  0  0  0  0  0
  -23.1629  -32.0486  -23.4150 C   0  0  0  0  0  0  0  0  0  0  0  0
  -24.0112  -31.5936  -22.3489 N   0  0  0  0  0  0  0  0  0  0  0  0
  -25.4186  -30.9530  -22.3922 C   0  0  0  0  0  0  0  0  0  0  0  0
  -26.0552  -30.6342  -23.2815 O   0  0  0  0  0  0  0  0  0  0  0  0
  -25.7326  -30.9207  -20.8680 N   0  0  0  0  0  0  0  0  0  0  0  0
  -26.8319  -30.4113  -20.1862 C   0  0  0  0  0  0  0  0  0  0  0  0
  -28.0201  -30.0970  -20.8471 C   0  0  0  0  0  0  0  0  0  0  0  0
  -29.1456  -29.7101  -20.1335 C   0  0  0  0  0  0  0  0  0  0  0  0
  -29.0776  -29.5575  -18.7475 C   0  0  0  0  0  0  0  0  0  0  0  0
  -27.8525  -29.7357  -18.0651 C   0  0  0  0  0  0  0  0  0  0  0  0
  -27.5124  -29.5316  -16.6862 C   0  0  0  0  0  0  0  0  0  0  0  0
  -26.2080  -29.8572  -16.3964 C   0  0  0  0  0  0  0  0  0  0  0  0
  -25.3761  -30.4264  -17.7679 S   0  0  0  0  0  0  0  0  0  0  0  0
  -26.7540  -30.2031  -18.7914 C   0  0  0  0  0  0  0  0  0  0  0  0
  2  1  1  6
  2  3  1  0
  2  4  1  0
  4  5  1  0
  5  6  1  0
  6  7  2  0
  6  8  1  0
  8  9  1  0
  9 10  2  0
 10 11  1  0
 11 12  2  0
 12 13  1  0
 13 14  1  0
 14 15  2  0
 15 16  1  0
 16 17  1  0
 17  9  1  0
 17 13  2  0
M  END
>  <fragmenstein_mode>  (284) 
expansion

>  <name>  (284) 
MOBHRKLLRZEQDP-QMMMGPOBSA-N

>  <fragmenstein_runtime>  (284) 
5.885879

>  <HIPPO Compound ID>  (284) 
32146

>  <SLURM_JOB_NAME>  (284) 
BulkDock.place:Flavi_NS5_RdRp:RdRp_knitwork_green_site_rna_tunnel_impure_split4000_batch008

>  <ref_mols>  (284) 
z0041a,z0211a

>  <Multi-SuCOS>  (284) 
0.719755

>  <tags>  (284) 
['Fragmenstein placed', 'RdRp_knitwork_green_site_rna_tunnel_impure_fragalysis.sdf Pose OK']

>  <scratch_subdir>  (284) 
/opt/xchem-fragalysis-2/maxwin/BulkDock/SCRATCH/220459/C32146-P82

>  <energy_score>  (284) 
-36.96766

>  <fragmenstein_error>  (284) 
None

>  <csv_name>  (284) 
RdRp_knitwork_green_site_rna_tunnel_impure_split4000_batch008.csv

>  <merge_set>  (284) 
RdRp_knitwork_green_site_rna_tunnel_impure_fragalysis.sdf

>  <original ID>  (284) 
MOBHRKLLRZEQDP-QMMMGPOBSA-N

>  <HIPPO Pose ID>  (284) 
203275

>  <fragmenstein_outcome>  (284) 
acceptable

>  <exports>  (284) 
['/opt/xchem-fragalysis-2/maxwin/BulkDock/OUTPUTS/RdRp_knitwork_green_site_rna_tunnel_impure_split4000_batch008_220459.sdf', '/opt/xchem-fragalysis-2/maxwin/BulkDock/OUTPUTS/RdRp_knitwork_green_site_rna_tunnel_impure_fragalysis.sdf']

>  <SLURM_JOB_ID>  (284) 
220459

>  <distance_score>  (284) 
0.724466

>  <original SMILES>  (284) 
C[C@H](O)CNC(=O)Nc1cccc2ccsc12

>  <alias>  (284) 
None

>  <ref_pdb>  (284) 
z0041a

>  <inchikey>  (284) 
MOBHRKLLRZEQDP-QMMMGPOBSA-N

$$$$
MOBHRKLLRZEQDP-QMMMGPOBSA-N
     RDKit          3D

 17 18  0  0  0  0  0  0  0  0999 V2000
  -21.1716  -33.0074  -23.9603 C   0  0  0  0  0  0  0  0  0  0  0  0
  -21.8803  -32.0968  -22.9734 C   0  0  2  0  0  0  0  0  0  0  0  0
  -21.6147  -32.5623  -21.6466 O   0  0  0  0  0  0  0  0  0  0  0  0
  -23.3826  -32.0939  -23.2474 C   0  0  0  0  0  0  0  0  0  0  0  0
  -24.1490  -31.5073  -22.1868 N   0  0  0  0  0  0  0  0  0  0  0  0
  -25.5535  -30.8578  -22.2061 C   0  0  0  0  0  0  0  0  0  0  0  0
  -26.2494  -30.6375  -23.0787 O   0  0  0  0  0  0  0  0  0  0  0  0
  -25.7764  -30.6890  -20.6778 N   0  0  0  0  0  0  0  0  0  0  0  0
  -26.9120  -30.3132  -19.9706 C   0  0  0  0  0  0  0  0  0  0  0  0
  -28.1465  -30.1958  -20.6177 C   0  0  0  0  0  0  0  0  0  0  0  0
  -29.3083  -29.9663  -19.8980 C   0  0  0  0  0  0  0  0  0  0  0  0
  -29.2506  -29.8191  -18.5124 C   0  0  0  0  0  0  0  0  0  0  0  0
  -28.0089  -29.8544  -17.8364 C   0  0  0  0  0  0  0  0  0  0  0  0
  -27.7094  -29.7428  -16.4397 C   0  0  0  0  0  0  0  0  0  0  0  0
  -26.3726  -29.8979  -16.1604 C   0  0  0  0  0  0  0  0  0  0  0  0
  -25.4525  -30.1445  -17.5689 S   0  0  0  0  0  0  0  0  0  0  0  0
  -26.8520  -30.1073  -18.5803 C   0  0  0  0  0  0  0  0  0  0  0  0
  2  1  1  6
  2  3  1  0
  2  4  1  0
  4  5  1  0
  5  6  1  0
  6  7  2  0
  6  8  1  0
  8  9  1  0
  9 10  2  0
 10 11  1  0
 11 12  2  0
 12 13  1  0
 13 14  1  0
 14 15  2  0
 15 16  1  0
 16 17  1  0
 17  9  1  0
 17 13  2  0
M  END
>  <fragmenstein_mode>  (285) 
expansion

>  <name>  (285) 
MOBHRKLLRZEQDP-QMMMGPOBSA-N

>  <fragmenstein_runtime>  (285) 
3.259307

>  <HIPPO Compound ID>  (285) 
32146

>  <SLURM_JOB_NAME>  (285) 
BulkDock.place:Flavi_NS5_RdRp:RdRp_knitwork_green_site_rna_tunnel_impure_split4000_batch008

>  <ref_mols>  (285) 
z0041a,z0211a

>  <Multi-SuCOS>  (285) 
0.767334

>  <tags>  (285) 
['Fragmenstein placed', 'RdRp_knitwork_green_site_rna_tunnel_impure_fragalysis.sdf Pose OK']

>  <scratch_subdir>  (285) 
/opt/xchem-fragalysis-2/maxwin/BulkDock/SCRATCH/220459/C32146-P102

>  <energy_score>  (285) 
-37.322507

>  <fragmenstein_error>  (285) 
None

>  <csv_name>  (285) 
RdRp_knitwork_green_site_rna_tunnel_impure_split4000_batch008.csv

>  <merge_set>  (285) 
RdRp_knitwork_green_site_rna_tunnel_impure_fragalysis.sdf

>  <original ID>  (285) 
MOBHRKLLRZEQDP-QMMMGPOBSA-N

>  <HIPPO Pose ID>  (285) 
203301

>  <fragmenstein_outcome>  (285) 
acceptable

>  <exports>  (285) 
['/opt/xchem-fragalysis-2/maxwin/BulkDock/OUTPUTS/RdRp_knitwork_green_site_rna_tunnel_impure_split4000_batch008_220459.sdf', '/opt/xchem-fragalysis-2/maxwin/BulkDock/OUTPUTS/RdRp_knitwork_green_site_rna_tunnel_impure_fragalysis.sdf']

>  <SLURM_JOB_ID>  (285) 
220459

>  <distance_score>  (285) 
0.646296

>  <original SMILES>  (285) 
C[C@H](O)CNC(=O)Nc1cccc2ccsc12

>  <alias>  (285) 
None

>  <ref_pdb>  (285) 
z0211a

>  <inchikey>  (285) 
MOBHRKLLRZEQDP-QMMMGPOBSA-N

$$$$
OKQWIQCMCFXYCQ-ZUZCIYMTSA-N
     RDKit          3D

 22 24  0  0  0  0  0  0  0  0999 V2000
  -29.7140  -30.9740  -19.9202 C   0  0  0  0  0  0  0  0  0  0  0  0
  -28.5901  -29.9437  -19.8698 C   0  0  2  0  0  0  0  0  0  0  0  0
  -27.6289  -30.0092  -21.0058 N   0  0  0  0  0  0  0  0  0  0  0  0
  -26.6713  -31.1530  -21.0726 C   0  0  0  0  0  0  0  0  0  0  0  0
  -25.6679  -31.2047  -22.3171 C   0  0  2  0  0  0  0  0  0  0  0  0
  -24.4613  -32.1220  -22.1019 C   0  0  0  0  0  0  0  0  0  0  0  0
  -23.6333  -31.9245  -20.9848 C   0  0  0  0  0  0  0  0  0  0  0  0
  -22.5270  -32.7440  -20.7419 C   0  0  0  0  0  0  0  0  0  0  0  0
  -22.2132  -33.7769  -21.6157 C   0  0  0  0  0  0  0  0  0  0  0  0
  -23.0014  -33.9826  -22.7405 C   0  0  0  0  0  0  0  0  0  0  0  0
  -24.1071  -33.1603  -22.9846 C   0  0  0  0  0  0  0  0  0  0  0  0
  -25.2425  -29.8799  -22.7563 N   0  0  0  0  0  0  0  0  0  0  0  0
  -25.8560  -29.5014  -23.9240 C   0  0  0  0  0  0  0  0  0  0  0  0
  -25.6957  -28.4646  -24.5423 O   0  0  0  0  0  0  0  0  0  0  0  0
  -26.6871  -30.4805  -24.3218 N   0  0  0  0  0  0  0  0  0  0  0  0
  -26.5112  -31.5790  -23.5447 C   0  0  0  0  0  0  0  0  0  0  0  0
  -26.9757  -32.6809  -23.7982 O   0  0  0  0  0  0  0  0  0  0  0  0
  -28.0140  -29.8483  -18.4807 C   0  0  0  0  0  0  0  0  0  0  0  0
  -28.7528  -29.6521  -17.2761 C   0  0  0  0  0  0  0  0  0  0  0  0
  -27.8097  -29.6547  -16.2891 C   0  0  0  0  0  0  0  0  0  0  0  0
  -26.5906  -29.8168  -16.8462 O   0  0  0  0  0  0  0  0  0  0  0  0
  -26.7082  -29.9304  -18.2107 N   0  0  0  0  0  0  0  0  0  0  0  0
  2  1  1  1
  2  3  1  0
  3  4  1  0
  5  4  1  1
  5  6  1  0
  6  7  2  0
  7  8  1  0
  8  9  2  0
  9 10  1  0
 10 11  2  0
  5 12  1  0
 12 13  1  0
 13 14  2  0
 13 15  1  0
 15 16  1  0
 16 17  2  0
  2 18  1  0
 18 19  1  0
 19 20  2  0
 20 21  1  0
 21 22  1  0
 16  5  1  0
 22 18  2  0
 11  6  1  0
M  END
>  <fragmenstein_mode>  (286) 
expansion

>  <name>  (286) 
OKQWIQCMCFXYCQ-ZUZCIYMTSA-N

>  <fragmenstein_runtime>  (286) 
6.149603

>  <HIPPO Compound ID>  (286) 
37811

>  <SLURM_JOB_NAME>  (286) 
BulkDock.place:Flavi_NS5_RdRp:RdRp_knitwork_green_site_rna_tunnel_impure_split4000_batch003

>  <ref_mols>  (286) 
z0519a,z0637a

>  <Multi-SuCOS>  (286) 
0.586823

>  <tags>  (286) 
['Fragmenstein placed', 'RdRp_knitwork_green_site_rna_tunnel_impure_fragalysis.sdf Pose OK']

>  <scratch_subdir>  (286) 
/opt/xchem-fragalysis-2/maxwin/BulkDock/SCRATCH/220454/C37811-P140

>  <energy_score>  (286) 
-29.962278

>  <fragmenstein_error>  (286) 
None

>  <csv_name>  (286) 
RdRp_knitwork_green_site_rna_tunnel_impure_split4000_batch003.csv

>  <merge_set>  (286) 
RdRp_knitwork_green_site_rna_tunnel_impure_fragalysis.sdf

>  <original ID>  (286) 
OKQWIQCMCFXYCQ-ZUZCIYMTSA-N

>  <HIPPO Pose ID>  (286) 
203325

>  <fragmenstein_outcome>  (286) 
acceptable

>  <exports>  (286) 
['/opt/xchem-fragalysis-2/maxwin/BulkDock/OUTPUTS/RdRp_knitwork_green_site_rna_tunnel_impure_split4000_batch003_220454.sdf', '/opt/xchem-fragalysis-2/maxwin/BulkDock/OUTPUTS/RdRp_knitwork_green_site_rna_tunnel_impure_fragalysis.sdf']

>  <SLURM_JOB_ID>  (286) 
220454

>  <distance_score>  (286) 
0.988715

>  <original SMILES>  (286) 
C[C@H](NC[C@]1(c2ccccc2)NC(=O)NC1=O)c1ccon1

>  <alias>  (286) 
None

>  <ref_pdb>  (286) 
z0519a

>  <inchikey>  (286) 
OKQWIQCMCFXYCQ-ZUZCIYMTSA-N

$$$$
DHTZDXDBLFYTJG-RKDXNWHRSA-N
     RDKit          3D

 15 15  0  0  0  0  0  0  0  0999 V2000
  -29.1759  -30.0106  -18.4329 C   0  0  0  0  0  0  0  0  0  0  0  0
  -27.8277  -30.3564  -19.0577 C   0  0  0  0  0  0  0  0  0  0  0  0
  -27.8718  -30.5251  -20.5774 C   0  0  1  0  0  0  0  0  0  0  0  0
  -28.5761  -29.0222  -21.3774 S   0  0  0  0  0  0  0  0  0  0  0  0
  -26.5861  -30.9630  -21.3637 C   0  0  0  0  0  0  0  0  0  0  0  0
  -26.5331  -30.7049  -22.5013 O   0  0  0  0  0  0  0  0  0  0  0  0
  -25.6198  -31.7787  -20.4768 N   0  0  0  0  0  0  0  0  0  0  0  0
  -24.4175  -32.5390  -20.8284 C   0  0  2  0  0  0  0  0  0  0  0  0
  -23.6936  -32.9947  -19.5659 C   0  0  0  0  0  0  0  0  0  0  0  0
  -23.4756  -31.7448  -21.7570 C   0  0  0  0  0  0  0  0  0  0  0  0
  -22.7945  -32.5448  -22.7617 N   0  0  0  0  0  0  0  0  0  0  0  0
  -21.4473  -32.5770  -22.9924 C   0  0  0  0  0  0  0  0  0  0  0  0
  -21.2698  -33.3075  -24.1424 C   0  0  0  0  0  0  0  0  0  0  0  0
  -22.5674  -33.6910  -24.5224 C   0  0  0  0  0  0  0  0  0  0  0  0
  -23.5055  -33.2344  -23.6862 N   0  0  0  0  0  0  0  0  0  0  0  0
  1  2  1  0
  2  3  1  0
  3  4  1  6
  3  5  1  0
  5  6  2  0
  5  7  1  0
  7  8  1  0
  8  9  1  1
  8 10  1  0
 10 11  1  0
 11 12  1  0
 12 13  2  0
 13 14  1  0
 14 15  2  0
 15 11  1  0
M  END
>  <fragmenstein_mode>  (287) 
expansion

>  <name>  (287) 
DHTZDXDBLFYTJG-RKDXNWHRSA-N

>  <fragmenstein_runtime>  (287) 
9.843182

>  <HIPPO Compound ID>  (287) 
49267

>  <SLURM_JOB_NAME>  (287) 
BulkDock.place:Flavi_NS5_RdRp:RdRp_knitwork_green_site_rna_tunnel_impure_split4000_batch014

>  <ref_mols>  (287) 
z0215a,z1018a

>  <Multi-SuCOS>  (287) 
0.576975

>  <tags>  (287) 
['Fragmenstein placed', 'RdRp_knitwork_green_site_rna_tunnel_impure_fragalysis.sdf Pose OK']

>  <scratch_subdir>  (287) 
/opt/xchem-fragalysis-2/maxwin/BulkDock/SCRATCH/220465/C49267-P206

>  <energy_score>  (287) 
-11.123155

>  <fragmenstein_error>  (287) 
None

>  <csv_name>  (287) 
RdRp_knitwork_green_site_rna_tunnel_impure_split4000_batch014.csv

>  <merge_set>  (287) 
RdRp_knitwork_green_site_rna_tunnel_impure_fragalysis.sdf

>  <original ID>  (287) 
DHTZDXDBLFYTJG-RKDXNWHRSA-N

>  <HIPPO Pose ID>  (287) 
203377

>  <fragmenstein_outcome>  (287) 
acceptable

>  <exports>  (287) 
['/opt/xchem-fragalysis-2/maxwin/BulkDock/OUTPUTS/RdRp_knitwork_green_site_rna_tunnel_impure_split4000_batch014_220465.sdf', '/opt/xchem-fragalysis-2/maxwin/BulkDock/OUTPUTS/RdRp_knitwork_green_site_rna_tunnel_impure_fragalysis.sdf']

>  <SLURM_JOB_ID>  (287) 
220465

>  <distance_score>  (287) 
0.762803

>  <original SMILES>  (287) 
CC[C@@H](S)C(=O)N[C@H](C)Cn1cccn1

>  <alias>  (287) 
None

>  <ref_pdb>  (287) 
z1018a

>  <inchikey>  (287) 
DHTZDXDBLFYTJG-RKDXNWHRSA-N

$$$$
DXTZCYCKMWKPTI-UHFFFAOYSA-N
     RDKit          3D

 14 16  0  0  0  0  0  0  0  0999 V2000
  -29.9282  -30.1959  -20.6220 C   0  0  0  0  0  0  0  0  0  0  0  0
  -28.8827  -29.5824  -21.4228 C   0  0  0  0  0  0  0  0  0  0  0  0
  -27.6914  -29.1926  -20.9045 C   0  0  0  0  0  0  0  0  0  0  0  0
  -26.7134  -28.6766  -21.8147 C   0  0  0  0  0  0  0  0  0  0  0  0
  -26.4163  -29.1965  -22.9947 N   0  0  0  0  0  0  0  0  0  0  0  0
  -25.4511  -28.4423  -23.6339 C   0  0  0  0  0  0  0  0  0  0  0  0
  -25.0425  -27.3131  -22.9633 C   0  0  0  0  0  0  0  0  0  0  0  0
  -25.8510  -27.2074  -21.4576 S   0  0  0  0  0  0  0  0  0  0  0  0
  -27.4598  -29.4231  -19.5112 C   0  0  0  0  0  0  0  0  0  0  0  0
  -26.4537  -29.1315  -18.7114 N   0  0  0  0  0  0  0  0  0  0  0  0
  -26.7954  -29.7522  -17.5551 C   0  0  0  0  0  0  0  0  0  0  0  0
  -27.9792  -30.3570  -17.5489 N   0  0  0  0  0  0  0  0  0  0  0  0
  -28.4360  -30.1240  -18.7991 N   0  0  0  0  0  0  0  0  0  0  0  0
  -29.6656  -30.4795  -19.3394 C   0  0  0  0  0  0  0  0  0  0  0  0
  1  2  1  0
  2  3  2  0
  3  4  1  0
  4  5  2  0
  5  6  1  0
  6  7  2  0
  7  8  1  0
  3  9  1  0
  9 10  2  0
 10 11  1  0
 11 12  2  0
 12 13  1  0
 13 14  1  0
 14  1  2  0
  8  4  1  0
 13  9  1  0
M  END
>  <fragmenstein_mode>  (288) 
expansion

>  <name>  (288) 
DXTZCYCKMWKPTI-UHFFFAOYSA-N

>  <fragmenstein_runtime>  (288) 
2.200833

>  <HIPPO Compound ID>  (288) 
49471

>  <SLURM_JOB_NAME>  (288) 
BulkDock.place:Flavi_NS5_RdRp:RdRp_knitwork_green_site_rna_tunnel_impure_split4000_batch015

>  <ref_mols>  (288) 
z0496a,z0521a

>  <Multi-SuCOS>  (288) 
0.710555

>  <tags>  (288) 
['Fragmenstein placed', 'RdRp_knitwork_green_site_rna_tunnel_impure_fragalysis.sdf Pose OK']

>  <scratch_subdir>  (288) 
/opt/xchem-fragalysis-2/maxwin/BulkDock/SCRATCH/220466/C49471-P136

>  <energy_score>  (288) 
-68.291385

>  <fragmenstein_error>  (288) 
None

>  <csv_name>  (288) 
RdRp_knitwork_green_site_rna_tunnel_impure_split4000_batch015.csv

>  <merge_set>  (288) 
RdRp_knitwork_green_site_rna_tunnel_impure_fragalysis.sdf

>  <original ID>  (288) 
DXTZCYCKMWKPTI-UHFFFAOYSA-N

>  <HIPPO Pose ID>  (288) 
203403

>  <fragmenstein_outcome>  (288) 
acceptable

>  <exports>  (288) 
['/opt/xchem-fragalysis-2/maxwin/BulkDock/OUTPUTS/RdRp_knitwork_green_site_rna_tunnel_impure_split4000_batch015_220466.sdf', '/opt/xchem-fragalysis-2/maxwin/BulkDock/OUTPUTS/RdRp_knitwork_green_site_rna_tunnel_impure_fragalysis.sdf']

>  <SLURM_JOB_ID>  (288) 
220466

>  <distance_score>  (288) 
0.981097

>  <original SMILES>  (288) 
c1cc(-c2nccs2)c2ncnn2c1

>  <alias>  (288) 
None

>  <ref_pdb>  (288) 
z0496a

>  <inchikey>  (288) 
DXTZCYCKMWKPTI-UHFFFAOYSA-N

$$$$
FJJAVRRJJLXMEW-YVEFUNNKSA-N
     RDKit          3D

 23 25  0  0  0  0  0  0  0  0999 V2000
  -20.9136  -32.8747  -24.2403 C   0  0  0  0  0  0  0  0  0  0  0  0
  -21.9553  -32.3047  -23.2977 C   0  0  2  0  0  0  0  0  0  0  0  0
  -21.2446  -31.5869  -22.2675 O   0  0  0  0  0  0  0  0  0  0  0  0
  -22.8204  -33.3786  -22.6014 C   0  0  1  0  0  0  0  0  0  0  0  0
  -23.7207  -32.6996  -21.6865 N   0  0  0  0  0  0  0  0  0  0  0  0
  -24.9783  -31.8398  -21.9696 C   0  0  0  0  0  0  0  0  0  0  0  0
  -25.5119  -31.6168  -22.9511 O   0  0  0  0  0  0  0  0  0  0  0  0
  -25.3168  -31.3955  -20.5196 N   0  0  0  0  0  0  0  0  0  0  0  0
  -26.4061  -30.6886  -20.0270 C   0  0  0  0  0  0  0  0  0  0  0  0
  -27.5161  -30.3954  -20.8282 C   0  0  0  0  0  0  0  0  0  0  0  0
  -28.7042  -29.9061  -20.2696 C   0  0  0  0  0  0  0  0  0  0  0  0
  -28.6892  -29.7065  -18.8944 C   0  0  0  0  0  0  0  0  0  0  0  0
  -29.7560  -29.3694  -18.1268 O   0  0  0  0  0  0  0  0  0  0  0  0
  -29.3084  -29.2682  -16.8519 C   0  0  0  0  0  0  0  0  0  0  0  0
  -27.9584  -29.5009  -16.7828 C   0  0  0  0  0  0  0  0  0  0  0  0
  -27.5663  -29.8625  -18.0930 C   0  0  0  0  0  0  0  0  0  0  0  0
  -26.3954  -30.3745  -18.6633 C   0  0  0  0  0  0  0  0  0  0  0  0
  -23.5681  -34.3460  -23.4971 C   0  0  0  0  0  0  0  0  0  0  0  0
  -24.2228  -33.9302  -24.6674 C   0  0  0  0  0  0  0  0  0  0  0  0
  -24.8927  -34.8477  -25.4794 C   0  0  0  0  0  0  0  0  0  0  0  0
  -24.9276  -36.1945  -25.1284 C   0  0  0  0  0  0  0  0  0  0  0  0
  -24.2993  -36.6236  -23.9621 C   0  0  0  0  0  0  0  0  0  0  0  0
  -23.6287  -35.7062  -23.1501 C   0  0  0  0  0  0  0  0  0  0  0  0
  2  1  1  6
  2  3  1  0
  2  4  1  0
  4  5  1  6
  5  6  1  0
  6  7  2  0
  6  8  1  0
  8  9  1  0
  9 10  2  0
 10 11  1  0
 11 12  2  0
 12 13  1  0
 13 14  1  0
 14 15  2  0
 15 16  1  0
 16 17  2  0
  4 18  1  0
 18 19  2  0
 19 20  1  0
 20 21  2  0
 21 22  1  0
 22 23  2  0
 17  9  1  0
 23 18  1  0
 16 12  1  0
M  END
>  <fragmenstein_mode>  (289) 
expansion

>  <name>  (289) 
FJJAVRRJJLXMEW-YVEFUNNKSA-N

>  <fragmenstein_runtime>  (289) 
14.048778

>  <HIPPO Compound ID>  (289) 
32864

>  <SLURM_JOB_NAME>  (289) 
BulkDock.place:Flavi_NS5_RdRp:RdRp_knitwork_green_site_rna_tunnel_impure_split4000_batch008

>  <ref_mols>  (289) 
z0041a,z0211a

>  <Multi-SuCOS>  (289) 
0.495479

>  <tags>  (289) 
['Fragmenstein placed', 'RdRp_knitwork_green_site_rna_tunnel_impure_fragalysis.sdf Pose OK']

>  <scratch_subdir>  (289) 
/opt/xchem-fragalysis-2/maxwin/BulkDock/SCRATCH/220459/C32864-P82

>  <energy_score>  (289) 
-24.72994

>  <fragmenstein_error>  (289) 
None

>  <csv_name>  (289) 
RdRp_knitwork_green_site_rna_tunnel_impure_split4000_batch008.csv

>  <merge_set>  (289) 
RdRp_knitwork_green_site_rna_tunnel_impure_fragalysis.sdf

>  <original ID>  (289) 
FJJAVRRJJLXMEW-YVEFUNNKSA-N

>  <HIPPO Pose ID>  (289) 
203493

>  <fragmenstein_outcome>  (289) 
acceptable

>  <exports>  (289) 
['/opt/xchem-fragalysis-2/maxwin/BulkDock/OUTPUTS/RdRp_knitwork_green_site_rna_tunnel_impure_split4000_batch008_220459.sdf', '/opt/xchem-fragalysis-2/maxwin/BulkDock/OUTPUTS/RdRp_knitwork_green_site_rna_tunnel_impure_fragalysis.sdf']

>  <SLURM_JOB_ID>  (289) 
220459

>  <distance_score>  (289) 
0.940893

>  <original SMILES>  (289) 
C[C@H](O)[C@@H](NC(=O)Nc1ccc2occc2c1)c1ccccc1

>  <alias>  (289) 
None

>  <ref_pdb>  (289) 
z0041a

>  <inchikey>  (289) 
FJJAVRRJJLXMEW-YVEFUNNKSA-N

$$$$
HGBTURFHLAQWNY-OAHLLOKOSA-N
     RDKit          3D

 25 28  0  0  0  0  0  0  0  0999 V2000
  -24.2883  -30.9774  -19.1226 C   0  0  0  0  0  0  0  0  0  0  0  0
  -25.3200  -31.0252  -20.2422 C   0  0  1  0  0  0  0  0  0  0  0  0
  -25.1082  -32.2264  -21.0138 N   0  0  0  0  0  0  0  0  0  0  0  0
  -24.9116  -32.4213  -22.5407 C   0  0  0  0  0  0  0  0  0  0  0  0
  -24.9679  -31.6494  -23.4152 O   0  0  0  0  0  0  0  0  0  0  0  0
  -24.5291  -33.8836  -22.7851 C   0  0  0  0  0  0  0  0  0  0  0  0
  -23.3858  -34.3944  -21.9476 C   0  0  0  0  0  0  0  0  0  0  0  0
  -23.3156  -35.6670  -21.4095 C   0  0  0  0  0  0  0  0  0  0  0  0
  -22.1626  -35.7711  -20.6829 N   0  0  0  0  0  0  0  0  0  0  0  0
  -21.4733  -34.5829  -20.7112 C   0  0  0  0  0  0  0  0  0  0  0  0
  -20.2757  -34.2251  -20.0758 C   0  0  0  0  0  0  0  0  0  0  0  0
  -19.7688  -32.9460  -20.3132 C   0  0  0  0  0  0  0  0  0  0  0  0
  -20.4435  -32.0593  -21.1462 C   0  0  0  0  0  0  0  0  0  0  0  0
  -21.6453  -32.4277  -21.7665 C   0  0  0  0  0  0  0  0  0  0  0  0
  -22.1845  -33.7130  -21.5414 C   0  0  0  0  0  0  0  0  0  0  0  0
  -26.7934  -30.7487  -19.9444 C   0  0  0  0  0  0  0  0  0  0  0  0
  -27.5457  -30.3650  -21.0823 C   0  0  0  0  0  0  0  0  0  0  0  0
  -28.8782  -29.9900  -20.9913 C   0  0  0  0  0  0  0  0  0  0  0  0
  -29.4953  -29.9673  -19.7519 C   0  0  0  0  0  0  0  0  0  0  0  0
  -28.7923  -30.2992  -18.5895 C   0  0  0  0  0  0  0  0  0  0  0  0
  -29.4498  -30.1825  -17.3518 C   0  0  0  0  0  0  0  0  0  0  0  0
  -28.8232  -30.5366  -16.1639 C   0  0  0  0  0  0  0  0  0  0  0  0
  -27.5491  -31.0666  -16.2090 C   0  0  0  0  0  0  0  0  0  0  0  0
  -26.8822  -31.1744  -17.4357 C   0  0  0  0  0  0  0  0  0  0  0  0
  -27.4445  -30.7484  -18.6646 C   0  0  0  0  0  0  0  0  0  0  0  0
  2  1  1  1
  2  3  1  0
  3  4  1  0
  4  5  2  0
  4  6  1  0
  6  7  1  0
  7  8  2  0
  8  9  1  0
  9 10  1  0
 10 11  2  0
 11 12  1  0
 12 13  2  0
 13 14  1  0
 14 15  2  0
  2 16  1  0
 16 17  2  0
 17 18  1  0
 18 19  2  0
 19 20  1  0
 20 21  2  0
 21 22  1  0
 22 23  2  0
 23 24  1  0
 24 25  2  0
 15  7  1  0
 25 16  1  0
 15 10  1  0
 25 20  1  0
M  END
>  <fragmenstein_mode>  (290) 
expansion

>  <name>  (290) 
HGBTURFHLAQWNY-OAHLLOKOSA-N

>  <fragmenstein_runtime>  (290) 
6.267993

>  <HIPPO Compound ID>  (290) 
27209

>  <SLURM_JOB_NAME>  (290) 
BulkDock.place:Flavi_NS5_RdRp:RdRp_knitwork_green_site_rna_tunnel_impure_split4000_batch006

>  <ref_mols>  (290) 
z0136a,3vws-b

>  <Multi-SuCOS>  (290) 
0.633385

>  <tags>  (290) 
['Fragmenstein placed', 'RdRp_knitwork_green_site_rna_tunnel_impure_fragalysis.sdf Pose OK']

>  <scratch_subdir>  (290) 
/opt/xchem-fragalysis-2/maxwin/BulkDock/SCRATCH/220457/C27209-P91

>  <energy_score>  (290) 
-44.685946

>  <fragmenstein_error>  (290) 
None

>  <csv_name>  (290) 
RdRp_knitwork_green_site_rna_tunnel_impure_split4000_batch006.csv

>  <merge_set>  (290) 
RdRp_knitwork_green_site_rna_tunnel_impure_fragalysis.sdf

>  <original ID>  (290) 
HGBTURFHLAQWNY-OAHLLOKOSA-N

>  <HIPPO Pose ID>  (290) 
203520

>  <fragmenstein_outcome>  (290) 
acceptable

>  <exports>  (290) 
['/opt/xchem-fragalysis-2/maxwin/BulkDock/OUTPUTS/RdRp_knitwork_green_site_rna_tunnel_impure_split4000_batch006_220457.sdf', '/opt/xchem-fragalysis-2/maxwin/BulkDock/OUTPUTS/RdRp_knitwork_green_site_rna_tunnel_impure_fragalysis.sdf']

>  <SLURM_JOB_ID>  (290) 
220457

>  <distance_score>  (290) 
0.804392

>  <original SMILES>  (290) 
C[C@@H](NC(=O)Cc1c[nH]c2ccccc12)c1cccc2ccccc12

>  <alias>  (290) 
None

>  <ref_pdb>  (290) 
z0136a

>  <inchikey>  (290) 
HGBTURFHLAQWNY-OAHLLOKOSA-N

$$$$
UJWBUTQSIAGJEY-UHFFFAOYSA-N
     RDKit          3D

 24 27  0  0  0  0  0  0  0  0999 V2000
  -24.8213  -30.6631  -22.2787 O   0  0  0  0  0  0  0  0  0  0  0  0
  -24.2705  -31.5468  -21.7429 C   0  0  0  0  0  0  0  0  0  0  0  0
  -23.6600  -32.6803  -22.6058 C   0  0  0  0  0  0  0  0  0  0  0  0
  -22.7823  -33.6705  -21.9069 C   0  0  0  0  0  0  0  0  0  0  0  0
  -23.0414  -35.0083  -21.6730 C   0  0  0  0  0  0  0  0  0  0  0  0
  -22.0297  -35.5089  -20.8967 N   0  0  0  0  0  0  0  0  0  0  0  0
  -21.1250  -34.5152  -20.6002 C   0  0  0  0  0  0  0  0  0  0  0  0
  -19.9791  -34.5391  -19.7963 C   0  0  0  0  0  0  0  0  0  0  0  0
  -19.2135  -33.3706  -19.7238 C   0  0  0  0  0  0  0  0  0  0  0  0
  -19.5922  -32.2183  -20.4072 C   0  0  0  0  0  0  0  0  0  0  0  0
  -20.7500  -32.2032  -21.1885 C   0  0  0  0  0  0  0  0  0  0  0  0
  -21.5283  -33.3733  -21.2889 C   0  0  0  0  0  0  0  0  0  0  0  0
  -24.1107  -31.8645  -20.2250 N   0  0  0  0  0  0  0  0  0  0  0  0
  -24.5146  -31.1085  -19.0597 C   0  0  0  0  0  0  0  0  0  0  0  0
  -25.6155  -31.8302  -18.2844 C   0  0  0  0  0  0  0  0  0  0  0  0
  -26.8141  -31.0483  -18.0086 N   0  0  0  0  0  0  0  0  0  0  0  0
  -27.4016  -30.9022  -16.7738 C   0  0  0  0  0  0  0  0  0  0  0  0
  -28.6830  -30.4325  -16.9659 C   0  0  0  0  0  0  0  0  0  0  0  0
  -28.8840  -30.2980  -18.3639 C   0  0  0  0  0  0  0  0  0  0  0  0
  -29.9852  -29.9725  -19.1738 C   0  0  0  0  0  0  0  0  0  0  0  0
  -29.8355  -29.8677  -20.5610 C   0  0  0  0  0  0  0  0  0  0  0  0
  -28.6040  -30.0900  -21.1485 C   0  0  0  0  0  0  0  0  0  0  0  0
  -27.5220  -30.4903  -20.3733 C   0  0  0  0  0  0  0  0  0  0  0  0
  -27.6757  -30.5980  -18.9864 C   0  0  0  0  0  0  0  0  0  0  0  0
  1  2  2  0
  2  3  1  0
  3  4  1  0
  4  5  2  0
  5  6  1  0
  6  7  1  0
  7  8  2  0
  8  9  1  0
  9 10  2  0
 10 11  1  0
 11 12  2  0
  2 13  1  0
 13 14  1  0
 14 15  1  0
 15 16  1  0
 16 17  1  0
 17 18  2  0
 18 19  1  0
 19 20  2  0
 20 21  1  0
 21 22  2  0
 22 23  1  0
 23 24  2  0
 12  4  1  0
 24 16  1  0
 12  7  1  0
 24 19  1  0
M  END
>  <fragmenstein_mode>  (291) 
expansion

>  <name>  (291) 
UJWBUTQSIAGJEY-UHFFFAOYSA-N

>  <fragmenstein_runtime>  (291) 
3.923103

>  <HIPPO Compound ID>  (291) 
27509

>  <SLURM_JOB_NAME>  (291) 
BulkDock.place:Flavi_NS5_RdRp:RdRp_knitwork_green_site_rna_tunnel_impure_split4000_batch006

>  <ref_mols>  (291) 
z0136a,3vws-b

>  <Multi-SuCOS>  (291) 
0.666078

>  <tags>  (291) 
['Fragmenstein placed', 'RdRp_knitwork_green_site_rna_tunnel_impure_fragalysis.sdf Pose OK']

>  <scratch_subdir>  (291) 
/opt/xchem-fragalysis-2/maxwin/BulkDock/SCRATCH/220457/C27509-P91

>  <energy_score>  (291) 
-1.741314

>  <fragmenstein_error>  (291) 
None

>  <csv_name>  (291) 
RdRp_knitwork_green_site_rna_tunnel_impure_split4000_batch006.csv

>  <merge_set>  (291) 
RdRp_knitwork_green_site_rna_tunnel_impure_fragalysis.sdf

>  <original ID>  (291) 
UJWBUTQSIAGJEY-UHFFFAOYSA-N

>  <HIPPO Pose ID>  (291) 
203611

>  <fragmenstein_outcome>  (291) 
acceptable

>  <exports>  (291) 
['/opt/xchem-fragalysis-2/maxwin/BulkDock/OUTPUTS/RdRp_knitwork_green_site_rna_tunnel_impure_split4000_batch006_220457.sdf', '/opt/xchem-fragalysis-2/maxwin/BulkDock/OUTPUTS/RdRp_knitwork_green_site_rna_tunnel_impure_fragalysis.sdf']

>  <SLURM_JOB_ID>  (291) 
220457

>  <distance_score>  (291) 
0.83137

>  <original SMILES>  (291) 
O=C(Cc1c[nH]c2ccccc12)NCCn1ccc2ccccc21

>  <alias>  (291) 
None

>  <ref_pdb>  (291) 
z0136a

>  <inchikey>  (291) 
UJWBUTQSIAGJEY-UHFFFAOYSA-N

$$$$
NVLOXFCTAKZDCQ-UHFFFAOYSA-N
     RDKit          3D

 23 27  0  0  0  0  0  0  0  0999 V2000
  -21.7583  -32.7360  -12.5853 C   0  0  0  0  0  0  0  0  0  0  0  0
  -20.9698  -33.4690  -13.4633 C   0  0  0  0  0  0  0  0  0  0  0  0
  -21.2227  -33.3900  -14.8317 C   0  0  0  0  0  0  0  0  0  0  0  0
  -22.2609  -32.5760  -15.2849 C   0  0  0  0  0  0  0  0  0  0  0  0
  -22.5874  -32.5077  -16.7169 C   0  0  0  0  0  0  0  0  0  0  0  0
  -23.6075  -31.7221  -17.2069 N   0  0  0  0  0  0  0  0  0  0  0  0
  -23.6769  -32.0071  -18.4975 C   0  0  0  0  0  0  0  0  0  0  0  0
  -24.6631  -31.5594  -19.4423 C   0  0  0  0  0  0  0  0  0  0  0  0
  -24.5593  -31.5223  -20.9077 C   0  0  0  0  0  0  0  0  0  0  0  0
  -25.5634  -31.1181  -21.7067 C   0  0  0  0  0  0  0  0  0  0  0  0
  -26.7708  -30.6539  -21.1307 C   0  0  0  0  0  0  0  0  0  0  0  0
  -27.8769  -30.1912  -21.6659 N   0  0  0  0  0  0  0  0  0  0  0  0
  -28.6165  -29.8498  -20.5758 C   0  0  0  0  0  0  0  0  0  0  0  0
  -28.0407  -30.0626  -19.3919 N   0  0  0  0  0  0  0  0  0  0  0  0
  -26.8430  -30.6050  -19.7386 N   0  0  0  0  0  0  0  0  0  0  0  0
  -25.8125  -31.0637  -18.9185 C   0  0  0  0  0  0  0  0  0  0  0  0
  -22.6477  -32.8897  -18.7734 N   0  0  0  0  0  0  0  0  0  0  0  0
  -22.2852  -33.5148  -20.0722 C   0  0  0  0  0  0  0  0  0  0  0  0
  -20.9439  -34.1819  -20.3059 C   0  0  0  0  0  0  0  0  0  0  0  0
  -21.2604  -32.8930  -20.9980 C   0  0  0  0  0  0  0  0  0  0  0  0
  -21.9519  -33.2153  -17.6638 N   0  0  0  0  0  0  0  0  0  0  0  0
  -23.0106  -31.8246  -14.4353 N   0  0  0  0  0  0  0  0  0  0  0  0
  -22.7562  -31.9347  -13.1143 C   0  0  0  0  0  0  0  0  0  0  0  0
  1  2  2  0
  2  3  1  0
  3  4  2  0
  4  5  1  0
  5  6  1  0
  6  7  2  0
  7  8  1  0
  8  9  1  0
  9 10  2  0
 10 11  1  0
 11 12  2  0
 12 13  1  0
 13 14  2  0
 14 15  1  0
 15 16  1  0
  7 17  1  0
 17 18  1  0
 18 19  1  0
 19 20  1  0
 17 21  1  0
  4 22  1  0
 22 23  2  0
 23  1  1  0
 21  5  2  0
 16  8  2  0
 20 18  1  0
 15 11  1  0
M  END
>  <fragmenstein_mode>  (292) 
expansion

>  <name>  (292) 
NVLOXFCTAKZDCQ-UHFFFAOYSA-N

>  <fragmenstein_runtime>  (292) 
1.932154

>  <HIPPO Compound ID>  (292) 
29126

>  <SLURM_JOB_NAME>  (292) 
BulkDock.place:Flavi_NS5_RdRp:RdRp_knitwork_green_site_rna_tunnel_impure_split4000_batch012

>  <ref_mols>  (292) 
z0521a,z0637a

>  <Multi-SuCOS>  (292) 
0.465354

>  <tags>  (292) 
['Fragmenstein placed', 'RdRp_knitwork_green_site_rna_tunnel_impure_fragalysis.sdf Pose OK']

>  <scratch_subdir>  (292) 
/opt/xchem-fragalysis-2/maxwin/BulkDock/SCRATCH/220463/C29126-P141

>  <energy_score>  (292) 
-39.939854

>  <fragmenstein_error>  (292) 
None

>  <csv_name>  (292) 
RdRp_knitwork_green_site_rna_tunnel_impure_split4000_batch012.csv

>  <merge_set>  (292) 
RdRp_knitwork_green_site_rna_tunnel_impure_fragalysis.sdf

>  <original ID>  (292) 
NVLOXFCTAKZDCQ-UHFFFAOYSA-N

>  <HIPPO Pose ID>  (292) 
203788

>  <fragmenstein_outcome>  (292) 
acceptable

>  <exports>  (292) 
['/opt/xchem-fragalysis-2/maxwin/BulkDock/OUTPUTS/RdRp_knitwork_green_site_rna_tunnel_impure_split4000_batch012_220463.sdf', '/opt/xchem-fragalysis-2/maxwin/BulkDock/OUTPUTS/RdRp_knitwork_green_site_rna_tunnel_impure_fragalysis.sdf']

>  <SLURM_JOB_ID>  (292) 
220463

>  <distance_score>  (292) 
0.617182

>  <original SMILES>  (292) 
c1ccc(-c2nc(-c3ccc4ncnn4c3)n(C3CC3)n2)nc1

>  <alias>  (292) 
None

>  <ref_pdb>  (292) 
z0521a

>  <inchikey>  (292) 
NVLOXFCTAKZDCQ-UHFFFAOYSA-N

$$$$
NVLOXFCTAKZDCQ-UHFFFAOYSA-N
     RDKit          3D

 23 27  0  0  0  0  0  0  0  0999 V2000
  -21.5872  -32.5424  -12.6286 C   0  0  0  0  0  0  0  0  0  0  0  0
  -21.2190  -33.6191  -13.4267 C   0  0  0  0  0  0  0  0  0  0  0  0
  -21.5699  -33.6196  -14.7752 C   0  0  0  0  0  0  0  0  0  0  0  0
  -22.2878  -32.5398  -15.2860 C   0  0  0  0  0  0  0  0  0  0  0  0
  -22.6507  -32.4892  -16.7082 C   0  0  0  0  0  0  0  0  0  0  0  0
  -23.6756  -31.6991  -17.1828 N   0  0  0  0  0  0  0  0  0  0  0  0
  -23.7264  -31.9408  -18.4824 C   0  0  0  0  0  0  0  0  0  0  0  0
  -24.6683  -31.4182  -19.4332 C   0  0  0  0  0  0  0  0  0  0  0  0
  -24.5253  -31.3216  -20.8922 C   0  0  0  0  0  0  0  0  0  0  0  0
  -25.4836  -30.8214  -21.6949 C   0  0  0  0  0  0  0  0  0  0  0  0
  -26.6821  -30.3237  -21.1287 C   0  0  0  0  0  0  0  0  0  0  0  0
  -27.7419  -29.7604  -21.6630 N   0  0  0  0  0  0  0  0  0  0  0  0
  -28.5193  -29.4986  -20.5756 C   0  0  0  0  0  0  0  0  0  0  0  0
  -28.0134  -29.8582  -19.3960 N   0  0  0  0  0  0  0  0  0  0  0  0
  -26.8059  -30.3776  -19.7400 N   0  0  0  0  0  0  0  0  0  0  0  0
  -25.8133  -30.9065  -18.9176 C   0  0  0  0  0  0  0  0  0  0  0  0
  -22.7347  -32.8636  -18.7637 N   0  0  0  0  0  0  0  0  0  0  0  0
  -22.4482  -33.5390  -20.0577 C   0  0  0  0  0  0  0  0  0  0  0  0
  -21.1727  -34.3230  -20.2969 C   0  0  0  0  0  0  0  0  0  0  0  0
  -21.3911  -33.0269  -21.0129 C   0  0  0  0  0  0  0  0  0  0  0  0
  -22.0415  -33.2100  -17.6618 N   0  0  0  0  0  0  0  0  0  0  0  0
  -22.6524  -31.4816  -14.5129 N   0  0  0  0  0  0  0  0  0  0  0  0
  -22.2971  -31.5070  -13.2125 C   0  0  0  0  0  0  0  0  0  0  0  0
  1  2  2  0
  2  3  1  0
  3  4  2  0
  4  5  1  0
  5  6  1  0
  6  7  2  0
  7  8  1  0
  8  9  1  0
  9 10  2  0
 10 11  1  0
 11 12  2  0
 12 13  1  0
 13 14  2  0
 14 15  1  0
 15 16  1  0
  7 17  1  0
 17 18  1  0
 18 19  1  0
 19 20  1  0
 17 21  1  0
  4 22  1  0
 22 23  2  0
 23  1  1  0
 21  5  2  0
 16  8  2  0
 20 18  1  0
 15 11  1  0
M  END
>  <fragmenstein_mode>  (293) 
expansion

>  <name>  (293) 
NVLOXFCTAKZDCQ-UHFFFAOYSA-N

>  <fragmenstein_runtime>  (293) 
1.670493

>  <HIPPO Compound ID>  (293) 
29126

>  <SLURM_JOB_NAME>  (293) 
BulkDock.place:Flavi_NS5_RdRp:RdRp_knitwork_green_site_rna_tunnel_impure_split4000_batch012

>  <ref_mols>  (293) 
z0521a,z0637a

>  <Multi-SuCOS>  (293) 
0.448935

>  <tags>  (293) 
['Fragmenstein placed', 'RdRp_knitwork_green_site_rna_tunnel_impure_fragalysis.sdf Pose OK']

>  <scratch_subdir>  (293) 
/opt/xchem-fragalysis-2/maxwin/BulkDock/SCRATCH/220463/C29126-P151

>  <energy_score>  (293) 
-40.157092

>  <fragmenstein_error>  (293) 
None

>  <csv_name>  (293) 
RdRp_knitwork_green_site_rna_tunnel_impure_split4000_batch012.csv

>  <merge_set>  (293) 
RdRp_knitwork_green_site_rna_tunnel_impure_fragalysis.sdf

>  <original ID>  (293) 
NVLOXFCTAKZDCQ-UHFFFAOYSA-N

>  <HIPPO Pose ID>  (293) 
203798

>  <fragmenstein_outcome>  (293) 
acceptable

>  <exports>  (293) 
['/opt/xchem-fragalysis-2/maxwin/BulkDock/OUTPUTS/RdRp_knitwork_green_site_rna_tunnel_impure_split4000_batch012_220463.sdf', '/opt/xchem-fragalysis-2/maxwin/BulkDock/OUTPUTS/RdRp_knitwork_green_site_rna_tunnel_impure_fragalysis.sdf']

>  <SLURM_JOB_ID>  (293) 
220463

>  <distance_score>  (293) 
0.646427

>  <original SMILES>  (293) 
c1ccc(-c2nc(-c3ccc4ncnn4c3)n(C3CC3)n2)nc1

>  <alias>  (293) 
None

>  <ref_pdb>  (293) 
z0637a

>  <inchikey>  (293) 
NVLOXFCTAKZDCQ-UHFFFAOYSA-N

$$$$
KDLJKMCSUJXXOQ-SFHVURJKSA-N
     RDKit          3D

 23 25  0  0  0  0  0  0  0  0999 V2000
  -22.5997  -34.0139  -22.1979 C   0  0  0  0  0  0  0  0  0  0  0  0
  -22.3098  -32.7342  -22.9647 C   0  0  2  0  0  0  0  0  0  0  0  0
  -21.3610  -31.9705  -22.2078 O   0  0  0  0  0  0  0  0  0  0  0  0
  -23.5712  -31.9142  -23.2563 C   0  0  0  0  0  0  0  0  0  0  0  0
  -24.3129  -31.4976  -22.1029 N   0  0  0  0  0  0  0  0  0  0  0  0
  -25.7857  -31.7387  -21.7239 C   0  0  0  0  0  0  0  0  0  0  0  0
  -26.5815  -32.3607  -22.2379 O   0  0  0  0  0  0  0  0  0  0  0  0
  -25.8863  -30.8065  -20.5005 N   0  0  0  0  0  0  0  0  0  0  0  0
  -26.9902  -30.4107  -19.7623 C   0  0  0  0  0  0  0  0  0  0  0  0
  -28.2300  -30.3334  -20.4037 C   0  0  0  0  0  0  0  0  0  0  0  0
  -29.3628  -29.9403  -19.7051 C   0  0  0  0  0  0  0  0  0  0  0  0
  -29.2523  -29.6294  -18.3553 C   0  0  0  0  0  0  0  0  0  0  0  0
  -28.0091  -29.6798  -17.7039 C   0  0  0  0  0  0  0  0  0  0  0  0
  -27.9118  -29.4225  -16.3341 C   0  0  0  0  0  0  0  0  0  0  0  0
  -26.6985  -29.5775  -15.6626 C   0  0  0  0  0  0  0  0  0  0  0  0
  -25.5546  -29.9553  -16.3459 C   0  0  0  0  0  0  0  0  0  0  0  0
  -25.6255  -30.1961  -17.7094 C   0  0  0  0  0  0  0  0  0  0  0  0
  -26.8484  -30.0721  -18.4084 C   0  0  0  0  0  0  0  0  0  0  0  0
  -21.6789  -33.0961  -24.2537 C   0  0  0  0  0  0  0  0  0  0  0  0
  -20.3825  -33.2751  -24.6601 C   0  0  0  0  0  0  0  0  0  0  0  0
  -20.4403  -33.7057  -25.9994 C   0  0  0  0  0  0  0  0  0  0  0  0
  -21.7718  -33.7582  -26.3270 C   0  0  0  0  0  0  0  0  0  0  0  0
  -22.5319  -33.4065  -25.2697 O   0  0  0  0  0  0  0  0  0  0  0  0
  2  1  1  1
  2  3  1  0
  2  4  1  0
  4  5  1  0
  5  6  1  0
  6  7  2  0
  6  8  1  0
  8  9  1  0
  9 10  2  0
 10 11  1  0
 11 12  2  0
 12 13  1  0
 13 14  2  0
 14 15  1  0
 15 16  2  0
 16 17  1  0
 17 18  2  0
  2 19  1  0
 19 20  2  0
 20 21  1  0
 21 22  2  0
 22 23  1  0
 18  9  1  0
 23 19  1  0
 18 13  1  0
M  END
>  <fragmenstein_mode>  (294) 
expansion

>  <name>  (294) 
KDLJKMCSUJXXOQ-SFHVURJKSA-N

>  <fragmenstein_runtime>  (294) 
12.981013

>  <HIPPO Compound ID>  (294) 
33380

>  <SLURM_JOB_NAME>  (294) 
BulkDock.place:Flavi_NS5_RdRp:RdRp_knitwork_green_site_rna_tunnel_impure_split4000_batch008

>  <ref_mols>  (294) 
z0041a,z0211a

>  <Multi-SuCOS>  (294) 
0.613989

>  <tags>  (294) 
['Fragmenstein placed', 'RdRp_knitwork_green_site_rna_tunnel_impure_fragalysis.sdf Pose OK']

>  <scratch_subdir>  (294) 
/opt/xchem-fragalysis-2/maxwin/BulkDock/SCRATCH/220459/C33380-P82

>  <energy_score>  (294) 
-22.056899

>  <fragmenstein_error>  (294) 
None

>  <csv_name>  (294) 
RdRp_knitwork_green_site_rna_tunnel_impure_split4000_batch008.csv

>  <merge_set>  (294) 
RdRp_knitwork_green_site_rna_tunnel_impure_fragalysis.sdf

>  <original ID>  (294) 
KDLJKMCSUJXXOQ-SFHVURJKSA-N

>  <HIPPO Pose ID>  (294) 
203850

>  <fragmenstein_outcome>  (294) 
acceptable

>  <exports>  (294) 
['/opt/xchem-fragalysis-2/maxwin/BulkDock/OUTPUTS/RdRp_knitwork_green_site_rna_tunnel_impure_split4000_batch008_220459.sdf', '/opt/xchem-fragalysis-2/maxwin/BulkDock/OUTPUTS/RdRp_knitwork_green_site_rna_tunnel_impure_fragalysis.sdf']

>  <SLURM_JOB_ID>  (294) 
220459

>  <distance_score>  (294) 
0.941457

>  <original SMILES>  (294) 
C[C@](O)(CNC(=O)Nc1cccc2ccccc12)c1ccco1

>  <alias>  (294) 
None

>  <ref_pdb>  (294) 
z0041a

>  <inchikey>  (294) 
KDLJKMCSUJXXOQ-SFHVURJKSA-N

$$$$
KDLJKMCSUJXXOQ-SFHVURJKSA-N
     RDKit          3D

 23 25  0  0  0  0  0  0  0  0999 V2000
  -21.1286  -32.7618  -24.2764 C   0  0  0  0  0  0  0  0  0  0  0  0
  -22.1015  -32.7411  -23.0999 C   0  0  2  0  0  0  0  0  0  0  0  0
  -22.6494  -34.0544  -22.9867 O   0  0  0  0  0  0  0  0  0  0  0  0
  -23.2502  -31.7699  -23.4044 C   0  0  0  0  0  0  0  0  0  0  0  0
  -24.1370  -31.4797  -22.3067 N   0  0  0  0  0  0  0  0  0  0  0  0
  -25.5417  -30.8368  -22.2983 C   0  0  0  0  0  0  0  0  0  0  0  0
  -26.2117  -30.5220  -23.1627 O   0  0  0  0  0  0  0  0  0  0  0  0
  -25.7768  -30.7552  -20.7663 N   0  0  0  0  0  0  0  0  0  0  0  0
  -26.9032  -30.3619  -20.0460 C   0  0  0  0  0  0  0  0  0  0  0  0
  -28.1233  -30.2169  -20.7123 C   0  0  0  0  0  0  0  0  0  0  0  0
  -29.2887  -29.9678  -19.9997 C   0  0  0  0  0  0  0  0  0  0  0  0
  -29.2318  -29.8313  -18.6168 C   0  0  0  0  0  0  0  0  0  0  0  0
  -28.0078  -29.8963  -17.9358 C   0  0  0  0  0  0  0  0  0  0  0  0
  -27.9654  -29.7518  -16.5419 C   0  0  0  0  0  0  0  0  0  0  0  0
  -26.7658  -29.8723  -15.8409 C   0  0  0  0  0  0  0  0  0  0  0  0
  -25.5827  -30.1018  -16.5257 C   0  0  0  0  0  0  0  0  0  0  0  0
  -25.6041  -30.2398  -17.9116 C   0  0  0  0  0  0  0  0  0  0  0  0
  -26.8139  -30.1655  -18.6468 C   0  0  0  0  0  0  0  0  0  0  0  0
  -21.4099  -32.5230  -21.7928 C   0  0  0  0  0  0  0  0  0  0  0  0
  -21.7338  -32.9298  -20.5107 C   0  0  0  0  0  0  0  0  0  0  0  0
  -20.6293  -32.6123  -19.7032 C   0  0  0  0  0  0  0  0  0  0  0  0
  -19.7045  -32.0267  -20.5327 C   0  0  0  0  0  0  0  0  0  0  0  0
  -20.1735  -31.9459  -21.8012 O   0  0  0  0  0  0  0  0  0  0  0  0
  2  1  1  6
  2  3  1  0
  2  4  1  0
  4  5  1  0
  5  6  1  0
  6  7  2  0
  6  8  1  0
  8  9  1  0
  9 10  2  0
 10 11  1  0
 11 12  2  0
 12 13  1  0
 13 14  2  0
 14 15  1  0
 15 16  2  0
 16 17  1  0
 17 18  2  0
  2 19  1  0
 19 20  2  0
 20 21  1  0
 21 22  2  0
 22 23  1  0
 18  9  1  0
 23 19  1  0
 18 13  1  0
M  END
>  <fragmenstein_mode>  (295) 
expansion

>  <name>  (295) 
KDLJKMCSUJXXOQ-SFHVURJKSA-N

>  <fragmenstein_runtime>  (295) 
11.067519

>  <HIPPO Compound ID>  (295) 
33380

>  <SLURM_JOB_NAME>  (295) 
BulkDock.place:Flavi_NS5_RdRp:RdRp_knitwork_green_site_rna_tunnel_impure_split4000_batch008

>  <ref_mols>  (295) 
z0041a,z0211a

>  <Multi-SuCOS>  (295) 
0.590254

>  <tags>  (295) 
['Fragmenstein placed', 'RdRp_knitwork_green_site_rna_tunnel_impure_fragalysis.sdf Pose OK']

>  <scratch_subdir>  (295) 
/opt/xchem-fragalysis-2/maxwin/BulkDock/SCRATCH/220459/C33380-P102

>  <energy_score>  (295) 
-24.936509

>  <fragmenstein_error>  (295) 
None

>  <csv_name>  (295) 
RdRp_knitwork_green_site_rna_tunnel_impure_split4000_batch008.csv

>  <merge_set>  (295) 
RdRp_knitwork_green_site_rna_tunnel_impure_fragalysis.sdf

>  <original ID>  (295) 
KDLJKMCSUJXXOQ-SFHVURJKSA-N

>  <HIPPO Pose ID>  (295) 
203866

>  <fragmenstein_outcome>  (295) 
acceptable

>  <exports>  (295) 
['/opt/xchem-fragalysis-2/maxwin/BulkDock/OUTPUTS/RdRp_knitwork_green_site_rna_tunnel_impure_split4000_batch008_220459.sdf', '/opt/xchem-fragalysis-2/maxwin/BulkDock/OUTPUTS/RdRp_knitwork_green_site_rna_tunnel_impure_fragalysis.sdf']

>  <SLURM_JOB_ID>  (295) 
220459

>  <distance_score>  (295) 
0.940824

>  <original SMILES>  (295) 
C[C@](O)(CNC(=O)Nc1cccc2ccccc12)c1ccco1

>  <alias>  (295) 
None

>  <ref_pdb>  (295) 
z0211a

>  <inchikey>  (295) 
KDLJKMCSUJXXOQ-SFHVURJKSA-N

$$$$
XNVCGNOIYDZHAQ-MRXNPFEDSA-N
     RDKit          3D

 22 24  0  0  0  0  0  0  0  0999 V2000
  -21.0272  -32.8374  -24.0726 C   0  0  0  0  0  0  0  0  0  0  0  0
  -22.0191  -32.6108  -22.9405 C   0  0  1  0  0  0  0  0  0  0  0  0
  -21.4305  -31.6995  -21.9978 O   0  0  0  0  0  0  0  0  0  0  0  0
  -23.3446  -32.0196  -23.4659 C   0  0  0  0  0  0  0  0  0  0  0  0
  -24.1971  -31.5924  -22.3823 N   0  0  0  0  0  0  0  0  0  0  0  0
  -25.5538  -30.8533  -22.4075 C   0  0  0  0  0  0  0  0  0  0  0  0
  -26.1397  -30.4185  -23.2831 O   0  0  0  0  0  0  0  0  0  0  0  0
  -25.8620  -30.8323  -20.8822 N   0  0  0  0  0  0  0  0  0  0  0  0
  -26.9728  -30.3606  -20.1961 C   0  0  0  0  0  0  0  0  0  0  0  0
  -28.1693  -30.0640  -20.8453 C   0  0  0  0  0  0  0  0  0  0  0  0
  -29.2973  -29.7176  -20.1160 C   0  0  0  0  0  0  0  0  0  0  0  0
  -29.2211  -29.5799  -18.7280 C   0  0  0  0  0  0  0  0  0  0  0  0
  -27.9852  -29.7273  -18.0586 C   0  0  0  0  0  0  0  0  0  0  0  0
  -27.6338  -29.5189  -16.6830 C   0  0  0  0  0  0  0  0  0  0  0  0
  -26.3189  -29.8157  -16.4089 C   0  0  0  0  0  0  0  0  0  0  0  0
  -25.4905  -30.3633  -17.7913 S   0  0  0  0  0  0  0  0  0  0  0  0
  -26.8846  -30.1626  -18.7996 C   0  0  0  0  0  0  0  0  0  0  0  0
  -22.2671  -33.8855  -22.1845 C   0  0  0  0  0  0  0  0  0  0  0  0
  -21.9803  -34.3021  -20.8981 C   0  0  0  0  0  0  0  0  0  0  0  0
  -22.5257  -35.5996  -20.7611 C   0  0  0  0  0  0  0  0  0  0  0  0
  -23.1012  -35.9016  -21.9720 C   0  0  0  0  0  0  0  0  0  0  0  0
  -22.9411  -34.8753  -22.8454 O   0  0  0  0  0  0  0  0  0  0  0  0
  2  1  1  6
  2  3  1  0
  2  4  1  0
  4  5  1  0
  5  6  1  0
  6  7  2  0
  6  8  1  0
  8  9  1  0
  9 10  2  0
 10 11  1  0
 11 12  2  0
 12 13  1  0
 13 14  1  0
 14 15  2  0
 15 16  1  0
 16 17  1  0
  2 18  1  0
 18 19  2  0
 19 20  1  0
 20 21  2  0
 21 22  1  0
 17  9  1  0
 22 18  1  0
 17 13  2  0
M  END
>  <fragmenstein_mode>  (296) 
expansion

>  <name>  (296) 
XNVCGNOIYDZHAQ-MRXNPFEDSA-N

>  <fragmenstein_runtime>  (296) 
6.733329

>  <HIPPO Compound ID>  (296) 
33381

>  <SLURM_JOB_NAME>  (296) 
BulkDock.place:Flavi_NS5_RdRp:RdRp_knitwork_green_site_rna_tunnel_impure_split4000_batch008

>  <ref_mols>  (296) 
z0041a,z0211a

>  <Multi-SuCOS>  (296) 
0.660582

>  <tags>  (296) 
['Fragmenstein placed', 'RdRp_knitwork_green_site_rna_tunnel_impure_fragalysis.sdf Pose OK']

>  <scratch_subdir>  (296) 
/opt/xchem-fragalysis-2/maxwin/BulkDock/SCRATCH/220459/C33381-P82

>  <energy_score>  (296) 
-65.422713

>  <fragmenstein_error>  (296) 
None

>  <csv_name>  (296) 
RdRp_knitwork_green_site_rna_tunnel_impure_split4000_batch008.csv

>  <merge_set>  (296) 
RdRp_knitwork_green_site_rna_tunnel_impure_fragalysis.sdf

>  <original ID>  (296) 
XNVCGNOIYDZHAQ-MRXNPFEDSA-N

>  <HIPPO Pose ID>  (296) 
203874

>  <fragmenstein_outcome>  (296) 
acceptable

>  <exports>  (296) 
['/opt/xchem-fragalysis-2/maxwin/BulkDock/OUTPUTS/RdRp_knitwork_green_site_rna_tunnel_impure_split4000_batch008_220459.sdf', '/opt/xchem-fragalysis-2/maxwin/BulkDock/OUTPUTS/RdRp_knitwork_green_site_rna_tunnel_impure_fragalysis.sdf']

>  <SLURM_JOB_ID>  (296) 
220459

>  <distance_score>  (296) 
0.706155

>  <original SMILES>  (296) 
C[C@@](O)(CNC(=O)Nc1cccc2ccsc12)c1ccco1

>  <alias>  (296) 
None

>  <ref_pdb>  (296) 
z0041a

>  <inchikey>  (296) 
XNVCGNOIYDZHAQ-MRXNPFEDSA-N

$$$$
XNVCGNOIYDZHAQ-MRXNPFEDSA-N
     RDKit          3D

 22 24  0  0  0  0  0  0  0  0999 V2000
  -21.0629  -32.7830  -23.9370 C   0  0  0  0  0  0  0  0  0  0  0  0
  -22.0450  -32.6599  -22.7741 C   0  0  1  0  0  0  0  0  0  0  0  0
  -21.3991  -31.9148  -21.7296 O   0  0  0  0  0  0  0  0  0  0  0  0
  -23.3040  -31.9094  -23.2324 C   0  0  0  0  0  0  0  0  0  0  0  0
  -24.1627  -31.4988  -22.1507 N   0  0  0  0  0  0  0  0  0  0  0  0
  -25.5742  -30.8704  -22.1767 C   0  0  0  0  0  0  0  0  0  0  0  0
  -26.2711  -30.6655  -23.0516 O   0  0  0  0  0  0  0  0  0  0  0  0
  -25.8023  -30.6958  -20.6511 N   0  0  0  0  0  0  0  0  0  0  0  0
  -26.9435  -30.3322  -19.9487 C   0  0  0  0  0  0  0  0  0  0  0  0
  -28.1773  -30.2233  -20.5974 C   0  0  0  0  0  0  0  0  0  0  0  0
  -29.3396  -29.9906  -19.8797 C   0  0  0  0  0  0  0  0  0  0  0  0
  -29.2825  -29.8330  -18.4950 C   0  0  0  0  0  0  0  0  0  0  0  0
  -28.0409  -29.8613  -17.8181 C   0  0  0  0  0  0  0  0  0  0  0  0
  -27.7407  -29.7406  -16.4225 C   0  0  0  0  0  0  0  0  0  0  0  0
  -26.4032  -29.8899  -16.1428 C   0  0  0  0  0  0  0  0  0  0  0  0
  -25.4824  -30.1399  -17.5502 S   0  0  0  0  0  0  0  0  0  0  0  0
  -26.8835  -30.1157  -18.5604 C   0  0  0  0  0  0  0  0  0  0  0  0
  -22.3857  -34.0077  -22.2073 C   0  0  0  0  0  0  0  0  0  0  0  0
  -22.4202  -34.5209  -20.9248 C   0  0  0  0  0  0  0  0  0  0  0  0
  -22.7956  -35.8790  -21.0433 C   0  0  0  0  0  0  0  0  0  0  0  0
  -22.9964  -36.1062  -22.3826 C   0  0  0  0  0  0  0  0  0  0  0  0
  -22.7458  -34.9812  -23.0988 O   0  0  0  0  0  0  0  0  0  0  0  0
  2  1  1  6
  2  3  1  0
  2  4  1  0
  4  5  1  0
  5  6  1  0
  6  7  2  0
  6  8  1  0
  8  9  1  0
  9 10  2  0
 10 11  1  0
 11 12  2  0
 12 13  1  0
 13 14  1  0
 14 15  2  0
 15 16  1  0
 16 17  1  0
  2 18  1  0
 18 19  2  0
 19 20  1  0
 20 21  2  0
 21 22  1  0
 17  9  1  0
 22 18  1  0
 17 13  2  0
M  END
>  <fragmenstein_mode>  (297) 
expansion

>  <name>  (297) 
XNVCGNOIYDZHAQ-MRXNPFEDSA-N

>  <fragmenstein_runtime>  (297) 
7.172788

>  <HIPPO Compound ID>  (297) 
33381

>  <SLURM_JOB_NAME>  (297) 
BulkDock.place:Flavi_NS5_RdRp:RdRp_knitwork_green_site_rna_tunnel_impure_split4000_batch008

>  <ref_mols>  (297) 
z0041a,z0211a

>  <Multi-SuCOS>  (297) 
0.681911

>  <tags>  (297) 
['Fragmenstein placed', 'RdRp_knitwork_green_site_rna_tunnel_impure_fragalysis.sdf Pose OK']

>  <scratch_subdir>  (297) 
/opt/xchem-fragalysis-2/maxwin/BulkDock/SCRATCH/220459/C33381-P102

>  <energy_score>  (297) 
-67.275388

>  <fragmenstein_error>  (297) 
None

>  <csv_name>  (297) 
RdRp_knitwork_green_site_rna_tunnel_impure_split4000_batch008.csv

>  <merge_set>  (297) 
RdRp_knitwork_green_site_rna_tunnel_impure_fragalysis.sdf

>  <original ID>  (297) 
XNVCGNOIYDZHAQ-MRXNPFEDSA-N

>  <HIPPO Pose ID>  (297) 
203894

>  <fragmenstein_outcome>  (297) 
acceptable

>  <exports>  (297) 
['/opt/xchem-fragalysis-2/maxwin/BulkDock/OUTPUTS/RdRp_knitwork_green_site_rna_tunnel_impure_split4000_batch008_220459.sdf', '/opt/xchem-fragalysis-2/maxwin/BulkDock/OUTPUTS/RdRp_knitwork_green_site_rna_tunnel_impure_fragalysis.sdf']

>  <SLURM_JOB_ID>  (297) 
220459

>  <distance_score>  (297) 
0.654253

>  <original SMILES>  (297) 
C[C@@](O)(CNC(=O)Nc1cccc2ccsc12)c1ccco1

>  <alias>  (297) 
None

>  <ref_pdb>  (297) 
z0211a

>  <inchikey>  (297) 
XNVCGNOIYDZHAQ-MRXNPFEDSA-N

$$$$
WPHRNAXQASEBDH-UHFFFAOYSA-N
     RDKit          3D

 12 13  0  0  0  0  0  0  0  0999 V2000
  -26.0841  -30.4349  -20.5891 O   0  0  0  0  0  0  0  0  0  0  0  0
  -27.2743  -30.1652  -20.6554 C   0  0  0  0  0  0  0  0  0  0  0  0
  -28.0059  -30.0728  -21.9568 C   0  0  0  0  0  0  0  0  0  0  0  0
  -29.4110  -29.6946  -21.5350 C   0  0  0  0  0  0  0  0  0  0  0  0
  -29.3861  -29.7616  -20.0574 C   0  0  0  0  0  0  0  0  0  0  0  0
  -28.1793  -29.9437  -19.5070 C   0  0  0  0  0  0  0  0  0  0  0  0
  -27.9034  -30.0182  -18.0787 C   0  0  0  0  0  0  0  0  0  0  0  0
  -26.6170  -30.1027  -17.5611 C   0  0  0  0  0  0  0  0  0  0  0  0
  -26.4545  -30.2637  -16.1894 C   0  0  0  0  0  0  0  0  0  0  0  0
  -27.5750  -30.3353  -15.3759 C   0  0  0  0  0  0  0  0  0  0  0  0
  -28.8198  -30.2153  -15.9594 C   0  0  0  0  0  0  0  0  0  0  0  0
  -29.0057  -30.0401  -17.2807 N   0  0  0  0  0  0  0  0  0  0  0  0
  1  2  2  0
  2  3  1  0
  3  4  1  0
  4  5  1  0
  5  6  2  0
  6  7  1  0
  7  8  2  0
  8  9  1  0
  9 10  2  0
 10 11  1  0
 11 12  2  0
  6  2  1  0
 12  7  1  0
M  END
>  <fragmenstein_mode>  (298) 
expansion

>  <name>  (298) 
WPHRNAXQASEBDH-UHFFFAOYSA-N

>  <fragmenstein_runtime>  (298) 
1.40224

>  <HIPPO Compound ID>  (298) 
6922

>  <SLURM_JOB_NAME>  (298) 
BulkDock.place:Flavi_NS5_RdRp:RdRp_knitwork_green_site_rna_tunnel_impure_split4000_batch014

>  <ref_mols>  (298) 
z0215a,z1018a

>  <Multi-SuCOS>  (298) 
0.666931

>  <tags>  (298) 
['Fragmenstein placed', 'RdRp_knitwork_green_site_rna_tunnel_impure_fragalysis.sdf Pose OK']

>  <scratch_subdir>  (298) 
/opt/xchem-fragalysis-2/maxwin/BulkDock/SCRATCH/220465/C6922-P104

>  <energy_score>  (298) 
-30.798417

>  <fragmenstein_error>  (298) 
None

>  <csv_name>  (298) 
RdRp_knitwork_green_site_rna_tunnel_impure_split4000_batch014.csv

>  <merge_set>  (298) 
RdRp_knitwork_green_site_rna_tunnel_impure_fragalysis.sdf

>  <original ID>  (298) 
WPHRNAXQASEBDH-UHFFFAOYSA-N

>  <HIPPO Pose ID>  (298) 
203980

>  <fragmenstein_outcome>  (298) 
acceptable

>  <exports>  (298) 
['/opt/xchem-fragalysis-2/maxwin/BulkDock/OUTPUTS/RdRp_knitwork_green_site_rna_tunnel_impure_split4000_batch014_220465.sdf', '/opt/xchem-fragalysis-2/maxwin/BulkDock/OUTPUTS/RdRp_knitwork_green_site_rna_tunnel_impure_fragalysis.sdf']

>  <SLURM_JOB_ID>  (298) 
220465

>  <distance_score>  (298) 
0.766033

>  <original SMILES>  (298) 
O=C1CCC=C1c1ccccn1

>  <alias>  (298) 
None

>  <ref_pdb>  (298) 
z0215a

>  <inchikey>  (298) 
WPHRNAXQASEBDH-UHFFFAOYSA-N

$$$$
ASUSOUJZDUFBGV-ZDUSSCGKSA-N
     RDKit          3D

 23 26  0  0  0  0  0  0  0  0999 V2000
  -22.5205  -31.9999  -19.3516 O   0  0  0  0  0  0  0  0  0  0  0  0
  -23.5161  -31.9798  -18.7480 C   0  0  0  0  0  0  0  0  0  0  0  0
  -23.7740  -32.1730  -17.2450 N   0  0  0  0  0  0  0  0  0  0  0  0
  -22.8562  -32.3369  -16.1567 C   0  0  1  0  0  0  0  0  0  0  0  0
  -23.3665  -33.1196  -14.9619 C   0  0  0  0  0  0  0  0  0  0  0  0
  -22.0719  -33.3972  -14.1854 C   0  0  0  0  0  0  0  0  0  0  0  0
  -21.0255  -33.4445  -15.2143 N   0  0  0  0  0  0  0  0  0  0  0  0
  -19.8832  -34.1792  -15.0294 C   0  0  0  0  0  0  0  0  0  0  0  0
  -18.9686  -34.3961  -16.0601 C   0  0  0  0  0  0  0  0  0  0  0  0
  -17.8203  -35.1578  -15.8374 C   0  0  0  0  0  0  0  0  0  0  0  0
  -17.5927  -35.6871  -14.5791 C   0  0  0  0  0  0  0  0  0  0  0  0
  -18.5296  -35.4277  -13.6001 C   0  0  0  0  0  0  0  0  0  0  0  0
  -19.6520  -34.7004  -13.8026 N   0  0  0  0  0  0  0  0  0  0  0  0
  -21.5749  -33.1042  -16.5258 C   0  0  0  0  0  0  0  0  0  0  0  0
  -24.7915  -31.6116  -19.4894 C   0  0  0  0  0  0  0  0  0  0  0  0
  -24.7542  -31.7447  -20.9534 C   0  0  0  0  0  0  0  0  0  0  0  0
  -25.7340  -31.2875  -21.7493 C   0  0  0  0  0  0  0  0  0  0  0  0
  -26.8793  -30.6907  -21.1671 C   0  0  0  0  0  0  0  0  0  0  0  0
  -27.9725  -30.1898  -21.6933 N   0  0  0  0  0  0  0  0  0  0  0  0
  -28.6604  -29.7553  -20.6032 C   0  0  0  0  0  0  0  0  0  0  0  0
  -28.0590  -29.9333  -19.4256 N   0  0  0  0  0  0  0  0  0  0  0  0
  -26.9063  -30.5600  -19.7780 N   0  0  0  0  0  0  0  0  0  0  0  0
  -25.8690  -31.0000  -18.9519 C   0  0  0  0  0  0  0  0  0  0  0  0
  1  2  2  0
  2  3  1  0
  4  3  1  6
  4  5  1  0
  5  6  1  0
  6  7  1  0
  7  8  1  0
  8  9  2  0
  9 10  1  0
 10 11  2  0
 11 12  1  0
 12 13  2  0
  7 14  1  0
  2 15  1  0
 15 16  1  0
 16 17  2  0
 17 18  1  0
 18 19  2  0
 19 20  1  0
 20 21  2  0
 21 22  1  0
 22 23  1  0
 14  4  1  0
 23 15  2  0
 13  8  1  0
 22 18  1  0
M  END
>  <fragmenstein_mode>  (299) 
expansion

>  <name>  (299) 
ASUSOUJZDUFBGV-ZDUSSCGKSA-N

>  <fragmenstein_runtime>  (299) 
3.68335

>  <HIPPO Compound ID>  (299) 
30431

>  <SLURM_JOB_NAME>  (299) 
BulkDock.place:Flavi_NS5_RdRp:RdRp_knitwork_green_site_rna_tunnel_impure_split4000_batch012

>  <ref_mols>  (299) 
z0521a,z0637a

>  <Multi-SuCOS>  (299) 
0.472163

>  <tags>  (299) 
['Fragmenstein placed', 'RdRp_knitwork_green_site_rna_tunnel_impure_fragalysis.sdf Pose OK']

>  <scratch_subdir>  (299) 
/opt/xchem-fragalysis-2/maxwin/BulkDock/SCRATCH/220463/C30431-P141

>  <energy_score>  (299) 
-34.663716

>  <fragmenstein_error>  (299) 
None

>  <csv_name>  (299) 
RdRp_knitwork_green_site_rna_tunnel_impure_split4000_batch012.csv

>  <merge_set>  (299) 
RdRp_knitwork_green_site_rna_tunnel_impure_fragalysis.sdf

>  <original ID>  (299) 
ASUSOUJZDUFBGV-ZDUSSCGKSA-N

>  <HIPPO Pose ID>  (299) 
204032

>  <fragmenstein_outcome>  (299) 
acceptable

>  <exports>  (299) 
['/opt/xchem-fragalysis-2/maxwin/BulkDock/OUTPUTS/RdRp_knitwork_green_site_rna_tunnel_impure_split4000_batch012_220463.sdf', '/opt/xchem-fragalysis-2/maxwin/BulkDock/OUTPUTS/RdRp_knitwork_green_site_rna_tunnel_impure_fragalysis.sdf']

>  <SLURM_JOB_ID>  (299) 
220463

>  <distance_score>  (299) 
0.953221

>  <original SMILES>  (299) 
O=C(N[C@H]1CCN(c2ccccn2)C1)c1ccc2ncnn2c1

>  <alias>  (299) 
None

>  <ref_pdb>  (299) 
z0521a

>  <inchikey>  (299) 
ASUSOUJZDUFBGV-ZDUSSCGKSA-N

$$$$
HKSAGWFFUQWEFE-ZDUSSCGKSA-N
     RDKit          3D

 23 25  0  0  0  0  0  0  0  0999 V2000
  -21.0758  -33.0083  -23.8661 C   0  0  0  0  0  0  0  0  0  0  0  0
  -21.7541  -32.1830  -22.7719 C   0  0  1  0  0  0  0  0  0  0  0  0
  -23.2282  -31.9906  -23.1403 C   0  0  0  0  0  0  0  0  0  0  0  0
  -24.0063  -31.3963  -22.0892 N   0  0  0  0  0  0  0  0  0  0  0  0
  -25.4849  -30.9358  -22.0734 C   0  0  0  0  0  0  0  0  0  0  0  0
  -26.2538  -30.8993  -22.9137 O   0  0  0  0  0  0  0  0  0  0  0  0
  -25.6411  -30.6359  -20.5550 N   0  0  0  0  0  0  0  0  0  0  0  0
  -26.7740  -30.3352  -19.8099 C   0  0  0  0  0  0  0  0  0  0  0  0
  -28.0156  -30.1185  -20.4176 C   0  0  0  0  0  0  0  0  0  0  0  0
  -29.2011  -30.1174  -19.7581 N   0  0  0  0  0  0  0  0  0  0  0  0
  -29.1059  -30.3214  -18.4366 C   0  0  0  0  0  0  0  0  0  0  0  0
  -27.9099  -30.4484  -17.7376 C   0  0  0  0  0  0  0  0  0  0  0  0
  -26.7127  -30.4413  -18.4245 C   0  0  0  0  0  0  0  0  0  0  0  0
  -28.1552  -30.7398  -16.2953 C   0  0  0  0  0  0  0  0  0  0  0  0
  -29.6313  -30.3555  -16.1571 C   0  0  0  0  0  0  0  0  0  0  0  0
  -30.2691  -30.6040  -17.5286 C   0  0  0  0  0  0  0  0  0  0  0  0
  -21.7225  -32.8881  -21.5169 O   0  0  0  0  0  0  0  0  0  0  0  0
  -20.5111  -33.0382  -20.9080 C   0  0  0  0  0  0  0  0  0  0  0  0
  -19.5338  -32.0506  -20.8316 C   0  0  0  0  0  0  0  0  0  0  0  0
  -18.3111  -32.3325  -20.2154 C   0  0  0  0  0  0  0  0  0  0  0  0
  -18.0762  -33.5857  -19.6502 C   0  0  0  0  0  0  0  0  0  0  0  0
  -19.0746  -34.5551  -19.6803 C   0  0  0  0  0  0  0  0  0  0  0  0
  -20.2923  -34.2758  -20.3007 C   0  0  0  0  0  0  0  0  0  0  0  0
  2  1  1  6
  2  3  1  0
  3  4  1  0
  4  5  1  0
  5  6  2  0
  5  7  1  0
  7  8  1  0
  8  9  2  0
  9 10  1  0
 10 11  2  0
 11 12  1  0
 12 13  2  0
 12 14  1  0
 14 15  1  0
 15 16  1  0
  2 17  1  0
 17 18  1  0
 18 19  2  0
 19 20  1  0
 20 21  2  0
 21 22  1  0
 22 23  2  0
 13  8  1  0
 23 18  1  0
 16 11  1  0
M  END
>  <fragmenstein_mode>  (300) 
expansion

>  <name>  (300) 
HKSAGWFFUQWEFE-ZDUSSCGKSA-N

>  <fragmenstein_runtime>  (300) 
5.318969

>  <HIPPO Compound ID>  (300) 
42107

>  <SLURM_JOB_NAME>  (300) 
BulkDock.place:Flavi_NS5_RdRp:RdRp_knitwork_green_site_rna_tunnel_impure_split4000_batch011

>  <ref_mols>  (300) 
z0211a,z0653a

>  <Multi-SuCOS>  (300) 
0.516372

>  <tags>  (300) 
['Fragmenstein placed', 'RdRp_knitwork_green_site_rna_tunnel_impure_fragalysis.sdf Pose OK']

>  <scratch_subdir>  (300) 
/opt/xchem-fragalysis-2/maxwin/BulkDock/SCRATCH/220462/C42107-P153

>  <energy_score>  (300) 
-3.698687

>  <fragmenstein_error>  (300) 
None

>  <csv_name>  (300) 
RdRp_knitwork_green_site_rna_tunnel_impure_split4000_batch011.csv

>  <merge_set>  (300) 
RdRp_knitwork_green_site_rna_tunnel_impure_fragalysis.sdf

>  <original ID>  (300) 
HKSAGWFFUQWEFE-ZDUSSCGKSA-N

>  <HIPPO Pose ID>  (300) 
204118

>  <fragmenstein_outcome>  (300) 
acceptable

>  <exports>  (300) 
['/opt/xchem-fragalysis-2/maxwin/BulkDock/OUTPUTS/RdRp_knitwork_green_site_rna_tunnel_impure_split4000_batch011_220462.sdf', '/opt/xchem-fragalysis-2/maxwin/BulkDock/OUTPUTS/RdRp_knitwork_green_site_rna_tunnel_impure_fragalysis.sdf']

>  <SLURM_JOB_ID>  (300) 
220462

>  <distance_score>  (300) 
0.973943

>  <original SMILES>  (300) 
C[C@@H](CNC(=O)Nc1cnc2c(c1)CCC2)Oc1ccccc1

>  <alias>  (300) 
None

>  <ref_pdb>  (300) 
z0653a

>  <inchikey>  (300) 
HKSAGWFFUQWEFE-ZDUSSCGKSA-N

$$$$
GSXWXICUGFADCV-UHFFFAOYSA-N
     RDKit          3D

 23 25  0  0  0  0  0  0  0  0999 V2000
  -26.5163  -37.4025  -22.3643 C   0  0  0  0  0  0  0  0  0  0  0  0
  -26.2016  -36.0035  -22.8939 C   0  0  0  0  0  0  0  0  0  0  0  0
  -25.2556  -35.1917  -22.1018 N   0  0  0  0  0  0  0  0  0  0  0  0
  -25.8384  -34.8085  -20.8049 C   0  0  0  0  0  0  0  0  0  0  0  0
  -25.2970  -33.5481  -20.1973 C   0  0  0  0  0  0  0  0  0  0  0  0
  -25.3857  -32.2656  -20.7057 C   0  0  0  0  0  0  0  0  0  0  0  0
  -24.8191  -31.3967  -19.8159 N   0  0  0  0  0  0  0  0  0  0  0  0
  -24.3257  -32.0836  -18.7306 C   0  0  0  0  0  0  0  0  0  0  0  0
  -23.6081  -31.4790  -17.6324 C   0  0  0  0  0  0  0  0  0  0  0  0
  -23.1540  -32.0653  -16.6601 O   0  0  0  0  0  0  0  0  0  0  0  0
  -23.5062  -30.1311  -17.8447 O   0  0  0  0  0  0  0  0  0  0  0  0
  -22.7685  -29.4470  -16.8287 C   0  0  0  0  0  0  0  0  0  0  0  0
  -24.6450  -33.4171  -18.9346 C   0  0  0  0  0  0  0  0  0  0  0  0
  -23.9735  -35.9172  -21.9586 C   0  0  0  0  0  0  0  0  0  0  0  0
  -22.8413  -34.9985  -21.6977 C   0  0  0  0  0  0  0  0  0  0  0  0
  -22.5652  -33.7056  -22.0919 C   0  0  0  0  0  0  0  0  0  0  0  0
  -21.3846  -33.3238  -21.4156 C   0  0  0  0  0  0  0  0  0  0  0  0
  -20.6216  -32.1490  -21.3158 C   0  0  0  0  0  0  0  0  0  0  0  0
  -19.4581  -32.1730  -20.5358 C   0  0  0  0  0  0  0  0  0  0  0  0
  -19.0574  -33.3375  -19.8727 C   0  0  0  0  0  0  0  0  0  0  0  0
  -19.8108  -34.5136  -19.9504 C   0  0  0  0  0  0  0  0  0  0  0  0
  -20.9659  -34.4543  -20.7228 C   0  0  0  0  0  0  0  0  0  0  0  0
  -21.8444  -35.4756  -20.9028 O   0  0  0  0  0  0  0  0  0  0  0  0
  1  2  1  0
  2  3  1  0
  3  4  1  0
  4  5  1  0
  5  6  2  0
  6  7  1  0
  7  8  1  0
  8  9  1  0
  9 10  2  0
  9 11  1  0
 11 12  1  0
  8 13  2  0
  3 14  1  0
 14 15  1  0
 15 16  2  0
 16 17  1  0
 17 18  2  0
 18 19  1  0
 19 20  2  0
 20 21  1  0
 21 22  2  0
 22 23  1  0
 13  5  1  0
 23 15  1  0
 22 17  1  0
M  END
>  <fragmenstein_mode>  (301) 
expansion

>  <name>  (301) 
GSXWXICUGFADCV-UHFFFAOYSA-N

>  <fragmenstein_runtime>  (301) 
3.557787

>  <HIPPO Compound ID>  (301) 
34228

>  <SLURM_JOB_NAME>  (301) 
BulkDock.place:Flavi_NS5_RdRp:RdRp_knitwork_green_site_rna_tunnel_impure_split4000_batch001

>  <ref_mols>  (301) 
d0472b,3vws-b

>  <Multi-SuCOS>  (301) 
0.481481

>  <tags>  (301) 
['Fragmenstein placed', 'RdRp_knitwork_green_site_rna_tunnel_impure_fragalysis.sdf Pose OK']

>  <scratch_subdir>  (301) 
/opt/xchem-fragalysis-2/maxwin/BulkDock/SCRATCH/220452/C34228-P217

>  <energy_score>  (301) 
-53.157758

>  <fragmenstein_error>  (301) 
None

>  <csv_name>  (301) 
RdRp_knitwork_green_site_rna_tunnel_impure_split4000_batch001.csv

>  <merge_set>  (301) 
RdRp_knitwork_green_site_rna_tunnel_impure_fragalysis.sdf

>  <original ID>  (301) 
GSXWXICUGFADCV-UHFFFAOYSA-N

>  <HIPPO Pose ID>  (301) 
204121

>  <fragmenstein_outcome>  (301) 
acceptable

>  <exports>  (301) 
['/opt/xchem-fragalysis-2/maxwin/BulkDock/OUTPUTS/RdRp_knitwork_green_site_rna_tunnel_impure_split4000_batch001_220452.sdf', '/opt/xchem-fragalysis-2/maxwin/BulkDock/OUTPUTS/RdRp_knitwork_green_site_rna_tunnel_impure_fragalysis.sdf']

>  <SLURM_JOB_ID>  (301) 
220452

>  <distance_score>  (301) 
0.993313

>  <original SMILES>  (301) 
CCN(Cc1c[nH]c(C(=O)OC)c1)Cc1cc2ccccc2o1

>  <alias>  (301) 
None

>  <ref_pdb>  (301) 
3vws-b

>  <inchikey>  (301) 
GSXWXICUGFADCV-UHFFFAOYSA-N

$$$$
DEDKPPSSWQEIPH-UHFFFAOYSA-N
     RDKit          3D

 13 14  0  0  0  0  0  0  0  0999 V2000
  -25.6616  -30.7111  -20.0237 O   0  0  0  0  0  0  0  0  0  0  0  0
  -26.8146  -30.5464  -20.4047 C   0  0  0  0  0  0  0  0  0  0  0  0
  -27.1805  -30.9563  -21.8020 C   0  0  0  0  0  0  0  0  0  0  0  0
  -28.0042  -29.8527  -22.4012 C   0  0  0  0  0  0  0  0  0  0  0  0
  -29.2945  -29.6627  -21.6202 C   0  0  0  0  0  0  0  0  0  0  0  0
  -29.0706  -29.6966  -20.1491 C   0  0  0  0  0  0  0  0  0  0  0  0
  -27.9222  -30.0300  -19.5278 C   0  0  0  0  0  0  0  0  0  0  0  0
  -27.8625  -30.0356  -18.0518 C   0  0  0  0  0  0  0  0  0  0  0  0
  -26.6726  -30.0091  -17.3335 C   0  0  0  0  0  0  0  0  0  0  0  0
  -26.7181  -30.1233  -15.9478 C   0  0  0  0  0  0  0  0  0  0  0  0
  -27.9452  -30.2533  -15.3162 C   0  0  0  0  0  0  0  0  0  0  0  0
  -29.0858  -30.2506  -16.0895 C   0  0  0  0  0  0  0  0  0  0  0  0
  -29.0704  -30.1310  -17.4280 N   0  0  0  0  0  0  0  0  0  0  0  0
  1  2  2  0
  2  3  1  0
  3  4  1  0
  4  5  1  0
  5  6  1  0
  6  7  2  0
  7  8  1  0
  8  9  2  0
  9 10  1  0
 10 11  2  0
 11 12  1  0
 12 13  2  0
  7  2  1  0
 13  8  1  0
M  END
>  <fragmenstein_mode>  (302) 
expansion

>  <name>  (302) 
DEDKPPSSWQEIPH-UHFFFAOYSA-N

>  <fragmenstein_runtime>  (302) 
1.498956

>  <HIPPO Compound ID>  (302) 
6949

>  <SLURM_JOB_NAME>  (302) 
BulkDock.place:Flavi_NS5_RdRp:RdRp_knitwork_green_site_rna_tunnel_impure_split4000_batch014

>  <ref_mols>  (302) 
z0215a,z1018a

>  <Multi-SuCOS>  (302) 
0.669017

>  <tags>  (302) 
['Fragmenstein placed', 'RdRp_knitwork_green_site_rna_tunnel_impure_fragalysis.sdf Pose OK']

>  <scratch_subdir>  (302) 
/opt/xchem-fragalysis-2/maxwin/BulkDock/SCRATCH/220465/C6949-P104

>  <energy_score>  (302) 
-15.281454

>  <fragmenstein_error>  (302) 
None

>  <csv_name>  (302) 
RdRp_knitwork_green_site_rna_tunnel_impure_split4000_batch014.csv

>  <merge_set>  (302) 
RdRp_knitwork_green_site_rna_tunnel_impure_fragalysis.sdf

>  <original ID>  (302) 
DEDKPPSSWQEIPH-UHFFFAOYSA-N

>  <HIPPO Pose ID>  (302) 
204169

>  <fragmenstein_outcome>  (302) 
acceptable

>  <exports>  (302) 
['/opt/xchem-fragalysis-2/maxwin/BulkDock/OUTPUTS/RdRp_knitwork_green_site_rna_tunnel_impure_split4000_batch014_220465.sdf', '/opt/xchem-fragalysis-2/maxwin/BulkDock/OUTPUTS/RdRp_knitwork_green_site_rna_tunnel_impure_fragalysis.sdf']

>  <SLURM_JOB_ID>  (302) 
220465

>  <distance_score>  (302) 
0.900476

>  <original SMILES>  (302) 
O=C1CCCC=C1c1ccccn1

>  <alias>  (302) 
None

>  <ref_pdb>  (302) 
z0215a

>  <inchikey>  (302) 
DEDKPPSSWQEIPH-UHFFFAOYSA-N

$$$$
VPXOFEWCBDAUCJ-FQEVSTJZSA-N
     RDKit          3D

 28 31  0  0  0  0  0  0  0  0999 V2000
  -25.5583  -30.9285  -23.2191 O   0  0  0  0  0  0  0  0  0  0  0  0
  -25.1566  -31.4209  -22.2725 C   0  0  0  0  0  0  0  0  0  0  0  0
  -24.0188  -32.4568  -22.0879 N   0  0  0  0  0  0  0  0  0  0  0  0
  -23.0978  -33.0078  -23.0434 C   0  0  0  0  0  0  0  0  0  0  0  0
  -21.7798  -32.2244  -23.1138 C   0  0  2  0  0  0  0  0  0  0  0  0
  -20.8245  -32.9583  -23.8820 O   0  0  0  0  0  0  0  0  0  0  0  0
  -21.1746  -31.8824  -21.7288 C   0  0  0  0  0  0  0  0  0  0  0  0
  -20.8673  -33.0855  -20.9208 N   0  0  0  0  0  0  0  0  0  0  0  0
  -21.2345  -32.8949  -19.5061 C   0  0  0  0  0  0  0  0  0  0  0  0
  -21.1235  -34.2228  -18.7400 C   0  0  0  0  0  0  0  0  0  0  0  0
  -19.8318  -34.9510  -19.0127 C   0  0  0  0  0  0  0  0  0  0  0  0
  -19.4551  -36.0410  -18.2171 C   0  0  0  0  0  0  0  0  0  0  0  0
  -18.2810  -36.7412  -18.4924 C   0  0  0  0  0  0  0  0  0  0  0  0
  -17.4735  -36.3552  -19.5597 C   0  0  0  0  0  0  0  0  0  0  0  0
  -17.8473  -35.2797  -20.3658 C   0  0  0  0  0  0  0  0  0  0  0  0
  -19.0373  -34.5818  -20.1120 C   0  0  0  0  0  0  0  0  0  0  0  0
  -19.4246  -33.4061  -20.9820 C   0  0  0  0  0  0  0  0  0  0  0  0
  -25.6032  -31.2630  -20.7897 N   0  0  0  0  0  0  0  0  0  0  0  0
  -26.6692  -30.5507  -20.2381 C   0  0  0  0  0  0  0  0  0  0  0  0
  -27.7504  -30.1883  -21.0421 C   0  0  0  0  0  0  0  0  0  0  0  0
  -28.9205  -29.7087  -20.4622 C   0  0  0  0  0  0  0  0  0  0  0  0
  -28.9857  -29.5327  -19.0828 C   0  0  0  0  0  0  0  0  0  0  0  0
  -27.8618  -29.7517  -18.2748 C   0  0  0  0  0  0  0  0  0  0  0  0
  -27.8963  -29.4547  -16.9038 C   0  0  0  0  0  0  0  0  0  0  0  0
  -26.7816  -29.6719  -16.0921 C   0  0  0  0  0  0  0  0  0  0  0  0
  -25.6135  -30.1831  -16.6393 C   0  0  0  0  0  0  0  0  0  0  0  0
  -25.5652  -30.4896  -17.9982 C   0  0  0  0  0  0  0  0  0  0  0  0
  -26.6828  -30.2855  -18.8448 C   0  0  0  0  0  0  0  0  0  0  0  0
  1  2  2  0
  2  3  1  0
  3  4  1  0
  4  5  1  0
  5  6  1  6
  5  7  1  0
  7  8  1  0
  8  9  1  0
  9 10  1  0
 10 11  1  0
 11 12  2  0
 12 13  1  0
 13 14  2  0
 14 15  1  0
 15 16  2  0
 16 17  1  0
  2 18  1  0
 18 19  1  0
 19 20  2  0
 20 21  1  0
 21 22  2  0
 22 23  1  0
 23 24  2  0
 24 25  1  0
 25 26  2  0
 26 27  1  0
 27 28  2  0
 17  8  1  0
 28 19  1  0
 16 11  1  0
 28 23  1  0
M  END
>  <fragmenstein_mode>  (303) 
expansion

>  <name>  (303) 
VPXOFEWCBDAUCJ-FQEVSTJZSA-N

>  <fragmenstein_runtime>  (303) 
20.593773

>  <HIPPO Compound ID>  (303) 
34042

>  <SLURM_JOB_NAME>  (303) 
BulkDock.place:Flavi_NS5_RdRp:RdRp_knitwork_green_site_rna_tunnel_impure_split4000_batch008

>  <ref_mols>  (303) 
z0041a,z0211a

>  <Multi-SuCOS>  (303) 
0.432855

>  <tags>  (303) 
['Fragmenstein placed', 'RdRp_knitwork_green_site_rna_tunnel_impure_fragalysis.sdf Pose OK']

>  <scratch_subdir>  (303) 
/opt/xchem-fragalysis-2/maxwin/BulkDock/SCRATCH/220459/C34042-P82

>  <energy_score>  (303) 
-34.590747

>  <fragmenstein_error>  (303) 
None

>  <csv_name>  (303) 
RdRp_knitwork_green_site_rna_tunnel_impure_split4000_batch008.csv

>  <merge_set>  (303) 
RdRp_knitwork_green_site_rna_tunnel_impure_fragalysis.sdf

>  <original ID>  (303) 
VPXOFEWCBDAUCJ-FQEVSTJZSA-N

>  <HIPPO Pose ID>  (303) 
204331

>  <fragmenstein_outcome>  (303) 
acceptable

>  <exports>  (303) 
['/opt/xchem-fragalysis-2/maxwin/BulkDock/OUTPUTS/RdRp_knitwork_green_site_rna_tunnel_impure_split4000_batch008_220459.sdf', '/opt/xchem-fragalysis-2/maxwin/BulkDock/OUTPUTS/RdRp_knitwork_green_site_rna_tunnel_impure_fragalysis.sdf']

>  <SLURM_JOB_ID>  (303) 
220459

>  <distance_score>  (303) 
0.831733

>  <original SMILES>  (303) 
O=C(NC[C@H](O)CN1CCc2ccccc2C1)Nc1cccc2ccccc12

>  <alias>  (303) 
None

>  <ref_pdb>  (303) 
z0041a

>  <inchikey>  (303) 
VPXOFEWCBDAUCJ-FQEVSTJZSA-N

$$$$
WILRTUBSTMRUOC-SECBINFHSA-N
     RDKit          3D

 21 22  0  0  0  0  0  0  0  0999 V2000
  -21.0343  -33.0201  -24.3348 C   0  0  0  0  0  0  0  0  0  0  0  0
  -22.0115  -32.8475  -23.1870 C   0  0  2  0  0  0  0  0  0  0  0  0
  -23.1444  -31.9182  -23.6027 C   0  0  0  0  0  0  0  0  0  0  0  0
  -24.0007  -31.6014  -22.5059 N   0  0  0  0  0  0  0  0  0  0  0  0
  -25.5043  -31.3039  -22.4725 C   0  0  0  0  0  0  0  0  0  0  0  0
  -26.2802  -31.3441  -23.3015 O   0  0  0  0  0  0  0  0  0  0  0  0
  -25.6449  -30.8853  -20.9928 N   0  0  0  0  0  0  0  0  0  0  0  0
  -26.7635  -30.5378  -20.2652 C   0  0  0  0  0  0  0  0  0  0  0  0
  -28.0245  -30.3779  -20.8223 C   0  0  0  0  0  0  0  0  0  0  0  0
  -29.1091  -30.1500  -19.9790 C   0  0  0  0  0  0  0  0  0  0  0  0
  -28.9357  -30.1506  -18.5890 C   0  0  0  0  0  0  0  0  0  0  0  0
  -27.6466  -30.2429  -18.0471 C   0  0  0  0  0  0  0  0  0  0  0  0
  -26.5619  -30.4059  -18.8940 C   0  0  0  0  0  0  0  0  0  0  0  0
  -27.4083  -30.3163  -16.5659 C   0  0  0  0  0  0  0  0  0  0  0  0
  -28.6426  -29.9243  -15.7714 C   0  0  0  0  0  0  0  0  0  0  0  0
  -29.8750  -30.5275  -16.4200 C   0  0  0  0  0  0  0  0  0  0  0  0
  -30.0358  -29.9701  -17.7487 N   0  0  0  0  0  0  0  0  0  0  0  0
  -21.1580  -32.2741  -21.6954 S   0  0  0  0  0  0  0  0  0  0  0  0
  -20.5113  -33.7237  -21.1209 N   0  0  0  0  0  0  0  0  0  0  0  0
  -19.9933  -31.4879  -22.0142 O   0  0  0  0  0  0  0  0  0  0  0  0
  -22.1161  -31.9136  -20.6704 O   0  0  0  0  0  0  0  0  0  0  0  0
  2  1  1  6
  2  3  1  0
  3  4  1  0
  4  5  1  0
  5  6  2  0
  5  7  1  0
  7  8  1  0
  8  9  2  0
  9 10  1  0
 10 11  2  0
 11 12  1  0
 12 13  2  0
 12 14  1  0
 14 15  1  0
 15 16  1  0
 16 17  1  0
  2 18  1  0
 18 19  1  0
 18 20  2  0
 18 21  2  0
 13  8  1  0
 17 11  1  0
M  END
>  <fragmenstein_mode>  (304) 
expansion

>  <name>  (304) 
WILRTUBSTMRUOC-SECBINFHSA-N

>  <fragmenstein_runtime>  (304) 
5.019181

>  <HIPPO Compound ID>  (304) 
32879

>  <SLURM_JOB_NAME>  (304) 
BulkDock.place:Flavi_NS5_RdRp:RdRp_knitwork_green_site_rna_tunnel_impure_split4000_batch013

>  <ref_mols>  (304) 
z0904a,z0211a

>  <Multi-SuCOS>  (304) 
0.552135

>  <tags>  (304) 
['Fragmenstein placed', 'RdRp_knitwork_green_site_rna_tunnel_impure_fragalysis.sdf Pose OK']

>  <scratch_subdir>  (304) 
/opt/xchem-fragalysis-2/maxwin/BulkDock/SCRATCH/220464/C32879-P7

>  <energy_score>  (304) 
-37.819954

>  <fragmenstein_error>  (304) 
None

>  <csv_name>  (304) 
RdRp_knitwork_green_site_rna_tunnel_impure_split4000_batch013.csv

>  <merge_set>  (304) 
RdRp_knitwork_green_site_rna_tunnel_impure_fragalysis.sdf

>  <original ID>  (304) 
WILRTUBSTMRUOC-SECBINFHSA-N

>  <HIPPO Pose ID>  (304) 
204343

>  <fragmenstein_outcome>  (304) 
acceptable

>  <exports>  (304) 
['/opt/xchem-fragalysis-2/maxwin/BulkDock/OUTPUTS/RdRp_knitwork_green_site_rna_tunnel_impure_split4000_batch013_220464.sdf', '/opt/xchem-fragalysis-2/maxwin/BulkDock/OUTPUTS/RdRp_knitwork_green_site_rna_tunnel_impure_fragalysis.sdf']

>  <SLURM_JOB_ID>  (304) 
220464

>  <distance_score>  (304) 
0.937179

>  <original SMILES>  (304) 
C[C@H](CNC(=O)Nc1ccc2c(c1)CCCN2)S(N)(=O)=O

>  <alias>  (304) 
None

>  <ref_pdb>  (304) 
z0904a

>  <inchikey>  (304) 
WILRTUBSTMRUOC-SECBINFHSA-N

$$$$
WILRTUBSTMRUOC-SECBINFHSA-N
     RDKit          3D

 21 22  0  0  0  0  0  0  0  0999 V2000
  -20.8424  -32.9328  -24.2138 C   0  0  0  0  0  0  0  0  0  0  0  0
  -21.8145  -32.7788  -23.0626 C   0  0  2  0  0  0  0  0  0  0  0  0
  -22.9242  -31.8312  -23.4762 C   0  0  0  0  0  0  0  0  0  0  0  0
  -23.8320  -31.5260  -22.4169 N   0  0  0  0  0  0  0  0  0  0  0  0
  -25.2747  -31.0068  -22.4627 C   0  0  0  0  0  0  0  0  0  0  0  0
  -25.9612  -30.8232  -23.3482 O   0  0  0  0  0  0  0  0  0  0  0  0
  -25.5527  -30.9044  -20.9439 N   0  0  0  0  0  0  0  0  0  0  0  0
  -26.6767  -30.4789  -20.2691 C   0  0  0  0  0  0  0  0  0  0  0  0
  -27.8845  -30.2744  -20.9239 C   0  0  0  0  0  0  0  0  0  0  0  0
  -29.0295  -30.0238  -20.1789 C   0  0  0  0  0  0  0  0  0  0  0  0
  -28.9635  -29.9720  -18.7853 C   0  0  0  0  0  0  0  0  0  0  0  0
  -27.7141  -30.0080  -18.1507 C   0  0  0  0  0  0  0  0  0  0  0  0
  -26.5755  -30.3044  -18.8954 C   0  0  0  0  0  0  0  0  0  0  0  0
  -27.5750  -29.8335  -16.6664 C   0  0  0  0  0  0  0  0  0  0  0  0
  -28.8839  -29.4314  -16.0118 C   0  0  0  0  0  0  0  0  0  0  0  0
  -30.0931  -30.0806  -16.6494 C   0  0  0  0  0  0  0  0  0  0  0  0
  -30.1317  -29.7894  -18.0605 N   0  0  0  0  0  0  0  0  0  0  0  0
  -20.9986  -32.1946  -21.5672 S   0  0  0  0  0  0  0  0  0  0  0  0
  -20.0952  -33.5350  -21.0994 N   0  0  0  0  0  0  0  0  0  0  0  0
  -20.0202  -31.1765  -21.8584 O   0  0  0  0  0  0  0  0  0  0  0  0
  -21.9906  -32.0658  -20.5225 O   0  0  0  0  0  0  0  0  0  0  0  0
  2  1  1  6
  2  3  1  0
  3  4  1  0
  4  5  1  0
  5  6  2  0
  5  7  1  0
  7  8  1  0
  8  9  2  0
  9 10  1  0
 10 11  2  0
 11 12  1  0
 12 13  2  0
 12 14  1  0
 14 15  1  0
 15 16  1  0
 16 17  1  0
  2 18  1  0
 18 19  1  0
 18 20  2  0
 18 21  2  0
 13  8  1  0
 17 11  1  0
M  END
>  <fragmenstein_mode>  (305) 
expansion

>  <name>  (305) 
WILRTUBSTMRUOC-SECBINFHSA-N

>  <fragmenstein_runtime>  (305) 
5.268409

>  <HIPPO Compound ID>  (305) 
32879

>  <SLURM_JOB_NAME>  (305) 
BulkDock.place:Flavi_NS5_RdRp:RdRp_knitwork_green_site_rna_tunnel_impure_split4000_batch013

>  <ref_mols>  (305) 
z0904a,z0211a

>  <Multi-SuCOS>  (305) 
0.535177

>  <tags>  (305) 
['Fragmenstein placed', 'RdRp_knitwork_green_site_rna_tunnel_impure_fragalysis.sdf Pose OK']

>  <scratch_subdir>  (305) 
/opt/xchem-fragalysis-2/maxwin/BulkDock/SCRATCH/220464/C32879-P102

>  <energy_score>  (305) 
-38.271572

>  <fragmenstein_error>  (305) 
None

>  <csv_name>  (305) 
RdRp_knitwork_green_site_rna_tunnel_impure_split4000_batch013.csv

>  <merge_set>  (305) 
RdRp_knitwork_green_site_rna_tunnel_impure_fragalysis.sdf

>  <original ID>  (305) 
WILRTUBSTMRUOC-SECBINFHSA-N

>  <HIPPO Pose ID>  (305) 
204354

>  <fragmenstein_outcome>  (305) 
acceptable

>  <exports>  (305) 
['/opt/xchem-fragalysis-2/maxwin/BulkDock/OUTPUTS/RdRp_knitwork_green_site_rna_tunnel_impure_split4000_batch013_220464.sdf', '/opt/xchem-fragalysis-2/maxwin/BulkDock/OUTPUTS/RdRp_knitwork_green_site_rna_tunnel_impure_fragalysis.sdf']

>  <SLURM_JOB_ID>  (305) 
220464

>  <distance_score>  (305) 
0.932464

>  <original SMILES>  (305) 
C[C@H](CNC(=O)Nc1ccc2c(c1)CCCN2)S(N)(=O)=O

>  <alias>  (305) 
None

>  <ref_pdb>  (305) 
z0211a

>  <inchikey>  (305) 
WILRTUBSTMRUOC-SECBINFHSA-N

$$$$
VPXOFEWCBDAUCJ-FQEVSTJZSA-N
     RDKit          3D

 28 31  0  0  0  0  0  0  0  0999 V2000
  -26.2411  -32.9340  -22.1050 O   0  0  0  0  0  0  0  0  0  0  0  0
  -25.5521  -32.0722  -21.8252 C   0  0  0  0  0  0  0  0  0  0  0  0
  -24.1356  -31.7154  -22.3408 N   0  0  0  0  0  0  0  0  0  0  0  0
  -23.3426  -32.3182  -23.3805 C   0  0  0  0  0  0  0  0  0  0  0  0
  -21.8436  -32.0294  -23.2470 C   0  0  2  0  0  0  0  0  0  0  0  0
  -21.0971  -32.9353  -24.0752 O   0  0  0  0  0  0  0  0  0  0  0  0
  -21.2595  -32.0828  -21.8116 C   0  0  0  0  0  0  0  0  0  0  0  0
  -20.9261  -33.4526  -21.3640 N   0  0  0  0  0  0  0  0  0  0  0  0
  -22.1075  -34.1774  -20.8538 C   0  0  0  0  0  0  0  0  0  0  0  0
  -21.7595  -35.6474  -20.5912 C   0  0  0  0  0  0  0  0  0  0  0  0
  -20.4967  -35.8083  -19.7902 C   0  0  0  0  0  0  0  0  0  0  0  0
  -20.1869  -37.0419  -19.2083 C   0  0  0  0  0  0  0  0  0  0  0  0
  -19.0113  -37.1938  -18.4775 C   0  0  0  0  0  0  0  0  0  0  0  0
  -18.1340  -36.1229  -18.3280 C   0  0  0  0  0  0  0  0  0  0  0  0
  -18.4305  -34.8940  -18.9153 C   0  0  0  0  0  0  0  0  0  0  0  0
  -19.6041  -34.7303  -19.6645 C   0  0  0  0  0  0  0  0  0  0  0  0
  -19.9357  -33.3797  -20.2594 C   0  0  0  0  0  0  0  0  0  0  0  0
  -25.7628  -30.9046  -20.8260 N   0  0  0  0  0  0  0  0  0  0  0  0
  -26.8786  -30.5506  -20.0794 C   0  0  0  0  0  0  0  0  0  0  0  0
  -28.1283  -30.5988  -20.6963 C   0  0  0  0  0  0  0  0  0  0  0  0
  -29.2758  -30.2527  -19.9931 C   0  0  0  0  0  0  0  0  0  0  0  0
  -29.1768  -29.9071  -18.6495 C   0  0  0  0  0  0  0  0  0  0  0  0
  -27.9300  -29.8776  -18.0054 C   0  0  0  0  0  0  0  0  0  0  0  0
  -27.8492  -29.6544  -16.6254 C   0  0  0  0  0  0  0  0  0  0  0  0
  -26.6291  -29.7427  -15.9546 C   0  0  0  0  0  0  0  0  0  0  0  0
  -25.4623  -29.9980  -16.6602 C   0  0  0  0  0  0  0  0  0  0  0  0
  -25.5190  -30.2010  -18.0361 C   0  0  0  0  0  0  0  0  0  0  0  0
  -26.7496  -30.1718  -18.7294 C   0  0  0  0  0  0  0  0  0  0  0  0
  1  2  2  0
  2  3  1  0
  3  4  1  0
  4  5  1  0
  5  6  1  6
  5  7  1  0
  7  8  1  0
  8  9  1  0
  9 10  1  0
 10 11  1  0
 11 12  2  0
 12 13  1  0
 13 14  2  0
 14 15  1  0
 15 16  2  0
 16 17  1  0
  2 18  1  0
 18 19  1  0
 19 20  2  0
 20 21  1  0
 21 22  2  0
 22 23  1  0
 23 24  2  0
 24 25  1  0
 25 26  2  0
 26 27  1  0
 27 28  2  0
 17  8  1  0
 28 19  1  0
 16 11  1  0
 28 23  1  0
M  END
>  <fragmenstein_mode>  (306) 
expansion

>  <name>  (306) 
VPXOFEWCBDAUCJ-FQEVSTJZSA-N

>  <fragmenstein_runtime>  (306) 
25.569544

>  <HIPPO Compound ID>  (306) 
34042

>  <SLURM_JOB_NAME>  (306) 
BulkDock.place:Flavi_NS5_RdRp:RdRp_knitwork_green_site_rna_tunnel_impure_split4000_batch008

>  <ref_mols>  (306) 
z0041a,z0211a

>  <Multi-SuCOS>  (306) 
0.438405

>  <tags>  (306) 
['Fragmenstein placed', 'RdRp_knitwork_green_site_rna_tunnel_impure_fragalysis.sdf Pose OK']

>  <scratch_subdir>  (306) 
/opt/xchem-fragalysis-2/maxwin/BulkDock/SCRATCH/220459/C34042-P102

>  <energy_score>  (306) 
-27.391913

>  <fragmenstein_error>  (306) 
None

>  <csv_name>  (306) 
RdRp_knitwork_green_site_rna_tunnel_impure_split4000_batch008.csv

>  <merge_set>  (306) 
RdRp_knitwork_green_site_rna_tunnel_impure_fragalysis.sdf

>  <original ID>  (306) 
VPXOFEWCBDAUCJ-FQEVSTJZSA-N

>  <HIPPO Pose ID>  (306) 
204365

>  <fragmenstein_outcome>  (306) 
acceptable

>  <exports>  (306) 
['/opt/xchem-fragalysis-2/maxwin/BulkDock/OUTPUTS/RdRp_knitwork_green_site_rna_tunnel_impure_split4000_batch008_220459.sdf', '/opt/xchem-fragalysis-2/maxwin/BulkDock/OUTPUTS/RdRp_knitwork_green_site_rna_tunnel_impure_fragalysis.sdf']

>  <SLURM_JOB_ID>  (306) 
220459

>  <distance_score>  (306) 
0.836832

>  <original SMILES>  (306) 
O=C(NC[C@H](O)CN1CCc2ccccc2C1)Nc1cccc2ccccc12

>  <alias>  (306) 
None

>  <ref_pdb>  (306) 
z0211a

>  <inchikey>  (306) 
VPXOFEWCBDAUCJ-FQEVSTJZSA-N

$$$$
QKRYZFKUELKZLT-UHFFFAOYSA-N
     RDKit          3D

 27 30  0  0  0  0  0  0  0  0999 V2000
  -22.0751  -36.9749  -20.1445 C   0  0  0  0  0  0  0  0  0  0  0  0
  -22.2384  -35.7461  -20.8895 N   0  0  0  0  0  0  0  0  0  0  0  0
  -23.1809  -35.5516  -21.8622 C   0  0  0  0  0  0  0  0  0  0  0  0
  -23.1037  -34.2386  -22.2850 C   0  0  0  0  0  0  0  0  0  0  0  0
  -23.9575  -33.6686  -23.3079 C   0  0  0  0  0  0  0  0  0  0  0  0
  -24.5719  -32.5248  -23.2685 N   0  0  0  0  0  0  0  0  0  0  0  0
  -24.7274  -31.9006  -22.0890 N   0  0  0  0  0  0  0  0  0  0  0  0
  -25.1201  -32.4693  -20.6804 C   0  0  0  0  0  0  0  0  0  0  0  0
  -25.4403  -33.5519  -20.3601 O   0  0  0  0  0  0  0  0  0  0  0  0
  -24.9982  -31.3055  -19.6961 C   0  0  0  0  0  0  0  0  0  0  0  0
  -25.6161  -30.0865  -20.1090 O   0  0  0  0  0  0  0  0  0  0  0  0
  -26.9826  -30.1064  -19.9525 C   0  0  0  0  0  0  0  0  0  0  0  0
  -27.7470  -30.1500  -21.1129 C   0  0  0  0  0  0  0  0  0  0  0  0
  -29.1344  -30.1708  -21.0160 C   0  0  0  0  0  0  0  0  0  0  0  0
  -29.7610  -30.1920  -19.7719 C   0  0  0  0  0  0  0  0  0  0  0  0
  -29.0081  -30.1032  -18.5972 C   0  0  0  0  0  0  0  0  0  0  0  0
  -29.6278  -30.0841  -17.3370 C   0  0  0  0  0  0  0  0  0  0  0  0
  -28.8805  -29.9271  -16.1743 C   0  0  0  0  0  0  0  0  0  0  0  0
  -27.5125  -29.7372  -16.2620 C   0  0  0  0  0  0  0  0  0  0  0  0
  -26.8904  -29.7496  -17.5113 C   0  0  0  0  0  0  0  0  0  0  0  0
  -27.6055  -29.9974  -18.6897 C   0  0  0  0  0  0  0  0  0  0  0  0
  -21.9986  -33.6426  -21.5954 C   0  0  0  0  0  0  0  0  0  0  0  0
  -21.3773  -32.3757  -21.6469 C   0  0  0  0  0  0  0  0  0  0  0  0
  -20.2657  -32.1147  -20.8387 C   0  0  0  0  0  0  0  0  0  0  0  0
  -19.7673  -33.0898  -19.9813 C   0  0  0  0  0  0  0  0  0  0  0  0
  -20.3686  -34.3489  -19.9014 C   0  0  0  0  0  0  0  0  0  0  0  0
  -21.4756  -34.6084  -20.7275 C   0  0  0  0  0  0  0  0  0  0  0  0
  1  2  1  0
  2  3  1  0
  3  4  2  0
  4  5  1  0
  5  6  2  3
  6  7  1  0
  7  8  1  0
  8  9  2  0
  8 10  1  0
 10 11  1  0
 11 12  1  0
 12 13  2  0
 13 14  1  0
 14 15  2  0
 15 16  1  0
 16 17  2  0
 17 18  1  0
 18 19  2  0
 19 20  1  0
 20 21  2  0
  4 22  1  0
 22 23  2  0
 23 24  1  0
 24 25  2  0
 25 26  1  0
 26 27  2  0
 27  2  1  0
 21 12  1  0
 27 22  1  0
 21 16  1  0
M  END
>  <fragmenstein_mode>  (307) 
expansion

>  <name>  (307) 
QKRYZFKUELKZLT-UHFFFAOYSA-N

>  <fragmenstein_runtime>  (307) 
8.102391

>  <HIPPO Compound ID>  (307) 
32315

>  <SLURM_JOB_NAME>  (307) 
BulkDock.place:Flavi_NS5_RdRp:RdRp_knitwork_green_site_rna_tunnel_impure_split4000_batch006

>  <ref_mols>  (307) 
z0136a,3vws-b

>  <Multi-SuCOS>  (307) 
0.687374

>  <tags>  (307) 
['Fragmenstein placed', 'RdRp_knitwork_green_site_rna_tunnel_impure_fragalysis.sdf Pose OK']

>  <scratch_subdir>  (307) 
/opt/xchem-fragalysis-2/maxwin/BulkDock/SCRATCH/220457/C32315-P91

>  <energy_score>  (307) 
-7.495359

>  <fragmenstein_error>  (307) 
None

>  <csv_name>  (307) 
RdRp_knitwork_green_site_rna_tunnel_impure_split4000_batch006.csv

>  <merge_set>  (307) 
RdRp_knitwork_green_site_rna_tunnel_impure_fragalysis.sdf

>  <original ID>  (307) 
QKRYZFKUELKZLT-UHFFFAOYSA-N

>  <HIPPO Pose ID>  (307) 
204709

>  <fragmenstein_outcome>  (307) 
acceptable

>  <exports>  (307) 
['/opt/xchem-fragalysis-2/maxwin/BulkDock/OUTPUTS/RdRp_knitwork_green_site_rna_tunnel_impure_split4000_batch006_220457.sdf', '/opt/xchem-fragalysis-2/maxwin/BulkDock/OUTPUTS/RdRp_knitwork_green_site_rna_tunnel_impure_fragalysis.sdf']

>  <SLURM_JOB_ID>  (307) 
220457

>  <distance_score>  (307) 
0.962559

>  <original SMILES>  (307) 
Cn1cc(C=NNC(=O)COc2cccc3ccccc23)c2ccccc21

>  <alias>  (307) 
None

>  <ref_pdb>  (307) 
z0136a

>  <inchikey>  (307) 
QKRYZFKUELKZLT-UHFFFAOYSA-N

$$$$
KBBNPJSBCJGTNT-SUMWQHHRSA-N
     RDKit          3D

 23 25  0  0  0  0  0  0  0  0999 V2000
  -21.1427  -32.9631  -24.0095 C   0  0  0  0  0  0  0  0  0  0  0  0
  -22.1073  -32.6543  -22.8682 C   0  0  1  0  0  0  0  0  0  0  0  0
  -21.4667  -31.7007  -21.9932 O   0  0  0  0  0  0  0  0  0  0  0  0
  -23.3823  -31.9878  -23.4411 C   0  0  0  0  0  0  0  0  0  0  0  0
  -24.1628  -31.4953  -22.3428 N   0  0  0  0  0  0  0  0  0  0  0  0
  -25.5585  -30.8508  -22.3222 C   0  0  0  0  0  0  0  0  0  0  0  0
  -26.2448  -30.5554  -23.1791 O   0  0  0  0  0  0  0  0  0  0  0  0
  -25.7617  -30.7350  -20.7919 N   0  0  0  0  0  0  0  0  0  0  0  0
  -26.8622  -30.3287  -20.0644 C   0  0  0  0  0  0  0  0  0  0  0  0
  -28.1197  -30.1341  -20.6092 C   0  0  0  0  0  0  0  0  0  0  0  0
  -29.2103  -29.8785  -19.7706 C   0  0  0  0  0  0  0  0  0  0  0  0
  -28.9825  -29.7676  -18.3844 C   0  0  0  0  0  0  0  0  0  0  0  0
  -30.1364  -29.6441  -17.1191 S   0  0  0  0  0  0  0  0  0  0  0  0
  -28.9401  -29.4666  -15.9224 C   0  0  0  0  0  0  0  0  0  0  0  0
  -27.6764  -29.5501  -16.4460 C   0  0  0  0  0  0  0  0  0  0  0  0
  -27.6943  -29.8041  -17.8510 C   0  0  0  0  0  0  0  0  0  0  0  0
  -26.6328  -30.1347  -18.7026 C   0  0  0  0  0  0  0  0  0  0  0  0
  -22.4580  -33.8898  -21.9749 C   0  0  1  0  0  0  0  0  0  0  0  0
  -23.1258  -35.0589  -22.7057 C   0  0  0  0  0  0  0  0  0  0  0  0
  -23.5191  -36.1730  -21.7325 C   0  0  0  0  0  0  0  0  0  0  0  0
  -22.6549  -36.1917  -20.4781 C   0  0  0  0  0  0  0  0  0  0  0  0
  -21.3339  -35.7689  -20.7958 O   0  0  0  0  0  0  0  0  0  0  0  0
  -21.2730  -34.3718  -21.1107 C   0  0  0  0  0  0  0  0  0  0  0  0
  2  1  1  6
  2  3  1  0
  2  4  1  0
  4  5  1  0
  5  6  1  0
  6  7  2  0
  6  8  1  0
  8  9  1  0
  9 10  2  0
 10 11  1  0
 11 12  2  0
 12 13  1  0
 13 14  1  0
 14 15  2  0
 15 16  1  0
 16 17  2  0
  2 18  1  0
 18 19  1  6
 19 20  1  0
 20 21  1  0
 21 22  1  0
 22 23  1  0
 17  9  1  0
 23 18  1  0
 16 12  1  0
M  END
>  <fragmenstein_mode>  (308) 
expansion

>  <name>  (308) 
KBBNPJSBCJGTNT-SUMWQHHRSA-N

>  <fragmenstein_runtime>  (308) 
3.345475

>  <HIPPO Compound ID>  (308) 
35423

>  <SLURM_JOB_NAME>  (308) 
BulkDock.place:Flavi_NS5_RdRp:RdRp_knitwork_green_site_rna_tunnel_impure_split4000_batch008

>  <ref_mols>  (308) 
z0041a,z0211a

>  <Multi-SuCOS>  (308) 
0.541384

>  <tags>  (308) 
['Fragmenstein placed', 'RdRp_knitwork_green_site_rna_tunnel_impure_fragalysis.sdf Pose OK']

>  <scratch_subdir>  (308) 
/opt/xchem-fragalysis-2/maxwin/BulkDock/SCRATCH/220459/C35423-P82

>  <energy_score>  (308) 
-35.868044

>  <fragmenstein_error>  (308) 
None

>  <csv_name>  (308) 
RdRp_knitwork_green_site_rna_tunnel_impure_split4000_batch008.csv

>  <merge_set>  (308) 
RdRp_knitwork_green_site_rna_tunnel_impure_fragalysis.sdf

>  <original ID>  (308) 
KBBNPJSBCJGTNT-SUMWQHHRSA-N

>  <HIPPO Pose ID>  (308) 
204967

>  <fragmenstein_outcome>  (308) 
acceptable

>  <exports>  (308) 
['/opt/xchem-fragalysis-2/maxwin/BulkDock/OUTPUTS/RdRp_knitwork_green_site_rna_tunnel_impure_split4000_batch008_220459.sdf', '/opt/xchem-fragalysis-2/maxwin/BulkDock/OUTPUTS/RdRp_knitwork_green_site_rna_tunnel_impure_fragalysis.sdf']

>  <SLURM_JOB_ID>  (308) 
220459

>  <distance_score>  (308) 
0.848658

>  <original SMILES>  (308) 
C[C@@](O)(CNC(=O)Nc1ccc2sccc2c1)[C@H]1CCCOC1

>  <alias>  (308) 
None

>  <ref_pdb>  (308) 
z0041a

>  <inchikey>  (308) 
KBBNPJSBCJGTNT-SUMWQHHRSA-N

$$$$
KBBNPJSBCJGTNT-SUMWQHHRSA-N
     RDKit          3D

 23 25  0  0  0  0  0  0  0  0999 V2000
  -21.0874  -32.8784  -24.0104 C   0  0  0  0  0  0  0  0  0  0  0  0
  -21.9044  -32.5047  -22.7740 C   0  0  1  0  0  0  0  0  0  0  0  0
  -21.2377  -31.4111  -22.1226 O   0  0  0  0  0  0  0  0  0  0  0  0
  -23.2919  -32.0210  -23.2472 C   0  0  0  0  0  0  0  0  0  0  0  0
  -24.0808  -31.5455  -22.1494 N   0  0  0  0  0  0  0  0  0  0  0  0
  -25.4938  -30.9370  -22.1272 C   0  0  0  0  0  0  0  0  0  0  0  0
  -26.2474  -30.8015  -22.9649 O   0  0  0  0  0  0  0  0  0  0  0  0
  -25.6236  -30.6590  -20.6132 N   0  0  0  0  0  0  0  0  0  0  0  0
  -26.7149  -30.2605  -19.8680 C   0  0  0  0  0  0  0  0  0  0  0  0
  -27.9883  -30.1702  -20.4171 C   0  0  0  0  0  0  0  0  0  0  0  0
  -29.0967  -29.9782  -19.5922 C   0  0  0  0  0  0  0  0  0  0  0  0
  -28.8833  -29.8927  -18.2045 C   0  0  0  0  0  0  0  0  0  0  0  0
  -30.0655  -29.8568  -16.9599 S   0  0  0  0  0  0  0  0  0  0  0  0
  -28.8937  -29.8319  -15.7294 C   0  0  0  0  0  0  0  0  0  0  0  0
  -27.6193  -29.8145  -16.2315 C   0  0  0  0  0  0  0  0  0  0  0  0
  -27.5987  -29.8868  -17.6562 C   0  0  0  0  0  0  0  0  0  0  0  0
  -26.4987  -30.0552  -18.5109 C   0  0  0  0  0  0  0  0  0  0  0  0
  -21.9995  -33.6617  -21.7313 C   0  0  1  0  0  0  0  0  0  0  0  0
  -22.6438  -34.9491  -22.2581 C   0  0  0  0  0  0  0  0  0  0  0  0
  -22.7937  -35.9844  -21.1429 C   0  0  0  0  0  0  0  0  0  0  0  0
  -21.7309  -35.8395  -20.0605 C   0  0  0  0  0  0  0  0  0  0  0  0
  -20.5305  -35.3423  -20.6420 O   0  0  0  0  0  0  0  0  0  0  0  0
  -20.6558  -33.9653  -21.0284 C   0  0  0  0  0  0  0  0  0  0  0  0
  2  1  1  6
  2  3  1  0
  2  4  1  0
  4  5  1  0
  5  6  1  0
  6  7  2  0
  6  8  1  0
  8  9  1  0
  9 10  2  0
 10 11  1  0
 11 12  2  0
 12 13  1  0
 13 14  1  0
 14 15  2  0
 15 16  1  0
 16 17  2  0
  2 18  1  0
 18 19  1  6
 19 20  1  0
 20 21  1  0
 21 22  1  0
 22 23  1  0
 17  9  1  0
 23 18  1  0
 16 12  1  0
M  END
>  <fragmenstein_mode>  (309) 
expansion

>  <name>  (309) 
KBBNPJSBCJGTNT-SUMWQHHRSA-N

>  <fragmenstein_runtime>  (309) 
5.167665

>  <HIPPO Compound ID>  (309) 
35423

>  <SLURM_JOB_NAME>  (309) 
BulkDock.place:Flavi_NS5_RdRp:RdRp_knitwork_green_site_rna_tunnel_impure_split4000_batch008

>  <ref_mols>  (309) 
z0041a,z0211a

>  <Multi-SuCOS>  (309) 
0.521057

>  <tags>  (309) 
['Fragmenstein placed', 'RdRp_knitwork_green_site_rna_tunnel_impure_fragalysis.sdf Pose OK']

>  <scratch_subdir>  (309) 
/opt/xchem-fragalysis-2/maxwin/BulkDock/SCRATCH/220459/C35423-P102

>  <energy_score>  (309) 
-36.047258

>  <fragmenstein_error>  (309) 
None

>  <csv_name>  (309) 
RdRp_knitwork_green_site_rna_tunnel_impure_split4000_batch008.csv

>  <merge_set>  (309) 
RdRp_knitwork_green_site_rna_tunnel_impure_fragalysis.sdf

>  <original ID>  (309) 
KBBNPJSBCJGTNT-SUMWQHHRSA-N

>  <HIPPO Pose ID>  (309) 
204979

>  <fragmenstein_outcome>  (309) 
acceptable

>  <exports>  (309) 
['/opt/xchem-fragalysis-2/maxwin/BulkDock/OUTPUTS/RdRp_knitwork_green_site_rna_tunnel_impure_split4000_batch008_220459.sdf', '/opt/xchem-fragalysis-2/maxwin/BulkDock/OUTPUTS/RdRp_knitwork_green_site_rna_tunnel_impure_fragalysis.sdf']

>  <SLURM_JOB_ID>  (309) 
220459

>  <distance_score>  (309) 
0.8713

>  <original SMILES>  (309) 
C[C@@](O)(CNC(=O)Nc1ccc2sccc2c1)[C@H]1CCCOC1

>  <alias>  (309) 
None

>  <ref_pdb>  (309) 
z0211a

>  <inchikey>  (309) 
KBBNPJSBCJGTNT-SUMWQHHRSA-N

$$$$
XYRDJRCBUAYREB-MRVPVSSYSA-N
     RDKit          3D

 17 18  0  0  0  0  0  0  0  0999 V2000
  -20.9776  -32.8281  -24.0426 C   0  0  0  0  0  0  0  0  0  0  0  0
  -21.9727  -32.5955  -22.9236 C   0  0  1  0  0  0  0  0  0  0  0  0
  -21.4111  -31.6897  -21.9699 O   0  0  0  0  0  0  0  0  0  0  0  0
  -23.3043  -32.0631  -23.4509 C   0  0  0  0  0  0  0  0  0  0  0  0
  -24.1551  -31.6374  -22.3718 N   0  0  0  0  0  0  0  0  0  0  0  0
  -25.5238  -30.9166  -22.3993 C   0  0  0  0  0  0  0  0  0  0  0  0
  -26.1190  -30.4996  -23.2772 O   0  0  0  0  0  0  0  0  0  0  0  0
  -25.8165  -30.8645  -20.8692 N   0  0  0  0  0  0  0  0  0  0  0  0
  -26.9205  -30.3790  -20.1816 C   0  0  0  0  0  0  0  0  0  0  0  0
  -28.1167  -30.0791  -20.8373 C   0  0  0  0  0  0  0  0  0  0  0  0
  -29.2582  -29.7264  -20.1232 C   0  0  0  0  0  0  0  0  0  0  0  0
  -29.2064  -29.5819  -18.7349 C   0  0  0  0  0  0  0  0  0  0  0  0
  -27.9750  -29.7241  -18.0719 C   0  0  0  0  0  0  0  0  0  0  0  0
  -27.5493  -29.5310  -16.7300 C   0  0  0  0  0  0  0  0  0  0  0  0
  -26.2136  -29.8508  -16.6595 C   0  0  0  0  0  0  0  0  0  0  0  0
  -25.8165  -30.2544  -17.9059 N   0  0  0  0  0  0  0  0  0  0  0  0
  -26.8653  -30.1623  -18.7972 C   0  0  0  0  0  0  0  0  0  0  0  0
  2  1  1  6
  2  3  1  0
  2  4  1  0
  4  5  1  0
  5  6  1  0
  6  7  2  0
  6  8  1  0
  8  9  1  0
  9 10  2  0
 10 11  1  0
 11 12  2  0
 12 13  1  0
 13 14  1  0
 14 15  2  0
 15 16  1  0
 16 17  1  0
 17  9  1  0
 17 13  2  0
M  END
>  <fragmenstein_mode>  (310) 
expansion

>  <name>  (310) 
XYRDJRCBUAYREB-MRVPVSSYSA-N

>  <fragmenstein_runtime>  (310) 
3.148595

>  <HIPPO Compound ID>  (310) 
34701

>  <SLURM_JOB_NAME>  (310) 
BulkDock.place:Flavi_NS5_RdRp:RdRp_knitwork_green_site_rna_tunnel_impure_split4000_batch008

>  <ref_mols>  (310) 
z0041a,z0211a

>  <Multi-SuCOS>  (310) 
0.757943

>  <tags>  (310) 
['Fragmenstein placed', 'RdRp_knitwork_green_site_rna_tunnel_impure_fragalysis.sdf Pose OK']

>  <scratch_subdir>  (310) 
/opt/xchem-fragalysis-2/maxwin/BulkDock/SCRATCH/220459/C34701-P82

>  <energy_score>  (310) 
-1.256086

>  <fragmenstein_error>  (310) 
None

>  <csv_name>  (310) 
RdRp_knitwork_green_site_rna_tunnel_impure_split4000_batch008.csv

>  <merge_set>  (310) 
RdRp_knitwork_green_site_rna_tunnel_impure_fragalysis.sdf

>  <original ID>  (310) 
XYRDJRCBUAYREB-MRVPVSSYSA-N

>  <HIPPO Pose ID>  (310) 
205073

>  <fragmenstein_outcome>  (310) 
acceptable

>  <exports>  (310) 
['/opt/xchem-fragalysis-2/maxwin/BulkDock/OUTPUTS/RdRp_knitwork_green_site_rna_tunnel_impure_split4000_batch008_220459.sdf', '/opt/xchem-fragalysis-2/maxwin/BulkDock/OUTPUTS/RdRp_knitwork_green_site_rna_tunnel_impure_fragalysis.sdf']

>  <SLURM_JOB_ID>  (310) 
220459

>  <distance_score>  (310) 
0.700033

>  <original SMILES>  (310) 
C[C@@H](O)CNC(=O)Nc1cccc2cc[nH]c12

>  <alias>  (310) 
None

>  <ref_pdb>  (310) 
z0041a

>  <inchikey>  (310) 
XYRDJRCBUAYREB-MRVPVSSYSA-N

$$$$
XYRDJRCBUAYREB-MRVPVSSYSA-N
     RDKit          3D

 17 18  0  0  0  0  0  0  0  0999 V2000
  -21.0306  -32.8852  -23.9488 C   0  0  0  0  0  0  0  0  0  0  0  0
  -22.0193  -32.6980  -22.8144 C   0  0  1  0  0  0  0  0  0  0  0  0
  -21.3767  -32.0096  -21.7379 O   0  0  0  0  0  0  0  0  0  0  0  0
  -23.2307  -31.9048  -23.2911 C   0  0  0  0  0  0  0  0  0  0  0  0
  -24.0793  -31.5243  -22.2007 N   0  0  0  0  0  0  0  0  0  0  0  0
  -25.4979  -30.9124  -22.2033 C   0  0  0  0  0  0  0  0  0  0  0  0
  -26.2054  -30.7012  -23.0680 O   0  0  0  0  0  0  0  0  0  0  0  0
  -25.7038  -30.7393  -20.6745 N   0  0  0  0  0  0  0  0  0  0  0  0
  -26.8307  -30.3703  -19.9571 C   0  0  0  0  0  0  0  0  0  0  0  0
  -28.0796  -30.2557  -20.5793 C   0  0  0  0  0  0  0  0  0  0  0  0
  -29.2302  -29.9909  -19.8441 C   0  0  0  0  0  0  0  0  0  0  0  0
  -29.1543  -29.8058  -18.4620 C   0  0  0  0  0  0  0  0  0  0  0  0
  -27.8994  -29.8453  -17.8252 C   0  0  0  0  0  0  0  0  0  0  0  0
  -27.4759  -29.7175  -16.4765 C   0  0  0  0  0  0  0  0  0  0  0  0
  -26.1122  -29.8933  -16.4402 C   0  0  0  0  0  0  0  0  0  0  0  0
  -25.6863  -30.1353  -17.7190 N   0  0  0  0  0  0  0  0  0  0  0  0
  -26.7614  -30.1304  -18.5827 C   0  0  0  0  0  0  0  0  0  0  0  0
  2  1  1  6
  2  3  1  0
  2  4  1  0
  4  5  1  0
  5  6  1  0
  6  7  2  0
  6  8  1  0
  8  9  1  0
  9 10  2  0
 10 11  1  0
 11 12  2  0
 12 13  1  0
 13 14  1  0
 14 15  2  0
 15 16  1  0
 16 17  1  0
 17  9  1  0
 17 13  2  0
M  END
>  <fragmenstein_mode>  (311) 
expansion

>  <name>  (311) 
XYRDJRCBUAYREB-MRVPVSSYSA-N

>  <fragmenstein_runtime>  (311) 
4.743426

>  <HIPPO Compound ID>  (311) 
34701

>  <SLURM_JOB_NAME>  (311) 
BulkDock.place:Flavi_NS5_RdRp:RdRp_knitwork_green_site_rna_tunnel_impure_split4000_batch008

>  <ref_mols>  (311) 
z0041a,z0211a

>  <Multi-SuCOS>  (311) 
0.786825

>  <tags>  (311) 
['Fragmenstein placed', 'RdRp_knitwork_green_site_rna_tunnel_impure_fragalysis.sdf Pose OK']

>  <scratch_subdir>  (311) 
/opt/xchem-fragalysis-2/maxwin/BulkDock/SCRATCH/220459/C34701-P102

>  <energy_score>  (311) 
-3.948916

>  <fragmenstein_error>  (311) 
None

>  <csv_name>  (311) 
RdRp_knitwork_green_site_rna_tunnel_impure_split4000_batch008.csv

>  <merge_set>  (311) 
RdRp_knitwork_green_site_rna_tunnel_impure_fragalysis.sdf

>  <original ID>  (311) 
XYRDJRCBUAYREB-MRVPVSSYSA-N

>  <HIPPO Pose ID>  (311) 
205083

>  <fragmenstein_outcome>  (311) 
acceptable

>  <exports>  (311) 
['/opt/xchem-fragalysis-2/maxwin/BulkDock/OUTPUTS/RdRp_knitwork_green_site_rna_tunnel_impure_split4000_batch008_220459.sdf', '/opt/xchem-fragalysis-2/maxwin/BulkDock/OUTPUTS/RdRp_knitwork_green_site_rna_tunnel_impure_fragalysis.sdf']

>  <SLURM_JOB_ID>  (311) 
220459

>  <distance_score>  (311) 
0.678419

>  <original SMILES>  (311) 
C[C@@H](O)CNC(=O)Nc1cccc2cc[nH]c12

>  <alias>  (311) 
None

>  <ref_pdb>  (311) 
z0211a

>  <inchikey>  (311) 
XYRDJRCBUAYREB-MRVPVSSYSA-N

$$$$
ISPDHVBRKYFTGV-CYBMUJFWSA-N
     RDKit          3D

 21 23  0  0  0  0  0  0  0  0999 V2000
  -26.2630  -34.6711  -21.3838 C   0  0  0  0  0  0  0  0  0  0  0  0
  -25.7017  -34.5082  -19.9702 C   0  0  1  0  0  0  0  0  0  0  0  0
  -24.4258  -35.1426  -19.9464 N   0  0  0  0  0  0  0  0  0  0  0  0
  -24.0274  -36.6200  -20.2263 C   0  0  0  0  0  0  0  0  0  0  0  0
  -24.6936  -37.5556  -20.4425 O   0  0  0  0  0  0  0  0  0  0  0  0
  -22.4926  -36.6691  -20.2868 C   0  0  0  0  0  0  0  0  0  0  0  0
  -22.0050  -35.6100  -21.1770 N   0  0  0  0  0  0  0  0  0  0  0  0
  -22.6557  -35.2458  -22.3379 C   0  0  0  0  0  0  0  0  0  0  0  0
  -22.3900  -33.9167  -22.5677 C   0  0  0  0  0  0  0  0  0  0  0  0
  -21.4193  -33.5037  -21.6172 C   0  0  0  0  0  0  0  0  0  0  0  0
  -20.7380  -32.2926  -21.3901 C   0  0  0  0  0  0  0  0  0  0  0  0
  -19.7416  -32.2402  -20.4118 C   0  0  0  0  0  0  0  0  0  0  0  0
  -19.4359  -33.3661  -19.6515 C   0  0  0  0  0  0  0  0  0  0  0  0
  -20.1304  -34.5678  -19.8249 C   0  0  0  0  0  0  0  0  0  0  0  0
  -21.1203  -34.6121  -20.8159 C   0  0  0  0  0  0  0  0  0  0  0  0
  -25.5210  -33.0771  -19.5782 C   0  0  0  0  0  0  0  0  0  0  0  0
  -25.2182  -32.5973  -18.2722 C   0  0  0  0  0  0  0  0  0  0  0  0
  -25.0295  -31.2364  -18.3599 C   0  0  0  0  0  0  0  0  0  0  0  0
  -25.2833  -30.8550  -19.6453 N   0  0  0  0  0  0  0  0  0  0  0  0
  -25.2305  -29.4995  -20.1391 C   0  0  0  0  0  0  0  0  0  0  0  0
  -25.5482  -31.9608  -20.3993 C   0  0  0  0  0  0  0  0  0  0  0  0
  2  1  1  6
  2  3  1  0
  3  4  1  0
  4  5  2  0
  4  6  1  0
  6  7  1  0
  7  8  1  0
  8  9  2  0
  9 10  1  0
 10 11  2  0
 11 12  1  0
 12 13  2  0
 13 14  1  0
 14 15  2  0
  2 16  1  0
 16 17  1  0
 17 18  2  0
 18 19  1  0
 19 20  1  0
 19 21  1  0
 15  7  1  0
 21 16  2  0
 15 10  1  0
M  END
>  <fragmenstein_mode>  (312) 
expansion

>  <name>  (312) 
ISPDHVBRKYFTGV-CYBMUJFWSA-N

>  <fragmenstein_runtime>  (312) 
7.55395

>  <HIPPO Compound ID>  (312) 
44581

>  <SLURM_JOB_NAME>  (312) 
BulkDock.place:Flavi_NS5_RdRp:RdRp_knitwork_green_site_rna_tunnel_impure_split4000_batch001

>  <ref_mols>  (312) 
d0472b,3vws-b

>  <Multi-SuCOS>  (312) 
0.595586

>  <tags>  (312) 
['Fragmenstein placed', 'RdRp_knitwork_green_site_rna_tunnel_impure_fragalysis.sdf Pose OK']

>  <scratch_subdir>  (312) 
/opt/xchem-fragalysis-2/maxwin/BulkDock/SCRATCH/220452/C44581-P217

>  <energy_score>  (312) 
-12.13925

>  <fragmenstein_error>  (312) 
None

>  <csv_name>  (312) 
RdRp_knitwork_green_site_rna_tunnel_impure_split4000_batch001.csv

>  <merge_set>  (312) 
RdRp_knitwork_green_site_rna_tunnel_impure_fragalysis.sdf

>  <original ID>  (312) 
ISPDHVBRKYFTGV-CYBMUJFWSA-N

>  <HIPPO Pose ID>  (312) 
205097

>  <fragmenstein_outcome>  (312) 
acceptable

>  <exports>  (312) 
['/opt/xchem-fragalysis-2/maxwin/BulkDock/OUTPUTS/RdRp_knitwork_green_site_rna_tunnel_impure_split4000_batch001_220452.sdf', '/opt/xchem-fragalysis-2/maxwin/BulkDock/OUTPUTS/RdRp_knitwork_green_site_rna_tunnel_impure_fragalysis.sdf']

>  <SLURM_JOB_ID>  (312) 
220452

>  <distance_score>  (312) 
0.869688

>  <original SMILES>  (312) 
C[C@@H](NC(=O)Cn1ccc2ccccc21)c1ccn(C)c1

>  <alias>  (312) 
None

>  <ref_pdb>  (312) 
3vws-b

>  <inchikey>  (312) 
ISPDHVBRKYFTGV-CYBMUJFWSA-N

$$$$
KDBYLSOTFDTARQ-UJKQEGAGSA-N
     RDKit          3D

 23 25  0  0  0  0  0  0  0  0999 V2000
  -27.8218  -28.9733  -21.4718 C   0  0  0  0  0  0  0  0  0  0  0  0
  -27.3468  -30.2423  -20.7580 C   0  0  0  0  0  0  0  0  0  0  0  0
  -28.0526  -31.3944  -21.4718 C   0  0  0  0  0  0  0  0  0  0  0  0
  -25.8496  -30.4869  -21.1303 C   0  0  0  0  0  0  0  0  0  0  0  0
  -25.4157  -30.0060  -22.1031 O   0  0  0  0  0  0  0  0  0  0  0  0
  -25.2029  -31.4650  -20.1214 N   0  0  0  0  0  0  0  0  0  0  0  0
  -23.9208  -32.1303  -20.1491 C   0  0  0  0  0  0  0  0  0  0  0  0
  -23.1158  -32.0306  -21.4447 C   0  0  0  0  0  0  0  0  0  0  0  0
  -23.4424  -32.9908  -22.6125 C   0  0  2  0  0  0  0  0  0  0  0  0
  -22.2028  -33.8679  -22.9186 C   0  0  0  0  0  0  0  0  0  0  0  0
  -22.5103  -34.8187  -24.0775 C   0  0  0  0  0  0  0  0  0  0  0  0
  -23.9313  -34.5884  -24.5763 C   0  0  2  0  0  0  0  0  0  0  0  0
  -24.0862  -33.1544  -25.0518 C   0  0  0  0  0  0  0  0  0  0  0  0
  -23.7376  -32.2015  -23.9111 C   0  0  0  0  0  0  0  0  0  0  0  0
  -24.8552  -34.8180  -23.5024 O   0  0  0  0  0  0  0  0  0  0  0  0
  -24.6313  -33.9433  -22.3819 C   0  0  0  0  0  0  0  0  0  0  0  0
  -27.7608  -30.1168  -19.2907 C   0  0  0  0  0  0  0  0  0  0  0  0
  -29.1197  -30.0760  -18.9358 C   0  0  0  0  0  0  0  0  0  0  0  0
  -29.4936  -29.9761  -17.5977 C   0  0  0  0  0  0  0  0  0  0  0  0
  -28.5090  -29.8864  -16.6378 C   0  0  0  0  0  0  0  0  0  0  0  0
  -28.8415  -29.7569  -15.3487 F   0  0  0  0  0  0  0  0  0  0  0  0
  -27.1896  -29.9215  -17.0421 C   0  0  0  0  0  0  0  0  0  0  0  0
  -26.8025  -30.0409  -18.3393 N   0  0  0  0  0  0  0  0  0  0  0  0
  1  2  1  0
  2  3  1  0
  2  4  1  0
  4  5  2  0
  4  6  1  0
  6  7  1  0
  7  8  1  0
  9  8  1  1
  9 10  1  0
 10 11  1  0
 12 11  1  1
 12 13  1  0
 13 14  1  0
 12 15  1  0
 15 16  1  0
  2 17  1  0
 17 18  2  0
 18 19  1  0
 19 20  2  0
 20 21  1  0
 20 22  1  0
 22 23  2  0
 14  9  1  0
 23 17  1  0
 16  9  1  0
M  END
>  <fragmenstein_mode>  (313) 
expansion

>  <name>  (313) 
KDBYLSOTFDTARQ-UJKQEGAGSA-N

>  <fragmenstein_runtime>  (313) 
44.115914

>  <HIPPO Compound ID>  (313) 
7071

>  <SLURM_JOB_NAME>  (313) 
BulkDock.place:Flavi_NS5_RdRp:RdRp_knitwork_green_site_rna_tunnel_impure_split4000_batch014

>  <ref_mols>  (313) 
z0215a,z1018a

>  <Multi-SuCOS>  (313) 
0.45029

>  <tags>  (313) 
['Fragmenstein placed', 'RdRp_knitwork_green_site_rna_tunnel_impure_fragalysis.sdf Pose OK']

>  <scratch_subdir>  (313) 
/opt/xchem-fragalysis-2/maxwin/BulkDock/SCRATCH/220465/C7071-P104

>  <energy_score>  (313) 
-12.127907

>  <fragmenstein_error>  (313) 
None

>  <csv_name>  (313) 
RdRp_knitwork_green_site_rna_tunnel_impure_split4000_batch014.csv

>  <merge_set>  (313) 
RdRp_knitwork_green_site_rna_tunnel_impure_fragalysis.sdf

>  <original ID>  (313) 
KDBYLSOTFDTARQ-UJKQEGAGSA-N

>  <HIPPO Pose ID>  (313) 
205102

>  <fragmenstein_outcome>  (313) 
acceptable

>  <exports>  (313) 
['/opt/xchem-fragalysis-2/maxwin/BulkDock/OUTPUTS/RdRp_knitwork_green_site_rna_tunnel_impure_split4000_batch014_220465.sdf', '/opt/xchem-fragalysis-2/maxwin/BulkDock/OUTPUTS/RdRp_knitwork_green_site_rna_tunnel_impure_fragalysis.sdf']

>  <SLURM_JOB_ID>  (313) 
220465

>  <distance_score>  (313) 
0.955004

>  <original SMILES>  (313) 
CC(C)(C(=O)NCC[C@]12CC[C@H](CC1)OC2)c1ccc(F)cn1

>  <alias>  (313) 
None

>  <ref_pdb>  (313) 
z0215a

>  <inchikey>  (313) 
KDBYLSOTFDTARQ-UJKQEGAGSA-N

$$$$
DXXSQCFDNZHYMX-LBPRGKRZSA-N
     RDKit          3D

 24 26  0  0  0  0  0  0  0  0999 V2000
  -20.9071  -32.7898  -24.0185 C   0  0  0  0  0  0  0  0  0  0  0  0
  -21.7774  -32.3531  -22.8484 C   0  0  1  0  0  0  0  0  0  0  0  0
  -23.2208  -32.1578  -23.3355 C   0  0  0  0  0  0  0  0  0  0  0  0
  -24.0971  -31.7138  -22.2829 N   0  0  0  0  0  0  0  0  0  0  0  0
  -25.4255  -30.9297  -22.3512 C   0  0  0  0  0  0  0  0  0  0  0  0
  -25.9628  -30.4667  -23.2435 O   0  0  0  0  0  0  0  0  0  0  0  0
  -25.7860  -30.9052  -20.8358 N   0  0  0  0  0  0  0  0  0  0  0  0
  -26.8991  -30.3942  -20.1863 C   0  0  0  0  0  0  0  0  0  0  0  0
  -28.0763  -30.0966  -20.8747 C   0  0  0  0  0  0  0  0  0  0  0  0
  -29.2325  -29.7315  -20.1913 C   0  0  0  0  0  0  0  0  0  0  0  0
  -29.2138  -29.5771  -18.8029 C   0  0  0  0  0  0  0  0  0  0  0  0
  -28.0000  -29.7177  -18.1077 C   0  0  0  0  0  0  0  0  0  0  0  0
  -27.6069  -29.5157  -16.7573 C   0  0  0  0  0  0  0  0  0  0  0  0
  -26.2759  -29.8448  -16.6501 C   0  0  0  0  0  0  0  0  0  0  0  0
  -25.8516  -30.2656  -17.8816 N   0  0  0  0  0  0  0  0  0  0  0  0
  -26.8747  -30.1656  -18.8021 C   0  0  0  0  0  0  0  0  0  0  0  0
  -21.7127  -33.4321  -21.8984 O   0  0  0  0  0  0  0  0  0  0  0  0
  -21.9300  -33.1659  -20.5807 C   0  0  0  0  0  0  0  0  0  0  0  0
  -21.4342  -32.0576  -19.9020 C   0  0  0  0  0  0  0  0  0  0  0  0
  -21.7286  -31.8866  -18.5455 C   0  0  0  0  0  0  0  0  0  0  0  0
  -22.5089  -32.8228  -17.8718 C   0  0  0  0  0  0  0  0  0  0  0  0
  -22.8665  -32.5866  -16.2090 Cl  0  0  0  0  0  0  0  0  0  0  0  0
  -22.9918  -33.9427  -18.5403 C   0  0  0  0  0  0  0  0  0  0  0  0
  -22.6893  -34.1179  -19.8923 C   0  0  0  0  0  0  0  0  0  0  0  0
  2  1  1  6
  2  3  1  0
  3  4  1  0
  4  5  1  0
  5  6  2  0
  5  7  1  0
  7  8  1  0
  8  9  2  0
  9 10  1  0
 10 11  2  0
 11 12  1  0
 12 13  1  0
 13 14  2  0
 14 15  1  0
 15 16  1  0
  2 17  1  0
 17 18  1  0
 18 19  2  0
 19 20  1  0
 20 21  2  0
 21 22  1  0
 21 23  1  0
 23 24  2  0
 16  8  1  0
 24 18  1  0
 16 12  2  0
M  END
>  <fragmenstein_mode>  (314) 
expansion

>  <name>  (314) 
DXXSQCFDNZHYMX-LBPRGKRZSA-N

>  <fragmenstein_runtime>  (314) 
10.682546

>  <HIPPO Compound ID>  (314) 
50921

>  <SLURM_JOB_NAME>  (314) 
BulkDock.place:Flavi_NS5_RdRp:RdRp_knitwork_green_site_rna_tunnel_impure_split4000_batch008

>  <ref_mols>  (314) 
z0041a,z0211a

>  <Multi-SuCOS>  (314) 
0.505281

>  <tags>  (314) 
['Fragmenstein placed', 'RdRp_knitwork_green_site_rna_tunnel_impure_fragalysis.sdf Pose OK']

>  <scratch_subdir>  (314) 
/opt/xchem-fragalysis-2/maxwin/BulkDock/SCRATCH/220459/C50921-P82

>  <energy_score>  (314) 
-15.912563

>  <fragmenstein_error>  (314) 
None

>  <csv_name>  (314) 
RdRp_knitwork_green_site_rna_tunnel_impure_split4000_batch008.csv

>  <merge_set>  (314) 
RdRp_knitwork_green_site_rna_tunnel_impure_fragalysis.sdf

>  <original ID>  (314) 
DXXSQCFDNZHYMX-LBPRGKRZSA-N

>  <HIPPO Pose ID>  (314) 
205164

>  <fragmenstein_outcome>  (314) 
acceptable

>  <exports>  (314) 
['/opt/xchem-fragalysis-2/maxwin/BulkDock/OUTPUTS/RdRp_knitwork_green_site_rna_tunnel_impure_split4000_batch008_220459.sdf', '/opt/xchem-fragalysis-2/maxwin/BulkDock/OUTPUTS/RdRp_knitwork_green_site_rna_tunnel_impure_fragalysis.sdf']

>  <SLURM_JOB_ID>  (314) 
220459

>  <distance_score>  (314) 
0.757647

>  <original SMILES>  (314) 
C[C@@H](CNC(=O)Nc1cccc2cc[nH]c12)Oc1ccc(Cl)cc1

>  <alias>  (314) 
None

>  <ref_pdb>  (314) 
z0041a

>  <inchikey>  (314) 
DXXSQCFDNZHYMX-LBPRGKRZSA-N

$$$$
DXXSQCFDNZHYMX-LBPRGKRZSA-N
     RDKit          3D

 24 26  0  0  0  0  0  0  0  0999 V2000
  -22.5727  -34.0060  -23.3282 C   0  0  0  0  0  0  0  0  0  0  0  0
  -21.5736  -32.9467  -22.9111 C   0  0  1  0  0  0  0  0  0  0  0  0
  -22.1255  -31.5580  -22.6659 C   0  0  0  0  0  0  0  0  0  0  0  0
  -23.1902  -31.4302  -21.7068 N   0  0  0  0  0  0  0  0  0  0  0  0
  -24.7280  -31.3654  -21.9143 C   0  0  0  0  0  0  0  0  0  0  0  0
  -25.3481  -31.4808  -22.8634 O   0  0  0  0  0  0  0  0  0  0  0  0
  -25.1656  -30.9948  -20.4649 N   0  0  0  0  0  0  0  0  0  0  0  0
  -26.4112  -30.6182  -19.9677 C   0  0  0  0  0  0  0  0  0  0  0  0
  -27.5558  -30.5657  -20.7743 C   0  0  0  0  0  0  0  0  0  0  0  0
  -28.7975  -30.1998  -20.2527 C   0  0  0  0  0  0  0  0  0  0  0  0
  -28.9322  -29.8820  -18.9009 C   0  0  0  0  0  0  0  0  0  0  0  0
  -27.7907  -29.8824  -18.0790 C   0  0  0  0  0  0  0  0  0  0  0  0
  -27.5775  -29.6401  -16.6968 C   0  0  0  0  0  0  0  0  0  0  0  0
  -26.2409  -29.8279  -16.4347 C   0  0  0  0  0  0  0  0  0  0  0  0
  -25.6272  -30.1719  -17.6089 N   0  0  0  0  0  0  0  0  0  0  0  0
  -26.5557  -30.2412  -18.6269 C   0  0  0  0  0  0  0  0  0  0  0  0
  -20.6188  -33.3451  -21.9282 O   0  0  0  0  0  0  0  0  0  0  0  0
  -20.8971  -33.6783  -20.6438 C   0  0  0  0  0  0  0  0  0  0  0  0
  -22.1445  -33.8096  -20.0474 C   0  0  0  0  0  0  0  0  0  0  0  0
  -22.2483  -34.1024  -18.6814 C   0  0  0  0  0  0  0  0  0  0  0  0
  -21.1042  -34.3106  -17.9185 C   0  0  0  0  0  0  0  0  0  0  0  0
  -21.2355  -34.6601  -16.2393 Cl  0  0  0  0  0  0  0  0  0  0  0  0
  -19.8531  -34.2303  -18.5136 C   0  0  0  0  0  0  0  0  0  0  0  0
  -19.7546  -33.9064  -19.8684 C   0  0  0  0  0  0  0  0  0  0  0  0
  2  1  1  1
  2  3  1  0
  3  4  1  0
  4  5  1  0
  5  6  2  0
  5  7  1  0
  7  8  1  0
  8  9  2  0
  9 10  1  0
 10 11  2  0
 11 12  1  0
 12 13  1  0
 13 14  2  0
 14 15  1  0
 15 16  1  0
  2 17  1  0
 17 18  1  0
 18 19  2  0
 19 20  1  0
 20 21  2  0
 21 22  1  0
 21 23  1  0
 23 24  2  0
 16  8  1  0
 24 18  1  0
 16 12  2  0
M  END
>  <fragmenstein_mode>  (315) 
expansion

>  <name>  (315) 
DXXSQCFDNZHYMX-LBPRGKRZSA-N

>  <fragmenstein_runtime>  (315) 
9.730042

>  <HIPPO Compound ID>  (315) 
50921

>  <SLURM_JOB_NAME>  (315) 
BulkDock.place:Flavi_NS5_RdRp:RdRp_knitwork_green_site_rna_tunnel_impure_split4000_batch008

>  <ref_mols>  (315) 
z0041a,z0211a

>  <Multi-SuCOS>  (315) 
0.44859

>  <tags>  (315) 
['Fragmenstein placed', 'RdRp_knitwork_green_site_rna_tunnel_impure_fragalysis.sdf Pose OK']

>  <scratch_subdir>  (315) 
/opt/xchem-fragalysis-2/maxwin/BulkDock/SCRATCH/220459/C50921-P102

>  <energy_score>  (315) 
-9.042539

>  <fragmenstein_error>  (315) 
None

>  <csv_name>  (315) 
RdRp_knitwork_green_site_rna_tunnel_impure_split4000_batch008.csv

>  <merge_set>  (315) 
RdRp_knitwork_green_site_rna_tunnel_impure_fragalysis.sdf

>  <original ID>  (315) 
DXXSQCFDNZHYMX-LBPRGKRZSA-N

>  <HIPPO Pose ID>  (315) 
205172

>  <fragmenstein_outcome>  (315) 
acceptable

>  <exports>  (315) 
['/opt/xchem-fragalysis-2/maxwin/BulkDock/OUTPUTS/RdRp_knitwork_green_site_rna_tunnel_impure_split4000_batch008_220459.sdf', '/opt/xchem-fragalysis-2/maxwin/BulkDock/OUTPUTS/RdRp_knitwork_green_site_rna_tunnel_impure_fragalysis.sdf']

>  <SLURM_JOB_ID>  (315) 
220459

>  <distance_score>  (315) 
0.968472

>  <original SMILES>  (315) 
C[C@@H](CNC(=O)Nc1cccc2cc[nH]c12)Oc1ccc(Cl)cc1

>  <alias>  (315) 
None

>  <ref_pdb>  (315) 
z0211a

>  <inchikey>  (315) 
DXXSQCFDNZHYMX-LBPRGKRZSA-N

$$$$
HMCRTDAZYKANIV-INIZCTEOSA-N
     RDKit          3D

 22 24  0  0  0  0  0  0  0  0999 V2000
  -22.6818  -34.0753  -22.0356 C   0  0  0  0  0  0  0  0  0  0  0  0
  -22.3836  -32.8245  -22.8441 C   0  0  2  0  0  0  0  0  0  0  0  0
  -21.4194  -32.0519  -22.1081 O   0  0  0  0  0  0  0  0  0  0  0  0
  -23.6246  -31.9822  -23.1297 C   0  0  0  0  0  0  0  0  0  0  0  0
  -24.3615  -31.5658  -21.9710 N   0  0  0  0  0  0  0  0  0  0  0  0
  -25.8569  -31.7111  -21.6352 C   0  0  0  0  0  0  0  0  0  0  0  0
  -26.6845  -32.2444  -22.1962 O   0  0  0  0  0  0  0  0  0  0  0  0
  -25.9178  -30.8316  -20.3646 N   0  0  0  0  0  0  0  0  0  0  0  0
  -27.0048  -30.3901  -19.6333 C   0  0  0  0  0  0  0  0  0  0  0  0
  -28.2662  -30.3181  -20.2400 C   0  0  0  0  0  0  0  0  0  0  0  0
  -29.3932  -29.9249  -19.5300 C   0  0  0  0  0  0  0  0  0  0  0  0
  -29.2817  -29.5964  -18.1802 C   0  0  0  0  0  0  0  0  0  0  0  0
  -28.0175  -29.6222  -17.5604 C   0  0  0  0  0  0  0  0  0  0  0  0
  -27.5767  -29.4201  -16.2281 C   0  0  0  0  0  0  0  0  0  0  0  0
  -26.2254  -29.6708  -16.1819 C   0  0  0  0  0  0  0  0  0  0  0  0
  -25.8223  -30.0175  -17.4414 N   0  0  0  0  0  0  0  0  0  0  0  0
  -26.8972  -30.0064  -18.3003 C   0  0  0  0  0  0  0  0  0  0  0  0
  -21.7897  -33.2047  -24.1479 C   0  0  0  0  0  0  0  0  0  0  0  0
  -20.6825  -32.7883  -24.8359 C   0  0  0  0  0  0  0  0  0  0  0  0
  -20.6543  -33.5241  -26.0335 C   0  0  0  0  0  0  0  0  0  0  0  0
  -21.8002  -34.2793  -26.0514 C   0  0  0  0  0  0  0  0  0  0  0  0
  -22.4859  -34.1113  -24.8942 O   0  0  0  0  0  0  0  0  0  0  0  0
  2  1  1  1
  2  3  1  0
  2  4  1  0
  4  5  1  0
  5  6  1  0
  6  7  2  0
  6  8  1  0
  8  9  1  0
  9 10  2  0
 10 11  1  0
 11 12  2  0
 12 13  1  0
 13 14  1  0
 14 15  2  0
 15 16  1  0
 16 17  1  0
  2 18  1  0
 18 19  2  0
 19 20  1  0
 20 21  2  0
 21 22  1  0
 17  9  1  0
 22 18  1  0
 17 13  2  0
M  END
>  <fragmenstein_mode>  (316) 
expansion

>  <name>  (316) 
HMCRTDAZYKANIV-INIZCTEOSA-N

>  <fragmenstein_runtime>  (316) 
7.12284

>  <HIPPO Compound ID>  (316) 
50922

>  <SLURM_JOB_NAME>  (316) 
BulkDock.place:Flavi_NS5_RdRp:RdRp_knitwork_green_site_rna_tunnel_impure_split4000_batch008

>  <ref_mols>  (316) 
z0041a,z0211a

>  <Multi-SuCOS>  (316) 
0.60776

>  <tags>  (316) 
['Fragmenstein placed', 'RdRp_knitwork_green_site_rna_tunnel_impure_fragalysis.sdf Pose OK']

>  <scratch_subdir>  (316) 
/opt/xchem-fragalysis-2/maxwin/BulkDock/SCRATCH/220459/C50922-P82

>  <energy_score>  (316) 
-43.448542

>  <fragmenstein_error>  (316) 
None

>  <csv_name>  (316) 
RdRp_knitwork_green_site_rna_tunnel_impure_split4000_batch008.csv

>  <merge_set>  (316) 
RdRp_knitwork_green_site_rna_tunnel_impure_fragalysis.sdf

>  <original ID>  (316) 
HMCRTDAZYKANIV-INIZCTEOSA-N

>  <HIPPO Pose ID>  (316) 
205230

>  <fragmenstein_outcome>  (316) 
acceptable

>  <exports>  (316) 
['/opt/xchem-fragalysis-2/maxwin/BulkDock/OUTPUTS/RdRp_knitwork_green_site_rna_tunnel_impure_split4000_batch008_220459.sdf', '/opt/xchem-fragalysis-2/maxwin/BulkDock/OUTPUTS/RdRp_knitwork_green_site_rna_tunnel_impure_fragalysis.sdf']

>  <SLURM_JOB_ID>  (316) 
220459

>  <distance_score>  (316) 
0.95958

>  <original SMILES>  (316) 
C[C@](O)(CNC(=O)Nc1cccc2cc[nH]c12)c1ccco1

>  <alias>  (316) 
None

>  <ref_pdb>  (316) 
z0041a

>  <inchikey>  (316) 
HMCRTDAZYKANIV-INIZCTEOSA-N

$$$$
HMCRTDAZYKANIV-INIZCTEOSA-N
     RDKit          3D

 22 24  0  0  0  0  0  0  0  0999 V2000
  -21.1166  -32.8614  -24.3952 C   0  0  0  0  0  0  0  0  0  0  0  0
  -22.0474  -32.8064  -23.1910 C   0  0  2  0  0  0  0  0  0  0  0  0
  -22.7157  -34.0583  -23.0814 O   0  0  0  0  0  0  0  0  0  0  0  0
  -23.1042  -31.7287  -23.4224 C   0  0  0  0  0  0  0  0  0  0  0  0
  -23.9855  -31.4654  -22.3111 N   0  0  0  0  0  0  0  0  0  0  0  0
  -25.4296  -30.9094  -22.2874 C   0  0  0  0  0  0  0  0  0  0  0  0
  -26.1348  -30.6593  -23.1442 O   0  0  0  0  0  0  0  0  0  0  0  0
  -25.6311  -30.7815  -20.7520 N   0  0  0  0  0  0  0  0  0  0  0  0
  -26.7526  -30.4167  -20.0207 C   0  0  0  0  0  0  0  0  0  0  0  0
  -28.0037  -30.2855  -20.6378 C   0  0  0  0  0  0  0  0  0  0  0  0
  -29.1485  -29.9971  -19.9015 C   0  0  0  0  0  0  0  0  0  0  0  0
  -29.0654  -29.8025  -18.5219 C   0  0  0  0  0  0  0  0  0  0  0  0
  -27.8091  -29.8592  -17.8890 C   0  0  0  0  0  0  0  0  0  0  0  0
  -27.3808  -29.7211  -16.5427 C   0  0  0  0  0  0  0  0  0  0  0  0
  -26.0201  -29.9164  -16.5076 C   0  0  0  0  0  0  0  0  0  0  0  0
  -25.6015  -30.1850  -17.7837 N   0  0  0  0  0  0  0  0  0  0  0  0
  -26.6773  -30.1725  -18.6466 C   0  0  0  0  0  0  0  0  0  0  0  0
  -21.2557  -32.6914  -21.9361 C   0  0  0  0  0  0  0  0  0  0  0  0
  -20.7919  -33.6491  -21.0532 C   0  0  0  0  0  0  0  0  0  0  0  0
  -20.1253  -32.9566  -20.0297 C   0  0  0  0  0  0  0  0  0  0  0  0
  -20.2218  -31.6265  -20.3541 C   0  0  0  0  0  0  0  0  0  0  0  0
  -20.8767  -31.4507  -21.5253 O   0  0  0  0  0  0  0  0  0  0  0  0
  2  1  1  6
  2  3  1  0
  2  4  1  0
  4  5  1  0
  5  6  1  0
  6  7  2  0
  6  8  1  0
  8  9  1  0
  9 10  2  0
 10 11  1  0
 11 12  2  0
 12 13  1  0
 13 14  1  0
 14 15  2  0
 15 16  1  0
 16 17  1  0
  2 18  1  0
 18 19  2  0
 19 20  1  0
 20 21  2  0
 21 22  1  0
 17  9  1  0
 22 18  1  0
 17 13  2  0
M  END
>  <fragmenstein_mode>  (317) 
expansion

>  <name>  (317) 
HMCRTDAZYKANIV-INIZCTEOSA-N

>  <fragmenstein_runtime>  (317) 
8.328884

>  <HIPPO Compound ID>  (317) 
50922

>  <SLURM_JOB_NAME>  (317) 
BulkDock.place:Flavi_NS5_RdRp:RdRp_knitwork_green_site_rna_tunnel_impure_split4000_batch008

>  <ref_mols>  (317) 
z0041a,z0211a

>  <Multi-SuCOS>  (317) 
0.56759

>  <tags>  (317) 
['Fragmenstein placed', 'RdRp_knitwork_green_site_rna_tunnel_impure_fragalysis.sdf Pose OK']

>  <scratch_subdir>  (317) 
/opt/xchem-fragalysis-2/maxwin/BulkDock/SCRATCH/220459/C50922-P102

>  <energy_score>  (317) 
-45.505956

>  <fragmenstein_error>  (317) 
None

>  <csv_name>  (317) 
RdRp_knitwork_green_site_rna_tunnel_impure_split4000_batch008.csv

>  <merge_set>  (317) 
RdRp_knitwork_green_site_rna_tunnel_impure_fragalysis.sdf

>  <original ID>  (317) 
HMCRTDAZYKANIV-INIZCTEOSA-N

>  <HIPPO Pose ID>  (317) 
205244

>  <fragmenstein_outcome>  (317) 
acceptable

>  <exports>  (317) 
['/opt/xchem-fragalysis-2/maxwin/BulkDock/OUTPUTS/RdRp_knitwork_green_site_rna_tunnel_impure_split4000_batch008_220459.sdf', '/opt/xchem-fragalysis-2/maxwin/BulkDock/OUTPUTS/RdRp_knitwork_green_site_rna_tunnel_impure_fragalysis.sdf']

>  <SLURM_JOB_ID>  (317) 
220459

>  <distance_score>  (317) 
0.932507

>  <original SMILES>  (317) 
C[C@](O)(CNC(=O)Nc1cccc2cc[nH]c12)c1ccco1

>  <alias>  (317) 
None

>  <ref_pdb>  (317) 
z0211a

>  <inchikey>  (317) 
HMCRTDAZYKANIV-INIZCTEOSA-N

$$$$
BZIVYXQVDAQHKW-QMTHXVAHSA-N
     RDKit          3D

 20 23  0  0  0  0  0  0  0  0999 V2000
  -29.9704  -30.2301  -17.7349 C   0  0  0  0  0  0  0  0  0  0  0  0
  -29.5268  -29.6829  -16.6036 C   0  0  0  0  0  0  0  0  0  0  0  0
  -28.2273  -28.9486  -16.6027 C   0  0  2  0  0  0  0  0  0  0  0  0
  -27.6865  -28.5173  -17.9676 C   0  0  0  0  0  0  0  0  0  0  0  0
  -27.6445  -29.8585  -18.6664 C   0  0  2  0  0  0  0  0  0  0  0  0
  -26.9776  -29.8400  -19.9766 N   0  0  0  0  0  0  0  0  0  0  0  0
  -26.0801  -30.7437  -20.4458 C   0  0  0  0  0  0  0  0  0  0  0  0
  -25.2952  -31.5370  -19.7567 N   0  0  0  0  0  0  0  0  0  0  0  0
  -24.3711  -32.2094  -20.5357 N   0  0  0  0  0  0  0  0  0  0  0  0
  -24.5106  -31.9447  -21.8183 C   0  0  0  0  0  0  0  0  0  0  0  0
  -23.6698  -32.4666  -22.8974 C   0  0  0  0  0  0  0  0  0  0  0  0
  -22.2856  -32.5484  -22.7693 C   0  0  0  0  0  0  0  0  0  0  0  0
  -21.5468  -33.0391  -23.8427 C   0  0  0  0  0  0  0  0  0  0  0  0
  -22.2097  -33.4596  -24.9897 C   0  0  0  0  0  0  0  0  0  0  0  0
  -23.5907  -33.3625  -25.0236 C   0  0  0  0  0  0  0  0  0  0  0  0
  -24.3327  -32.8760  -24.0108 N   0  0  0  0  0  0  0  0  0  0  0  0
  -25.8227  -30.8758  -22.1523 S   0  0  0  0  0  0  0  0  0  0  0  0
  -29.1362  -30.1670  -18.9648 C   0  0  0  0  0  0  0  0  0  0  0  0
  -27.0155  -30.6223  -17.4571 C   0  0  0  0  0  0  0  0  0  0  0  0
  -27.2134  -29.8647  -16.2274 O   0  0  0  0  0  0  0  0  0  0  0  0
  1  2  2  0
  2  3  1  0
  3  4  1  0
  4  5  1  0
  5  6  1  6
  6  7  1  0
  7  8  2  0
  8  9  1  0
  9 10  2  0
 10 11  1  0
 11 12  2  0
 12 13  1  0
 13 14  2  0
 14 15  1  0
 15 16  2  0
 10 17  1  0
  5 18  1  0
  5 19  1  0
 19 20  1  0
 18  1  1  0
  3 20  1  6
 17  7  1  0
 16 11  1  0
M  END
>  <fragmenstein_mode>  (318) 
expansion

>  <name>  (318) 
BZIVYXQVDAQHKW-QMTHXVAHSA-N

>  <fragmenstein_runtime>  (318) 
7.282907

>  <HIPPO Compound ID>  (318) 
7091

>  <SLURM_JOB_NAME>  (318) 
BulkDock.place:Flavi_NS5_RdRp:RdRp_knitwork_green_site_rna_tunnel_impure_split4000_batch014

>  <ref_mols>  (318) 
z0215a,z1018a

>  <Multi-SuCOS>  (318) 
0.49214

>  <tags>  (318) 
['Fragmenstein placed', 'RdRp_knitwork_green_site_rna_tunnel_impure_fragalysis.sdf Pose OK']

>  <scratch_subdir>  (318) 
/opt/xchem-fragalysis-2/maxwin/BulkDock/SCRATCH/220465/C7091-P104

>  <energy_score>  (318) 
-55.004008

>  <fragmenstein_error>  (318) 
None

>  <csv_name>  (318) 
RdRp_knitwork_green_site_rna_tunnel_impure_split4000_batch014.csv

>  <merge_set>  (318) 
RdRp_knitwork_green_site_rna_tunnel_impure_fragalysis.sdf

>  <original ID>  (318) 
BZIVYXQVDAQHKW-QMTHXVAHSA-N

>  <HIPPO Pose ID>  (318) 
205272

>  <fragmenstein_outcome>  (318) 
acceptable

>  <exports>  (318) 
['/opt/xchem-fragalysis-2/maxwin/BulkDock/OUTPUTS/RdRp_knitwork_green_site_rna_tunnel_impure_split4000_batch014_220465.sdf', '/opt/xchem-fragalysis-2/maxwin/BulkDock/OUTPUTS/RdRp_knitwork_green_site_rna_tunnel_impure_fragalysis.sdf']

>  <SLURM_JOB_ID>  (318) 
220465

>  <distance_score>  (318) 
0.985221

>  <original SMILES>  (318) 
C1=C[C@@H]2C[C@](Nc3nnc(-c4ccccn4)s3)(C1)CO2

>  <alias>  (318) 
None

>  <ref_pdb>  (318) 
z0215a

>  <inchikey>  (318) 
BZIVYXQVDAQHKW-QMTHXVAHSA-N

$$$$
QUKCXMSFARXDEC-GFCCVEGCSA-N
     RDKit          3D

 22 24  0  0  0  0  0  0  0  0999 V2000
  -26.1444  -30.5407  -23.3314 O   0  0  0  0  0  0  0  0  0  0  0  0
  -25.5035  -30.9168  -22.4682 C   0  0  0  0  0  0  0  0  0  0  0  0
  -24.1395  -31.6300  -22.4780 N   0  0  0  0  0  0  0  0  0  0  0  0
  -23.2585  -31.9321  -23.5649 C   0  0  0  0  0  0  0  0  0  0  0  0
  -22.0706  -32.8290  -23.1680 C   0  0  1  0  0  0  0  0  0  0  0  0
  -21.2019  -33.0357  -24.2890 O   0  0  0  0  0  0  0  0  0  0  0  0
  -21.2267  -32.3429  -21.9730 C   0  0  0  0  0  0  0  0  0  0  0  0
  -21.8510  -32.6179  -20.6941 N   0  0  0  0  0  0  0  0  0  0  0  0
  -21.8673  -33.7845  -19.9893 C   0  0  0  0  0  0  0  0  0  0  0  0
  -22.8202  -33.5709  -19.0195 C   0  0  0  0  0  0  0  0  0  0  0  0
  -23.3400  -32.3130  -19.1566 N   0  0  0  0  0  0  0  0  0  0  0  0
  -22.7079  -31.7257  -20.1589 N   0  0  0  0  0  0  0  0  0  0  0  0
  -25.7410  -30.8427  -20.9340 N   0  0  0  0  0  0  0  0  0  0  0  0
  -26.8336  -30.3836  -20.2167 C   0  0  0  0  0  0  0  0  0  0  0  0
  -28.0635  -30.0946  -20.7937 C   0  0  0  0  0  0  0  0  0  0  0  0
  -29.1686  -29.7934  -19.9821 C   0  0  0  0  0  0  0  0  0  0  0  0
  -28.9912  -29.6971  -18.5871 C   0  0  0  0  0  0  0  0  0  0  0  0
  -29.8530  -29.5242  -17.4707 C   0  0  0  0  0  0  0  0  0  0  0  0
  -29.0751  -29.4437  -16.3381 C   0  0  0  0  0  0  0  0  0  0  0  0
  -27.7684  -29.5747  -16.7203 N   0  0  0  0  0  0  0  0  0  0  0  0
  -27.7094  -29.8400  -18.0660 C   0  0  0  0  0  0  0  0  0  0  0  0
  -26.6264  -30.2391  -18.8407 C   0  0  0  0  0  0  0  0  0  0  0  0
  1  2  2  0
  2  3  1  0
  3  4  1  0
  4  5  1  0
  5  6  1  6
  5  7  1  0
  7  8  1  0
  8  9  1  0
  9 10  2  0
 10 11  1  0
 11 12  2  0
  2 13  1  0
 13 14  1  0
 14 15  2  0
 15 16  1  0
 16 17  2  0
 17 18  1  0
 18 19  2  0
 19 20  1  0
 20 21  1  0
 21 22  2  0
 12  8  1  0
 22 14  1  0
 21 17  1  0
M  END
>  <fragmenstein_mode>  (319) 
expansion

>  <name>  (319) 
QUKCXMSFARXDEC-GFCCVEGCSA-N

>  <fragmenstein_runtime>  (319) 
5.900964

>  <HIPPO Compound ID>  (319) 
59513

>  <SLURM_JOB_NAME>  (319) 
BulkDock.place:Flavi_NS5_RdRp:RdRp_knitwork_green_site_rna_tunnel_impure_split4000_batch008

>  <ref_mols>  (319) 
z0041a,z0211a

>  <Multi-SuCOS>  (319) 
0.522737

>  <tags>  (319) 
['Fragmenstein placed', 'RdRp_knitwork_green_site_rna_tunnel_impure_fragalysis.sdf Pose OK']

>  <scratch_subdir>  (319) 
/opt/xchem-fragalysis-2/maxwin/BulkDock/SCRATCH/220459/C59513-P82

>  <energy_score>  (319) 
-10.267281

>  <fragmenstein_error>  (319) 
None

>  <csv_name>  (319) 
RdRp_knitwork_green_site_rna_tunnel_impure_split4000_batch008.csv

>  <merge_set>  (319) 
RdRp_knitwork_green_site_rna_tunnel_impure_fragalysis.sdf

>  <original ID>  (319) 
QUKCXMSFARXDEC-GFCCVEGCSA-N

>  <HIPPO Pose ID>  (319) 
205472

>  <fragmenstein_outcome>  (319) 
acceptable

>  <exports>  (319) 
['/opt/xchem-fragalysis-2/maxwin/BulkDock/OUTPUTS/RdRp_knitwork_green_site_rna_tunnel_impure_split4000_batch008_220459.sdf', '/opt/xchem-fragalysis-2/maxwin/BulkDock/OUTPUTS/RdRp_knitwork_green_site_rna_tunnel_impure_fragalysis.sdf']

>  <SLURM_JOB_ID>  (319) 
220459

>  <distance_score>  (319) 
0.829851

>  <original SMILES>  (319) 
O=C(NC[C@@H](O)Cn1ccnn1)Nc1ccc2cc[nH]c2c1

>  <alias>  (319) 
None

>  <ref_pdb>  (319) 
z0041a

>  <inchikey>  (319) 
QUKCXMSFARXDEC-GFCCVEGCSA-N

$$$$
QUKCXMSFARXDEC-GFCCVEGCSA-N
     RDKit          3D

 22 24  0  0  0  0  0  0  0  0999 V2000
  -26.2020  -30.5347  -23.2589 O   0  0  0  0  0  0  0  0  0  0  0  0
  -25.5402  -30.8915  -22.4042 C   0  0  0  0  0  0  0  0  0  0  0  0
  -24.1678  -31.5844  -22.4312 N   0  0  0  0  0  0  0  0  0  0  0  0
  -23.3028  -31.8861  -23.5300 C   0  0  0  0  0  0  0  0  0  0  0  0
  -22.1088  -32.7690  -23.1067 C   0  0  1  0  0  0  0  0  0  0  0  0
  -21.2202  -32.9122  -24.2293 O   0  0  0  0  0  0  0  0  0  0  0  0
  -21.3191  -32.2382  -21.8870 C   0  0  0  0  0  0  0  0  0  0  0  0
  -21.8797  -32.6670  -20.6186 N   0  0  0  0  0  0  0  0  0  0  0  0
  -21.5253  -33.7257  -19.8404 C   0  0  0  0  0  0  0  0  0  0  0  0
  -22.4874  -33.7417  -18.8554 C   0  0  0  0  0  0  0  0  0  0  0  0
  -23.3726  -32.7193  -19.0580 N   0  0  0  0  0  0  0  0  0  0  0  0
  -22.9763  -32.0587  -20.1302 N   0  0  0  0  0  0  0  0  0  0  0  0
  -25.7554  -30.8144  -20.8694 N   0  0  0  0  0  0  0  0  0  0  0  0
  -26.8437  -30.3768  -20.1395 C   0  0  0  0  0  0  0  0  0  0  0  0
  -28.1006  -30.1749  -20.6945 C   0  0  0  0  0  0  0  0  0  0  0  0
  -29.2026  -29.9322  -19.8621 C   0  0  0  0  0  0  0  0  0  0  0  0
  -29.0073  -29.8548  -18.4674 C   0  0  0  0  0  0  0  0  0  0  0  0
  -29.8613  -29.7520  -17.3361 C   0  0  0  0  0  0  0  0  0  0  0  0
  -29.0782  -29.7537  -16.2048 C   0  0  0  0  0  0  0  0  0  0  0  0
  -27.7734  -29.8242  -16.6017 N   0  0  0  0  0  0  0  0  0  0  0  0
  -27.7127  -29.9464  -17.9663 C   0  0  0  0  0  0  0  0  0  0  0  0
  -26.6144  -30.2191  -18.7715 C   0  0  0  0  0  0  0  0  0  0  0  0
  1  2  2  0
  2  3  1  0
  3  4  1  0
  4  5  1  0
  5  6  1  6
  5  7  1  0
  7  8  1  0
  8  9  1  0
  9 10  2  0
 10 11  1  0
 11 12  2  0
  2 13  1  0
 13 14  1  0
 14 15  2  0
 15 16  1  0
 16 17  2  0
 17 18  1  0
 18 19  2  0
 19 20  1  0
 20 21  1  0
 21 22  2  0
 12  8  1  0
 22 14  1  0
 21 17  1  0
M  END
>  <fragmenstein_mode>  (320) 
expansion

>  <name>  (320) 
QUKCXMSFARXDEC-GFCCVEGCSA-N

>  <fragmenstein_runtime>  (320) 
13.007596

>  <HIPPO Compound ID>  (320) 
59513

>  <SLURM_JOB_NAME>  (320) 
BulkDock.place:Flavi_NS5_RdRp:RdRp_knitwork_green_site_rna_tunnel_impure_split4000_batch008

>  <ref_mols>  (320) 
z0041a,z0211a

>  <Multi-SuCOS>  (320) 
0.528106

>  <tags>  (320) 
['Fragmenstein placed', 'RdRp_knitwork_green_site_rna_tunnel_impure_fragalysis.sdf Pose OK']

>  <scratch_subdir>  (320) 
/opt/xchem-fragalysis-2/maxwin/BulkDock/SCRATCH/220459/C59513-P102

>  <energy_score>  (320) 
-9.337639

>  <fragmenstein_error>  (320) 
None

>  <csv_name>  (320) 
RdRp_knitwork_green_site_rna_tunnel_impure_split4000_batch008.csv

>  <merge_set>  (320) 
RdRp_knitwork_green_site_rna_tunnel_impure_fragalysis.sdf

>  <original ID>  (320) 
QUKCXMSFARXDEC-GFCCVEGCSA-N

>  <HIPPO Pose ID>  (320) 
205486

>  <fragmenstein_outcome>  (320) 
acceptable

>  <exports>  (320) 
['/opt/xchem-fragalysis-2/maxwin/BulkDock/OUTPUTS/RdRp_knitwork_green_site_rna_tunnel_impure_split4000_batch008_220459.sdf', '/opt/xchem-fragalysis-2/maxwin/BulkDock/OUTPUTS/RdRp_knitwork_green_site_rna_tunnel_impure_fragalysis.sdf']

>  <SLURM_JOB_ID>  (320) 
220459

>  <distance_score>  (320) 
0.842703

>  <original SMILES>  (320) 
O=C(NC[C@@H](O)Cn1ccnn1)Nc1ccc2cc[nH]c2c1

>  <alias>  (320) 
None

>  <ref_pdb>  (320) 
z0211a

>  <inchikey>  (320) 
QUKCXMSFARXDEC-GFCCVEGCSA-N

$$$$
YMGWCMYDWZAVQZ-OAHLLOKOSA-N
     RDKit          3D

 21 22  0  0  0  0  0  0  0  0999 V2000
  -24.0722  -33.4278  -24.9032 C   0  0  0  0  0  0  0  0  0  0  0  0
  -22.5961  -33.3585  -25.2998 C   0  0  0  0  0  0  0  0  0  0  0  0
  -22.2751  -34.5846  -26.1659 C   0  0  0  0  0  0  0  0  0  0  0  0
  -21.5962  -33.2379  -24.1224 C   0  0  2  0  0  0  0  0  0  0  0  0
  -21.6896  -34.3868  -23.2826 O   0  0  0  0  0  0  0  0  0  0  0  0
  -21.6324  -31.9301  -23.3003 C   0  0  0  0  0  0  0  0  0  0  0  0
  -22.8776  -31.7118  -22.6218 N   0  0  0  0  0  0  0  0  0  0  0  0
  -23.6728  -32.6313  -21.6766 C   0  0  0  0  0  0  0  0  0  0  0  0
  -23.4843  -33.7062  -21.3719 O   0  0  0  0  0  0  0  0  0  0  0  0
  -24.8510  -31.6972  -21.3482 N   0  0  0  0  0  0  0  0  0  0  0  0
  -26.0582  -31.9542  -20.6583 C   0  0  0  0  0  0  0  0  0  0  0  0
  -26.8941  -30.8324  -20.1255 C   0  0  0  0  0  0  0  0  0  0  0  0
  -28.0601  -30.4933  -20.8215 C   0  0  0  0  0  0  0  0  0  0  0  0
  -29.1262  -29.9094  -20.1537 C   0  0  0  0  0  0  0  0  0  0  0  0
  -29.0159  -29.6539  -18.7905 C   0  0  0  0  0  0  0  0  0  0  0  0
  -27.8140  -29.8527  -18.1089 C   0  0  0  0  0  0  0  0  0  0  0  0
  -26.7099  -30.3666  -18.8104 C   0  0  0  0  0  0  0  0  0  0  0  0
  -25.3931  -30.5820  -18.1020 C   0  0  0  0  0  0  0  0  0  0  0  0
  -25.3153  -29.7686  -16.8217 C   0  0  0  0  0  0  0  0  0  0  0  0
  -26.5847  -29.9963  -16.0270 C   0  0  0  0  0  0  0  0  0  0  0  0
  -27.7372  -29.4813  -16.7562 N   0  0  0  0  0  0  0  0  0  0  0  0
  1  2  1  0
  2  3  1  0
  2  4  1  0
  4  5  1  1
  4  6  1  0
  6  7  1  0
  7  8  1  0
  8  9  2  0
  8 10  1  0
 10 11  1  0
 11 12  1  0
 12 13  2  0
 13 14  1  0
 14 15  2  0
 15 16  1  0
 16 17  2  0
 17 18  1  0
 18 19  1  0
 19 20  1  0
 20 21  1  0
 17 12  1  0
 21 16  1  0
M  END
>  <fragmenstein_mode>  (321) 
expansion

>  <name>  (321) 
YMGWCMYDWZAVQZ-OAHLLOKOSA-N

>  <fragmenstein_runtime>  (321) 
13.328507

>  <HIPPO Compound ID>  (321) 
35156

>  <SLURM_JOB_NAME>  (321) 
BulkDock.place:Flavi_NS5_RdRp:RdRp_knitwork_green_site_rna_tunnel_impure_split4000_batch013

>  <ref_mols>  (321) 
z0904a,z0211a

>  <Multi-SuCOS>  (321) 
0.450199

>  <tags>  (321) 
['Fragmenstein placed', 'RdRp_knitwork_green_site_rna_tunnel_impure_fragalysis.sdf Pose OK']

>  <scratch_subdir>  (321) 
/opt/xchem-fragalysis-2/maxwin/BulkDock/SCRATCH/220464/C35156-P102

>  <energy_score>  (321) 
-2.873062

>  <fragmenstein_error>  (321) 
None

>  <csv_name>  (321) 
RdRp_knitwork_green_site_rna_tunnel_impure_split4000_batch013.csv

>  <merge_set>  (321) 
RdRp_knitwork_green_site_rna_tunnel_impure_fragalysis.sdf

>  <original ID>  (321) 
YMGWCMYDWZAVQZ-OAHLLOKOSA-N

>  <HIPPO Pose ID>  (321) 
205623

>  <fragmenstein_outcome>  (321) 
acceptable

>  <exports>  (321) 
['/opt/xchem-fragalysis-2/maxwin/BulkDock/OUTPUTS/RdRp_knitwork_green_site_rna_tunnel_impure_split4000_batch013_220464.sdf', '/opt/xchem-fragalysis-2/maxwin/BulkDock/OUTPUTS/RdRp_knitwork_green_site_rna_tunnel_impure_fragalysis.sdf']

>  <SLURM_JOB_ID>  (321) 
220464

>  <distance_score>  (321) 
0.998627

>  <original SMILES>  (321) 
CC(C)[C@H](O)CNC(=O)NCc1cccc2c1CCCN2

>  <alias>  (321) 
None

>  <ref_pdb>  (321) 
z0211a

>  <inchikey>  (321) 
YMGWCMYDWZAVQZ-OAHLLOKOSA-N

$$$$
ZXZTVWOWDUDIJE-UHFFFAOYSA-N
     RDKit          3D

 20 22  0  0  0  0  0  0  0  0999 V2000
  -19.3124  -35.6519  -18.1254 C   0  0  0  0  0  0  0  0  0  0  0  0
  -18.7836  -35.4523  -19.4373 O   0  0  0  0  0  0  0  0  0  0  0  0
  -19.4589  -34.4137  -20.0348 C   0  0  0  0  0  0  0  0  0  0  0  0
  -18.8480  -33.1575  -20.0643 C   0  0  0  0  0  0  0  0  0  0  0  0
  -19.4743  -32.0751  -20.6764 C   0  0  0  0  0  0  0  0  0  0  0  0
  -20.7207  -32.2273  -21.2943 C   0  0  0  0  0  0  0  0  0  0  0  0
  -21.3539  -33.4914  -21.2853 C   0  0  0  0  0  0  0  0  0  0  0  0
  -22.5719  -34.0341  -21.8059 C   0  0  0  0  0  0  0  0  0  0  0  0
  -23.6368  -33.3672  -22.5401 C   0  0  0  0  0  0  0  0  0  0  0  0
  -24.1300  -33.8750  -23.4614 O   0  0  0  0  0  0  0  0  0  0  0  0
  -23.8691  -31.9839  -21.9263 N   0  0  0  0  0  0  0  0  0  0  0  0
  -24.6848  -30.8983  -22.3673 C   0  0  0  0  0  0  0  0  0  0  0  0
  -25.4546  -30.3770  -21.2087 C   0  0  0  0  0  0  0  0  0  0  0  0
  -26.1834  -31.0544  -20.2494 C   0  0  0  0  0  0  0  0  0  0  0  0
  -26.7086  -30.0862  -19.4425 N   0  0  0  0  0  0  0  0  0  0  0  0
  -26.2823  -28.8810  -19.9189 C   0  0  0  0  0  0  0  0  0  0  0  0
  -25.5170  -29.0233  -20.9755 N   0  0  0  0  0  0  0  0  0  0  0  0
  -22.5368  -35.3835  -21.5182 C   0  0  0  0  0  0  0  0  0  0  0  0
  -21.4190  -35.6982  -20.8140 O   0  0  0  0  0  0  0  0  0  0  0  0
  -20.6952  -34.5534  -20.6727 C   0  0  0  0  0  0  0  0  0  0  0  0
  1  2  1  0
  2  3  1  0
  3  4  2  0
  4  5  1  0
  5  6  2  0
  6  7  1  0
  7  8  1  0
  8  9  1  0
  9 10  2  0
  9 11  1  0
 11 12  1  0
 12 13  1  0
 13 14  2  0
 14 15  1  0
 15 16  1  0
 16 17  2  0
  8 18  2  0
 18 19  1  0
 19 20  1  0
 20  3  1  0
 20  7  2  0
 17 13  1  0
M  END
>  <fragmenstein_mode>  (322) 
expansion

>  <name>  (322) 
ZXZTVWOWDUDIJE-UHFFFAOYSA-N

>  <fragmenstein_runtime>  (322) 
3.193619

>  <HIPPO Compound ID>  (322) 
43168

>  <SLURM_JOB_NAME>  (322) 
BulkDock.place:Flavi_NS5_RdRp:RdRp_knitwork_green_site_rna_tunnel_impure_split4000_batch012

>  <ref_mols>  (322) 
d0378a,3vws-b

>  <Multi-SuCOS>  (322) 
0.651328

>  <tags>  (322) 
['Fragmenstein placed', 'RdRp_knitwork_green_site_rna_tunnel_impure_fragalysis.sdf Pose OK']

>  <scratch_subdir>  (322) 
/opt/xchem-fragalysis-2/maxwin/BulkDock/SCRATCH/220463/C43168-P217

>  <energy_score>  (322) 
-75.30728

>  <fragmenstein_error>  (322) 
None

>  <csv_name>  (322) 
RdRp_knitwork_green_site_rna_tunnel_impure_split4000_batch012.csv

>  <merge_set>  (322) 
RdRp_knitwork_green_site_rna_tunnel_impure_fragalysis.sdf

>  <original ID>  (322) 
ZXZTVWOWDUDIJE-UHFFFAOYSA-N

>  <HIPPO Pose ID>  (322) 
205678

>  <fragmenstein_outcome>  (322) 
acceptable

>  <exports>  (322) 
['/opt/xchem-fragalysis-2/maxwin/BulkDock/OUTPUTS/RdRp_knitwork_green_site_rna_tunnel_impure_split4000_batch012_220463.sdf', '/opt/xchem-fragalysis-2/maxwin/BulkDock/OUTPUTS/RdRp_knitwork_green_site_rna_tunnel_impure_fragalysis.sdf']

>  <SLURM_JOB_ID>  (322) 
220463

>  <distance_score>  (322) 
0.813466

>  <original SMILES>  (322) 
COc1cccc2c(C(=O)NCc3c[nH]cn3)coc12

>  <alias>  (322) 
None

>  <ref_pdb>  (322) 
3vws-b

>  <inchikey>  (322) 
ZXZTVWOWDUDIJE-UHFFFAOYSA-N

$$$$
BIIXORRFSNAMKU-KBPBESRZSA-N
     RDKit          3D

 26 29  0  0  0  0  0  0  0  0999 V2000
  -25.4532  -36.3319  -23.5738 C   0  0  0  0  0  0  0  0  0  0  0  0
  -24.7177  -36.8475  -22.4424 N   0  0  0  0  0  0  0  0  0  0  0  0
  -25.4185  -37.1943  -21.2136 C   0  0  0  0  0  0  0  0  0  0  0  0
  -24.7933  -36.6472  -19.9087 C   0  0  0  0  0  0  0  0  0  0  0  0
  -24.7018  -35.2200  -19.9125 N   0  0  0  0  0  0  0  0  0  0  0  0
  -25.6653  -34.1731  -20.4300 C   0  0  0  0  0  0  0  0  0  0  0  0
  -26.7302  -34.2847  -20.8719 O   0  0  0  0  0  0  0  0  0  0  0  0
  -25.0466  -32.8156  -20.3805 C   0  0  1  0  0  0  0  0  0  0  0  0
  -24.8582  -32.0561  -21.6786 C   0  0  0  0  0  0  0  0  0  0  0  0
  -25.9663  -31.6964  -20.7444 C   0  0  2  0  0  0  0  0  0  0  0  0
  -25.9816  -30.3455  -20.0867 C   0  0  0  0  0  0  0  0  0  0  0  0
  -26.5268  -30.1456  -18.8495 C   0  0  0  0  0  0  0  0  0  0  0  0
  -26.5713  -28.7927  -18.7245 N   0  0  0  0  0  0  0  0  0  0  0  0
  -26.0960  -28.2615  -19.8869 C   0  0  0  0  0  0  0  0  0  0  0  0
  -25.6966  -29.1827  -20.7284 N   0  0  0  0  0  0  0  0  0  0  0  0
  -23.3498  -37.0182  -22.5086 C   0  0  0  0  0  0  0  0  0  0  0  0
  -22.8833  -38.0849  -22.8979 O   0  0  0  0  0  0  0  0  0  0  0  0
  -22.5726  -35.8794  -22.0660 C   0  0  0  0  0  0  0  0  0  0  0  0
  -22.6551  -34.5244  -22.3398 C   0  0  0  0  0  0  0  0  0  0  0  0
  -21.6384  -33.8820  -21.5832 C   0  0  0  0  0  0  0  0  0  0  0  0
  -21.1734  -32.5640  -21.4228 C   0  0  0  0  0  0  0  0  0  0  0  0
  -20.0687  -32.3348  -20.5893 C   0  0  0  0  0  0  0  0  0  0  0  0
  -19.4453  -33.3888  -19.9153 C   0  0  0  0  0  0  0  0  0  0  0  0
  -19.9028  -34.7039  -20.0480 C   0  0  0  0  0  0  0  0  0  0  0  0
  -20.9905  -34.8988  -20.8940 C   0  0  0  0  0  0  0  0  0  0  0  0
  -21.5545  -36.0999  -21.1800 O   0  0  0  0  0  0  0  0  0  0  0  0
  1  2  1  0
  2  3  1  0
  3  4  1  0
  4  5  1  0
  5  6  1  0
  6  7  2  0
  8  6  1  6
  8  9  1  0
  9 10  1  0
 10 11  1  1
 11 12  2  0
 12 13  1  0
 13 14  1  0
 14 15  2  0
  2 16  1  0
 16 17  2  0
 16 18  1  0
 18 19  2  0
 19 20  1  0
 20 21  2  0
 21 22  1  0
 22 23  2  0
 23 24  1  0
 24 25  2  0
 25 26  1  0
 10  8  1  0
 15 11  1  0
 26 18  1  0
 25 20  1  0
M  END
>  <fragmenstein_mode>  (323) 
expansion

>  <name>  (323) 
BIIXORRFSNAMKU-KBPBESRZSA-N

>  <fragmenstein_runtime>  (323) 
4.37639

>  <HIPPO Compound ID>  (323) 
43727

>  <SLURM_JOB_NAME>  (323) 
BulkDock.place:Flavi_NS5_RdRp:RdRp_knitwork_green_site_rna_tunnel_impure_split4000_batch012

>  <ref_mols>  (323) 
d0378a,3vws-b

>  <Multi-SuCOS>  (323) 
0.439536

>  <tags>  (323) 
['Fragmenstein placed', 'RdRp_knitwork_green_site_rna_tunnel_impure_fragalysis.sdf Pose OK']

>  <scratch_subdir>  (323) 
/opt/xchem-fragalysis-2/maxwin/BulkDock/SCRATCH/220463/C43727-P217

>  <energy_score>  (323) 
-34.513444

>  <fragmenstein_error>  (323) 
None

>  <csv_name>  (323) 
RdRp_knitwork_green_site_rna_tunnel_impure_split4000_batch012.csv

>  <merge_set>  (323) 
RdRp_knitwork_green_site_rna_tunnel_impure_fragalysis.sdf

>  <original ID>  (323) 
BIIXORRFSNAMKU-KBPBESRZSA-N

>  <HIPPO Pose ID>  (323) 
205785

>  <fragmenstein_outcome>  (323) 
acceptable

>  <exports>  (323) 
['/opt/xchem-fragalysis-2/maxwin/BulkDock/OUTPUTS/RdRp_knitwork_green_site_rna_tunnel_impure_split4000_batch012_220463.sdf', '/opt/xchem-fragalysis-2/maxwin/BulkDock/OUTPUTS/RdRp_knitwork_green_site_rna_tunnel_impure_fragalysis.sdf']

>  <SLURM_JOB_ID>  (323) 
220463

>  <distance_score>  (323) 
0.985751

>  <original SMILES>  (323) 
CN(CCNC(=O)[C@H]1C[C@@H]1c1c[nH]cn1)C(=O)c1cc2ccccc2o1

>  <alias>  (323) 
None

>  <ref_pdb>  (323) 
3vws-b

>  <inchikey>  (323) 
BIIXORRFSNAMKU-KBPBESRZSA-N

$$$$
JMGXJYUBMVZLLJ-UHFFFAOYSA-N
     RDKit          3D

 20 22  0  0  0  0  0  0  0  0999 V2000
  -27.1397  -33.6274  -19.1477 O   0  0  0  0  0  0  0  0  0  0  0  0
  -25.8443  -33.2621  -19.6865 S   0  0  0  0  0  0  0  0  0  0  0  0
  -24.6383  -33.3520  -18.8989 O   0  0  0  0  0  0  0  0  0  0  0  0
  -25.6540  -34.1361  -21.1125 N   0  0  0  0  0  0  0  0  0  0  0  0
  -25.2578  -35.5588  -20.9822 C   0  0  0  0  0  0  0  0  0  0  0  0
  -24.1670  -35.9139  -22.0033 C   0  0  0  0  0  0  0  0  0  0  0  0
  -22.9689  -35.0656  -21.7852 C   0  0  0  0  0  0  0  0  0  0  0  0
  -22.6985  -33.7462  -22.0847 C   0  0  0  0  0  0  0  0  0  0  0  0
  -21.4778  -33.4321  -21.4429 C   0  0  0  0  0  0  0  0  0  0  0  0
  -20.6968  -32.2741  -21.2900 C   0  0  0  0  0  0  0  0  0  0  0  0
  -19.5053  -32.3632  -20.5579 C   0  0  0  0  0  0  0  0  0  0  0  0
  -19.0990  -33.5737  -19.9867 C   0  0  0  0  0  0  0  0  0  0  0  0
  -19.8707  -34.7344  -20.1167 C   0  0  0  0  0  0  0  0  0  0  0  0
  -21.0493  -34.6135  -20.8472 C   0  0  0  0  0  0  0  0  0  0  0  0
  -21.9469  -35.6126  -21.0727 O   0  0  0  0  0  0  0  0  0  0  0  0
  -25.9946  -31.5604  -20.0634 C   0  0  0  0  0  0  0  0  0  0  0  0
  -26.7461  -30.6534  -19.3441 C   0  0  0  0  0  0  0  0  0  0  0  0
  -26.5094  -29.4433  -19.9288 N   0  0  0  0  0  0  0  0  0  0  0  0
  -25.6595  -29.6512  -20.9789 C   0  0  0  0  0  0  0  0  0  0  0  0
  -25.3507  -30.9216  -21.1138 N   0  0  0  0  0  0  0  0  0  0  0  0
  1  2  2  0
  2  3  2  0
  2  4  1  0
  4  5  1  0
  5  6  1  0
  6  7  1  0
  7  8  2  0
  8  9  1  0
  9 10  2  0
 10 11  1  0
 11 12  2  0
 12 13  1  0
 13 14  2  0
 14 15  1  0
  2 16  1  0
 16 17  2  0
 17 18  1  0
 18 19  1  0
 19 20  2  0
 15  7  1  0
 20 16  1  0
 14  9  1  0
M  END
>  <fragmenstein_mode>  (324) 
expansion

>  <name>  (324) 
JMGXJYUBMVZLLJ-UHFFFAOYSA-N

>  <fragmenstein_runtime>  (324) 
2.338006

>  <HIPPO Compound ID>  (324) 
43829

>  <SLURM_JOB_NAME>  (324) 
BulkDock.place:Flavi_NS5_RdRp:RdRp_knitwork_green_site_rna_tunnel_impure_split4000_batch012

>  <ref_mols>  (324) 
d0378a,3vws-b

>  <Multi-SuCOS>  (324) 
0.55358

>  <tags>  (324) 
['Fragmenstein placed', 'RdRp_knitwork_green_site_rna_tunnel_impure_fragalysis.sdf Pose OK']

>  <scratch_subdir>  (324) 
/opt/xchem-fragalysis-2/maxwin/BulkDock/SCRATCH/220463/C43829-P217

>  <energy_score>  (324) 
-71.4888

>  <fragmenstein_error>  (324) 
None

>  <csv_name>  (324) 
RdRp_knitwork_green_site_rna_tunnel_impure_split4000_batch012.csv

>  <merge_set>  (324) 
RdRp_knitwork_green_site_rna_tunnel_impure_fragalysis.sdf

>  <original ID>  (324) 
JMGXJYUBMVZLLJ-UHFFFAOYSA-N

>  <HIPPO Pose ID>  (324) 
205972

>  <fragmenstein_outcome>  (324) 
acceptable

>  <exports>  (324) 
['/opt/xchem-fragalysis-2/maxwin/BulkDock/OUTPUTS/RdRp_knitwork_green_site_rna_tunnel_impure_split4000_batch012_220463.sdf', '/opt/xchem-fragalysis-2/maxwin/BulkDock/OUTPUTS/RdRp_knitwork_green_site_rna_tunnel_impure_fragalysis.sdf']

>  <SLURM_JOB_ID>  (324) 
220463

>  <distance_score>  (324) 
0.918735

>  <original SMILES>  (324) 
O=S(=O)(NCCc1cc2ccccc2o1)c1c[nH]cn1

>  <alias>  (324) 
None

>  <ref_pdb>  (324) 
3vws-b

>  <inchikey>  (324) 
JMGXJYUBMVZLLJ-UHFFFAOYSA-N

$$$$
FFCLYWHIOYKQHB-QMMMGPOBSA-N
     RDKit          3D

 20 22  0  0  0  0  0  0  0  0999 V2000
  -25.2059  -35.2523  -23.0279 C   0  0  0  0  0  0  0  0  0  0  0  0
  -24.6236  -34.9219  -21.6638 C   0  0  2  0  0  0  0  0  0  0  0  0
  -25.1896  -33.7002  -21.1011 N   0  0  0  0  0  0  0  0  0  0  0  0
  -25.2241  -32.2647  -21.6580 C   0  0  0  0  0  0  0  0  0  0  0  0
  -24.8745  -31.8452  -22.6881 O   0  0  0  0  0  0  0  0  0  0  0  0
  -25.7080  -31.3093  -20.6785 C   0  0  0  0  0  0  0  0  0  0  0  0
  -26.2836  -31.3896  -19.4282 C   0  0  0  0  0  0  0  0  0  0  0  0
  -26.5583  -30.1410  -18.9235 N   0  0  0  0  0  0  0  0  0  0  0  0
  -26.1726  -29.2956  -19.8494 C   0  0  0  0  0  0  0  0  0  0  0  0
  -25.6555  -29.9492  -20.9236 N   0  0  0  0  0  0  0  0  0  0  0  0
  -23.1570  -34.6548  -21.7059 C   0  0  0  0  0  0  0  0  0  0  0  0
  -22.4475  -33.6604  -22.3491 C   0  0  0  0  0  0  0  0  0  0  0  0
  -21.3379  -33.4028  -21.5189 C   0  0  0  0  0  0  0  0  0  0  0  0
  -20.4253  -32.3465  -21.3918 C   0  0  0  0  0  0  0  0  0  0  0  0
  -19.4582  -32.4386  -20.3906 C   0  0  0  0  0  0  0  0  0  0  0  0
  -18.4526  -31.0749  -20.0958 Cl  0  0  0  0  0  0  0  0  0  0  0  0
  -19.3356  -33.5816  -19.5948 C   0  0  0  0  0  0  0  0  0  0  0  0
  -20.2407  -34.6463  -19.7121 C   0  0  0  0  0  0  0  0  0  0  0  0
  -21.2602  -34.4789  -20.6436 C   0  0  0  0  0  0  0  0  0  0  0  0
  -22.3676  -35.2656  -20.7737 O   0  0  0  0  0  0  0  0  0  0  0  0
  2  1  1  6
  2  3  1  0
  3  4  1  0
  4  5  2  0
  4  6  1  0
  6  7  2  0
  7  8  1  0
  8  9  2  0
  9 10  1  0
  2 11  1  0
 11 12  2  0
 12 13  1  0
 13 14  2  0
 14 15  1  0
 15 16  1  0
 15 17  2  0
 17 18  1  0
 18 19  2  0
 19 20  1  0
 10  6  1  0
 20 11  1  0
 19 13  1  0
M  END
>  <fragmenstein_mode>  (325) 
expansion

>  <name>  (325) 
FFCLYWHIOYKQHB-QMMMGPOBSA-N

>  <fragmenstein_runtime>  (325) 
3.229642

>  <HIPPO Compound ID>  (325) 
44068

>  <SLURM_JOB_NAME>  (325) 
BulkDock.place:Flavi_NS5_RdRp:RdRp_knitwork_green_site_rna_tunnel_impure_split4000_batch012

>  <ref_mols>  (325) 
d0378a,3vws-b

>  <Multi-SuCOS>  (325) 
0.557976

>  <tags>  (325) 
['Fragmenstein placed', 'RdRp_knitwork_green_site_rna_tunnel_impure_fragalysis.sdf Pose OK']

>  <scratch_subdir>  (325) 
/opt/xchem-fragalysis-2/maxwin/BulkDock/SCRATCH/220463/C44068-P217

>  <energy_score>  (325) 
-1.563131

>  <fragmenstein_error>  (325) 
None

>  <csv_name>  (325) 
RdRp_knitwork_green_site_rna_tunnel_impure_split4000_batch012.csv

>  <merge_set>  (325) 
RdRp_knitwork_green_site_rna_tunnel_impure_fragalysis.sdf

>  <original ID>  (325) 
FFCLYWHIOYKQHB-QMMMGPOBSA-N

>  <HIPPO Pose ID>  (325) 
206036

>  <fragmenstein_outcome>  (325) 
acceptable

>  <exports>  (325) 
['/opt/xchem-fragalysis-2/maxwin/BulkDock/OUTPUTS/RdRp_knitwork_green_site_rna_tunnel_impure_split4000_batch012_220463.sdf', '/opt/xchem-fragalysis-2/maxwin/BulkDock/OUTPUTS/RdRp_knitwork_green_site_rna_tunnel_impure_fragalysis.sdf']

>  <SLURM_JOB_ID>  (325) 
220463

>  <distance_score>  (325) 
0.945453

>  <original SMILES>  (325) 
C[C@H](NC(=O)c1cnc[nH]1)c1cc2cc(Cl)ccc2o1

>  <alias>  (325) 
None

>  <ref_pdb>  (325) 
3vws-b

>  <inchikey>  (325) 
FFCLYWHIOYKQHB-QMMMGPOBSA-N

$$$$
YPRPOBFDCWFGFD-UHFFFAOYSA-N
     RDKit          3D

 15 17  0  0  0  0  0  0  0  0999 V2000
  -29.4988  -29.8531  -17.7215 C   0  0  0  0  0  0  0  0  0  0  0  0
  -28.3588  -30.0048  -16.9281 C   0  0  0  0  0  0  0  0  0  0  0  0
  -27.1080  -30.3308  -17.4914 C   0  0  0  0  0  0  0  0  0  0  0  0
  -25.9031  -30.5074  -16.6799 C   0  0  0  0  0  0  0  0  0  0  0  0
  -25.4031  -29.4617  -15.9045 C   0  0  0  0  0  0  0  0  0  0  0  0
  -24.2684  -29.6650  -15.1362 C   0  0  0  0  0  0  0  0  0  0  0  0
  -23.5972  -30.8342  -15.0866 N   0  0  0  0  0  0  0  0  0  0  0  0
  -24.0853  -31.8364  -15.8476 C   0  0  0  0  0  0  0  0  0  0  0  0
  -25.2099  -31.7198  -16.6514 C   0  0  0  0  0  0  0  0  0  0  0  0
  -27.0392  -30.4782  -18.8941 C   0  0  0  0  0  0  0  0  0  0  0  0
  -26.0204  -30.7873  -19.8358 C   0  0  0  0  0  0  0  0  0  0  0  0
  -26.6108  -30.7524  -21.0756 C   0  0  0  0  0  0  0  0  0  0  0  0
  -27.9281  -30.4542  -20.9707 O   0  0  0  0  0  0  0  0  0  0  0  0
  -28.1942  -30.2955  -19.6464 C   0  0  0  0  0  0  0  0  0  0  0  0
  -29.4404  -29.9956  -19.1100 C   0  0  0  0  0  0  0  0  0  0  0  0
  1  2  2  0
  2  3  1  0
  3  4  1  0
  4  5  2  0
  5  6  1  0
  6  7  2  0
  7  8  1  0
  8  9  2  0
  3 10  2  0
 10 11  1  0
 11 12  2  0
 12 13  1  0
 13 14  1  0
 14 15  2  0
 15  1  1  0
  9  4  1  0
 14 10  1  0
M  END
>  <fragmenstein_mode>  (326) 
expansion

>  <name>  (326) 
YPRPOBFDCWFGFD-UHFFFAOYSA-N

>  <fragmenstein_runtime>  (326) 
1.963662

>  <HIPPO Compound ID>  (326) 
28314

>  <SLURM_JOB_NAME>  (326) 
BulkDock.place:Flavi_NS5_RdRp:RdRp_knitwork_green_site_rna_tunnel_impure_split4000_batch009

>  <ref_mols>  (326) 
z0041a,z0221a

>  <Multi-SuCOS>  (326) 
0.568088

>  <tags>  (326) 
['Fragmenstein placed', 'RdRp_knitwork_green_site_rna_tunnel_impure_fragalysis.sdf Pose OK']

>  <scratch_subdir>  (326) 
/opt/xchem-fragalysis-2/maxwin/BulkDock/SCRATCH/220460/C28314-P105

>  <energy_score>  (326) 
-22.627639

>  <fragmenstein_error>  (326) 
None

>  <csv_name>  (326) 
RdRp_knitwork_green_site_rna_tunnel_impure_split4000_batch009.csv

>  <merge_set>  (326) 
RdRp_knitwork_green_site_rna_tunnel_impure_fragalysis.sdf

>  <original ID>  (326) 
YPRPOBFDCWFGFD-UHFFFAOYSA-N

>  <HIPPO Pose ID>  (326) 
206078

>  <fragmenstein_outcome>  (326) 
acceptable

>  <exports>  (326) 
['/opt/xchem-fragalysis-2/maxwin/BulkDock/OUTPUTS/RdRp_knitwork_green_site_rna_tunnel_impure_split4000_batch009_220460.sdf', '/opt/xchem-fragalysis-2/maxwin/BulkDock/OUTPUTS/RdRp_knitwork_green_site_rna_tunnel_impure_fragalysis.sdf']

>  <SLURM_JOB_ID>  (326) 
220460

>  <distance_score>  (326) 
0.91714

>  <original SMILES>  (326) 
c1cc(-c2ccncc2)c2ccoc2c1

>  <alias>  (326) 
None

>  <ref_pdb>  (326) 
z0221a

>  <inchikey>  (326) 
YPRPOBFDCWFGFD-UHFFFAOYSA-N

$$$$
YKHAJUDWJLUXGH-FZMZJTMJSA-N
     RDKit          3D

 23 25  0  0  0  0  0  0  0  0999 V2000
  -23.1743  -33.4096  -23.0338 C   0  0  0  0  0  0  0  0  0  0  0  0
  -22.3068  -34.1399  -22.0742 C   0  0  0  0  0  0  0  0  0  0  0  0
  -22.4475  -35.4358  -21.5773 C   0  0  0  0  0  0  0  0  0  0  0  0
  -23.5697  -36.4257  -21.6098 C   0  0  2  0  0  0  0  0  0  0  0  0
  -23.5772  -37.2848  -22.8586 C   0  0  0  0  0  0  0  0  0  0  0  0
  -24.7103  -35.5576  -21.5449 N   0  0  0  0  0  0  0  0  0  0  0  0
  -25.3160  -34.7764  -20.3459 C   0  0  0  0  0  0  0  0  0  0  0  0
  -25.0256  -34.7822  -19.2165 O   0  0  0  0  0  0  0  0  0  0  0  0
  -26.3679  -33.8638  -20.9902 C   0  0  1  0  0  0  0  0  0  0  0  0
  -27.3320  -34.6819  -21.6792 O   0  0  0  0  0  0  0  0  0  0  0  0
  -27.0263  -32.9343  -19.9612 C   0  0  0  0  0  0  0  0  0  0  0  0
  -26.6187  -31.4925  -20.0642 C   0  0  0  0  0  0  0  0  0  0  0  0
  -27.2697  -30.4123  -19.5071 C   0  0  0  0  0  0  0  0  0  0  0  0
  -26.5229  -29.3196  -19.8388 N   0  0  0  0  0  0  0  0  0  0  0  0
  -25.4714  -29.7564  -20.5890 C   0  0  0  0  0  0  0  0  0  0  0  0
  -25.5068  -31.0587  -20.7555 N   0  0  0  0  0  0  0  0  0  0  0  0
  -21.3997  -35.7541  -20.7729 O   0  0  0  0  0  0  0  0  0  0  0  0
  -20.6487  -34.6338  -20.6399 C   0  0  0  0  0  0  0  0  0  0  0  0
  -19.5037  -34.5249  -19.8589 C   0  0  0  0  0  0  0  0  0  0  0  0
  -18.8908  -33.2681  -19.8269 C   0  0  0  0  0  0  0  0  0  0  0  0
  -19.4168  -32.1860  -20.5383 C   0  0  0  0  0  0  0  0  0  0  0  0
  -20.5670  -32.3311  -21.3239 C   0  0  0  0  0  0  0  0  0  0  0  0
  -21.1874  -33.5928  -21.3839 C   0  0  0  0  0  0  0  0  0  0  0  0
  1  2  1  0
  2  3  2  0
  3  4  1  0
  4  5  1  6
  4  6  1  0
  6  7  1  0
  7  8  2  0
  7  9  1  0
  9 10  1  1
  9 11  1  0
 11 12  1  0
 12 13  2  0
 13 14  1  0
 14 15  1  0
 15 16  2  0
  3 17  1  0
 17 18  1  0
 18 19  2  0
 19 20  1  0
 20 21  2  0
 21 22  1  0
 22 23  2  0
 23  2  1  0
 16 12  1  0
 23 18  1  0
M  END
>  <fragmenstein_mode>  (327) 
expansion

>  <name>  (327) 
YKHAJUDWJLUXGH-FZMZJTMJSA-N

>  <fragmenstein_runtime>  (327) 
4.204327

>  <HIPPO Compound ID>  (327) 
44488

>  <SLURM_JOB_NAME>  (327) 
BulkDock.place:Flavi_NS5_RdRp:RdRp_knitwork_green_site_rna_tunnel_impure_split4000_batch012

>  <ref_mols>  (327) 
d0378a,3vws-b

>  <Multi-SuCOS>  (327) 
0.504717

>  <tags>  (327) 
['Fragmenstein placed', 'RdRp_knitwork_green_site_rna_tunnel_impure_fragalysis.sdf Pose OK']

>  <scratch_subdir>  (327) 
/opt/xchem-fragalysis-2/maxwin/BulkDock/SCRATCH/220463/C44488-P217

>  <energy_score>  (327) 
-271.555848

>  <fragmenstein_error>  (327) 
None

>  <csv_name>  (327) 
RdRp_knitwork_green_site_rna_tunnel_impure_split4000_batch012.csv

>  <merge_set>  (327) 
RdRp_knitwork_green_site_rna_tunnel_impure_fragalysis.sdf

>  <original ID>  (327) 
YKHAJUDWJLUXGH-FZMZJTMJSA-N

>  <HIPPO Pose ID>  (327) 
206173

>  <fragmenstein_outcome>  (327) 
acceptable

>  <exports>  (327) 
['/opt/xchem-fragalysis-2/maxwin/BulkDock/OUTPUTS/RdRp_knitwork_green_site_rna_tunnel_impure_split4000_batch012_220463.sdf', '/opt/xchem-fragalysis-2/maxwin/BulkDock/OUTPUTS/RdRp_knitwork_green_site_rna_tunnel_impure_fragalysis.sdf']

>  <SLURM_JOB_ID>  (327) 
220463

>  <distance_score>  (327) 
0.982963

>  <original SMILES>  (327) 
Cc1c([C@H](C)NC(=O)[C@@H](O)Cc2c[nH]cn2)oc2ccccc12

>  <alias>  (327) 
None

>  <ref_pdb>  (327) 
3vws-b

>  <inchikey>  (327) 
YKHAJUDWJLUXGH-FZMZJTMJSA-N

$$$$
KORUOMJYVCITSA-NSHDSACASA-N
     RDKit          3D

 22 24  0  0  0  0  0  0  0  0999 V2000
  -23.8390  -33.4074  -22.8943 C   0  0  0  0  0  0  0  0  0  0  0  0
  -22.8537  -34.0430  -21.9874 C   0  0  0  0  0  0  0  0  0  0  0  0
  -23.0220  -35.2205  -21.2724 C   0  0  0  0  0  0  0  0  0  0  0  0
  -24.2083  -36.0263  -20.9091 C   0  0  0  0  0  0  0  0  0  0  0  0
  -25.0455  -35.2410  -20.0126 N   0  0  0  0  0  0  0  0  0  0  0  0
  -24.6803  -34.0565  -19.0635 C   0  0  0  0  0  0  0  0  0  0  0  0
  -23.6413  -33.5869  -18.8035 O   0  0  0  0  0  0  0  0  0  0  0  0
  -25.9825  -33.5294  -18.4461 C   0  0  1  0  0  0  0  0  0  0  0  0
  -25.6782  -32.7067  -17.1951 C   0  0  0  0  0  0  0  0  0  0  0  0
  -26.8557  -32.7590  -19.4499 C   0  0  0  0  0  0  0  0  0  0  0  0
  -26.3674  -31.4082  -19.8636 C   0  0  0  0  0  0  0  0  0  0  0  0
  -25.2473  -30.9916  -20.5517 C   0  0  0  0  0  0  0  0  0  0  0  0
  -25.2843  -29.6430  -20.8003 N   0  0  0  0  0  0  0  0  0  0  0  0
  -26.3731  -29.2184  -20.2058 C   0  0  0  0  0  0  0  0  0  0  0  0
  -27.0569  -30.2449  -19.6182 N   0  0  0  0  0  0  0  0  0  0  0  0
  -21.8659  -35.5730  -20.6476 O   0  0  0  0  0  0  0  0  0  0  0  0
  -21.0287  -34.5125  -20.7482 C   0  0  0  0  0  0  0  0  0  0  0  0
  -19.7895  -34.4121  -20.1210 C   0  0  0  0  0  0  0  0  0  0  0  0
  -19.1275  -33.1875  -20.2464 C   0  0  0  0  0  0  0  0  0  0  0  0
  -19.6931  -32.1352  -20.9714 C   0  0  0  0  0  0  0  0  0  0  0  0
  -20.9262  -32.2860  -21.6244 C   0  0  0  0  0  0  0  0  0  0  0  0
  -21.6085  -33.5130  -21.5205 C   0  0  0  0  0  0  0  0  0  0  0  0
  1  2  1  0
  2  3  2  0
  3  4  1  0
  4  5  1  0
  5  6  1  0
  6  7  2  0
  6  8  1  0
  8  9  1  1
  8 10  1  0
 10 11  1  0
 11 12  2  0
 12 13  1  0
 13 14  2  0
 14 15  1  0
  3 16  1  0
 16 17  1  0
 17 18  2  0
 18 19  1  0
 19 20  2  0
 20 21  1  0
 21 22  2  0
 22  2  1  0
 15 11  1  0
 22 17  1  0
M  END
>  <fragmenstein_mode>  (328) 
expansion

>  <name>  (328) 
KORUOMJYVCITSA-NSHDSACASA-N

>  <fragmenstein_runtime>  (328) 
3.595356

>  <HIPPO Compound ID>  (328) 
44509

>  <SLURM_JOB_NAME>  (328) 
BulkDock.place:Flavi_NS5_RdRp:RdRp_knitwork_green_site_rna_tunnel_impure_split4000_batch012

>  <ref_mols>  (328) 
d0378a,3vws-b

>  <Multi-SuCOS>  (328) 
0.567904

>  <tags>  (328) 
['Fragmenstein placed', 'RdRp_knitwork_green_site_rna_tunnel_impure_fragalysis.sdf Pose OK']

>  <scratch_subdir>  (328) 
/opt/xchem-fragalysis-2/maxwin/BulkDock/SCRATCH/220463/C44509-P217

>  <energy_score>  (328) 
-12.262283

>  <fragmenstein_error>  (328) 
None

>  <csv_name>  (328) 
RdRp_knitwork_green_site_rna_tunnel_impure_split4000_batch012.csv

>  <merge_set>  (328) 
RdRp_knitwork_green_site_rna_tunnel_impure_fragalysis.sdf

>  <original ID>  (328) 
KORUOMJYVCITSA-NSHDSACASA-N

>  <HIPPO Pose ID>  (328) 
206208

>  <fragmenstein_outcome>  (328) 
acceptable

>  <exports>  (328) 
['/opt/xchem-fragalysis-2/maxwin/BulkDock/OUTPUTS/RdRp_knitwork_green_site_rna_tunnel_impure_split4000_batch012_220463.sdf', '/opt/xchem-fragalysis-2/maxwin/BulkDock/OUTPUTS/RdRp_knitwork_green_site_rna_tunnel_impure_fragalysis.sdf']

>  <SLURM_JOB_ID>  (328) 
220463

>  <distance_score>  (328) 
0.847572

>  <original SMILES>  (328) 
Cc1c(CNC(=O)[C@@H](C)Cc2cnc[nH]2)oc2ccccc12

>  <alias>  (328) 
None

>  <ref_pdb>  (328) 
3vws-b

>  <inchikey>  (328) 
KORUOMJYVCITSA-NSHDSACASA-N

$$$$
HBEGQIFZRBVNKL-SECBINFHSA-N
     RDKit          3D

 19 21  0  0  0  0  0  0  0  0999 V2000
  -24.7507  -34.4463  -23.6248 C   0  0  0  0  0  0  0  0  0  0  0  0
  -23.6999  -33.6061  -22.9207 C   0  0  1  0  0  0  0  0  0  0  0  0
  -24.3298  -32.6228  -22.0852 N   0  0  0  0  0  0  0  0  0  0  0  0
  -24.3818  -31.1010  -22.2086 C   0  0  0  0  0  0  0  0  0  0  0  0
  -23.8592  -30.3872  -22.9642 O   0  0  0  0  0  0  0  0  0  0  0  0
  -25.2025  -30.5339  -21.1530 C   0  0  0  0  0  0  0  0  0  0  0  0
  -25.8317  -31.0331  -20.0265 C   0  0  0  0  0  0  0  0  0  0  0  0
  -26.4965  -30.0456  -19.3428 N   0  0  0  0  0  0  0  0  0  0  0  0
  -26.2879  -28.9502  -20.0317 C   0  0  0  0  0  0  0  0  0  0  0  0
  -25.5154  -29.1949  -21.1242 N   0  0  0  0  0  0  0  0  0  0  0  0
  -22.7542  -34.3525  -22.0479 C   0  0  0  0  0  0  0  0  0  0  0  0
  -22.7841  -35.6852  -21.6826 C   0  0  0  0  0  0  0  0  0  0  0  0
  -21.7263  -35.9979  -20.8954 O   0  0  0  0  0  0  0  0  0  0  0  0
  -21.0006  -34.8640  -20.7253 C   0  0  0  0  0  0  0  0  0  0  0  0
  -19.8264  -34.7612  -19.9853 C   0  0  0  0  0  0  0  0  0  0  0  0
  -19.2234  -33.4992  -19.9432 C   0  0  0  0  0  0  0  0  0  0  0  0
  -19.7869  -32.4058  -20.6063 C   0  0  0  0  0  0  0  0  0  0  0  0
  -20.9733  -32.5430  -21.3406 C   0  0  0  0  0  0  0  0  0  0  0  0
  -21.5910  -33.8087  -21.4065 C   0  0  0  0  0  0  0  0  0  0  0  0
  2  1  1  1
  2  3  1  0
  3  4  1  0
  4  5  2  0
  4  6  1  0
  6  7  2  0
  7  8  1  0
  8  9  2  0
  9 10  1  0
  2 11  1  0
 11 12  2  0
 12 13  1  0
 13 14  1  0
 14 15  2  0
 15 16  1  0
 16 17  2  0
 17 18  1  0
 18 19  2  0
 10  6  1  0
 19 11  1  0
 19 14  1  0
M  END
>  <fragmenstein_mode>  (329) 
expansion

>  <name>  (329) 
HBEGQIFZRBVNKL-SECBINFHSA-N

>  <fragmenstein_runtime>  (329) 
1.968509

>  <HIPPO Compound ID>  (329) 
45070

>  <SLURM_JOB_NAME>  (329) 
BulkDock.place:Flavi_NS5_RdRp:RdRp_knitwork_green_site_rna_tunnel_impure_split4000_batch012

>  <ref_mols>  (329) 
d0378a,3vws-b

>  <Multi-SuCOS>  (329) 
0.678744

>  <tags>  (329) 
['Fragmenstein placed', 'RdRp_knitwork_green_site_rna_tunnel_impure_fragalysis.sdf Pose OK']

>  <scratch_subdir>  (329) 
/opt/xchem-fragalysis-2/maxwin/BulkDock/SCRATCH/220463/C45070-P217

>  <energy_score>  (329) 
-25.207862

>  <fragmenstein_error>  (329) 
None

>  <csv_name>  (329) 
RdRp_knitwork_green_site_rna_tunnel_impure_split4000_batch012.csv

>  <merge_set>  (329) 
RdRp_knitwork_green_site_rna_tunnel_impure_fragalysis.sdf

>  <original ID>  (329) 
HBEGQIFZRBVNKL-SECBINFHSA-N

>  <HIPPO Pose ID>  (329) 
206359

>  <fragmenstein_outcome>  (329) 
acceptable

>  <exports>  (329) 
['/opt/xchem-fragalysis-2/maxwin/BulkDock/OUTPUTS/RdRp_knitwork_green_site_rna_tunnel_impure_split4000_batch012_220463.sdf', '/opt/xchem-fragalysis-2/maxwin/BulkDock/OUTPUTS/RdRp_knitwork_green_site_rna_tunnel_impure_fragalysis.sdf']

>  <SLURM_JOB_ID>  (329) 
220463

>  <distance_score>  (329) 
0.715307

>  <original SMILES>  (329) 
C[C@@H](NC(=O)c1cnc[nH]1)c1coc2ccccc12

>  <alias>  (329) 
None

>  <ref_pdb>  (329) 
3vws-b

>  <inchikey>  (329) 
HBEGQIFZRBVNKL-SECBINFHSA-N

$$$$
BMENFVYGVMYURS-UHFFFAOYSA-N
     RDKit          3D

 20 22  0  0  0  0  0  0  0  0999 V2000
  -21.1587  -31.0623  -17.7633 O   0  0  0  0  0  0  0  0  0  0  0  0
  -22.0854  -30.7606  -18.4056 C   0  0  0  0  0  0  0  0  0  0  0  0
  -23.4354  -30.4515  -17.7636 C   0  0  0  0  0  0  0  0  0  0  0  0
  -24.6024  -31.2787  -18.3201 C   0  0  0  0  0  0  0  0  0  0  0  0
  -25.4255  -30.4835  -19.2800 C   0  0  0  0  0  0  0  0  0  0  0  0
  -25.6839  -30.6917  -20.6175 C   0  0  0  0  0  0  0  0  0  0  0  0
  -26.3697  -29.5798  -21.0232 N   0  0  0  0  0  0  0  0  0  0  0  0
  -26.5489  -28.7829  -19.9336 C   0  0  0  0  0  0  0  0  0  0  0  0
  -25.9773  -29.2939  -18.8721 N   0  0  0  0  0  0  0  0  0  0  0  0
  -22.2401  -30.6213  -19.9405 N   0  0  0  0  0  0  0  0  0  0  0  0
  -21.3170  -30.9153  -21.0018 C   0  0  0  0  0  0  0  0  0  0  0  0
  -20.8532  -32.3450  -20.9017 C   0  0  0  0  0  0  0  0  0  0  0  0
  -19.6085  -32.6044  -20.2800 C   0  0  0  0  0  0  0  0  0  0  0  0
  -19.1697  -33.9010  -20.0041 C   0  0  0  0  0  0  0  0  0  0  0  0
  -19.9548  -35.0059  -20.3284 C   0  0  0  0  0  0  0  0  0  0  0  0
  -21.1634  -34.7415  -20.9645 C   0  0  0  0  0  0  0  0  0  0  0  0
  -22.0495  -35.6898  -21.3713 O   0  0  0  0  0  0  0  0  0  0  0  0
  -23.0963  -35.0402  -21.9362 C   0  0  0  0  0  0  0  0  0  0  0  0
  -22.8952  -33.6794  -21.8992 C   0  0  0  0  0  0  0  0  0  0  0  0
  -21.6335  -33.4678  -21.2724 C   0  0  0  0  0  0  0  0  0  0  0  0
  1  2  2  0
  2  3  1  0
  3  4  1  0
  4  5  1  0
  5  6  2  0
  6  7  1  0
  7  8  1  0
  8  9  2  0
  2 10  1  0
 10 11  1  0
 11 12  1  0
 12 13  2  0
 13 14  1  0
 14 15  2  0
 15 16  1  0
 16 17  1  0
 17 18  1  0
 18 19  2  0
 19 20  1  0
  9  5  1  0
 20 12  1  0
 20 16  2  0
M  END
>  <fragmenstein_mode>  (330) 
expansion

>  <name>  (330) 
BMENFVYGVMYURS-UHFFFAOYSA-N

>  <fragmenstein_runtime>  (330) 
3.339315

>  <HIPPO Compound ID>  (330) 
45096

>  <SLURM_JOB_NAME>  (330) 
BulkDock.place:Flavi_NS5_RdRp:RdRp_knitwork_green_site_rna_tunnel_impure_split4000_batch012

>  <ref_mols>  (330) 
d0378a,3vws-b

>  <Multi-SuCOS>  (330) 
0.534257

>  <tags>  (330) 
['Fragmenstein placed', 'RdRp_knitwork_green_site_rna_tunnel_impure_fragalysis.sdf Pose OK']

>  <scratch_subdir>  (330) 
/opt/xchem-fragalysis-2/maxwin/BulkDock/SCRATCH/220463/C45096-P217

>  <energy_score>  (330) 
-21.071246

>  <fragmenstein_error>  (330) 
None

>  <csv_name>  (330) 
RdRp_knitwork_green_site_rna_tunnel_impure_split4000_batch012.csv

>  <merge_set>  (330) 
RdRp_knitwork_green_site_rna_tunnel_impure_fragalysis.sdf

>  <original ID>  (330) 
BMENFVYGVMYURS-UHFFFAOYSA-N

>  <HIPPO Pose ID>  (330) 
206376

>  <fragmenstein_outcome>  (330) 
acceptable

>  <exports>  (330) 
['/opt/xchem-fragalysis-2/maxwin/BulkDock/OUTPUTS/RdRp_knitwork_green_site_rna_tunnel_impure_split4000_batch012_220463.sdf', '/opt/xchem-fragalysis-2/maxwin/BulkDock/OUTPUTS/RdRp_knitwork_green_site_rna_tunnel_impure_fragalysis.sdf']

>  <SLURM_JOB_ID>  (330) 
220463

>  <distance_score>  (330) 
0.988907

>  <original SMILES>  (330) 
O=C(CCc1c[nH]cn1)NCc1cccc2occc12

>  <alias>  (330) 
None

>  <ref_pdb>  (330) 
3vws-b

>  <inchikey>  (330) 
BMENFVYGVMYURS-UHFFFAOYSA-N

$$$$
MVDNPTBWUYNUPC-UHFFFAOYSA-N
     RDKit          3D

 22 24  0  0  0  0  0  0  0  0999 V2000
  -23.5634  -37.9241  -21.9010 O   0  0  0  0  0  0  0  0  0  0  0  0
  -23.7360  -36.7254  -22.0669 C   0  0  0  0  0  0  0  0  0  0  0  0
  -24.8945  -36.2961  -22.6141 O   0  0  0  0  0  0  0  0  0  0  0  0
  -22.8357  -35.6375  -21.7658 C   0  0  0  0  0  0  0  0  0  0  0  0
  -21.7377  -35.9580  -21.0152 O   0  0  0  0  0  0  0  0  0  0  0  0
  -21.0165  -34.8315  -20.8166 C   0  0  0  0  0  0  0  0  0  0  0  0
  -19.8340  -34.7599  -20.0848 C   0  0  0  0  0  0  0  0  0  0  0  0
  -19.2156  -33.5081  -20.0167 C   0  0  0  0  0  0  0  0  0  0  0  0
  -19.7698  -32.3968  -20.6545 C   0  0  0  0  0  0  0  0  0  0  0  0
  -20.9648  -32.5043  -21.3818 C   0  0  0  0  0  0  0  0  0  0  0  0
  -21.6089  -33.7575  -21.4627 C   0  0  0  0  0  0  0  0  0  0  0  0
  -22.8016  -34.2758  -22.0791 C   0  0  0  0  0  0  0  0  0  0  0  0
  -23.7743  -33.5084  -22.9035 C   0  0  0  0  0  0  0  0  0  0  0  0
  -24.2658  -32.3176  -22.2080 N   0  0  0  0  0  0  0  0  0  0  0  0
  -25.1633  -32.5997  -20.8004 S   0  0  0  0  0  0  0  0  0  0  0  0
  -26.2587  -33.4972  -21.0928 O   0  0  0  0  0  0  0  0  0  0  0  0
  -24.2461  -32.8156  -19.7059 O   0  0  0  0  0  0  0  0  0  0  0  0
  -25.9151  -31.0819  -20.3946 C   0  0  0  0  0  0  0  0  0  0  0  0
  -27.0263  -30.9071  -19.5973 C   0  0  0  0  0  0  0  0  0  0  0  0
  -27.2129  -29.5553  -19.5481 N   0  0  0  0  0  0  0  0  0  0  0  0
  -26.2233  -28.9688  -20.2879 C   0  0  0  0  0  0  0  0  0  0  0  0
  -25.4248  -29.8580  -20.8317 N   0  0  0  0  0  0  0  0  0  0  0  0
  1  2  2  0
  2  3  1  0
  2  4  1  0
  4  5  1  0
  5  6  1  0
  6  7  2  0
  7  8  1  0
  8  9  2  0
  9 10  1  0
 10 11  2  0
 11 12  1  0
 12 13  1  0
 13 14  1  0
 14 15  1  0
 15 16  2  0
 15 17  2  0
 15 18  1  0
 18 19  2  0
 19 20  1  0
 20 21  1  0
 21 22  2  0
 12  4  2  0
 22 18  1  0
 11  6  1  0
M  END
>  <fragmenstein_mode>  (331) 
expansion

>  <name>  (331) 
MVDNPTBWUYNUPC-UHFFFAOYSA-N

>  <fragmenstein_runtime>  (331) 
2.429241

>  <HIPPO Compound ID>  (331) 
45246

>  <SLURM_JOB_NAME>  (331) 
BulkDock.place:Flavi_NS5_RdRp:RdRp_knitwork_green_site_rna_tunnel_impure_split4000_batch012

>  <ref_mols>  (331) 
d0378a,3vws-b

>  <Multi-SuCOS>  (331) 
0.568913

>  <tags>  (331) 
['Fragmenstein placed', 'RdRp_knitwork_green_site_rna_tunnel_impure_fragalysis.sdf Pose OK']

>  <scratch_subdir>  (331) 
/opt/xchem-fragalysis-2/maxwin/BulkDock/SCRATCH/220463/C45246-P217

>  <energy_score>  (331) 
-70.44976

>  <fragmenstein_error>  (331) 
None

>  <csv_name>  (331) 
RdRp_knitwork_green_site_rna_tunnel_impure_split4000_batch012.csv

>  <merge_set>  (331) 
RdRp_knitwork_green_site_rna_tunnel_impure_fragalysis.sdf

>  <original ID>  (331) 
MVDNPTBWUYNUPC-UHFFFAOYSA-N

>  <HIPPO Pose ID>  (331) 
206448

>  <fragmenstein_outcome>  (331) 
acceptable

>  <exports>  (331) 
['/opt/xchem-fragalysis-2/maxwin/BulkDock/OUTPUTS/RdRp_knitwork_green_site_rna_tunnel_impure_split4000_batch012_220463.sdf', '/opt/xchem-fragalysis-2/maxwin/BulkDock/OUTPUTS/RdRp_knitwork_green_site_rna_tunnel_impure_fragalysis.sdf']

>  <SLURM_JOB_ID>  (331) 
220463

>  <distance_score>  (331) 
0.841735

>  <original SMILES>  (331) 
O=C(O)c1oc2ccccc2c1CNS(=O)(=O)c1c[nH]cn1

>  <alias>  (331) 
None

>  <ref_pdb>  (331) 
3vws-b

>  <inchikey>  (331) 
MVDNPTBWUYNUPC-UHFFFAOYSA-N

$$$$
KIEPWHIBYXCRJC-CYBMUJFWSA-N
     RDKit          3D

 22 24  0  0  0  0  0  0  0  0999 V2000
  -23.3138  -29.6961  -17.0856 N   0  0  0  0  0  0  0  0  0  0  0  0
  -23.9500  -30.4852  -17.6466 C   0  0  0  0  0  0  0  0  0  0  0  0
  -24.7295  -31.4183  -18.3773 C   0  0  0  0  0  0  0  0  0  0  0  0
  -24.9724  -32.7380  -18.0731 C   0  0  0  0  0  0  0  0  0  0  0  0
  -25.6101  -33.3309  -19.2001 C   0  0  0  0  0  0  0  0  0  0  0  0
  -25.8254  -34.7707  -19.3791 C   0  0  0  0  0  0  0  0  0  0  0  0
  -26.0646  -35.4502  -18.4663 O   0  0  0  0  0  0  0  0  0  0  0  0
  -25.5786  -35.1301  -20.8462 N   0  0  0  0  0  0  0  0  0  0  0  0
  -25.4786  -36.4170  -21.4930 C   0  0  0  0  0  0  0  0  0  0  0  0
  -24.2616  -36.4634  -22.4489 C   0  0  1  0  0  0  0  0  0  0  0  0
  -24.6549  -35.8951  -23.7067 O   0  0  0  0  0  0  0  0  0  0  0  0
  -23.1014  -35.6346  -21.9503 C   0  0  0  0  0  0  0  0  0  0  0  0
  -22.8070  -34.3078  -22.2124 C   0  0  0  0  0  0  0  0  0  0  0  0
  -21.6803  -33.8158  -21.4764 C   0  0  0  0  0  0  0  0  0  0  0  0
  -21.0916  -32.5284  -21.4359 C   0  0  0  0  0  0  0  0  0  0  0  0
  -19.9449  -32.2987  -20.6699 C   0  0  0  0  0  0  0  0  0  0  0  0
  -19.3778  -33.3307  -19.9345 C   0  0  0  0  0  0  0  0  0  0  0  0
  -19.9526  -34.6043  -19.9346 C   0  0  0  0  0  0  0  0  0  0  0  0
  -21.1090  -34.8287  -20.7050 C   0  0  0  0  0  0  0  0  0  0  0  0
  -22.0014  -36.2934  -20.8276 S   0  0  0  0  0  0  0  0  0  0  0  0
  -25.8637  -32.2976  -20.0889 C   0  0  0  0  0  0  0  0  0  0  0  0
  -25.3452  -31.1393  -19.5670 N   0  0  0  0  0  0  0  0  0  0  0  0
  1  2  3  0
  2  3  1  0
  3  4  2  0
  4  5  1  0
  5  6  1  0
  6  7  2  0
  6  8  1  0
  8  9  1  0
  9 10  1  0
 10 11  1  6
 10 12  1  0
 12 13  2  0
 13 14  1  0
 14 15  2  0
 15 16  1  0
 16 17  2  0
 17 18  1  0
 18 19  2  0
 19 20  1  0
  5 21  2  0
 21 22  1  0
 22  3  1  0
 20 12  1  0
 19 14  1  0
M  END
>  <fragmenstein_mode>  (332) 
expansion

>  <name>  (332) 
KIEPWHIBYXCRJC-CYBMUJFWSA-N

>  <fragmenstein_runtime>  (332) 
3.572308

>  <HIPPO Compound ID>  (332) 
51089

>  <SLURM_JOB_NAME>  (332) 
BulkDock.place:Flavi_NS5_RdRp:RdRp_knitwork_green_site_rna_tunnel_impure_split4000_batch001

>  <ref_mols>  (332) 
d0472b,3vws-b

>  <Multi-SuCOS>  (332) 
0.50466

>  <tags>  (332) 
['Fragmenstein placed', 'RdRp_knitwork_green_site_rna_tunnel_impure_fragalysis.sdf Pose OK']

>  <scratch_subdir>  (332) 
/opt/xchem-fragalysis-2/maxwin/BulkDock/SCRATCH/220452/C51089-P217

>  <energy_score>  (332) 
-8.033191

>  <fragmenstein_error>  (332) 
None

>  <csv_name>  (332) 
RdRp_knitwork_green_site_rna_tunnel_impure_split4000_batch001.csv

>  <merge_set>  (332) 
RdRp_knitwork_green_site_rna_tunnel_impure_fragalysis.sdf

>  <original ID>  (332) 
KIEPWHIBYXCRJC-CYBMUJFWSA-N

>  <HIPPO Pose ID>  (332) 
206674

>  <fragmenstein_outcome>  (332) 
acceptable

>  <exports>  (332) 
['/opt/xchem-fragalysis-2/maxwin/BulkDock/OUTPUTS/RdRp_knitwork_green_site_rna_tunnel_impure_split4000_batch001_220452.sdf', '/opt/xchem-fragalysis-2/maxwin/BulkDock/OUTPUTS/RdRp_knitwork_green_site_rna_tunnel_impure_fragalysis.sdf']

>  <SLURM_JOB_ID>  (332) 
220452

>  <distance_score>  (332) 
0.729478

>  <original SMILES>  (332) 
N#Cc1cc(C(=O)NC[C@@H](O)c2cc3ccccc3s2)c[nH]1

>  <alias>  (332) 
None

>  <ref_pdb>  (332) 
3vws-b

>  <inchikey>  (332) 
KIEPWHIBYXCRJC-CYBMUJFWSA-N

$$$$
XOXDCJRXYCRALZ-UHFFFAOYSA-N
     RDKit          3D

 22 23  0  0  0  0  0  0  0  0999 V2000
  -22.7314  -34.6811  -24.3689 C   0  0  0  0  0  0  0  0  0  0  0  0
  -22.2122  -34.0309  -23.0890 C   0  0  0  0  0  0  0  0  0  0  0  0
  -21.9835  -32.4973  -23.1155 C   0  0  0  0  0  0  0  0  0  0  0  0
  -21.5539  -32.0457  -21.6721 C   0  0  0  0  0  0  0  0  0  0  0  0
  -20.1338  -32.3864  -21.2409 C   0  0  0  0  0  0  0  0  0  0  0  0
  -20.9096  -32.1221  -24.1468 C   0  0  0  0  0  0  0  0  0  0  0  0
  -20.4812  -30.7543  -24.0421 O   0  0  0  0  0  0  0  0  0  0  0  0
  -23.2892  -31.8122  -23.5676 C   0  0  0  0  0  0  0  0  0  0  0  0
  -24.2189  -31.6598  -22.5137 N   0  0  0  0  0  0  0  0  0  0  0  0
  -25.5750  -30.9554  -22.4832 C   0  0  0  0  0  0  0  0  0  0  0  0
  -26.1662  -30.4661  -23.3171 O   0  0  0  0  0  0  0  0  0  0  0  0
  -25.8691  -31.0480  -20.9811 N   0  0  0  0  0  0  0  0  0  0  0  0
  -26.8714  -30.4902  -20.2395 C   0  0  0  0  0  0  0  0  0  0  0  0
  -28.1172  -30.2376  -20.7875 C   0  0  0  0  0  0  0  0  0  0  0  0
  -29.1748  -30.0001  -19.9269 C   0  0  0  0  0  0  0  0  0  0  0  0
  -28.9503  -29.9200  -18.5481 C   0  0  0  0  0  0  0  0  0  0  0  0
  -27.6467  -30.0137  -18.0367 C   0  0  0  0  0  0  0  0  0  0  0  0
  -26.6073  -30.3181  -18.8925 C   0  0  0  0  0  0  0  0  0  0  0  0
  -27.3303  -29.8669  -16.5786 C   0  0  0  0  0  0  0  0  0  0  0  0
  -28.5510  -30.0627  -15.7087 C   0  0  0  0  0  0  0  0  0  0  0  0
  -29.7841  -29.4827  -16.3559 C   0  0  0  0  0  0  0  0  0  0  0  0
  -30.0452  -29.9681  -17.6872 N   0  0  0  0  0  0  0  0  0  0  0  0
  1  2  1  0
  2  3  1  0
  3  4  1  0
  4  5  1  0
  3  6  1  0
  6  7  1  0
  3  8  1  0
  8  9  1  0
  9 10  1  0
 10 11  2  0
 10 12  1  0
 12 13  1  0
 13 14  2  0
 14 15  1  0
 15 16  2  0
 16 17  1  0
 17 18  2  0
 17 19  1  0
 19 20  1  0
 20 21  1  0
 21 22  1  0
 18 13  1  0
 22 16  1  0
M  END
>  <fragmenstein_mode>  (333) 
expansion

>  <name>  (333) 
XOXDCJRXYCRALZ-UHFFFAOYSA-N

>  <fragmenstein_runtime>  (333) 
18.131502

>  <HIPPO Compound ID>  (333) 
36698

>  <SLURM_JOB_NAME>  (333) 
BulkDock.place:Flavi_NS5_RdRp:RdRp_knitwork_green_site_rna_tunnel_impure_split4000_batch013

>  <ref_mols>  (333) 
z0904a,z0211a

>  <Multi-SuCOS>  (333) 
0.501267

>  <tags>  (333) 
['Fragmenstein placed', 'RdRp_knitwork_green_site_rna_tunnel_impure_fragalysis.sdf Pose OK']

>  <scratch_subdir>  (333) 
/opt/xchem-fragalysis-2/maxwin/BulkDock/SCRATCH/220464/C36698-P102

>  <energy_score>  (333) 
-3.18039

>  <fragmenstein_error>  (333) 
None

>  <csv_name>  (333) 
RdRp_knitwork_green_site_rna_tunnel_impure_split4000_batch013.csv

>  <merge_set>  (333) 
RdRp_knitwork_green_site_rna_tunnel_impure_fragalysis.sdf

>  <original ID>  (333) 
XOXDCJRXYCRALZ-UHFFFAOYSA-N

>  <HIPPO Pose ID>  (333) 
206722

>  <fragmenstein_outcome>  (333) 
acceptable

>  <exports>  (333) 
['/opt/xchem-fragalysis-2/maxwin/BulkDock/OUTPUTS/RdRp_knitwork_green_site_rna_tunnel_impure_split4000_batch013_220464.sdf', '/opt/xchem-fragalysis-2/maxwin/BulkDock/OUTPUTS/RdRp_knitwork_green_site_rna_tunnel_impure_fragalysis.sdf']

>  <SLURM_JOB_ID>  (333) 
220464

>  <distance_score>  (333) 
0.968595

>  <original SMILES>  (333) 
CCC(CC)(CO)CNC(=O)Nc1ccc2c(c1)CCCN2

>  <alias>  (333) 
None

>  <ref_pdb>  (333) 
z0211a

>  <inchikey>  (333) 
XOXDCJRXYCRALZ-UHFFFAOYSA-N

$$$$
OUADHXQUGPVFPL-UHFFFAOYSA-N
     RDKit          3D

 17 19  0  0  0  0  0  0  0  0999 V2000
  -25.4362  -31.9667  -20.2361 O   0  0  0  0  0  0  0  0  0  0  0  0
  -24.9057  -31.6530  -19.2435 C   0  0  0  0  0  0  0  0  0  0  0  0
  -25.4150  -30.7897  -18.0625 N   0  0  0  0  0  0  0  0  0  0  0  0
  -26.6852  -30.2263  -17.8201 C   0  0  0  0  0  0  0  0  0  0  0  0
  -26.8661  -29.9644  -16.4415 C   0  0  0  0  0  0  0  0  0  0  0  0
  -28.1148  -29.6820  -15.9106 C   0  0  0  0  0  0  0  0  0  0  0  0
  -29.1626  -29.6044  -16.7880 C   0  0  0  0  0  0  0  0  0  0  0  0
  -29.0230  -29.7543  -18.1190 N   0  0  0  0  0  0  0  0  0  0  0  0
  -27.8009  -30.0708  -18.6653 C   0  0  0  0  0  0  0  0  0  0  0  0
  -27.9071  -30.2843  -20.1664 C   0  0  0  0  0  0  0  0  0  0  0  0
  -26.9466  -29.8647  -21.2345 C   0  0  0  0  0  0  0  0  0  0  0  0
  -28.1769  -29.0538  -21.0128 C   0  0  0  0  0  0  0  0  0  0  0  0
  -23.5717  -32.1892  -18.9260 C   0  0  0  0  0  0  0  0  0  0  0  0
  -22.9633  -32.4474  -17.6658 C   0  0  0  0  0  0  0  0  0  0  0  0
  -21.7295  -32.9516  -17.7648 N   0  0  0  0  0  0  0  0  0  0  0  0
  -21.5667  -33.0896  -19.0907 N   0  0  0  0  0  0  0  0  0  0  0  0
  -22.6341  -32.6607  -19.8227 C   0  0  0  0  0  0  0  0  0  0  0  0
  1  2  2  0
  2  3  1  0
  3  4  1  0
  4  5  2  0
  5  6  1  0
  6  7  2  0
  7  8  1  0
  8  9  2  0
  9 10  1  0
 10 11  1  0
 11 12  1  0
  2 13  1  0
 13 14  1  0
 14 15  2  0
 15 16  1  0
 16 17  1  0
  9  4  1  0
 12 10  1  0
 17 13  2  0
M  END
>  <fragmenstein_mode>  (334) 
expansion

>  <name>  (334) 
OUADHXQUGPVFPL-UHFFFAOYSA-N

>  <fragmenstein_runtime>  (334) 
2.771199

>  <HIPPO Compound ID>  (334) 
20299

>  <SLURM_JOB_NAME>  (334) 
BulkDock.place:Flavi_NS5_RdRp:RdRp_knitwork_green_site_rna_tunnel_impure_split4000_batch011

>  <ref_mols>  (334) 
z0215a,z0637a

>  <Multi-SuCOS>  (334) 
0.552315

>  <tags>  (334) 
['Fragmenstein placed', 'RdRp_knitwork_green_site_rna_tunnel_impure_fragalysis.sdf Pose OK']

>  <scratch_subdir>  (334) 
/opt/xchem-fragalysis-2/maxwin/BulkDock/SCRATCH/220462/C20299-P104

>  <energy_score>  (334) 
-15.964435

>  <fragmenstein_error>  (334) 
None

>  <csv_name>  (334) 
RdRp_knitwork_green_site_rna_tunnel_impure_split4000_batch011.csv

>  <merge_set>  (334) 
RdRp_knitwork_green_site_rna_tunnel_impure_fragalysis.sdf

>  <original ID>  (334) 
OUADHXQUGPVFPL-UHFFFAOYSA-N

>  <HIPPO Pose ID>  (334) 
206727

>  <fragmenstein_outcome>  (334) 
acceptable

>  <exports>  (334) 
['/opt/xchem-fragalysis-2/maxwin/BulkDock/OUTPUTS/RdRp_knitwork_green_site_rna_tunnel_impure_split4000_batch011_220462.sdf', '/opt/xchem-fragalysis-2/maxwin/BulkDock/OUTPUTS/RdRp_knitwork_green_site_rna_tunnel_impure_fragalysis.sdf']

>  <SLURM_JOB_ID>  (334) 
220462

>  <distance_score>  (334) 
0.914404

>  <original SMILES>  (334) 
O=C(Nc1cccnc1C1CC1)c1cn[nH]c1

>  <alias>  (334) 
None

>  <ref_pdb>  (334) 
z0215a

>  <inchikey>  (334) 
OUADHXQUGPVFPL-UHFFFAOYSA-N

$$$$
OUADHXQUGPVFPL-UHFFFAOYSA-N
     RDKit          3D

 17 19  0  0  0  0  0  0  0  0999 V2000
  -25.2310  -31.8425  -19.9734 O   0  0  0  0  0  0  0  0  0  0  0  0
  -24.8203  -31.5848  -18.9125 C   0  0  0  0  0  0  0  0  0  0  0  0
  -25.4653  -30.7912  -17.7549 N   0  0  0  0  0  0  0  0  0  0  0  0
  -26.7523  -30.2454  -17.6294 C   0  0  0  0  0  0  0  0  0  0  0  0
  -27.0629  -29.9262  -16.2939 C   0  0  0  0  0  0  0  0  0  0  0  0
  -28.3572  -29.5995  -15.9151 C   0  0  0  0  0  0  0  0  0  0  0  0
  -29.3154  -29.5632  -16.8943 C   0  0  0  0  0  0  0  0  0  0  0  0
  -29.0520  -29.8042  -18.1908 N   0  0  0  0  0  0  0  0  0  0  0  0
  -27.7797  -30.1369  -18.5851 C   0  0  0  0  0  0  0  0  0  0  0  0
  -27.6718  -30.3734  -20.0754 C   0  0  0  0  0  0  0  0  0  0  0  0
  -26.6881  -29.6779  -20.9747 C   0  0  0  0  0  0  0  0  0  0  0  0
  -28.1097  -29.2326  -20.9863 C   0  0  0  0  0  0  0  0  0  0  0  0
  -23.5286  -32.1389  -18.4807 C   0  0  0  0  0  0  0  0  0  0  0  0
  -22.7169  -31.9126  -17.3403 C   0  0  0  0  0  0  0  0  0  0  0  0
  -21.6475  -32.7146  -17.2786 N   0  0  0  0  0  0  0  0  0  0  0  0
  -21.7706  -33.4667  -18.3852 N   0  0  0  0  0  0  0  0  0  0  0  0
  -22.8382  -33.1276  -19.1563 C   0  0  0  0  0  0  0  0  0  0  0  0
  1  2  2  0
  2  3  1  0
  3  4  1  0
  4  5  2  0
  5  6  1  0
  6  7  2  0
  7  8  1  0
  8  9  2  0
  9 10  1  0
 10 11  1  0
 11 12  1  0
  2 13  1  0
 13 14  1  0
 14 15  2  0
 15 16  1  0
 16 17  1  0
  9  4  1  0
 12 10  1  0
 17 13  2  0
M  END
>  <fragmenstein_mode>  (335) 
expansion

>  <name>  (335) 
OUADHXQUGPVFPL-UHFFFAOYSA-N

>  <fragmenstein_runtime>  (335) 
3.20722

>  <HIPPO Compound ID>  (335) 
20299

>  <SLURM_JOB_NAME>  (335) 
BulkDock.place:Flavi_NS5_RdRp:RdRp_knitwork_green_site_rna_tunnel_impure_split4000_batch011

>  <ref_mols>  (335) 
z0215a,z0637a

>  <Multi-SuCOS>  (335) 
0.580927

>  <tags>  (335) 
['Fragmenstein placed', 'RdRp_knitwork_green_site_rna_tunnel_impure_fragalysis.sdf Pose OK']

>  <scratch_subdir>  (335) 
/opt/xchem-fragalysis-2/maxwin/BulkDock/SCRATCH/220462/C20299-P151

>  <energy_score>  (335) 
-20.450256

>  <fragmenstein_error>  (335) 
None

>  <csv_name>  (335) 
RdRp_knitwork_green_site_rna_tunnel_impure_split4000_batch011.csv

>  <merge_set>  (335) 
RdRp_knitwork_green_site_rna_tunnel_impure_fragalysis.sdf

>  <original ID>  (335) 
OUADHXQUGPVFPL-UHFFFAOYSA-N

>  <HIPPO Pose ID>  (335) 
206741

>  <fragmenstein_outcome>  (335) 
acceptable

>  <exports>  (335) 
['/opt/xchem-fragalysis-2/maxwin/BulkDock/OUTPUTS/RdRp_knitwork_green_site_rna_tunnel_impure_split4000_batch011_220462.sdf', '/opt/xchem-fragalysis-2/maxwin/BulkDock/OUTPUTS/RdRp_knitwork_green_site_rna_tunnel_impure_fragalysis.sdf']

>  <SLURM_JOB_ID>  (335) 
220462

>  <distance_score>  (335) 
0.896531

>  <original SMILES>  (335) 
O=C(Nc1cccnc1C1CC1)c1cn[nH]c1

>  <alias>  (335) 
None

>  <ref_pdb>  (335) 
z0637a

>  <inchikey>  (335) 
OUADHXQUGPVFPL-UHFFFAOYSA-N

$$$$
QVGDSEZSJSHRTO-UHFFFAOYSA-N
     RDKit          3D

 15 17  0  0  0  0  0  0  0  0999 V2000
  -28.0171  -30.2077  -15.9501 C   0  0  0  0  0  0  0  0  0  0  0  0
  -26.8426  -29.6473  -16.4264 C   0  0  0  0  0  0  0  0  0  0  0  0
  -26.7235  -29.3354  -17.7828 C   0  0  0  0  0  0  0  0  0  0  0  0
  -27.7713  -29.5855  -18.7142 C   0  0  0  0  0  0  0  0  0  0  0  0
  -27.7689  -29.3137  -20.1119 C   0  0  0  0  0  0  0  0  0  0  0  0
  -26.8109  -28.4277  -20.7007 N   0  0  0  0  0  0  0  0  0  0  0  0
  -26.2246  -27.3045  -20.1384 C   0  0  0  0  0  0  0  0  0  0  0  0
  -25.4609  -26.7064  -21.1107 C   0  0  0  0  0  0  0  0  0  0  0  0
  -25.6244  -27.5256  -22.2351 C   0  0  0  0  0  0  0  0  0  0  0  0
  -26.4462  -28.5495  -22.0056 N   0  0  0  0  0  0  0  0  0  0  0  0
  -28.7276  -29.7700  -20.9675 N   0  0  0  0  0  0  0  0  0  0  0  0
  -29.7904  -30.3927  -20.4412 C   0  0  0  0  0  0  0  0  0  0  0  0
  -29.9383  -30.6204  -19.0898 C   0  0  0  0  0  0  0  0  0  0  0  0
  -28.9230  -30.2316  -18.2130 C   0  0  0  0  0  0  0  0  0  0  0  0
  -29.0470  -30.5037  -16.8395 C   0  0  0  0  0  0  0  0  0  0  0  0
  1  2  2  0
  2  3  1  0
  3  4  2  0
  4  5  1  0
  5  6  1  0
  6  7  1  0
  7  8  2  0
  8  9  1  0
  9 10  2  0
  5 11  2  0
 11 12  1  0
 12 13  2  0
 13 14  1  0
 14 15  2  0
 15  1  1  0
 14  4  1  0
 10  6  1  0
M  END
>  <fragmenstein_mode>  (336) 
expansion

>  <name>  (336) 
QVGDSEZSJSHRTO-UHFFFAOYSA-N

>  <fragmenstein_runtime>  (336) 
1.074855

>  <HIPPO Compound ID>  (336) 
29852

>  <SLURM_JOB_NAME>  (336) 
BulkDock.place:Flavi_NS5_RdRp:RdRp_knitwork_green_site_rna_tunnel_impure_split4000_batch002

>  <ref_mols>  (336) 
z0111a,z0496a

>  <Multi-SuCOS>  (336) 
0.821971

>  <tags>  (336) 
['Fragmenstein placed', 'RdRp_knitwork_green_site_rna_tunnel_impure_fragalysis.sdf Pose OK']

>  <scratch_subdir>  (336) 
/opt/xchem-fragalysis-2/maxwin/BulkDock/SCRATCH/220453/C29852-P136

>  <energy_score>  (336) 
-38.75544

>  <fragmenstein_error>  (336) 
None

>  <csv_name>  (336) 
RdRp_knitwork_green_site_rna_tunnel_impure_split4000_batch002.csv

>  <merge_set>  (336) 
RdRp_knitwork_green_site_rna_tunnel_impure_fragalysis.sdf

>  <original ID>  (336) 
QVGDSEZSJSHRTO-UHFFFAOYSA-N

>  <HIPPO Pose ID>  (336) 
206758

>  <fragmenstein_outcome>  (336) 
acceptable

>  <exports>  (336) 
['/opt/xchem-fragalysis-2/maxwin/BulkDock/OUTPUTS/RdRp_knitwork_green_site_rna_tunnel_impure_split4000_batch002_220453.sdf', '/opt/xchem-fragalysis-2/maxwin/BulkDock/OUTPUTS/RdRp_knitwork_green_site_rna_tunnel_impure_fragalysis.sdf']

>  <SLURM_JOB_ID>  (336) 
220453

>  <distance_score>  (336) 
0.68292

>  <original SMILES>  (336) 
c1ccc2c(-n3cccn3)nccc2c1

>  <alias>  (336) 
None

>  <ref_pdb>  (336) 
z0496a

>  <inchikey>  (336) 
QVGDSEZSJSHRTO-UHFFFAOYSA-N

$$$$
FDOQSGVVYRWXRZ-UHFFFAOYSA-N
     RDKit          3D

 21 23  0  0  0  0  0  0  0  0999 V2000
  -23.2870  -30.0391  -17.1664 N   0  0  0  0  0  0  0  0  0  0  0  0
  -23.9911  -30.7230  -17.7827 C   0  0  0  0  0  0  0  0  0  0  0  0
  -24.8867  -31.5203  -18.5440 C   0  0  0  0  0  0  0  0  0  0  0  0
  -24.6800  -32.7889  -19.0387 C   0  0  0  0  0  0  0  0  0  0  0  0
  -25.8327  -33.1695  -19.7954 C   0  0  0  0  0  0  0  0  0  0  0  0
  -26.0708  -34.3655  -20.6280 C   0  0  0  0  0  0  0  0  0  0  0  0
  -26.8758  -34.3238  -21.4642 O   0  0  0  0  0  0  0  0  0  0  0  0
  -25.0793  -35.4673  -20.2627 N   0  0  0  0  0  0  0  0  0  0  0  0
  -24.7962  -36.7232  -20.9076 C   0  0  0  0  0  0  0  0  0  0  0  0
  -23.8924  -36.4911  -22.1284 C   0  0  0  0  0  0  0  0  0  0  0  0
  -22.7704  -35.5512  -21.7731 C   0  0  0  0  0  0  0  0  0  0  0  0
  -22.6494  -34.2122  -22.0821 C   0  0  0  0  0  0  0  0  0  0  0  0
  -21.5291  -33.5902  -21.4370 C   0  0  0  0  0  0  0  0  0  0  0  0
  -21.0817  -32.2482  -21.4497 C   0  0  0  0  0  0  0  0  0  0  0  0
  -19.9179  -31.8847  -20.7654 C   0  0  0  0  0  0  0  0  0  0  0  0
  -19.1956  -32.8345  -20.0557 C   0  0  0  0  0  0  0  0  0  0  0  0
  -19.6272  -34.1602  -20.0023 C   0  0  0  0  0  0  0  0  0  0  0  0
  -20.7980  -34.5190  -20.6937 C   0  0  0  0  0  0  0  0  0  0  0  0
  -21.5192  -36.0717  -20.7434 S   0  0  0  0  0  0  0  0  0  0  0  0
  -26.7168  -32.1067  -19.6823 C   0  0  0  0  0  0  0  0  0  0  0  0
  -26.1325  -31.1168  -18.9378 N   0  0  0  0  0  0  0  0  0  0  0  0
  1  2  3  0
  2  3  1  0
  3  4  2  0
  4  5  1  0
  5  6  1  0
  6  7  2  0
  6  8  1  0
  8  9  1  0
  9 10  1  0
 10 11  1  0
 11 12  2  0
 12 13  1  0
 13 14  2  0
 14 15  1  0
 15 16  2  0
 16 17  1  0
 17 18  2  0
 18 19  1  0
  5 20  2  0
 20 21  1  0
 21  3  1  0
 19 11  1  0
 18 13  1  0
M  END
>  <fragmenstein_mode>  (337) 
expansion

>  <name>  (337) 
FDOQSGVVYRWXRZ-UHFFFAOYSA-N

>  <fragmenstein_runtime>  (337) 
4.759806

>  <HIPPO Compound ID>  (337) 
51412

>  <SLURM_JOB_NAME>  (337) 
BulkDock.place:Flavi_NS5_RdRp:RdRp_knitwork_green_site_rna_tunnel_impure_split4000_batch001

>  <ref_mols>  (337) 
d0472b,3vws-b

>  <Multi-SuCOS>  (337) 
0.532159

>  <tags>  (337) 
['Fragmenstein placed', 'RdRp_knitwork_green_site_rna_tunnel_impure_fragalysis.sdf Pose OK']

>  <scratch_subdir>  (337) 
/opt/xchem-fragalysis-2/maxwin/BulkDock/SCRATCH/220452/C51412-P217

>  <energy_score>  (337) 
-26.589946

>  <fragmenstein_error>  (337) 
None

>  <csv_name>  (337) 
RdRp_knitwork_green_site_rna_tunnel_impure_split4000_batch001.csv

>  <merge_set>  (337) 
RdRp_knitwork_green_site_rna_tunnel_impure_fragalysis.sdf

>  <original ID>  (337) 
FDOQSGVVYRWXRZ-UHFFFAOYSA-N

>  <HIPPO Pose ID>  (337) 
206767

>  <fragmenstein_outcome>  (337) 
acceptable

>  <exports>  (337) 
['/opt/xchem-fragalysis-2/maxwin/BulkDock/OUTPUTS/RdRp_knitwork_green_site_rna_tunnel_impure_split4000_batch001_220452.sdf', '/opt/xchem-fragalysis-2/maxwin/BulkDock/OUTPUTS/RdRp_knitwork_green_site_rna_tunnel_impure_fragalysis.sdf']

>  <SLURM_JOB_ID>  (337) 
220452

>  <distance_score>  (337) 
0.930304

>  <original SMILES>  (337) 
N#Cc1cc(C(=O)NCCc2cc3ccccc3s2)c[nH]1

>  <alias>  (337) 
None

>  <ref_pdb>  (337) 
3vws-b

>  <inchikey>  (337) 
FDOQSGVVYRWXRZ-UHFFFAOYSA-N

$$$$
JLMNNNUCENKWBV-HNNXBMFYSA-N
     RDKit          3D

 21 22  0  0  0  0  0  0  0  0999 V2000
  -21.4259  -34.3617  -26.4442 C   0  0  0  0  0  0  0  0  0  0  0  0
  -21.5335  -33.1529  -25.7107 O   0  0  0  0  0  0  0  0  0  0  0  0
  -21.1917  -33.3407  -24.3313 C   0  0  0  0  0  0  0  0  0  0  0  0
  -21.7095  -32.1908  -23.4624 C   0  0  1  0  0  0  0  0  0  0  0  0
  -21.3765  -32.4794  -21.9929 C   0  0  0  0  0  0  0  0  0  0  0  0
  -21.0098  -30.9981  -23.8306 O   0  0  0  0  0  0  0  0  0  0  0  0
  -23.2166  -32.0846  -23.7549 C   0  0  0  0  0  0  0  0  0  0  0  0
  -23.9997  -31.4924  -22.7206 N   0  0  0  0  0  0  0  0  0  0  0  0
  -25.5241  -31.4764  -22.5096 C   0  0  0  0  0  0  0  0  0  0  0  0
  -26.3601  -31.8676  -23.1700 O   0  0  0  0  0  0  0  0  0  0  0  0
  -25.5768  -30.8522  -21.0981 N   0  0  0  0  0  0  0  0  0  0  0  0
  -26.6590  -30.5220  -20.3061 C   0  0  0  0  0  0  0  0  0  0  0  0
  -27.9407  -30.4144  -20.8409 C   0  0  0  0  0  0  0  0  0  0  0  0
  -29.0196  -30.1845  -19.9958 C   0  0  0  0  0  0  0  0  0  0  0  0
  -28.8250  -30.1550  -18.6134 C   0  0  0  0  0  0  0  0  0  0  0  0
  -27.5207  -30.2117  -18.0903 C   0  0  0  0  0  0  0  0  0  0  0  0
  -26.4343  -30.3523  -18.9468 C   0  0  0  0  0  0  0  0  0  0  0  0
  -27.2751  -30.2818  -16.6089 C   0  0  0  0  0  0  0  0  0  0  0  0
  -28.5139  -29.9229  -15.8033 C   0  0  0  0  0  0  0  0  0  0  0  0
  -29.7401  -30.5449  -16.4432 C   0  0  0  0  0  0  0  0  0  0  0  0
  -29.9249  -29.9852  -17.7668 N   0  0  0  0  0  0  0  0  0  0  0  0
  1  2  1  0
  2  3  1  0
  3  4  1  0
  4  5  1  1
  4  6  1  0
  4  7  1  0
  7  8  1  0
  8  9  1  0
  9 10  2  0
  9 11  1  0
 11 12  1  0
 12 13  2  0
 13 14  1  0
 14 15  2  0
 15 16  1  0
 16 17  2  0
 16 18  1  0
 18 19  1  0
 19 20  1  0
 20 21  1  0
 17 12  1  0
 21 15  1  0
M  END
>  <fragmenstein_mode>  (338) 
expansion

>  <name>  (338) 
JLMNNNUCENKWBV-HNNXBMFYSA-N

>  <fragmenstein_runtime>  (338) 
11.089031

>  <HIPPO Compound ID>  (338) 
37157

>  <SLURM_JOB_NAME>  (338) 
BulkDock.place:Flavi_NS5_RdRp:RdRp_knitwork_green_site_rna_tunnel_impure_split4000_batch013

>  <ref_mols>  (338) 
z0904a,z0211a

>  <Multi-SuCOS>  (338) 
0.522136

>  <tags>  (338) 
['Fragmenstein placed', 'RdRp_knitwork_green_site_rna_tunnel_impure_fragalysis.sdf Pose OK']

>  <scratch_subdir>  (338) 
/opt/xchem-fragalysis-2/maxwin/BulkDock/SCRATCH/220464/C37157-P7

>  <energy_score>  (338) 
-22.902645

>  <fragmenstein_error>  (338) 
None

>  <csv_name>  (338) 
RdRp_knitwork_green_site_rna_tunnel_impure_split4000_batch013.csv

>  <merge_set>  (338) 
RdRp_knitwork_green_site_rna_tunnel_impure_fragalysis.sdf

>  <original ID>  (338) 
JLMNNNUCENKWBV-HNNXBMFYSA-N

>  <HIPPO Pose ID>  (338) 
206805

>  <fragmenstein_outcome>  (338) 
acceptable

>  <exports>  (338) 
['/opt/xchem-fragalysis-2/maxwin/BulkDock/OUTPUTS/RdRp_knitwork_green_site_rna_tunnel_impure_split4000_batch013_220464.sdf', '/opt/xchem-fragalysis-2/maxwin/BulkDock/OUTPUTS/RdRp_knitwork_green_site_rna_tunnel_impure_fragalysis.sdf']

>  <SLURM_JOB_ID>  (338) 
220464

>  <distance_score>  (338) 
0.969789

>  <original SMILES>  (338) 
COC[C@@](C)(O)CNC(=O)Nc1ccc2c(c1)CCCN2

>  <alias>  (338) 
None

>  <ref_pdb>  (338) 
z0904a

>  <inchikey>  (338) 
JLMNNNUCENKWBV-HNNXBMFYSA-N

$$$$
JLMNNNUCENKWBV-HNNXBMFYSA-N
     RDKit          3D

 21 22  0  0  0  0  0  0  0  0999 V2000
  -21.4027  -34.1352  -26.5193 C   0  0  0  0  0  0  0  0  0  0  0  0
  -21.5137  -32.9808  -25.7102 O   0  0  0  0  0  0  0  0  0  0  0  0
  -21.0694  -33.2035  -24.3656 C   0  0  0  0  0  0  0  0  0  0  0  0
  -21.6095  -32.1071  -23.4401 C   0  0  1  0  0  0  0  0  0  0  0  0
  -21.1470  -32.3622  -22.0021 C   0  0  0  0  0  0  0  0  0  0  0  0
  -21.0409  -30.8551  -23.8418 O   0  0  0  0  0  0  0  0  0  0  0  0
  -23.1381  -32.1323  -23.6136 C   0  0  0  0  0  0  0  0  0  0  0  0
  -23.8726  -31.5628  -22.5328 N   0  0  0  0  0  0  0  0  0  0  0  0
  -25.2643  -30.9130  -22.5085 C   0  0  0  0  0  0  0  0  0  0  0  0
  -25.9790  -30.6772  -23.3581 O   0  0  0  0  0  0  0  0  0  0  0  0
  -25.4464  -30.7691  -20.9828 N   0  0  0  0  0  0  0  0  0  0  0  0
  -26.5504  -30.4046  -20.2481 C   0  0  0  0  0  0  0  0  0  0  0  0
  -27.8104  -30.3003  -20.8273 C   0  0  0  0  0  0  0  0  0  0  0  0
  -28.9185  -30.1057  -20.0144 C   0  0  0  0  0  0  0  0  0  0  0  0
  -28.7576  -29.9658  -18.6340 C   0  0  0  0  0  0  0  0  0  0  0  0
  -27.4688  -30.0034  -18.0726 C   0  0  0  0  0  0  0  0  0  0  0  0
  -26.3670  -30.2218  -18.8874 C   0  0  0  0  0  0  0  0  0  0  0  0
  -27.2300  -29.8559  -16.5975 C   0  0  0  0  0  0  0  0  0  0  0  0
  -28.4959  -30.0257  -15.7810 C   0  0  0  0  0  0  0  0  0  0  0  0
  -29.6925  -29.4480  -16.4982 C   0  0  0  0  0  0  0  0  0  0  0  0
  -29.8917  -29.9906  -17.8201 N   0  0  0  0  0  0  0  0  0  0  0  0
  1  2  1  0
  2  3  1  0
  3  4  1  0
  4  5  1  1
  4  6  1  0
  4  7  1  0
  7  8  1  0
  8  9  1  0
  9 10  2  0
  9 11  1  0
 11 12  1  0
 12 13  2  0
 13 14  1  0
 14 15  2  0
 15 16  1  0
 16 17  2  0
 16 18  1  0
 18 19  1  0
 19 20  1  0
 20 21  1  0
 17 12  1  0
 21 15  1  0
M  END
>  <fragmenstein_mode>  (339) 
expansion

>  <name>  (339) 
JLMNNNUCENKWBV-HNNXBMFYSA-N

>  <fragmenstein_runtime>  (339) 
10.433176

>  <HIPPO Compound ID>  (339) 
37157

>  <SLURM_JOB_NAME>  (339) 
BulkDock.place:Flavi_NS5_RdRp:RdRp_knitwork_green_site_rna_tunnel_impure_split4000_batch013

>  <ref_mols>  (339) 
z0904a,z0211a

>  <Multi-SuCOS>  (339) 
0.533502

>  <tags>  (339) 
['Fragmenstein placed', 'RdRp_knitwork_green_site_rna_tunnel_impure_fragalysis.sdf Pose OK']

>  <scratch_subdir>  (339) 
/opt/xchem-fragalysis-2/maxwin/BulkDock/SCRATCH/220464/C37157-P102

>  <energy_score>  (339) 
-24.285206

>  <fragmenstein_error>  (339) 
None

>  <csv_name>  (339) 
RdRp_knitwork_green_site_rna_tunnel_impure_split4000_batch013.csv

>  <merge_set>  (339) 
RdRp_knitwork_green_site_rna_tunnel_impure_fragalysis.sdf

>  <original ID>  (339) 
JLMNNNUCENKWBV-HNNXBMFYSA-N

>  <HIPPO Pose ID>  (339) 
206815

>  <fragmenstein_outcome>  (339) 
acceptable

>  <exports>  (339) 
['/opt/xchem-fragalysis-2/maxwin/BulkDock/OUTPUTS/RdRp_knitwork_green_site_rna_tunnel_impure_split4000_batch013_220464.sdf', '/opt/xchem-fragalysis-2/maxwin/BulkDock/OUTPUTS/RdRp_knitwork_green_site_rna_tunnel_impure_fragalysis.sdf']

>  <SLURM_JOB_ID>  (339) 
220464

>  <distance_score>  (339) 
0.958078

>  <original SMILES>  (339) 
COC[C@@](C)(O)CNC(=O)Nc1ccc2c(c1)CCCN2

>  <alias>  (339) 
None

>  <ref_pdb>  (339) 
z0211a

>  <inchikey>  (339) 
JLMNNNUCENKWBV-HNNXBMFYSA-N

$$$$
RYINUJYFPYCEFQ-UHFFFAOYSA-N
     RDKit          3D

 15 17  0  0  0  0  0  0  0  0999 V2000
  -27.8431  -30.3512  -15.8373 C   0  0  0  0  0  0  0  0  0  0  0  0
  -26.7393  -29.7020  -16.3719 C   0  0  0  0  0  0  0  0  0  0  0  0
  -26.7227  -29.3653  -17.7261 C   0  0  0  0  0  0  0  0  0  0  0  0
  -27.8018  -29.6910  -18.5876 C   0  0  0  0  0  0  0  0  0  0  0  0
  -27.8835  -29.3890  -19.9678 C   0  0  0  0  0  0  0  0  0  0  0  0
  -26.9055  -28.5324  -20.6534 C   0  0  0  0  0  0  0  0  0  0  0  0
  -26.3411  -27.4450  -20.1504 N   0  0  0  0  0  0  0  0  0  0  0  0
  -25.6023  -26.8050  -21.1244 C   0  0  0  0  0  0  0  0  0  0  0  0
  -25.5131  -27.4630  -22.3298 C   0  0  0  0  0  0  0  0  0  0  0  0
  -26.4145  -28.9208  -22.2605 S   0  0  0  0  0  0  0  0  0  0  0  0
  -28.9184  -29.7719  -20.7686 N   0  0  0  0  0  0  0  0  0  0  0  0
  -29.9320  -30.4372  -20.1961 C   0  0  0  0  0  0  0  0  0  0  0  0
  -29.9621  -30.7584  -18.8547 C   0  0  0  0  0  0  0  0  0  0  0  0
  -28.8967  -30.3829  -18.0331 C   0  0  0  0  0  0  0  0  0  0  0  0
  -28.9138  -30.6901  -16.6626 C   0  0  0  0  0  0  0  0  0  0  0  0
  1  2  2  0
  2  3  1  0
  3  4  2  0
  4  5  1  0
  5  6  1  0
  6  7  2  0
  7  8  1  0
  8  9  2  0
  9 10  1  0
  5 11  2  0
 11 12  1  0
 12 13  2  0
 13 14  1  0
 14 15  2  0
 15  1  1  0
 14  4  1  0
 10  6  1  0
M  END
>  <fragmenstein_mode>  (340) 
expansion

>  <name>  (340) 
RYINUJYFPYCEFQ-UHFFFAOYSA-N

>  <fragmenstein_runtime>  (340) 
1.598882

>  <HIPPO Compound ID>  (340) 
30341

>  <SLURM_JOB_NAME>  (340) 
BulkDock.place:Flavi_NS5_RdRp:RdRp_knitwork_green_site_rna_tunnel_impure_split4000_batch002

>  <ref_mols>  (340) 
z0111a,z0496a

>  <Multi-SuCOS>  (340) 
0.795546

>  <tags>  (340) 
['Fragmenstein placed', 'RdRp_knitwork_green_site_rna_tunnel_impure_fragalysis.sdf Pose OK']

>  <scratch_subdir>  (340) 
/opt/xchem-fragalysis-2/maxwin/BulkDock/SCRATCH/220453/C30341-P136

>  <energy_score>  (340) 
-58.072942

>  <fragmenstein_error>  (340) 
None

>  <csv_name>  (340) 
RdRp_knitwork_green_site_rna_tunnel_impure_split4000_batch002.csv

>  <merge_set>  (340) 
RdRp_knitwork_green_site_rna_tunnel_impure_fragalysis.sdf

>  <original ID>  (340) 
RYINUJYFPYCEFQ-UHFFFAOYSA-N

>  <HIPPO Pose ID>  (340) 
206909

>  <fragmenstein_outcome>  (340) 
acceptable

>  <exports>  (340) 
['/opt/xchem-fragalysis-2/maxwin/BulkDock/OUTPUTS/RdRp_knitwork_green_site_rna_tunnel_impure_split4000_batch002_220453.sdf', '/opt/xchem-fragalysis-2/maxwin/BulkDock/OUTPUTS/RdRp_knitwork_green_site_rna_tunnel_impure_fragalysis.sdf']

>  <SLURM_JOB_ID>  (340) 
220453

>  <distance_score>  (340) 
0.693014

>  <original SMILES>  (340) 
c1ccc2c(-c3nccs3)nccc2c1

>  <alias>  (340) 
None

>  <ref_pdb>  (340) 
z0496a

>  <inchikey>  (340) 
RYINUJYFPYCEFQ-UHFFFAOYSA-N

$$$$
YRJATVHBJIXSGN-CYBMUJFWSA-N
     RDKit          3D

 16 18  0  0  0  0  0  0  0  0999 V2000
  -24.6766  -32.4350  -24.8062 O   0  0  0  0  0  0  0  0  0  0  0  0
  -23.4944  -32.4951  -24.5109 C   0  0  0  0  0  0  0  0  0  0  0  0
  -22.4468  -33.3219  -25.2095 C   0  0  0  0  0  0  0  0  0  0  0  0
  -21.1457  -32.9777  -24.4903 C   0  0  0  0  0  0  0  0  0  0  0  0
  -21.5412  -32.1484  -23.2668 C   0  0  2  0  0  0  0  0  0  0  0  0
  -21.2314  -32.7840  -21.9248 C   0  0  0  0  0  0  0  0  0  0  0  0
  -20.2066  -32.1762  -21.1688 C   0  0  0  0  0  0  0  0  0  0  0  0
  -19.7196  -32.7631  -20.0083 C   0  0  0  0  0  0  0  0  0  0  0  0
  -20.2428  -33.9765  -19.5835 C   0  0  0  0  0  0  0  0  0  0  0  0
  -21.2853  -34.5931  -20.2862 C   0  0  0  0  0  0  0  0  0  0  0  0
  -21.7384  -35.8570  -19.8789 C   0  0  0  0  0  0  0  0  0  0  0  0
  -22.6985  -36.5511  -20.6107 C   0  0  0  0  0  0  0  0  0  0  0  0
  -23.3205  -35.9367  -21.6755 C   0  0  0  0  0  0  0  0  0  0  0  0
  -22.9193  -34.6586  -22.0522 C   0  0  0  0  0  0  0  0  0  0  0  0
  -21.8355  -33.9822  -21.4390 C   0  0  0  0  0  0  0  0  0  0  0  0
  -22.9277  -31.8574  -23.4429 N   0  0  0  0  0  0  0  0  0  0  0  0
  1  2  2  0
  2  3  1  0
  3  4  1  0
  4  5  1  0
  5  6  1  1
  6  7  2  0
  7  8  1  0
  8  9  2  0
  9 10  1  0
 10 11  2  0
 11 12  1  0
 12 13  2  0
 13 14  1  0
 14 15  2  0
  5 16  1  0
 16  2  1  0
 15  6  1  0
 15 10  1  0
M  END
>  <fragmenstein_mode>  (341) 
expansion

>  <name>  (341) 
YRJATVHBJIXSGN-CYBMUJFWSA-N

>  <fragmenstein_runtime>  (341) 
7.574021

>  <HIPPO Compound ID>  (341) 
40400

>  <SLURM_JOB_NAME>  (341) 
BulkDock.place:Flavi_NS5_RdRp:RdRp_knitwork_green_site_rna_tunnel_impure_split4000_batch011

>  <ref_mols>  (341) 
z1018a,3vws-b

>  <Multi-SuCOS>  (341) 
0.626376

>  <tags>  (341) 
['Fragmenstein placed', 'RdRp_knitwork_green_site_rna_tunnel_impure_fragalysis.sdf Pose OK']

>  <scratch_subdir>  (341) 
/opt/xchem-fragalysis-2/maxwin/BulkDock/SCRATCH/220462/C40400-P206

>  <energy_score>  (341) 
-27.358784

>  <fragmenstein_error>  (341) 
None

>  <csv_name>  (341) 
RdRp_knitwork_green_site_rna_tunnel_impure_split4000_batch011.csv

>  <merge_set>  (341) 
RdRp_knitwork_green_site_rna_tunnel_impure_fragalysis.sdf

>  <original ID>  (341) 
YRJATVHBJIXSGN-CYBMUJFWSA-N

>  <HIPPO Pose ID>  (341) 
207156

>  <fragmenstein_outcome>  (341) 
acceptable

>  <exports>  (341) 
['/opt/xchem-fragalysis-2/maxwin/BulkDock/OUTPUTS/RdRp_knitwork_green_site_rna_tunnel_impure_split4000_batch011_220462.sdf', '/opt/xchem-fragalysis-2/maxwin/BulkDock/OUTPUTS/RdRp_knitwork_green_site_rna_tunnel_impure_fragalysis.sdf']

>  <SLURM_JOB_ID>  (341) 
220462

>  <distance_score>  (341) 
0.951054

>  <original SMILES>  (341) 
O=C1CC[C@H](c2cccc3ccccc23)N1

>  <alias>  (341) 
None

>  <ref_pdb>  (341) 
z1018a

>  <inchikey>  (341) 
YRJATVHBJIXSGN-CYBMUJFWSA-N

$$$$
SHENAZADMNUPGS-VIFPVBQESA-N
     RDKit          3D

 18 19  0  0  0  0  0  0  0  0999 V2000
  -21.3794  -32.8383  -24.2989 C   0  0  0  0  0  0  0  0  0  0  0  0
  -22.1466  -32.0817  -23.2362 C   0  0  2  0  0  0  0  0  0  0  0  0
  -21.2208  -31.7577  -22.1963 O   0  0  0  0  0  0  0  0  0  0  0  0
  -23.2803  -32.9191  -22.6526 C   0  0  0  0  0  0  0  0  0  0  0  0
  -24.1054  -32.1267  -21.7772 N   0  0  0  0  0  0  0  0  0  0  0  0
  -25.4767  -31.4503  -22.0305 C   0  0  0  0  0  0  0  0  0  0  0  0
  -26.0926  -31.3703  -22.9855 O   0  0  0  0  0  0  0  0  0  0  0  0
  -25.8079  -30.9975  -20.5820 N   0  0  0  0  0  0  0  0  0  0  0  0
  -26.9781  -30.4592  -20.0500 C   0  0  0  0  0  0  0  0  0  0  0  0
  -28.1312  -30.3051  -20.8220 C   0  0  0  0  0  0  0  0  0  0  0  0
  -29.3246  -29.9346  -20.2133 C   0  0  0  0  0  0  0  0  0  0  0  0
  -29.3554  -29.7165  -18.8383 C   0  0  0  0  0  0  0  0  0  0  0  0
  -28.1828  -29.8128  -18.0713 C   0  0  0  0  0  0  0  0  0  0  0  0
  -28.1891  -29.6220  -16.6843 C   0  0  0  0  0  0  0  0  0  0  0  0
  -27.0175  -29.8049  -15.9576 C   0  0  0  0  0  0  0  0  0  0  0  0
  -25.8660  -30.1450  -16.6373 C   0  0  0  0  0  0  0  0  0  0  0  0
  -25.8207  -30.3197  -17.9743 N   0  0  0  0  0  0  0  0  0  0  0  0
  -26.9656  -30.1751  -18.6814 C   0  0  0  0  0  0  0  0  0  0  0  0
  2  1  1  6
  2  3  1  0
  2  4  1  0
  4  5  1  0
  5  6  1  0
  6  7  2  0
  6  8  1  0
  8  9  1  0
  9 10  2  0
 10 11  1  0
 11 12  2  0
 12 13  1  0
 13 14  2  0
 14 15  1  0
 15 16  2  0
 16 17  1  0
 17 18  2  0
 18  9  1  0
 18 13  1  0
M  END
>  <fragmenstein_mode>  (342) 
expansion

>  <name>  (342) 
SHENAZADMNUPGS-VIFPVBQESA-N

>  <fragmenstein_runtime>  (342) 
5.342627

>  <HIPPO Compound ID>  (342) 
33434

>  <SLURM_JOB_NAME>  (342) 
BulkDock.place:Flavi_NS5_RdRp:RdRp_knitwork_green_site_rna_tunnel_impure_split4000_batch005

>  <ref_mols>  (342) 
z0211a,z0881a

>  <Multi-SuCOS>  (342) 
0.755516

>  <tags>  (342) 
['Fragmenstein placed', 'RdRp_knitwork_green_site_rna_tunnel_impure_fragalysis.sdf Pose OK']

>  <scratch_subdir>  (342) 
/opt/xchem-fragalysis-2/maxwin/BulkDock/SCRATCH/220456/C33434-P173

>  <energy_score>  (342) 
-24.32603

>  <fragmenstein_error>  (342) 
None

>  <csv_name>  (342) 
RdRp_knitwork_green_site_rna_tunnel_impure_split4000_batch005.csv

>  <merge_set>  (342) 
RdRp_knitwork_green_site_rna_tunnel_impure_fragalysis.sdf

>  <original ID>  (342) 
SHENAZADMNUPGS-VIFPVBQESA-N

>  <HIPPO Pose ID>  (342) 
207307

>  <fragmenstein_outcome>  (342) 
acceptable

>  <exports>  (342) 
['/opt/xchem-fragalysis-2/maxwin/BulkDock/OUTPUTS/RdRp_knitwork_green_site_rna_tunnel_impure_split4000_batch005_220456.sdf', '/opt/xchem-fragalysis-2/maxwin/BulkDock/OUTPUTS/RdRp_knitwork_green_site_rna_tunnel_impure_fragalysis.sdf']

>  <SLURM_JOB_ID>  (342) 
220456

>  <distance_score>  (342) 
0.983745

>  <original SMILES>  (342) 
C[C@H](O)CNC(=O)Nc1cccc2cccnc12

>  <alias>  (342) 
None

>  <ref_pdb>  (342) 
z0881a

>  <inchikey>  (342) 
SHENAZADMNUPGS-VIFPVBQESA-N

$$$$
JGEDJFYXDZEYJA-CQSZACIVSA-N
     RDKit          3D

 20 22  0  0  0  0  0  0  0  0999 V2000
  -20.7200  -32.9835  -24.1374 C   0  0  0  0  0  0  0  0  0  0  0  0
  -21.8178  -32.9303  -23.0827 C   0  0  1  0  0  0  0  0  0  0  0  0
  -21.2583  -32.3486  -21.8903 O   0  0  0  0  0  0  0  0  0  0  0  0
  -22.8915  -31.9823  -23.6076 C   0  0  0  0  0  0  0  0  0  0  0  0
  -23.7243  -31.5643  -22.5384 N   0  0  0  0  0  0  0  0  0  0  0  0
  -25.1947  -31.1543  -22.5311 C   0  0  0  0  0  0  0  0  0  0  0  0
  -25.9641  -31.1655  -23.3652 O   0  0  0  0  0  0  0  0  0  0  0  0
  -25.3474  -30.7878  -21.0333 N   0  0  0  0  0  0  0  0  0  0  0  0
  -26.4706  -30.4686  -20.3042 C   0  0  0  0  0  0  0  0  0  0  0  0
  -26.3774  -30.2479  -18.9343 C   0  0  0  0  0  0  0  0  0  0  0  0
  -27.5236  -29.9663  -18.1930 C   0  0  0  0  0  0  0  0  0  0  0  0
  -28.7489  -29.9970  -18.8710 C   0  0  0  0  0  0  0  0  0  0  0  0
  -30.3208  -29.9340  -18.2309 S   0  0  0  0  0  0  0  0  0  0  0  0
  -30.9635  -29.9812  -19.8264 C   0  0  0  0  0  0  0  0  0  0  0  0
  -30.1018  -30.1181  -20.8000 N   0  0  0  0  0  0  0  0  0  0  0  0
  -28.8439  -30.1584  -20.2517 C   0  0  0  0  0  0  0  0  0  0  0  0
  -27.6814  -30.3691  -20.9789 C   0  0  0  0  0  0  0  0  0  0  0  0
  -22.2970  -34.3233  -22.7091 C   0  0  0  0  0  0  0  0  0  0  0  0
  -23.0591  -35.2022  -23.6772 C   0  0  0  0  0  0  0  0  0  0  0  0
  -23.7363  -34.7053  -22.4331 C   0  0  0  0  0  0  0  0  0  0  0  0
  2  1  1  6
  2  3  1  0
  2  4  1  0
  4  5  1  0
  5  6  1  0
  6  7  2  0
  6  8  1  0
  8  9  1  0
  9 10  2  0
 10 11  1  0
 11 12  2  0
 12 13  1  0
 13 14  1  0
 14 15  2  0
 15 16  1  0
 16 17  2  0
  2 18  1  0
 18 19  1  0
 19 20  1  0
 17  9  1  0
 20 18  1  0
 16 12  1  0
M  END
>  <fragmenstein_mode>  (343) 
expansion

>  <name>  (343) 
JGEDJFYXDZEYJA-CQSZACIVSA-N

>  <fragmenstein_runtime>  (343) 
3.815862

>  <HIPPO Compound ID>  (343) 
52455

>  <SLURM_JOB_NAME>  (343) 
BulkDock.place:Flavi_NS5_RdRp:RdRp_knitwork_green_site_rna_tunnel_impure_split4000_batch005

>  <ref_mols>  (343) 
z0211a,z0881a

>  <Multi-SuCOS>  (343) 
0.528653

>  <tags>  (343) 
['Fragmenstein placed', 'RdRp_knitwork_green_site_rna_tunnel_impure_fragalysis.sdf Pose OK']

>  <scratch_subdir>  (343) 
/opt/xchem-fragalysis-2/maxwin/BulkDock/SCRATCH/220456/C52455-P173

>  <energy_score>  (343) 
-33.18662

>  <fragmenstein_error>  (343) 
None

>  <csv_name>  (343) 
RdRp_knitwork_green_site_rna_tunnel_impure_split4000_batch005.csv

>  <merge_set>  (343) 
RdRp_knitwork_green_site_rna_tunnel_impure_fragalysis.sdf

>  <original ID>  (343) 
JGEDJFYXDZEYJA-CQSZACIVSA-N

>  <HIPPO Pose ID>  (343) 
207626

>  <fragmenstein_outcome>  (343) 
acceptable

>  <exports>  (343) 
['/opt/xchem-fragalysis-2/maxwin/BulkDock/OUTPUTS/RdRp_knitwork_green_site_rna_tunnel_impure_split4000_batch005_220456.sdf', '/opt/xchem-fragalysis-2/maxwin/BulkDock/OUTPUTS/RdRp_knitwork_green_site_rna_tunnel_impure_fragalysis.sdf']

>  <SLURM_JOB_ID>  (343) 
220456

>  <distance_score>  (343) 
0.877881

>  <original SMILES>  (343) 
C[C@@](O)(CNC(=O)Nc1ccc2scnc2c1)C1CC1

>  <alias>  (343) 
None

>  <ref_pdb>  (343) 
z0881a

>  <inchikey>  (343) 
JGEDJFYXDZEYJA-CQSZACIVSA-N

$$$$
TUXUXBUGFPLVLM-UHFFFAOYSA-N
     RDKit          3D

 15 17  0  0  0  0  0  0  0  0999 V2000
  -29.4818  -29.9244  -18.7673 C   0  0  0  0  0  0  0  0  0  0  0  0
  -28.8474  -29.6228  -19.9715 C   0  0  0  0  0  0  0  0  0  0  0  0
  -27.4426  -29.5608  -20.0712 C   0  0  0  0  0  0  0  0  0  0  0  0
  -26.7816  -29.1802  -21.3326 C   0  0  0  0  0  0  0  0  0  0  0  0
  -25.9899  -28.0304  -21.4257 C   0  0  0  0  0  0  0  0  0  0  0  0
  -25.4530  -27.6797  -22.6559 C   0  0  0  0  0  0  0  0  0  0  0  0
  -25.6460  -28.3828  -23.7906 N   0  0  0  0  0  0  0  0  0  0  0  0
  -26.3917  -29.4983  -23.6911 C   0  0  0  0  0  0  0  0  0  0  0  0
  -26.9720  -29.9254  -22.5030 C   0  0  0  0  0  0  0  0  0  0  0  0
  -26.6882  -29.8467  -18.9015 C   0  0  0  0  0  0  0  0  0  0  0  0
  -25.2972  -29.9006  -18.5901 C   0  0  0  0  0  0  0  0  0  0  0  0
  -25.1554  -30.2361  -17.2648 C   0  0  0  0  0  0  0  0  0  0  0  0
  -26.4085  -30.3726  -16.7410 N   0  0  0  0  0  0  0  0  0  0  0  0
  -27.3596  -30.1480  -17.7112 C   0  0  0  0  0  0  0  0  0  0  0  0
  -28.7520  -30.1838  -17.6100 C   0  0  0  0  0  0  0  0  0  0  0  0
  1  2  2  0
  2  3  1  0
  3  4  1  0
  4  5  2  0
  5  6  1  0
  6  7  2  0
  7  8  1  0
  8  9  2  0
  3 10  2  0
 10 11  1  0
 11 12  2  0
 12 13  1  0
 13 14  1  0
 14 15  2  0
 15  1  1  0
  9  4  1  0
 14 10  1  0
M  END
>  <fragmenstein_mode>  (344) 
expansion

>  <name>  (344) 
TUXUXBUGFPLVLM-UHFFFAOYSA-N

>  <fragmenstein_runtime>  (344) 
2.061437

>  <HIPPO Compound ID>  (344) 
28593

>  <SLURM_JOB_NAME>  (344) 
BulkDock.place:Flavi_NS5_RdRp:RdRp_knitwork_green_site_rna_tunnel_impure_split4000_batch009

>  <ref_mols>  (344) 
z0041a,z0221a

>  <Multi-SuCOS>  (344) 
0.751853

>  <tags>  (344) 
['Fragmenstein placed', 'RdRp_knitwork_green_site_rna_tunnel_impure_fragalysis.sdf Pose OK']

>  <scratch_subdir>  (344) 
/opt/xchem-fragalysis-2/maxwin/BulkDock/SCRATCH/220460/C28593-P105

>  <energy_score>  (344) 
-20.170641

>  <fragmenstein_error>  (344) 
None

>  <csv_name>  (344) 
RdRp_knitwork_green_site_rna_tunnel_impure_split4000_batch009.csv

>  <merge_set>  (344) 
RdRp_knitwork_green_site_rna_tunnel_impure_fragalysis.sdf

>  <original ID>  (344) 
TUXUXBUGFPLVLM-UHFFFAOYSA-N

>  <HIPPO Pose ID>  (344) 
208056

>  <fragmenstein_outcome>  (344) 
acceptable

>  <exports>  (344) 
['/opt/xchem-fragalysis-2/maxwin/BulkDock/OUTPUTS/RdRp_knitwork_green_site_rna_tunnel_impure_split4000_batch009_220460.sdf', '/opt/xchem-fragalysis-2/maxwin/BulkDock/OUTPUTS/RdRp_knitwork_green_site_rna_tunnel_impure_fragalysis.sdf']

>  <SLURM_JOB_ID>  (344) 
220460

>  <distance_score>  (344) 
0.942527

>  <original SMILES>  (344) 
c1cc(-c2ccncc2)c2cc[nH]c2c1

>  <alias>  (344) 
None

>  <ref_pdb>  (344) 
z0221a

>  <inchikey>  (344) 
TUXUXBUGFPLVLM-UHFFFAOYSA-N

$$$$
PYNWYONGDSIRDW-UHFFFAOYSA-N
     RDKit          3D

 10 10  0  0  0  0  0  0  0  0999 V2000
  -30.1743  -30.4380  -20.0578 C   0  0  0  0  0  0  0  0  0  0  0  0
  -29.6821  -30.2677  -18.6238 C   0  0  0  0  0  0  0  0  0  0  0  0
  -28.5172  -29.3852  -18.6012 N   0  0  0  0  0  0  0  0  0  0  0  0
  -27.6220  -29.6315  -17.4647 C   0  0  0  0  0  0  0  0  0  0  0  0
  -26.7769  -30.9124  -17.5637 C   0  0  0  0  0  0  0  0  0  0  0  0
  -26.0404  -31.1117  -18.8614 C   0  0  0  0  0  0  0  0  0  0  0  0
  -24.8417  -31.7827  -19.0184 C   0  0  0  0  0  0  0  0  0  0  0  0
  -24.4317  -31.8979  -20.6786 S   0  0  0  0  0  0  0  0  0  0  0  0
  -25.8505  -31.0300  -21.0705 C   0  0  0  0  0  0  0  0  0  0  0  0
  -26.6086  -30.6768  -20.0577 N   0  0  0  0  0  0  0  0  0  0  0  0
  1  2  1  0
  2  3  1  0
  3  4  1  0
  4  5  1  0
  5  6  1  0
  6  7  2  0
  7  8  1  0
  8  9  1  0
  9 10  2  0
 10  6  1  0
M  END
>  <fragmenstein_mode>  (345) 
expansion

>  <name>  (345) 
PYNWYONGDSIRDW-UHFFFAOYSA-N

>  <fragmenstein_runtime>  (345) 
3.063712

>  <HIPPO Compound ID>  (345) 
37510

>  <SLURM_JOB_NAME>  (345) 
BulkDock.place:Flavi_NS5_RdRp:RdRp_knitwork_green_site_rna_tunnel_impure_split4000_batch017

>  <ref_mols>  (345) 
z0386a,z0521a

>  <Multi-SuCOS>  (345) 
0.531869

>  <tags>  (345) 
['Fragmenstein placed', 'RdRp_knitwork_green_site_rna_tunnel_impure_fragalysis.sdf Pose OK']

>  <scratch_subdir>  (345) 
/opt/xchem-fragalysis-2/maxwin/BulkDock/SCRATCH/220468/C37510-P141

>  <energy_score>  (345) 
-55.990973

>  <fragmenstein_error>  (345) 
None

>  <csv_name>  (345) 
RdRp_knitwork_green_site_rna_tunnel_impure_split4000_batch017.csv

>  <merge_set>  (345) 
RdRp_knitwork_green_site_rna_tunnel_impure_fragalysis.sdf

>  <original ID>  (345) 
PYNWYONGDSIRDW-UHFFFAOYSA-N

>  <HIPPO Pose ID>  (345) 
208149

>  <fragmenstein_outcome>  (345) 
acceptable

>  <exports>  (345) 
['/opt/xchem-fragalysis-2/maxwin/BulkDock/OUTPUTS/RdRp_knitwork_green_site_rna_tunnel_impure_split4000_batch017_220468.sdf', '/opt/xchem-fragalysis-2/maxwin/BulkDock/OUTPUTS/RdRp_knitwork_green_site_rna_tunnel_impure_fragalysis.sdf']

>  <SLURM_JOB_ID>  (345) 
220468

>  <distance_score>  (345) 
0.828871

>  <original SMILES>  (345) 
CCNCCc1cscn1

>  <alias>  (345) 
None

>  <ref_pdb>  (345) 
z0521a

>  <inchikey>  (345) 
PYNWYONGDSIRDW-UHFFFAOYSA-N

$$$$
LZEZZOBYMRLTRX-UHFFFAOYSA-N
     RDKit          3D

 15 17  0  0  0  0  0  0  0  0999 V2000
  -28.4434  -30.6614  -16.4211 C   0  0  0  0  0  0  0  0  0  0  0  0
  -27.6209  -29.9294  -17.2610 C   0  0  0  0  0  0  0  0  0  0  0  0
  -27.9888  -29.7892  -18.5984 C   0  0  0  0  0  0  0  0  0  0  0  0
  -27.1699  -29.1074  -19.5061 C   0  0  0  0  0  0  0  0  0  0  0  0
  -27.5027  -29.0594  -20.8632 C   0  0  0  0  0  0  0  0  0  0  0  0
  -26.5770  -28.4980  -21.8295 C   0  0  0  0  0  0  0  0  0  0  0  0
  -25.9003  -27.3042  -21.6588 C   0  0  0  0  0  0  0  0  0  0  0  0
  -24.9258  -26.9885  -23.0370 S   0  0  0  0  0  0  0  0  0  0  0  0
  -25.4407  -28.4730  -23.7206 C   0  0  0  0  0  0  0  0  0  0  0  0
  -26.3226  -29.1555  -23.0218 N   0  0  0  0  0  0  0  0  0  0  0  0
  -28.7026  -29.6339  -21.3004 C   0  0  0  0  0  0  0  0  0  0  0  0
  -29.5500  -30.2780  -20.3985 C   0  0  0  0  0  0  0  0  0  0  0  0
  -29.1826  -30.3844  -19.0488 C   0  0  0  0  0  0  0  0  0  0  0  0
  -29.9308  -31.0979  -18.1133 C   0  0  0  0  0  0  0  0  0  0  0  0
  -29.5942  -31.2451  -16.8103 N   0  0  0  0  0  0  0  0  0  0  0  0
  1  2  2  0
  2  3  1  0
  3  4  2  0
  4  5  1  0
  5  6  1  0
  6  7  2  0
  7  8  1  0
  8  9  1  0
  9 10  2  0
  5 11  2  0
 11 12  1  0
 12 13  2  0
 13 14  1  0
 14 15  2  0
 15  1  1  0
 13  3  1  0
 10  6  1  0
M  END
>  <fragmenstein_mode>  (346) 
expansion

>  <name>  (346) 
LZEZZOBYMRLTRX-UHFFFAOYSA-N

>  <fragmenstein_runtime>  (346) 
5.808211

>  <HIPPO Compound ID>  (346) 
29796

>  <SLURM_JOB_NAME>  (346) 
BulkDock.place:Flavi_NS5_RdRp:RdRp_knitwork_green_site_rna_tunnel_impure_split4000_batch002

>  <ref_mols>  (346) 
z0111a,z0496a

>  <Multi-SuCOS>  (346) 
0.803391

>  <tags>  (346) 
['Fragmenstein placed', 'RdRp_knitwork_green_site_rna_tunnel_impure_fragalysis.sdf Pose OK']

>  <scratch_subdir>  (346) 
/opt/xchem-fragalysis-2/maxwin/BulkDock/SCRATCH/220453/C29796-P136

>  <energy_score>  (346) 
-39.403236

>  <fragmenstein_error>  (346) 
None

>  <csv_name>  (346) 
RdRp_knitwork_green_site_rna_tunnel_impure_split4000_batch002.csv

>  <merge_set>  (346) 
RdRp_knitwork_green_site_rna_tunnel_impure_fragalysis.sdf

>  <original ID>  (346) 
LZEZZOBYMRLTRX-UHFFFAOYSA-N

>  <HIPPO Pose ID>  (346) 
208608

>  <fragmenstein_outcome>  (346) 
acceptable

>  <exports>  (346) 
['/opt/xchem-fragalysis-2/maxwin/BulkDock/OUTPUTS/RdRp_knitwork_green_site_rna_tunnel_impure_split4000_batch002_220453.sdf', '/opt/xchem-fragalysis-2/maxwin/BulkDock/OUTPUTS/RdRp_knitwork_green_site_rna_tunnel_impure_fragalysis.sdf']

>  <SLURM_JOB_ID>  (346) 
220453

>  <distance_score>  (346) 
0.919145

>  <original SMILES>  (346) 
c1cc2cc(-c3cscn3)ccc2cn1

>  <alias>  (346) 
None

>  <ref_pdb>  (346) 
z0496a

>  <inchikey>  (346) 
LZEZZOBYMRLTRX-UHFFFAOYSA-N

$$$$
YPZWJAXWDDSFAX-UHFFFAOYSA-N
     RDKit          3D

 18 20  0  0  0  0  0  0  0  0999 V2000
  -28.5933  -30.6683  -21.4400 O   0  0  0  0  0  0  0  0  0  0  0  0
  -27.6409  -30.0549  -21.1656 C   0  0  0  0  0  0  0  0  0  0  0  0
  -27.0368  -29.7084  -19.7869 N   0  0  0  0  0  0  0  0  0  0  0  0
  -27.5158  -29.9565  -18.4989 C   0  0  0  0  0  0  0  0  0  0  0  0
  -28.8697  -30.2789  -18.3479 C   0  0  0  0  0  0  0  0  0  0  0  0
  -29.3916  -30.5239  -17.0867 C   0  0  0  0  0  0  0  0  0  0  0  0
  -28.5554  -30.4661  -15.9769 C   0  0  0  0  0  0  0  0  0  0  0  0
  -27.2054  -30.1737  -16.0902 C   0  0  0  0  0  0  0  0  0  0  0  0
  -26.4714  -30.1677  -14.9639 N   0  0  0  0  0  0  0  0  0  0  0  0
  -25.1552  -29.9012  -15.0616 C   0  0  0  0  0  0  0  0  0  0  0  0
  -24.5194  -29.6306  -16.2529 C   0  0  0  0  0  0  0  0  0  0  0  0
  -25.2765  -29.6375  -17.4176 C   0  0  0  0  0  0  0  0  0  0  0  0
  -26.6616  -29.9050  -17.3681 C   0  0  0  0  0  0  0  0  0  0  0  0
  -26.7956  -29.4940  -22.2249 C   0  0  0  0  0  0  0  0  0  0  0  0
  -26.7748  -29.8816  -23.4884 N   0  0  0  0  0  0  0  0  0  0  0  0
  -25.9327  -28.9914  -24.0988 C   0  0  0  0  0  0  0  0  0  0  0  0
  -25.4404  -28.1060  -23.1735 C   0  0  0  0  0  0  0  0  0  0  0  0
  -25.9629  -28.4288  -21.9539 O   0  0  0  0  0  0  0  0  0  0  0  0
  1  2  2  0
  2  3  1  0
  3  4  1  0
  4  5  2  0
  5  6  1  0
  6  7  2  0
  7  8  1  0
  8  9  2  0
  9 10  1  0
 10 11  2  0
 11 12  1  0
 12 13  2  0
  2 14  1  0
 14 15  2  0
 15 16  1  0
 16 17  2  0
 17 18  1  0
 13  4  1  0
 18 14  1  0
 13  8  1  0
M  END
>  <fragmenstein_mode>  (347) 
expansion

>  <name>  (347) 
YPZWJAXWDDSFAX-UHFFFAOYSA-N

>  <fragmenstein_runtime>  (347) 
2.487319

>  <HIPPO Compound ID>  (347) 
27252

>  <SLURM_JOB_NAME>  (347) 
BulkDock.place:Flavi_NS5_RdRp:RdRp_knitwork_green_site_rna_tunnel_impure_split4000_batch015

>  <ref_mols>  (347) 
z0221a,z1040a

>  <Multi-SuCOS>  (347) 
0.604384

>  <tags>  (347) 
['Fragmenstein placed', 'RdRp_knitwork_green_site_rna_tunnel_impure_fragalysis.sdf Pose OK']

>  <scratch_subdir>  (347) 
/opt/xchem-fragalysis-2/maxwin/BulkDock/SCRATCH/220466/C27252-P105

>  <energy_score>  (347) 
-30.260641

>  <fragmenstein_error>  (347) 
None

>  <csv_name>  (347) 
RdRp_knitwork_green_site_rna_tunnel_impure_split4000_batch015.csv

>  <merge_set>  (347) 
RdRp_knitwork_green_site_rna_tunnel_impure_fragalysis.sdf

>  <original ID>  (347) 
YPZWJAXWDDSFAX-UHFFFAOYSA-N

>  <HIPPO Pose ID>  (347) 
208775

>  <fragmenstein_outcome>  (347) 
acceptable

>  <exports>  (347) 
['/opt/xchem-fragalysis-2/maxwin/BulkDock/OUTPUTS/RdRp_knitwork_green_site_rna_tunnel_impure_split4000_batch015_220466.sdf', '/opt/xchem-fragalysis-2/maxwin/BulkDock/OUTPUTS/RdRp_knitwork_green_site_rna_tunnel_impure_fragalysis.sdf']

>  <SLURM_JOB_ID>  (347) 
220466

>  <distance_score>  (347) 
0.858262

>  <original SMILES>  (347) 
O=C(Nc1cccc2ncccc12)c1ncco1

>  <alias>  (347) 
None

>  <ref_pdb>  (347) 
z0221a

>  <inchikey>  (347) 
YPZWJAXWDDSFAX-UHFFFAOYSA-N

$$$$
GRMMOJZVZWMCNF-UHFFFAOYSA-N
     RDKit          3D

 19 21  0  0  0  0  0  0  0  0999 V2000
  -25.8166  -31.1299  -20.3248 O   0  0  0  0  0  0  0  0  0  0  0  0
  -26.4639  -30.1715  -20.4748 C   0  0  0  0  0  0  0  0  0  0  0  0
  -27.4780  -29.4972  -19.5376 N   0  0  0  0  0  0  0  0  0  0  0  0
  -27.8314  -29.7929  -18.2240 C   0  0  0  0  0  0  0  0  0  0  0  0
  -29.1900  -29.6750  -17.9327 C   0  0  0  0  0  0  0  0  0  0  0  0
  -29.6581  -30.0143  -16.6752 C   0  0  0  0  0  0  0  0  0  0  0  0
  -28.7648  -30.4707  -15.7112 C   0  0  0  0  0  0  0  0  0  0  0  0
  -27.4069  -30.5884  -15.9587 C   0  0  0  0  0  0  0  0  0  0  0  0
  -26.6307  -31.0154  -14.9457 N   0  0  0  0  0  0  0  0  0  0  0  0
  -25.3035  -31.1094  -15.1579 C   0  0  0  0  0  0  0  0  0  0  0  0
  -24.6958  -30.7672  -16.3449 C   0  0  0  0  0  0  0  0  0  0  0  0
  -25.5046  -30.3203  -17.3838 C   0  0  0  0  0  0  0  0  0  0  0  0
  -26.9089  -30.2415  -17.2342 C   0  0  0  0  0  0  0  0  0  0  0  0
  -26.3860  -29.4475  -21.7727 C   0  0  0  0  0  0  0  0  0  0  0  0
  -26.5429  -30.2043  -22.9225 C   0  0  0  0  0  0  0  0  0  0  0  0
  -26.1405  -29.6587  -24.1324 C   0  0  0  0  0  0  0  0  0  0  0  0
  -25.5475  -28.4040  -24.1270 C   0  0  0  0  0  0  0  0  0  0  0  0
  -25.4776  -27.6974  -22.9317 C   0  0  0  0  0  0  0  0  0  0  0  0
  -25.9264  -28.1718  -21.7454 N   0  0  0  0  0  0  0  0  0  0  0  0
  1  2  2  0
  2  3  1  0
  3  4  1  0
  4  5  2  0
  5  6  1  0
  6  7  2  0
  7  8  1  0
  8  9  2  0
  9 10  1  0
 10 11  2  0
 11 12  1  0
 12 13  2  0
  2 14  1  0
 14 15  2  0
 15 16  1  0
 16 17  2  0
 17 18  1  0
 18 19  2  0
 13  4  1  0
 19 14  1  0
 13  8  1  0
M  END
>  <fragmenstein_mode>  (348) 
expansion

>  <name>  (348) 
GRMMOJZVZWMCNF-UHFFFAOYSA-N

>  <fragmenstein_runtime>  (348) 
2.119663

>  <HIPPO Compound ID>  (348) 
27254

>  <SLURM_JOB_NAME>  (348) 
BulkDock.place:Flavi_NS5_RdRp:RdRp_knitwork_green_site_rna_tunnel_impure_split4000_batch015

>  <ref_mols>  (348) 
z0221a,z1040a

>  <Multi-SuCOS>  (348) 
0.616889

>  <tags>  (348) 
['Fragmenstein placed', 'RdRp_knitwork_green_site_rna_tunnel_impure_fragalysis.sdf Pose OK']

>  <scratch_subdir>  (348) 
/opt/xchem-fragalysis-2/maxwin/BulkDock/SCRATCH/220466/C27254-P105

>  <energy_score>  (348) 
-9.28419

>  <fragmenstein_error>  (348) 
None

>  <csv_name>  (348) 
RdRp_knitwork_green_site_rna_tunnel_impure_split4000_batch015.csv

>  <merge_set>  (348) 
RdRp_knitwork_green_site_rna_tunnel_impure_fragalysis.sdf

>  <original ID>  (348) 
GRMMOJZVZWMCNF-UHFFFAOYSA-N

>  <HIPPO Pose ID>  (348) 
208805

>  <fragmenstein_outcome>  (348) 
acceptable

>  <exports>  (348) 
['/opt/xchem-fragalysis-2/maxwin/BulkDock/OUTPUTS/RdRp_knitwork_green_site_rna_tunnel_impure_split4000_batch015_220466.sdf', '/opt/xchem-fragalysis-2/maxwin/BulkDock/OUTPUTS/RdRp_knitwork_green_site_rna_tunnel_impure_fragalysis.sdf']

>  <SLURM_JOB_ID>  (348) 
220466

>  <distance_score>  (348) 
0.808045

>  <original SMILES>  (348) 
O=C(Nc1cccc2ncccc12)c1ccccn1

>  <alias>  (348) 
None

>  <ref_pdb>  (348) 
z0221a

>  <inchikey>  (348) 
GRMMOJZVZWMCNF-UHFFFAOYSA-N

$$$$
PFZHLVUYNDEAGG-UHFFFAOYSA-N
     RDKit          3D

 18 20  0  0  0  0  0  0  0  0999 V2000
  -28.3045  -30.6362  -21.6631 O   0  0  0  0  0  0  0  0  0  0  0  0
  -27.4358  -29.9445  -21.3138 C   0  0  0  0  0  0  0  0  0  0  0  0
  -26.9442  -29.5992  -19.8982 N   0  0  0  0  0  0  0  0  0  0  0  0
  -27.4617  -29.9467  -18.6477 C   0  0  0  0  0  0  0  0  0  0  0  0
  -28.8015  -30.3398  -18.5636 C   0  0  0  0  0  0  0  0  0  0  0  0
  -29.3586  -30.6492  -17.3306 C   0  0  0  0  0  0  0  0  0  0  0  0
  -28.5714  -30.5881  -16.1845 C   0  0  0  0  0  0  0  0  0  0  0  0
  -27.2324  -30.2345  -16.2336 C   0  0  0  0  0  0  0  0  0  0  0  0
  -26.5412  -30.2370  -15.0798 N   0  0  0  0  0  0  0  0  0  0  0  0
  -25.2325  -29.9199  -15.1200 C   0  0  0  0  0  0  0  0  0  0  0  0
  -24.5629  -29.5885  -16.2773 C   0  0  0  0  0  0  0  0  0  0  0  0
  -25.2789  -29.5807  -17.4681 C   0  0  0  0  0  0  0  0  0  0  0  0
  -26.6542  -29.9007  -17.4805 C   0  0  0  0  0  0  0  0  0  0  0  0
  -26.5967  -29.2513  -22.2847 C   0  0  0  0  0  0  0  0  0  0  0  0
  -26.5707  -29.4638  -23.6438 C   0  0  0  0  0  0  0  0  0  0  0  0
  -25.7244  -28.5653  -24.2039 O   0  0  0  0  0  0  0  0  0  0  0  0
  -25.2825  -27.8338  -23.1493 C   0  0  0  0  0  0  0  0  0  0  0  0
  -25.7325  -28.2110  -21.9700 N   0  0  0  0  0  0  0  0  0  0  0  0
  1  2  2  0
  2  3  1  0
  3  4  1  0
  4  5  2  0
  5  6  1  0
  6  7  2  0
  7  8  1  0
  8  9  2  0
  9 10  1  0
 10 11  2  0
 11 12  1  0
 12 13  2  0
  2 14  1  0
 14 15  2  0
 15 16  1  0
 16 17  1  0
 17 18  2  0
 13  4  1  0
 18 14  1  0
 13  8  1  0
M  END
>  <fragmenstein_mode>  (349) 
expansion

>  <name>  (349) 
PFZHLVUYNDEAGG-UHFFFAOYSA-N

>  <fragmenstein_runtime>  (349) 
3.307924

>  <HIPPO Compound ID>  (349) 
27299

>  <SLURM_JOB_NAME>  (349) 
BulkDock.place:Flavi_NS5_RdRp:RdRp_knitwork_green_site_rna_tunnel_impure_split4000_batch015

>  <ref_mols>  (349) 
z0221a,z1040a

>  <Multi-SuCOS>  (349) 
0.624293

>  <tags>  (349) 
['Fragmenstein placed', 'RdRp_knitwork_green_site_rna_tunnel_impure_fragalysis.sdf Pose OK']

>  <scratch_subdir>  (349) 
/opt/xchem-fragalysis-2/maxwin/BulkDock/SCRATCH/220466/C27299-P105

>  <energy_score>  (349) 
-45.166431

>  <fragmenstein_error>  (349) 
None

>  <csv_name>  (349) 
RdRp_knitwork_green_site_rna_tunnel_impure_split4000_batch015.csv

>  <merge_set>  (349) 
RdRp_knitwork_green_site_rna_tunnel_impure_fragalysis.sdf

>  <original ID>  (349) 
PFZHLVUYNDEAGG-UHFFFAOYSA-N

>  <HIPPO Pose ID>  (349) 
208894

>  <fragmenstein_outcome>  (349) 
acceptable

>  <exports>  (349) 
['/opt/xchem-fragalysis-2/maxwin/BulkDock/OUTPUTS/RdRp_knitwork_green_site_rna_tunnel_impure_split4000_batch015_220466.sdf', '/opt/xchem-fragalysis-2/maxwin/BulkDock/OUTPUTS/RdRp_knitwork_green_site_rna_tunnel_impure_fragalysis.sdf']

>  <SLURM_JOB_ID>  (349) 
220466

>  <distance_score>  (349) 
0.94067

>  <original SMILES>  (349) 
O=C(Nc1cccc2ncccc12)c1cocn1

>  <alias>  (349) 
None

>  <ref_pdb>  (349) 
z0221a

>  <inchikey>  (349) 
PFZHLVUYNDEAGG-UHFFFAOYSA-N

$$$$
LBWDPFGFVFFXPP-UHFFFAOYSA-N
     RDKit          3D

 19 21  0  0  0  0  0  0  0  0999 V2000
  -29.4886  -31.0741  -14.6319 C   0  0  0  0  0  0  0  0  0  0  0  0
  -28.8714  -30.6855  -15.9494 C   0  0  0  0  0  0  0  0  0  0  0  0
  -29.7185  -30.1583  -16.9290 C   0  0  0  0  0  0  0  0  0  0  0  0
  -29.2280  -29.8168  -18.1748 C   0  0  0  0  0  0  0  0  0  0  0  0
  -27.8755  -29.9827  -18.4467 C   0  0  0  0  0  0  0  0  0  0  0  0
  -27.4893  -29.6753  -19.7491 N   0  0  0  0  0  0  0  0  0  0  0  0
  -26.4964  -30.3857  -20.6954 C   0  0  0  0  0  0  0  0  0  0  0  0
  -25.7886  -31.2951  -20.5056 O   0  0  0  0  0  0  0  0  0  0  0  0
  -26.4541  -29.6651  -21.9683 C   0  0  0  0  0  0  0  0  0  0  0  0
  -26.6982  -30.2091  -23.1435 N   0  0  0  0  0  0  0  0  0  0  0  0
  -26.1688  -29.3951  -24.1302 C   0  0  0  0  0  0  0  0  0  0  0  0
  -25.5333  -28.2545  -23.6813 C   0  0  0  0  0  0  0  0  0  0  0  0
  -25.7733  -28.0800  -21.9890 S   0  0  0  0  0  0  0  0  0  0  0  0
  -26.9751  -30.4278  -17.4340 C   0  0  0  0  0  0  0  0  0  0  0  0
  -25.5661  -30.4762  -17.5631 C   0  0  0  0  0  0  0  0  0  0  0  0
  -24.7582  -30.9026  -16.5159 C   0  0  0  0  0  0  0  0  0  0  0  0
  -25.3742  -31.2659  -15.3424 C   0  0  0  0  0  0  0  0  0  0  0  0
  -26.7065  -31.2061  -15.1531 N   0  0  0  0  0  0  0  0  0  0  0  0
  -27.4950  -30.7882  -16.1669 C   0  0  0  0  0  0  0  0  0  0  0  0
  1  2  1  0
  2  3  2  0
  3  4  1  0
  4  5  2  0
  5  6  1  0
  6  7  1  0
  7  8  2  0
  7  9  1  0
  9 10  2  0
 10 11  1  0
 11 12  2  0
 12 13  1  0
  5 14  1  0
 14 15  2  0
 15 16  1  0
 16 17  2  0
 17 18  1  0
 18 19  2  0
 19  2  1  0
 13  9  1  0
 19 14  1  0
M  END
>  <fragmenstein_mode>  (350) 
expansion

>  <name>  (350) 
LBWDPFGFVFFXPP-UHFFFAOYSA-N

>  <fragmenstein_runtime>  (350) 
2.329143

>  <HIPPO Compound ID>  (350) 
27378

>  <SLURM_JOB_NAME>  (350) 
BulkDock.place:Flavi_NS5_RdRp:RdRp_knitwork_green_site_rna_tunnel_impure_split4000_batch015

>  <ref_mols>  (350) 
z0221a,z1040a

>  <Multi-SuCOS>  (350) 
0.560032

>  <tags>  (350) 
['Fragmenstein placed', 'RdRp_knitwork_green_site_rna_tunnel_impure_fragalysis.sdf Pose OK']

>  <scratch_subdir>  (350) 
/opt/xchem-fragalysis-2/maxwin/BulkDock/SCRATCH/220466/C27378-P105

>  <energy_score>  (350) 
-79.909502

>  <fragmenstein_error>  (350) 
None

>  <csv_name>  (350) 
RdRp_knitwork_green_site_rna_tunnel_impure_split4000_batch015.csv

>  <merge_set>  (350) 
RdRp_knitwork_green_site_rna_tunnel_impure_fragalysis.sdf

>  <original ID>  (350) 
LBWDPFGFVFFXPP-UHFFFAOYSA-N

>  <HIPPO Pose ID>  (350) 
208945

>  <fragmenstein_outcome>  (350) 
acceptable

>  <exports>  (350) 
['/opt/xchem-fragalysis-2/maxwin/BulkDock/OUTPUTS/RdRp_knitwork_green_site_rna_tunnel_impure_split4000_batch015_220466.sdf', '/opt/xchem-fragalysis-2/maxwin/BulkDock/OUTPUTS/RdRp_knitwork_green_site_rna_tunnel_impure_fragalysis.sdf']

>  <SLURM_JOB_ID>  (350) 
220466

>  <distance_score>  (350) 
0.775568

>  <original SMILES>  (350) 
Cc1ccc(NC(=O)c2nccs2)c2cccnc12

>  <alias>  (350) 
None

>  <ref_pdb>  (350) 
z0221a

>  <inchikey>  (350) 
LBWDPFGFVFFXPP-UHFFFAOYSA-N

$$$$
VRVALXPCDNDHMJ-UHFFFAOYSA-N
     RDKit          3D

 19 21  0  0  0  0  0  0  0  0999 V2000
  -29.5636  -31.3511  -14.4737 C   0  0  0  0  0  0  0  0  0  0  0  0
  -28.9150  -30.7894  -15.7129 C   0  0  0  0  0  0  0  0  0  0  0  0
  -29.7548  -30.2477  -16.6913 C   0  0  0  0  0  0  0  0  0  0  0  0
  -29.2357  -29.7562  -17.8737 C   0  0  0  0  0  0  0  0  0  0  0  0
  -27.8618  -29.7840  -18.0779 C   0  0  0  0  0  0  0  0  0  0  0  0
  -27.4476  -29.4145  -19.3543 N   0  0  0  0  0  0  0  0  0  0  0  0
  -26.3105  -29.9576  -20.2298 C   0  0  0  0  0  0  0  0  0  0  0  0
  -25.4889  -30.7485  -19.9950 O   0  0  0  0  0  0  0  0  0  0  0  0
  -26.3055  -29.2806  -21.5040 C   0  0  0  0  0  0  0  0  0  0  0  0
  -26.6421  -29.8042  -22.7293 C   0  0  0  0  0  0  0  0  0  0  0  0
  -26.1839  -29.0984  -23.8203 N   0  0  0  0  0  0  0  0  0  0  0  0
  -25.4964  -28.0550  -23.3987 C   0  0  0  0  0  0  0  0  0  0  0  0
  -25.5617  -27.7525  -21.7018 S   0  0  0  0  0  0  0  0  0  0  0  0
  -26.9774  -30.2392  -17.0552 C   0  0  0  0  0  0  0  0  0  0  0  0
  -25.5643  -30.1556  -17.1017 C   0  0  0  0  0  0  0  0  0  0  0  0
  -24.7745  -30.6263  -16.0605 C   0  0  0  0  0  0  0  0  0  0  0  0
  -25.4149  -31.1548  -14.9660 C   0  0  0  0  0  0  0  0  0  0  0  0
  -26.7554  -31.2131  -14.8466 N   0  0  0  0  0  0  0  0  0  0  0  0
  -27.5259  -30.7599  -15.8593 C   0  0  0  0  0  0  0  0  0  0  0  0
  1  2  1  0
  2  3  2  0
  3  4  1  0
  4  5  2  0
  5  6  1  0
  6  7  1  0
  7  8  2  0
  7  9  1  0
  9 10  2  0
 10 11  1  0
 11 12  2  0
 12 13  1  0
  5 14  1  0
 14 15  2  0
 15 16  1  0
 16 17  2  0
 17 18  1  0
 18 19  2  0
 19  2  1  0
 13  9  1  0
 19 14  1  0
M  END
>  <fragmenstein_mode>  (351) 
expansion

>  <name>  (351) 
VRVALXPCDNDHMJ-UHFFFAOYSA-N

>  <fragmenstein_runtime>  (351) 
2.746627

>  <HIPPO Compound ID>  (351) 
27879

>  <SLURM_JOB_NAME>  (351) 
BulkDock.place:Flavi_NS5_RdRp:RdRp_knitwork_green_site_rna_tunnel_impure_split4000_batch015

>  <ref_mols>  (351) 
z0221a,z1040a

>  <Multi-SuCOS>  (351) 
0.541929

>  <tags>  (351) 
['Fragmenstein placed', 'RdRp_knitwork_green_site_rna_tunnel_impure_fragalysis.sdf Pose OK']

>  <scratch_subdir>  (351) 
/opt/xchem-fragalysis-2/maxwin/BulkDock/SCRATCH/220466/C27879-P105

>  <energy_score>  (351) 
-46.633071

>  <fragmenstein_error>  (351) 
None

>  <csv_name>  (351) 
RdRp_knitwork_green_site_rna_tunnel_impure_split4000_batch015.csv

>  <merge_set>  (351) 
RdRp_knitwork_green_site_rna_tunnel_impure_fragalysis.sdf

>  <original ID>  (351) 
VRVALXPCDNDHMJ-UHFFFAOYSA-N

>  <HIPPO Pose ID>  (351) 
209059

>  <fragmenstein_outcome>  (351) 
acceptable

>  <exports>  (351) 
['/opt/xchem-fragalysis-2/maxwin/BulkDock/OUTPUTS/RdRp_knitwork_green_site_rna_tunnel_impure_split4000_batch015_220466.sdf', '/opt/xchem-fragalysis-2/maxwin/BulkDock/OUTPUTS/RdRp_knitwork_green_site_rna_tunnel_impure_fragalysis.sdf']

>  <SLURM_JOB_ID>  (351) 
220466

>  <distance_score>  (351) 
0.949521

>  <original SMILES>  (351) 
Cc1ccc(NC(=O)c2cncs2)c2cccnc12

>  <alias>  (351) 
None

>  <ref_pdb>  (351) 
z0221a

>  <inchikey>  (351) 
VRVALXPCDNDHMJ-UHFFFAOYSA-N

$$$$
SQZRDABMRRGYGS-UHFFFAOYSA-N
     RDKit          3D

 19 21  0  0  0  0  0  0  0  0999 V2000
  -29.4113  -31.0904  -14.7145 C   0  0  0  0  0  0  0  0  0  0  0  0
  -28.8200  -30.7032  -16.0444 C   0  0  0  0  0  0  0  0  0  0  0  0
  -29.6798  -30.1402  -16.9923 C   0  0  0  0  0  0  0  0  0  0  0  0
  -29.2084  -29.7795  -18.2402 C   0  0  0  0  0  0  0  0  0  0  0  0
  -27.8663  -29.9634  -18.5510 C   0  0  0  0  0  0  0  0  0  0  0  0
  -27.5072  -29.5869  -19.8432 N   0  0  0  0  0  0  0  0  0  0  0  0
  -26.5467  -30.2499  -20.8483 C   0  0  0  0  0  0  0  0  0  0  0  0
  -25.9627  -31.2571  -20.7840 O   0  0  0  0  0  0  0  0  0  0  0  0
  -26.3322  -29.3611  -21.9749 C   0  0  0  0  0  0  0  0  0  0  0  0
  -26.2530  -29.6388  -23.3255 C   0  0  0  0  0  0  0  0  0  0  0  0
  -25.7169  -28.5273  -24.0303 C   0  0  0  0  0  0  0  0  0  0  0  0
  -25.4631  -27.4358  -23.3122 N   0  0  0  0  0  0  0  0  0  0  0  0
  -25.7859  -27.7591  -21.7180 S   0  0  0  0  0  0  0  0  0  0  0  0
  -26.9555  -30.4682  -17.5780 C   0  0  0  0  0  0  0  0  0  0  0  0
  -25.5540  -30.5635  -17.7506 C   0  0  0  0  0  0  0  0  0  0  0  0
  -24.7323  -31.0364  -16.7343 C   0  0  0  0  0  0  0  0  0  0  0  0
  -25.3264  -31.4026  -15.5505 C   0  0  0  0  0  0  0  0  0  0  0  0
  -26.6499  -31.3044  -15.3222 N   0  0  0  0  0  0  0  0  0  0  0  0
  -27.4531  -30.8412  -16.3039 C   0  0  0  0  0  0  0  0  0  0  0  0
  1  2  1  0
  2  3  2  0
  3  4  1  0
  4  5  2  0
  5  6  1  0
  6  7  1  0
  7  8  2  0
  7  9  1  0
  9 10  2  0
 10 11  1  0
 11 12  2  0
 12 13  1  0
  5 14  1  0
 14 15  2  0
 15 16  1  0
 16 17  2  0
 17 18  1  0
 18 19  2  0
 19  2  1  0
 13  9  1  0
 19 14  1  0
M  END
>  <fragmenstein_mode>  (352) 
expansion

>  <name>  (352) 
SQZRDABMRRGYGS-UHFFFAOYSA-N

>  <fragmenstein_runtime>  (352) 
3.459128

>  <HIPPO Compound ID>  (352) 
28323

>  <SLURM_JOB_NAME>  (352) 
BulkDock.place:Flavi_NS5_RdRp:RdRp_knitwork_green_site_rna_tunnel_impure_split4000_batch015

>  <ref_mols>  (352) 
z0221a,z1040a

>  <Multi-SuCOS>  (352) 
0.600467

>  <tags>  (352) 
['Fragmenstein placed', 'RdRp_knitwork_green_site_rna_tunnel_impure_fragalysis.sdf Pose OK']

>  <scratch_subdir>  (352) 
/opt/xchem-fragalysis-2/maxwin/BulkDock/SCRATCH/220466/C28323-P105

>  <energy_score>  (352) 
-18.465737

>  <fragmenstein_error>  (352) 
None

>  <csv_name>  (352) 
RdRp_knitwork_green_site_rna_tunnel_impure_split4000_batch015.csv

>  <merge_set>  (352) 
RdRp_knitwork_green_site_rna_tunnel_impure_fragalysis.sdf

>  <original ID>  (352) 
SQZRDABMRRGYGS-UHFFFAOYSA-N

>  <HIPPO Pose ID>  (352) 
209102

>  <fragmenstein_outcome>  (352) 
acceptable

>  <exports>  (352) 
['/opt/xchem-fragalysis-2/maxwin/BulkDock/OUTPUTS/RdRp_knitwork_green_site_rna_tunnel_impure_split4000_batch015_220466.sdf', '/opt/xchem-fragalysis-2/maxwin/BulkDock/OUTPUTS/RdRp_knitwork_green_site_rna_tunnel_impure_fragalysis.sdf']

>  <SLURM_JOB_ID>  (352) 
220466

>  <distance_score>  (352) 
0.876534

>  <original SMILES>  (352) 
Cc1ccc(NC(=O)c2ccns2)c2cccnc12

>  <alias>  (352) 
None

>  <ref_pdb>  (352) 
z0221a

>  <inchikey>  (352) 
SQZRDABMRRGYGS-UHFFFAOYSA-N

$$$$
JJRMMKGTFYTNGJ-UHFFFAOYSA-N
     RDKit          3D

 20 22  0  0  0  0  0  0  0  0999 V2000
  -29.5199  -31.1920  -14.5807 C   0  0  0  0  0  0  0  0  0  0  0  0
  -28.8616  -30.6899  -15.8391 C   0  0  0  0  0  0  0  0  0  0  0  0
  -29.6845  -30.1106  -16.8112 C   0  0  0  0  0  0  0  0  0  0  0  0
  -29.1517  -29.6648  -18.0059 C   0  0  0  0  0  0  0  0  0  0  0  0
  -27.7858  -29.7753  -18.2308 C   0  0  0  0  0  0  0  0  0  0  0  0
  -27.3573  -29.4183  -19.5048 N   0  0  0  0  0  0  0  0  0  0  0  0
  -26.4044  -30.1331  -20.4736 C   0  0  0  0  0  0  0  0  0  0  0  0
  -25.7644  -31.0969  -20.3311 O   0  0  0  0  0  0  0  0  0  0  0  0
  -26.3575  -29.4228  -21.7809 C   0  0  0  0  0  0  0  0  0  0  0  0
  -26.5407  -30.1911  -22.9197 C   0  0  0  0  0  0  0  0  0  0  0  0
  -26.1539  -29.6606  -24.1413 C   0  0  0  0  0  0  0  0  0  0  0  0
  -25.5562  -28.4085  -24.1592 C   0  0  0  0  0  0  0  0  0  0  0  0
  -25.4652  -27.6882  -22.9739 C   0  0  0  0  0  0  0  0  0  0  0  0
  -25.8946  -28.1480  -21.7754 N   0  0  0  0  0  0  0  0  0  0  0  0
  -26.9197  -30.2987  -17.2321 C   0  0  0  0  0  0  0  0  0  0  0  0
  -25.5105  -30.3473  -17.3404 C   0  0  0  0  0  0  0  0  0  0  0  0
  -24.7289  -30.8585  -16.3131 C   0  0  0  0  0  0  0  0  0  0  0  0
  -25.3734  -31.3023  -15.1821 C   0  0  0  0  0  0  0  0  0  0  0  0
  -26.7100  -31.2510  -15.0155 N   0  0  0  0  0  0  0  0  0  0  0  0
  -27.4752  -30.7584  -16.0142 C   0  0  0  0  0  0  0  0  0  0  0  0
  1  2  1  0
  2  3  2  0
  3  4  1  0
  4  5  2  0
  5  6  1  0
  6  7  1  0
  7  8  2  0
  7  9  1  0
  9 10  2  0
 10 11  1  0
 11 12  2  0
 12 13  1  0
 13 14  2  0
  5 15  1  0
 15 16  2  0
 16 17  1  0
 17 18  2  0
 18 19  1  0
 19 20  2  0
 20  2  1  0
 14  9  1  0
 20 15  1  0
M  END
>  <fragmenstein_mode>  (353) 
expansion

>  <name>  (353) 
JJRMMKGTFYTNGJ-UHFFFAOYSA-N

>  <fragmenstein_runtime>  (353) 
2.173752

>  <HIPPO Compound ID>  (353) 
28586

>  <SLURM_JOB_NAME>  (353) 
BulkDock.place:Flavi_NS5_RdRp:RdRp_knitwork_green_site_rna_tunnel_impure_split4000_batch015

>  <ref_mols>  (353) 
z0221a,z1040a

>  <Multi-SuCOS>  (353) 
0.572291

>  <tags>  (353) 
['Fragmenstein placed', 'RdRp_knitwork_green_site_rna_tunnel_impure_fragalysis.sdf Pose OK']

>  <scratch_subdir>  (353) 
/opt/xchem-fragalysis-2/maxwin/BulkDock/SCRATCH/220466/C28586-P105

>  <energy_score>  (353) 
-8.5205

>  <fragmenstein_error>  (353) 
None

>  <csv_name>  (353) 
RdRp_knitwork_green_site_rna_tunnel_impure_split4000_batch015.csv

>  <merge_set>  (353) 
RdRp_knitwork_green_site_rna_tunnel_impure_fragalysis.sdf

>  <original ID>  (353) 
JJRMMKGTFYTNGJ-UHFFFAOYSA-N

>  <HIPPO Pose ID>  (353) 
209140

>  <fragmenstein_outcome>  (353) 
acceptable

>  <exports>  (353) 
['/opt/xchem-fragalysis-2/maxwin/BulkDock/OUTPUTS/RdRp_knitwork_green_site_rna_tunnel_impure_split4000_batch015_220466.sdf', '/opt/xchem-fragalysis-2/maxwin/BulkDock/OUTPUTS/RdRp_knitwork_green_site_rna_tunnel_impure_fragalysis.sdf']

>  <SLURM_JOB_ID>  (353) 
220466

>  <distance_score>  (353) 
0.811675

>  <original SMILES>  (353) 
Cc1ccc(NC(=O)c2ccccn2)c2cccnc12

>  <alias>  (353) 
None

>  <ref_pdb>  (353) 
z0221a

>  <inchikey>  (353) 
JJRMMKGTFYTNGJ-UHFFFAOYSA-N

$$$$
QUBCQDBNUODRBY-HNNXBMFYSA-N
     RDKit          3D

 27 30  0  0  0  0  0  0  0  0999 V2000
  -24.5907  -30.6363  -17.7324 C   0  0  0  0  0  0  0  0  0  0  0  0
  -26.0820  -30.6115  -17.8712 C   0  0  0  0  0  0  0  0  0  0  0  0
  -26.8757  -30.5929  -16.7375 C   0  0  0  0  0  0  0  0  0  0  0  0
  -28.2479  -30.5067  -16.9005 C   0  0  0  0  0  0  0  0  0  0  0  0
  -28.7923  -30.4351  -18.1856 C   0  0  0  0  0  0  0  0  0  0  0  0
  -30.1760  -30.3018  -18.3366 C   0  0  0  0  0  0  0  0  0  0  0  0
  -30.7381  -30.1721  -19.5979 C   0  0  0  0  0  0  0  0  0  0  0  0
  -29.9162  -30.1812  -20.7085 C   0  0  0  0  0  0  0  0  0  0  0  0
  -28.5383  -30.3855  -20.5774 C   0  0  0  0  0  0  0  0  0  0  0  0
  -27.9144  -30.4281  -21.8006 O   0  0  0  0  0  0  0  0  0  0  0  0
  -26.7650  -31.2360  -21.9199 C   0  0  0  0  0  0  0  0  0  0  0  0
  -26.8454  -32.7813  -21.7420 C   0  0  0  0  0  0  0  0  0  0  0  0
  -27.8241  -33.3958  -21.5802 O   0  0  0  0  0  0  0  0  0  0  0  0
  -25.3795  -33.2565  -21.9349 N   0  0  0  0  0  0  0  0  0  0  0  0
  -24.8038  -34.5896  -21.8725 C   0  0  1  0  0  0  0  0  0  0  0  0
  -25.1889  -35.4156  -23.0894 C   0  0  0  0  0  0  0  0  0  0  0  0
  -23.3240  -34.3756  -21.7873 C   0  0  0  0  0  0  0  0  0  0  0  0
  -22.5145  -33.4105  -22.3590 C   0  0  0  0  0  0  0  0  0  0  0  0
  -21.3328  -33.3852  -21.5914 C   0  0  0  0  0  0  0  0  0  0  0  0
  -20.2364  -32.5167  -21.4970 C   0  0  0  0  0  0  0  0  0  0  0  0
  -19.2324  -32.8117  -20.5680 C   0  0  0  0  0  0  0  0  0  0  0  0
  -19.2993  -33.9627  -19.7792 C   0  0  0  0  0  0  0  0  0  0  0  0
  -20.3950  -34.8317  -19.8509 C   0  0  0  0  0  0  0  0  0  0  0  0
  -21.4031  -34.4834  -20.7447 C   0  0  0  0  0  0  0  0  0  0  0  0
  -22.6093  -35.1092  -20.8813 O   0  0  0  0  0  0  0  0  0  0  0  0
  -27.9329  -30.4781  -19.3088 C   0  0  0  0  0  0  0  0  0  0  0  0
  -26.5903  -30.5637  -19.1284 N   0  0  0  0  0  0  0  0  0  0  0  0
  1  2  1  0
  2  3  2  0
  3  4  1  0
  4  5  2  0
  5  6  1  0
  6  7  2  0
  7  8  1  0
  8  9  2  0
  9 10  1  0
 10 11  1  0
 11 12  1  0
 12 13  2  0
 12 14  1  0
 14 15  1  0
 15 16  1  6
 15 17  1  0
 17 18  2  0
 18 19  1  0
 19 20  2  0
 20 21  1  0
 21 22  2  0
 22 23  1  0
 23 24  2  0
 24 25  1  0
  9 26  1  0
 26 27  2  0
 27  2  1  0
 26  5  1  0
 25 17  1  0
 24 19  1  0
M  END
>  <fragmenstein_mode>  (354) 
expansion

>  <name>  (354) 
QUBCQDBNUODRBY-HNNXBMFYSA-N

>  <fragmenstein_runtime>  (354) 
3.522634

>  <HIPPO Compound ID>  (354) 
31473

>  <SLURM_JOB_NAME>  (354) 
BulkDock.place:Flavi_NS5_RdRp:RdRp_knitwork_green_site_rna_tunnel_impure_split4000_batch004

>  <ref_mols>  (354) 
z1040a,3vws-b

>  <Multi-SuCOS>  (354) 
0.676044

>  <tags>  (354) 
['Fragmenstein placed', 'RdRp_knitwork_green_site_rna_tunnel_impure_fragalysis.sdf Pose OK']

>  <scratch_subdir>  (354) 
/opt/xchem-fragalysis-2/maxwin/BulkDock/SCRATCH/220455/C31473-P208

>  <energy_score>  (354) 
-30.618876

>  <fragmenstein_error>  (354) 
None

>  <csv_name>  (354) 
RdRp_knitwork_green_site_rna_tunnel_impure_split4000_batch004.csv

>  <merge_set>  (354) 
RdRp_knitwork_green_site_rna_tunnel_impure_fragalysis.sdf

>  <original ID>  (354) 
QUBCQDBNUODRBY-HNNXBMFYSA-N

>  <HIPPO Pose ID>  (354) 
209166

>  <fragmenstein_outcome>  (354) 
acceptable

>  <exports>  (354) 
['/opt/xchem-fragalysis-2/maxwin/BulkDock/OUTPUTS/RdRp_knitwork_green_site_rna_tunnel_impure_split4000_batch004_220455.sdf', '/opt/xchem-fragalysis-2/maxwin/BulkDock/OUTPUTS/RdRp_knitwork_green_site_rna_tunnel_impure_fragalysis.sdf']

>  <SLURM_JOB_ID>  (354) 
220455

>  <distance_score>  (354) 
0.957801

>  <original SMILES>  (354) 
Cc1ccc2cccc(OCC(=O)N[C@@H](C)c3cc4ccccc4o3)c2n1

>  <alias>  (354) 
None

>  <ref_pdb>  (354) 
z1040a

>  <inchikey>  (354) 
QUBCQDBNUODRBY-HNNXBMFYSA-N

$$$$
BARBIRVWWGDUKZ-UHFFFAOYSA-N
     RDKit          3D

 19 21  0  0  0  0  0  0  0  0999 V2000
  -29.2616  -31.1087  -14.8400 C   0  0  0  0  0  0  0  0  0  0  0  0
  -28.6219  -30.7252  -16.1483 C   0  0  0  0  0  0  0  0  0  0  0  0
  -29.4097  -30.7348  -17.3030 C   0  0  0  0  0  0  0  0  0  0  0  0
  -28.8649  -30.3681  -18.5226 C   0  0  0  0  0  0  0  0  0  0  0  0
  -27.5312  -29.9631  -18.5992 C   0  0  0  0  0  0  0  0  0  0  0  0
  -27.0517  -29.5536  -19.8459 N   0  0  0  0  0  0  0  0  0  0  0  0
  -27.5141  -29.9259  -21.2668 C   0  0  0  0  0  0  0  0  0  0  0  0
  -28.4153  -30.5716  -21.6219 O   0  0  0  0  0  0  0  0  0  0  0  0
  -26.6577  -29.2872  -22.2395 C   0  0  0  0  0  0  0  0  0  0  0  0
  -26.5508  -29.4403  -23.6033 C   0  0  0  0  0  0  0  0  0  0  0  0
  -25.6832  -28.5235  -24.1181 N   0  0  0  0  0  0  0  0  0  0  0  0
  -25.3047  -27.8362  -23.0694 C   0  0  0  0  0  0  0  0  0  0  0  0
  -25.8215  -28.2557  -21.8791 O   0  0  0  0  0  0  0  0  0  0  0  0
  -26.7151  -29.9531  -17.4391 C   0  0  0  0  0  0  0  0  0  0  0  0
  -25.3437  -29.6116  -17.4390 C   0  0  0  0  0  0  0  0  0  0  0  0
  -24.6054  -29.6398  -16.2634 C   0  0  0  0  0  0  0  0  0  0  0  0
  -25.2503  -30.0129  -15.1074 C   0  0  0  0  0  0  0  0  0  0  0  0
  -26.5513  -30.3567  -15.0586 N   0  0  0  0  0  0  0  0  0  0  0  0
  -27.2774  -30.3396  -16.1963 C   0  0  0  0  0  0  0  0  0  0  0  0
  1  2  1  0
  2  3  2  0
  3  4  1  0
  4  5  2  0
  5  6  1  0
  6  7  1  0
  7  8  2  0
  7  9  1  0
  9 10  2  0
 10 11  1  0
 11 12  2  0
 12 13  1  0
  5 14  1  0
 14 15  2  0
 15 16  1  0
 16 17  2  0
 17 18  1  0
 18 19  2  0
 19  2  1  0
 13  9  1  0
 19 14  1  0
M  END
>  <fragmenstein_mode>  (355) 
expansion

>  <name>  (355) 
BARBIRVWWGDUKZ-UHFFFAOYSA-N

>  <fragmenstein_runtime>  (355) 
4.741206

>  <HIPPO Compound ID>  (355) 
28711

>  <SLURM_JOB_NAME>  (355) 
BulkDock.place:Flavi_NS5_RdRp:RdRp_knitwork_green_site_rna_tunnel_impure_split4000_batch015

>  <ref_mols>  (355) 
z0221a,z1040a

>  <Multi-SuCOS>  (355) 
0.604144

>  <tags>  (355) 
['Fragmenstein placed', 'RdRp_knitwork_green_site_rna_tunnel_impure_fragalysis.sdf Pose OK']

>  <scratch_subdir>  (355) 
/opt/xchem-fragalysis-2/maxwin/BulkDock/SCRATCH/220466/C28711-P105

>  <energy_score>  (355) 
-19.641518

>  <fragmenstein_error>  (355) 
None

>  <csv_name>  (355) 
RdRp_knitwork_green_site_rna_tunnel_impure_split4000_batch015.csv

>  <merge_set>  (355) 
RdRp_knitwork_green_site_rna_tunnel_impure_fragalysis.sdf

>  <original ID>  (355) 
BARBIRVWWGDUKZ-UHFFFAOYSA-N

>  <HIPPO Pose ID>  (355) 
209187

>  <fragmenstein_outcome>  (355) 
acceptable

>  <exports>  (355) 
['/opt/xchem-fragalysis-2/maxwin/BulkDock/OUTPUTS/RdRp_knitwork_green_site_rna_tunnel_impure_split4000_batch015_220466.sdf', '/opt/xchem-fragalysis-2/maxwin/BulkDock/OUTPUTS/RdRp_knitwork_green_site_rna_tunnel_impure_fragalysis.sdf']

>  <SLURM_JOB_ID>  (355) 
220466

>  <distance_score>  (355) 
0.976262

>  <original SMILES>  (355) 
Cc1ccc(NC(=O)c2cnco2)c2cccnc12

>  <alias>  (355) 
None

>  <ref_pdb>  (355) 
z0221a

>  <inchikey>  (355) 
BARBIRVWWGDUKZ-UHFFFAOYSA-N

$$$$
MBUCKPVXKPONKM-UHFFFAOYSA-N
     RDKit          3D

 19 21  0  0  0  0  0  0  0  0999 V2000
  -29.4902  -30.9415  -14.7099 C   0  0  0  0  0  0  0  0  0  0  0  0
  -28.8710  -30.5817  -16.0339 C   0  0  0  0  0  0  0  0  0  0  0  0
  -29.7124  -30.0821  -17.0318 C   0  0  0  0  0  0  0  0  0  0  0  0
  -29.2138  -29.7655  -18.2815 C   0  0  0  0  0  0  0  0  0  0  0  0
  -27.8577  -29.9224  -18.5397 C   0  0  0  0  0  0  0  0  0  0  0  0
  -27.4699  -29.6508  -19.8516 N   0  0  0  0  0  0  0  0  0  0  0  0
  -26.4530  -30.3624  -20.7611 C   0  0  0  0  0  0  0  0  0  0  0  0
  -25.7214  -31.2415  -20.5342 O   0  0  0  0  0  0  0  0  0  0  0  0
  -26.4137  -29.6928  -22.0650 C   0  0  0  0  0  0  0  0  0  0  0  0
  -25.8199  -28.4314  -22.3473 C   0  0  0  0  0  0  0  0  0  0  0  0
  -25.6702  -28.4390  -23.7104 C   0  0  0  0  0  0  0  0  0  0  0  0
  -26.2795  -29.5349  -24.2275 O   0  0  0  0  0  0  0  0  0  0  0  0
  -26.7523  -30.3293  -23.1953 N   0  0  0  0  0  0  0  0  0  0  0  0
  -26.9639  -30.3416  -17.5085 C   0  0  0  0  0  0  0  0  0  0  0  0
  -25.5536  -30.3855  -17.6205 C   0  0  0  0  0  0  0  0  0  0  0  0
  -24.7546  -30.7911  -16.5580 C   0  0  0  0  0  0  0  0  0  0  0  0
  -25.3800  -31.1354  -15.3840 C   0  0  0  0  0  0  0  0  0  0  0  0
  -26.7139  -31.0765  -15.2087 N   0  0  0  0  0  0  0  0  0  0  0  0
  -27.4931  -30.6814  -16.2387 C   0  0  0  0  0  0  0  0  0  0  0  0
  1  2  1  0
  2  3  2  0
  3  4  1  0
  4  5  2  0
  5  6  1  0
  6  7  1  0
  7  8  2  0
  7  9  1  0
  9 10  1  0
 10 11  2  0
 11 12  1  0
 12 13  1  0
  5 14  1  0
 14 15  2  0
 15 16  1  0
 16 17  2  0
 17 18  1  0
 18 19  2  0
 19  2  1  0
 13  9  2  0
 19 14  1  0
M  END
>  <fragmenstein_mode>  (356) 
expansion

>  <name>  (356) 
MBUCKPVXKPONKM-UHFFFAOYSA-N

>  <fragmenstein_runtime>  (356) 
2.05349

>  <HIPPO Compound ID>  (356) 
28763

>  <SLURM_JOB_NAME>  (356) 
BulkDock.place:Flavi_NS5_RdRp:RdRp_knitwork_green_site_rna_tunnel_impure_split4000_batch015

>  <ref_mols>  (356) 
z0221a,z1040a

>  <Multi-SuCOS>  (356) 
0.571186

>  <tags>  (356) 
['Fragmenstein placed', 'RdRp_knitwork_green_site_rna_tunnel_impure_fragalysis.sdf Pose OK']

>  <scratch_subdir>  (356) 
/opt/xchem-fragalysis-2/maxwin/BulkDock/SCRATCH/220466/C28763-P105

>  <energy_score>  (356) 
-4.940163

>  <fragmenstein_error>  (356) 
None

>  <csv_name>  (356) 
RdRp_knitwork_green_site_rna_tunnel_impure_split4000_batch015.csv

>  <merge_set>  (356) 
RdRp_knitwork_green_site_rna_tunnel_impure_fragalysis.sdf

>  <original ID>  (356) 
MBUCKPVXKPONKM-UHFFFAOYSA-N

>  <HIPPO Pose ID>  (356) 
209198

>  <fragmenstein_outcome>  (356) 
acceptable

>  <exports>  (356) 
['/opt/xchem-fragalysis-2/maxwin/BulkDock/OUTPUTS/RdRp_knitwork_green_site_rna_tunnel_impure_split4000_batch015_220466.sdf', '/opt/xchem-fragalysis-2/maxwin/BulkDock/OUTPUTS/RdRp_knitwork_green_site_rna_tunnel_impure_fragalysis.sdf']

>  <SLURM_JOB_ID>  (356) 
220466

>  <distance_score>  (356) 
0.734597

>  <original SMILES>  (356) 
Cc1ccc(NC(=O)c2ccon2)c2cccnc12

>  <alias>  (356) 
None

>  <ref_pdb>  (356) 
z0221a

>  <inchikey>  (356) 
MBUCKPVXKPONKM-UHFFFAOYSA-N

$$$$
UTIPKJNHXGDGDA-KBPBESRZSA-N
     RDKit          3D

 23 25  0  0  0  0  0  0  0  0999 V2000
  -25.4688  -30.8497  -22.9777 O   0  0  0  0  0  0  0  0  0  0  0  0
  -25.2990  -31.2615  -21.9320 C   0  0  0  0  0  0  0  0  0  0  0  0
  -24.2845  -32.3157  -21.4247 N   0  0  0  0  0  0  0  0  0  0  0  0
  -23.3424  -33.1334  -22.1531 C   0  0  0  0  0  0  0  0  0  0  0  0
  -22.1940  -32.3372  -22.7839 C   0  0  2  0  0  0  0  0  0  0  0  0
  -21.4344  -33.2122  -23.6246 O   0  0  0  0  0  0  0  0  0  0  0  0
  -21.3090  -31.6264  -21.7527 C   0  0  0  0  0  0  0  0  0  0  0  0
  -20.7218  -32.4619  -20.7233 N   0  0  0  0  0  0  0  0  0  0  0  0
  -21.2135  -32.6661  -19.4620 C   0  0  0  0  0  0  0  0  0  0  0  0
  -20.2893  -33.4490  -18.8129 C   0  0  0  0  0  0  0  0  0  0  0  0
  -19.2493  -33.6136  -19.7437 C   0  0  0  0  0  0  0  0  0  0  0  0
  -19.4887  -32.9774  -20.8923 N   0  0  0  0  0  0  0  0  0  0  0  0
  -26.0774  -31.0104  -20.6225 N   0  0  0  0  0  0  0  0  0  0  0  0
  -27.1737  -30.1129  -20.3436 C   0  0  1  0  0  0  0  0  0  0  0  0
  -28.3746  -30.4575  -21.2246 C   0  0  0  0  0  0  0  0  0  0  0  0
  -29.5946  -29.6755  -20.7706 C   0  0  0  0  0  0  0  0  0  0  0  0
  -29.9663  -30.0638  -19.3467 C   0  0  0  0  0  0  0  0  0  0  0  0
  -28.8114  -30.0290  -18.3907 C   0  0  0  0  0  0  0  0  0  0  0  0
  -29.0408  -30.0458  -17.0068 C   0  0  0  0  0  0  0  0  0  0  0  0
  -27.9660  -30.0887  -16.1277 C   0  0  0  0  0  0  0  0  0  0  0  0
  -26.6926  -30.1198  -16.6645 C   0  0  0  0  0  0  0  0  0  0  0  0
  -26.4352  -30.1172  -17.9924 N   0  0  0  0  0  0  0  0  0  0  0  0
  -27.4914  -30.0764  -18.8494 C   0  0  0  0  0  0  0  0  0  0  0  0
  1  2  2  0
  2  3  1  0
  3  4  1  0
  4  5  1  0
  5  6  1  1
  5  7  1  0
  7  8  1  0
  8  9  1  0
  9 10  2  0
 10 11  1  0
 11 12  2  0
  2 13  1  0
 14 13  1  1
 14 15  1  0
 15 16  1  0
 16 17  1  0
 17 18  1  0
 18 19  2  0
 19 20  1  0
 20 21  2  0
 21 22  1  0
 22 23  2  0
 12  8  1  0
 23 14  1  0
 23 18  1  0
M  END
>  <fragmenstein_mode>  (357) 
expansion

>  <name>  (357) 
UTIPKJNHXGDGDA-KBPBESRZSA-N

>  <fragmenstein_runtime>  (357) 
11.15738

>  <HIPPO Compound ID>  (357) 
29913

>  <SLURM_JOB_NAME>  (357) 
BulkDock.place:Flavi_NS5_RdRp:RdRp_knitwork_green_site_rna_tunnel_impure_split4000_batch019

>  <ref_mols>  (357) 
z0211a,z0215a

>  <Multi-SuCOS>  (357) 
0.460822

>  <tags>  (357) 
['Fragmenstein placed', 'RdRp_knitwork_green_site_rna_tunnel_impure_fragalysis.sdf Pose OK']

>  <scratch_subdir>  (357) 
/opt/xchem-fragalysis-2/maxwin/BulkDock/SCRATCH/220470/C29913-P104

>  <energy_score>  (357) 
-24.854199

>  <fragmenstein_error>  (357) 
None

>  <csv_name>  (357) 
RdRp_knitwork_green_site_rna_tunnel_impure_split4000_batch019.csv

>  <merge_set>  (357) 
RdRp_knitwork_green_site_rna_tunnel_impure_fragalysis.sdf

>  <original ID>  (357) 
UTIPKJNHXGDGDA-KBPBESRZSA-N

>  <HIPPO Pose ID>  (357) 
209220

>  <fragmenstein_outcome>  (357) 
acceptable

>  <exports>  (357) 
['/opt/xchem-fragalysis-2/maxwin/BulkDock/OUTPUTS/RdRp_knitwork_green_site_rna_tunnel_impure_split4000_batch019_220470.sdf', '/opt/xchem-fragalysis-2/maxwin/BulkDock/OUTPUTS/RdRp_knitwork_green_site_rna_tunnel_impure_fragalysis.sdf']

>  <SLURM_JOB_ID>  (357) 
220470

>  <distance_score>  (357) 
0.797235

>  <original SMILES>  (357) 
O=C(NC[C@H](O)Cn1cccn1)N[C@H]1CCCc2cccnc21

>  <alias>  (357) 
None

>  <ref_pdb>  (357) 
z0215a

>  <inchikey>  (357) 
UTIPKJNHXGDGDA-KBPBESRZSA-N

$$$$
CKIOSIPIGDGSDU-UHFFFAOYSA-N
     RDKit          3D

 20 22  0  0  0  0  0  0  0  0999 V2000
  -29.5191  -31.3128  -14.4964 C   0  0  0  0  0  0  0  0  0  0  0  0
  -28.8968  -30.7754  -15.7592 C   0  0  0  0  0  0  0  0  0  0  0  0
  -29.7581  -30.2525  -16.7288 C   0  0  0  0  0  0  0  0  0  0  0  0
  -29.2664  -29.7836  -17.9322 C   0  0  0  0  0  0  0  0  0  0  0  0
  -27.8975  -29.8152  -18.1682 C   0  0  0  0  0  0  0  0  0  0  0  0
  -27.5050  -29.4477  -19.4544 N   0  0  0  0  0  0  0  0  0  0  0  0
  -26.4112  -30.0196  -20.3637 C   0  0  0  0  0  0  0  0  0  0  0  0
  -25.6103  -30.8388  -20.1577 O   0  0  0  0  0  0  0  0  0  0  0  0
  -26.3796  -29.3397  -21.6654 C   0  0  0  0  0  0  0  0  0  0  0  0
  -26.6151  -30.0844  -22.8168 C   0  0  0  0  0  0  0  0  0  0  0  0
  -26.2081  -29.5779  -24.0467 C   0  0  0  0  0  0  0  0  0  0  0  0
  -25.5723  -28.3476  -24.0592 C   0  0  0  0  0  0  0  0  0  0  0  0
  -25.4209  -27.5610  -22.9630 N   0  0  0  0  0  0  0  0  0  0  0  0
  -25.8032  -28.0855  -21.7769 C   0  0  0  0  0  0  0  0  0  0  0  0
  -26.9911  -30.2567  -17.1583 C   0  0  0  0  0  0  0  0  0  0  0  0
  -25.5798  -30.1876  -17.2448 C   0  0  0  0  0  0  0  0  0  0  0  0
  -24.7670  -30.6396  -16.2132 C   0  0  0  0  0  0  0  0  0  0  0  0
  -25.3818  -31.1375  -15.0901 C   0  0  0  0  0  0  0  0  0  0  0  0
  -26.7189  -31.1862  -14.9348 N   0  0  0  0  0  0  0  0  0  0  0  0
  -27.5117  -30.7513  -15.9386 C   0  0  0  0  0  0  0  0  0  0  0  0
  1  2  1  0
  2  3  2  0
  3  4  1  0
  4  5  2  0
  5  6  1  0
  6  7  1  0
  7  8  2  0
  7  9  1  0
  9 10  2  0
 10 11  1  0
 11 12  2  0
 12 13  1  0
 13 14  2  0
  5 15  1  0
 15 16  2  0
 16 17  1  0
 17 18  2  0
 18 19  1  0
 19 20  2  0
 20  2  1  0
 14  9  1  0
 20 15  1  0
M  END
>  <fragmenstein_mode>  (358) 
expansion

>  <name>  (358) 
CKIOSIPIGDGSDU-UHFFFAOYSA-N

>  <fragmenstein_runtime>  (358) 
4.365301

>  <HIPPO Compound ID>  (358) 
30876

>  <SLURM_JOB_NAME>  (358) 
BulkDock.place:Flavi_NS5_RdRp:RdRp_knitwork_green_site_rna_tunnel_impure_split4000_batch015

>  <ref_mols>  (358) 
z0221a,z1040a

>  <Multi-SuCOS>  (358) 
0.570457

>  <tags>  (358) 
['Fragmenstein placed', 'RdRp_knitwork_green_site_rna_tunnel_impure_fragalysis.sdf Pose OK']

>  <scratch_subdir>  (358) 
/opt/xchem-fragalysis-2/maxwin/BulkDock/SCRATCH/220466/C30876-P105

>  <energy_score>  (358) 
-29.511063

>  <fragmenstein_error>  (358) 
None

>  <csv_name>  (358) 
RdRp_knitwork_green_site_rna_tunnel_impure_split4000_batch015.csv

>  <merge_set>  (358) 
RdRp_knitwork_green_site_rna_tunnel_impure_fragalysis.sdf

>  <original ID>  (358) 
CKIOSIPIGDGSDU-UHFFFAOYSA-N

>  <HIPPO Pose ID>  (358) 
209273

>  <fragmenstein_outcome>  (358) 
acceptable

>  <exports>  (358) 
['/opt/xchem-fragalysis-2/maxwin/BulkDock/OUTPUTS/RdRp_knitwork_green_site_rna_tunnel_impure_split4000_batch015_220466.sdf', '/opt/xchem-fragalysis-2/maxwin/BulkDock/OUTPUTS/RdRp_knitwork_green_site_rna_tunnel_impure_fragalysis.sdf']

>  <SLURM_JOB_ID>  (358) 
220466

>  <distance_score>  (358) 
0.809757

>  <original SMILES>  (358) 
Cc1ccc(NC(=O)c2cccnc2)c2cccnc12

>  <alias>  (358) 
None

>  <ref_pdb>  (358) 
z0221a

>  <inchikey>  (358) 
CKIOSIPIGDGSDU-UHFFFAOYSA-N

$$$$
BXVOWEOXLMRDET-UHFFFAOYSA-N
     RDKit          3D

 19 21  0  0  0  0  0  0  0  0999 V2000
  -29.2430  -31.0395  -14.9160 C   0  0  0  0  0  0  0  0  0  0  0  0
  -28.5969  -30.6791  -16.2276 C   0  0  0  0  0  0  0  0  0  0  0  0
  -29.3694  -30.7300  -17.3918 C   0  0  0  0  0  0  0  0  0  0  0  0
  -28.8150  -30.3840  -18.6143 C   0  0  0  0  0  0  0  0  0  0  0  0
  -27.4888  -29.9540  -18.6845 C   0  0  0  0  0  0  0  0  0  0  0  0
  -26.9932  -29.5534  -19.9282 N   0  0  0  0  0  0  0  0  0  0  0  0
  -27.4601  -29.9060  -21.3501 C   0  0  0  0  0  0  0  0  0  0  0  0
  -28.3779  -30.5239  -21.7113 O   0  0  0  0  0  0  0  0  0  0  0  0
  -26.5901  -29.2435  -22.3138 C   0  0  0  0  0  0  0  0  0  0  0  0
  -26.5599  -29.4643  -23.6716 C   0  0  0  0  0  0  0  0  0  0  0  0
  -25.7050  -28.5755  -24.2328 O   0  0  0  0  0  0  0  0  0  0  0  0
  -25.2637  -27.8413  -23.1802 C   0  0  0  0  0  0  0  0  0  0  0  0
  -25.7195  -28.2089  -22.0001 N   0  0  0  0  0  0  0  0  0  0  0  0
  -26.6877  -29.9102  -17.5152 C   0  0  0  0  0  0  0  0  0  0  0  0
  -25.3209  -29.5542  -17.5114 C   0  0  0  0  0  0  0  0  0  0  0  0
  -24.5912  -29.5541  -16.3302 C   0  0  0  0  0  0  0  0  0  0  0  0
  -25.2414  -29.9124  -15.1722 C   0  0  0  0  0  0  0  0  0  0  0  0
  -26.5396  -30.2689  -15.1262 N   0  0  0  0  0  0  0  0  0  0  0  0
  -27.2563  -30.2800  -16.2702 C   0  0  0  0  0  0  0  0  0  0  0  0
  1  2  1  0
  2  3  2  0
  3  4  1  0
  4  5  2  0
  5  6  1  0
  6  7  1  0
  7  8  2  0
  7  9  1  0
  9 10  2  0
 10 11  1  0
 11 12  1  0
 12 13  2  0
  5 14  1  0
 14 15  2  0
 15 16  1  0
 16 17  2  0
 17 18  1  0
 18 19  2  0
 19  2  1  0
 13  9  1  0
 19 14  1  0
M  END
>  <fragmenstein_mode>  (359) 
expansion

>  <name>  (359) 
BXVOWEOXLMRDET-UHFFFAOYSA-N

>  <fragmenstein_runtime>  (359) 
5.762466

>  <HIPPO Compound ID>  (359) 
29001

>  <SLURM_JOB_NAME>  (359) 
BulkDock.place:Flavi_NS5_RdRp:RdRp_knitwork_green_site_rna_tunnel_impure_split4000_batch015

>  <ref_mols>  (359) 
z0221a,z1040a

>  <Multi-SuCOS>  (359) 
0.584004

>  <tags>  (359) 
['Fragmenstein placed', 'RdRp_knitwork_green_site_rna_tunnel_impure_fragalysis.sdf Pose OK']

>  <scratch_subdir>  (359) 
/opt/xchem-fragalysis-2/maxwin/BulkDock/SCRATCH/220466/C29001-P105

>  <energy_score>  (359) 
-59.575876

>  <fragmenstein_error>  (359) 
None

>  <csv_name>  (359) 
RdRp_knitwork_green_site_rna_tunnel_impure_split4000_batch015.csv

>  <merge_set>  (359) 
RdRp_knitwork_green_site_rna_tunnel_impure_fragalysis.sdf

>  <original ID>  (359) 
BXVOWEOXLMRDET-UHFFFAOYSA-N

>  <HIPPO Pose ID>  (359) 
209286

>  <fragmenstein_outcome>  (359) 
acceptable

>  <exports>  (359) 
['/opt/xchem-fragalysis-2/maxwin/BulkDock/OUTPUTS/RdRp_knitwork_green_site_rna_tunnel_impure_split4000_batch015_220466.sdf', '/opt/xchem-fragalysis-2/maxwin/BulkDock/OUTPUTS/RdRp_knitwork_green_site_rna_tunnel_impure_fragalysis.sdf']

>  <SLURM_JOB_ID>  (359) 
220466

>  <distance_score>  (359) 
0.949264

>  <original SMILES>  (359) 
Cc1ccc(NC(=O)c2cocn2)c2cccnc12

>  <alias>  (359) 
None

>  <ref_pdb>  (359) 
z0221a

>  <inchikey>  (359) 
BXVOWEOXLMRDET-UHFFFAOYSA-N

$$$$
KSXXJFQERZBGMI-UHFFFAOYSA-N
     RDKit          3D

 13 14  0  0  0  0  0  0  0  0999 V2000
  -24.3853  -30.4987  -17.7440 O   0  0  0  0  0  0  0  0  0  0  0  0
  -25.0790  -31.1103  -18.5530 C   0  0  0  0  0  0  0  0  0  0  0  0
  -25.4088  -32.5649  -18.3951 C   0  0  0  0  0  0  0  0  0  0  0  0
  -25.8588  -33.1607  -20.0099 S   0  0  0  0  0  0  0  0  0  0  0  0
  -25.8709  -31.5448  -20.6927 C   0  0  0  0  0  0  0  0  0  0  0  0
  -26.1704  -31.3981  -22.3114 S   0  0  0  0  0  0  0  0  0  0  0  0
  -25.5573  -30.5866  -19.7495 N   0  0  0  0  0  0  0  0  0  0  0  0
  -25.3911  -29.1729  -19.9716 C   0  0  0  0  0  0  0  0  0  0  0  0
  -25.0704  -28.5956  -21.2016 C   0  0  0  0  0  0  0  0  0  0  0  0
  -24.7593  -27.2432  -21.3129 C   0  0  0  0  0  0  0  0  0  0  0  0
  -24.8629  -26.4650  -20.1863 C   0  0  0  0  0  0  0  0  0  0  0  0
  -25.2450  -26.9414  -18.9885 N   0  0  0  0  0  0  0  0  0  0  0  0
  -25.4804  -28.2725  -18.9072 C   0  0  0  0  0  0  0  0  0  0  0  0
  1  2  2  0
  2  3  1  0
  3  4  1  0
  4  5  1  0
  5  6  2  0
  5  7  1  0
  7  8  1  0
  8  9  2  0
  9 10  1  0
 10 11  2  0
 11 12  1  0
 12 13  2  0
  7  2  1  0
 13  8  1  0
M  END
>  <fragmenstein_mode>  (360) 
expansion

>  <name>  (360) 
KSXXJFQERZBGMI-UHFFFAOYSA-N

>  <fragmenstein_runtime>  (360) 
1.270721

>  <HIPPO Compound ID>  (360) 
6925

>  <SLURM_JOB_NAME>  (360) 
BulkDock.place:Flavi_NS5_RdRp:RdRp_knitwork_green_site_rna_tunnel_impure_split4000_batch013

>  <ref_mols>  (360) 
d0472b,z1018a

>  <Multi-SuCOS>  (360) 
0.4993

>  <tags>  (360) 
['Fragmenstein placed', 'RdRp_knitwork_green_site_rna_tunnel_impure_fragalysis.sdf Pose OK']

>  <scratch_subdir>  (360) 
/opt/xchem-fragalysis-2/maxwin/BulkDock/SCRATCH/220464/C6925-P41

>  <energy_score>  (360) 
-19.981085

>  <fragmenstein_error>  (360) 
None

>  <csv_name>  (360) 
RdRp_knitwork_green_site_rna_tunnel_impure_split4000_batch013.csv

>  <merge_set>  (360) 
RdRp_knitwork_green_site_rna_tunnel_impure_fragalysis.sdf

>  <original ID>  (360) 
KSXXJFQERZBGMI-UHFFFAOYSA-N

>  <HIPPO Pose ID>  (360) 
209397

>  <fragmenstein_outcome>  (360) 
acceptable

>  <exports>  (360) 
['/opt/xchem-fragalysis-2/maxwin/BulkDock/OUTPUTS/RdRp_knitwork_green_site_rna_tunnel_impure_split4000_batch013_220464.sdf', '/opt/xchem-fragalysis-2/maxwin/BulkDock/OUTPUTS/RdRp_knitwork_green_site_rna_tunnel_impure_fragalysis.sdf']

>  <SLURM_JOB_ID>  (360) 
220464

>  <distance_score>  (360) 
0.922813

>  <original SMILES>  (360) 
O=C1CSC(=S)N1c1cccnc1

>  <alias>  (360) 
None

>  <ref_pdb>  (360) 
d0472b

>  <inchikey>  (360) 
KSXXJFQERZBGMI-UHFFFAOYSA-N

$$$$
BMPWZIURAKPFIJ-UHFFFAOYSA-N
     RDKit          3D

 19 21  0  0  0  0  0  0  0  0999 V2000
  -26.1983  -31.3756  -21.0638 O   0  0  0  0  0  0  0  0  0  0  0  0
  -26.5790  -30.2737  -21.0467 C   0  0  0  0  0  0  0  0  0  0  0  0
  -27.2735  -29.4743  -19.9275 N   0  0  0  0  0  0  0  0  0  0  0  0
  -27.7157  -29.8758  -18.6708 C   0  0  0  0  0  0  0  0  0  0  0  0
  -29.0640  -29.6670  -18.4042 C   0  0  0  0  0  0  0  0  0  0  0  0
  -29.5839  -30.0332  -17.1751 C   0  0  0  0  0  0  0  0  0  0  0  0
  -28.7516  -30.6029  -16.2122 C   0  0  0  0  0  0  0  0  0  0  0  0
  -29.4965  -31.0489  -14.7099 Cl  0  0  0  0  0  0  0  0  0  0  0  0
  -27.3827  -30.8084  -16.4298 C   0  0  0  0  0  0  0  0  0  0  0  0
  -26.5989  -31.3213  -15.4497 N   0  0  0  0  0  0  0  0  0  0  0  0
  -25.2809  -31.4817  -15.6755 C   0  0  0  0  0  0  0  0  0  0  0  0
  -24.6682  -31.1383  -16.8573 C   0  0  0  0  0  0  0  0  0  0  0  0
  -25.4618  -30.6168  -17.8718 C   0  0  0  0  0  0  0  0  0  0  0  0
  -26.8529  -30.4436  -17.6922 C   0  0  0  0  0  0  0  0  0  0  0  0
  -26.3346  -29.3890  -22.1664 C   0  0  0  0  0  0  0  0  0  0  0  0
  -26.2334  -29.6093  -23.5210 C   0  0  0  0  0  0  0  0  0  0  0  0
  -25.7481  -28.4965  -24.1470 N   0  0  0  0  0  0  0  0  0  0  0  0
  -25.5126  -27.6620  -23.1626 C   0  0  0  0  0  0  0  0  0  0  0  0
  -25.9134  -28.0977  -21.9333 O   0  0  0  0  0  0  0  0  0  0  0  0
  1  2  2  0
  2  3  1  0
  3  4  1  0
  4  5  2  0
  5  6  1  0
  6  7  2  0
  7  8  1  0
  7  9  1  0
  9 10  2  0
 10 11  1  0
 11 12  2  0
 12 13  1  0
 13 14  2  0
  2 15  1  0
 15 16  2  0
 16 17  1  0
 17 18  2  0
 18 19  1  0
 14  4  1  0
 19 15  1  0
 14  9  1  0
M  END
>  <fragmenstein_mode>  (361) 
expansion

>  <name>  (361) 
BMPWZIURAKPFIJ-UHFFFAOYSA-N

>  <fragmenstein_runtime>  (361) 
3.254249

>  <HIPPO Compound ID>  (361) 
29512

>  <SLURM_JOB_NAME>  (361) 
BulkDock.place:Flavi_NS5_RdRp:RdRp_knitwork_green_site_rna_tunnel_impure_split4000_batch015

>  <ref_mols>  (361) 
z0221a,z1040a

>  <Multi-SuCOS>  (361) 
0.625113

>  <tags>  (361) 
['Fragmenstein placed', 'RdRp_knitwork_green_site_rna_tunnel_impure_fragalysis.sdf Pose OK']

>  <scratch_subdir>  (361) 
/opt/xchem-fragalysis-2/maxwin/BulkDock/SCRATCH/220466/C29512-P105

>  <energy_score>  (361) 
-17.855211

>  <fragmenstein_error>  (361) 
None

>  <csv_name>  (361) 
RdRp_knitwork_green_site_rna_tunnel_impure_split4000_batch015.csv

>  <merge_set>  (361) 
RdRp_knitwork_green_site_rna_tunnel_impure_fragalysis.sdf

>  <original ID>  (361) 
BMPWZIURAKPFIJ-UHFFFAOYSA-N

>  <HIPPO Pose ID>  (361) 
209511

>  <fragmenstein_outcome>  (361) 
acceptable

>  <exports>  (361) 
['/opt/xchem-fragalysis-2/maxwin/BulkDock/OUTPUTS/RdRp_knitwork_green_site_rna_tunnel_impure_split4000_batch015_220466.sdf', '/opt/xchem-fragalysis-2/maxwin/BulkDock/OUTPUTS/RdRp_knitwork_green_site_rna_tunnel_impure_fragalysis.sdf']

>  <SLURM_JOB_ID>  (361) 
220466

>  <distance_score>  (361) 
0.935207

>  <original SMILES>  (361) 
O=C(Nc1ccc(Cl)c2ncccc12)c1cnco1

>  <alias>  (361) 
None

>  <ref_pdb>  (361) 
z0221a

>  <inchikey>  (361) 
BMPWZIURAKPFIJ-UHFFFAOYSA-N

$$$$
NEWUTHIBOCWQSX-UHFFFAOYSA-N
     RDKit          3D

 12 13  0  0  0  0  0  0  0  0999 V2000
  -26.2559  -31.6027  -22.2374 O   0  0  0  0  0  0  0  0  0  0  0  0
  -26.0997  -31.7441  -21.0365 C   0  0  0  0  0  0  0  0  0  0  0  0
  -26.0722  -33.0560  -20.3203 C   0  0  0  0  0  0  0  0  0  0  0  0
  -25.7955  -32.6126  -18.9240 C   0  0  0  0  0  0  0  0  0  0  0  0
  -25.7023  -31.3345  -18.7804 N   0  0  0  0  0  0  0  0  0  0  0  0
  -25.8740  -30.7924  -20.0326 N   0  0  0  0  0  0  0  0  0  0  0  0
  -25.5729  -29.4246  -20.2030 C   0  0  0  0  0  0  0  0  0  0  0  0
  -25.3034  -28.8937  -21.4617 C   0  0  0  0  0  0  0  0  0  0  0  0
  -24.8782  -27.5799  -21.5495 C   0  0  0  0  0  0  0  0  0  0  0  0
  -24.8110  -26.7441  -20.4982 N   0  0  0  0  0  0  0  0  0  0  0  0
  -25.1191  -27.2629  -19.2924 C   0  0  0  0  0  0  0  0  0  0  0  0
  -25.4744  -28.5836  -19.0928 C   0  0  0  0  0  0  0  0  0  0  0  0
  1  2  2  0
  2  3  1  0
  3  4  1  0
  4  5  2  0
  5  6  1  0
  6  7  1  0
  7  8  2  0
  8  9  1  0
  9 10  2  0
 10 11  1  0
 11 12  2  0
  6  2  1  0
 12  7  1  0
M  END
>  <fragmenstein_mode>  (362) 
expansion

>  <name>  (362) 
NEWUTHIBOCWQSX-UHFFFAOYSA-N

>  <fragmenstein_runtime>  (362) 
1.465253

>  <HIPPO Compound ID>  (362) 
6939

>  <SLURM_JOB_NAME>  (362) 
BulkDock.place:Flavi_NS5_RdRp:RdRp_knitwork_green_site_rna_tunnel_impure_split4000_batch013

>  <ref_mols>  (362) 
d0472b,z1018a

>  <Multi-SuCOS>  (362) 
0.731997

>  <tags>  (362) 
['Fragmenstein placed', 'RdRp_knitwork_green_site_rna_tunnel_impure_fragalysis.sdf Pose OK']

>  <scratch_subdir>  (362) 
/opt/xchem-fragalysis-2/maxwin/BulkDock/SCRATCH/220464/C6939-P41

>  <energy_score>  (362) 
-10.110331

>  <fragmenstein_error>  (362) 
None

>  <csv_name>  (362) 
RdRp_knitwork_green_site_rna_tunnel_impure_split4000_batch013.csv

>  <merge_set>  (362) 
RdRp_knitwork_green_site_rna_tunnel_impure_fragalysis.sdf

>  <original ID>  (362) 
NEWUTHIBOCWQSX-UHFFFAOYSA-N

>  <HIPPO Pose ID>  (362) 
209521

>  <fragmenstein_outcome>  (362) 
acceptable

>  <exports>  (362) 
['/opt/xchem-fragalysis-2/maxwin/BulkDock/OUTPUTS/RdRp_knitwork_green_site_rna_tunnel_impure_split4000_batch013_220464.sdf', '/opt/xchem-fragalysis-2/maxwin/BulkDock/OUTPUTS/RdRp_knitwork_green_site_rna_tunnel_impure_fragalysis.sdf']

>  <SLURM_JOB_ID>  (362) 
220464

>  <distance_score>  (362) 
0.697062

>  <original SMILES>  (362) 
O=C1CC=NN1c1ccncc1

>  <alias>  (362) 
None

>  <ref_pdb>  (362) 
d0472b

>  <inchikey>  (362) 
NEWUTHIBOCWQSX-UHFFFAOYSA-N

$$$$
MDKIWBWVJPZCMF-SNVBAGLBSA-N
     RDKit          3D

 15 15  0  0  0  0  0  0  0  0999 V2000
  -29.2739  -30.0106  -18.6509 C   0  0  0  0  0  0  0  0  0  0  0  0
  -27.8769  -30.3745  -19.1453 C   0  0  0  0  0  0  0  0  0  0  0  0
  -27.7735  -30.6128  -20.6593 C   0  0  1  0  0  0  0  0  0  0  0  0
  -28.4184  -29.1438  -21.5669 S   0  0  0  0  0  0  0  0  0  0  0  0
  -26.4001  -31.0647  -21.2933 C   0  0  0  0  0  0  0  0  0  0  0  0
  -26.2345  -30.9112  -22.4397 O   0  0  0  0  0  0  0  0  0  0  0  0
  -25.4978  -31.7411  -20.2311 N   0  0  0  0  0  0  0  0  0  0  0  0
  -24.2400  -32.4573  -20.3776 C   0  0  0  0  0  0  0  0  0  0  0  0
  -23.2867  -31.8440  -21.4170 C   0  0  0  0  0  0  0  0  0  0  0  0
  -23.0818  -32.5983  -22.7108 C   0  0  0  0  0  0  0  0  0  0  0  0
  -21.8261  -32.5705  -23.3308 C   0  0  0  0  0  0  0  0  0  0  0  0
  -21.6685  -33.1930  -24.5602 C   0  0  0  0  0  0  0  0  0  0  0  0
  -22.6667  -33.8326  -25.2104 N   0  0  0  0  0  0  0  0  0  0  0  0
  -23.8744  -33.8265  -24.6077 C   0  0  0  0  0  0  0  0  0  0  0  0
  -24.1258  -33.2349  -23.3811 C   0  0  0  0  0  0  0  0  0  0  0  0
  1  2  1  0
  2  3  1  0
  3  4  1  6
  3  5  1  0
  5  6  2  0
  5  7  1  0
  7  8  1  0
  8  9  1  0
  9 10  1  0
 10 11  2  0
 11 12  1  0
 12 13  2  0
 13 14  1  0
 14 15  2  0
 15 10  1  0
M  END
>  <fragmenstein_mode>  (363) 
expansion

>  <name>  (363) 
MDKIWBWVJPZCMF-SNVBAGLBSA-N

>  <fragmenstein_runtime>  (363) 
3.930207

>  <HIPPO Compound ID>  (363) 
43408

>  <SLURM_JOB_NAME>  (363) 
BulkDock.place:Flavi_NS5_RdRp:RdRp_knitwork_green_site_rna_tunnel_impure_split4000_batch014

>  <ref_mols>  (363) 
z0215a,z1018a

>  <Multi-SuCOS>  (363) 
0.541526

>  <tags>  (363) 
['Fragmenstein placed', 'RdRp_knitwork_green_site_rna_tunnel_impure_fragalysis.sdf Pose OK']

>  <scratch_subdir>  (363) 
/opt/xchem-fragalysis-2/maxwin/BulkDock/SCRATCH/220465/C43408-P206

>  <energy_score>  (363) 
-6.287809

>  <fragmenstein_error>  (363) 
None

>  <csv_name>  (363) 
RdRp_knitwork_green_site_rna_tunnel_impure_split4000_batch014.csv

>  <merge_set>  (363) 
RdRp_knitwork_green_site_rna_tunnel_impure_fragalysis.sdf

>  <original ID>  (363) 
MDKIWBWVJPZCMF-SNVBAGLBSA-N

>  <HIPPO Pose ID>  (363) 
209616

>  <fragmenstein_outcome>  (363) 
acceptable

>  <exports>  (363) 
['/opt/xchem-fragalysis-2/maxwin/BulkDock/OUTPUTS/RdRp_knitwork_green_site_rna_tunnel_impure_split4000_batch014_220465.sdf', '/opt/xchem-fragalysis-2/maxwin/BulkDock/OUTPUTS/RdRp_knitwork_green_site_rna_tunnel_impure_fragalysis.sdf']

>  <SLURM_JOB_ID>  (363) 
220465

>  <distance_score>  (363) 
0.719485

>  <original SMILES>  (363) 
CC[C@@H](S)C(=O)NCCc1ccncc1

>  <alias>  (363) 
None

>  <ref_pdb>  (363) 
z1018a

>  <inchikey>  (363) 
MDKIWBWVJPZCMF-SNVBAGLBSA-N

$$$$
PUJFAVBKNLIGFV-UHFFFAOYSA-N
     RDKit          3D

 12 13  0  0  0  0  0  0  0  0999 V2000
  -26.2923  -31.5754  -22.2344 O   0  0  0  0  0  0  0  0  0  0  0  0
  -26.1111  -31.7478  -21.0415 C   0  0  0  0  0  0  0  0  0  0  0  0
  -26.0980  -33.0766  -20.3560 C   0  0  0  0  0  0  0  0  0  0  0  0
  -25.7632  -32.6736  -18.9601 C   0  0  0  0  0  0  0  0  0  0  0  0
  -25.6295  -31.4020  -18.7924 N   0  0  0  0  0  0  0  0  0  0  0  0
  -25.8312  -30.8262  -20.0243 N   0  0  0  0  0  0  0  0  0  0  0  0
  -25.4914  -29.4676  -20.1753 C   0  0  0  0  0  0  0  0  0  0  0  0
  -25.3134  -28.8794  -21.4268 C   0  0  0  0  0  0  0  0  0  0  0  0
  -24.8381  -27.5728  -21.5215 C   0  0  0  0  0  0  0  0  0  0  0  0
  -24.6263  -26.8632  -20.3571 C   0  0  0  0  0  0  0  0  0  0  0  0
  -24.8266  -27.3732  -19.1251 N   0  0  0  0  0  0  0  0  0  0  0  0
  -25.2363  -28.6650  -19.0648 C   0  0  0  0  0  0  0  0  0  0  0  0
  1  2  2  0
  2  3  1  0
  3  4  1  0
  4  5  2  0
  5  6  1  0
  6  7  1  0
  7  8  2  0
  8  9  1  0
  9 10  2  0
 10 11  1  0
 11 12  2  0
  6  2  1  0
 12  7  1  0
M  END
>  <fragmenstein_mode>  (364) 
expansion

>  <name>  (364) 
PUJFAVBKNLIGFV-UHFFFAOYSA-N

>  <fragmenstein_runtime>  (364) 
0.988161

>  <HIPPO Compound ID>  (364) 
6970

>  <SLURM_JOB_NAME>  (364) 
BulkDock.place:Flavi_NS5_RdRp:RdRp_knitwork_green_site_rna_tunnel_impure_split4000_batch013

>  <ref_mols>  (364) 
d0472b,z1018a

>  <Multi-SuCOS>  (364) 
0.750347

>  <tags>  (364) 
['Fragmenstein placed', 'RdRp_knitwork_green_site_rna_tunnel_impure_fragalysis.sdf Pose OK']

>  <scratch_subdir>  (364) 
/opt/xchem-fragalysis-2/maxwin/BulkDock/SCRATCH/220464/C6970-P41

>  <energy_score>  (364) 
-6.577146

>  <fragmenstein_error>  (364) 
None

>  <csv_name>  (364) 
RdRp_knitwork_green_site_rna_tunnel_impure_split4000_batch013.csv

>  <merge_set>  (364) 
RdRp_knitwork_green_site_rna_tunnel_impure_fragalysis.sdf

>  <original ID>  (364) 
PUJFAVBKNLIGFV-UHFFFAOYSA-N

>  <HIPPO Pose ID>  (364) 
209626

>  <fragmenstein_outcome>  (364) 
acceptable

>  <exports>  (364) 
['/opt/xchem-fragalysis-2/maxwin/BulkDock/OUTPUTS/RdRp_knitwork_green_site_rna_tunnel_impure_split4000_batch013_220464.sdf', '/opt/xchem-fragalysis-2/maxwin/BulkDock/OUTPUTS/RdRp_knitwork_green_site_rna_tunnel_impure_fragalysis.sdf']

>  <SLURM_JOB_ID>  (364) 
220464

>  <distance_score>  (364) 
0.726828

>  <original SMILES>  (364) 
O=C1CC=NN1c1cccnc1

>  <alias>  (364) 
None

>  <ref_pdb>  (364) 
d0472b

>  <inchikey>  (364) 
PUJFAVBKNLIGFV-UHFFFAOYSA-N

$$$$
ZUARNLMUUHUHOD-UHFFFAOYSA-N
     RDKit          3D

 20 22  0  0  0  0  0  0  0  0999 V2000
  -29.0755  -32.2607  -14.3396 C   0  0  0  0  0  0  0  0  0  0  0  0
  -29.3264  -30.9263  -14.7783 O   0  0  0  0  0  0  0  0  0  0  0  0
  -28.7182  -30.6220  -15.9793 C   0  0  0  0  0  0  0  0  0  0  0  0
  -29.5765  -30.0229  -16.9009 C   0  0  0  0  0  0  0  0  0  0  0  0
  -29.1058  -29.6703  -18.1525 C   0  0  0  0  0  0  0  0  0  0  0  0
  -27.7735  -29.8969  -18.4795 C   0  0  0  0  0  0  0  0  0  0  0  0
  -27.4043  -29.5312  -19.7703 N   0  0  0  0  0  0  0  0  0  0  0  0
  -26.6404  -30.3138  -20.8500 C   0  0  0  0  0  0  0  0  0  0  0  0
  -26.2647  -31.4172  -20.8601 O   0  0  0  0  0  0  0  0  0  0  0  0
  -26.3729  -29.4179  -21.9837 C   0  0  0  0  0  0  0  0  0  0  0  0
  -26.2614  -29.8583  -23.2873 C   0  0  0  0  0  0  0  0  0  0  0  0
  -25.6351  -28.6321  -24.2878 S   0  0  0  0  0  0  0  0  0  0  0  0
  -25.5504  -27.5947  -22.9234 C   0  0  0  0  0  0  0  0  0  0  0  0
  -26.0505  -28.0713  -21.7996 N   0  0  0  0  0  0  0  0  0  0  0  0
  -26.8737  -30.4629  -17.5348 C   0  0  0  0  0  0  0  0  0  0  0  0
  -25.4889  -30.6290  -17.7655 C   0  0  0  0  0  0  0  0  0  0  0  0
  -24.6551  -31.1473  -16.7834 C   0  0  0  0  0  0  0  0  0  0  0  0
  -25.2213  -31.4899  -15.5792 C   0  0  0  0  0  0  0  0  0  0  0  0
  -26.5302  -31.3346  -15.3027 N   0  0  0  0  0  0  0  0  0  0  0  0
  -27.3551  -30.8275  -16.2523 C   0  0  0  0  0  0  0  0  0  0  0  0
  1  2  1  0
  2  3  1  0
  3  4  2  0
  4  5  1  0
  5  6  2  0
  6  7  1  0
  7  8  1  0
  8  9  2  0
  8 10  1  0
 10 11  2  0
 11 12  1  0
 12 13  1  0
 13 14  2  0
  6 15  1  0
 15 16  2  0
 16 17  1  0
 17 18  2  0
 18 19  1  0
 19 20  2  0
 20  3  1  0
 14 10  1  0
 20 15  1  0
M  END
>  <fragmenstein_mode>  (365) 
expansion

>  <name>  (365) 
ZUARNLMUUHUHOD-UHFFFAOYSA-N

>  <fragmenstein_runtime>  (365) 
4.902581

>  <HIPPO Compound ID>  (365) 
29711

>  <SLURM_JOB_NAME>  (365) 
BulkDock.place:Flavi_NS5_RdRp:RdRp_knitwork_green_site_rna_tunnel_impure_split4000_batch015

>  <ref_mols>  (365) 
z0221a,z1040a

>  <Multi-SuCOS>  (365) 
0.574875

>  <tags>  (365) 
['Fragmenstein placed', 'RdRp_knitwork_green_site_rna_tunnel_impure_fragalysis.sdf Pose OK']

>  <scratch_subdir>  (365) 
/opt/xchem-fragalysis-2/maxwin/BulkDock/SCRATCH/220466/C29711-P105

>  <energy_score>  (365) 
-40.7658

>  <fragmenstein_error>  (365) 
None

>  <csv_name>  (365) 
RdRp_knitwork_green_site_rna_tunnel_impure_split4000_batch015.csv

>  <merge_set>  (365) 
RdRp_knitwork_green_site_rna_tunnel_impure_fragalysis.sdf

>  <original ID>  (365) 
ZUARNLMUUHUHOD-UHFFFAOYSA-N

>  <HIPPO Pose ID>  (365) 
209660

>  <fragmenstein_outcome>  (365) 
acceptable

>  <exports>  (365) 
['/opt/xchem-fragalysis-2/maxwin/BulkDock/OUTPUTS/RdRp_knitwork_green_site_rna_tunnel_impure_split4000_batch015_220466.sdf', '/opt/xchem-fragalysis-2/maxwin/BulkDock/OUTPUTS/RdRp_knitwork_green_site_rna_tunnel_impure_fragalysis.sdf']

>  <SLURM_JOB_ID>  (365) 
220466

>  <distance_score>  (365) 
0.974473

>  <original SMILES>  (365) 
COc1ccc(NC(=O)c2cscn2)c2cccnc12

>  <alias>  (365) 
None

>  <ref_pdb>  (365) 
z0221a

>  <inchikey>  (365) 
ZUARNLMUUHUHOD-UHFFFAOYSA-N

$$$$
XOMKVBVZOGDFRY-UHFFFAOYSA-N
     RDKit          3D

 12 13  0  0  0  0  0  0  0  0999 V2000
  -26.2670  -31.5532  -22.2262 O   0  0  0  0  0  0  0  0  0  0  0  0
  -26.1123  -31.6816  -21.0233 C   0  0  0  0  0  0  0  0  0  0  0  0
  -26.1120  -32.9890  -20.2974 C   0  0  0  0  0  0  0  0  0  0  0  0
  -25.8302  -32.5424  -18.9035 C   0  0  0  0  0  0  0  0  0  0  0  0
  -25.7096  -31.2669  -18.7718 N   0  0  0  0  0  0  0  0  0  0  0  0
  -25.8691  -30.7299  -20.0323 N   0  0  0  0  0  0  0  0  0  0  0  0
  -25.5520  -29.3647  -20.2101 C   0  0  0  0  0  0  0  0  0  0  0  0
  -25.2940  -28.8551  -21.4784 C   0  0  0  0  0  0  0  0  0  0  0  0
  -24.8119  -27.5535  -21.6096 C   0  0  0  0  0  0  0  0  0  0  0  0
  -24.6833  -26.7582  -20.4861 C   0  0  0  0  0  0  0  0  0  0  0  0
  -25.0216  -27.3078  -19.2666 C   0  0  0  0  0  0  0  0  0  0  0  0
  -25.4246  -28.5834  -19.1069 N   0  0  0  0  0  0  0  0  0  0  0  0
  1  2  2  0
  2  3  1  0
  3  4  1  0
  4  5  2  0
  5  6  1  0
  6  7  1  0
  7  8  2  0
  8  9  1  0
  9 10  2  0
 10 11  1  0
 11 12  2  0
  6  2  1  0
 12  7  1  0
M  END
>  <fragmenstein_mode>  (366) 
expansion

>  <name>  (366) 
XOMKVBVZOGDFRY-UHFFFAOYSA-N

>  <fragmenstein_runtime>  (366) 
1.227067

>  <HIPPO Compound ID>  (366) 
6977

>  <SLURM_JOB_NAME>  (366) 
BulkDock.place:Flavi_NS5_RdRp:RdRp_knitwork_green_site_rna_tunnel_impure_split4000_batch013

>  <ref_mols>  (366) 
d0472b,z1018a

>  <Multi-SuCOS>  (366) 
0.885871

>  <tags>  (366) 
['Fragmenstein placed', 'RdRp_knitwork_green_site_rna_tunnel_impure_fragalysis.sdf Pose OK']

>  <scratch_subdir>  (366) 
/opt/xchem-fragalysis-2/maxwin/BulkDock/SCRATCH/220464/C6977-P41

>  <energy_score>  (366) 
-10.170977

>  <fragmenstein_error>  (366) 
None

>  <csv_name>  (366) 
RdRp_knitwork_green_site_rna_tunnel_impure_split4000_batch013.csv

>  <merge_set>  (366) 
RdRp_knitwork_green_site_rna_tunnel_impure_fragalysis.sdf

>  <original ID>  (366) 
XOMKVBVZOGDFRY-UHFFFAOYSA-N

>  <HIPPO Pose ID>  (366) 
209663

>  <fragmenstein_outcome>  (366) 
acceptable

>  <exports>  (366) 
['/opt/xchem-fragalysis-2/maxwin/BulkDock/OUTPUTS/RdRp_knitwork_green_site_rna_tunnel_impure_split4000_batch013_220464.sdf', '/opt/xchem-fragalysis-2/maxwin/BulkDock/OUTPUTS/RdRp_knitwork_green_site_rna_tunnel_impure_fragalysis.sdf']

>  <SLURM_JOB_ID>  (366) 
220464

>  <distance_score>  (366) 
0.555291

>  <original SMILES>  (366) 
O=C1CC=NN1c1ccccn1

>  <alias>  (366) 
None

>  <ref_pdb>  (366) 
d0472b

>  <inchikey>  (366) 
XOMKVBVZOGDFRY-UHFFFAOYSA-N

$$$$
CKOCSKQLEOIAOS-UHFFFAOYSA-N
     RDKit          3D

 27 30  0  0  0  0  0  0  0  0999 V2000
  -23.7549  -37.3218  -21.7210 C   0  0  0  0  0  0  0  0  0  0  0  0
  -23.0520  -35.9981  -21.7254 C   0  0  0  0  0  0  0  0  0  0  0  0
  -23.5089  -34.9691  -22.5316 C   0  0  0  0  0  0  0  0  0  0  0  0
  -22.8448  -33.7318  -22.5276 C   0  0  0  0  0  0  0  0  0  0  0  0
  -23.3717  -32.6417  -23.4313 C   0  0  0  0  0  0  0  0  0  0  0  0
  -24.4600  -31.9483  -22.8060 N   0  0  0  0  0  0  0  0  0  0  0  0
  -25.9770  -32.2729  -22.7766 C   0  0  0  0  0  0  0  0  0  0  0  0
  -26.5614  -33.1947  -23.1915 O   0  0  0  0  0  0  0  0  0  0  0  0
  -26.6746  -31.1612  -21.9614 C   0  0  0  0  0  0  0  0  0  0  0  0
  -27.7159  -31.7913  -21.2240 O   0  0  0  0  0  0  0  0  0  0  0  0
  -28.3272  -31.0089  -20.2798 C   0  0  0  0  0  0  0  0  0  0  0  0
  -29.6167  -30.5769  -20.5820 C   0  0  0  0  0  0  0  0  0  0  0  0
  -30.4636  -30.1402  -19.5768 C   0  0  0  0  0  0  0  0  0  0  0  0
  -29.9991  -30.0720  -18.2676 C   0  0  0  0  0  0  0  0  0  0  0  0
  -28.6777  -30.4090  -17.9557 C   0  0  0  0  0  0  0  0  0  0  0  0
  -28.2187  -30.3003  -16.6363 C   0  0  0  0  0  0  0  0  0  0  0  0
  -26.9129  -30.6559  -16.3060 C   0  0  0  0  0  0  0  0  0  0  0  0
  -26.0605  -31.1479  -17.2853 C   0  0  0  0  0  0  0  0  0  0  0  0
  -26.5148  -31.2910  -18.5963 C   0  0  0  0  0  0  0  0  0  0  0  0
  -27.8177  -30.8996  -18.9678 C   0  0  0  0  0  0  0  0  0  0  0  0
  -21.7399  -33.5561  -21.6604 C   0  0  0  0  0  0  0  0  0  0  0  0
  -21.0297  -32.3397  -21.5110 C   0  0  0  0  0  0  0  0  0  0  0  0
  -19.9385  -32.2387  -20.6496 C   0  0  0  0  0  0  0  0  0  0  0  0
  -19.5222  -33.3541  -19.9401 C   0  0  0  0  0  0  0  0  0  0  0  0
  -20.2262  -34.5529  -20.0677 C   0  0  0  0  0  0  0  0  0  0  0  0
  -21.3355  -34.6744  -20.8947 C   0  0  0  0  0  0  0  0  0  0  0  0
  -21.9672  -35.8611  -20.9289 N   0  0  0  0  0  0  0  0  0  0  0  0
  1  2  1  0
  2  3  2  0
  3  4  1  0
  4  5  1  0
  5  6  1  0
  6  7  1  0
  7  8  2  0
  7  9  1  0
  9 10  1  0
 10 11  1  0
 11 12  2  0
 12 13  1  0
 13 14  2  0
 14 15  1  0
 15 16  2  0
 16 17  1  0
 17 18  2  0
 18 19  1  0
 19 20  2  0
  4 21  2  0
 21 22  1  0
 22 23  2  0
 23 24  1  0
 24 25  2  0
 25 26  1  0
 26 27  2  0
 27  2  1  0
 20 11  1  0
 26 21  1  0
 20 15  1  0
M  END
>  <fragmenstein_mode>  (367) 
expansion

>  <name>  (367) 
CKOCSKQLEOIAOS-UHFFFAOYSA-N

>  <fragmenstein_runtime>  (367) 
14.865704

>  <HIPPO Compound ID>  (367) 
46954

>  <SLURM_JOB_NAME>  (367) 
BulkDock.place:Flavi_NS5_RdRp:RdRp_knitwork_green_site_rna_tunnel_impure_split4000_batch004

>  <ref_mols>  (367) 
z1040a,3vws-b

>  <Multi-SuCOS>  (367) 
0.640867

>  <tags>  (367) 
['Fragmenstein placed', 'RdRp_knitwork_green_site_rna_tunnel_impure_fragalysis.sdf Pose OK']

>  <scratch_subdir>  (367) 
/opt/xchem-fragalysis-2/maxwin/BulkDock/SCRATCH/220455/C46954-P208

>  <energy_score>  (367) 
-7.838426

>  <fragmenstein_error>  (367) 
None

>  <csv_name>  (367) 
RdRp_knitwork_green_site_rna_tunnel_impure_split4000_batch004.csv

>  <merge_set>  (367) 
RdRp_knitwork_green_site_rna_tunnel_impure_fragalysis.sdf

>  <original ID>  (367) 
CKOCSKQLEOIAOS-UHFFFAOYSA-N

>  <HIPPO Pose ID>  (367) 
209671

>  <fragmenstein_outcome>  (367) 
acceptable

>  <exports>  (367) 
['/opt/xchem-fragalysis-2/maxwin/BulkDock/OUTPUTS/RdRp_knitwork_green_site_rna_tunnel_impure_split4000_batch004_220455.sdf', '/opt/xchem-fragalysis-2/maxwin/BulkDock/OUTPUTS/RdRp_knitwork_green_site_rna_tunnel_impure_fragalysis.sdf']

>  <SLURM_JOB_ID>  (367) 
220455

>  <distance_score>  (367) 
0.807789

>  <original SMILES>  (367) 
Cc1cc(CNC(=O)COc2cccc3ccccc23)c2ccccc2n1

>  <alias>  (367) 
None

>  <ref_pdb>  (367) 
z1040a

>  <inchikey>  (367) 
CKOCSKQLEOIAOS-UHFFFAOYSA-N

$$$$
KKSSAXXLSQDVQM-UHFFFAOYSA-N
     RDKit          3D

 21 23  0  0  0  0  0  0  0  0999 V2000
  -29.1855  -32.3207  -14.2075 C   0  0  0  0  0  0  0  0  0  0  0  0
  -29.4637  -30.9789  -14.6062 O   0  0  0  0  0  0  0  0  0  0  0  0
  -28.8072  -30.6098  -15.7633 C   0  0  0  0  0  0  0  0  0  0  0  0
  -29.6442  -30.0335  -16.7182 C   0  0  0  0  0  0  0  0  0  0  0  0
  -29.1279  -29.6331  -17.9360 C   0  0  0  0  0  0  0  0  0  0  0  0
  -27.7686  -29.7802  -18.1887 C   0  0  0  0  0  0  0  0  0  0  0  0
  -27.3532  -29.4303  -19.4705 N   0  0  0  0  0  0  0  0  0  0  0  0
  -26.4365  -30.1679  -20.4591 C   0  0  0  0  0  0  0  0  0  0  0  0
  -25.8201  -31.1495  -20.3307 O   0  0  0  0  0  0  0  0  0  0  0  0
  -26.3774  -29.4457  -21.7610 C   0  0  0  0  0  0  0  0  0  0  0  0
  -26.5448  -30.2032  -22.9094 C   0  0  0  0  0  0  0  0  0  0  0  0
  -26.1491  -29.6594  -24.1228 C   0  0  0  0  0  0  0  0  0  0  0  0
  -25.5548  -28.4054  -24.1234 C   0  0  0  0  0  0  0  0  0  0  0  0
  -25.4778  -27.6967  -22.9300 C   0  0  0  0  0  0  0  0  0  0  0  0
  -25.9183  -28.1695  -21.7400 N   0  0  0  0  0  0  0  0  0  0  0  0
  -26.8908  -30.3116  -17.2014 C   0  0  0  0  0  0  0  0  0  0  0  0
  -25.4863  -30.3916  -17.3481 C   0  0  0  0  0  0  0  0  0  0  0  0
  -24.6833  -30.9006  -16.3367 C   0  0  0  0  0  0  0  0  0  0  0  0
  -25.2998  -31.3107  -15.1795 C   0  0  0  0  0  0  0  0  0  0  0  0
  -26.6288  -31.2290  -14.9757 N   0  0  0  0  0  0  0  0  0  0  0  0
  -27.4224  -30.7366  -15.9599 C   0  0  0  0  0  0  0  0  0  0  0  0
  1  2  1  0
  2  3  1  0
  3  4  2  0
  4  5  1  0
  5  6  2  0
  6  7  1  0
  7  8  1  0
  8  9  2  0
  8 10  1  0
 10 11  2  0
 11 12  1  0
 12 13  2  0
 13 14  1  0
 14 15  2  0
  6 16  1  0
 16 17  2  0
 17 18  1  0
 18 19  2  0
 19 20  1  0
 20 21  2  0
 21  3  1  0
 15 10  1  0
 21 16  1  0
M  END
>  <fragmenstein_mode>  (368) 
expansion

>  <name>  (368) 
KKSSAXXLSQDVQM-UHFFFAOYSA-N

>  <fragmenstein_runtime>  (368) 
4.944544

>  <HIPPO Compound ID>  (368) 
29887

>  <SLURM_JOB_NAME>  (368) 
BulkDock.place:Flavi_NS5_RdRp:RdRp_knitwork_green_site_rna_tunnel_impure_split4000_batch015

>  <ref_mols>  (368) 
z0221a,z1040a

>  <Multi-SuCOS>  (368) 
0.547426

>  <tags>  (368) 
['Fragmenstein placed', 'RdRp_knitwork_green_site_rna_tunnel_impure_fragalysis.sdf Pose OK']

>  <scratch_subdir>  (368) 
/opt/xchem-fragalysis-2/maxwin/BulkDock/SCRATCH/220466/C29887-P105

>  <energy_score>  (368) 
-10.937876

>  <fragmenstein_error>  (368) 
None

>  <csv_name>  (368) 
RdRp_knitwork_green_site_rna_tunnel_impure_split4000_batch015.csv

>  <merge_set>  (368) 
RdRp_knitwork_green_site_rna_tunnel_impure_fragalysis.sdf

>  <original ID>  (368) 
KKSSAXXLSQDVQM-UHFFFAOYSA-N

>  <HIPPO Pose ID>  (368) 
209713

>  <fragmenstein_outcome>  (368) 
acceptable

>  <exports>  (368) 
['/opt/xchem-fragalysis-2/maxwin/BulkDock/OUTPUTS/RdRp_knitwork_green_site_rna_tunnel_impure_split4000_batch015_220466.sdf', '/opt/xchem-fragalysis-2/maxwin/BulkDock/OUTPUTS/RdRp_knitwork_green_site_rna_tunnel_impure_fragalysis.sdf']

>  <SLURM_JOB_ID>  (368) 
220466

>  <distance_score>  (368) 
0.843398

>  <original SMILES>  (368) 
COc1ccc(NC(=O)c2ccccn2)c2cccnc12

>  <alias>  (368) 
None

>  <ref_pdb>  (368) 
z0221a

>  <inchikey>  (368) 
KKSSAXXLSQDVQM-UHFFFAOYSA-N

$$$$
UHSUWTKWNJRKBN-QMMMGPOBSA-N
     RDKit          3D

 14 14  0  0  0  0  0  0  0  0999 V2000
  -27.5432  -30.0254  -19.3148 C   0  0  0  0  0  0  0  0  0  0  0  0
  -27.1374  -30.1876  -20.7761 C   0  0  2  0  0  0  0  0  0  0  0  0
  -28.5730  -29.7682  -21.7927 S   0  0  0  0  0  0  0  0  0  0  0  0
  -26.5761  -31.5906  -21.1180 C   0  0  0  0  0  0  0  0  0  0  0  0
  -27.1683  -32.4015  -21.7175 O   0  0  0  0  0  0  0  0  0  0  0  0
  -25.1696  -31.6570  -20.4476 N   0  0  0  0  0  0  0  0  0  0  0  0
  -24.1734  -32.7009  -20.4625 C   0  0  0  0  0  0  0  0  0  0  0  0
  -22.9290  -32.3354  -21.2761 C   0  0  0  0  0  0  0  0  0  0  0  0
  -22.8790  -32.7324  -22.7263 C   0  0  0  0  0  0  0  0  0  0  0  0
  -21.6331  -32.7723  -23.3660 C   0  0  0  0  0  0  0  0  0  0  0  0
  -21.5460  -33.1499  -24.7000 C   0  0  0  0  0  0  0  0  0  0  0  0
  -22.7154  -33.4724  -25.3621 C   0  0  0  0  0  0  0  0  0  0  0  0
  -23.9384  -33.4294  -24.7928 N   0  0  0  0  0  0  0  0  0  0  0  0
  -23.9920  -33.0501  -23.4960 C   0  0  0  0  0  0  0  0  0  0  0  0
  2  1  1  1
  2  3  1  0
  2  4  1  0
  4  5  2  0
  4  6  1  0
  6  7  1  0
  7  8  1  0
  8  9  1  0
  9 10  2  0
 10 11  1  0
 11 12  2  0
 12 13  1  0
 13 14  2  0
 14  9  1  0
M  END
>  <fragmenstein_mode>  (369) 
expansion

>  <name>  (369) 
UHSUWTKWNJRKBN-QMMMGPOBSA-N

>  <fragmenstein_runtime>  (369) 
2.205907

>  <HIPPO Compound ID>  (369) 
43531

>  <SLURM_JOB_NAME>  (369) 
BulkDock.place:Flavi_NS5_RdRp:RdRp_knitwork_green_site_rna_tunnel_impure_split4000_batch014

>  <ref_mols>  (369) 
z0215a,z1018a

>  <Multi-SuCOS>  (369) 
0.517636

>  <tags>  (369) 
['Fragmenstein placed', 'RdRp_knitwork_green_site_rna_tunnel_impure_fragalysis.sdf Pose OK']

>  <scratch_subdir>  (369) 
/opt/xchem-fragalysis-2/maxwin/BulkDock/SCRATCH/220465/C43531-P104

>  <energy_score>  (369) 
-2.534368

>  <fragmenstein_error>  (369) 
None

>  <csv_name>  (369) 
RdRp_knitwork_green_site_rna_tunnel_impure_split4000_batch014.csv

>  <merge_set>  (369) 
RdRp_knitwork_green_site_rna_tunnel_impure_fragalysis.sdf

>  <original ID>  (369) 
UHSUWTKWNJRKBN-QMMMGPOBSA-N

>  <HIPPO Pose ID>  (369) 
209736

>  <fragmenstein_outcome>  (369) 
acceptable

>  <exports>  (369) 
['/opt/xchem-fragalysis-2/maxwin/BulkDock/OUTPUTS/RdRp_knitwork_green_site_rna_tunnel_impure_split4000_batch014_220465.sdf', '/opt/xchem-fragalysis-2/maxwin/BulkDock/OUTPUTS/RdRp_knitwork_green_site_rna_tunnel_impure_fragalysis.sdf']

>  <SLURM_JOB_ID>  (369) 
220465

>  <distance_score>  (369) 
0.854347

>  <original SMILES>  (369) 
C[C@H](S)C(=O)NCCc1cccnc1

>  <alias>  (369) 
None

>  <ref_pdb>  (369) 
z0215a

>  <inchikey>  (369) 
UHSUWTKWNJRKBN-QMMMGPOBSA-N

$$$$
QINVYEWFBRVJIA-UHFFFAOYSA-N
     RDKit          3D

 19 21  0  0  0  0  0  0  0  0999 V2000
  -27.5705  -31.2490  -21.5289 O   0  0  0  0  0  0  0  0  0  0  0  0
  -27.0491  -30.2638  -21.1864 C   0  0  0  0  0  0  0  0  0  0  0  0
  -26.9220  -29.6358  -19.7849 N   0  0  0  0  0  0  0  0  0  0  0  0
  -27.4740  -30.0267  -18.5606 C   0  0  0  0  0  0  0  0  0  0  0  0
  -28.8150  -30.4240  -18.4501 C   0  0  0  0  0  0  0  0  0  0  0  0
  -30.0421  -30.3419  -19.8869 Br  0  0  0  0  0  0  0  0  0  0  0  0
  -29.3364  -30.7732  -17.2084 C   0  0  0  0  0  0  0  0  0  0  0  0
  -28.5234  -30.7282  -16.0786 C   0  0  0  0  0  0  0  0  0  0  0  0
  -27.1968  -30.3391  -16.1480 C   0  0  0  0  0  0  0  0  0  0  0  0
  -26.4828  -30.3346  -15.0097 N   0  0  0  0  0  0  0  0  0  0  0  0
  -25.1867  -29.9711  -15.0716 C   0  0  0  0  0  0  0  0  0  0  0  0
  -24.5516  -29.6049  -16.2381 C   0  0  0  0  0  0  0  0  0  0  0  0
  -25.2912  -29.6107  -17.4137 C   0  0  0  0  0  0  0  0  0  0  0  0
  -26.6551  -29.9729  -17.4007 C   0  0  0  0  0  0  0  0  0  0  0  0
  -26.4302  -29.3505  -22.1489 C   0  0  0  0  0  0  0  0  0  0  0  0
  -26.2992  -29.6274  -23.4936 C   0  0  0  0  0  0  0  0  0  0  0  0
  -25.4531  -28.3876  -24.2809 S   0  0  0  0  0  0  0  0  0  0  0  0
  -25.3763  -27.5228  -22.8079 C   0  0  0  0  0  0  0  0  0  0  0  0
  -25.8948  -28.1174  -21.7537 N   0  0  0  0  0  0  0  0  0  0  0  0
  1  2  2  0
  2  3  1  0
  3  4  1  0
  4  5  2  0
  5  6  1  0
  5  7  1  0
  7  8  2  0
  8  9  1  0
  9 10  2  0
 10 11  1  0
 11 12  2  0
 12 13  1  0
 13 14  2  0
  2 15  1  0
 15 16  2  0
 16 17  1  0
 17 18  1  0
 18 19  2  0
 14  4  1  0
 19 15  1  0
 14  9  1  0
M  END
>  <fragmenstein_mode>  (370) 
expansion

>  <name>  (370) 
QINVYEWFBRVJIA-UHFFFAOYSA-N

>  <fragmenstein_runtime>  (370) 
5.296102

>  <HIPPO Compound ID>  (370) 
29888

>  <SLURM_JOB_NAME>  (370) 
BulkDock.place:Flavi_NS5_RdRp:RdRp_knitwork_green_site_rna_tunnel_impure_split4000_batch015

>  <ref_mols>  (370) 
z0221a,z1040a

>  <Multi-SuCOS>  (370) 
0.645035

>  <tags>  (370) 
['Fragmenstein placed', 'RdRp_knitwork_green_site_rna_tunnel_impure_fragalysis.sdf Pose OK']

>  <scratch_subdir>  (370) 
/opt/xchem-fragalysis-2/maxwin/BulkDock/SCRATCH/220466/C29888-P105

>  <energy_score>  (370) 
-69.464065

>  <fragmenstein_error>  (370) 
None

>  <csv_name>  (370) 
RdRp_knitwork_green_site_rna_tunnel_impure_split4000_batch015.csv

>  <merge_set>  (370) 
RdRp_knitwork_green_site_rna_tunnel_impure_fragalysis.sdf

>  <original ID>  (370) 
QINVYEWFBRVJIA-UHFFFAOYSA-N

>  <HIPPO Pose ID>  (370) 
209772

>  <fragmenstein_outcome>  (370) 
acceptable

>  <exports>  (370) 
['/opt/xchem-fragalysis-2/maxwin/BulkDock/OUTPUTS/RdRp_knitwork_green_site_rna_tunnel_impure_split4000_batch015_220466.sdf', '/opt/xchem-fragalysis-2/maxwin/BulkDock/OUTPUTS/RdRp_knitwork_green_site_rna_tunnel_impure_fragalysis.sdf']

>  <SLURM_JOB_ID>  (370) 
220466

>  <distance_score>  (370) 
0.978532

>  <original SMILES>  (370) 
O=C(Nc1c(Br)ccc2ncccc12)c1cscn1

>  <alias>  (370) 
None

>  <ref_pdb>  (370) 
z0221a

>  <inchikey>  (370) 
QINVYEWFBRVJIA-UHFFFAOYSA-N

$$$$
MGHHZZPHDHHQQS-UHFFFAOYSA-N
     RDKit          3D

 19 21  0  0  0  0  0  0  0  0999 V2000
  -27.5710  -31.1428  -21.5344 O   0  0  0  0  0  0  0  0  0  0  0  0
  -27.0452  -30.1774  -21.1425 C   0  0  0  0  0  0  0  0  0  0  0  0
  -26.9171  -29.6193  -19.7065 N   0  0  0  0  0  0  0  0  0  0  0  0
  -27.4728  -30.0687  -18.5043 C   0  0  0  0  0  0  0  0  0  0  0  0
  -28.8169  -30.4650  -18.4208 C   0  0  0  0  0  0  0  0  0  0  0  0
  -30.0333  -30.3341  -19.8640 Br  0  0  0  0  0  0  0  0  0  0  0  0
  -29.3528  -30.8471  -17.1954 C   0  0  0  0  0  0  0  0  0  0  0  0
  -28.5533  -30.8347  -16.0557 C   0  0  0  0  0  0  0  0  0  0  0  0
  -27.2243  -30.4517  -16.0991 C   0  0  0  0  0  0  0  0  0  0  0  0
  -26.5265  -30.4846  -14.9518 N   0  0  0  0  0  0  0  0  0  0  0  0
  -25.2256  -30.1359  -14.9852 C   0  0  0  0  0  0  0  0  0  0  0  0
  -24.5707  -29.7452  -16.1323 C   0  0  0  0  0  0  0  0  0  0  0  0
  -25.2946  -29.7088  -17.3175 C   0  0  0  0  0  0  0  0  0  0  0  0
  -26.6639  -30.0554  -17.3343 C   0  0  0  0  0  0  0  0  0  0  0  0
  -26.4242  -29.2703  -22.0956 C   0  0  0  0  0  0  0  0  0  0  0  0
  -26.3475  -29.4464  -23.4633 C   0  0  0  0  0  0  0  0  0  0  0  0
  -25.7030  -28.4588  -24.1628 N   0  0  0  0  0  0  0  0  0  0  0  0
  -25.2895  -27.5374  -23.3258 C   0  0  0  0  0  0  0  0  0  0  0  0
  -25.6743  -27.7826  -21.6754 S   0  0  0  0  0  0  0  0  0  0  0  0
  1  2  2  0
  2  3  1  0
  3  4  1  0
  4  5  2  0
  5  6  1  0
  5  7  1  0
  7  8  2  0
  8  9  1  0
  9 10  2  0
 10 11  1  0
 11 12  2  0
 12 13  1  0
 13 14  2  0
  2 15  1  0
 15 16  2  0
 16 17  1  0
 17 18  2  0
 18 19  1  0
 14  4  1  0
 19 15  1  0
 14  9  1  0
M  END
>  <fragmenstein_mode>  (371) 
expansion

>  <name>  (371) 
MGHHZZPHDHHQQS-UHFFFAOYSA-N

>  <fragmenstein_runtime>  (371) 
2.093166

>  <HIPPO Compound ID>  (371) 
30047

>  <SLURM_JOB_NAME>  (371) 
BulkDock.place:Flavi_NS5_RdRp:RdRp_knitwork_green_site_rna_tunnel_impure_split4000_batch015

>  <ref_mols>  (371) 
z0221a,z1040a

>  <Multi-SuCOS>  (371) 
0.686155

>  <tags>  (371) 
['Fragmenstein placed', 'RdRp_knitwork_green_site_rna_tunnel_impure_fragalysis.sdf Pose OK']

>  <scratch_subdir>  (371) 
/opt/xchem-fragalysis-2/maxwin/BulkDock/SCRATCH/220466/C30047-P105

>  <energy_score>  (371) 
-40.326119

>  <fragmenstein_error>  (371) 
None

>  <csv_name>  (371) 
RdRp_knitwork_green_site_rna_tunnel_impure_split4000_batch015.csv

>  <merge_set>  (371) 
RdRp_knitwork_green_site_rna_tunnel_impure_fragalysis.sdf

>  <original ID>  (371) 
MGHHZZPHDHHQQS-UHFFFAOYSA-N

>  <HIPPO Pose ID>  (371) 
209850

>  <fragmenstein_outcome>  (371) 
acceptable

>  <exports>  (371) 
['/opt/xchem-fragalysis-2/maxwin/BulkDock/OUTPUTS/RdRp_knitwork_green_site_rna_tunnel_impure_split4000_batch015_220466.sdf', '/opt/xchem-fragalysis-2/maxwin/BulkDock/OUTPUTS/RdRp_knitwork_green_site_rna_tunnel_impure_fragalysis.sdf']

>  <SLURM_JOB_ID>  (371) 
220466

>  <distance_score>  (371) 
0.8948

>  <original SMILES>  (371) 
O=C(Nc1c(Br)ccc2ncccc12)c1cncs1

>  <alias>  (371) 
None

>  <ref_pdb>  (371) 
z0221a

>  <inchikey>  (371) 
MGHHZZPHDHHQQS-UHFFFAOYSA-N

$$$$
MDEOFBQTEBYGNB-UHFFFAOYSA-N
     RDKit          3D

 20 22  0  0  0  0  0  0  0  0999 V2000
  -25.6007  -31.0981  -20.3336 O   0  0  0  0  0  0  0  0  0  0  0  0
  -26.2523  -30.1486  -20.4922 C   0  0  0  0  0  0  0  0  0  0  0  0
  -27.2399  -29.4586  -19.5564 N   0  0  0  0  0  0  0  0  0  0  0  0
  -27.6975  -29.8250  -18.3005 C   0  0  0  0  0  0  0  0  0  0  0  0
  -29.0692  -30.0626  -18.1871 C   0  0  0  0  0  0  0  0  0  0  0  0
  -30.1396  -30.1313  -19.7566 Br  0  0  0  0  0  0  0  0  0  0  0  0
  -29.6049  -30.4413  -16.9690 C   0  0  0  0  0  0  0  0  0  0  0  0
  -28.7561  -30.6147  -15.8761 C   0  0  0  0  0  0  0  0  0  0  0  0
  -27.3810  -30.4576  -15.9747 C   0  0  0  0  0  0  0  0  0  0  0  0
  -26.6414  -30.6903  -14.8767 N   0  0  0  0  0  0  0  0  0  0  0  0
  -25.3029  -30.5583  -14.9735 C   0  0  0  0  0  0  0  0  0  0  0  0
  -24.6528  -30.1783  -16.1278 C   0  0  0  0  0  0  0  0  0  0  0  0
  -25.4220  -29.9226  -17.2554 C   0  0  0  0  0  0  0  0  0  0  0  0
  -26.8248  -30.0677  -17.2118 C   0  0  0  0  0  0  0  0  0  0  0  0
  -26.2593  -29.4513  -21.8093 C   0  0  0  0  0  0  0  0  0  0  0  0
  -26.4977  -30.2242  -22.9340 C   0  0  0  0  0  0  0  0  0  0  0  0
  -26.1690  -29.6933  -24.1719 C   0  0  0  0  0  0  0  0  0  0  0  0
  -25.5855  -28.4353  -24.2201 C   0  0  0  0  0  0  0  0  0  0  0  0
  -25.4470  -27.7090  -23.0436 C   0  0  0  0  0  0  0  0  0  0  0  0
  -25.8134  -28.1702  -21.8261 N   0  0  0  0  0  0  0  0  0  0  0  0
  1  2  2  0
  2  3  1  0
  3  4  1  0
  4  5  2  0
  5  6  1  0
  5  7  1  0
  7  8  2  0
  8  9  1  0
  9 10  2  0
 10 11  1  0
 11 12  2  0
 12 13  1  0
 13 14  2  0
  2 15  1  0
 15 16  2  0
 16 17  1  0
 17 18  2  0
 18 19  1  0
 19 20  2  0
 14  4  1  0
 20 15  1  0
 14  9  1  0
M  END
>  <fragmenstein_mode>  (372) 
expansion

>  <name>  (372) 
MDEOFBQTEBYGNB-UHFFFAOYSA-N

>  <fragmenstein_runtime>  (372) 
2.1534

>  <HIPPO Compound ID>  (372) 
30053

>  <SLURM_JOB_NAME>  (372) 
BulkDock.place:Flavi_NS5_RdRp:RdRp_knitwork_green_site_rna_tunnel_impure_split4000_batch015

>  <ref_mols>  (372) 
z0221a,z1040a

>  <Multi-SuCOS>  (372) 
0.654495

>  <tags>  (372) 
['Fragmenstein placed', 'RdRp_knitwork_green_site_rna_tunnel_impure_fragalysis.sdf Pose OK']

>  <scratch_subdir>  (372) 
/opt/xchem-fragalysis-2/maxwin/BulkDock/SCRATCH/220466/C30053-P105

>  <energy_score>  (372) 
-4.393402

>  <fragmenstein_error>  (372) 
None

>  <csv_name>  (372) 
RdRp_knitwork_green_site_rna_tunnel_impure_split4000_batch015.csv

>  <merge_set>  (372) 
RdRp_knitwork_green_site_rna_tunnel_impure_fragalysis.sdf

>  <original ID>  (372) 
MDEOFBQTEBYGNB-UHFFFAOYSA-N

>  <HIPPO Pose ID>  (372) 
209862

>  <fragmenstein_outcome>  (372) 
acceptable

>  <exports>  (372) 
['/opt/xchem-fragalysis-2/maxwin/BulkDock/OUTPUTS/RdRp_knitwork_green_site_rna_tunnel_impure_split4000_batch015_220466.sdf', '/opt/xchem-fragalysis-2/maxwin/BulkDock/OUTPUTS/RdRp_knitwork_green_site_rna_tunnel_impure_fragalysis.sdf']

>  <SLURM_JOB_ID>  (372) 
220466

>  <distance_score>  (372) 
0.685472

>  <original SMILES>  (372) 
O=C(Nc1c(Br)ccc2ncccc12)c1ccccn1

>  <alias>  (372) 
None

>  <ref_pdb>  (372) 
z0221a

>  <inchikey>  (372) 
MDEOFBQTEBYGNB-UHFFFAOYSA-N

$$$$
QHGOKBHYKOSQEW-UHFFFAOYSA-N
     RDKit          3D

 20 22  0  0  0  0  0  0  0  0999 V2000
  -29.8084  -32.1777  -19.5773 C   0  0  0  0  0  0  0  0  0  0  0  0
  -29.6737  -30.7755  -19.3134 O   0  0  0  0  0  0  0  0  0  0  0  0
  -28.8251  -30.5976  -18.2571 C   0  0  0  0  0  0  0  0  0  0  0  0
  -29.3118  -30.8956  -16.9876 C   0  0  0  0  0  0  0  0  0  0  0  0
  -28.4866  -30.7471  -15.8791 C   0  0  0  0  0  0  0  0  0  0  0  0
  -27.1788  -30.3134  -15.9989 C   0  0  0  0  0  0  0  0  0  0  0  0
  -26.4337  -30.2659  -14.8815 N   0  0  0  0  0  0  0  0  0  0  0  0
  -25.1490  -29.8736  -14.9844 C   0  0  0  0  0  0  0  0  0  0  0  0
  -24.5565  -29.5128  -16.1733 C   0  0  0  0  0  0  0  0  0  0  0  0
  -25.3315  -29.5528  -17.3257 C   0  0  0  0  0  0  0  0  0  0  0  0
  -26.6872  -29.9522  -17.2737 C   0  0  0  0  0  0  0  0  0  0  0  0
  -27.5397  -30.0585  -18.4110 C   0  0  0  0  0  0  0  0  0  0  0  0
  -27.0663  -29.5649  -19.6370 N   0  0  0  0  0  0  0  0  0  0  0  0
  -27.4104  -29.9772  -21.0842 C   0  0  0  0  0  0  0  0  0  0  0  0
  -28.1971  -30.7381  -21.4863 O   0  0  0  0  0  0  0  0  0  0  0  0
  -26.6133  -29.2177  -22.0361 C   0  0  0  0  0  0  0  0  0  0  0  0
  -26.5181  -29.4601  -23.3915 C   0  0  0  0  0  0  0  0  0  0  0  0
  -25.7429  -28.5929  -24.1141 N   0  0  0  0  0  0  0  0  0  0  0  0
  -25.2651  -27.6753  -23.3081 C   0  0  0  0  0  0  0  0  0  0  0  0
  -25.6986  -27.8157  -21.6536 S   0  0  0  0  0  0  0  0  0  0  0  0
  1  2  1  0
  2  3  1  0
  3  4  2  0
  4  5  1  0
  5  6  2  0
  6  7  1  0
  7  8  2  0
  8  9  1  0
  9 10  2  0
 10 11  1  0
 11 12  2  0
 12 13  1  0
 13 14  1  0
 14 15  2  0
 14 16  1  0
 16 17  2  0
 17 18  1  0
 18 19  2  0
 19 20  1  0
 12  3  1  0
 20 16  1  0
 11  6  1  0
M  END
>  <fragmenstein_mode>  (373) 
expansion

>  <name>  (373) 
QHGOKBHYKOSQEW-UHFFFAOYSA-N

>  <fragmenstein_runtime>  (373) 
1.977592

>  <HIPPO Compound ID>  (373) 
30716

>  <SLURM_JOB_NAME>  (373) 
BulkDock.place:Flavi_NS5_RdRp:RdRp_knitwork_green_site_rna_tunnel_impure_split4000_batch015

>  <ref_mols>  (373) 
z0221a,z1040a

>  <Multi-SuCOS>  (373) 
0.639959

>  <tags>  (373) 
['Fragmenstein placed', 'RdRp_knitwork_green_site_rna_tunnel_impure_fragalysis.sdf Pose OK']

>  <scratch_subdir>  (373) 
/opt/xchem-fragalysis-2/maxwin/BulkDock/SCRATCH/220466/C30716-P105

>  <energy_score>  (373) 
-95.163707

>  <fragmenstein_error>  (373) 
None

>  <csv_name>  (373) 
RdRp_knitwork_green_site_rna_tunnel_impure_split4000_batch015.csv

>  <merge_set>  (373) 
RdRp_knitwork_green_site_rna_tunnel_impure_fragalysis.sdf

>  <original ID>  (373) 
QHGOKBHYKOSQEW-UHFFFAOYSA-N

>  <HIPPO Pose ID>  (373) 
210144

>  <fragmenstein_outcome>  (373) 
acceptable

>  <exports>  (373) 
['/opt/xchem-fragalysis-2/maxwin/BulkDock/OUTPUTS/RdRp_knitwork_green_site_rna_tunnel_impure_split4000_batch015_220466.sdf', '/opt/xchem-fragalysis-2/maxwin/BulkDock/OUTPUTS/RdRp_knitwork_green_site_rna_tunnel_impure_fragalysis.sdf']

>  <SLURM_JOB_ID>  (373) 
220466

>  <distance_score>  (373) 
0.958057

>  <original SMILES>  (373) 
COc1ccc2ncccc2c1NC(=O)c1cncs1

>  <alias>  (373) 
None

>  <ref_pdb>  (373) 
z0221a

>  <inchikey>  (373) 
QHGOKBHYKOSQEW-UHFFFAOYSA-N

$$$$
BBMPCGIUVPHSAR-UHFFFAOYSA-N
     RDKit          3D

 21 23  0  0  0  0  0  0  0  0999 V2000
  -30.1070  -31.7933  -19.4535 C   0  0  0  0  0  0  0  0  0  0  0  0
  -29.8607  -30.4324  -19.0961 O   0  0  0  0  0  0  0  0  0  0  0  0
  -28.9291  -30.3821  -18.1004 C   0  0  0  0  0  0  0  0  0  0  0  0
  -29.3621  -30.6905  -16.8147 C   0  0  0  0  0  0  0  0  0  0  0  0
  -28.4699  -30.6271  -15.7524 C   0  0  0  0  0  0  0  0  0  0  0  0
  -27.1504  -30.2563  -15.9326 C   0  0  0  0  0  0  0  0  0  0  0  0
  -26.3519  -30.2634  -14.8506 N   0  0  0  0  0  0  0  0  0  0  0  0
  -25.0589  -29.9228  -15.0088 C   0  0  0  0  0  0  0  0  0  0  0  0
  -24.5105  -29.5632  -16.2186 C   0  0  0  0  0  0  0  0  0  0  0  0
  -25.3380  -29.5533  -17.3344 C   0  0  0  0  0  0  0  0  0  0  0  0
  -26.7058  -29.8937  -17.2250 C   0  0  0  0  0  0  0  0  0  0  0  0
  -27.6202  -29.9312  -18.3191 C   0  0  0  0  0  0  0  0  0  0  0  0
  -27.1703  -29.4880  -19.5736 N   0  0  0  0  0  0  0  0  0  0  0  0
  -27.6555  -29.8405  -20.9928 C   0  0  0  0  0  0  0  0  0  0  0  0
  -28.5540  -30.4941  -21.3433 O   0  0  0  0  0  0  0  0  0  0  0  0
  -26.7752  -29.1930  -22.0007 C   0  0  0  0  0  0  0  0  0  0  0  0
  -26.8861  -29.5743  -23.3279 C   0  0  0  0  0  0  0  0  0  0  0  0
  -26.0452  -29.0092  -24.2699 C   0  0  0  0  0  0  0  0  0  0  0  0
  -25.1514  -28.0414  -23.8475 C   0  0  0  0  0  0  0  0  0  0  0  0
  -25.1588  -27.6691  -22.5099 C   0  0  0  0  0  0  0  0  0  0  0  0
  -25.9215  -28.2408  -21.5562 N   0  0  0  0  0  0  0  0  0  0  0  0
  1  2  1  0
  2  3  1  0
  3  4  2  0
  4  5  1  0
  5  6  2  0
  6  7  1  0
  7  8  2  0
  8  9  1  0
  9 10  2  0
 10 11  1  0
 11 12  2  0
 12 13  1  0
 13 14  1  0
 14 15  2  0
 14 16  1  0
 16 17  2  0
 17 18  1  0
 18 19  2  0
 19 20  1  0
 20 21  2  0
 12  3  1  0
 21 16  1  0
 11  6  1  0
M  END
>  <fragmenstein_mode>  (374) 
expansion

>  <name>  (374) 
BBMPCGIUVPHSAR-UHFFFAOYSA-N

>  <fragmenstein_runtime>  (374) 
3.403202

>  <HIPPO Compound ID>  (374) 
30760

>  <SLURM_JOB_NAME>  (374) 
BulkDock.place:Flavi_NS5_RdRp:RdRp_knitwork_green_site_rna_tunnel_impure_split4000_batch015

>  <ref_mols>  (374) 
z0221a,z1040a

>  <Multi-SuCOS>  (374) 
0.601802

>  <tags>  (374) 
['Fragmenstein placed', 'RdRp_knitwork_green_site_rna_tunnel_impure_fragalysis.sdf Pose OK']

>  <scratch_subdir>  (374) 
/opt/xchem-fragalysis-2/maxwin/BulkDock/SCRATCH/220466/C30760-P105

>  <energy_score>  (374) 
-22.21877

>  <fragmenstein_error>  (374) 
None

>  <csv_name>  (374) 
RdRp_knitwork_green_site_rna_tunnel_impure_split4000_batch015.csv

>  <merge_set>  (374) 
RdRp_knitwork_green_site_rna_tunnel_impure_fragalysis.sdf

>  <original ID>  (374) 
BBMPCGIUVPHSAR-UHFFFAOYSA-N

>  <HIPPO Pose ID>  (374) 
210162

>  <fragmenstein_outcome>  (374) 
acceptable

>  <exports>  (374) 
['/opt/xchem-fragalysis-2/maxwin/BulkDock/OUTPUTS/RdRp_knitwork_green_site_rna_tunnel_impure_split4000_batch015_220466.sdf', '/opt/xchem-fragalysis-2/maxwin/BulkDock/OUTPUTS/RdRp_knitwork_green_site_rna_tunnel_impure_fragalysis.sdf']

>  <SLURM_JOB_ID>  (374) 
220466

>  <distance_score>  (374) 
0.99398

>  <original SMILES>  (374) 
COc1ccc2ncccc2c1NC(=O)c1ccccn1

>  <alias>  (374) 
None

>  <ref_pdb>  (374) 
z0221a

>  <inchikey>  (374) 
BBMPCGIUVPHSAR-UHFFFAOYSA-N

$$$$
WDGAPZMFBADBEC-UHFFFAOYSA-N
     RDKit          3D

 20 22  0  0  0  0  0  0  0  0999 V2000
  -30.3096  -29.9167  -20.0442 C   0  0  0  0  0  0  0  0  0  0  0  0
  -29.5109  -31.0513  -19.7320 O   0  0  0  0  0  0  0  0  0  0  0  0
  -28.7512  -30.8266  -18.6184 C   0  0  0  0  0  0  0  0  0  0  0  0
  -29.3079  -31.2021  -17.4005 C   0  0  0  0  0  0  0  0  0  0  0  0
  -28.5862  -31.0223  -16.2240 C   0  0  0  0  0  0  0  0  0  0  0  0
  -27.2966  -30.5192  -16.2288 C   0  0  0  0  0  0  0  0  0  0  0  0
  -26.6535  -30.4359  -15.0510 N   0  0  0  0  0  0  0  0  0  0  0  0
  -25.3757  -30.0075  -15.0476 C   0  0  0  0  0  0  0  0  0  0  0  0
  -24.6922  -29.6369  -16.1838 C   0  0  0  0  0  0  0  0  0  0  0  0
  -25.3670  -29.7013  -17.3969 C   0  0  0  0  0  0  0  0  0  0  0  0
  -26.7104  -30.1427  -17.4589 C   0  0  0  0  0  0  0  0  0  0  0  0
  -27.4616  -30.2778  -18.6643 C   0  0  0  0  0  0  0  0  0  0  0  0
  -26.9041  -29.7866  -19.8529 N   0  0  0  0  0  0  0  0  0  0  0  0
  -27.1493  -30.1982  -21.3212 C   0  0  0  0  0  0  0  0  0  0  0  0
  -27.7947  -31.0607  -21.7659 O   0  0  0  0  0  0  0  0  0  0  0  0
  -26.4505  -29.3044  -22.2321 C   0  0  0  0  0  0  0  0  0  0  0  0
  -26.2373  -29.4626  -23.5909 C   0  0  0  0  0  0  0  0  0  0  0  0
  -25.4920  -28.3743  -24.1073 C   0  0  0  0  0  0  0  0  0  0  0  0
  -25.2128  -27.3919  -23.2567 N   0  0  0  0  0  0  0  0  0  0  0  0
  -25.7628  -27.8122  -21.7580 S   0  0  0  0  0  0  0  0  0  0  0  0
  1  2  1  0
  2  3  1  0
  3  4  2  0
  4  5  1  0
  5  6  2  0
  6  7  1  0
  7  8  2  0
  8  9  1  0
  9 10  2  0
 10 11  1  0
 11 12  2  0
 12 13  1  0
 13 14  1  0
 14 15  2  0
 14 16  1  0
 16 17  2  0
 17 18  1  0
 18 19  2  0
 19 20  1  0
 12  3  1  0
 20 16  1  0
 11  6  1  0
M  END
>  <fragmenstein_mode>  (375) 
expansion

>  <name>  (375) 
WDGAPZMFBADBEC-UHFFFAOYSA-N

>  <fragmenstein_runtime>  (375) 
1.74771

>  <HIPPO Compound ID>  (375) 
30959

>  <SLURM_JOB_NAME>  (375) 
BulkDock.place:Flavi_NS5_RdRp:RdRp_knitwork_green_site_rna_tunnel_impure_split4000_batch015

>  <ref_mols>  (375) 
z0221a,z1040a

>  <Multi-SuCOS>  (375) 
0.618684

>  <tags>  (375) 
['Fragmenstein placed', 'RdRp_knitwork_green_site_rna_tunnel_impure_fragalysis.sdf Pose OK']

>  <scratch_subdir>  (375) 
/opt/xchem-fragalysis-2/maxwin/BulkDock/SCRATCH/220466/C30959-P105

>  <energy_score>  (375) 
-57.827053

>  <fragmenstein_error>  (375) 
None

>  <csv_name>  (375) 
RdRp_knitwork_green_site_rna_tunnel_impure_split4000_batch015.csv

>  <merge_set>  (375) 
RdRp_knitwork_green_site_rna_tunnel_impure_fragalysis.sdf

>  <original ID>  (375) 
WDGAPZMFBADBEC-UHFFFAOYSA-N

>  <HIPPO Pose ID>  (375) 
210199

>  <fragmenstein_outcome>  (375) 
acceptable

>  <exports>  (375) 
['/opt/xchem-fragalysis-2/maxwin/BulkDock/OUTPUTS/RdRp_knitwork_green_site_rna_tunnel_impure_split4000_batch015_220466.sdf', '/opt/xchem-fragalysis-2/maxwin/BulkDock/OUTPUTS/RdRp_knitwork_green_site_rna_tunnel_impure_fragalysis.sdf']

>  <SLURM_JOB_ID>  (375) 
220466

>  <distance_score>  (375) 
0.931129

>  <original SMILES>  (375) 
COc1ccc2ncccc2c1NC(=O)c1ccns1

>  <alias>  (375) 
None

>  <ref_pdb>  (375) 
z0221a

>  <inchikey>  (375) 
WDGAPZMFBADBEC-UHFFFAOYSA-N

$$$$
NNQQDZGQNLLXMF-UHFFFAOYSA-N
     RDKit          3D

 25 27  0  0  0  0  0  0  0  0999 V2000
  -30.3763  -35.3296  -12.5714 C   0  0  0  0  0  0  0  0  0  0  0  0
  -29.3673  -34.4583  -13.0797 O   0  0  0  0  0  0  0  0  0  0  0  0
  -29.8725  -33.3503  -13.7048 C   0  0  0  0  0  0  0  0  0  0  0  0
  -31.0659  -33.1284  -13.8597 O   0  0  0  0  0  0  0  0  0  0  0  0
  -28.7303  -32.4732  -14.1891 C   0  0  0  0  0  0  0  0  0  0  0  0
  -29.2519  -31.2188  -14.6305 O   0  0  0  0  0  0  0  0  0  0  0  0
  -28.6525  -30.7711  -15.7866 C   0  0  0  0  0  0  0  0  0  0  0  0
  -29.5345  -30.5516  -16.8393 C   0  0  0  0  0  0  0  0  0  0  0  0
  -29.0478  -30.1070  -18.0536 C   0  0  0  0  0  0  0  0  0  0  0  0
  -27.6845  -29.8391  -18.2019 C   0  0  0  0  0  0  0  0  0  0  0  0
  -27.2458  -29.4185  -19.4567 N   0  0  0  0  0  0  0  0  0  0  0  0
  -27.8890  -29.5768  -20.8446 C   0  0  0  0  0  0  0  0  0  0  0  0
  -28.9233  -30.0155  -21.1519 O   0  0  0  0  0  0  0  0  0  0  0  0
  -26.9263  -29.1302  -21.8948 C   0  0  0  0  0  0  0  0  0  0  0  0
  -27.0607  -29.6315  -23.1799 C   0  0  0  0  0  0  0  0  0  0  0  0
  -26.2001  -29.1937  -24.1771 C   0  0  0  0  0  0  0  0  0  0  0  0
  -25.2651  -28.2237  -23.8541 C   0  0  0  0  0  0  0  0  0  0  0  0
  -25.2201  -27.7583  -22.5458 C   0  0  0  0  0  0  0  0  0  0  0  0
  -25.9935  -28.2168  -21.5364 N   0  0  0  0  0  0  0  0  0  0  0  0
  -26.7817  -30.0250  -17.1201 C   0  0  0  0  0  0  0  0  0  0  0  0
  -25.3904  -29.7854  -17.1946 C   0  0  0  0  0  0  0  0  0  0  0  0
  -24.5725  -30.0030  -16.0940 C   0  0  0  0  0  0  0  0  0  0  0  0
  -25.1531  -30.4713  -14.9391 C   0  0  0  0  0  0  0  0  0  0  0  0
  -26.4685  -30.7295  -14.8232 N   0  0  0  0  0  0  0  0  0  0  0  0
  -27.2792  -30.5095  -15.8863 C   0  0  0  0  0  0  0  0  0  0  0  0
  1  2  1  0
  2  3  1  0
  3  4  2  0
  3  5  1  0
  5  6  1  0
  6  7  1  0
  7  8  2  0
  8  9  1  0
  9 10  2  0
 10 11  1  0
 11 12  1  0
 12 13  2  0
 12 14  1  0
 14 15  2  0
 15 16  1  0
 16 17  2  0
 17 18  1  0
 18 19  2  0
 10 20  1  0
 20 21  2  0
 21 22  1  0
 22 23  2  0
 23 24  1  0
 24 25  2  0
 25  7  1  0
 19 14  1  0
 25 20  1  0
M  END
>  <fragmenstein_mode>  (376) 
expansion

>  <name>  (376) 
NNQQDZGQNLLXMF-UHFFFAOYSA-N

>  <fragmenstein_runtime>  (376) 
6.767197

>  <HIPPO Compound ID>  (376) 
31243

>  <SLURM_JOB_NAME>  (376) 
BulkDock.place:Flavi_NS5_RdRp:RdRp_knitwork_green_site_rna_tunnel_impure_split4000_batch015

>  <ref_mols>  (376) 
z0221a,z1040a

>  <Multi-SuCOS>  (376) 
0.457527

>  <tags>  (376) 
['Fragmenstein placed', 'RdRp_knitwork_green_site_rna_tunnel_impure_fragalysis.sdf Pose OK']

>  <scratch_subdir>  (376) 
/opt/xchem-fragalysis-2/maxwin/BulkDock/SCRATCH/220466/C31243-P105

>  <energy_score>  (376) 
-58.776929

>  <fragmenstein_error>  (376) 
None

>  <csv_name>  (376) 
RdRp_knitwork_green_site_rna_tunnel_impure_split4000_batch015.csv

>  <merge_set>  (376) 
RdRp_knitwork_green_site_rna_tunnel_impure_fragalysis.sdf

>  <original ID>  (376) 
NNQQDZGQNLLXMF-UHFFFAOYSA-N

>  <HIPPO Pose ID>  (376) 
210232

>  <fragmenstein_outcome>  (376) 
acceptable

>  <exports>  (376) 
['/opt/xchem-fragalysis-2/maxwin/BulkDock/OUTPUTS/RdRp_knitwork_green_site_rna_tunnel_impure_split4000_batch015_220466.sdf', '/opt/xchem-fragalysis-2/maxwin/BulkDock/OUTPUTS/RdRp_knitwork_green_site_rna_tunnel_impure_fragalysis.sdf']

>  <SLURM_JOB_ID>  (376) 
220466

>  <distance_score>  (376) 
0.976128

>  <original SMILES>  (376) 
COC(=O)COc1ccc(NC(=O)c2ccccn2)c2cccnc12

>  <alias>  (376) 
None

>  <ref_pdb>  (376) 
z0221a

>  <inchikey>  (376) 
NNQQDZGQNLLXMF-UHFFFAOYSA-N

$$$$
YCRVPNCSOZHIKF-UHFFFAOYSA-N
     RDKit          3D

 24 26  0  0  0  0  0  0  0  0999 V2000
  -30.3538  -32.4788  -11.2734 C   0  0  0  0  0  0  0  0  0  0  0  0
  -30.1065  -32.0278  -12.6013 O   0  0  0  0  0  0  0  0  0  0  0  0
  -29.8405  -33.0199  -13.4932 C   0  0  0  0  0  0  0  0  0  0  0  0
  -29.8563  -34.2187  -13.2305 O   0  0  0  0  0  0  0  0  0  0  0  0
  -29.5539  -32.4692  -14.8809 C   0  0  0  0  0  0  0  0  0  0  0  0
  -29.2514  -31.0715  -14.8665 O   0  0  0  0  0  0  0  0  0  0  0  0
  -28.7091  -30.6934  -16.0754 C   0  0  0  0  0  0  0  0  0  0  0  0
  -29.5722  -30.0659  -16.9691 C   0  0  0  0  0  0  0  0  0  0  0  0
  -29.0957  -29.6792  -18.2082 C   0  0  0  0  0  0  0  0  0  0  0  0
  -27.7613  -29.9019  -18.5381 C   0  0  0  0  0  0  0  0  0  0  0  0
  -27.3902  -29.5286  -19.8240 N   0  0  0  0  0  0  0  0  0  0  0  0
  -26.6492  -30.3140  -20.9168 C   0  0  0  0  0  0  0  0  0  0  0  0
  -26.2984  -31.4252  -20.9428 O   0  0  0  0  0  0  0  0  0  0  0  0
  -26.3671  -29.4080  -22.0369 C   0  0  0  0  0  0  0  0  0  0  0  0
  -26.2434  -29.8329  -23.3444 C   0  0  0  0  0  0  0  0  0  0  0  0
  -25.6090  -28.5942  -24.3211 S   0  0  0  0  0  0  0  0  0  0  0  0
  -25.5375  -27.5729  -22.9452 C   0  0  0  0  0  0  0  0  0  0  0  0
  -26.0453  -28.0641  -21.8317 N   0  0  0  0  0  0  0  0  0  0  0  0
  -26.8608  -30.4923  -17.6082 C   0  0  0  0  0  0  0  0  0  0  0  0
  -25.4756  -30.6622  -17.8314 C   0  0  0  0  0  0  0  0  0  0  0  0
  -24.6576  -31.2208  -16.8565 C   0  0  0  0  0  0  0  0  0  0  0  0
  -25.2404  -31.6055  -15.6711 C   0  0  0  0  0  0  0  0  0  0  0  0
  -26.5508  -31.4501  -15.4025 N   0  0  0  0  0  0  0  0  0  0  0  0
  -27.3491  -30.8920  -16.3438 C   0  0  0  0  0  0  0  0  0  0  0  0
  1  2  1  0
  2  3  1  0
  3  4  2  0
  3  5  1  0
  5  6  1  0
  6  7  1  0
  7  8  2  0
  8  9  1  0
  9 10  2  0
 10 11  1  0
 11 12  1  0
 12 13  2  0
 12 14  1  0
 14 15  2  0
 15 16  1  0
 16 17  1  0
 17 18  2  0
 10 19  1  0
 19 20  2  0
 20 21  1  0
 21 22  2  0
 22 23  1  0
 23 24  2  0
 24  7  1  0
 18 14  1  0
 24 19  1  0
M  END
>  <fragmenstein_mode>  (377) 
expansion

>  <name>  (377) 
YCRVPNCSOZHIKF-UHFFFAOYSA-N

>  <fragmenstein_runtime>  (377) 
6.356786

>  <HIPPO Compound ID>  (377) 
31332

>  <SLURM_JOB_NAME>  (377) 
BulkDock.place:Flavi_NS5_RdRp:RdRp_knitwork_green_site_rna_tunnel_impure_split4000_batch015

>  <ref_mols>  (377) 
z0221a,z1040a

>  <Multi-SuCOS>  (377) 
0.479825

>  <tags>  (377) 
['Fragmenstein placed', 'RdRp_knitwork_green_site_rna_tunnel_impure_fragalysis.sdf Pose OK']

>  <scratch_subdir>  (377) 
/opt/xchem-fragalysis-2/maxwin/BulkDock/SCRATCH/220466/C31332-P105

>  <energy_score>  (377) 
-48.320541

>  <fragmenstein_error>  (377) 
None

>  <csv_name>  (377) 
RdRp_knitwork_green_site_rna_tunnel_impure_split4000_batch015.csv

>  <merge_set>  (377) 
RdRp_knitwork_green_site_rna_tunnel_impure_fragalysis.sdf

>  <original ID>  (377) 
YCRVPNCSOZHIKF-UHFFFAOYSA-N

>  <HIPPO Pose ID>  (377) 
210254

>  <fragmenstein_outcome>  (377) 
acceptable

>  <exports>  (377) 
['/opt/xchem-fragalysis-2/maxwin/BulkDock/OUTPUTS/RdRp_knitwork_green_site_rna_tunnel_impure_split4000_batch015_220466.sdf', '/opt/xchem-fragalysis-2/maxwin/BulkDock/OUTPUTS/RdRp_knitwork_green_site_rna_tunnel_impure_fragalysis.sdf']

>  <SLURM_JOB_ID>  (377) 
220466

>  <distance_score>  (377) 
0.981108

>  <original SMILES>  (377) 
COC(=O)COc1ccc(NC(=O)c2cscn2)c2cccnc12

>  <alias>  (377) 
None

>  <ref_pdb>  (377) 
z0221a

>  <inchikey>  (377) 
YCRVPNCSOZHIKF-UHFFFAOYSA-N

$$$$
LOVBDSCQDDAQEY-UHFFFAOYSA-N
     RDKit          3D

 25 27  0  0  0  0  0  0  0  0999 V2000
  -31.3852  -33.4581  -11.8113 C   0  0  0  0  0  0  0  0  0  0  0  0
  -30.4252  -32.7091  -12.5489 O   0  0  0  0  0  0  0  0  0  0  0  0
  -29.7547  -33.4413  -13.4816 C   0  0  0  0  0  0  0  0  0  0  0  0
  -29.9003  -34.6449  -13.6671 O   0  0  0  0  0  0  0  0  0  0  0  0
  -28.7445  -32.5842  -14.2149 C   0  0  0  0  0  0  0  0  0  0  0  0
  -29.3352  -31.3493  -14.6234 O   0  0  0  0  0  0  0  0  0  0  0  0
  -28.7496  -30.8014  -15.7467 C   0  0  0  0  0  0  0  0  0  0  0  0
  -29.6712  -30.2985  -16.6668 C   0  0  0  0  0  0  0  0  0  0  0  0
  -29.2379  -29.7895  -17.8783 C   0  0  0  0  0  0  0  0  0  0  0  0
  -27.8754  -29.7718  -18.1556 C   0  0  0  0  0  0  0  0  0  0  0  0
  -27.5126  -29.4149  -19.4525 N   0  0  0  0  0  0  0  0  0  0  0  0
  -26.4415  -29.9974  -20.3842 C   0  0  0  0  0  0  0  0  0  0  0  0
  -25.6382  -30.8181  -20.1912 O   0  0  0  0  0  0  0  0  0  0  0  0
  -26.4083  -29.3151  -21.6829 C   0  0  0  0  0  0  0  0  0  0  0  0
  -26.6327  -30.0629  -22.8345 C   0  0  0  0  0  0  0  0  0  0  0  0
  -26.2079  -29.5643  -24.0613 C   0  0  0  0  0  0  0  0  0  0  0  0
  -25.5627  -28.3391  -24.0702 C   0  0  0  0  0  0  0  0  0  0  0  0
  -25.4166  -27.5510  -22.9744 N   0  0  0  0  0  0  0  0  0  0  0  0
  -25.8178  -28.0674  -21.7910 C   0  0  0  0  0  0  0  0  0  0  0  0
  -26.9169  -30.1783  -17.1780 C   0  0  0  0  0  0  0  0  0  0  0  0
  -25.5163  -30.0320  -17.3167 C   0  0  0  0  0  0  0  0  0  0  0  0
  -24.6400  -30.4401  -16.3212 C   0  0  0  0  0  0  0  0  0  0  0  0
  -25.1781  -30.9781  -15.1808 C   0  0  0  0  0  0  0  0  0  0  0  0
  -26.5023  -31.1097  -14.9829 N   0  0  0  0  0  0  0  0  0  0  0  0
  -27.3657  -30.7107  -15.9508 C   0  0  0  0  0  0  0  0  0  0  0  0
  1  2  1  0
  2  3  1  0
  3  4  2  0
  3  5  1  0
  5  6  1  0
  6  7  1  0
  7  8  2  0
  8  9  1  0
  9 10  2  0
 10 11  1  0
 11 12  1  0
 12 13  2  0
 12 14  1  0
 14 15  2  0
 15 16  1  0
 16 17  2  0
 17 18  1  0
 18 19  2  0
 10 20  1  0
 20 21  2  0
 21 22  1  0
 22 23  2  0
 23 24  1  0
 24 25  2  0
 25  7  1  0
 19 14  1  0
 25 20  1  0
M  END
>  <fragmenstein_mode>  (378) 
expansion

>  <name>  (378) 
LOVBDSCQDDAQEY-UHFFFAOYSA-N

>  <fragmenstein_runtime>  (378) 
6.01785

>  <HIPPO Compound ID>  (378) 
33413

>  <SLURM_JOB_NAME>  (378) 
BulkDock.place:Flavi_NS5_RdRp:RdRp_knitwork_green_site_rna_tunnel_impure_split4000_batch015

>  <ref_mols>  (378) 
z0221a,z1040a

>  <Multi-SuCOS>  (378) 
0.472241

>  <tags>  (378) 
['Fragmenstein placed', 'RdRp_knitwork_green_site_rna_tunnel_impure_fragalysis.sdf Pose OK']

>  <scratch_subdir>  (378) 
/opt/xchem-fragalysis-2/maxwin/BulkDock/SCRATCH/220466/C33413-P105

>  <energy_score>  (378) 
-22.888973

>  <fragmenstein_error>  (378) 
None

>  <csv_name>  (378) 
RdRp_knitwork_green_site_rna_tunnel_impure_split4000_batch015.csv

>  <merge_set>  (378) 
RdRp_knitwork_green_site_rna_tunnel_impure_fragalysis.sdf

>  <original ID>  (378) 
LOVBDSCQDDAQEY-UHFFFAOYSA-N

>  <HIPPO Pose ID>  (378) 
210272

>  <fragmenstein_outcome>  (378) 
acceptable

>  <exports>  (378) 
['/opt/xchem-fragalysis-2/maxwin/BulkDock/OUTPUTS/RdRp_knitwork_green_site_rna_tunnel_impure_split4000_batch015_220466.sdf', '/opt/xchem-fragalysis-2/maxwin/BulkDock/OUTPUTS/RdRp_knitwork_green_site_rna_tunnel_impure_fragalysis.sdf']

>  <SLURM_JOB_ID>  (378) 
220466

>  <distance_score>  (378) 
0.804863

>  <original SMILES>  (378) 
COC(=O)COc1ccc(NC(=O)c2cccnc2)c2cccnc12

>  <alias>  (378) 
None

>  <ref_pdb>  (378) 
z0221a

>  <inchikey>  (378) 
LOVBDSCQDDAQEY-UHFFFAOYSA-N

$$$$
JVEXGAXFFHRMTK-UHFFFAOYSA-N
     RDKit          3D

 22 24  0  0  0  0  0  0  0  0999 V2000
  -28.2821  -30.7374  -21.7801 O   0  0  0  0  0  0  0  0  0  0  0  0
  -27.4481  -30.0420  -21.3578 C   0  0  0  0  0  0  0  0  0  0  0  0
  -27.0229  -29.7610  -19.8988 N   0  0  0  0  0  0  0  0  0  0  0  0
  -27.5804  -30.1911  -18.6937 C   0  0  0  0  0  0  0  0  0  0  0  0
  -28.8861  -30.6805  -18.7508 C   0  0  0  0  0  0  0  0  0  0  0  0
  -29.4636  -31.2422  -17.6317 C   0  0  0  0  0  0  0  0  0  0  0  0
  -28.7552  -31.3067  -16.4368 C   0  0  0  0  0  0  0  0  0  0  0  0
  -29.4541  -31.9997  -15.4755 O   0  0  0  0  0  0  0  0  0  0  0  0
  -29.2826  -31.5502  -14.1499 C   0  0  0  0  0  0  0  0  0  0  0  0
  -29.4942  -30.2125  -14.0965 F   0  0  0  0  0  0  0  0  0  0  0  0
  -30.2805  -32.1114  -13.4116 F   0  0  0  0  0  0  0  0  0  0  0  0
  -27.4488  -30.8000  -16.3234 C   0  0  0  0  0  0  0  0  0  0  0  0
  -26.7659  -30.9112  -15.1594 N   0  0  0  0  0  0  0  0  0  0  0  0
  -25.4931  -30.4673  -15.0948 C   0  0  0  0  0  0  0  0  0  0  0  0
  -24.8254  -29.9049  -16.1576 C   0  0  0  0  0  0  0  0  0  0  0  0
  -25.5101  -29.7854  -17.3594 C   0  0  0  0  0  0  0  0  0  0  0  0
  -26.8483  -30.2266  -17.4784 C   0  0  0  0  0  0  0  0  0  0  0  0
  -26.5905  -29.3106  -22.2839 C   0  0  0  0  0  0  0  0  0  0  0  0
  -26.4191  -29.5978  -23.5632 N   0  0  0  0  0  0  0  0  0  0  0  0
  -25.6190  -28.5894  -24.0243 C   0  0  0  0  0  0  0  0  0  0  0  0
  -25.3359  -27.7207  -23.0009 C   0  0  0  0  0  0  0  0  0  0  0  0
  -25.9183  -28.1892  -21.8616 O   0  0  0  0  0  0  0  0  0  0  0  0
  1  2  2  0
  2  3  1  0
  3  4  1  0
  4  5  2  0
  5  6  1  0
  6  7  2  0
  7  8  1  0
  8  9  1  0
  9 10  1  0
  9 11  1  0
  7 12  1  0
 12 13  2  0
 13 14  1  0
 14 15  2  0
 15 16  1  0
 16 17  2  0
  2 18  1  0
 18 19  2  0
 19 20  1  0
 20 21  2  0
 21 22  1  0
 17  4  1  0
 22 18  1  0
 17 12  1  0
M  END
>  <fragmenstein_mode>  (379) 
expansion

>  <name>  (379) 
JVEXGAXFFHRMTK-UHFFFAOYSA-N

>  <fragmenstein_runtime>  (379) 
3.844351

>  <HIPPO Compound ID>  (379) 
31403

>  <SLURM_JOB_NAME>  (379) 
BulkDock.place:Flavi_NS5_RdRp:RdRp_knitwork_green_site_rna_tunnel_impure_split4000_batch015

>  <ref_mols>  (379) 
z0221a,z1040a

>  <Multi-SuCOS>  (379) 
0.486317

>  <tags>  (379) 
['Fragmenstein placed', 'RdRp_knitwork_green_site_rna_tunnel_impure_fragalysis.sdf Pose OK']

>  <scratch_subdir>  (379) 
/opt/xchem-fragalysis-2/maxwin/BulkDock/SCRATCH/220466/C31403-P105

>  <energy_score>  (379) 
-50.146543

>  <fragmenstein_error>  (379) 
None

>  <csv_name>  (379) 
RdRp_knitwork_green_site_rna_tunnel_impure_split4000_batch015.csv

>  <merge_set>  (379) 
RdRp_knitwork_green_site_rna_tunnel_impure_fragalysis.sdf

>  <original ID>  (379) 
JVEXGAXFFHRMTK-UHFFFAOYSA-N

>  <HIPPO Pose ID>  (379) 
210310

>  <fragmenstein_outcome>  (379) 
acceptable

>  <exports>  (379) 
['/opt/xchem-fragalysis-2/maxwin/BulkDock/OUTPUTS/RdRp_knitwork_green_site_rna_tunnel_impure_split4000_batch015_220466.sdf', '/opt/xchem-fragalysis-2/maxwin/BulkDock/OUTPUTS/RdRp_knitwork_green_site_rna_tunnel_impure_fragalysis.sdf']

>  <SLURM_JOB_ID>  (379) 
220466

>  <distance_score>  (379) 
0.886354

>  <original SMILES>  (379) 
O=C(Nc1ccc(OC(F)F)c2ncccc12)c1ncco1

>  <alias>  (379) 
None

>  <ref_pdb>  (379) 
z0221a

>  <inchikey>  (379) 
JVEXGAXFFHRMTK-UHFFFAOYSA-N

$$$$
URWFLPJFHJBRPR-UHFFFAOYSA-N
     RDKit          3D

 23 25  0  0  0  0  0  0  0  0999 V2000
  -25.8167  -31.1414  -20.3291 O   0  0  0  0  0  0  0  0  0  0  0  0
  -26.4570  -30.1781  -20.4776 C   0  0  0  0  0  0  0  0  0  0  0  0
  -27.4736  -29.5036  -19.5435 N   0  0  0  0  0  0  0  0  0  0  0  0
  -27.8381  -29.8054  -18.2347 C   0  0  0  0  0  0  0  0  0  0  0  0
  -29.1962  -29.6694  -17.9580 C   0  0  0  0  0  0  0  0  0  0  0  0
  -29.6831  -30.0237  -16.7142 C   0  0  0  0  0  0  0  0  0  0  0  0
  -28.8153  -30.5450  -15.7588 C   0  0  0  0  0  0  0  0  0  0  0  0
  -29.3995  -30.8571  -14.5504 O   0  0  0  0  0  0  0  0  0  0  0  0
  -29.3084  -32.2485  -14.2747 C   0  0  0  0  0  0  0  0  0  0  0  0
  -29.9675  -32.4591  -13.1029 F   0  0  0  0  0  0  0  0  0  0  0  0
  -30.0023  -32.9305  -15.2235 F   0  0  0  0  0  0  0  0  0  0  0  0
  -27.4390  -30.6611  -15.9785 C   0  0  0  0  0  0  0  0  0  0  0  0
  -26.6442  -31.1073  -14.9774 N   0  0  0  0  0  0  0  0  0  0  0  0
  -25.3136  -31.1698  -15.1833 C   0  0  0  0  0  0  0  0  0  0  0  0
  -24.7095  -30.7914  -16.3586 C   0  0  0  0  0  0  0  0  0  0  0  0
  -25.5247  -30.3370  -17.3880 C   0  0  0  0  0  0  0  0  0  0  0  0
  -26.9305  -30.2781  -17.2416 C   0  0  0  0  0  0  0  0  0  0  0  0
  -26.3777  -29.4520  -21.7744 C   0  0  0  0  0  0  0  0  0  0  0  0
  -26.5386  -30.2062  -22.9253 C   0  0  0  0  0  0  0  0  0  0  0  0
  -26.1396  -29.6579  -24.1349 C   0  0  0  0  0  0  0  0  0  0  0  0
  -25.5471  -28.4030  -24.1281 C   0  0  0  0  0  0  0  0  0  0  0  0
  -25.4746  -27.6987  -22.9316 C   0  0  0  0  0  0  0  0  0  0  0  0
  -25.9187  -28.1766  -21.7449 N   0  0  0  0  0  0  0  0  0  0  0  0
  1  2  2  0
  2  3  1  0
  3  4  1  0
  4  5  2  0
  5  6  1  0
  6  7  2  0
  7  8  1  0
  8  9  1  0
  9 10  1  0
  9 11  1  0
  7 12  1  0
 12 13  2  0
 13 14  1  0
 14 15  2  0
 15 16  1  0
 16 17  2  0
  2 18  1  0
 18 19  2  0
 19 20  1  0
 20 21  2  0
 21 22  1  0
 22 23  2  0
 17  4  1  0
 23 18  1  0
 17 12  1  0
M  END
>  <fragmenstein_mode>  (380) 
expansion

>  <name>  (380) 
URWFLPJFHJBRPR-UHFFFAOYSA-N

>  <fragmenstein_runtime>  (380) 
4.550091

>  <HIPPO Compound ID>  (380) 
31409

>  <SLURM_JOB_NAME>  (380) 
BulkDock.place:Flavi_NS5_RdRp:RdRp_knitwork_green_site_rna_tunnel_impure_split4000_batch015

>  <ref_mols>  (380) 
z0221a,z1040a

>  <Multi-SuCOS>  (380) 
0.534009

>  <tags>  (380) 
['Fragmenstein placed', 'RdRp_knitwork_green_site_rna_tunnel_impure_fragalysis.sdf Pose OK']

>  <scratch_subdir>  (380) 
/opt/xchem-fragalysis-2/maxwin/BulkDock/SCRATCH/220466/C31409-P105

>  <energy_score>  (380) 
-19.945245

>  <fragmenstein_error>  (380) 
None

>  <csv_name>  (380) 
RdRp_knitwork_green_site_rna_tunnel_impure_split4000_batch015.csv

>  <merge_set>  (380) 
RdRp_knitwork_green_site_rna_tunnel_impure_fragalysis.sdf

>  <original ID>  (380) 
URWFLPJFHJBRPR-UHFFFAOYSA-N

>  <HIPPO Pose ID>  (380) 
210323

>  <fragmenstein_outcome>  (380) 
acceptable

>  <exports>  (380) 
['/opt/xchem-fragalysis-2/maxwin/BulkDock/OUTPUTS/RdRp_knitwork_green_site_rna_tunnel_impure_split4000_batch015_220466.sdf', '/opt/xchem-fragalysis-2/maxwin/BulkDock/OUTPUTS/RdRp_knitwork_green_site_rna_tunnel_impure_fragalysis.sdf']

>  <SLURM_JOB_ID>  (380) 
220466

>  <distance_score>  (380) 
0.805269

>  <original SMILES>  (380) 
O=C(Nc1ccc(OC(F)F)c2ncccc12)c1ccccn1

>  <alias>  (380) 
None

>  <ref_pdb>  (380) 
z0221a

>  <inchikey>  (380) 
URWFLPJFHJBRPR-UHFFFAOYSA-N

$$$$
WEBXZWOBJZSOHG-UHFFFAOYSA-N
     RDKit          3D

 20 22  0  0  0  0  0  0  0  0999 V2000
  -28.8491  -30.1440  -21.2662 O   0  0  0  0  0  0  0  0  0  0  0  0
  -27.8223  -29.7098  -20.9302 C   0  0  0  0  0  0  0  0  0  0  0  0
  -27.1722  -29.6518  -19.5382 N   0  0  0  0  0  0  0  0  0  0  0  0
  -27.6718  -30.0186  -18.2894 C   0  0  0  0  0  0  0  0  0  0  0  0
  -29.0269  -30.3439  -18.2015 C   0  0  0  0  0  0  0  0  0  0  0  0
  -29.5571  -30.7763  -17.0017 C   0  0  0  0  0  0  0  0  0  0  0  0
  -28.7301  -30.8918  -15.8890 C   0  0  0  0  0  0  0  0  0  0  0  0
  -29.5528  -31.5744  -14.3104 Br  0  0  0  0  0  0  0  0  0  0  0  0
  -27.3666  -30.5683  -15.9256 C   0  0  0  0  0  0  0  0  0  0  0  0
  -26.5950  -30.7041  -14.8197 N   0  0  0  0  0  0  0  0  0  0  0  0
  -25.2795  -30.4260  -14.8941 C   0  0  0  0  0  0  0  0  0  0  0  0
  -24.6577  -29.9990  -16.0436 C   0  0  0  0  0  0  0  0  0  0  0  0
  -25.4356  -29.8476  -17.1832 C   0  0  0  0  0  0  0  0  0  0  0  0
  -26.8232  -30.1213  -17.1555 C   0  0  0  0  0  0  0  0  0  0  0  0
  -26.8769  -29.1669  -21.9454 C   0  0  0  0  0  0  0  0  0  0  0  0
  -26.9935  -29.5910  -23.2597 C   0  0  0  0  0  0  0  0  0  0  0  0
  -26.1261  -29.0878  -24.2167 C   0  0  0  0  0  0  0  0  0  0  0  0
  -25.2045  -28.1317  -23.8237 C   0  0  0  0  0  0  0  0  0  0  0  0
  -25.1879  -27.7343  -22.4923 C   0  0  0  0  0  0  0  0  0  0  0  0
  -25.9695  -28.2563  -21.5218 N   0  0  0  0  0  0  0  0  0  0  0  0
  1  2  2  0
  2  3  1  0
  3  4  1  0
  4  5  2  0
  5  6  1  0
  6  7  2  0
  7  8  1  0
  7  9  1  0
  9 10  2  0
 10 11  1  0
 11 12  2  0
 12 13  1  0
 13 14  2  0
  2 15  1  0
 15 16  2  0
 16 17  1  0
 17 18  2  0
 18 19  1  0
 19 20  2  0
 14  4  1  0
 20 15  1  0
 14  9  1  0
M  END
>  <fragmenstein_mode>  (381) 
expansion

>  <name>  (381) 
WEBXZWOBJZSOHG-UHFFFAOYSA-N

>  <fragmenstein_runtime>  (381) 
3.45623

>  <HIPPO Compound ID>  (381) 
31541

>  <SLURM_JOB_NAME>  (381) 
BulkDock.place:Flavi_NS5_RdRp:RdRp_knitwork_green_site_rna_tunnel_impure_split4000_batch015

>  <ref_mols>  (381) 
z0221a,z1040a

>  <Multi-SuCOS>  (381) 
0.533548

>  <tags>  (381) 
['Fragmenstein placed', 'RdRp_knitwork_green_site_rna_tunnel_impure_fragalysis.sdf Pose OK']

>  <scratch_subdir>  (381) 
/opt/xchem-fragalysis-2/maxwin/BulkDock/SCRATCH/220466/C31541-P105

>  <energy_score>  (381) 
-5.969844

>  <fragmenstein_error>  (381) 
None

>  <csv_name>  (381) 
RdRp_knitwork_green_site_rna_tunnel_impure_split4000_batch015.csv

>  <merge_set>  (381) 
RdRp_knitwork_green_site_rna_tunnel_impure_fragalysis.sdf

>  <original ID>  (381) 
WEBXZWOBJZSOHG-UHFFFAOYSA-N

>  <HIPPO Pose ID>  (381) 
210368

>  <fragmenstein_outcome>  (381) 
acceptable

>  <exports>  (381) 
['/opt/xchem-fragalysis-2/maxwin/BulkDock/OUTPUTS/RdRp_knitwork_green_site_rna_tunnel_impure_split4000_batch015_220466.sdf', '/opt/xchem-fragalysis-2/maxwin/BulkDock/OUTPUTS/RdRp_knitwork_green_site_rna_tunnel_impure_fragalysis.sdf']

>  <SLURM_JOB_ID>  (381) 
220466

>  <distance_score>  (381) 
0.942624

>  <original SMILES>  (381) 
O=C(Nc1ccc(Br)c2ncccc12)c1ccccn1

>  <alias>  (381) 
None

>  <ref_pdb>  (381) 
z0221a

>  <inchikey>  (381) 
WEBXZWOBJZSOHG-UHFFFAOYSA-N

$$$$
LRZYCVXVAGXAFJ-UHFFFAOYSA-N
     RDKit          3D

 20 22  0  0  0  0  0  0  0  0999 V2000
  -25.6068  -30.8322  -20.1563 O   0  0  0  0  0  0  0  0  0  0  0  0
  -26.4049  -30.0101  -20.3607 C   0  0  0  0  0  0  0  0  0  0  0  0
  -27.4998  -29.4394  -19.4516 N   0  0  0  0  0  0  0  0  0  0  0  0
  -27.8966  -29.8117  -18.1685 C   0  0  0  0  0  0  0  0  0  0  0  0
  -29.2684  -29.7905  -17.9425 C   0  0  0  0  0  0  0  0  0  0  0  0
  -29.7649  -30.2850  -16.7521 C   0  0  0  0  0  0  0  0  0  0  0  0
  -28.8969  -30.8064  -15.7958 C   0  0  0  0  0  0  0  0  0  0  0  0
  -29.7158  -31.5736  -14.2527 Br  0  0  0  0  0  0  0  0  0  0  0  0
  -27.5085  -30.7892  -15.9523 C   0  0  0  0  0  0  0  0  0  0  0  0
  -26.7059  -31.2473  -14.9605 N   0  0  0  0  0  0  0  0  0  0  0  0
  -25.3697  -31.1884  -15.1148 C   0  0  0  0  0  0  0  0  0  0  0  0
  -24.7612  -30.6580  -16.2258 C   0  0  0  0  0  0  0  0  0  0  0  0
  -25.5790  -30.1871  -17.2454 C   0  0  0  0  0  0  0  0  0  0  0  0
  -26.9901  -30.2663  -17.1606 C   0  0  0  0  0  0  0  0  0  0  0  0
  -26.3746  -29.3315  -21.6632 C   0  0  0  0  0  0  0  0  0  0  0  0
  -26.6172  -30.0769  -22.8132 C   0  0  0  0  0  0  0  0  0  0  0  0
  -26.2118  -29.5737  -24.0449 C   0  0  0  0  0  0  0  0  0  0  0  0
  -25.5717  -28.3458  -24.0610 C   0  0  0  0  0  0  0  0  0  0  0  0
  -25.4145  -27.5585  -22.9662 N   0  0  0  0  0  0  0  0  0  0  0  0
  -25.7942  -28.0797  -21.7781 C   0  0  0  0  0  0  0  0  0  0  0  0
  1  2  2  0
  2  3  1  0
  3  4  1  0
  4  5  2  0
  5  6  1  0
  6  7  2  0
  7  8  1  0
  7  9  1  0
  9 10  2  0
 10 11  1  0
 11 12  2  0
 12 13  1  0
 13 14  2  0
  2 15  1  0
 15 16  2  0
 16 17  1  0
 17 18  2  0
 18 19  1  0
 19 20  2  0
 14  4  1  0
 20 15  1  0
 14  9  1  0
M  END
>  <fragmenstein_mode>  (382) 
expansion

>  <name>  (382) 
LRZYCVXVAGXAFJ-UHFFFAOYSA-N

>  <fragmenstein_runtime>  (382) 
4.284399

>  <HIPPO Compound ID>  (382) 
33595

>  <SLURM_JOB_NAME>  (382) 
BulkDock.place:Flavi_NS5_RdRp:RdRp_knitwork_green_site_rna_tunnel_impure_split4000_batch015

>  <ref_mols>  (382) 
z0221a,z1040a

>  <Multi-SuCOS>  (382) 
0.557227

>  <tags>  (382) 
['Fragmenstein placed', 'RdRp_knitwork_green_site_rna_tunnel_impure_fragalysis.sdf Pose OK']

>  <scratch_subdir>  (382) 
/opt/xchem-fragalysis-2/maxwin/BulkDock/SCRATCH/220466/C33595-P105

>  <energy_score>  (382) 
-24.6355

>  <fragmenstein_error>  (382) 
None

>  <csv_name>  (382) 
RdRp_knitwork_green_site_rna_tunnel_impure_split4000_batch015.csv

>  <merge_set>  (382) 
RdRp_knitwork_green_site_rna_tunnel_impure_fragalysis.sdf

>  <original ID>  (382) 
LRZYCVXVAGXAFJ-UHFFFAOYSA-N

>  <HIPPO Pose ID>  (382) 
210458

>  <fragmenstein_outcome>  (382) 
acceptable

>  <exports>  (382) 
['/opt/xchem-fragalysis-2/maxwin/BulkDock/OUTPUTS/RdRp_knitwork_green_site_rna_tunnel_impure_split4000_batch015_220466.sdf', '/opt/xchem-fragalysis-2/maxwin/BulkDock/OUTPUTS/RdRp_knitwork_green_site_rna_tunnel_impure_fragalysis.sdf']

>  <SLURM_JOB_ID>  (382) 
220466

>  <distance_score>  (382) 
0.807047

>  <original SMILES>  (382) 
O=C(Nc1ccc(Br)c2ncccc12)c1cccnc1

>  <alias>  (382) 
None

>  <ref_pdb>  (382) 
z0221a

>  <inchikey>  (382) 
LRZYCVXVAGXAFJ-UHFFFAOYSA-N

$$$$
BEAJOYFRXOZOBB-UHFFFAOYSA-N
     RDKit          3D

 24 27  0  0  0  0  0  0  0  0999 V2000
  -28.5271  -30.5537  -21.6185 O   0  0  0  0  0  0  0  0  0  0  0  0
  -27.6017  -29.9538  -21.2413 C   0  0  0  0  0  0  0  0  0  0  0  0
  -27.1151  -29.6633  -19.8027 N   0  0  0  0  0  0  0  0  0  0  0  0
  -27.5989  -30.1168  -18.5721 C   0  0  0  0  0  0  0  0  0  0  0  0
  -28.9212  -30.5588  -18.5497 C   0  0  0  0  0  0  0  0  0  0  0  0
  -29.4355  -31.1455  -17.4105 C   0  0  0  0  0  0  0  0  0  0  0  0
  -28.6432  -31.3206  -16.2708 C   0  0  0  0  0  0  0  0  0  0  0  0
  -29.2587  -32.0578  -15.2317 N   0  0  0  0  0  0  0  0  0  0  0  0
  -30.0433  -31.2247  -14.3227 C   0  0  0  0  0  0  0  0  0  0  0  0
  -30.6459  -32.0787  -13.2134 C   0  0  0  0  0  0  0  0  0  0  0  0
  -29.5861  -32.8266  -12.4052 C   0  0  0  0  0  0  0  0  0  0  0  0
  -28.2853  -33.0535  -13.1749 C   0  0  0  0  0  0  0  0  0  0  0  0
  -28.5121  -33.1919  -14.6750 C   0  0  0  0  0  0  0  0  0  0  0  0
  -27.3235  -30.8053  -16.2355 C   0  0  0  0  0  0  0  0  0  0  0  0
  -26.5791  -30.9061  -15.1051 N   0  0  0  0  0  0  0  0  0  0  0  0
  -25.3133  -30.4480  -15.0975 C   0  0  0  0  0  0  0  0  0  0  0  0
  -24.7072  -29.8704  -16.1875 C   0  0  0  0  0  0  0  0  0  0  0  0
  -25.4529  -29.7472  -17.3519 C   0  0  0  0  0  0  0  0  0  0  0  0
  -26.7923  -30.1981  -17.4081 C   0  0  0  0  0  0  0  0  0  0  0  0
  -26.6971  -29.3391  -22.2115 C   0  0  0  0  0  0  0  0  0  0  0  0
  -26.5718  -29.6884  -23.4812 N   0  0  0  0  0  0  0  0  0  0  0  0
  -25.7294  -28.7451  -24.0040 C   0  0  0  0  0  0  0  0  0  0  0  0
  -25.3604  -27.8605  -23.0225 C   0  0  0  0  0  0  0  0  0  0  0  0
  -25.9402  -28.2486  -21.8513 O   0  0  0  0  0  0  0  0  0  0  0  0
  1  2  2  0
  2  3  1  0
  3  4  1  0
  4  5  2  0
  5  6  1  0
  6  7  2  0
  7  8  1  0
  8  9  1  0
  9 10  1  0
 10 11  1  0
 11 12  1  0
 12 13  1  0
  7 14  1  0
 14 15  2  0
 15 16  1  0
 16 17  2  0
 17 18  1  0
 18 19  2  0
  2 20  1  0
 20 21  2  0
 21 22  1  0
 22 23  2  0
 23 24  1  0
 19  4  1  0
 24 20  1  0
 13  8  1  0
 19 14  1  0
M  END
>  <fragmenstein_mode>  (383) 
expansion

>  <name>  (383) 
BEAJOYFRXOZOBB-UHFFFAOYSA-N

>  <fragmenstein_runtime>  (383) 
4.219505

>  <HIPPO Compound ID>  (383) 
31870

>  <SLURM_JOB_NAME>  (383) 
BulkDock.place:Flavi_NS5_RdRp:RdRp_knitwork_green_site_rna_tunnel_impure_split4000_batch015

>  <ref_mols>  (383) 
z0221a,z1040a

>  <Multi-SuCOS>  (383) 
0.462199

>  <tags>  (383) 
['Fragmenstein placed', 'RdRp_knitwork_green_site_rna_tunnel_impure_fragalysis.sdf Pose OK']

>  <scratch_subdir>  (383) 
/opt/xchem-fragalysis-2/maxwin/BulkDock/SCRATCH/220466/C31870-P105

>  <energy_score>  (383) 
-53.883088

>  <fragmenstein_error>  (383) 
None

>  <csv_name>  (383) 
RdRp_knitwork_green_site_rna_tunnel_impure_split4000_batch015.csv

>  <merge_set>  (383) 
RdRp_knitwork_green_site_rna_tunnel_impure_fragalysis.sdf

>  <original ID>  (383) 
BEAJOYFRXOZOBB-UHFFFAOYSA-N

>  <HIPPO Pose ID>  (383) 
210570

>  <fragmenstein_outcome>  (383) 
acceptable

>  <exports>  (383) 
['/opt/xchem-fragalysis-2/maxwin/BulkDock/OUTPUTS/RdRp_knitwork_green_site_rna_tunnel_impure_split4000_batch015_220466.sdf', '/opt/xchem-fragalysis-2/maxwin/BulkDock/OUTPUTS/RdRp_knitwork_green_site_rna_tunnel_impure_fragalysis.sdf']

>  <SLURM_JOB_ID>  (383) 
220466

>  <distance_score>  (383) 
0.882607

>  <original SMILES>  (383) 
O=C(Nc1ccc(N2CCCCC2)c2ncccc12)c1ncco1

>  <alias>  (383) 
None

>  <ref_pdb>  (383) 
z0221a

>  <inchikey>  (383) 
BEAJOYFRXOZOBB-UHFFFAOYSA-N

$$$$
HUWIWVHMYAKUTO-UHFFFAOYSA-N
     RDKit          3D

 25 28  0  0  0  0  0  0  0  0999 V2000
  -25.6331  -30.8450  -20.2208 O   0  0  0  0  0  0  0  0  0  0  0  0
  -26.4411  -30.0170  -20.3604 C   0  0  0  0  0  0  0  0  0  0  0  0
  -27.4965  -29.4794  -19.3814 N   0  0  0  0  0  0  0  0  0  0  0  0
  -27.8351  -29.8979  -18.0936 C   0  0  0  0  0  0  0  0  0  0  0  0
  -29.1792  -29.9169  -17.7721 C   0  0  0  0  0  0  0  0  0  0  0  0
  -29.5810  -30.5920  -16.6271 C   0  0  0  0  0  0  0  0  0  0  0  0
  -28.6743  -31.2920  -15.7958 C   0  0  0  0  0  0  0  0  0  0  0  0
  -29.2197  -32.0830  -14.7485 N   0  0  0  0  0  0  0  0  0  0  0  0
  -28.3262  -32.7428  -13.7734 C   0  0  0  0  0  0  0  0  0  0  0  0
  -29.1259  -33.5287  -12.7180 C   0  0  0  0  0  0  0  0  0  0  0  0
  -30.5271  -32.9651  -12.5198 C   0  0  0  0  0  0  0  0  0  0  0  0
  -31.3008  -32.9238  -13.8408 C   0  0  0  0  0  0  0  0  0  0  0  0
  -30.3857  -32.9177  -15.0666 C   0  0  0  0  0  0  0  0  0  0  0  0
  -27.2806  -31.1141  -16.0306 C   0  0  0  0  0  0  0  0  0  0  0  0
  -26.3453  -31.6165  -15.1789 N   0  0  0  0  0  0  0  0  0  0  0  0
  -25.0334  -31.4153  -15.3944 C   0  0  0  0  0  0  0  0  0  0  0  0
  -24.5540  -30.6930  -16.4510 C   0  0  0  0  0  0  0  0  0  0  0  0
  -25.4798  -30.1818  -17.3436 C   0  0  0  0  0  0  0  0  0  0  0  0
  -26.8682  -30.4018  -17.1840 C   0  0  0  0  0  0  0  0  0  0  0  0
  -26.4327  -29.3017  -21.6422 C   0  0  0  0  0  0  0  0  0  0  0  0
  -26.6589  -30.0323  -22.8062 C   0  0  0  0  0  0  0  0  0  0  0  0
  -26.2181  -29.5273  -24.0250 C   0  0  0  0  0  0  0  0  0  0  0  0
  -25.5566  -28.3110  -24.0155 C   0  0  0  0  0  0  0  0  0  0  0  0
  -25.4124  -27.5356  -22.9103 N   0  0  0  0  0  0  0  0  0  0  0  0
  -25.8273  -28.0602  -21.7343 C   0  0  0  0  0  0  0  0  0  0  0  0
  1  2  2  0
  2  3  1  0
  3  4  1  0
  4  5  2  0
  5  6  1  0
  6  7  2  0
  7  8  1  0
  8  9  1  0
  9 10  1  0
 10 11  1  0
 11 12  1  0
 12 13  1  0
  7 14  1  0
 14 15  2  0
 15 16  1  0
 16 17  2  0
 17 18  1  0
 18 19  2  0
  2 20  1  0
 20 21  2  0
 21 22  1  0
 22 23  2  0
 23 24  1  0
 24 25  2  0
 19  4  1  0
 25 20  1  0
 13  8  1  0
 19 14  1  0
M  END
>  <fragmenstein_mode>  (384) 
expansion

>  <name>  (384) 
HUWIWVHMYAKUTO-UHFFFAOYSA-N

>  <fragmenstein_runtime>  (384) 
7.505296

>  <HIPPO Compound ID>  (384) 
33788

>  <SLURM_JOB_NAME>  (384) 
BulkDock.place:Flavi_NS5_RdRp:RdRp_knitwork_green_site_rna_tunnel_impure_split4000_batch015

>  <ref_mols>  (384) 
z0221a,z1040a

>  <Multi-SuCOS>  (384) 
0.476967

>  <tags>  (384) 
['Fragmenstein placed', 'RdRp_knitwork_green_site_rna_tunnel_impure_fragalysis.sdf Pose OK']

>  <scratch_subdir>  (384) 
/opt/xchem-fragalysis-2/maxwin/BulkDock/SCRATCH/220466/C33788-P105

>  <energy_score>  (384) 
-26.614841

>  <fragmenstein_error>  (384) 
None

>  <csv_name>  (384) 
RdRp_knitwork_green_site_rna_tunnel_impure_split4000_batch015.csv

>  <merge_set>  (384) 
RdRp_knitwork_green_site_rna_tunnel_impure_fragalysis.sdf

>  <original ID>  (384) 
HUWIWVHMYAKUTO-UHFFFAOYSA-N

>  <HIPPO Pose ID>  (384) 
210590

>  <fragmenstein_outcome>  (384) 
acceptable

>  <exports>  (384) 
['/opt/xchem-fragalysis-2/maxwin/BulkDock/OUTPUTS/RdRp_knitwork_green_site_rna_tunnel_impure_split4000_batch015_220466.sdf', '/opt/xchem-fragalysis-2/maxwin/BulkDock/OUTPUTS/RdRp_knitwork_green_site_rna_tunnel_impure_fragalysis.sdf']

>  <SLURM_JOB_ID>  (384) 
220466

>  <distance_score>  (384) 
0.891232

>  <original SMILES>  (384) 
O=C(Nc1ccc(N2CCCCC2)c2ncccc12)c1cccnc1

>  <alias>  (384) 
None

>  <ref_pdb>  (384) 
z0221a

>  <inchikey>  (384) 
HUWIWVHMYAKUTO-UHFFFAOYSA-N

$$$$
FINIVNSSXOOETD-UHFFFAOYSA-N
     RDKit          3D

 25 28  0  0  0  0  0  0  0  0999 V2000
  -25.8150  -31.1368  -20.4114 O   0  0  0  0  0  0  0  0  0  0  0  0
  -26.4372  -30.1508  -20.4684 C   0  0  0  0  0  0  0  0  0  0  0  0
  -27.3031  -29.4538  -19.4030 N   0  0  0  0  0  0  0  0  0  0  0  0
  -27.6525  -29.8565  -18.1157 C   0  0  0  0  0  0  0  0  0  0  0  0
  -28.9833  -29.7443  -17.7599 C   0  0  0  0  0  0  0  0  0  0  0  0
  -29.4268  -30.3761  -16.6057 C   0  0  0  0  0  0  0  0  0  0  0  0
  -28.5735  -31.1642  -15.7964 C   0  0  0  0  0  0  0  0  0  0  0  0
  -29.1626  -31.8911  -14.7250 N   0  0  0  0  0  0  0  0  0  0  0  0
  -28.3071  -32.6580  -13.7935 C   0  0  0  0  0  0  0  0  0  0  0  0
  -29.1427  -33.3735  -12.7164 C   0  0  0  0  0  0  0  0  0  0  0  0
  -30.4659  -32.6691  -12.4503 C   0  0  0  0  0  0  0  0  0  0  0  0
  -31.2808  -32.5141  -13.7369 C   0  0  0  0  0  0  0  0  0  0  0  0
  -30.4244  -32.5875  -15.0005 C   0  0  0  0  0  0  0  0  0  0  0  0
  -27.1760  -31.1406  -16.0782 C   0  0  0  0  0  0  0  0  0  0  0  0
  -26.2732  -31.7443  -15.2585 N   0  0  0  0  0  0  0  0  0  0  0  0
  -24.9575  -31.7062  -15.5300 C   0  0  0  0  0  0  0  0  0  0  0  0
  -24.4391  -31.0593  -16.6170 C   0  0  0  0  0  0  0  0  0  0  0  0
  -25.3298  -30.4401  -17.4761 C   0  0  0  0  0  0  0  0  0  0  0  0
  -26.7242  -30.4815  -17.2483 C   0  0  0  0  0  0  0  0  0  0  0  0
  -26.4126  -29.3913  -21.7476 C   0  0  0  0  0  0  0  0  0  0  0  0
  -26.5856  -30.1329  -22.9074 C   0  0  0  0  0  0  0  0  0  0  0  0
  -26.1596  -29.5926  -24.1110 C   0  0  0  0  0  0  0  0  0  0  0  0
  -25.5345  -28.3545  -24.0912 C   0  0  0  0  0  0  0  0  0  0  0  0
  -25.4642  -27.6543  -22.8915 C   0  0  0  0  0  0  0  0  0  0  0  0
  -25.9253  -28.1273  -21.7090 N   0  0  0  0  0  0  0  0  0  0  0  0
  1  2  2  0
  2  3  1  0
  3  4  1  0
  4  5  2  0
  5  6  1  0
  6  7  2  0
  7  8  1  0
  8  9  1  0
  9 10  1  0
 10 11  1  0
 11 12  1  0
 12 13  1  0
  7 14  1  0
 14 15  2  0
 15 16  1  0
 16 17  2  0
 17 18  1  0
 18 19  2  0
  2 20  1  0
 20 21  2  0
 21 22  1  0
 22 23  2  0
 23 24  1  0
 24 25  2  0
 19  4  1  0
 25 20  1  0
 13  8  1  0
 19 14  1  0
M  END
>  <fragmenstein_mode>  (385) 
expansion

>  <name>  (385) 
FINIVNSSXOOETD-UHFFFAOYSA-N

>  <fragmenstein_runtime>  (385) 
5.428776

>  <HIPPO Compound ID>  (385) 
31875

>  <SLURM_JOB_NAME>  (385) 
BulkDock.place:Flavi_NS5_RdRp:RdRp_knitwork_green_site_rna_tunnel_impure_split4000_batch015

>  <ref_mols>  (385) 
z0221a,z1040a

>  <Multi-SuCOS>  (385) 
0.468469

>  <tags>  (385) 
['Fragmenstein placed', 'RdRp_knitwork_green_site_rna_tunnel_impure_fragalysis.sdf Pose OK']

>  <scratch_subdir>  (385) 
/opt/xchem-fragalysis-2/maxwin/BulkDock/SCRATCH/220466/C31875-P105

>  <energy_score>  (385) 
-12.606311

>  <fragmenstein_error>  (385) 
None

>  <csv_name>  (385) 
RdRp_knitwork_green_site_rna_tunnel_impure_split4000_batch015.csv

>  <merge_set>  (385) 
RdRp_knitwork_green_site_rna_tunnel_impure_fragalysis.sdf

>  <original ID>  (385) 
FINIVNSSXOOETD-UHFFFAOYSA-N

>  <HIPPO Pose ID>  (385) 
210610

>  <fragmenstein_outcome>  (385) 
acceptable

>  <exports>  (385) 
['/opt/xchem-fragalysis-2/maxwin/BulkDock/OUTPUTS/RdRp_knitwork_green_site_rna_tunnel_impure_split4000_batch015_220466.sdf', '/opt/xchem-fragalysis-2/maxwin/BulkDock/OUTPUTS/RdRp_knitwork_green_site_rna_tunnel_impure_fragalysis.sdf']

>  <SLURM_JOB_ID>  (385) 
220466

>  <distance_score>  (385) 
0.950993

>  <original SMILES>  (385) 
O=C(Nc1ccc(N2CCCCC2)c2ncccc12)c1ccccn1

>  <alias>  (385) 
None

>  <ref_pdb>  (385) 
z0221a

>  <inchikey>  (385) 
FINIVNSSXOOETD-UHFFFAOYSA-N

$$$$
IMMHZJLASOVDCS-UHFFFAOYSA-N
     RDKit          3D

 20 22  0  0  0  0  0  0  0  0999 V2000
  -29.4981  -31.2578  -14.5138 C   0  0  0  0  0  0  0  0  0  0  0  0
  -28.8779  -30.7480  -15.7888 C   0  0  0  0  0  0  0  0  0  0  0  0
  -29.7400  -30.2307  -16.7597 C   0  0  0  0  0  0  0  0  0  0  0  0
  -29.2500  -29.7928  -17.9749 C   0  0  0  0  0  0  0  0  0  0  0  0
  -27.8834  -29.8516  -18.2255 C   0  0  0  0  0  0  0  0  0  0  0  0
  -27.5182  -29.5171  -19.5286 N   0  0  0  0  0  0  0  0  0  0  0  0
  -26.3816  -30.0451  -20.4113 C   0  0  0  0  0  0  0  0  0  0  0  0
  -25.6135  -30.8988  -20.2223 O   0  0  0  0  0  0  0  0  0  0  0  0
  -26.3150  -29.3042  -21.6831 C   0  0  0  0  0  0  0  0  0  0  0  0
  -26.6062  -29.9999  -22.8510 C   0  0  0  0  0  0  0  0  0  0  0  0
  -26.2942  -29.3966  -24.0509 C   0  0  0  0  0  0  0  0  0  0  0  0
  -25.7344  -28.1727  -24.1259 N   0  0  0  0  0  0  0  0  0  0  0  0
  -25.4591  -27.5256  -22.9701 C   0  0  0  0  0  0  0  0  0  0  0  0
  -25.7474  -28.0353  -21.7207 C   0  0  0  0  0  0  0  0  0  0  0  0
  -26.9745  -30.2824  -17.2135 C   0  0  0  0  0  0  0  0  0  0  0  0
  -25.5629  -30.2321  -17.3075 C   0  0  0  0  0  0  0  0  0  0  0  0
  -24.7500  -30.6702  -16.2696 C   0  0  0  0  0  0  0  0  0  0  0  0
  -25.3642  -31.1361  -15.1327 C   0  0  0  0  0  0  0  0  0  0  0  0
  -26.7008  -31.1652  -14.9699 N   0  0  0  0  0  0  0  0  0  0  0  0
  -27.4939  -30.7439  -15.9791 C   0  0  0  0  0  0  0  0  0  0  0  0
  1  2  1  0
  2  3  2  0
  3  4  1  0
  4  5  2  0
  5  6  1  0
  6  7  1  0
  7  8  2  0
  7  9  1  0
  9 10  2  0
 10 11  1  0
 11 12  2  0
 12 13  1  0
 13 14  2  0
  5 15  1  0
 15 16  2  0
 16 17  1  0
 17 18  2  0
 18 19  1  0
 19 20  2  0
 20  2  1  0
 14  9  1  0
 20 15  1  0
M  END
>  <fragmenstein_mode>  (386) 
expansion

>  <name>  (386) 
IMMHZJLASOVDCS-UHFFFAOYSA-N

>  <fragmenstein_runtime>  (386) 
3.255564

>  <HIPPO Compound ID>  (386) 
28013

>  <SLURM_JOB_NAME>  (386) 
BulkDock.place:Flavi_NS5_RdRp:RdRp_knitwork_green_site_rna_tunnel_impure_split4000_batch015

>  <ref_mols>  (386) 
z0221a,z1040a

>  <Multi-SuCOS>  (386) 
0.606619

>  <tags>  (386) 
['Fragmenstein placed', 'RdRp_knitwork_green_site_rna_tunnel_impure_fragalysis.sdf Pose OK']

>  <scratch_subdir>  (386) 
/opt/xchem-fragalysis-2/maxwin/BulkDock/SCRATCH/220466/C28013-P105

>  <energy_score>  (386) 
-18.848466

>  <fragmenstein_error>  (386) 
None

>  <csv_name>  (386) 
RdRp_knitwork_green_site_rna_tunnel_impure_split4000_batch015.csv

>  <merge_set>  (386) 
RdRp_knitwork_green_site_rna_tunnel_impure_fragalysis.sdf

>  <original ID>  (386) 
IMMHZJLASOVDCS-UHFFFAOYSA-N

>  <HIPPO Pose ID>  (386) 
210962

>  <fragmenstein_outcome>  (386) 
acceptable

>  <exports>  (386) 
['/opt/xchem-fragalysis-2/maxwin/BulkDock/OUTPUTS/RdRp_knitwork_green_site_rna_tunnel_impure_split4000_batch015_220466.sdf', '/opt/xchem-fragalysis-2/maxwin/BulkDock/OUTPUTS/RdRp_knitwork_green_site_rna_tunnel_impure_fragalysis.sdf']

>  <SLURM_JOB_ID>  (386) 
220466

>  <distance_score>  (386) 
0.788972

>  <original SMILES>  (386) 
Cc1ccc(NC(=O)c2ccncc2)c2cccnc12

>  <alias>  (386) 
None

>  <ref_pdb>  (386) 
z0221a

>  <inchikey>  (386) 
IMMHZJLASOVDCS-UHFFFAOYSA-N

$$$$
DPMUBWJOJJLJCG-SWLSCSKDSA-N
     RDKit          3D

 19 20  0  0  0  0  0  0  0  0999 V2000
  -25.3680  -31.3583  -22.3320 C   0  0  0  0  0  0  0  0  0  0  0  0
  -25.4895  -31.2216  -20.8191 C   0  0  0  0  0  0  0  0  0  0  0  0
  -24.6554  -32.2603  -20.0442 C   0  0  2  0  0  0  0  0  0  0  0  0
  -25.5544  -33.3776  -19.4977 C   0  0  0  0  0  0  0  0  0  0  0  0
  -23.6816  -31.7007  -18.9543 C   0  0  1  0  0  0  0  0  0  0  0  0
  -24.2260  -31.3171  -17.5427 C   0  0  0  0  0  0  0  0  0  0  0  0
  -24.9500  -30.0467  -17.4692 N   0  0  0  0  0  0  0  0  0  0  0  0
  -26.3261  -30.1658  -17.5993 C   0  0  0  0  0  0  0  0  0  0  0  0
  -27.0857  -30.8791  -16.6876 C   0  0  0  0  0  0  0  0  0  0  0  0
  -28.4156  -31.1254  -16.9846 C   0  0  0  0  0  0  0  0  0  0  0  0
  -28.9338  -30.6642  -18.1954 C   0  0  0  0  0  0  0  0  0  0  0  0
  -30.2168  -31.0083  -18.6126 C   0  0  0  0  0  0  0  0  0  0  0  0
  -30.7142  -30.5477  -19.8297 C   0  0  0  0  0  0  0  0  0  0  0  0
  -29.9122  -29.7776  -20.6576 C   0  0  0  0  0  0  0  0  0  0  0  0
  -28.6293  -29.4377  -20.2377 C   0  0  0  0  0  0  0  0  0  0  0  0
  -28.1215  -29.8739  -19.0194 C   0  0  0  0  0  0  0  0  0  0  0  0
  -26.8533  -29.5979  -18.6948 N   0  0  0  0  0  0  0  0  0  0  0  0
  -22.7045  -32.7506  -18.7015 O   0  0  0  0  0  0  0  0  0  0  0  0
  -21.5235  -32.5909  -19.4829 C   0  0  0  0  0  0  0  0  0  0  0  0
  1  2  1  0
  2  3  1  0
  3  4  1  1
  3  5  1  0
  5  6  1  1
  6  7  1  0
  7  8  1  0
  8  9  2  0
  9 10  1  0
 10 11  2  0
 11 12  1  0
 12 13  2  0
 13 14  1  0
 14 15  2  0
 15 16  1  0
 16 17  2  0
  5 18  1  0
 18 19  1  0
 17  8  1  0
 16 11  1  0
M  END
>  <fragmenstein_mode>  (387) 
expansion

>  <name>  (387) 
DPMUBWJOJJLJCG-SWLSCSKDSA-N

>  <fragmenstein_runtime>  (387) 
4.574932

>  <HIPPO Compound ID>  (387) 
65786

>  <SLURM_JOB_NAME>  (387) 
BulkDock.place:Flavi_NS5_RdRp:RdRp_knitwork_green_site_rna_tunnel_impure_split4000_batch012

>  <ref_mols>  (387) 
z0384a,z1040a

>  <Multi-SuCOS>  (387) 
0.661272

>  <tags>  (387) 
['Fragmenstein placed', 'RdRp_knitwork_green_site_rna_tunnel_impure_fragalysis.sdf Pose OK']

>  <scratch_subdir>  (387) 
/opt/xchem-fragalysis-2/maxwin/BulkDock/SCRATCH/220463/C65786-P120

>  <energy_score>  (387) 
-34.623486

>  <fragmenstein_error>  (387) 
None

>  <csv_name>  (387) 
RdRp_knitwork_green_site_rna_tunnel_impure_split4000_batch012.csv

>  <merge_set>  (387) 
RdRp_knitwork_green_site_rna_tunnel_impure_fragalysis.sdf

>  <original ID>  (387) 
DPMUBWJOJJLJCG-SWLSCSKDSA-N

>  <HIPPO Pose ID>  (387) 
210995

>  <fragmenstein_outcome>  (387) 
acceptable

>  <exports>  (387) 
['/opt/xchem-fragalysis-2/maxwin/BulkDock/OUTPUTS/RdRp_knitwork_green_site_rna_tunnel_impure_split4000_batch012_220463.sdf', '/opt/xchem-fragalysis-2/maxwin/BulkDock/OUTPUTS/RdRp_knitwork_green_site_rna_tunnel_impure_fragalysis.sdf']

>  <SLURM_JOB_ID>  (387) 
220463

>  <distance_score>  (387) 
0.936162

>  <original SMILES>  (387) 
CC[C@H](C)[C@@H](CNc1ccc2ccccc2n1)OC

>  <alias>  (387) 
None

>  <ref_pdb>  (387) 
z0384a

>  <inchikey>  (387) 
DPMUBWJOJJLJCG-SWLSCSKDSA-N

$$$$
DPMUBWJOJJLJCG-SWLSCSKDSA-N
     RDKit          3D

 19 20  0  0  0  0  0  0  0  0999 V2000
  -25.5795  -31.5884  -22.2850 C   0  0  0  0  0  0  0  0  0  0  0  0
  -25.5125  -31.3888  -20.7740 C   0  0  0  0  0  0  0  0  0  0  0  0
  -24.6285  -32.4189  -20.0492 C   0  0  2  0  0  0  0  0  0  0  0  0
  -25.4782  -33.5958  -19.5499 C   0  0  0  0  0  0  0  0  0  0  0  0
  -23.6786  -31.8632  -18.9370 C   0  0  1  0  0  0  0  0  0  0  0  0
  -24.2522  -31.4907  -17.5348 C   0  0  0  0  0  0  0  0  0  0  0  0
  -24.9408  -30.2026  -17.4754 N   0  0  0  0  0  0  0  0  0  0  0  0
  -26.3218  -30.3018  -17.5756 C   0  0  0  0  0  0  0  0  0  0  0  0
  -27.0868  -30.9886  -16.6510 C   0  0  0  0  0  0  0  0  0  0  0  0
  -28.4288  -31.1909  -16.9291 C   0  0  0  0  0  0  0  0  0  0  0  0
  -28.9533  -30.7095  -18.1309 C   0  0  0  0  0  0  0  0  0  0  0  0
  -30.2519  -31.0080  -18.5321 C   0  0  0  0  0  0  0  0  0  0  0  0
  -30.7536  -30.5266  -19.7407 C   0  0  0  0  0  0  0  0  0  0  0  0
  -29.9443  -29.7669  -20.5706 C   0  0  0  0  0  0  0  0  0  0  0  0
  -28.6437  -29.4764  -20.1696 C   0  0  0  0  0  0  0  0  0  0  0  0
  -28.1318  -29.9451  -18.9653 C   0  0  0  0  0  0  0  0  0  0  0  0
  -26.8497  -29.7219  -18.6628 N   0  0  0  0  0  0  0  0  0  0  0  0
  -22.7012  -32.9174  -18.7184 O   0  0  0  0  0  0  0  0  0  0  0  0
  -21.3705  -32.4213  -18.6349 C   0  0  0  0  0  0  0  0  0  0  0  0
  1  2  1  0
  2  3  1  0
  3  4  1  1
  3  5  1  0
  5  6  1  1
  6  7  1  0
  7  8  1  0
  8  9  2  0
  9 10  1  0
 10 11  2  0
 11 12  1  0
 12 13  2  0
 13 14  1  0
 14 15  2  0
 15 16  1  0
 16 17  2  0
  5 18  1  0
 18 19  1  0
 17  8  1  0
 16 11  1  0
M  END
>  <fragmenstein_mode>  (388) 
expansion

>  <name>  (388) 
DPMUBWJOJJLJCG-SWLSCSKDSA-N

>  <fragmenstein_runtime>  (388) 
3.959431

>  <HIPPO Compound ID>  (388) 
65786

>  <SLURM_JOB_NAME>  (388) 
BulkDock.place:Flavi_NS5_RdRp:RdRp_knitwork_green_site_rna_tunnel_impure_split4000_batch012

>  <ref_mols>  (388) 
z0384a,z1040a

>  <Multi-SuCOS>  (388) 
0.655814

>  <tags>  (388) 
['Fragmenstein placed', 'RdRp_knitwork_green_site_rna_tunnel_impure_fragalysis.sdf Pose OK']

>  <scratch_subdir>  (388) 
/opt/xchem-fragalysis-2/maxwin/BulkDock/SCRATCH/220463/C65786-P208

>  <energy_score>  (388) 
-35.557409

>  <fragmenstein_error>  (388) 
None

>  <csv_name>  (388) 
RdRp_knitwork_green_site_rna_tunnel_impure_split4000_batch012.csv

>  <merge_set>  (388) 
RdRp_knitwork_green_site_rna_tunnel_impure_fragalysis.sdf

>  <original ID>  (388) 
DPMUBWJOJJLJCG-SWLSCSKDSA-N

>  <HIPPO Pose ID>  (388) 
211000

>  <fragmenstein_outcome>  (388) 
acceptable

>  <exports>  (388) 
['/opt/xchem-fragalysis-2/maxwin/BulkDock/OUTPUTS/RdRp_knitwork_green_site_rna_tunnel_impure_split4000_batch012_220463.sdf', '/opt/xchem-fragalysis-2/maxwin/BulkDock/OUTPUTS/RdRp_knitwork_green_site_rna_tunnel_impure_fragalysis.sdf']

>  <SLURM_JOB_ID>  (388) 
220463

>  <distance_score>  (388) 
0.968718

>  <original SMILES>  (388) 
CC[C@H](C)[C@@H](CNc1ccc2ccccc2n1)OC

>  <alias>  (388) 
None

>  <ref_pdb>  (388) 
z1040a

>  <inchikey>  (388) 
DPMUBWJOJJLJCG-SWLSCSKDSA-N

$$$$
YAOSTISNIUSXMX-UHFFFAOYSA-N
     RDKit          3D

 20 22  0  0  0  0  0  0  0  0999 V2000
  -25.6059  -30.8882  -20.2103 O   0  0  0  0  0  0  0  0  0  0  0  0
  -26.3699  -30.0305  -20.3965 C   0  0  0  0  0  0  0  0  0  0  0  0
  -27.4386  -29.4329  -19.4734 N   0  0  0  0  0  0  0  0  0  0  0  0
  -27.8474  -29.8130  -18.1966 C   0  0  0  0  0  0  0  0  0  0  0  0
  -29.2191  -29.7539  -17.9717 C   0  0  0  0  0  0  0  0  0  0  0  0
  -29.7301  -30.2057  -16.7702 C   0  0  0  0  0  0  0  0  0  0  0  0
  -28.8758  -30.7251  -15.8005 C   0  0  0  0  0  0  0  0  0  0  0  0
  -29.6300  -31.3315  -14.3587 Cl  0  0  0  0  0  0  0  0  0  0  0  0
  -27.4872  -30.7635  -15.9648 C   0  0  0  0  0  0  0  0  0  0  0  0
  -26.6962  -31.2297  -14.9663 N   0  0  0  0  0  0  0  0  0  0  0  0
  -25.3599  -31.2244  -15.1270 C   0  0  0  0  0  0  0  0  0  0  0  0
  -24.7378  -30.7399  -16.2512 C   0  0  0  0  0  0  0  0  0  0  0  0
  -25.5420  -30.2589  -17.2770 C   0  0  0  0  0  0  0  0  0  0  0  0
  -26.9545  -30.2842  -17.1853 C   0  0  0  0  0  0  0  0  0  0  0  0
  -26.3158  -29.3044  -21.6786 C   0  0  0  0  0  0  0  0  0  0  0  0
  -26.6133  -30.0108  -22.8384 C   0  0  0  0  0  0  0  0  0  0  0  0
  -26.3072  -29.4180  -24.0456 C   0  0  0  0  0  0  0  0  0  0  0  0
  -25.7465  -28.1954  -24.1357 N   0  0  0  0  0  0  0  0  0  0  0  0
  -25.4614  -27.5390  -22.9883 C   0  0  0  0  0  0  0  0  0  0  0  0
  -25.7449  -28.0365  -21.7329 C   0  0  0  0  0  0  0  0  0  0  0  0
  1  2  2  0
  2  3  1  0
  3  4  1  0
  4  5  2  0
  5  6  1  0
  6  7  2  0
  7  8  1  0
  7  9  1  0
  9 10  2  0
 10 11  1  0
 11 12  2  0
 12 13  1  0
 13 14  2  0
  2 15  1  0
 15 16  2  0
 16 17  1  0
 17 18  2  0
 18 19  1  0
 19 20  2  0
 14  4  1  0
 20 15  1  0
 14  9  1  0
M  END
>  <fragmenstein_mode>  (389) 
expansion

>  <name>  (389) 
YAOSTISNIUSXMX-UHFFFAOYSA-N

>  <fragmenstein_runtime>  (389) 
3.597533

>  <HIPPO Compound ID>  (389) 
29639

>  <SLURM_JOB_NAME>  (389) 
BulkDock.place:Flavi_NS5_RdRp:RdRp_knitwork_green_site_rna_tunnel_impure_split4000_batch015

>  <ref_mols>  (389) 
z0221a,z1040a

>  <Multi-SuCOS>  (389) 
0.599096

>  <tags>  (389) 
['Fragmenstein placed', 'RdRp_knitwork_green_site_rna_tunnel_impure_fragalysis.sdf Pose OK']

>  <scratch_subdir>  (389) 
/opt/xchem-fragalysis-2/maxwin/BulkDock/SCRATCH/220466/C29639-P105

>  <energy_score>  (389) 
-10.708304

>  <fragmenstein_error>  (389) 
None

>  <csv_name>  (389) 
RdRp_knitwork_green_site_rna_tunnel_impure_split4000_batch015.csv

>  <merge_set>  (389) 
RdRp_knitwork_green_site_rna_tunnel_impure_fragalysis.sdf

>  <original ID>  (389) 
YAOSTISNIUSXMX-UHFFFAOYSA-N

>  <HIPPO Pose ID>  (389) 
211048

>  <fragmenstein_outcome>  (389) 
acceptable

>  <exports>  (389) 
['/opt/xchem-fragalysis-2/maxwin/BulkDock/OUTPUTS/RdRp_knitwork_green_site_rna_tunnel_impure_split4000_batch015_220466.sdf', '/opt/xchem-fragalysis-2/maxwin/BulkDock/OUTPUTS/RdRp_knitwork_green_site_rna_tunnel_impure_fragalysis.sdf']

>  <SLURM_JOB_ID>  (389) 
220466

>  <distance_score>  (389) 
0.805216

>  <original SMILES>  (389) 
O=C(Nc1ccc(Cl)c2ncccc12)c1ccncc1

>  <alias>  (389) 
None

>  <ref_pdb>  (389) 
z0221a

>  <inchikey>  (389) 
YAOSTISNIUSXMX-UHFFFAOYSA-N

$$$$
NFWMWGWLCYLKNK-UHFFFAOYSA-N
     RDKit          3D

 21 23  0  0  0  0  0  0  0  0999 V2000
  -29.1454  -32.4014  -14.1646 C   0  0  0  0  0  0  0  0  0  0  0  0
  -29.4832  -31.0771  -14.5758 O   0  0  0  0  0  0  0  0  0  0  0  0
  -28.8374  -30.6844  -15.7313 C   0  0  0  0  0  0  0  0  0  0  0  0
  -29.6936  -30.1419  -16.6880 C   0  0  0  0  0  0  0  0  0  0  0  0
  -29.1944  -29.7251  -17.9072 C   0  0  0  0  0  0  0  0  0  0  0  0
  -27.8291  -29.8197  -18.1594 C   0  0  0  0  0  0  0  0  0  0  0  0
  -27.4322  -29.4410  -19.4420 N   0  0  0  0  0  0  0  0  0  0  0  0
  -26.3879  -30.0544  -20.3845 C   0  0  0  0  0  0  0  0  0  0  0  0
  -25.6366  -30.9273  -20.2134 O   0  0  0  0  0  0  0  0  0  0  0  0
  -26.3299  -29.3178  -21.6613 C   0  0  0  0  0  0  0  0  0  0  0  0
  -26.6155  -30.0171  -22.8284 C   0  0  0  0  0  0  0  0  0  0  0  0
  -26.3017  -29.4159  -24.0298 C   0  0  0  0  0  0  0  0  0  0  0  0
  -25.7417  -28.1920  -24.1083 N   0  0  0  0  0  0  0  0  0  0  0  0
  -25.4696  -27.5415  -22.9542 C   0  0  0  0  0  0  0  0  0  0  0  0
  -25.7628  -28.0476  -21.7041 C   0  0  0  0  0  0  0  0  0  0  0  0
  -26.9291  -30.2968  -17.1588 C   0  0  0  0  0  0  0  0  0  0  0  0
  -25.5183  -30.2910  -17.2754 C   0  0  0  0  0  0  0  0  0  0  0  0
  -24.7021  -30.7586  -16.2539 C   0  0  0  0  0  0  0  0  0  0  0  0
  -25.3108  -31.2109  -15.1097 C   0  0  0  0  0  0  0  0  0  0  0  0
  -26.6447  -31.2027  -14.9279 N   0  0  0  0  0  0  0  0  0  0  0  0
  -27.4491  -30.7492  -15.9216 C   0  0  0  0  0  0  0  0  0  0  0  0
  1  2  1  0
  2  3  1  0
  3  4  2  0
  4  5  1  0
  5  6  2  0
  6  7  1  0
  7  8  1  0
  8  9  2  0
  8 10  1  0
 10 11  2  0
 11 12  1  0
 12 13  2  0
 13 14  1  0
 14 15  2  0
  6 16  1  0
 16 17  2  0
 17 18  1  0
 18 19  2  0
 19 20  1  0
 20 21  2  0
 21  3  1  0
 15 10  1  0
 21 16  1  0
M  END
>  <fragmenstein_mode>  (390) 
expansion

>  <name>  (390) 
NFWMWGWLCYLKNK-UHFFFAOYSA-N

>  <fragmenstein_runtime>  (390) 
4.604608

>  <HIPPO Compound ID>  (390) 
29868

>  <SLURM_JOB_NAME>  (390) 
BulkDock.place:Flavi_NS5_RdRp:RdRp_knitwork_green_site_rna_tunnel_impure_split4000_batch015

>  <ref_mols>  (390) 
z0221a,z1040a

>  <Multi-SuCOS>  (390) 
0.582531

>  <tags>  (390) 
['Fragmenstein placed', 'RdRp_knitwork_green_site_rna_tunnel_impure_fragalysis.sdf Pose OK']

>  <scratch_subdir>  (390) 
/opt/xchem-fragalysis-2/maxwin/BulkDock/SCRATCH/220466/C29868-P105

>  <energy_score>  (390) 
-27.94404

>  <fragmenstein_error>  (390) 
None

>  <csv_name>  (390) 
RdRp_knitwork_green_site_rna_tunnel_impure_split4000_batch015.csv

>  <merge_set>  (390) 
RdRp_knitwork_green_site_rna_tunnel_impure_fragalysis.sdf

>  <original ID>  (390) 
NFWMWGWLCYLKNK-UHFFFAOYSA-N

>  <HIPPO Pose ID>  (390) 
211071

>  <fragmenstein_outcome>  (390) 
acceptable

>  <exports>  (390) 
['/opt/xchem-fragalysis-2/maxwin/BulkDock/OUTPUTS/RdRp_knitwork_green_site_rna_tunnel_impure_split4000_batch015_220466.sdf', '/opt/xchem-fragalysis-2/maxwin/BulkDock/OUTPUTS/RdRp_knitwork_green_site_rna_tunnel_impure_fragalysis.sdf']

>  <SLURM_JOB_ID>  (390) 
220466

>  <distance_score>  (390) 
0.833508

>  <original SMILES>  (390) 
COc1ccc(NC(=O)c2ccncc2)c2cccnc12

>  <alias>  (390) 
None

>  <ref_pdb>  (390) 
z0221a

>  <inchikey>  (390) 
NFWMWGWLCYLKNK-UHFFFAOYSA-N

$$$$
SMFBDVYXDGZYTE-UHFFFAOYSA-N
     RDKit          3D

 25 28  0  0  0  0  0  0  0  0999 V2000
  -25.6187  -30.9005  -20.2085 O   0  0  0  0  0  0  0  0  0  0  0  0
  -26.4032  -30.0496  -20.3449 C   0  0  0  0  0  0  0  0  0  0  0  0
  -27.4553  -29.4974  -19.3686 N   0  0  0  0  0  0  0  0  0  0  0  0
  -27.8187  -29.9248  -18.0891 C   0  0  0  0  0  0  0  0  0  0  0  0
  -29.1737  -29.9152  -17.7902 C   0  0  0  0  0  0  0  0  0  0  0  0
  -29.6177  -30.5358  -16.6281 C   0  0  0  0  0  0  0  0  0  0  0  0
  -28.7314  -31.1822  -15.7463 C   0  0  0  0  0  0  0  0  0  0  0  0
  -29.2530  -31.9205  -14.6696 N   0  0  0  0  0  0  0  0  0  0  0  0
  -30.4819  -31.5332  -13.9879 C   0  0  0  0  0  0  0  0  0  0  0  0
  -30.5215  -32.1584  -12.5951 C   0  0  0  0  0  0  0  0  0  0  0  0
  -30.4984  -33.6834  -12.6635 C   0  0  0  0  0  0  0  0  0  0  0  0
  -29.7100  -34.1995  -13.8678 C   0  0  0  0  0  0  0  0  0  0  0  0
  -28.6368  -33.2093  -14.3255 C   0  0  0  0  0  0  0  0  0  0  0  0
  -27.3344  -31.0830  -15.9828 C   0  0  0  0  0  0  0  0  0  0  0  0
  -26.4535  -31.5800  -15.0727 N   0  0  0  0  0  0  0  0  0  0  0  0
  -25.1301  -31.4473  -15.2710 C   0  0  0  0  0  0  0  0  0  0  0  0
  -24.5945  -30.8049  -16.3559 C   0  0  0  0  0  0  0  0  0  0  0  0
  -25.4754  -30.2928  -17.2959 C   0  0  0  0  0  0  0  0  0  0  0  0
  -26.8764  -30.4376  -17.1568 C   0  0  0  0  0  0  0  0  0  0  0  0
  -26.3703  -29.2953  -21.6110 C   0  0  0  0  0  0  0  0  0  0  0  0
  -26.6461  -29.9903  -22.7848 C   0  0  0  0  0  0  0  0  0  0  0  0
  -26.3102  -29.3910  -23.9816 C   0  0  0  0  0  0  0  0  0  0  0  0
  -25.7391  -28.1716  -24.0515 N   0  0  0  0  0  0  0  0  0  0  0  0
  -25.4806  -27.5242  -22.8919 C   0  0  0  0  0  0  0  0  0  0  0  0
  -25.7922  -28.0303  -21.6455 C   0  0  0  0  0  0  0  0  0  0  0  0
  1  2  2  0
  2  3  1  0
  3  4  1  0
  4  5  2  0
  5  6  1  0
  6  7  2  0
  7  8  1  0
  8  9  1  0
  9 10  1  0
 10 11  1  0
 11 12  1  0
 12 13  1  0
  7 14  1  0
 14 15  2  0
 15 16  1  0
 16 17  2  0
 17 18  1  0
 18 19  2  0
  2 20  1  0
 20 21  2  0
 21 22  1  0
 22 23  2  0
 23 24  1  0
 24 25  2  0
 19  4  1  0
 25 20  1  0
 13  8  1  0
 19 14  1  0
M  END
>  <fragmenstein_mode>  (391) 
expansion

>  <name>  (391) 
SMFBDVYXDGZYTE-UHFFFAOYSA-N

>  <fragmenstein_runtime>  (391) 
3.563999

>  <HIPPO Compound ID>  (391) 
31603

>  <SLURM_JOB_NAME>  (391) 
BulkDock.place:Flavi_NS5_RdRp:RdRp_knitwork_green_site_rna_tunnel_impure_split4000_batch015

>  <ref_mols>  (391) 
z0221a,z1040a

>  <Multi-SuCOS>  (391) 
0.505623

>  <tags>  (391) 
['Fragmenstein placed', 'RdRp_knitwork_green_site_rna_tunnel_impure_fragalysis.sdf Pose OK']

>  <scratch_subdir>  (391) 
/opt/xchem-fragalysis-2/maxwin/BulkDock/SCRATCH/220466/C31603-P105

>  <energy_score>  (391) 
-13.058939

>  <fragmenstein_error>  (391) 
None

>  <csv_name>  (391) 
RdRp_knitwork_green_site_rna_tunnel_impure_split4000_batch015.csv

>  <merge_set>  (391) 
RdRp_knitwork_green_site_rna_tunnel_impure_fragalysis.sdf

>  <original ID>  (391) 
SMFBDVYXDGZYTE-UHFFFAOYSA-N

>  <HIPPO Pose ID>  (391) 
211303

>  <fragmenstein_outcome>  (391) 
acceptable

>  <exports>  (391) 
['/opt/xchem-fragalysis-2/maxwin/BulkDock/OUTPUTS/RdRp_knitwork_green_site_rna_tunnel_impure_split4000_batch015_220466.sdf', '/opt/xchem-fragalysis-2/maxwin/BulkDock/OUTPUTS/RdRp_knitwork_green_site_rna_tunnel_impure_fragalysis.sdf']

>  <SLURM_JOB_ID>  (391) 
220466

>  <distance_score>  (391) 
0.898289

>  <original SMILES>  (391) 
O=C(Nc1ccc(N2CCCCC2)c2ncccc12)c1ccncc1

>  <alias>  (391) 
None

>  <ref_pdb>  (391) 
z0221a

>  <inchikey>  (391) 
SMFBDVYXDGZYTE-UHFFFAOYSA-N

$$$$
WYIKDPDHUDOSRG-VIFPVBQESA-N
     RDKit          3D

 19 20  0  0  0  0  0  0  0  0999 V2000
  -22.7870  -32.0761  -18.3917 C   0  0  0  0  0  0  0  0  0  0  0  0
  -24.0570  -31.3139  -18.7933 C   0  0  1  0  0  0  0  0  0  0  0  0
  -24.6098  -31.8958  -20.1321 C   0  0  0  0  0  0  0  0  0  0  0  0
  -25.0573  -30.8673  -21.0210 O   0  0  0  0  0  0  0  0  0  0  0  0
  -25.5832  -31.4035  -22.2126 C   0  0  0  0  0  0  0  0  0  0  0  0
  -26.0535  -30.4055  -22.9852 F   0  0  0  0  0  0  0  0  0  0  0  0
  -24.6336  -32.0851  -22.8845 F   0  0  0  0  0  0  0  0  0  0  0  0
  -26.6030  -32.2477  -21.9355 F   0  0  0  0  0  0  0  0  0  0  0  0
  -24.9671  -31.3737  -17.6297 N   0  0  0  0  0  0  0  0  0  0  0  0
  -26.2551  -30.8520  -17.7610 C   0  0  0  0  0  0  0  0  0  0  0  0
  -27.0935  -30.9017  -16.6558 C   0  0  0  0  0  0  0  0  0  0  0  0
  -28.4444  -30.6459  -16.8287 C   0  0  0  0  0  0  0  0  0  0  0  0
  -28.9173  -30.3773  -18.1135 C   0  0  0  0  0  0  0  0  0  0  0  0
  -30.2793  -30.2851  -18.3830 C   0  0  0  0  0  0  0  0  0  0  0  0
  -30.7343  -30.1135  -19.6906 C   0  0  0  0  0  0  0  0  0  0  0  0
  -29.8230  -29.9213  -20.7172 C   0  0  0  0  0  0  0  0  0  0  0  0
  -28.4613  -29.9683  -20.4356 C   0  0  0  0  0  0  0  0  0  0  0  0
  -27.9938  -30.2413  -19.1563 C   0  0  0  0  0  0  0  0  0  0  0  0
  -26.6872  -30.4235  -18.9550 N   0  0  0  0  0  0  0  0  0  0  0  0
  2  1  1  1
  2  3  1  0
  3  4  1  0
  4  5  1  0
  5  6  1  0
  5  7  1  0
  5  8  1  0
  2  9  1  0
  9 10  1  0
 10 11  2  0
 11 12  1  0
 12 13  2  0
 13 14  1  0
 14 15  2  0
 15 16  1  0
 16 17  2  0
 17 18  1  0
 18 19  2  0
 19 10  1  0
 18 13  1  0
M  END
>  <fragmenstein_mode>  (392) 
expansion

>  <name>  (392) 
WYIKDPDHUDOSRG-VIFPVBQESA-N

>  <fragmenstein_runtime>  (392) 
2.34459

>  <HIPPO Compound ID>  (392) 
65985

>  <SLURM_JOB_NAME>  (392) 
BulkDock.place:Flavi_NS5_RdRp:RdRp_knitwork_green_site_rna_tunnel_impure_split4000_batch012

>  <ref_mols>  (392) 
z0384a,z1040a

>  <Multi-SuCOS>  (392) 
0.738848

>  <tags>  (392) 
['Fragmenstein placed', 'RdRp_knitwork_green_site_rna_tunnel_impure_fragalysis.sdf Pose OK']

>  <scratch_subdir>  (392) 
/opt/xchem-fragalysis-2/maxwin/BulkDock/SCRATCH/220463/C65985-P120

>  <energy_score>  (392) 
-54.624068

>  <fragmenstein_error>  (392) 
None

>  <csv_name>  (392) 
RdRp_knitwork_green_site_rna_tunnel_impure_split4000_batch012.csv

>  <merge_set>  (392) 
RdRp_knitwork_green_site_rna_tunnel_impure_fragalysis.sdf

>  <original ID>  (392) 
WYIKDPDHUDOSRG-VIFPVBQESA-N

>  <HIPPO Pose ID>  (392) 
211548

>  <fragmenstein_outcome>  (392) 
acceptable

>  <exports>  (392) 
['/opt/xchem-fragalysis-2/maxwin/BulkDock/OUTPUTS/RdRp_knitwork_green_site_rna_tunnel_impure_split4000_batch012_220463.sdf', '/opt/xchem-fragalysis-2/maxwin/BulkDock/OUTPUTS/RdRp_knitwork_green_site_rna_tunnel_impure_fragalysis.sdf']

>  <SLURM_JOB_ID>  (392) 
220463

>  <distance_score>  (392) 
0.855531

>  <original SMILES>  (392) 
C[C@@H](COC(F)(F)F)Nc1ccc2ccccc2n1

>  <alias>  (392) 
None

>  <ref_pdb>  (392) 
z0384a

>  <inchikey>  (392) 
WYIKDPDHUDOSRG-VIFPVBQESA-N

$$$$
WYIKDPDHUDOSRG-VIFPVBQESA-N
     RDKit          3D

 19 20  0  0  0  0  0  0  0  0999 V2000
  -22.8485  -31.8328  -18.4277 C   0  0  0  0  0  0  0  0  0  0  0  0
  -24.2051  -31.2402  -18.8234 C   0  0  1  0  0  0  0  0  0  0  0  0
  -24.7349  -31.9573  -20.1051 C   0  0  0  0  0  0  0  0  0  0  0  0
  -25.2355  -31.0239  -21.0692 O   0  0  0  0  0  0  0  0  0  0  0  0
  -25.7760  -31.6791  -22.1931 C   0  0  0  0  0  0  0  0  0  0  0  0
  -26.3157  -30.7723  -23.0341 F   0  0  0  0  0  0  0  0  0  0  0  0
  -24.8138  -32.3633  -22.8445 F   0  0  0  0  0  0  0  0  0  0  0  0
  -26.7468  -32.5416  -21.8251 F   0  0  0  0  0  0  0  0  0  0  0  0
  -25.0679  -31.3358  -17.6305 N   0  0  0  0  0  0  0  0  0  0  0  0
  -26.3747  -30.8614  -17.7531 C   0  0  0  0  0  0  0  0  0  0  0  0
  -27.1973  -30.8905  -16.6370 C   0  0  0  0  0  0  0  0  0  0  0  0
  -28.5483  -30.6218  -16.7961 C   0  0  0  0  0  0  0  0  0  0  0  0
  -29.0378  -30.3624  -18.0777 C   0  0  0  0  0  0  0  0  0  0  0  0
  -30.3996  -30.2249  -18.3289 C   0  0  0  0  0  0  0  0  0  0  0  0
  -30.8663  -30.0546  -19.6328 C   0  0  0  0  0  0  0  0  0  0  0  0
  -29.9665  -29.9196  -20.6780 C   0  0  0  0  0  0  0  0  0  0  0  0
  -28.6041  -30.0141  -20.4173 C   0  0  0  0  0  0  0  0  0  0  0  0
  -28.1292  -30.2719  -19.1384 C   0  0  0  0  0  0  0  0  0  0  0  0
  -26.8245  -30.4724  -18.9548 N   0  0  0  0  0  0  0  0  0  0  0  0
  2  1  1  1
  2  3  1  0
  3  4  1  0
  4  5  1  0
  5  6  1  0
  5  7  1  0
  5  8  1  0
  2  9  1  0
  9 10  1  0
 10 11  2  0
 11 12  1  0
 12 13  2  0
 13 14  1  0
 14 15  2  0
 15 16  1  0
 16 17  2  0
 17 18  1  0
 18 19  2  0
 19 10  1  0
 18 13  1  0
M  END
>  <fragmenstein_mode>  (393) 
expansion

>  <name>  (393) 
WYIKDPDHUDOSRG-VIFPVBQESA-N

>  <fragmenstein_runtime>  (393) 
2.575462

>  <HIPPO Compound ID>  (393) 
65985

>  <SLURM_JOB_NAME>  (393) 
BulkDock.place:Flavi_NS5_RdRp:RdRp_knitwork_green_site_rna_tunnel_impure_split4000_batch012

>  <ref_mols>  (393) 
z0384a,z1040a

>  <Multi-SuCOS>  (393) 
0.738943

>  <tags>  (393) 
['Fragmenstein placed', 'RdRp_knitwork_green_site_rna_tunnel_impure_fragalysis.sdf Pose OK']

>  <scratch_subdir>  (393) 
/opt/xchem-fragalysis-2/maxwin/BulkDock/SCRATCH/220463/C65985-P208

>  <energy_score>  (393) 
-56.581671

>  <fragmenstein_error>  (393) 
None

>  <csv_name>  (393) 
RdRp_knitwork_green_site_rna_tunnel_impure_split4000_batch012.csv

>  <merge_set>  (393) 
RdRp_knitwork_green_site_rna_tunnel_impure_fragalysis.sdf

>  <original ID>  (393) 
WYIKDPDHUDOSRG-VIFPVBQESA-N

>  <HIPPO Pose ID>  (393) 
211554

>  <fragmenstein_outcome>  (393) 
acceptable

>  <exports>  (393) 
['/opt/xchem-fragalysis-2/maxwin/BulkDock/OUTPUTS/RdRp_knitwork_green_site_rna_tunnel_impure_split4000_batch012_220463.sdf', '/opt/xchem-fragalysis-2/maxwin/BulkDock/OUTPUTS/RdRp_knitwork_green_site_rna_tunnel_impure_fragalysis.sdf']

>  <SLURM_JOB_ID>  (393) 
220463

>  <distance_score>  (393) 
0.846171

>  <original SMILES>  (393) 
C[C@@H](COC(F)(F)F)Nc1ccc2ccccc2n1

>  <alias>  (393) 
None

>  <ref_pdb>  (393) 
z1040a

>  <inchikey>  (393) 
WYIKDPDHUDOSRG-VIFPVBQESA-N

$$$$
QQVZDKDRAJHAGE-ZDUSSCGKSA-N
     RDKit          3D

 22 24  0  0  0  0  0  0  0  0999 V2000
  -23.3866  -31.5969  -17.6730 C   0  0  0  0  0  0  0  0  0  0  0  0
  -24.8557  -31.7484  -18.0440 C   0  0  0  0  0  0  0  0  0  0  0  0
  -25.3834  -30.5988  -18.9288 C   0  0  1  0  0  0  0  0  0  0  0  0
  -25.3865  -30.9702  -20.4457 C   0  0  0  0  0  0  0  0  0  0  0  0
  -24.3805  -31.9383  -20.8319 N   0  0  0  0  0  0  0  0  0  0  0  0
  -24.4716  -33.1537  -21.7695 C   0  0  0  0  0  0  0  0  0  0  0  0
  -25.3477  -33.5253  -22.4402 O   0  0  0  0  0  0  0  0  0  0  0  0
  -23.2506  -33.9569  -21.6619 C   0  0  0  0  0  0  0  0  0  0  0  0
  -23.2511  -35.3294  -21.8384 C   0  0  0  0  0  0  0  0  0  0  0  0
  -22.0748  -35.8791  -21.4533 O   0  0  0  0  0  0  0  0  0  0  0  0
  -21.2694  -34.8497  -21.0869 C   0  0  0  0  0  0  0  0  0  0  0  0
  -19.9820  -34.9893  -20.5766 C   0  0  0  0  0  0  0  0  0  0  0  0
  -19.2743  -33.8132  -20.3345 C   0  0  0  0  0  0  0  0  0  0  0  0
  -19.8417  -32.5611  -20.5985 C   0  0  0  0  0  0  0  0  0  0  0  0
  -19.0673  -31.3275  -20.2798 C   0  0  0  0  0  0  0  0  0  0  0  0
  -21.1604  -32.4571  -21.0752 C   0  0  0  0  0  0  0  0  0  0  0  0
  -21.9049  -33.6315  -21.3003 C   0  0  0  0  0  0  0  0  0  0  0  0
  -26.6984  -30.1278  -18.4640 N   0  0  0  0  0  0  0  0  0  0  0  0
  -27.0280  -29.7190  -17.1949 C   0  0  0  0  0  0  0  0  0  0  0  0
  -28.3765  -29.4485  -17.2095 C   0  0  0  0  0  0  0  0  0  0  0  0
  -28.7644  -29.6656  -18.5405 C   0  0  0  0  0  0  0  0  0  0  0  0
  -27.7432  -30.0437  -19.3111 N   0  0  0  0  0  0  0  0  0  0  0  0
  1  2  1  0
  3  2  1  1
  3  4  1  0
  4  5  1  0
  5  6  1  0
  6  7  2  0
  6  8  1  0
  8  9  2  0
  9 10  1  0
 10 11  1  0
 11 12  2  0
 12 13  1  0
 13 14  2  0
 14 15  1  0
 14 16  1  0
 16 17  2  0
  3 18  1  0
 18 19  1  0
 19 20  2  0
 20 21  1  0
 21 22  2  0
 17  8  1  0
 22 18  1  0
 17 11  1  0
M  END
>  <fragmenstein_mode>  (394) 
expansion

>  <name>  (394) 
QQVZDKDRAJHAGE-ZDUSSCGKSA-N

>  <fragmenstein_runtime>  (394) 
10.32387

>  <HIPPO Compound ID>  (394) 
30022

>  <SLURM_JOB_NAME>  (394) 
BulkDock.place:Flavi_NS5_RdRp:RdRp_knitwork_green_site_rna_tunnel_impure_split4000_batch006

>  <ref_mols>  (394) 
z0637a,3vws-b

>  <Multi-SuCOS>  (394) 
0.688873

>  <tags>  (394) 
['Fragmenstein placed', 'RdRp_knitwork_green_site_rna_tunnel_impure_fragalysis.sdf Pose OK']

>  <scratch_subdir>  (394) 
/opt/xchem-fragalysis-2/maxwin/BulkDock/SCRATCH/220457/C30022-P151

>  <energy_score>  (394) 
-26.164931

>  <fragmenstein_error>  (394) 
None

>  <csv_name>  (394) 
RdRp_knitwork_green_site_rna_tunnel_impure_split4000_batch006.csv

>  <merge_set>  (394) 
RdRp_knitwork_green_site_rna_tunnel_impure_fragalysis.sdf

>  <original ID>  (394) 
QQVZDKDRAJHAGE-ZDUSSCGKSA-N

>  <HIPPO Pose ID>  (394) 
212297

>  <fragmenstein_outcome>  (394) 
acceptable

>  <exports>  (394) 
['/opt/xchem-fragalysis-2/maxwin/BulkDock/OUTPUTS/RdRp_knitwork_green_site_rna_tunnel_impure_split4000_batch006_220457.sdf', '/opt/xchem-fragalysis-2/maxwin/BulkDock/OUTPUTS/RdRp_knitwork_green_site_rna_tunnel_impure_fragalysis.sdf']

>  <SLURM_JOB_ID>  (394) 
220457

>  <distance_score>  (394) 
0.968264

>  <original SMILES>  (394) 
CC[C@@H](CNC(=O)c1coc2ccc(C)cc12)n1cccn1

>  <alias>  (394) 
None

>  <ref_pdb>  (394) 
z0637a

>  <inchikey>  (394) 
QQVZDKDRAJHAGE-ZDUSSCGKSA-N

$$$$
KSYLDBNDSAZDAP-UHFFFAOYSA-N
     RDKit          3D

 16 17  0  0  0  0  0  0  0  0999 V2000
  -24.9111  -33.2343  -19.8580 C   0  0  0  0  0  0  0  0  0  0  0  0
  -25.6817  -31.8839  -19.8446 C   0  0  0  0  0  0  0  0  0  0  0  0
  -26.7783  -31.8741  -20.8216 N   0  0  0  0  0  0  0  0  0  0  0  0
  -27.4526  -30.5834  -20.9769 C   0  0  0  0  0  0  0  0  0  0  0  0
  -28.6669  -30.2908  -20.0435 C   0  0  0  0  0  0  0  0  0  0  0  0
  -28.3669  -30.1291  -18.6077 N   0  0  0  0  0  0  0  0  0  0  0  0
  -29.5454  -30.2423  -17.7278 C   0  0  0  0  0  0  0  0  0  0  0  0
  -29.3812  -29.7761  -16.2836 C   0  0  0  0  0  0  0  0  0  0  0  0
  -28.3237  -30.5046  -15.4563 C   0  0  0  0  0  0  0  0  0  0  0  0
  -27.0067  -30.7758  -16.1760 C   0  0  0  0  0  0  0  0  0  0  0  0
  -26.5779  -29.6265  -17.0554 C   0  0  0  0  0  0  0  0  0  0  0  0
  -25.4176  -28.9124  -16.7463 C   0  0  0  0  0  0  0  0  0  0  0  0
  -25.0025  -27.8674  -17.5679 C   0  0  0  0  0  0  0  0  0  0  0  0
  -25.7572  -27.4881  -18.6671 C   0  0  0  0  0  0  0  0  0  0  0  0
  -26.9160  -28.1935  -18.9729 C   0  0  0  0  0  0  0  0  0  0  0  0
  -27.3197  -29.3023  -18.2142 C   0  0  0  0  0  0  0  0  0  0  0  0
  1  2  1  0
  2  3  1  0
  3  4  1  0
  4  5  1  0
  5  6  1  0
  6  7  1  0
  7  8  1  0
  8  9  1  0
  9 10  1  0
 10 11  1  0
 11 12  2  0
 12 13  1  0
 13 14  2  0
 14 15  1  0
 15 16  2  0
 16  6  1  0
 16 11  1  0
M  END
>  <fragmenstein_mode>  (395) 
expansion

>  <name>  (395) 
KSYLDBNDSAZDAP-UHFFFAOYSA-N

>  <fragmenstein_runtime>  (395) 
2.404469

>  <HIPPO Compound ID>  (395) 
58446

>  <SLURM_JOB_NAME>  (395) 
BulkDock.place:Flavi_NS5_RdRp:RdRp_knitwork_green_site_rna_tunnel_impure_split4000_batch009

>  <ref_mols>  (395) 
z0165a,z0521a

>  <Multi-SuCOS>  (395) 
0.688853

>  <tags>  (395) 
['Fragmenstein placed', 'RdRp_knitwork_green_site_rna_tunnel_impure_fragalysis.sdf Pose OK']

>  <scratch_subdir>  (395) 
/opt/xchem-fragalysis-2/maxwin/BulkDock/SCRATCH/220460/C58446-P3

>  <energy_score>  (395) 
-27.453244

>  <fragmenstein_error>  (395) 
None

>  <csv_name>  (395) 
RdRp_knitwork_green_site_rna_tunnel_impure_split4000_batch009.csv

>  <merge_set>  (395) 
RdRp_knitwork_green_site_rna_tunnel_impure_fragalysis.sdf

>  <original ID>  (395) 
KSYLDBNDSAZDAP-UHFFFAOYSA-N

>  <HIPPO Pose ID>  (395) 
212691

>  <fragmenstein_outcome>  (395) 
acceptable

>  <exports>  (395) 
['/opt/xchem-fragalysis-2/maxwin/BulkDock/OUTPUTS/RdRp_knitwork_green_site_rna_tunnel_impure_split4000_batch009_220460.sdf', '/opt/xchem-fragalysis-2/maxwin/BulkDock/OUTPUTS/RdRp_knitwork_green_site_rna_tunnel_impure_fragalysis.sdf']

>  <SLURM_JOB_ID>  (395) 
220460

>  <distance_score>  (395) 
0.924319

>  <original SMILES>  (395) 
CCNCCN1CCCCc2ccccc21

>  <alias>  (395) 
None

>  <ref_pdb>  (395) 
z0165a

>  <inchikey>  (395) 
KSYLDBNDSAZDAP-UHFFFAOYSA-N

$$$$
LVEXTPKRRNHUAM-UHFFFAOYSA-N
     RDKit          3D

 10 11  0  0  0  0  0  0  0  0999 V2000
  -29.5475  -30.3870  -20.0208 C   0  0  0  0  0  0  0  0  0  0  0  0
  -28.7770  -30.0091  -21.1556 C   0  0  0  0  0  0  0  0  0  0  0  0
  -27.7457  -29.1779  -20.7775 C   0  0  0  0  0  0  0  0  0  0  0  0
  -26.6938  -28.5801  -21.7576 C   0  0  0  0  0  0  0  0  0  0  0  0
  -25.9004  -27.4858  -21.4769 C   0  0  0  0  0  0  0  0  0  0  0  0
  -24.9553  -27.0879  -22.8580 S   0  0  0  0  0  0  0  0  0  0  0  0
  -25.5862  -28.4636  -23.6639 C   0  0  0  0  0  0  0  0  0  0  0  0
  -26.5238  -29.1267  -23.0197 N   0  0  0  0  0  0  0  0  0  0  0  0
  -27.8425  -28.9239  -19.1017 S   0  0  0  0  0  0  0  0  0  0  0  0
  -29.1363  -29.9253  -18.8417 N   0  0  0  0  0  0  0  0  0  0  0  0
  1  2  1  0
  2  3  2  0
  3  4  1  0
  4  5  2  0
  5  6  1  0
  6  7  1  0
  7  8  2  0
  3  9  1  0
  9 10  1  0
 10  1  2  0
  8  4  1  0
M  END
>  <fragmenstein_mode>  (396) 
expansion

>  <name>  (396) 
LVEXTPKRRNHUAM-UHFFFAOYSA-N

>  <fragmenstein_runtime>  (396) 
0.843252

>  <HIPPO Compound ID>  (396) 
8347

>  <SLURM_JOB_NAME>  (396) 
BulkDock.place:Flavi_NS5_RdRp:RdRp_knitwork_green_site_rna_tunnel_impure_split4000_batch003

>  <ref_mols>  (396) 
z0384a,z0496a

>  <Multi-SuCOS>  (396) 
0.832324

>  <tags>  (396) 
['Fragmenstein placed', 'RdRp_knitwork_green_site_rna_tunnel_impure_fragalysis.sdf Pose OK']

>  <scratch_subdir>  (396) 
/opt/xchem-fragalysis-2/maxwin/BulkDock/SCRATCH/220454/C8347-P136

>  <energy_score>  (396) 
-117.541477

>  <fragmenstein_error>  (396) 
None

>  <csv_name>  (396) 
RdRp_knitwork_green_site_rna_tunnel_impure_split4000_batch003.csv

>  <merge_set>  (396) 
RdRp_knitwork_green_site_rna_tunnel_impure_fragalysis.sdf

>  <original ID>  (396) 
LVEXTPKRRNHUAM-UHFFFAOYSA-N

>  <HIPPO Pose ID>  (396) 
212809

>  <fragmenstein_outcome>  (396) 
acceptable

>  <exports>  (396) 
['/opt/xchem-fragalysis-2/maxwin/BulkDock/OUTPUTS/RdRp_knitwork_green_site_rna_tunnel_impure_split4000_batch003_220454.sdf', '/opt/xchem-fragalysis-2/maxwin/BulkDock/OUTPUTS/RdRp_knitwork_green_site_rna_tunnel_impure_fragalysis.sdf']

>  <SLURM_JOB_ID>  (396) 
220454

>  <distance_score>  (396) 
0.944459

>  <original SMILES>  (396) 
c1cc(-c2cscn2)sn1

>  <alias>  (396) 
None

>  <ref_pdb>  (396) 
z0496a

>  <inchikey>  (396) 
LVEXTPKRRNHUAM-UHFFFAOYSA-N

$$$$
SMBKODDGONSFPJ-UHFFFAOYSA-N
     RDKit          3D

 10 11  0  0  0  0  0  0  0  0999 V2000
  -29.3517  -30.3174  -20.0312 C   0  0  0  0  0  0  0  0  0  0  0  0
  -28.7900  -29.8482  -21.1880 C   0  0  0  0  0  0  0  0  0  0  0  0
  -27.5964  -29.2312  -20.7613 C   0  0  0  0  0  0  0  0  0  0  0  0
  -26.6458  -28.5919  -21.6706 C   0  0  0  0  0  0  0  0  0  0  0  0
  -25.9593  -27.4165  -21.4376 C   0  0  0  0  0  0  0  0  0  0  0  0
  -25.0045  -27.0226  -22.8115 S   0  0  0  0  0  0  0  0  0  0  0  0
  -25.5233  -28.4730  -23.5682 C   0  0  0  0  0  0  0  0  0  0  0  0
  -26.4112  -29.1847  -22.9043 N   0  0  0  0  0  0  0  0  0  0  0  0
  -27.4453  -29.2992  -19.4316 N   0  0  0  0  0  0  0  0  0  0  0  0
  -28.5525  -30.0039  -18.9797 O   0  0  0  0  0  0  0  0  0  0  0  0
  1  2  2  0
  2  3  1  0
  3  4  1  0
  4  5  2  0
  5  6  1  0
  6  7  1  0
  7  8  2  0
  3  9  2  0
  9 10  1  0
 10  1  1  0
  8  4  1  0
M  END
>  <fragmenstein_mode>  (397) 
expansion

>  <name>  (397) 
SMBKODDGONSFPJ-UHFFFAOYSA-N

>  <fragmenstein_runtime>  (397) 
1.143444

>  <HIPPO Compound ID>  (397) 
8398

>  <SLURM_JOB_NAME>  (397) 
BulkDock.place:Flavi_NS5_RdRp:RdRp_knitwork_green_site_rna_tunnel_impure_split4000_batch003

>  <ref_mols>  (397) 
z0384a,z0496a

>  <Multi-SuCOS>  (397) 
0.806159

>  <tags>  (397) 
['Fragmenstein placed', 'RdRp_knitwork_green_site_rna_tunnel_impure_fragalysis.sdf Pose OK']

>  <scratch_subdir>  (397) 
/opt/xchem-fragalysis-2/maxwin/BulkDock/SCRATCH/220454/C8398-P136

>  <energy_score>  (397) 
-58.434103

>  <fragmenstein_error>  (397) 
None

>  <csv_name>  (397) 
RdRp_knitwork_green_site_rna_tunnel_impure_split4000_batch003.csv

>  <merge_set>  (397) 
RdRp_knitwork_green_site_rna_tunnel_impure_fragalysis.sdf

>  <original ID>  (397) 
SMBKODDGONSFPJ-UHFFFAOYSA-N

>  <HIPPO Pose ID>  (397) 
212843

>  <fragmenstein_outcome>  (397) 
acceptable

>  <exports>  (397) 
['/opt/xchem-fragalysis-2/maxwin/BulkDock/OUTPUTS/RdRp_knitwork_green_site_rna_tunnel_impure_split4000_batch003_220454.sdf', '/opt/xchem-fragalysis-2/maxwin/BulkDock/OUTPUTS/RdRp_knitwork_green_site_rna_tunnel_impure_fragalysis.sdf']

>  <SLURM_JOB_ID>  (397) 
220454

>  <distance_score>  (397) 
0.785984

>  <original SMILES>  (397) 
c1cc(-c2cscn2)no1

>  <alias>  (397) 
None

>  <ref_pdb>  (397) 
z0496a

>  <inchikey>  (397) 
SMBKODDGONSFPJ-UHFFFAOYSA-N

$$$$
WFFJCTFBBWZISL-UHFFFAOYSA-N
     RDKit          3D

 14 16  0  0  0  0  0  0  0  0999 V2000
  -25.5296  -28.4995  -23.6607 C   0  0  0  0  0  0  0  0  0  0  0  0
  -25.0364  -27.3514  -23.0817 C   0  0  0  0  0  0  0  0  0  0  0  0
  -25.7401  -27.1335  -21.5340 S   0  0  0  0  0  0  0  0  0  0  0  0
  -26.6362  -28.5990  -21.7445 C   0  0  0  0  0  0  0  0  0  0  0  0
  -27.5336  -29.0811  -20.6873 C   0  0  0  0  0  0  0  0  0  0  0  0
  -28.7823  -29.6379  -21.0038 C   0  0  0  0  0  0  0  0  0  0  0  0
  -29.5805  -30.1603  -19.9833 C   0  0  0  0  0  0  0  0  0  0  0  0
  -29.0712  -30.1316  -18.7006 C   0  0  0  0  0  0  0  0  0  0  0  0
  -27.8266  -29.5564  -18.4765 C   0  0  0  0  0  0  0  0  0  0  0  0
  -27.0468  -29.0142  -19.4192 N   0  0  0  0  0  0  0  0  0  0  0  0
  -27.4582  -29.6042  -17.0243 C   0  0  0  0  0  0  0  0  0  0  0  0
  -28.4123  -30.6899  -16.5205 C   0  0  0  0  0  0  0  0  0  0  0  0
  -29.6624  -30.6192  -17.4195 C   0  0  0  0  0  0  0  0  0  0  0  0
  -26.4665  -29.1911  -22.9141 N   0  0  0  0  0  0  0  0  0  0  0  0
  1  2  2  0
  2  3  1  0
  3  4  1  0
  4  5  1  0
  5  6  2  0
  6  7  1  0
  7  8  2  0
  8  9  1  0
  9 10  2  0
  9 11  1  0
 11 12  1  0
 12 13  1  0
  4 14  2  0
 14  1  1  0
 10  5  1  0
 13  8  1  0
M  END
>  <fragmenstein_mode>  (398) 
expansion

>  <name>  (398) 
WFFJCTFBBWZISL-UHFFFAOYSA-N

>  <fragmenstein_runtime>  (398) 
3.093922

>  <HIPPO Compound ID>  (398) 
8461

>  <SLURM_JOB_NAME>  (398) 
BulkDock.place:Flavi_NS5_RdRp:RdRp_knitwork_green_site_rna_tunnel_impure_split4000_batch003

>  <ref_mols>  (398) 
z0384a,z0496a

>  <Multi-SuCOS>  (398) 
0.739787

>  <tags>  (398) 
['Fragmenstein placed', 'RdRp_knitwork_green_site_rna_tunnel_impure_fragalysis.sdf Pose OK']

>  <scratch_subdir>  (398) 
/opt/xchem-fragalysis-2/maxwin/BulkDock/SCRATCH/220454/C8461-P136

>  <energy_score>  (398) 
-89.339454

>  <fragmenstein_error>  (398) 
None

>  <csv_name>  (398) 
RdRp_knitwork_green_site_rna_tunnel_impure_split4000_batch003.csv

>  <merge_set>  (398) 
RdRp_knitwork_green_site_rna_tunnel_impure_fragalysis.sdf

>  <original ID>  (398) 
WFFJCTFBBWZISL-UHFFFAOYSA-N

>  <HIPPO Pose ID>  (398) 
212876

>  <fragmenstein_outcome>  (398) 
acceptable

>  <exports>  (398) 
['/opt/xchem-fragalysis-2/maxwin/BulkDock/OUTPUTS/RdRp_knitwork_green_site_rna_tunnel_impure_split4000_batch003_220454.sdf', '/opt/xchem-fragalysis-2/maxwin/BulkDock/OUTPUTS/RdRp_knitwork_green_site_rna_tunnel_impure_fragalysis.sdf']

>  <SLURM_JOB_ID>  (398) 
220454

>  <distance_score>  (398) 
0.770208

>  <original SMILES>  (398) 
c1csc(-c2ccc3c(n2)CCC3)n1

>  <alias>  (398) 
None

>  <ref_pdb>  (398) 
z0496a

>  <inchikey>  (398) 
WFFJCTFBBWZISL-UHFFFAOYSA-N

$$$$
AQIWYYUUFDZEPS-UHFFFAOYSA-N
     RDKit          3D

 10 11  0  0  0  0  0  0  0  0999 V2000
  -25.7386  -28.7297  -23.7264 C   0  0  0  0  0  0  0  0  0  0  0  0
  -26.5521  -29.3247  -22.8782 N   0  0  0  0  0  0  0  0  0  0  0  0
  -26.5851  -28.6131  -21.6925 C   0  0  0  0  0  0  0  0  0  0  0  0
  -27.3964  -29.1302  -20.4586 C   0  0  0  0  0  0  0  0  0  0  0  0
  -27.3217  -28.6095  -19.1854 C   0  0  0  0  0  0  0  0  0  0  0  0
  -28.0585  -29.2684  -18.2171 N   0  0  0  0  0  0  0  0  0  0  0  0
  -28.7282  -30.2465  -18.7877 C   0  0  0  0  0  0  0  0  0  0  0  0
  -28.4793  -30.4524  -20.4711 S   0  0  0  0  0  0  0  0  0  0  0  0
  -25.8340  -27.4519  -21.6853 C   0  0  0  0  0  0  0  0  0  0  0  0
  -25.0296  -27.2617  -23.1920 S   0  0  0  0  0  0  0  0  0  0  0  0
  1  2  2  0
  2  3  1  0
  3  4  1  0
  4  5  2  0
  5  6  1  0
  6  7  2  0
  7  8  1  0
  3  9  2  0
  9 10  1  0
 10  1  1  0
  8  4  1  0
M  END
>  <fragmenstein_mode>  (399) 
expansion

>  <name>  (399) 
AQIWYYUUFDZEPS-UHFFFAOYSA-N

>  <fragmenstein_runtime>  (399) 
0.917375

>  <HIPPO Compound ID>  (399) 
8626

>  <SLURM_JOB_NAME>  (399) 
BulkDock.place:Flavi_NS5_RdRp:RdRp_knitwork_green_site_rna_tunnel_impure_split4000_batch003

>  <ref_mols>  (399) 
z0384a,z0496a

>  <Multi-SuCOS>  (399) 
0.776503

>  <tags>  (399) 
['Fragmenstein placed', 'RdRp_knitwork_green_site_rna_tunnel_impure_fragalysis.sdf Pose OK']

>  <scratch_subdir>  (399) 
/opt/xchem-fragalysis-2/maxwin/BulkDock/SCRATCH/220454/C8626-P136

>  <energy_score>  (399) 
-147.916759

>  <fragmenstein_error>  (399) 
None

>  <csv_name>  (399) 
RdRp_knitwork_green_site_rna_tunnel_impure_split4000_batch003.csv

>  <merge_set>  (399) 
RdRp_knitwork_green_site_rna_tunnel_impure_fragalysis.sdf

>  <original ID>  (399) 
AQIWYYUUFDZEPS-UHFFFAOYSA-N

>  <HIPPO Pose ID>  (399) 
212951

>  <fragmenstein_outcome>  (399) 
acceptable

>  <exports>  (399) 
['/opt/xchem-fragalysis-2/maxwin/BulkDock/OUTPUTS/RdRp_knitwork_green_site_rna_tunnel_impure_split4000_batch003_220454.sdf', '/opt/xchem-fragalysis-2/maxwin/BulkDock/OUTPUTS/RdRp_knitwork_green_site_rna_tunnel_impure_fragalysis.sdf']

>  <SLURM_JOB_ID>  (399) 
220454

>  <distance_score>  (399) 
0.923112

>  <original SMILES>  (399) 
c1nc(-c2cncs2)cs1

>  <alias>  (399) 
None

>  <ref_pdb>  (399) 
z0496a

>  <inchikey>  (399) 
AQIWYYUUFDZEPS-UHFFFAOYSA-N

$$$$
AMKPTKRUEXDZKZ-UHFFFAOYSA-N
     RDKit          3D

 10 11  0  0  0  0  0  0  0  0999 V2000
  -25.5599  -28.5672  -23.7017 C   0  0  0  0  0  0  0  0  0  0  0  0
  -26.4014  -29.1945  -22.9055 N   0  0  0  0  0  0  0  0  0  0  0  0
  -26.5378  -28.4800  -21.7299 C   0  0  0  0  0  0  0  0  0  0  0  0
  -27.3839  -29.0414  -20.6950 C   0  0  0  0  0  0  0  0  0  0  0  0
  -27.1929  -28.9356  -19.3091 C   0  0  0  0  0  0  0  0  0  0  0  0
  -28.1083  -29.6266  -18.6238 N   0  0  0  0  0  0  0  0  0  0  0  0
  -28.9438  -30.1783  -19.5916 O   0  0  0  0  0  0  0  0  0  0  0  0
  -28.5031  -29.8184  -20.8260 C   0  0  0  0  0  0  0  0  0  0  0  0
  -25.8265  -27.2979  -21.6656 C   0  0  0  0  0  0  0  0  0  0  0  0
  -24.9490  -27.0716  -23.1249 S   0  0  0  0  0  0  0  0  0  0  0  0
  1  2  2  0
  2  3  1  0
  3  4  1  0
  4  5  1  0
  5  6  2  0
  6  7  1  0
  7  8  1  0
  3  9  2  0
  9 10  1  0
 10  1  1  0
  8  4  2  0
M  END
>  <fragmenstein_mode>  (400) 
expansion

>  <name>  (400) 
AMKPTKRUEXDZKZ-UHFFFAOYSA-N

>  <fragmenstein_runtime>  (400) 
0.984102

>  <HIPPO Compound ID>  (400) 
8726

>  <SLURM_JOB_NAME>  (400) 
BulkDock.place:Flavi_NS5_RdRp:RdRp_knitwork_green_site_rna_tunnel_impure_split4000_batch003

>  <ref_mols>  (400) 
z0384a,z0496a

>  <Multi-SuCOS>  (400) 
0.809579

>  <tags>  (400) 
['Fragmenstein placed', 'RdRp_knitwork_green_site_rna_tunnel_impure_fragalysis.sdf Pose OK']

>  <scratch_subdir>  (400) 
/opt/xchem-fragalysis-2/maxwin/BulkDock/SCRATCH/220454/C8726-P136

>  <energy_score>  (400) 
-71.826101

>  <fragmenstein_error>  (400) 
None

>  <csv_name>  (400) 
RdRp_knitwork_green_site_rna_tunnel_impure_split4000_batch003.csv

>  <merge_set>  (400) 
RdRp_knitwork_green_site_rna_tunnel_impure_fragalysis.sdf

>  <original ID>  (400) 
AMKPTKRUEXDZKZ-UHFFFAOYSA-N

>  <HIPPO Pose ID>  (400) 
212969

>  <fragmenstein_outcome>  (400) 
acceptable

>  <exports>  (400) 
['/opt/xchem-fragalysis-2/maxwin/BulkDock/OUTPUTS/RdRp_knitwork_green_site_rna_tunnel_impure_split4000_batch003_220454.sdf', '/opt/xchem-fragalysis-2/maxwin/BulkDock/OUTPUTS/RdRp_knitwork_green_site_rna_tunnel_impure_fragalysis.sdf']

>  <SLURM_JOB_ID>  (400) 
220454

>  <distance_score>  (400) 
0.707596

>  <original SMILES>  (400) 
c1nc(-c2cnoc2)cs1

>  <alias>  (400) 
None

>  <ref_pdb>  (400) 
z0496a

>  <inchikey>  (400) 
AMKPTKRUEXDZKZ-UHFFFAOYSA-N

$$$$
WJLWEAAMOGNHGR-UHFFFAOYSA-N
     RDKit          3D

 10 11  0  0  0  0  0  0  0  0999 V2000
  -29.0613  -30.3232  -19.4879 C   0  0  0  0  0  0  0  0  0  0  0  0
  -28.5460  -30.1119  -20.7775 C   0  0  0  0  0  0  0  0  0  0  0  0
  -27.5695  -29.1611  -20.6034 C   0  0  0  0  0  0  0  0  0  0  0  0
  -26.6412  -28.5870  -21.7083 C   0  0  0  0  0  0  0  0  0  0  0  0
  -25.8671  -27.4592  -21.5256 C   0  0  0  0  0  0  0  0  0  0  0  0
  -24.9851  -27.1261  -22.9627 S   0  0  0  0  0  0  0  0  0  0  0  0
  -25.6483  -28.5407  -23.6740 C   0  0  0  0  0  0  0  0  0  0  0  0
  -26.5377  -29.1900  -22.9503 N   0  0  0  0  0  0  0  0  0  0  0  0
  -27.5374  -28.8051  -19.2885 O   0  0  0  0  0  0  0  0  0  0  0  0
  -28.4407  -29.5744  -18.5726 N   0  0  0  0  0  0  0  0  0  0  0  0
  1  2  1  0
  2  3  2  0
  3  4  1  0
  4  5  2  0
  5  6  1  0
  6  7  1  0
  7  8  2  0
  3  9  1  0
  9 10  1  0
 10  1  2  0
  8  4  1  0
M  END
>  <fragmenstein_mode>  (401) 
expansion

>  <name>  (401) 
WJLWEAAMOGNHGR-UHFFFAOYSA-N

>  <fragmenstein_runtime>  (401) 
2.571167

>  <HIPPO Compound ID>  (401) 
8728

>  <SLURM_JOB_NAME>  (401) 
BulkDock.place:Flavi_NS5_RdRp:RdRp_knitwork_green_site_rna_tunnel_impure_split4000_batch003

>  <ref_mols>  (401) 
z0384a,z0496a

>  <Multi-SuCOS>  (401) 
0.810924

>  <tags>  (401) 
['Fragmenstein placed', 'RdRp_knitwork_green_site_rna_tunnel_impure_fragalysis.sdf Pose OK']

>  <scratch_subdir>  (401) 
/opt/xchem-fragalysis-2/maxwin/BulkDock/SCRATCH/220454/C8728-P136

>  <energy_score>  (401) 
-71.03632

>  <fragmenstein_error>  (401) 
None

>  <csv_name>  (401) 
RdRp_knitwork_green_site_rna_tunnel_impure_split4000_batch003.csv

>  <merge_set>  (401) 
RdRp_knitwork_green_site_rna_tunnel_impure_fragalysis.sdf

>  <original ID>  (401) 
WJLWEAAMOGNHGR-UHFFFAOYSA-N

>  <HIPPO Pose ID>  (401) 
212975

>  <fragmenstein_outcome>  (401) 
acceptable

>  <exports>  (401) 
['/opt/xchem-fragalysis-2/maxwin/BulkDock/OUTPUTS/RdRp_knitwork_green_site_rna_tunnel_impure_split4000_batch003_220454.sdf', '/opt/xchem-fragalysis-2/maxwin/BulkDock/OUTPUTS/RdRp_knitwork_green_site_rna_tunnel_impure_fragalysis.sdf']

>  <SLURM_JOB_ID>  (401) 
220454

>  <distance_score>  (401) 
0.75344

>  <original SMILES>  (401) 
c1cc(-c2cscn2)on1

>  <alias>  (401) 
None

>  <ref_pdb>  (401) 
z0496a

>  <inchikey>  (401) 
WJLWEAAMOGNHGR-UHFFFAOYSA-N

$$$$
SSZCSCUONZNFOE-UHFFFAOYSA-N
     RDKit          3D

 19 21  0  0  0  0  0  0  0  0999 V2000
  -28.6826  -30.3478  -15.9215 O   0  0  0  0  0  0  0  0  0  0  0  0
  -28.0773  -30.0207  -16.9256 C   0  0  0  0  0  0  0  0  0  0  0  0
  -26.6359  -29.6119  -17.0424 C   0  0  0  0  0  0  0  0  0  0  0  0
  -26.4674  -29.1146  -18.3917 O   0  0  0  0  0  0  0  0  0  0  0  0
  -27.6393  -29.4012  -19.0482 C   0  0  0  0  0  0  0  0  0  0  0  0
  -28.6272  -29.9515  -18.2531 C   0  0  0  0  0  0  0  0  0  0  0  0
  -29.8614  -30.3399  -18.7318 C   0  0  0  0  0  0  0  0  0  0  0  0
  -30.1003  -30.1646  -20.0934 C   0  0  0  0  0  0  0  0  0  0  0  0
  -29.1118  -29.5972  -20.9187 C   0  0  0  0  0  0  0  0  0  0  0  0
  -27.8681  -29.1899  -20.3968 C   0  0  0  0  0  0  0  0  0  0  0  0
  -26.8839  -28.6010  -21.2805 C   0  0  0  0  0  0  0  0  0  0  0  0
  -26.1662  -27.4515  -21.0157 C   0  0  0  0  0  0  0  0  0  0  0  0
  -25.2213  -27.0229  -22.3864 S   0  0  0  0  0  0  0  0  0  0  0  0
  -25.8088  -28.4173  -23.2102 C   0  0  0  0  0  0  0  0  0  0  0  0
  -25.4554  -28.6696  -24.6358 C   0  0  0  0  0  0  0  0  0  0  0  0
  -24.4367  -27.9006  -25.0955 F   0  0  0  0  0  0  0  0  0  0  0  0
  -25.1414  -29.9757  -24.8298 F   0  0  0  0  0  0  0  0  0  0  0  0
  -26.5102  -28.3878  -25.4486 F   0  0  0  0  0  0  0  0  0  0  0  0
  -26.6618  -29.1553  -22.5192 N   0  0  0  0  0  0  0  0  0  0  0  0
  1  2  2  0
  2  3  1  0
  3  4  1  0
  4  5  1  0
  5  6  2  0
  6  7  1  0
  7  8  2  0
  8  9  1  0
  9 10  2  0
 10 11  1  0
 11 12  2  0
 12 13  1  0
 13 14  1  0
 14 15  1  0
 15 16  1  0
 15 17  1  0
 15 18  1  0
 14 19  2  0
  6  2  1  0
 19 11  1  0
 10  5  1  0
M  END
>  <fragmenstein_mode>  (402) 
expansion

>  <name>  (402) 
SSZCSCUONZNFOE-UHFFFAOYSA-N

>  <fragmenstein_runtime>  (402) 
1.312335

>  <HIPPO Compound ID>  (402) 
59282

>  <SLURM_JOB_NAME>  (402) 
BulkDock.place:Flavi_NS5_RdRp:RdRp_knitwork_green_site_rna_tunnel_impure_split4000_batch016

>  <ref_mols>  (402) 
z0496a,z0922a

>  <Multi-SuCOS>  (402) 
0.697353

>  <tags>  (402) 
['Fragmenstein placed', 'RdRp_knitwork_green_site_rna_tunnel_impure_fragalysis.sdf Pose OK']

>  <scratch_subdir>  (402) 
/opt/xchem-fragalysis-2/maxwin/BulkDock/SCRATCH/220467/C59282-P136

>  <energy_score>  (402) 
-82.384959

>  <fragmenstein_error>  (402) 
None

>  <csv_name>  (402) 
RdRp_knitwork_green_site_rna_tunnel_impure_split4000_batch016.csv

>  <merge_set>  (402) 
RdRp_knitwork_green_site_rna_tunnel_impure_fragalysis.sdf

>  <original ID>  (402) 
SSZCSCUONZNFOE-UHFFFAOYSA-N

>  <HIPPO Pose ID>  (402) 
213106

>  <fragmenstein_outcome>  (402) 
acceptable

>  <exports>  (402) 
['/opt/xchem-fragalysis-2/maxwin/BulkDock/OUTPUTS/RdRp_knitwork_green_site_rna_tunnel_impure_split4000_batch016_220467.sdf', '/opt/xchem-fragalysis-2/maxwin/BulkDock/OUTPUTS/RdRp_knitwork_green_site_rna_tunnel_impure_fragalysis.sdf']

>  <SLURM_JOB_ID>  (402) 
220467

>  <distance_score>  (402) 
0.80603

>  <original SMILES>  (402) 
O=C1COc2c1cccc2-c1csc(C(F)(F)F)n1

>  <alias>  (402) 
None

>  <ref_pdb>  (402) 
z0496a

>  <inchikey>  (402) 
SSZCSCUONZNFOE-UHFFFAOYSA-N

$$$$
SSZCSCUONZNFOE-UHFFFAOYSA-N
     RDKit          3D

 19 21  0  0  0  0  0  0  0  0999 V2000
  -28.4740  -30.5214  -15.8286 O   0  0  0  0  0  0  0  0  0  0  0  0
  -27.9256  -30.3116  -16.8949 C   0  0  0  0  0  0  0  0  0  0  0  0
  -26.4676  -30.0536  -17.1614 C   0  0  0  0  0  0  0  0  0  0  0  0
  -26.3858  -29.6211  -18.5413 O   0  0  0  0  0  0  0  0  0  0  0  0
  -27.6406  -29.8078  -19.0689 C   0  0  0  0  0  0  0  0  0  0  0  0
  -28.5893  -30.2454  -18.1678 C   0  0  0  0  0  0  0  0  0  0  0  0
  -29.8965  -30.5163  -18.5132 C   0  0  0  0  0  0  0  0  0  0  0  0
  -30.2573  -30.3078  -19.8427 C   0  0  0  0  0  0  0  0  0  0  0  0
  -29.3196  -29.8102  -20.7631 C   0  0  0  0  0  0  0  0  0  0  0  0
  -27.9955  -29.5645  -20.3852 C   0  0  0  0  0  0  0  0  0  0  0  0
  -27.0718  -29.0140  -21.3441 C   0  0  0  0  0  0  0  0  0  0  0  0
  -26.3647  -27.8637  -21.0865 C   0  0  0  0  0  0  0  0  0  0  0  0
  -25.4044  -27.4896  -22.4246 S   0  0  0  0  0  0  0  0  0  0  0  0
  -25.9757  -28.8693  -23.2607 C   0  0  0  0  0  0  0  0  0  0  0  0
  -25.5002  -29.0911  -24.6618 C   0  0  0  0  0  0  0  0  0  0  0  0
  -24.3228  -28.4661  -24.9220 F   0  0  0  0  0  0  0  0  0  0  0  0
  -25.3346  -30.4029  -24.9681 F   0  0  0  0  0  0  0  0  0  0  0  0
  -26.3953  -28.5715  -25.5436 F   0  0  0  0  0  0  0  0  0  0  0  0
  -26.9059  -29.5495  -22.6085 N   0  0  0  0  0  0  0  0  0  0  0  0
  1  2  2  0
  2  3  1  0
  3  4  1  0
  4  5  1  0
  5  6  2  0
  6  7  1  0
  7  8  2  0
  8  9  1  0
  9 10  2  0
 10 11  1  0
 11 12  2  0
 12 13  1  0
 13 14  1  0
 14 15  1  0
 15 16  1  0
 15 17  1  0
 15 18  1  0
 14 19  2  0
  6  2  1  0
 19 11  1  0
 10  5  1  0
M  END
>  <fragmenstein_mode>  (403) 
expansion

>  <name>  (403) 
SSZCSCUONZNFOE-UHFFFAOYSA-N

>  <fragmenstein_runtime>  (403) 
1.425058

>  <HIPPO Compound ID>  (403) 
59282

>  <SLURM_JOB_NAME>  (403) 
BulkDock.place:Flavi_NS5_RdRp:RdRp_knitwork_green_site_rna_tunnel_impure_split4000_batch016

>  <ref_mols>  (403) 
z0496a,z0922a

>  <Multi-SuCOS>  (403) 
0.64968

>  <tags>  (403) 
['Fragmenstein placed', 'RdRp_knitwork_green_site_rna_tunnel_impure_fragalysis.sdf Pose OK']

>  <scratch_subdir>  (403) 
/opt/xchem-fragalysis-2/maxwin/BulkDock/SCRATCH/220467/C59282-P191

>  <energy_score>  (403) 
-81.53175

>  <fragmenstein_error>  (403) 
None

>  <csv_name>  (403) 
RdRp_knitwork_green_site_rna_tunnel_impure_split4000_batch016.csv

>  <merge_set>  (403) 
RdRp_knitwork_green_site_rna_tunnel_impure_fragalysis.sdf

>  <original ID>  (403) 
SSZCSCUONZNFOE-UHFFFAOYSA-N

>  <HIPPO Pose ID>  (403) 
213119

>  <fragmenstein_outcome>  (403) 
acceptable

>  <exports>  (403) 
['/opt/xchem-fragalysis-2/maxwin/BulkDock/OUTPUTS/RdRp_knitwork_green_site_rna_tunnel_impure_split4000_batch016_220467.sdf', '/opt/xchem-fragalysis-2/maxwin/BulkDock/OUTPUTS/RdRp_knitwork_green_site_rna_tunnel_impure_fragalysis.sdf']

>  <SLURM_JOB_ID>  (403) 
220467

>  <distance_score>  (403) 
0.839909

>  <original SMILES>  (403) 
O=C1COc2c1cccc2-c1csc(C(F)(F)F)n1

>  <alias>  (403) 
None

>  <ref_pdb>  (403) 
z0922a

>  <inchikey>  (403) 
SSZCSCUONZNFOE-UHFFFAOYSA-N

$$$$
OSHPRRCLGZCWRO-ZETCQYMHSA-N
     RDKit          3D

 13 14  0  0  0  0  0  0  0  0999 V2000
  -23.7971  -30.2159  -16.3802 C   0  0  0  0  0  0  0  0  0  0  0  0
  -24.7685  -31.3748  -16.2279 C   0  0  0  0  0  0  0  0  0  0  0  0
  -25.9820  -31.1433  -16.9757 N   0  0  0  0  0  0  0  0  0  0  0  0
  -27.1329  -30.6300  -16.2169 C   0  0  1  0  0  0  0  0  0  0  0  0
  -26.8015  -29.4606  -15.3220 C   0  0  0  0  0  0  0  0  0  0  0  0
  -28.0915  -30.1576  -17.2660 C   0  0  0  0  0  0  0  0  0  0  0  0
  -27.6644  -29.4243  -18.2873 N   0  0  0  0  0  0  0  0  0  0  0  0
  -28.6010  -29.5240  -19.2447 C   0  0  0  0  0  0  0  0  0  0  0  0
  -29.7509  -30.1773  -18.9171 C   0  0  0  0  0  0  0  0  0  0  0  0
  -29.7222  -30.7099  -17.3379 S   0  0  0  0  0  0  0  0  0  0  0  0
  -30.6852  -30.3191  -20.0388 C   0  0  0  0  0  0  0  0  0  0  0  0
  -29.7850  -29.8417  -21.2168 C   0  0  0  0  0  0  0  0  0  0  0  0
  -28.5470  -29.1092  -20.6489 C   0  0  0  0  0  0  0  0  0  0  0  0
  1  2  1  0
  2  3  1  0
  3  4  1  0
  4  5  1  1
  4  6  1  0
  6  7  2  0
  7  8  1  0
  8  9  2  0
  9 10  1  0
  9 11  1  0
 11 12  1  0
 12 13  1  0
 10  6  1  0
 13  8  1  0
M  END
>  <fragmenstein_mode>  (404) 
expansion

>  <name>  (404) 
OSHPRRCLGZCWRO-ZETCQYMHSA-N

>  <fragmenstein_runtime>  (404) 
1.396385

>  <HIPPO Compound ID>  (404) 
37787

>  <SLURM_JOB_NAME>  (404) 
BulkDock.place:Flavi_NS5_RdRp:RdRp_knitwork_green_site_rna_tunnel_impure_split4000_batch010

>  <ref_mols>  (404) 
z0200a,z0521a

>  <Multi-SuCOS>  (404) 
0.592798

>  <tags>  (404) 
['Fragmenstein placed', 'RdRp_knitwork_green_site_rna_tunnel_impure_fragalysis.sdf Pose OK']

>  <scratch_subdir>  (404) 
/opt/xchem-fragalysis-2/maxwin/BulkDock/SCRATCH/220461/C37787-P141

>  <energy_score>  (404) 
-62.298189

>  <fragmenstein_error>  (404) 
None

>  <csv_name>  (404) 
RdRp_knitwork_green_site_rna_tunnel_impure_split4000_batch010.csv

>  <merge_set>  (404) 
RdRp_knitwork_green_site_rna_tunnel_impure_fragalysis.sdf

>  <original ID>  (404) 
OSHPRRCLGZCWRO-ZETCQYMHSA-N

>  <HIPPO Pose ID>  (404) 
213135

>  <fragmenstein_outcome>  (404) 
acceptable

>  <exports>  (404) 
['/opt/xchem-fragalysis-2/maxwin/BulkDock/OUTPUTS/RdRp_knitwork_green_site_rna_tunnel_impure_split4000_batch010_220461.sdf', '/opt/xchem-fragalysis-2/maxwin/BulkDock/OUTPUTS/RdRp_knitwork_green_site_rna_tunnel_impure_fragalysis.sdf']

>  <SLURM_JOB_ID>  (404) 
220461

>  <distance_score>  (404) 
0.930548

>  <original SMILES>  (404) 
CCN[C@@H](C)c1nc2c(s1)CCC2

>  <alias>  (404) 
None

>  <ref_pdb>  (404) 
z0521a

>  <inchikey>  (404) 
OSHPRRCLGZCWRO-ZETCQYMHSA-N

$$$$
IDDNFUJHBRBGKI-ZCFIWIBFSA-N
     RDKit          3D

 16 17  0  0  0  0  0  0  0  0999 V2000
  -21.1777  -32.8975  -23.9160 C   0  0  0  0  0  0  0  0  0  0  0  0
  -21.9657  -32.4229  -22.7088 C   0  0  1  0  0  0  0  0  0  0  0  0
  -21.2459  -31.3687  -22.0786 O   0  0  0  0  0  0  0  0  0  0  0  0
  -23.3615  -31.9668  -23.1119 C   0  0  0  0  0  0  0  0  0  0  0  0
  -24.1183  -31.4558  -22.0078 N   0  0  0  0  0  0  0  0  0  0  0  0
  -25.5800  -30.9400  -21.9443 C   0  0  0  0  0  0  0  0  0  0  0  0
  -26.3534  -30.8288  -22.7669 O   0  0  0  0  0  0  0  0  0  0  0  0
  -25.6996  -30.7049  -20.4219 N   0  0  0  0  0  0  0  0  0  0  0  0
  -26.7689  -30.3873  -19.6729 C   0  0  0  0  0  0  0  0  0  0  0  0
  -28.0237  -30.4376  -20.0658 N   0  0  0  0  0  0  0  0  0  0  0  0
  -28.7802  -30.1583  -18.9782 C   0  0  0  0  0  0  0  0  0  0  0  0
  -28.1142  -29.8170  -17.8362 C   0  0  0  0  0  0  0  0  0  0  0  0
  -26.4543  -29.9021  -18.0541 S   0  0  0  0  0  0  0  0  0  0  0  0
  -28.9826  -29.6295  -16.6637 C   0  0  0  0  0  0  0  0  0  0  0  0
  -30.3428  -30.1575  -17.2113 C   0  0  0  0  0  0  0  0  0  0  0  0
  -30.2232  -30.3202  -18.7652 C   0  0  0  0  0  0  0  0  0  0  0  0
  2  1  1  6
  2  3  1  0
  2  4  1  0
  4  5  1  0
  5  6  1  0
  6  7  2  0
  6  8  1  0
  8  9  1  0
  9 10  2  0
 10 11  1  0
 11 12  2  0
 12 13  1  0
 12 14  1  0
 14 15  1  0
 15 16  1  0
 13  9  1  0
 16 11  1  0
M  END
>  <fragmenstein_mode>  (405) 
expansion

>  <name>  (405) 
IDDNFUJHBRBGKI-ZCFIWIBFSA-N

>  <fragmenstein_runtime>  (405) 
2.041297

>  <HIPPO Compound ID>  (405) 
38363

>  <SLURM_JOB_NAME>  (405) 
BulkDock.place:Flavi_NS5_RdRp:RdRp_knitwork_green_site_rna_tunnel_impure_split4000_batch014

>  <ref_mols>  (405) 
z0211a,z0386a

>  <Multi-SuCOS>  (405) 
0.732644

>  <tags>  (405) 
['Fragmenstein placed', 'RdRp_knitwork_green_site_rna_tunnel_impure_fragalysis.sdf Pose OK']

>  <scratch_subdir>  (405) 
/opt/xchem-fragalysis-2/maxwin/BulkDock/SCRATCH/220465/C38363-P102

>  <energy_score>  (405) 
-59.801854

>  <fragmenstein_error>  (405) 
None

>  <csv_name>  (405) 
RdRp_knitwork_green_site_rna_tunnel_impure_split4000_batch014.csv

>  <merge_set>  (405) 
RdRp_knitwork_green_site_rna_tunnel_impure_fragalysis.sdf

>  <original ID>  (405) 
IDDNFUJHBRBGKI-ZCFIWIBFSA-N

>  <HIPPO Pose ID>  (405) 
213624

>  <fragmenstein_outcome>  (405) 
acceptable

>  <exports>  (405) 
['/opt/xchem-fragalysis-2/maxwin/BulkDock/OUTPUTS/RdRp_knitwork_green_site_rna_tunnel_impure_split4000_batch014_220465.sdf', '/opt/xchem-fragalysis-2/maxwin/BulkDock/OUTPUTS/RdRp_knitwork_green_site_rna_tunnel_impure_fragalysis.sdf']

>  <SLURM_JOB_ID>  (405) 
220465

>  <distance_score>  (405) 
0.939369

>  <original SMILES>  (405) 
C[C@@H](O)CNC(=O)Nc1nc2c(s1)CCC2

>  <alias>  (405) 
None

>  <ref_pdb>  (405) 
z0211a

>  <inchikey>  (405) 
IDDNFUJHBRBGKI-ZCFIWIBFSA-N

$$$$
NTMOWQLDUVBNDI-UHFFFAOYSA-N
     RDKit          3D

 16 18  0  0  0  0  0  0  0  0999 V2000
  -25.4347  -28.7181  -24.6839 C   0  0  0  0  0  0  0  0  0  0  0  0
  -25.8056  -28.4467  -23.2796 C   0  0  0  0  0  0  0  0  0  0  0  0
  -26.6619  -29.1845  -22.6069 N   0  0  0  0  0  0  0  0  0  0  0  0
  -26.8793  -28.6342  -21.3608 C   0  0  0  0  0  0  0  0  0  0  0  0
  -27.8633  -29.2164  -20.4699 C   0  0  0  0  0  0  0  0  0  0  0  0
  -29.1077  -29.6259  -20.9873 C   0  0  0  0  0  0  0  0  0  0  0  0
  -30.1003  -30.1783  -20.1563 C   0  0  0  0  0  0  0  0  0  0  0  0
  -29.8647  -30.3385  -18.7923 C   0  0  0  0  0  0  0  0  0  0  0  0
  -28.6304  -29.9477  -18.3160 C   0  0  0  0  0  0  0  0  0  0  0  0
  -27.6395  -29.4091  -19.1164 C   0  0  0  0  0  0  0  0  0  0  0  0
  -26.4713  -29.1114  -18.4573 O   0  0  0  0  0  0  0  0  0  0  0  0
  -26.6440  -29.5915  -17.1026 C   0  0  0  0  0  0  0  0  0  0  0  0
  -28.0848  -30.0014  -16.9856 C   0  0  0  0  0  0  0  0  0  0  0  0
  -28.6915  -30.3194  -15.9791 O   0  0  0  0  0  0  0  0  0  0  0  0
  -26.1608  -27.4840  -21.0946 C   0  0  0  0  0  0  0  0  0  0  0  0
  -25.2126  -27.0573  -22.4634 S   0  0  0  0  0  0  0  0  0  0  0  0
  1  2  1  0
  2  3  2  0
  3  4  1  0
  4  5  1  0
  5  6  2  0
  6  7  1  0
  7  8  2  0
  8  9  1  0
  9 10  2  0
 10 11  1  0
 11 12  1  0
 12 13  1  0
 13 14  2  0
  4 15  2  0
 15 16  1  0
 16  2  1  0
 10  5  1  0
 13  9  1  0
M  END
>  <fragmenstein_mode>  (406) 
expansion

>  <name>  (406) 
NTMOWQLDUVBNDI-UHFFFAOYSA-N

>  <fragmenstein_runtime>  (406) 
2.56266

>  <HIPPO Compound ID>  (406) 
60437

>  <SLURM_JOB_NAME>  (406) 
BulkDock.place:Flavi_NS5_RdRp:RdRp_knitwork_green_site_rna_tunnel_impure_split4000_batch016

>  <ref_mols>  (406) 
z0496a,z0922a

>  <Multi-SuCOS>  (406) 
0.754905

>  <tags>  (406) 
['Fragmenstein placed', 'RdRp_knitwork_green_site_rna_tunnel_impure_fragalysis.sdf Pose OK']

>  <scratch_subdir>  (406) 
/opt/xchem-fragalysis-2/maxwin/BulkDock/SCRATCH/220467/C60437-P136

>  <energy_score>  (406) 
-66.934399

>  <fragmenstein_error>  (406) 
None

>  <csv_name>  (406) 
RdRp_knitwork_green_site_rna_tunnel_impure_split4000_batch016.csv

>  <merge_set>  (406) 
RdRp_knitwork_green_site_rna_tunnel_impure_fragalysis.sdf

>  <original ID>  (406) 
NTMOWQLDUVBNDI-UHFFFAOYSA-N

>  <HIPPO Pose ID>  (406) 
213894

>  <fragmenstein_outcome>  (406) 
acceptable

>  <exports>  (406) 
['/opt/xchem-fragalysis-2/maxwin/BulkDock/OUTPUTS/RdRp_knitwork_green_site_rna_tunnel_impure_split4000_batch016_220467.sdf', '/opt/xchem-fragalysis-2/maxwin/BulkDock/OUTPUTS/RdRp_knitwork_green_site_rna_tunnel_impure_fragalysis.sdf']

>  <SLURM_JOB_ID>  (406) 
220467

>  <distance_score>  (406) 
0.772688

>  <original SMILES>  (406) 
Cc1nc(-c2cccc3c2OCC3=O)cs1

>  <alias>  (406) 
None

>  <ref_pdb>  (406) 
z0496a

>  <inchikey>  (406) 
NTMOWQLDUVBNDI-UHFFFAOYSA-N

$$$$
NTMOWQLDUVBNDI-UHFFFAOYSA-N
     RDKit          3D

 16 18  0  0  0  0  0  0  0  0999 V2000
  -25.5238  -29.3306  -24.6987 C   0  0  0  0  0  0  0  0  0  0  0  0
  -26.0142  -28.9599  -23.3524 C   0  0  0  0  0  0  0  0  0  0  0  0
  -26.9579  -29.5827  -22.6812 N   0  0  0  0  0  0  0  0  0  0  0  0
  -27.0801  -29.0083  -21.4276 C   0  0  0  0  0  0  0  0  0  0  0  0
  -27.9939  -29.5226  -20.4376 C   0  0  0  0  0  0  0  0  0  0  0  0
  -29.3224  -29.7775  -20.7956 C   0  0  0  0  0  0  0  0  0  0  0  0
  -30.2471  -30.2775  -19.8630 C   0  0  0  0  0  0  0  0  0  0  0  0
  -29.8698  -30.4775  -18.5375 C   0  0  0  0  0  0  0  0  0  0  0  0
  -28.5605  -30.1941  -18.2095 C   0  0  0  0  0  0  0  0  0  0  0  0
  -27.6237  -29.7537  -19.1233 C   0  0  0  0  0  0  0  0  0  0  0  0
  -26.3639  -29.5631  -18.6096 O   0  0  0  0  0  0  0  0  0  0  0  0
  -26.4294  -29.9896  -17.2273 C   0  0  0  0  0  0  0  0  0  0  0  0
  -27.8825  -30.2580  -16.9441 C   0  0  0  0  0  0  0  0  0  0  0  0
  -28.4175  -30.4748  -15.8722 O   0  0  0  0  0  0  0  0  0  0  0  0
  -26.3287  -27.8746  -21.2181 C   0  0  0  0  0  0  0  0  0  0  0  0
  -25.3795  -27.5750  -22.5893 S   0  0  0  0  0  0  0  0  0  0  0  0
  1  2  1  0
  2  3  2  0
  3  4  1  0
  4  5  1  0
  5  6  2  0
  6  7  1  0
  7  8  2  0
  8  9  1  0
  9 10  2  0
 10 11  1  0
 11 12  1  0
 12 13  1  0
 13 14  2  0
  4 15  2  0
 15 16  1  0
 16  2  1  0
 10  5  1  0
 13  9  1  0
M  END
>  <fragmenstein_mode>  (407) 
expansion

>  <name>  (407) 
NTMOWQLDUVBNDI-UHFFFAOYSA-N

>  <fragmenstein_runtime>  (407) 
1.490725

>  <HIPPO Compound ID>  (407) 
60437

>  <SLURM_JOB_NAME>  (407) 
BulkDock.place:Flavi_NS5_RdRp:RdRp_knitwork_green_site_rna_tunnel_impure_split4000_batch016

>  <ref_mols>  (407) 
z0496a,z0922a

>  <Multi-SuCOS>  (407) 
0.705355

>  <tags>  (407) 
['Fragmenstein placed', 'RdRp_knitwork_green_site_rna_tunnel_impure_fragalysis.sdf Pose OK']

>  <scratch_subdir>  (407) 
/opt/xchem-fragalysis-2/maxwin/BulkDock/SCRATCH/220467/C60437-P191

>  <energy_score>  (407) 
-66.02065

>  <fragmenstein_error>  (407) 
None

>  <csv_name>  (407) 
RdRp_knitwork_green_site_rna_tunnel_impure_split4000_batch016.csv

>  <merge_set>  (407) 
RdRp_knitwork_green_site_rna_tunnel_impure_fragalysis.sdf

>  <original ID>  (407) 
NTMOWQLDUVBNDI-UHFFFAOYSA-N

>  <HIPPO Pose ID>  (407) 
213914

>  <fragmenstein_outcome>  (407) 
acceptable

>  <exports>  (407) 
['/opt/xchem-fragalysis-2/maxwin/BulkDock/OUTPUTS/RdRp_knitwork_green_site_rna_tunnel_impure_split4000_batch016_220467.sdf', '/opt/xchem-fragalysis-2/maxwin/BulkDock/OUTPUTS/RdRp_knitwork_green_site_rna_tunnel_impure_fragalysis.sdf']

>  <SLURM_JOB_ID>  (407) 
220467

>  <distance_score>  (407) 
0.806265

>  <original SMILES>  (407) 
Cc1nc(-c2cccc3c2OCC3=O)cs1

>  <alias>  (407) 
None

>  <ref_pdb>  (407) 
z0922a

>  <inchikey>  (407) 
NTMOWQLDUVBNDI-UHFFFAOYSA-N

$$$$
KDWAJWXWMMNKHA-UHFFFAOYSA-N
     RDKit          3D

 15 17  0  0  0  0  0  0  0  0999 V2000
  -24.5244  -27.9572  -23.0529 C   0  0  0  0  0  0  0  0  0  0  0  0
  -25.0773  -28.4154  -24.2330 C   0  0  0  0  0  0  0  0  0  0  0  0
  -26.2113  -29.1366  -24.2919 N   0  0  0  0  0  0  0  0  0  0  0  0
  -26.8075  -29.4015  -23.1103 C   0  0  0  0  0  0  0  0  0  0  0  0
  -26.3497  -28.9474  -21.8777 C   0  0  0  0  0  0  0  0  0  0  0  0
  -27.0520  -29.2375  -20.6481 C   0  0  0  0  0  0  0  0  0  0  0  0
  -26.5523  -29.5215  -19.3969 C   0  0  0  0  0  0  0  0  0  0  0  0
  -27.6378  -29.7965  -18.5389 C   0  0  0  0  0  0  0  0  0  0  0  0
  -27.7412  -30.1486  -17.1867 C   0  0  0  0  0  0  0  0  0  0  0  0
  -28.9966  -30.3395  -16.6189 C   0  0  0  0  0  0  0  0  0  0  0  0
  -30.1378  -30.2219  -17.4012 C   0  0  0  0  0  0  0  0  0  0  0  0
  -30.0659  -29.9100  -18.7620 C   0  0  0  0  0  0  0  0  0  0  0  0
  -28.7991  -29.6651  -19.2905 C   0  0  0  0  0  0  0  0  0  0  0  0
  -28.4191  -29.2670  -20.5470 N   0  0  0  0  0  0  0  0  0  0  0  0
  -25.1702  -28.2158  -21.8580 C   0  0  0  0  0  0  0  0  0  0  0  0
  1  2  2  0
  2  3  1  0
  3  4  2  0
  4  5  1  0
  5  6  1  0
  6  7  2  0
  7  8  1  0
  8  9  2  0
  9 10  1  0
 10 11  2  0
 11 12  1  0
 12 13  2  0
 13 14  1  0
  5 15  2  0
 15  1  1  0
 14  6  1  0
 13  8  1  0
M  END
>  <fragmenstein_mode>  (408) 
expansion

>  <name>  (408) 
KDWAJWXWMMNKHA-UHFFFAOYSA-N

>  <fragmenstein_runtime>  (408) 
22.735469

>  <HIPPO Compound ID>  (408) 
27506

>  <SLURM_JOB_NAME>  (408) 
BulkDock.place:Flavi_NS5_RdRp:RdRp_knitwork_green_site_rna_tunnel_impure_split4000_batch015

>  <ref_mols>  (408) 
z0041a,z0386a

>  <Multi-SuCOS>  (408) 
0.755101

>  <tags>  (408) 
['Fragmenstein placed', 'RdRp_knitwork_green_site_rna_tunnel_impure_fragalysis.sdf Pose OK']

>  <scratch_subdir>  (408) 
/opt/xchem-fragalysis-2/maxwin/BulkDock/SCRATCH/220466/C27506-P121

>  <energy_score>  (408) 
-12.677653

>  <fragmenstein_error>  (408) 
None

>  <csv_name>  (408) 
RdRp_knitwork_green_site_rna_tunnel_impure_split4000_batch015.csv

>  <merge_set>  (408) 
RdRp_knitwork_green_site_rna_tunnel_impure_fragalysis.sdf

>  <original ID>  (408) 
KDWAJWXWMMNKHA-UHFFFAOYSA-N

>  <HIPPO Pose ID>  (408) 
214028

>  <fragmenstein_outcome>  (408) 
acceptable

>  <exports>  (408) 
['/opt/xchem-fragalysis-2/maxwin/BulkDock/OUTPUTS/RdRp_knitwork_green_site_rna_tunnel_impure_split4000_batch015_220466.sdf', '/opt/xchem-fragalysis-2/maxwin/BulkDock/OUTPUTS/RdRp_knitwork_green_site_rna_tunnel_impure_fragalysis.sdf']

>  <SLURM_JOB_ID>  (408) 
220466

>  <distance_score>  (408) 
0.921619

>  <original SMILES>  (408) 
c1cncc(-c2cc3ccccc3[nH]2)c1

>  <alias>  (408) 
None

>  <ref_pdb>  (408) 
z0386a

>  <inchikey>  (408) 
KDWAJWXWMMNKHA-UHFFFAOYSA-N

$$$$
TUXUXBUGFPLVLM-UHFFFAOYSA-N
     RDKit          3D

 15 17  0  0  0  0  0  0  0  0999 V2000
  -29.4818  -29.9244  -18.7673 C   0  0  0  0  0  0  0  0  0  0  0  0
  -28.8474  -29.6228  -19.9715 C   0  0  0  0  0  0  0  0  0  0  0  0
  -27.4426  -29.5608  -20.0712 C   0  0  0  0  0  0  0  0  0  0  0  0
  -26.7816  -29.1802  -21.3326 C   0  0  0  0  0  0  0  0  0  0  0  0
  -25.9899  -28.0304  -21.4257 C   0  0  0  0  0  0  0  0  0  0  0  0
  -25.4530  -27.6797  -22.6559 C   0  0  0  0  0  0  0  0  0  0  0  0
  -25.6460  -28.3828  -23.7906 N   0  0  0  0  0  0  0  0  0  0  0  0
  -26.3917  -29.4983  -23.6911 C   0  0  0  0  0  0  0  0  0  0  0  0
  -26.9720  -29.9254  -22.5030 C   0  0  0  0  0  0  0  0  0  0  0  0
  -26.6882  -29.8467  -18.9015 C   0  0  0  0  0  0  0  0  0  0  0  0
  -25.2972  -29.9006  -18.5901 C   0  0  0  0  0  0  0  0  0  0  0  0
  -25.1554  -30.2361  -17.2648 C   0  0  0  0  0  0  0  0  0  0  0  0
  -26.4085  -30.3726  -16.7410 N   0  0  0  0  0  0  0  0  0  0  0  0
  -27.3596  -30.1480  -17.7112 C   0  0  0  0  0  0  0  0  0  0  0  0
  -28.7520  -30.1838  -17.6100 C   0  0  0  0  0  0  0  0  0  0  0  0
  1  2  2  0
  2  3  1  0
  3  4  1  0
  4  5  2  0
  5  6  1  0
  6  7  2  0
  7  8  1  0
  8  9  2  0
  3 10  2  0
 10 11  1  0
 11 12  2  0
 12 13  1  0
 13 14  1  0
 14 15  2  0
 15  1  1  0
  9  4  1  0
 14 10  1  0
M  END
>  <fragmenstein_mode>  (409) 
expansion

>  <name>  (409) 
TUXUXBUGFPLVLM-UHFFFAOYSA-N

>  <fragmenstein_runtime>  (409) 
2.079135

>  <HIPPO Compound ID>  (409) 
28593

>  <SLURM_JOB_NAME>  (409) 
BulkDock.place:Flavi_NS5_RdRp:RdRp_knitwork_green_site_rna_tunnel_impure_split4000_batch011

>  <ref_mols>  (409) 
z0041a,z0221a

>  <Multi-SuCOS>  (409) 
0.751853

>  <tags>  (409) 
['Fragmenstein placed', 'RdRp_knitwork_green_site_rna_tunnel_impure_fragalysis.sdf Pose OK']

>  <scratch_subdir>  (409) 
/opt/xchem-fragalysis-2/maxwin/BulkDock/SCRATCH/220462/C28593-P105

>  <energy_score>  (409) 
-20.170641

>  <fragmenstein_error>  (409) 
None

>  <csv_name>  (409) 
RdRp_knitwork_green_site_rna_tunnel_impure_split4000_batch011.csv

>  <merge_set>  (409) 
RdRp_knitwork_green_site_rna_tunnel_impure_fragalysis.sdf

>  <original ID>  (409) 
TUXUXBUGFPLVLM-UHFFFAOYSA-N

>  <HIPPO Pose ID>  (409) 
214030

>  <fragmenstein_outcome>  (409) 
acceptable

>  <exports>  (409) 
['/opt/xchem-fragalysis-2/maxwin/BulkDock/OUTPUTS/RdRp_knitwork_green_site_rna_tunnel_impure_split4000_batch011_220462.sdf', '/opt/xchem-fragalysis-2/maxwin/BulkDock/OUTPUTS/RdRp_knitwork_green_site_rna_tunnel_impure_fragalysis.sdf']

>  <SLURM_JOB_ID>  (409) 
220462

>  <distance_score>  (409) 
0.942527

>  <original SMILES>  (409) 
c1cc(-c2ccncc2)c2cc[nH]c2c1

>  <alias>  (409) 
None

>  <ref_pdb>  (409) 
z0221a

>  <inchikey>  (409) 
TUXUXBUGFPLVLM-UHFFFAOYSA-N

$$$$
WCZAUWWBUNSOLO-QMTHXVAHSA-N
     RDKit          3D

 22 24  0  0  0  0  0  0  0  0999 V2000
  -24.7430  -33.0594  -25.4334 O   0  0  0  0  0  0  0  0  0  0  0  0
  -23.7756  -33.1065  -24.6959 C   0  0  0  0  0  0  0  0  0  0  0  0
  -22.3829  -33.5461  -25.0492 C   0  0  0  0  0  0  0  0  0  0  0  0
  -21.7015  -33.6463  -23.6873 C   0  0  0  0  0  0  0  0  0  0  0  0
  -22.4802  -32.7017  -22.7875 C   0  0  2  0  0  0  0  0  0  0  0  0
  -22.5468  -33.1669  -21.3361 C   0  0  0  0  0  0  0  0  0  0  0  0
  -22.8447  -32.0341  -20.3605 C   0  0  0  0  0  0  0  0  0  0  0  0
  -23.8767  -31.1231  -20.7813 N   0  0  0  0  0  0  0  0  0  0  0  0
  -25.4182  -31.3186  -20.8809 C   0  0  0  0  0  0  0  0  0  0  0  0
  -26.0719  -32.2705  -20.7105 O   0  0  0  0  0  0  0  0  0  0  0  0
  -25.9978  -29.9051  -21.1679 C   0  0  1  0  0  0  0  0  0  0  0  0
  -27.4062  -29.8346  -21.7251 C   0  0  0  0  0  0  0  0  0  0  0  0
  -28.4459  -30.0884  -20.6691 C   0  0  0  0  0  0  0  0  0  0  0  0
  -29.6237  -30.3039  -20.9332 O   0  0  0  0  0  0  0  0  0  0  0  0
  -28.0152  -30.0153  -19.2691 C   0  0  0  0  0  0  0  0  0  0  0  0
  -28.8701  -30.4001  -18.2347 C   0  0  0  0  0  0  0  0  0  0  0  0
  -28.4088  -30.3760  -16.9203 C   0  0  0  0  0  0  0  0  0  0  0  0
  -27.1040  -29.9672  -16.6486 C   0  0  0  0  0  0  0  0  0  0  0  0
  -26.2729  -29.5418  -17.6842 C   0  0  0  0  0  0  0  0  0  0  0  0
  -26.7292  -29.5667  -18.9951 C   0  0  0  0  0  0  0  0  0  0  0  0
  -25.8720  -29.1361  -19.9699 O   0  0  0  0  0  0  0  0  0  0  0  0
  -23.7822  -32.7189  -23.3864 N   0  0  0  0  0  0  0  0  0  0  0  0
  1  2  2  0
  2  3  1  0
  3  4  1  0
  4  5  1  0
  5  6  1  1
  6  7  1  0
  7  8  1  0
  8  9  1  0
  9 10  2  0
 11  9  1  1
 11 12  1  0
 12 13  1  0
 13 14  2  0
 13 15  1  0
 15 16  2  0
 16 17  1  0
 17 18  2  0
 18 19  1  0
 19 20  2  0
 20 21  1  0
  5 22  1  0
 22  2  1  0
 21 11  1  0
 20 15  1  0
M  END
>  <fragmenstein_mode>  (410) 
expansion

>  <name>  (410) 
WCZAUWWBUNSOLO-QMTHXVAHSA-N

>  <fragmenstein_runtime>  (410) 
3.172043

>  <HIPPO Compound ID>  (410) 
60673

>  <SLURM_JOB_NAME>  (410) 
BulkDock.place:Flavi_NS5_RdRp:RdRp_knitwork_green_site_rna_tunnel_impure_split4000_batch016

>  <ref_mols>  (410) 
z0922a,z1018a

>  <Multi-SuCOS>  (410) 
0.62952

>  <tags>  (410) 
['Fragmenstein placed', 'RdRp_knitwork_green_site_rna_tunnel_impure_fragalysis.sdf Pose OK']

>  <scratch_subdir>  (410) 
/opt/xchem-fragalysis-2/maxwin/BulkDock/SCRATCH/220467/C60673-P191

>  <energy_score>  (410) 
-36.199717

>  <fragmenstein_error>  (410) 
None

>  <csv_name>  (410) 
RdRp_knitwork_green_site_rna_tunnel_impure_split4000_batch016.csv

>  <merge_set>  (410) 
RdRp_knitwork_green_site_rna_tunnel_impure_fragalysis.sdf

>  <original ID>  (410) 
WCZAUWWBUNSOLO-QMTHXVAHSA-N

>  <HIPPO Pose ID>  (410) 
214042

>  <fragmenstein_outcome>  (410) 
acceptable

>  <exports>  (410) 
['/opt/xchem-fragalysis-2/maxwin/BulkDock/OUTPUTS/RdRp_knitwork_green_site_rna_tunnel_impure_split4000_batch016_220467.sdf', '/opt/xchem-fragalysis-2/maxwin/BulkDock/OUTPUTS/RdRp_knitwork_green_site_rna_tunnel_impure_fragalysis.sdf']

>  <SLURM_JOB_ID>  (410) 
220467

>  <distance_score>  (410) 
0.942627

>  <original SMILES>  (410) 
O=C1CC[C@H](CCNC(=O)[C@H]2CC(=O)c3ccccc3O2)N1

>  <alias>  (410) 
None

>  <ref_pdb>  (410) 
z0922a

>  <inchikey>  (410) 
WCZAUWWBUNSOLO-QMTHXVAHSA-N

$$$$
RRGMDCABRBYPJF-UHFFFAOYSA-N
     RDKit          3D

 23 25  0  0  0  0  0  0  0  0999 V2000
  -24.6210  -34.2426  -21.4852 O   0  0  0  0  0  0  0  0  0  0  0  0
  -24.6844  -33.0156  -21.4690 C   0  0  0  0  0  0  0  0  0  0  0  0
  -23.5100  -32.1156  -21.8855 C   0  0  0  0  0  0  0  0  0  0  0  0
  -22.7781  -32.6945  -22.9927 N   0  0  0  0  0  0  0  0  0  0  0  0
  -21.3526  -32.8801  -22.9688 C   0  0  0  0  0  0  0  0  0  0  0  0
  -20.9762  -33.0261  -24.4329 C   0  0  0  0  0  0  0  0  0  0  0  0
  -22.2621  -33.4537  -25.1306 C   0  0  0  0  0  0  0  0  0  0  0  0
  -23.3282  -32.8659  -24.2464 C   0  0  0  0  0  0  0  0  0  0  0  0
  -24.4805  -32.6160  -24.5649 O   0  0  0  0  0  0  0  0  0  0  0  0
  -25.8042  -32.3972  -20.9961 O   0  0  0  0  0  0  0  0  0  0  0  0
  -26.0624  -31.0217  -21.3038 C   0  0  0  0  0  0  0  0  0  0  0  0
  -27.4978  -30.6316  -20.9591 C   0  0  0  0  0  0  0  0  0  0  0  0
  -27.9998  -30.3821  -19.6099 N   0  0  0  0  0  0  0  0  0  0  0  0
  -29.3872  -30.1723  -19.5609 C   0  0  0  0  0  0  0  0  0  0  0  0
  -30.1055  -30.1662  -20.5613 O   0  0  0  0  0  0  0  0  0  0  0  0
  -29.9831  -30.0600  -18.1726 C   0  0  0  0  0  0  0  0  0  0  0  0
  -29.2106  -29.4148  -17.1885 O   0  0  0  0  0  0  0  0  0  0  0  0
  -27.8986  -29.7949  -17.2420 C   0  0  0  0  0  0  0  0  0  0  0  0
  -27.2272  -29.6592  -16.0266 C   0  0  0  0  0  0  0  0  0  0  0  0
  -25.8759  -29.9375  -15.9477 C   0  0  0  0  0  0  0  0  0  0  0  0
  -25.2173  -30.4039  -17.0730 C   0  0  0  0  0  0  0  0  0  0  0  0
  -25.9070  -30.5942  -18.2721 C   0  0  0  0  0  0  0  0  0  0  0  0
  -27.2537  -30.2632  -18.4023 C   0  0  0  0  0  0  0  0  0  0  0  0
  1  2  2  0
  2  3  1  0
  3  4  1  0
  4  5  1  0
  5  6  1  0
  6  7  1  0
  7  8  1  0
  8  9  2  0
  2 10  1  0
 10 11  1  0
 11 12  1  0
 12 13  1  0
 13 14  1  0
 14 15  2  0
 14 16  1  0
 16 17  1  0
 17 18  1  0
 18 19  2  0
 19 20  1  0
 20 21  2  0
 21 22  1  0
 22 23  2  0
  8  4  1  0
 23 13  1  0
 23 18  1  0
M  END
>  <fragmenstein_mode>  (411) 
expansion

>  <name>  (411) 
RRGMDCABRBYPJF-UHFFFAOYSA-N

>  <fragmenstein_runtime>  (411) 
6.224421

>  <HIPPO Compound ID>  (411) 
60680

>  <SLURM_JOB_NAME>  (411) 
BulkDock.place:Flavi_NS5_RdRp:RdRp_knitwork_green_site_rna_tunnel_impure_split4000_batch016

>  <ref_mols>  (411) 
z0922a,z1018a

>  <Multi-SuCOS>  (411) 
0.570954

>  <tags>  (411) 
['Fragmenstein placed', 'RdRp_knitwork_green_site_rna_tunnel_impure_fragalysis.sdf Pose OK']

>  <scratch_subdir>  (411) 
/opt/xchem-fragalysis-2/maxwin/BulkDock/SCRATCH/220467/C60680-P206

>  <energy_score>  (411) 
-18.884718

>  <fragmenstein_error>  (411) 
None

>  <csv_name>  (411) 
RdRp_knitwork_green_site_rna_tunnel_impure_split4000_batch016.csv

>  <merge_set>  (411) 
RdRp_knitwork_green_site_rna_tunnel_impure_fragalysis.sdf

>  <original ID>  (411) 
RRGMDCABRBYPJF-UHFFFAOYSA-N

>  <HIPPO Pose ID>  (411) 
214080

>  <fragmenstein_outcome>  (411) 
acceptable

>  <exports>  (411) 
['/opt/xchem-fragalysis-2/maxwin/BulkDock/OUTPUTS/RdRp_knitwork_green_site_rna_tunnel_impure_split4000_batch016_220467.sdf', '/opt/xchem-fragalysis-2/maxwin/BulkDock/OUTPUTS/RdRp_knitwork_green_site_rna_tunnel_impure_fragalysis.sdf']

>  <SLURM_JOB_ID>  (411) 
220467

>  <distance_score>  (411) 
0.982022

>  <original SMILES>  (411) 
O=C(CN1CCCC1=O)OCCN1C(=O)COc2ccccc21

>  <alias>  (411) 
None

>  <ref_pdb>  (411) 
z1018a

>  <inchikey>  (411) 
RRGMDCABRBYPJF-UHFFFAOYSA-N

$$$$
OLGGLCIDAMICTA-UHFFFAOYSA-N
     RDKit          3D

 15 17  0  0  0  0  0  0  0  0999 V2000
  -25.0109  -28.3697  -24.2292 C   0  0  0  0  0  0  0  0  0  0  0  0
  -26.1280  -29.1829  -24.3269 C   0  0  0  0  0  0  0  0  0  0  0  0
  -26.8326  -29.4812  -23.1696 C   0  0  0  0  0  0  0  0  0  0  0  0
  -26.3883  -28.9559  -21.9649 C   0  0  0  0  0  0  0  0  0  0  0  0
  -27.0672  -29.2196  -20.7196 C   0  0  0  0  0  0  0  0  0  0  0  0
  -26.5465  -29.4642  -19.4680 C   0  0  0  0  0  0  0  0  0  0  0  0
  -27.6179  -29.7590  -18.5962 C   0  0  0  0  0  0  0  0  0  0  0  0
  -27.7031  -30.1011  -17.2398 C   0  0  0  0  0  0  0  0  0  0  0  0
  -28.9500  -30.3155  -16.6591 C   0  0  0  0  0  0  0  0  0  0  0  0
  -30.1019  -30.2259  -17.4302 C   0  0  0  0  0  0  0  0  0  0  0  0
  -30.0485  -29.9196  -18.7930 C   0  0  0  0  0  0  0  0  0  0  0  0
  -28.7906  -29.6582  -19.3362 C   0  0  0  0  0  0  0  0  0  0  0  0
  -28.4311  -29.2599  -20.5984 N   0  0  0  0  0  0  0  0  0  0  0  0
  -25.3017  -28.1762  -21.8469 N   0  0  0  0  0  0  0  0  0  0  0  0
  -24.6324  -27.9122  -22.9806 C   0  0  0  0  0  0  0  0  0  0  0  0
  1  2  2  0
  2  3  1  0
  3  4  2  0
  4  5  1  0
  5  6  2  0
  6  7  1  0
  7  8  2  0
  8  9  1  0
  9 10  2  0
 10 11  1  0
 11 12  2  0
 12 13  1  0
  4 14  1  0
 14 15  2  0
 15  1  1  0
 13  5  1  0
 12  7  1  0
M  END
>  <fragmenstein_mode>  (412) 
expansion

>  <name>  (412) 
OLGGLCIDAMICTA-UHFFFAOYSA-N

>  <fragmenstein_runtime>  (412) 
16.93191

>  <HIPPO Compound ID>  (412) 
28835

>  <SLURM_JOB_NAME>  (412) 
BulkDock.place:Flavi_NS5_RdRp:RdRp_knitwork_green_site_rna_tunnel_impure_split4000_batch015

>  <ref_mols>  (412) 
z0041a,z0386a

>  <Multi-SuCOS>  (412) 
0.69868

>  <tags>  (412) 
['Fragmenstein placed', 'RdRp_knitwork_green_site_rna_tunnel_impure_fragalysis.sdf Pose OK']

>  <scratch_subdir>  (412) 
/opt/xchem-fragalysis-2/maxwin/BulkDock/SCRATCH/220466/C28835-P121

>  <energy_score>  (412) 
-7.174528

>  <fragmenstein_error>  (412) 
None

>  <csv_name>  (412) 
RdRp_knitwork_green_site_rna_tunnel_impure_split4000_batch015.csv

>  <merge_set>  (412) 
RdRp_knitwork_green_site_rna_tunnel_impure_fragalysis.sdf

>  <original ID>  (412) 
OLGGLCIDAMICTA-UHFFFAOYSA-N

>  <HIPPO Pose ID>  (412) 
214141

>  <fragmenstein_outcome>  (412) 
acceptable

>  <exports>  (412) 
['/opt/xchem-fragalysis-2/maxwin/BulkDock/OUTPUTS/RdRp_knitwork_green_site_rna_tunnel_impure_split4000_batch015_220466.sdf', '/opt/xchem-fragalysis-2/maxwin/BulkDock/OUTPUTS/RdRp_knitwork_green_site_rna_tunnel_impure_fragalysis.sdf']

>  <SLURM_JOB_ID>  (412) 
220466

>  <distance_score>  (412) 
0.973038

>  <original SMILES>  (412) 
c1ccc(-c2cc3ccccc3[nH]2)nc1

>  <alias>  (412) 
None

>  <ref_pdb>  (412) 
z0386a

>  <inchikey>  (412) 
OLGGLCIDAMICTA-UHFFFAOYSA-N

$$$$
WNOQDDCSSLWEEK-UHFFFAOYSA-N
     RDKit          3D

 20 23  0  0  0  0  0  0  0  0999 V2000
  -28.0358  -29.0583  -20.3860 C   0  0  0  0  0  0  0  0  0  0  0  0
  -26.7761  -29.2263  -20.8733 N   0  0  0  0  0  0  0  0  0  0  0  0
  -26.3466  -30.2646  -20.1950 C   0  0  0  0  0  0  0  0  0  0  0  0
  -25.1553  -31.0289  -20.2715 C   0  0  0  0  0  0  0  0  0  0  0  0
  -24.9743  -32.0551  -19.4184 C   0  0  0  0  0  0  0  0  0  0  0  0
  -25.9353  -32.3746  -18.3634 C   0  0  0  0  0  0  0  0  0  0  0  0
  -25.6596  -33.2978  -17.3853 N   0  0  0  0  0  0  0  0  0  0  0  0
  -24.4380  -34.0099  -17.0929 C   0  0  0  0  0  0  0  0  0  0  0  0
  -23.2084  -33.1782  -16.8509 C   0  0  0  0  0  0  0  0  0  0  0  0
  -22.0843  -33.3427  -17.6789 C   0  0  0  0  0  0  0  0  0  0  0  0
  -20.8852  -32.6758  -17.4231 C   0  0  0  0  0  0  0  0  0  0  0  0
  -20.8606  -31.8634  -16.2948 C   0  0  0  0  0  0  0  0  0  0  0  0
  -19.7829  -31.1541  -15.8658 O   0  0  0  0  0  0  0  0  0  0  0  0
  -20.1648  -30.4981  -14.7400 C   0  0  0  0  0  0  0  0  0  0  0  0
  -21.4750  -30.7859  -14.4312 C   0  0  0  0  0  0  0  0  0  0  0  0
  -21.9395  -31.6694  -15.4408 C   0  0  0  0  0  0  0  0  0  0  0  0
  -23.1447  -32.3323  -15.7247 C   0  0  0  0  0  0  0  0  0  0  0  0
  -27.0964  -31.6962  -18.3693 C   0  0  0  0  0  0  0  0  0  0  0  0
  -27.3092  -30.6665  -19.2712 N   0  0  0  0  0  0  0  0  0  0  0  0
  -28.4063  -29.8874  -19.4129 N   0  0  0  0  0  0  0  0  0  0  0  0
  1  2  1  0
  2  3  2  0
  3  4  1  0
  4  5  2  0
  5  6  1  0
  6  7  1  0
  7  8  1  0
  8  9  1  0
  9 10  2  0
 10 11  1  0
 11 12  2  0
 12 13  1  0
 13 14  1  0
 14 15  2  0
 15 16  1  0
 16 17  2  0
  6 18  2  0
 18 19  1  0
 19 20  1  0
 20  1  2  0
 19  3  1  0
 17  9  1  0
 16 12  1  0
M  END
>  <fragmenstein_mode>  (413) 
expansion

>  <name>  (413) 
WNOQDDCSSLWEEK-UHFFFAOYSA-N

>  <fragmenstein_runtime>  (413) 
2.483314

>  <HIPPO Compound ID>  (413) 
60663

>  <SLURM_JOB_NAME>  (413) 
BulkDock.place:Flavi_NS5_RdRp:RdRp_knitwork_green_site_rna_tunnel_impure_split4000_batch006

>  <ref_mols>  (413) 
z0521a,3vws-a

>  <Multi-SuCOS>  (413) 
0.759464

>  <tags>  (413) 
['Fragmenstein placed', 'RdRp_knitwork_green_site_rna_tunnel_impure_fragalysis.sdf Pose OK']

>  <scratch_subdir>  (413) 
/opt/xchem-fragalysis-2/maxwin/BulkDock/SCRATCH/220457/C60663-P218

>  <energy_score>  (413) 
-39.392499

>  <fragmenstein_error>  (413) 
None

>  <csv_name>  (413) 
RdRp_knitwork_green_site_rna_tunnel_impure_split4000_batch006.csv

>  <merge_set>  (413) 
RdRp_knitwork_green_site_rna_tunnel_impure_fragalysis.sdf

>  <original ID>  (413) 
WNOQDDCSSLWEEK-UHFFFAOYSA-N

>  <HIPPO Pose ID>  (413) 
214592

>  <fragmenstein_outcome>  (413) 
acceptable

>  <exports>  (413) 
['/opt/xchem-fragalysis-2/maxwin/BulkDock/OUTPUTS/RdRp_knitwork_green_site_rna_tunnel_impure_split4000_batch006_220457.sdf', '/opt/xchem-fragalysis-2/maxwin/BulkDock/OUTPUTS/RdRp_knitwork_green_site_rna_tunnel_impure_fragalysis.sdf']

>  <SLURM_JOB_ID>  (413) 
220457

>  <distance_score>  (413) 
0.97416

>  <original SMILES>  (413) 
c1nc2ccc(NCc3ccc4occc4c3)cn2n1

>  <alias>  (413) 
None

>  <ref_pdb>  (413) 
3vws-a

>  <inchikey>  (413) 
WNOQDDCSSLWEEK-UHFFFAOYSA-N

$$$$
FEMRJHRHQBPLPI-UHFFFAOYSA-N
     RDKit          3D

 10 11  0  0  0  0  0  0  0  0999 V2000
  -26.4715  -30.0021  -16.1287 C   0  0  0  0  0  0  0  0  0  0  0  0
  -27.8387  -29.7373  -15.9775 C   0  0  0  0  0  0  0  0  0  0  0  0
  -28.4712  -29.6295  -17.1448 N   0  0  0  0  0  0  0  0  0  0  0  0
  -27.5171  -29.8908  -18.0822 N   0  0  0  0  0  0  0  0  0  0  0  0
  -27.9035  -29.9289  -19.4284 C   0  0  0  0  0  0  0  0  0  0  0  0
  -29.1209  -29.6700  -19.8578 N   0  0  0  0  0  0  0  0  0  0  0  0
  -29.1425  -29.7664  -21.2312 C   0  0  0  0  0  0  0  0  0  0  0  0
  -27.9483  -30.1219  -21.8214 C   0  0  0  0  0  0  0  0  0  0  0  0
  -26.7585  -30.3695  -20.6216 S   0  0  0  0  0  0  0  0  0  0  0  0
  -26.2850  -30.0827  -17.4873 C   0  0  0  0  0  0  0  0  0  0  0  0
  1  2  1  0
  2  3  2  0
  3  4  1  0
  4  5  1  0
  5  6  2  0
  6  7  1  0
  7  8  2  0
  8  9  1  0
  4 10  1  0
 10  1  2  0
  9  5  1  0
M  END
>  <fragmenstein_mode>  (414) 
expansion

>  <name>  (414) 
FEMRJHRHQBPLPI-UHFFFAOYSA-N

>  <fragmenstein_runtime>  (414) 
2.254507

>  <HIPPO Compound ID>  (414) 
8582

>  <SLURM_JOB_NAME>  (414) 
BulkDock.place:Flavi_NS5_RdRp:RdRp_knitwork_green_site_rna_tunnel_impure_split4000_batch016

>  <ref_mols>  (414) 
z0215a,z0637a

>  <Multi-SuCOS>  (414) 
0.789929

>  <tags>  (414) 
['Fragmenstein placed', 'RdRp_knitwork_green_site_rna_tunnel_impure_fragalysis.sdf Pose OK']

>  <scratch_subdir>  (414) 
/opt/xchem-fragalysis-2/maxwin/BulkDock/SCRATCH/220467/C8582-P104

>  <energy_score>  (414) 
-62.324596

>  <fragmenstein_error>  (414) 
None

>  <csv_name>  (414) 
RdRp_knitwork_green_site_rna_tunnel_impure_split4000_batch016.csv

>  <merge_set>  (414) 
RdRp_knitwork_green_site_rna_tunnel_impure_fragalysis.sdf

>  <original ID>  (414) 
FEMRJHRHQBPLPI-UHFFFAOYSA-N

>  <HIPPO Pose ID>  (414) 
215897

>  <fragmenstein_outcome>  (414) 
acceptable

>  <exports>  (414) 
['/opt/xchem-fragalysis-2/maxwin/BulkDock/OUTPUTS/RdRp_knitwork_green_site_rna_tunnel_impure_split4000_batch016_220467.sdf', '/opt/xchem-fragalysis-2/maxwin/BulkDock/OUTPUTS/RdRp_knitwork_green_site_rna_tunnel_impure_fragalysis.sdf']

>  <SLURM_JOB_ID>  (414) 
220467

>  <distance_score>  (414) 
0.942236

>  <original SMILES>  (414) 
c1cnn(-c2nccs2)c1

>  <alias>  (414) 
None

>  <ref_pdb>  (414) 
z0215a

>  <inchikey>  (414) 
FEMRJHRHQBPLPI-UHFFFAOYSA-N

$$$$
FEMRJHRHQBPLPI-UHFFFAOYSA-N
     RDKit          3D

 10 11  0  0  0  0  0  0  0  0999 V2000
  -26.4135  -30.1539  -15.9436 C   0  0  0  0  0  0  0  0  0  0  0  0
  -27.7769  -29.8297  -15.8599 C   0  0  0  0  0  0  0  0  0  0  0  0
  -28.3249  -29.6054  -17.0520 N   0  0  0  0  0  0  0  0  0  0  0  0
  -27.3217  -29.8430  -17.9400 N   0  0  0  0  0  0  0  0  0  0  0  0
  -27.6100  -29.7541  -19.3013 C   0  0  0  0  0  0  0  0  0  0  0  0
  -28.7769  -29.3955  -19.7939 N   0  0  0  0  0  0  0  0  0  0  0  0
  -28.6614  -29.2938  -21.1604 C   0  0  0  0  0  0  0  0  0  0  0  0
  -27.4246  -29.6187  -21.6788 C   0  0  0  0  0  0  0  0  0  0  0  0
  -26.3785  -30.1153  -20.4248 S   0  0  0  0  0  0  0  0  0  0  0  0
  -26.1379  -30.1346  -17.2890 C   0  0  0  0  0  0  0  0  0  0  0  0
  1  2  1  0
  2  3  2  0
  3  4  1  0
  4  5  1  0
  5  6  2  0
  6  7  1  0
  7  8  2  0
  8  9  1  0
  4 10  1  0
 10  1  2  0
  9  5  1  0
M  END
>  <fragmenstein_mode>  (415) 
expansion

>  <name>  (415) 
FEMRJHRHQBPLPI-UHFFFAOYSA-N

>  <fragmenstein_runtime>  (415) 
1.420227

>  <HIPPO Compound ID>  (415) 
8582

>  <SLURM_JOB_NAME>  (415) 
BulkDock.place:Flavi_NS5_RdRp:RdRp_knitwork_green_site_rna_tunnel_impure_split4000_batch016

>  <ref_mols>  (415) 
z0215a,z0637a

>  <Multi-SuCOS>  (415) 
0.664315

>  <tags>  (415) 
['Fragmenstein placed', 'RdRp_knitwork_green_site_rna_tunnel_impure_fragalysis.sdf Pose OK']

>  <scratch_subdir>  (415) 
/opt/xchem-fragalysis-2/maxwin/BulkDock/SCRATCH/220467/C8582-P151

>  <energy_score>  (415) 
-61.954129

>  <fragmenstein_error>  (415) 
None

>  <csv_name>  (415) 
RdRp_knitwork_green_site_rna_tunnel_impure_split4000_batch016.csv

>  <merge_set>  (415) 
RdRp_knitwork_green_site_rna_tunnel_impure_fragalysis.sdf

>  <original ID>  (415) 
FEMRJHRHQBPLPI-UHFFFAOYSA-N

>  <HIPPO Pose ID>  (415) 
215906

>  <fragmenstein_outcome>  (415) 
acceptable

>  <exports>  (415) 
['/opt/xchem-fragalysis-2/maxwin/BulkDock/OUTPUTS/RdRp_knitwork_green_site_rna_tunnel_impure_split4000_batch016_220467.sdf', '/opt/xchem-fragalysis-2/maxwin/BulkDock/OUTPUTS/RdRp_knitwork_green_site_rna_tunnel_impure_fragalysis.sdf']

>  <SLURM_JOB_ID>  (415) 
220467

>  <distance_score>  (415) 
0.990957

>  <original SMILES>  (415) 
c1cnn(-c2nccs2)c1

>  <alias>  (415) 
None

>  <ref_pdb>  (415) 
z0637a

>  <inchikey>  (415) 
FEMRJHRHQBPLPI-UHFFFAOYSA-N

$$$$
DFJJEUGCLNAGSE-OAQYLSRUSA-N
     RDKit          3D

 28 31  0  0  0  0  0  0  0  0999 V2000
  -28.2027  -33.4100  -21.9939 O   0  0  0  0  0  0  0  0  0  0  0  0
  -27.2153  -32.9901  -22.4507 C   0  0  0  0  0  0  0  0  0  0  0  0
  -26.9600  -31.4475  -22.4823 C   0  0  0  0  0  0  0  0  0  0  0  0
  -26.7861  -30.7385  -21.2230 N   0  0  0  0  0  0  0  0  0  0  0  0
  -26.5447  -29.3868  -21.1794 C   0  0  0  0  0  0  0  0  0  0  0  0
  -26.0617  -28.6698  -22.0393 O   0  0  0  0  0  0  0  0  0  0  0  0
  -27.0268  -28.8786  -19.9942 N   0  0  0  0  0  0  0  0  0  0  0  0
  -27.9884  -29.7877  -19.4653 C   0  0  2  0  0  0  0  0  0  0  0  0
  -29.4170  -29.5437  -19.9916 C   0  0  0  0  0  0  0  0  0  0  0  0
  -30.3435  -30.1598  -18.9352 C   0  0  0  0  0  0  0  0  0  0  0  0
  -29.5253  -30.0175  -17.6864 C   0  0  0  0  0  0  0  0  0  0  0  0
  -29.9542  -30.1457  -16.3781 C   0  0  0  0  0  0  0  0  0  0  0  0
  -29.0060  -30.0572  -15.3609 C   0  0  0  0  0  0  0  0  0  0  0  0
  -27.6544  -29.8436  -15.6614 C   0  0  0  0  0  0  0  0  0  0  0  0
  -27.2275  -29.7144  -16.9850 C   0  0  0  0  0  0  0  0  0  0  0  0
  -28.1730  -29.8098  -17.9902 C   0  0  0  0  0  0  0  0  0  0  0  0
  -27.5370  -31.0670  -20.1239 C   0  0  0  0  0  0  0  0  0  0  0  0
  -27.9037  -32.1801  -19.7876 O   0  0  0  0  0  0  0  0  0  0  0  0
  -26.0571  -33.7177  -23.1749 N   0  0  0  0  0  0  0  0  0  0  0  0
  -25.8312  -35.1242  -23.4020 C   0  0  0  0  0  0  0  0  0  0  0  0
  -25.7490  -35.9736  -22.1306 C   0  0  0  0  0  0  0  0  0  0  0  0
  -24.1080  -35.8749  -21.3256 S   0  0  0  0  0  0  0  0  0  0  0  0
  -24.2700  -34.6963  -19.9928 C   0  0  0  0  0  0  0  0  0  0  0  0
  -25.4613  -34.1723  -19.4904 C   0  0  0  0  0  0  0  0  0  0  0  0
  -25.4473  -33.2785  -18.4114 C   0  0  0  0  0  0  0  0  0  0  0  0
  -24.2494  -32.8744  -17.8375 C   0  0  0  0  0  0  0  0  0  0  0  0
  -23.0546  -33.4029  -18.3115 C   0  0  0  0  0  0  0  0  0  0  0  0
  -23.0675  -34.3070  -19.3776 C   0  0  0  0  0  0  0  0  0  0  0  0
  1  2  2  0
  2  3  1  0
  3  4  1  0
  4  5  1  0
  5  6  2  0
  5  7  1  0
  7  8  1  0
  8  9  1  6
  9 10  1  0
 10 11  1  0
 11 12  2  0
 12 13  1  0
 13 14  2  0
 14 15  1  0
 15 16  2  0
  8 17  1  0
 17 18  2  0
  2 19  1  0
 19 20  1  0
 20 21  1  0
 21 22  1  0
 22 23  1  0
 23 24  2  0
 24 25  1  0
 25 26  2  0
 26 27  1  0
 27 28  2  0
 17  4  1  0
 28 23  1  0
 16  8  1  0
 16 11  1  0
M  END
>  <fragmenstein_mode>  (416) 
expansion

>  <name>  (416) 
DFJJEUGCLNAGSE-OAQYLSRUSA-N

>  <fragmenstein_runtime>  (416) 
26.633023

>  <HIPPO Compound ID>  (416) 
42492

>  <SLURM_JOB_NAME>  (416) 
BulkDock.place:Flavi_NS5_RdRp:RdRp_knitwork_green_site_rna_tunnel_impure_split4000_batch015

>  <ref_mols>  (416) 
d0472b,z0903a

>  <Multi-SuCOS>  (416) 
0.471044

>  <tags>  (416) 
['Fragmenstein placed', 'RdRp_knitwork_green_site_rna_tunnel_impure_fragalysis.sdf Pose OK']

>  <scratch_subdir>  (416) 
/opt/xchem-fragalysis-2/maxwin/BulkDock/SCRATCH/220466/C42492-P184

>  <energy_score>  (416) 
-29.548693

>  <fragmenstein_error>  (416) 
None

>  <csv_name>  (416) 
RdRp_knitwork_green_site_rna_tunnel_impure_split4000_batch015.csv

>  <merge_set>  (416) 
RdRp_knitwork_green_site_rna_tunnel_impure_fragalysis.sdf

>  <original ID>  (416) 
DFJJEUGCLNAGSE-OAQYLSRUSA-N

>  <HIPPO Pose ID>  (416) 
216409

>  <fragmenstein_outcome>  (416) 
acceptable

>  <exports>  (416) 
['/opt/xchem-fragalysis-2/maxwin/BulkDock/OUTPUTS/RdRp_knitwork_green_site_rna_tunnel_impure_split4000_batch015_220466.sdf', '/opt/xchem-fragalysis-2/maxwin/BulkDock/OUTPUTS/RdRp_knitwork_green_site_rna_tunnel_impure_fragalysis.sdf']

>  <SLURM_JOB_ID>  (416) 
220466

>  <distance_score>  (416) 
0.909799

>  <original SMILES>  (416) 
O=C(CN1C(=O)N[C@@]2(CCc3ccccc32)C1=O)NCCSc1ccccc1

>  <alias>  (416) 
None

>  <ref_pdb>  (416) 
z0903a

>  <inchikey>  (416) 
DFJJEUGCLNAGSE-OAQYLSRUSA-N

$$$$
ZLBFYANSAYZPQU-UHFFFAOYSA-N
     RDKit          3D

 17 19  0  0  0  0  0  0  0  0999 V2000
  -25.4442  -34.0361  -19.4400 C   0  0  0  0  0  0  0  0  0  0  0  0
  -24.5349  -32.9953  -19.3978 C   0  0  0  0  0  0  0  0  0  0  0  0
  -24.9622  -31.7258  -19.7688 C   0  0  0  0  0  0  0  0  0  0  0  0
  -26.2818  -31.5051  -20.1666 C   0  0  0  0  0  0  0  0  0  0  0  0
  -26.7004  -30.1918  -20.4226 N   0  0  0  0  0  0  0  0  0  0  0  0
  -27.8539  -30.0365  -21.3114 C   0  0  0  0  0  0  0  0  0  0  0  0
  -29.0834  -29.4146  -20.6577 C   0  0  0  0  0  0  0  0  0  0  0  0
  -29.6034  -30.2204  -19.6067 O   0  0  0  0  0  0  0  0  0  0  0  0
  -28.9827  -30.1033  -18.3928 C   0  0  0  0  0  0  0  0  0  0  0  0
  -29.8033  -30.4762  -17.3194 C   0  0  0  0  0  0  0  0  0  0  0  0
  -29.3564  -30.4005  -16.0032 C   0  0  0  0  0  0  0  0  0  0  0  0
  -28.0696  -29.9515  -15.7478 C   0  0  0  0  0  0  0  0  0  0  0  0
  -27.2350  -29.6032  -16.8118 C   0  0  0  0  0  0  0  0  0  0  0  0
  -27.6639  -29.6940  -18.1540 C   0  0  0  0  0  0  0  0  0  0  0  0
  -26.6659  -29.3218  -19.2375 C   0  0  0  0  0  0  0  0  0  0  0  0
  -27.1382  -32.5375  -20.2860 N   0  0  0  0  0  0  0  0  0  0  0  0
  -26.7196  -33.7623  -19.8989 C   0  0  0  0  0  0  0  0  0  0  0  0
  1  2  2  0
  2  3  1  0
  3  4  2  0
  4  5  1  0
  5  6  1  0
  6  7  1  0
  7  8  1  0
  8  9  1  0
  9 10  2  0
 10 11  1  0
 11 12  2  0
 12 13  1  0
 13 14  2  0
 14 15  1  0
  4 16  1  0
 16 17  2  0
 17  1  1  0
 15  5  1  0
 14  9  1  0
M  END
>  <fragmenstein_mode>  (417) 
expansion

>  <name>  (417) 
ZLBFYANSAYZPQU-UHFFFAOYSA-N

>  <fragmenstein_runtime>  (417) 
2.03403

>  <HIPPO Compound ID>  (417) 
32376

>  <SLURM_JOB_NAME>  (417) 
BulkDock.place:Flavi_NS5_RdRp:RdRp_knitwork_green_site_rna_tunnel_impure_split4000_batch018

>  <ref_mols>  (417) 
d0472b,z0581a

>  <Multi-SuCOS>  (417) 
0.843983

>  <tags>  (417) 
['Fragmenstein placed', 'RdRp_knitwork_green_site_rna_tunnel_impure_fragalysis.sdf Pose OK']

>  <scratch_subdir>  (417) 
/opt/xchem-fragalysis-2/maxwin/BulkDock/SCRATCH/220469/C32376-P144

>  <energy_score>  (417) 
-21.454072

>  <fragmenstein_error>  (417) 
None

>  <csv_name>  (417) 
RdRp_knitwork_green_site_rna_tunnel_impure_split4000_batch018.csv

>  <merge_set>  (417) 
RdRp_knitwork_green_site_rna_tunnel_impure_fragalysis.sdf

>  <original ID>  (417) 
ZLBFYANSAYZPQU-UHFFFAOYSA-N

>  <HIPPO Pose ID>  (417) 
218119

>  <fragmenstein_outcome>  (417) 
acceptable

>  <exports>  (417) 
['/opt/xchem-fragalysis-2/maxwin/BulkDock/OUTPUTS/RdRp_knitwork_green_site_rna_tunnel_impure_split4000_batch018_220469.sdf', '/opt/xchem-fragalysis-2/maxwin/BulkDock/OUTPUTS/RdRp_knitwork_green_site_rna_tunnel_impure_fragalysis.sdf']

>  <SLURM_JOB_ID>  (417) 
220469

>  <distance_score>  (417) 
0.999442

>  <original SMILES>  (417) 
c1ccc(N2CCOc3ccccc3C2)nc1

>  <alias>  (417) 
None

>  <ref_pdb>  (417) 
z0581a

>  <inchikey>  (417) 
ZLBFYANSAYZPQU-UHFFFAOYSA-N

$$$$
UFFLSBNXFSNCOZ-UHFFFAOYSA-N
     RDKit          3D

 14 16  0  0  0  0  0  0  0  0999 V2000
  -29.9845  -30.2137  -20.3668 C   0  0  0  0  0  0  0  0  0  0  0  0
  -28.9973  -29.6617  -21.1904 C   0  0  0  0  0  0  0  0  0  0  0  0
  -27.7626  -29.2250  -20.6683 C   0  0  0  0  0  0  0  0  0  0  0  0
  -26.7595  -28.6528  -21.5436 C   0  0  0  0  0  0  0  0  0  0  0  0
  -26.0857  -27.4726  -21.2881 C   0  0  0  0  0  0  0  0  0  0  0  0
  -25.0940  -27.0599  -22.6329 S   0  0  0  0  0  0  0  0  0  0  0  0
  -25.5760  -28.5126  -23.4090 C   0  0  0  0  0  0  0  0  0  0  0  0
  -26.4762  -29.2346  -22.7734 N   0  0  0  0  0  0  0  0  0  0  0  0
  -27.5340  -29.3799  -19.2875 C   0  0  0  0  0  0  0  0  0  0  0  0
  -26.4587  -29.0911  -18.4715 N   0  0  0  0  0  0  0  0  0  0  0  0
  -26.8478  -29.4982  -17.2840 C   0  0  0  0  0  0  0  0  0  0  0  0
  -28.1056  -30.0115  -17.2223 O   0  0  0  0  0  0  0  0  0  0  0  0
  -28.5411  -29.9461  -18.5150 C   0  0  0  0  0  0  0  0  0  0  0  0
  -29.7736  -30.3711  -18.9948 C   0  0  0  0  0  0  0  0  0  0  0  0
  1  2  2  0
  2  3  1  0
  3  4  1  0
  4  5  2  0
  5  6  1  0
  6  7  1  0
  7  8  2  0
  3  9  2  0
  9 10  1  0
 10 11  2  0
 11 12  1  0
 12 13  1  0
 13 14  2  0
 14  1  1  0
  8  4  1  0
 13  9  1  0
M  END
>  <fragmenstein_mode>  (418) 
expansion

>  <name>  (418) 
UFFLSBNXFSNCOZ-UHFFFAOYSA-N

>  <fragmenstein_runtime>  (418) 
1.299683

>  <HIPPO Compound ID>  (418) 
49938

>  <SLURM_JOB_NAME>  (418) 
BulkDock.place:Flavi_NS5_RdRp:RdRp_knitwork_green_site_rna_tunnel_impure_split4000_batch009

>  <ref_mols>  (418) 
z0496a,z0881a

>  <Multi-SuCOS>  (418) 
0.82594

>  <tags>  (418) 
['Fragmenstein placed', 'RdRp_knitwork_green_site_rna_tunnel_impure_fragalysis.sdf Pose OK']

>  <scratch_subdir>  (418) 
/opt/xchem-fragalysis-2/maxwin/BulkDock/SCRATCH/220460/C49938-P136

>  <energy_score>  (418) 
-31.82771

>  <fragmenstein_error>  (418) 
None

>  <csv_name>  (418) 
RdRp_knitwork_green_site_rna_tunnel_impure_split4000_batch009.csv

>  <merge_set>  (418) 
RdRp_knitwork_green_site_rna_tunnel_impure_fragalysis.sdf

>  <original ID>  (418) 
UFFLSBNXFSNCOZ-UHFFFAOYSA-N

>  <HIPPO Pose ID>  (418) 
218154

>  <fragmenstein_outcome>  (418) 
acceptable

>  <exports>  (418) 
['/opt/xchem-fragalysis-2/maxwin/BulkDock/OUTPUTS/RdRp_knitwork_green_site_rna_tunnel_impure_split4000_batch009_220460.sdf', '/opt/xchem-fragalysis-2/maxwin/BulkDock/OUTPUTS/RdRp_knitwork_green_site_rna_tunnel_impure_fragalysis.sdf']

>  <SLURM_JOB_ID>  (418) 
220460

>  <distance_score>  (418) 
0.68182

>  <original SMILES>  (418) 
c1cc(-c2cscn2)c2ncoc2c1

>  <alias>  (418) 
None

>  <ref_pdb>  (418) 
z0496a

>  <inchikey>  (418) 
UFFLSBNXFSNCOZ-UHFFFAOYSA-N

$$$$
IHOVVCFZSKRBOH-UHFFFAOYSA-N
     RDKit          3D

 20 22  0  0  0  0  0  0  0  0999 V2000
  -29.3333  -37.4883  -15.3886 O   0  0  0  0  0  0  0  0  0  0  0  0
  -30.0283  -36.5755  -14.9616 C   0  0  0  0  0  0  0  0  0  0  0  0
  -31.0094  -36.8455  -14.0695 O   0  0  0  0  0  0  0  0  0  0  0  0
  -29.9105  -35.1801  -15.2795 C   0  0  0  0  0  0  0  0  0  0  0  0
  -28.9190  -34.5708  -16.0179 C   0  0  0  0  0  0  0  0  0  0  0  0
  -29.0830  -33.2188  -16.2528 N   0  0  0  0  0  0  0  0  0  0  0  0
  -30.2378  -32.8085  -15.7670 C   0  0  0  0  0  0  0  0  0  0  0  0
  -30.8805  -31.5509  -15.9348 C   0  0  0  0  0  0  0  0  0  0  0  0
  -30.4235  -30.5090  -16.6476 C   0  0  0  0  0  0  0  0  0  0  0  0
  -29.1214  -30.3199  -17.2969 C   0  0  0  0  0  0  0  0  0  0  0  0
  -27.9988  -30.2195  -16.4761 C   0  0  0  0  0  0  0  0  0  0  0  0
  -26.7854  -29.9500  -17.0640 C   0  0  0  0  0  0  0  0  0  0  0  0
  -26.6251  -29.7614  -18.3870 N   0  0  0  0  0  0  0  0  0  0  0  0
  -27.6987  -29.8662  -19.1862 C   0  0  0  0  0  0  0  0  0  0  0  0
  -27.5300  -29.6767  -20.5511 C   0  0  0  0  0  0  0  0  0  0  0  0
  -28.6085  -29.7228  -21.4359 C   0  0  0  0  0  0  0  0  0  0  0  0
  -29.8839  -29.9811  -20.9582 C   0  0  0  0  0  0  0  0  0  0  0  0
  -30.0739  -30.1990  -19.5989 C   0  0  0  0  0  0  0  0  0  0  0  0
  -28.9909  -30.1382  -18.6923 C   0  0  0  0  0  0  0  0  0  0  0  0
  -31.0645  -34.0081  -14.8202 S   0  0  0  0  0  0  0  0  0  0  0  0
  1  2  2  0
  2  3  1  0
  2  4  1  0
  4  5  2  0
  5  6  1  0
  6  7  2  0
  7  8  1  0
  8  9  2  3
  9 10  1  0
 10 11  2  0
 11 12  1  0
 12 13  2  0
 13 14  1  0
 14 15  2  0
 15 16  1  0
 16 17  2  0
 17 18  1  0
 18 19  2  0
  7 20  1  0
 20  4  1  0
 19 10  1  0
 19 14  1  0
M  END
>  <fragmenstein_mode>  (419) 
expansion

>  <name>  (419) 
IHOVVCFZSKRBOH-UHFFFAOYSA-N

>  <fragmenstein_runtime>  (419) 
8.615541

>  <HIPPO Compound ID>  (419) 
51627

>  <SLURM_JOB_NAME>  (419) 
BulkDock.place:Flavi_NS5_RdRp:RdRp_knitwork_green_site_rna_tunnel_impure_split4000_batch009

>  <ref_mols>  (419) 
z0496a,z0881a

>  <Multi-SuCOS>  (419) 
0.356605

>  <tags>  (419) 
['Fragmenstein placed', 'RdRp_knitwork_green_site_rna_tunnel_impure_fragalysis.sdf Pose OK']

>  <scratch_subdir>  (419) 
/opt/xchem-fragalysis-2/maxwin/BulkDock/SCRATCH/220460/C51627-P136

>  <energy_score>  (419) 
-66.426121

>  <fragmenstein_error>  (419) 
None

>  <csv_name>  (419) 
RdRp_knitwork_green_site_rna_tunnel_impure_split4000_batch009.csv

>  <merge_set>  (419) 
RdRp_knitwork_green_site_rna_tunnel_impure_fragalysis.sdf

>  <original ID>  (419) 
IHOVVCFZSKRBOH-UHFFFAOYSA-N

>  <HIPPO Pose ID>  (419) 
218471

>  <fragmenstein_outcome>  (419) 
acceptable

>  <exports>  (419) 
['/opt/xchem-fragalysis-2/maxwin/BulkDock/OUTPUTS/RdRp_knitwork_green_site_rna_tunnel_impure_split4000_batch009_220460.sdf', '/opt/xchem-fragalysis-2/maxwin/BulkDock/OUTPUTS/RdRp_knitwork_green_site_rna_tunnel_impure_fragalysis.sdf']

>  <SLURM_JOB_ID>  (419) 
220460

>  <distance_score>  (419) 
0.924499

>  <original SMILES>  (419) 
O=C(O)c1cnc(C=Cc2ccnc3ccccc23)s1

>  <alias>  (419) 
None

>  <ref_pdb>  (419) 
z0496a

>  <inchikey>  (419) 
IHOVVCFZSKRBOH-UHFFFAOYSA-N

$$$$
HFNQPSNKFFSTIP-UHFFFAOYSA-N
     RDKit          3D

 25 28  0  0  0  0  0  0  0  0999 V2000
  -17.1691  -33.5852  -19.0768 C   0  0  0  0  0  0  0  0  0  0  0  0
  -18.2832  -34.4619  -19.1825 O   0  0  0  0  0  0  0  0  0  0  0  0
  -19.3792  -33.9945  -19.8614 C   0  0  0  0  0  0  0  0  0  0  0  0
  -19.5532  -32.6846  -20.3163 C   0  0  0  0  0  0  0  0  0  0  0  0
  -20.7111  -32.3118  -21.0143 C   0  0  0  0  0  0  0  0  0  0  0  0
  -21.7077  -33.2741  -21.2560 C   0  0  0  0  0  0  0  0  0  0  0  0
  -22.9759  -33.2776  -21.9187 C   0  0  0  0  0  0  0  0  0  0  0  0
  -23.5599  -32.1029  -22.6233 C   0  0  0  0  0  0  0  0  0  0  0  0
  -25.0662  -31.9160  -22.5521 C   0  0  0  0  0  0  0  0  0  0  0  0
  -25.7574  -32.1872  -23.4603 O   0  0  0  0  0  0  0  0  0  0  0  0
  -25.4124  -31.2457  -21.1773 N   0  0  0  0  0  0  0  0  0  0  0  0
  -26.6222  -30.7075  -20.7038 C   0  0  0  0  0  0  0  0  0  0  0  0
  -27.6305  -30.4569  -21.6360 C   0  0  0  0  0  0  0  0  0  0  0  0
  -28.8815  -29.9998  -21.2434 C   0  0  0  0  0  0  0  0  0  0  0  0
  -29.1246  -29.7637  -19.8985 C   0  0  0  0  0  0  0  0  0  0  0  0
  -28.1288  -29.9059  -18.9477 C   0  0  0  0  0  0  0  0  0  0  0  0
  -28.4436  -29.5937  -17.6789 N   0  0  0  0  0  0  0  0  0  0  0  0
  -27.4877  -29.7245  -16.7372 C   0  0  0  0  0  0  0  0  0  0  0  0
  -26.2012  -30.1453  -17.0057 C   0  0  0  0  0  0  0  0  0  0  0  0
  -25.8783  -30.4751  -18.3197 C   0  0  0  0  0  0  0  0  0  0  0  0
  -26.8444  -30.3705  -19.3436 C   0  0  0  0  0  0  0  0  0  0  0  0
  -23.4340  -34.5774  -21.8228 C   0  0  0  0  0  0  0  0  0  0  0  0
  -22.5477  -35.3588  -21.1457 O   0  0  0  0  0  0  0  0  0  0  0  0
  -21.5034  -34.5626  -20.7878 C   0  0  0  0  0  0  0  0  0  0  0  0
  -20.3724  -34.9603  -20.0774 C   0  0  0  0  0  0  0  0  0  0  0  0
  1  2  1  0
  2  3  1  0
  3  4  2  0
  4  5  1  0
  5  6  2  0
  6  7  1  0
  7  8  1  0
  8  9  1  0
  9 10  2  0
  9 11  1  0
 11 12  1  0
 12 13  2  0
 13 14  1  0
 14 15  2  0
 15 16  1  0
 16 17  2  0
 17 18  1  0
 18 19  2  0
 19 20  1  0
 20 21  2  0
  7 22  2  0
 22 23  1  0
 23 24  1  0
 24 25  2  0
 25  3  1  0
 24  6  1  0
 21 12  1  0
 21 16  1  0
M  END
>  <fragmenstein_mode>  (420) 
expansion

>  <name>  (420) 
HFNQPSNKFFSTIP-UHFFFAOYSA-N

>  <fragmenstein_runtime>  (420) 
3.189143

>  <HIPPO Compound ID>  (420) 
34401

>  <SLURM_JOB_NAME>  (420) 
BulkDock.place:Flavi_NS5_RdRp:RdRp_knitwork_green_site_rna_tunnel_impure_split4000_batch018

>  <ref_mols>  (420) 
z0881a,3vws-b

>  <Multi-SuCOS>  (420) 
0.625631

>  <tags>  (420) 
['Fragmenstein placed', 'RdRp_knitwork_green_site_rna_tunnel_impure_fragalysis.sdf Pose OK']

>  <scratch_subdir>  (420) 
/opt/xchem-fragalysis-2/maxwin/BulkDock/SCRATCH/220469/C34401-P173

>  <energy_score>  (420) 
-52.947502

>  <fragmenstein_error>  (420) 
None

>  <csv_name>  (420) 
RdRp_knitwork_green_site_rna_tunnel_impure_split4000_batch018.csv

>  <merge_set>  (420) 
RdRp_knitwork_green_site_rna_tunnel_impure_fragalysis.sdf

>  <original ID>  (420) 
HFNQPSNKFFSTIP-UHFFFAOYSA-N

>  <HIPPO Pose ID>  (420) 
218720

>  <fragmenstein_outcome>  (420) 
acceptable

>  <exports>  (420) 
['/opt/xchem-fragalysis-2/maxwin/BulkDock/OUTPUTS/RdRp_knitwork_green_site_rna_tunnel_impure_split4000_batch018_220469.sdf', '/opt/xchem-fragalysis-2/maxwin/BulkDock/OUTPUTS/RdRp_knitwork_green_site_rna_tunnel_impure_fragalysis.sdf']

>  <SLURM_JOB_ID>  (420) 
220469

>  <distance_score>  (420) 
0.970856

>  <original SMILES>  (420) 
COc1ccc2c(CC(=O)Nc3cccc4ncccc34)coc2c1

>  <alias>  (420) 
None

>  <ref_pdb>  (420) 
z0881a

>  <inchikey>  (420) 
HFNQPSNKFFSTIP-UHFFFAOYSA-N

$$$$
OYHZTJZXEOYKAH-JTQLQIEISA-N
     RDKit          3D

 18 20  0  0  0  0  0  0  0  0999 V2000
  -24.2553  -33.3554  -24.0821 C   0  0  0  0  0  0  0  0  0  0  0  0
  -24.4708  -33.2250  -22.5782 C   0  0  2  0  0  0  0  0  0  0  0  0
  -24.5874  -31.8073  -22.2113 N   0  0  0  0  0  0  0  0  0  0  0  0
  -25.2194  -31.5883  -20.9097 C   0  0  0  0  0  0  0  0  0  0  0  0
  -26.5030  -30.7889  -20.9616 C   0  0  0  0  0  0  0  0  0  0  0  0
  -27.1258  -30.2451  -19.7783 C   0  0  0  0  0  0  0  0  0  0  0  0
  -28.2983  -29.6327  -19.9036 N   0  0  0  0  0  0  0  0  0  0  0  0
  -28.7260  -29.6729  -21.4964 S   0  0  0  0  0  0  0  0  0  0  0  0
  -27.3145  -30.4808  -22.0411 C   0  0  0  0  0  0  0  0  0  0  0  0
  -23.3665  -33.9084  -21.8159 C   0  0  0  0  0  0  0  0  0  0  0  0
  -23.3938  -35.2239  -21.3817 C   0  0  0  0  0  0  0  0  0  0  0  0
  -22.2641  -35.5527  -20.7075 O   0  0  0  0  0  0  0  0  0  0  0  0
  -21.4775  -34.4441  -20.6932 C   0  0  0  0  0  0  0  0  0  0  0  0
  -20.2342  -34.3466  -20.0678 C   0  0  0  0  0  0  0  0  0  0  0  0
  -19.5629  -33.1264  -20.1892 C   0  0  0  0  0  0  0  0  0  0  0  0
  -20.1269  -32.0677  -20.9025 C   0  0  0  0  0  0  0  0  0  0  0  0
  -21.3809  -32.1986  -21.5175 C   0  0  0  0  0  0  0  0  0  0  0  0
  -22.0861  -33.4113  -21.3977 C   0  0  0  0  0  0  0  0  0  0  0  0
  2  1  1  6
  2  3  1  0
  3  4  1  0
  4  5  1  0
  5  6  1  0
  6  7  2  0
  7  8  1  0
  8  9  1  0
  2 10  1  0
 10 11  2  0
 11 12  1  0
 12 13  1  0
 13 14  2  0
 14 15  1  0
 15 16  2  0
 16 17  1  0
 17 18  2  0
  9  5  2  0
 18 10  1  0
 18 13  1  0
M  END
>  <fragmenstein_mode>  (421) 
expansion

>  <name>  (421) 
OYHZTJZXEOYKAH-JTQLQIEISA-N

>  <fragmenstein_runtime>  (421) 
2.332894

>  <HIPPO Compound ID>  (421) 
30741

>  <SLURM_JOB_NAME>  (421) 
BulkDock.place:Flavi_NS5_RdRp:RdRp_knitwork_green_site_rna_tunnel_impure_split4000_batch014

>  <ref_mols>  (421) 
z0215a,3vws-b

>  <Multi-SuCOS>  (421) 
0.606641

>  <tags>  (421) 
['Fragmenstein placed', 'RdRp_knitwork_green_site_rna_tunnel_impure_fragalysis.sdf Pose OK']

>  <scratch_subdir>  (421) 
/opt/xchem-fragalysis-2/maxwin/BulkDock/SCRATCH/220465/C30741-P104

>  <energy_score>  (421) 
-37.239819

>  <fragmenstein_error>  (421) 
None

>  <csv_name>  (421) 
RdRp_knitwork_green_site_rna_tunnel_impure_split4000_batch014.csv

>  <merge_set>  (421) 
RdRp_knitwork_green_site_rna_tunnel_impure_fragalysis.sdf

>  <original ID>  (421) 
OYHZTJZXEOYKAH-JTQLQIEISA-N

>  <HIPPO Pose ID>  (421) 
219833

>  <fragmenstein_outcome>  (421) 
acceptable

>  <exports>  (421) 
['/opt/xchem-fragalysis-2/maxwin/BulkDock/OUTPUTS/RdRp_knitwork_green_site_rna_tunnel_impure_split4000_batch014_220465.sdf', '/opt/xchem-fragalysis-2/maxwin/BulkDock/OUTPUTS/RdRp_knitwork_green_site_rna_tunnel_impure_fragalysis.sdf']

>  <SLURM_JOB_ID>  (421) 
220465

>  <distance_score>  (421) 
0.879581

>  <original SMILES>  (421) 
C[C@H](NCc1cnsc1)c1coc2ccccc12

>  <alias>  (421) 
None

>  <ref_pdb>  (421) 
z0215a

>  <inchikey>  (421) 
OYHZTJZXEOYKAH-JTQLQIEISA-N

$$$$
IPJNRRHXJADGRQ-VIFPVBQESA-N
     RDKit          3D

 19 21  0  0  0  0  0  0  0  0999 V2000
  -24.4516  -33.5512  -23.9837 C   0  0  0  0  0  0  0  0  0  0  0  0
  -24.4482  -33.0758  -22.5273 C   0  0  2  0  0  0  0  0  0  0  0  0
  -24.3077  -31.6178  -22.4165 N   0  0  0  0  0  0  0  0  0  0  0  0
  -25.5020  -30.8510  -22.8074 C   0  0  0  0  0  0  0  0  0  0  0  0
  -26.4587  -30.5597  -21.6853 C   0  0  0  0  0  0  0  0  0  0  0  0
  -26.2906  -30.5638  -20.3140 C   0  0  0  0  0  0  0  0  0  0  0  0
  -27.4769  -30.1181  -19.6565 C   0  0  0  0  0  0  0  0  0  0  0  0
  -28.5111  -29.8044  -20.4272 N   0  0  0  0  0  0  0  0  0  0  0  0
  -28.0609  -30.0308  -22.0025 S   0  0  0  0  0  0  0  0  0  0  0  0
  -23.3422  -33.7837  -21.7684 C   0  0  0  0  0  0  0  0  0  0  0  0
  -23.4131  -35.1127  -21.3724 C   0  0  0  0  0  0  0  0  0  0  0  0
  -22.2952  -35.5083  -20.7207 O   0  0  0  0  0  0  0  0  0  0  0  0
  -21.4715  -34.4295  -20.6626 C   0  0  0  0  0  0  0  0  0  0  0  0
  -20.2229  -34.3882  -20.0432 C   0  0  0  0  0  0  0  0  0  0  0  0
  -19.7095  -35.4549  -19.4160 F   0  0  0  0  0  0  0  0  0  0  0  0
  -19.5005  -33.1989  -20.0998 C   0  0  0  0  0  0  0  0  0  0  0  0
  -20.0288  -32.0893  -20.7552 C   0  0  0  0  0  0  0  0  0  0  0  0
  -21.2902  -32.1506  -21.3710 C   0  0  0  0  0  0  0  0  0  0  0  0
  -22.0464  -33.3423  -21.3194 C   0  0  0  0  0  0  0  0  0  0  0  0
  2  1  1  6
  2  3  1  0
  3  4  1  0
  4  5  1  0
  5  6  2  0
  6  7  1  0
  7  8  2  0
  8  9  1  0
  2 10  1  0
 10 11  2  0
 11 12  1  0
 12 13  1  0
 13 14  2  0
 14 15  1  0
 14 16  1  0
 16 17  2  0
 17 18  1  0
 18 19  2  0
  9  5  1  0
 19 10  1  0
 19 13  1  0
M  END
>  <fragmenstein_mode>  (422) 
expansion

>  <name>  (422) 
IPJNRRHXJADGRQ-VIFPVBQESA-N

>  <fragmenstein_runtime>  (422) 
1.667115

>  <HIPPO Compound ID>  (422) 
30940

>  <SLURM_JOB_NAME>  (422) 
BulkDock.place:Flavi_NS5_RdRp:RdRp_knitwork_green_site_rna_tunnel_impure_split4000_batch014

>  <ref_mols>  (422) 
z0215a,3vws-b

>  <Multi-SuCOS>  (422) 
0.565736

>  <tags>  (422) 
['Fragmenstein placed', 'RdRp_knitwork_green_site_rna_tunnel_impure_fragalysis.sdf Pose OK']

>  <scratch_subdir>  (422) 
/opt/xchem-fragalysis-2/maxwin/BulkDock/SCRATCH/220465/C30940-P104

>  <energy_score>  (422) 
-58.550598

>  <fragmenstein_error>  (422) 
None

>  <csv_name>  (422) 
RdRp_knitwork_green_site_rna_tunnel_impure_split4000_batch014.csv

>  <merge_set>  (422) 
RdRp_knitwork_green_site_rna_tunnel_impure_fragalysis.sdf

>  <original ID>  (422) 
IPJNRRHXJADGRQ-VIFPVBQESA-N

>  <HIPPO Pose ID>  (422) 
219840

>  <fragmenstein_outcome>  (422) 
acceptable

>  <exports>  (422) 
['/opt/xchem-fragalysis-2/maxwin/BulkDock/OUTPUTS/RdRp_knitwork_green_site_rna_tunnel_impure_split4000_batch014_220465.sdf', '/opt/xchem-fragalysis-2/maxwin/BulkDock/OUTPUTS/RdRp_knitwork_green_site_rna_tunnel_impure_fragalysis.sdf']

>  <SLURM_JOB_ID>  (422) 
220465

>  <distance_score>  (422) 
0.850913

>  <original SMILES>  (422) 
C[C@H](NCc1ccns1)c1coc2c(F)cccc12

>  <alias>  (422) 
None

>  <ref_pdb>  (422) 
z0215a

>  <inchikey>  (422) 
IPJNRRHXJADGRQ-VIFPVBQESA-N

$$$$
OOQMTOUOHZWHLU-SECBINFHSA-N
     RDKit          3D

 19 21  0  0  0  0  0  0  0  0999 V2000
  -24.8781  -33.7323  -23.8009 C   0  0  0  0  0  0  0  0  0  0  0  0
  -23.8652  -32.8800  -23.0368 C   0  0  1  0  0  0  0  0  0  0  0  0
  -24.5169  -31.6938  -22.4528 N   0  0  0  0  0  0  0  0  0  0  0  0
  -25.3023  -31.9234  -21.2426 C   0  0  0  0  0  0  0  0  0  0  0  0
  -26.4347  -30.9283  -21.1258 C   0  0  0  0  0  0  0  0  0  0  0  0
  -26.9119  -30.3720  -19.8880 C   0  0  0  0  0  0  0  0  0  0  0  0
  -28.0304  -29.6516  -19.9113 N   0  0  0  0  0  0  0  0  0  0  0  0
  -28.5665  -29.5933  -21.4726 S   0  0  0  0  0  0  0  0  0  0  0  0
  -27.2647  -30.4807  -22.1412 C   0  0  0  0  0  0  0  0  0  0  0  0
  -23.0344  -33.6591  -22.0543 C   0  0  0  0  0  0  0  0  0  0  0  0
  -23.2507  -34.9497  -21.5963 C   0  0  0  0  0  0  0  0  0  0  0  0
  -22.2577  -35.3605  -20.7695 O   0  0  0  0  0  0  0  0  0  0  0  0
  -21.3781  -34.3288  -20.6670 C   0  0  0  0  0  0  0  0  0  0  0  0
  -20.2086  -34.3137  -19.9115 C   0  0  0  0  0  0  0  0  0  0  0  0
  -19.8257  -35.3644  -19.1747 F   0  0  0  0  0  0  0  0  0  0  0  0
  -19.4309  -33.1575  -19.9393 C   0  0  0  0  0  0  0  0  0  0  0  0
  -19.8223  -32.0599  -20.7067 C   0  0  0  0  0  0  0  0  0  0  0  0
  -20.9932  -32.1011  -21.4793 C   0  0  0  0  0  0  0  0  0  0  0  0
  -21.8005  -33.2559  -21.4466 C   0  0  0  0  0  0  0  0  0  0  0  0
  2  1  1  1
  2  3  1  0
  3  4  1  0
  4  5  1  0
  5  6  1  0
  6  7  2  0
  7  8  1  0
  8  9  1  0
  2 10  1  0
 10 11  2  0
 11 12  1  0
 12 13  1  0
 13 14  2  0
 14 15  1  0
 14 16  1  0
 16 17  2  0
 17 18  1  0
 18 19  2  0
  9  5  2  0
 19 10  1  0
 19 13  1  0
M  END
>  <fragmenstein_mode>  (423) 
expansion

>  <name>  (423) 
OOQMTOUOHZWHLU-SECBINFHSA-N

>  <fragmenstein_runtime>  (423) 
2.077365

>  <HIPPO Compound ID>  (423) 
31455

>  <SLURM_JOB_NAME>  (423) 
BulkDock.place:Flavi_NS5_RdRp:RdRp_knitwork_green_site_rna_tunnel_impure_split4000_batch014

>  <ref_mols>  (423) 
z0215a,3vws-b

>  <Multi-SuCOS>  (423) 
0.579495

>  <tags>  (423) 
['Fragmenstein placed', 'RdRp_knitwork_green_site_rna_tunnel_impure_fragalysis.sdf Pose OK']

>  <scratch_subdir>  (423) 
/opt/xchem-fragalysis-2/maxwin/BulkDock/SCRATCH/220465/C31455-P104

>  <energy_score>  (423) 
-32.91709

>  <fragmenstein_error>  (423) 
None

>  <csv_name>  (423) 
RdRp_knitwork_green_site_rna_tunnel_impure_split4000_batch014.csv

>  <merge_set>  (423) 
RdRp_knitwork_green_site_rna_tunnel_impure_fragalysis.sdf

>  <original ID>  (423) 
OOQMTOUOHZWHLU-SECBINFHSA-N

>  <HIPPO Pose ID>  (423) 
219852

>  <fragmenstein_outcome>  (423) 
acceptable

>  <exports>  (423) 
['/opt/xchem-fragalysis-2/maxwin/BulkDock/OUTPUTS/RdRp_knitwork_green_site_rna_tunnel_impure_split4000_batch014_220465.sdf', '/opt/xchem-fragalysis-2/maxwin/BulkDock/OUTPUTS/RdRp_knitwork_green_site_rna_tunnel_impure_fragalysis.sdf']

>  <SLURM_JOB_ID>  (423) 
220465

>  <distance_score>  (423) 
0.93674

>  <original SMILES>  (423) 
C[C@@H](NCc1cnsc1)c1coc2c(F)cccc12

>  <alias>  (423) 
None

>  <ref_pdb>  (423) 
z0215a

>  <inchikey>  (423) 
OOQMTOUOHZWHLU-SECBINFHSA-N

$$$$
