d0378a
     RDKit          3D

 13 13  0  0  0  0  0  0  0  0999 V2000
  -23.9320  -26.7690  -22.2220 N   0  0  0  0  0  0  0  0  0  0  0  0
  -24.4060  -27.2700  -21.3140 C   0  0  0  0  0  0  0  0  0  0  0  0
  -25.0600  -27.8280  -20.1340 C   0  0  0  0  0  0  0  0  0  0  0  0
  -25.6190  -29.1920  -20.3820 C   0  0  0  0  0  0  0  0  0  0  0  0
  -25.6270  -29.8180  -21.5440 N   0  0  0  0  0  0  0  0  0  0  0  0
  -26.2540  -31.0210  -21.3050 C   0  0  0  0  0  0  0  0  0  0  0  0
  -26.6200  -31.1170  -20.0050 C   0  0  0  0  0  0  0  0  0  0  0  0
  -26.2110  -29.9480  -19.4100 N   0  0  0  0  0  0  0  0  0  0  0  0
  -26.3680  -29.6170  -17.9920 C   0  0  0  0  0  0  0  0  0  0  0  0
  -27.6370  -28.8610  -17.7020 C   0  0  0  0  0  0  0  0  0  0  0  0
  -27.5920  -28.2660  -16.5210 F   0  0  0  0  0  0  0  0  0  0  0  0
  -28.7060  -29.6510  -17.6860 F   0  0  0  0  0  0  0  0  0  0  0  0
  -27.8840  -27.8970  -18.5810 F   0  0  0  0  0  0  0  0  0  0  0  0
 11 10  1  0
 12 10  1  0
 13 10  1  0
 10  9  1  0
  9  8  1  0
  8  7  1  0
  7  6  2  0
  6  5  1  0
  5  4  2  0
  8  4  1  0
  4  3  1  0
  3  2  1  0
  2  1  3  0
M  END
>  <id>  (1) 
1

>  <inchikey>  (1) 
WWHCIFNAXSSZJE-UHFFFAOYSA-N

>  <alias>  (1) 
d0378a

>  <smiles>  (1) 
N#CCc1nccn1CC(F)(F)F

>  <path>  (1) 
/opt/xchem-fragalysis-2/maxwin/BulkDock/TARGETS/Flavi_NS5_RdRp/aligned_files/d0378a/d0378a.pdb

>  <distance_score>  (1) 
nan

>  <energy_score>  (1) 
nan

>  <compound>  (1) 
WWHCIFNAXSSZJE-UHFFFAOYSA-N

>  <compound_id>  (1) 
1

>  <target>  (1) 
Flavi_NS5_RdRp

$$$$
z0165a
     RDKit          3D

 15 16  0  0  0  0  0  0  0  0999 V2000
  -25.6460  -27.2190  -21.1790 O   0  0  0  0  0  0  0  0  0  0  0  0
  -24.8380  -27.1140  -19.9960 S   0  0  0  0  0  0  0  0  0  0  0  0
  -23.4670  -27.5250  -20.0670 O   0  0  0  0  0  0  0  0  0  0  0  0
  -24.8330  -25.5810  -19.5430 N   0  0  0  0  0  0  0  0  0  0  0  0
  -25.6200  -28.0730  -18.7330 C   0  0  0  0  0  0  0  0  0  0  0  0
  -25.0150  -28.1970  -17.4920 C   0  0  0  0  0  0  0  0  0  0  0  0
  -25.6060  -28.9910  -16.5260 C   0  0  0  0  0  0  0  0  0  0  0  0
  -26.8180  -28.7170  -19.0090 C   0  0  0  0  0  0  0  0  0  0  0  0
  -27.4190  -29.5030  -18.0240 C   0  0  0  0  0  0  0  0  0  0  0  0
  -28.6410  -30.1050  -18.2840 N   0  0  0  0  0  0  0  0  0  0  0  0
  -29.2030  -30.0970  -19.6300 C   0  0  0  0  0  0  0  0  0  0  0  0
  -26.8090  -29.6450  -16.7730 C   0  0  0  0  0  0  0  0  0  0  0  0
  -27.5290  -30.4430  -15.7200 C   0  0  0  0  0  0  0  0  0  0  0  0
  -29.0230  -30.2030  -15.8120 C   0  0  0  0  0  0  0  0  0  0  0  0
  -29.6000  -30.3490  -17.2140 C   0  0  0  0  0  0  0  0  0  0  0  0
 11 10  1  0
 10 15  1  0
 15 14  1  0
 14 13  1  0
 13 12  1  0
 12  7  2  0
  7  6  1  0
  6  5  2  0
  8  5  1  0
  9  8  2  0
 10  9  1  0
 12  9  1  0
  5  2  1  0
  3  2  2  0
  2  1  2  0
  4  2  1  0
M  END
>  <id>  (2) 
3

>  <inchikey>  (2) 
OUJFDUTZTPBMDN-UHFFFAOYSA-N

>  <alias>  (2) 
z0165a

>  <smiles>  (2) 
CN1CCCc2ccc(S(N)(=O)=O)cc21

>  <path>  (2) 
/opt/xchem-fragalysis-2/maxwin/BulkDock/TARGETS/Flavi_NS5_RdRp/aligned_files/z0165a/z0165a.pdb

>  <distance_score>  (2) 
nan

>  <energy_score>  (2) 
nan

>  <compound>  (2) 
OUJFDUTZTPBMDN-UHFFFAOYSA-N

>  <compound_id>  (2) 
3

>  <target>  (2) 
Flavi_NS5_RdRp

$$$$
z0904a
     RDKit          3D

 13 14  0  0  0  0  0  0  0  0999 V2000
  -27.1210  -30.5100  -21.8080 O   0  0  0  0  0  0  0  0  0  0  0  0
  -28.0850  -30.1040  -21.1720 C   0  0  0  0  0  0  0  0  0  0  0  0
  -29.3130  -29.6280  -21.8780 C   0  0  0  0  0  0  0  0  0  0  0  0
  -28.0480  -30.0850  -19.6840 C   0  0  0  0  0  0  0  0  0  0  0  0
  -26.8250  -29.9880  -19.0300 C   0  0  0  0  0  0  0  0  0  0  0  0
  -26.7490  -29.9870  -17.6400 C   0  0  0  0  0  0  0  0  0  0  0  0
  -27.9310  -30.1060  -16.8930 C   0  0  0  0  0  0  0  0  0  0  0  0
  -29.1620  -30.1830  -17.5470 C   0  0  0  0  0  0  0  0  0  0  0  0
  -29.2130  -30.1770  -18.9300 C   0  0  0  0  0  0  0  0  0  0  0  0
  -25.4340  -29.8120  -16.9260 C   0  0  0  0  0  0  0  0  0  0  0  0
  -25.4260  -30.4420  -15.5590 C   0  0  0  0  0  0  0  0  0  0  0  0
  -26.6640  -30.3150  -14.7460 C   0  0  0  0  0  0  0  0  0  0  0  0
  -27.8850  -30.2410  -15.5310 N   0  0  0  0  0  0  0  0  0  0  0  0
  3  2  1  0
  2  1  2  0
  4  2  1  0
  4  9  2  0
  9  8  1  0
  8  7  2  0
  7 13  1  0
 13 12  1  0
 12 11  1  0
 11 10  1  0
 10  6  1  0
  7  6  1  0
  6  5  2  0
  5  4  1  0
M  END
>  <id>  (3) 
7

>  <inchikey>  (3) 
YFNHWMNECPFUGS-UHFFFAOYSA-N

>  <alias>  (3) 
z0904a

>  <smiles>  (3) 
CC(=O)c1ccc2c(c1)CCCN2

>  <path>  (3) 
/opt/xchem-fragalysis-2/maxwin/BulkDock/TARGETS/Flavi_NS5_RdRp/aligned_files/z0904a/z0904a.pdb

>  <distance_score>  (3) 
nan

>  <energy_score>  (3) 
nan

>  <compound>  (3) 
YFNHWMNECPFUGS-UHFFFAOYSA-N

>  <compound_id>  (3) 
7

>  <target>  (3) 
Flavi_NS5_RdRp

$$$$
d0160a
     RDKit          3D

 12 13  0  0  0  0  0  0  0  0999 V2000
  -14.8680  -42.8470  -22.4170 C   0  0  0  0  0  0  0  0  0  0  0  0
  -14.3590  -41.4720  -22.7610 C   0  0  0  0  0  0  0  0  0  0  0  0
  -14.6310  -40.6870  -23.8930 C   0  0  0  0  0  0  0  0  0  0  0  0
  -13.9280  -39.5420  -23.7350 N   0  0  0  0  0  0  0  0  0  0  0  0
  -13.2130  -39.5230  -22.5740 N   0  0  0  0  0  0  0  0  0  0  0  0
  -13.4780  -40.6900  -21.9930 C   0  0  0  0  0  0  0  0  0  0  0  0
  -15.4880  -40.9120  -25.0760 C   0  0  0  0  0  0  0  0  0  0  0  0
  -16.4450  -41.9230  -25.0890 C   0  0  0  0  0  0  0  0  0  0  0  0
  -17.2400  -42.0720  -26.2090 C   0  0  0  0  0  0  0  0  0  0  0  0
  -17.1550  -41.2910  -27.2920 N   0  0  0  0  0  0  0  0  0  0  0  0
  -16.2280  -40.3270  -27.2660 C   0  0  0  0  0  0  0  0  0  0  0  0
  -15.3790  -40.1030  -26.1990 C   0  0  0  0  0  0  0  0  0  0  0  0
  2  1  1  0
  2  6  1  0
  6  5  2  0
  5  4  1  0
  4  3  1  0
  3  2  2  0
  7  3  1  0
  7 12  2  0
 12 11  1  0
 11 10  2  0
 10  9  1  0
  9  8  2  0
  8  7  1  0
M  END
>  <id>  (4) 
12

>  <inchikey>  (4) 
DIJNPLGAABOOQW-UHFFFAOYSA-N

>  <alias>  (4) 
d0160a

>  <smiles>  (4) 
Cc1cn[nH]c1-c1ccncc1

>  <path>  (4) 
/opt/xchem-fragalysis-2/maxwin/BulkDock/TARGETS/Flavi_NS5_RdRp/aligned_files/d0160a/d0160a.pdb

>  <distance_score>  (4) 
nan

>  <energy_score>  (4) 
nan

>  <compound>  (4) 
DIJNPLGAABOOQW-UHFFFAOYSA-N

>  <compound_id>  (4) 
10

>  <target>  (4) 
Flavi_NS5_RdRp

$$$$
d0174a
     RDKit          3D

 16 17  0  0  0  0  0  0  0  0999 V2000
  -14.5260  -69.9790  -19.0550 O   0  0  0  0  0  0  0  0  0  0  0  0
  -13.8380  -69.6370  -20.2620 S   0  0  0  0  0  0  0  0  0  0  0  0
  -13.0170  -68.4660  -20.2910 O   0  0  0  0  0  0  0  0  0  0  0  0
  -15.0450  -69.4890  -21.5600 C   0  0  0  0  0  0  0  0  0  0  0  0
  -14.4150  -69.4670  -22.9280 C   0  0  0  0  0  0  0  0  0  0  0  0
  -12.8600  -70.9160  -20.6410 N   0  0  0  0  0  0  0  0  0  0  0  0
  -11.5650  -70.7230  -21.3130 C   0  0  0  0  0  0  0  0  0  0  0  0
  -10.3650  -70.9940  -20.4370 C   0  0  0  0  0  0  0  0  0  0  0  0
   -9.0840  -70.7120  -20.9060 C   0  0  0  0  0  0  0  0  0  0  0  0
   -8.0010  -70.9900  -20.0990 C   0  0  0  0  0  0  0  0  0  0  0  0
   -6.6650  -70.7580  -20.3430 O   0  0  0  0  0  0  0  0  0  0  0  0
   -6.0100  -71.0190  -19.0990 C   0  0  0  0  0  0  0  0  0  0  0  0
   -6.9370  -71.6950  -18.2470 O   0  0  0  0  0  0  0  0  0  0  0  0
   -8.1640  -71.5420  -18.8550 C   0  0  0  0  0  0  0  0  0  0  0  0
   -9.4190  -71.8390  -18.3620 C   0  0  0  0  0  0  0  0  0  0  0  0
  -10.5140  -71.5510  -19.1640 C   0  0  0  0  0  0  0  0  0  0  0  0
  5  4  1  0
  4  2  1  0
  3  2  2  0
  2  1  2  0
  6  2  1  0
  7  6  1  0
  8  7  1  0
  8 16  2  0
 16 15  1  0
 15 14  2  0
 14 13  1  0
 13 12  1  0
 12 11  1  0
 11 10  1  0
 14 10  1  0
 10  9  2  0
  9  8  1  0
M  END
>  <id>  (5) 
17

>  <inchikey>  (5) 
UKPLBUIFSDRLEZ-UHFFFAOYSA-N

>  <alias>  (5) 
d0174a

>  <smiles>  (5) 
CCS(=O)(=O)NCc1ccc2c(c1)OCO2

>  <path>  (5) 
/opt/xchem-fragalysis-2/maxwin/BulkDock/TARGETS/Flavi_NS5_RdRp/aligned_files/d0174a/d0174a.pdb

>  <distance_score>  (5) 
nan

>  <energy_score>  (5) 
nan

>  <compound>  (5) 
UKPLBUIFSDRLEZ-UHFFFAOYSA-N

>  <compound_id>  (5) 
14

>  <target>  (5) 
Flavi_NS5_RdRp

$$$$
d0191a
     RDKit          3D

 12 13  0  0  0  0  0  0  0  0999 V2000
  -14.7240  -41.6290  -24.2740 C   0  0  0  0  0  0  0  0  0  0  0  0
  -15.1980  -42.8250  -23.8310 C   0  0  0  0  0  0  0  0  0  0  0  0
  -16.1900  -43.2470  -24.7330 C   0  0  0  0  0  0  0  0  0  0  0  0
  -16.2940  -42.2990  -25.7020 C   0  0  0  0  0  0  0  0  0  0  0  0
  -15.3980  -41.2940  -25.4230 N   0  0  0  0  0  0  0  0  0  0  0  0
  -15.2480  -40.0370  -26.1670 C   0  0  0  0  0  0  0  0  0  0  0  0
  -16.3550  -39.0540  -25.8750 C   0  0  0  0  0  0  0  0  0  0  0  0
  -17.4060  -38.8590  -26.7540 C   0  0  0  0  0  0  0  0  0  0  0  0
  -18.3830  -37.9610  -26.5720 N   0  0  0  0  0  0  0  0  0  0  0  0
  -18.3220  -37.2060  -25.4700 C   0  0  0  0  0  0  0  0  0  0  0  0
  -17.3280  -37.3290  -24.5260 C   0  0  0  0  0  0  0  0  0  0  0  0
  -16.3410  -38.2750  -24.7310 C   0  0  0  0  0  0  0  0  0  0  0  0
  7  6  1  0
  7 12  2  0
 12 11  1  0
 11 10  2  0
 10  9  1  0
  9  8  2  0
  8  7  1  0
  6  5  1  0
  5  4  1  0
  4  3  2  0
  3  2  1  0
  2  1  2  0
  5  1  1  0
M  END
>  <id>  (6) 
19

>  <inchikey>  (6) 
PJVWPGGKILHMKW-UHFFFAOYSA-N

>  <alias>  (6) 
d0191a

>  <smiles>  (6) 
c1cncc(Cn2cccc2)c1

>  <path>  (6) 
/opt/xchem-fragalysis-2/maxwin/BulkDock/TARGETS/Flavi_NS5_RdRp/aligned_files/d0191a/d0191a.pdb

>  <distance_score>  (6) 
nan

>  <energy_score>  (6) 
nan

>  <compound>  (6) 
PJVWPGGKILHMKW-UHFFFAOYSA-N

>  <compound_id>  (6) 
16

>  <target>  (6) 
Flavi_NS5_RdRp

$$$$
d0248a
     RDKit          3D

 15 15  0  0  0  0  0  0  0  0999 V2000
   -7.0320  -71.1660  -20.4820 Cl  0  0  0  0  0  0  0  0  0  0  0  0
   -8.7430  -71.0200  -20.1870 C   0  0  0  0  0  0  0  0  0  0  0  0
   -9.2120  -71.1280  -18.8950 C   0  0  0  0  0  0  0  0  0  0  0  0
  -10.5600  -70.9230  -18.6570 C   0  0  0  0  0  0  0  0  0  0  0  0
  -11.4220  -70.6340  -19.6990 C   0  0  0  0  0  0  0  0  0  0  0  0
   -9.5880  -70.7500  -21.2480 C   0  0  0  0  0  0  0  0  0  0  0  0
  -10.9480  -70.5620  -21.0070 C   0  0  0  0  0  0  0  0  0  0  0  0
  -11.8990  -70.3120  -22.1350 C   0  0  0  0  0  0  0  0  0  0  0  0
  -11.5080  -69.8210  -23.1900 O   0  0  0  0  0  0  0  0  0  0  0  0
  -13.1850  -70.6790  -21.9440 N   0  0  0  0  0  0  0  0  0  0  0  0
  -14.3290  -70.5310  -22.8740 C   0  0  0  0  0  0  0  0  0  0  0  0
  -14.3380  -69.1100  -23.4320 C   0  0  0  0  0  0  0  0  0  0  0  0
  -15.6200  -70.7710  -22.0890 C   0  0  0  0  0  0  0  0  0  0  0  0
  -14.2780  -71.5420  -24.0360 C   0  0  0  0  0  0  0  0  0  0  0  0
  -13.0170  -71.6100  -24.6870 O   0  0  0  0  0  0  0  0  0  0  0  0
 12 11  1  0
 13 11  1  0
 14 11  1  0
 15 14  1  0
 11 10  1  0
 10  8  1  0
  9  8  2  0
  8  7  1  0
  7  5  1  0
  5  4  2  0
  4  3  1  0
  3  2  2  0
  2  1  1  0
  6  2  1  0
  7  6  2  0
M  END
>  <id>  (7) 
22

>  <inchikey>  (7) 
XZDXDRPMHCVWBK-UHFFFAOYSA-N

>  <alias>  (7) 
d0248a

>  <smiles>  (7) 
CC(C)(CO)NC(=O)c1cccc(Cl)c1

>  <path>  (7) 
/opt/xchem-fragalysis-2/maxwin/BulkDock/TARGETS/Flavi_NS5_RdRp/aligned_files/d0248a/d0248a.pdb

>  <distance_score>  (7) 
nan

>  <energy_score>  (7) 
nan

>  <compound>  (7) 
XZDXDRPMHCVWBK-UHFFFAOYSA-N

>  <compound_id>  (7) 
18

>  <target>  (7) 
Flavi_NS5_RdRp

$$$$
d0254a
     RDKit          3D

 15 16  0  0  0  0  0  0  0  0999 V2000
  -18.5140  -44.9440  -23.0850 O   0  0  0  0  0  0  0  0  0  0  0  0
  -17.5800  -44.9250  -22.2900 C   0  0  0  0  0  0  0  0  0  0  0  0
  -17.6230  -45.8150  -21.0530 C   0  0  1  0  0  0  0  0  0  0  0  0
  -16.4130  -45.7010  -20.2780 O   0  0  0  0  0  0  0  0  0  0  0  0
  -16.7580  -45.4230  -18.9190 C   0  0  0  0  0  0  0  0  0  0  0  0
  -18.2140  -45.7750  -18.7620 C   0  0  0  0  0  0  0  0  0  0  0  0
  -18.7790  -45.4810  -20.1350 C   0  0  0  0  0  0  0  0  0  0  0  0
  -16.4730  -44.1500  -22.4210 N   0  0  0  0  0  0  0  0  0  0  0  0
  -16.1690  -43.2350  -23.4440 C   0  0  0  0  0  0  0  0  0  0  0  0
  -16.8900  -43.1390  -24.6480 C   0  0  0  0  0  0  0  0  0  0  0  0
  -16.5400  -42.1420  -25.5370 C   0  0  0  0  0  0  0  0  0  0  0  0
  -15.1490  -42.4110  -23.1580 N   0  0  0  0  0  0  0  0  0  0  0  0
  -14.8480  -41.4540  -24.0500 C   0  0  0  0  0  0  0  0  0  0  0  0
  -15.5130  -41.2620  -25.2530 C   0  0  0  0  0  0  0  0  0  0  0  0
  -15.1640  -40.1290  -26.1880 C   0  0  0  0  0  0  0  0  0  0  0  0
 15 14  1  0
 14 11  1  0
 11 10  2  0
 10  9  1  0
  9  8  1  0
  8  2  1  0
  2  1  2  0
  3  2  1  6
  3  7  1  0
  7  6  1  0
  6  5  1  0
  5  4  1  0
  4  3  1  0
 12  9  2  0
 13 12  1  0
 14 13  2  0
M  END
>  <id>  (8) 
26

>  <inchikey>  (8) 
BFRXGCPOQMOBHK-VIFPVBQESA-N

>  <alias>  (8) 
d0254a

>  <smiles>  (8) 
Cc1ccc(NC(=O)[C@@H]2CCCO2)nc1

>  <path>  (8) 
/opt/xchem-fragalysis-2/maxwin/BulkDock/TARGETS/Flavi_NS5_RdRp/aligned_files/d0254a/d0254a.pdb

>  <distance_score>  (8) 
nan

>  <energy_score>  (8) 
nan

>  <compound>  (8) 
BFRXGCPOQMOBHK-UHFFFAOYSA-N

>  <compound_id>  (8) 
22

>  <target>  (8) 
Flavi_NS5_RdRp

$$$$
d0264a
     RDKit          3D

 15 15  0  0  0  0  0  0  0  0999 V2000
  -23.1640  -45.9380  -18.0490 O   0  0  0  0  0  0  0  0  0  0  0  0
  -22.2460  -46.0170  -17.2360 C   0  0  0  0  0  0  0  0  0  0  0  0
  -22.2040  -47.1360  -16.1890 C   0  0  0  0  0  0  0  0  0  0  0  0
  -23.2590  -46.8890  -15.1120 C   0  0  0  0  0  0  0  0  0  0  0  0
  -22.3910  -48.4810  -16.8760 C   0  0  0  0  0  0  0  0  0  0  0  0
  -21.2220  -45.1550  -17.2120 N   0  0  0  0  0  0  0  0  0  0  0  0
  -21.0190  -44.1810  -18.2700 C   0  0  1  0  0  0  0  0  0  0  0  0
  -20.4710  -42.8780  -17.6970 C   0  0  0  0  0  0  0  0  0  0  0  0
  -20.1240  -44.7580  -19.3280 C   0  0  0  0  0  0  0  0  0  0  0  0
  -19.8410  -44.3300  -20.5900 C   0  0  0  0  0  0  0  0  0  0  0  0
  -20.3800  -43.1060  -21.2510 C   0  0  0  0  0  0  0  0  0  0  0  0
  -18.9590  -45.1180  -21.2970 N   0  0  0  0  0  0  0  0  0  0  0  0
  -18.5660  -46.1410  -20.5930 C   0  0  0  0  0  0  0  0  0  0  0  0
  -19.2480  -46.2240  -19.0020 S   0  0  0  0  0  0  0  0  0  0  0  0
  -17.6070  -47.1680  -21.0840 C   0  0  0  0  0  0  0  0  0  0  0  0
  5  3  1  0
  4  3  1  0
  3  2  1  0
  2  1  2  0
  6  2  1  0
  7  6  1  0
  7  8  1  1
  9  7  1  0
  9 14  1  0
 14 13  1  0
 15 13  1  0
 13 12  2  0
 12 10  1  0
 10  9  2  0
 11 10  1  0
M  END
>  <id>  (9) 
28

>  <inchikey>  (9) 
ZECWVBZTKUPZEE-QMMMGPOBSA-N

>  <alias>  (9) 
d0264a

>  <smiles>  (9) 
Cc1nc(C)c([C@H](C)NC(=O)C(C)C)s1

>  <path>  (9) 
/opt/xchem-fragalysis-2/maxwin/BulkDock/TARGETS/Flavi_NS5_RdRp/aligned_files/d0264a/d0264a.pdb

>  <distance_score>  (9) 
nan

>  <energy_score>  (9) 
nan

>  <compound>  (9) 
ZECWVBZTKUPZEE-UHFFFAOYSA-N

>  <compound_id>  (9) 
24

>  <target>  (9) 
Flavi_NS5_RdRp

$$$$
d0376a
     RDKit          3D

 16 17  0  0  0  0  0  0  0  0999 V2000
   -6.4280  -72.6450  -21.5430 O   0  0  0  0  0  0  0  0  0  0  0  0
   -6.4170  -71.8730  -20.5950 C   0  0  0  0  0  0  0  0  0  0  0  0
   -7.7230  -71.4680  -20.0230 C   0  0  0  0  0  0  0  0  0  0  0  0
   -8.9560  -70.6680  -20.9380 S   0  0  0  0  0  0  0  0  0  0  0  0
  -10.0000  -70.6220  -19.6020 C   0  0  0  0  0  0  0  0  0  0  0  0
   -9.4690  -71.1860  -18.4970 C   0  0  0  0  0  0  0  0  0  0  0  0
   -8.1310  -71.6920  -18.7130 C   0  0  0  0  0  0  0  0  0  0  0  0
   -5.2630  -71.3980  -20.0790 N   0  0  0  0  0  0  0  0  0  0  0  0
   -5.1330  -70.4250  -18.9860 C   0  0  0  0  0  0  0  0  0  0  0  0
   -4.2120  -69.2840  -19.4080 C   0  0  0  0  0  0  0  0  0  0  0  0
   -3.9510  -71.8690  -20.5420 C   0  0  0  0  0  0  0  0  0  0  0  0
   -3.1020  -70.6950  -20.9780 C   0  0  0  0  0  0  0  0  0  0  0  0
   -2.8950  -69.7840  -19.8480 N   0  0  0  0  0  0  0  0  0  0  0  0
   -1.8840  -68.7160  -19.9970 C   0  0  0  0  0  0  0  0  0  0  0  0
   -0.6590  -69.1460  -20.7880 C   0  0  0  0  0  0  0  0  0  0  0  0
   -2.4580  -67.4170  -20.5360 C   0  0  0  0  0  0  0  0  0  0  0  0
 16 14  1  0
 15 14  1  0
 14 13  1  0
 13 10  1  0
 10  9  1  0
  9  8  1  0
 11  8  1  0
 12 11  1  0
 13 12  1  0
  8  2  1  0
  2  1  2  0
  3  2  1  0
  3  7  2  0
  7  6  1  0
  6  5  2  0
  5  4  1  0
  4  3  1  0
M  END
>  <id>  (10) 
33

>  <inchikey>  (10) 
ZEVVAPJSMUTCRY-UHFFFAOYSA-N

>  <alias>  (10) 
d0376a

>  <smiles>  (10) 
CC(C)N1CCN(C(=O)c2cccs2)CC1

>  <path>  (10) 
/opt/xchem-fragalysis-2/maxwin/BulkDock/TARGETS/Flavi_NS5_RdRp/aligned_files/d0376a/d0376a.pdb

>  <distance_score>  (10) 
nan

>  <energy_score>  (10) 
nan

>  <compound>  (10) 
ZEVVAPJSMUTCRY-UHFFFAOYSA-N

>  <compound_id>  (10) 
29

>  <target>  (10) 
Flavi_NS5_RdRp

$$$$
d0472b
     RDKit          3D

 12 13  0  0  0  0  0  0  0  0999 V2000
  -25.7860  -30.1580  -22.6030 N   0  0  0  0  0  0  0  0  0  0  0  0
  -25.4350  -29.2880  -21.6020 C   0  0  0  0  0  0  0  0  0  0  0  0
  -25.4900  -29.6630  -20.2360 C   0  0  0  0  0  0  0  0  0  0  0  0
  -25.2560  -28.8050  -19.2310 N   0  0  0  0  0  0  0  0  0  0  0  0
  -24.9150  -27.5420  -19.5530 C   0  0  0  0  0  0  0  0  0  0  0  0
  -24.7950  -27.0890  -20.8520 C   0  0  0  0  0  0  0  0  0  0  0  0
  -25.0600  -27.9730  -21.8820 C   0  0  0  0  0  0  0  0  0  0  0  0
  -25.6910  -31.0170  -19.8210 N   0  0  0  0  0  0  0  0  0  0  0  0
  -26.5140  -31.9480  -20.4250 C   0  0  0  0  0  0  0  0  0  0  0  0
  -26.3550  -33.1370  -19.7780 C   0  0  0  0  0  0  0  0  0  0  0  0
  -25.4190  -32.9400  -18.7410 C   0  0  0  0  0  0  0  0  0  0  0  0
  -25.0260  -31.6340  -18.7800 C   0  0  0  0  0  0  0  0  0  0  0  0
  2  1  1  0
  2  7  2  0
  7  6  1  0
  6  5  2  0
  5  4  1  0
  4  3  2  0
  3  2  1  0
  8  3  1  0
  8 12  1  0
 12 11  2  0
 11 10  1  0
 10  9  2  0
  9  8  1  0
M  END
>  <id>  (11) 
41

>  <inchikey>  (11) 
QCTDPVKLZRURRV-UHFFFAOYSA-N

>  <alias>  (11) 
d0472b

>  <smiles>  (11) 
Nc1cccnc1-n1cccc1

>  <path>  (11) 
/opt/xchem-fragalysis-2/maxwin/BulkDock/TARGETS/Flavi_NS5_RdRp/aligned_files/d0472b/d0472b.pdb

>  <distance_score>  (11) 
nan

>  <energy_score>  (11) 
nan

>  <compound>  (11) 
QCTDPVKLZRURRV-UHFFFAOYSA-N

>  <compound_id>  (11) 
35

>  <target>  (11) 
Flavi_NS5_RdRp

$$$$
d0472a
     RDKit          3D

 12 13  0  0  0  0  0  0  0  0999 V2000
  -15.7750  -43.6370  -22.5880 N   0  0  0  0  0  0  0  0  0  0  0  0
  -15.1370  -44.0180  -21.4420 C   0  0  0  0  0  0  0  0  0  0  0  0
  -15.5660  -45.1350  -20.6910 C   0  0  0  0  0  0  0  0  0  0  0  0
  -15.0140  -45.4870  -19.5210 N   0  0  0  0  0  0  0  0  0  0  0  0
  -13.9920  -44.7430  -19.0650 C   0  0  0  0  0  0  0  0  0  0  0  0
  -13.4830  -43.6510  -19.7350 C   0  0  0  0  0  0  0  0  0  0  0  0
  -14.0650  -43.2880  -20.9320 C   0  0  0  0  0  0  0  0  0  0  0  0
  -16.5820  -46.0170  -21.1430 N   0  0  0  0  0  0  0  0  0  0  0  0
  -17.5610  -45.7280  -22.0730 C   0  0  0  0  0  0  0  0  0  0  0  0
  -18.3330  -46.8380  -22.2340 C   0  0  0  0  0  0  0  0  0  0  0  0
  -17.8230  -47.8430  -21.3830 C   0  0  0  0  0  0  0  0  0  0  0  0
  -16.7520  -47.3220  -20.7230 C   0  0  0  0  0  0  0  0  0  0  0  0
  2  1  1  0
  2  7  2  0
  7  6  1  0
  6  5  2  0
  5  4  1  0
  4  3  2  0
  3  2  1  0
  8  3  1  0
  8 12  1  0
 12 11  2  0
 11 10  1  0
 10  9  2  0
  9  8  1  0
M  END
>  <id>  (12) 
42

>  <inchikey>  (12) 
QCTDPVKLZRURRV-UHFFFAOYSA-N

>  <alias>  (12) 
d0472a

>  <smiles>  (12) 
Nc1cccnc1-n1cccc1

>  <path>  (12) 
/opt/xchem-fragalysis-2/maxwin/BulkDock/TARGETS/Flavi_NS5_RdRp/aligned_files/d0472a/d0472a.pdb

>  <distance_score>  (12) 
nan

>  <energy_score>  (12) 
nan

>  <compound>  (12) 
QCTDPVKLZRURRV-UHFFFAOYSA-N

>  <compound_id>  (12) 
35

>  <target>  (12) 
Flavi_NS5_RdRp

$$$$
d0566a
     RDKit          3D

 16 17  0  0  0  0  0  0  0  0999 V2000
   -3.1800  -70.6910  -21.5760 O   0  0  0  0  0  0  0  0  0  0  0  0
   -3.6470  -70.0960  -20.6240 C   0  0  0  0  0  0  0  0  0  0  0  0
   -3.3160  -68.8570  -20.2440 N   0  0  0  0  0  0  0  0  0  0  0  0
   -2.5250  -67.9470  -21.0580 C   0  0  0  0  0  0  0  0  0  0  0  0
   -4.6880  -70.6230  -19.6360 C   0  0  1  0  0  0  0  0  0  0  0  0
   -4.5010  -69.7110  -18.4180 C   0  0  0  0  0  0  0  0  0  0  0  0
   -3.7910  -68.4600  -18.9280 C   0  0  0  0  0  0  0  0  0  0  0  0
   -6.0040  -70.5010  -20.2070 O   0  0  0  0  0  0  0  0  0  0  0  0
   -7.0970  -70.9910  -19.5220 C   0  0  0  0  0  0  0  0  0  0  0  0
   -8.3420  -70.6880  -20.0630 C   0  0  0  0  0  0  0  0  0  0  0  0
   -8.4070  -69.9380  -21.1770 F   0  0  0  0  0  0  0  0  0  0  0  0
   -9.5520  -71.0910  -19.5130 C   0  0  0  0  0  0  0  0  0  0  0  0
  -10.8980  -70.7560  -20.1050 C   0  0  0  0  0  0  0  0  0  0  0  0
   -9.4750  -71.8420  -18.3430 C   0  0  0  0  0  0  0  0  0  0  0  0
   -8.2540  -72.1590  -17.7680 C   0  0  0  0  0  0  0  0  0  0  0  0
   -7.0680  -71.7410  -18.3520 C   0  0  0  0  0  0  0  0  0  0  0  0
  4  3  1  0
  3  7  1  0
  7  6  1  0
  6  5  1  0
  5  8  1  6
  9  8  1  0
  9 16  2  0
 16 15  1  0
 15 14  2  0
 14 12  1  0
 13 12  1  0
 12 10  2  0
 10  9  1  0
 11 10  1  0
  5  2  1  0
  3  2  1  0
  2  1  2  0
M  END
>  <id>  (13) 
45

>  <inchikey>  (13) 
ZGHOVIJLBUUPON-SNVBAGLBSA-N

>  <alias>  (13) 
d0566a

>  <smiles>  (13) 
Cc1cccc(O[C@@H]2CCN(C)C2=O)c1F

>  <path>  (13) 
/opt/xchem-fragalysis-2/maxwin/BulkDock/TARGETS/Flavi_NS5_RdRp/aligned_files/d0566a/d0566a.pdb

>  <distance_score>  (13) 
nan

>  <energy_score>  (13) 
nan

>  <compound>  (13) 
ZGHOVIJLBUUPON-UHFFFAOYSA-N

>  <compound_id>  (13) 
38

>  <target>  (13) 
Flavi_NS5_RdRp

$$$$
d0615a
     RDKit          3D

 15 16  0  0  0  0  0  0  0  0999 V2000
   -9.9770  -70.4000  -24.2040 F   0  0  0  0  0  0  0  0  0  0  0  0
  -10.3170  -70.3840  -22.8830 C   0  0  0  0  0  0  0  0  0  0  0  0
  -11.6190  -70.1390  -22.5230 C   0  0  0  0  0  0  0  0  0  0  0  0
  -11.9820  -70.0550  -21.2380 N   0  0  0  0  0  0  0  0  0  0  0  0
  -11.0340  -70.2290  -20.3060 C   0  0  0  0  0  0  0  0  0  0  0  0
   -9.3340  -70.5690  -21.9440 C   0  0  0  0  0  0  0  0  0  0  0  0
   -9.6950  -70.4920  -20.6020 C   0  0  0  0  0  0  0  0  0  0  0  0
   -8.7480  -70.6630  -19.6050 N   0  0  0  0  0  0  0  0  0  0  0  0
   -7.9260  -71.8530  -19.4540 C   0  0  0  0  0  0  0  0  0  0  0  0
   -6.4770  -71.6580  -19.8090 C   0  0  0  0  0  0  0  0  0  0  0  0
   -5.7780  -72.2410  -20.8040 C   0  0  0  0  0  0  0  0  0  0  0  0
   -4.4830  -71.8200  -20.9930 N   0  0  0  0  0  0  0  0  0  0  0  0
   -5.4580  -70.5080  -19.0050 S   0  0  0  0  0  0  0  0  0  0  0  0
   -4.1850  -70.8990  -20.1230 C   0  0  0  0  0  0  0  0  0  0  0  0
   -2.8820  -70.1730  -20.1080 C   0  0  0  0  0  0  0  0  0  0  0  0
 15 14  1  0
 14 12  2  0
 12 11  1  0
 11 10  2  0
 10  9  1  0
  9  8  1  0
  8  7  1  0
  7  5  1  0
  5  4  2  0
  4  3  1  0
  3  2  2  0
  2  1  1  0
  6  2  1  0
  7  6  2  0
 13 10  1  0
 14 13  1  0
M  END
>  <id>  (14) 
50

>  <inchikey>  (14) 
SSOIKBIBPGCZFT-UHFFFAOYSA-N

>  <alias>  (14) 
d0615a

>  <smiles>  (14) 
Cc1ncc(CNc2cncc(F)c2)s1

>  <path>  (14) 
/opt/xchem-fragalysis-2/maxwin/BulkDock/TARGETS/Flavi_NS5_RdRp/aligned_files/d0615a/d0615a_hippo.pdb

>  <distance_score>  (14) 
nan

>  <energy_score>  (14) 
nan

>  <compound>  (14) 
SSOIKBIBPGCZFT-UHFFFAOYSA-N

>  <compound_id>  (14) 
43

>  <target>  (14) 
Flavi_NS5_RdRp

$$$$
d0615b
     RDKit          3D

 15 16  0  0  0  0  0  0  0  0999 V2000
  -18.6710  -43.8090  -24.6670 F   0  0  0  0  0  0  0  0  0  0  0  0
  -17.5250  -43.3270  -24.1160 C   0  0  0  0  0  0  0  0  0  0  0  0
  -17.1250  -43.7850  -22.8860 C   0  0  0  0  0  0  0  0  0  0  0  0
  -16.0090  -43.3300  -22.3050 N   0  0  0  0  0  0  0  0  0  0  0  0
  -15.2990  -42.3990  -22.9570 C   0  0  0  0  0  0  0  0  0  0  0  0
  -16.8090  -42.3840  -24.8030 C   0  0  0  0  0  0  0  0  0  0  0  0
  -15.6590  -41.8830  -24.2030 C   0  0  0  0  0  0  0  0  0  0  0  0
  -14.9140  -40.8750  -24.7970 N   0  0  0  0  0  0  0  0  0  0  0  0
  -15.2780  -40.2110  -26.0360 C   0  0  0  0  0  0  0  0  0  0  0  0
  -16.3830  -39.2140  -25.8960 C   0  0  0  0  0  0  0  0  0  0  0  0
  -17.3690  -38.9300  -26.7710 C   0  0  0  0  0  0  0  0  0  0  0  0
  -18.2750  -37.9550  -26.4070 N   0  0  0  0  0  0  0  0  0  0  0  0
  -16.5660  -38.2060  -24.4990 S   0  0  0  0  0  0  0  0  0  0  0  0
  -17.9680  -37.4870  -25.2330 C   0  0  0  0  0  0  0  0  0  0  0  0
  -18.7400  -36.4070  -24.5480 C   0  0  0  0  0  0  0  0  0  0  0  0
 15 14  1  0
 14 12  2  0
 12 11  1  0
 11 10  2  0
 10  9  1  0
  9  8  1  0
  8  7  1  0
  7  5  1  0
  5  4  2  0
  4  3  1  0
  3  2  2  0
  2  1  1  0
  6  2  1  0
  7  6  2  0
 13 10  1  0
 14 13  1  0
M  END
>  <id>  (15) 
51

>  <inchikey>  (15) 
SSOIKBIBPGCZFT-UHFFFAOYSA-N

>  <alias>  (15) 
d0615b

>  <smiles>  (15) 
Cc1ncc(CNc2cncc(F)c2)s1

>  <path>  (15) 
/opt/xchem-fragalysis-2/maxwin/BulkDock/TARGETS/Flavi_NS5_RdRp/aligned_files/d0615b/d0615b.pdb

>  <distance_score>  (15) 
nan

>  <energy_score>  (15) 
nan

>  <compound>  (15) 
SSOIKBIBPGCZFT-UHFFFAOYSA-N

>  <compound_id>  (15) 
43

>  <target>  (15) 
Flavi_NS5_RdRp

$$$$
z0041a
     RDKit          3D

 14 15  0  0  0  0  0  0  0  0999 V2000
  -23.7940  -31.6120  -20.1450 O   0  0  0  0  0  0  0  0  0  0  0  0
  -24.9110  -31.1150  -20.2580 C   0  0  0  0  0  0  0  0  0  0  0  0
  -25.5170  -30.9790  -21.4320 N   0  0  0  0  0  0  0  0  0  0  0  0
  -25.4800  -32.0210  -22.4400 C   0  0  0  0  0  0  0  0  0  0  0  0
  -25.6570  -30.6310  -19.0670 C   0  0  0  0  0  0  0  0  0  0  0  0
  -27.0610  -30.2840  -18.9700 C   0  0  0  0  0  0  0  0  0  0  0  0
  -27.3130  -30.0000  -17.6170 C   0  0  0  0  0  0  0  0  0  0  0  0
  -26.1280  -30.1440  -16.9230 N   0  0  0  0  0  0  0  0  0  0  0  0
  -25.9570  -29.9770  -15.4860 C   0  0  0  0  0  0  0  0  0  0  0  0
  -25.1470  -30.5130  -17.8020 C   0  0  0  0  0  0  0  0  0  0  0  0
  -28.1200  -30.2470  -19.8740 C   0  0  0  0  0  0  0  0  0  0  0  0
  -29.4000  -29.9670  -19.4170 C   0  0  0  0  0  0  0  0  0  0  0  0
  -29.6330  -29.7030  -18.0730 C   0  0  0  0  0  0  0  0  0  0  0  0
  -28.5900  -29.7040  -17.1580 C   0  0  0  0  0  0  0  0  0  0  0  0
  4  3  1  0
  3  2  1  0
  2  1  2  0
  5  2  1  0
  5 10  2  0
 10  8  1  0
  9  8  1  0
  8  7  1  0
  7 14  2  0
 14 13  1  0
 13 12  2  0
 12 11  1  0
 11  6  2  0
  6  5  1  0
  7  6  1  0
M  END
>  <id>  (16) 
82

>  <inchikey>  (16) 
OHXYWSIWHXTWCT-UHFFFAOYSA-N

>  <alias>  (16) 
z0041a

>  <smiles>  (16) 
CNC(=O)c1cn(C)c2ccccc12

>  <path>  (16) 
/opt/xchem-fragalysis-2/maxwin/BulkDock/TARGETS/Flavi_NS5_RdRp/aligned_files/z0041a/z0041a.pdb

>  <distance_score>  (16) 
nan

>  <energy_score>  (16) 
nan

>  <compound>  (16) 
OHXYWSIWHXTWCT-UHFFFAOYSA-N

>  <compound_id>  (16) 
68

>  <target>  (16) 
Flavi_NS5_RdRp

$$$$
z0103a
     RDKit          3D

 10 10  0  0  0  0  0  0  0  0999 V2000
  -13.2660  -42.1970  -21.9740 O   0  0  0  0  0  0  0  0  0  0  0  0
  -12.9440  -41.0220  -21.8330 C   0  0  0  0  0  0  0  0  0  0  0  0
  -11.6290  -40.6240  -21.2250 C   0  0  0  0  0  0  0  0  0  0  0  0
  -13.7260  -40.0340  -22.2480 N   0  0  0  0  0  0  0  0  0  0  0  0
  -13.3480  -39.2220  -23.3820 C   0  0  0  0  0  0  0  0  0  0  0  0
  -12.9660  -37.9070  -22.9250 C   0  0  0  0  0  0  0  0  0  0  0  0
  -13.8180  -37.0350  -22.4210 N   0  0  0  0  0  0  0  0  0  0  0  0
  -13.1010  -35.9420  -22.0180 C   0  0  0  0  0  0  0  0  0  0  0  0
  -11.8370  -36.2110  -22.2990 C   0  0  0  0  0  0  0  0  0  0  0  0
  -11.7410  -37.4580  -22.8790 N   0  0  0  0  0  0  0  0  0  0  0  0
  3  2  1  0
  2  1  2  0
  4  2  1  0
  5  4  1  0
  6  5  1  0
  6 10  2  0
 10  9  1  0
  9  8  2  0
  8  7  1  0
  7  6  1  0
M  END
>  <id>  (17) 
84

>  <inchikey>  (17) 
SXKAQLCLHGQXHB-UHFFFAOYSA-N

>  <alias>  (17) 
z0103a

>  <smiles>  (17) 
CC(=O)NCc1ncc[nH]1

>  <path>  (17) 
/opt/xchem-fragalysis-2/maxwin/BulkDock/TARGETS/Flavi_NS5_RdRp/aligned_files/z0103a/z0103a.pdb

>  <distance_score>  (17) 
nan

>  <energy_score>  (17) 
nan

>  <compound>  (17) 
SXKAQLCLHGQXHB-UHFFFAOYSA-N

>  <compound_id>  (17) 
70

>  <target>  (17) 
Flavi_NS5_RdRp

$$$$
z0111a
     RDKit          3D

 12 13  0  0  0  0  0  0  0  0999 V2000
  -25.3030  -31.2440  -20.6040 C   0  0  0  0  0  0  0  0  0  0  0  0
  -26.2370  -30.1530  -20.7810 N   0  0  0  0  0  0  0  0  0  0  0  0
  -27.4370  -30.1020  -20.1780 C   0  0  0  0  0  0  0  0  0  0  0  0
  -27.5310  -30.0830  -18.7350 C   0  0  0  0  0  0  0  0  0  0  0  0
  -28.8350  -30.0110  -18.1720 C   0  0  0  0  0  0  0  0  0  0  0  0
  -29.9450  -29.9760  -19.0390 C   0  0  0  0  0  0  0  0  0  0  0  0
  -29.7370  -29.9860  -20.3820 C   0  0  0  0  0  0  0  0  0  0  0  0
  -28.5250  -30.0410  -20.9520 N   0  0  0  0  0  0  0  0  0  0  0  0
  -26.4230  -30.1010  -17.8430 C   0  0  0  0  0  0  0  0  0  0  0  0
  -26.6070  -30.0480  -16.4900 C   0  0  0  0  0  0  0  0  0  0  0  0
  -27.8780  -29.9700  -15.9560 C   0  0  0  0  0  0  0  0  0  0  0  0
  -28.9740  -29.9500  -16.7680 C   0  0  0  0  0  0  0  0  0  0  0  0
  2  1  1  0
  3  2  1  0
  3  8  2  0
  8  7  1  0
  7  6  2  0
  6  5  1  0
  5 12  2  0
 12 11  1  0
 11 10  2  0
 10  9  1  0
  9  4  2  0
  4  3  1  0
  5  4  1  0
M  END
>  <id>  (18) 
88

>  <inchikey>  (18) 
BILUZSWZYDFPMN-UHFFFAOYSA-N

>  <alias>  (18) 
z0111a

>  <smiles>  (18) 
CNc1nccc2ccccc12

>  <path>  (18) 
/opt/xchem-fragalysis-2/maxwin/BulkDock/TARGETS/Flavi_NS5_RdRp/aligned_files/z0111a/z0111a.pdb

>  <distance_score>  (18) 
nan

>  <energy_score>  (18) 
nan

>  <compound>  (18) 
BILUZSWZYDFPMN-UHFFFAOYSA-N

>  <compound_id>  (18) 
72

>  <target>  (18) 
Flavi_NS5_RdRp

$$$$
z0136a
     RDKit          3D

 13 14  0  0  0  0  0  0  0  0999 V2000
  -24.4750  -30.7000  -17.9950 O   0  0  0  0  0  0  0  0  0  0  0  0
  -24.5730  -31.1190  -19.1440 C   0  0  0  0  0  0  0  0  0  0  0  0
  -23.6490  -32.1690  -19.6880 C   0  0  0  0  0  0  0  0  0  0  0  0
  -25.4890  -30.6470  -20.0290 N   0  0  0  0  0  0  0  0  0  0  0  0
  -26.8500  -30.2880  -19.8390 C   0  0  0  0  0  0  0  0  0  0  0  0
  -27.4570  -30.1630  -18.5820 C   0  0  0  0  0  0  0  0  0  0  0  0
  -26.9100  -30.1910  -17.3180 N   0  0  0  0  0  0  0  0  0  0  0  0
  -27.9120  -29.9830  -16.4060 C   0  0  0  0  0  0  0  0  0  0  0  0
  -29.0990  -29.8200  -17.0450 C   0  0  0  0  0  0  0  0  0  0  0  0
  -28.8410  -29.9300  -18.4440 C   0  0  0  0  0  0  0  0  0  0  0  0
  -29.6130  -29.8020  -19.5990 C   0  0  0  0  0  0  0  0  0  0  0  0
  -29.0160  -29.8700  -20.8460 C   0  0  0  0  0  0  0  0  0  0  0  0
  -27.6570  -30.1120  -20.9650 C   0  0  0  0  0  0  0  0  0  0  0  0
  3  2  1  0
  2  1  2  0
  4  2  1  0
  5  4  1  0
  5 13  2  0
 13 12  1  0
 12 11  2  0
 11 10  1  0
 10  9  1  0
  9  8  2  0
  8  7  1  0
  7  6  1  0
  6  5  1  0
 10  6  2  0
M  END
>  <id>  (19) 
91

>  <inchikey>  (19) 
DCOHDTHCOCZQTO-UHFFFAOYSA-N

>  <alias>  (19) 
z0136a

>  <smiles>  (19) 
CC(=O)Nc1cccc2cc[nH]c12

>  <path>  (19) 
/opt/xchem-fragalysis-2/maxwin/BulkDock/TARGETS/Flavi_NS5_RdRp/aligned_files/z0136a/z0136a.pdb

>  <distance_score>  (19) 
nan

>  <energy_score>  (19) 
nan

>  <compound>  (19) 
DCOHDTHCOCZQTO-UHFFFAOYSA-N

>  <compound_id>  (19) 
73

>  <target>  (19) 
Flavi_NS5_RdRp

$$$$
z0200a
     RDKit          3D

 14 15  0  0  0  0  0  0  0  0999 V2000
  -25.5180  -30.8140  -19.9410 O   0  0  0  0  0  0  0  0  0  0  0  0
  -26.4530  -30.0200  -19.9980 C   0  0  0  0  0  0  0  0  0  0  0  0
  -26.2900  -28.7010  -19.9630 N   0  0  0  0  0  0  0  0  0  0  0  0
  -25.0670  -28.0590  -20.4080 C   0  0  0  0  0  0  0  0  0  0  0  0
  -27.8920  -30.4910  -20.0450 C   0  0  1  0  0  0  0  0  0  0  0  0
  -28.4700  -30.4180  -18.7050 C   0  0  0  0  0  0  0  0  0  0  0  0
  -27.7220  -30.2860  -17.5570 N   0  0  0  0  0  0  0  0  0  0  0  0
  -28.4820  -30.2510  -16.5010 C   0  0  0  0  0  0  0  0  0  0  0  0
  -27.9580  -30.1810  -15.1070 C   0  0  0  0  0  0  0  0  0  0  0  0
  -30.1750  -30.3600  -16.8280 S   0  0  0  0  0  0  0  0  0  0  0  0
  -29.8140  -30.4790  -18.5180 C   0  0  0  0  0  0  0  0  0  0  0  0
  -30.8560  -30.3040  -19.5830 C   0  0  0  0  0  0  0  0  0  0  0  0
  -30.2130  -30.2150  -20.9710 C   0  0  0  0  0  0  0  0  0  0  0  0
  -28.8090  -29.6280  -20.9240 C   0  0  0  0  0  0  0  0  0  0  0  0
  4  3  1  0
  3  2  1  0
  2  1  2  0
  5  2  1  1
  5 14  1  0
 14 13  1  0
 13 12  1  0
 12 11  1  0
 11 10  1  0
 10  8  1  0
  9  8  1  0
  8  7  2  0
  7  6  1  0
  6  5  1  0
 11  6  2  0
M  END
>  <id>  (20) 
100

>  <inchikey>  (20) 
VHNBWPBVIQVVTE-SSDOTTSWSA-N

>  <alias>  (20) 
z0200a

>  <smiles>  (20) 
CNC(=O)[C@@H]1CCCc2sc(C)nc21

>  <path>  (20) 
/opt/xchem-fragalysis-2/maxwin/BulkDock/TARGETS/Flavi_NS5_RdRp/aligned_files/z0200a/z0200a.pdb

>  <distance_score>  (20) 
nan

>  <energy_score>  (20) 
nan

>  <compound>  (20) 
VHNBWPBVIQVVTE-UHFFFAOYSA-N

>  <compound_id>  (20) 
79

>  <target>  (20) 
Flavi_NS5_RdRp

$$$$
z0211a
     RDKit          3D

 14 14  0  0  0  0  0  0  0  0999 V2000
  -26.1990  -31.1140  -22.7050 O   0  0  0  0  0  0  0  0  0  0  0  0
  -25.4400  -31.2080  -21.7450 C   0  0  0  0  0  0  0  0  0  0  0  0
  -24.1640  -31.6450  -21.8600 N   0  0  0  0  0  0  0  0  0  0  0  0
  -23.5970  -32.0810  -23.1290 C   0  0  0  0  0  0  0  0  0  0  0  0
  -22.0380  -31.9840  -23.0990 C   0  0  1  0  0  0  0  0  0  0  0  0
  -21.5440  -31.8850  -21.7560 O   0  0  0  0  0  0  0  0  0  0  0  0
  -21.3930  -33.1630  -23.7940 C   0  0  0  0  0  0  0  0  0  0  0  0
  -25.7870  -30.8530  -20.4680 N   0  0  0  0  0  0  0  0  0  0  0  0
  -27.0380  -30.3840  -20.0010 C   0  0  0  0  0  0  0  0  0  0  0  0
  -27.1570  -30.1750  -18.6330 C   0  0  0  0  0  0  0  0  0  0  0  0
  -28.3980  -29.9090  -18.0800 C   0  0  0  0  0  0  0  0  0  0  0  0
  -29.5160  -29.8390  -18.8790 C   0  0  0  0  0  0  0  0  0  0  0  0
  -29.3970  -30.0030  -20.2420 C   0  0  0  0  0  0  0  0  0  0  0  0
  -28.1630  -30.2660  -20.8110 C   0  0  0  0  0  0  0  0  0  0  0  0
  5  7  1  1
  6  5  1  0
  5  4  1  0
  4  3  1  0
  3  2  1  0
  2  1  2  0
  8  2  1  0
  9  8  1  0
  9 14  2  0
 14 13  1  0
 13 12  2  0
 12 11  1  0
 11 10  2  0
 10  9  1  0
M  END
>  <id>  (21) 
102

>  <inchikey>  (21) 
XEAXHIGGZMUNSO-QMMMGPOBSA-N

>  <alias>  (21) 
z0211a

>  <smiles>  (21) 
C[C@H](O)CNC(=O)Nc1ccccc1

>  <path>  (21) 
/opt/xchem-fragalysis-2/maxwin/BulkDock/TARGETS/Flavi_NS5_RdRp/aligned_files/z0211a/z0211a.pdb

>  <distance_score>  (21) 
nan

>  <energy_score>  (21) 
nan

>  <compound>  (21) 
XEAXHIGGZMUNSO-UHFFFAOYSA-N

>  <compound_id>  (21) 
81

>  <target>  (21) 
Flavi_NS5_RdRp

$$$$
z0215a
     RDKit          3D

 12 13  0  0  0  0  0  0  0  0999 V2000
  -28.0730  -30.6860  -14.1880 F   0  0  0  0  0  0  0  0  0  0  0  0
  -28.0780  -30.4490  -15.5200 C   0  0  0  0  0  0  0  0  0  0  0  0
  -29.2700  -30.2450  -16.1640 C   0  0  0  0  0  0  0  0  0  0  0  0
  -29.3240  -30.0520  -17.4900 N   0  0  0  0  0  0  0  0  0  0  0  0
  -28.1640  -30.0640  -18.1700 C   0  0  0  0  0  0  0  0  0  0  0  0
  -26.9290  -30.2510  -17.5590 C   0  0  0  0  0  0  0  0  0  0  0  0
  -26.8960  -30.4490  -16.1920 C   0  0  0  0  0  0  0  0  0  0  0  0
  -28.2710  -29.9050  -19.6250 C   0  0  0  0  0  0  0  0  0  0  0  0
  -29.4610  -29.8240  -20.2350 N   0  0  0  0  0  0  0  0  0  0  0  0
  -29.1770  -29.6760  -21.5490 N   0  0  0  0  0  0  0  0  0  0  0  0
  -27.8590  -29.6660  -21.7770 C   0  0  0  0  0  0  0  0  0  0  0  0
  -27.2340  -29.8110  -20.5710 C   0  0  0  0  0  0  0  0  0  0  0  0
  2  1  1  0
  2  7  2  0
  7  6  1  0
  6  5  2  0
  5  4  1  0
  4  3  2  0
  3  2  1  0
  8  5  1  0
  8 12  1  0
 12 11  2  0
 11 10  1  0
 10  9  1  0
  9  8  2  0
M  END
>  <id>  (22) 
104

>  <inchikey>  (22) 
ADBMBWBQQBJNNZ-UHFFFAOYSA-N

>  <alias>  (22) 
z0215a

>  <smiles>  (22) 
Fc1ccc(-c2cc[nH]n2)nc1

>  <path>  (22) 
/opt/xchem-fragalysis-2/maxwin/BulkDock/TARGETS/Flavi_NS5_RdRp/aligned_files/z0215a/z0215a.pdb

>  <distance_score>  (22) 
nan

>  <energy_score>  (22) 
nan

>  <compound>  (22) 
ADBMBWBQQBJNNZ-UHFFFAOYSA-N

>  <compound_id>  (22) 
82

>  <target>  (22) 
Flavi_NS5_RdRp

$$$$
z0221a
     RDKit          3D

 18 19  0  0  0  0  0  0  0  0999 V2000
  -25.4080  -27.4780  -21.0560 F   0  0  0  0  0  0  0  0  0  0  0  0
  -25.7410  -28.1430  -22.1890 C   0  0  0  0  0  0  0  0  0  0  0  0
  -25.3090  -27.6380  -23.3910 C   0  0  0  0  0  0  0  0  0  0  0  0
  -25.5500  -28.2750  -24.5430 N   0  0  0  0  0  0  0  0  0  0  0  0
  -26.2310  -29.4240  -24.4820 C   0  0  0  0  0  0  0  0  0  0  0  0
  -26.6990  -29.9870  -23.3080 C   0  0  0  0  0  0  0  0  0  0  0  0
  -26.4620  -29.3240  -22.1060 C   0  0  0  0  0  0  0  0  0  0  0  0
  -27.0190  -29.9400  -20.8600 C   0  0  0  0  0  0  0  0  0  0  0  0
  -26.9940  -31.1560  -20.6880 O   0  0  0  0  0  0  0  0  0  0  0  0
  -27.5210  -29.0760  -19.9520 N   0  0  0  0  0  0  0  0  0  0  0  0
  -28.0240  -29.5100  -18.6960 C   0  0  0  0  0  0  0  0  0  0  0  0
  -27.2170  -29.3670  -17.5620 C   0  0  0  0  0  0  0  0  0  0  0  0
  -25.8040  -28.8510  -17.6610 C   0  0  0  0  0  0  0  0  0  0  0  0
  -29.3200  -30.0320  -18.6040 C   0  0  0  0  0  0  0  0  0  0  0  0
  -29.7990  -30.6560  -19.7130 O   0  0  0  0  0  0  0  0  0  0  0  0
  -29.8190  -30.3850  -17.3540 C   0  0  0  0  0  0  0  0  0  0  0  0
  -29.0390  -30.2280  -16.2220 C   0  0  0  0  0  0  0  0  0  0  0  0
  -27.7530  -29.7330  -16.3280 C   0  0  0  0  0  0  0  0  0  0  0  0
 13 12  1  0
 12 18  2  0
 18 17  1  0
 17 16  2  0
 16 14  1  0
 15 14  1  0
 14 11  2  0
 12 11  1  0
 11 10  1  0
 10  8  1  0
  9  8  2  0
  8  7  1  0
  7  6  2  0
  6  5  1  0
  5  4  2  0
  4  3  1  0
  3  2  2  0
  7  2  1  0
  2  1  1  0
M  END
>  <id>  (23) 
105

>  <inchikey>  (23) 
PDGRBWXZTBUJKY-UHFFFAOYSA-N

>  <alias>  (23) 
z0221a

>  <smiles>  (23) 
Cc1cccc(O)c1NC(=O)c1ccncc1F

>  <path>  (23) 
/opt/xchem-fragalysis-2/maxwin/BulkDock/TARGETS/Flavi_NS5_RdRp/aligned_files/z0221a/z0221a.pdb

>  <distance_score>  (23) 
nan

>  <energy_score>  (23) 
nan

>  <compound>  (23) 
PDGRBWXZTBUJKY-UHFFFAOYSA-N

>  <compound_id>  (23) 
83

>  <target>  (23) 
Flavi_NS5_RdRp

$$$$
z0309a
     RDKit          3D

 14 14  0  0  0  0  0  0  0  0999 V2000
  -23.6540  -31.1630  -17.6210 O   0  0  0  0  0  0  0  0  0  0  0  0
  -24.2050  -31.3870  -18.6950 C   0  0  0  0  0  0  0  0  0  0  0  0
  -23.5280  -32.2260  -19.7870 C   0  0  0  0  0  0  0  0  0  0  0  0
  -22.9580  -33.4130  -19.1580 N   0  0  0  0  0  0  0  0  0  0  0  0
  -25.4280  -30.9280  -19.0280 N   0  0  0  0  0  0  0  0  0  0  0  0
  -26.4500  -30.4840  -18.1640 C   0  0  0  0  0  0  0  0  0  0  0  0
  -27.5480  -29.8970  -18.7640 C   0  0  0  0  0  0  0  0  0  0  0  0
  -27.4150  -29.6780  -20.1030 O   0  0  0  0  0  0  0  0  0  0  0  0
  -28.0880  -30.5600  -20.9790 C   0  0  0  0  0  0  0  0  0  0  0  0
  -26.4280  -30.6370  -16.7850 C   0  0  0  0  0  0  0  0  0  0  0  0
  -27.5020  -30.2330  -16.0070 C   0  0  0  0  0  0  0  0  0  0  0  0
  -27.4680  -30.3860  -14.5070 C   0  0  0  0  0  0  0  0  0  0  0  0
  -28.6030  -29.6790  -16.6400 C   0  0  0  0  0  0  0  0  0  0  0  0
  -28.6380  -29.5060  -18.0110 C   0  0  0  0  0  0  0  0  0  0  0  0
  9  8  1  0
  8  7  1  0
  7 14  2  0
 14 13  1  0
 13 11  2  0
 12 11  1  0
 11 10  1  0
 10  6  2  0
  7  6  1  0
  6  5  1  0
  5  2  1  0
  2  1  2  0
  3  2  1  0
  4  3  1  0
M  END
>  <id>  (24) 
113

>  <inchikey>  (24) 
SRFLDWOWAGQZAD-UHFFFAOYSA-N

>  <alias>  (24) 
z0309a

>  <smiles>  (24) 
COc1ccc(C)cc1NC(=O)CN

>  <path>  (24) 
/opt/xchem-fragalysis-2/maxwin/BulkDock/TARGETS/Flavi_NS5_RdRp/aligned_files/z0309a/z0309a.pdb

>  <distance_score>  (24) 
nan

>  <energy_score>  (24) 
nan

>  <compound>  (24) 
SRFLDWOWAGQZAD-UHFFFAOYSA-N

>  <compound_id>  (24) 
88

>  <target>  (24) 
Flavi_NS5_RdRp

$$$$
z0364a
     RDKit          3D

 14 15  0  0  0  0  0  0  0  0999 V2000
  -21.5580  -27.4770  -20.1280 O   0  0  0  0  0  0  0  0  0  0  0  0
  -22.4970  -26.8890  -19.6080 C   0  0  0  0  0  0  0  0  0  0  0  0
  -22.3030  -25.6090  -18.8520 C   0  0  0  0  0  0  0  0  0  0  0  0
  -23.7430  -27.3820  -19.6330 N   0  0  0  0  0  0  0  0  0  0  0  0
  -24.9250  -26.5790  -19.9430 C   0  0  2  0  0  0  0  0  0  0  0  0
  -26.0820  -26.9280  -19.0170 C   0  0  0  0  0  0  0  0  0  0  0  0
  -26.7870  -28.2090  -19.4080 C   0  0  0  0  0  0  0  0  0  0  0  0
  -26.8480  -28.6100  -20.7500 C   0  0  0  0  0  0  0  0  0  0  0  0
  -26.0350  -27.9970  -21.6530 N   0  0  0  0  0  0  0  0  0  0  0  0
  -25.3240  -26.7650  -21.3970 C   0  0  0  0  0  0  0  0  0  0  0  0
  -27.5350  -28.9200  -18.4700 C   0  0  0  0  0  0  0  0  0  0  0  0
  -28.3720  -29.9530  -18.8610 C   0  0  0  0  0  0  0  0  0  0  0  0
  -28.4630  -30.3030  -20.1880 C   0  0  0  0  0  0  0  0  0  0  0  0
  -27.6980  -29.6470  -21.1390 C   0  0  0  0  0  0  0  0  0  0  0  0
  3  2  1  0
  2  1  2  0
  4  2  1  0
  5  4  1  1
  5 10  1  0
 10  9  1  0
  9  8  1  0
  8 14  2  0
 14 13  1  0
 13 12  2  0
 12 11  1  0
 11  7  2  0
  8  7  1  0
  7  6  1  0
  6  5  1  0
M  END
>  <id>  (25) 
118

>  <inchikey>  (25) 
HCEIEGOMGWEGOJ-SNVBAGLBSA-N

>  <alias>  (25) 
z0364a

>  <smiles>  (25) 
CC(=O)N[C@H]1CNc2ccccc2C1

>  <path>  (25) 
/opt/xchem-fragalysis-2/maxwin/BulkDock/TARGETS/Flavi_NS5_RdRp/aligned_files/z0364a/z0364a.pdb

>  <distance_score>  (25) 
nan

>  <energy_score>  (25) 
nan

>  <compound>  (25) 
HCEIEGOMGWEGOJ-UHFFFAOYSA-N

>  <compound_id>  (25) 
92

>  <target>  (25) 
Flavi_NS5_RdRp

$$$$
z0384a
     RDKit          3D

 11 11  0  0  0  0  0  0  0  0999 V2000
  -26.1330  -30.9650  -22.6040 O   0  0  0  0  0  0  0  0  0  0  0  0
  -26.3470  -30.8210  -21.4090 C   0  0  0  0  0  0  0  0  0  0  0  0
  -25.2710  -31.1060  -20.3880 C   0  0  0  0  0  0  0  0  0  0  0  0
  -23.9460  -31.5700  -21.0010 C   0  0  0  0  0  0  0  0  0  0  0  0
  -27.5950  -30.4510  -20.9770 N   0  0  0  0  0  0  0  0  0  0  0  0
  -27.9590  -30.2470  -19.6650 C   0  0  0  0  0  0  0  0  0  0  0  0
  -29.5920  -29.8580  -19.2640 S   0  0  0  0  0  0  0  0  0  0  0  0
  -29.1260  -29.8320  -17.6060 C   0  0  0  0  0  0  0  0  0  0  0  0
  -27.8110  -30.1120  -17.4610 C   0  0  0  0  0  0  0  0  0  0  0  0
  -27.1350  -30.3400  -18.6510 N   0  0  0  0  0  0  0  0  0  0  0  0
  -27.0710  -30.2360  -16.1650 C   0  0  0  0  0  0  0  0  0  0  0  0
  4  3  1  0
  3  2  1  0
  2  1  2  0
  5  2  1  0
  6  5  1  0
  6 10  2  0
 10  9  1  0
 11  9  1  0
  9  8  2  0
  8  7  1  0
  7  6  1  0
M  END
>  <id>  (26) 
120

>  <inchikey>  (26) 
AIOZNYOAFODHNA-UHFFFAOYSA-N

>  <alias>  (26) 
z0384a

>  <smiles>  (26) 
CCC(=O)Nc1nc(C)cs1

>  <path>  (26) 
/opt/xchem-fragalysis-2/maxwin/BulkDock/TARGETS/Flavi_NS5_RdRp/aligned_files/z0384a/z0384a.pdb

>  <distance_score>  (26) 
nan

>  <energy_score>  (26) 
nan

>  <compound>  (26) 
AIOZNYOAFODHNA-UHFFFAOYSA-N

>  <compound_id>  (26) 
94

>  <target>  (26) 
Flavi_NS5_RdRp

$$$$
z0496a
     RDKit          3D

 15 16  0  0  0  0  0  0  0  0999 V2000
  -25.9590  -28.7680  -25.1600 N   0  0  0  0  0  0  0  0  0  0  0  0
  -26.0420  -28.4970  -23.8550 C   0  0  0  0  0  0  0  0  0  0  0  0
  -25.1620  -27.1780  -23.1240 S   0  0  0  0  0  0  0  0  0  0  0  0
  -26.8550  -29.1130  -23.0370 N   0  0  0  0  0  0  0  0  0  0  0  0
  -26.8350  -28.5260  -21.7860 C   0  0  0  0  0  0  0  0  0  0  0  0
  -26.0000  -27.4500  -21.6360 C   0  0  0  0  0  0  0  0  0  0  0  0
  -25.8900  -26.4610  -20.5040 C   0  0  0  0  0  0  0  0  0  0  0  0
  -27.7430  -29.0820  -20.7730 C   0  0  0  0  0  0  0  0  0  0  0  0
  -29.0480  -29.3700  -21.1360 C   0  0  0  0  0  0  0  0  0  0  0  0
  -29.9530  -29.8900  -20.2210 C   0  0  0  0  0  0  0  0  0  0  0  0
  -31.3530  -30.2010  -20.6760 C   0  0  0  0  0  0  0  0  0  0  0  0
  -29.5450  -30.1300  -18.9000 C   0  0  0  0  0  0  0  0  0  0  0  0
  -30.5170  -30.6340  -17.8710 C   0  0  0  0  0  0  0  0  0  0  0  0
  -28.2350  -29.8430  -18.5440 C   0  0  0  0  0  0  0  0  0  0  0  0
  -27.3440  -29.3200  -19.4600 C   0  0  0  0  0  0  0  0  0  0  0  0
  7  6  1  0
  6  3  1  0
  3  2  1  0
  2  1  1  0
  4  2  2  0
  5  4  1  0
  6  5  2  0
  8  5  1  0
  8 15  2  0
 15 14  1  0
 14 12  2  0
 13 12  1  0
 12 10  1  0
 11 10  1  0
 10  9  2  0
  9  8  1  0
M  END
>  <id>  (27) 
136

>  <inchikey>  (27) 
TYFLPTHRTUYMKD-UHFFFAOYSA-N

>  <alias>  (27) 
z0496a

>  <smiles>  (27) 
Cc1ccc(-c2nc(N)sc2C)cc1C

>  <path>  (27) 
/opt/xchem-fragalysis-2/maxwin/BulkDock/TARGETS/Flavi_NS5_RdRp/aligned_files/z0496a/z0496a.pdb

>  <distance_score>  (27) 
nan

>  <energy_score>  (27) 
nan

>  <compound>  (27) 
TYFLPTHRTUYMKD-UHFFFAOYSA-N

>  <compound_id>  (27) 
104

>  <target>  (27) 
Flavi_NS5_RdRp

$$$$
z0521a
     RDKit          3D

 15 16  0  0  0  0  0  0  0  0999 V2000
  -23.6500  -32.2510  -21.0470 C   0  0  0  0  0  0  0  0  0  0  0  0
  -24.9600  -31.6670  -20.6230 C   0  0  0  0  0  0  0  0  0  0  0  0
  -25.2400  -31.5020  -19.2520 C   0  0  0  0  0  0  0  0  0  0  0  0
  -25.7790  -31.2700  -21.5910 N   0  0  0  0  0  0  0  0  0  0  0  0
  -26.9060  -30.6550  -21.1980 C   0  0  0  0  0  0  0  0  0  0  0  0
  -27.2160  -30.4560  -19.8740 N   0  0  0  0  0  0  0  0  0  0  0  0
  -28.4100  -29.7860  -19.7700 N   0  0  0  0  0  0  0  0  0  0  0  0
  -28.7230  -29.6260  -21.0370 C   0  0  0  0  0  0  0  0  0  0  0  0
  -27.8600  -30.1260  -21.9580 N   0  0  0  0  0  0  0  0  0  0  0  0
  -26.4000  -30.8680  -18.8430 C   0  0  0  0  0  0  0  0  0  0  0  0
  -26.7210  -30.6310  -17.5040 N   0  0  0  0  0  0  0  0  0  0  0  0
  -25.6540  -30.7520  -16.4980 C   0  0  0  0  0  0  0  0  0  0  0  0
  -24.5430  -29.7450  -16.7020 C   0  0  0  0  0  0  0  0  0  0  0  0
  -27.8750  -29.8010  -17.1030 C   0  0  0  0  0  0  0  0  0  0  0  0
  -29.1800  -30.5550  -17.1140 C   0  0  0  0  0  0  0  0  0  0  0  0
 15 14  1  0
 14 11  1  0
 12 11  1  0
 13 12  1  0
 11 10  1  0
 10  3  2  0
  3  2  1  0
  2  1  1  0
  4  2  2  0
  5  4  1  0
  5  9  2  0
  9  8  1  0
  8  7  2  0
  7  6  1  0
 10  6  1  0
  6  5  1  0
M  END
>  <id>  (28) 
141

>  <inchikey>  (28) 
GSNOZLZNQMLSKJ-UHFFFAOYSA-N

>  <alias>  (28) 
z0521a

>  <smiles>  (28) 
CCN(CC)c1cc(C)nc2ncnn12

>  <path>  (28) 
/opt/xchem-fragalysis-2/maxwin/BulkDock/TARGETS/Flavi_NS5_RdRp/aligned_files/z0521a/z0521a.pdb

>  <distance_score>  (28) 
nan

>  <energy_score>  (28) 
nan

>  <compound>  (28) 
GSNOZLZNQMLSKJ-UHFFFAOYSA-N

>  <compound_id>  (28) 
107

>  <target>  (28) 
Flavi_NS5_RdRp

$$$$
z0581a
     RDKit          3D

 14 15  0  0  0  0  0  0  0  0999 V2000
  -26.7400  -32.6010  -20.4590 O   0  0  0  0  0  0  0  0  0  0  0  0
  -26.0810  -31.5830  -20.3280 C   0  0  0  0  0  0  0  0  0  0  0  0
  -24.5830  -31.6270  -20.2760 C   0  0  0  0  0  0  0  0  0  0  0  0
  -26.6890  -30.3820  -20.1940 N   0  0  0  0  0  0  0  0  0  0  0  0
  -26.5690  -29.6140  -18.9480 C   0  0  0  0  0  0  0  0  0  0  0  0
  -27.6510  -29.9690  -17.9560 C   0  0  0  0  0  0  0  0  0  0  0  0
  -27.3570  -29.9190  -16.5950 C   0  0  0  0  0  0  0  0  0  0  0  0
  -28.3260  -30.1930  -15.6470 C   0  0  0  0  0  0  0  0  0  0  0  0
  -29.6050  -30.5180  -16.0390 C   0  0  0  0  0  0  0  0  0  0  0  0
  -29.9270  -30.5860  -17.3840 C   0  0  0  0  0  0  0  0  0  0  0  0
  -28.9520  -30.3250  -18.3320 C   0  0  0  0  0  0  0  0  0  0  0  0
  -29.3330  -30.5220  -19.6470 O   0  0  0  0  0  0  0  0  0  0  0  0
  -28.9520  -29.5270  -20.6230 C   0  0  0  0  0  0  0  0  0  0  0  0
  -27.5780  -29.7750  -21.1880 C   0  0  0  0  0  0  0  0  0  0  0  0
  3  2  1  0
  2  1  2  0
  4  2  1  0
  4 14  1  0
 14 13  1  0
 13 12  1  0
 12 11  1  0
 11 10  2  0
 10  9  1  0
  9  8  2  0
  8  7  1  0
  7  6  2  0
 11  6  1  0
  6  5  1  0
  5  4  1  0
M  END
>  <id>  (29) 
144

>  <inchikey>  (29) 
SCYVZWVJHDZYSQ-UHFFFAOYSA-N

>  <alias>  (29) 
z0581a

>  <smiles>  (29) 
CC(=O)N1CCOc2ccccc2C1

>  <path>  (29) 
/opt/xchem-fragalysis-2/maxwin/BulkDock/TARGETS/Flavi_NS5_RdRp/aligned_files/z0581a/z0581a.pdb

>  <distance_score>  (29) 
nan

>  <energy_score>  (29) 
nan

>  <compound>  (29) 
SCYVZWVJHDZYSQ-UHFFFAOYSA-N

>  <compound_id>  (29) 
109

>  <target>  (29) 
Flavi_NS5_RdRp

$$$$
z0628a
     RDKit          3D

 10 10  0  0  0  0  0  0  0  0999 V2000
  -29.1830  -29.3890  -20.8360 O   0  0  0  0  0  0  0  0  0  0  0  0
  -28.1970  -29.5270  -20.1600 C   0  0  0  0  0  0  0  0  0  0  0  0
  -26.9720  -29.6660  -20.6670 O   0  0  0  0  0  0  0  0  0  0  0  0
  -26.4790  -31.0340  -20.7950 C   0  0  0  0  0  0  0  0  0  0  0  0
  -26.0580  -31.2330  -22.1800 C   0  0  0  0  0  0  0  0  0  0  0  0
  -28.1980  -29.5800  -18.6890 C   0  0  0  0  0  0  0  0  0  0  0  0
  -27.1200  -29.2890  -17.8670 C   0  0  0  0  0  0  0  0  0  0  0  0
  -27.5350  -29.4600  -16.6080 N   0  0  0  0  0  0  0  0  0  0  0  0
  -28.8280  -29.8460  -16.5440 N   0  0  0  0  0  0  0  0  0  0  0  0
  -29.2380  -29.9220  -17.8060 C   0  0  0  0  0  0  0  0  0  0  0  0
  5  4  1  0
  4  3  1  0
  3  2  1  0
  2  1  2  0
  6  2  1  0
  6 10  1  0
 10  9  2  0
  9  8  1  0
  8  7  1  0
  7  6  2  0
M  END
>  <id>  (30) 
150

>  <inchikey>  (30) 
KACZQOKEFKFNDB-UHFFFAOYSA-N

>  <alias>  (30) 
z0628a

>  <smiles>  (30) 
CCOC(=O)c1cn[nH]c1

>  <path>  (30) 
/opt/xchem-fragalysis-2/maxwin/BulkDock/TARGETS/Flavi_NS5_RdRp/aligned_files/z0628a/z0628a.pdb

>  <distance_score>  (30) 
nan

>  <energy_score>  (30) 
nan

>  <compound>  (30) 
KACZQOKEFKFNDB-UHFFFAOYSA-N

>  <compound_id>  (30) 
112

>  <target>  (30) 
Flavi_NS5_RdRp

$$$$
z0637a
     RDKit          3D

 14 15  0  0  0  0  0  0  0  0999 V2000
  -29.6920  -30.0390  -19.3490 C   0  0  0  0  0  0  0  0  0  0  0  0
  -28.5950  -29.8640  -18.3510 C   0  0  0  0  0  0  0  0  0  0  0  0
  -27.3390  -29.9320  -18.8240 N   0  0  0  0  0  0  0  0  0  0  0  0
  -26.3240  -29.9050  -17.9430 C   0  0  0  0  0  0  0  0  0  0  0  0
  -26.5060  -29.7820  -16.5610 C   0  0  0  0  0  0  0  0  0  0  0  0
  -27.8040  -29.6930  -16.0930 C   0  0  0  0  0  0  0  0  0  0  0  0
  -28.8610  -29.7290  -16.9880 C   0  0  0  0  0  0  0  0  0  0  0  0
  -25.0850  -30.1020  -18.4480 N   0  0  0  0  0  0  0  0  0  0  0  0
  -24.6730  -31.3810  -18.9680 C   0  0  0  0  0  0  0  0  0  0  0  0
  -23.2240  -31.6790  -18.6300 C   0  0  2  0  0  0  0  0  0  0  0  0
  -22.7780  -33.0850  -19.0340 C   0  0  0  0  0  0  0  0  0  0  0  0
  -21.9460  -33.6580  -17.9330 N   0  0  0  0  0  0  0  0  0  0  0  0
  -21.7130  -32.5810  -16.9560 C   0  0  0  0  0  0  0  0  0  0  0  0
  -22.9510  -31.6590  -17.1210 C   0  0  0  0  0  0  0  0  0  0  0  0
  2  1  1  0
  2  7  2  0
  7  6  1  0
  6  5  2  0
  5  4  1  0
  8  4  1  0
  9  8  1  0
 10  9  1  1
 10 14  1  0
 14 13  1  0
 13 12  1  0
 12 11  1  0
 11 10  1  0
  4  3  2  0
  3  2  1  0
M  END
>  <id>  (31) 
151

>  <inchikey>  (31) 
GOGVDMSQODUATE-JTQLQIEISA-N

>  <alias>  (31) 
z0637a

>  <smiles>  (31) 
Cc1cccc(NC[C@H]2CCNC2)n1

>  <path>  (31) 
/opt/xchem-fragalysis-2/maxwin/BulkDock/TARGETS/Flavi_NS5_RdRp/aligned_files/z0637a/z0637a.pdb

>  <distance_score>  (31) 
nan

>  <energy_score>  (31) 
nan

>  <compound>  (31) 
GOGVDMSQODUATE-UHFFFAOYSA-N

>  <compound_id>  (31) 
113

>  <target>  (31) 
Flavi_NS5_RdRp

$$$$
z0653a
     RDKit          3D

 13 14  0  0  0  0  0  0  0  0999 V2000
  -24.1490  -31.8770  -18.9320 O   0  0  0  0  0  0  0  0  0  0  0  0
  -25.5230  -31.9770  -19.3000 C   0  0  0  0  0  0  0  0  0  0  0  0
  -25.8440  -30.9390  -20.3670 C   0  0  1  0  0  0  0  0  0  0  0  0
  -26.3600  -31.5780  -21.6530 C   0  0  0  0  0  0  0  0  0  0  0  0
  -26.7580  -30.3950  -22.4550 C   0  0  0  0  0  0  0  0  0  0  0  0
  -27.5210  -29.5230  -21.4840 C   0  0  0  0  0  0  0  0  0  0  0  0
  -26.9070  -29.8150  -20.0970 C   0  0  1  0  0  0  0  0  0  0  0  0
  -27.9250  -30.2220  -19.0740 C   0  0  0  0  0  0  0  0  0  0  0  0
  -29.0920  -30.9680  -19.2680 C   0  0  0  0  0  0  0  0  0  0  0  0
  -29.7210  -31.2050  -18.1370 N   0  0  0  0  0  0  0  0  0  0  0  0
  -28.9580  -30.6050  -17.1970 N   0  0  0  0  0  0  0  0  0  0  0  0
  -29.3110  -30.7140  -15.7880 C   0  0  0  0  0  0  0  0  0  0  0  0
  -27.8870  -29.9990  -17.7240 C   0  0  0  0  0  0  0  0  0  0  0  0
  2  1  1  0
  3  2  1  1
  3  7  1  0
  7  8  1  1
  8 13  2  0
 13 11  1  0
 12 11  1  0
 11 10  1  0
 10  9  2  0
  9  8  1  0
  7  6  1  0
  6  5  1  0
  5  4  1  0
  4  3  1  0
M  END
>  <id>  (32) 
153

>  <inchikey>  (32) 
FTZBADNQLNPVCE-PSASIEDQSA-N

>  <alias>  (32) 
z0653a

>  <smiles>  (32) 
Cn1cc([C@@H]2CCC[C@@H]2CO)cn1

>  <path>  (32) 
/opt/xchem-fragalysis-2/maxwin/BulkDock/TARGETS/Flavi_NS5_RdRp/aligned_files/z0653a/z0653a.pdb

>  <distance_score>  (32) 
nan

>  <energy_score>  (32) 
nan

>  <compound>  (32) 
FTZBADNQLNPVCE-UHFFFAOYSA-N

>  <compound_id>  (32) 
115

>  <target>  (32) 
Flavi_NS5_RdRp

$$$$
z0767a
     RDKit          3D

  9  9  0  0  0  0  0  0  0  0999 V2000
  -26.1530  -62.2180   -3.3860 Br  0  0  0  0  0  0  0  0  0  0  0  0
  -25.5440  -61.0300   -2.0830 C   0  0  0  0  0  0  0  0  0  0  0  0
  -25.4190  -59.6550   -2.1810 C   0  0  0  0  0  0  0  0  0  0  0  0
  -24.8590  -59.1600   -1.0920 N   0  0  0  0  0  0  0  0  0  0  0  0
  -24.6370  -60.2380   -0.3010 N   0  0  0  0  0  0  0  0  0  0  0  0
  -25.0590  -61.3710   -0.8640 C   0  0  0  0  0  0  0  0  0  0  0  0
  -23.9540  -60.1020    0.9830 C   0  0  0  0  0  0  0  0  0  0  0  0
  -22.7630  -59.1600    0.9410 C   0  0  0  0  0  0  0  0  0  0  0  0
  -21.6660  -59.7420    0.2370 O   0  0  0  0  0  0  0  0  0  0  0  0
  2  1  1  0
  2  6  2  0
  6  5  1  0
  7  5  1  0
  8  7  1  0
  9  8  1  0
  5  4  1  0
  4  3  2  0
  3  2  1  0
M  END
>  <id>  (33) 
163

>  <inchikey>  (33) 
REUWXYIZJBMWPB-UHFFFAOYSA-N

>  <alias>  (33) 
z0767a

>  <smiles>  (33) 
OCCn1cc(Br)cn1

>  <path>  (33) 
/opt/xchem-fragalysis-2/maxwin/BulkDock/TARGETS/Flavi_NS5_RdRp/aligned_files/z0767a/z0767a.pdb

>  <distance_score>  (33) 
nan

>  <energy_score>  (33) 
nan

>  <compound>  (33) 
REUWXYIZJBMWPB-UHFFFAOYSA-N

>  <compound_id>  (33) 
122

>  <target>  (33) 
Flavi_NS5_RdRp

$$$$
z0875c
     RDKit          3D

  7  7  0  0  0  0  0  0  0  0999 V2000
  -13.2970  -44.4980  -20.8500 N   0  0  0  0  0  0  0  0  0  0  0  0
  -12.9480  -43.4330  -21.1000 C   0  0  0  0  0  0  0  0  0  0  0  0
  -12.5670  -42.0860  -21.4400 C   0  0  0  0  0  0  0  0  0  0  0  0
  -11.4280  -41.4770  -20.9270 N   0  0  0  0  0  0  0  0  0  0  0  0
  -11.4740  -40.2420  -21.4030 C   0  0  0  0  0  0  0  0  0  0  0  0
  -12.5480  -40.0400  -22.1920 N   0  0  0  0  0  0  0  0  0  0  0  0
  -13.2460  -41.2020  -22.2300 C   0  0  0  0  0  0  0  0  0  0  0  0
  2  1  3  0
  3  2  1  0
  3  7  2  0
  7  6  1  0
  6  5  1  0
  5  4  2  0
  4  3  1  0
M  END
>  <id>  (34) 
170

>  <inchikey>  (34) 
NWVGXXPWOYZODV-UHFFFAOYSA-N

>  <alias>  (34) 
z0875c

>  <smiles>  (34) 
N#Cc1c[nH]cn1

>  <path>  (34) 
/opt/xchem-fragalysis-2/maxwin/BulkDock/TARGETS/Flavi_NS5_RdRp/aligned_files/z0875c/z0875c.pdb

>  <distance_score>  (34) 
nan

>  <energy_score>  (34) 
nan

>  <compound>  (34) 
NWVGXXPWOYZODV-UHFFFAOYSA-N

>  <compound_id>  (34) 
126

>  <target>  (34) 
Flavi_NS5_RdRp

$$$$
z0881a
     RDKit          3D

 12 13  0  0  0  0  0  0  0  0999 V2000
  -28.8040  -29.7870  -15.6710 N   0  0  0  0  0  0  0  0  0  0  0  0
  -28.2740  -29.9650  -16.8810 C   0  0  0  0  0  0  0  0  0  0  0  0
  -26.8810  -30.1890  -17.0480 C   0  0  0  0  0  0  0  0  0  0  0  0
  -25.9270  -30.2580  -15.8840 C   0  0  0  0  0  0  0  0  0  0  0  0
  -29.1380  -29.9450  -17.9050 N   0  0  0  0  0  0  0  0  0  0  0  0
  -28.6580  -30.0910  -19.1790 C   0  0  0  0  0  0  0  0  0  0  0  0
  -27.2910  -30.2840  -19.4410 C   0  0  0  0  0  0  0  0  0  0  0  0
  -26.4240  -30.3340  -18.3360 C   0  0  0  0  0  0  0  0  0  0  0  0
  -29.5580  -29.9940  -20.2660 C   0  0  0  0  0  0  0  0  0  0  0  0
  -29.0980  -30.0740  -21.5480 C   0  0  0  0  0  0  0  0  0  0  0  0
  -27.7510  -30.2710  -21.8060 C   0  0  0  0  0  0  0  0  0  0  0  0
  -26.8580  -30.3810  -20.7830 C   0  0  0  0  0  0  0  0  0  0  0  0
  4  3  1  0
  3  8  2  0
  8  7  1  0
  7 12  2  0
 12 11  1  0
 11 10  2  0
 10  9  1  0
  9  6  2  0
  7  6  1  0
  6  5  1  0
  5  2  2  0
  3  2  1  0
  2  1  1  0
M  END
>  <id>  (35) 
173

>  <inchikey>  (35) 
NCZOVCDTUUZEEA-UHFFFAOYSA-N

>  <alias>  (35) 
z0881a

>  <smiles>  (35) 
Cc1cc2ccccc2nc1N

>  <path>  (35) 
/opt/xchem-fragalysis-2/maxwin/BulkDock/TARGETS/Flavi_NS5_RdRp/aligned_files/z0881a/z0881a.pdb

>  <distance_score>  (35) 
nan

>  <energy_score>  (35) 
nan

>  <compound>  (35) 
NCZOVCDTUUZEEA-UHFFFAOYSA-N

>  <compound_id>  (35) 
127

>  <target>  (35) 
Flavi_NS5_RdRp

$$$$
z0892b
     RDKit          3D

 15 16  0  0  0  0  0  0  0  0999 V2000
  -26.1990  -62.1730   -3.2400 C   0  0  0  0  0  0  0  0  0  0  0  0
  -27.0820  -61.0520   -2.8510 C   0  0  0  0  0  0  0  0  0  0  0  0
  -26.3400  -59.7710   -2.5430 C   0  0  0  0  0  0  0  0  0  0  0  0
  -25.5160  -59.6510   -1.4330 C   0  0  0  0  0  0  0  0  0  0  0  0
  -24.8310  -58.4800   -1.1760 C   0  0  0  0  0  0  0  0  0  0  0  0
  -24.9810  -57.3860   -2.0200 C   0  0  0  0  0  0  0  0  0  0  0  0
  -25.7960  -57.5010   -3.1310 C   0  0  0  0  0  0  0  0  0  0  0  0
  -26.4660  -58.6790   -3.3850 C   0  0  0  0  0  0  0  0  0  0  0  0
  -24.3690  -56.1670   -1.7280 N   0  0  0  0  0  0  0  0  0  0  0  0
  -24.5600  -54.9020   -1.4220 C   0  0  0  0  0  0  0  0  0  0  0  0
  -26.2870  -54.9080   -1.1040 S   0  0  0  0  0  0  0  0  0  0  0  0
  -26.5770  -53.2010   -0.6610 C   0  0  0  0  0  0  0  0  0  0  0  0
  -25.5120  -52.2440   -1.1560 C   0  0  0  0  0  0  0  0  0  0  0  0
  -24.0700  -52.6250   -0.9480 C   0  0  0  0  0  0  0  0  0  0  0  0
  -23.6960  -53.9840   -1.3440 N   0  0  0  0  0  0  0  0  0  0  0  0
  2  1  1  0
  3  2  1  0
  3  8  2  0
  8  7  1  0
  7  6  2  0
  9  6  1  0
 10  9  1  0
 10 15  2  0
 15 14  1  0
 14 13  1  0
 13 12  1  0
 12 11  1  0
 11 10  1  0
  6  5  1  0
  5  4  2  0
  4  3  1  0
M  END
>  <id>  (36) 
174

>  <inchikey>  (36) 
OSKCNZZSIHVFTH-UHFFFAOYSA-N

>  <alias>  (36) 
z0892b

>  <smiles>  (36) 
CCc1ccc(NC2=NCCCS2)cc1

>  <path>  (36) 
/opt/xchem-fragalysis-2/maxwin/BulkDock/TARGETS/Flavi_NS5_RdRp/aligned_files/z0892b/z0892b.pdb

>  <distance_score>  (36) 
nan

>  <energy_score>  (36) 
nan

>  <compound>  (36) 
OSKCNZZSIHVFTH-UHFFFAOYSA-N

>  <compound_id>  (36) 
128

>  <target>  (36) 
Flavi_NS5_RdRp

$$$$
z0936a
     RDKit          3D

 12 13  0  0  0  0  0  0  0  0999 V2000
  -31.0190  -29.9040  -21.3950 C   0  0  0  0  0  0  0  0  0  0  0  0
  -29.9580  -29.9490  -20.3520 C   0  0  0  0  0  0  0  0  0  0  0  0
  -28.6590  -29.9330  -20.6850 N   0  0  0  0  0  0  0  0  0  0  0  0
  -27.8580  -29.9570  -19.6090 N   0  0  0  0  0  0  0  0  0  0  0  0
  -28.6830  -29.9820  -18.5540 C   0  0  0  0  0  0  0  0  0  0  0  0
  -30.0220  -29.9890  -18.9800 C   0  0  0  0  0  0  0  0  0  0  0  0
  -28.1440  -29.9490  -17.1880 C   0  0  0  0  0  0  0  0  0  0  0  0
  -28.9900  -29.8360  -16.0960 C   0  0  0  0  0  0  0  0  0  0  0  0
  -28.4730  -29.7820  -14.8130 C   0  0  0  0  0  0  0  0  0  0  0  0
  -27.1140  -29.8360  -14.6100 C   0  0  0  0  0  0  0  0  0  0  0  0
  -26.2690  -29.9480  -15.6850 C   0  0  0  0  0  0  0  0  0  0  0  0
  -26.7760  -30.0080  -16.9700 C   0  0  0  0  0  0  0  0  0  0  0  0
  2  1  1  0
  2  6  2  0
  6  5  1  0
  5  4  2  0
  4  3  1  0
  3  2  1  0
  7  5  1  0
  7 12  2  0
 12 11  1  0
 11 10  2  0
 10  9  1  0
  9  8  2  0
  8  7  1  0
M  END
>  <id>  (37) 
196

>  <inchikey>  (37) 
QHRSESMSOJZMCO-UHFFFAOYSA-N

>  <alias>  (37) 
z0936a

>  <smiles>  (37) 
Cc1cc(-c2ccccc2)n[nH]1

>  <path>  (37) 
/opt/xchem-fragalysis-2/maxwin/BulkDock/TARGETS/Flavi_NS5_RdRp/aligned_files/z0936a/z0936a.pdb

>  <distance_score>  (37) 
nan

>  <energy_score>  (37) 
nan

>  <compound>  (37) 
QHRSESMSOJZMCO-UHFFFAOYSA-N

>  <compound_id>  (37) 
136

>  <target>  (37) 
Flavi_NS5_RdRp

$$$$
z0991a
     RDKit          3D

 15 16  0  0  0  0  0  0  0  0999 V2000
  -25.1300  -27.1920  -21.9810 O   0  0  0  0  0  0  0  0  0  0  0  0
  -25.0680  -27.3340  -20.5600 S   0  0  0  0  0  0  0  0  0  0  0  0
  -25.6810  -26.3350  -19.7380 O   0  0  0  0  0  0  0  0  0  0  0  0
  -23.3870  -27.4480  -20.0860 C   0  0  0  0  0  0  0  0  0  0  0  0
  -25.7790  -28.7650  -20.2170 N   0  0  0  0  0  0  0  0  0  0  0  0
  -27.2410  -28.9130  -20.0120 C   0  0  2  0  0  0  0  0  0  0  0  0
  -27.6070  -29.4620  -18.6480 C   0  0  0  0  0  0  0  0  0  0  0  0
  -26.7130  -29.4760  -17.5790 C   0  0  0  0  0  0  0  0  0  0  0  0
  -27.1430  -29.8130  -16.3030 C   0  0  0  0  0  0  0  0  0  0  0  0
  -28.4660  -30.1340  -16.0810 C   0  0  0  0  0  0  0  0  0  0  0  0
  -29.3650  -30.1580  -17.1360 C   0  0  0  0  0  0  0  0  0  0  0  0
  -28.9170  -29.8490  -18.4090 C   0  0  0  0  0  0  0  0  0  0  0  0
  -29.7930  -30.0150  -19.4470 O   0  0  0  0  0  0  0  0  0  0  0  0
  -29.1330  -30.4950  -20.6480 C   0  0  0  0  0  0  0  0  0  0  0  0
  -27.9280  -29.7000  -21.1250 C   0  0  0  0  0  0  0  0  0  0  0  0
  4  2  1  0
  3  2  2  0
  2  1  2  0
  5  2  1  0
  6  5  1  6
  6 15  1  0
 15 14  1  0
 14 13  1  0
 13 12  1  0
 12 11  2  0
 11 10  1  0
 10  9  2  0
  9  8  1  0
  8  7  2  0
  7  6  1  0
 12  7  1  0
M  END
>  <id>  (38) 
200

>  <inchikey>  (38) 
GLQMCOZZWSNYPN-VIFPVBQESA-N

>  <alias>  (38) 
z0991a

>  <smiles>  (38) 
CS(=O)(=O)N[C@H]1CCOc2ccccc21

>  <path>  (38) 
/opt/xchem-fragalysis-2/maxwin/BulkDock/TARGETS/Flavi_NS5_RdRp/aligned_files/z0991a/z0991a.pdb

>  <distance_score>  (38) 
nan

>  <energy_score>  (38) 
nan

>  <compound>  (38) 
GLQMCOZZWSNYPN-UHFFFAOYSA-N

>  <compound_id>  (38) 
139

>  <target>  (38) 
Flavi_NS5_RdRp

$$$$
z1018a
     RDKit          3D

 18 19  0  0  0  0  0  0  0  0999 V2000
  -24.6370  -32.9720  -24.2020 O   0  0  0  0  0  0  0  0  0  0  0  0
  -23.4380  -33.0890  -24.0000 C   0  0  0  0  0  0  0  0  0  0  0  0
  -22.4420  -33.7780  -24.8910 C   0  0  0  0  0  0  0  0  0  0  0  0
  -21.0850  -33.4100  -24.3100 C   0  0  0  0  0  0  0  0  0  0  0  0
  -21.3630  -32.9570  -22.8880 C   0  0  0  0  0  0  0  0  0  0  0  0
  -22.7850  -32.6050  -22.9240 N   0  0  0  0  0  0  0  0  0  0  0  0
  -23.4200  -31.7770  -21.8880 C   0  0  0  0  0  0  0  0  0  0  0  0
  -24.3470  -32.5530  -20.9610 C   0  0  0  0  0  0  0  0  0  0  0  0
  -25.4880  -31.7690  -20.4960 N   0  0  0  0  0  0  0  0  0  0  0  0
  -26.3340  -31.1610  -21.3620 C   0  0  0  0  0  0  0  0  0  0  0  0
  -26.1830  -31.2570  -22.5750 O   0  0  0  0  0  0  0  0  0  0  0  0
  -27.3860  -30.4590  -20.8200 N   0  0  0  0  0  0  0  0  0  0  0  0
  -27.8020  -30.2930  -19.4750 C   0  0  0  0  0  0  0  0  0  0  0  0
  -26.9510  -30.0480  -18.4030 C   0  0  0  0  0  0  0  0  0  0  0  0
  -27.4770  -29.8290  -17.1390 C   0  0  0  0  0  0  0  0  0  0  0  0
  -28.8380  -29.8380  -16.9390 C   0  0  0  0  0  0  0  0  0  0  0  0
  -29.6850  -30.0770  -17.9990 C   0  0  0  0  0  0  0  0  0  0  0  0
  -29.1740  -30.3100  -19.2640 C   0  0  0  0  0  0  0  0  0  0  0  0
 11 10  2  0
 10  9  1  0
  9  8  1  0
  8  7  1  0
  7  6  1  0
  6  5  1  0
  5  4  1  0
  4  3  1  0
  3  2  1  0
  6  2  1  0
  2  1  2  0
 12 10  1  0
 13 12  1  0
 13 18  2  0
 18 17  1  0
 17 16  2  0
 16 15  1  0
 15 14  2  0
 14 13  1  0
M  END
>  <id>  (39) 
206

>  <inchikey>  (39) 
OYRHWZOYGOUXNC-UHFFFAOYSA-N

>  <alias>  (39) 
z1018a

>  <smiles>  (39) 
O=C(NCCN1CCCC1=O)Nc1ccccc1

>  <path>  (39) 
/opt/xchem-fragalysis-2/maxwin/BulkDock/TARGETS/Flavi_NS5_RdRp/aligned_files/z1018a/z1018a.pdb

>  <distance_score>  (39) 
nan

>  <energy_score>  (39) 
nan

>  <compound>  (39) 
OYRHWZOYGOUXNC-UHFFFAOYSA-N

>  <compound_id>  (39) 
144

>  <target>  (39) 
Flavi_NS5_RdRp

$$$$
z1040a
     RDKit          3D

 12 13  0  0  0  0  0  0  0  0999 V2000
  -24.4130  -30.4810  -16.2440 C   0  0  0  0  0  0  0  0  0  0  0  0
  -25.0350  -30.4490  -17.5480 N   0  0  0  0  0  0  0  0  0  0  0  0
  -26.3820  -30.3770  -17.7220 C   0  0  0  0  0  0  0  0  0  0  0  0
  -26.7710  -30.2300  -18.9810 N   0  0  0  0  0  0  0  0  0  0  0  0
  -28.1160  -30.1920  -19.2360 C   0  0  0  0  0  0  0  0  0  0  0  0
  -29.0760  -30.3170  -18.2040 C   0  0  0  0  0  0  0  0  0  0  0  0
  -28.6080  -30.4480  -16.8770 C   0  0  0  0  0  0  0  0  0  0  0  0
  -27.2710  -30.4820  -16.6230 C   0  0  0  0  0  0  0  0  0  0  0  0
  -28.5520  -30.0240  -20.5700 C   0  0  0  0  0  0  0  0  0  0  0  0
  -29.8820  -30.0300  -20.8630 C   0  0  0  0  0  0  0  0  0  0  0  0
  -30.8250  -30.1900  -19.8590 C   0  0  0  0  0  0  0  0  0  0  0  0
  -30.4410  -30.3200  -18.5540 C   0  0  0  0  0  0  0  0  0  0  0  0
  2  1  1  0
  3  2  1  0
  3  8  2  0
  8  7  1  0
  7  6  2  0
  6 12  1  0
 12 11  2  0
 11 10  1  0
 10  9  2  0
  9  5  1  0
  6  5  1  0
  5  4  2  0
  4  3  1  0
M  END
>  <id>  (40) 
208

>  <inchikey>  (40) 
POVSMFKXVSNGSU-UHFFFAOYSA-N

>  <alias>  (40) 
z1040a

>  <smiles>  (40) 
CNc1ccc2ccccc2n1

>  <path>  (40) 
/opt/xchem-fragalysis-2/maxwin/BulkDock/TARGETS/Flavi_NS5_RdRp/aligned_files/z1040a/z1040a.pdb

>  <distance_score>  (40) 
nan

>  <energy_score>  (40) 
nan

>  <compound>  (40) 
POVSMFKXVSNGSU-UHFFFAOYSA-N

>  <compound_id>  (40) 
146

>  <target>  (40) 
Flavi_NS5_RdRp

$$$$
3vws-b
     RDKit          3D

 24 26  0  0  0  0  0  0  0  0999 V2000
  -23.4650  -28.6480  -15.5860 Cl  0  0  0  0  0  0  0  0  0  0  0  0
  -22.3660  -28.8730  -16.9970 C   0  0  0  0  0  0  0  0  0  0  0  0
  -22.9060  -29.5530  -18.1020 C   0  0  0  0  0  0  0  0  0  0  0  0
  -22.0950  -29.7410  -19.2230 C   0  0  0  0  0  0  0  0  0  0  0  0
  -21.0090  -28.3900  -17.0180 C   0  0  0  0  0  0  0  0  0  0  0  0
  -20.2010  -28.6030  -18.1730 C   0  0  0  0  0  0  0  0  0  0  0  0
  -20.7490  -29.2990  -19.3230 C   0  0  0  0  0  0  0  0  0  0  0  0
  -19.9610  -29.6120  -20.7660 S   0  0  0  0  0  0  0  0  0  0  0  0
  -20.2550  -28.6020  -21.8330 O   0  0  0  0  0  0  0  0  0  0  0  0
  -18.6660  -29.0470  -20.4310 O   0  0  0  0  0  0  0  0  0  0  0  0
  -19.1620  -31.0130  -20.9470 N   0  0  0  0  0  0  0  0  0  0  0  0
  -19.7970  -32.2470  -20.9910 C   0  0  0  0  0  0  0  0  0  0  0  0
  -19.1610  -33.3930  -20.4120 C   0  0  0  0  0  0  0  0  0  0  0  0
  -19.8070  -34.6650  -20.4470 C   0  0  0  0  0  0  0  0  0  0  0  0
  -21.0890  -32.3890  -21.6070 C   0  0  0  0  0  0  0  0  0  0  0  0
  -21.7270  -33.6590  -21.6310 C   0  0  0  0  0  0  0  0  0  0  0  0
  -22.9550  -34.1670  -22.1330 C   0  0  0  0  0  0  0  0  0  0  0  0
  -23.9950  -33.2800  -22.8450 C   0  0  0  0  0  0  0  0  0  0  0  0
  -25.0570  -33.8360  -23.2630 O   0  0  0  0  0  0  0  0  0  0  0  0
  -23.8250  -32.0220  -23.0110 O   0  0  0  0  0  0  0  0  0  0  0  0
  -21.0960  -34.7900  -21.0600 C   0  0  0  0  0  0  0  0  0  0  0  0
  -21.8390  -35.9000  -21.1800 O   0  0  0  0  0  0  0  0  0  0  0  0
  -23.0070  -35.5580  -21.8460 C   0  0  0  0  0  0  0  0  0  0  0  0
  -23.9950  -36.6710  -22.0870 C   0  0  0  0  0  0  0  0  0  0  0  0
  9  8  2  0
 10  8  2  0
  8  7  1  0
  8 11  1  0
  7  4  2  0
  7  6  1  0
  4  3  1  0
  6  5  2  0
 11 12  1  0
  3  2  2  0
  5  2  1  0
  2  1  1  0
 12 13  2  0
 12 15  1  0
 13 14  1  0
 15 16  2  0
 14 21  2  0
 16 21  1  0
 16 17  1  0
 21 22  1  0
 19 18  2  0
 17 18  1  0
 17 23  2  0
 22 23  1  0
 18 20  1  0
 23 24  1  0
M  END
>  <id>  (41) 
217

>  <inchikey>  (41) 
UZVVWRBCUSWUON-UHFFFAOYSA-N

>  <alias>  (41) 
3vws-b

>  <smiles>  (41) 
Cc1oc2ccc(NS(=O)(=O)c3ccc(Cl)cc3)cc2c1C(=O)O

>  <path>  (41) 
/opt/xchem-fragalysis-2/maxwin/BulkDock/TARGETS/Flavi_NS5_RdRp/aligned_files/3vws-b/3vws-b.pdb

>  <distance_score>  (41) 
nan

>  <energy_score>  (41) 
nan

>  <compound>  (41) 
UZVVWRBCUSWUON-UHFFFAOYSA-N

>  <compound_id>  (41) 
154

>  <target>  (41) 
Flavi_NS5_RdRp

$$$$
3vws-a
     RDKit          3D

 24 26  0  0  0  0  0  0  0  0999 V2000
  -26.7260  -28.5030  -20.2290 Cl  0  0  0  0  0  0  0  0  0  0  0  0
  -26.3420  -30.1380  -19.6870 C   0  0  0  0  0  0  0  0  0  0  0  0
  -27.1730  -30.5900  -18.6680 C   0  0  0  0  0  0  0  0  0  0  0  0
  -26.9720  -31.8610  -18.1400 C   0  0  0  0  0  0  0  0  0  0  0  0
  -25.2990  -30.9420  -20.2270 C   0  0  0  0  0  0  0  0  0  0  0  0
  -25.1090  -32.2420  -19.6830 C   0  0  0  0  0  0  0  0  0  0  0  0
  -25.9680  -32.7080  -18.6110 C   0  0  0  0  0  0  0  0  0  0  0  0
  -25.8660  -34.1300  -17.8450 S   0  0  0  0  0  0  0  0  0  0  0  0
  -26.9300  -35.1090  -17.9600 O   0  0  0  0  0  0  0  0  0  0  0  0
  -25.1250  -34.9060  -18.8310 O   0  0  0  0  0  0  0  0  0  0  0  0
  -24.6750  -34.2200  -16.7840 N   0  0  0  0  0  0  0  0  0  0  0  0
  -23.4960  -33.5330  -16.6760 C   0  0  0  0  0  0  0  0  0  0  0  0
  -22.4850  -33.5910  -17.6800 C   0  0  0  0  0  0  0  0  0  0  0  0
  -21.2550  -32.9000  -17.4970 C   0  0  0  0  0  0  0  0  0  0  0  0
  -23.2770  -32.7760  -15.4720 C   0  0  0  0  0  0  0  0  0  0  0  0
  -22.0400  -32.0890  -15.2880 C   0  0  0  0  0  0  0  0  0  0  0  0
  -21.4420  -31.2650  -14.2800 C   0  0  0  0  0  0  0  0  0  0  0  0
  -22.1160  -30.8650  -12.9730 C   0  0  0  0  0  0  0  0  0  0  0  0
  -23.2530  -31.2820  -12.6450 O   0  0  0  0  0  0  0  0  0  0  0  0
  -21.5200  -30.0570  -12.2170 O   0  0  0  0  0  0  0  0  0  0  0  0
  -21.0530  -32.1600  -16.2940 C   0  0  0  0  0  0  0  0  0  0  0  0
  -19.9760  -31.4690  -15.9630 O   0  0  0  0  0  0  0  0  0  0  0  0
  -20.1540  -30.9040  -14.7170 C   0  0  0  0  0  0  0  0  0  0  0  0
  -19.0000  -30.0710  -14.1720 C   0  0  0  0  0  0  0  0  0  0  0  0
  9  8  2  0
 10  8  2  0
  8  7  1  0
  8 11  1  0
  7  4  2  0
  7  6  1  0
  4  3  1  0
  6  5  2  0
 11 12  1  0
  3  2  2  0
  5  2  1  0
  2  1  1  0
 12 13  2  0
 12 15  1  0
 13 14  1  0
 15 16  2  0
 14 21  2  0
 16 21  1  0
 16 17  1  0
 21 22  1  0
 19 18  2  0
 17 18  1  0
 17 23  2  0
 22 23  1  0
 18 20  1  0
 23 24  1  0
M  END
>  <id>  (42) 
218

>  <inchikey>  (42) 
UZVVWRBCUSWUON-UHFFFAOYSA-N

>  <alias>  (42) 
3vws-a

>  <smiles>  (42) 
Cc1oc2ccc(NS(=O)(=O)c3ccc(Cl)cc3)cc2c1C(=O)O

>  <path>  (42) 
/opt/xchem-fragalysis-2/maxwin/BulkDock/TARGETS/Flavi_NS5_RdRp/aligned_files/3vws-a/3vws-a.pdb

>  <distance_score>  (42) 
nan

>  <energy_score>  (42) 
nan

>  <compound>  (42) 
UZVVWRBCUSWUON-UHFFFAOYSA-N

>  <compound_id>  (42) 
154

>  <target>  (42) 
Flavi_NS5_RdRp

$$$$
5hmz-a
     RDKit          3D

 25 26  0  0  0  0  0  0  0  0999 V2000
  -16.3850  -44.4800  -19.4840 C   0  0  0  0  0  0  0  0  0  0  0  0
  -15.4090  -43.7600  -18.7960 C   0  0  0  0  0  0  0  0  0  0  0  0
  -14.4300  -43.0430  -19.5080 C   0  0  0  0  0  0  0  0  0  0  0  0
  -17.4350  -45.3200  -21.5580 C   0  0  0  0  0  0  0  0  0  0  0  0
  -19.0280  -46.3480  -23.1160 C   0  0  0  0  0  0  0  0  0  0  0  0
  -18.8540  -47.0840  -22.0150 C   0  0  0  0  0  0  0  0  0  0  0  0
  -17.9480  -46.5100  -21.1130 C   0  0  0  0  0  0  0  0  0  0  0  0
  -19.8180  -46.5800  -24.2700 C   0  0  0  0  0  0  0  0  0  0  0  0
  -15.7600  -42.1920  -14.5030 C   0  0  0  0  0  0  0  0  0  0  0  0
  -20.3920  -46.6600  -25.3100 C   0  0  0  0  0  0  0  0  0  0  0  0
  -20.9050  -46.7000  -26.6790 C   0  0  0  0  0  0  0  0  0  0  0  0
  -14.4930  -43.0500  -20.9000 C   0  0  0  0  0  0  0  0  0  0  0  0
  -15.4710  -43.7740  -21.5760 C   0  0  0  0  0  0  0  0  0  0  0  0
  -16.4260  -44.5080  -20.8730 C   0  0  0  0  0  0  0  0  0  0  0  0
  -15.5340  -43.7620  -17.3110 C   0  0  0  0  0  0  0  0  0  0  0  0
  -13.3210  -42.2770  -18.8210 C   0  0  0  0  0  0  0  0  0  0  0  0
  -15.4260  -43.7880  -22.9480 O   0  0  0  0  0  0  0  0  0  0  0  0
  -14.4150  -43.0450  -23.6430 C   0  0  0  0  0  0  0  0  0  0  0  0
  -14.6650  -44.2930  -16.6210 O   0  0  0  0  0  0  0  0  0  0  0  0
  -16.6530  -43.1520  -16.7890 N   0  0  0  0  0  0  0  0  0  0  0  0
  -18.0850  -44.9220  -23.0680 S   0  0  0  0  0  0  0  0  0  0  0  0
  -17.0310  -43.1020  -15.2300 S   0  0  0  0  0  0  0  0  0  0  0  0
  -16.9840  -44.4180  -14.7500 O   0  0  0  0  0  0  0  0  0  0  0  0
  -18.2330  -42.3530  -15.1500 O   0  0  0  0  0  0  0  0  0  0  0  0
  -22.1670  -46.0800  -26.7690 O   0  0  0  0  0  0  0  0  0  0  0  0
 25 11  1  0
 11 10  1  0
 10  8  3  0
  8  5  1  0
  5  6  2  0
  5 21  1  0
  6  7  1  0
  7  4  2  0
 21  4  1  0
  4 14  1  0
 14  1  2  0
 14 13  1  0
 17 13  1  0
 17 18  1  0
  1  2  1  0
 13 12  2  0
  2 15  1  0
  2  3  2  0
 12  3  1  0
 23 22  2  0
 20 15  1  0
 20 22  1  0
 15 19  2  0
 24 22  2  0
  3 16  1  0
 22  9  1  0
M  END
>  <id>  (43) 
227

>  <inchikey>  (43) 
BQEHLOAHCIMXML-UHFFFAOYSA-N

>  <alias>  (43) 
5hmz-a

>  <smiles>  (43) 
COc1cc(C)c(C(=O)NS(C)(=O)=O)cc1-c1ccc(C#CCO)s1

>  <path>  (43) 
/opt/xchem-fragalysis-2/maxwin/BulkDock/TARGETS/Flavi_NS5_RdRp/aligned_files/5hmz-a/5hmz-a.pdb

>  <distance_score>  (43) 
nan

>  <energy_score>  (43) 
nan

>  <compound>  (43) 
BQEHLOAHCIMXML-UHFFFAOYSA-N

>  <compound_id>  (43) 
160

>  <target>  (43) 
Flavi_NS5_RdRp

$$$$
ZUCZAINLLDMSCJ-UHFFFAOYSA-N
     RDKit          3D

 28 31  0  0  0  0  0  0  0  0999 V2000
  -19.5161  -30.7926  -11.3431 O   0  0  0  0  0  0  0  0  0  0  0  0
  -20.6094  -30.8012  -11.8989 C   0  0  0  0  0  0  0  0  0  0  0  0
  -21.6573  -30.0083  -11.5661 O   0  0  0  0  0  0  0  0  0  0  0  0
  -21.3877  -28.8809  -10.7226 C   0  0  0  0  0  0  0  0  0  0  0  0
  -21.9899  -27.7211  -11.3855 C   0  0  0  0  0  0  0  0  0  0  0  0
  -22.4661  -26.9660  -12.1924 C   0  0  0  0  0  0  0  0  0  0  0  0
  -23.0393  -26.2862  -13.3756 C   0  0  0  0  0  0  0  0  0  0  0  0
  -23.6821  -27.5348  -14.5557 S   0  0  0  0  0  0  0  0  0  0  0  0
  -24.7057  -26.5238  -15.8770 C   0  0  0  0  0  0  0  0  0  0  0  0
  -26.1404  -25.1854  -15.9773 N   0  0  0  0  0  0  0  0  0  0  0  0
  -27.6386  -26.5721  -14.8163 N   0  0  0  0  0  0  0  0  0  0  0  0
  -27.8352  -27.9809  -16.0685 C   0  0  0  0  0  0  0  0  0  0  0  0
  -28.4066  -29.1188  -16.7522 C   0  0  0  0  0  0  0  0  0  0  0  0
  -27.4751  -29.8949  -17.4800 C   0  0  0  0  0  0  0  0  0  0  0  0
  -27.8379  -30.4912  -18.6702 C   0  0  0  0  0  0  0  0  0  0  0  0
  -29.0794  -30.4254  -19.1504 N   0  0  0  0  0  0  0  0  0  0  0  0
  -29.9733  -29.7734  -18.3808 C   0  0  0  0  0  0  0  0  0  0  0  0
  -29.7178  -29.1940  -17.1420 C   0  0  0  0  0  0  0  0  0  0  0  0
  -25.8919  -27.9684  -16.5525 O   0  0  0  0  0  0  0  0  0  0  0  0
  -20.9719  -31.6576  -13.0050 C   0  0  0  0  0  0  0  0  0  0  0  0
  -20.3553  -32.7825  -13.5230 C   0  0  0  0  0  0  0  0  0  0  0  0
  -21.0975  -33.1755  -14.6684 C   0  0  0  0  0  0  0  0  0  0  0  0
  -21.0054  -34.1988  -15.6265 C   0  0  0  0  0  0  0  0  0  0  0  0
  -21.9389  -34.2264  -16.6720 C   0  0  0  0  0  0  0  0  0  0  0  0
  -22.9387  -33.2574  -16.7713 C   0  0  0  0  0  0  0  0  0  0  0  0
  -23.0601  -32.2440  -15.8177 C   0  0  0  0  0  0  0  0  0  0  0  0
  -22.1257  -32.2509  -14.7866 C   0  0  0  0  0  0  0  0  0  0  0  0
  -22.0645  -31.3477  -13.7723 O   0  0  0  0  0  0  0  0  0  0  0  0
  1  2  2  0
  2  3  1  0
  3  4  1  0
  4  5  1  0
  5  6  3  0
  6  7  1  0
  7  8  1  0
  8  9  1  0
  9 10  2  0
 10 11  1  0
 11 12  2  0
 12 13  1  0
 13 14  2  0
 14 15  1  0
 15 16  2  0
 16 17  1  0
 17 18  2  0
 12 19  1  0
  2 20  1  0
 20 21  2  0
 21 22  1  0
 22 23  2  0
 23 24  1  0
 24 25  2  0
 25 26  1  0
 26 27  2  0
 27 28  1  0
 19  9  1  0
 28 20  1  0
 18 13  1  0
 27 22  1  0
M  END
>  <id>  (44) 
33372

>  <inchikey>  (44) 
ZUCZAINLLDMSCJ-UHFFFAOYSA-N

>  <alias>  (44) 
None

>  <smiles>  (44) 
O=C(OCC#CCSc1nnc(-c2ccncc2)o1)c1cc2ccccc2o1

>  <path>  (44) 
/opt/xchem-fragalysis-2/maxwin/BulkDock/SCRATCH/204080/C37461-P151/C37461-P151.minimised.mol

>  <distance_score>  (44) 
2.141598

>  <energy_score>  (44) 
871.919508

>  <compound>  (44) 
ZUCZAINLLDMSCJ-UHFFFAOYSA-N

>  <compound_id>  (44) 
37461

>  <target>  (44) 
Flavi_NS5_RdRp

$$$$
