Zika_NS5A-x0756_A_1112_1_Zika_NS5A-x0498+A+1101+1
     RDKit          3D

  6  6  0  0  0  0  0  0  0  0999 V2000
  -36.1310  -14.0320   -8.7790 I   0  0  0  0  0  0  0  0  0  0  0  0
  -34.4980  -13.1010   -9.6730 C   0  0  0  0  0  0  0  0  0  0  0  0
  -34.2120  -11.7490   -9.7250 C   0  0  0  0  0  0  0  0  0  0  0  0
  -33.0890  -11.5110  -10.3990 N   0  0  0  0  0  0  0  0  0  0  0  0
  -32.6380  -12.7280  -10.7860 N   0  0  0  0  0  0  0  0  0  0  0  0
  -33.4410  -13.7220  -10.3800 C   0  0  0  0  0  0  0  0  0  0  0  0
  2  1  1  0
  2  6  2  0
  6  5  1  0
  5  4  1  0
  4  3  2  0
  3  2  1  0
M  END
$$$$

