5HMY
ilSeeSAR  12182419123D 1   1.00000     0.00000     0
SeeSAR 13.1.1 ill13029
 35 36  0  0  0  0            999 V2000
  -18.4935  -45.0711  -23.0687 S   0  0  0  0  0  0  0  0  0  0  0  0
  -19.3048  -46.5145  -23.5044 C   0  0  0  0  0  0  0  0  0  0  0  0
  -19.9827  -46.6057  -24.6508 C   0  0  0  0  0  0  0  0  0  0  0  0
  -20.4887  -46.6147  -25.7170 C   0  0  0  0  0  0  0  0  0  0  0  0
  -21.0182  -46.5505  -27.0846 C   0  0  0  0  0  0  0  0  0  0  0  0
  -22.3991  -46.2232  -27.0496 O   0  0  0  0  0  0  0  0  0  0  0  0
  -18.9756  -47.5846  -22.6892 C   0  0  0  0  0  0  0  0  0  0  0  0
  -18.1434  -47.1814  -21.6294 C   0  0  0  0  0  0  0  0  0  0  0  0
  -17.7925  -45.8209  -21.6623 C   0  0  0  0  0  0  0  0  0  0  0  0
  -16.8778  -45.0108  -20.7926 C   0  0  0  0  0  0  0  0  0  0  0  0
  -16.9558  -45.1679  -19.4001 C   0  0  0  0  0  0  0  0  0  0  0  0
  -16.0858  -44.4687  -18.5509 C   0  0  0  0  0  0  0  0  0  0  0  0
  -15.0805  -43.6653  -19.0940 C   0  0  0  0  0  0  0  0  0  0  0  0
  -14.9742  -43.5147  -20.4746 C   0  0  0  0  0  0  0  0  0  0  0  0
  -15.8418  -44.2193  -21.3293 C   0  0  0  0  0  0  0  0  0  0  0  0
  -13.8742  -42.6419  -21.0295 C   0  0  0  0  0  0  0  0  0  0  0  0
  -13.8903  -41.2221  -20.5023 C   0  0  0  0  0  0  0  0  0  0  0  0
  -12.9657  -40.8608  -19.7642 O   0  0  0  0  0  0  0  0  0  0  0  0
  -14.8090  -40.4448  -20.8052 O   0  5  0  0  0  0  0  0  0  0  0  0
  -16.1394  -44.6821  -17.0470 C   0  0  0  0  0  0  0  0  0  0  0  0
  -15.2049  -43.7797  -16.2659 C   0  0  0  0  0  0  0  0  0  0  0  0
  -15.6172  -42.7516  -15.7046 O   0  0  0  0  0  0  0  0  0  0  0  0
  -14.0056  -44.0963  -16.2000 O   0  5  0  0  0  0  0  0  0  0  0  0
  -20.8900  -47.5003  -27.5603 H   0  0  0  0  0  0  0  0  0  0  0  0
  -20.4891  -45.8014  -27.6357 H   0  0  0  0  0  0  0  0  0  0  0  0
  -22.9061  -46.9633  -26.6078 H   0  0  0  0  0  0  0  0  0  0  0  0
  -19.3110  -48.5885  -22.8456 H   0  0  0  0  0  0  0  0  0  0  0  0
  -17.8073  -47.8513  -20.8657 H   0  0  0  0  0  0  0  0  0  0  0  0
  -17.6867  -45.8281  -18.9819 H   0  0  0  0  0  0  0  0  0  0  0  0
  -14.3904  -43.1643  -18.4478 H   0  0  0  0  0  0  0  0  0  0  0  0
  -15.7149  -44.1542  -22.3897 H   0  0  0  0  0  0  0  0  0  0  0  0
  -13.9769  -42.6069  -22.0940 H   0  0  0  0  0  0  0  0  0  0  0  0
  -12.9333  -43.0843  -20.7764 H   0  0  0  0  0  0  0  0  0  0  0  0
  -15.8764  -45.6987  -16.8413 H   0  0  0  0  0  0  0  0  0  0  0  0
  -17.1402  -44.4985  -16.7160 H   0  0  0  0  0  0  0  0  0  0  0  0
  1  2  1  0  0  0  0
  1  9  1  0  0  0  0
  2  3  1  0  0  0  0
  2  7  2  0  0  0  0
  3  4  3  0  0  0  0
  4  5  1  0  0  0  0
  5  6  1  0  0  0  0
  7  8  1  0  0  0  0
  8  9  2  0  0  0  0
  9 10  1  0  0  0  0
 10 11  1  0  0  0  0
 10 15  2  0  0  0  0
 11 12  2  0  0  0  0
 12 13  1  0  0  0  0
 12 20  1  0  0  0  0
 13 14  2  0  0  0  0
 14 15  1  0  0  0  0
 14 16  1  0  0  0  0
 16 17  1  0  0  0  0
 17 18  2  0  0  0  0
 17 19  1  0  0  0  0
 20 21  1  0  0  0  0
 21 22  2  0  0  0  0
 21 23  1  0  0  0  0
  5 24  1  0  0  0  0
  5 25  1  0  0  0  0
  6 26  1  0  0  0  0
  7 27  1  0  0  0  0
  8 28  1  0  0  0  0
 11 29  1  0  0  0  0
 13 30  1  0  0  0  0
 15 31  1  0  0  0  0
 16 32  1  0  0  0  0
 16 33  1  0  0  0  0
 20 35  1  0  0  0  0
 20 34  1  0  0  0  0
M  CHG  2  19  -1  23  -1
M  END
> <BIOSOLVEIT.HYDE_ATOM_SCORES [kJ/mol]>
# Atom-ID; Total; Rec-Desolv; Rec-IA; Lig-Desolv; Lig-IA
1;-4.1301;-3.0318;0.0000;-1.0982;0.0000
2;-0.4637;0.0000;0.0000;-0.4637;0.0000
3;-5.7642;-4.3442;0.0000;-1.4200;0.0000
4;-0.4035;1.0827;0.0000;-1.4863;0.0000
5;-4.8577;-2.3722;0.0000;-2.4855;0.0000
6;-3.1561;9.1088;-10.9416;10.2749;-11.5983
7;-5.7085;-3.9782;0.0000;-1.7303;0.0000
8;-2.2605;-0.9809;0.0000;-1.2797;0.0000
9;-0.5331;0.0000;0.0000;-0.5331;0.0000
10;-0.1961;0.0000;0.0000;-0.1961;0.0000
11;-2.1195;-1.1555;0.0000;-0.9641;0.0000
12;-0.1891;0.0000;0.0000;-0.1891;0.0000
13;-0.4205;0.0000;0.0000;-0.4205;0.0000
14;-0.1958;0.0000;0.0000;-0.1958;0.0000
15;-2.8462;-1.5561;0.0000;-1.2901;0.0000
16;-1.7591;-0.3478;0.0000;-1.4113;0.0000
17;-0.0204;0.0000;0.0000;-0.0204;0.0000
18;0.3427;-0.3258;0.0000;0.6685;0.0000
19;-4.5332;6.3321;-9.6222;3.8933;-5.1363
20;-0.1350;0.3981;0.0000;-0.5331;0.0000
21;0.0000;0.0000;0.0000;0.0000;0.0000
22;-1.0210;1.6734;-1.9244;4.3662;-5.1362
23;-1.8042;8.1893;-8.8851;4.0278;-5.1362

> <BIOSOLVEIT.HYDE_ESTIMATED_AFFINITY_LOWER_BOUNDARY [nM]>
3.681966

> <BIOSOLVEIT.HYDE_ESTIMATED_AFFINITY_UPPER_BOUNDARY [nM]>
365.825072

> <BIOSOLVEIT.HYDE_LIGAND_EFFICIENCY range: ++, +, 0, -, -->
+

> <BIOSOLVEIT.HYDE_LIGAND_LIPOPHILIC_EFFICIENCY range: ++, +, 0, -, -->
++

> <BIOSOLVEIT.INTER_CLASH range: red, yellow, green>
green

> <BIOSOLVEIT.INTRA_CLASH range: red, yellow, green>
green

> <BIOSOLVEIT.LOGP>
-0.6563

> <BIOSOLVEIT.MOLECULAR_WEIGHT>
328.342

> <BIOSOLVEIT.MOLECULE_CHECKSUM>
LTQyLjQ0MDk7MS44NDUyNg==

> <BIOSOLVEIT.TORSION_QUALITY range: red, yellow, green, not rotatable>
yellow

> <BIOSOLVEIT.TPSA>
100.49

> <BIOSOLVEIT.OPTIBRIUM.2C9 pKi>
4.7724

> <BIOSOLVEIT.OPTIBRIUM.2D6 affinity category>
medium

> <BIOSOLVEIT.OPTIBRIUM.BBB category>
-

> <BIOSOLVEIT.OPTIBRIUM.BBB log([brain]:[blood])>
-1.78827

> <BIOSOLVEIT.OPTIBRIUM.hERG pIC50>
2.67564

> <BIOSOLVEIT.OPTIBRIUM.HIA category>
+

> <BIOSOLVEIT.OPTIBRIUM.logD>
-1.9861

> <BIOSOLVEIT.OPTIBRIUM.logP>
2.08777

> <BIOSOLVEIT.OPTIBRIUM.logS @ pH7.4>
3.89577

> <BIOSOLVEIT.OPTIBRIUM.logS>
2.11677

> <BIOSOLVEIT.OPTIBRIUM.P-gp category>
no

> <BIOSOLVEIT.OPTIBRIUM.PPB90 category>
high

$$$$
5I3Q
ilSeeSAR  12182419123D 1   1.00000     0.00000     0
SeeSAR 13.1.1 ill13029
 54 57  0  0  0  0            999 V2000
  -15.0880  -43.6236  -21.2650 C   0  0  0  0  0  0  0  0  0  0  0  0
  -14.1821  -42.8366  -20.5607 C   0  0  0  0  0  0  0  0  0  0  0  0
  -14.2609  -42.6978  -19.1774 C   0  0  0  0  0  0  0  0  0  0  0  0
  -22.1252  -46.3906  -26.1471 O   0  0  0  0  0  0  0  0  0  0  0  0
  -16.5947  -43.0352  -16.5413 O   0  0  0  0  0  0  0  0  0  0  0  0
  -15.5773  -44.0595  -14.1701 O   0  0  0  0  0  0  0  0  0  0  0  0
  -18.6083  -46.3409  -22.8511 C   0  0  0  0  0  0  0  0  0  0  0  0
  -19.4355  -46.6193  -23.9686 C   0  0  0  0  0  0  0  0  0  0  0  0
  -20.0870  -46.7201  -24.9617 C   0  0  0  0  0  0  0  0  0  0  0  0
  -20.8341  -46.9404  -26.2025 C   0  0  0  0  0  0  0  0  0  0  0  0
  -15.4828  -43.2381  -17.0318 C   0  0  0  0  0  0  0  0  0  0  0  0
  -14.5674  -41.6552  -14.2698 C   0  0  0  0  0  0  0  0  0  0  0  0
  -15.7272  -41.2427  -13.6719 C   0  0  0  0  0  0  0  0  0  0  0  0
  -15.9406  -39.8966  -13.4146 C   0  0  0  0  0  0  0  0  0  0  0  0
  -15.0469  -38.9579  -13.8406 C   0  0  0  0  0  0  0  0  0  0  0  0
  -13.8357  -39.3411  -14.4763 C   0  0  0  0  0  0  0  0  0  0  0  0
  -12.8586  -38.4278  -14.9437 C   0  0  0  0  0  0  0  0  0  0  0  0
  -11.7289  -38.8877  -15.5568 C   0  0  0  0  0  0  0  0  0  0  0  0
  -11.5919  -40.2564  -15.7677 C   0  0  0  0  0  0  0  0  0  0  0  0
  -13.5971  -40.7172  -14.7284 C   0  0  0  0  0  0  0  0  0  0  0  0
  -13.1103  -43.8311  -14.1745 O   0  0  0  0  0  0  0  0  0  0  0  0
  -14.3963  -43.3866  -14.6165 S   0  0  0  0  0  0  0  0  0  0  0  0
  -12.4643  -41.1662  -15.3515 N   0  0  0  0  0  0  0  0  0  0  0  0
  -14.3598  -43.4010  -16.2423 N   0  0  0  0  0  0  0  0  0  0  0  0
  -15.2827  -43.3891  -18.5011 C   0  0  0  0  0  0  0  0  0  0  0  0
  -13.2609  -41.8129  -18.4741 C   0  0  0  0  0  0  0  0  0  0  0  0
  -16.1658  -44.2025  -19.2123 C   0  0  0  0  0  0  0  0  0  0  0  0
  -16.0881  -44.3389  -20.5918 C   0  0  0  0  0  0  0  0  0  0  0  0
  -15.0321  -43.8134  -22.6196 O   0  0  0  0  0  0  0  0  0  0  0  0
  -14.1731  -42.9611  -23.3904 C   0  0  0  0  0  0  0  0  0  0  0  0
  -17.0293  -45.2538  -21.2704 C   0  0  0  0  0  0  0  0  0  0  0  0
  -17.7920  -44.8238  -22.7651 S   0  0  0  0  0  0  0  0  0  0  0  0
  -18.2904  -47.1334  -21.7917 C   0  0  0  0  0  0  0  0  0  0  0  0
  -17.4145  -46.5103  -20.8801 C   0  0  0  0  0  0  0  0  0  0  0  0
  -13.4074  -42.3265  -21.0941 H   0  0  0  0  0  0  0  0  0  0  0  0
  -22.8026  -47.1236  -26.2090 H   0  0  0  0  0  0  0  0  0  0  0  0
  -20.3005  -46.4868  -27.0115 H   0  0  0  0  0  0  0  0  0  0  0  0
  -20.9146  -47.9934  -26.3743 H   0  0  0  0  0  0  0  0  0  0  0  0
  -16.4724  -41.9615  -13.4017 H   0  0  0  0  0  0  0  0  0  0  0  0
  -16.8141  -39.5916  -12.8772 H   0  0  0  0  0  0  0  0  0  0  0  0
  -15.2610  -37.9198  -13.6939 H   0  0  0  0  0  0  0  0  0  0  0  0
  -13.0065  -37.3758  -14.8160 H   0  0  0  0  0  0  0  0  0  0  0  0
  -10.9632  -38.2087  -15.8691 H   0  0  0  0  0  0  0  0  0  0  0  0
  -10.7281  -40.5972  -16.2995 H   0  0  0  0  0  0  0  0  0  0  0  0
  -13.4782  -43.5347  -16.6949 H   0  0  0  0  0  0  0  0  0  0  0  0
  -13.4616  -41.8132  -17.4231 H   0  0  0  0  0  0  0  0  0  0  0  0
  -12.2724  -42.1831  -18.6486 H   0  0  0  0  0  0  0  0  0  0  0  0
  -13.3400  -40.8149  -18.8520 H   0  0  0  0  0  0  0  0  0  0  0  0
  -16.9246  -44.7363  -18.6792 H   0  0  0  0  0  0  0  0  0  0  0  0
  -14.2376  -43.2304  -24.4240 H   0  0  0  0  0  0  0  0  0  0  0  0
  -14.4775  -41.9427  -23.2675 H   0  0  0  0  0  0  0  0  0  0  0  0
  -13.1635  -43.0746  -23.0547 H   0  0  0  0  0  0  0  0  0  0  0  0
  -18.6665  -48.1269  -21.6639 H   0  0  0  0  0  0  0  0  0  0  0  0
  -17.0831  -46.9720  -19.9735 H   0  0  0  0  0  0  0  0  0  0  0  0
  1  2  2  0  0  0  0
  1 28  1  0  0  0  0
  1 29  1  0  0  0  0
  2  3  1  0  0  0  0
  3 25  2  0  0  0  0
  3 26  1  0  0  0  0
  4 10  1  0  0  0  0
  5 11  2  0  0  0  0
  6 22  2  0  0  0  0
  7  8  1  0  0  0  0
  7 32  1  0  0  0  0
  7 33  2  0  0  0  0
  8  9  3  0  0  0  0
  9 10  1  0  0  0  0
 11 24  1  0  0  0  0
 11 25  1  0  0  0  0
 12 13  2  0  0  0  0
 12 20  1  0  0  0  0
 12 22  1  0  0  0  0
 13 14  1  0  0  0  0
 14 15  2  0  0  0  0
 15 16  1  0  0  0  0
 16 17  2  0  0  0  0
 16 20  1  0  0  0  0
 17 18  1  0  0  0  0
 18 19  2  0  0  0  0
 19 23  1  0  0  0  0
 20 23  2  0  0  0  0
 21 22  2  0  0  0  0
 22 24  1  0  0  0  0
 25 27  1  0  0  0  0
 27 28  2  0  0  0  0
 28 31  1  0  0  0  0
 29 30  1  0  0  0  0
 31 32  1  0  0  0  0
 31 34  2  0  0  0  0
 33 34  1  0  0  0  0
  2 35  1  0  0  0  0
  4 36  1  0  0  0  0
 10 37  1  0  0  0  0
 10 38  1  0  0  0  0
 13 39  1  0  0  0  0
 14 40  1  0  0  0  0
 15 41  1  0  0  0  0
 17 42  1  0  0  0  0
 18 43  1  0  0  0  0
 19 44  1  0  0  0  0
 24 45  1  0  0  0  0
 26 46  1  0  0  0  0
 26 47  1  0  0  0  0
 26 48  1  0  0  0  0
 27 49  1  0  0  0  0
 30 50  1  0  0  0  0
 30 51  1  0  0  0  0
 30 52  1  0  0  0  0
 33 53  1  0  0  0  0
 34 54  1  0  0  0  0
M  END
> <BIOSOLVEIT.HYDE_ATOM_SCORES [kJ/mol]>
# Atom-ID; Total; Rec-Desolv; Rec-IA; Lig-Desolv; Lig-IA
1;-0.0707;0.6433;0.0000;-0.7141;0.0000
2;-0.9311;0.0000;0.0000;-0.9311;0.0000
3;-0.2284;0.0000;0.0000;-0.2284;0.0000
4;-5.5338;14.4476;-18.7373;10.2816;-11.5257
5;-3.2804;8.7872;-10.4387;10.5360;-12.1649
6;1.2647;0.6074;0.0000;0.6572;0.0000
7;-2.4853;-1.9891;0.0000;-0.4962;0.0000
8;-3.4403;-2.0738;0.0000;-1.3665;0.0000
9;-3.2358;-1.7084;0.0000;-1.5274;0.0000
10;-4.4996;-2.1819;0.0000;-2.3177;0.0000
11;-0.0190;0.0000;0.0000;-0.0190;0.0000
12;0.0000;0.0000;0.0000;0.0000;0.0000
13;0.0000;0.0000;0.0000;0.0000;0.0000
14;0.0000;0.0000;0.0000;0.0000;0.0000
15;0.0000;0.0000;0.0000;0.0000;0.0000
16;0.0000;0.0000;0.0000;0.0000;0.0000
17;0.0000;0.0000;0.0000;0.0000;0.0000
18;0.0000;0.0000;0.0000;0.0000;0.0000
19;-0.1452;0.0000;0.0000;-0.1452;0.0000
20;0.0000;0.0000;0.0000;0.0000;0.0000
21;1.2075;1.3214;0.0000;-0.1139;0.0000
22;0.0000;0.0000;0.0000;0.0000;0.0000
23;1.8078;0.0000;0.0000;1.8078;0.0000
24;8.9029;6.7815;0.0000;2.1214;0.0000
25;-0.3747;0.0000;0.0000;-0.3747;0.0000
26;-1.8270;-1.0120;0.0000;-0.8150;0.0000
27;-1.1256;0.0000;0.0000;-1.1256;0.0000
28;-2.3077;-1.8448;0.0000;-0.4629;0.0000
29;-3.6233;-3.4232;0.0000;-0.2001;0.0000
30;-5.6339;-1.6903;0.0000;-3.9436;0.0000
31;-0.4487;0.0000;0.0000;-0.4487;0.0000
32;-3.2430;-1.7591;0.0000;-1.4838;0.0000
33;-3.0401;-1.4758;0.0000;-1.5643;0.0000
34;-2.4418;-1.2649;0.0000;-1.1769;0.0000

> <BIOSOLVEIT.HYDE_ESTIMATED_AFFINITY_LOWER_BOUNDARY [nM]>
74.136448

> <BIOSOLVEIT.HYDE_ESTIMATED_AFFINITY_UPPER_BOUNDARY [nM]>
7365.894403

> <BIOSOLVEIT.HYDE_LIGAND_EFFICIENCY range: ++, +, 0, -, -->
-

> <BIOSOLVEIT.HYDE_LIGAND_LIPOPHILIC_EFFICIENCY range: ++, +, 0, -, -->
--

> <BIOSOLVEIT.INTER_CLASH range: red, yellow, green>
green

> <BIOSOLVEIT.INTRA_CLASH range: red, yellow, green>
yellow

> <BIOSOLVEIT.LOGP>
4.39342

> <BIOSOLVEIT.MOLECULAR_WEIGHT>
492.572

> <BIOSOLVEIT.MOLECULE_CHECKSUM>
LTM0Ljk5Nzk7MS4wMjkzNQ==

> <BIOSOLVEIT.TORSION_QUALITY range: red, yellow, green, not rotatable>
green

> <BIOSOLVEIT.TPSA>
105.59

> <BIOSOLVEIT.OPTIBRIUM.2C9 pKi>
6.08926

> <BIOSOLVEIT.OPTIBRIUM.2D6 affinity category>
medium

> <BIOSOLVEIT.OPTIBRIUM.BBB category>
-

> <BIOSOLVEIT.OPTIBRIUM.BBB log([brain]:[blood])>
-1.15392

> <BIOSOLVEIT.OPTIBRIUM.hERG pIC50>
5.22483

> <BIOSOLVEIT.OPTIBRIUM.HIA category>
+

> <BIOSOLVEIT.OPTIBRIUM.logD>
2.4477

> <BIOSOLVEIT.OPTIBRIUM.logP>
3.21176

> <BIOSOLVEIT.OPTIBRIUM.logS @ pH7.4>
2.68825

> <BIOSOLVEIT.OPTIBRIUM.logS>
0.118994

> <BIOSOLVEIT.OPTIBRIUM.P-gp category>
no

> <BIOSOLVEIT.OPTIBRIUM.PPB90 category>
high

$$$$
DF-RdRp-NP001
ilSeeSAR  12182419123D 1   1.00000     0.00000     0
SeeSAR 13.1.1 ill13029
 27 28  0  0  0  0            999 V2000
  -22.3277  -46.3750  -26.2275 O   0  0  0  0  0  0  0  0  0  0  0  0
  -21.0076  -46.8367  -26.4732 C   0  0  0  0  0  0  0  0  0  0  0  0
  -20.1482  -46.5923  -25.2436 C   0  0  0  0  0  0  0  0  0  0  0  0
  -19.4753  -46.4010  -24.2809 C   0  0  0  0  0  0  0  0  0  0  0  0
  -18.6160  -46.1564  -23.0512 C   0  0  0  0  0  0  0  0  0  0  0  0
  -17.7895  -45.0936  -22.8474 C   0  0  0  0  0  0  0  0  0  0  0  0
  -17.1912  -45.2457  -21.6121 N   0  0  0  0  0  0  0  0  0  0  0  0
  -16.2547  -44.3602  -21.0176 C   0  0  0  0  0  0  0  0  0  0  0  0
  -16.5530  -44.0103  -19.7582 N   0  0  0  0  0  0  0  0  0  0  0  0
  -15.6736  -43.2344  -19.1018 C   0  0  0  0  0  0  0  0  0  0  0  0
  -14.4893  -42.7897  -19.6494 C   0  0  0  0  0  0  0  0  0  0  0  0
  -14.1960  -43.1438  -20.9502 C   0  0  0  0  0  0  0  0  0  0  0  0
  -15.0812  -43.9355  -21.6795 C   0  0  0  0  0  0  0  0  0  0  0  0
  -14.8473  -44.2403  -22.9902 N   0  0  0  0  0  0  0  0  0  0  0  0
  -17.6550  -46.4167  -21.0448 C   0  0  0  0  0  0  0  0  0  0  0  0
  -18.5312  -46.9906  -21.9149 C   0  0  0  0  0  0  0  0  0  0  0  0
  -22.9507  -47.1558  -26.1802 H   0  0  0  0  0  0  0  0  0  0  0  0
  -20.5946  -46.3093  -27.3076 H   0  0  0  0  0  0  0  0  0  0  0  0
  -21.0307  -47.8844  -26.6897 H   0  0  0  0  0  0  0  0  0  0  0  0
  -17.6311  -44.2819  -23.5263 H   0  0  0  0  0  0  0  0  0  0  0  0
  -15.9058  -42.9458  -18.0980 H   0  0  0  0  0  0  0  0  0  0  0  0
  -13.8146  -42.1851  -19.0800 H   0  0  0  0  0  0  0  0  0  0  0  0
  -13.2851  -42.8092  -21.4009 H   0  0  0  0  0  0  0  0  0  0  0  0
  -14.0175  -43.9102  -23.4399 H   0  0  0  0  0  0  0  0  0  0  0  0
  -15.5060  -44.7937  -23.5000 H   0  0  0  0  0  0  0  0  0  0  0  0
  -17.3746  -46.8052  -20.0881 H   0  0  0  0  0  0  0  0  0  0  0  0
  -19.0602  -47.9083  -21.7646 H   0  0  0  0  0  0  0  0  0  0  0  0
  1  2  1  0  0  0  0
  2  3  1  0  0  0  0
  3  4  3  0  0  0  0
  4  5  1  0  0  0  0
  5  6  2  0  0  0  0
  5 16  1  0  0  0  0
  6  7  1  0  0  0  0
  7  8  1  0  0  0  0
  7 15  1  0  0  0  0
  8  9  1  0  0  0  0
  8 13  2  0  0  0  0
  9 10  2  0  0  0  0
 10 11  1  0  0  0  0
 11 12  2  0  0  0  0
 12 13  1  0  0  0  0
 13 14  1  0  0  0  0
 15 16  2  0  0  0  0
  1 17  1  0  0  0  0
  2 18  1  0  0  0  0
  2 19  1  0  0  0  0
  6 20  1  0  0  0  0
 10 21  1  0  0  0  0
 11 22  1  0  0  0  0
 12 23  1  0  0  0  0
 14 24  1  0  0  0  0
 14 25  1  0  0  0  0
 15 26  1  0  0  0  0
 16 27  1  0  0  0  0
M  END
> <BIOSOLVEIT.HYDE_ATOM_SCORES [kJ/mol]>
# Atom-ID; Total; Rec-Desolv; Rec-IA; Lig-Desolv; Lig-IA
1;-4.4592;7.3079;-10.4984;10.2669;-11.5356
2;-4.4664;-2.2110;0.0000;-2.2554;0.0000
3;-1.1739;0.3341;0.0000;-1.5080;0.0000
4;-6.2435;-4.5232;0.0000;-1.7203;0.0000
5;-3.4837;-2.9910;0.0000;-0.4927;0.0000
6;-2.7674;-0.5935;0.0000;-2.1740;0.0000
7;-0.0384;0.0000;0.0000;-0.0384;0.0000
8;0.2589;0.7035;0.0000;-0.4446;0.0000
9;-3.6869;-0.3699;-1.9035;6.9234;-8.3369
10;-0.6854;0.0000;0.0000;-0.6854;0.0000
11;-0.1933;0.2275;0.0000;-0.4208;0.0000
12;-0.1046;1.0894;0.0000;-1.1940;0.0000
13;-0.5858;0.0000;0.0000;-0.5858;0.0000
14;-1.9044;-4.0690;0.0000;2.1646;0.0000
15;-3.3495;-2.0224;0.0000;-1.3272;0.0000
16;-3.0516;-1.4268;0.0000;-1.6248;0.0000

> <BIOSOLVEIT.HYDE_ESTIMATED_AFFINITY_LOWER_BOUNDARY [nM]>
45.623549

> <BIOSOLVEIT.HYDE_ESTIMATED_AFFINITY_UPPER_BOUNDARY [nM]>
4532.969356

> <BIOSOLVEIT.HYDE_LIGAND_EFFICIENCY range: ++, +, 0, -, -->
++

> <BIOSOLVEIT.HYDE_LIGAND_LIPOPHILIC_EFFICIENCY range: ++, +, 0, -, -->
+

> <BIOSOLVEIT.INTER_CLASH range: red, yellow, green>
green

> <BIOSOLVEIT.INTRA_CLASH range: red, yellow, green>
green

> <BIOSOLVEIT.LOGP>
0.7983

> <BIOSOLVEIT.MOLECULAR_WEIGHT>
213.239

> <BIOSOLVEIT.MOLECULE_CHECKSUM>
LTM2LjIwMTQ7Mi4yNjI1OQ==

> <BIOSOLVEIT.TORSION_QUALITY range: red, yellow, green, not rotatable>
green

> <BIOSOLVEIT.TPSA>
64.07

> <BIOSOLVEIT.OPTIBRIUM.2C9 pKi>
3.83982

> <BIOSOLVEIT.OPTIBRIUM.2D6 affinity category>
low

> <BIOSOLVEIT.OPTIBRIUM.BBB category>
-

> <BIOSOLVEIT.OPTIBRIUM.BBB log([brain]:[blood])>
-0.960049

> <BIOSOLVEIT.OPTIBRIUM.hERG pIC50>
4.10041

> <BIOSOLVEIT.OPTIBRIUM.HIA category>
+

> <BIOSOLVEIT.OPTIBRIUM.logD>
-0.432559

> <BIOSOLVEIT.OPTIBRIUM.logP>
0.926122

> <BIOSOLVEIT.OPTIBRIUM.logS @ pH7.4>
2.13616

> <BIOSOLVEIT.OPTIBRIUM.logS>
3.57556

> <BIOSOLVEIT.OPTIBRIUM.P-gp category>
no

> <BIOSOLVEIT.OPTIBRIUM.PPB90 category>
low

$$$$
DF-RdRp-NP002
ilSeeSAR  12182419123D 1   1.00000     0.00000     0
SeeSAR 13.1.1 ill13029
 29 30  0  0  0  0            999 V2000
  -15.1365  -44.1767  -23.0808 O   0  0  0  0  0  0  0  0  0  0  0  0
  -15.2405  -43.9515  -21.7181 C   0  0  0  0  0  0  0  0  0  0  0  0
  -16.3329  -44.4399  -20.9672 C   0  0  0  0  0  0  0  0  0  0  0  0
  -16.5055  -44.1712  -19.6651 N   0  0  0  0  0  0  0  0  0  0  0  0
  -15.5757  -43.4162  -19.0558 C   0  0  0  0  0  0  0  0  0  0  0  0
  -14.4610  -42.9142  -19.6929 C   0  0  0  0  0  0  0  0  0  0  0  0
  -14.2976  -43.1848  -21.0359 C   0  0  0  0  0  0  0  0  0  0  0  0
  -17.3115  -45.3093  -21.5161 N   0  0  0  0  0  0  0  0  0  0  0  0
  -17.8370  -45.2468  -22.7915 C   0  0  0  0  0  0  0  0  0  0  0  0
  -18.7391  -46.2577  -22.9277 C   0  0  0  0  0  0  0  0  0  0  0  0
  -19.5579  -46.5672  -24.1704 C   0  0  0  0  0  0  0  0  0  0  0  0
  -20.1990  -46.8095  -25.1432 C   0  0  0  0  0  0  0  0  0  0  0  0
  -21.0178  -47.1192  -26.3858 C   0  0  0  0  0  0  0  0  0  0  0  0
  -22.0472  -46.1513  -26.5276 O   0  0  0  0  0  0  0  0  0  0  0  0
  -18.7772  -46.9666  -21.7070 C   0  0  0  0  0  0  0  0  0  0  0  0
  -17.8974  -46.3713  -20.8552 C   0  0  0  0  0  0  0  0  0  0  0  0
  -14.1985  -43.4411  -23.8524 C   0  0  0  0  0  0  0  0  0  0  0  0
  -15.7078  -43.1922  -18.0179 H   0  0  0  0  0  0  0  0  0  0  0  0
  -13.7409  -42.3296  -19.1596 H   0  0  0  0  0  0  0  0  0  0  0  0
  -13.4432  -42.8045  -21.5558 H   0  0  0  0  0  0  0  0  0  0  0  0
  -17.5800  -44.5290  -23.5423 H   0  0  0  0  0  0  0  0  0  0  0  0
  -21.4533  -48.0920  -26.2928 H   0  0  0  0  0  0  0  0  0  0  0  0
  -20.3830  -47.0933  -27.2468 H   0  0  0  0  0  0  0  0  0  0  0  0
  -22.8898  -46.6017  -26.8227 H   0  0  0  0  0  0  0  0  0  0  0  0
  -19.3874  -47.8184  -21.4905 H   0  0  0  0  0  0  0  0  0  0  0  0
  -17.6952  -46.6736  -19.8489 H   0  0  0  0  0  0  0  0  0  0  0  0
  -14.2602  -43.7476  -24.8758 H   0  0  0  0  0  0  0  0  0  0  0  0
  -14.4176  -42.3964  -23.7791 H   0  0  0  0  0  0  0  0  0  0  0  0
  -13.2110  -43.6253  -23.4838 H   0  0  0  0  0  0  0  0  0  0  0  0
  1  2  1  0  0  0  0
  1 17  1  0  0  0  0
  2  3  2  0  0  0  0
  2  7  1  0  0  0  0
  3  4  1  0  0  0  0
  3  8  1  0  0  0  0
  4  5  2  0  0  0  0
  5  6  1  0  0  0  0
  6  7  2  0  0  0  0
  8  9  1  0  0  0  0
  8 16  1  0  0  0  0
  9 10  2  0  0  0  0
 10 11  1  0  0  0  0
 10 15  1  0  0  0  0
 11 12  3  0  0  0  0
 12 13  1  0  0  0  0
 13 14  1  0  0  0  0
 15 16  2  0  0  0  0
  5 18  1  0  0  0  0
  6 19  1  0  0  0  0
  7 20  1  0  0  0  0
  9 21  1  0  0  0  0
 13 22  1  0  0  0  0
 13 23  1  0  0  0  0
 14 24  1  0  0  0  0
 15 25  1  0  0  0  0
 16 26  1  0  0  0  0
 17 27  1  0  0  0  0
 17 28  1  0  0  0  0
 17 29  1  0  0  0  0
M  END
> <BIOSOLVEIT.HYDE_ATOM_SCORES [kJ/mol]>
# Atom-ID; Total; Rec-Desolv; Rec-IA; Lig-Desolv; Lig-IA
1;-1.0606;-1.7126;0.0000;0.6520;0.0000
2;0.0490;0.6545;0.0000;-0.6056;0.0000
3;-0.5461;0.0000;0.0000;-0.5461;0.0000
4;-2.0771;-1.1702;-0.8071;6.9699;-7.0697
5;-0.3051;0.3591;0.0000;-0.6642;0.0000
6;-0.9487;-0.5319;0.0000;-0.4169;0.0000
7;-1.0908;0.0000;0.0000;-1.0908;0.0000
8;-0.0559;0.0000;0.0000;-0.0559;0.0000
9;-2.5162;-0.5935;0.0000;-1.9227;0.0000
10;-3.5253;-2.9910;0.0000;-0.5342;0.0000
11;-6.3074;-4.6025;0.0000;-1.7048;0.0000
12;-2.1527;-0.5932;0.0000;-1.5595;0.0000
13;-4.4031;-1.6946;0.0000;-2.7085;0.0000
14;-4.5332;7.5258;-10.5067;9.9924;-11.5448
15;-3.1182;-1.4064;0.0000;-1.7118;0.0000
16;-3.2971;-2.1092;0.0000;-1.1878;0.0000
17;-7.0646;-3.1917;0.0000;-3.8730;0.0000

> <BIOSOLVEIT.HYDE_ESTIMATED_AFFINITY_LOWER_BOUNDARY [nM]>
2.689825

> <BIOSOLVEIT.HYDE_ESTIMATED_AFFINITY_UPPER_BOUNDARY [nM]>
267.249997

> <BIOSOLVEIT.HYDE_LIGAND_EFFICIENCY range: ++, +, 0, -, -->
++

> <BIOSOLVEIT.HYDE_LIGAND_LIPOPHILIC_EFFICIENCY range: ++, +, 0, -, -->
+

> <BIOSOLVEIT.INTER_CLASH range: red, yellow, green>
green

> <BIOSOLVEIT.INTRA_CLASH range: red, yellow, green>
green

> <BIOSOLVEIT.LOGP>
1.2247

> <BIOSOLVEIT.MOLECULAR_WEIGHT>
228.25

> <BIOSOLVEIT.MOLECULE_CHECKSUM>
LTQzLjIxOTI7Mi41NDIzMQ==

> <BIOSOLVEIT.TORSION_QUALITY range: red, yellow, green, not rotatable>
green

> <BIOSOLVEIT.TPSA>
47.28

> <BIOSOLVEIT.OPTIBRIUM.2C9 pKi>
4.0897

> <BIOSOLVEIT.OPTIBRIUM.2D6 affinity category>
low

> <BIOSOLVEIT.OPTIBRIUM.BBB category>
+

> <BIOSOLVEIT.OPTIBRIUM.BBB log([brain]:[blood])>
-0.436663

> <BIOSOLVEIT.OPTIBRIUM.hERG pIC50>
4.42876

> <BIOSOLVEIT.OPTIBRIUM.HIA category>
+

> <BIOSOLVEIT.OPTIBRIUM.logD>
1.50311

> <BIOSOLVEIT.OPTIBRIUM.logP>
1.50311

> <BIOSOLVEIT.OPTIBRIUM.logS @ pH7.4>
3.54421

> <BIOSOLVEIT.OPTIBRIUM.logS>
3.54421

> <BIOSOLVEIT.OPTIBRIUM.P-gp category>
no

> <BIOSOLVEIT.OPTIBRIUM.PPB90 category>
low

$$$$
DF-RdRp-NP003
ilSeeSAR  12182419123D 1   1.00000     0.00000     0
SeeSAR 13.1.1 ill13029
 30 31  0  0  0  0            999 V2000
  -22.2153  -46.3327  -26.2857 O   0  0  0  0  0  0  0  0  0  0  0  0
  -20.9296  -46.9237  -26.4044 C   0  0  0  0  0  0  0  0  0  0  0  0
  -20.1245  -46.6423  -25.1463 C   0  0  0  0  0  0  0  0  0  0  0  0
  -19.4941  -46.4220  -24.1613 C   0  0  0  0  0  0  0  0  0  0  0  0
  -18.6889  -46.1404  -22.9032 C   0  0  0  0  0  0  0  0  0  0  0  0
  -17.7841  -45.1366  -22.7365 C   0  0  0  0  0  0  0  0  0  0  0  0
  -17.2743  -45.2263  -21.4562 N   0  0  0  0  0  0  0  0  0  0  0  0
  -16.2985  -44.3725  -20.8789 C   0  0  0  0  0  0  0  0  0  0  0  0
  -16.5411  -44.0467  -19.6011 N   0  0  0  0  0  0  0  0  0  0  0  0
  -15.6221  -43.3028  -18.9623 C   0  0  0  0  0  0  0  0  0  0  0  0
  -14.4514  -42.8672  -19.5455 C   0  0  0  0  0  0  0  0  0  0  0  0
  -14.2156  -43.1961  -20.8645 C   0  0  0  0  0  0  0  0  0  0  0  0
  -15.1435  -43.9540  -21.5764 C   0  0  0  0  0  0  0  0  0  0  0  0
  -14.9666  -44.2323  -22.9018 N   0  0  0  0  0  0  0  0  0  0  0  0
  -14.4297  -43.2030  -23.8036 C   0  0  0  0  0  0  0  0  0  0  0  0
  -17.8728  -46.2984  -20.8233 C   0  0  0  0  0  0  0  0  0  0  0  0
  -18.7448  -46.8729  -21.6971 C   0  0  0  0  0  0  0  0  0  0  0  0
  -22.9123  -47.0497  -26.2760 H   0  0  0  0  0  0  0  0  0  0  0  0
  -20.4237  -46.5100  -27.2516 H   0  0  0  0  0  0  0  0  0  0  0  0
  -21.0335  -47.9810  -26.5323 H   0  0  0  0  0  0  0  0  0  0  0  0
  -17.5150  -44.4055  -23.4699 H   0  0  0  0  0  0  0  0  0  0  0  0
  -15.8095  -43.0336  -17.9438 H   0  0  0  0  0  0  0  0  0  0  0  0
  -13.7437  -42.2887  -18.9894 H   0  0  0  0  0  0  0  0  0  0  0  0
  -13.3166  -42.8679  -21.3429 H   0  0  0  0  0  0  0  0  0  0  0  0
  -15.2022  -45.1362  -23.2587 H   0  0  0  0  0  0  0  0  0  0  0  0
  -14.3612  -43.5985  -24.7956 H   0  0  0  0  0  0  0  0  0  0  0  0
  -15.0800  -42.3534  -23.8025 H   0  0  0  0  0  0  0  0  0  0  0  0
  -13.4569  -42.9081  -23.4694 H   0  0  0  0  0  0  0  0  0  0  0  0
  -17.6840  -46.6212  -19.8208 H   0  0  0  0  0  0  0  0  0  0  0  0
  -19.3614  -47.7259  -21.5045 H   0  0  0  0  0  0  0  0  0  0  0  0
  1  2  1  0  0  0  0
  2  3  1  0  0  0  0
  3  4  3  0  0  0  0
  4  5  1  0  0  0  0
  5  6  2  0  0  0  0
  5 17  1  0  0  0  0
  6  7  1  0  0  0  0
  7  8  1  0  0  0  0
  7 16  1  0  0  0  0
  8  9  1  0  0  0  0
  8 13  2  0  0  0  0
  9 10  2  0  0  0  0
 10 11  1  0  0  0  0
 11 12  2  0  0  0  0
 12 13  1  0  0  0  0
 13 14  1  0  0  0  0
 14 15  1  0  0  0  0
 16 17  2  0  0  0  0
  1 18  1  0  0  0  0
  2 19  1  0  0  0  0
  2 20  1  0  0  0  0
  6 21  1  0  0  0  0
 10 22  1  0  0  0  0
 11 23  1  0  0  0  0
 12 24  1  0  0  0  0
 14 25  1  0  0  0  0
 15 26  1  0  0  0  0
 15 27  1  0  0  0  0
 15 28  1  0  0  0  0
 16 29  1  0  0  0  0
 17 30  1  0  0  0  0
M  END
> <BIOSOLVEIT.HYDE_ATOM_SCORES [kJ/mol]>
# Atom-ID; Total; Rec-Desolv; Rec-IA; Lig-Desolv; Lig-IA
1;-5.6583;14.4476;-18.8286;10.2694;-11.5466
2;-4.8039;-2.2825;0.0000;-2.5214;0.0000
3;-0.7596;0.8028;0.0000;-1.5625;0.0000
4;-6.5735;-4.8532;0.0000;-1.7203;0.0000
5;-3.4262;-2.8832;0.0000;-0.5430;0.0000
6;-2.1856;0.0000;0.0000;-2.1856;0.0000
7;-0.0283;0.0000;0.0000;-0.0283;0.0000
8;-0.5576;0.0000;0.0000;-0.5576;0.0000
9;-3.5037;-0.3699;-1.8744;6.9502;-8.2096
10;-0.6482;0.0000;0.0000;-0.6482;0.0000
11;0.0618;0.4826;0.0000;-0.4208;0.0000
12;-0.0580;1.0871;0.0000;-1.1451;0.0000
13;0.2610;0.6754;0.0000;-0.4144;0.0000
14;3.6828;-3.2508;0.0000;6.9336;0.0000
15;-7.2343;-3.0678;0.0000;-4.1665;0.0000
16;-3.1560;-2.0120;0.0000;-1.1440;0.0000
17;-2.6029;-0.9820;0.0000;-1.6208;0.0000

> <BIOSOLVEIT.HYDE_ESTIMATED_AFFINITY_LOWER_BOUNDARY [nM]>
27.728492

> <BIOSOLVEIT.HYDE_ESTIMATED_AFFINITY_UPPER_BOUNDARY [nM]>
2754.989595

> <BIOSOLVEIT.HYDE_LIGAND_EFFICIENCY range: ++, +, 0, -, -->
++

> <BIOSOLVEIT.HYDE_LIGAND_LIPOPHILIC_EFFICIENCY range: ++, +, 0, -, -->
+

> <BIOSOLVEIT.INTER_CLASH range: red, yellow, green>
green

> <BIOSOLVEIT.INTRA_CLASH range: red, yellow, green>
green

> <BIOSOLVEIT.LOGP>
1.2578

> <BIOSOLVEIT.MOLECULAR_WEIGHT>
227.266

> <BIOSOLVEIT.MOLECULE_CHECKSUM>
LTM3LjQzNTg7Mi4yMDIxMQ==

> <BIOSOLVEIT.TORSION_QUALITY range: red, yellow, green, not rotatable>
yellow

> <BIOSOLVEIT.TPSA>
50.08

> <BIOSOLVEIT.OPTIBRIUM.2C9 pKi>
3.96365

> <BIOSOLVEIT.OPTIBRIUM.2D6 affinity category>
low

> <BIOSOLVEIT.OPTIBRIUM.BBB category>
+

> <BIOSOLVEIT.OPTIBRIUM.BBB log([brain]:[blood])>
-0.720327

> <BIOSOLVEIT.OPTIBRIUM.hERG pIC50>
4.55289

> <BIOSOLVEIT.OPTIBRIUM.HIA category>
+

> <BIOSOLVEIT.OPTIBRIUM.logD>
-0.326976

> <BIOSOLVEIT.OPTIBRIUM.logP>
0.990044

> <BIOSOLVEIT.OPTIBRIUM.logS @ pH7.4>
2.11691

> <BIOSOLVEIT.OPTIBRIUM.logS>
3.91399

> <BIOSOLVEIT.OPTIBRIUM.P-gp category>
no

> <BIOSOLVEIT.OPTIBRIUM.PPB90 category>
low

$$$$
DF-RdRp-NP004
ilSeeSAR  12182419123D 1   1.00000     0.00000     0
SeeSAR 13.1.1 ill13029
 39 40  0  0  0  0            999 V2000
  -14.4067  -44.4584  -16.1728 O   0  0  0  0  0  0  0  0  0  0  0  0
  -15.5946  -43.9196  -16.2937 C   0  0  0  0  0  0  0  0  0  0  0  0
  -15.8326  -42.8260  -15.7715 O   0  5  0  0  0  0  0  0  0  0  0  0
  -16.6801  -44.6403  -17.0766 C   0  0  0  0  0  0  0  0  0  0  0  0
  -16.3363  -44.6185  -18.5569 C   0  0  0  0  0  0  0  0  0  0  0  0
  -17.1167  -45.3160  -19.3997 N   0  0  0  0  0  0  0  0  0  0  0  0
  -16.8077  -45.2840  -20.7039 C   0  0  0  0  0  0  0  0  0  0  0  0
  -17.6278  -46.1105  -21.5160 N   0  0  0  0  0  0  0  0  0  0  0  0
  -18.2032  -45.7589  -22.7209 C   0  0  0  0  0  0  0  0  0  0  0  0
  -18.9062  -46.8299  -23.1827 C   0  0  0  0  0  0  0  0  0  0  0  0
  -19.6994  -46.8908  -24.4779 C   0  0  0  0  0  0  0  0  0  0  0  0
  -20.3206  -46.9383  -25.4918 C   0  0  0  0  0  0  0  0  0  0  0  0
  -21.1137  -46.9994  -26.7870 C   0  0  0  0  0  0  0  0  0  0  0  0
  -22.3097  -46.2467  -26.6456 O   0  0  0  0  0  0  0  0  0  0  0  0
  -18.7660  -47.8736  -22.2418 C   0  0  0  0  0  0  0  0  0  0  0  0
  -17.9808  -47.4146  -21.2286 C   0  0  0  0  0  0  0  0  0  0  0  0
  -15.7239  -44.5412  -21.2226 C   0  0  0  0  0  0  0  0  0  0  0  0
  -15.4831  -44.4609  -22.5842 O   0  0  0  0  0  0  0  0  0  0  0  0
  -15.5919  -43.2127  -23.2521 C   0  0  0  0  0  0  0  0  0  0  0  0
  -14.9378  -43.8465  -20.3051 C   0  0  0  0  0  0  0  0  0  0  0  0
  -15.2413  -43.8843  -18.9597 C   0  0  0  0  0  0  0  0  0  0  0  0
  -13.7411  -43.0436  -20.7888 C   0  0  0  0  0  0  0  0  0  0  0  0
  -13.8871  -41.5980  -20.3422 C   0  0  0  0  0  0  0  0  0  0  0  0
  -14.6777  -40.7860  -20.9994 O   0  0  0  0  0  0  0  0  0  0  0  0
  -13.2603  -41.1889  -19.3597 O   0  5  0  0  0  0  0  0  0  0  0  0
  -17.6179  -44.1491  -16.9211 H   0  0  0  0  0  0  0  0  0  0  0  0
  -16.7485  -45.6540  -16.7413 H   0  0  0  0  0  0  0  0  0  0  0  0
  -18.1126  -44.8101  -23.2071 H   0  0  0  0  0  0  0  0  0  0  0  0
  -21.3571  -48.0175  -27.0085 H   0  0  0  0  0  0  0  0  0  0  0  0
  -20.5276  -46.5913  -27.5838 H   0  0  0  0  0  0  0  0  0  0  0  0
  -23.0607  -46.8580  -26.3959 H   0  0  0  0  0  0  0  0  0  0  0  0
  -19.1990  -48.8496  -22.3124 H   0  0  0  0  0  0  0  0  0  0  0  0
  -17.6881  -47.9678  -20.3608 H   0  0  0  0  0  0  0  0  0  0  0  0
  -15.3720  -43.3437  -24.2911 H   0  0  0  0  0  0  0  0  0  0  0  0
  -16.5872  -42.8353  -23.1430 H   0  0  0  0  0  0  0  0  0  0  0  0
  -14.8985  -42.5183  -22.8256 H   0  0  0  0  0  0  0  0  0  0  0  0
  -14.6419  -43.3571  -18.2470 H   0  0  0  0  0  0  0  0  0  0  0  0
  -13.6928  -43.0838  -21.8570 H   0  0  0  0  0  0  0  0  0  0  0  0
  -12.8444  -43.4558  -20.3754 H   0  0  0  0  0  0  0  0  0  0  0  0
  1  2  2  0  0  0  0
  2  3  1  0  0  0  0
  2  4  1  0  0  0  0
  4  5  1  0  0  0  0
  5  6  2  0  0  0  0
  5 21  1  0  0  0  0
  6  7  1  0  0  0  0
  7  8  1  0  0  0  0
  7 17  2  0  0  0  0
  8  9  1  0  0  0  0
  8 16  1  0  0  0  0
  9 10  2  0  0  0  0
 10 11  1  0  0  0  0
 10 15  1  0  0  0  0
 11 12  3  0  0  0  0
 12 13  1  0  0  0  0
 13 14  1  0  0  0  0
 15 16  2  0  0  0  0
 17 18  1  0  0  0  0
 17 20  1  0  0  0  0
 18 19  1  0  0  0  0
 20 21  2  0  0  0  0
 20 22  1  0  0  0  0
 22 23  1  0  0  0  0
 23 24  2  0  0  0  0
 23 25  1  0  0  0  0
  4 26  1  0  0  0  0
  4 27  1  0  0  0  0
  9 28  1  0  0  0  0
 13 29  1  0  0  0  0
 13 30  1  0  0  0  0
 14 31  1  0  0  0  0
 15 32  1  0  0  0  0
 16 33  1  0  0  0  0
 19 34  1  0  0  0  0
 19 35  1  0  0  0  0
 19 36  1  0  0  0  0
 21 37  1  0  0  0  0
 22 38  1  0  0  0  0
 22 39  1  0  0  0  0
M  CHG  2   3  -1  25  -1
M  END
> <BIOSOLVEIT.HYDE_ATOM_SCORES [kJ/mol]>
# Atom-ID; Total; Rec-Desolv; Rec-IA; Lig-Desolv; Lig-IA
1;-1.9117;7.6166;-8.4274;4.0347;-5.1355
2;0.0000;0.0000;0.0000;0.0000;0.0000
3;-0.8272;1.8673;-1.9244;4.3662;-5.1363
4;0.8334;1.7277;0.0000;-0.8943;0.0000
5;-0.3386;0.0000;0.0000;-0.3386;0.0000
6;0.4474;-1.4903;0.0000;1.9377;0.0000
7;-0.2631;0.0000;0.0000;-0.2631;0.0000
8;-0.0651;0.0000;0.0000;-0.0651;0.0000
9;-3.3677;-1.4143;0.0000;-1.9533;0.0000
10;-2.4316;-1.9891;0.0000;-0.4425;0.0000
11;-7.7723;-6.1413;0.0000;-1.6311;0.0000
12;-1.2435;0.1809;0.0000;-1.4244;0.0000
13;-4.4742;-1.8998;0.0000;-2.5744;0.0000
14;-4.9042;15.2400;-18.8285;10.2309;-11.5465
15;-2.3772;-0.5359;0.0000;-1.8412;0.0000
16;-2.7181;-1.2304;0.0000;-1.4878;0.0000
17;-0.3554;0.0000;0.0000;-0.3554;0.0000
18;0.4455;-3.4413;0.0000;3.8868;0.0000
19;-5.5378;-2.2071;0.0000;-3.3307;0.0000
20;-0.2373;0.0000;0.0000;-0.2373;0.0000
21;-0.6600;0.0000;0.0000;-0.6600;0.0000
22;-2.2416;-0.3145;0.0000;-1.9271;0.0000
23;-0.0208;0.0000;0.0000;-0.0208;0.0000
24;-2.6132;0.4887;-1.9068;3.8941;-5.0892
25;0.2887;-0.0382;0.0000;0.3270;0.0000

> <BIOSOLVEIT.HYDE_ESTIMATED_AFFINITY_LOWER_BOUNDARY [nM]>
3.436805

> <BIOSOLVEIT.HYDE_ESTIMATED_AFFINITY_UPPER_BOUNDARY [nM]>
341.466853

> <BIOSOLVEIT.HYDE_LIGAND_EFFICIENCY range: ++, +, 0, -, -->
+

> <BIOSOLVEIT.HYDE_LIGAND_LIPOPHILIC_EFFICIENCY range: ++, +, 0, -, -->
++

> <BIOSOLVEIT.INTER_CLASH range: red, yellow, green>
green

> <BIOSOLVEIT.INTRA_CLASH range: red, yellow, green>
green

> <BIOSOLVEIT.LOGP>
-2.1905

> <BIOSOLVEIT.MOLECULAR_WEIGHT>
342.306

> <BIOSOLVEIT.MOLECULE_CHECKSUM>
LTQyLjYxMTc7MS43MDQ0Nw==

> <BIOSOLVEIT.TORSION_QUALITY range: red, yellow, green, not rotatable>
red

> <BIOSOLVEIT.TPSA>
127.54

> <BIOSOLVEIT.OPTIBRIUM.2C9 pKi>
4.57565

> <BIOSOLVEIT.OPTIBRIUM.2D6 affinity category>
low

> <BIOSOLVEIT.OPTIBRIUM.BBB category>
-

> <BIOSOLVEIT.OPTIBRIUM.BBB log([brain]:[blood])>
-1.7672

> <BIOSOLVEIT.OPTIBRIUM.hERG pIC50>
2.53713

> <BIOSOLVEIT.OPTIBRIUM.HIA category>
-

> <BIOSOLVEIT.OPTIBRIUM.logD>
-3.42697

> <BIOSOLVEIT.OPTIBRIUM.logP>
0.61762

> <BIOSOLVEIT.OPTIBRIUM.logS @ pH7.4>
3.94552

> <BIOSOLVEIT.OPTIBRIUM.logS>
3.03192

> <BIOSOLVEIT.OPTIBRIUM.P-gp category>
no

> <BIOSOLVEIT.OPTIBRIUM.PPB90 category>
low

$$$$
DF-RdRp-NP005
ilSeeSAR  12182419123D 1   1.00000     0.00000     0
SeeSAR 13.1.1 ill13029
 39 40  0  0  0  0            999 V2000
  -17.0541  -41.3229  -15.7551 S   0  0  0  0  0  0  0  0  0  0  0  0
  -18.2728  -40.5574  -15.7052 O   0  0  0  0  0  0  0  0  0  0  0  0
  -17.1881  -42.4934  -14.9272 O   0  0  0  0  0  0  0  0  0  0  0  0
  -16.7595  -41.7759  -17.2930 N   0  0  0  0  0  0  0  0  0  0  0  0
  -15.8282  -42.7459  -17.5549 C   0  0  0  0  0  0  0  0  0  0  0  0
  -15.2120  -43.2772  -16.6259 O   0  0  0  0  0  0  0  0  0  0  0  0
  -15.5600  -43.1586  -18.9559 C   0  0  0  0  0  0  0  0  0  0  0  0
  -16.4488  -43.9645  -19.5611 N   0  0  0  0  0  0  0  0  0  0  0  0
  -16.1995  -44.3252  -20.8281 C   0  0  0  0  0  0  0  0  0  0  0  0
  -17.1400  -45.2413  -21.3676 N   0  0  0  0  0  0  0  0  0  0  0  0
  -17.7107  -45.1820  -22.6236 C   0  0  0  0  0  0  0  0  0  0  0  0
  -18.5523  -46.2441  -22.7568 C   0  0  0  0  0  0  0  0  0  0  0  0
  -19.3913  -46.5752  -23.9803 C   0  0  0  0  0  0  0  0  0  0  0  0
  -20.0483  -46.8344  -24.9380 C   0  0  0  0  0  0  0  0  0  0  0  0
  -20.8873  -47.1656  -26.1614 C   0  0  0  0  0  0  0  0  0  0  0  0
  -21.9790  -46.2613  -26.2456 O   0  0  0  0  0  0  0  0  0  0  0  0
  -18.5056  -46.9825  -21.5540 C   0  0  0  0  0  0  0  0  0  0  0  0
  -17.6365  -46.3533  -20.7157 C   0  0  0  0  0  0  0  0  0  0  0  0
  -15.0679  -43.8822  -21.5485 C   0  0  0  0  0  0  0  0  0  0  0  0
  -14.8838  -44.2046  -22.8829 O   0  0  0  0  0  0  0  0  0  0  0  0
  -14.3497  -43.2410  -23.7788 C   0  0  0  0  0  0  0  0  0  0  0  0
  -14.1702  -43.0593  -20.8708 C   0  0  0  0  0  0  0  0  0  0  0  0
  -14.4128  -42.6936  -19.5627 C   0  0  0  0  0  0  0  0  0  0  0  0
  -15.6806  -40.3106  -15.1508 C   0  0  0  0  0  0  0  0  0  0  0  0
  -17.2585  -41.3456  -18.0452 H   0  0  0  0  0  0  0  0  0  0  0  0
  -17.5240  -44.4319  -23.3635 H   0  0  0  0  0  0  0  0  0  0  0  0
  -21.2582  -48.1659  -26.0793 H   0  0  0  0  0  0  0  0  0  0  0  0
  -20.2844  -47.0799  -27.0413 H   0  0  0  0  0  0  0  0  0  0  0  0
  -22.7749  -46.7339  -26.6238 H   0  0  0  0  0  0  0  0  0  0  0  0
  -19.0544  -47.8758  -21.3399 H   0  0  0  0  0  0  0  0  0  0  0  0
  -17.3823  -46.6658  -19.7244 H   0  0  0  0  0  0  0  0  0  0  0  0
  -14.2798  -43.6653  -24.7587 H   0  0  0  0  0  0  0  0  0  0  0  0
  -14.9910  -42.3849  -23.8058 H   0  0  0  0  0  0  0  0  0  0  0  0
  -13.3759  -42.9468  -23.4472 H   0  0  0  0  0  0  0  0  0  0  0  0
  -13.2892  -42.7095  -21.3671 H   0  0  0  0  0  0  0  0  0  0  0  0
  -13.7279  -42.0652  -19.0328 H   0  0  0  0  0  0  0  0  0  0  0  0
  -14.7751  -40.8793  -15.1879 H   0  0  0  0  0  0  0  0  0  0  0  0
  -15.5810  -39.4407  -15.7660 H   0  0  0  0  0  0  0  0  0  0  0  0
  -15.8739  -40.0132  -14.1412 H   0  0  0  0  0  0  0  0  0  0  0  0
  1  2  2  0  0  0  0
  1  3  2  0  0  0  0
  1  4  1  0  0  0  0
  1 24  1  0  0  0  0
  4  5  1  0  0  0  0
  5  6  2  0  0  0  0
  5  7  1  0  0  0  0
  7  8  2  0  0  0  0
  7 23  1  0  0  0  0
  8  9  1  0  0  0  0
  9 10  1  0  0  0  0
  9 19  2  0  0  0  0
 10 11  1  0  0  0  0
 10 18  1  0  0  0  0
 11 12  2  0  0  0  0
 12 13  1  0  0  0  0
 12 17  1  0  0  0  0
 13 14  3  0  0  0  0
 14 15  1  0  0  0  0
 15 16  1  0  0  0  0
 17 18  2  0  0  0  0
 19 20  1  0  0  0  0
 19 22  1  0  0  0  0
 20 21  1  0  0  0  0
 22 23  2  0  0  0  0
  4 25  1  0  0  0  0
 11 26  1  0  0  0  0
 15 27  1  0  0  0  0
 15 28  1  0  0  0  0
 16 29  1  0  0  0  0
 17 30  1  0  0  0  0
 18 31  1  0  0  0  0
 21 32  1  0  0  0  0
 21 33  1  0  0  0  0
 21 34  1  0  0  0  0
 22 35  1  0  0  0  0
 23 36  1  0  0  0  0
 24 37  1  0  0  0  0
 24 38  1  0  0  0  0
 24 39  1  0  0  0  0
M  END
> <BIOSOLVEIT.HYDE_ATOM_SCORES [kJ/mol]>
# Atom-ID; Total; Rec-Desolv; Rec-IA; Lig-Desolv; Lig-IA
1;-0.1092;0.0000;0.0000;-0.1092;0.0000
2;-3.1184;6.4255;-8.4286;2.8543;-3.9696
3;7.3020;7.2997;0.0000;0.0023;0.0000
4;7.2941;0.4352;0.0000;6.8590;0.0000
5;-0.0682;0.0000;0.0000;-0.0682;0.0000
6;7.8825;6.9492;0.0000;0.9333;0.0000
7;-0.4157;0.0000;0.0000;-0.4157;0.0000
8;-3.7580;-0.4733;-1.8937;6.9028;-8.2939
9;-0.4943;0.0000;0.0000;-0.4943;0.0000
10;-0.0282;0.0000;0.0000;-0.0282;0.0000
11;-2.6727;-0.5935;0.0000;-2.0792;0.0000
12;-2.2576;-1.7649;0.0000;-0.4927;0.0000
13;-4.6512;-3.2395;0.0000;-1.4117;0.0000
14;-2.8370;-1.3805;0.0000;-1.4565;0.0000
15;-4.3170;-1.7841;0.0000;-2.5330;0.0000
16;-4.9661;6.9549;-10.3089;9.8886;-11.5008
17;-2.6905;-1.2070;0.0000;-1.4835;0.0000
18;-2.2087;-1.1951;0.0000;-1.0136;0.0000
19;0.1578;0.6698;0.0000;-0.5121;0.0000
20;0.6608;-3.3007;0.0000;3.9615;0.0000
21;-7.2541;-3.0678;0.0000;-4.1864;0.0000
22;0.0289;0.9552;0.0000;-0.9263;0.0000
23;-0.5779;0.0000;0.0000;-0.5779;0.0000
24;0.0000;0.0000;0.0000;0.0000;0.0000

> <BIOSOLVEIT.HYDE_ESTIMATED_AFFINITY_LOWER_BOUNDARY [nM]>
37972.885361

> <BIOSOLVEIT.HYDE_ESTIMATED_AFFINITY_UPPER_BOUNDARY [nM]>
3772830.674036

> <BIOSOLVEIT.HYDE_LIGAND_EFFICIENCY range: ++, +, 0, -, -->
--

> <BIOSOLVEIT.HYDE_LIGAND_LIPOPHILIC_EFFICIENCY range: ++, +, 0, -, -->
-

> <BIOSOLVEIT.INTER_CLASH range: red, yellow, green>
green

> <BIOSOLVEIT.INTRA_CLASH range: red, yellow, green>
green

> <BIOSOLVEIT.LOGP>
0.5647

> <BIOSOLVEIT.MOLECULAR_WEIGHT>
349.365

> <BIOSOLVEIT.MOLECULE_CHECKSUM>
LTE5LjUzMjQ7MC44MTM4NQ==

> <BIOSOLVEIT.TORSION_QUALITY range: red, yellow, green, not rotatable>
red

> <BIOSOLVEIT.TPSA>
110.52

> <BIOSOLVEIT.OPTIBRIUM.2C9 pKi>
4.58947

> <BIOSOLVEIT.OPTIBRIUM.2D6 affinity category>
low

> <BIOSOLVEIT.OPTIBRIUM.BBB category>
-

> <BIOSOLVEIT.OPTIBRIUM.BBB log([brain]:[blood])>
-0.926318

> <BIOSOLVEIT.OPTIBRIUM.hERG pIC50>
4.40255

> <BIOSOLVEIT.OPTIBRIUM.HIA category>
-

> <BIOSOLVEIT.OPTIBRIUM.logD>
-0.945754

> <BIOSOLVEIT.OPTIBRIUM.logP>
0.025872

> <BIOSOLVEIT.OPTIBRIUM.logS @ pH7.4>
3.19425

> <BIOSOLVEIT.OPTIBRIUM.logS>
3.25724

> <BIOSOLVEIT.OPTIBRIUM.P-gp category>
no

> <BIOSOLVEIT.OPTIBRIUM.PPB90 category>
low

$$$$
DF-RdRp-NP006
ilSeeSAR  12182419123D 1   1.00000     0.00000     0
SeeSAR 13.1.1 ill13029
 33 34  0  0  0  0            999 V2000
  -17.5408  -41.9784  -14.8509 S   0  0  0  0  0  0  0  0  0  0  0  0
  -18.9142  -41.5463  -14.8336 O   0  0  0  0  0  0  0  0  0  0  0  0
  -17.4042  -43.1750  -14.0616 O   0  0  0  0  0  0  0  0  0  0  0  0
  -17.0870  -42.2855  -16.3861 N   0  0  0  0  0  0  0  0  0  0  0  0
  -15.8536  -42.8246  -16.6411 C   0  0  0  0  0  0  0  0  0  0  0  0
  -15.0855  -43.0779  -15.7077 O   0  0  0  0  0  0  0  0  0  0  0  0
  -15.4402  -43.1043  -18.0397 C   0  0  0  0  0  0  0  0  0  0  0  0
  -16.2571  -43.8466  -18.8061 N   0  0  0  0  0  0  0  0  0  0  0  0
  -15.8767  -44.0871  -20.0690 C   0  0  0  0  0  0  0  0  0  0  0  0
  -16.7610  -44.9549  -20.7944 N   0  0  0  0  0  0  0  0  0  0  0  0
  -17.3813  -44.6429  -21.9925 C   0  0  0  0  0  0  0  0  0  0  0  0
  -18.1359  -45.7195  -22.3583 C   0  0  0  0  0  0  0  0  0  0  0  0
  -17.9713  -46.7263  -21.3488 C   0  0  0  0  0  0  0  0  0  0  0  0
  -17.1231  -46.2316  -20.4011 C   0  0  0  0  0  0  0  0  0  0  0  0
  -14.6799  -43.5821  -20.6244 C   0  0  0  0  0  0  0  0  0  0  0  0
  -14.3577  -43.7778  -21.9571 O   0  0  0  0  0  0  0  0  0  0  0  0
  -14.1902  -42.6614  -22.8184 C   0  0  0  0  0  0  0  0  0  0  0  0
  -13.8618  -42.8296  -19.7835 C   0  0  0  0  0  0  0  0  0  0  0  0
  -14.2398  -42.5881  -18.4787 C   0  0  0  0  0  0  0  0  0  0  0  0
  -16.4898  -40.6768  -14.1601 C   0  0  0  0  0  0  0  0  0  0  0  0
  -17.7090  -42.0804  -17.1419 H   0  0  0  0  0  0  0  0  0  0  0  0
  -17.2863  -43.7244  -22.5331 H   0  0  0  0  0  0  0  0  0  0  0  0
  -18.7402  -45.7986  -23.2377 H   0  0  0  0  0  0  0  0  0  0  0  0
  -18.4316  -47.6922  -21.3407 H   0  0  0  0  0  0  0  0  0  0  0  0
  -16.7977  -46.7378  -19.5164 H   0  0  0  0  0  0  0  0  0  0  0  0
  -13.9457  -43.0035  -23.8023 H   0  0  0  0  0  0  0  0  0  0  0  0
  -15.0989  -42.0976  -22.8524 H   0  0  0  0  0  0  0  0  0  0  0  0
  -13.3995  -42.0418  -22.4496 H   0  0  0  0  0  0  0  0  0  0  0  0
  -12.9367  -42.4377  -20.1514 H   0  0  0  0  0  0  0  0  0  0  0  0
  -13.6169  -42.0146  -17.8244 H   0  0  0  0  0  0  0  0  0  0  0  0
  -15.4693  -40.9979  -14.1729 H   0  0  0  0  0  0  0  0  0  0  0  0
  -16.5914  -39.7876  -14.7466 H   0  0  0  0  0  0  0  0  0  0  0  0
  -16.7877  -40.4752  -13.1523 H   0  0  0  0  0  0  0  0  0  0  0  0
  1  2  2  0  0  0  0
  1  3  2  0  0  0  0
  1  4  1  0  0  0  0
  1 20  1  0  0  0  0
  4  5  1  0  0  0  0
  5  6  2  0  0  0  0
  5  7  1  0  0  0  0
  7  8  2  0  0  0  0
  7 19  1  0  0  0  0
  8  9  1  0  0  0  0
  9 10  1  0  0  0  0
  9 15  2  0  0  0  0
 10 11  1  0  0  0  0
 10 14  1  0  0  0  0
 11 12  2  0  0  0  0
 12 13  1  0  0  0  0
 13 14  2  0  0  0  0
 15 16  1  0  0  0  0
 15 18  1  0  0  0  0
 16 17  1  0  0  0  0
 18 19  2  0  0  0  0
  4 21  1  0  0  0  0
 11 22  1  0  0  0  0
 12 23  1  0  0  0  0
 13 24  1  0  0  0  0
 14 25  1  0  0  0  0
 17 26  1  0  0  0  0
 17 27  1  0  0  0  0
 17 28  1  0  0  0  0
 18 29  1  0  0  0  0
 19 30  1  0  0  0  0
 20 31  1  0  0  0  0
 20 32  1  0  0  0  0
 20 33  1  0  0  0  0
M  END
> <BIOSOLVEIT.HYDE_ATOM_SCORES [kJ/mol]>
# Atom-ID; Total; Rec-Desolv; Rec-IA; Lig-Desolv; Lig-IA
1;-0.0500;0.0000;0.0000;-0.0500;0.0000
2;-4.2485;5.1753;-8.4282;2.9737;-3.9694
3;7.1381;16.2390;-8.3025;3.1117;-3.9102
4;-1.5365;1.2301;-1.8070;6.9545;-7.9141
5;0.0000;0.0000;0.0000;0.0000;0.0000
6;0.0521;0.0459;0.0000;0.0062;0.0000
7;-0.2745;0.0000;0.0000;-0.2745;0.0000
8;0.3190;0.8180;-0.7563;6.8825;-6.6250
9;-0.5050;0.0000;0.0000;-0.5050;0.0000
10;-0.0401;0.0000;0.0000;-0.0401;0.0000
11;-4.0603;-2.3109;0.0000;-1.7494;0.0000
12;-5.0448;-3.5313;0.0000;-1.5135;0.0000
13;-1.8686;-0.5200;0.0000;-1.3486;0.0000
14;-2.6177;-1.5602;0.0000;-1.0575;0.0000
15;-0.2873;0.0000;0.0000;-0.2873;0.0000
16;0.8512;-3.0436;0.0000;3.8948;0.0000
17;-4.1756;-1.0035;0.0000;-3.1721;0.0000
18;-1.6463;-0.8551;0.0000;-0.7913;0.0000
19;6.5630;6.8681;0.0000;-0.3051;0.0000
20;0.0000;0.0000;0.0000;0.0000;0.0000

> <BIOSOLVEIT.HYDE_ESTIMATED_AFFINITY_LOWER_BOUNDARY [nM]>
859892.132072

> <BIOSOLVEIT.HYDE_ESTIMATED_AFFINITY_UPPER_BOUNDARY [nM]>
85435367.406016

> <BIOSOLVEIT.HYDE_LIGAND_EFFICIENCY range: ++, +, 0, -, -->
--

> <BIOSOLVEIT.HYDE_LIGAND_LIPOPHILIC_EFFICIENCY range: ++, +, 0, -, -->
--

> <BIOSOLVEIT.INTER_CLASH range: red, yellow, green>
green

> <BIOSOLVEIT.INTRA_CLASH range: red, yellow, green>
green

> <BIOSOLVEIT.LOGP>
1.2209

> <BIOSOLVEIT.MOLECULAR_WEIGHT>
295.317

> <BIOSOLVEIT.MOLECULE_CHECKSUM>
LTExLjc5ODI7MC41ODk5MTE=

> <BIOSOLVEIT.TORSION_QUALITY range: red, yellow, green, not rotatable>
red

> <BIOSOLVEIT.TPSA>
90.29

> <BIOSOLVEIT.OPTIBRIUM.2C9 pKi>
4.30115

> <BIOSOLVEIT.OPTIBRIUM.2D6 affinity category>
low

> <BIOSOLVEIT.OPTIBRIUM.BBB category>
-

> <BIOSOLVEIT.OPTIBRIUM.BBB log([brain]:[blood])>
-0.712574

> <BIOSOLVEIT.OPTIBRIUM.hERG pIC50>
4.36488

> <BIOSOLVEIT.OPTIBRIUM.HIA category>
+

> <BIOSOLVEIT.OPTIBRIUM.logD>
-0.573986

> <BIOSOLVEIT.OPTIBRIUM.logP>
0.0106319

> <BIOSOLVEIT.OPTIBRIUM.logS @ pH7.4>
3.209

> <BIOSOLVEIT.OPTIBRIUM.logS>
3.69412

> <BIOSOLVEIT.OPTIBRIUM.P-gp category>
no

> <BIOSOLVEIT.OPTIBRIUM.PPB90 category>
low

$$$$
DF-RdRp-NP007
ilSeeSAR  12182419123D 1   1.00000     0.00000     0
SeeSAR 13.1.1 ill13029
 32 33  0  0  0  0            999 V2000
  -15.0914  -44.0991  -23.0324 O   0  0  0  0  0  0  0  0  0  0  0  0
  -15.1715  -43.8773  -21.6675 C   0  0  0  0  0  0  0  0  0  0  0  0
  -16.2338  -44.3949  -20.8933 C   0  0  0  0  0  0  0  0  0  0  0  0
  -16.3849  -44.1314  -19.5875 N   0  0  0  0  0  0  0  0  0  0  0  0
  -15.4623  -43.3522  -18.9980 C   0  0  0  0  0  0  0  0  0  0  0  0
  -14.3756  -42.8205  -19.6588 C   0  0  0  0  0  0  0  0  0  0  0  0
  -14.2346  -43.0861  -21.0054 C   0  0  0  0  0  0  0  0  0  0  0  0
  -13.3587  -41.9634  -18.9230 C   0  0  0  0  0  0  0  0  0  0  0  0
  -17.2007  -45.2898  -21.4215 N   0  0  0  0  0  0  0  0  0  0  0  0
  -17.7592  -45.2378  -22.6833 C   0  0  0  0  0  0  0  0  0  0  0  0
  -18.6355  -46.2734  -22.8014 C   0  0  0  0  0  0  0  0  0  0  0  0
  -19.4758  -46.6017  -24.0248 C   0  0  0  0  0  0  0  0  0  0  0  0
  -20.1337  -46.8587  -24.9824 C   0  0  0  0  0  0  0  0  0  0  0  0
  -20.9740  -47.1872  -26.2057 C   0  0  0  0  0  0  0  0  0  0  0  0
  -22.0335  -46.2484  -26.3181 O   0  0  0  0  0  0  0  0  0  0  0  0
  -18.6233  -46.9873  -21.5831 C   0  0  0  0  0  0  0  0  0  0  0  0
  -17.7398  -46.3703  -20.7508 C   0  0  0  0  0  0  0  0  0  0  0  0
  -14.1598  -43.3691  -23.8169 C   0  0  0  0  0  0  0  0  0  0  0  0
  -15.5777  -43.1322  -17.9572 H   0  0  0  0  0  0  0  0  0  0  0  0
  -13.4023  -42.6829  -21.5436 H   0  0  0  0  0  0  0  0  0  0  0  0
  -12.5969  -41.6488  -19.6054 H   0  0  0  0  0  0  0  0  0  0  0  0
  -13.8467  -41.1042  -18.5125 H   0  0  0  0  0  0  0  0  0  0  0  0
  -12.9164  -42.5337  -18.1331 H   0  0  0  0  0  0  0  0  0  0  0  0
  -17.5414  -44.5104  -23.4371 H   0  0  0  0  0  0  0  0  0  0  0  0
  -21.3794  -48.1724  -26.1059 H   0  0  0  0  0  0  0  0  0  0  0  0
  -20.3617  -47.1407  -27.0820 H   0  0  0  0  0  0  0  0  0  0  0  0
  -22.8332  -46.6948  -26.7195 H   0  0  0  0  0  0  0  0  0  0  0  0
  -19.2038  -47.8567  -21.3550 H   0  0  0  0  0  0  0  0  0  0  0  0
  -17.5042  -46.6702  -19.7510 H   0  0  0  0  0  0  0  0  0  0  0  0
  -14.2407  -43.6716  -24.8400 H   0  0  0  0  0  0  0  0  0  0  0  0
  -14.3687  -42.3227  -23.7368 H   0  0  0  0  0  0  0  0  0  0  0  0
  -13.1681  -43.5627  -23.4650 H   0  0  0  0  0  0  0  0  0  0  0  0
  1  2  1  0  0  0  0
  1 18  1  0  0  0  0
  2  3  2  0  0  0  0
  2  7  1  0  0  0  0
  3  4  1  0  0  0  0
  3  9  1  0  0  0  0
  4  5  2  0  0  0  0
  5  6  1  0  0  0  0
  6  7  2  0  0  0  0
  6  8  1  0  0  0  0
  9 10  1  0  0  0  0
  9 17  1  0  0  0  0
 10 11  2  0  0  0  0
 11 12  1  0  0  0  0
 11 16  1  0  0  0  0
 12 13  3  0  0  0  0
 13 14  1  0  0  0  0
 14 15  1  0  0  0  0
 16 17  2  0  0  0  0
  5 19  1  0  0  0  0
  7 20  1  0  0  0  0
  8 21  1  0  0  0  0
  8 22  1  0  0  0  0
  8 23  1  0  0  0  0
 10 24  1  0  0  0  0
 14 25  1  0  0  0  0
 14 26  1  0  0  0  0
 15 27  1  0  0  0  0
 16 28  1  0  0  0  0
 17 29  1  0  0  0  0
 18 30  1  0  0  0  0
 18 31  1  0  0  0  0
 18 32  1  0  0  0  0
M  END
> <BIOSOLVEIT.HYDE_ATOM_SCORES [kJ/mol]>
# Atom-ID; Total; Rec-Desolv; Rec-IA; Lig-Desolv; Lig-IA
1;-1.4233;-1.7626;0.0000;0.3393;0.0000
2;-0.0221;0.6545;0.0000;-0.6766;0.0000
3;-0.5844;0.0000;0.0000;-0.5844;0.0000
4;-3.0666;-0.3699;-1.7979;6.9758;-7.8746
5;3.7909;4.5210;0.0000;-0.7301;0.0000
6;-0.1288;0.0000;0.0000;-0.1288;0.0000
7;-1.0290;0.0000;0.0000;-1.0290;0.0000
8;-1.9488;-1.0112;0.0000;-0.9377;0.0000
9;-0.0731;0.0000;0.0000;-0.0731;0.0000
10;-2.5743;-0.5935;0.0000;-1.9808;0.0000
11;-3.4648;-2.9305;0.0000;-0.5343;0.0000
12;-3.7600;-2.1532;0.0000;-1.6069;0.0000
13;-3.0670;-1.4893;0.0000;-1.5777;0.0000
14;-4.2338;-1.6754;0.0000;-2.5585;0.0000
15;-5.1943;6.9549;-10.4972;9.8918;-11.5438
16;-2.7776;-1.2070;0.0000;-1.5705;0.0000
17;-2.2625;-1.1951;0.0000;-1.0674;0.0000
18;-7.2582;-3.2543;0.0000;-4.0039;0.0000

> <BIOSOLVEIT.HYDE_ESTIMATED_AFFINITY_LOWER_BOUNDARY [nM]>
12.843255

> <BIOSOLVEIT.HYDE_ESTIMATED_AFFINITY_UPPER_BOUNDARY [nM]>
1276.053291

> <BIOSOLVEIT.HYDE_LIGAND_EFFICIENCY range: ++, +, 0, -, -->
++

> <BIOSOLVEIT.HYDE_LIGAND_LIPOPHILIC_EFFICIENCY range: ++, +, 0, -, -->
+

> <BIOSOLVEIT.INTER_CLASH range: red, yellow, green>
green

> <BIOSOLVEIT.INTRA_CLASH range: red, yellow, green>
green

> <BIOSOLVEIT.LOGP>
1.53312

> <BIOSOLVEIT.MOLECULAR_WEIGHT>
242.277

> <BIOSOLVEIT.MOLECULE_CHECKSUM>
LTM5LjM0Mzg7Mi4xODU3Ng==

> <BIOSOLVEIT.TORSION_QUALITY range: red, yellow, green, not rotatable>
green

> <BIOSOLVEIT.TPSA>
47.28

> <BIOSOLVEIT.OPTIBRIUM.2C9 pKi>
4.51888

> <BIOSOLVEIT.OPTIBRIUM.2D6 affinity category>
low

> <BIOSOLVEIT.OPTIBRIUM.BBB category>
+

> <BIOSOLVEIT.OPTIBRIUM.BBB log([brain]:[blood])>
-0.450718

> <BIOSOLVEIT.OPTIBRIUM.hERG pIC50>
4.46501

> <BIOSOLVEIT.OPTIBRIUM.HIA category>
+

> <BIOSOLVEIT.OPTIBRIUM.logD>
1.89901

> <BIOSOLVEIT.OPTIBRIUM.logP>
1.89901

> <BIOSOLVEIT.OPTIBRIUM.logS @ pH7.4>
3.21474

> <BIOSOLVEIT.OPTIBRIUM.logS>
3.21474

> <BIOSOLVEIT.OPTIBRIUM.P-gp category>
no

> <BIOSOLVEIT.OPTIBRIUM.PPB90 category>
low

$$$$
DF-RdRp-NP008
ilSeeSAR  12182419123D 1   1.00000     0.00000     0
SeeSAR 13.1.1 ill13029
 54 57  0  0  0  0            999 V2000
  -14.0679  -42.9967  -15.2324 S   0  0  0  0  0  0  0  0  0  0  0  0
  -15.2649  -43.4941  -14.6268 O   0  0  0  0  0  0  0  0  0  0  0  0
  -12.8038  -43.5780  -14.8995 O   0  0  0  0  0  0  0  0  0  0  0  0
  -14.2123  -43.0921  -16.8494 N   0  0  0  0  0  0  0  0  0  0  0  0
  -15.4019  -42.8850  -17.5224 C   0  0  0  0  0  0  0  0  0  0  0  0
  -16.4363  -42.5771  -16.9282 O   0  0  0  0  0  0  0  0  0  0  0  0
  -15.3760  -43.1201  -18.9885 C   0  0  0  0  0  0  0  0  0  0  0  0
  -16.2207  -44.0177  -19.5192 N   0  0  0  0  0  0  0  0  0  0  0  0
  -16.2441  -44.2725  -20.8364 C   0  0  0  0  0  0  0  0  0  0  0  0
  -17.1554  -45.2376  -21.3815 N   0  0  0  0  0  0  0  0  0  0  0  0
  -17.7879  -45.1459  -22.6069 C   0  0  0  0  0  0  0  0  0  0  0  0
  -18.5578  -46.2613  -22.7308 C   0  0  0  0  0  0  0  0  0  0  0  0
  -19.4357  -46.5852  -23.9286 C   0  0  0  0  0  0  0  0  0  0  0  0
  -20.0681  -46.7147  -24.9307 C   0  0  0  0  0  0  0  0  0  0  0  0
  -20.7990  -46.9755  -26.1733 C   0  0  0  0  0  0  0  0  0  0  0  0
  -22.0442  -46.3265  -26.2006 O   0  0  0  0  0  0  0  0  0  0  0  0
  -18.4174  -47.0838  -21.5676 C   0  0  0  0  0  0  0  0  0  0  0  0
  -17.5469  -46.4137  -20.7653 C   0  0  0  0  0  0  0  0  0  0  0  0
  -15.3706  -43.5894  -21.6763 C   0  0  0  0  0  0  0  0  0  0  0  0
  -15.3910  -43.8483  -23.0367 O   0  0  0  0  0  0  0  0  0  0  0  0
  -14.4027  -43.2173  -23.8635 C   0  0  0  0  0  0  0  0  0  0  0  0
  -14.4821  -42.6529  -21.1603 C   0  0  0  0  0  0  0  0  0  0  0  0
  -14.4852  -42.4140  -19.7907 C   0  0  0  0  0  0  0  0  0  0  0  0
  -13.5186  -41.3918  -19.2153 C   0  0  0  0  0  0  0  0  0  0  0  0
  -13.9912  -41.2432  -14.9748 C   0  0  0  0  0  0  0  0  0  0  0  0
  -12.9727  -40.4569  -15.5883 C   0  0  0  0  0  0  0  0  0  0  0  0
  -11.9782  -41.0732  -16.2982 N   0  0  0  0  0  0  0  0  0  0  0  0
  -11.0550  -40.3006  -16.8576 C   0  0  0  0  0  0  0  0  0  0  0  0
  -11.0031  -38.9171  -16.7165 C   0  0  0  0  0  0  0  0  0  0  0  0
  -11.9944  -38.2908  -16.0174 C   0  0  0  0  0  0  0  0  0  0  0  0
  -13.0155  -39.0514  -15.3960 C   0  0  0  0  0  0  0  0  0  0  0  0
  -14.0940  -38.4899  -14.6614 C   0  0  0  0  0  0  0  0  0  0  0  0
  -15.0405  -39.2880  -14.0883 C   0  0  0  0  0  0  0  0  0  0  0  0
  -15.0195  -40.6609  -14.2848 C   0  0  0  0  0  0  0  0  0  0  0  0
  -13.3972  -43.3123  -17.3854 H   0  0  0  0  0  0  0  0  0  0  0  0
  -17.6913  -44.3530  -23.3188 H   0  0  0  0  0  0  0  0  0  0  0  0
  -20.9573  -48.0297  -26.2657 H   0  0  0  0  0  0  0  0  0  0  0  0
  -20.2117  -46.6294  -26.9980 H   0  0  0  0  0  0  0  0  0  0  0  0
  -22.7702  -47.0034  -26.3230 H   0  0  0  0  0  0  0  0  0  0  0  0
  -18.8936  -48.0218  -21.3718 H   0  0  0  0  0  0  0  0  0  0  0  0
  -17.2152  -46.7454  -19.8036 H   0  0  0  0  0  0  0  0  0  0  0  0
  -14.5477  -43.5132  -24.8816 H   0  0  0  0  0  0  0  0  0  0  0  0
  -14.4972  -42.1545  -23.7842 H   0  0  0  0  0  0  0  0  0  0  0  0
  -13.4263  -43.5136  -23.5415 H   0  0  0  0  0  0  0  0  0  0  0  0
  -13.8092  -42.1263  -21.8045 H   0  0  0  0  0  0  0  0  0  0  0  0
  -12.9312  -40.9722  -20.0051 H   0  0  0  0  0  0  0  0  0  0  0  0
  -14.0696  -40.6143  -18.7287 H   0  0  0  0  0  0  0  0  0  0  0  0
  -12.8745  -41.8695  -18.5068 H   0  0  0  0  0  0  0  0  0  0  0  0
  -10.3028  -40.7716  -17.4552 H   0  0  0  0  0  0  0  0  0  0  0  0
  -10.2014  -38.3549  -17.1478 H   0  0  0  0  0  0  0  0  0  0  0  0
  -12.0002  -37.2238  -15.9386 H   0  0  0  0  0  0  0  0  0  0  0  0
  -14.1647  -37.4274  -14.5560 H   0  0  0  0  0  0  0  0  0  0  0  0
  -15.8059  -38.8509  -13.4818 H   0  0  0  0  0  0  0  0  0  0  0  0
  -15.8106  -41.2670  -13.8954 H   0  0  0  0  0  0  0  0  0  0  0  0
  1  2  2  0  0  0  0
  1  3  2  0  0  0  0
  1  4  1  0  0  0  0
  1 25  1  0  0  0  0
  4  5  1  0  0  0  0
  5  6  2  0  0  0  0
  5  7  1  0  0  0  0
  7  8  1  0  0  0  0
  7 23  2  0  0  0  0
  8  9  2  0  0  0  0
  9 10  1  0  0  0  0
  9 19  1  0  0  0  0
 10 11  1  0  0  0  0
 10 18  1  0  0  0  0
 11 12  2  0  0  0  0
 12 13  1  0  0  0  0
 12 17  1  0  0  0  0
 13 14  3  0  0  0  0
 14 15  1  0  0  0  0
 15 16  1  0  0  0  0
 17 18  2  0  0  0  0
 19 20  1  0  0  0  0
 19 22  2  0  0  0  0
 20 21  1  0  0  0  0
 22 23  1  0  0  0  0
 23 24  1  0  0  0  0
 25 26  1  0  0  0  0
 25 34  2  0  0  0  0
 26 27  2  0  0  0  0
 26 31  1  0  0  0  0
 27 28  1  0  0  0  0
 28 29  2  0  0  0  0
 29 30  1  0  0  0  0
 30 31  2  0  0  0  0
 31 32  1  0  0  0  0
 32 33  2  0  0  0  0
 33 34  1  0  0  0  0
  4 35  1  0  0  0  0
 11 36  1  0  0  0  0
 15 37  1  0  0  0  0
 15 38  1  0  0  0  0
 16 39  1  0  0  0  0
 17 40  1  0  0  0  0
 18 41  1  0  0  0  0
 21 42  1  0  0  0  0
 21 43  1  0  0  0  0
 21 44  1  0  0  0  0
 22 45  1  0  0  0  0
 24 46  1  0  0  0  0
 24 47  1  0  0  0  0
 24 48  1  0  0  0  0
 28 49  1  0  0  0  0
 29 50  1  0  0  0  0
 30 51  1  0  0  0  0
 32 52  1  0  0  0  0
 33 53  1  0  0  0  0
 34 54  1  0  0  0  0
M  END
> <BIOSOLVEIT.HYDE_ATOM_SCORES [kJ/mol]>
# Atom-ID; Total; Rec-Desolv; Rec-IA; Lig-Desolv; Lig-IA
1;0.0000;0.0000;0.0000;0.0000;0.0000
2;-0.0403;-0.0475;0.0000;0.0072;0.0000
3;-0.4969;7.0367;-7.2476;3.1272;-3.4133
4;5.4940;1.2878;0.0000;4.2062;0.0000
5;0.0000;0.0000;0.0000;0.0000;0.0000
6;2.9700;0.5865;0.0000;10.5368;-8.1534
7;-0.3948;0.0000;0.0000;-0.3948;0.0000
8;2.2809;0.0000;0.0000;2.2809;0.0000
9;-2.4581;-1.9112;0.0000;-0.5468;0.0000
10;-0.1024;0.0000;0.0000;-0.1024;0.0000
11;-2.5934;-0.5935;0.0000;-1.9999;0.0000
12;-2.2792;-1.8254;0.0000;-0.4538;0.0000
13;-4.7996;-3.3188;0.0000;-1.4808;0.0000
14;-2.9613;-1.4397;0.0000;-1.5217;0.0000
15;-4.5521;-2.1819;0.0000;-2.3702;0.0000
16;-5.6711;14.4476;-18.8105;10.2343;-11.5425
17;-2.7351;-1.2070;0.0000;-1.5280;0.0000
18;-2.7111;-1.7379;0.0000;-0.9732;0.0000
19;-0.0698;0.6827;0.0000;-0.7525;0.0000
20;-1.6027;-1.3885;0.0000;-0.2142;0.0000
21;-7.7013;-3.4066;0.0000;-4.2947;0.0000
22;-0.9523;0.0000;0.0000;-0.9523;0.0000
23;-0.1186;0.0000;0.0000;-0.1186;0.0000
24;-1.2604;-0.5087;0.0000;-0.7517;0.0000
25;0.0000;0.0000;0.0000;0.0000;0.0000
26;0.0000;0.0000;0.0000;0.0000;0.0000
27;2.7279;0.0000;0.0000;2.7279;0.0000
28;0.2818;0.6822;0.0000;-0.4004;0.0000
29;0.0000;0.0000;0.0000;0.0000;0.0000
30;0.0000;0.0000;0.0000;0.0000;0.0000
31;0.0000;0.0000;0.0000;0.0000;0.0000
32;0.0000;0.0000;0.0000;0.0000;0.0000
33;0.0000;0.0000;0.0000;0.0000;0.0000
34;0.0000;0.0000;0.0000;0.0000;0.0000

> <BIOSOLVEIT.HYDE_ESTIMATED_AFFINITY_LOWER_BOUNDARY [nM]>
558.679511

> <BIOSOLVEIT.HYDE_ESTIMATED_AFFINITY_UPPER_BOUNDARY [nM]>
55508.112620

> <BIOSOLVEIT.HYDE_LIGAND_EFFICIENCY range: ++, +, 0, -, -->
-

> <BIOSOLVEIT.HYDE_LIGAND_LIPOPHILIC_EFFICIENCY range: ++, +, 0, -, -->
-

> <BIOSOLVEIT.INTER_CLASH range: red, yellow, green>
green

> <BIOSOLVEIT.INTRA_CLASH range: red, yellow, green>
yellow

> <BIOSOLVEIT.LOGP>
2.85062

> <BIOSOLVEIT.MOLECULAR_WEIGHT>
476.51

> <BIOSOLVEIT.MOLECULE_CHECKSUM>
LTI5Ljk5MTM7MC44ODIwOTY=

> <BIOSOLVEIT.TORSION_QUALITY range: red, yellow, green, not rotatable>
green

> <BIOSOLVEIT.TPSA>
123.41

> <BIOSOLVEIT.OPTIBRIUM.2C9 pKi>
5.69026

> <BIOSOLVEIT.OPTIBRIUM.2D6 affinity category>
low

> <BIOSOLVEIT.OPTIBRIUM.BBB category>
-

> <BIOSOLVEIT.OPTIBRIUM.BBB log([brain]:[blood])>
-1.12615

> <BIOSOLVEIT.OPTIBRIUM.hERG pIC50>
4.97222

> <BIOSOLVEIT.OPTIBRIUM.HIA category>
-

> <BIOSOLVEIT.OPTIBRIUM.logD>
1.65251

> <BIOSOLVEIT.OPTIBRIUM.logP>
1.57086

> <BIOSOLVEIT.OPTIBRIUM.logS @ pH7.4>
2.9893

> <BIOSOLVEIT.OPTIBRIUM.logS>
0.813739

> <BIOSOLVEIT.OPTIBRIUM.P-gp category>
no

> <BIOSOLVEIT.OPTIBRIUM.PPB90 category>
high

$$$$
DF-RdRp-NP009
ilSeeSAR  12182419123D 1   1.00000     0.00000     0
SeeSAR 13.1.1 ill13029
 51 54  0  0  0  0            999 V2000
  -14.0331  -43.0511  -15.2420 S   0  0  0  0  0  0  0  0  0  0  0  0
  -15.1954  -43.6114  -14.6240 O   0  0  0  0  0  0  0  0  0  0  0  0
  -12.7382  -43.5780  -14.9383 O   0  0  0  0  0  0  0  0  0  0  0  0
  -14.2005  -43.1309  -16.8576 N   0  0  0  0  0  0  0  0  0  0  0  0
  -15.4203  -43.0496  -17.5029 C   0  0  0  0  0  0  0  0  0  0  0  0
  -16.4703  -42.8751  -16.8823 O   0  0  0  0  0  0  0  0  0  0  0  0
  -15.3994  -43.2514  -18.9740 C   0  0  0  0  0  0  0  0  0  0  0  0
  -16.2504  -44.1318  -19.5228 N   0  0  0  0  0  0  0  0  0  0  0  0
  -16.2784  -44.3565  -20.8455 C   0  0  0  0  0  0  0  0  0  0  0  0
  -17.1967  -45.3038  -21.4100 N   0  0  0  0  0  0  0  0  0  0  0  0
  -17.8200  -45.1878  -22.6380 C   0  0  0  0  0  0  0  0  0  0  0  0
  -18.6011  -46.2928  -22.7827 C   0  0  0  0  0  0  0  0  0  0  0  0
  -19.4746  -46.5901  -23.9907 C   0  0  0  0  0  0  0  0  0  0  0  0
  -20.1018  -46.6986  -24.9985 C   0  0  0  0  0  0  0  0  0  0  0  0
  -20.8272  -46.9337  -26.2494 C   0  0  0  0  0  0  0  0  0  0  0  0
  -22.0650  -46.2708  -26.2756 O   0  0  0  0  0  0  0  0  0  0  0  0
  -18.4774  -47.1331  -21.6304 C   0  0  0  0  0  0  0  0  0  0  0  0
  -17.6051  -46.4840  -20.8130 C   0  0  0  0  0  0  0  0  0  0  0  0
  -15.4031  -43.6594  -21.6718 C   0  0  0  0  0  0  0  0  0  0  0  0
  -15.4282  -43.8872  -23.0376 O   0  0  0  0  0  0  0  0  0  0  0  0
  -14.4411  -43.2397  -23.8530 C   0  0  0  0  0  0  0  0  0  0  0  0
  -14.5085  -42.7401  -21.1367 C   0  0  0  0  0  0  0  0  0  0  0  0
  -14.5070  -42.5329  -19.7619 C   0  0  0  0  0  0  0  0  0  0  0  0
  -14.0324  -41.2996  -14.9603 C   0  0  0  0  0  0  0  0  0  0  0  0
  -13.2091  -40.4334  -15.7373 C   0  0  0  0  0  0  0  0  0  0  0  0
  -12.3285  -40.9666  -16.6391 N   0  0  0  0  0  0  0  0  0  0  0  0
  -11.5871  -40.1216  -17.3452 C   0  0  0  0  0  0  0  0  0  0  0  0
  -11.6069  -38.7397  -17.1822 C   0  0  0  0  0  0  0  0  0  0  0  0
  -12.4871  -38.1962  -16.2915 C   0  0  0  0  0  0  0  0  0  0  0  0
  -13.3134  -39.0371  -15.5056 C   0  0  0  0  0  0  0  0  0  0  0  0
  -14.2673  -38.5650  -14.5649 C   0  0  0  0  0  0  0  0  0  0  0  0
  -15.0273  -39.4373  -13.8416 C   0  0  0  0  0  0  0  0  0  0  0  0
  -14.9475  -40.8026  -14.0725 C   0  0  0  0  0  0  0  0  0  0  0  0
  -13.3773  -43.2448  -17.4138 H   0  0  0  0  0  0  0  0  0  0  0  0
  -17.7100  -44.3860  -23.3381 H   0  0  0  0  0  0  0  0  0  0  0  0
  -20.9964  -47.9847  -26.3577 H   0  0  0  0  0  0  0  0  0  0  0  0
  -20.2306  -46.5826  -27.0654 H   0  0  0  0  0  0  0  0  0  0  0  0
  -22.7917  -46.9292  -26.4720 H   0  0  0  0  0  0  0  0  0  0  0  0
  -18.9652  -48.0685  -21.4510 H   0  0  0  0  0  0  0  0  0  0  0  0
  -17.2833  -46.8329  -19.8540 H   0  0  0  0  0  0  0  0  0  0  0  0
  -14.5898  -43.5120  -24.8770 H   0  0  0  0  0  0  0  0  0  0  0  0
  -14.5330  -42.1787  -23.7491 H   0  0  0  0  0  0  0  0  0  0  0  0
  -13.4644  -43.5454  -23.5409 H   0  0  0  0  0  0  0  0  0  0  0  0
  -13.8342  -42.2026  -21.7702 H   0  0  0  0  0  0  0  0  0  0  0  0
  -13.8309  -41.8326  -19.3179 H   0  0  0  0  0  0  0  0  0  0  0  0
  -10.9323  -40.5291  -18.0868 H   0  0  0  0  0  0  0  0  0  0  0  0
  -10.9447  -38.1151  -17.7447 H   0  0  0  0  0  0  0  0  0  0  0  0
  -12.5530  -37.1335  -16.1865 H   0  0  0  0  0  0  0  0  0  0  0  0
  -14.3916  -37.5119  -14.4217 H   0  0  0  0  0  0  0  0  0  0  0  0
  -15.6907  -39.0646  -13.0894 H   0  0  0  0  0  0  0  0  0  0  0  0
  -15.6041  -41.4698  -13.5543 H   0  0  0  0  0  0  0  0  0  0  0  0
  1  2  2  0  0  0  0
  1  3  2  0  0  0  0
  1  4  1  0  0  0  0
  1 24  1  0  0  0  0
  4  5  1  0  0  0  0
  5  6  2  0  0  0  0
  5  7  1  0  0  0  0
  7  8  1  0  0  0  0
  7 23  2  0  0  0  0
  8  9  2  0  0  0  0
  9 10  1  0  0  0  0
  9 19  1  0  0  0  0
 10 11  1  0  0  0  0
 10 18  1  0  0  0  0
 11 12  2  0  0  0  0
 12 13  1  0  0  0  0
 12 17  1  0  0  0  0
 13 14  3  0  0  0  0
 14 15  1  0  0  0  0
 15 16  1  0  0  0  0
 17 18  2  0  0  0  0
 19 20  1  0  0  0  0
 19 22  2  0  0  0  0
 20 21  1  0  0  0  0
 22 23  1  0  0  0  0
 24 25  1  0  0  0  0
 24 33  2  0  0  0  0
 25 26  2  0  0  0  0
 25 30  1  0  0  0  0
 26 27  1  0  0  0  0
 27 28  2  0  0  0  0
 28 29  1  0  0  0  0
 29 30  2  0  0  0  0
 30 31  1  0  0  0  0
 31 32  2  0  0  0  0
 32 33  1  0  0  0  0
  4 34  1  0  0  0  0
 11 35  1  0  0  0  0
 15 36  1  0  0  0  0
 15 37  1  0  0  0  0
 16 38  1  0  0  0  0
 17 39  1  0  0  0  0
 18 40  1  0  0  0  0
 21 41  1  0  0  0  0
 21 42  1  0  0  0  0
 21 43  1  0  0  0  0
 22 44  1  0  0  0  0
 23 45  1  0  0  0  0
 27 46  1  0  0  0  0
 28 47  1  0  0  0  0
 29 48  1  0  0  0  0
 31 49  1  0  0  0  0
 32 50  1  0  0  0  0
 33 51  1  0  0  0  0
M  END
> <BIOSOLVEIT.HYDE_ATOM_SCORES [kJ/mol]>
# Atom-ID; Total; Rec-Desolv; Rec-IA; Lig-Desolv; Lig-IA
1;0.0000;0.0000;0.0000;0.0000;0.0000
2;-0.1206;-0.1532;0.0000;0.0326;0.0000
3;-1.8457;7.0367;-8.1644;3.1270;-3.8451
4;5.8477;1.2342;0.0000;4.6136;0.0000
5;-0.0308;0.0000;0.0000;-0.0308;0.0000
6;3.4885;0.5921;0.0000;10.5315;-7.6352
7;-0.4007;0.0000;0.0000;-0.4007;0.0000
8;1.6879;0.0000;0.0000;1.6879;0.0000
9;-2.4230;-1.8697;0.0000;-0.5532;0.0000
10;-0.1024;0.0000;0.0000;-0.1024;0.0000
11;-2.6524;-0.5935;0.0000;-2.0589;0.0000
12;-2.2792;-1.8254;0.0000;-0.4538;0.0000
13;-5.9943;-4.5788;0.0000;-1.4155;0.0000
14;-2.6431;-1.2152;0.0000;-1.4279;0.0000
15;-4.6899;-2.3198;0.0000;-2.3702;0.0000
16;-4.7162;15.3742;-18.8251;10.2806;-11.5458
17;-2.8837;-1.3507;0.0000;-1.5330;0.0000
18;-2.8654;-1.7559;0.0000;-1.1095;0.0000
19;-1.6278;-0.8605;0.0000;-0.7673;0.0000
20;-0.2120;0.0000;0.0000;-0.2120;0.0000
21;-7.5042;-3.2373;0.0000;-4.2670;0.0000
22;-0.9562;0.0000;0.0000;-0.9562;0.0000
23;-0.5724;0.0000;0.0000;-0.5724;0.0000
24;0.0000;0.0000;0.0000;0.0000;0.0000
25;0.0000;0.0000;0.0000;0.0000;0.0000
26;1.6362;0.0000;0.0000;1.6362;0.0000
27;-0.3695;0.0024;0.0000;-0.3719;0.0000
28;0.0000;0.0000;0.0000;0.0000;0.0000
29;0.0000;0.0000;0.0000;0.0000;0.0000
30;0.0000;0.0000;0.0000;0.0000;0.0000
31;0.0000;0.0000;0.0000;0.0000;0.0000
32;0.0000;0.0000;0.0000;0.0000;0.0000
33;0.0000;0.0000;0.0000;0.0000;0.0000

> <BIOSOLVEIT.HYDE_ESTIMATED_AFFINITY_LOWER_BOUNDARY [nM]>
205.166751

> <BIOSOLVEIT.HYDE_ESTIMATED_AFFINITY_UPPER_BOUNDARY [nM]>
20384.529746

> <BIOSOLVEIT.HYDE_LIGAND_EFFICIENCY range: ++, +, 0, -, -->
-

> <BIOSOLVEIT.HYDE_LIGAND_LIPOPHILIC_EFFICIENCY range: ++, +, 0, -, -->
-

> <BIOSOLVEIT.INTER_CLASH range: red, yellow, green>
green

> <BIOSOLVEIT.INTRA_CLASH range: red, yellow, green>
yellow

> <BIOSOLVEIT.LOGP>
2.5422

> <BIOSOLVEIT.MOLECULAR_WEIGHT>
462.483

> <BIOSOLVEIT.MOLECULE_CHECKSUM>
LTMyLjQ3NDY7MC45ODQwNzc=

> <BIOSOLVEIT.TORSION_QUALITY range: red, yellow, green, not rotatable>
yellow

> <BIOSOLVEIT.TPSA>
123.41

> <BIOSOLVEIT.OPTIBRIUM.2C9 pKi>
5.79107

> <BIOSOLVEIT.OPTIBRIUM.2D6 affinity category>
low

> <BIOSOLVEIT.OPTIBRIUM.BBB category>
-

> <BIOSOLVEIT.OPTIBRIUM.BBB log([brain]:[blood])>
-1.12761

> <BIOSOLVEIT.OPTIBRIUM.hERG pIC50>
4.95976

> <BIOSOLVEIT.OPTIBRIUM.HIA category>
-

> <BIOSOLVEIT.OPTIBRIUM.logD>
1.41892

> <BIOSOLVEIT.OPTIBRIUM.logP>
1.20763

> <BIOSOLVEIT.OPTIBRIUM.logS @ pH7.4>
3.10623

> <BIOSOLVEIT.OPTIBRIUM.logS>
0.987292

> <BIOSOLVEIT.OPTIBRIUM.P-gp category>
no

> <BIOSOLVEIT.OPTIBRIUM.PPB90 category>
high

$$$$
DF-RdRp-NP010
ilSeeSAR  12182419123D 1   1.00000     0.00000     0
SeeSAR 13.1.1 ill13029
 52 55  0  0  0  0            999 V2000
  -14.3320  -42.5544  -15.2155 S   0  0  0  0  0  0  0  0  0  0  0  0
  -15.5802  -42.9880  -14.6672 O   0  0  0  0  0  0  0  0  0  0  0  0
  -13.1051  -43.0884  -14.7093 O   0  0  0  0  0  0  0  0  0  0  0  0
  -14.3324  -42.8290  -16.8183 N   0  0  0  0  0  0  0  0  0  0  0  0
  -15.4461  -42.6628  -17.6203 C   0  0  0  0  0  0  0  0  0  0  0  0
  -16.5166  -42.2568  -17.1650 O   0  0  0  0  0  0  0  0  0  0  0  0
  -15.2968  -43.0644  -19.0422 C   0  0  0  0  0  0  0  0  0  0  0  0
  -16.1592  -43.9509  -19.5626 N   0  0  0  0  0  0  0  0  0  0  0  0
  -16.0751  -44.3514  -20.8406 C   0  0  0  0  0  0  0  0  0  0  0  0
  -17.0081  -45.3016  -21.3751 N   0  0  0  0  0  0  0  0  0  0  0  0
  -17.6595  -45.1952  -22.5894 C   0  0  0  0  0  0  0  0  0  0  0  0
  -18.4461  -46.2996  -22.7061 C   0  0  0  0  0  0  0  0  0  0  0  0
  -19.3479  -46.6056  -23.8908 C   0  0  0  0  0  0  0  0  0  0  0  0
  -19.9985  -46.7217  -24.8829 C   0  0  0  0  0  0  0  0  0  0  0  0
  -20.7532  -46.9664  -26.1144 C   0  0  0  0  0  0  0  0  0  0  0  0
  -21.9898  -46.3009  -26.1179 O   0  0  0  0  0  0  0  0  0  0  0  0
  -18.2975  -47.1299  -21.5493 C   0  0  0  0  0  0  0  0  0  0  0  0
  -17.4052  -46.4754  -20.7583 C   0  0  0  0  0  0  0  0  0  0  0  0
  -15.0680  -43.8352  -21.6495 C   0  0  0  0  0  0  0  0  0  0  0  0
  -14.9737  -44.2597  -23.0171 N   0  0  0  0  0  0  0  0  0  0  0  0
  -14.5652  -43.3042  -24.0568 C   0  0  0  0  0  0  0  0  0  0  0  0
  -14.1578  -42.9151  -21.1429 C   0  0  0  0  0  0  0  0  0  0  0  0
  -14.2749  -42.5230  -19.8141 C   0  0  0  0  0  0  0  0  0  0  0  0
  -14.2705  -40.7827  -15.1480 C   0  0  0  0  0  0  0  0  0  0  0  0
  -13.4319  -40.0449  -16.0335 C   0  0  0  0  0  0  0  0  0  0  0  0
  -12.5830  -40.7125  -16.8743 N   0  0  0  0  0  0  0  0  0  0  0  0
  -11.8259  -39.9844  -17.6860 C   0  0  0  0  0  0  0  0  0  0  0  0
  -11.7986  -38.5931  -17.6913 C   0  0  0  0  0  0  0  0  0  0  0  0
  -12.6468  -37.9166  -16.8628 C   0  0  0  0  0  0  0  0  0  0  0  0
  -13.4875  -38.6281  -15.9714 C   0  0  0  0  0  0  0  0  0  0  0  0
  -14.4109  -38.0140  -15.0838 C   0  0  0  0  0  0  0  0  0  0  0  0
  -15.1873  -38.7664  -14.2515 C   0  0  0  0  0  0  0  0  0  0  0  0
  -15.1551  -40.1515  -14.3164 C   0  0  0  0  0  0  0  0  0  0  0  0
  -13.4819  -43.1344  -17.2466 H   0  0  0  0  0  0  0  0  0  0  0  0
  -17.5640  -44.4001  -23.2990 H   0  0  0  0  0  0  0  0  0  0  0  0
  -20.9271  -48.0178  -26.2092 H   0  0  0  0  0  0  0  0  0  0  0  0
  -20.1748  -46.6240  -26.9471 H   0  0  0  0  0  0  0  0  0  0  0  0
  -22.7238  -46.9622  -26.2724 H   0  0  0  0  0  0  0  0  0  0  0  0
  -18.7829  -48.0624  -21.3503 H   0  0  0  0  0  0  0  0  0  0  0  0
  -17.0621  -46.8164  -19.8038 H   0  0  0  0  0  0  0  0  0  0  0  0
  -15.1858  -45.2057  -23.2627 H   0  0  0  0  0  0  0  0  0  0  0  0
  -14.5514  -43.7956  -25.0071 H   0  0  0  0  0  0  0  0  0  0  0  0
  -15.2595  -42.4905  -24.0860 H   0  0  0  0  0  0  0  0  0  0  0  0
  -13.5875  -42.9310  -23.8339 H   0  0  0  0  0  0  0  0  0  0  0  0
  -13.3824  -42.5165  -21.7631 H   0  0  0  0  0  0  0  0  0  0  0  0
  -13.5903  -41.8166  -19.3928 H   0  0  0  0  0  0  0  0  0  0  0  0
  -11.1963  -40.5003  -18.3806 H   0  0  0  0  0  0  0  0  0  0  0  0
  -11.1254  -38.0635  -18.3326 H   0  0  0  0  0  0  0  0  0  0  0  0
  -12.6770  -36.8473  -16.8867 H   0  0  0  0  0  0  0  0  0  0  0  0
  -14.4989  -36.9477  -15.0678 H   0  0  0  0  0  0  0  0  0  0  0  0
  -15.8267  -38.2836  -13.5424 H   0  0  0  0  0  0  0  0  0  0  0  0
  -15.8248  -40.7289  -13.7136 H   0  0  0  0  0  0  0  0  0  0  0  0
  1  2  2  0  0  0  0
  1  3  2  0  0  0  0
  1  4  1  0  0  0  0
  1 24  1  0  0  0  0
  4  5  1  0  0  0  0
  5  6  2  0  0  0  0
  5  7  1  0  0  0  0
  7  8  1  0  0  0  0
  7 23  2  0  0  0  0
  8  9  2  0  0  0  0
  9 10  1  0  0  0  0
  9 19  1  0  0  0  0
 10 11  1  0  0  0  0
 10 18  1  0  0  0  0
 11 12  2  0  0  0  0
 12 13  1  0  0  0  0
 12 17  1  0  0  0  0
 13 14  3  0  0  0  0
 14 15  1  0  0  0  0
 15 16  1  0  0  0  0
 17 18  2  0  0  0  0
 19 20  1  0  0  0  0
 19 22  2  0  0  0  0
 20 21  1  0  0  0  0
 22 23  1  0  0  0  0
 24 25  1  0  0  0  0
 24 33  2  0  0  0  0
 25 26  2  0  0  0  0
 25 30  1  0  0  0  0
 26 27  1  0  0  0  0
 27 28  2  0  0  0  0
 28 29  1  0  0  0  0
 29 30  2  0  0  0  0
 30 31  1  0  0  0  0
 31 32  2  0  0  0  0
 32 33  1  0  0  0  0
  4 34  1  0  0  0  0
 11 35  1  0  0  0  0
 15 36  1  0  0  0  0
 15 37  1  0  0  0  0
 16 38  1  0  0  0  0
 17 39  1  0  0  0  0
 18 40  1  0  0  0  0
 20 41  1  0  0  0  0
 21 42  1  0  0  0  0
 21 43  1  0  0  0  0
 21 44  1  0  0  0  0
 22 45  1  0  0  0  0
 23 46  1  0  0  0  0
 27 47  1  0  0  0  0
 28 48  1  0  0  0  0
 29 49  1  0  0  0  0
 31 50  1  0  0  0  0
 32 51  1  0  0  0  0
 33 52  1  0  0  0  0
M  END
> <BIOSOLVEIT.HYDE_ATOM_SCORES [kJ/mol]>
# Atom-ID; Total; Rec-Desolv; Rec-IA; Lig-Desolv; Lig-IA
1;0.0000;0.0000;0.0000;0.0000;0.0000
2;0.6460;0.6064;0.0000;0.0396;0.0000
3;1.3563;1.3874;0.0000;-0.0311;0.0000
4;9.2777;6.9695;0.0000;2.3082;0.0000
5;0.0000;0.0000;0.0000;0.0000;0.0000
6;-2.6930;3.0614;-3.8083;10.4901;-12.4361
7;-0.4810;0.0000;0.0000;-0.4810;0.0000
8;4.9770;-1.9350;0.0000;6.9120;0.0000
9;-0.5135;0.0000;0.0000;-0.5135;0.0000
10;-0.0566;0.0000;0.0000;-0.0566;0.0000
11;-1.9092;0.0000;0.0000;-1.9092;0.0000
12;-2.2792;-1.8254;0.0000;-0.4539;0.0000
13;-2.6061;-1.1657;0.0000;-1.4404;0.0000
14;-4.7547;-3.2603;0.0000;-1.4944;0.0000
15;-4.4428;-2.1819;0.0000;-2.2609;0.0000
16;-6.1270;13.5216;-18.4322;10.2395;-11.4560
17;-2.9212;-1.4140;0.0000;-1.5073;0.0000
18;-2.3574;-1.2474;0.0000;-1.1100;0.0000
19;0.1257;0.6698;0.0000;-0.5441;0.0000
20;5.2911;-1.5946;0.0000;6.8857;0.0000
21;-8.8980;-4.8067;0.0000;-4.0913;0.0000
22;0.6473;1.6032;0.0000;-0.9559;0.0000
23;-1.1769;-0.5484;0.0000;-0.6285;0.0000
24;0.0000;0.0000;0.0000;0.0000;0.0000
25;0.0000;0.0000;0.0000;0.0000;0.0000
26;0.3763;0.0000;0.0000;0.3763;0.0000
27;-0.4557;-0.0529;0.0000;-0.4029;0.0000
28;0.0000;0.0000;0.0000;0.0000;0.0000
29;0.0000;0.0000;0.0000;0.0000;0.0000
30;0.0000;0.0000;0.0000;0.0000;0.0000
31;0.0000;0.0000;0.0000;0.0000;0.0000
32;0.0000;0.0000;0.0000;0.0000;0.0000
33;0.0000;0.0000;0.0000;0.0000;0.0000

> <BIOSOLVEIT.HYDE_ESTIMATED_AFFINITY_LOWER_BOUNDARY [nM]>
43068.321159

> <BIOSOLVEIT.HYDE_ESTIMATED_AFFINITY_UPPER_BOUNDARY [nM]>
4279092.347257

> <BIOSOLVEIT.HYDE_LIGAND_EFFICIENCY range: ++, +, 0, -, -->
--

> <BIOSOLVEIT.HYDE_LIGAND_LIPOPHILIC_EFFICIENCY range: ++, +, 0, -, -->
--

> <BIOSOLVEIT.INTER_CLASH range: red, yellow, green>
green

> <BIOSOLVEIT.INTRA_CLASH range: red, yellow, green>
yellow

> <BIOSOLVEIT.LOGP>
2.5753

> <BIOSOLVEIT.MOLECULAR_WEIGHT>
461.499

> <BIOSOLVEIT.MOLECULE_CHECKSUM>
LTE5LjIyMDM7MC41ODI0MzI=

> <BIOSOLVEIT.TORSION_QUALITY range: red, yellow, green, not rotatable>
yellow

> <BIOSOLVEIT.TPSA>
126.21

> <BIOSOLVEIT.OPTIBRIUM.2C9 pKi>
5.70375

> <BIOSOLVEIT.OPTIBRIUM.2D6 affinity category>
low

> <BIOSOLVEIT.OPTIBRIUM.BBB category>
-

> <BIOSOLVEIT.OPTIBRIUM.BBB log([brain]:[blood])>
-1.19207

> <BIOSOLVEIT.OPTIBRIUM.hERG pIC50>
5.08638

> <BIOSOLVEIT.OPTIBRIUM.HIA category>
-

> <BIOSOLVEIT.OPTIBRIUM.logD>
1.2902

> <BIOSOLVEIT.OPTIBRIUM.logP>
0.860939

> <BIOSOLVEIT.OPTIBRIUM.logS @ pH7.4>
3.05482

> <BIOSOLVEIT.OPTIBRIUM.logS>
1.19668

> <BIOSOLVEIT.OPTIBRIUM.P-gp category>
no

> <BIOSOLVEIT.OPTIBRIUM.PPB90 category>
high

$$$$
DF-RdRp-NP011
ilSeeSAR  12182419123D 1   1.00000     0.00000     0
SeeSAR 13.1.1 ill13029
 51 54  0  0  0  0            999 V2000
  -14.0800  -42.7341  -15.0906 S   0  0  0  0  0  0  0  0  0  0  0  0
  -15.3088  -43.1794  -14.5086 O   0  0  0  0  0  0  0  0  0  0  0  0
  -12.8381  -43.2941  -14.6537 O   0  0  0  0  0  0  0  0  0  0  0  0
  -14.1467  -42.9503  -16.7010 N   0  0  0  0  0  0  0  0  0  0  0  0
  -15.2828  -42.7218  -17.4547 C   0  0  0  0  0  0  0  0  0  0  0  0
  -16.3229  -42.3008  -16.9461 O   0  0  0  0  0  0  0  0  0  0  0  0
  -15.1972  -43.0758  -18.8945 C   0  0  0  0  0  0  0  0  0  0  0  0
  -16.0462  -43.9880  -19.3924 N   0  0  0  0  0  0  0  0  0  0  0  0
  -16.0175  -44.3480  -20.6847 C   0  0  0  0  0  0  0  0  0  0  0  0
  -16.9346  -45.3267  -21.1949 N   0  0  0  0  0  0  0  0  0  0  0  0
  -17.6856  -45.2026  -22.3484 C   0  0  0  0  0  0  0  0  0  0  0  0
  -18.4150  -46.3460  -22.4616 C   0  0  0  0  0  0  0  0  0  0  0  0
  -18.1278  -47.2196  -21.3645 C   0  0  0  0  0  0  0  0  0  0  0  0
  -17.2137  -46.5505  -20.6113 C   0  0  0  0  0  0  0  0  0  0  0  0
  -19.3895  -46.6498  -23.5878 C   0  0  0  0  0  0  0  0  0  0  0  0
  -15.0838  -43.7616  -21.5329 C   0  0  0  0  0  0  0  0  0  0  0  0
  -15.0501  -44.1294  -22.8677 O   0  0  0  0  0  0  0  0  0  0  0  0
  -14.2092  -43.3816  -23.7577 C   0  0  0  0  0  0  0  0  0  0  0  0
  -14.1891  -42.8132  -21.0505 C   0  0  0  0  0  0  0  0  0  0  0  0
  -14.2472  -42.4640  -19.7061 C   0  0  0  0  0  0  0  0  0  0  0  0
  -13.2744  -41.4276  -19.1676 C   0  0  0  0  0  0  0  0  0  0  0  0
  -14.0019  -40.9665  -14.9617 C   0  0  0  0  0  0  0  0  0  0  0  0
  -12.9345  -40.2352  -15.5598 C   0  0  0  0  0  0  0  0  0  0  0  0
  -11.8998  -40.9096  -16.1492 N   0  0  0  0  0  0  0  0  0  0  0  0
  -10.9313  -40.1873  -16.6991 C   0  0  0  0  0  0  0  0  0  0  0  0
  -10.8740  -38.7974  -16.6599 C   0  0  0  0  0  0  0  0  0  0  0  0
  -11.9046  -38.1138  -16.0817 C   0  0  0  0  0  0  0  0  0  0  0  0
  -12.9749  -38.8189  -15.4779 C   0  0  0  0  0  0  0  0  0  0  0  0
  -14.0957  -38.1968  -14.8657 C   0  0  0  0  0  0  0  0  0  0  0  0
  -15.0887  -38.9433  -14.3018 C   0  0  0  0  0  0  0  0  0  0  0  0
  -15.0693  -40.3273  -14.3918 C   0  0  0  0  0  0  0  0  0  0  0  0
  -13.3221  -43.2652  -17.1709 H   0  0  0  0  0  0  0  0  0  0  0  0
  -17.6923  -44.3705  -23.0209 H   0  0  0  0  0  0  0  0  0  0  0  0
  -18.5419  -48.1884  -21.1775 H   0  0  0  0  0  0  0  0  0  0  0  0
  -16.7768  -46.9148  -19.7052 H   0  0  0  0  0  0  0  0  0  0  0  0
  -19.8252  -47.6145  -23.4320 H   0  0  0  0  0  0  0  0  0  0  0  0
  -20.1607  -45.9083  -23.6020 H   0  0  0  0  0  0  0  0  0  0  0  0
  -18.8686  -46.6405  -24.5225 H   0  0  0  0  0  0  0  0  0  0  0  0
  -14.2903  -43.7826  -24.7464 H   0  0  0  0  0  0  0  0  0  0  0  0
  -14.5167  -42.3567  -23.7621 H   0  0  0  0  0  0  0  0  0  0  0  0
  -13.1933  -43.4477  -23.4283 H   0  0  0  0  0  0  0  0  0  0  0  0
  -13.4699  -42.3610  -21.7011 H   0  0  0  0  0  0  0  0  0  0  0  0
  -12.6376  -41.0912  -19.9589 H   0  0  0  0  0  0  0  0  0  0  0  0
  -13.8208  -40.5971  -18.7720 H   0  0  0  0  0  0  0  0  0  0  0  0
  -12.6799  -41.8651  -18.3929 H   0  0  0  0  0  0  0  0  0  0  0  0
  -10.1445  -40.7069  -17.2049 H   0  0  0  0  0  0  0  0  0  0  0  0
  -10.0380  -38.2744  -17.0750 H   0  0  0  0  0  0  0  0  0  0  0  0
  -11.9040  -37.0438  -16.0845 H   0  0  0  0  0  0  0  0  0  0  0  0
  -14.1620  -37.1289  -14.8465 H   0  0  0  0  0  0  0  0  0  0  0  0
  -15.8897  -38.4568  -13.7854 H   0  0  0  0  0  0  0  0  0  0  0  0
  -15.8922  -40.8975  -14.0142 H   0  0  0  0  0  0  0  0  0  0  0  0
  1  2  2  0  0  0  0
  1  3  2  0  0  0  0
  1  4  1  0  0  0  0
  1 22  1  0  0  0  0
  4  5  1  0  0  0  0
  5  6  2  0  0  0  0
  5  7  1  0  0  0  0
  7  8  1  0  0  0  0
  7 20  2  0  0  0  0
  8  9  2  0  0  0  0
  9 10  1  0  0  0  0
  9 16  1  0  0  0  0
 10 11  1  0  0  0  0
 10 14  1  0  0  0  0
 11 12  2  0  0  0  0
 12 13  1  0  0  0  0
 12 15  1  0  0  0  0
 13 14  2  0  0  0  0
 16 17  1  0  0  0  0
 16 19  2  0  0  0  0
 17 18  1  0  0  0  0
 19 20  1  0  0  0  0
 20 21  1  0  0  0  0
 22 23  1  0  0  0  0
 22 31  2  0  0  0  0
 23 24  2  0  0  0  0
 23 28  1  0  0  0  0
 24 25  1  0  0  0  0
 25 26  2  0  0  0  0
 26 27  1  0  0  0  0
 27 28  2  0  0  0  0
 28 29  1  0  0  0  0
 29 30  2  0  0  0  0
 30 31  1  0  0  0  0
  4 32  1  0  0  0  0
 11 33  1  0  0  0  0
 13 34  1  0  0  0  0
 14 35  1  0  0  0  0
 15 36  1  0  0  0  0
 15 37  1  0  0  0  0
 15 38  1  0  0  0  0
 18 39  1  0  0  0  0
 18 40  1  0  0  0  0
 18 41  1  0  0  0  0
 19 42  1  0  0  0  0
 21 43  1  0  0  0  0
 21 44  1  0  0  0  0
 21 45  1  0  0  0  0
 25 46  1  0  0  0  0
 26 47  1  0  0  0  0
 27 48  1  0  0  0  0
 29 49  1  0  0  0  0
 30 50  1  0  0  0  0
 31 51  1  0  0  0  0
M  END
> <BIOSOLVEIT.HYDE_ATOM_SCORES [kJ/mol]>
# Atom-ID; Total; Rec-Desolv; Rec-IA; Lig-Desolv; Lig-IA
1;0.0000;0.0000;0.0000;0.0000;0.0000
2;0.0881;0.0538;0.0000;0.0343;0.0000
3;1.2756;1.3333;0.0000;-0.0577;0.0000
4;10.5467;6.9684;0.0000;3.5783;0.0000
5;0.0000;0.0000;0.0000;0.0000;0.0000
6;-2.7096;3.0679;-3.8404;10.5338;-12.4708
7;-0.5540;0.0000;0.0000;-0.5540;0.0000
8;3.0278;0.0000;0.0000;3.0278;0.0000
9;-2.3810;-1.9350;0.0000;-0.4460;0.0000
10;-0.0397;0.0000;0.0000;-0.0397;0.0000
11;-2.5791;-0.5935;0.0000;-1.9856;0.0000
12;-2.0789;-1.7649;0.0000;-0.3140;0.0000
13;-3.1281;-1.5608;0.0000;-1.5673;0.0000
14;-2.2400;-1.2817;0.0000;-0.9582;0.0000
15;-9.2320;-6.0506;0.0000;-3.1813;0.0000
16;-0.0074;0.6545;0.0000;-0.6619;0.0000
17;-1.7222;-1.6206;0.0000;-0.1016;0.0000
18;-7.1411;-3.1887;0.0000;-3.9524;0.0000
19;-1.1082;-0.1012;0.0000;-1.0070;0.0000
20;-0.0624;0.0000;0.0000;-0.0624;0.0000
21;-1.6785;-0.7898;0.0000;-0.8887;0.0000
22;0.0000;0.0000;0.0000;0.0000;0.0000
23;0.0000;0.0000;0.0000;0.0000;0.0000
24;1.7853;0.0000;0.0000;1.7853;0.0000
25;0.2737;0.6599;0.0000;-0.3862;0.0000
26;0.0000;0.0000;0.0000;0.0000;0.0000
27;0.0000;0.0000;0.0000;0.0000;0.0000
28;0.0000;0.0000;0.0000;0.0000;0.0000
29;0.0000;0.0000;0.0000;0.0000;0.0000
30;0.0000;0.0000;0.0000;0.0000;0.0000
31;0.0000;0.0000;0.0000;0.0000;0.0000

> <BIOSOLVEIT.HYDE_ESTIMATED_AFFINITY_LOWER_BOUNDARY [nM]>
35997.190728

> <BIOSOLVEIT.HYDE_ESTIMATED_AFFINITY_UPPER_BOUNDARY [nM]>
3576533.731019

> <BIOSOLVEIT.HYDE_LIGAND_EFFICIENCY range: ++, +, 0, -, -->
--

> <BIOSOLVEIT.HYDE_LIGAND_LIPOPHILIC_EFFICIENCY range: ++, +, 0, -, -->
--

> <BIOSOLVEIT.INTER_CLASH range: red, yellow, green>
green

> <BIOSOLVEIT.INTRA_CLASH range: red, yellow, green>
green

> <BIOSOLVEIT.LOGP>
3.81524

> <BIOSOLVEIT.MOLECULAR_WEIGHT>
436.489

> <BIOSOLVEIT.MOLECULE_CHECKSUM>
LTE5LjY2NDk7MC42MzQzNQ==

> <BIOSOLVEIT.TORSION_QUALITY range: red, yellow, green, not rotatable>
green

> <BIOSOLVEIT.TPSA>
103.18

> <BIOSOLVEIT.OPTIBRIUM.2C9 pKi>
5.81918

> <BIOSOLVEIT.OPTIBRIUM.2D6 affinity category>
medium

> <BIOSOLVEIT.OPTIBRIUM.BBB category>
-

> <BIOSOLVEIT.OPTIBRIUM.BBB log([brain]:[blood])>
-0.916742

> <BIOSOLVEIT.OPTIBRIUM.hERG pIC50>
4.96582

> <BIOSOLVEIT.OPTIBRIUM.HIA category>
-

> <BIOSOLVEIT.OPTIBRIUM.logD>
2.14598

> <BIOSOLVEIT.OPTIBRIUM.logP>
2.17974

> <BIOSOLVEIT.OPTIBRIUM.logS @ pH7.4>
2.8335

> <BIOSOLVEIT.OPTIBRIUM.logS>
0.633365

> <BIOSOLVEIT.OPTIBRIUM.P-gp category>
no

> <BIOSOLVEIT.OPTIBRIUM.PPB90 category>
high

$$$$
DF-RdRp-NP012
ilSeeSAR  12182419123D 1   1.00000     0.00000     0
SeeSAR 13.1.1 ill13029
 39 40  0  0  0  0            999 V2000
  -14.3550  -42.4746  -15.0484 S   0  0  0  0  0  0  0  0  0  0  0  0
  -15.5106  -43.1124  -14.4726 O   0  0  0  0  0  0  0  0  0  0  0  0
  -13.1699  -42.9169  -14.3602 O   0  0  0  0  0  0  0  0  0  0  0  0
  -14.2464  -42.8691  -16.6262 N   0  0  0  0  0  0  0  0  0  0  0  0
  -15.3326  -42.7163  -17.4469 C   0  0  0  0  0  0  0  0  0  0  0  0
  -16.3942  -42.2796  -16.9912 O   0  0  0  0  0  0  0  0  0  0  0  0
  -15.2337  -43.0758  -18.8843 C   0  0  0  0  0  0  0  0  0  0  0  0
  -16.0815  -43.9859  -19.3879 N   0  0  0  0  0  0  0  0  0  0  0  0
  -16.0408  -44.3507  -20.6785 C   0  0  0  0  0  0  0  0  0  0  0  0
  -16.9569  -45.3270  -21.1949 N   0  0  0  0  0  0  0  0  0  0  0  0
  -17.6999  -45.2012  -22.3534 C   0  0  0  0  0  0  0  0  0  0  0  0
  -18.4314  -46.3427  -22.4715 C   0  0  0  0  0  0  0  0  0  0  0  0
  -18.1538  -47.2169  -21.3724 C   0  0  0  0  0  0  0  0  0  0  0  0
  -17.2432  -46.5501  -20.6131 C   0  0  0  0  0  0  0  0  0  0  0  0
  -19.3990  -46.6441  -23.6043 C   0  0  0  0  0  0  0  0  0  0  0  0
  -15.0957  -43.7715  -21.5189 C   0  0  0  0  0  0  0  0  0  0  0  0
  -15.0497  -44.1442  -22.8520 O   0  0  0  0  0  0  0  0  0  0  0  0
  -14.2037  -43.3971  -23.7378 C   0  0  0  0  0  0  0  0  0  0  0  0
  -14.2018  -42.8254  -21.0306 C   0  0  0  0  0  0  0  0  0  0  0  0
  -14.2725  -42.4711  -19.6881 C   0  0  0  0  0  0  0  0  0  0  0  0
  -13.3007  -41.4372  -19.1431 C   0  0  0  0  0  0  0  0  0  0  0  0
  -14.5128  -40.6789  -14.8850 C   0  0  0  0  0  0  0  0  0  0  0  0
  -13.3868  -43.2229  -16.9951 H   0  0  0  0  0  0  0  0  0  0  0  0
  -17.6999  -44.3690  -23.0260 H   0  0  0  0  0  0  0  0  0  0  0  0
  -18.5717  -48.1846  -21.1882 H   0  0  0  0  0  0  0  0  0  0  0  0
  -16.8133  -46.9155  -19.7040 H   0  0  0  0  0  0  0  0  0  0  0  0
  -19.8382  -47.6077  -23.4513 H   0  0  0  0  0  0  0  0  0  0  0  0
  -20.1682  -45.9006  -23.6237 H   0  0  0  0  0  0  0  0  0  0  0  0
  -18.8718  -46.6362  -24.5354 H   0  0  0  0  0  0  0  0  0  0  0  0
  -14.2753  -43.8021  -24.7256 H   0  0  0  0  0  0  0  0  0  0  0  0
  -14.5143  -42.3732  -23.7487 H   0  0  0  0  0  0  0  0  0  0  0  0
  -13.1904  -43.4588  -23.3997 H   0  0  0  0  0  0  0  0  0  0  0  0
  -13.4738  -42.3787  -21.6752 H   0  0  0  0  0  0  0  0  0  0  0  0
  -12.6541  -41.1065  -19.9288 H   0  0  0  0  0  0  0  0  0  0  0  0
  -13.8474  -40.6028  -18.7561 H   0  0  0  0  0  0  0  0  0  0  0  0
  -12.7163  -41.8746  -18.3607 H   0  0  0  0  0  0  0  0  0  0  0  0
  -13.6542  -40.2050  -15.3128 H   0  0  0  0  0  0  0  0  0  0  0  0
  -15.3934  -40.3503  -15.3963 H   0  0  0  0  0  0  0  0  0  0  0  0
  -14.5842  -40.4199  -13.8493 H   0  0  0  0  0  0  0  0  0  0  0  0
  1  2  2  0  0  0  0
  1  3  2  0  0  0  0
  1  4  1  0  0  0  0
  1 22  1  0  0  0  0
  4  5  1  0  0  0  0
  5  6  2  0  0  0  0
  5  7  1  0  0  0  0
  7  8  1  0  0  0  0
  7 20  2  0  0  0  0
  8  9  2  0  0  0  0
  9 10  1  0  0  0  0
  9 16  1  0  0  0  0
 10 11  1  0  0  0  0
 10 14  1  0  0  0  0
 11 12  2  0  0  0  0
 12 13  1  0  0  0  0
 12 15  1  0  0  0  0
 13 14  2  0  0  0  0
 16 17  1  0  0  0  0
 16 19  2  0  0  0  0
 17 18  1  0  0  0  0
 19 20  1  0  0  0  0
 20 21  1  0  0  0  0
  4 23  1  0  0  0  0
 11 24  1  0  0  0  0
 13 25  1  0  0  0  0
 14 26  1  0  0  0  0
 15 27  1  0  0  0  0
 15 28  1  0  0  0  0
 15 29  1  0  0  0  0
 18 30  1  0  0  0  0
 18 31  1  0  0  0  0
 18 32  1  0  0  0  0
 19 33  1  0  0  0  0
 21 34  1  0  0  0  0
 21 35  1  0  0  0  0
 21 36  1  0  0  0  0
 22 37  1  0  0  0  0
 22 38  1  0  0  0  0
 22 39  1  0  0  0  0
M  END
> <BIOSOLVEIT.HYDE_ATOM_SCORES [kJ/mol]>
# Atom-ID; Total; Rec-Desolv; Rec-IA; Lig-Desolv; Lig-IA
1;0.0000;0.0000;0.0000;0.0000;0.0000
2;0.5531;0.4970;0.0000;0.0561;0.0000
3;1.3110;1.3874;0.0000;-0.0764;0.0000
4;9.4978;6.9884;0.0000;2.5094;0.0000
5;0.0000;0.0000;0.0000;0.0000;0.0000
6;-2.5730;3.0614;-3.7933;10.5309;-12.3720
7;-0.5951;0.0000;0.0000;-0.5951;0.0000
8;3.5691;0.0000;0.0000;3.5691;0.0000
9;-2.3793;-1.9350;0.0000;-0.4444;0.0000
10;-0.0397;0.0000;0.0000;-0.0397;0.0000
11;-2.5407;-0.5935;0.0000;-1.9473;0.0000
12;-2.0700;-1.7649;0.0000;-0.3051;0.0000
13;-3.0504;-1.5608;0.0000;-1.4896;0.0000
14;-2.2353;-1.2764;0.0000;-0.9590;0.0000
15;-9.1864;-6.0456;0.0000;-3.1408;0.0000
16;-0.0067;0.6545;0.0000;-0.6613;0.0000
17;-1.5681;-1.5833;0.0000;0.0152;0.0000
18;-7.2436;-3.2899;0.0000;-3.9537;0.0000
19;-1.0069;0.0000;0.0000;-1.0069;0.0000
20;-0.0815;0.0000;0.0000;-0.0815;0.0000
21;-1.5429;-0.7536;0.0000;-0.7894;0.0000
22;0.0000;0.0000;0.0000;0.0000;0.0000

> <BIOSOLVEIT.HYDE_ESTIMATED_AFFINITY_LOWER_BOUNDARY [nM]>
19467.847184

> <BIOSOLVEIT.HYDE_ESTIMATED_AFFINITY_UPPER_BOUNDARY [nM]>
1934245.720717

> <BIOSOLVEIT.HYDE_LIGAND_EFFICIENCY range: ++, +, 0, -, -->
-

> <BIOSOLVEIT.HYDE_LIGAND_LIPOPHILIC_EFFICIENCY range: ++, +, 0, -, -->
--

> <BIOSOLVEIT.INTER_CLASH range: red, yellow, green>
green

> <BIOSOLVEIT.INTRA_CLASH range: red, yellow, green>
green

> <BIOSOLVEIT.LOGP>
1.83774

> <BIOSOLVEIT.MOLECULAR_WEIGHT>
323.37

> <BIOSOLVEIT.MOLECULE_CHECKSUM>
LTIxLjE4ODY7MC45NjMxMTk=

> <BIOSOLVEIT.TORSION_QUALITY range: red, yellow, green, not rotatable>
green

> <BIOSOLVEIT.TPSA>
90.29

> <BIOSOLVEIT.OPTIBRIUM.2C9 pKi>
4.66854

> <BIOSOLVEIT.OPTIBRIUM.2D6 affinity category>
low

> <BIOSOLVEIT.OPTIBRIUM.BBB category>
-

> <BIOSOLVEIT.OPTIBRIUM.BBB log([brain]:[blood])>
-0.728754

> <BIOSOLVEIT.OPTIBRIUM.hERG pIC50>
4.39401

> <BIOSOLVEIT.OPTIBRIUM.HIA category>
+

> <BIOSOLVEIT.OPTIBRIUM.logD>
0.148227

> <BIOSOLVEIT.OPTIBRIUM.logP>
0.842435

> <BIOSOLVEIT.OPTIBRIUM.logS @ pH7.4>
2.92105

> <BIOSOLVEIT.OPTIBRIUM.logS>
3.26314

> <BIOSOLVEIT.OPTIBRIUM.P-gp category>
no

> <BIOSOLVEIT.OPTIBRIUM.PPB90 category>
low

$$$$
DF-RdRp-NP013
ilSeeSAR  12182419123D 1   1.00000     0.00000     0
SeeSAR 13.1.1 ill13029
 45 48  0  0  0  0            999 V2000
  -15.1641  -44.0284  -23.0445 O   0  0  0  0  0  0  0  0  0  0  0  0
  -15.2056  -43.8358  -21.6736 C   0  0  0  0  0  0  0  0  0  0  0  0
  -16.2365  -44.3846  -20.8787 C   0  0  0  0  0  0  0  0  0  0  0  0
  -16.3513  -44.1502  -19.5637 N   0  0  0  0  0  0  0  0  0  0  0  0
  -15.4222  -43.3697  -18.9861 C   0  0  0  0  0  0  0  0  0  0  0  0
  -14.3638  -42.8087  -19.6682 C   0  0  0  0  0  0  0  0  0  0  0  0
  -14.2602  -43.0446  -21.0237 C   0  0  0  0  0  0  0  0  0  0  0  0
  -13.3370  -41.9520  -18.9457 C   0  0  0  0  0  0  0  0  0  0  0  0
  -17.2063  -45.2826  -21.3960 N   0  0  0  0  0  0  0  0  0  0  0  0
  -17.8037  -45.2130  -22.6390 C   0  0  0  0  0  0  0  0  0  0  0  0
  -18.6686  -46.2587  -22.7522 C   0  0  0  0  0  0  0  0  0  0  0  0
  -19.5411  -46.5742  -23.9563 C   0  0  0  0  0  0  0  0  0  0  0  0
  -20.2242  -46.8212  -24.8987 C   0  0  0  0  0  0  0  0  0  0  0  0
  -21.0968  -47.1369  -26.1027 C   0  0  0  0  0  0  0  0  0  0  0  0
  -22.1723  -46.2116  -26.1634 O   0  0  0  0  0  0  0  0  0  0  0  0
  -18.6092  -46.9972  -21.5500 C   0  0  0  0  0  0  0  0  0  0  0  0
  -17.7095  -46.3844  -20.7321 C   0  0  0  0  0  0  0  0  0  0  0  0
  -14.2062  -43.4821  -23.7548 C   0  0  0  0  0  0  0  0  0  0  0  0
  -14.2460  -42.3297  -24.4137 C   0  0  0  0  0  0  0  0  0  0  0  0
  -13.0565  -42.0824  -25.0370 N   0  0  0  0  0  0  0  0  0  0  0  0
  -12.2096  -42.9988  -24.8440 N   0  0  0  0  0  0  0  0  0  0  0  0
  -12.8205  -44.0396  -24.0079 C   0  0  0  0  0  0  0  0  0  0  0  0
  -15.4286  -41.4283  -24.4611 C   0  0  0  0  0  0  0  0  0  0  0  0
  -15.5906  -40.4974  -25.4825 C   0  0  0  0  0  0  0  0  0  0  0  0
  -16.7026  -39.6621  -25.5092 C   0  0  0  0  0  0  0  0  0  0  0  0
  -17.6307  -39.7496  -24.5456 N   0  0  0  0  0  0  0  0  0  0  0  0
  -17.5109  -40.6340  -23.5447 C   0  0  0  0  0  0  0  0  0  0  0  0
  -16.4142  -41.4871  -23.4810 C   0  0  0  0  0  0  0  0  0  0  0  0
  -15.5089  -43.1727  -17.9380 H   0  0  0  0  0  0  0  0  0  0  0  0
  -13.4505  -42.6183  -21.5783 H   0  0  0  0  0  0  0  0  0  0  0  0
  -12.6010  -41.6124  -19.6441 H   0  0  0  0  0  0  0  0  0  0  0  0
  -13.8244  -41.1087  -18.5028 H   0  0  0  0  0  0  0  0  0  0  0  0
  -12.8630  -42.5319  -18.1815 H   0  0  0  0  0  0  0  0  0  0  0  0
  -17.6192  -44.4672  -23.3837 H   0  0  0  0  0  0  0  0  0  0  0  0
  -21.4851  -48.1297  -26.0112 H   0  0  0  0  0  0  0  0  0  0  0  0
  -20.5122  -47.0634  -26.9959 H   0  0  0  0  0  0  0  0  0  0  0  0
  -23.0402  -46.7051  -26.1064 H   0  0  0  0  0  0  0  0  0  0  0  0
  -19.1703  -47.8794  -21.3227 H   0  0  0  0  0  0  0  0  0  0  0  0
  -17.4393  -46.7013  -19.7464 H   0  0  0  0  0  0  0  0  0  0  0  0
  -12.8681  -44.9743  -24.5265 H   0  0  0  0  0  0  0  0  0  0  0  0
  -12.2813  -44.1667  -23.0925 H   0  0  0  0  0  0  0  0  0  0  0  0
  -14.8532  -40.4233  -26.2542 H   0  0  0  0  0  0  0  0  0  0  0  0
  -16.8173  -38.9496  -26.2991 H   0  0  0  0  0  0  0  0  0  0  0  0
  -18.2659  -40.6838  -22.7882 H   0  0  0  0  0  0  0  0  0  0  0  0
  -16.3286  -42.1889  -22.6778 H   0  0  0  0  0  0  0  0  0  0  0  0
  1  2  1  0  0  0  0
  1 18  1  0  0  0  0
  2  3  2  0  0  0  0
  2  7  1  0  0  0  0
  3  4  1  0  0  0  0
  3  9  1  0  0  0  0
  4  5  2  0  0  0  0
  5  6  1  0  0  0  0
  6  7  2  0  0  0  0
  6  8  1  0  0  0  0
  9 10  1  0  0  0  0
  9 17  1  0  0  0  0
 10 11  2  0  0  0  0
 11 12  1  0  0  0  0
 11 16  1  0  0  0  0
 12 13  3  0  0  0  0
 13 14  1  0  0  0  0
 14 15  1  0  0  0  0
 16 17  2  0  0  0  0
 18 19  2  0  0  0  0
 18 22  1  0  0  0  0
 19 20  1  0  0  0  0
 19 23  1  0  0  0  0
 20 21  2  0  0  0  0
 21 22  1  0  0  0  0
 23 24  2  0  0  0  0
 23 28  1  0  0  0  0
 24 25  1  0  0  0  0
 25 26  2  0  0  0  0
 26 27  1  0  0  0  0
 27 28  2  0  0  0  0
  5 29  1  0  0  0  0
  7 30  1  0  0  0  0
  8 31  1  0  0  0  0
  8 32  1  0  0  0  0
  8 33  1  0  0  0  0
 10 34  1  0  0  0  0
 14 35  1  0  0  0  0
 14 36  1  0  0  0  0
 15 37  1  0  0  0  0
 16 38  1  0  0  0  0
 17 39  1  0  0  0  0
 22 40  1  0  0  0  0
 22 41  1  0  0  0  0
 24 42  1  0  0  0  0
 25 43  1  0  0  0  0
 27 44  1  0  0  0  0
 28 45  1  0  0  0  0
M  END
> <BIOSOLVEIT.LOGP>
3.13292

> <BIOSOLVEIT.MOLECULAR_WEIGHT>
371.398

> <BIOSOLVEIT.TPSA>
84.89

> <BIOSOLVEIT.OPTIBRIUM.2C9 pKi>
5.63866

> <BIOSOLVEIT.OPTIBRIUM.2D6 affinity category>
medium

> <BIOSOLVEIT.OPTIBRIUM.BBB category>
-

> <BIOSOLVEIT.OPTIBRIUM.BBB log([brain]:[blood])>
-0.635718

> <BIOSOLVEIT.OPTIBRIUM.hERG pIC50>
4.74064

> <BIOSOLVEIT.OPTIBRIUM.HIA category>
+

> <BIOSOLVEIT.OPTIBRIUM.logD>
2.76573

> <BIOSOLVEIT.OPTIBRIUM.logP>
2.76573

> <BIOSOLVEIT.OPTIBRIUM.logS @ pH7.4>
1.71541

> <BIOSOLVEIT.OPTIBRIUM.logS>
1.71541

> <BIOSOLVEIT.OPTIBRIUM.P-gp category>
no

> <BIOSOLVEIT.OPTIBRIUM.PPB90 category>
high

$$$$
DF-RdRp-NP014
ilSeeSAR  12182419123D 1   1.00000     0.00000     0
SeeSAR 13.1.1 ill13029
 46 49  0  0  0  0            999 V2000
  -22.1821  -46.2172  -26.1462 O   0  0  0  0  0  0  0  0  0  0  0  0
  -21.1038  -47.1395  -26.0909 C   0  0  0  0  0  0  0  0  0  0  0  0
  -20.2323  -46.8284  -24.8850 C   0  0  0  0  0  0  0  0  0  0  0  0
  -19.5500  -46.5850  -23.9410 C   0  0  0  0  0  0  0  0  0  0  0  0
  -18.6786  -46.2740  -22.7350 C   0  0  0  0  0  0  0  0  0  0  0  0
  -17.8169  -45.2264  -22.6154 C   0  0  0  0  0  0  0  0  0  0  0  0
  -17.2194  -45.3016  -21.3728 N   0  0  0  0  0  0  0  0  0  0  0  0
  -16.2524  -44.4037  -20.8501 C   0  0  0  0  0  0  0  0  0  0  0  0
  -16.3680  -44.1776  -19.5337 N   0  0  0  0  0  0  0  0  0  0  0  0
  -15.4413  -43.3977  -18.9513 C   0  0  0  0  0  0  0  0  0  0  0  0
  -14.3846  -42.8294  -19.6300 C   0  0  0  0  0  0  0  0  0  0  0  0
  -14.2802  -43.0569  -20.9868 C   0  0  0  0  0  0  0  0  0  0  0  0
  -15.2231  -43.8470  -21.6416 C   0  0  0  0  0  0  0  0  0  0  0  0
  -15.1794  -44.0379  -23.0631 N   0  0  0  0  0  0  0  0  0  0  0  0
  -14.1806  -43.4599  -23.8015 C   0  0  0  0  0  0  0  0  0  0  0  0
  -14.2239  -42.3037  -24.4535 C   0  0  0  0  0  0  0  0  0  0  0  0
  -13.0351  -42.0490  -25.0752 N   0  0  0  0  0  0  0  0  0  0  0  0
  -12.1854  -42.9640  -24.8877 N   0  0  0  0  0  0  0  0  0  0  0  0
  -12.7932  -44.0116  -24.0578 C   0  0  0  0  0  0  0  0  0  0  0  0
  -15.4092  -41.4056  -24.4956 C   0  0  0  0  0  0  0  0  0  0  0  0
  -15.5740  -40.4691  -25.5114 C   0  0  0  0  0  0  0  0  0  0  0  0
  -16.6886  -39.6371  -25.5332 C   0  0  0  0  0  0  0  0  0  0  0  0
  -17.6165  -39.7332  -24.5702 N   0  0  0  0  0  0  0  0  0  0  0  0
  -17.4940  -40.6232  -23.5746 C   0  0  0  0  0  0  0  0  0  0  0  0
  -16.3947  -41.4733  -23.5159 C   0  0  0  0  0  0  0  0  0  0  0  0
  -13.3605  -41.9739  -18.9022 C   0  0  0  0  0  0  0  0  0  0  0  0
  -17.7193  -46.4089  -20.7156 C   0  0  0  0  0  0  0  0  0  0  0  0
  -18.6170  -47.0195  -21.5372 C   0  0  0  0  0  0  0  0  0  0  0  0
  -23.0485  -46.7136  -26.0922 H   0  0  0  0  0  0  0  0  0  0  0  0
  -20.5195  -47.0590  -26.9836 H   0  0  0  0  0  0  0  0  0  0  0  0
  -21.4892  -48.1341  -26.0054 H   0  0  0  0  0  0  0  0  0  0  0  0
  -17.6345  -44.4755  -23.3556 H   0  0  0  0  0  0  0  0  0  0  0  0
  -15.5287  -43.2073  -17.9020 H   0  0  0  0  0  0  0  0  0  0  0  0
  -13.4718  -42.6247  -21.5388 H   0  0  0  0  0  0  0  0  0  0  0  0
  -15.8779  -44.5929  -23.5148 H   0  0  0  0  0  0  0  0  0  0  0  0
  -12.8379  -44.9433  -24.5821 H   0  0  0  0  0  0  0  0  0  0  0  0
  -12.2536  -44.1426  -23.1432 H   0  0  0  0  0  0  0  0  0  0  0  0
  -14.8369  -40.3883  -26.2827 H   0  0  0  0  0  0  0  0  0  0  0  0
  -16.8054  -38.9201  -26.3188 H   0  0  0  0  0  0  0  0  0  0  0  0
  -18.2489  -40.6799  -22.8184 H   0  0  0  0  0  0  0  0  0  0  0  0
  -16.3069  -42.1796  -22.7170 H   0  0  0  0  0  0  0  0  0  0  0  0
  -12.6254  -41.6279  -19.5985 H   0  0  0  0  0  0  0  0  0  0  0  0
  -13.8504  -41.1347  -18.4543 H   0  0  0  0  0  0  0  0  0  0  0  0
  -12.8847  -42.5569  -18.1416 H   0  0  0  0  0  0  0  0  0  0  0  0
  -17.4481  -46.7308  -19.7318 H   0  0  0  0  0  0  0  0  0  0  0  0
  -19.1754  -47.9049  -21.3153 H   0  0  0  0  0  0  0  0  0  0  0  0
  1  2  1  0  0  0  0
  2  3  1  0  0  0  0
  3  4  3  0  0  0  0
  4  5  1  0  0  0  0
  5  6  2  0  0  0  0
  5 28  1  0  0  0  0
  6  7  1  0  0  0  0
  7  8  1  0  0  0  0
  7 27  1  0  0  0  0
  8  9  1  0  0  0  0
  8 13  2  0  0  0  0
  9 10  2  0  0  0  0
 10 11  1  0  0  0  0
 11 12  2  0  0  0  0
 11 26  1  0  0  0  0
 12 13  1  0  0  0  0
 13 14  1  0  0  0  0
 14 15  1  0  0  0  0
 15 16  2  0  0  0  0
 15 19  1  0  0  0  0
 16 17  1  0  0  0  0
 16 20  1  0  0  0  0
 17 18  2  0  0  0  0
 18 19  1  0  0  0  0
 20 21  2  0  0  0  0
 20 25  1  0  0  0  0
 21 22  1  0  0  0  0
 22 23  2  0  0  0  0
 23 24  1  0  0  0  0
 24 25  2  0  0  0  0
 27 28  2  0  0  0  0
  1 29  1  0  0  0  0
  2 30  1  0  0  0  0
  2 31  1  0  0  0  0
  6 32  1  0  0  0  0
 10 33  1  0  0  0  0
 12 34  1  0  0  0  0
 14 35  1  0  0  0  0
 19 36  1  0  0  0  0
 19 37  1  0  0  0  0
 21 38  1  0  0  0  0
 22 39  1  0  0  0  0
 24 40  1  0  0  0  0
 25 41  1  0  0  0  0
 26 42  1  0  0  0  0
 26 43  1  0  0  0  0
 26 44  1  0  0  0  0
 27 45  1  0  0  0  0
 28 46  1  0  0  0  0
M  END
> <BIOSOLVEIT.INTER_CLASH range: red, yellow, green>
red

> <BIOSOLVEIT.INTRA_CLASH range: red, yellow, green>
yellow

> <BIOSOLVEIT.LOGP>
3.16602

> <BIOSOLVEIT.MOLECULAR_WEIGHT>
370.414

> <BIOSOLVEIT.TORSION_QUALITY range: red, yellow, green, not rotatable>
yellow

> <BIOSOLVEIT.TPSA>
87.69

> <BIOSOLVEIT.OPTIBRIUM.2C9 pKi>
5.62359

> <BIOSOLVEIT.OPTIBRIUM.2D6 affinity category>
medium

> <BIOSOLVEIT.OPTIBRIUM.BBB category>
-

> <BIOSOLVEIT.OPTIBRIUM.BBB log([brain]:[blood])>
-0.792368

> <BIOSOLVEIT.OPTIBRIUM.hERG pIC50>
4.73429

> <BIOSOLVEIT.OPTIBRIUM.HIA category>
+

> <BIOSOLVEIT.OPTIBRIUM.logD>
2.65633

> <BIOSOLVEIT.OPTIBRIUM.logP>
2.65633

> <BIOSOLVEIT.OPTIBRIUM.logS @ pH7.4>
1.82589

> <BIOSOLVEIT.OPTIBRIUM.logS>
1.82589

> <BIOSOLVEIT.OPTIBRIUM.P-gp category>
yes

> <BIOSOLVEIT.OPTIBRIUM.PPB90 category>
low

$$$$
DF-RdRp-NP015
ilSeeSAR  12182419123D 1   1.00000     0.00000     0
SeeSAR 13.1.1 ill13029
 46 49  0  0  0  0            999 V2000
  -17.8575  -44.9312  -23.0714 S   0  0  0  0  0  0  0  0  0  0  0  0
  -18.9229  -46.2803  -23.0501 C   0  0  0  0  0  0  0  0  0  0  0  0
  -19.8736  -46.6910  -24.1627 C   0  0  0  0  0  0  0  0  0  0  0  0
  -20.6179  -47.0126  -25.0336 C   0  0  0  0  0  0  0  0  0  0  0  0
  -21.5686  -47.4235  -26.1462 C   0  0  0  0  0  0  0  0  0  0  0  0
  -22.8752  -46.9528  -25.8502 O   0  0  0  0  0  0  0  0  0  0  0  0
  -18.7521  -46.9089  -21.8550 C   0  0  0  0  0  0  0  0  0  0  0  0
  -17.7773  -46.3001  -20.9878 C   0  0  0  0  0  0  0  0  0  0  0  0
  -17.1893  -45.1859  -21.5043 C   0  0  0  0  0  0  0  0  0  0  0  0
  -16.1574  -44.3487  -20.8414 C   0  0  0  0  0  0  0  0  0  0  0  0
  -15.1267  -43.7702  -21.5768 C   0  0  0  0  0  0  0  0  0  0  0  0
  -15.0371  -43.9684  -22.9952 N   0  0  0  0  0  0  0  0  0  0  0  0
  -14.0321  -43.3698  -23.7084 C   0  0  0  0  0  0  0  0  0  0  0  0
  -14.0854  -42.2190  -24.3691 C   0  0  0  0  0  0  0  0  0  0  0  0
  -12.8858  -41.9381  -24.9580 N   0  0  0  0  0  0  0  0  0  0  0  0
  -12.0193  -42.8302  -24.7400 N   0  0  0  0  0  0  0  0  0  0  0  0
  -12.6245  -43.8879  -23.9209 C   0  0  0  0  0  0  0  0  0  0  0  0
  -15.2911  -41.3513  -24.4513 C   0  0  0  0  0  0  0  0  0  0  0  0
  -15.4498  -40.4253  -25.4776 C   0  0  0  0  0  0  0  0  0  0  0  0
  -16.5838  -39.6218  -25.5371 C   0  0  0  0  0  0  0  0  0  0  0  0
  -17.5365  -39.7356  -24.6006 N   0  0  0  0  0  0  0  0  0  0  0  0
  -17.4206  -40.6162  -23.5959 C   0  0  0  0  0  0  0  0  0  0  0  0
  -16.3025  -41.4380  -23.4999 C   0  0  0  0  0  0  0  0  0  0  0  0
  -14.1769  -42.9923  -20.9219 C   0  0  0  0  0  0  0  0  0  0  0  0
  -14.2632  -42.8003  -19.5466 C   0  0  0  0  0  0  0  0  0  0  0  0
  -15.2986  -43.3863  -18.8259 C   0  0  0  0  0  0  0  0  0  0  0  0
  -16.2557  -44.1657  -19.4663 C   0  0  0  0  0  0  0  0  0  0  0  0
  -13.2430  -41.9582  -18.7981 C   0  0  0  0  0  0  0  0  0  0  0  0
  -21.5836  -48.4904  -26.2266 H   0  0  0  0  0  0  0  0  0  0  0  0
  -21.2383  -47.0006  -27.0719 H   0  0  0  0  0  0  0  0  0  0  0  0
  -23.3648  -46.7701  -26.7028 H   0  0  0  0  0  0  0  0  0  0  0  0
  -19.2993  -47.7867  -21.5814 H   0  0  0  0  0  0  0  0  0  0  0  0
  -17.5357  -46.6896  -20.0209 H   0  0  0  0  0  0  0  0  0  0  0  0
  -15.7082  -44.5435  -23.4631 H   0  0  0  0  0  0  0  0  0  0  0  0
  -12.6306  -44.8236  -24.4399 H   0  0  0  0  0  0  0  0  0  0  0  0
  -12.1085  -43.9997  -22.9902 H   0  0  0  0  0  0  0  0  0  0  0  0
  -14.6928  -40.3304  -26.2279 H   0  0  0  0  0  0  0  0  0  0  0  0
  -16.6958  -38.9127  -26.3305 H   0  0  0  0  0  0  0  0  0  0  0  0
  -18.1954  -40.6874  -22.8614 H   0  0  0  0  0  0  0  0  0  0  0  0
  -16.2203  -42.1371  -22.6941 H   0  0  0  0  0  0  0  0  0  0  0  0
  -13.3801  -42.5418  -21.4760 H   0  0  0  0  0  0  0  0  0  0  0  0
  -15.3592  -43.2359  -17.7682 H   0  0  0  0  0  0  0  0  0  0  0  0
  -17.0525  -44.6158  -18.9119 H   0  0  0  0  0  0  0  0  0  0  0  0
  -13.4904  -41.9397  -17.7573 H   0  0  0  0  0  0  0  0  0  0  0  0
  -12.2686  -42.3816  -18.9256 H   0  0  0  0  0  0  0  0  0  0  0  0
  -13.2516  -40.9604  -19.1845 H   0  0  0  0  0  0  0  0  0  0  0  0
  1  2  1  0  0  0  0
  1  9  1  0  0  0  0
  2  3  1  0  0  0  0
  2  7  2  0  0  0  0
  3  4  3  0  0  0  0
  4  5  1  0  0  0  0
  5  6  1  0  0  0  0
  7  8  1  0  0  0  0
  8  9  2  0  0  0  0
  9 10  1  0  0  0  0
 10 11  2  0  0  0  0
 10 27  1  0  0  0  0
 11 12  1  0  0  0  0
 11 24  1  0  0  0  0
 12 13  1  0  0  0  0
 13 14  2  0  0  0  0
 13 17  1  0  0  0  0
 14 15  1  0  0  0  0
 14 18  1  0  0  0  0
 15 16  2  0  0  0  0
 16 17  1  0  0  0  0
 18 19  2  0  0  0  0
 18 23  1  0  0  0  0
 19 20  1  0  0  0  0
 20 21  2  0  0  0  0
 21 22  1  0  0  0  0
 22 23  2  0  0  0  0
 24 25  2  0  0  0  0
 25 26  1  0  0  0  0
 25 28  1  0  0  0  0
 26 27  2  0  0  0  0
  5 29  1  0  0  0  0
  5 30  1  0  0  0  0
  6 31  1  0  0  0  0
  7 32  1  0  0  0  0
  8 33  1  0  0  0  0
 12 34  1  0  0  0  0
 17 35  1  0  0  0  0
 17 36  1  0  0  0  0
 19 37  1  0  0  0  0
 20 38  1  0  0  0  0
 22 39  1  0  0  0  0
 23 40  1  0  0  0  0
 24 41  1  0  0  0  0
 26 42  1  0  0  0  0
 27 43  1  0  0  0  0
 28 44  1  0  0  0  0
 28 45  1  0  0  0  0
 28 46  1  0  0  0  0
M  END
> <BIOSOLVEIT.INTER_CLASH range: red, yellow, green>
red

> <BIOSOLVEIT.INTRA_CLASH range: red, yellow, green>
yellow

> <BIOSOLVEIT.LOGP>
4.70882

> <BIOSOLVEIT.MOLECULAR_WEIGHT>
386.476

> <BIOSOLVEIT.TORSION_QUALITY range: red, yellow, green, not rotatable>
yellow

> <BIOSOLVEIT.TPSA>
69.87

> <BIOSOLVEIT.OPTIBRIUM.2C9 pKi>
5.91954

> <BIOSOLVEIT.OPTIBRIUM.2D6 affinity category>
medium

> <BIOSOLVEIT.OPTIBRIUM.BBB category>
-

> <BIOSOLVEIT.OPTIBRIUM.BBB log([brain]:[blood])>
-0.75778

> <BIOSOLVEIT.OPTIBRIUM.hERG pIC50>
4.98652

> <BIOSOLVEIT.OPTIBRIUM.HIA category>
+

> <BIOSOLVEIT.OPTIBRIUM.logD>
4.05957

> <BIOSOLVEIT.OPTIBRIUM.logP>
4.05957

> <BIOSOLVEIT.OPTIBRIUM.logS @ pH7.4>
1.23303

> <BIOSOLVEIT.OPTIBRIUM.logS>
1.23303

> <BIOSOLVEIT.OPTIBRIUM.P-gp category>
no

> <BIOSOLVEIT.OPTIBRIUM.PPB90 category>
high

$$$$
DF-RdRp-NP016
ilSeeSAR  12182419123D 1   1.00000     0.00000     0
SeeSAR 13.1.1 ill13029
 45 48  0  0  0  0            999 V2000
  -17.8422  -44.9197  -23.0966 S   0  0  0  0  0  0  0  0  0  0  0  0
  -18.9118  -46.2654  -23.0671 C   0  0  0  0  0  0  0  0  0  0  0  0
  -19.8636  -46.6801  -24.1772 C   0  0  0  0  0  0  0  0  0  0  0  0
  -20.6088  -47.0047  -25.0462 C   0  0  0  0  0  0  0  0  0  0  0  0
  -21.5607  -47.4195  -26.1563 C   0  0  0  0  0  0  0  0  0  0  0  0
  -22.8659  -46.9429  -25.8634 O   0  0  0  0  0  0  0  0  0  0  0  0
  -18.7430  -46.8872  -21.8681 C   0  0  0  0  0  0  0  0  0  0  0  0
  -17.7664  -46.2761  -21.0046 C   0  0  0  0  0  0  0  0  0  0  0  0
  -17.1750  -45.1669  -21.5278 C   0  0  0  0  0  0  0  0  0  0  0  0
  -16.1405  -44.3288  -20.8700 C   0  0  0  0  0  0  0  0  0  0  0  0
  -15.1079  -43.7580  -21.6088 C   0  0  0  0  0  0  0  0  0  0  0  0
  -15.0219  -43.9580  -22.9766 O   0  0  0  0  0  0  0  0  0  0  0  0
  -14.0591  -43.3928  -23.6620 C   0  0  0  0  0  0  0  0  0  0  0  0
  -14.1088  -42.2459  -24.3297 C   0  0  0  0  0  0  0  0  0  0  0  0
  -12.9084  -41.9724  -24.9202 N   0  0  0  0  0  0  0  0  0  0  0  0
  -12.0446  -42.8658  -24.6966 N   0  0  0  0  0  0  0  0  0  0  0  0
  -12.6531  -43.9165  -23.8712 C   0  0  0  0  0  0  0  0  0  0  0  0
  -15.3119  -41.3751  -24.4174 C   0  0  0  0  0  0  0  0  0  0  0  0
  -15.4676  -40.4549  -25.4495 C   0  0  0  0  0  0  0  0  0  0  0  0
  -16.5991  -39.6483  -25.5140 C   0  0  0  0  0  0  0  0  0  0  0  0
  -17.5522  -39.7533  -24.5769 N   0  0  0  0  0  0  0  0  0  0  0  0
  -17.4392  -40.6282  -23.5669 C   0  0  0  0  0  0  0  0  0  0  0  0
  -16.3236  -41.4528  -23.4657 C   0  0  0  0  0  0  0  0  0  0  0  0
  -14.1558  -42.9790  -20.9587 C   0  0  0  0  0  0  0  0  0  0  0  0
  -14.2417  -42.7783  -19.5846 C   0  0  0  0  0  0  0  0  0  0  0  0
  -15.2789  -43.3566  -18.8604 C   0  0  0  0  0  0  0  0  0  0  0  0
  -16.2384  -44.1370  -19.4961 C   0  0  0  0  0  0  0  0  0  0  0  0
  -13.2189  -41.9347  -18.8412 C   0  0  0  0  0  0  0  0  0  0  0  0
  -21.5790  -48.4868  -26.2302 H   0  0  0  0  0  0  0  0  0  0  0  0
  -21.2291  -47.0034  -27.0846 H   0  0  0  0  0  0  0  0  0  0  0  0
  -23.3549  -46.7641  -26.7172 H   0  0  0  0  0  0  0  0  0  0  0  0
  -19.2930  -47.7616  -21.5891 H   0  0  0  0  0  0  0  0  0  0  0  0
  -17.5261  -46.6603  -20.0353 H   0  0  0  0  0  0  0  0  0  0  0  0
  -12.6621  -44.8554  -24.3844 H   0  0  0  0  0  0  0  0  0  0  0  0
  -12.1376  -44.0242  -22.9397 H   0  0  0  0  0  0  0  0  0  0  0  0
  -14.7103  -40.3670  -26.2002 H   0  0  0  0  0  0  0  0  0  0  0  0
  -16.7088  -38.9438  -26.3118 H   0  0  0  0  0  0  0  0  0  0  0  0
  -18.2143  -40.6925  -22.8320 H   0  0  0  0  0  0  0  0  0  0  0  0
  -16.2436  -42.1472  -22.6555 H   0  0  0  0  0  0  0  0  0  0  0  0
  -13.3576  -42.5344  -21.5155 H   0  0  0  0  0  0  0  0  0  0  0  0
  -15.3391  -43.1995  -17.8037 H   0  0  0  0  0  0  0  0  0  0  0  0
  -17.0366  -44.5812  -18.9390 H   0  0  0  0  0  0  0  0  0  0  0  0
  -13.4664  -41.9091  -17.8005 H   0  0  0  0  0  0  0  0  0  0  0  0
  -12.2458  -42.3619  -18.9659 H   0  0  0  0  0  0  0  0  0  0  0  0
  -13.2244  -40.9393  -19.2337 H   0  0  0  0  0  0  0  0  0  0  0  0
  1  2  1  0  0  0  0
  1  9  1  0  0  0  0
  2  3  1  0  0  0  0
  2  7  2  0  0  0  0
  3  4  3  0  0  0  0
  4  5  1  0  0  0  0
  5  6  1  0  0  0  0
  7  8  1  0  0  0  0
  8  9  2  0  0  0  0
  9 10  1  0  0  0  0
 10 11  2  0  0  0  0
 10 27  1  0  0  0  0
 11 12  1  0  0  0  0
 11 24  1  0  0  0  0
 12 13  1  0  0  0  0
 13 14  2  0  0  0  0
 13 17  1  0  0  0  0
 14 15  1  0  0  0  0
 14 18  1  0  0  0  0
 15 16  2  0  0  0  0
 16 17  1  0  0  0  0
 18 19  2  0  0  0  0
 18 23  1  0  0  0  0
 19 20  1  0  0  0  0
 20 21  2  0  0  0  0
 21 22  1  0  0  0  0
 22 23  2  0  0  0  0
 24 25  2  0  0  0  0
 25 26  1  0  0  0  0
 25 28  1  0  0  0  0
 26 27  2  0  0  0  0
  5 29  1  0  0  0  0
  5 30  1  0  0  0  0
  6 31  1  0  0  0  0
  7 32  1  0  0  0  0
  8 33  1  0  0  0  0
 17 34  1  0  0  0  0
 17 35  1  0  0  0  0
 19 36  1  0  0  0  0
 20 37  1  0  0  0  0
 22 38  1  0  0  0  0
 23 39  1  0  0  0  0
 24 40  1  0  0  0  0
 26 41  1  0  0  0  0
 27 42  1  0  0  0  0
 28 43  1  0  0  0  0
 28 44  1  0  0  0  0
 28 45  1  0  0  0  0
M  END
> <BIOSOLVEIT.INTER_CLASH range: red, yellow, green>
red

> <BIOSOLVEIT.INTRA_CLASH range: red, yellow, green>
yellow

> <BIOSOLVEIT.LOGP>
4.67572

> <BIOSOLVEIT.MOLECULAR_WEIGHT>
387.46

> <BIOSOLVEIT.TORSION_QUALITY range: red, yellow, green, not rotatable>
green

> <BIOSOLVEIT.TPSA>
67.07

> <BIOSOLVEIT.OPTIBRIUM.2C9 pKi>
5.95339

> <BIOSOLVEIT.OPTIBRIUM.2D6 affinity category>
medium

> <BIOSOLVEIT.OPTIBRIUM.BBB category>
-

> <BIOSOLVEIT.OPTIBRIUM.BBB log([brain]:[blood])>
-0.635923

> <BIOSOLVEIT.OPTIBRIUM.hERG pIC50>
4.99131

> <BIOSOLVEIT.OPTIBRIUM.HIA category>
+

> <BIOSOLVEIT.OPTIBRIUM.logD>
4.16763

> <BIOSOLVEIT.OPTIBRIUM.logP>
4.16763

> <BIOSOLVEIT.OPTIBRIUM.logS @ pH7.4>
1.05484

> <BIOSOLVEIT.OPTIBRIUM.logS>
1.05484

> <BIOSOLVEIT.OPTIBRIUM.P-gp category>
no

> <BIOSOLVEIT.OPTIBRIUM.PPB90 category>
high

$$$$
DF-RdRp-NP017
ilSeeSAR  12182419123D 1   1.00000     0.00000     0
SeeSAR 13.1.1 ill13029
 49 52  0  0  0  0            999 V2000
  -15.5957  -44.0140  -23.3777 O   0  0  0  0  0  0  0  0  0  0  0  0
  -15.6021  -43.6801  -22.0336 C   0  0  0  0  0  0  0  0  0  0  0  0
  -16.4857  -44.2975  -21.1204 C   0  0  0  0  0  0  0  0  0  0  0  0
  -16.5740  -43.9407  -19.8312 N   0  0  0  0  0  0  0  0  0  0  0  0
  -15.7627  -42.9606  -19.3985 C   0  0  0  0  0  0  0  0  0  0  0  0
  -14.8486  -42.3142  -20.2028 C   0  0  0  0  0  0  0  0  0  0  0  0
  -14.7730  -42.6788  -21.5314 C   0  0  0  0  0  0  0  0  0  0  0  0
  -13.9469  -41.2274  -19.6405 C   0  0  0  0  0  0  0  0  0  0  0  0
  -17.3143  -45.3928  -21.4786 N   0  0  0  0  0  0  0  0  0  0  0  0
  -17.9748  -45.5593  -22.6798 C   0  0  0  0  0  0  0  0  0  0  0  0
  -18.6555  -46.7376  -22.6289 C   0  0  0  0  0  0  0  0  0  0  0  0
  -19.5201  -47.3220  -23.7341 C   0  0  0  0  0  0  0  0  0  0  0  0
  -20.1970  -47.7795  -24.5992 C   0  0  0  0  0  0  0  0  0  0  0  0
  -21.0616  -48.3641  -25.7044 C   0  0  0  0  0  0  0  0  0  0  0  0
  -22.2793  -47.6382  -25.7866 O   0  0  0  0  0  0  0  0  0  0  0  0
  -18.4139  -47.3189  -21.3648 C   0  0  0  0  0  0  0  0  0  0  0  0
  -17.5915  -46.4813  -20.6747 C   0  0  0  0  0  0  0  0  0  0  0  0
  -15.8481  -43.0438  -24.3336 C   0  0  0  0  0  0  0  0  0  0  0  0
  -15.0796  -41.9426  -24.5622 C   0  0  0  0  0  0  0  0  0  0  0  0
  -15.6830  -41.2451  -25.5920 N   0  0  0  0  0  0  0  0  0  0  0  0
  -16.8230  -41.9173  -25.9967 C   0  0  0  0  0  0  0  0  0  0  0  0
  -16.9588  -43.0395  -25.2377 C   0  0  0  0  0  0  0  0  0  0  0  0
  -15.1899  -39.9857  -26.1680 C   0  0  0  0  0  0  0  0  0  0  0  0
  -15.9255  -38.7786  -25.6399 C   0  0  0  0  0  0  0  0  0  0  0  0
  -16.9074  -38.1432  -26.3799 C   0  0  0  0  0  0  0  0  0  0  0  0
  -17.5510  -37.0372  -25.9843 N   0  0  0  0  0  0  0  0  0  0  0  0
  -17.2070  -36.5202  -24.7999 C   0  0  0  0  0  0  0  0  0  0  0  0
  -16.2540  -37.0813  -23.9806 C   0  0  0  0  0  0  0  0  0  0  0  0
  -15.6168  -38.2319  -24.4064 C   0  0  0  0  0  0  0  0  0  0  0  0
  -15.8301  -42.6654  -18.3723 H   0  0  0  0  0  0  0  0  0  0  0  0
  -14.0749  -42.1906  -22.1788 H   0  0  0  0  0  0  0  0  0  0  0  0
  -13.3136  -40.8522  -20.4171 H   0  0  0  0  0  0  0  0  0  0  0  0
  -14.5472  -40.4306  -19.2537 H   0  0  0  0  0  0  0  0  0  0  0  0
  -13.3451  -41.6343  -18.8549 H   0  0  0  0  0  0  0  0  0  0  0  0
  -17.9552  -44.8805  -23.5067 H   0  0  0  0  0  0  0  0  0  0  0  0
  -21.2721  -49.3905  -25.4873 H   0  0  0  0  0  0  0  0  0  0  0  0
  -20.5421  -48.2961  -26.6373 H   0  0  0  0  0  0  0  0  0  0  0  0
  -23.0072  -48.2437  -26.1085 H   0  0  0  0  0  0  0  0  0  0  0  0
  -18.8063  -48.2499  -21.0126 H   0  0  0  0  0  0  0  0  0  0  0  0
  -17.2239  -46.6389  -19.6823 H   0  0  0  0  0  0  0  0  0  0  0  0
  -14.1831  -41.6704  -24.0453 H   0  0  0  0  0  0  0  0  0  0  0  0
  -17.4870  -41.6069  -26.7762 H   0  0  0  0  0  0  0  0  0  0  0  0
  -17.7377  -43.7702  -25.3034 H   0  0  0  0  0  0  0  0  0  0  0  0
  -15.3121  -40.0238  -27.2303 H   0  0  0  0  0  0  0  0  0  0  0  0
  -14.1512  -39.8844  -25.9319 H   0  0  0  0  0  0  0  0  0  0  0  0
  -17.1692  -38.5625  -27.3289 H   0  0  0  0  0  0  0  0  0  0  0  0
  -17.6967  -35.6267  -24.4733 H   0  0  0  0  0  0  0  0  0  0  0  0
  -16.0123  -36.6379  -23.0373 H   0  0  0  0  0  0  0  0  0  0  0  0
  -14.8847  -38.6999  -23.7821 H   0  0  0  0  0  0  0  0  0  0  0  0
  1  2  1  0  0  0  0
  1 18  1  0  0  0  0
  2  3  2  0  0  0  0
  2  7  1  0  0  0  0
  3  4  1  0  0  0  0
  3  9  1  0  0  0  0
  4  5  2  0  0  0  0
  5  6  1  0  0  0  0
  6  7  2  0  0  0  0
  6  8  1  0  0  0  0
  9 10  1  0  0  0  0
  9 17  1  0  0  0  0
 10 11  2  0  0  0  0
 11 12  1  0  0  0  0
 11 16  1  0  0  0  0
 12 13  3  0  0  0  0
 13 14  1  0  0  0  0
 14 15  1  0  0  0  0
 16 17  2  0  0  0  0
 18 19  2  0  0  0  0
 18 22  1  0  0  0  0
 19 20  1  0  0  0  0
 20 21  1  0  0  0  0
 20 23  1  0  0  0  0
 21 22  2  0  0  0  0
 23 24  1  0  0  0  0
 24 25  2  0  0  0  0
 24 29  1  0  0  0  0
 25 26  1  0  0  0  0
 26 27  2  0  0  0  0
 27 28  1  0  0  0  0
 28 29  2  0  0  0  0
  5 30  1  0  0  0  0
  7 31  1  0  0  0  0
  8 32  1  0  0  0  0
  8 33  1  0  0  0  0
  8 34  1  0  0  0  0
 10 35  1  0  0  0  0
 14 36  1  0  0  0  0
 14 37  1  0  0  0  0
 15 38  1  0  0  0  0
 16 39  1  0  0  0  0
 17 40  1  0  0  0  0
 19 41  1  0  0  0  0
 21 42  1  0  0  0  0
 22 43  1  0  0  0  0
 23 44  1  0  0  0  0
 23 45  1  0  0  0  0
 25 46  1  0  0  0  0
 27 47  1  0  0  0  0
 28 48  1  0  0  0  0
 29 49  1  0  0  0  0
M  END
> <BIOSOLVEIT.INTER_CLASH range: red, yellow, green>
red

> <BIOSOLVEIT.INTRA_CLASH range: red, yellow, green>
green

> <BIOSOLVEIT.LOGP>
3.56162

> <BIOSOLVEIT.MOLECULAR_WEIGHT>
384.437

> <BIOSOLVEIT.TORSION_QUALITY range: red, yellow, green, not rotatable>
green

> <BIOSOLVEIT.TPSA>
65.1

> <BIOSOLVEIT.OPTIBRIUM.2C9 pKi>
5.80106

> <BIOSOLVEIT.OPTIBRIUM.2D6 affinity category>
medium

> <BIOSOLVEIT.OPTIBRIUM.BBB category>
-

> <BIOSOLVEIT.OPTIBRIUM.BBB log([brain]:[blood])>
-0.735751

> <BIOSOLVEIT.OPTIBRIUM.hERG pIC50>
5.05604

> <BIOSOLVEIT.OPTIBRIUM.HIA category>
+

> <BIOSOLVEIT.OPTIBRIUM.logD>
2.7683

> <BIOSOLVEIT.OPTIBRIUM.logP>
2.7683

> <BIOSOLVEIT.OPTIBRIUM.logS @ pH7.4>
0.776648

> <BIOSOLVEIT.OPTIBRIUM.logS>
0.776648

> <BIOSOLVEIT.OPTIBRIUM.P-gp category>
no

> <BIOSOLVEIT.OPTIBRIUM.PPB90 category>
high

$$$$
DF-RdRp-NP018
ilSeeSAR  12182419123D 1   1.00000     0.00000     0
SeeSAR 13.1.1 ill13029
 50 53  0  0  0  0            999 V2000
  -22.2753  -47.6332  -25.7815 O   0  0  0  0  0  0  0  0  0  0  0  0
  -21.0581  -48.3602  -25.7014 C   0  0  0  0  0  0  0  0  0  0  0  0
  -20.1946  -47.7816  -24.5922 C   0  0  0  0  0  0  0  0  0  0  0  0
  -19.5185  -47.3288  -23.7239 C   0  0  0  0  0  0  0  0  0  0  0  0
  -18.6550  -46.7504  -22.6147 C   0  0  0  0  0  0  0  0  0  0  0  0
  -17.9736  -45.5723  -22.6589 C   0  0  0  0  0  0  0  0  0  0  0  0
  -17.3145  -45.4122  -21.4560 N   0  0  0  0  0  0  0  0  0  0  0  0
  -16.4857  -44.3191  -21.0913 C   0  0  0  0  0  0  0  0  0  0  0  0
  -16.5755  -43.9687  -19.8005 N   0  0  0  0  0  0  0  0  0  0  0  0
  -15.7642  -42.9912  -19.3619 C   0  0  0  0  0  0  0  0  0  0  0  0
  -14.8487  -42.3414  -20.1618 C   0  0  0  0  0  0  0  0  0  0  0  0
  -14.7716  -42.6994  -21.4921 C   0  0  0  0  0  0  0  0  0  0  0  0
  -15.6006  -43.6977  -22.0003 C   0  0  0  0  0  0  0  0  0  0  0  0
  -15.5924  -44.0368  -23.3947 N   0  0  0  0  0  0  0  0  0  0  0  0
  -15.8520  -43.0266  -24.3803 C   0  0  0  0  0  0  0  0  0  0  0  0
  -15.0826  -41.9247  -24.6024 C   0  0  0  0  0  0  0  0  0  0  0  0
  -15.6842  -41.2218  -25.6295 N   0  0  0  0  0  0  0  0  0  0  0  0
  -16.8241  -41.8913  -26.0390 C   0  0  0  0  0  0  0  0  0  0  0  0
  -16.9615  -43.0171  -25.2858 C   0  0  0  0  0  0  0  0  0  0  0  0
  -15.1896  -39.9598  -26.1985 C   0  0  0  0  0  0  0  0  0  0  0  0
  -15.9252  -38.7549  -25.6654 C   0  0  0  0  0  0  0  0  0  0  0  0
  -16.9058  -38.1152  -26.4035 C   0  0  0  0  0  0  0  0  0  0  0  0
  -17.5492  -37.0108  -26.0032 N   0  0  0  0  0  0  0  0  0  0  0  0
  -17.2065  -36.5000  -24.8158 C   0  0  0  0  0  0  0  0  0  0  0  0
  -16.2548  -37.0657  -23.9981 C   0  0  0  0  0  0  0  0  0  0  0  0
  -15.6178  -38.2145  -24.4288 C   0  0  0  0  0  0  0  0  0  0  0  0
  -13.9471  -41.2579  -19.5930 C   0  0  0  0  0  0  0  0  0  0  0  0
  -17.5934  -46.5045  -20.6579 C   0  0  0  0  0  0  0  0  0  0  0  0
  -18.4154  -47.3381  -21.3532 C   0  0  0  0  0  0  0  0  0  0  0  0
  -23.0031  -48.2366  -26.1074 H   0  0  0  0  0  0  0  0  0  0  0  0
  -20.5374  -48.2879  -26.6333 H   0  0  0  0  0  0  0  0  0  0  0  0
  -21.2695  -49.3876  -25.4897 H   0  0  0  0  0  0  0  0  0  0  0  0
  -17.9525  -44.8894  -23.4824 H   0  0  0  0  0  0  0  0  0  0  0  0
  -15.8327  -42.7011  -18.3343 H   0  0  0  0  0  0  0  0  0  0  0  0
  -14.0723  -42.2085  -22.1362 H   0  0  0  0  0  0  0  0  0  0  0  0
  -15.4057  -44.9770  -23.6795 H   0  0  0  0  0  0  0  0  0  0  0  0
  -14.1867  -41.6556  -24.0829 H   0  0  0  0  0  0  0  0  0  0  0  0
  -17.4869  -41.5765  -26.8177 H   0  0  0  0  0  0  0  0  0  0  0  0
  -17.7407  -43.7471  -25.3561 H   0  0  0  0  0  0  0  0  0  0  0  0
  -15.3105  -39.9925  -27.2612 H   0  0  0  0  0  0  0  0  0  0  0  0
  -14.1512  -39.8603  -25.9606 H   0  0  0  0  0  0  0  0  0  0  0  0
  -17.1666  -38.5296  -27.3549 H   0  0  0  0  0  0  0  0  0  0  0  0
  -17.6959  -35.6077  -24.4853 H   0  0  0  0  0  0  0  0  0  0  0  0
  -16.0140  -36.6271  -23.0522 H   0  0  0  0  0  0  0  0  0  0  0  0
  -14.8867  -38.6862  -23.8059 H   0  0  0  0  0  0  0  0  0  0  0  0
  -13.3125  -40.8793  -20.3668 H   0  0  0  0  0  0  0  0  0  0  0  0
  -14.5474  -40.4627  -19.2030 H   0  0  0  0  0  0  0  0  0  0  0  0
  -13.3465  -41.6691  -18.8086 H   0  0  0  0  0  0  0  0  0  0  0  0
  -17.2272  -46.6672  -19.6658 H   0  0  0  0  0  0  0  0  0  0  0  0
  -18.8089  -48.2707  -21.0062 H   0  0  0  0  0  0  0  0  0  0  0  0
  1  2  1  0  0  0  0
  2  3  1  0  0  0  0
  3  4  3  0  0  0  0
  4  5  1  0  0  0  0
  5  6  2  0  0  0  0
  5 29  1  0  0  0  0
  6  7  1  0  0  0  0
  7  8  1  0  0  0  0
  7 28  1  0  0  0  0
  8  9  1  0  0  0  0
  8 13  2  0  0  0  0
  9 10  2  0  0  0  0
 10 11  1  0  0  0  0
 11 12  2  0  0  0  0
 11 27  1  0  0  0  0
 12 13  1  0  0  0  0
 13 14  1  0  0  0  0
 14 15  1  0  0  0  0
 15 16  2  0  0  0  0
 15 19  1  0  0  0  0
 16 17  1  0  0  0  0
 17 18  1  0  0  0  0
 17 20  1  0  0  0  0
 18 19  2  0  0  0  0
 20 21  1  0  0  0  0
 21 22  2  0  0  0  0
 21 26  1  0  0  0  0
 22 23  1  0  0  0  0
 23 24  2  0  0  0  0
 24 25  1  0  0  0  0
 25 26  2  0  0  0  0
 28 29  2  0  0  0  0
  1 30  1  0  0  0  0
  2 31  1  0  0  0  0
  2 32  1  0  0  0  0
  6 33  1  0  0  0  0
 10 34  1  0  0  0  0
 12 35  1  0  0  0  0
 14 36  1  0  0  0  0
 16 37  1  0  0  0  0
 18 38  1  0  0  0  0
 19 39  1  0  0  0  0
 20 40  1  0  0  0  0
 20 41  1  0  0  0  0
 22 42  1  0  0  0  0
 24 43  1  0  0  0  0
 25 44  1  0  0  0  0
 26 45  1  0  0  0  0
 27 46  1  0  0  0  0
 27 47  1  0  0  0  0
 27 48  1  0  0  0  0
 28 49  1  0  0  0  0
 29 50  1  0  0  0  0
M  END
> <BIOSOLVEIT.INTER_CLASH range: red, yellow, green>
red

> <BIOSOLVEIT.INTRA_CLASH range: red, yellow, green>
green

> <BIOSOLVEIT.LOGP>
3.51292

> <BIOSOLVEIT.MOLECULAR_WEIGHT>
383.453

> <BIOSOLVEIT.TORSION_QUALITY range: red, yellow, green, not rotatable>
yellow

> <BIOSOLVEIT.TPSA>
67.9

> <BIOSOLVEIT.OPTIBRIUM.2C9 pKi>
5.7925

> <BIOSOLVEIT.OPTIBRIUM.2D6 affinity category>
medium

> <BIOSOLVEIT.OPTIBRIUM.BBB category>
-

> <BIOSOLVEIT.OPTIBRIUM.BBB log([brain]:[blood])>
-0.447063

> <BIOSOLVEIT.OPTIBRIUM.hERG pIC50>
5.2299

> <BIOSOLVEIT.OPTIBRIUM.HIA category>
+

> <BIOSOLVEIT.OPTIBRIUM.logD>
2.66068

> <BIOSOLVEIT.OPTIBRIUM.logP>
2.66068

> <BIOSOLVEIT.OPTIBRIUM.logS @ pH7.4>
0.963798

> <BIOSOLVEIT.OPTIBRIUM.logS>
0.963798

> <BIOSOLVEIT.OPTIBRIUM.P-gp category>
no

> <BIOSOLVEIT.OPTIBRIUM.PPB90 category>
high

$$$$
DF-RdRp-NP019
ilSeeSAR  12182419123D 1   1.00000     0.00000     0
SeeSAR 13.1.1 ill13029
 50 53  0  0  0  0            999 V2000
  -18.0793  -45.3752  -23.1294 S   0  0  0  0  0  0  0  0  0  0  0  0
  -18.8800  -46.8764  -22.8702 C   0  0  0  0  0  0  0  0  0  0  0  0
  -19.7858  -47.5584  -23.8825 C   0  0  0  0  0  0  0  0  0  0  0  0
  -20.4951  -48.0923  -24.6750 C   0  0  0  0  0  0  0  0  0  0  0  0
  -21.4009  -48.7745  -25.6873 C   0  0  0  0  0  0  0  0  0  0  0  0
  -22.6888  -48.1775  -25.6477 O   0  0  0  0  0  0  0  0  0  0  0  0
  -18.5684  -47.3266  -21.6257 C   0  0  0  0  0  0  0  0  0  0  0  0
  -17.6827  -46.4493  -20.9091 C   0  0  0  0  0  0  0  0  0  0  0  0
  -17.3089  -45.3297  -21.5902 C   0  0  0  0  0  0  0  0  0  0  0  0
  -16.4037  -44.2625  -21.0931 C   0  0  0  0  0  0  0  0  0  0  0  0
  -15.5194  -43.6154  -21.9513 C   0  0  0  0  0  0  0  0  0  0  0  0
  -15.4491  -43.9542  -23.3440 N   0  0  0  0  0  0  0  0  0  0  0  0
  -15.7086  -42.9538  -24.3396 C   0  0  0  0  0  0  0  0  0  0  0  0
  -14.9710  -41.8255  -24.5354 C   0  0  0  0  0  0  0  0  0  0  0  0
  -15.5596  -41.1444  -25.5845 N   0  0  0  0  0  0  0  0  0  0  0  0
  -16.6598  -41.8537  -26.0338 C   0  0  0  0  0  0  0  0  0  0  0  0
  -16.7844  -42.9836  -25.2844 C   0  0  0  0  0  0  0  0  0  0  0  0
  -15.0897  -39.8658  -26.1370 C   0  0  0  0  0  0  0  0  0  0  0  0
  -15.8860  -38.6875  -25.6324 C   0  0  0  0  0  0  0  0  0  0  0  0
  -16.8613  -38.0829  -26.4061 C   0  0  0  0  0  0  0  0  0  0  0  0
  -17.5572  -37.0018  -26.0307 N   0  0  0  0  0  0  0  0  0  0  0  0
  -17.2757  -36.4791  -24.8325 C   0  0  0  0  0  0  0  0  0  0  0  0
  -16.3347  -37.0108  -23.9803 C   0  0  0  0  0  0  0  0  0  0  0  0
  -15.6425  -38.1365  -24.3863 C   0  0  0  0  0  0  0  0  0  0  0  0
  -14.6851  -42.6201  -21.4514 C   0  0  0  0  0  0  0  0  0  0  0  0
  -14.7390  -42.2788  -20.1033 C   0  0  0  0  0  0  0  0  0  0  0  0
  -15.6278  -42.9345  -19.2579 C   0  0  0  0  0  0  0  0  0  0  0  0
  -16.4672  -43.9314  -19.7439 C   0  0  0  0  0  0  0  0  0  0  0  0
  -13.8446  -41.1976  -19.5191 C   0  0  0  0  0  0  0  0  0  0  0  0
  -21.4823  -49.8145  -25.4492 H   0  0  0  0  0  0  0  0  0  0  0  0
  -20.9867  -48.6644  -26.6677 H   0  0  0  0  0  0  0  0  0  0  0  0
  -23.1117  -48.2370  -26.5519 H   0  0  0  0  0  0  0  0  0  0  0  0
  -18.9447  -48.2424  -21.2200 H   0  0  0  0  0  0  0  0  0  0  0  0
  -17.3430  -46.6596  -19.9165 H   0  0  0  0  0  0  0  0  0  0  0  0
  -15.2194  -44.8873  -23.6206 H   0  0  0  0  0  0  0  0  0  0  0  0
  -14.1044  -41.5249  -23.9844 H   0  0  0  0  0  0  0  0  0  0  0  0
  -17.3049  -41.5626  -26.8363 H   0  0  0  0  0  0  0  0  0  0  0  0
  -17.5344  -43.7405  -25.3818 H   0  0  0  0  0  0  0  0  0  0  0  0
  -15.1709  -39.9028  -27.2033 H   0  0  0  0  0  0  0  0  0  0  0  0
  -14.0646  -39.7297  -25.8619 H   0  0  0  0  0  0  0  0  0  0  0  0
  -17.0730  -38.5062  -27.3657 H   0  0  0  0  0  0  0  0  0  0  0  0
  -17.8080  -35.6048  -24.5209 H   0  0  0  0  0  0  0  0  0  0  0  0
  -16.1436  -36.5639  -23.0271 H   0  0  0  0  0  0  0  0  0  0  0  0
  -14.9182  -38.5820  -23.7368 H   0  0  0  0  0  0  0  0  0  0  0  0
  -14.0020  -42.1173  -22.1037 H   0  0  0  0  0  0  0  0  0  0  0  0
  -15.6662  -42.6691  -18.2221 H   0  0  0  0  0  0  0  0  0  0  0  0
  -17.1496  -44.4346  -19.0913 H   0  0  0  0  0  0  0  0  0  0  0  0
  -14.0457  -41.0949  -18.4732 H   0  0  0  0  0  0  0  0  0  0  0  0
  -12.8190  -41.4683  -19.6601 H   0  0  0  0  0  0  0  0  0  0  0  0
  -14.0393  -40.2684  -20.0126 H   0  0  0  0  0  0  0  0  0  0  0  0
  1  2  1  0  0  0  0
  1  9  1  0  0  0  0
  2  3  1  0  0  0  0
  2  7  2  0  0  0  0
  3  4  3  0  0  0  0
  4  5  1  0  0  0  0
  5  6  1  0  0  0  0
  7  8  1  0  0  0  0
  8  9  2  0  0  0  0
  9 10  1  0  0  0  0
 10 11  2  0  0  0  0
 10 28  1  0  0  0  0
 11 12  1  0  0  0  0
 11 25  1  0  0  0  0
 12 13  1  0  0  0  0
 13 14  2  0  0  0  0
 13 17  1  0  0  0  0
 14 15  1  0  0  0  0
 15 16  1  0  0  0  0
 15 18  1  0  0  0  0
 16 17  2  0  0  0  0
 18 19  1  0  0  0  0
 19 20  2  0  0  0  0
 19 24  1  0  0  0  0
 20 21  1  0  0  0  0
 21 22  2  0  0  0  0
 22 23  1  0  0  0  0
 23 24  2  0  0  0  0
 25 26  2  0  0  0  0
 26 27  1  0  0  0  0
 26 29  1  0  0  0  0
 27 28  2  0  0  0  0
  5 30  1  0  0  0  0
  5 31  1  0  0  0  0
  6 32  1  0  0  0  0
  7 33  1  0  0  0  0
  8 34  1  0  0  0  0
 12 35  1  0  0  0  0
 14 36  1  0  0  0  0
 16 37  1  0  0  0  0
 17 38  1  0  0  0  0
 18 39  1  0  0  0  0
 18 40  1  0  0  0  0
 20 41  1  0  0  0  0
 22 42  1  0  0  0  0
 23 43  1  0  0  0  0
 24 44  1  0  0  0  0
 25 45  1  0  0  0  0
 27 46  1  0  0  0  0
 28 47  1  0  0  0  0
 29 48  1  0  0  0  0
 29 49  1  0  0  0  0
 29 50  1  0  0  0  0
M  END
> <BIOSOLVEIT.INTER_CLASH range: red, yellow, green>
red

> <BIOSOLVEIT.INTRA_CLASH range: red, yellow, green>
green

> <BIOSOLVEIT.LOGP>
5.05572

> <BIOSOLVEIT.MOLECULAR_WEIGHT>
399.515

> <BIOSOLVEIT.TORSION_QUALITY range: red, yellow, green, not rotatable>
yellow

> <BIOSOLVEIT.TPSA>
50.08

> <BIOSOLVEIT.OPTIBRIUM.2C9 pKi>
6.06007

> <BIOSOLVEIT.OPTIBRIUM.2D6 affinity category>
medium

> <BIOSOLVEIT.OPTIBRIUM.BBB category>
+

> <BIOSOLVEIT.OPTIBRIUM.BBB log([brain]:[blood])>
-0.537767

> <BIOSOLVEIT.OPTIBRIUM.hERG pIC50>
5.50513

> <BIOSOLVEIT.OPTIBRIUM.HIA category>
+

> <BIOSOLVEIT.OPTIBRIUM.logD>
4.33598

> <BIOSOLVEIT.OPTIBRIUM.logP>
4.33598

> <BIOSOLVEIT.OPTIBRIUM.logS @ pH7.4>
-0.168928

> <BIOSOLVEIT.OPTIBRIUM.logS>
-0.168928

> <BIOSOLVEIT.OPTIBRIUM.P-gp category>
no

> <BIOSOLVEIT.OPTIBRIUM.PPB90 category>
high

$$$$
DF-RdRp-NP020
ilSeeSAR  12182419123D 1   1.00000     0.00000     0
SeeSAR 13.1.1 ill13029
 49 52  0  0  0  0            999 V2000
  -18.0808  -45.3644  -23.1515 S   0  0  0  0  0  0  0  0  0  0  0  0
  -18.8805  -46.8646  -22.8839 C   0  0  0  0  0  0  0  0  0  0  0  0
  -19.7871  -47.5520  -23.8918 C   0  0  0  0  0  0  0  0  0  0  0  0
  -20.4969  -48.0902  -24.6809 C   0  0  0  0  0  0  0  0  0  0  0  0
  -21.4035  -48.7779  -25.6888 C   0  0  0  0  0  0  0  0  0  0  0  0
  -22.6916  -48.1813  -25.6509 O   0  0  0  0  0  0  0  0  0  0  0  0
  -18.5674  -47.3084  -21.6375 C   0  0  0  0  0  0  0  0  0  0  0  0
  -17.6814  -46.4271  -20.9262 C   0  0  0  0  0  0  0  0  0  0  0  0
  -17.3088  -45.3108  -21.6133 C   0  0  0  0  0  0  0  0  0  0  0  0
  -16.4035  -44.2407  -21.1225 C   0  0  0  0  0  0  0  0  0  0  0  0
  -15.5205  -43.5976  -21.9849 C   0  0  0  0  0  0  0  0  0  0  0  0
  -15.4539  -43.9312  -23.3274 O   0  0  0  0  0  0  0  0  0  0  0  0
  -15.7056  -42.9707  -24.2930 C   0  0  0  0  0  0  0  0  0  0  0  0
  -14.9687  -41.8431  -24.4952 C   0  0  0  0  0  0  0  0  0  0  0  0
  -15.5588  -41.1675  -25.5471 N   0  0  0  0  0  0  0  0  0  0  0  0
  -16.6590  -41.8796  -25.9917 C   0  0  0  0  0  0  0  0  0  0  0  0
  -16.7824  -43.0057  -25.2365 C   0  0  0  0  0  0  0  0  0  0  0  0
  -15.0899  -39.8915  -26.1066 C   0  0  0  0  0  0  0  0  0  0  0  0
  -15.8862  -38.7111  -25.6071 C   0  0  0  0  0  0  0  0  0  0  0  0
  -16.8626  -38.1108  -26.3829 C   0  0  0  0  0  0  0  0  0  0  0  0
  -17.5586  -37.0281  -26.0122 N   0  0  0  0  0  0  0  0  0  0  0  0
  -17.2761  -36.4993  -24.8169 C   0  0  0  0  0  0  0  0  0  0  0  0
  -16.3340  -37.0262  -23.9631 C   0  0  0  0  0  0  0  0  0  0  0  0
  -15.6417  -38.1537  -24.3640 C   0  0  0  0  0  0  0  0  0  0  0  0
  -14.6860  -42.5994  -21.4909 C   0  0  0  0  0  0  0  0  0  0  0  0
  -14.7387  -42.2513  -20.1445 C   0  0  0  0  0  0  0  0  0  0  0  0
  -15.6264  -42.9032  -19.2948 C   0  0  0  0  0  0  0  0  0  0  0  0
  -16.4658  -43.9028  -19.7750 C   0  0  0  0  0  0  0  0  0  0  0  0
  -13.8441  -41.1668  -19.5666 C   0  0  0  0  0  0  0  0  0  0  0  0
  -21.4842  -49.8167  -25.4454 H   0  0  0  0  0  0  0  0  0  0  0  0
  -20.9904  -48.6725  -26.6702 H   0  0  0  0  0  0  0  0  0  0  0  0
  -23.1155  -48.2455  -26.5543 H   0  0  0  0  0  0  0  0  0  0  0  0
  -18.9429  -48.2223  -21.2268 H   0  0  0  0  0  0  0  0  0  0  0  0
  -17.3406  -46.6322  -19.9329 H   0  0  0  0  0  0  0  0  0  0  0  0
  -14.1018  -41.5393  -23.9466 H   0  0  0  0  0  0  0  0  0  0  0  0
  -17.3051  -41.5929  -26.7950 H   0  0  0  0  0  0  0  0  0  0  0  0
  -17.5322  -43.7635  -25.3292 H   0  0  0  0  0  0  0  0  0  0  0  0
  -15.1722  -39.9340  -27.1726 H   0  0  0  0  0  0  0  0  0  0  0  0
  -14.0647  -39.7536  -25.8332 H   0  0  0  0  0  0  0  0  0  0  0  0
  -17.0751  -38.5391  -27.3401 H   0  0  0  0  0  0  0  0  0  0  0  0
  -17.8085  -35.6236  -24.5093 H   0  0  0  0  0  0  0  0  0  0  0  0
  -16.1421  -36.5744  -23.0123 H   0  0  0  0  0  0  0  0  0  0  0  0
  -14.9165  -38.5956  -23.7131 H   0  0  0  0  0  0  0  0  0  0  0  0
  -14.0038  -42.0995  -22.1463 H   0  0  0  0  0  0  0  0  0  0  0  0
  -15.6638  -42.6325  -18.2603 H   0  0  0  0  0  0  0  0  0  0  0  0
  -17.1474  -44.4030  -19.1191 H   0  0  0  0  0  0  0  0  0  0  0  0
  -14.0443  -41.0589  -18.5210 H   0  0  0  0  0  0  0  0  0  0  0  0
  -12.8186  -41.4377  -19.7073 H   0  0  0  0  0  0  0  0  0  0  0  0
  -14.0398  -40.2401  -20.0646 H   0  0  0  0  0  0  0  0  0  0  0  0
  1  2  1  0  0  0  0
  1  9  1  0  0  0  0
  2  3  1  0  0  0  0
  2  7  2  0  0  0  0
  3  4  3  0  0  0  0
  4  5  1  0  0  0  0
  5  6  1  0  0  0  0
  7  8  1  0  0  0  0
  8  9  2  0  0  0  0
  9 10  1  0  0  0  0
 10 11  2  0  0  0  0
 10 28  1  0  0  0  0
 11 12  1  0  0  0  0
 11 25  1  0  0  0  0
 12 13  1  0  0  0  0
 13 14  2  0  0  0  0
 13 17  1  0  0  0  0
 14 15  1  0  0  0  0
 15 16  1  0  0  0  0
 15 18  1  0  0  0  0
 16 17  2  0  0  0  0
 18 19  1  0  0  0  0
 19 20  2  0  0  0  0
 19 24  1  0  0  0  0
 20 21  1  0  0  0  0
 21 22  2  0  0  0  0
 22 23  1  0  0  0  0
 23 24  2  0  0  0  0
 25 26  2  0  0  0  0
 26 27  1  0  0  0  0
 26 29  1  0  0  0  0
 27 28  2  0  0  0  0
  5 30  1  0  0  0  0
  5 31  1  0  0  0  0
  6 32  1  0  0  0  0
  7 33  1  0  0  0  0
  8 34  1  0  0  0  0
 14 35  1  0  0  0  0
 16 36  1  0  0  0  0
 17 37  1  0  0  0  0
 18 38  1  0  0  0  0
 18 39  1  0  0  0  0
 20 40  1  0  0  0  0
 22 41  1  0  0  0  0
 23 42  1  0  0  0  0
 24 43  1  0  0  0  0
 25 44  1  0  0  0  0
 27 45  1  0  0  0  0
 28 46  1  0  0  0  0
 29 47  1  0  0  0  0
 29 48  1  0  0  0  0
 29 49  1  0  0  0  0
M  END
> <BIOSOLVEIT.INTER_CLASH range: red, yellow, green>
red

> <BIOSOLVEIT.INTRA_CLASH range: red, yellow, green>
green

> <BIOSOLVEIT.LOGP>
5.10442

> <BIOSOLVEIT.MOLECULAR_WEIGHT>
400.499

> <BIOSOLVEIT.TORSION_QUALITY range: red, yellow, green, not rotatable>
green

> <BIOSOLVEIT.TPSA>
47.28

> <BIOSOLVEIT.OPTIBRIUM.2C9 pKi>
6.08385

> <BIOSOLVEIT.OPTIBRIUM.2D6 affinity category>
medium

> <BIOSOLVEIT.OPTIBRIUM.BBB category>
-

> <BIOSOLVEIT.OPTIBRIUM.BBB log([brain]:[blood])>
-0.598073

> <BIOSOLVEIT.OPTIBRIUM.hERG pIC50>
5.32606

> <BIOSOLVEIT.OPTIBRIUM.HIA category>
+

> <BIOSOLVEIT.OPTIBRIUM.logD>
4.45002

> <BIOSOLVEIT.OPTIBRIUM.logP>
4.45002

> <BIOSOLVEIT.OPTIBRIUM.logS @ pH7.4>
-0.452915

> <BIOSOLVEIT.OPTIBRIUM.logS>
-0.452915

> <BIOSOLVEIT.OPTIBRIUM.P-gp category>
no

> <BIOSOLVEIT.OPTIBRIUM.PPB90 category>
high

$$$$
d0160a
ilSeeSAR  12182419123D 1   1.00000     0.00000     0
SeeSAR 13.1.1 ill13029
 21 22  0  0  0  0            999 V2000
  -17.1550  -41.2910  -27.2920 N   0  0  0  0  0  0  0  0  0  0  0  0
  -17.2400  -42.0720  -26.2090 C   0  0  0  0  0  0  0  0  0  0  0  0
  -16.4450  -41.9230  -25.0890 C   0  0  0  0  0  0  0  0  0  0  0  0
  -15.4880  -40.9120  -25.0760 C   0  0  0  0  0  0  0  0  0  0  0  0
  -15.3790  -40.1030  -26.1990 C   0  0  0  0  0  0  0  0  0  0  0  0
  -16.2280  -40.3270  -27.2660 C   0  0  0  0  0  0  0  0  0  0  0  0
  -14.6310  -40.6870  -23.8930 C   0  0  0  0  0  0  0  0  0  0  0  0
  -13.9280  -39.5420  -23.7350 N   0  0  0  0  0  0  0  0  0  0  0  0
  -13.2130  -39.5230  -22.5740 N   0  0  0  0  0  0  0  0  0  0  0  0
  -13.4780  -40.6900  -21.9930 C   0  0  0  0  0  0  0  0  0  0  0  0
  -14.3590  -41.4720  -22.7610 C   0  0  0  0  0  0  0  0  0  0  0  0
  -14.8680  -42.8470  -22.4170 C   0  0  0  0  0  0  0  0  0  0  0  0
  -17.9661  -42.8579  -26.2104 H   0  0  0  0  0  0  0  0  0  0  0  0
  -16.5626  -42.5727  -24.2470 H   0  0  0  0  0  0  0  0  0  0  0  0
  -14.6507  -39.3201  -26.2376 H   0  0  0  0  0  0  0  0  0  0  0  0
  -16.1386  -39.6916  -28.1223 H   0  0  0  0  0  0  0  0  0  0  0  0
  -13.0694  -40.9971  -21.0530 H   0  0  0  0  0  0  0  0  0  0  0  0
  -14.4578  -43.1545  -21.4778 H   0  0  0  0  0  0  0  0  0  0  0  0
  -15.9357  -42.8257  -22.3501 H   0  0  0  0  0  0  0  0  0  0  0  0
  -14.5721  -43.5377  -23.1787 H   0  0  0  0  0  0  0  0  0  0  0  0
  -12.6202  -38.7928  -22.2343 H   0  0  0  0  0  0  0  0  0  0  0  0
  1  2  2  0  0  0  0
  1  6  1  0  0  0  0
  2  3  1  0  0  0  0
  3  4  2  0  0  0  0
  4  5  1  0  0  0  0
  4  7  1  0  0  0  0
  5  6  2  0  0  0  0
  7  8  2  0  0  0  0
  7 11  1  0  0  0  0
  8  9  1  0  0  0  0
  9 10  1  0  0  0  0
 10 11  2  0  0  0  0
 11 12  1  0  0  0  0
  2 13  1  0  0  0  0
  3 14  1  0  0  0  0
  5 15  1  0  0  0  0
  6 16  1  0  0  0  0
 12 20  1  0  0  0  0
 10 17  1  0  0  0  0
 12 18  1  0  0  0  0
 12 19  1  0  0  0  0
  9 21  1  0  0  0  0
M  END
> <BIOSOLVEIT.INTER_CLASH range: red, yellow, green>
red

> <BIOSOLVEIT.INTRA_CLASH range: red, yellow, green>
green

> <BIOSOLVEIT.LOGP>
1.78012

> <BIOSOLVEIT.MOLECULAR_WEIGHT>
159.191

> <BIOSOLVEIT.TORSION_QUALITY range: red, yellow, green, not rotatable>
green

> <BIOSOLVEIT.TPSA>
41.57

> <BIOSOLVEIT.OPTIBRIUM.2C9 pKi>
4.10371

> <BIOSOLVEIT.OPTIBRIUM.2D6 affinity category>
low

> <BIOSOLVEIT.OPTIBRIUM.BBB category>
+

> <BIOSOLVEIT.OPTIBRIUM.BBB log([brain]:[blood])>
-0.680852

> <BIOSOLVEIT.OPTIBRIUM.hERG pIC50>
3.73488

> <BIOSOLVEIT.OPTIBRIUM.HIA category>
+

> <BIOSOLVEIT.OPTIBRIUM.logD>
1.5222

> <BIOSOLVEIT.OPTIBRIUM.logP>
1.5222

> <BIOSOLVEIT.OPTIBRIUM.logS @ pH7.4>
4.12121

> <BIOSOLVEIT.OPTIBRIUM.logS>
4.12121

> <BIOSOLVEIT.OPTIBRIUM.P-gp category>
no

> <BIOSOLVEIT.OPTIBRIUM.PPB90 category>
low

$$$$
d0191a
ilSeeSAR  12182419123D 1   1.00000     0.00000     0
SeeSAR 13.1.1 ill13029
 22 23  0  0  0  0            999 V2000
  -18.3830  -37.9610  -26.5720 N   0  0  0  0  0  0  0  0  0  0  0  0
  -17.4060  -38.8590  -26.7540 C   0  0  0  0  0  0  0  0  0  0  0  0
  -16.3550  -39.0540  -25.8750 C   0  0  0  0  0  0  0  0  0  0  0  0
  -16.3410  -38.2750  -24.7310 C   0  0  0  0  0  0  0  0  0  0  0  0
  -17.3280  -37.3290  -24.5260 C   0  0  0  0  0  0  0  0  0  0  0  0
  -18.3220  -37.2060  -25.4700 C   0  0  0  0  0  0  0  0  0  0  0  0
  -15.2480  -40.0370  -26.1670 C   0  0  0  0  0  0  0  0  0  0  0  0
  -15.3980  -41.2940  -25.4230 N   0  0  0  0  0  0  0  0  0  0  0  0
  -14.7240  -41.6290  -24.2740 C   0  0  0  0  0  0  0  0  0  0  0  0
  -15.1980  -42.8250  -23.8310 C   0  0  0  0  0  0  0  0  0  0  0  0
  -16.1900  -43.2470  -24.7330 C   0  0  0  0  0  0  0  0  0  0  0  0
  -16.2940  -42.2990  -25.7020 C   0  0  0  0  0  0  0  0  0  0  0  0
  -17.4403  -39.4644  -27.6356 H   0  0  0  0  0  0  0  0  0  0  0  0
  -15.5659  -38.4051  -24.0049 H   0  0  0  0  0  0  0  0  0  0  0  0
  -17.3194  -36.7077  -23.6549 H   0  0  0  0  0  0  0  0  0  0  0  0
  -19.0832  -36.4703  -25.3145 H   0  0  0  0  0  0  0  0  0  0  0  0
  -14.3134  -39.5899  -25.8995 H   0  0  0  0  0  0  0  0  0  0  0  0
  -15.2518  -40.2562  -27.2143 H   0  0  0  0  0  0  0  0  0  0  0  0
  -13.9565  -41.0481  -23.8067 H   0  0  0  0  0  0  0  0  0  0  0  0
  -14.8746  -43.3487  -22.9557 H   0  0  0  0  0  0  0  0  0  0  0  0
  -16.7599  -44.1503  -24.6687 H   0  0  0  0  0  0  0  0  0  0  0  0
  -16.9597  -42.3297  -26.5391 H   0  0  0  0  0  0  0  0  0  0  0  0
  1  2  1  0  0  0  0
  1  6  2  0  0  0  0
  2  3  2  0  0  0  0
  3  4  1  0  0  0  0
  3  7  1  0  0  0  0
  4  5  2  0  0  0  0
  5  6  1  0  0  0  0
  7  8  1  0  0  0  0
  8  9  1  0  0  0  0
  8 12  1  0  0  0  0
  9 10  2  0  0  0  0
 10 11  1  0  0  0  0
 11 12  2  0  0  0  0
  2 13  1  0  0  0  0
  4 14  1  0  0  0  0
  5 15  1  0  0  0  0
  6 16  1  0  0  0  0
  7 17  1  0  0  0  0
  7 18  1  0  0  0  0
  9 19  1  0  0  0  0
 10 20  1  0  0  0  0
 11 21  1  0  0  0  0
 12 22  1  0  0  0  0
M  END
> <BIOSOLVEIT.INTER_CLASH range: red, yellow, green>
red

> <BIOSOLVEIT.INTRA_CLASH range: red, yellow, green>
green

> <BIOSOLVEIT.LOGP>
1.9314

> <BIOSOLVEIT.MOLECULAR_WEIGHT>
158.203

> <BIOSOLVEIT.TORSION_QUALITY range: red, yellow, green, not rotatable>
green

> <BIOSOLVEIT.TPSA>
17.82

> <BIOSOLVEIT.OPTIBRIUM.2C9 pKi>
4.01316

> <BIOSOLVEIT.OPTIBRIUM.2D6 affinity category>
low

> <BIOSOLVEIT.OPTIBRIUM.BBB category>
+

> <BIOSOLVEIT.OPTIBRIUM.BBB log([brain]:[blood])>
0.139624

> <BIOSOLVEIT.OPTIBRIUM.hERG pIC50>
4.4834

> <BIOSOLVEIT.OPTIBRIUM.HIA category>
+

> <BIOSOLVEIT.OPTIBRIUM.logD>
1.76373

> <BIOSOLVEIT.OPTIBRIUM.logP>
1.76373

> <BIOSOLVEIT.OPTIBRIUM.logS @ pH7.4>
4.78253

> <BIOSOLVEIT.OPTIBRIUM.logS>
4.78253

> <BIOSOLVEIT.OPTIBRIUM.P-gp category>
no

> <BIOSOLVEIT.OPTIBRIUM.PPB90 category>
low

$$$$
d0472a
ilSeeSAR  12182419123D 1   1.00000     0.00000     0
SeeSAR 13.1.1 ill13029
 21 22  0  0  0  0            999 V2000
  -16.3621  -44.4754  -19.8335 N   0  0  0  0  0  0  0  0  0  0  0  0
  -16.3804  -44.5414  -21.1725 C   0  0  0  0  0  0  0  0  0  0  0  0
  -17.3754  -45.4064  -21.6982 N   0  0  0  0  0  0  0  0  0  0  0  0
  -18.4129  -45.0455  -22.5350 C   0  0  0  0  0  0  0  0  0  0  0  0
  -19.1390  -46.1628  -22.8153 C   0  0  0  0  0  0  0  0  0  0  0  0
  -18.5397  -47.2461  -22.1359 C   0  0  0  0  0  0  0  0  0  0  0  0
  -17.4623  -46.7638  -21.4572 C   0  0  0  0  0  0  0  0  0  0  0  0
  -15.4542  -43.8584  -21.9919 C   0  0  0  0  0  0  0  0  0  0  0  0
  -15.5512  -43.8787  -23.3541 N   0  0  0  0  0  0  0  0  0  0  0  0
  -14.4667  -43.1166  -21.3463 C   0  0  0  0  0  0  0  0  0  0  0  0
  -14.4330  -43.0537  -19.9685 C   0  0  0  0  0  0  0  0  0  0  0  0
  -15.3982  -43.7359  -19.2590 C   0  0  0  0  0  0  0  0  0  0  0  0
  -18.6116  -44.0595  -22.8998 H   0  0  0  0  0  0  0  0  0  0  0  0
  -20.0075  -46.2112  -23.4383 H   0  0  0  0  0  0  0  0  0  0  0  0
  -18.8725  -48.2629  -22.1516 H   0  0  0  0  0  0  0  0  0  0  0  0
  -16.7985  -47.3367  -20.8439 H   0  0  0  0  0  0  0  0  0  0  0  0
  -14.8934  -43.3702  -23.9098 H   0  0  0  0  0  0  0  0  0  0  0  0
  -16.2798  -44.4022  -23.7958 H   0  0  0  0  0  0  0  0  0  0  0  0
  -13.7315  -42.5938  -21.9216 H   0  0  0  0  0  0  0  0  0  0  0  0
  -13.6770  -42.4895  -19.4635 H   0  0  0  0  0  0  0  0  0  0  0  0
  -15.3788  -43.6731  -18.1910 H   0  0  0  0  0  0  0  0  0  0  0  0
  1  2  1  0  0  0  0
  1 12  2  0  0  0  0
  2  3  1  0  0  0  0
  2  8  2  0  0  0  0
  3  4  1  0  0  0  0
  3  7  1  0  0  0  0
  4  5  2  0  0  0  0
  5  6  1  0  0  0  0
  6  7  2  0  0  0  0
  8  9  1  0  0  0  0
  8 10  1  0  0  0  0
 10 11  2  0  0  0  0
 11 12  1  0  0  0  0
  4 13  1  0  0  0  0
  5 14  1  0  0  0  0
  6 15  1  0  0  0  0
  7 16  1  0  0  0  0
  9 17  1  0  0  0  0
  9 18  1  0  0  0  0
 10 19  1  0  0  0  0
 11 20  1  0  0  0  0
 12 21  1  0  0  0  0
M  END
> <BIOSOLVEIT.HYDE_ATOM_SCORES [kJ/mol]>
# Atom-ID; Total; Rec-Desolv; Rec-IA; Lig-Desolv; Lig-IA
1;2.0883;-0.1634;0.0000;2.2518;0.0000
2;-2.2776;-1.7132;0.0000;-0.5644;0.0000
3;-0.0402;0.0000;0.0000;-0.0402;0.0000
4;-5.8451;-3.6046;0.0000;-2.2405;0.0000
5;-2.6594;-1.1951;0.0000;-1.4642;0.0000
6;-4.4209;-2.9243;0.0000;-1.4966;0.0000
7;-3.1039;-1.5599;0.0000;-1.5439;0.0000
8;-1.9574;-1.2166;0.0000;-0.7408;0.0000
9;-0.6934;-3.3425;0.0000;2.6492;0.0000
10;0.3256;1.5207;0.0000;-1.1951;0.0000
11;-1.0147;-0.5319;0.0000;-0.4828;0.0000
12;-0.6702;0.1392;0.0000;-0.8093;0.0000

> <BIOSOLVEIT.HYDE_ESTIMATED_AFFINITY_LOWER_BOUNDARY [nM]>
28216.288833

> <BIOSOLVEIT.HYDE_ESTIMATED_AFFINITY_UPPER_BOUNDARY [nM]>
2803455.123486

> <BIOSOLVEIT.HYDE_LIGAND_EFFICIENCY range: ++, +, 0, -, -->
+

> <BIOSOLVEIT.HYDE_LIGAND_LIPOPHILIC_EFFICIENCY range: ++, +, 0, -, -->
-

> <BIOSOLVEIT.INTER_CLASH range: red, yellow, green>
green

> <BIOSOLVEIT.INTRA_CLASH range: red, yellow, green>
green

> <BIOSOLVEIT.LOGP>
1.4545

> <BIOSOLVEIT.MOLECULAR_WEIGHT>
159.191

> <BIOSOLVEIT.MOLECULE_CHECKSUM>
LTIwLjI2ODY7MS42ODkwNQ==

> <BIOSOLVEIT.TORSION_QUALITY range: red, yellow, green, not rotatable>
green

> <BIOSOLVEIT.TPSA>
43.84

> <BIOSOLVEIT.OPTIBRIUM.2C9 pKi>
4.0675

> <BIOSOLVEIT.OPTIBRIUM.2D6 affinity category>
low

> <BIOSOLVEIT.OPTIBRIUM.BBB category>
+

> <BIOSOLVEIT.OPTIBRIUM.BBB log([brain]:[blood])>
-0.648762

> <BIOSOLVEIT.OPTIBRIUM.hERG pIC50>
4.05227

> <BIOSOLVEIT.OPTIBRIUM.HIA category>
+

> <BIOSOLVEIT.OPTIBRIUM.logD>
0.0501938

> <BIOSOLVEIT.OPTIBRIUM.logP>
1.00629

> <BIOSOLVEIT.OPTIBRIUM.logS @ pH7.4>
2.14428

> <BIOSOLVEIT.OPTIBRIUM.logS>
4.54169

> <BIOSOLVEIT.OPTIBRIUM.P-gp category>
no

> <BIOSOLVEIT.OPTIBRIUM.PPB90 category>
low

$$$$
d0612a
ilSeeSAR  12182419123D 1   1.00000     0.00000     0
SeeSAR 13.1.1 ill13029
 30 31  0  0  0  0            999 V2000
  -13.7420  -44.9730  -19.1420 F   0  0  0  0  0  0  0  0  0  0  0  0
  -14.1440  -44.1640  -20.1680 C   0  0  0  0  0  0  0  0  0  0  0  0
  -13.4440  -43.0190  -20.4000 C   0  0  0  0  0  0  0  0  0  0  0  0
  -13.8550  -42.1920  -21.4290 C   0  0  0  0  0  0  0  0  0  0  0  0
  -14.9670  -42.5160  -22.2110 C   0  0  0  0  0  0  0  0  0  0  0  0
  -15.3700  -41.6670  -23.2520 N   0  0  0  0  0  0  0  0  0  0  0  0
  -16.2840  -42.0770  -24.3180 C   0  0  0  0  0  0  0  0  0  0  0  0
  -15.9790  -41.3250  -25.5950 C   0  0  0  0  0  0  0  0  0  0  0  0
  -15.9970  -39.8740  -25.3650 N   0  0  0  0  0  0  0  0  0  0  0  0
  -15.8750  -39.0560  -26.5620 C   0  0  0  0  0  0  0  0  0  0  0  0
  -15.3290  -37.9410  -26.4740 O   0  0  0  0  0  0  0  0  0  0  0  0
  -16.3260  -39.5440  -27.7270 N   0  0  0  0  0  0  0  0  0  0  0  0
  -15.1170  -39.4550  -24.2680 C   0  0  0  0  0  0  0  0  0  0  0  0
  -15.4270  -40.2230  -23.0130 C   0  0  0  0  0  0  0  0  0  0  0  0
  -15.6570  -43.6970  -21.9320 C   0  0  0  0  0  0  0  0  0  0  0  0
  -15.2410  -44.5320  -20.9060 C   0  0  0  0  0  0  0  0  0  0  0  0
  -12.5954  -42.7652  -19.7997 H   0  0  0  0  0  0  0  0  0  0  0  0
  -13.3139  -41.2910  -21.6295 H   0  0  0  0  0  0  0  0  0  0  0  0
  -17.2901  -41.8693  -24.0186 H   0  0  0  0  0  0  0  0  0  0  0  0
  -16.1733  -43.1269  -24.4925 H   0  0  0  0  0  0  0  0  0  0  0  0
  -16.7147  -41.5723  -26.3316 H   0  0  0  0  0  0  0  0  0  0  0  0
  -15.0105  -41.6119  -25.9479 H   0  0  0  0  0  0  0  0  0  0  0  0
  -16.2407  -39.0017  -28.5628 H   0  0  0  0  0  0  0  0  0  0  0  0
  -16.7476  -40.4502  -27.7598 H   0  0  0  0  0  0  0  0  0  0  0  0
  -15.2583  -38.4104  -24.0842 H   0  0  0  0  0  0  0  0  0  0  0  0
  -14.0995  -39.6337  -24.5465 H   0  0  0  0  0  0  0  0  0  0  0  0
  -14.7124  -39.9648  -22.2596 H   0  0  0  0  0  0  0  0  0  0  0  0
  -16.4091  -39.9626  -22.6773 H   0  0  0  0  0  0  0  0  0  0  0  0
  -16.5146  -43.9603  -22.5151 H   0  0  0  0  0  0  0  0  0  0  0  0
  -15.7630  -45.4418  -20.6947 H   0  0  0  0  0  0  0  0  0  0  0  0
  1  2  1  0  0  0  0
  2  3  2  0  0  0  0
  2 16  1  0  0  0  0
  3  4  1  0  0  0  0
  4  5  2  0  0  0  0
  5  6  1  0  0  0  0
  5 15  1  0  0  0  0
  6  7  1  0  0  0  0
  6 14  1  0  0  0  0
  7  8  1  0  0  0  0
  8  9  1  0  0  0  0
  9 10  1  0  0  0  0
  9 13  1  0  0  0  0
 10 11  2  0  0  0  0
 10 12  1  0  0  0  0
 13 14  1  0  0  0  0
 15 16  2  0  0  0  0
  3 17  1  0  0  0  0
  4 18  1  0  0  0  0
  7 19  1  0  0  0  0
  7 20  1  0  0  0  0
  8 21  1  0  0  0  0
  8 22  1  0  0  0  0
 12 23  1  0  0  0  0
 12 24  1  0  0  0  0
 13 25  1  0  0  0  0
 13 26  1  0  0  0  0
 14 27  1  0  0  0  0
 14 28  1  0  0  0  0
 15 29  1  0  0  0  0
 16 30  1  0  0  0  0
M  END
> <BIOSOLVEIT.INTER_CLASH range: red, yellow, green>
red

> <BIOSOLVEIT.INTRA_CLASH range: red, yellow, green>
green

> <BIOSOLVEIT.LOGP>
1.0264

> <BIOSOLVEIT.MOLECULAR_WEIGHT>
223.25

> <BIOSOLVEIT.TORSION_QUALITY range: red, yellow, green, not rotatable>
green

> <BIOSOLVEIT.TPSA>
49.57

> <BIOSOLVEIT.OPTIBRIUM.2C9 pKi>
4.54174

> <BIOSOLVEIT.OPTIBRIUM.2D6 affinity category>
low

> <BIOSOLVEIT.OPTIBRIUM.BBB category>
+

> <BIOSOLVEIT.OPTIBRIUM.BBB log([brain]:[blood])>
-0.240023

> <BIOSOLVEIT.OPTIBRIUM.hERG pIC50>
5.05575

> <BIOSOLVEIT.OPTIBRIUM.HIA category>
+

> <BIOSOLVEIT.OPTIBRIUM.logD>
0.433197

> <BIOSOLVEIT.OPTIBRIUM.logP>
1.41206

> <BIOSOLVEIT.OPTIBRIUM.logS @ pH7.4>
1.35476

> <BIOSOLVEIT.OPTIBRIUM.logS>
3.34396

> <BIOSOLVEIT.OPTIBRIUM.P-gp category>
no

> <BIOSOLVEIT.OPTIBRIUM.PPB90 category>
low

$$$$
d0615b
ilSeeSAR  12182419123D 1   1.00000     0.00000     0
SeeSAR 13.1.1 ill13029
 25 26  0  0  0  0            999 V2000
  -16.5660  -38.2060  -24.4990 S   0  0  0  0  0  0  0  0  0  0  0  0
  -17.9680  -37.4870  -25.2330 C   0  0  0  0  0  0  0  0  0  0  0  0
  -18.2750  -37.9550  -26.4070 N   0  0  0  0  0  0  0  0  0  0  0  0
  -17.3690  -38.9300  -26.7710 C   0  0  0  0  0  0  0  0  0  0  0  0
  -16.3830  -39.2140  -25.8960 C   0  0  0  0  0  0  0  0  0  0  0  0
  -15.2780  -40.2110  -26.0360 C   0  0  0  0  0  0  0  0  0  0  0  0
  -14.9140  -40.8750  -24.7970 N   0  0  0  0  0  0  0  0  0  0  0  0
  -15.6590  -41.8830  -24.2030 C   0  0  0  0  0  0  0  0  0  0  0  0
  -15.2990  -42.3990  -22.9570 C   0  0  0  0  0  0  0  0  0  0  0  0
  -16.0090  -43.3300  -22.3050 N   0  0  0  0  0  0  0  0  0  0  0  0
  -17.1250  -43.7850  -22.8860 C   0  0  0  0  0  0  0  0  0  0  0  0
  -17.5250  -43.3270  -24.1160 C   0  0  0  0  0  0  0  0  0  0  0  0
  -18.6710  -43.8090  -24.6670 F   0  0  0  0  0  0  0  0  0  0  0  0
  -16.8090  -42.3840  -24.8030 C   0  0  0  0  0  0  0  0  0  0  0  0
  -18.7400  -36.4070  -24.5480 C   0  0  0  0  0  0  0  0  0  0  0  0
  -17.4456  -39.4396  -27.7087 H   0  0  0  0  0  0  0  0  0  0  0  0
  -14.4139  -39.7035  -26.4110 H   0  0  0  0  0  0  0  0  0  0  0  0
  -15.5863  -40.9570  -26.7383 H   0  0  0  0  0  0  0  0  0  0  0  0
  -14.0713  -40.5868  -24.3423 H   0  0  0  0  0  0  0  0  0  0  0  0
  -14.4061  -42.0306  -22.4966 H   0  0  0  0  0  0  0  0  0  0  0  0
  -17.7169  -44.5201  -22.3818 H   0  0  0  0  0  0  0  0  0  0  0  0
  -17.1232  -42.0444  -25.7678 H   0  0  0  0  0  0  0  0  0  0  0  0
  -19.5573  -36.1042  -25.1687 H   0  0  0  0  0  0  0  0  0  0  0  0
  -19.1166  -36.7739  -23.6161 H   0  0  0  0  0  0  0  0  0  0  0  0
  -18.0990  -35.5693  -24.3686 H   0  0  0  0  0  0  0  0  0  0  0  0
  1  2  1  0  0  0  0
  1  5  1  0  0  0  0
  2  3  2  0  0  0  0
  2 15  1  0  0  0  0
  3  4  1  0  0  0  0
  4  5  2  0  0  0  0
  5  6  1  0  0  0  0
  6  7  1  0  0  0  0
  7  8  1  0  0  0  0
  8  9  1  0  0  0  0
  8 14  2  0  0  0  0
  9 10  2  0  0  0  0
 10 11  1  0  0  0  0
 11 12  2  0  0  0  0
 12 13  1  0  0  0  0
 12 14  1  0  0  0  0
  4 16  1  0  0  0  0
  6 17  1  0  0  0  0
  6 18  1  0  0  0  0
  7 19  1  0  0  0  0
  9 20  1  0  0  0  0
 11 21  1  0  0  0  0
 14 22  1  0  0  0  0
 15 23  1  0  0  0  0
 15 24  1  0  0  0  0
 15 25  1  0  0  0  0
M  END
> <BIOSOLVEIT.INTER_CLASH range: red, yellow, green>
red

> <BIOSOLVEIT.INTRA_CLASH range: red, yellow, green>
green

> <BIOSOLVEIT.LOGP>
2.59772

> <BIOSOLVEIT.MOLECULAR_WEIGHT>
223.273

> <BIOSOLVEIT.TORSION_QUALITY range: red, yellow, green, not rotatable>
green

> <BIOSOLVEIT.TPSA>
37.81

> <BIOSOLVEIT.OPTIBRIUM.2C9 pKi>
4.31237

> <BIOSOLVEIT.OPTIBRIUM.2D6 affinity category>
low

> <BIOSOLVEIT.OPTIBRIUM.BBB category>
+

> <BIOSOLVEIT.OPTIBRIUM.BBB log([brain]:[blood])>
-0.385436

> <BIOSOLVEIT.OPTIBRIUM.hERG pIC50>
4.89376

> <BIOSOLVEIT.OPTIBRIUM.HIA category>
+

> <BIOSOLVEIT.OPTIBRIUM.logD>
0.61801

> <BIOSOLVEIT.OPTIBRIUM.logP>
1.67888

> <BIOSOLVEIT.OPTIBRIUM.logS @ pH7.4>
2.01443

> <BIOSOLVEIT.OPTIBRIUM.logS>
3.39666

> <BIOSOLVEIT.OPTIBRIUM.P-gp category>
no

> <BIOSOLVEIT.OPTIBRIUM.PPB90 category>
low

$$$$
