DF-RdRp-NP021; 
Actelion Java MolfileCreator 2.0

  0  0  0  0  0  0              0 V3000
M  V30 BEGIN CTAB
M  V30 COUNTS 28 30 0 0 0
M  V30 BEGIN ATOM
M  V30 1 N -14.8442 -45.1315 -19.5631 0
M  V30 2 C -15.7847 -44.7311 -20.4318 0
M  V30 3 C -13.6985 -44.4519 -19.4031 0
M  V30 4 N -16.9872 -45.5046 -20.5548 0
M  V30 5 C -15.5728 -43.5818 -21.188 0
M  V30 6 C -13.4422 -43.2983 -20.1375 0
M  V30 7 C -18.1377 -45.3515 -19.8066 0
M  V30 8 C -17.1871 -46.533 -21.4554 0
M  V30 9 N -16.5962 -43.1759 -22.1085 0
M  V30 10 C -14.3944 -42.8518 -21.0481 0
M  V30 11 C -19.0463 -46.2714 -20.234 0
M  V30 12 C -18.447 -47.0162 -21.2735 0
M  V30 13 C -14.1187 -41.621 -21.8315 0
M  V30 14 N -14.9495 -41.0646 -22.7872 0
M  V30 15 C -12.999 -40.8558 -21.7241 0
M  V30 16 C -14.3137 -39.9337 -23.2674 0
M  V30 17 N -13.1703 -39.8284 -22.6306 0
M  V30 18 H -12.9715 -44.802 -18.7002 0
M  V30 19 H -12.5257 -42.7625 -20.004 0
M  V30 20 H -18.289 -44.6347 -19.0266 0
M  V30 21 H -16.4754 -46.8881 -22.1713 0
M  V30 22 H -16.471 -42.3544 -22.665 0
M  V30 23 H -17.4345 -43.7145 -22.1936 0
M  V30 24 H -20.0364 -46.4057 -19.8509 0
M  V30 25 H -18.9013 -47.8163 -21.8197 0
M  V30 26 H -12.1635 -41.0159 -21.0751 0
M  V30 27 H -14.6849 -39.2682 -24.0186 0
M  V30 28 H -12.5068 -39.0958 -22.783 0
M  V30 END ATOM
M  V30 BEGIN BOND
M  V30 1 2 1 2
M  V30 2 1 1 3
M  V30 3 1 2 4
M  V30 4 1 2 5
M  V30 5 2 3 6
M  V30 6 1 4 7
M  V30 7 1 4 8
M  V30 8 1 5 9
M  V30 9 2 5 10
M  V30 10 2 7 11
M  V30 11 2 8 12
M  V30 12 1 10 13
M  V30 13 1 13 14
M  V30 14 2 13 15
M  V30 15 2 14 16
M  V30 16 1 15 17
M  V30 17 1 6 10
M  V30 18 1 11 12
M  V30 19 1 16 17
M  V30 20 1 3 18
M  V30 21 1 6 19
M  V30 22 1 7 20
M  V30 23 1 8 21
M  V30 24 1 9 22
M  V30 25 1 9 23
M  V30 26 1 11 24
M  V30 27 1 12 25
M  V30 28 1 15 26
M  V30 29 1 16 27
M  V30 30 1 17 28
M  V30 END BOND
M  V30 END CTAB
M  END
>  <Molecule Name>
DF-RdRp-NP021

>  <BIOSOLVEIT.HYDE_ATOM_SCORES [kJ/mol]>
# Atom-ID; Total; Rec-Desolv; Rec-IA; Lig-Desolv; Lig-IA
1;1.7717;0.0000;0.0000;7.1061;-5.3345
2;-0.0713;0.0000;0.0000;-0.0713;0.0000
3;0.0000;0.0000;0.0000;0.0000;0.0000
4;-0.1016;0.0000;0.0000;-0.1016;0.0000
5;-3.0445;-1.5815;0.0000;-1.4630;0.0000
6;-1.5208;-0.6064;0.0000;-0.9145;0.0000
7;-2.6240;-1.6772;0.0000;-0.9468;0.0000
8;-0.0332;0.0000;0.0000;-0.0332;0.0000
9;0.5972;0.5972;0.0000;0.0000;0.0000
10;0.0000;0.0000;0.0000;0.0000;0.0000
11;-1.0777;-0.1279;0.0000;-0.9498;0.0000
12;-1.9335;-0.7978;0.0000;-1.1357;0.0000
13;-0.0677;0.0000;0.0000;-0.0677;0.0000
14;0.0000;0.0000;0.0000;0.0000;0.0000
15;-0.6495;-0.0880;0.0000;-0.5615;0.0000
16;-0.5131;-0.4159;0.0000;-0.0971;0.0000
17;-1.8452;-0.9504;0.0000;-0.8949;0.0000

>  <BIOSOLVEIT.HYDE_ESTIMATED_AFFINITY_LOWER_BOUNDARY [nM]>
1133618.247678

>  <BIOSOLVEIT.HYDE_ESTIMATED_AFFINITY_UPPER_BOUNDARY [nM]>
112631675.388361

>  <BIOSOLVEIT.HYDE_LIGAND_EFFICIENCY range: ++, +, 0, -, -->
--

>  <BIOSOLVEIT.HYDE_LIGAND_LIPOPHILIC_EFFICIENCY range: ++, +, 0, -, -->
--

>  <BIOSOLVEIT.INTER_CLASH range: red, yellow, green>
green

>  <BIOSOLVEIT.INTRA_CLASH range: red, yellow, green>
green

>  <BIOSOLVEIT.LOGP>
1.8446

>  <BIOSOLVEIT.MOLECULAR_WEIGHT>
225.254

>  <BIOSOLVEIT.MOLECULE_CHECKSUM>
LTExLjExMzE7MC42NTM3MTQ=

>  <BIOSOLVEIT.TORSION_QUALITY range: red, yellow, green, not rotatable>
yellow

>  <BIOSOLVEIT.TPSA>
72.52

>  <BIOSOLVEIT.OPTIBRIUM.2C9 pKi>
4.2436

>  <BIOSOLVEIT.OPTIBRIUM.2D6 affinity category>
low

>  <BIOSOLVEIT.OPTIBRIUM.BBB category>
-

>  <BIOSOLVEIT.OPTIBRIUM.BBB log([brain]:[blood])>
-1.01921

>  <BIOSOLVEIT.OPTIBRIUM.hERG pIC50>
3.74375

>  <BIOSOLVEIT.OPTIBRIUM.HIA category>
+

>  <BIOSOLVEIT.OPTIBRIUM.logD>
0.585266

>  <BIOSOLVEIT.OPTIBRIUM.logP>
1.34476

>  <BIOSOLVEIT.OPTIBRIUM.logS @ pH7.4>
2.29568

>  <BIOSOLVEIT.OPTIBRIUM.logS>
2.91184

>  <BIOSOLVEIT.OPTIBRIUM.P-gp category>
yes

>  <BIOSOLVEIT.OPTIBRIUM.PPB90 category>
low

>  <Smiles>
Nc(c(-[n]1cccc1)ncc1)c1-c1c[nH]cn1

$$$$
DF-RdRp-NP022
Actelion Java MolfileCreator 2.0

  0  0  0  0  0  0              0 V3000
M  V30 BEGIN CTAB
M  V30 COUNTS 37 39 0 0 0
M  V30 BEGIN ATOM
M  V30 1 O -16.2542 -40.0539 -25.9778 0
M  V30 2 C -16.2364 -41.2926 -25.8576 0
M  V30 3 N -16.1283 -41.8332 -24.6032 0
M  V30 4 N -16.2866 -42.1167 -26.9143 0
M  V30 5 C -16.0708 -43.2952 -24.4525 0
M  V30 6 C -16.0806 -40.9071 -23.462 0
M  V30 7 C -16.8409 -43.7287 -23.2216 0
M  V30 8 C -16.9213 -41.5102 -22.3549 0
M  V30 9 N -16.363 -42.8473 -22.1554 0
M  V30 10 C -15.477 -43.2079 -21.0788 0
M  V30 11 C -15.8432 -44.0754 -20.0514 0
M  V30 12 C -14.1911 -42.6805 -21.0394 0
M  V30 13 N -14.9933 -44.392 -19.0631 0
M  V30 14 N -17.1493 -44.6684 -20.0083 0
M  V30 15 C -13.3173 -43.0145 -20.0098 0
M  V30 16 C -13.751 -43.8877 -19.0171 0
M  V30 17 C -18.3464 -43.9981 -19.8515 0
M  V30 18 C -17.4179 -46.0185 -20.1232 0
M  V30 19 C -19.3515 -44.9165 -19.8693 0
M  V30 20 C -18.7661 -46.1904 -20.0406 0
M  V30 21 H -16.2571 -43.107 -26.778 0
M  V30 22 H -16.3535 -41.7411 -27.8387 0
M  V30 23 H -15.0497 -43.5999 -24.3552 0
M  V30 24 H -16.4997 -43.7562 -25.3176 0
M  V30 25 H -16.4782 -39.9554 -23.7464 0
M  V30 26 H -15.0704 -40.7872 -23.1304 0
M  V30 27 H -16.6331 -44.7517 -22.9871 0
M  V30 28 H -17.8931 -43.6038 -23.3712 0
M  V30 29 H -16.8401 -40.9293 -21.4599 0
M  V30 30 H -17.9481 -41.5694 -22.6497 0
M  V30 31 H -13.8702 -42.0105 -21.8095 0
M  V30 32 H -12.3285 -42.6066 -19.9816 0
M  V30 33 H -13.0936 -44.1569 -18.2171 0
M  V30 34 H -18.4637 -42.9408 -19.7361 0
M  V30 35 H -16.6928 -46.7944 -20.2543 0
M  V30 36 H -20.3969 -44.7105 -19.7711 0
M  V30 37 H -19.2883 -47.1228 -20.0956 0
M  V30 END ATOM
M  V30 BEGIN BOND
M  V30 1 2 1 2
M  V30 2 1 2 3
M  V30 3 1 2 4
M  V30 4 1 3 5
M  V30 5 1 3 6
M  V30 6 1 5 7
M  V30 7 1 6 8
M  V30 8 1 7 9
M  V30 9 1 9 10
M  V30 10 2 10 11
M  V30 11 1 10 12
M  V30 12 1 11 13
M  V30 13 1 11 14
M  V30 14 2 12 15
M  V30 15 2 13 16
M  V30 16 1 14 17
M  V30 17 1 14 18
M  V30 18 2 17 19
M  V30 19 2 18 20
M  V30 20 1 8 9
M  V30 21 1 15 16
M  V30 22 1 19 20
M  V30 23 1 4 21
M  V30 24 1 4 22
M  V30 25 1 5 23
M  V30 26 1 5 24
M  V30 27 1 6 25
M  V30 28 1 6 26
M  V30 29 1 7 27
M  V30 30 1 7 28
M  V30 31 1 8 29
M  V30 32 1 8 30
M  V30 33 1 12 31
M  V30 34 1 15 32
M  V30 35 1 16 33
M  V30 36 1 17 34
M  V30 37 1 18 35
M  V30 38 1 19 36
M  V30 39 1 20 37
M  V30 END BOND
M  V30 END CTAB
M  END
>  <Molecule Name>
DF-RdRp-NP022

>  <BIOSOLVEIT.HYDE_ATOM_SCORES [kJ/mol]>
# Atom-ID; Total; Rec-Desolv; Rec-IA; Lig-Desolv; Lig-IA
1;0.5954;0.3247;0.0000;0.2707;0.0000
2;-1.6075;-1.0148;0.0000;-0.5927;0.0000
3;0.0000;0.0000;0.0000;0.0000;0.0000
4;-3.0582;-1.5610;0.0000;-1.4972;0.0000
5;-1.0003;-0.3579;0.0000;-0.6424;0.0000
6;0.0000;0.0000;0.0000;0.0000;0.0000
7;0.0000;0.0000;0.0000;0.0000;0.0000
8;-0.0084;0.0000;0.0000;-0.0084;0.0000
9;-0.0157;0.0000;0.0000;-0.0157;0.0000
10;-1.6568;-0.7068;0.0000;-0.9500;0.0000
11;-1.4118;-0.3712;0.0000;-1.0406;0.0000
12;-0.9270;-0.4065;0.0000;-0.5206;0.0000
13;0.0000;0.0000;0.0000;0.0000;0.0000
14;0.0000;0.0000;0.0000;0.0000;0.0000
15;-2.3440;-1.1966;0.0000;-1.1474;0.0000
16;-1.7956;-0.5699;0.0000;-1.2257;0.0000
17;-0.2115;0.0564;0.0000;-0.2679;0.0000
18;6.5997;7.0001;0.0000;-0.4005;0.0000
19;-0.1009;0.0000;0.0000;-0.1009;0.0000
20;3.1177;-0.6392;0.0000;3.7568;0.0000

>  <BIOSOLVEIT.HYDE_ESTIMATED_AFFINITY_LOWER_BOUNDARY [nM]>
21443823.044339

>  <BIOSOLVEIT.HYDE_ESTIMATED_AFFINITY_UPPER_BOUNDARY [nM]>
2130570605.370949

>  <BIOSOLVEIT.HYDE_LIGAND_EFFICIENCY range: ++, +, 0, -, -->
--

>  <BIOSOLVEIT.HYDE_LIGAND_LIPOPHILIC_EFFICIENCY range: ++, +, 0, -, -->
--

>  <BIOSOLVEIT.INTER_CLASH range: red, yellow, green>
green

>  <BIOSOLVEIT.INTRA_CLASH range: red, yellow, green>
green

>  <BIOSOLVEIT.LOGP>
1.073

>  <BIOSOLVEIT.MOLECULAR_WEIGHT>
271.322

>  <BIOSOLVEIT.MOLECULE_CHECKSUM>
LTMuODI0OTQ7MC4xOTEyNDc=

>  <BIOSOLVEIT.TORSION_QUALITY range: red, yellow, green, not rotatable>
green

>  <BIOSOLVEIT.TPSA>
67.39

>  <BIOSOLVEIT.OPTIBRIUM.2C9 pKi>
4.82724

>  <BIOSOLVEIT.OPTIBRIUM.2D6 affinity category>
low

>  <BIOSOLVEIT.OPTIBRIUM.BBB category>
-

>  <BIOSOLVEIT.OPTIBRIUM.BBB log([brain]:[blood])>
-0.656326

>  <BIOSOLVEIT.OPTIBRIUM.hERG pIC50>
4.66922

>  <BIOSOLVEIT.OPTIBRIUM.HIA category>
+

>  <BIOSOLVEIT.OPTIBRIUM.logD>
0.505648

>  <BIOSOLVEIT.OPTIBRIUM.logP>
0.836427

>  <BIOSOLVEIT.OPTIBRIUM.logS @ pH7.4>
1.10491

>  <BIOSOLVEIT.OPTIBRIUM.logS>
3.30787

>  <BIOSOLVEIT.OPTIBRIUM.P-gp category>
no

>  <BIOSOLVEIT.OPTIBRIUM.PPB90 category>
low

>  <Smiles>
NC(N(CC1)CCN1c1c(-[n]2cccc2)nccc1)=O

$$$$
DF-RdRp-NP023
Actelion Java MolfileCreator 2.0

  0  0  0  0  0  0              0 V3000
M  V30 BEGIN CTAB
M  V30 COUNTS 37 39 0 0 0
M  V30 BEGIN ATOM
M  V30 1 O -15.8554 -37.8678 -24.7754 0
M  V30 2 C -15.5394 -39.0059 -25.1679 0
M  V30 3 N -15.5768 -40.046 -24.277 0
M  V30 4 N -15.1325 -39.2446 -26.4233 0
M  V30 5 C -15.1726 -41.3925 -24.7144 0
M  V30 6 C -16.0326 -39.7419 -22.9122 0
M  V30 7 C -16.0465 -42.4249 -24.0392 0
M  V30 8 C -16.9075 -40.9027 -22.4876 0
M  V30 9 N -15.9779 -42.0166 -22.6353 0
M  V30 10 C -15.136 -42.5816 -21.6118 0
M  V30 11 C -15.4567 -43.7528 -20.9268 0
M  V30 12 C -13.9431 -41.9534 -21.2705 0
M  V30 13 N -14.6606 -44.2646 -19.9765 0
M  V30 14 N -16.6666 -44.4696 -21.2121 0
M  V30 15 C -13.1286 -42.4972 -20.2826 0
M  V30 16 C -13.5072 -43.6698 -19.6368 0
M  V30 17 C -17.9538 -43.9938 -21.0591 0
M  V30 18 C -16.7344 -45.7622 -21.6948 0
M  V30 19 C -18.8164 -44.9753 -21.4423 0
M  V30 20 C -18.0475 -46.0901 -21.8432 0
M  V30 21 H -14.8746 -40.1709 -26.6977 0
M  V30 22 H -15.0872 -38.4961 -27.0851 0
M  V30 23 H -14.15 -41.5617 -24.4488 0
M  V30 24 H -15.2831 -41.4708 -25.7758 0
M  V30 25 H -16.5949 -38.8316 -22.9037 0
M  V30 26 H -15.1942 -39.6495 -22.2537 0
M  V30 27 H -15.6568 -43.4122 -24.1756 0
M  V30 28 H -17.0505 -42.3839 -24.4067 0
M  V30 29 H -17.2373 -40.7972 -21.475 0
M  V30 30 H -17.7565 -41.0111 -23.1297 0
M  V30 31 H -13.6517 -41.0518 -21.7679 0
M  V30 32 H -12.211 -42.0137 -20.0193 0
M  V30 33 H -12.8847 -44.0931 -18.8764 0
M  V30 34 H -18.226 -43.0228 -20.7015 0
M  V30 35 H -15.9002 -46.3955 -21.9139 0
M  V30 36 H -19.8846 -44.913 -21.4401 0
M  V30 37 H -18.4285 -47.0244 -22.1996 0
M  V30 END ATOM
M  V30 BEGIN BOND
M  V30 1 2 1 2
M  V30 2 1 2 3
M  V30 3 1 2 4
M  V30 4 1 3 5
M  V30 5 1 3 6
M  V30 6 1 5 7
M  V30 7 1 6 8
M  V30 8 1 7 9
M  V30 9 1 9 10
M  V30 10 2 10 11
M  V30 11 1 10 12
M  V30 12 1 11 13
M  V30 13 1 11 14
M  V30 14 2 12 15
M  V30 15 2 13 16
M  V30 16 1 14 17
M  V30 17 1 14 18
M  V30 18 2 17 19
M  V30 19 2 18 20
M  V30 20 1 8 9
M  V30 21 1 15 16
M  V30 22 1 19 20
M  V30 23 1 4 21
M  V30 24 1 4 22
M  V30 25 1 5 23
M  V30 26 1 5 24
M  V30 27 1 6 25
M  V30 28 1 6 26
M  V30 29 1 7 27
M  V30 30 1 7 28
M  V30 31 1 8 29
M  V30 32 1 8 30
M  V30 33 1 12 31
M  V30 34 1 15 32
M  V30 35 1 16 33
M  V30 36 1 17 34
M  V30 37 1 18 35
M  V30 38 1 19 36
M  V30 39 1 20 37
M  V30 END BOND
M  V30 END CTAB
M  END
>  <Molecule Name>
DF-RdRp-NP023

>  <BIOSOLVEIT.HYDE_ATOM_SCORES [kJ/mol]>
# Atom-ID; Total; Rec-Desolv; Rec-IA; Lig-Desolv; Lig-IA
1;1.6258;-0.0254;0.0000;1.6512;0.0000
2;-0.3107;0.0000;0.0000;-0.3107;0.0000
3;0.0000;0.0000;0.0000;0.0000;0.0000
4;-3.0420;-1.7926;0.0000;-1.2493;0.0000
5;-1.4295;-0.3863;0.0000;-1.0431;0.0000
6;0.0000;0.0000;0.0000;0.0000;0.0000
7;0.0000;0.0000;0.0000;0.0000;0.0000
8;-0.0181;0.0000;0.0000;-0.0181;0.0000
9;-1.1205;-1.0261;0.0000;-0.0944;0.0000
10;-1.6923;-0.7742;0.0000;-0.9181;0.0000
11;-1.1128;-0.2120;0.0000;-0.9008;0.0000
12;-1.2716;-0.8379;0.0000;-0.4337;0.0000
13;0.0000;0.0000;0.0000;0.0000;0.0000
14;-0.0831;0.0000;0.0000;-0.0831;0.0000
15;-2.9174;-1.9488;0.0000;-0.9687;0.0000
16;0.0553;0.8630;0.0000;-0.8077;0.0000
17;-4.0761;-2.7057;0.0000;-1.3704;0.0000
18;6.4270;7.0082;0.0000;-0.5811;0.0000
19;0.0000;0.0000;0.0000;0.0000;0.0000
20;5.4488;-1.2449;0.0000;6.6937;0.0000

>  <BIOSOLVEIT.HYDE_ESTIMATED_AFFINITY_LOWER_BOUNDARY [nM]>
24279210.258489

>  <BIOSOLVEIT.HYDE_ESTIMATED_AFFINITY_UPPER_BOUNDARY [nM]>
2412283089.232649

>  <BIOSOLVEIT.HYDE_LIGAND_EFFICIENCY range: ++, +, 0, -, -->
--

>  <BIOSOLVEIT.HYDE_LIGAND_LIPOPHILIC_EFFICIENCY range: ++, +, 0, -, -->
--

>  <BIOSOLVEIT.INTER_CLASH range: red, yellow, green>
green

>  <BIOSOLVEIT.INTRA_CLASH range: red, yellow, green>
green

>  <BIOSOLVEIT.LOGP>
1.073

>  <BIOSOLVEIT.MOLECULAR_WEIGHT>
271.322

>  <BIOSOLVEIT.MOLECULE_CHECKSUM>
LTMuNTE3MTswLjE3NTg1NQ==

>  <BIOSOLVEIT.TORSION_QUALITY range: red, yellow, green, not rotatable>
green

>  <BIOSOLVEIT.TPSA>
67.39

>  <BIOSOLVEIT.OPTIBRIUM.2C9 pKi>
4.82724

>  <BIOSOLVEIT.OPTIBRIUM.2D6 affinity category>
low

>  <BIOSOLVEIT.OPTIBRIUM.BBB category>
-

>  <BIOSOLVEIT.OPTIBRIUM.BBB log([brain]:[blood])>
-0.656326

>  <BIOSOLVEIT.OPTIBRIUM.hERG pIC50>
4.66922

>  <BIOSOLVEIT.OPTIBRIUM.HIA category>
+

>  <BIOSOLVEIT.OPTIBRIUM.logD>
0.505648

>  <BIOSOLVEIT.OPTIBRIUM.logP>
0.836427

>  <BIOSOLVEIT.OPTIBRIUM.logS @ pH7.4>
1.10491

>  <BIOSOLVEIT.OPTIBRIUM.logS>
3.30787

>  <BIOSOLVEIT.OPTIBRIUM.P-gp category>
no

>  <BIOSOLVEIT.OPTIBRIUM.PPB90 category>
low

>  <Smiles>
NC(N(CC1)CCN1c1c(-[n]2cccc2)nccc1)=O

$$$$
DF-RdRp-NP024
Actelion Java MolfileCreator 2.0

  0  0  0  0  0  0              0 V3000
M  V30 BEGIN CTAB
M  V30 COUNTS 37 39 0 0 0
M  V30 BEGIN ATOM
M  V30 1 O -18.2415 -44.2171 -23.1228 0
M  V30 2 C -17.2517 -44.3564 -22.3974 0
M  V30 3 N -16.1206 -43.7389 -22.6961 0
M  V30 4 C -17.3332 -45.2374 -21.1615 0 CFG=1
M  V30 5 C -16.0437 -42.9073 -23.8629 0
M  V30 6 O -16.2099 -45.0221 -20.2843 0
M  V30 7 C -18.589 -44.9921 -20.3531 0
M  V30 8 C -15.6041 -41.6187 -23.8913 0
M  V30 9 C -16.4175 -43.2944 -25.1918 0
M  V30 10 C -16.6951 -44.765 -18.9648 0
M  V30 11 C -18.1267 -45.2319 -18.9321 0
M  V30 12 N -15.697 -41.198 -25.2055 0
M  V30 13 C -16.1923 -42.2184 -25.9984 0
M  V30 14 C -15.3243 -39.8608 -25.6888 0
M  V30 15 C -16.4805 -38.8916 -25.6646 0
M  V30 16 C -17.2374 -38.6333 -26.794 0
M  V30 17 C -16.8049 -38.1885 -24.5177 0
M  V30 18 N -18.2365 -37.743 -26.8432 0
M  V30 19 C -17.821 -37.2515 -24.5447 0
M  V30 20 C -18.5036 -37.0612 -25.7244 0
M  V30 21 H -15.3192 -43.8517 -22.1088 0
M  V30 22 H -17.3268 -46.2604 -21.4744 0
M  V30 23 H -19.3634 -45.6776 -20.6271 0
M  V30 24 H -18.9392 -43.9891 -20.4802 0
M  V30 25 H -15.2551 -41.0437 -23.0593 0
M  V30 26 H -16.8005 -44.2468 -25.4934 0
M  V30 27 H -16.6437 -43.7181 -18.7504 0
M  V30 28 H -16.1144 -45.3052 -18.2466 0
M  V30 29 H -18.7035 -44.6585 -18.237 0
M  V30 30 H -18.1882 -46.2692 -18.6765 0
M  V30 31 H -16.3668 -42.1714 -27.0529 0
M  V30 32 H -14.9699 -39.9466 -26.6948 0
M  V30 33 H -14.5426 -39.4773 -25.0668 0
M  V30 34 H -17.0098 -39.1802 -27.6851 0
M  V30 35 H -16.2691 -38.3702 -23.6095 0
M  V30 36 H -18.0702 -36.688 -23.6701 0
M  V30 37 H -19.2864 -36.3323 -25.7472 0
M  V30 END ATOM
M  V30 BEGIN BOND
M  V30 1 2 1 2
M  V30 2 1 2 3
M  V30 3 1 2 4
M  V30 4 1 3 5
M  V30 5 1 4 6
M  V30 6 1 4 7
M  V30 7 2 5 8
M  V30 8 1 5 9
M  V30 9 1 6 10
M  V30 10 1 7 11
M  V30 11 1 8 12
M  V30 12 2 9 13
M  V30 13 1 12 14
M  V30 14 1 14 15
M  V30 15 2 15 16
M  V30 16 1 15 17
M  V30 17 1 16 18
M  V30 18 2 17 19
M  V30 19 2 18 20
M  V30 20 1 10 11
M  V30 21 1 12 13
M  V30 22 1 19 20
M  V30 23 1 3 21
M  V30 24 1 4 22
M  V30 25 1 7 23
M  V30 26 1 7 24
M  V30 27 1 8 25
M  V30 28 1 9 26
M  V30 29 1 10 27
M  V30 30 1 10 28
M  V30 31 1 11 29
M  V30 32 1 11 30
M  V30 33 1 13 31
M  V30 34 1 14 32
M  V30 35 1 14 33
M  V30 36 1 16 34
M  V30 37 1 17 35
M  V30 38 1 19 36
M  V30 39 1 20 37
M  V30 END BOND
M  V30 BEGIN COLLECTION
M  V30 MDLV30/STERAC1 ATOMS=(1 4)
M  V30 END COLLECTION
M  V30 END CTAB
M  END
>  <Molecule Name>
DF-RdRp-NP024

>  <BIOSOLVEIT.HYDE_ATOM_SCORES [kJ/mol]>
# Atom-ID; Total; Rec-Desolv; Rec-IA; Lig-Desolv; Lig-IA
1;9.4741;7.0338;0.0000;10.1339;-7.6936
2;-0.3662;0.0000;0.0000;-0.3662;0.0000
3;-2.6892;8.2813;-9.6220;7.0800;-8.4285
4;-0.0809;0.0000;0.0000;-0.0809;0.0000
5;-0.5403;-0.3515;0.0000;-0.1888;0.0000
6;0.0000;0.0000;0.0000;0.0000;0.0000
7;-1.9687;-0.2244;0.0000;-1.7444;0.0000
8;-3.7111;-2.0356;0.0000;-1.6755;0.0000
9;-2.4311;-1.0430;0.0000;-1.3881;0.0000
10;-0.8050;-0.5774;0.0000;-0.2276;0.0000
11;-4.2898;-2.4251;0.0000;-1.8647;0.0000
12;-4.2054;5.8060;-8.4285;6.8456;-8.4285
13;-1.4652;-0.2508;0.0000;-1.2144;0.0000
14;-1.4427;-0.8436;0.0000;-0.5991;0.0000
15;-0.5693;0.0000;0.0000;-0.5693;0.0000
16;-0.7115;-0.4499;0.0000;-0.2617;0.0000
17;3.9280;0.7807;-0.1659;3.6450;-0.3319
18;0.4619;0.5034;0.0000;-0.0415;0.0000
19;-1.9755;-1.3641;0.0000;-0.6114;0.0000
20;-2.2392;-1.3662;0.0000;-0.8731;0.0000

>  <BIOSOLVEIT.HYDE_ESTIMATED_AFFINITY_LOWER_BOUNDARY [nM]>
167924.101407

>  <BIOSOLVEIT.HYDE_ESTIMATED_AFFINITY_UPPER_BOUNDARY [nM]>
16684252.320655

>  <BIOSOLVEIT.HYDE_LIGAND_EFFICIENCY range: ++, +, 0, -, -->
--

>  <BIOSOLVEIT.HYDE_LIGAND_LIPOPHILIC_EFFICIENCY range: ++, +, 0, -, -->
--

>  <BIOSOLVEIT.INTER_CLASH range: red, yellow, green>
green

>  <BIOSOLVEIT.INTRA_CLASH range: red, yellow, green>
green

>  <BIOSOLVEIT.LOGP>
2.0489

>  <BIOSOLVEIT.MOLECULAR_WEIGHT>
271.318

>  <BIOSOLVEIT.MOLECULE_CHECKSUM>
LTE1Ljg0NzE7MC43OTIzNTQ=

>  <BIOSOLVEIT.TORSION_QUALITY range: red, yellow, green, not rotatable>
green

>  <BIOSOLVEIT.TPSA>
56.15

>  <BIOSOLVEIT.OPTIBRIUM.2C9 pKi>
4.48589

>  <BIOSOLVEIT.OPTIBRIUM.2D6 affinity category>
medium

>  <BIOSOLVEIT.OPTIBRIUM.BBB category>
-

>  <BIOSOLVEIT.OPTIBRIUM.BBB log([brain]:[blood])>
-0.0156245

>  <BIOSOLVEIT.OPTIBRIUM.hERG pIC50>
4.34226

>  <BIOSOLVEIT.OPTIBRIUM.HIA category>
+

>  <BIOSOLVEIT.OPTIBRIUM.logD>
1.89933

>  <BIOSOLVEIT.OPTIBRIUM.logP>
1.89933

>  <BIOSOLVEIT.OPTIBRIUM.logS @ pH7.4>
2.63321

>  <BIOSOLVEIT.OPTIBRIUM.logS>
2.63321

>  <BIOSOLVEIT.OPTIBRIUM.P-gp category>
no

>  <BIOSOLVEIT.OPTIBRIUM.PPB90 category>
low

>  <Smiles>
O=C(C1OCCC1)Nc1c[n](Cc2cnccc2)cc1

$$$$
DF-RdRp-NP025
Actelion Java MolfileCreator 2.0

  0  0  0  0  0  0              0 V3000
M  V30 BEGIN CTAB
M  V30 COUNTS 36 39 0 0 0
M  V30 BEGIN ATOM
M  V30 1 N -14.1636 -44.3512 -18.8122 0
M  V30 2 C -14.8474 -44.4754 -19.9613 0
M  V30 3 C -13.2584 -43.3666 -18.6964 0
M  V30 4 N -15.8147 -45.5299 -20.0681 0
M  V30 5 C -14.6376 -43.612 -21.034 0
M  V30 6 C -13.0336 -42.4906 -19.7551 0
M  V30 7 C -17.149 -45.3851 -20.3922 0
M  V30 8 C -15.5588 -46.8722 -19.866 0
M  V30 9 N -15.2193 -43.5653 -22.2912 0
M  V30 10 C -13.7218 -42.587 -20.9626 0
M  V30 11 C -17.7208 -46.6207 -20.3941 0
M  V30 12 C -16.7182 -47.5583 -20.0625 0
M  V30 13 C -14.7034 -42.5662 -22.9656 0
M  V30 14 N -13.7622 -41.9271 -22.1779 0
M  V30 15 N -15.0561 -42.1953 -24.3061 0
M  V30 16 C -14.7864 -40.8224 -24.7631 0
M  V30 17 C -15.6886 -43.2061 -25.1682 0
M  V30 18 C -15.827 -40.3539 -25.7695 0
M  V30 19 C -16.6717 -42.5679 -26.1387 0
M  V30 20 N -16.1042 -41.3767 -26.7917 0
M  V30 21 H -12.7071 -43.2545 -17.7863 0
M  V30 22 H -12.3057 -41.7153 -19.637 0
M  V30 23 H -17.6471 -44.4623 -20.6049 0
M  V30 24 H -14.6138 -47.2986 -19.601 0
M  V30 25 H -15.9203 -44.1929 -22.6297 0
M  V30 26 H -18.7456 -46.8417 -20.6084 0
M  V30 27 H -16.8467 -48.6174 -19.9803 0
M  V30 28 H -13.8205 -40.7926 -25.2227 0
M  V30 29 H -14.7999 -40.1659 -23.9183 0
M  V30 30 H -16.2114 -43.9097 -24.5547 0
M  V30 31 H -14.929 -43.7139 -25.7251 0
M  V30 32 H -15.4665 -39.4705 -26.2536 0
M  V30 33 H -16.7348 -40.1304 -25.2492 0
M  V30 34 H -16.93 -43.2842 -26.8904 0
M  V30 35 H -17.5516 -42.2816 -25.6014 0
M  V30 36 H -16.7575 -41.0164 -27.4575 0
M  V30 END ATOM
M  V30 BEGIN BOND
M  V30 1 2 1 2
M  V30 2 1 1 3
M  V30 3 1 2 4
M  V30 4 1 2 5
M  V30 5 2 3 6
M  V30 6 1 4 7
M  V30 7 1 4 8
M  V30 8 1 5 9
M  V30 9 2 5 10
M  V30 10 2 7 11
M  V30 11 2 8 12
M  V30 12 1 9 13
M  V30 13 1 10 14
M  V30 14 1 13 15
M  V30 15 1 15 16
M  V30 16 1 15 17
M  V30 17 1 16 18
M  V30 18 1 17 19
M  V30 19 1 18 20
M  V30 20 1 6 10
M  V30 21 1 11 12
M  V30 22 2 13 14
M  V30 23 1 19 20
M  V30 24 1 3 21
M  V30 25 1 6 22
M  V30 26 1 7 23
M  V30 27 1 8 24
M  V30 28 1 9 25
M  V30 29 1 11 26
M  V30 30 1 12 27
M  V30 31 1 16 28
M  V30 32 1 16 29
M  V30 33 1 17 30
M  V30 34 1 17 31
M  V30 35 1 18 32
M  V30 36 1 18 33
M  V30 37 1 19 34
M  V30 38 1 19 35
M  V30 39 1 20 36
M  V30 END BOND
M  V30 END CTAB
M  END
>  <Molecule Name>
DF-RdRp-NP025

>  <BIOSOLVEIT.HYDE_ATOM_SCORES [kJ/mol]>
# Atom-ID; Total; Rec-Desolv; Rec-IA; Lig-Desolv; Lig-IA
1;6.4737;2.6766;0.0000;3.7970;0.0000
2;-0.2445;0.0000;0.0000;-0.2445;0.0000
3;0.0000;0.0000;0.0000;0.0000;0.0000
4;-0.0450;0.0000;0.0000;-0.0450;0.0000
5;-1.3714;-0.7423;0.0000;-0.6291;0.0000
6;-2.0128;-0.7212;0.0000;-1.2917;0.0000
7;-3.0048;-1.7526;0.0000;-1.2522;0.0000
8;-0.2094;0.0000;0.0000;-0.2094;0.0000
9;-0.0661;0.0000;0.0000;-0.0661;0.0000
10;-0.1574;0.0000;0.0000;-0.1574;0.0000
11;-0.0292;0.0000;0.0000;-0.0292;0.0000
12;-1.3931;-0.2002;0.0000;-1.1930;0.0000
13;-0.9977;-0.4178;0.0000;-0.5799;0.0000
14;3.9409;-0.8603;0.0000;4.8012;0.0000
15;2.9513;4.7390;0.0000;-1.7877;0.0000
16;-4.9790;-3.2301;0.0000;-1.7489;0.0000
17;-1.5144;-1.4171;0.0000;-0.0973;0.0000
18;1.3265;1.5711;0.0000;-0.2446;0.0000
19;-0.1566;0.5605;0.0000;-0.7172;0.0000
20;-1.4269;-0.7461;0.0000;-0.6807;0.0000

>  <BIOSOLVEIT.HYDE_ESTIMATED_AFFINITY_LOWER_BOUNDARY [nM]>
30942226.684021

>  <BIOSOLVEIT.HYDE_ESTIMATED_AFFINITY_UPPER_BOUNDARY [nM]>
3074293165.980113

>  <BIOSOLVEIT.HYDE_LIGAND_EFFICIENCY range: ++, +, 0, -, -->
--

>  <BIOSOLVEIT.HYDE_LIGAND_LIPOPHILIC_EFFICIENCY range: ++, +, 0, -, -->
--

>  <BIOSOLVEIT.INTER_CLASH range: red, yellow, green>
green

>  <BIOSOLVEIT.INTRA_CLASH range: red, yellow, green>
green

>  <BIOSOLVEIT.LOGP>
1.1582

>  <BIOSOLVEIT.MOLECULAR_WEIGHT>
268.322

>  <BIOSOLVEIT.MOLECULE_CHECKSUM>
LTIuOTE1OTU7MC4xNDU3OTc=

>  <BIOSOLVEIT.TORSION_QUALITY range: red, yellow, green, not rotatable>
green

>  <BIOSOLVEIT.TPSA>
61.77

>  <BIOSOLVEIT.OPTIBRIUM.2C9 pKi>
5.05427

>  <BIOSOLVEIT.OPTIBRIUM.2D6 affinity category>
low

>  <BIOSOLVEIT.OPTIBRIUM.BBB category>
-

>  <BIOSOLVEIT.OPTIBRIUM.BBB log([brain]:[blood])>
-0.332463

>  <BIOSOLVEIT.OPTIBRIUM.hERG pIC50>
4.94351

>  <BIOSOLVEIT.OPTIBRIUM.HIA category>
+

>  <BIOSOLVEIT.OPTIBRIUM.logD>
0.9226

>  <BIOSOLVEIT.OPTIBRIUM.logP>
0.94388

>  <BIOSOLVEIT.OPTIBRIUM.logS @ pH7.4>
2.05335

>  <BIOSOLVEIT.OPTIBRIUM.logS>
4.02175

>  <BIOSOLVEIT.OPTIBRIUM.P-gp category>
yes

>  <BIOSOLVEIT.OPTIBRIUM.PPB90 category>
low

>  <Smiles>
C(C1)NCCN1c1nc(ccnc2-[n]3cccc3)c2[nH]1

$$$$
DF-RdRp-NP026
Actelion Java MolfileCreator 2.0

  0  0  0  0  0  0              0 V3000
M  V30 BEGIN CTAB
M  V30 COUNTS 37 40 0 0 0
M  V30 BEGIN ATOM
M  V30 1 N -15.464 -43.0969 -17.8718 0
M  V30 2 C -15.7514 -43.6393 -19.0609 0
M  V30 3 C -14.9724 -41.8506 -17.7976 0
M  V30 4 N -16.2813 -44.9704 -19.1444 0
M  V30 5 C -15.5448 -42.9444 -20.2419 0
M  V30 6 C -14.7494 -41.0947 -18.9441 0
M  V30 7 C -17.5087 -45.3925 -18.6729 0
M  V30 8 C -15.6413 -46.0504 -19.7208 0
M  V30 9 N -15.7746 -43.2885 -21.614 0
M  V30 10 C -15.0481 -41.6669 -20.1744 0
M  V30 11 C -17.6359 -46.7192 -18.9517 0
M  V30 12 C -16.4586 -47.1339 -19.6125 0
M  V30 13 C -15.4404 -42.3231 -22.3884 0
M  V30 14 C -14.9579 -41.1336 -21.5863 0
M  V30 15 N -15.5316 -42.3537 -23.7551 0
M  V30 16 C -14.8326 -41.325 -24.5421 0
M  V30 17 C -16.3408 -43.4128 -24.3787 0
M  V30 18 C -15.5883 -40.9893 -25.8194 0
M  V30 19 C -16.9961 -42.9244 -25.6622 0
M  V30 20 N -16.0467 -42.1991 -26.5223 0
M  V30 21 H -14.7479 -41.4306 -16.8393 0
M  V30 22 H -14.3588 -40.1006 -18.8802 0
M  V30 23 H -18.2337 -44.783 -18.1751 0
M  V30 24 H -14.672 -46.0376 -20.1738 0
M  V30 25 H -18.4766 -47.3365 -18.713 0
M  V30 26 H -16.2472 -48.1219 -19.9645 0
M  V30 27 H -15.5942 -40.2846 -21.725 0
M  V30 28 H -13.9525 -40.8715 -21.8419 0
M  V30 29 H -13.8588 -41.6862 -24.7992 0
M  V30 30 H -14.7394 -40.4384 -23.9503 0
M  V30 31 H -17.1028 -43.7188 -23.6927 0
M  V30 32 H -15.7092 -44.2464 -24.605 0
M  V30 33 H -14.9417 -40.4367 -26.4685 0
M  V30 34 H -16.4396 -40.3909 -25.5702 0
M  V30 35 H -17.3749 -43.7683 -26.2 0
M  V30 36 H -17.8044 -42.2699 -25.4106 0
M  V30 37 H -16.4986 -41.9396 -27.3758 0
M  V30 END ATOM
M  V30 BEGIN BOND
M  V30 1 2 1 2
M  V30 2 1 1 3
M  V30 3 1 2 4
M  V30 4 1 2 5
M  V30 5 2 3 6
M  V30 6 1 4 7
M  V30 7 1 4 8
M  V30 8 1 5 9
M  V30 9 2 5 10
M  V30 10 2 7 11
M  V30 11 2 8 12
M  V30 12 2 9 13
M  V30 13 1 10 14
M  V30 14 1 13 15
M  V30 15 1 15 16
M  V30 16 1 15 17
M  V30 17 1 16 18
M  V30 18 1 17 19
M  V30 19 1 18 20
M  V30 20 1 6 10
M  V30 21 1 11 12
M  V30 22 1 13 14
M  V30 23 1 19 20
M  V30 24 1 3 21
M  V30 25 1 6 22
M  V30 26 1 7 23
M  V30 27 1 8 24
M  V30 28 1 11 25
M  V30 29 1 12 26
M  V30 30 1 14 27
M  V30 31 1 14 28
M  V30 32 1 16 29
M  V30 33 1 16 30
M  V30 34 1 17 31
M  V30 35 1 17 32
M  V30 36 1 18 33
M  V30 37 1 18 34
M  V30 38 1 19 35
M  V30 39 1 19 36
M  V30 40 1 20 37
M  V30 END BOND
M  V30 END CTAB
M  END
>  <Molecule Name>
DF-RdRp-NP026

>  <BIOSOLVEIT.HYDE_ATOM_SCORES [kJ/mol]>
# Atom-ID; Total; Rec-Desolv; Rec-IA; Lig-Desolv; Lig-IA
1;4.6481;0.8843;0.0000;3.7638;0.0000
2;0.0000;0.0000;0.0000;0.0000;0.0000
3;0.0000;0.0000;0.0000;0.0000;0.0000
4;-0.1959;0.0000;0.0000;-0.1959;0.0000
5;-1.7670;-0.7920;0.0000;-0.9750;0.0000
6;-1.2927;-0.3549;0.0000;-0.9377;0.0000
7;-1.2183;-0.6499;0.0000;-0.5683;0.0000
8;0.0000;0.0000;0.0000;0.0000;0.0000
9;0.1270;0.0000;0.0000;0.1270;0.0000
10;0.1429;0.1429;0.0000;0.0000;0.0000
11;0.0000;0.0000;0.0000;0.0000;0.0000
12;-2.3871;-1.1346;0.0000;-1.2524;0.0000
13;-0.8564;-0.0624;0.0000;-0.7940;0.0000
14;4.8302;-2.1931;0.0000;7.0234;0.0000
15;3.0540;4.8016;0.0000;-1.7476;0.0000
16;-2.2221;-1.1449;0.0000;-1.0772;0.0000
17;-0.0936;0.0000;0.0000;-0.0936;0.0000
18;0.0000;0.0000;0.0000;0.0000;0.0000
19;0.0000;0.0000;0.0000;0.0000;0.0000
20;-0.1009;0.0000;0.0000;-0.1009;0.0000

>  <BIOSOLVEIT.HYDE_ESTIMATED_AFFINITY_LOWER_BOUNDARY [nM]>
294341969.936095

>  <BIOSOLVEIT.HYDE_ESTIMATED_AFFINITY_UPPER_BOUNDARY [nM]>
29244615000.605659

>  <BIOSOLVEIT.HYDE_LIGAND_EFFICIENCY range: ++, +, 0, -, -->
--

>  <BIOSOLVEIT.HYDE_LIGAND_LIPOPHILIC_EFFICIENCY range: ++, +, 0, -, -->
--

>  <BIOSOLVEIT.INTER_CLASH range: red, yellow, green>
green

>  <BIOSOLVEIT.INTRA_CLASH range: red, yellow, green>
green

>  <BIOSOLVEIT.LOGP>
1.3636

>  <BIOSOLVEIT.MOLECULAR_WEIGHT>
267.334

>  <BIOSOLVEIT.MOLECULE_CHECKSUM>
Mi42NjgyOzA=

>  <BIOSOLVEIT.TORSION_QUALITY range: red, yellow, green, not rotatable>
green

>  <BIOSOLVEIT.TPSA>
45.45

>  <BIOSOLVEIT.OPTIBRIUM.2C9 pKi>
4.83879

>  <BIOSOLVEIT.OPTIBRIUM.2D6 affinity category>
low

>  <BIOSOLVEIT.OPTIBRIUM.BBB category>
-

>  <BIOSOLVEIT.OPTIBRIUM.BBB log([brain]:[blood])>
-0.181708

>  <BIOSOLVEIT.OPTIBRIUM.hERG pIC50>
4.56736

>  <BIOSOLVEIT.OPTIBRIUM.HIA category>
+

>  <BIOSOLVEIT.OPTIBRIUM.logD>
-0.316716

>  <BIOSOLVEIT.OPTIBRIUM.logP>
0.739619

>  <BIOSOLVEIT.OPTIBRIUM.logS @ pH7.4>
2.55723

>  <BIOSOLVEIT.OPTIBRIUM.logS>
4.72308

>  <BIOSOLVEIT.OPTIBRIUM.P-gp category>
yes

>  <BIOSOLVEIT.OPTIBRIUM.PPB90 category>
low

>  <Smiles>
C1C(N2CCNCC2)=Nc2c1ccnc2-[n]1cccc1

$$$$
DF-RdRp-NP027
Actelion Java MolfileCreator 2.0

  0  0  0  0  0  0              0 V3000
M  V30 BEGIN CTAB
M  V30 COUNTS 35 38 0 0 0
M  V30 BEGIN ATOM
M  V30 1 S -13.622 -41.6245 -21.8792 0
M  V30 2 C -14.8201 -42.3995 -22.8409 0
M  V30 3 C -13.9427 -42.563 -20.4737 0
M  V30 4 N -15.4174 -43.3149 -22.113 0
M  V30 5 N -15.0852 -42.059 -24.2094 0
M  V30 6 C -14.9562 -43.4343 -20.8022 0
M  V30 7 C -13.2876 -42.4374 -19.2639 0
M  V30 8 C -14.7972 -40.6929 -24.6756 0
M  V30 9 C -15.65 -43.0931 -25.0908 0
M  V30 10 C -15.3134 -44.2619 -19.7421 0
M  V30 11 C -13.7282 -43.3094 -18.2841 0
M  V30 12 C -15.7722 -40.2551 -25.7587 0
M  V30 13 C -16.5714 -42.4841 -26.1377 0
M  V30 14 N -14.7122 -44.1855 -18.5425 0
M  V30 15 N -16.3602 -45.2158 -19.9724 0
M  V30 16 N -15.9716 -41.3007 -26.7757 0
M  V30 17 C -17.535 -45.329 -19.2555 0
M  V30 18 C -16.3595 -46.1794 -20.9622 0
M  V30 19 C -18.2608 -46.3494 -19.7905 0
M  V30 20 C -17.5198 -46.8853 -20.8665 0
M  V30 21 H -12.5057 -41.7261 -19.0986 0
M  V30 22 H -13.8032 -40.6628 -25.0701 0
M  V30 23 H -14.8728 -40.0199 -23.8473 0
M  V30 24 H -16.2067 -43.7893 -24.4992 0
M  V30 25 H -14.8505 -43.6044 -25.5852 0
M  V30 26 H -13.281 -43.2853 -17.3124 0
M  V30 27 H -15.3877 -39.3779 -26.2357 0
M  V30 28 H -16.7148 -40.0302 -25.3049 0
M  V30 29 H -16.7727 -43.2178 -26.89 0
M  V30 30 H -17.4875 -42.1959 -25.6664 0
M  V30 31 H -16.5819 -40.9604 -27.4909 0
M  V30 32 H -17.8246 -44.7208 -18.4242 0
M  V30 33 H -15.5826 -46.3424 -21.6795 0
M  V30 34 H -19.2201 -46.6846 -19.4558 0
M  V30 35 H -17.8168 -47.6997 -21.4938 0
M  V30 END ATOM
M  V30 BEGIN BOND
M  V30 1 1 1 2
M  V30 2 1 1 3
M  V30 3 2 2 4
M  V30 4 1 2 5
M  V30 5 2 3 6
M  V30 6 1 3 7
M  V30 7 1 5 8
M  V30 8 1 5 9
M  V30 9 1 6 10
M  V30 10 2 7 11
M  V30 11 1 8 12
M  V30 12 1 9 13
M  V30 13 2 10 14
M  V30 14 1 10 15
M  V30 15 1 12 16
M  V30 16 1 15 17
M  V30 17 1 15 18
M  V30 18 2 17 19
M  V30 19 2 18 20
M  V30 20 1 4 6
M  V30 21 1 11 14
M  V30 22 1 13 16
M  V30 23 1 19 20
M  V30 24 1 7 21
M  V30 25 1 8 22
M  V30 26 1 8 23
M  V30 27 1 9 24
M  V30 28 1 9 25
M  V30 29 1 11 26
M  V30 30 1 12 27
M  V30 31 1 12 28
M  V30 32 1 13 29
M  V30 33 1 13 30
M  V30 34 1 16 31
M  V30 35 1 17 32
M  V30 36 1 18 33
M  V30 37 1 19 34
M  V30 38 1 20 35
M  V30 END BOND
M  V30 END CTAB
M  END
>  <Molecule Name>
DF-RdRp-NP027

>  <BIOSOLVEIT.HYDE_ATOM_SCORES [kJ/mol]>
# Atom-ID; Total; Rec-Desolv; Rec-IA; Lig-Desolv; Lig-IA
1;-1.2321;-0.3337;0.0000;-0.8984;0.0000
2;-0.1607;0.0000;0.0000;-0.1607;0.0000
3;-0.1522;0.0000;0.0000;-0.1522;0.0000
4;-0.0485;0.0000;0.0000;-0.0485;0.0000
5;-0.1295;0.0000;0.0000;-0.1295;0.0000
6;-0.0525;0.0000;0.0000;-0.0525;0.0000
7;-1.7221;-0.4742;0.0000;-1.2478;0.0000
8;-0.3488;0.2887;0.0000;-0.6375;0.0000
9;3.8735;-1.1898;0.0000;5.0633;0.0000
10;2.8323;4.5482;0.0000;-1.7159;0.0000
11;-5.0285;-3.1047;0.0000;-1.9238;0.0000
12;-0.1426;0.0000;0.0000;-0.1426;0.0000
13;2.0970;0.9465;0.0000;1.1505;0.0000
14;-0.7708;-0.1321;0.0000;-0.6387;0.0000
15;-0.7794;-0.1550;0.0000;-0.6243;0.0000
16;0.0000;0.0000;0.0000;0.0000;0.0000
17;-0.0210;0.0000;0.0000;-0.0210;0.0000
18;-1.7913;-0.7397;0.0000;-1.0515;0.0000
19;-1.1317;-0.3474;0.0000;-0.7842;0.0000
20;-3.5542;-2.1879;0.0000;-1.3663;0.0000

>  <BIOSOLVEIT.HYDE_ESTIMATED_AFFINITY_LOWER_BOUNDARY [nM]>
3579170.733738

>  <BIOSOLVEIT.HYDE_ESTIMATED_AFFINITY_UPPER_BOUNDARY [nM]>
355611774.128981

>  <BIOSOLVEIT.HYDE_LIGAND_EFFICIENCY range: ++, +, 0, -, -->
--

>  <BIOSOLVEIT.HYDE_LIGAND_LIPOPHILIC_EFFICIENCY range: ++, +, 0, -, -->
--

>  <BIOSOLVEIT.INTER_CLASH range: red, yellow, green>
green

>  <BIOSOLVEIT.INTRA_CLASH range: red, yellow, green>
green

>  <BIOSOLVEIT.LOGP>
1.8916

>  <BIOSOLVEIT.MOLECULAR_WEIGHT>
285.373

>  <BIOSOLVEIT.MOLECULE_CHECKSUM>
LTguMjYzMDM7MC40MTMxNTI=

>  <BIOSOLVEIT.TORSION_QUALITY range: red, yellow, green, not rotatable>
green

>  <BIOSOLVEIT.TPSA>
45.98

>  <BIOSOLVEIT.OPTIBRIUM.2C9 pKi>
5.01299

>  <BIOSOLVEIT.OPTIBRIUM.2D6 affinity category>
low

>  <BIOSOLVEIT.OPTIBRIUM.BBB category>
-

>  <BIOSOLVEIT.OPTIBRIUM.BBB log([brain]:[blood])>
-0.268657

>  <BIOSOLVEIT.OPTIBRIUM.hERG pIC50>
5.46785

>  <BIOSOLVEIT.OPTIBRIUM.HIA category>
+

>  <BIOSOLVEIT.OPTIBRIUM.logD>
1.42921

>  <BIOSOLVEIT.OPTIBRIUM.logP>
1.56643

>  <BIOSOLVEIT.OPTIBRIUM.logS @ pH7.4>
1.91713

>  <BIOSOLVEIT.OPTIBRIUM.logS>
4.02089

>  <BIOSOLVEIT.OPTIBRIUM.P-gp category>
yes

>  <BIOSOLVEIT.OPTIBRIUM.PPB90 category>
low

>  <Smiles>
C(C1)NCCN1c1nc(c(-[n]2cccc2)ncc2)c2[s]1

$$$$
DF-RdRp-NP028
Actelion Java MolfileCreator 2.0

  0  0  0  0  0  0              0 V3000
M  V30 BEGIN CTAB
M  V30 COUNTS 35 38 0 0 0
M  V30 BEGIN ATOM
M  V30 1 O -14.1294 -41.2141 -22.584 0
M  V30 2 C -15.2303 -41.3971 -23.3149 0
M  V30 3 C -14.1174 -42.1139 -21.5968 0
M  V30 4 N -15.9326 -42.3953 -22.8324 0
M  V30 5 N -15.596 -40.6175 -24.4628 0
M  V30 6 C -15.2484 -42.8788 -21.733 0
M  V30 7 C -13.2603 -42.4168 -20.5432 0
M  V30 8 C -14.9542 -40.9036 -25.7561 0
M  V30 9 C -16.5939 -39.5492 -24.2939 0
M  V30 10 C -15.4991 -43.9135 -20.8379 0
M  V30 11 C -13.5403 -43.4564 -19.6615 0
M  V30 12 C -14.8019 -39.6433 -26.5952 0
M  V30 13 C -16.3182 -38.3821 -25.2309 0
M  V30 14 N -14.6561 -44.1818 -19.8305 0
M  V30 15 N -16.6836 -44.7075 -20.9994 0
M  V30 16 N -16.0319 -38.8342 -26.6023 0
M  V30 17 C -17.9819 -44.2391 -21.0432 0
M  V30 18 C -16.7111 -46.0812 -21.1428 0
M  V30 19 C -18.8112 -45.3055 -21.2132 0
M  V30 20 C -18.0101 -46.4668 -21.2761 0
M  V30 21 H -12.3695 -41.8396 -20.4084 0
M  V30 22 H -15.5542 -41.6083 -26.2933 0
M  V30 23 H -13.9856 -41.322 -25.5784 0
M  V30 24 H -16.5627 -39.1997 -23.283 0
M  V30 25 H -17.5659 -39.9436 -24.5051 0
M  V30 26 H -12.8714 -43.6754 -18.8555 0
M  V30 27 H -14.567 -39.9241 -27.6007 0
M  V30 28 H -14.0035 -39.055 -26.1934 0
M  V30 29 H -17.1763 -37.7431 -25.2493 0
M  V30 30 H -15.4746 -37.8357 -24.8637 0
M  V30 31 H -15.9074 -38.0404 -27.1975 0
M  V30 32 H -18.2836 -43.216 -20.9585 0
M  V30 33 H -15.8596 -46.7293 -21.1484 0
M  V30 34 H -19.8782 -45.2701 -21.2861 0
M  V30 35 H -18.3608 -47.4695 -21.4053 0
M  V30 END ATOM
M  V30 BEGIN BOND
M  V30 1 1 1 2
M  V30 2 1 1 3
M  V30 3 2 2 4
M  V30 4 1 2 5
M  V30 5 2 3 6
M  V30 6 1 3 7
M  V30 7 1 5 8
M  V30 8 1 5 9
M  V30 9 1 6 10
M  V30 10 2 7 11
M  V30 11 1 8 12
M  V30 12 1 9 13
M  V30 13 2 10 14
M  V30 14 1 10 15
M  V30 15 1 12 16
M  V30 16 1 15 17
M  V30 17 1 15 18
M  V30 18 2 17 19
M  V30 19 2 18 20
M  V30 20 1 4 6
M  V30 21 1 11 14
M  V30 22 1 13 16
M  V30 23 1 19 20
M  V30 24 1 7 21
M  V30 25 1 8 22
M  V30 26 1 8 23
M  V30 27 1 9 24
M  V30 28 1 9 25
M  V30 29 1 11 26
M  V30 30 1 12 27
M  V30 31 1 12 28
M  V30 32 1 13 29
M  V30 33 1 13 30
M  V30 34 1 16 31
M  V30 35 1 17 32
M  V30 36 1 18 33
M  V30 37 1 19 34
M  V30 38 1 20 35
M  V30 END BOND
M  V30 END CTAB
M  END
>  <Molecule Name>
DF-RdRp-NP028

>  <BIOSOLVEIT.HYDE_ATOM_SCORES [kJ/mol]>
# Atom-ID; Total; Rec-Desolv; Rec-IA; Lig-Desolv; Lig-IA
1;-1.2953;-0.9512;0.0000;-0.3441;0.0000
2;-0.1177;0.0000;0.0000;-0.1177;0.0000
3;-0.0989;0.0000;0.0000;-0.0989;0.0000
4;0.0094;0.0000;0.0000;0.0094;0.0000
5;0.0000;0.0000;0.0000;0.0000;0.0000
6;0.0000;0.0000;0.0000;0.0000;0.0000
7;-2.8923;-1.5973;0.0000;-1.2950;0.0000
8;-3.3053;-1.2673;0.0000;-2.0381;0.0000
9;6.7769;-0.1488;0.0000;6.9256;0.0000
10;-1.8527;-0.8017;0.0000;-1.0511;0.0000
11;0.1208;0.6847;0.0000;-0.5640;0.0000
12;-0.1252;0.0000;0.0000;-0.1252;0.0000
13;-1.1650;-1.0837;0.0000;-0.0813;0.0000
14;-1.6562;-0.7975;0.0000;-0.8587;0.0000
15;-0.2996;0.5305;0.0000;-0.8300;0.0000
16;0.0000;0.0000;0.0000;0.0000;0.0000
17;-0.0210;0.0000;0.0000;-0.0210;0.0000
18;-3.0511;-2.0275;0.0000;-1.0236;0.0000
19;-0.1069;0.6657;0.0000;-0.7725;0.0000
20;-2.6876;-1.5650;0.0000;-1.1225;0.0000

>  <BIOSOLVEIT.HYDE_ESTIMATED_AFFINITY_LOWER_BOUNDARY [nM]>
870744.113920

>  <BIOSOLVEIT.HYDE_ESTIMATED_AFFINITY_UPPER_BOUNDARY [nM]>
86513575.964610

>  <BIOSOLVEIT.HYDE_LIGAND_EFFICIENCY range: ++, +, 0, -, -->
--

>  <BIOSOLVEIT.HYDE_LIGAND_LIPOPHILIC_EFFICIENCY range: ++, +, 0, -, -->
--

>  <BIOSOLVEIT.INTER_CLASH range: red, yellow, green>
green

>  <BIOSOLVEIT.INTRA_CLASH range: red, yellow, green>
green

>  <BIOSOLVEIT.LOGP>
1.4231

>  <BIOSOLVEIT.MOLECULAR_WEIGHT>
269.307

>  <BIOSOLVEIT.MOLECULE_CHECKSUM>
LTExLjc2NzE7MC41ODgzNTc=

>  <BIOSOLVEIT.TORSION_QUALITY range: red, yellow, green, not rotatable>
green

>  <BIOSOLVEIT.TPSA>
59.12

>  <BIOSOLVEIT.OPTIBRIUM.2C9 pKi>
5.03877

>  <BIOSOLVEIT.OPTIBRIUM.2D6 affinity category>
low

>  <BIOSOLVEIT.OPTIBRIUM.BBB category>
-

>  <BIOSOLVEIT.OPTIBRIUM.BBB log([brain]:[blood])>
-0.141038

>  <BIOSOLVEIT.OPTIBRIUM.hERG pIC50>
5.31966

>  <BIOSOLVEIT.OPTIBRIUM.HIA category>
+

>  <BIOSOLVEIT.OPTIBRIUM.logD>
1.22666

>  <BIOSOLVEIT.OPTIBRIUM.logP>
1.11645

>  <BIOSOLVEIT.OPTIBRIUM.logS @ pH7.4>
2.87221

>  <BIOSOLVEIT.OPTIBRIUM.logS>
4.05126

>  <BIOSOLVEIT.OPTIBRIUM.P-gp category>
yes

>  <BIOSOLVEIT.OPTIBRIUM.PPB90 category>
low

>  <Smiles>
C(C1)NCCN1c1nc(c(-[n]2cccc2)ncc2)c2[o]1

$$$$
DF-RdRp-NP029
Actelion Java MolfileCreator 2.0

  0  0  0  0  0  0              0 V3000
M  V30 BEGIN CTAB
M  V30 COUNTS 38 40 0 0 0
M  V30 BEGIN ATOM
M  V30 1 O -18.4568 -44.9229 -22.7906 0
M  V30 2 C -17.4633 -45.0101 -22.0763 0
M  V30 3 N -16.3189 -44.303 -22.259 0
M  V30 4 C -17.4697 -45.9643 -20.8874 0 CFG=1
M  V30 5 C -16.0343 -43.3532 -23.2556 0
M  V30 6 O -16.3631 -45.7094 -19.9998 0
M  V30 7 C -18.7375 -45.8643 -20.0669 0
M  V30 8 N -15.2764 -42.3282 -22.8362 0
M  V30 9 C -16.5325 -43.4236 -24.5691 0
M  V30 10 C -16.8616 -45.5647 -18.6679 0
M  V30 11 C -18.2516 -46.1446 -18.6613 0
M  V30 12 C -15.0269 -41.3367 -23.7061 0
M  V30 13 C -16.2446 -42.3826 -25.4294 0
M  V30 14 C -15.4911 -41.3016 -25.0134 0
M  V30 15 C -15.2246 -40.1283 -25.9258 0
M  V30 16 C -16.3845 -39.149 -25.844 0
M  V30 17 C -17.1892 -38.8991 -26.9505 0
M  V30 18 C -16.6426 -38.4932 -24.645 0
M  V30 19 N -18.2072 -38.0306 -26.8569 0
M  V30 20 C -17.7041 -37.5972 -24.5747 0
M  V30 21 C -18.476 -37.386 -25.7119 0
M  V30 22 H -15.5862 -44.48 -21.602 0
M  V30 23 H -17.3838 -46.9649 -21.2563 0
M  V30 24 H -19.4565 -46.5928 -20.3785 0
M  V30 25 H -19.1664 -44.8866 -20.1383 0
M  V30 26 H -17.1173 -44.2593 -24.8922 0
M  V30 27 H -16.8923 -44.5303 -18.3959 0
M  V30 28 H -16.2371 -46.0958 -17.9805 0
M  V30 29 H -18.8691 -45.6579 -17.9356 0
M  V30 30 H -18.2298 -47.196 -18.4635 0
M  V30 31 H -14.4287 -40.5166 -23.368 0
M  V30 32 H -16.6108 -42.4136 -26.4343 0
M  V30 33 H -15.1213 -40.4756 -26.9326 0
M  V30 34 H -14.3226 -39.6388 -25.623 0
M  V30 35 H -16.9963 -39.3996 -27.8764 0
M  V30 36 H -16.0314 -38.676 -23.7861 0
M  V30 37 H -17.9222 -37.0805 -23.6636 0
M  V30 38 H -19.296 -36.6996 -25.6728 0
M  V30 END ATOM
M  V30 BEGIN BOND
M  V30 1 2 1 2
M  V30 2 1 2 3
M  V30 3 1 2 4
M  V30 4 1 3 5
M  V30 5 1 4 6
M  V30 6 1 4 7
M  V30 7 2 5 8
M  V30 8 1 5 9
M  V30 9 1 6 10
M  V30 10 1 7 11
M  V30 11 1 8 12
M  V30 12 2 9 13
M  V30 13 2 12 14
M  V30 14 1 14 15
M  V30 15 1 15 16
M  V30 16 2 16 17
M  V30 17 1 16 18
M  V30 18 1 17 19
M  V30 19 2 18 20
M  V30 20 2 19 21
M  V30 21 1 10 11
M  V30 22 1 13 14
M  V30 23 1 20 21
M  V30 24 1 3 22
M  V30 25 1 4 23
M  V30 26 1 7 24
M  V30 27 1 7 25
M  V30 28 1 9 26
M  V30 29 1 10 27
M  V30 30 1 10 28
M  V30 31 1 11 29
M  V30 32 1 11 30
M  V30 33 1 12 31
M  V30 34 1 13 32
M  V30 35 1 15 33
M  V30 36 1 15 34
M  V30 37 1 17 35
M  V30 38 1 18 36
M  V30 39 1 20 37
M  V30 40 1 21 38
M  V30 END BOND
M  V30 BEGIN COLLECTION
M  V30 MDLV30/STERAC1 ATOMS=(1 4)
M  V30 END COLLECTION
M  V30 END CTAB
M  END
>  <Molecule Name>
DF-RdRp-NP029

>  <BIOSOLVEIT.HYDE_ATOM_SCORES [kJ/mol]>
# Atom-ID; Total; Rec-Desolv; Rec-IA; Lig-Desolv; Lig-IA
1;7.5061;6.9902;-0.8461;10.5069;-9.1448
2;-1.0162;-0.6970;0.0000;-0.3192;0.0000
3;-2.5642;8.1795;-9.5029;7.0833;-8.3241
4;-0.1707;0.0000;0.0000;-0.1707;0.0000
5;3.2347;0.0000;0.0000;7.1649;-3.9302
6;-1.0040;-0.5489;0.0000;-0.4551;0.0000
7;-0.1128;0.0000;0.0000;-0.1128;0.0000
8;0.7005;2.1198;0.0000;-1.4192;0.0000
9;-3.1969;-1.7493;0.0000;-1.4475;0.0000
10;-3.1608;-1.4758;0.0000;-1.6849;0.0000
11;-0.1623;0.0000;0.0000;-0.1623;0.0000
12;-1.9725;-0.1679;0.0000;-1.8046;0.0000
13;-6.4431;3.5576;-8.4285;6.8563;-8.4285
14;-1.5094;-0.2840;0.0000;-1.2254;0.0000
15;-1.3118;-0.7519;0.0000;-0.5599;0.0000
16;-1.2954;-0.5774;0.0000;-0.7180;0.0000
17;-0.3189;0.0000;0.0000;-0.3189;0.0000
18;0.9778;-0.0742;0.0000;1.6191;-0.5671
19;1.4931;1.4931;0.0000;0.0000;0.0000
20;-1.9976;-1.0308;0.0000;-0.9668;0.0000
21;-2.0714;-0.7656;0.0000;-1.3058;0.0000

>  <BIOSOLVEIT.HYDE_ESTIMATED_AFFINITY_LOWER_BOUNDARY [nM]>
275971.352176

>  <BIOSOLVEIT.HYDE_ESTIMATED_AFFINITY_UPPER_BOUNDARY [nM]>
27419385.510457

>  <BIOSOLVEIT.HYDE_LIGAND_EFFICIENCY range: ++, +, 0, -, -->
--

>  <BIOSOLVEIT.HYDE_LIGAND_LIPOPHILIC_EFFICIENCY range: ++, +, 0, -, -->
--

>  <BIOSOLVEIT.INTER_CLASH range: red, yellow, green>
green

>  <BIOSOLVEIT.INTRA_CLASH range: red, yellow, green>
green

>  <BIOSOLVEIT.LOGP>
2.1849

>  <BIOSOLVEIT.MOLECULAR_WEIGHT>
283.329

>  <BIOSOLVEIT.MOLECULE_CHECKSUM>
LTE0LjYxNTY7MC42OTU5OA==

>  <BIOSOLVEIT.TORSION_QUALITY range: red, yellow, green, not rotatable>
green

>  <BIOSOLVEIT.TPSA>
64.11

>  <BIOSOLVEIT.OPTIBRIUM.2C9 pKi>
4.65547

>  <BIOSOLVEIT.OPTIBRIUM.2D6 affinity category>
medium

>  <BIOSOLVEIT.OPTIBRIUM.BBB category>
-

>  <BIOSOLVEIT.OPTIBRIUM.BBB log([brain]:[blood])>
-0.109097

>  <BIOSOLVEIT.OPTIBRIUM.hERG pIC50>
4.23692

>  <BIOSOLVEIT.OPTIBRIUM.HIA category>
+

>  <BIOSOLVEIT.OPTIBRIUM.logD>
1.75021

>  <BIOSOLVEIT.OPTIBRIUM.logP>
1.75021

>  <BIOSOLVEIT.OPTIBRIUM.logS @ pH7.4>
2.10711

>  <BIOSOLVEIT.OPTIBRIUM.logS>
2.10711

>  <BIOSOLVEIT.OPTIBRIUM.P-gp category>
no

>  <BIOSOLVEIT.OPTIBRIUM.PPB90 category>
low

>  <Smiles>
O=C(C1OCCC1)Nc1ncc(Cc2cnccc2)cc1

$$$$
DF-RdRp-NP030
Actelion Java MolfileCreator 2.0

  0  0  0  0  0  0              0 V3000
M  V30 BEGIN CTAB
M  V30 COUNTS 38 40 0 0 0
M  V30 BEGIN ATOM
M  V30 1 S -16.5543 -38.0175 -25.1144 0
M  V30 2 C -16.2568 -39.3007 -26.2264 0
M  V30 3 C -18.0058 -37.4387 -25.8378 0
M  V30 4 C -17.2891 -39.2304 -27.121 0
M  V30 5 C -15.0968 -40.2845 -26.2087 0
M  V30 6 N -18.2167 -38.2111 -26.8813 0
M  V30 7 C -18.865 -36.2761 -25.3679 0
M  V30 8 C -15.4023 -41.4054 -25.2442 0
M  V30 9 C -14.9219 -41.4065 -23.942 0
M  V30 10 C -16.2086 -42.4683 -25.6047 0
M  V30 11 N -15.2028 -42.3484 -23.0278 0
M  V30 12 C -16.5299 -43.4583 -24.6973 0
M  V30 13 C -16.011 -43.3551 -23.3939 0
M  V30 14 N -16.3234 -44.2486 -22.3546 0
M  V30 15 C -17.4954 -44.8953 -22.1279 0
M  V30 16 O -18.4939 -44.7933 -22.8329 0
M  V30 17 C -17.5271 -45.7976 -20.8995 0 CFG=1
M  V30 18 O -16.3931 -45.5621 -20.0416 0
M  V30 19 C -18.7731 -45.5996 -20.0634 0
M  V30 20 C -16.8591 -45.3371 -18.7092 0
M  V30 21 C -18.2759 -45.8454 -18.6552 0
M  V30 22 H -17.3806 -39.9066 -27.9452 0
M  V30 23 H -14.2058 -39.7798 -25.8983 0
M  V30 24 H -14.9553 -40.687 -27.1899 0
M  V30 25 H -19.7013 -36.1622 -26.0255 0
M  V30 26 H -19.2152 -36.4698 -24.3756 0
M  V30 27 H -18.2832 -35.3781 -25.3719 0
M  V30 28 H -14.2831 -40.6005 -23.6465 0
M  V30 29 H -16.5897 -42.525 -26.6028 0
M  V30 30 H -17.1556 -44.2799 -24.9774 0
M  V30 31 H -15.59 -44.4309 -21.6998 0
M  V30 32 H -17.4979 -46.8158 -21.2269 0
M  V30 33 H -19.5331 -46.3033 -20.3318 0
M  V30 34 H -19.1541 -44.6055 -20.1694 0
M  V30 35 H -16.8333 -44.292 -18.4811 0
M  V30 36 H -16.249 -45.87 -18.0102 0
M  V30 37 H -18.8547 -45.2983 -17.9408 0
M  V30 38 H -18.3027 -46.8873 -18.4132 0
M  V30 END ATOM
M  V30 BEGIN BOND
M  V30 1 1 1 2
M  V30 2 1 1 3
M  V30 3 2 2 4
M  V30 4 1 2 5
M  V30 5 2 3 6
M  V30 6 1 3 7
M  V30 7 1 5 8
M  V30 8 2 8 9
M  V30 9 1 8 10
M  V30 10 1 9 11
M  V30 11 2 10 12
M  V30 12 2 11 13
M  V30 13 1 13 14
M  V30 14 1 14 15
M  V30 15 2 15 16
M  V30 16 1 15 17
M  V30 17 1 17 18
M  V30 18 1 17 19
M  V30 19 1 18 20
M  V30 20 1 19 21
M  V30 21 1 4 6
M  V30 22 1 12 13
M  V30 23 1 20 21
M  V30 24 1 4 22
M  V30 25 1 5 23
M  V30 26 1 5 24
M  V30 27 1 7 25
M  V30 28 1 7 26
M  V30 29 1 7 27
M  V30 30 1 9 28
M  V30 31 1 10 29
M  V30 32 1 12 30
M  V30 33 1 14 31
M  V30 34 1 17 32
M  V30 35 1 19 33
M  V30 36 1 19 34
M  V30 37 1 20 35
M  V30 38 1 20 36
M  V30 39 1 21 37
M  V30 40 1 21 38
M  V30 END BOND
M  V30 BEGIN COLLECTION
M  V30 MDLV30/STERAC1 ATOMS=(1 17)
M  V30 END COLLECTION
M  V30 END CTAB
M  END
>  <Molecule Name>
DF-RdRp-NP030

>  <BIOSOLVEIT.HYDE_ATOM_SCORES [kJ/mol]>
# Atom-ID; Total; Rec-Desolv; Rec-IA; Lig-Desolv; Lig-IA
1;-1.7810;-0.7543;0.0000;-1.0267;0.0000
2;-0.2965;0.0000;0.0000;-0.2965;0.0000
3;-5.8260;4.2066;-8.4285;6.8243;-8.4285
4;4.9714;6.6196;0.0000;-1.6482;0.0000
5;-0.0658;0.0000;0.0000;-0.0658;0.0000
6;-4.3034;-2.4561;0.0000;-1.8472;0.0000
7;-0.1746;0.0000;0.0000;-0.1746;0.0000
8;-1.2053;-0.5904;0.0000;-0.6148;0.0000
9;4.5077;0.0000;0.0000;7.1649;-2.6572
10;-0.1375;0.0000;0.0000;-0.1375;0.0000
11;-2.2197;8.1795;-9.3148;7.0749;-8.1594
12;-0.9648;-0.6123;0.0000;-0.3524;0.0000
13;8.2711;6.9958;-0.7815;10.5033;-8.4465
14;-0.2440;0.0000;0.0000;-0.2440;0.0000
15;0.2003;-0.1117;0.0000;0.3120;0.0000
16;0.9172;0.9172;0.0000;0.0000;0.0000
17;-2.0506;-1.1908;0.0000;-0.8598;0.0000
18;-2.2318;-0.8613;0.0000;-1.3705;0.0000
19;-3.1434;-1.7493;0.0000;-1.3940;0.0000
20;-3.6845;-2.3293;0.0000;-1.3552;0.0000
21;-2.9442;-0.9523;0.0000;-1.9919;0.0000

>  <BIOSOLVEIT.HYDE_ESTIMATED_AFFINITY_LOWER_BOUNDARY [nM]>
613375.012472

>  <BIOSOLVEIT.HYDE_ESTIMATED_AFFINITY_UPPER_BOUNDARY [nM]>
60942434.049199

>  <BIOSOLVEIT.HYDE_LIGAND_EFFICIENCY range: ++, +, 0, -, -->
--

>  <BIOSOLVEIT.HYDE_LIGAND_LIPOPHILIC_EFFICIENCY range: ++, +, 0, -, -->
--

>  <BIOSOLVEIT.INTER_CLASH range: red, yellow, green>
green

>  <BIOSOLVEIT.INTRA_CLASH range: red, yellow, green>
green

>  <BIOSOLVEIT.LOGP>
2.55482

>  <BIOSOLVEIT.MOLECULAR_WEIGHT>
303.383

>  <BIOSOLVEIT.MOLECULE_CHECKSUM>
LTEyLjYzNTc7MC42MDE2OTk=

>  <BIOSOLVEIT.TORSION_QUALITY range: red, yellow, green, not rotatable>
green

>  <BIOSOLVEIT.TPSA>
64.11

>  <BIOSOLVEIT.OPTIBRIUM.2C9 pKi>
4.70464

>  <BIOSOLVEIT.OPTIBRIUM.2D6 affinity category>
high

>  <BIOSOLVEIT.OPTIBRIUM.BBB category>
-

>  <BIOSOLVEIT.OPTIBRIUM.BBB log([brain]:[blood])>
-0.57402

>  <BIOSOLVEIT.OPTIBRIUM.hERG pIC50>
4.49278

>  <BIOSOLVEIT.OPTIBRIUM.HIA category>
+

>  <BIOSOLVEIT.OPTIBRIUM.logD>
2.72936

>  <BIOSOLVEIT.OPTIBRIUM.logP>
2.72936

>  <BIOSOLVEIT.OPTIBRIUM.logS @ pH7.4>
2.31424

>  <BIOSOLVEIT.OPTIBRIUM.logS>
2.31424

>  <BIOSOLVEIT.OPTIBRIUM.P-gp category>
no

>  <BIOSOLVEIT.OPTIBRIUM.PPB90 category>
low

>  <Smiles>
Cc1ncc(Cc(cc2)cnc2NC(C2OCCC2)=O)[s]1

$$$$
DF-RdRp-NP031
Actelion Java MolfileCreator 2.0

  0  0  0  0  0  0              0 V3000
M  V30 BEGIN CTAB
M  V30 COUNTS 39 41 0 0 0
M  V30 BEGIN ATOM
M  V30 1 O -15.1676 -38.9855 -26.5009 0
M  V30 2 C -15.6032 -40.1198 -26.7705 0
M  V30 3 N -15.7721 -41.0216 -25.7531 0
M  V30 4 N -15.8826 -40.5015 -28.0254 0
M  V30 5 C -16.254 -42.379 -26.0674 0
M  V30 6 C -15.454 -40.5751 -24.3887 0
M  V30 7 C -17.1972 -42.8296 -24.9594 0
M  V30 8 C -16.4368 -41.1857 -23.4177 0
M  V30 9 N -16.4701 -42.6195 -23.7074 0
M  V30 10 C -15.907 -43.5593 -22.9658 0
M  V30 11 O -15.9701 -44.7422 -23.3152 0
M  V30 12 C -15.199 -43.1919 -21.7132 0
M  V30 13 C -15.7632 -43.4416 -20.4423 0
M  V30 14 C -13.9702 -42.5351 -21.7408 0
M  V30 15 N -15.1888 -43.0499 -19.296 0
M  V30 16 N -16.9607 -44.1837 -20.2686 0
M  V30 17 C -13.3662 -42.14 -20.5652 0
M  V30 18 C -14.0109 -42.408 -19.3765 0
M  V30 19 C -18.2391 -43.7526 -20.5626 0
M  V30 20 C -17.0378 -45.472 -19.7762 0
M  V30 21 C -19.1053 -44.7586 -20.2596 0
M  V30 22 C -18.3479 -45.8426 -19.7639 0
M  V30 23 H -16.219 -41.4262 -28.2036 0
M  V30 24 H -15.7546 -39.8614 -28.7829 0
M  V30 25 H -15.4236 -43.0508 -26.1291 0
M  V30 26 H -16.7749 -42.369 -27.002 0
M  V30 27 H -15.5187 -39.5084 -24.3382 0
M  V30 28 H -14.4618 -40.8847 -24.1342 0
M  V30 29 H -17.444 -43.8641 -25.0779 0
M  V30 30 H -18.0936 -42.2454 -24.9725 0
M  V30 31 H -16.114 -41.0194 -22.4113 0
M  V30 32 H -17.4077 -40.7579 -23.5562 0
M  V30 33 H -13.4933 -42.3365 -22.6778 0
M  V30 34 H -12.4212 -41.6382 -20.5757 0
M  V30 35 H -13.5475 -42.0871 -18.467 0
M  V30 36 H -18.5032 -42.7949 -20.9598 0
M  V30 37 H -16.2118 -46.074 -19.4597 0
M  V30 38 H -20.1687 -44.7325 -20.3761 0
M  V30 39 H -18.7343 -46.7854 -19.4372 0
M  V30 END ATOM
M  V30 BEGIN BOND
M  V30 1 2 1 2
M  V30 2 1 2 3
M  V30 3 1 2 4
M  V30 4 1 3 5
M  V30 5 1 3 6
M  V30 6 1 5 7
M  V30 7 1 6 8
M  V30 8 1 7 9
M  V30 9 1 9 10
M  V30 10 2 10 11
M  V30 11 1 10 12
M  V30 12 2 12 13
M  V30 13 1 12 14
M  V30 14 1 13 15
M  V30 15 1 13 16
M  V30 16 2 14 17
M  V30 17 2 15 18
M  V30 18 1 16 19
M  V30 19 1 16 20
M  V30 20 2 19 21
M  V30 21 2 20 22
M  V30 22 1 8 9
M  V30 23 1 17 18
M  V30 24 1 21 22
M  V30 25 1 4 23
M  V30 26 1 4 24
M  V30 27 1 5 25
M  V30 28 1 5 26
M  V30 29 1 6 27
M  V30 30 1 6 28
M  V30 31 1 7 29
M  V30 32 1 7 30
M  V30 33 1 8 31
M  V30 34 1 8 32
M  V30 35 1 14 33
M  V30 36 1 17 34
M  V30 37 1 18 35
M  V30 38 1 19 36
M  V30 39 1 20 37
M  V30 40 1 21 38
M  V30 41 1 22 39
M  V30 END BOND
M  V30 END CTAB
M  END
>  <Molecule Name>
DF-RdRp-NP031

>  <BIOSOLVEIT.HYDE_ATOM_SCORES [kJ/mol]>
# Atom-ID; Total; Rec-Desolv; Rec-IA; Lig-Desolv; Lig-IA
1;-1.4492;0.0191;-1.8596;10.4409;-10.0497
2;-0.4589;0.0000;0.0000;-0.4589;0.0000
3;-0.0571;0.0000;0.0000;-0.0571;0.0000
4;-4.9904;-2.7509;0.0000;-2.2396;0.0000
5;3.5466;5.1687;0.0000;-1.6222;0.0000
6;0.0000;0.0000;0.0000;0.0000;0.0000
7;0.0000;0.0000;0.0000;0.0000;0.0000
8;8.5487;-1.8898;0.0000;10.4385;0.0000
9;-0.0962;0.0000;0.0000;-0.0962;0.0000
10;0.0000;0.0000;0.0000;0.0000;0.0000
11;0.0000;0.0000;0.0000;0.0000;0.0000
12;-0.0796;0.0000;0.0000;-0.0796;0.0000
13;-0.5774;0.0945;0.0000;-0.6720;0.0000
14;-0.1813;0.6085;0.0000;-0.7899;0.0000
15;0.0000;0.0000;0.0000;0.0000;0.0000
16;-0.1986;0.0000;0.0000;-0.1986;0.0000
17;-1.3078;-0.2200;0.0000;-1.0879;0.0000
18;-1.9974;-1.2653;0.0000;-0.7321;0.0000
19;0.0027;0.0027;0.0000;0.0000;0.0000
20;-0.3583;0.0000;0.0000;-0.3583;0.0000
21;-1.1144;-0.6191;0.0000;-0.4952;0.0000
22;1.5554;12.5182;-10.3918;7.8510;-8.4220

>  <BIOSOLVEIT.HYDE_ESTIMATED_AFFINITY_LOWER_BOUNDARY [nM]>
137784179.491977

>  <BIOSOLVEIT.HYDE_ESTIMATED_AFFINITY_UPPER_BOUNDARY [nM]>
13689672877.068989

>  <BIOSOLVEIT.HYDE_LIGAND_EFFICIENCY range: ++, +, 0, -, -->
--

>  <BIOSOLVEIT.HYDE_LIGAND_LIPOPHILIC_EFFICIENCY range: ++, +, 0, -, -->
--

>  <BIOSOLVEIT.INTER_CLASH range: red, yellow, green>
green

>  <BIOSOLVEIT.INTRA_CLASH range: red, yellow, green>
green

>  <BIOSOLVEIT.LOGP>
0.7088

>  <BIOSOLVEIT.MOLECULAR_WEIGHT>
299.332

>  <BIOSOLVEIT.MOLECULE_CHECKSUM>
MC43ODY1NDI7MA==

>  <BIOSOLVEIT.TORSION_QUALITY range: red, yellow, green, not rotatable>
green

>  <BIOSOLVEIT.TPSA>
84.46

>  <BIOSOLVEIT.OPTIBRIUM.2C9 pKi>
4.79208

>  <BIOSOLVEIT.OPTIBRIUM.2D6 affinity category>
low

>  <BIOSOLVEIT.OPTIBRIUM.BBB category>
-

>  <BIOSOLVEIT.OPTIBRIUM.BBB log([brain]:[blood])>
-0.774979

>  <BIOSOLVEIT.OPTIBRIUM.hERG pIC50>
4.35083

>  <BIOSOLVEIT.OPTIBRIUM.HIA category>
+

>  <BIOSOLVEIT.OPTIBRIUM.logD>
-0.0413231

>  <BIOSOLVEIT.OPTIBRIUM.logP>
-0.0413231

>  <BIOSOLVEIT.OPTIBRIUM.logS @ pH7.4>
3.40234

>  <BIOSOLVEIT.OPTIBRIUM.logS>
3.40234

>  <BIOSOLVEIT.OPTIBRIUM.P-gp category>
no

>  <BIOSOLVEIT.OPTIBRIUM.PPB90 category>
low

>  <Smiles>
NC(N(CC1)CCN1C(c1c(-[n]2cccc2)nccc1)=O)=O

$$$$
DF-RdRp-NP032
Actelion Java MolfileCreator 2.0

  0  0  0  0  0  0              0 V3000
M  V30 BEGIN CTAB
M  V30 COUNTS 35 38 0 0 0
M  V30 BEGIN ATOM
M  V30 1 N -15.2402 -44.692 -19.847 0
M  V30 2 C -15.8621 -44.3953 -20.9984 0
M  V30 3 C -14.1962 -43.9742 -19.4052 0
M  V30 4 N -16.9709 -45.2045 -21.4167 0
M  V30 5 C -15.4142 -43.3174 -21.7549 0
M  V30 6 C -13.7166 -42.886 -20.1278 0
M  V30 7 C -18.2964 -45.0113 -21.081 0
M  V30 8 C -16.8864 -46.3143 -22.2349 0
M  V30 9 C -14.3353 -42.5496 -21.3268 0
M  V30 10 C -19.032 -45.9868 -21.6822 0
M  V30 11 C -18.143 -46.8083 -22.4096 0
M  V30 12 C -13.8231 -41.39 -22.1002 0
M  V30 13 C -14.3264 -40.9265 -23.3576 0
M  V30 14 C -12.7929 -40.5819 -21.7373 0
M  V30 15 N -13.6294 -39.8827 -23.7367 0
M  V30 16 C -15.4595 -41.5307 -24.1149 0
M  V30 17 N -12.7008 -39.6675 -22.7642 0
M  V30 18 C -16.7759 -41.3473 -23.7068 0
M  V30 19 C -15.2634 -42.3008 -25.2566 0
M  V30 20 C -17.8239 -41.9186 -24.4227 0
M  V30 21 C -16.3409 -42.8515 -25.9423 0
M  V30 22 N -17.5997 -42.6565 -25.5211 0
M  V30 23 H -13.725 -44.2429 -18.483 0
M  V30 24 H -15.904 -43.0761 -22.6752 0
M  V30 25 H -12.8853 -42.3174 -19.7665 0
M  V30 26 H -18.6788 -44.2307 -20.457 0
M  V30 27 H -15.9894 -46.7159 -22.6578 0
M  V30 28 H -20.093 -46.109 -21.6152 0
M  V30 29 H -18.4092 -47.6648 -22.9931 0
M  V30 30 H -12.1903 -40.6418 -20.8551 0
M  V30 31 H -13.755 -39.3501 -24.5738 0
M  V30 32 H -16.9849 -40.7622 -22.8356 0
M  V30 33 H -14.269 -42.472 -25.6125 0
M  V30 34 H -18.8296 -41.7663 -24.0904 0
M  V30 35 H -16.1632 -43.4393 -26.8186 0
M  V30 END ATOM
M  V30 BEGIN BOND
M  V30 1 2 1 2
M  V30 2 1 1 3
M  V30 3 1 2 4
M  V30 4 1 2 5
M  V30 5 2 3 6
M  V30 6 1 4 7
M  V30 7 1 4 8
M  V30 8 2 5 9
M  V30 9 2 7 10
M  V30 10 2 8 11
M  V30 11 1 9 12
M  V30 12 2 12 13
M  V30 13 1 12 14
M  V30 14 1 13 15
M  V30 15 1 13 16
M  V30 16 2 14 17
M  V30 17 2 16 18
M  V30 18 1 16 19
M  V30 19 1 18 20
M  V30 20 2 19 21
M  V30 21 2 20 22
M  V30 22 1 6 9
M  V30 23 1 10 11
M  V30 24 1 15 17
M  V30 25 1 21 22
M  V30 26 1 3 23
M  V30 27 1 5 24
M  V30 28 1 6 25
M  V30 29 1 7 26
M  V30 30 1 8 27
M  V30 31 1 10 28
M  V30 32 1 11 29
M  V30 33 1 14 30
M  V30 34 1 15 31
M  V30 35 1 18 32
M  V30 36 1 19 33
M  V30 37 1 20 34
M  V30 38 1 21 35
M  V30 END BOND
M  V30 END CTAB
M  END
>  <Molecule Name>
DF-RdRp-NP032

>  <BIOSOLVEIT.HYDE_ATOM_SCORES [kJ/mol]>


>  <BIOSOLVEIT.HYDE_ESTIMATED_AFFINITY_LOWER_BOUNDARY [nM]>


>  <BIOSOLVEIT.HYDE_ESTIMATED_AFFINITY_UPPER_BOUNDARY [nM]>


>  <BIOSOLVEIT.HYDE_LIGAND_EFFICIENCY range: ++, +, 0, -, -->


>  <BIOSOLVEIT.HYDE_LIGAND_LIPOPHILIC_EFFICIENCY range: ++, +, 0, -, -->


>  <BIOSOLVEIT.INTER_CLASH range: red, yellow, green>
red

>  <BIOSOLVEIT.INTRA_CLASH range: red, yellow, green>
yellow

>  <BIOSOLVEIT.LOGP>
3.3244

>  <BIOSOLVEIT.MOLECULAR_WEIGHT>
287.325

>  <BIOSOLVEIT.MOLECULE_CHECKSUM>


>  <BIOSOLVEIT.TORSION_QUALITY range: red, yellow, green, not rotatable>
yellow

>  <BIOSOLVEIT.TPSA>
59.39

>  <BIOSOLVEIT.OPTIBRIUM.2C9 pKi>
5.35565

>  <BIOSOLVEIT.OPTIBRIUM.2D6 affinity category>
medium

>  <BIOSOLVEIT.OPTIBRIUM.BBB category>
-

>  <BIOSOLVEIT.OPTIBRIUM.BBB log([brain]:[blood])>
-0.601649

>  <BIOSOLVEIT.OPTIBRIUM.hERG pIC50>
4.03724

>  <BIOSOLVEIT.OPTIBRIUM.HIA category>
+

>  <BIOSOLVEIT.OPTIBRIUM.logD>
2.23982

>  <BIOSOLVEIT.OPTIBRIUM.logP>
2.23982

>  <BIOSOLVEIT.OPTIBRIUM.logS @ pH7.4>
1.78196

>  <BIOSOLVEIT.OPTIBRIUM.logS>
1.78196

>  <BIOSOLVEIT.OPTIBRIUM.P-gp category>
yes

>  <BIOSOLVEIT.OPTIBRIUM.PPB90 category>
low

>  <Smiles>
c(cc1)c[n]1-c1nccc(-c2c(-c3ccncc3)[nH]nc2)c1

$$$$
DF-RdRp-NP033
Actelion Java MolfileCreator 2.0

  0  0  0  0  0  0              0 V3000
M  V30 BEGIN CTAB
M  V30 COUNTS 39 42 0 0 0
M  V30 BEGIN ATOM
M  V30 1 N -14.5156 -43.0549 -19.6586 0
M  V30 2 C -14.929 -42.8109 -20.9112 0
M  V30 3 C -13.4135 -42.4764 -19.1582 0
M  V30 4 N -16.1196 -43.475 -21.3592 0
M  V30 5 C -14.2248 -41.9433 -21.7433 0
M  V30 6 C -12.6694 -41.601 -19.9437 0
M  V30 7 C -17.385 -42.9264 -21.4268 0
M  V30 8 C -16.1868 -44.7814 -21.803 0
M  V30 9 C -14.6506 -41.6458 -23.1368 0
M  V30 10 C -13.0787 -41.3321 -21.2462 0
M  V30 11 C -18.2332 -43.8768 -21.9079 0
M  V30 12 C -17.4778 -45.0462 -22.1453 0
M  V30 13 C -14.6088 -40.4238 -23.7374 0
M  V30 14 C -15.1701 -42.5986 -24.0743 0
M  V30 15 N -15.0925 -40.5971 -25.0213 0
M  V30 16 C -15.4349 -41.9225 -25.2287 0
M  V30 17 C -15.2226 -39.5273 -26.0209 0
M  V30 18 C -16.4697 -38.7003 -25.8271 0
M  V30 19 C -17.3593 -38.4711 -26.8622 0
M  V30 20 C -16.7529 -38.1008 -24.6123 0
M  V30 21 N -18.4498 -37.7001 -26.761 0
M  V30 22 C -17.8628 -37.2868 -24.4844 0
M  V30 23 C -18.6767 -37.1139 -25.5807 0
M  V30 24 H -13.1065 -42.6879 -18.1553 0
M  V30 25 H -11.7892 -41.1382 -19.549 0
M  V30 26 H -17.6525 -41.9284 -21.1493 0
M  V30 27 H -15.367 -45.466 -21.867 0
M  V30 28 H -12.516 -40.6606 -21.8604 0
M  V30 29 H -19.2832 -43.7588 -22.0761 0
M  V30 30 H -17.8525 -45.9734 -22.5254 0
M  V30 31 H -14.2681 -39.5083 -23.3007 0
M  V30 32 H -15.3215 -43.6435 -23.9006 0
M  V30 33 H -15.8341 -42.3398 -26.1294 0
M  V30 34 H -15.253 -39.97 -26.9946 0
M  V30 35 H -14.3705 -38.8846 -25.9478 0
M  V30 36 H -17.1633 -38.94 -27.8038 0
M  V30 37 H -16.1124 -38.2677 -23.7715 0
M  V30 38 H -18.0837 -36.803 -23.556 0
M  V30 39 H -19.5328 -36.4796 -25.4838 0
M  V30 END ATOM
M  V30 BEGIN BOND
M  V30 1 2 1 2
M  V30 2 1 1 3
M  V30 3 1 2 4
M  V30 4 1 2 5
M  V30 5 2 3 6
M  V30 6 1 4 7
M  V30 7 1 4 8
M  V30 8 1 5 9
M  V30 9 2 5 10
M  V30 10 2 7 11
M  V30 11 2 8 12
M  V30 12 2 9 13
M  V30 13 1 9 14
M  V30 14 1 13 15
M  V30 15 2 14 16
M  V30 16 1 15 17
M  V30 17 1 17 18
M  V30 18 2 18 19
M  V30 19 1 18 20
M  V30 20 1 19 21
M  V30 21 2 20 22
M  V30 22 2 21 23
M  V30 23 1 6 10
M  V30 24 1 11 12
M  V30 25 1 15 16
M  V30 26 1 22 23
M  V30 27 1 3 24
M  V30 28 1 6 25
M  V30 29 1 7 26
M  V30 30 1 8 27
M  V30 31 1 10 28
M  V30 32 1 11 29
M  V30 33 1 12 30
M  V30 34 1 13 31
M  V30 35 1 14 32
M  V30 36 1 16 33
M  V30 37 1 17 34
M  V30 38 1 17 35
M  V30 39 1 19 36
M  V30 40 1 20 37
M  V30 41 1 22 38
M  V30 42 1 23 39
M  V30 END BOND
M  V30 END CTAB
M  END
>  <Molecule Name>
DF-RdRp-NP033

>  <BIOSOLVEIT.HYDE_ATOM_SCORES [kJ/mol]>
# Atom-ID; Total; Rec-Desolv; Rec-IA; Lig-Desolv; Lig-IA
1;0.0000;0.0000;0.0000;0.0000;0.0000
2;0.0000;0.0000;0.0000;0.0000;0.0000
3;0.0000;0.0000;0.0000;0.0000;0.0000
4;-0.0794;0.0000;0.0000;-0.0794;0.0000
5;2.8068;3.3390;0.0000;-0.5322;0.0000
6;-1.1280;-0.4863;0.0000;-0.6417;0.0000
7;-1.9970;-1.1083;0.0000;-0.8887;0.0000
8;-0.0559;0.0000;0.0000;-0.0559;0.0000
9;-1.9159;-0.9715;0.0000;-0.9444;0.0000
10;-0.2641;0.3711;0.0000;-0.6352;0.0000
11;-0.3140;-0.0068;0.0000;-0.3071;0.0000
12;-0.2410;0.0000;0.0000;-0.2410;0.0000
13;-1.2538;-0.7384;0.0000;-0.5155;0.0000
14;-0.0270;0.0000;0.0000;-0.0270;0.0000
15;-2.8374;-1.6396;0.0000;-1.1977;0.0000
16;-2.0354;-1.1296;0.0000;-0.9058;0.0000
17;-2.3768;-0.6694;0.0000;-1.7074;0.0000
18;-0.7768;-0.5774;0.0000;-0.1995;0.0000
19;0.1857;1.8834;0.0000;-1.6977;0.0000
20;-5.5608;4.4437;-8.4287;6.8529;-8.4287
21;-1.5145;-0.4279;0.0000;-1.0866;0.0000
22;-0.9309;-0.4004;0.0000;-0.5305;0.0000
23;-0.9821;-0.4433;0.0000;-0.5388;0.0000

>  <BIOSOLVEIT.HYDE_ESTIMATED_AFFINITY_LOWER_BOUNDARY [nM]>
16968.953472

>  <BIOSOLVEIT.HYDE_ESTIMATED_AFFINITY_UPPER_BOUNDARY [nM]>
1685965.855804

>  <BIOSOLVEIT.HYDE_LIGAND_EFFICIENCY range: ++, +, 0, -, -->
-

>  <BIOSOLVEIT.HYDE_LIGAND_LIPOPHILIC_EFFICIENCY range: ++, +, 0, -, -->
--

>  <BIOSOLVEIT.INTER_CLASH range: red, yellow, green>
green

>  <BIOSOLVEIT.INTRA_CLASH range: red, yellow, green>
green

>  <BIOSOLVEIT.LOGP>
3.7841

>  <BIOSOLVEIT.MOLECULAR_WEIGHT>
300.363

>  <BIOSOLVEIT.MOLECULE_CHECKSUM>
LTIxLjUyOTI7MC45MzYwNTE=

>  <BIOSOLVEIT.TORSION_QUALITY range: red, yellow, green, not rotatable>
green

>  <BIOSOLVEIT.TPSA>
35.64

>  <BIOSOLVEIT.OPTIBRIUM.2C9 pKi>
5.68321

>  <BIOSOLVEIT.OPTIBRIUM.2D6 affinity category>
medium

>  <BIOSOLVEIT.OPTIBRIUM.BBB category>
+

>  <BIOSOLVEIT.OPTIBRIUM.BBB log([brain]:[blood])>
-0.236559

>  <BIOSOLVEIT.OPTIBRIUM.hERG pIC50>
4.84669

>  <BIOSOLVEIT.OPTIBRIUM.HIA category>
+

>  <BIOSOLVEIT.OPTIBRIUM.logD>
2.8824

>  <BIOSOLVEIT.OPTIBRIUM.logP>
2.8824

>  <BIOSOLVEIT.OPTIBRIUM.logS @ pH7.4>
1.46537

>  <BIOSOLVEIT.OPTIBRIUM.logS>
1.46537

>  <BIOSOLVEIT.OPTIBRIUM.P-gp category>
yes

>  <BIOSOLVEIT.OPTIBRIUM.PPB90 category>
low

>  <Smiles>
C(c1cnccc1)[n](cc1)cc1-c1cccnc1-[n]1cccc1

$$$$
DF-RdRp-NP034
Actelion Java MolfileCreator 2.0

  0  0  0  0  0  0              0 V3000
M  V30 BEGIN CTAB
M  V30 COUNTS 37 40 0 0 0
M  V30 BEGIN ATOM
M  V30 1 N -15.2659 -44.696 -19.7758 0
M  V30 2 C -15.8864 -44.4004 -20.9278 0
M  V30 3 C -14.2232 -43.9772 -19.3332 0
M  V30 4 N -16.9953 -45.2106 -21.3441 0
M  V30 5 C -15.4426 -43.3212 -21.6865 0
M  V30 6 C -13.7439 -42.8907 -20.058 0
M  V30 7 C -18.3207 -45.0167 -21.0087 0
M  V30 8 C -16.9108 -46.3222 -22.1598 0
M  V30 9 N -16.1256 -43.0268 -22.9137 0
M  V30 10 C -14.3621 -42.5533 -21.2576 0
M  V30 11 C -19.0564 -45.9936 -21.6075 0
M  V30 12 C -18.1674 -46.8167 -22.3333 0
M  V30 13 C -13.8483 -41.3932 -22.0305 0
M  V30 14 C -14.3505 -40.9287 -23.288 0
M  V30 15 C -12.8175 -40.5862 -21.6665 0
M  V30 16 N -13.6524 -39.8853 -23.6662 0
M  V30 17 C -15.4837 -41.5315 -24.0462 0
M  V30 18 N -12.724 -39.6715 -22.693 0
M  V30 19 C -16.8002 -41.3471 -23.6387 0
M  V30 20 C -15.2876 -42.3013 -25.1882 0
M  V30 21 C -17.8484 -41.9172 -24.3556 0
M  V30 22 C -16.3651 -42.8507 -25.8748 0
M  V30 23 N -17.6242 -42.6548 -25.4541 0
M  V30 24 H -13.7534 -44.2434 -18.4093 0
M  V30 25 H -12.9116 -42.3227 -19.6979 0
M  V30 26 H -18.7031 -44.2347 -20.3863 0
M  V30 27 H -16.0136 -46.7248 -22.582 0
M  V30 28 H -15.8283 -42.2574 -23.4793 0
M  V30 29 H -16.8988 -43.5909 -23.2034 0
M  V30 30 H -20.1172 -46.1157 -21.5402 0
M  V30 31 H -18.4336 -47.6746 -22.9148 0
M  V30 32 H -12.2155 -40.647 -20.784 0
M  V30 33 H -13.7769 -39.3523 -24.5031 0
M  V30 34 H -17.0093 -40.7624 -22.7673 0
M  V30 35 H -14.2931 -42.4732 -25.5437 0
M  V30 36 H -18.854 -41.7642 -24.0237 0
M  V30 37 H -16.1875 -43.4383 -26.7512 0
M  V30 END ATOM
M  V30 BEGIN BOND
M  V30 1 2 1 2
M  V30 2 1 1 3
M  V30 3 1 2 4
M  V30 4 1 2 5
M  V30 5 2 3 6
M  V30 6 1 4 7
M  V30 7 1 4 8
M  V30 8 1 5 9
M  V30 9 2 5 10
M  V30 10 2 7 11
M  V30 11 2 8 12
M  V30 12 1 10 13
M  V30 13 2 13 14
M  V30 14 1 13 15
M  V30 15 1 14 16
M  V30 16 1 14 17
M  V30 17 2 15 18
M  V30 18 2 17 19
M  V30 19 1 17 20
M  V30 20 1 19 21
M  V30 21 2 20 22
M  V30 22 2 21 23
M  V30 23 1 6 10
M  V30 24 1 11 12
M  V30 25 1 16 18
M  V30 26 1 22 23
M  V30 27 1 3 24
M  V30 28 1 6 25
M  V30 29 1 7 26
M  V30 30 1 8 27
M  V30 31 1 9 28
M  V30 32 1 9 29
M  V30 33 1 11 30
M  V30 34 1 12 31
M  V30 35 1 15 32
M  V30 36 1 16 33
M  V30 37 1 19 34
M  V30 38 1 20 35
M  V30 39 1 21 36
M  V30 40 1 22 37
M  V30 END BOND
M  V30 END CTAB
M  END
>  <Molecule Name>
DF-RdRp-NP034

>  <BIOSOLVEIT.HYDE_ATOM_SCORES [kJ/mol]>


>  <BIOSOLVEIT.HYDE_ESTIMATED_AFFINITY_LOWER_BOUNDARY [nM]>


>  <BIOSOLVEIT.HYDE_ESTIMATED_AFFINITY_UPPER_BOUNDARY [nM]>


>  <BIOSOLVEIT.HYDE_LIGAND_EFFICIENCY range: ++, +, 0, -, -->


>  <BIOSOLVEIT.HYDE_LIGAND_LIPOPHILIC_EFFICIENCY range: ++, +, 0, -, -->


>  <BIOSOLVEIT.INTER_CLASH range: red, yellow, green>
red

>  <BIOSOLVEIT.INTRA_CLASH range: red, yellow, green>
red

>  <BIOSOLVEIT.LOGP>
2.9066

>  <BIOSOLVEIT.MOLECULAR_WEIGHT>
302.34

>  <BIOSOLVEIT.MOLECULE_CHECKSUM>


>  <BIOSOLVEIT.TORSION_QUALITY range: red, yellow, green, not rotatable>
yellow

>  <BIOSOLVEIT.TPSA>
85.41

>  <BIOSOLVEIT.OPTIBRIUM.2C9 pKi>
5.46643

>  <BIOSOLVEIT.OPTIBRIUM.2D6 affinity category>
low

>  <BIOSOLVEIT.OPTIBRIUM.BBB category>
-

>  <BIOSOLVEIT.OPTIBRIUM.BBB log([brain]:[blood])>
-0.751182

>  <BIOSOLVEIT.OPTIBRIUM.hERG pIC50>
3.74758

>  <BIOSOLVEIT.OPTIBRIUM.HIA category>
+

>  <BIOSOLVEIT.OPTIBRIUM.logD>
1.81735

>  <BIOSOLVEIT.OPTIBRIUM.logP>
1.83234

>  <BIOSOLVEIT.OPTIBRIUM.logS @ pH7.4>
2.25732

>  <BIOSOLVEIT.OPTIBRIUM.logS>
1.68089

>  <BIOSOLVEIT.OPTIBRIUM.P-gp category>
yes

>  <BIOSOLVEIT.OPTIBRIUM.PPB90 category>
low

>  <Smiles>
Nc(c(-[n]1cccc1)ncc1)c1-c1c(-c2ccncc2)[nH]nc1

$$$$
DF-RdRp-NP035
Actelion Java MolfileCreator 2.0

  0  0  0  0  0  0              0 V3000
M  V30 BEGIN CTAB
M  V30 COUNTS 39 42 0 0 0
M  V30 BEGIN ATOM
M  V30 1 O -16.9141 -37.6346 -27.1525 0
M  V30 2 C -17.3648 -37.6805 -26.0035 0
M  V30 3 N -16.7752 -38.4892 -25.068 0
M  V30 4 N -18.4546 -36.9226 -25.6645 0
M  V30 5 C -15.605 -39.283 -25.4885 0
M  V30 6 C -17.3513 -38.5078 -23.7096 0
M  V30 7 C -15.4903 -40.6308 -24.7854 0
M  V30 8 C -17.236 -39.8583 -23.0108 0
M  V30 9 N -16.0662 -40.6547 -23.4275 0
M  V30 10 C -15.4509 -41.5051 -22.4487 0
M  V30 11 O -14.2942 -41.2528 -21.8338 0
M  V30 12 N -15.9466 -42.6457 -22.0297 0
M  V30 13 C -14.0327 -42.2532 -20.9883 0
M  V30 14 C -15.0634 -43.1528 -21.0951 0
M  V30 15 C -13.0091 -42.5523 -20.0943 0
M  V30 16 C -15.0549 -44.313 -20.3281 0
M  V30 17 C -13.0307 -43.7201 -19.3376 0
M  V30 18 N -14.0558 -44.5748 -19.473 0
M  V30 19 N -16.1376 -45.246 -20.4575 0
M  V30 20 C -17.482 -44.9619 -20.3202 0
M  V30 21 C -16.0037 -46.59 -20.7478 0
M  V30 22 C -18.1808 -46.1129 -20.5233 0
M  V30 23 C -17.2488 -47.1392 -20.7931 0
M  V30 24 H -18.8197 -36.9597 -24.7343 0
M  V30 25 H -18.8851 -36.3322 -26.3475 0
M  V30 26 H -14.7211 -38.7174 -25.2796 0
M  V30 27 H -15.6763 -39.4572 -26.5418 0
M  V30 28 H -18.3878 -38.2512 -23.7793 0
M  V30 29 H -16.842 -37.7766 -23.1172 0
M  V30 30 H -14.4534 -40.8853 -24.7148 0
M  V30 31 H -15.9978 -41.3628 -25.3781 0
M  V30 32 H -17.1672 -39.6863 -21.9568 0
M  V30 33 H -18.1199 -40.4229 -23.223 0
M  V30 34 H -12.1904 -41.872 -19.9867 0
M  V30 35 H -12.2363 -43.9345 -18.6536 0
M  V30 36 H -17.9017 -44.0041 -20.0936 0
M  V30 37 H -15.082 -47.109 -20.9091 0
M  V30 38 H -19.2447 -46.2204 -20.4854 0
M  V30 39 H -17.4797 -48.1641 -20.9965 0
M  V30 END ATOM
M  V30 BEGIN BOND
M  V30 1 2 1 2
M  V30 2 1 2 3
M  V30 3 1 2 4
M  V30 4 1 3 5
M  V30 5 1 3 6
M  V30 6 1 5 7
M  V30 7 1 6 8
M  V30 8 1 7 9
M  V30 9 1 9 10
M  V30 10 1 10 11
M  V30 11 2 10 12
M  V30 12 1 11 13
M  V30 13 1 12 14
M  V30 14 1 13 15
M  V30 15 1 14 16
M  V30 16 2 15 17
M  V30 17 2 16 18
M  V30 18 1 16 19
M  V30 19 1 19 20
M  V30 20 1 19 21
M  V30 21 2 20 22
M  V30 22 2 21 23
M  V30 23 1 8 9
M  V30 24 2 13 14
M  V30 25 1 17 18
M  V30 26 1 22 23
M  V30 27 1 4 24
M  V30 28 1 4 25
M  V30 29 1 5 26
M  V30 30 1 5 27
M  V30 31 1 6 28
M  V30 32 1 6 29
M  V30 33 1 7 30
M  V30 34 1 7 31
M  V30 35 1 8 32
M  V30 36 1 8 33
M  V30 37 1 15 34
M  V30 38 1 17 35
M  V30 39 1 20 36
M  V30 40 1 21 37
M  V30 41 1 22 38
M  V30 42 1 23 39
M  V30 END BOND
M  V30 END CTAB
M  END
>  <Molecule Name>
DF-RdRp-NP035

>  <BIOSOLVEIT.HYDE_ATOM_SCORES [kJ/mol]>
# Atom-ID; Total; Rec-Desolv; Rec-IA; Lig-Desolv; Lig-IA
1;15.3290;4.9464;0.0000;10.3825;0.0000
2;-2.8745;-2.0363;0.0000;-0.8382;0.0000
3;-0.0962;0.0000;0.0000;-0.0962;0.0000
4;-0.4698;0.6269;0.0000;-1.0967;0.0000
5;-1.7299;-0.8096;0.0000;-0.9203;0.0000
6;0.0000;0.0000;0.0000;0.0000;0.0000
7;0.0000;0.0000;0.0000;0.0000;0.0000
8;-0.7866;-0.5368;0.0000;-0.2498;0.0000
9;-0.1383;0.0000;0.0000;-0.1383;0.0000
10;0.0000;0.0000;0.0000;0.0000;0.0000
11;0.0000;0.0000;0.0000;0.0000;0.0000
12;-0.0807;0.0000;0.0000;-0.0807;0.0000
13;0.1463;-1.2395;0.0000;1.3858;0.0000
14;-1.7542;-0.7785;0.0000;-0.9757;0.0000
15;-0.9897;-0.1766;0.0000;-0.8130;0.0000
16;0.0000;0.0000;0.0000;0.0000;0.0000
17;0.0000;0.0000;0.0000;0.0000;0.0000
18;-2.0202;-1.2473;0.0000;-0.7729;0.0000
19;-0.7216;0.2357;0.0000;-0.9574;0.0000
20;-1.9905;-0.7507;0.0000;-1.2399;0.0000
21;-0.3374;0.2392;0.0000;-0.5765;0.0000
22;-0.5029;0.0000;0.0000;-0.5029;0.0000
23;0.3176;-0.8190;0.0000;1.1366;0.0000

>  <BIOSOLVEIT.HYDE_ESTIMATED_AFFINITY_LOWER_BOUNDARY [nM]>
169515459.434096

>  <BIOSOLVEIT.HYDE_ESTIMATED_AFFINITY_UPPER_BOUNDARY [nM]>
16842363149.493256

>  <BIOSOLVEIT.HYDE_LIGAND_EFFICIENCY range: ++, +, 0, -, -->
--

>  <BIOSOLVEIT.HYDE_LIGAND_LIPOPHILIC_EFFICIENCY range: ++, +, 0, -, -->
--

>  <BIOSOLVEIT.INTER_CLASH range: red, yellow, green>
green

>  <BIOSOLVEIT.INTRA_CLASH range: red, yellow, green>
green

>  <BIOSOLVEIT.LOGP>
1.2142

>  <BIOSOLVEIT.MOLECULAR_WEIGHT>
312.331

>  <BIOSOLVEIT.MOLECULE_CHECKSUM>
MS4zMDAzMjsw

>  <BIOSOLVEIT.TORSION_QUALITY range: red, yellow, green, not rotatable>
green

>  <BIOSOLVEIT.TPSA>
93.42

>  <BIOSOLVEIT.OPTIBRIUM.2C9 pKi>
5.38704

>  <BIOSOLVEIT.OPTIBRIUM.2D6 affinity category>
low

>  <BIOSOLVEIT.OPTIBRIUM.BBB category>
-

>  <BIOSOLVEIT.OPTIBRIUM.BBB log([brain]:[blood])>
-0.941833

>  <BIOSOLVEIT.OPTIBRIUM.hERG pIC50>
5.0885

>  <BIOSOLVEIT.OPTIBRIUM.HIA category>
+

>  <BIOSOLVEIT.OPTIBRIUM.logD>
1.23722

>  <BIOSOLVEIT.OPTIBRIUM.logP>
1.12595

>  <BIOSOLVEIT.OPTIBRIUM.logS @ pH7.4>
2.23417

>  <BIOSOLVEIT.OPTIBRIUM.logS>
2.73082

>  <BIOSOLVEIT.OPTIBRIUM.P-gp category>
yes

>  <BIOSOLVEIT.OPTIBRIUM.PPB90 category>
low

>  <Smiles>
NC(N(CC1)CCN1c1nc(c(-[n]2cccc2)ncc2)c2[o]1)=O

$$$$
DF-RdRp-NP036
Actelion Java MolfileCreator 2.0

  0  0  0  0  0  0              0 V3000
M  V30 BEGIN CTAB
M  V30 COUNTS 39 42 0 0 0
M  V30 BEGIN ATOM
M  V30 1 S -14.2378 -40.6885 -21.6599 0
M  V30 2 C -15.8139 -41.0349 -22.258 0
M  V30 3 C -14.0812 -42.1748 -20.8102 0
M  V30 4 N -16.1889 -42.2197 -21.8298 0
M  V30 5 N -16.5617 -40.1406 -23.0928 0
M  V30 6 C -15.2479 -42.8678 -21.0314 0
M  V30 7 C -12.9808 -42.5564 -20.0659 0
M  V30 8 C -16.7996 -40.536 -24.494 0
M  V30 9 C -17.0441 -38.8809 -22.4952 0
M  V30 10 C -15.2511 -44.1009 -20.3887 0
M  V30 11 C -13.1003 -43.7995 -19.4783 0
M  V30 12 C -16.8558 -39.3677 -25.4716 0
M  V30 13 C -17.0977 -37.7092 -23.4698 0
M  V30 14 N -14.2141 -44.5293 -19.6502 0
M  V30 15 N -16.4186 -44.9225 -20.5347 0
M  V30 16 N -17.3376 -38.1098 -24.87 0
M  V30 17 C -17.7086 -44.5403 -20.2081 0
M  V30 18 C -16.4284 -46.2172 -21.0243 0
M  V30 19 C -18.0552 -37.2572 -25.6665 0
M  V30 20 C -18.5325 -45.5908 -20.4905 0
M  V30 21 C -17.7208 -46.6552 -21.0075 0
M  V30 22 O -18.2783 -37.5536 -26.8447 0
M  V30 23 N -18.5257 -36.0759 -25.1567 0
M  V30 24 H -12.112 -41.9417 -19.9548 0
M  V30 25 H -17.7321 -41.0587 -24.5415 0
M  V30 26 H -16.0085 -41.1896 -24.7973 0
M  V30 27 H -16.3896 -38.6187 -21.6903 0
M  V30 28 H -18.0301 -39.0461 -22.1138 0
M  V30 29 H -12.2998 -44.1843 -18.8816 0
M  V30 30 H -17.5126 -39.631 -26.2742 0
M  V30 31 H -15.8711 -39.2022 -25.8562 0
M  V30 32 H -17.8872 -37.0537 -23.1665 0
M  V30 33 H -16.1641 -37.1884 -23.4232 0
M  V30 34 H -18.0054 -43.5937 -19.8073 0
M  V30 35 H -15.5767 -46.7737 -21.3561 0
M  V30 36 H -19.5932 -45.6162 -20.3514 0
M  V30 37 H -18.0662 -47.6177 -21.3225 0
M  V30 38 H -19.0497 -35.4536 -25.7383 0
M  V30 39 H -18.3452 -35.8358 -24.2029 0
M  V30 END ATOM
M  V30 BEGIN BOND
M  V30 1 1 1 2
M  V30 2 1 1 3
M  V30 3 2 2 4
M  V30 4 1 2 5
M  V30 5 2 3 6
M  V30 6 1 3 7
M  V30 7 1 5 8
M  V30 8 1 5 9
M  V30 9 1 6 10
M  V30 10 2 7 11
M  V30 11 1 8 12
M  V30 12 1 9 13
M  V30 13 2 10 14
M  V30 14 1 10 15
M  V30 15 1 12 16
M  V30 16 1 15 17
M  V30 17 1 15 18
M  V30 18 1 16 19
M  V30 19 2 17 20
M  V30 20 2 18 21
M  V30 21 2 19 22
M  V30 22 1 19 23
M  V30 23 1 4 6
M  V30 24 1 11 14
M  V30 25 1 13 16
M  V30 26 1 20 21
M  V30 27 1 7 24
M  V30 28 1 8 25
M  V30 29 1 8 26
M  V30 30 1 9 27
M  V30 31 1 9 28
M  V30 32 1 11 29
M  V30 33 1 12 30
M  V30 34 1 12 31
M  V30 35 1 13 32
M  V30 36 1 13 33
M  V30 37 1 17 34
M  V30 38 1 18 35
M  V30 39 1 20 36
M  V30 40 1 21 37
M  V30 41 1 23 38
M  V30 42 1 23 39
M  V30 END BOND
M  V30 END CTAB
M  END
>  <Molecule Name>
DF-RdRp-NP036

>  <BIOSOLVEIT.HYDE_ATOM_SCORES [kJ/mol]>
# Atom-ID; Total; Rec-Desolv; Rec-IA; Lig-Desolv; Lig-IA
1;-0.7780;-0.4397;0.0000;-0.3383;0.0000
2;-0.0514;0.0000;0.0000;-0.0514;0.0000
3;0.0000;0.0000;0.0000;0.0000;0.0000
4;0.0041;0.0000;0.0000;0.0041;0.0000
5;0.0000;0.0000;0.0000;0.0000;0.0000
6;0.0000;0.0000;0.0000;0.0000;0.0000
7;1.9525;2.5984;0.0000;-0.6460;0.0000
8;-2.2800;-1.2413;0.0000;-1.0388;0.0000
9;-0.0191;0.0000;0.0000;-0.0191;0.0000
10;-0.9666;-0.3818;0.0000;-0.5849;0.0000
11;-3.0844;5.9584;-8.4285;9.7854;-10.3998
12;-0.0858;-1.2172;0.0000;1.1314;0.0000
13;-1.3372;-0.5580;0.0000;-0.7793;0.0000
14;-0.1143;0.0000;0.0000;-0.1143;0.0000
15;-0.0180;0.0000;0.0000;-0.0180;0.0000
16;-1.1427;-1.2274;0.0000;0.0847;0.0000
17;-1.9776;-0.7701;0.0000;-1.2075;0.0000
18;-0.5975;0.2976;0.0000;-0.8951;0.0000
19;0.0000;0.0000;0.0000;0.0000;0.0000
20;0.0000;0.0000;0.0000;0.0000;0.0000
21;-2.9639;-2.0934;0.0000;-0.8705;0.0000
22;-0.4540;0.3359;0.0000;-0.7899;0.0000
23;-2.8711;-1.6712;0.0000;-1.1999;0.0000

>  <BIOSOLVEIT.HYDE_ESTIMATED_AFFINITY_LOWER_BOUNDARY [nM]>
107298.929690

>  <BIOSOLVEIT.HYDE_ESTIMATED_AFFINITY_UPPER_BOUNDARY [nM]>
10660783.066147

>  <BIOSOLVEIT.HYDE_LIGAND_EFFICIENCY range: ++, +, 0, -, -->
--

>  <BIOSOLVEIT.HYDE_LIGAND_LIPOPHILIC_EFFICIENCY range: ++, +, 0, -, -->
--

>  <BIOSOLVEIT.INTER_CLASH range: red, yellow, green>
green

>  <BIOSOLVEIT.INTRA_CLASH range: red, yellow, green>
green

>  <BIOSOLVEIT.LOGP>
1.6827

>  <BIOSOLVEIT.MOLECULAR_WEIGHT>
328.397

>  <BIOSOLVEIT.MOLECULE_CHECKSUM>
LTE2Ljk1NzQ7MC43MzcyNzg=

>  <BIOSOLVEIT.TORSION_QUALITY range: red, yellow, green, not rotatable>
green

>  <BIOSOLVEIT.TPSA>
80.28

>  <BIOSOLVEIT.OPTIBRIUM.2C9 pKi>
5.44742

>  <BIOSOLVEIT.OPTIBRIUM.2D6 affinity category>
low

>  <BIOSOLVEIT.OPTIBRIUM.BBB category>
-

>  <BIOSOLVEIT.OPTIBRIUM.BBB log([brain]:[blood])>
-1.09646

>  <BIOSOLVEIT.OPTIBRIUM.hERG pIC50>
5.23364

>  <BIOSOLVEIT.OPTIBRIUM.HIA category>
+

>  <BIOSOLVEIT.OPTIBRIUM.logD>
1.49735

>  <BIOSOLVEIT.OPTIBRIUM.logP>
1.51555

>  <BIOSOLVEIT.OPTIBRIUM.logS @ pH7.4>
1.21041

>  <BIOSOLVEIT.OPTIBRIUM.logS>
2.55412

>  <BIOSOLVEIT.OPTIBRIUM.P-gp category>
yes

>  <BIOSOLVEIT.OPTIBRIUM.PPB90 category>
low

>  <Smiles>
NC(N(CC1)CCN1c1nc(c(-[n]2cccc2)ncc2)c2[s]1)=O

$$$$
DF-RdRp-NP037
Actelion Java MolfileCreator 2.0

  0  0  0  0  0  0              0 V3000
M  V30 BEGIN CTAB
M  V30 COUNTS 40 43 0 0 0
M  V30 BEGIN ATOM
M  V30 1 N -15.3072 -44.5001 -19.0818 0
M  V30 2 C -15.8114 -44.1037 -20.259 0
M  V30 3 C -14.1091 -44.0107 -18.7204 0
M  V30 4 N -17.0384 -44.7274 -20.6055 0
M  V30 5 C -15.1538 -43.1897 -21.112 0
M  V30 6 C -13.3762 -43.1355 -19.4931 0
M  V30 7 C -18.2646 -44.5051 -20.0111 0
M  V30 8 C -17.2035 -45.6637 -21.6077 0
M  V30 9 N -15.762 -42.7189 -22.3234 0
M  V30 10 C -13.9081 -42.7227 -20.6971 0
M  V30 11 C -19.1858 -45.291 -20.6338 0
M  V30 12 C -18.5169 -46.0214 -21.6404 0
M  V30 13 C -16.1763 -41.3134 -22.4397 0
M  V30 14 C -15.0338 -40.4945 -23.0179 0
M  V30 15 C -14.7842 -40.2458 -24.3321 0
M  V30 16 C -13.9961 -39.8242 -22.2921 0
M  V30 17 N -13.6511 -39.4578 -24.4091 0
M  V30 18 C -15.5891 -40.7353 -25.4799 0
M  V30 19 N -13.1959 -39.2204 -23.1438 0
M  V30 20 C -15.8932 -42.0864 -25.6208 0
M  V30 21 C -16.0827 -39.8533 -26.4317 0
M  V30 22 C -16.6701 -42.4853 -26.6912 0
M  V30 23 C -16.8591 -40.3505 -27.4609 0
M  V30 24 N -17.1636 -41.6445 -27.6076 0
M  V30 25 H -13.701 -44.3176 -17.7801 0
M  V30 26 H -12.4192 -42.7853 -19.1673 0
M  V30 27 H -18.4575 -43.8324 -19.2017 0
M  V30 28 H -16.4336 -46.0419 -22.247 0
M  V30 29 H -15.9039 -43.347 -23.0885 0
M  V30 30 H -13.3619 -42.041 -21.315 0
M  V30 31 H -20.229 -45.3455 -20.4019 0
M  V30 32 H -18.962 -46.7286 -22.3086 0
M  V30 33 H -16.4317 -40.9356 -21.4719 0
M  V30 34 H -17.0269 -41.2447 -23.0853 0
M  V30 35 H -13.8892 -39.816 -21.2276 0
M  V30 36 H -12.3901 -38.6788 -22.9049 0
M  V30 37 H -15.5321 -42.8028 -24.9129 0
M  V30 38 H -15.8656 -38.8074 -26.3695 0
M  V30 39 H -16.89 -43.5273 -26.7934 0
M  V30 40 H -17.2395 -39.6591 -28.1835 0
M  V30 END ATOM
M  V30 BEGIN BOND
M  V30 1 2 1 2
M  V30 2 1 1 3
M  V30 3 1 2 4
M  V30 4 1 2 5
M  V30 5 2 3 6
M  V30 6 1 4 7
M  V30 7 1 4 8
M  V30 8 1 5 9
M  V30 9 2 5 10
M  V30 10 2 7 11
M  V30 11 2 8 12
M  V30 12 1 9 13
M  V30 13 1 13 14
M  V30 14 1 14 15
M  V30 15 2 14 16
M  V30 16 2 15 17
M  V30 17 1 15 18
M  V30 18 1 16 19
M  V30 19 2 18 20
M  V30 20 1 18 21
M  V30 21 1 20 22
M  V30 22 2 21 23
M  V30 23 2 22 24
M  V30 24 1 6 10
M  V30 25 1 11 12
M  V30 26 1 17 19
M  V30 27 1 23 24
M  V30 28 1 3 25
M  V30 29 1 6 26
M  V30 30 1 7 27
M  V30 31 1 8 28
M  V30 32 1 9 29
M  V30 33 1 10 30
M  V30 34 1 11 31
M  V30 35 1 12 32
M  V30 36 1 13 33
M  V30 37 1 13 34
M  V30 38 1 16 35
M  V30 39 1 19 36
M  V30 40 1 20 37
M  V30 41 1 21 38
M  V30 42 1 22 39
M  V30 43 1 23 40
M  V30 END BOND
M  V30 END CTAB
M  END
>  <Molecule Name>
DF-RdRp-NP037

>  <BIOSOLVEIT.HYDE_ATOM_SCORES [kJ/mol]>
# Atom-ID; Total; Rec-Desolv; Rec-IA; Lig-Desolv; Lig-IA
1;-0.0027;0.0000;0.0000;-0.0027;0.0000
2;-0.1579;0.0000;0.0000;-0.1579;0.0000
3;0.0000;0.0000;0.0000;0.0000;0.0000
4;-0.0422;0.0000;0.0000;-0.0422;0.0000
5;-2.8870;-1.6752;0.0000;-1.2118;0.0000
6;-1.1832;-0.4715;0.0000;-0.7117;0.0000
7;-2.0420;-1.3425;0.0000;-0.6995;0.0000
8;-0.0268;0.0000;0.0000;-0.0268;0.0000
9;1.5255;0.0000;0.0000;1.5255;0.0000
10;3.0018;3.1263;0.0000;-0.1245;0.0000
11;-0.0395;0.0000;0.0000;-0.0395;0.0000
12;-0.2056;0.0000;0.0000;-0.2056;0.0000
13;5.8265;0.3240;-0.1710;6.8283;-1.1549
14;-0.0937;0.0000;0.0000;-0.0937;0.0000
15;-0.2921;0.0000;0.0000;-0.2921;0.0000
16;-0.0254;0.0000;0.0000;-0.0254;0.0000
17;-2.0651;-1.3154;0.0000;-0.7497;0.0000
18;-2.3087;-0.5666;0.0000;-1.7421;0.0000
19;-5.9380;3.9297;-8.3468;6.8258;-8.3468
20;-0.9584;0.8049;0.0000;-1.7633;0.0000
21;-1.7191;-1.0662;0.0000;-0.6529;0.0000
22;-0.7173;0.0000;0.0000;-0.7173;0.0000
23;-1.1929;-0.5942;0.0000;-0.5986;0.0000
24;-1.2288;-0.4708;0.0000;-0.7580;0.0000

>  <BIOSOLVEIT.HYDE_ESTIMATED_AFFINITY_LOWER_BOUNDARY [nM]>
385740.787534

>  <BIOSOLVEIT.HYDE_ESTIMATED_AFFINITY_UPPER_BOUNDARY [nM]>
38325627.921517

>  <BIOSOLVEIT.HYDE_LIGAND_EFFICIENCY range: ++, +, 0, -, -->
--

>  <BIOSOLVEIT.HYDE_LIGAND_LIPOPHILIC_EFFICIENCY range: ++, +, 0, -, -->
--

>  <BIOSOLVEIT.INTER_CLASH range: red, yellow, green>
green

>  <BIOSOLVEIT.INTRA_CLASH range: red, yellow, green>
green

>  <BIOSOLVEIT.LOGP>
3.2695

>  <BIOSOLVEIT.MOLECULAR_WEIGHT>
316.366

>  <BIOSOLVEIT.MOLECULE_CHECKSUM>
LTEzLjc4NTU7MC41NzQzOTQ=

>  <BIOSOLVEIT.TORSION_QUALITY range: red, yellow, green, not rotatable>
green

>  <BIOSOLVEIT.TPSA>
71.42

>  <BIOSOLVEIT.OPTIBRIUM.2C9 pKi>
5.48718

>  <BIOSOLVEIT.OPTIBRIUM.2D6 affinity category>
low

>  <BIOSOLVEIT.OPTIBRIUM.BBB category>
-

>  <BIOSOLVEIT.OPTIBRIUM.BBB log([brain]:[blood])>
-0.949295

>  <BIOSOLVEIT.OPTIBRIUM.hERG pIC50>
4.44855

>  <BIOSOLVEIT.OPTIBRIUM.HIA category>
+

>  <BIOSOLVEIT.OPTIBRIUM.logD>
1.5464

>  <BIOSOLVEIT.OPTIBRIUM.logP>
1.76032

>  <BIOSOLVEIT.OPTIBRIUM.logS @ pH7.4>
2.01626

>  <BIOSOLVEIT.OPTIBRIUM.logS>
1.91

>  <BIOSOLVEIT.OPTIBRIUM.P-gp category>
yes

>  <BIOSOLVEIT.OPTIBRIUM.PPB90 category>
low

>  <Smiles>
C(c1c[nH]nc1-c1ccncc1)Nc1cccnc1-[n]1cccc1

$$$$
DF-RdRp-NP038
Actelion Java MolfileCreator 2.0

  0  0  0  0  0  0              0 V3000
M  V30 BEGIN CTAB
M  V30 COUNTS 40 43 0 0 0
M  V30 BEGIN ATOM
M  V30 1 N -15.4694 -44.2593 -18.5211 0
M  V30 2 C -15.7585 -44.1661 -19.8269 0
M  V30 3 C -14.2895 -43.7669 -18.1071 0
M  V30 4 N -16.9831 -44.7816 -20.1965 0
M  V30 5 C -14.8953 -43.5611 -20.7676 0
M  V30 6 C -13.3675 -43.1821 -18.949 0
M  V30 7 C -18.239 -44.2122 -20.1231 0
M  V30 8 C -17.114 -46.0618 -20.6991 0
M  V30 9 C -13.6783 -43.0787 -20.2892 0
M  V30 10 C -15.2966 -43.3895 -22.2236 0
M  V30 11 C -19.1441 -45.1237 -20.575 0
M  V30 12 C -18.4348 -46.2897 -20.9381 0
M  V30 13 N -15.7269 -42.0026 -22.4532 0
M  V30 14 C -14.7824 -41.0253 -22.9135 0
M  V30 15 C -14.6443 -40.5489 -24.1807 0
M  V30 16 C -13.7886 -40.3481 -22.134 0
M  V30 17 N -13.619 -39.6217 -24.1784 0
M  V30 18 C -15.4544 -40.9548 -25.3573 0
M  V30 19 N -13.1187 -39.525 -22.9114 0
M  V30 20 C -16.073 -42.2009 -25.4093 0
M  V30 21 C -15.6378 -40.0907 -26.4286 0
M  V30 22 C -16.8395 -42.5176 -26.5145 0
M  V30 23 C -16.4314 -40.4976 -27.4841 0
M  V30 24 N -17.0358 -41.6895 -27.5469 0
M  V30 25 H -14.0522 -43.8323 -17.0657 0
M  V30 26 H -12.4345 -42.8178 -18.5727 0
M  V30 27 H -18.462 -43.2261 -19.7723 0
M  V30 28 H -16.316 -46.7539 -20.8706 0
M  V30 29 H -12.9823 -42.6261 -20.9643 0
M  V30 30 H -16.1024 -44.0555 -22.4524 0
M  V30 31 H -14.4602 -43.6123 -22.8528 0
M  V30 32 H -20.2027 -44.9819 -20.6427 0
M  V30 33 H -18.8593 -47.1903 -21.3305 0
M  V30 34 H -16.6778 -41.7404 -22.2886 0
M  V30 35 H -13.6187 -40.4894 -21.087 0
M  V30 36 H -13.2969 -39.107 -24.9731 0
M  V30 37 H -15.9573 -42.9006 -24.608 0
M  V30 38 H -15.1731 -39.1268 -26.4366 0
M  V30 39 H -17.3029 -43.4815 -26.5466 0
M  V30 40 H -16.5707 -39.8193 -28.2998 0
M  V30 END ATOM
M  V30 BEGIN BOND
M  V30 1 2 1 2
M  V30 2 1 1 3
M  V30 3 1 2 4
M  V30 4 1 2 5
M  V30 5 2 3 6
M  V30 6 1 4 7
M  V30 7 1 4 8
M  V30 8 2 5 9
M  V30 9 1 5 10
M  V30 10 2 7 11
M  V30 11 2 8 12
M  V30 12 1 10 13
M  V30 13 1 13 14
M  V30 14 2 14 15
M  V30 15 1 14 16
M  V30 16 1 15 17
M  V30 17 1 15 18
M  V30 18 2 16 19
M  V30 19 2 18 20
M  V30 20 1 18 21
M  V30 21 1 20 22
M  V30 22 2 21 23
M  V30 23 2 22 24
M  V30 24 1 6 9
M  V30 25 1 11 12
M  V30 26 1 17 19
M  V30 27 1 23 24
M  V30 28 1 3 25
M  V30 29 1 6 26
M  V30 30 1 7 27
M  V30 31 1 8 28
M  V30 32 1 9 29
M  V30 33 1 10 30
M  V30 34 1 10 31
M  V30 35 1 11 32
M  V30 36 1 12 33
M  V30 37 1 13 34
M  V30 38 1 16 35
M  V30 39 1 17 36
M  V30 40 1 20 37
M  V30 41 1 21 38
M  V30 42 1 22 39
M  V30 43 1 23 40
M  V30 END BOND
M  V30 END CTAB
M  END
>  <Molecule Name>
DF-RdRp-NP038

>  <BIOSOLVEIT.HYDE_ATOM_SCORES [kJ/mol]>
# Atom-ID; Total; Rec-Desolv; Rec-IA; Lig-Desolv; Lig-IA
1;0.1971;0.1971;0.0000;0.0000;0.0000
2;-0.0171;0.0000;0.0000;-0.0171;0.0000
3;0.0000;0.0000;0.0000;0.0000;0.0000
4;0.0000;0.0000;0.0000;0.0000;0.0000
5;-2.8859;-1.7468;0.0000;-1.1391;0.0000
6;-1.0688;-0.2047;0.0000;-0.8642;0.0000
7;-1.6487;-1.0031;0.0000;-0.6457;0.0000
8;-1.3155;-1.0810;0.0000;-0.2345;0.0000
9;0.3153;1.2206;0.0000;-0.9053;0.0000
10;-1.2873;-0.7161;0.0000;-0.5712;0.0000
11;0.2126;0.8702;0.0000;-0.6577;0.0000
12;-2.0623;-1.1119;0.0000;-0.9504;0.0000
13;0.0067;0.0000;0.0000;0.0067;0.0000
14;-0.0406;0.0000;0.0000;-0.0406;0.0000
15;-0.2542;0.0000;0.0000;-0.2542;0.0000
16;-2.3377;0.7843;-1.8513;6.8377;-8.1084
17;-1.3573;-1.2358;0.0000;-0.1215;0.0000
18;-0.4832;0.0000;0.0000;-0.4832;0.0000
19;-0.2318;0.0000;0.0000;-0.2318;0.0000
20;-2.3194;-1.6025;0.0000;-0.7169;0.0000
21;0.7284;2.6275;0.0000;-1.8991;0.0000
22;-5.0525;3.9370;-7.9088;6.8281;-7.9088
23;-0.8038;0.8878;0.0000;-1.6916;0.0000
24;-1.9538;-1.1665;0.0000;-0.7874;0.0000

>  <BIOSOLVEIT.HYDE_ESTIMATED_AFFINITY_LOWER_BOUNDARY [nM]>
6480.179131

>  <BIOSOLVEIT.HYDE_ESTIMATED_AFFINITY_UPPER_BOUNDARY [nM]>
643844.110539

>  <BIOSOLVEIT.HYDE_LIGAND_EFFICIENCY range: ++, +, 0, -, -->
-

>  <BIOSOLVEIT.HYDE_LIGAND_LIPOPHILIC_EFFICIENCY range: ++, +, 0, -, -->
--

>  <BIOSOLVEIT.INTER_CLASH range: red, yellow, green>
green

>  <BIOSOLVEIT.INTRA_CLASH range: red, yellow, green>
green

>  <BIOSOLVEIT.LOGP>
3.2695

>  <BIOSOLVEIT.MOLECULAR_WEIGHT>
316.366

>  <BIOSOLVEIT.MOLECULE_CHECKSUM>
LTIzLjkxNTU7MC45OTY0OA==

>  <BIOSOLVEIT.TORSION_QUALITY range: red, yellow, green, not rotatable>
red

>  <BIOSOLVEIT.TPSA>
71.42

>  <BIOSOLVEIT.OPTIBRIUM.2C9 pKi>
5.48718

>  <BIOSOLVEIT.OPTIBRIUM.2D6 affinity category>
low

>  <BIOSOLVEIT.OPTIBRIUM.BBB category>
-

>  <BIOSOLVEIT.OPTIBRIUM.BBB log([brain]:[blood])>
-0.949302

>  <BIOSOLVEIT.OPTIBRIUM.hERG pIC50>
4.45319

>  <BIOSOLVEIT.OPTIBRIUM.HIA category>
+

>  <BIOSOLVEIT.OPTIBRIUM.logD>
1.60578

>  <BIOSOLVEIT.OPTIBRIUM.logP>
1.76029

>  <BIOSOLVEIT.OPTIBRIUM.logS @ pH7.4>
1.95348

>  <BIOSOLVEIT.OPTIBRIUM.logS>
1.91

>  <BIOSOLVEIT.OPTIBRIUM.P-gp category>
yes

>  <BIOSOLVEIT.OPTIBRIUM.PPB90 category>
low

>  <Smiles>
C(c1cccnc1-[n]1cccc1)Nc1c(-c2ccncc2)[nH]nc1

$$$$
DF-RdRp-NP039
Actelion Java MolfileCreator 2.0

  0  0  0  0  0  0              0 V3000
M  V30 BEGIN CTAB
M  V30 COUNTS 41 44 0 0 0
M  V30 BEGIN ATOM
M  V30 1 N -15.391 -44.3464 -18.7645 0
M  V30 2 C -15.6915 -44.1307 -20.0532 0
M  V30 3 C -14.2474 -43.8198 -18.2944 0
M  V30 4 N -16.8705 -44.7875 -20.493 0
M  V30 5 C -14.8774 -43.3659 -20.9183 0
M  V30 6 C -13.373 -43.0817 -19.0635 0
M  V30 7 C -18.1498 -44.268 -20.4772 0
M  V30 8 C -16.9254 -46.0644 -21.0176 0
M  V30 9 C -13.696 -42.8537 -20.3852 0
M  V30 10 C -15.2959 -43.0641 -22.3481 0
M  V30 11 C -18.9945 -45.2068 -20.9863 0
M  V30 12 C -18.2227 -46.3393 -21.327 0
M  V30 13 C -15.9059 -41.6734 -22.4147 0
M  V30 14 C -14.8795 -40.6956 -22.9631 0
M  V30 15 C -14.7259 -40.3055 -24.2579 0
M  V30 16 C -13.8723 -39.9932 -22.2243 0
M  V30 17 N -13.6787 -39.4046 -24.3105 0
M  V30 18 C -15.5414 -40.7675 -25.4098 0
M  V30 19 N -13.1803 -39.2381 -23.0498 0
M  V30 20 C -15.8665 -42.112 -25.5677 0
M  V30 21 C -16.0241 -39.8654 -26.3484 0
M  V30 22 C -16.6524 -42.4847 -26.6412 0
M  V30 23 C -16.811 -40.3369 -27.3819 0
M  V30 24 N -17.1356 -41.6245 -27.5447 0
M  V30 25 H -14.0019 -43.9823 -17.2656 0
M  V30 26 H -12.4667 -42.6955 -18.6457 0
M  V30 27 H -18.4289 -43.2964 -20.1259 0
M  V30 28 H -16.0934 -46.7227 -21.1564 0
M  V30 29 H -13.0367 -42.2811 -21.0035 0
M  V30 30 H -16.0179 -43.786 -22.6683 0
M  V30 31 H -14.4391 -43.1088 -22.9875 0
M  V30 32 H -20.0529 -45.1048 -21.1066 0
M  V30 33 H -18.5909 -47.2497 -21.752 0
M  V30 34 H -16.2021 -41.3664 -21.4332 0
M  V30 35 H -16.7618 -41.6896 -23.0568 0
M  V30 36 H -13.7094 -40.0705 -21.1694 0
M  V30 37 H -12.418 -38.6424 -22.7969 0
M  V30 38 H -15.5142 -42.8432 -24.8704 0
M  V30 39 H -15.7911 -38.8238 -26.2729 0
M  V30 40 H -16.8883 -43.5221 -26.7566 0
M  V30 41 H -17.1829 -39.6303 -28.0941 0
M  V30 END ATOM
M  V30 BEGIN BOND
M  V30 1 2 1 2
M  V30 2 1 1 3
M  V30 3 1 2 4
M  V30 4 1 2 5
M  V30 5 2 3 6
M  V30 6 1 4 7
M  V30 7 1 4 8
M  V30 8 2 5 9
M  V30 9 1 5 10
M  V30 10 2 7 11
M  V30 11 2 8 12
M  V30 12 1 10 13
M  V30 13 1 13 14
M  V30 14 1 14 15
M  V30 15 2 14 16
M  V30 16 2 15 17
M  V30 17 1 15 18
M  V30 18 1 16 19
M  V30 19 2 18 20
M  V30 20 1 18 21
M  V30 21 1 20 22
M  V30 22 2 21 23
M  V30 23 2 22 24
M  V30 24 1 6 9
M  V30 25 1 11 12
M  V30 26 1 17 19
M  V30 27 1 23 24
M  V30 28 1 3 25
M  V30 29 1 6 26
M  V30 30 1 7 27
M  V30 31 1 8 28
M  V30 32 1 9 29
M  V30 33 1 10 30
M  V30 34 1 10 31
M  V30 35 1 11 32
M  V30 36 1 12 33
M  V30 37 1 13 34
M  V30 38 1 13 35
M  V30 39 1 16 36
M  V30 40 1 19 37
M  V30 41 1 20 38
M  V30 42 1 21 39
M  V30 43 1 22 40
M  V30 44 1 23 41
M  V30 END BOND
M  V30 END CTAB
M  END
>  <Molecule Name>
DF-RdRp-NP039

>  <BIOSOLVEIT.HYDE_ATOM_SCORES [kJ/mol]>
# Atom-ID; Total; Rec-Desolv; Rec-IA; Lig-Desolv; Lig-IA
1;0.0189;0.0189;0.0000;0.0000;0.0000
2;-0.1411;0.0000;0.0000;-0.1411;0.0000
3;0.0000;0.0000;0.0000;0.0000;0.0000
4;0.0000;0.0000;0.0000;0.0000;0.0000
5;-3.2769;-2.1450;0.0000;-1.1318;0.0000
6;-0.1381;0.6657;0.0000;-0.8038;0.0000
7;-2.1741;-1.2994;0.0000;-0.8747;0.0000
8;-1.3191;-1.0987;0.0000;-0.2204;0.0000
9;0.0602;0.9655;0.0000;-0.9053;0.0000
10;-1.2342;-0.6723;0.0000;-0.5619;0.0000
11;0.0931;0.7476;0.0000;-0.6544;0.0000
12;-1.7616;-0.9602;0.0000;-0.8014;0.0000
13;0.0000;0.0000;0.0000;0.0000;0.0000
14;-0.0413;0.0000;0.0000;-0.0413;0.0000
15;-0.2775;0.0000;0.0000;-0.2775;0.0000
16;5.5381;-0.1972;-0.1499;6.8416;-0.9564
17;-0.1171;0.0000;0.0000;-0.1171;0.0000
18;-0.4139;0.0000;0.0000;-0.4139;0.0000
19;-0.0428;0.0000;0.0000;-0.0428;0.0000
20;-2.3326;-1.4172;0.0000;-0.9153;0.0000
21;0.9196;2.6863;0.0000;-1.7667;0.0000
22;-5.8295;3.9654;-8.3049;6.8149;-8.3049
23;-0.9082;0.8145;0.0000;-1.7227;0.0000
24;-1.7580;-1.0860;0.0000;-0.6720;0.0000

>  <BIOSOLVEIT.HYDE_ESTIMATED_AFFINITY_LOWER_BOUNDARY [nM]>
148650.276510

>  <BIOSOLVEIT.HYDE_ESTIMATED_AFFINITY_UPPER_BOUNDARY [nM]>
14769283.861219

>  <BIOSOLVEIT.HYDE_LIGAND_EFFICIENCY range: ++, +, 0, -, -->
--

>  <BIOSOLVEIT.HYDE_LIGAND_LIPOPHILIC_EFFICIENCY range: ++, +, 0, -, -->
--

>  <BIOSOLVEIT.INTER_CLASH range: red, yellow, green>
green

>  <BIOSOLVEIT.INTRA_CLASH range: red, yellow, green>
green

>  <BIOSOLVEIT.LOGP>
3.4426

>  <BIOSOLVEIT.MOLECULAR_WEIGHT>
315.378

>  <BIOSOLVEIT.MOLECULE_CHECKSUM>
LTE2LjE0OTM7MC42NzI4ODg=

>  <BIOSOLVEIT.TORSION_QUALITY range: red, yellow, green, not rotatable>
red

>  <BIOSOLVEIT.TPSA>
59.39

>  <BIOSOLVEIT.OPTIBRIUM.2C9 pKi>
5.63008

>  <BIOSOLVEIT.OPTIBRIUM.2D6 affinity category>
medium

>  <BIOSOLVEIT.OPTIBRIUM.BBB category>
-

>  <BIOSOLVEIT.OPTIBRIUM.BBB log([brain]:[blood])>
-0.801854

>  <BIOSOLVEIT.OPTIBRIUM.hERG pIC50>
4.44877

>  <BIOSOLVEIT.OPTIBRIUM.HIA category>
+

>  <BIOSOLVEIT.OPTIBRIUM.logD>
2.59068

>  <BIOSOLVEIT.OPTIBRIUM.logP>
2.59068

>  <BIOSOLVEIT.OPTIBRIUM.logS @ pH7.4>
1.84896

>  <BIOSOLVEIT.OPTIBRIUM.logS>
1.84896

>  <BIOSOLVEIT.OPTIBRIUM.P-gp category>
yes

>  <BIOSOLVEIT.OPTIBRIUM.PPB90 category>
low

>  <Smiles>
C(Cc1cccnc1-[n]1cccc1)c1c[nH]nc1-c1ccncc1

$$$$
DF-RdRp-NP040
Actelion Java MolfileCreator 2.0

  0  0  0  0  0  0              0 V3000
M  V30 BEGIN CTAB
M  V30 COUNTS 41 44 0 0 0
M  V30 BEGIN ATOM
M  V30 1 N -15.4318 -43.8245 -19.5192 0
M  V30 2 C -16.0879 -44.0361 -20.669 0
M  V30 3 C -14.1837 -43.332 -19.5952 0
M  V30 4 N -17.3655 -44.6334 -20.5079 0
M  V30 5 C -15.5363 -43.7469 -21.9372 0
M  V30 6 C -13.5473 -43.0422 -20.7834 0
M  V30 7 C -18.531 -43.9857 -20.1486 0
M  V30 8 C -17.6502 -45.9727 -20.6916 0
M  V30 9 N -16.2986 -43.9027 -23.143 0
M  V30 10 C -14.2342 -43.2507 -21.9615 0
M  V30 11 C -19.5327 -44.9074 -20.1092 0
M  V30 12 C -18.9775 -46.16 -20.4516 0
M  V30 13 C -16.1962 -42.9235 -24.1889 0
M  V30 14 C -15.7512 -41.6451 -24.0386 0
M  V30 15 C -16.5471 -43.1291 -25.564 0
M  V30 16 N -15.8188 -41.0554 -25.2873 0
M  V30 17 C -16.303 -41.9579 -26.2184 0
M  V30 18 C -15.4314 -39.6688 -25.5844 0
M  V30 19 C -16.6099 -38.7263 -25.5948 0
M  V30 20 C -17.3248 -38.4675 -26.7514 0
M  V30 21 C -16.9983 -38.0485 -24.4523 0
M  V30 22 N -18.3414 -37.5989 -26.8297 0
M  V30 23 C -18.0337 -37.1341 -24.5084 0
M  V30 24 C -18.6708 -36.9409 -25.713 0
M  V30 25 H -13.6541 -43.1549 -18.6823 0
M  V30 26 H -12.5459 -42.6648 -20.7917 0
M  V30 27 H -18.6298 -42.9413 -19.9378 0
M  V30 28 H -16.9498 -46.7308 -20.9735 0
M  V30 29 H -16.9009 -44.693 -23.2552 0
M  V30 30 H -13.7652 -43.0309 -22.8978 0
M  V30 31 H -20.5564 -44.7168 -19.863 0
M  V30 32 H -19.5048 -47.0891 -20.5117 0
M  V30 33 H -15.4151 -41.1868 -23.132 0
M  V30 34 H -16.9281 -44.0313 -25.9951 0
M  V30 35 H -16.4575 -41.7708 -27.2605 0
M  V30 36 H -14.963 -39.6424 -26.5461 0
M  V30 37 H -14.7366 -39.3402 -24.84 0
M  V30 38 H -17.0474 -38.995 -27.6401 0
M  V30 39 H -16.4968 -38.2322 -23.525 0
M  V30 40 H -18.3325 -36.5901 -23.6368 0
M  V30 41 H -19.4688 -36.2293 -25.7583 0
M  V30 END ATOM
M  V30 BEGIN BOND
M  V30 1 2 1 2
M  V30 2 1 1 3
M  V30 3 1 2 4
M  V30 4 1 2 5
M  V30 5 2 3 6
M  V30 6 1 4 7
M  V30 7 1 4 8
M  V30 8 1 5 9
M  V30 9 2 5 10
M  V30 10 2 7 11
M  V30 11 2 8 12
M  V30 12 1 9 13
M  V30 13 2 13 14
M  V30 14 1 13 15
M  V30 15 1 14 16
M  V30 16 2 15 17
M  V30 17 1 16 18
M  V30 18 1 18 19
M  V30 19 2 19 20
M  V30 20 1 19 21
M  V30 21 1 20 22
M  V30 22 2 21 23
M  V30 23 2 22 24
M  V30 24 1 6 10
M  V30 25 1 11 12
M  V30 26 1 16 17
M  V30 27 1 23 24
M  V30 28 1 3 25
M  V30 29 1 6 26
M  V30 30 1 7 27
M  V30 31 1 8 28
M  V30 32 1 9 29
M  V30 33 1 10 30
M  V30 34 1 11 31
M  V30 35 1 12 32
M  V30 36 1 14 33
M  V30 37 1 15 34
M  V30 38 1 17 35
M  V30 39 1 18 36
M  V30 40 1 18 37
M  V30 41 1 20 38
M  V30 42 1 21 39
M  V30 43 1 23 40
M  V30 44 1 24 41
M  V30 END BOND
M  V30 END CTAB
M  END
>  <Molecule Name>
DF-RdRp-NP040

>  <BIOSOLVEIT.HYDE_ATOM_SCORES [kJ/mol]>
# Atom-ID; Total; Rec-Desolv; Rec-IA; Lig-Desolv; Lig-IA
1;0.0000;0.0000;0.0000;0.0000;0.0000
2;-0.0352;0.0000;0.0000;-0.0352;0.0000
3;0.0000;0.0000;0.0000;0.0000;0.0000
4;0.0000;0.0000;0.0000;0.0000;0.0000
5;-2.1155;-1.0128;0.0000;-1.1027;0.0000
6;-1.5655;-0.3667;0.0000;-1.1988;0.0000
7;-0.3689;0.0080;0.0000;-0.3770;0.0000
8;-0.1779;0.0000;0.0000;-0.1779;0.0000
9;-1.9755;-1.9838;0.0000;0.0083;0.0000
10;6.9576;7.1138;0.0000;-0.1562;0.0000
11;-0.2810;0.0000;0.0000;-0.2810;0.0000
12;0.0000;0.0000;0.0000;0.0000;0.0000
13;-1.3005;0.3531;0.0000;-1.6536;0.0000
14;-3.3783;-1.5200;0.0000;-1.8583;0.0000
15;-1.9933;-0.7316;0.0000;-1.2618;0.0000
16;-0.1698;0.0000;0.0000;-0.1698;0.0000
17;-4.8831;-3.1176;0.0000;-1.7655;0.0000
18;-4.2508;5.7607;-8.4285;6.8456;-8.4285
19;-1.3712;-0.1940;0.0000;-1.1772;0.0000
20;-1.4829;-0.8838;0.0000;-0.5991;0.0000
21;-0.4877;0.0000;0.0000;-0.4877;0.0000
22;-2.9983;-1.8534;0.0000;-1.1449;0.0000
23;0.0250;1.0503;0.0000;-1.0253;0.0000
24;-0.4633;-0.1232;0.0000;-0.3401;0.0000

>  <BIOSOLVEIT.HYDE_ESTIMATED_AFFINITY_LOWER_BOUNDARY [nM]>
11254.373614

>  <BIOSOLVEIT.HYDE_ESTIMATED_AFFINITY_UPPER_BOUNDARY [nM]>
1118188.559655

>  <BIOSOLVEIT.HYDE_LIGAND_EFFICIENCY range: ++, +, 0, -, -->
-

>  <BIOSOLVEIT.HYDE_LIGAND_LIPOPHILIC_EFFICIENCY range: ++, +, 0, -, -->
--

>  <BIOSOLVEIT.INTER_CLASH range: red, yellow, green>
green

>  <BIOSOLVEIT.INTRA_CLASH range: red, yellow, green>
green

>  <BIOSOLVEIT.LOGP>
3.8607

>  <BIOSOLVEIT.MOLECULAR_WEIGHT>
315.378

>  <BIOSOLVEIT.MOLECULE_CHECKSUM>
LTIyLjU0NzE7MC45Mzk0NjM=

>  <BIOSOLVEIT.TORSION_QUALITY range: red, yellow, green, not rotatable>
red

>  <BIOSOLVEIT.TPSA>
47.67

>  <BIOSOLVEIT.OPTIBRIUM.2C9 pKi>
5.67834

>  <BIOSOLVEIT.OPTIBRIUM.2D6 affinity category>
medium

>  <BIOSOLVEIT.OPTIBRIUM.BBB category>
-

>  <BIOSOLVEIT.OPTIBRIUM.BBB log([brain]:[blood])>
0.0168788

>  <BIOSOLVEIT.OPTIBRIUM.hERG pIC50>
5.18939

>  <BIOSOLVEIT.OPTIBRIUM.HIA category>
+

>  <BIOSOLVEIT.OPTIBRIUM.logD>
2.59226

>  <BIOSOLVEIT.OPTIBRIUM.logP>
2.59226

>  <BIOSOLVEIT.OPTIBRIUM.logS @ pH7.4>
1.48868

>  <BIOSOLVEIT.OPTIBRIUM.logS>
1.48868

>  <BIOSOLVEIT.OPTIBRIUM.P-gp category>
yes

>  <BIOSOLVEIT.OPTIBRIUM.PPB90 category>
low

>  <Smiles>
C(c1cnccc1)[n](cc1)cc1Nc1cccnc1-[n]1cccc1

$$$$
DF-RdRp-NP041
Actelion Java MolfileCreator 2.0

  0  0  0  0  0  0              0 V3000
M  V30 BEGIN CTAB
M  V30 COUNTS 39 42 0 0 0
M  V30 BEGIN ATOM
M  V30 1 S -16.3978 -41.4629 -22.3739 0
M  V30 2 C -15.0487 -40.5114 -23.0259 0
M  V30 3 C -15.7041 -43.1346 -22.3534 0
M  V30 4 C -14.772 -40.2682 -24.3359 0
M  V30 5 C -14.0244 -39.8397 -22.282 0
M  V30 6 C -15.0776 -43.4066 -20.9955 0
M  V30 7 N -13.6361 -39.4824 -24.3932 0
M  V30 8 C -15.5545 -40.7611 -25.4979 0
M  V30 9 N -13.2062 -39.2406 -23.1198 0
M  V30 10 C -15.7469 -44.1642 -20.0087 0
M  V30 11 C -13.8376 -42.8728 -20.6491 0
M  V30 12 C -15.8998 -42.1048 -25.6146 0
M  V30 13 C -15.9856 -39.8888 -26.4883 0
M  V30 14 N -15.259 -44.3538 -18.7744 0
M  V30 15 N -16.9689 -44.8409 -20.2608 0
M  V30 16 C -13.3223 -43.0739 -19.3852 0
M  V30 17 C -16.6537 -42.506 -26.7007 0
M  V30 18 C -16.7439 -40.3872 -27.5306 0
M  V30 19 C -14.0659 -43.8071 -18.4849 0
M  V30 20 C -18.2388 -44.3303 -20.0773 0
M  V30 21 C -17.0834 -46.1315 -20.7402 0
M  V30 22 N -17.0873 -41.674 -27.6546 0
M  V30 23 C -19.1366 -45.2883 -20.4382 0
M  V30 24 C -18.4083 -46.4238 -20.8562 0
M  V30 25 H -14.9568 -43.22 -23.1146 0
M  V30 26 H -16.4823 -43.846 -22.5362 0
M  V30 27 H -13.9389 -39.8274 -21.2154 0
M  V30 28 H -12.4041 -38.6992 -22.8668 0
M  V30 29 H -13.283 -42.3046 -21.3663 0
M  V30 30 H -15.587 -42.8138 -24.8767 0
M  V30 31 H -15.7352 -38.8494 -26.4454 0
M  V30 32 H -12.3699 -42.6711 -19.1106 0
M  V30 33 H -16.9055 -43.5427 -26.7838 0
M  V30 34 H -17.0761 -39.7029 -28.2833 0
M  V30 35 H -13.6708 -43.9488 -17.5007 0
M  V30 36 H -18.4761 -43.3519 -19.7146 0
M  V30 37 H -16.2722 -46.7871 -20.9787 0
M  V30 38 H -20.2024 -45.1972 -20.4103 0
M  V30 39 H -18.8229 -47.3476 -21.202 0
M  V30 END ATOM
M  V30 BEGIN BOND
M  V30 1 1 1 2
M  V30 2 1 1 3
M  V30 3 1 2 4
M  V30 4 2 2 5
M  V30 5 1 3 6
M  V30 6 2 4 7
M  V30 7 1 4 8
M  V30 8 1 5 9
M  V30 9 2 6 10
M  V30 10 1 6 11
M  V30 11 2 8 12
M  V30 12 1 8 13
M  V30 13 1 10 14
M  V30 14 1 10 15
M  V30 15 2 11 16
M  V30 16 1 12 17
M  V30 17 2 13 18
M  V30 18 2 14 19
M  V30 19 1 15 20
M  V30 20 1 15 21
M  V30 21 2 17 22
M  V30 22 2 20 23
M  V30 23 2 21 24
M  V30 24 1 7 9
M  V30 25 1 16 19
M  V30 26 1 18 22
M  V30 27 1 23 24
M  V30 28 1 3 25
M  V30 29 1 3 26
M  V30 30 1 5 27
M  V30 31 1 9 28
M  V30 32 1 11 29
M  V30 33 1 12 30
M  V30 34 1 13 31
M  V30 35 1 16 32
M  V30 36 1 17 33
M  V30 37 1 18 34
M  V30 38 1 19 35
M  V30 39 1 20 36
M  V30 40 1 21 37
M  V30 41 1 23 38
M  V30 42 1 24 39
M  V30 END BOND
M  V30 END CTAB
M  END
>  <Molecule Name>
DF-RdRp-NP041

>  <BIOSOLVEIT.HYDE_ATOM_SCORES [kJ/mol]>
# Atom-ID; Total; Rec-Desolv; Rec-IA; Lig-Desolv; Lig-IA
1;4.4891;4.5926;0.0000;-0.1035;0.0000
2;0.0000;0.0000;0.0000;0.0000;0.0000
3;-0.2808;0.0000;0.0000;-0.2808;0.0000
4;5.7037;0.3166;-0.1842;6.8175;-1.2462
5;-0.0937;0.0000;0.0000;-0.0937;0.0000
6;-0.2179;0.0000;0.0000;-0.2179;0.0000
7;-0.0760;0.0000;0.0000;-0.0760;0.0000
8;-2.2069;-1.3705;0.0000;-0.8365;0.0000
9;-2.3289;-0.5961;0.0000;-1.7328;0.0000
10;-5.7793;3.9654;-8.2852;6.8258;-8.2852
11;-1.0002;0.8583;0.0000;-1.8585;0.0000
12;-1.8299;-1.1213;0.0000;-0.7086;0.0000
13;-1.0442;-0.5801;0.0000;-0.4641;0.0000
14;-0.1548;0.0000;0.0000;-0.1548;0.0000
15;-0.1410;0.0000;0.0000;-0.1410;0.0000
16;0.1092;0.1092;0.0000;0.0000;0.0000
17;-0.1348;0.5735;0.0000;-0.7084;0.0000
18;-1.2493;-0.6014;0.0000;-0.6479;0.0000
19;-1.2610;-0.3208;0.0000;-0.9402;0.0000
20;0.0000;0.0000;0.0000;0.0000;0.0000
21;0.0000;0.0000;0.0000;0.0000;0.0000
22;-2.9277;-1.7663;0.0000;-1.1613;0.0000
23;-0.9548;-0.0879;0.0000;-0.8670;0.0000
24;-1.4453;-0.8744;0.0000;-0.5709;0.0000

>  <BIOSOLVEIT.HYDE_ESTIMATED_AFFINITY_LOWER_BOUNDARY [nM]>
377643.871541

>  <BIOSOLVEIT.HYDE_ESTIMATED_AFFINITY_UPPER_BOUNDARY [nM]>
37521151.444890

>  <BIOSOLVEIT.HYDE_LIGAND_EFFICIENCY range: ++, +, 0, -, -->
--

>  <BIOSOLVEIT.HYDE_LIGAND_LIPOPHILIC_EFFICIENCY range: ++, +, 0, -, -->
--

>  <BIOSOLVEIT.INTER_CLASH range: red, yellow, green>
green

>  <BIOSOLVEIT.INTRA_CLASH range: red, yellow, green>
green

>  <BIOSOLVEIT.LOGP>
3.9497

>  <BIOSOLVEIT.MOLECULAR_WEIGHT>
333.417

>  <BIOSOLVEIT.MOLECULE_CHECKSUM>
LTEzLjgzODswLjU3NjU4NQ==

>  <BIOSOLVEIT.TORSION_QUALITY range: red, yellow, green, not rotatable>
yellow

>  <BIOSOLVEIT.TPSA>
59.39

>  <BIOSOLVEIT.OPTIBRIUM.2C9 pKi>
5.58276

>  <BIOSOLVEIT.OPTIBRIUM.2D6 affinity category>
medium

>  <BIOSOLVEIT.OPTIBRIUM.BBB category>
-

>  <BIOSOLVEIT.OPTIBRIUM.BBB log([brain]:[blood])>
-0.809662

>  <BIOSOLVEIT.OPTIBRIUM.hERG pIC50>
4.36357

>  <BIOSOLVEIT.OPTIBRIUM.HIA category>
+

>  <BIOSOLVEIT.OPTIBRIUM.logD>
2.50838

>  <BIOSOLVEIT.OPTIBRIUM.logP>
2.50838

>  <BIOSOLVEIT.OPTIBRIUM.logS @ pH7.4>
1.07702

>  <BIOSOLVEIT.OPTIBRIUM.logS>
1.07702

>  <BIOSOLVEIT.OPTIBRIUM.P-gp category>
yes

>  <BIOSOLVEIT.OPTIBRIUM.PPB90 category>
low

>  <Smiles>
C(c1c(-[n]2cccc2)nccc1)Sc1c[nH]nc1-c1ccncc1

$$$$
DF-RdRp-NP042
Actelion Java MolfileCreator 2.0

  0  0  0  0  0  0              0 V3000
M  V30 BEGIN CTAB
M  V30 COUNTS 39 42 0 0 0
M  V30 BEGIN ATOM
M  V30 1 S -15.4996 -43.4618 -22.2099 0
M  V30 2 C -14.8646 -43.4479 -20.5523 0
M  V30 3 C -16.1257 -41.7727 -22.3873 0
M  V30 4 C -15.7105 -43.6139 -19.433 0
M  V30 5 C -13.5143 -43.2181 -20.295 0
M  V30 6 C -15.0069 -40.8662 -22.8743 0
M  V30 7 N -15.2763 -43.5275 -18.1673 0
M  V30 8 N -17.085 -43.9468 -19.5546 0
M  V30 9 C -13.057 -43.1404 -18.9957 0
M  V30 10 C -14.7547 -40.4888 -24.1573 0
M  V30 11 C -13.9988 -40.2316 -22.0778 0
M  V30 12 C -13.968 -43.2909 -17.9718 0
M  V30 13 C -18.1502 -43.2072 -19.08 0
M  V30 14 C -17.5816 -45.0748 -20.1788 0
M  V30 15 N -13.6484 -39.6598 -24.1483 0
M  V30 16 C -15.5327 -40.8969 -25.3547 0
M  V30 17 N -13.2125 -39.5254 -22.861 0
M  V30 18 C -19.2987 -43.863 -19.404 0
M  V30 19 C -18.9403 -45.0404 -20.0967 0
M  V30 20 C -15.9257 -42.2195 -25.5407 0
M  V30 21 C -15.9117 -39.9635 -26.3102 0
M  V30 22 C -16.6731 -42.5405 -26.6574 0
M  V30 23 C -16.668 -40.3834 -27.3878 0
M  V30 24 N -17.057 -41.649 -27.5784 0
M  V30 25 H -16.4816 -41.423 -21.4407 0
M  V30 26 H -16.9273 -41.7621 -23.0959 0
M  V30 27 H -12.8292 -43.1015 -21.1088 0
M  V30 28 H -12.0218 -42.9676 -18.788 0
M  V30 29 H -13.9013 -40.3183 -21.0158 0
M  V30 30 H -13.6134 -43.2151 -16.9652 0
M  V30 31 H -18.0844 -42.28 -18.5499 0
M  V30 32 H -16.9997 -45.8421 -20.6455 0
M  V30 33 H -13.2359 -39.2298 -24.9513 0
M  V30 34 H -20.294 -43.5436 -19.1749 0
M  V30 35 H -19.615 -45.7734 -20.4869 0
M  V30 36 H -15.6538 -42.9734 -24.8318 0
M  V30 37 H -15.6235 -38.9376 -26.2138 0
M  V30 38 H -16.9619 -43.5618 -26.7938 0
M  V30 39 H -16.9599 -39.6525 -28.113 0
M  V30 END ATOM
M  V30 BEGIN BOND
M  V30 1 1 1 2
M  V30 2 1 1 3
M  V30 3 2 2 4
M  V30 4 1 2 5
M  V30 5 1 3 6
M  V30 6 1 4 7
M  V30 7 1 4 8
M  V30 8 2 5 9
M  V30 9 2 6 10
M  V30 10 1 6 11
M  V30 11 2 7 12
M  V30 12 1 8 13
M  V30 13 1 8 14
M  V30 14 1 10 15
M  V30 15 1 10 16
M  V30 16 2 11 17
M  V30 17 2 13 18
M  V30 18 2 14 19
M  V30 19 2 16 20
M  V30 20 1 16 21
M  V30 21 1 20 22
M  V30 22 2 21 23
M  V30 23 2 22 24
M  V30 24 1 9 12
M  V30 25 1 15 17
M  V30 26 1 18 19
M  V30 27 1 23 24
M  V30 28 1 3 25
M  V30 29 1 3 26
M  V30 30 1 5 27
M  V30 31 1 9 28
M  V30 32 1 11 29
M  V30 33 1 12 30
M  V30 34 1 13 31
M  V30 35 1 14 32
M  V30 36 1 15 33
M  V30 37 1 18 34
M  V30 38 1 19 35
M  V30 39 1 20 36
M  V30 40 1 21 37
M  V30 41 1 22 38
M  V30 42 1 23 39
M  V30 END BOND
M  V30 END CTAB
M  END
>  <Molecule Name>
DF-RdRp-NP042

>  <BIOSOLVEIT.HYDE_ATOM_SCORES [kJ/mol]>
# Atom-ID; Total; Rec-Desolv; Rec-IA; Lig-Desolv; Lig-IA
1;-0.4749;-0.6618;0.0000;0.1869;0.0000
2;-0.1066;0.0000;0.0000;-0.1066;0.0000
3;0.0000;0.0000;0.0000;0.0000;0.0000
4;-0.0216;0.0000;0.0000;-0.0216;0.0000
5;0.2405;0.8303;0.0000;-0.5898;0.0000
6;-1.3522;-0.6683;0.0000;-0.6840;0.0000
7;-1.0610;-0.0156;0.0000;-1.0454;0.0000
8;0.0000;0.0000;0.0000;0.0000;0.0000
9;0.0000;0.0000;0.0000;0.0000;0.0000
10;-1.4141;-0.6832;0.0000;-0.7309;0.0000
11;-2.7873;-1.9819;0.0000;-0.8054;0.0000
12;0.1954;0.1954;0.0000;0.0000;0.0000
13;3.7709;3.8124;0.0000;-0.0415;0.0000
14;-0.0455;0.0000;0.0000;-0.0455;0.0000
15;-0.2415;0.0000;0.0000;-0.2415;0.0000
16;-1.2817;-0.6269;-0.7673;6.8339;-6.7214
17;-0.1188;-0.0206;0.0000;-0.0982;0.0000
18;-0.3718;0.0000;0.0000;-0.3718;0.0000
19;-0.1337;0.0000;0.0000;-0.1337;0.0000
20;-2.3486;-1.4756;0.0000;-0.8730;0.0000
21;-2.5127;-0.6509;0.0000;-1.8618;0.0000
22;-5.8112;3.8910;-8.2597;6.8173;-8.2597
23;-0.7500;0.8644;0.0000;-1.6143;0.0000
24;-1.5549;-0.8912;0.0000;-0.6637;0.0000

>  <BIOSOLVEIT.HYDE_ESTIMATED_AFFINITY_LOWER_BOUNDARY [nM]>
59077.171149

>  <BIOSOLVEIT.HYDE_ESTIMATED_AFFINITY_UPPER_BOUNDARY [nM]>
5869666.245504

>  <BIOSOLVEIT.HYDE_LIGAND_EFFICIENCY range: ++, +, 0, -, -->
--

>  <BIOSOLVEIT.HYDE_LIGAND_LIPOPHILIC_EFFICIENCY range: ++, +, 0, -, -->
--

>  <BIOSOLVEIT.INTER_CLASH range: red, yellow, green>
green

>  <BIOSOLVEIT.INTRA_CLASH range: red, yellow, green>
green

>  <BIOSOLVEIT.LOGP>
3.9497

>  <BIOSOLVEIT.MOLECULAR_WEIGHT>
333.417

>  <BIOSOLVEIT.MOLECULE_CHECKSUM>
LTE4LjQzNjg7MC43NjgxOTk=

>  <BIOSOLVEIT.TORSION_QUALITY range: red, yellow, green, not rotatable>
green

>  <BIOSOLVEIT.TPSA>
59.39

>  <BIOSOLVEIT.OPTIBRIUM.2C9 pKi>
5.58276

>  <BIOSOLVEIT.OPTIBRIUM.2D6 affinity category>
medium

>  <BIOSOLVEIT.OPTIBRIUM.BBB category>
-

>  <BIOSOLVEIT.OPTIBRIUM.BBB log([brain]:[blood])>
-0.809655

>  <BIOSOLVEIT.OPTIBRIUM.hERG pIC50>
4.35903

>  <BIOSOLVEIT.OPTIBRIUM.HIA category>
+

>  <BIOSOLVEIT.OPTIBRIUM.logD>
2.50839

>  <BIOSOLVEIT.OPTIBRIUM.logP>
2.50839

>  <BIOSOLVEIT.OPTIBRIUM.logS @ pH7.4>
1.07702

>  <BIOSOLVEIT.OPTIBRIUM.logS>
1.07702

>  <BIOSOLVEIT.OPTIBRIUM.P-gp category>
yes

>  <BIOSOLVEIT.OPTIBRIUM.PPB90 category>
low

>  <Smiles>
C(c1c(-c2ccncc2)[nH]nc1)Sc1c(-[n]2cccc2)nccc1

$$$$
DF-RdRp-NP043
Actelion Java MolfileCreator 2.0

  0  0  0  0  0  0              0 V3000
M  V30 BEGIN CTAB
M  V30 COUNTS 39 42 0 0 0
M  V30 BEGIN ATOM
M  V30 1 O -15.5984 -42.015 -22.5372 0
M  V30 2 C -14.7052 -41.0552 -22.9833 0
M  V30 3 C -15.1621 -43.351 -22.3337 0
M  V30 4 C -14.5894 -40.565 -24.2476 0
M  V30 5 C -13.7113 -40.3718 -22.2097 0
M  V30 6 C -14.8083 -43.5509 -20.869 0
M  V30 7 N -13.5767 -39.6239 -24.249 0
M  V30 8 C -15.4081 -40.9709 -25.4181 0
M  V30 9 N -13.0623 -39.5324 -22.9871 0
M  V30 10 C -15.6956 -44.1872 -19.9723 0
M  V30 11 C -13.6146 -43.0654 -20.3384 0
M  V30 12 C -16.062 -42.1997 -25.4472 0
M  V30 13 C -15.5649 -40.1231 -26.5066 0
M  V30 14 N -15.4498 -44.3068 -18.6597 0
M  V30 15 N -16.8989 -44.8085 -20.3975 0
M  V30 16 C -13.3483 -43.1957 -18.9911 0
M  V30 17 C -16.8346 -42.5162 -26.5479 0
M  V30 18 C -16.3677 -40.5281 -27.5559 0
M  V30 19 C -14.291 -43.8101 -18.1947 0
M  V30 20 C -18.157 -44.2391 -20.3975 0
M  V30 21 C -17.0032 -46.0953 -20.889 0
M  V30 22 N -17.0055 -41.7033 -27.5967 0
M  V30 23 C -19.0372 -45.157 -20.8841 0
M  V30 24 C -18.3098 -46.3273 -21.194 0
M  V30 25 H -14.2995 -43.5404 -22.938 0
M  V30 26 H -15.9447 -44.0275 -22.6072 0
M  V30 27 H -13.5265 -40.5207 -21.1663 0
M  V30 28 H -13.2715 -39.0974 -25.0425 0
M  V30 29 H -12.9017 -42.5893 -20.9789 0
M  V30 30 H -15.9675 -42.8864 -24.632 0
M  V30 31 H -15.073 -39.1733 -26.5323 0
M  V30 32 H -12.4333 -42.8292 -18.5748 0
M  V30 33 H -17.3253 -43.467 -26.5624 0
M  V30 34 H -16.486 -39.8622 -28.3851 0
M  V30 35 H -14.0886 -43.8965 -17.1474 0
M  V30 36 H -18.3982 -43.2487 -20.0719 0
M  V30 37 H -16.1975 -46.7891 -21.0092 0
M  V30 38 H -20.0907 -45.0169 -21.0091 0
M  V30 39 H -18.713 -47.2332 -21.5961 0
M  V30 END ATOM
M  V30 BEGIN BOND
M  V30 1 1 1 2
M  V30 2 1 1 3
M  V30 3 2 2 4
M  V30 4 1 2 5
M  V30 5 1 3 6
M  V30 6 1 4 7
M  V30 7 1 4 8
M  V30 8 2 5 9
M  V30 9 2 6 10
M  V30 10 1 6 11
M  V30 11 2 8 12
M  V30 12 1 8 13
M  V30 13 1 10 14
M  V30 14 1 10 15
M  V30 15 2 11 16
M  V30 16 1 12 17
M  V30 17 2 13 18
M  V30 18 2 14 19
M  V30 19 1 15 20
M  V30 20 1 15 21
M  V30 21 2 17 22
M  V30 22 2 20 23
M  V30 23 2 21 24
M  V30 24 1 7 9
M  V30 25 1 16 19
M  V30 26 1 18 22
M  V30 27 1 23 24
M  V30 28 1 3 25
M  V30 29 1 3 26
M  V30 30 1 5 27
M  V30 31 1 7 28
M  V30 32 1 11 29
M  V30 33 1 12 30
M  V30 34 1 13 31
M  V30 35 1 16 32
M  V30 36 1 17 33
M  V30 37 1 18 34
M  V30 38 1 19 35
M  V30 39 1 20 36
M  V30 40 1 21 37
M  V30 41 1 23 38
M  V30 42 1 24 39
M  V30 END BOND
M  V30 END CTAB
M  END
>  <Molecule Name>
DF-RdRp-NP043

>  <BIOSOLVEIT.HYDE_ATOM_SCORES [kJ/mol]>
# Atom-ID; Total; Rec-Desolv; Rec-IA; Lig-Desolv; Lig-IA
1;0.0007;0.0000;0.0000;0.0007;0.0000
2;-0.0395;0.0000;0.0000;-0.0395;0.0000
3;-0.2735;0.0000;0.0000;-0.2735;0.0000
4;-2.4739;0.7842;-1.8765;6.8369;-8.2185
5;-1.4422;-1.3207;0.0000;-0.1215;0.0000
6;-0.4859;0.0000;0.0000;-0.4859;0.0000
7;-0.2209;0.0000;0.0000;-0.2209;0.0000
8;-2.2588;-1.6025;0.0000;-0.6563;0.0000
9;0.8823;2.7651;0.0000;-1.8827;0.0000
10;-4.8564;3.9830;-7.8338;6.8281;-7.8338
11;-0.7709;0.8878;0.0000;-1.6587;0.0000
12;-2.0154;-1.1665;0.0000;-0.8489;0.0000
13;-2.1601;-1.1508;0.0000;-1.0093;0.0000
14;-1.3991;-1.1550;0.0000;-0.2441;0.0000
15;-0.0621;0.0000;0.0000;-0.0621;0.0000
16;0.1032;0.1032;0.0000;0.0000;0.0000
17;0.2861;0.9065;0.0000;-0.6204;0.0000
18;-1.3053;-0.7114;0.0000;-0.5938;0.0000
19;0.3376;1.3895;0.0000;-1.0519;0.0000
20;0.0000;0.0000;0.0000;0.0000;0.0000
21;0.0000;0.0000;0.0000;0.0000;0.0000
22;-2.4823;-1.4027;0.0000;-1.0796;0.0000
23;-0.9903;-0.1854;0.0000;-0.8050;0.0000
24;-1.9276;-1.1353;0.0000;-0.7924;0.0000

>  <BIOSOLVEIT.HYDE_ESTIMATED_AFFINITY_LOWER_BOUNDARY [nM]>
6762.902756

>  <BIOSOLVEIT.HYDE_ESTIMATED_AFFINITY_UPPER_BOUNDARY [nM]>
671934.374256

>  <BIOSOLVEIT.HYDE_LIGAND_EFFICIENCY range: ++, +, 0, -, -->
-

>  <BIOSOLVEIT.HYDE_LIGAND_LIPOPHILIC_EFFICIENCY range: ++, +, 0, -, -->
--

>  <BIOSOLVEIT.INTER_CLASH range: red, yellow, green>
green

>  <BIOSOLVEIT.INTRA_CLASH range: red, yellow, green>
green

>  <BIOSOLVEIT.LOGP>
3.2364

>  <BIOSOLVEIT.MOLECULAR_WEIGHT>
317.351

>  <BIOSOLVEIT.MOLECULE_CHECKSUM>
LTIzLjgwOTY7MC45OTIwNjk=

>  <BIOSOLVEIT.TORSION_QUALITY range: red, yellow, green, not rotatable>
red

>  <BIOSOLVEIT.TPSA>
68.62

>  <BIOSOLVEIT.OPTIBRIUM.2C9 pKi>
5.53148

>  <BIOSOLVEIT.OPTIBRIUM.2D6 affinity category>
medium

>  <BIOSOLVEIT.OPTIBRIUM.BBB category>
-

>  <BIOSOLVEIT.OPTIBRIUM.BBB log([brain]:[blood])>
-0.93193

>  <BIOSOLVEIT.OPTIBRIUM.hERG pIC50>
4.29996

>  <BIOSOLVEIT.OPTIBRIUM.HIA category>
+

>  <BIOSOLVEIT.OPTIBRIUM.logD>
2.16654

>  <BIOSOLVEIT.OPTIBRIUM.logP>
2.16654

>  <BIOSOLVEIT.OPTIBRIUM.logS @ pH7.4>
1.63749

>  <BIOSOLVEIT.OPTIBRIUM.logS>
1.63749

>  <BIOSOLVEIT.OPTIBRIUM.P-gp category>
yes

>  <BIOSOLVEIT.OPTIBRIUM.PPB90 category>
low

>  <Smiles>
C(c1c(-[n]2cccc2)nccc1)Oc1c(-c2ccncc2)[nH]nc1

$$$$
DF-RdRp-NP044
Actelion Java MolfileCreator 2.0

  0  0  0  0  0  0              0 V3000
M  V30 BEGIN CTAB
M  V30 COUNTS 39 42 0 0 0
M  V30 BEGIN ATOM
M  V30 1 O -15.7593 -42.672 -22.3754 0
M  V30 2 C -15.1601 -43.2238 -21.2554 0
M  V30 3 C -16.1388 -41.3035 -22.3762 0
M  V30 4 C -15.7672 -44.2741 -20.5314 0
M  V30 5 C -13.9547 -42.7297 -20.7603 0
M  V30 6 C -15.019 -40.4676 -22.9743 0
M  V30 7 N -15.2546 -44.775 -19.3982 0
M  V30 8 N -16.9445 -44.9304 -20.9767 0
M  V30 9 C -13.4138 -43.2482 -19.6019 0
M  V30 10 C -14.7894 -40.2247 -24.2936 0
M  V30 11 C -13.9857 -39.7716 -22.2662 0
M  V30 12 C -14.0973 -44.2554 -18.9546 0
M  V30 13 C -18.1673 -44.3379 -21.2223 0
M  V30 14 C -17.0538 -46.2815 -21.2431 0
M  V30 15 N -13.6726 -39.4159 -24.3903 0
M  V30 16 C -15.5982 -40.739 -25.4279 0
M  V30 17 N -13.2073 -39.1596 -23.132 0
M  V30 18 C -19.0308 -45.3053 -21.6381 0
M  V30 19 C -18.3286 -46.5307 -21.6513 0
M  V30 20 C -15.9431 -42.0851 -25.5135 0
M  V30 21 C -16.0549 -39.8845 -26.4225 0
M  V30 22 C -16.7217 -42.5062 -26.5743 0
M  V30 23 C -16.8365 -40.402 -27.4377 0
M  V30 24 N -17.1799 -41.6915 -27.5316 0
M  V30 25 H -16.3248 -40.9844 -21.372 0
M  V30 26 H -17.027 -41.18 -22.96 0
M  V30 27 H -13.4465 -41.945 -21.2807 0
M  V30 28 H -12.4871 -42.878 -19.2156 0
M  V30 29 H -13.8666 -39.7527 -21.203 0
M  V30 30 H -13.6832 -44.6453 -18.0483 0
M  V30 31 H -18.3967 -43.2992 -21.1059 0
M  V30 32 H -16.2726 -47.0063 -21.1456 0
M  V30 33 H -12.4091 -38.6005 -22.907 0
M  V30 34 H -20.0567 -45.1628 -21.9066 0
M  V30 35 H -18.7269 -47.4834 -21.9317 0
M  V30 36 H -15.6111 -42.7807 -24.7713 0
M  V30 37 H -15.8057 -38.8441 -26.4032 0
M  V30 38 H -16.973 -43.5445 -26.6336 0
M  V30 39 H -17.1881 -39.7313 -28.1938 0
M  V30 END ATOM
M  V30 BEGIN BOND
M  V30 1 1 1 2
M  V30 2 1 1 3
M  V30 3 2 2 4
M  V30 4 1 2 5
M  V30 5 1 3 6
M  V30 6 1 4 7
M  V30 7 1 4 8
M  V30 8 2 5 9
M  V30 9 1 6 10
M  V30 10 2 6 11
M  V30 11 2 7 12
M  V30 12 1 8 13
M  V30 13 1 8 14
M  V30 14 2 10 15
M  V30 15 1 10 16
M  V30 16 1 11 17
M  V30 17 2 13 18
M  V30 18 2 14 19
M  V30 19 2 16 20
M  V30 20 1 16 21
M  V30 21 1 20 22
M  V30 22 2 21 23
M  V30 23 2 22 24
M  V30 24 1 9 12
M  V30 25 1 15 17
M  V30 26 1 18 19
M  V30 27 1 23 24
M  V30 28 1 3 25
M  V30 29 1 3 26
M  V30 30 1 5 27
M  V30 31 1 9 28
M  V30 32 1 11 29
M  V30 33 1 12 30
M  V30 34 1 13 31
M  V30 35 1 14 32
M  V30 36 1 17 33
M  V30 37 1 18 34
M  V30 38 1 19 35
M  V30 39 1 20 36
M  V30 40 1 21 37
M  V30 41 1 22 38
M  V30 42 1 23 39
M  V30 END BOND
M  V30 END CTAB
M  END
>  <Molecule Name>
DF-RdRp-NP044

>  <BIOSOLVEIT.HYDE_ATOM_SCORES [kJ/mol]>
# Atom-ID; Total; Rec-Desolv; Rec-IA; Lig-Desolv; Lig-IA
1;0.5290;0.0000;0.0000;0.5290;0.0000
2;-0.0091;0.0000;0.0000;-0.0091;0.0000
3;-0.1967;0.0000;0.0000;-0.1967;0.0000
4;-0.0449;0.0000;0.0000;-0.0449;0.0000
5;-1.9322;-0.9995;0.0000;-0.9327;0.0000
6;-1.3098;-0.6130;0.0000;-0.6967;0.0000
7;-0.6074;0.1385;0.0000;-0.7459;0.0000
8;0.0000;0.0000;0.0000;0.0000;0.0000
9;3.2098;3.3446;0.0000;-0.1348;0.0000
10;-2.2998;-1.3320;0.0000;-0.9679;0.0000
11;-0.5643;0.4365;0.0000;-1.0008;0.0000
12;-2.4673;-1.5223;0.0000;-0.9450;0.0000
13;-0.1407;0.0000;0.0000;-0.1407;0.0000
14;0.0000;0.0000;0.0000;0.0000;0.0000
15;-0.2734;0.0000;0.0000;-0.2734;0.0000
16;5.8743;0.3061;-0.1656;6.8109;-1.0770
17;-0.1001;0.0000;0.0000;-0.1001;0.0000
18;-0.2866;0.0000;0.0000;-0.2866;0.0000
19;-0.0760;0.0000;0.0000;-0.0760;0.0000
20;-2.4397;-1.7214;0.0000;-0.7183;0.0000
21;-2.3230;-0.5896;0.0000;-1.7335;0.0000
22;-5.7146;3.8910;-8.2114;6.8173;-8.2114
23;-0.9938;0.8234;0.0000;-1.8172;0.0000
24;-1.7898;-1.1213;0.0000;-0.6684;0.0000

>  <BIOSOLVEIT.HYDE_ESTIMATED_AFFINITY_LOWER_BOUNDARY [nM]>
236512.602462

>  <BIOSOLVEIT.HYDE_ESTIMATED_AFFINITY_UPPER_BOUNDARY [nM]>
23498925.427766

>  <BIOSOLVEIT.HYDE_LIGAND_EFFICIENCY range: ++, +, 0, -, -->
--

>  <BIOSOLVEIT.HYDE_LIGAND_LIPOPHILIC_EFFICIENCY range: ++, +, 0, -, -->
--

>  <BIOSOLVEIT.INTER_CLASH range: red, yellow, green>
green

>  <BIOSOLVEIT.INTRA_CLASH range: red, yellow, green>
green

>  <BIOSOLVEIT.LOGP>
3.2364

>  <BIOSOLVEIT.MOLECULAR_WEIGHT>
317.351

>  <BIOSOLVEIT.MOLECULE_CHECKSUM>
LTE0Ljk5ODE7MC42MjQ5Mg==

>  <BIOSOLVEIT.TORSION_QUALITY range: red, yellow, green, not rotatable>
yellow

>  <BIOSOLVEIT.TPSA>
68.62

>  <BIOSOLVEIT.OPTIBRIUM.2C9 pKi>
5.54088

>  <BIOSOLVEIT.OPTIBRIUM.2D6 affinity category>
medium

>  <BIOSOLVEIT.OPTIBRIUM.BBB category>
-

>  <BIOSOLVEIT.OPTIBRIUM.BBB log([brain]:[blood])>
-0.93193

>  <BIOSOLVEIT.OPTIBRIUM.hERG pIC50>
4.31176

>  <BIOSOLVEIT.OPTIBRIUM.HIA category>
+

>  <BIOSOLVEIT.OPTIBRIUM.logD>
2.16654

>  <BIOSOLVEIT.OPTIBRIUM.logP>
2.16654

>  <BIOSOLVEIT.OPTIBRIUM.logS @ pH7.4>
1.63749

>  <BIOSOLVEIT.OPTIBRIUM.logS>
1.63749

>  <BIOSOLVEIT.OPTIBRIUM.P-gp category>
yes

>  <BIOSOLVEIT.OPTIBRIUM.PPB90 category>
low

>  <Smiles>
C(c1c[nH]nc1-c1ccncc1)Oc1c(-[n]2cccc2)nccc1

$$$$
