Zika_NS5A-x0384_A_1112_1_Zika_NS5A-x0351+A+1112+1
     RDKit          3D

 11 11  0  0  0  0  0  0  0  0999 V2000
  -26.1330  -30.9650  -22.6040 O   0  0  0  0  0  0  0  0  0  0  0  0
  -26.3470  -30.8210  -21.4090 C   0  0  0  0  0  0  0  0  0  0  0  0
  -25.2710  -31.1060  -20.3880 C   0  0  0  0  0  0  0  0  0  0  0  0
  -23.9460  -31.5700  -21.0010 C   0  0  0  0  0  0  0  0  0  0  0  0
  -27.5950  -30.4510  -20.9770 N   0  0  0  0  0  0  0  0  0  0  0  0
  -27.9590  -30.2470  -19.6650 C   0  0  0  0  0  0  0  0  0  0  0  0
  -29.5920  -29.8580  -19.2640 S   0  0  0  0  0  0  0  0  0  0  0  0
  -29.1260  -29.8320  -17.6060 C   0  0  0  0  0  0  0  0  0  0  0  0
  -27.8110  -30.1120  -17.4610 C   0  0  0  0  0  0  0  0  0  0  0  0
  -27.1350  -30.3400  -18.6510 N   0  0  0  0  0  0  0  0  0  0  0  0
  -27.0710  -30.2360  -16.1650 C   0  0  0  0  0  0  0  0  0  0  0  0
  4  3  1  0
  3  2  1  0
  2  1  2  0
  5  2  1  0
  6  5  1  0
  6 10  2  0
 10  9  1  0
 11  9  1  0
  9  8  2  0
  8  7  1  0
  7  6  1  0
M  END
$$$$

