DNV2_NS5A-x0174_A_1608_1_DNV2_NS5A-x0249+A+1707+1
     RDKit          3D

 16 17  0  0  0  0  0  0  0  0999 V2000
  -14.5260  -69.9790  -19.0550 O   0  0  0  0  0  0  0  0  0  0  0  0
  -13.8380  -69.6370  -20.2620 S   0  0  0  0  0  0  0  0  0  0  0  0
  -13.0170  -68.4660  -20.2910 O   0  0  0  0  0  0  0  0  0  0  0  0
  -15.0450  -69.4890  -21.5600 C   0  0  0  0  0  0  0  0  0  0  0  0
  -14.4150  -69.4670  -22.9280 C   0  0  0  0  0  0  0  0  0  0  0  0
  -12.8600  -70.9160  -20.6410 N   0  0  0  0  0  0  0  0  0  0  0  0
  -11.5650  -70.7230  -21.3130 C   0  0  0  0  0  0  0  0  0  0  0  0
  -10.3650  -70.9940  -20.4370 C   0  0  0  0  0  0  0  0  0  0  0  0
   -9.0840  -70.7120  -20.9060 C   0  0  0  0  0  0  0  0  0  0  0  0
   -8.0010  -70.9900  -20.0990 C   0  0  0  0  0  0  0  0  0  0  0  0
   -6.6650  -70.7580  -20.3430 O   0  0  0  0  0  0  0  0  0  0  0  0
   -6.0100  -71.0190  -19.0990 C   0  0  0  0  0  0  0  0  0  0  0  0
   -6.9370  -71.6950  -18.2470 O   0  0  0  0  0  0  0  0  0  0  0  0
   -8.1640  -71.5420  -18.8550 C   0  0  0  0  0  0  0  0  0  0  0  0
   -9.4190  -71.8390  -18.3620 C   0  0  0  0  0  0  0  0  0  0  0  0
  -10.5140  -71.5510  -19.1640 C   0  0  0  0  0  0  0  0  0  0  0  0
  5  4  1  0
  4  2  1  0
  3  2  2  0
  2  1  2  0
  6  2  1  0
  7  6  1  0
  8  7  1  0
  8 16  2  0
 16 15  1  0
 15 14  2  0
 14 13  1  0
 13 12  1  0
 12 11  1  0
 11 10  1  0
 14 10  1  0
 10  9  2  0
  9  8  1  0
M  END
$$$$

