Zika_NS5A-x0264_A_1101_1_Zika_NS5A-x0041+A+1112+1
     RDKit          3D

 16 17  0  0  0  0  0  0  0  0999 V2000
  -39.3040  -17.0160  -24.1310 F   0  0  0  0  0  0  0  0  0  0  0  0
  -38.2670  -16.3000  -24.6330 C   0  0  0  0  0  0  0  0  0  0  0  0
  -38.4320  -14.9570  -24.8210 C   0  0  0  0  0  0  0  0  0  0  0  0
  -37.3620  -14.2240  -25.2990 C   0  0  0  0  0  0  0  0  0  0  0  0
  -37.0970  -16.9530  -24.9060 C   0  0  0  0  0  0  0  0  0  0  0  0
  -36.0240  -16.2160  -25.3700 C   0  0  0  0  0  0  0  0  0  0  0  0
  -36.1390  -14.8400  -25.5720 C   0  0  0  0  0  0  0  0  0  0  0  0
  -35.0590  -14.0940  -26.0160 N   0  0  0  0  0  0  0  0  0  0  0  0
  -33.9210  -14.8170  -26.5870 C   0  0  0  0  0  0  0  0  0  0  0  0
  -32.9950  -13.8760  -27.2900 C   0  0  0  0  0  0  0  0  0  0  0  0
  -34.6740  -12.9870  -25.1330 C   0  0  0  0  0  0  0  0  0  0  0  0
  -33.6570  -12.0650  -25.7810 C   0  0  0  0  0  0  0  0  0  0  0  0
  -32.5480  -12.8390  -26.3550 N   0  0  0  0  0  0  0  0  0  0  0  0
  -31.4070  -12.1560  -26.7880 C   0  0  0  0  0  0  0  0  0  0  0  0
  -31.3960  -10.9160  -26.7410 O   0  0  0  0  0  0  0  0  0  0  0  0
  -30.3880  -12.8990  -27.2450 N   0  0  0  0  0  0  0  0  0  0  0  0
 16 14  1  0
 15 14  2  0
 14 13  1  0
 13 10  1  0
 10  9  1  0
  9  8  1  0
 11  8  1  0
 12 11  1  0
 13 12  1  0
  8  7  1  0
  7  4  2  0
  4  3  1  0
  3  2  2  0
  2  1  1  0
  5  2  1  0
  6  5  2  0
  7  6  1  0
M  END
$$$$

