Zika_NS5A-x0927_A_1201_1_Zika_NS5A-x0927+A+1201+1
     RDKit          3D

 11 11  0  0  0  0  0  0  0  0999 V2000
  -27.1980  -46.5340  -41.9810 F   0  0  0  0  0  0  0  0  0  0  0  0
  -26.1850  -47.2080  -41.5300 C   0  0  0  0  0  0  0  0  0  0  0  0
  -25.7360  -46.6100  -40.4240 F   0  0  0  0  0  0  0  0  0  0  0  0
  -26.7250  -48.3450  -41.1780 F   0  0  0  0  0  0  0  0  0  0  0  0
  -25.1190  -47.4320  -42.5600 C   0  0  0  0  0  0  0  0  0  0  0  0
  -24.6120  -46.4150  -43.2580 N   0  0  0  0  0  0  0  0  0  0  0  0
  -24.5560  -48.6460  -42.9350 C   0  0  0  0  0  0  0  0  0  0  0  0
  -23.6410  -48.3500  -43.8900 C   0  0  0  0  0  0  0  0  0  0  0  0
  -22.8090  -49.0900  -44.5280 O   0  0  0  0  0  0  0  0  0  0  0  0
  -23.6690  -47.0230  -44.0830 N   0  0  0  0  0  0  0  0  0  0  0  0
  -22.8060  -46.2360  -44.9430 C   0  0  0  0  0  0  0  0  0  0  0  0
 11 10  1  0
 10  6  1  0
  6  5  2  0
  7  5  1  0
  8  7  2  0
 10  8  1  0
  9  8  1  0
  5  2  1  0
  3  2  1  0
  4  2  1  0
  2  1  1  0
M  END
$$$$

