Zika_NS5A-x0354_A_1013_1_Zika_NS5A-x0900+A+1017+1
     RDKit          3D

 16 17  0  0  0  0  0  0  0  0999 V2000
  -34.2190  -29.0800   -9.8750 Cl  0  0  0  0  0  0  0  0  0  0  0  0
  -32.6160  -29.7130   -9.6520 C   0  0  0  0  0  0  0  0  0  0  0  0
  -32.3790  -31.0490   -9.8800 C   0  0  0  0  0  0  0  0  0  0  0  0
  -31.1080  -31.5560   -9.6780 C   0  0  0  0  0  0  0  0  0  0  0  0
  -31.6170  -28.8730   -9.2210 C   0  0  0  0  0  0  0  0  0  0  0  0
  -30.3480  -29.3800   -9.0060 C   0  0  0  0  0  0  0  0  0  0  0  0
  -30.0680  -30.7300   -9.2410 C   0  0  0  0  0  0  0  0  0  0  0  0
  -28.7610  -31.2330   -9.0870 N   0  0  0  0  0  0  0  0  0  0  0  0
  -27.6620  -30.2870   -8.8800 C   0  0  0  0  0  0  0  0  0  0  0  0
  -26.3350  -30.9120   -9.2520 C   0  0  0  0  0  0  0  0  0  0  0  0
  -28.5520  -32.4480   -8.2930 C   0  0  0  0  0  0  0  0  0  0  0  0
  -27.2090  -33.0930   -8.6250 C   0  0  0  0  0  0  0  0  0  0  0  0
  -26.1210  -32.1220   -8.4590 N   0  0  0  0  0  0  0  0  0  0  0  0
  -25.0530  -32.3040   -7.6490 C   0  0  0  0  0  0  0  0  0  0  0  0
  -24.0740  -32.9210   -8.0370 O   0  0  0  0  0  0  0  0  0  0  0  0
  -25.1140  -31.7300   -6.2640 C   0  0  0  0  0  0  0  0  0  0  0  0
 16 14  1  0
 15 14  2  0
 14 13  1  0
 13 10  1  0
 10  9  1  0
  9  8  1  0
 11  8  1  0
 12 11  1  0
 13 12  1  0
  8  7  1  0
  7  4  2  0
  4  3  1  0
  3  2  2  0
  2  1  1  0
  5  2  1  0
  6  5  2  0
  7  6  1  0
M  END
$$$$

