Zika_NS5A-x0136_A_1013_1_Zika_NS5A-x0437+A+1201+1
     RDKit          3D

 13 14  0  0  0  0  0  0  0  0999 V2000
   13.7490  -21.9540  -34.5160 O   0  0  0  0  0  0  0  0  0  0  0  0
   14.0430  -23.1510  -34.4400 C   0  0  0  0  0  0  0  0  0  0  0  0
   14.9180  -23.8120  -35.4620 C   0  0  0  0  0  0  0  0  0  0  0  0
   13.6330  -23.9560  -33.4130 N   0  0  0  0  0  0  0  0  0  0  0  0
   13.2520  -23.4960  -32.1190 C   0  0  0  0  0  0  0  0  0  0  0  0
   11.9450  -23.0360  -31.9280 C   0  0  0  0  0  0  0  0  0  0  0  0
   10.8460  -23.1070  -32.7520 N   0  0  0  0  0  0  0  0  0  0  0  0
    9.7970  -22.4740  -32.1410 C   0  0  0  0  0  0  0  0  0  0  0  0
   10.1820  -21.9880  -30.9350 C   0  0  0  0  0  0  0  0  0  0  0  0
   11.5640  -22.3310  -30.7660 C   0  0  0  0  0  0  0  0  0  0  0  0
   12.5290  -22.0900  -29.7780 C   0  0  0  0  0  0  0  0  0  0  0  0
   13.8140  -22.5700  -29.9370 C   0  0  0  0  0  0  0  0  0  0  0  0
   14.1690  -23.2760  -31.0830 C   0  0  0  0  0  0  0  0  0  0  0  0
  3  2  1  0
  2  1  2  0
  4  2  1  0
  5  4  1  0
  5 13  2  0
 13 12  1  0
 12 11  2  0
 11 10  1  0
 10  9  1  0
  9  8  2  0
  8  7  1  0
  7  6  1  0
  6  5  1  0
 10  6  2  0
M  END
$$$$

