DNV2_NS5A-x0741_A_1608_1_DNV2_NS5A-x0172+A+1701+1
     RDKit          3D

 15 15  0  0  0  0  0  0  0  0999 V2000
  -27.1830  -30.6240  -14.7370 F   0  0  0  0  0  0  0  0  0  0  0  0
  -27.5950  -29.4070  -14.4160 C   0  0  0  0  0  0  0  0  0  0  0  0
  -26.8920  -29.0240  -13.3640 F   0  0  0  0  0  0  0  0  0  0  0  0
  -28.8500  -29.5040  -14.0210 F   0  0  0  0  0  0  0  0  0  0  0  0
  -27.4780  -28.5360  -15.4240 O   0  0  0  0  0  0  0  0  0  0  0  0
  -27.7660  -28.9660  -16.7340 C   0  0  0  0  0  0  0  0  0  0  0  0
  -29.0740  -29.2560  -17.0900 C   0  0  0  0  0  0  0  0  0  0  0  0
  -29.4780  -29.0900  -18.4050 C   0  0  0  0  0  0  0  0  0  0  0  0
  -28.5900  -28.6370  -19.3570 C   0  0  0  0  0  0  0  0  0  0  0  0
  -27.2780  -28.3530  -19.0140 C   0  0  0  0  0  0  0  0  0  0  0  0
  -26.8540  -28.5230  -17.6980 C   0  0  0  0  0  0  0  0  0  0  0  0
  -25.5160  -28.3130  -17.2870 N   0  0  0  0  0  0  0  0  0  0  0  0
  -24.5270  -29.2110  -17.4280 C   0  0  0  0  0  0  0  0  0  0  0  0
  -22.9560  -28.8280  -16.9470 S   0  0  0  0  0  0  0  0  0  0  0  0
  -24.8380  -30.3740  -17.9720 N   0  0  0  0  0  0  0  0  0  0  0  0
 15 13  1  0
 14 13  2  0
 13 12  1  0
 12 11  1  0
 11 10  2  0
 10  9  1  0
  9  8  2  0
  8  7  1  0
  7  6  2  0
 11  6  1  0
  6  5  1  0
  5  2  1  0
  3  2  1  0
  4  2  1  0
  2  1  1  0
M  END
$$$$

