6h9r_A_1001_1_5i3p+A+1003+1
     RDKit          3D

 17 18  0  0  0  0  0  0  0  0999 V2000
  -15.2520  -44.4050  -17.0120 C   0  0  0  0  0  0  0  0  0  0  0  0
  -15.3070  -44.2510  -18.5340 C   0  0  0  0  0  0  0  0  0  0  0  0
  -14.3930  -43.4450  -19.2100 C   0  0  0  0  0  0  0  0  0  0  0  0
  -15.5790  -43.9010  -22.7240 O   0  0  0  0  0  0  0  0  0  0  0  0
  -16.2960  -42.2860  -17.0750 O   0  0  0  0  0  0  0  0  0  0  0  0
  -19.2690  -46.2980  -23.1540 C   0  0  0  0  0  0  0  0  0  0  0  0
  -16.3160  -44.9000  -19.2660 C   0  0  0  0  0  0  0  0  0  0  0  0
  -17.1960  -43.6970  -15.6870 O   0  0  0  0  0  0  0  0  0  0  0  0
  -16.3050  -43.4180  -16.5350 C   0  0  0  0  0  0  0  0  0  0  0  0
  -14.4630  -43.3000  -20.6000 C   0  0  0  0  0  0  0  0  0  0  0  0
  -15.4720  -43.9710  -21.3180 C   0  0  0  0  0  0  0  0  0  0  0  0
  -14.6800  -43.0630  -23.4010 C   0  0  0  0  0  0  0  0  0  0  0  0
  -16.3930  -44.7640  -20.6470 C   0  0  0  0  0  0  0  0  0  0  0  0
  -17.4740  -45.4940  -21.4510 C   0  0  0  0  0  0  0  0  0  0  0  0
  -18.0480  -46.7250  -21.1270 C   0  0  0  0  0  0  0  0  0  0  0  0
  -19.0410  -47.1460  -22.0670 C   0  0  0  0  0  0  0  0  0  0  0  0
  -18.2180  -44.9830  -22.8960 S   0  0  0  0  0  0  0  0  0  0  0  0
  6 16  2  0
  6 17  1  0
 16 15  1  0
 15 14  2  0
 17 14  1  0
 14 13  1  0
 13  7  1  0
 13 11  2  0
  4 11  1  0
  4 12  1  0
  7  2  2  0
 11 10  1  0
  2  1  1  0
  2  3  1  0
 10  3  2  0
  8  9  2  0
  1  9  1  0
  9  5  1  0
M  END
$$$$

