Zika_NS5A-x0103_A_1112_1_Zika_NS5A-x0103+A+1112+1
     RDKit          3D

 10 10  0  0  0  0  0  0  0  0999 V2000
  -13.2660  -42.1970  -21.9740 O   0  0  0  0  0  0  0  0  0  0  0  0
  -12.9440  -41.0220  -21.8330 C   0  0  0  0  0  0  0  0  0  0  0  0
  -11.6290  -40.6240  -21.2250 C   0  0  0  0  0  0  0  0  0  0  0  0
  -13.7260  -40.0340  -22.2480 N   0  0  0  0  0  0  0  0  0  0  0  0
  -13.3480  -39.2220  -23.3820 C   0  0  0  0  0  0  0  0  0  0  0  0
  -12.9660  -37.9070  -22.9250 C   0  0  0  0  0  0  0  0  0  0  0  0
  -13.8180  -37.0350  -22.4210 N   0  0  0  0  0  0  0  0  0  0  0  0
  -13.1010  -35.9420  -22.0180 C   0  0  0  0  0  0  0  0  0  0  0  0
  -11.8370  -36.2110  -22.2990 C   0  0  0  0  0  0  0  0  0  0  0  0
  -11.7410  -37.4580  -22.8790 N   0  0  0  0  0  0  0  0  0  0  0  0
  3  2  1  0
  2  1  2  0
  4  2  1  0
  5  4  1  0
  6  5  1  0
  6 10  2  0
 10  9  1  0
  9  8  2  0
  8  7  1  0
  7  6  1  0
M  END
$$$$

