Zika_NS5A-x0625_A_1301_1_Zika_NS5A-x0351+A+1112+1
     RDKit          3D

 13 13  0  0  0  0  0  0  0  0999 V2000
  -24.6910  -28.0300  -19.1820 O   0  0  0  0  0  0  0  0  0  0  0  0
  -25.7190  -27.9080  -20.1660 S   0  0  0  0  0  0  0  0  0  0  0  0
  -25.3630  -27.6990  -21.5340 O   0  0  0  0  0  0  0  0  0  0  0  0
  -26.6960  -26.7230  -19.7190 N   0  0  0  0  0  0  0  0  0  0  0  0
  -26.7590  -29.3650  -20.0860 C   0  0  0  0  0  0  0  0  0  0  0  0
  -27.4610  -29.5670  -18.7660 C   0  0  0  0  0  0  0  0  0  0  0  0
  -28.8380  -29.8290  -18.6860 C   0  0  0  0  0  0  0  0  0  0  0  0
  -29.6970  -29.9780  -19.9140 C   0  0  0  0  0  0  0  0  0  0  0  0
  -26.7100  -29.4870  -17.5950 C   0  0  0  0  0  0  0  0  0  0  0  0
  -27.2950  -29.6410  -16.3560 C   0  0  0  0  0  0  0  0  0  0  0  0
  -28.6300  -29.8890  -16.3080 C   0  0  0  0  0  0  0  0  0  0  0  0
  -29.2030  -30.1120  -15.0970 F   0  0  0  0  0  0  0  0  0  0  0  0
  -29.4160  -29.9820  -17.4280 C   0  0  0  0  0  0  0  0  0  0  0  0
  8  7  1  0
  7 13  2  0
 13 11  1  0
 12 11  1  0
 11 10  2  0
 10  9  1  0
  9  6  2  0
  7  6  1  0
  6  5  1  0
  5  2  1  0
  3  2  2  0
  2  1  2  0
  4  2  1  0
M  END
$$$$

