Zika_NS5A-x0922_A_1202_1_Zika_NS5A-x0351+A+1112+1
     RDKit          3D

 15 16  0  0  0  0  0  0  0  0999 V2000
  -28.9260  -30.0490  -15.6170 Br  0  0  0  0  0  0  0  0  0  0  0  0
  -27.9170  -29.9510  -17.2030 C   0  0  0  0  0  0  0  0  0  0  0  0
  -28.5840  -29.9260  -18.4100 C   0  0  0  0  0  0  0  0  0  0  0  0
  -26.5270  -29.8750  -17.1330 C   0  0  0  0  0  0  0  0  0  0  0  0
  -25.8740  -29.9980  -15.9500 O   0  0  0  0  0  0  0  0  0  0  0  0
  -25.8080  -29.7110  -18.3040 C   0  0  0  0  0  0  0  0  0  0  0  0
  -26.4830  -29.6450  -19.5030 C   0  0  0  0  0  0  0  0  0  0  0  0
  -27.8550  -29.7870  -19.5810 C   0  0  0  0  0  0  0  0  0  0  0  0
  -28.4870  -29.8590  -20.8880 C   0  0  0  0  0  0  0  0  0  0  0  0
  -29.6490  -30.0850  -21.0890 O   0  0  0  0  0  0  0  0  0  0  0  0
  -27.6870  -29.6720  -21.9730 O   0  0  0  0  0  0  0  0  0  0  0  0
  -25.7620  -29.3440  -20.6310 O   0  0  0  0  0  0  0  0  0  0  0  0
  -26.2660  -29.9210  -21.8550 C   0  0  0  0  0  0  0  0  0  0  0  0
  -25.9600  -31.3960  -21.8260 C   0  0  0  0  0  0  0  0  0  0  0  0
  -25.5980  -29.2050  -23.0050 C   0  0  0  0  0  0  0  0  0  0  0  0
 15 13  1  0
 14 13  1  0
 13 11  1  0
 11  9  1  0
 10  9  2  0
  9  8  1  0
  8  3  1  0
  3  2  2  0
  2  1  1  0
  4  2  1  0
  5  4  1  0
  6  4  2  0
  7  6  1  0
  8  7  2  0
 12  7  1  0
 13 12  1  0
M  END
$$$$

