Zika_NS5A-x0501_A_1013_1_Zika_NS5A-x0111+A+1112+1
     RDKit          3D

 11 11  0  0  0  0  0  0  0  0999 V2000
   -7.7670  -37.1690  -45.2080 O   0  0  0  0  0  0  0  0  0  0  0  0
   -6.7480  -36.4910  -45.0310 C   0  0  0  0  0  0  0  0  0  0  0  0
   -6.5160  -35.3530  -45.6700 N   0  0  0  0  0  0  0  0  0  0  0  0
   -5.6510  -36.9560  -44.0260 C   0  0  0  0  0  0  0  0  0  0  0  0
   -5.7030  -38.4520  -43.8010 C   0  0  0  0  0  0  0  0  0  0  0  0
   -5.2190  -39.3550  -44.7630 C   0  0  0  0  0  0  0  0  0  0  0  0
   -4.3870  -38.9040  -45.9370 C   0  0  0  0  0  0  0  0  0  0  0  0
   -6.3620  -38.9420  -42.6720 C   0  0  0  0  0  0  0  0  0  0  0  0
   -6.6010  -40.2950  -42.5230 C   0  0  0  0  0  0  0  0  0  0  0  0
   -6.1740  -41.1790  -43.4870 C   0  0  0  0  0  0  0  0  0  0  0  0
   -5.4790  -40.7170  -44.5900 C   0  0  0  0  0  0  0  0  0  0  0  0
  7  6  1  0
  6 11  2  0
 11 10  1  0
 10  9  2  0
  9  8  1  0
  8  5  2  0
  6  5  1  0
  5  4  1  0
  4  2  1  0
  2  1  2  0
  3  2  1  0
M  END
$$$$

