Zika_NS5A-x0968_A_1202_1_Zika_NS5A-x0136+A+1016+1
     RDKit          3D

 13 14  0  0  0  0  0  0  0  0999 V2000
  -26.4380  -55.4420    0.0320 O   0  0  0  0  0  0  0  0  0  0  0  0
  -26.3580  -56.6410   -0.6090 C   0  0  0  0  0  0  0  0  0  0  0  0
  -27.3520  -57.0980   -1.4450 C   0  0  0  0  0  0  0  0  0  0  0  0
  -27.2670  -58.2670   -2.0880 N   0  0  0  0  0  0  0  0  0  0  0  0
  -26.1510  -58.9760   -1.8780 C   0  0  0  0  0  0  0  0  0  0  0  0
  -25.1330  -58.6160   -1.0890 N   0  0  0  0  0  0  0  0  0  0  0  0
  -25.2560  -57.4460   -0.4620 C   0  0  0  0  0  0  0  0  0  0  0  0
  -26.0280  -60.2730   -2.5850 C   0  0  0  0  0  0  0  0  0  0  0  0
  -24.9140  -61.0840   -2.3880 C   0  0  0  0  0  0  0  0  0  0  0  0
  -24.8180  -62.3140   -3.0150 C   0  0  0  0  0  0  0  0  0  0  0  0
  -25.8240  -62.7500   -3.8450 C   0  0  0  0  0  0  0  0  0  0  0  0
  -26.9260  -61.9540   -4.0590 C   0  0  0  0  0  0  0  0  0  0  0  0
  -27.0310  -60.7210   -3.4370 C   0  0  0  0  0  0  0  0  0  0  0  0
  2  1  1  0
  2  7  2  0
  7  6  1  0
  6  5  2  0
  5  4  1  0
  4  3  2  0
  3  2  1  0
  8  5  1  0
  8 13  2  0
 13 12  1  0
 12 11  2  0
 11 10  1  0
 10  9  2  0
  9  8  1  0
M  END
$$$$

