DNV2_NS5A-x0414_A_1701_1_DNV2_NS5A-x0249+A+1707+1
     RDKit          3D

  6  6  0  0  0  0  0  0  0  0999 V2000
  -12.3440  -70.6070  -20.3230 F   0  0  0  0  0  0  0  0  0  0  0  0
  -13.5230  -69.9460  -20.2350 C   0  0  0  0  0  0  0  0  0  0  0  0
  -14.5900  -70.2180  -19.4290 C   0  0  0  0  0  0  0  0  0  0  0  0
  -15.5420  -69.3260  -19.7110 N   0  0  0  0  0  0  0  0  0  0  0  0
  -15.1540  -68.4610  -20.6710 N   0  0  0  0  0  0  0  0  0  0  0  0
  -13.9200  -68.8220  -21.0020 C   0  0  0  0  0  0  0  0  0  0  0  0
  2  1  1  0
  2  6  1  0
  6  5  2  0
  5  4  1  0
  4  3  1  0
  3  2  2  0
M  END
$$$$

