Zika_NS5A-x0041_A_1112_1_Zika_NS5A-x0041+A+1112+1
     RDKit          3D

 14 15  0  0  0  0  0  0  0  0999 V2000
  -35.1210  -10.3980  -24.4650 O   0  0  0  0  0  0  0  0  0  0  0  0
  -35.6190  -11.4360  -24.0320 C   0  0  0  0  0  0  0  0  0  0  0  0
  -36.4800  -11.4540  -23.0190 N   0  0  0  0  0  0  0  0  0  0  0  0
  -37.3290  -10.3180  -22.7100 C   0  0  0  0  0  0  0  0  0  0  0  0
  -35.2810  -12.7530  -24.6210 C   0  0  0  0  0  0  0  0  0  0  0  0
  -34.1990  -13.0540  -25.5340 C   0  0  0  0  0  0  0  0  0  0  0  0
  -34.2980  -14.4210  -25.8380 C   0  0  0  0  0  0  0  0  0  0  0  0
  -35.3730  -14.9350  -25.1430 N   0  0  0  0  0  0  0  0  0  0  0  0
  -35.8110  -16.3230  -25.1590 C   0  0  0  0  0  0  0  0  0  0  0  0
  -35.9530  -13.9270  -24.4250 C   0  0  0  0  0  0  0  0  0  0  0  0
  -33.2040  -12.2990  -26.1510 C   0  0  0  0  0  0  0  0  0  0  0  0
  -32.3620  -12.8990  -27.0760 C   0  0  0  0  0  0  0  0  0  0  0  0
  -32.4830  -14.2500  -27.3720 C   0  0  0  0  0  0  0  0  0  0  0  0
  -33.4450  -15.0300  -26.7470 C   0  0  0  0  0  0  0  0  0  0  0  0
  4  3  1  0
  3  2  1  0
  2  1  2  0
  5  2  1  0
  5 10  2  0
 10  8  1  0
  9  8  1  0
  8  7  1  0
  7 14  2  0
 14 13  1  0
 13 12  2  0
 12 11  1  0
 11  6  2  0
  6  5  1  0
  7  6  1  0
M  END
$$$$

