Zika_NS5A-x1040_A_1203_1_Zika_NS5A-x0411+A+1104+1
     RDKit          3D

 12 13  0  0  0  0  0  0  0  0999 V2000
  -13.4530  -24.9590  -20.8170 C   0  0  0  0  0  0  0  0  0  0  0  0
  -14.1550  -23.6930  -20.8300 N   0  0  0  0  0  0  0  0  0  0  0  0
  -15.4120  -23.5170  -20.3220 C   0  0  0  0  0  0  0  0  0  0  0  0
  -16.0370  -22.4230  -20.7350 N   0  0  0  0  0  0  0  0  0  0  0  0
  -17.3710  -22.2840  -20.4350 C   0  0  0  0  0  0  0  0  0  0  0  0
  -18.0770  -23.2620  -19.7050 C   0  0  0  0  0  0  0  0  0  0  0  0
  -17.3450  -24.3640  -19.2160 C   0  0  0  0  0  0  0  0  0  0  0  0
  -16.0210  -24.5030  -19.5170 C   0  0  0  0  0  0  0  0  0  0  0  0
  -18.0770  -21.1620  -20.9350 C   0  0  0  0  0  0  0  0  0  0  0  0
  -19.4250  -21.0560  -20.7480 C   0  0  0  0  0  0  0  0  0  0  0  0
  -20.1240  -22.0400  -20.0730 C   0  0  0  0  0  0  0  0  0  0  0  0
  -19.4750  -23.1180  -19.5530 C   0  0  0  0  0  0  0  0  0  0  0  0
  2  1  1  0
  3  2  1  0
  3  8  2  0
  8  7  1  0
  7  6  2  0
  6 12  1  0
 12 11  2  0
 11 10  1  0
 10  9  2  0
  9  5  1  0
  6  5  1  0
  5  4  2  0
  4  3  1  0
M  END
$$$$

