Zika_NS5A-x0922_A_1101_1_Zika_NS5A-x0922+A+1101+1
     RDKit          3D

 15 16  0  0  0  0  0  0  0  0999 V2000
  -19.5430  -72.0760  -36.8530 Br  0  0  0  0  0  0  0  0  0  0  0  0
  -18.6410  -73.7200  -36.5800 C   0  0  0  0  0  0  0  0  0  0  0  0
  -19.0120  -74.8090  -37.3450 C   0  0  0  0  0  0  0  0  0  0  0  0
  -17.5680  -73.7840  -35.6920 C   0  0  0  0  0  0  0  0  0  0  0  0
  -17.2900  -72.7550  -34.8560 O   0  0  0  0  0  0  0  0  0  0  0  0
  -16.8110  -74.9440  -35.6340 C   0  0  0  0  0  0  0  0  0  0  0  0
  -17.1500  -76.0110  -36.4420 C   0  0  0  0  0  0  0  0  0  0  0  0
  -18.2580  -75.9710  -37.2730 C   0  0  0  0  0  0  0  0  0  0  0  0
  -18.5860  -77.1390  -38.0760 C   0  0  0  0  0  0  0  0  0  0  0  0
  -19.6280  -77.3260  -38.6600 O   0  0  0  0  0  0  0  0  0  0  0  0
  -17.6300  -78.1140  -38.1510 O   0  0  0  0  0  0  0  0  0  0  0  0
  -16.2970  -77.0880  -36.4840 O   0  0  0  0  0  0  0  0  0  0  0  0
  -16.2760  -77.8060  -37.7400 C   0  0  0  0  0  0  0  0  0  0  0  0
  -15.6020  -76.9490  -38.7850 C   0  0  0  0  0  0  0  0  0  0  0  0
  -15.5600  -79.1160  -37.5120 C   0  0  0  0  0  0  0  0  0  0  0  0
 15 13  1  0
 14 13  1  0
 13 11  1  0
 11  9  1  0
 10  9  2  0
  9  8  1  0
  8  3  1  0
  3  2  2  0
  2  1  1  0
  4  2  1  0
  5  4  1  0
  6  4  2  0
  7  6  1  0
  8  7  2  0
 12  7  1  0
 13 12  1  0
M  END
$$$$

