Zika_NS5A-x0498_A_1101_1_Zika_NS5A-x0498+A+1101+1
     RDKit          3D

 13 14  0  0  0  0  0  0  0  0999 V2000
  -25.8630  -11.3280   -5.8180 O   0  0  0  0  0  0  0  0  0  0  0  0
  -27.0570  -11.2960   -6.0770 C   0  0  0  0  0  0  0  0  0  0  0  0
  -28.0370  -12.4370   -6.0030 C   0  0  0  0  0  0  0  0  0  0  0  0
  -29.2880  -11.7100   -6.3980 C   0  0  0  0  0  0  0  0  0  0  0  0
  -30.6350  -12.3430   -6.4190 C   0  0  0  0  0  0  0  0  0  0  0  0
  -27.7770  -10.1760   -6.4940 N   0  0  0  0  0  0  0  0  0  0  0  0
  -29.1200  -10.4780   -6.6870 N   0  0  0  0  0  0  0  0  0  0  0  0
  -27.3340   -8.8280   -6.6900 C   0  0  0  0  0  0  0  0  0  0  0  0
  -28.2660   -7.8290   -6.9930 C   0  0  0  0  0  0  0  0  0  0  0  0
  -27.8550   -6.5070   -7.0650 C   0  0  0  0  0  0  0  0  0  0  0  0
  -26.5280   -6.1710   -6.8470 C   0  0  0  0  0  0  0  0  0  0  0  0
  -25.6020   -7.1580   -6.5610 C   0  0  0  0  0  0  0  0  0  0  0  0
  -25.9920   -8.4860   -6.4840 C   0  0  0  0  0  0  0  0  0  0  0  0
  5  4  1  0
  4  7  2  0
  7  6  1  0
  6  2  1  0
  2  1  2  0
  3  2  1  0
  4  3  1  0
  8  6  1  0
  8 13  2  0
 13 12  1  0
 12 11  2  0
 11 10  1  0
 10  9  2  0
  9  8  1  0
M  END
$$$$

