Zika_NS5A-x0553_A_1013_1_Zika_NS5A-x0481+A+1201+1
     RDKit          3D

 12 12  0  0  0  0  0  0  0  0999 V2000
  -25.4120  -67.2380  -24.7730 O   0  0  0  0  0  0  0  0  0  0  0  0
  -24.3690  -67.6450  -24.2890 C   0  0  0  0  0  0  0  0  0  0  0  0
  -23.8780  -68.8630  -24.5690 N   0  0  0  0  0  0  0  0  0  0  0  0
  -23.3430  -69.2090  -25.8810 C   0  0  0  0  0  0  0  0  0  0  0  0
  -23.8270  -69.9300  -23.5710 C   0  0  0  0  0  0  0  0  0  0  0  0
  -23.5690  -66.8030  -23.2940 C   0  0  0  0  0  0  0  0  0  0  0  0
  -23.7650  -65.3760  -23.5030 N   0  0  0  0  0  0  0  0  0  0  0  0
  -22.7200  -64.5940  -23.8690 N   0  0  0  0  0  0  0  0  0  0  0  0
  -23.2660  -63.3860  -23.8260 C   0  0  0  0  0  0  0  0  0  0  0  0
  -22.6020  -62.2700  -24.1160 N   0  0  0  0  0  0  0  0  0  0  0  0
  -24.5860  -63.3530  -23.4680 N   0  0  0  0  0  0  0  0  0  0  0  0
  -24.8470  -64.6270  -23.2860 C   0  0  0  0  0  0  0  0  0  0  0  0
  5  3  1  0
  4  3  1  0
  3  2  1  0
  2  1  2  0
  6  2  1  0
  7  6  1  0
  7 12  1  0
 12 11  2  0
 11  9  1  0
 10  9  1  0
  9  8  2  0
  8  7  1  0
M  END
$$$$

