DNV2_NS5A-x0472_A_2101_1_DNV2_NS5A-x0254+A+1701+1
     RDKit          3D

 12 13  0  0  0  0  0  0  0  0999 V2000
  -15.7750  -43.6370  -22.5880 N   0  0  0  0  0  0  0  0  0  0  0  0
  -15.1370  -44.0180  -21.4420 C   0  0  0  0  0  0  0  0  0  0  0  0
  -15.5660  -45.1350  -20.6910 C   0  0  0  0  0  0  0  0  0  0  0  0
  -15.0140  -45.4870  -19.5210 N   0  0  0  0  0  0  0  0  0  0  0  0
  -13.9920  -44.7430  -19.0650 C   0  0  0  0  0  0  0  0  0  0  0  0
  -13.4830  -43.6510  -19.7350 C   0  0  0  0  0  0  0  0  0  0  0  0
  -14.0650  -43.2880  -20.9320 C   0  0  0  0  0  0  0  0  0  0  0  0
  -16.5820  -46.0170  -21.1430 N   0  0  0  0  0  0  0  0  0  0  0  0
  -17.5610  -45.7280  -22.0730 C   0  0  0  0  0  0  0  0  0  0  0  0
  -18.3330  -46.8380  -22.2340 C   0  0  0  0  0  0  0  0  0  0  0  0
  -17.8230  -47.8430  -21.3830 C   0  0  0  0  0  0  0  0  0  0  0  0
  -16.7520  -47.3220  -20.7230 C   0  0  0  0  0  0  0  0  0  0  0  0
  2  1  1  0
  2  7  2  0
  7  6  1  0
  6  5  2  0
  5  4  1  0
  4  3  2  0
  3  2  1  0
  8  3  1  0
  8 12  1  0
 12 11  2  0
 11 10  1  0
 10  9  2  0
  9  8  1  0
M  END
$$$$

