6h80_A_1001_1_5i3p+A+1003+1
     RDKit          3D

 17 18  0  0  0  0  0  0  0  0999 V2000
  -15.2330  -44.2800  -17.1070 C   0  0  0  0  0  0  0  0  0  0  0  0
  -15.2870  -44.1520  -18.6430 C   0  0  0  0  0  0  0  0  0  0  0  0
  -14.3820  -43.3720  -19.3520 C   0  0  0  0  0  0  0  0  0  0  0  0
  -15.5450  -43.8730  -22.8600 O   0  0  0  0  0  0  0  0  0  0  0  0
  -16.7420  -42.3950  -17.0550 O   0  0  0  0  0  0  0  0  0  0  0  0
  -19.3050  -46.3040  -23.1230 C   0  0  0  0  0  0  0  0  0  0  0  0
  -16.2790  -44.8170  -19.3520 C   0  0  0  0  0  0  0  0  0  0  0  0
  -17.1180  -43.9570  -15.5830 O   0  0  0  0  0  0  0  0  0  0  0  0
  -16.4240  -43.5070  -16.5380 C   0  0  0  0  0  0  0  0  0  0  0  0
  -14.4360  -43.2410  -20.7330 C   0  0  0  0  0  0  0  0  0  0  0  0
  -15.4450  -43.9340  -21.4440 C   0  0  0  0  0  0  0  0  0  0  0  0
  -14.6530  -43.0410  -23.5610 C   0  0  0  0  0  0  0  0  0  0  0  0
  -16.3490  -44.7240  -20.7360 C   0  0  0  0  0  0  0  0  0  0  0  0
  -17.4480  -45.4920  -21.4780 C   0  0  0  0  0  0  0  0  0  0  0  0
  -17.9950  -46.7240  -21.1390 C   0  0  0  0  0  0  0  0  0  0  0  0
  -19.0190  -47.1730  -22.0560 C   0  0  0  0  0  0  0  0  0  0  0  0
  -18.2490  -44.9680  -22.8700 S   0  0  0  0  0  0  0  0  0  0  0  0
  6 16  2  0
  6 17  1  0
 16 15  1  0
 15 14  2  0
 17 14  1  0
 14 13  1  0
 13  7  1  0
 13 11  2  0
  4 11  1  0
  4 12  1  0
  7  2  2  0
 11 10  1  0
  2  1  1  0
  2  3  1  0
 10  3  2  0
  8  9  2  0
  1  9  1  0
  9  5  1  0
M  END
$$$$

