DNV2_NS5A-x0379_A_2102_1_DNV2_NS5A-x0210+A+1608+1
     RDKit          3D

 15 16  0  0  0  0  0  0  0  0999 V2000
  -27.9290  -44.2620   -9.9120 O   0  0  0  0  0  0  0  0  0  0  0  0
  -27.7430  -45.0700   -9.0000 C   0  0  0  0  0  0  0  0  0  0  0  0
  -28.6130  -46.1710   -8.6720 C   0  0  0  0  0  0  0  0  0  0  0  0
  -28.3300  -47.0180   -7.6610 C   0  0  0  0  0  0  0  0  0  0  0  0
  -27.1170  -46.8070   -6.9070 C   0  0  0  0  0  0  0  0  0  0  0  0
  -26.7150  -47.7470   -5.8130 C   0  0  0  0  0  0  0  0  0  0  0  0
  -26.3000  -45.8230   -7.1570 N   0  0  0  0  0  0  0  0  0  0  0  0
  -26.6260  -44.9710   -8.1930 N   0  0  0  0  0  0  0  0  0  0  0  0
  -25.6940  -43.8730   -8.3900 C   0  0  0  0  0  0  0  0  0  0  0  0
  -24.7140  -44.2090   -9.4560 C   0  0  0  0  0  0  0  0  0  0  0  0
  -24.7470  -44.1550  -10.7950 C   0  0  0  0  0  0  0  0  0  0  0  0
  -23.5220  -44.6900   -9.0460 O   0  0  0  0  0  0  0  0  0  0  0  0
  -22.7360  -44.9660  -10.1910 N   0  0  0  0  0  0  0  0  0  0  0  0
  -23.5000  -44.6380  -11.2180 C   0  0  0  0  0  0  0  0  0  0  0  0
  -23.0000  -44.8220  -12.6150 C   0  0  0  0  0  0  0  0  0  0  0  0
 15 14  1  0
 14 11  1  0
 11 10  2  0
 10  9  1  0
  9  8  1  0
  8  7  1  0
  7  5  2  0
  6  5  1  0
  5  4  1  0
  4  3  2  0
  3  2  1  0
  8  2  1  0
  2  1  2  0
 12 10  1  0
 13 12  1  0
 14 13  2  0
M  END
$$$$

