Zika_NS5A-x0927_A_1101_1_Zika_NS5A-x0136+A+1016+1
     RDKit          3D

 11 11  0  0  0  0  0  0  0  0999 V2000
  -26.1610  -60.1840   -3.7100 F   0  0  0  0  0  0  0  0  0  0  0  0
  -25.6140  -60.5110   -2.5740 C   0  0  0  0  0  0  0  0  0  0  0  0
  -26.2780  -61.5620   -2.1620 F   0  0  0  0  0  0  0  0  0  0  0  0
  -24.3720  -60.8800   -2.7740 F   0  0  0  0  0  0  0  0  0  0  0  0
  -25.6920  -59.4350   -1.6380 C   0  0  0  0  0  0  0  0  0  0  0  0
  -25.8930  -59.7150   -0.3590 N   0  0  0  0  0  0  0  0  0  0  0  0
  -25.7450  -58.0620   -1.9030 C   0  0  0  0  0  0  0  0  0  0  0  0
  -26.0460  -57.5030   -0.6990 C   0  0  0  0  0  0  0  0  0  0  0  0
  -26.2890  -56.2450   -0.3570 O   0  0  0  0  0  0  0  0  0  0  0  0
  -26.1330  -58.5140    0.2090 N   0  0  0  0  0  0  0  0  0  0  0  0
  -26.5170  -58.4330    1.6120 C   0  0  0  0  0  0  0  0  0  0  0  0
 11 10  1  0
 10  6  1  0
  6  5  2  0
  7  5  1  0
  8  7  2  0
 10  8  1  0
  9  8  1  0
  5  2  1  0
  3  2  1  0
  4  2  1  0
  2  1  1  0
M  END
$$$$

