Zika_NS5A-x0625_A_1112_1_Zika_NS5A-x0136+A+1016+1
     RDKit          3D

 13 13  0  0  0  0  0  0  0  0999 V2000
  -22.1490  -57.8930   -0.2080 O   0  0  0  0  0  0  0  0  0  0  0  0
  -23.1040  -56.8530    0.0100 S   0  0  0  0  0  0  0  0  0  0  0  0
  -22.8680  -55.8570    1.0060 O   0  0  0  0  0  0  0  0  0  0  0  0
  -23.3880  -56.1120   -1.3810 N   0  0  0  0  0  0  0  0  0  0  0  0
  -24.6850  -57.6080    0.3580 C   0  0  0  0  0  0  0  0  0  0  0  0
  -25.0250  -58.6950   -0.6280 C   0  0  0  0  0  0  0  0  0  0  0  0
  -24.5460  -60.0080   -0.4890 C   0  0  0  0  0  0  0  0  0  0  0  0
  -23.7230  -60.4390    0.6990 C   0  0  0  0  0  0  0  0  0  0  0  0
  -25.8330  -58.3680   -1.7160 C   0  0  0  0  0  0  0  0  0  0  0  0
  -26.1660  -59.3110   -2.6670 C   0  0  0  0  0  0  0  0  0  0  0  0
  -25.6790  -60.5730   -2.5130 C   0  0  0  0  0  0  0  0  0  0  0  0
  -26.0120  -61.5140   -3.4330 F   0  0  0  0  0  0  0  0  0  0  0  0
  -24.8810  -60.9450   -1.4620 C   0  0  0  0  0  0  0  0  0  0  0  0
  8  7  1  0
  7 13  2  0
 13 11  1  0
 12 11  1  0
 11 10  2  0
 10  9  1  0
  9  6  2  0
  7  6  1  0
  6  5  1  0
  5  2  1  0
  3  2  2  0
  2  1  2  0
  4  2  1  0
M  END
$$$$

