DNV2_NS5A-x0378_A_1707_1_DNV2_NS5A-x0172+A+1701+1
     RDKit          3D

 13 13  0  0  0  0  0  0  0  0999 V2000
  -23.9320  -26.7690  -22.2220 N   0  0  0  0  0  0  0  0  0  0  0  0
  -24.4060  -27.2700  -21.3140 C   0  0  0  0  0  0  0  0  0  0  0  0
  -25.0600  -27.8280  -20.1340 C   0  0  0  0  0  0  0  0  0  0  0  0
  -25.6190  -29.1920  -20.3820 C   0  0  0  0  0  0  0  0  0  0  0  0
  -25.6270  -29.8180  -21.5440 N   0  0  0  0  0  0  0  0  0  0  0  0
  -26.2540  -31.0210  -21.3050 C   0  0  0  0  0  0  0  0  0  0  0  0
  -26.6200  -31.1170  -20.0050 C   0  0  0  0  0  0  0  0  0  0  0  0
  -26.2110  -29.9480  -19.4100 N   0  0  0  0  0  0  0  0  0  0  0  0
  -26.3680  -29.6170  -17.9920 C   0  0  0  0  0  0  0  0  0  0  0  0
  -27.6370  -28.8610  -17.7020 C   0  0  0  0  0  0  0  0  0  0  0  0
  -27.5920  -28.2660  -16.5210 F   0  0  0  0  0  0  0  0  0  0  0  0
  -28.7060  -29.6510  -17.6860 F   0  0  0  0  0  0  0  0  0  0  0  0
  -27.8840  -27.8970  -18.5810 F   0  0  0  0  0  0  0  0  0  0  0  0
 11 10  1  0
 12 10  1  0
 13 10  1  0
 10  9  1  0
  9  8  1  0
  8  7  1  0
  7  6  2  0
  6  5  1  0
  5  4  2  0
  8  4  1  0
  4  3  1  0
  3  2  1  0
  2  1  3  0
M  END
>  <id>  (1) 
1

>  <inchikey>  (1) 
WWHCIFNAXSSZJE-UHFFFAOYSA-N

>  <alias>  (1) 
d0378a

>  <name>  (1) 
d0378a

>  <smiles>  (1) 
N#CCc1nccn1CC(F)(F)F

>  <path>  (1) 
/opt/xchem-fragalysis-2/maxwin/BulkDock/TARGETS/Flavi_NS5_RdRp/aligned_files/d0378a/d0378a.pdb

>  <distance_score>  (1) 
None

>  <energy_score>  (1) 
None

>  <compound>  (1) 
WWHCIFNAXSSZJE-UHFFFAOYSA-N

>  <compound_id>  (1) 
1

>  <target>  (1) 
Flavi_NS5_RdRp

$$$$
Zika_NS5A-x0165_A_1112_1_Zika_NS5A-x0351+A+1112+1
     RDKit          3D

 15 16  0  0  0  0  0  0  0  0999 V2000
  -25.6460  -27.2190  -21.1790 O   0  0  0  0  0  0  0  0  0  0  0  0
  -24.8380  -27.1140  -19.9960 S   0  0  0  0  0  0  0  0  0  0  0  0
  -23.4670  -27.5250  -20.0670 O   0  0  0  0  0  0  0  0  0  0  0  0
  -24.8330  -25.5810  -19.5430 N   0  0  0  0  0  0  0  0  0  0  0  0
  -25.6200  -28.0730  -18.7330 C   0  0  0  0  0  0  0  0  0  0  0  0
  -25.0150  -28.1970  -17.4920 C   0  0  0  0  0  0  0  0  0  0  0  0
  -25.6060  -28.9910  -16.5260 C   0  0  0  0  0  0  0  0  0  0  0  0
  -26.8180  -28.7170  -19.0090 C   0  0  0  0  0  0  0  0  0  0  0  0
  -27.4190  -29.5030  -18.0240 C   0  0  0  0  0  0  0  0  0  0  0  0
  -28.6410  -30.1050  -18.2840 N   0  0  0  0  0  0  0  0  0  0  0  0
  -29.2030  -30.0970  -19.6300 C   0  0  0  0  0  0  0  0  0  0  0  0
  -26.8090  -29.6450  -16.7730 C   0  0  0  0  0  0  0  0  0  0  0  0
  -27.5290  -30.4430  -15.7200 C   0  0  0  0  0  0  0  0  0  0  0  0
  -29.0230  -30.2030  -15.8120 C   0  0  0  0  0  0  0  0  0  0  0  0
  -29.6000  -30.3490  -17.2140 C   0  0  0  0  0  0  0  0  0  0  0  0
 11 10  1  0
 10 15  1  0
 15 14  1  0
 14 13  1  0
 13 12  1  0
 12  7  2  0
  7  6  1  0
  6  5  2  0
  8  5  1  0
  9  8  2  0
 10  9  1  0
 12  9  1  0
  5  2  1  0
  3  2  2  0
  2  1  2  0
  4  2  1  0
M  END
>  <id>  (2) 
3

>  <inchikey>  (2) 
OUJFDUTZTPBMDN-UHFFFAOYSA-N

>  <alias>  (2) 
z0165a

>  <name>  (2) 
z0165a

>  <smiles>  (2) 
CN1CCCc2ccc(S(N)(=O)=O)cc21

>  <path>  (2) 
/opt/xchem-fragalysis-2/maxwin/BulkDock/TARGETS/Flavi_NS5_RdRp/aligned_files/z0165a/z0165a.pdb

>  <distance_score>  (2) 
None

>  <energy_score>  (2) 
None

>  <compound>  (2) 
OUJFDUTZTPBMDN-UHFFFAOYSA-N

>  <compound_id>  (2) 
3

>  <target>  (2) 
Flavi_NS5_RdRp

$$$$
Zika_NS5A-x0904_A_1014_1_Zika_NS5A-x0351+A+1112+1
     RDKit          3D

 13 14  0  0  0  0  0  0  0  0999 V2000
  -27.1210  -30.5100  -21.8080 O   0  0  0  0  0  0  0  0  0  0  0  0
  -28.0850  -30.1040  -21.1720 C   0  0  0  0  0  0  0  0  0  0  0  0
  -29.3130  -29.6280  -21.8780 C   0  0  0  0  0  0  0  0  0  0  0  0
  -28.0480  -30.0850  -19.6840 C   0  0  0  0  0  0  0  0  0  0  0  0
  -26.8250  -29.9880  -19.0300 C   0  0  0  0  0  0  0  0  0  0  0  0
  -26.7490  -29.9870  -17.6400 C   0  0  0  0  0  0  0  0  0  0  0  0
  -27.9310  -30.1060  -16.8930 C   0  0  0  0  0  0  0  0  0  0  0  0
  -29.1620  -30.1830  -17.5470 C   0  0  0  0  0  0  0  0  0  0  0  0
  -29.2130  -30.1770  -18.9300 C   0  0  0  0  0  0  0  0  0  0  0  0
  -25.4340  -29.8120  -16.9260 C   0  0  0  0  0  0  0  0  0  0  0  0
  -25.4260  -30.4420  -15.5590 C   0  0  0  0  0  0  0  0  0  0  0  0
  -26.6640  -30.3150  -14.7460 C   0  0  0  0  0  0  0  0  0  0  0  0
  -27.8850  -30.2410  -15.5310 N   0  0  0  0  0  0  0  0  0  0  0  0
  3  2  1  0
  2  1  2  0
  4  2  1  0
  4  9  2  0
  9  8  1  0
  8  7  2  0
  7 13  1  0
 13 12  1  0
 12 11  1  0
 11 10  1  0
 10  6  1  0
  7  6  1  0
  6  5  2  0
  5  4  1  0
M  END
>  <id>  (3) 
7

>  <inchikey>  (3) 
YFNHWMNECPFUGS-UHFFFAOYSA-N

>  <alias>  (3) 
z0904a

>  <name>  (3) 
z0904a

>  <smiles>  (3) 
CC(=O)c1ccc2c(c1)CCCN2

>  <path>  (3) 
/opt/xchem-fragalysis-2/maxwin/BulkDock/TARGETS/Flavi_NS5_RdRp/aligned_files/z0904a/z0904a.pdb

>  <distance_score>  (3) 
None

>  <energy_score>  (3) 
None

>  <compound>  (3) 
YFNHWMNECPFUGS-UHFFFAOYSA-N

>  <compound_id>  (3) 
7

>  <target>  (3) 
Flavi_NS5_RdRp

$$$$
DNV2_NS5A-x0172_A_1701_1_DNV2_NS5A-x0172+A+1701+1
     RDKit          3D

 10 10  0  0  0  0  0  0  0  0999 V2000
  -24.3700  -26.5510  -20.5350 O   0  0  0  0  0  0  0  0  0  0  0  0
  -23.8650  -27.1060  -19.3140 S   0  0  0  0  0  0  0  0  0  0  0  0
  -22.4710  -27.4110  -19.2180 O   0  0  0  0  0  0  0  0  0  0  0  0
  -24.2870  -26.0220  -18.0040 C   0  0  0  0  0  0  0  0  0  0  0  0
  -24.6560  -28.4930  -19.0550 N   0  0  0  0  0  0  0  0  0  0  0  0
  -26.0970  -28.6660  -19.3050 C   0  0  0  0  0  0  0  0  0  0  0  0
  -26.4730  -30.0850  -19.6860 C   0  0  0  0  0  0  0  0  0  0  0  0
  -27.9720  -30.1380  -19.4560 C   0  0  0  0  0  0  0  0  0  0  0  0
  -28.2670  -29.1310  -18.3580 C   0  0  0  0  0  0  0  0  0  0  0  0
  -26.9640  -28.3930  -18.0820 C   0  0  0  0  0  0  0  0  0  0  0  0
  4  2  1  0
  3  2  2  0
  2  1  2  0
  5  2  1  0
  6  5  1  0
  6 10  1  0
 10  9  1  0
  9  8  1  0
  8  7  1  0
  7  6  1  0
M  END
>  <id>  (4) 
16

>  <inchikey>  (4) 
IJXUJLYIQLLJEP-UHFFFAOYSA-N

>  <alias>  (4) 
d0172a

>  <name>  (4) 
d0172a

>  <smiles>  (4) 
CS(=O)(=O)NC1CCCC1

>  <path>  (4) 
/opt/xchem-fragalysis-2/maxwin/BulkDock/TARGETS/Flavi_NS5_RdRp/aligned_files/d0172a/d0172a.pdb

>  <distance_score>  (4) 
None

>  <energy_score>  (4) 
None

>  <compound>  (4) 
IJXUJLYIQLLJEP-UHFFFAOYSA-N

>  <compound_id>  (4) 
13

>  <target>  (4) 
Flavi_NS5_RdRp

$$$$
DNV2_NS5A-x0411_A_1707_1_DNV2_NS5A-x0411+A+1707+1
     RDKit          3D

 13 14  0  0  0  0  0  0  0  0999 V2000
  -20.1390  -32.6650  -23.9690 C   0  0  0  0  0  0  0  0  0  0  0  0
  -20.2690  -32.7630  -22.5490 O   0  0  0  0  0  0  0  0  0  0  0  0
  -21.5010  -32.5230  -22.0060 C   0  0  0  0  0  0  0  0  0  0  0  0
  -21.5220  -31.7780  -20.8160 C   0  0  0  0  0  0  0  0  0  0  0  0
  -22.7560  -31.5050  -20.2240 C   0  0  0  0  0  0  0  0  0  0  0  0
  -23.9300  -31.9700  -20.7940 C   0  0  0  0  0  0  0  0  0  0  0  0
  -23.8940  -32.7080  -21.9540 C   0  0  0  0  0  0  0  0  0  0  0  0
  -22.6840  -32.9880  -22.5670 C   0  0  0  0  0  0  0  0  0  0  0  0
  -20.3050  -31.3110  -20.1300 C   0  0  0  0  0  0  0  0  0  0  0  0
  -19.1050  -31.2760  -20.7820 O   0  0  0  0  0  0  0  0  0  0  0  0
  -18.2480  -30.8040  -19.8430 C   0  0  0  0  0  0  0  0  0  0  0  0
  -18.8850  -30.5530  -18.7140 N   0  0  0  0  0  0  0  0  0  0  0  0
  -20.2150  -30.8920  -18.9120 N   0  0  0  0  0  0  0  0  0  0  0  0
  2  1  1  0
  3  2  1  0
  3  8  2  0
  8  7  1  0
  7  6  2  0
  6  5  1  0
  5  4  2  0
  4  3  1  0
  9  4  1  0
  9 13  2  0
 13 12  1  0
 12 11  2  0
 11 10  1  0
 10  9  1  0
M  END
>  <id>  (5) 
37

>  <inchikey>  (5) 
CMZBFAJLBDAJMC-UHFFFAOYSA-N

>  <alias>  (5) 
d0411a

>  <name>  (5) 
d0411a

>  <smiles>  (5) 
COc1ccccc1-c1nnco1

>  <path>  (5) 
/opt/xchem-fragalysis-2/maxwin/BulkDock/TARGETS/Flavi_NS5_RdRp/aligned_files/d0411a/d0411a.pdb

>  <distance_score>  (5) 
None

>  <energy_score>  (5) 
None

>  <compound>  (5) 
CMZBFAJLBDAJMC-UHFFFAOYSA-N

>  <compound_id>  (5) 
31

>  <target>  (5) 
Flavi_NS5_RdRp

$$$$
None
     RDKit          3D

 12 13  0  0  0  0  0  0  0  0999 V2000
  -25.7860  -30.1580  -22.6030 N   0  0  0  0  0  0  0  0  0  0  0  0
  -25.4350  -29.2880  -21.6020 C   0  0  0  0  0  0  0  0  0  0  0  0
  -25.4900  -29.6630  -20.2360 C   0  0  0  0  0  0  0  0  0  0  0  0
  -25.2560  -28.8050  -19.2310 N   0  0  0  0  0  0  0  0  0  0  0  0
  -24.9150  -27.5420  -19.5530 C   0  0  0  0  0  0  0  0  0  0  0  0
  -24.7950  -27.0890  -20.8520 C   0  0  0  0  0  0  0  0  0  0  0  0
  -25.0600  -27.9730  -21.8820 C   0  0  0  0  0  0  0  0  0  0  0  0
  -25.6910  -31.0170  -19.8210 N   0  0  0  0  0  0  0  0  0  0  0  0
  -26.5140  -31.9480  -20.4250 C   0  0  0  0  0  0  0  0  0  0  0  0
  -26.3550  -33.1370  -19.7780 C   0  0  0  0  0  0  0  0  0  0  0  0
  -25.4190  -32.9400  -18.7410 C   0  0  0  0  0  0  0  0  0  0  0  0
  -25.0260  -31.6340  -18.7800 C   0  0  0  0  0  0  0  0  0  0  0  0
  2  1  1  0
  2  7  2  0
  7  6  1  0
  6  5  2  0
  5  4  1  0
  4  3  2  0
  3  2  1  0
  8  3  1  0
  8 12  1  0
 12 11  2  0
 11 10  1  0
 10  9  2  0
  9  8  1  0
M  END
>  <id>  (6) 
41

>  <inchikey>  (6) 
QCTDPVKLZRURRV-UHFFFAOYSA-N

>  <alias>  (6) 
d0472b

>  <name>  (6) 
d0472b

>  <smiles>  (6) 
Nc1cccnc1-n1cccc1

>  <path>  (6) 
/opt/xchem-fragalysis-2/maxwin/BulkDock/TARGETS/Flavi_NS5_RdRp/aligned_files/d0472b/d0472b.pdb

>  <distance_score>  (6) 
None

>  <energy_score>  (6) 
None

>  <compound>  (6) 
QCTDPVKLZRURRV-UHFFFAOYSA-N

>  <compound_id>  (6) 
35

>  <target>  (6) 
Flavi_NS5_RdRp

$$$$
Zika_NS5A-x0041_A_1201_1_Zika_NS5A-x0351+A+1112+1
     RDKit          3D

 14 15  0  0  0  0  0  0  0  0999 V2000
  -23.7940  -31.6120  -20.1450 O   0  0  0  0  0  0  0  0  0  0  0  0
  -24.9110  -31.1150  -20.2580 C   0  0  0  0  0  0  0  0  0  0  0  0
  -25.5170  -30.9790  -21.4320 N   0  0  0  0  0  0  0  0  0  0  0  0
  -25.4800  -32.0210  -22.4400 C   0  0  0  0  0  0  0  0  0  0  0  0
  -25.6570  -30.6310  -19.0670 C   0  0  0  0  0  0  0  0  0  0  0  0
  -27.0610  -30.2840  -18.9700 C   0  0  0  0  0  0  0  0  0  0  0  0
  -27.3130  -30.0000  -17.6170 C   0  0  0  0  0  0  0  0  0  0  0  0
  -26.1280  -30.1440  -16.9230 N   0  0  0  0  0  0  0  0  0  0  0  0
  -25.9570  -29.9770  -15.4860 C   0  0  0  0  0  0  0  0  0  0  0  0
  -25.1470  -30.5130  -17.8020 C   0  0  0  0  0  0  0  0  0  0  0  0
  -28.1200  -30.2470  -19.8740 C   0  0  0  0  0  0  0  0  0  0  0  0
  -29.4000  -29.9670  -19.4170 C   0  0  0  0  0  0  0  0  0  0  0  0
  -29.6330  -29.7030  -18.0730 C   0  0  0  0  0  0  0  0  0  0  0  0
  -28.5900  -29.7040  -17.1580 C   0  0  0  0  0  0  0  0  0  0  0  0
  4  3  1  0
  3  2  1  0
  2  1  2  0
  5  2  1  0
  5 10  2  0
 10  8  1  0
  9  8  1  0
  8  7  1  0
  7 14  2  0
 14 13  1  0
 13 12  2  0
 12 11  1  0
 11  6  2  0
  6  5  1  0
  7  6  1  0
M  END
>  <id>  (7) 
82

>  <inchikey>  (7) 
OHXYWSIWHXTWCT-UHFFFAOYSA-N

>  <alias>  (7) 
z0041a

>  <name>  (7) 
z0041a

>  <smiles>  (7) 
CNC(=O)c1cn(C)c2ccccc12

>  <path>  (7) 
/opt/xchem-fragalysis-2/maxwin/BulkDock/TARGETS/Flavi_NS5_RdRp/aligned_files/z0041a/z0041a.pdb

>  <distance_score>  (7) 
None

>  <energy_score>  (7) 
None

>  <compound>  (7) 
OHXYWSIWHXTWCT-UHFFFAOYSA-N

>  <compound_id>  (7) 
68

>  <target>  (7) 
Flavi_NS5_RdRp

$$$$
Zika_NS5A-x0107_A_1110_1_Zika_NS5A-x0351+A+1112+1
     RDKit          3D

 11 12  0  0  0  0  0  0  0  0999 V2000
  -28.7550  -30.5520  -15.3790 C   0  0  0  0  0  0  0  0  0  0  0  0
  -27.7590  -29.6450  -15.8380 O   0  0  0  0  0  0  0  0  0  0  0  0
  -27.1650  -29.9140  -17.0370 C   0  0  0  0  0  0  0  0  0  0  0  0
  -28.0240  -29.9100  -18.1480 C   0  0  0  0  0  0  0  0  0  0  0  0
  -29.4330  -29.7010  -18.3320 C   0  0  0  0  0  0  0  0  0  0  0  0
  -29.6810  -29.8560  -19.6560 C   0  0  0  0  0  0  0  0  0  0  0  0
  -28.5190  -30.1470  -20.3210 N   0  0  0  0  0  0  0  0  0  0  0  0
  -27.4840  -30.1940  -19.4180 C   0  0  0  0  0  0  0  0  0  0  0  0
  -26.1330  -30.4860  -19.5890 C   0  0  0  0  0  0  0  0  0  0  0  0
  -25.3050  -30.4840  -18.4690 C   0  0  0  0  0  0  0  0  0  0  0  0
  -25.8110  -30.1960  -17.2020 C   0  0  0  0  0  0  0  0  0  0  0  0
  2  1  1  0
  3  2  1  0
  3 11  2  0
 11 10  1  0
 10  9  2  0
  9  8  1  0
  8  7  1  0
  7  6  1  0
  6  5  2  0
  5  4  1  0
  4  3  1  0
  8  4  2  0
M  END
>  <id>  (8) 
86

>  <inchikey>  (8) 
LUNOXNMCFPFPMO-UHFFFAOYSA-N

>  <alias>  (8) 
z0107a

>  <name>  (8) 
z0107a

>  <smiles>  (8) 
COc1cccc2[nH]ccc12

>  <path>  (8) 
/opt/xchem-fragalysis-2/maxwin/BulkDock/TARGETS/Flavi_NS5_RdRp/aligned_files/z0107a/z0107a.pdb

>  <distance_score>  (8) 
None

>  <energy_score>  (8) 
None

>  <compound>  (8) 
LUNOXNMCFPFPMO-UHFFFAOYSA-N

>  <compound_id>  (8) 
71

>  <target>  (8) 
Flavi_NS5_RdRp

$$$$
Zika_NS5A-x0111_A_1201_1_Zika_NS5A-x0351+A+1112+1
     RDKit          3D

 12 13  0  0  0  0  0  0  0  0999 V2000
  -25.3030  -31.2440  -20.6040 C   0  0  0  0  0  0  0  0  0  0  0  0
  -26.2370  -30.1530  -20.7810 N   0  0  0  0  0  0  0  0  0  0  0  0
  -27.4370  -30.1020  -20.1780 C   0  0  0  0  0  0  0  0  0  0  0  0
  -27.5310  -30.0830  -18.7350 C   0  0  0  0  0  0  0  0  0  0  0  0
  -28.8350  -30.0110  -18.1720 C   0  0  0  0  0  0  0  0  0  0  0  0
  -29.9450  -29.9760  -19.0390 C   0  0  0  0  0  0  0  0  0  0  0  0
  -29.7370  -29.9860  -20.3820 C   0  0  0  0  0  0  0  0  0  0  0  0
  -28.5250  -30.0410  -20.9520 N   0  0  0  0  0  0  0  0  0  0  0  0
  -26.4230  -30.1010  -17.8430 C   0  0  0  0  0  0  0  0  0  0  0  0
  -26.6070  -30.0480  -16.4900 C   0  0  0  0  0  0  0  0  0  0  0  0
  -27.8780  -29.9700  -15.9560 C   0  0  0  0  0  0  0  0  0  0  0  0
  -28.9740  -29.9500  -16.7680 C   0  0  0  0  0  0  0  0  0  0  0  0
  2  1  1  0
  3  2  1  0
  3  8  2  0
  8  7  1  0
  7  6  2  0
  6  5  1  0
  5 12  2  0
 12 11  1  0
 11 10  2  0
 10  9  1  0
  9  4  2  0
  4  3  1  0
  5  4  1  0
M  END
>  <id>  (9) 
88

>  <inchikey>  (9) 
BILUZSWZYDFPMN-UHFFFAOYSA-N

>  <alias>  (9) 
z0111a

>  <name>  (9) 
z0111a

>  <smiles>  (9) 
CNc1nccc2ccccc12

>  <path>  (9) 
/opt/xchem-fragalysis-2/maxwin/BulkDock/TARGETS/Flavi_NS5_RdRp/aligned_files/z0111a/z0111a.pdb

>  <distance_score>  (9) 
None

>  <energy_score>  (9) 
None

>  <compound>  (9) 
BILUZSWZYDFPMN-UHFFFAOYSA-N

>  <compound_id>  (9) 
72

>  <target>  (9) 
Flavi_NS5_RdRp

$$$$
Zika_NS5A-x0200_A_1112_1_Zika_NS5A-x0351+A+1112+1
     RDKit          3D

 14 15  0  0  0  0  0  0  0  0999 V2000
  -25.5180  -30.8140  -19.9410 O   0  0  0  0  0  0  0  0  0  0  0  0
  -26.4530  -30.0200  -19.9980 C   0  0  0  0  0  0  0  0  0  0  0  0
  -26.2900  -28.7010  -19.9630 N   0  0  0  0  0  0  0  0  0  0  0  0
  -25.0670  -28.0590  -20.4080 C   0  0  0  0  0  0  0  0  0  0  0  0
  -27.8920  -30.4910  -20.0450 C   0  0  1  0  0  0  0  0  0  0  0  0
  -28.4700  -30.4180  -18.7050 C   0  0  0  0  0  0  0  0  0  0  0  0
  -27.7220  -30.2860  -17.5570 N   0  0  0  0  0  0  0  0  0  0  0  0
  -28.4820  -30.2510  -16.5010 C   0  0  0  0  0  0  0  0  0  0  0  0
  -27.9580  -30.1810  -15.1070 C   0  0  0  0  0  0  0  0  0  0  0  0
  -30.1750  -30.3600  -16.8280 S   0  0  0  0  0  0  0  0  0  0  0  0
  -29.8140  -30.4790  -18.5180 C   0  0  0  0  0  0  0  0  0  0  0  0
  -30.8560  -30.3040  -19.5830 C   0  0  0  0  0  0  0  0  0  0  0  0
  -30.2130  -30.2150  -20.9710 C   0  0  0  0  0  0  0  0  0  0  0  0
  -28.8090  -29.6280  -20.9240 C   0  0  0  0  0  0  0  0  0  0  0  0
  4  3  1  0
  3  2  1  0
  2  1  2  0
  5  2  1  1
  5 14  1  0
 14 13  1  0
 13 12  1  0
 12 11  1  0
 11 10  1  0
 10  8  1  0
  9  8  1  0
  8  7  2  0
  7  6  1  0
  6  5  1  0
 11  6  2  0
M  END
>  <id>  (10) 
100

>  <inchikey>  (10) 
VHNBWPBVIQVVTE-SSDOTTSWSA-N

>  <alias>  (10) 
z0200a

>  <name>  (10) 
z0200a

>  <smiles>  (10) 
CNC(=O)[C@@H]1CCCc2sc(C)nc21

>  <path>  (10) 
/opt/xchem-fragalysis-2/maxwin/BulkDock/TARGETS/Flavi_NS5_RdRp/aligned_files/z0200a/z0200a.pdb

>  <distance_score>  (10) 
None

>  <energy_score>  (10) 
None

>  <compound>  (10) 
VHNBWPBVIQVVTE-UHFFFAOYSA-N

>  <compound_id>  (10) 
79

>  <target>  (10) 
Flavi_NS5_RdRp

$$$$
Zika_NS5A-x0211_A_1113_1_Zika_NS5A-x0351+A+1112+1
     RDKit          3D

 14 14  0  0  0  0  0  0  0  0999 V2000
  -26.1990  -31.1140  -22.7050 O   0  0  0  0  0  0  0  0  0  0  0  0
  -25.4400  -31.2080  -21.7450 C   0  0  0  0  0  0  0  0  0  0  0  0
  -24.1640  -31.6450  -21.8600 N   0  0  0  0  0  0  0  0  0  0  0  0
  -23.5970  -32.0810  -23.1290 C   0  0  0  0  0  0  0  0  0  0  0  0
  -22.0380  -31.9840  -23.0990 C   0  0  1  0  0  0  0  0  0  0  0  0
  -21.5440  -31.8850  -21.7560 O   0  0  0  0  0  0  0  0  0  0  0  0
  -21.3930  -33.1630  -23.7940 C   0  0  0  0  0  0  0  0  0  0  0  0
  -25.7870  -30.8530  -20.4680 N   0  0  0  0  0  0  0  0  0  0  0  0
  -27.0380  -30.3840  -20.0010 C   0  0  0  0  0  0  0  0  0  0  0  0
  -27.1570  -30.1750  -18.6330 C   0  0  0  0  0  0  0  0  0  0  0  0
  -28.3980  -29.9090  -18.0800 C   0  0  0  0  0  0  0  0  0  0  0  0
  -29.5160  -29.8390  -18.8790 C   0  0  0  0  0  0  0  0  0  0  0  0
  -29.3970  -30.0030  -20.2420 C   0  0  0  0  0  0  0  0  0  0  0  0
  -28.1630  -30.2660  -20.8110 C   0  0  0  0  0  0  0  0  0  0  0  0
  5  7  1  1
  6  5  1  0
  5  4  1  0
  4  3  1  0
  3  2  1  0
  2  1  2  0
  8  2  1  0
  9  8  1  0
  9 14  2  0
 14 13  1  0
 13 12  2  0
 12 11  1  0
 11 10  2  0
 10  9  1  0
M  END
>  <id>  (11) 
102

>  <inchikey>  (11) 
XEAXHIGGZMUNSO-QMMMGPOBSA-N

>  <alias>  (11) 
z0211a

>  <name>  (11) 
z0211a

>  <smiles>  (11) 
C[C@H](O)CNC(=O)Nc1ccccc1

>  <path>  (11) 
/opt/xchem-fragalysis-2/maxwin/BulkDock/TARGETS/Flavi_NS5_RdRp/aligned_files/z0211a/z0211a.pdb

>  <distance_score>  (11) 
None

>  <energy_score>  (11) 
None

>  <compound>  (11) 
XEAXHIGGZMUNSO-UHFFFAOYSA-N

>  <compound_id>  (11) 
81

>  <target>  (11) 
Flavi_NS5_RdRp

$$$$
Zika_NS5A-x0215_A_1112_1_Zika_NS5A-x0351+A+1112+1
     RDKit          3D

 12 13  0  0  0  0  0  0  0  0999 V2000
  -28.0730  -30.6860  -14.1880 F   0  0  0  0  0  0  0  0  0  0  0  0
  -28.0780  -30.4490  -15.5200 C   0  0  0  0  0  0  0  0  0  0  0  0
  -29.2700  -30.2450  -16.1640 C   0  0  0  0  0  0  0  0  0  0  0  0
  -29.3240  -30.0520  -17.4900 N   0  0  0  0  0  0  0  0  0  0  0  0
  -28.1640  -30.0640  -18.1700 C   0  0  0  0  0  0  0  0  0  0  0  0
  -26.9290  -30.2510  -17.5590 C   0  0  0  0  0  0  0  0  0  0  0  0
  -26.8960  -30.4490  -16.1920 C   0  0  0  0  0  0  0  0  0  0  0  0
  -28.2710  -29.9050  -19.6250 C   0  0  0  0  0  0  0  0  0  0  0  0
  -29.4610  -29.8240  -20.2350 N   0  0  0  0  0  0  0  0  0  0  0  0
  -29.1770  -29.6760  -21.5490 N   0  0  0  0  0  0  0  0  0  0  0  0
  -27.8590  -29.6660  -21.7770 C   0  0  0  0  0  0  0  0  0  0  0  0
  -27.2340  -29.8110  -20.5710 C   0  0  0  0  0  0  0  0  0  0  0  0
  2  1  1  0
  2  7  2  0
  7  6  1  0
  6  5  2  0
  5  4  1  0
  4  3  2  0
  3  2  1  0
  8  5  1  0
  8 12  1  0
 12 11  2  0
 11 10  1  0
 10  9  1  0
  9  8  2  0
M  END
>  <id>  (12) 
104

>  <inchikey>  (12) 
ADBMBWBQQBJNNZ-UHFFFAOYSA-N

>  <alias>  (12) 
z0215a

>  <name>  (12) 
z0215a

>  <smiles>  (12) 
Fc1ccc(-c2cc[nH]n2)nc1

>  <path>  (12) 
/opt/xchem-fragalysis-2/maxwin/BulkDock/TARGETS/Flavi_NS5_RdRp/aligned_files/z0215a/z0215a.pdb

>  <distance_score>  (12) 
None

>  <energy_score>  (12) 
None

>  <compound>  (12) 
ADBMBWBQQBJNNZ-UHFFFAOYSA-N

>  <compound_id>  (12) 
82

>  <target>  (12) 
Flavi_NS5_RdRp

$$$$
Zika_NS5A-x0221_A_1112_1_Zika_NS5A-x0351+A+1112+1
     RDKit          3D

 18 19  0  0  0  0  0  0  0  0999 V2000
  -25.4080  -27.4780  -21.0560 F   0  0  0  0  0  0  0  0  0  0  0  0
  -25.7410  -28.1430  -22.1890 C   0  0  0  0  0  0  0  0  0  0  0  0
  -25.3090  -27.6380  -23.3910 C   0  0  0  0  0  0  0  0  0  0  0  0
  -25.5500  -28.2750  -24.5430 N   0  0  0  0  0  0  0  0  0  0  0  0
  -26.2310  -29.4240  -24.4820 C   0  0  0  0  0  0  0  0  0  0  0  0
  -26.6990  -29.9870  -23.3080 C   0  0  0  0  0  0  0  0  0  0  0  0
  -26.4620  -29.3240  -22.1060 C   0  0  0  0  0  0  0  0  0  0  0  0
  -27.0190  -29.9400  -20.8600 C   0  0  0  0  0  0  0  0  0  0  0  0
  -26.9940  -31.1560  -20.6880 O   0  0  0  0  0  0  0  0  0  0  0  0
  -27.5210  -29.0760  -19.9520 N   0  0  0  0  0  0  0  0  0  0  0  0
  -28.0240  -29.5100  -18.6960 C   0  0  0  0  0  0  0  0  0  0  0  0
  -27.2170  -29.3670  -17.5620 C   0  0  0  0  0  0  0  0  0  0  0  0
  -25.8040  -28.8510  -17.6610 C   0  0  0  0  0  0  0  0  0  0  0  0
  -29.3200  -30.0320  -18.6040 C   0  0  0  0  0  0  0  0  0  0  0  0
  -29.7990  -30.6560  -19.7130 O   0  0  0  0  0  0  0  0  0  0  0  0
  -29.8190  -30.3850  -17.3540 C   0  0  0  0  0  0  0  0  0  0  0  0
  -29.0390  -30.2280  -16.2220 C   0  0  0  0  0  0  0  0  0  0  0  0
  -27.7530  -29.7330  -16.3280 C   0  0  0  0  0  0  0  0  0  0  0  0
 13 12  1  0
 12 18  2  0
 18 17  1  0
 17 16  2  0
 16 14  1  0
 15 14  1  0
 14 11  2  0
 12 11  1  0
 11 10  1  0
 10  8  1  0
  9  8  2  0
  8  7  1  0
  7  6  2  0
  6  5  1  0
  5  4  2  0
  4  3  1  0
  3  2  2  0
  7  2  1  0
  2  1  1  0
M  END
>  <id>  (13) 
105

>  <inchikey>  (13) 
PDGRBWXZTBUJKY-UHFFFAOYSA-N

>  <alias>  (13) 
z0221a

>  <name>  (13) 
z0221a

>  <smiles>  (13) 
Cc1cccc(O)c1NC(=O)c1ccncc1F

>  <path>  (13) 
/opt/xchem-fragalysis-2/maxwin/BulkDock/TARGETS/Flavi_NS5_RdRp/aligned_files/z0221a/z0221a.pdb

>  <distance_score>  (13) 
None

>  <energy_score>  (13) 
None

>  <compound>  (13) 
PDGRBWXZTBUJKY-UHFFFAOYSA-N

>  <compound_id>  (13) 
83

>  <target>  (13) 
Flavi_NS5_RdRp

$$$$
Zika_NS5A-x0309_A_1112_1_Zika_NS5A-x0351+A+1112+1
     RDKit          3D

 14 14  0  0  0  0  0  0  0  0999 V2000
  -23.6540  -31.1630  -17.6210 O   0  0  0  0  0  0  0  0  0  0  0  0
  -24.2050  -31.3870  -18.6950 C   0  0  0  0  0  0  0  0  0  0  0  0
  -23.5280  -32.2260  -19.7870 C   0  0  0  0  0  0  0  0  0  0  0  0
  -22.9580  -33.4130  -19.1580 N   0  0  0  0  0  0  0  0  0  0  0  0
  -25.4280  -30.9280  -19.0280 N   0  0  0  0  0  0  0  0  0  0  0  0
  -26.4500  -30.4840  -18.1640 C   0  0  0  0  0  0  0  0  0  0  0  0
  -27.5480  -29.8970  -18.7640 C   0  0  0  0  0  0  0  0  0  0  0  0
  -27.4150  -29.6780  -20.1030 O   0  0  0  0  0  0  0  0  0  0  0  0
  -28.0880  -30.5600  -20.9790 C   0  0  0  0  0  0  0  0  0  0  0  0
  -26.4280  -30.6370  -16.7850 C   0  0  0  0  0  0  0  0  0  0  0  0
  -27.5020  -30.2330  -16.0070 C   0  0  0  0  0  0  0  0  0  0  0  0
  -27.4680  -30.3860  -14.5070 C   0  0  0  0  0  0  0  0  0  0  0  0
  -28.6030  -29.6790  -16.6400 C   0  0  0  0  0  0  0  0  0  0  0  0
  -28.6380  -29.5060  -18.0110 C   0  0  0  0  0  0  0  0  0  0  0  0
  9  8  1  0
  8  7  1  0
  7 14  2  0
 14 13  1  0
 13 11  2  0
 12 11  1  0
 11 10  1  0
 10  6  2  0
  7  6  1  0
  6  5  1  0
  5  2  1  0
  2  1  2  0
  3  2  1  0
  4  3  1  0
M  END
>  <id>  (14) 
113

>  <inchikey>  (14) 
SRFLDWOWAGQZAD-UHFFFAOYSA-N

>  <alias>  (14) 
z0309a

>  <name>  (14) 
z0309a

>  <smiles>  (14) 
COc1ccc(C)cc1NC(=O)CN

>  <path>  (14) 
/opt/xchem-fragalysis-2/maxwin/BulkDock/TARGETS/Flavi_NS5_RdRp/aligned_files/z0309a/z0309a.pdb

>  <distance_score>  (14) 
None

>  <energy_score>  (14) 
None

>  <compound>  (14) 
SRFLDWOWAGQZAD-UHFFFAOYSA-N

>  <compound_id>  (14) 
88

>  <target>  (14) 
Flavi_NS5_RdRp

$$$$
Zika_NS5A-x0351_A_1112_1_Zika_NS5A-x0351+A+1112+1
     RDKit          3D

 18 19  0  0  0  0  0  0  0  0999 V2000
  -25.9990  -31.0270  -23.1110 O   0  0  0  0  0  0  0  0  0  0  0  0
  -25.3140  -31.3850  -22.1670 C   0  0  0  0  0  0  0  0  0  0  0  0
  -24.1240  -32.0120  -22.3580 N   0  0  0  0  0  0  0  0  0  0  0  0
  -23.2160  -32.3130  -21.2480 C   0  0  0  0  0  0  0  0  0  0  0  0
  -21.8070  -32.4330  -21.7640 C   0  0  0  0  0  0  0  0  0  0  0  0
  -21.7080  -33.4060  -22.7980 O   0  0  0  0  0  0  0  0  0  0  0  0
  -22.5390  -33.0350  -23.8880 C   0  0  0  0  0  0  0  0  0  0  0  0
  -23.9830  -32.9480  -23.4770 C   0  0  0  0  0  0  0  0  0  0  0  0
  -25.6800  -31.1850  -20.8780 N   0  0  0  0  0  0  0  0  0  0  0  0
  -26.8780  -30.5610  -20.4540 C   0  0  0  0  0  0  0  0  0  0  0  0
  -27.7480  -29.9970  -21.3780 C   0  0  0  0  0  0  0  0  0  0  0  0
  -28.9340  -29.4260  -20.9520 C   0  0  0  0  0  0  0  0  0  0  0  0
  -29.2560  -29.4110  -19.6070 C   0  0  0  0  0  0  0  0  0  0  0  0
  -27.1990  -30.5380  -19.1020 C   0  0  0  0  0  0  0  0  0  0  0  0
  -28.3920  -29.9640  -18.6730 C   0  0  0  0  0  0  0  0  0  0  0  0
  -28.7280  -29.9520  -17.2240 C   0  0  0  0  0  0  0  0  0  0  0  0
  -29.8350  -30.2940  -16.8460 O   0  0  0  0  0  0  0  0  0  0  0  0
  -27.6880  -29.5300  -16.2380 C   0  0  0  0  0  0  0  0  0  0  0  0
 18 16  1  0
 17 16  2  0
 16 15  1  0
 15 13  2  0
 13 12  1  0
 12 11  2  0
 11 10  1  0
 10  9  1  0
  9  2  1  0
  2  1  2  0
  3  2  1  0
  3  8  1  0
  8  7  1  0
  7  6  1  0
  6  5  1  0
  5  4  1  0
  4  3  1  0
 14 10  2  0
 15 14  1  0
M  END
>  <id>  (15) 
115

>  <inchikey>  (15) 
GFGGXIIHWJXKMZ-UHFFFAOYSA-N

>  <alias>  (15) 
z0351a

>  <name>  (15) 
z0351a

>  <smiles>  (15) 
CC(=O)c1cccc(NC(=O)N2CCOCC2)c1

>  <path>  (15) 
/opt/xchem-fragalysis-2/maxwin/BulkDock/TARGETS/Flavi_NS5_RdRp/aligned_files/z0351a/z0351a.pdb

>  <distance_score>  (15) 
None

>  <energy_score>  (15) 
None

>  <compound>  (15) 
GFGGXIIHWJXKMZ-UHFFFAOYSA-N

>  <compound_id>  (15) 
90

>  <target>  (15) 
Flavi_NS5_RdRp

$$$$
Zika_NS5A-x0364_A_1201_1_Zika_NS5A-x0351+A+1112+1
     RDKit          3D

 14 15  0  0  0  0  0  0  0  0999 V2000
  -21.5580  -27.4770  -20.1280 O   0  0  0  0  0  0  0  0  0  0  0  0
  -22.4970  -26.8890  -19.6080 C   0  0  0  0  0  0  0  0  0  0  0  0
  -22.3030  -25.6090  -18.8520 C   0  0  0  0  0  0  0  0  0  0  0  0
  -23.7430  -27.3820  -19.6330 N   0  0  0  0  0  0  0  0  0  0  0  0
  -24.9250  -26.5790  -19.9430 C   0  0  2  0  0  0  0  0  0  0  0  0
  -26.0820  -26.9280  -19.0170 C   0  0  0  0  0  0  0  0  0  0  0  0
  -26.7870  -28.2090  -19.4080 C   0  0  0  0  0  0  0  0  0  0  0  0
  -26.8480  -28.6100  -20.7500 C   0  0  0  0  0  0  0  0  0  0  0  0
  -26.0350  -27.9970  -21.6530 N   0  0  0  0  0  0  0  0  0  0  0  0
  -25.3240  -26.7650  -21.3970 C   0  0  0  0  0  0  0  0  0  0  0  0
  -27.5350  -28.9200  -18.4700 C   0  0  0  0  0  0  0  0  0  0  0  0
  -28.3720  -29.9530  -18.8610 C   0  0  0  0  0  0  0  0  0  0  0  0
  -28.4630  -30.3030  -20.1880 C   0  0  0  0  0  0  0  0  0  0  0  0
  -27.6980  -29.6470  -21.1390 C   0  0  0  0  0  0  0  0  0  0  0  0
  3  2  1  0
  2  1  2  0
  4  2  1  0
  5  4  1  1
  5 10  1  0
 10  9  1  0
  9  8  1  0
  8 14  2  0
 14 13  1  0
 13 12  2  0
 12 11  1  0
 11  7  2  0
  8  7  1  0
  7  6  1  0
  6  5  1  0
M  END
>  <id>  (16) 
118

>  <inchikey>  (16) 
HCEIEGOMGWEGOJ-SNVBAGLBSA-N

>  <alias>  (16) 
z0364a

>  <name>  (16) 
z0364a

>  <smiles>  (16) 
CC(=O)N[C@H]1CNc2ccccc2C1

>  <path>  (16) 
/opt/xchem-fragalysis-2/maxwin/BulkDock/TARGETS/Flavi_NS5_RdRp/aligned_files/z0364a/z0364a.pdb

>  <distance_score>  (16) 
None

>  <energy_score>  (16) 
None

>  <compound>  (16) 
HCEIEGOMGWEGOJ-UHFFFAOYSA-N

>  <compound_id>  (16) 
92

>  <target>  (16) 
Flavi_NS5_RdRp

$$$$
Zika_NS5A-x0384_A_1112_1_Zika_NS5A-x0351+A+1112+1
     RDKit          3D

 11 11  0  0  0  0  0  0  0  0999 V2000
  -26.1330  -30.9650  -22.6040 O   0  0  0  0  0  0  0  0  0  0  0  0
  -26.3470  -30.8210  -21.4090 C   0  0  0  0  0  0  0  0  0  0  0  0
  -25.2710  -31.1060  -20.3880 C   0  0  0  0  0  0  0  0  0  0  0  0
  -23.9460  -31.5700  -21.0010 C   0  0  0  0  0  0  0  0  0  0  0  0
  -27.5950  -30.4510  -20.9770 N   0  0  0  0  0  0  0  0  0  0  0  0
  -27.9590  -30.2470  -19.6650 C   0  0  0  0  0  0  0  0  0  0  0  0
  -29.5920  -29.8580  -19.2640 S   0  0  0  0  0  0  0  0  0  0  0  0
  -29.1260  -29.8320  -17.6060 C   0  0  0  0  0  0  0  0  0  0  0  0
  -27.8110  -30.1120  -17.4610 C   0  0  0  0  0  0  0  0  0  0  0  0
  -27.1350  -30.3400  -18.6510 N   0  0  0  0  0  0  0  0  0  0  0  0
  -27.0710  -30.2360  -16.1650 C   0  0  0  0  0  0  0  0  0  0  0  0
  4  3  1  0
  3  2  1  0
  2  1  2  0
  5  2  1  0
  6  5  1  0
  6 10  2  0
 10  9  1  0
 11  9  1  0
  9  8  2  0
  8  7  1  0
  7  6  1  0
M  END
>  <id>  (17) 
120

>  <inchikey>  (17) 
AIOZNYOAFODHNA-UHFFFAOYSA-N

>  <alias>  (17) 
z0384a

>  <name>  (17) 
z0384a

>  <smiles>  (17) 
CCC(=O)Nc1nc(C)cs1

>  <path>  (17) 
/opt/xchem-fragalysis-2/maxwin/BulkDock/TARGETS/Flavi_NS5_RdRp/aligned_files/z0384a/z0384a.pdb

>  <distance_score>  (17) 
None

>  <energy_score>  (17) 
None

>  <compound>  (17) 
AIOZNYOAFODHNA-UHFFFAOYSA-N

>  <compound_id>  (17) 
94

>  <target>  (17) 
Flavi_NS5_RdRp

$$$$
Zika_NS5A-x0411_A_1107_1_Zika_NS5A-x0351+A+1112+1
     RDKit          3D

 18 19  0  0  0  0  0  0  0  0999 V2000
  -26.1440  -31.6230  -22.2200 O   0  0  0  0  0  0  0  0  0  0  0  0
  -25.2710  -31.3850  -21.3840 C   0  0  0  0  0  0  0  0  0  0  0  0
  -25.5410  -30.8030  -20.1630 N   0  0  0  0  0  0  0  0  0  0  0  0
  -26.8110  -30.4430  -19.6260 C   0  0  0  0  0  0  0  0  0  0  0  0
  -26.9660  -30.4870  -18.2440 C   0  0  0  0  0  0  0  0  0  0  0  0
  -28.2280  -30.3030  -17.7120 C   0  0  0  0  0  0  0  0  0  0  0  0
  -29.3150  -30.0900  -18.4540 N   0  0  0  0  0  0  0  0  0  0  0  0
  -29.1430  -30.0210  -19.7810 C   0  0  0  0  0  0  0  0  0  0  0  0
  -27.9240  -30.1710  -20.4110 C   0  0  0  0  0  0  0  0  0  0  0  0
  -23.9230  -31.6330  -21.5750 N   0  0  0  0  0  0  0  0  0  0  0  0
  -23.2810  -32.2240  -22.7030 C   0  0  0  0  0  0  0  0  0  0  0  0
  -21.8900  -32.3380  -22.7020 C   0  0  0  0  0  0  0  0  0  0  0  0
  -21.2380  -32.9890  -23.7400 C   0  0  0  0  0  0  0  0  0  0  0  0
  -24.0040  -32.7560  -23.7770 C   0  0  0  0  0  0  0  0  0  0  0  0
  -23.3530  -33.4130  -24.8110 C   0  0  0  0  0  0  0  0  0  0  0  0
  -21.9710  -33.5320  -24.7940 C   0  0  0  0  0  0  0  0  0  0  0  0
  -21.3580  -34.1360  -25.8640 O   0  0  0  0  0  0  0  0  0  0  0  0
  -21.6580  -35.5090  -26.1570 C   0  0  0  0  0  0  0  0  0  0  0  0
 18 17  1  0
 17 16  1  0
 16 13  1  0
 13 12  2  0
 12 11  1  0
 11 10  1  0
 10  2  1  0
  2  1  2  0
  3  2  1  0
  4  3  1  0
  4  9  2  0
  9  8  1  0
  8  7  2  0
  7  6  1  0
  6  5  2  0
  5  4  1  0
 14 11  2  0
 15 14  1  0
 16 15  2  0
M  END
>  <id>  (18) 
123

>  <inchikey>  (18) 
IFKGCTGEAFOLOL-UHFFFAOYSA-N

>  <alias>  (18) 
z0411a

>  <name>  (18) 
z0411a

>  <smiles>  (18) 
COc1ccc(NC(=O)Nc2ccncc2)cc1

>  <path>  (18) 
/opt/xchem-fragalysis-2/maxwin/BulkDock/TARGETS/Flavi_NS5_RdRp/aligned_files/z0411a/z0411a.pdb

>  <distance_score>  (18) 
None

>  <energy_score>  (18) 
None

>  <compound>  (18) 
IFKGCTGEAFOLOL-UHFFFAOYSA-N

>  <compound_id>  (18) 
97

>  <target>  (18) 
Flavi_NS5_RdRp

$$$$
Zika_NS5A-x0480_A_1112_1_Zika_NS5A-x0351+A+1112+1
     RDKit          3D

 15 15  0  0  0  0  0  0  0  0999 V2000
  -29.2960  -29.2050  -15.4910 Br  0  0  0  0  0  0  0  0  0  0  0  0
  -28.5930  -29.5770  -17.2060 C   0  0  0  0  0  0  0  0  0  0  0  0
  -27.2350  -29.5700  -17.3800 C   0  0  0  0  0  0  0  0  0  0  0  0
  -26.7250  -29.7590  -18.6460 C   0  0  0  0  0  0  0  0  0  0  0  0
  -29.4620  -29.7960  -18.2520 C   0  0  0  0  0  0  0  0  0  0  0  0
  -28.9690  -29.9790  -19.5390 C   0  0  0  0  0  0  0  0  0  0  0  0
  -29.9480  -30.1330  -20.6740 C   0  0  0  0  0  0  0  0  0  0  0  0
  -27.5790  -29.9540  -19.7280 C   0  0  0  0  0  0  0  0  0  0  0  0
  -26.9900  -30.0420  -21.0960 C   0  0  0  0  0  0  0  0  0  0  0  0
  -27.5280  -29.4830  -22.0450 O   0  0  0  0  0  0  0  0  0  0  0  0
  -25.8530  -30.7220  -21.2250 N   0  0  0  0  0  0  0  0  0  0  0  0
  -25.3570  -31.1420  -22.5220 C   0  0  0  0  0  0  0  0  0  0  0  0
  -25.1470  -32.6360  -22.4430 C   0  0  1  0  0  0  0  0  0  0  0  0
  -25.2810  -33.1310  -23.7820 O   0  0  0  0  0  0  0  0  0  0  0  0
  -23.7830  -32.9380  -21.8590 C   0  0  0  0  0  0  0  0  0  0  0  0
 13 15  1  6
 14 13  1  0
 13 12  1  0
 12 11  1  0
 11  9  1  0
 10  9  2  0
  9  8  1  0
  8  4  2  0
  4  3  1  0
  3  2  2  0
  2  1  1  0
  5  2  1  0
  6  5  2  0
  8  6  1  0
  7  6  1  0
M  END
>  <id>  (19) 
129

>  <inchikey>  (19) 
HQHHYEVBKMLQPP-QMMMGPOBSA-N

>  <alias>  (19) 
z0480a

>  <name>  (19) 
z0480a

>  <smiles>  (19) 
Cc1cc(Br)ccc1C(=O)NC[C@H](C)O

>  <path>  (19) 
/opt/xchem-fragalysis-2/maxwin/BulkDock/TARGETS/Flavi_NS5_RdRp/aligned_files/z0480a/z0480a.pdb

>  <distance_score>  (19) 
None

>  <energy_score>  (19) 
None

>  <compound>  (19) 
HQHHYEVBKMLQPP-UHFFFAOYSA-N

>  <compound_id>  (19) 
100

>  <target>  (19) 
Flavi_NS5_RdRp

$$$$
Zika_NS5A-x0483_A_1112_1_Zika_NS5A-x0351+A+1112+1
     RDKit          3D

 17 18  0  0  0  0  0  0  0  0999 V2000
  -29.1540  -28.7900  -17.1470 F   0  0  0  0  0  0  0  0  0  0  0  0
  -28.2140  -29.2590  -18.0100 C   0  0  0  0  0  0  0  0  0  0  0  0
  -26.9030  -29.2670  -17.6050 C   0  0  0  0  0  0  0  0  0  0  0  0
  -25.9600  -29.8420  -18.4390 C   0  0  0  0  0  0  0  0  0  0  0  0
  -28.6270  -29.7570  -19.2180 C   0  0  0  0  0  0  0  0  0  0  0  0
  -27.6800  -30.3300  -20.0490 C   0  0  0  0  0  0  0  0  0  0  0  0
  -26.3430  -30.3960  -19.6580 C   0  0  0  0  0  0  0  0  0  0  0  0
  -25.3650  -31.1020  -20.4030 N   0  0  0  0  0  0  0  0  0  0  0  0
  -25.3940  -31.3280  -21.7440 C   0  0  0  0  0  0  0  0  0  0  0  0
  -26.3100  -30.9230  -22.4570 O   0  0  0  0  0  0  0  0  0  0  0  0
  -24.3490  -32.0440  -22.2610 N   0  0  0  0  0  0  0  0  0  0  0  0
  -24.3310  -32.0160  -23.7320 C   0  0  0  0  0  0  0  0  0  0  0  0
  -23.5500  -33.1910  -24.2760 C   0  0  0  0  0  0  0  0  0  0  0  0
  -23.0060  -32.1660  -21.6670 C   0  0  0  0  0  0  0  0  0  0  0  0
  -22.2380  -33.3270  -22.2970 C   0  0  0  0  0  0  0  0  0  0  0  0
  -22.1900  -33.1910  -23.7510 N   0  0  0  0  0  0  0  0  0  0  0  0
  -21.4090  -34.2680  -24.3500 C   0  0  0  0  0  0  0  0  0  0  0  0
 17 16  1  0
 16 13  1  0
 13 12  1  0
 12 11  1  0
 14 11  1  0
 15 14  1  0
 16 15  1  0
 11  9  1  0
 10  9  2  0
  9  8  1  0
  8  7  1  0
  7  4  2  0
  4  3  1  0
  3  2  2  0
  2  1  1  0
  5  2  1  0
  6  5  2  0
  7  6  1  0
M  END
>  <id>  (20) 
133

>  <inchikey>  (20) 
MDBPFVSVLGYVCQ-UHFFFAOYSA-N

>  <alias>  (20) 
z0483a

>  <name>  (20) 
z0483a

>  <smiles>  (20) 
CN1CCN(C(=O)Nc2ccc(F)cc2)CC1

>  <path>  (20) 
/opt/xchem-fragalysis-2/maxwin/BulkDock/TARGETS/Flavi_NS5_RdRp/aligned_files/z0483a/z0483a.pdb

>  <distance_score>  (20) 
None

>  <energy_score>  (20) 
None

>  <compound>  (20) 
MDBPFVSVLGYVCQ-UHFFFAOYSA-N

>  <compound_id>  (20) 
102

>  <target>  (20) 
Flavi_NS5_RdRp

$$$$
Zika_NS5A-x0496_A_1013_1_Zika_NS5A-x0351+A+1112+1
     RDKit          3D

 15 16  0  0  0  0  0  0  0  0999 V2000
  -25.9590  -28.7680  -25.1600 N   0  0  0  0  0  0  0  0  0  0  0  0
  -26.0420  -28.4970  -23.8550 C   0  0  0  0  0  0  0  0  0  0  0  0
  -25.1620  -27.1780  -23.1240 S   0  0  0  0  0  0  0  0  0  0  0  0
  -26.8550  -29.1130  -23.0370 N   0  0  0  0  0  0  0  0  0  0  0  0
  -26.8350  -28.5260  -21.7860 C   0  0  0  0  0  0  0  0  0  0  0  0
  -26.0000  -27.4500  -21.6360 C   0  0  0  0  0  0  0  0  0  0  0  0
  -25.8900  -26.4610  -20.5040 C   0  0  0  0  0  0  0  0  0  0  0  0
  -27.7430  -29.0820  -20.7730 C   0  0  0  0  0  0  0  0  0  0  0  0
  -29.0480  -29.3700  -21.1360 C   0  0  0  0  0  0  0  0  0  0  0  0
  -29.9530  -29.8900  -20.2210 C   0  0  0  0  0  0  0  0  0  0  0  0
  -31.3530  -30.2010  -20.6760 C   0  0  0  0  0  0  0  0  0  0  0  0
  -29.5450  -30.1300  -18.9000 C   0  0  0  0  0  0  0  0  0  0  0  0
  -30.5170  -30.6340  -17.8710 C   0  0  0  0  0  0  0  0  0  0  0  0
  -28.2350  -29.8430  -18.5440 C   0  0  0  0  0  0  0  0  0  0  0  0
  -27.3440  -29.3200  -19.4600 C   0  0  0  0  0  0  0  0  0  0  0  0
  7  6  1  0
  6  3  1  0
  3  2  1  0
  2  1  1  0
  4  2  2  0
  5  4  1  0
  6  5  2  0
  8  5  1  0
  8 15  2  0
 15 14  1  0
 14 12  2  0
 13 12  1  0
 12 10  1  0
 11 10  1  0
 10  9  2  0
  9  8  1  0
M  END
>  <id>  (21) 
136

>  <inchikey>  (21) 
TYFLPTHRTUYMKD-UHFFFAOYSA-N

>  <alias>  (21) 
z0496a

>  <name>  (21) 
z0496a

>  <smiles>  (21) 
Cc1ccc(-c2nc(N)sc2C)cc1C

>  <path>  (21) 
/opt/xchem-fragalysis-2/maxwin/BulkDock/TARGETS/Flavi_NS5_RdRp/aligned_files/z0496a/z0496a.pdb

>  <distance_score>  (21) 
None

>  <energy_score>  (21) 
None

>  <compound>  (21) 
TYFLPTHRTUYMKD-UHFFFAOYSA-N

>  <compound_id>  (21) 
104

>  <target>  (21) 
Flavi_NS5_RdRp

$$$$
Zika_NS5A-x0519_A_1101_1_Zika_NS5A-x0351+A+1112+1
     RDKit          3D

 18 19  0  0  0  0  0  0  0  0999 V2000
  -27.0300  -32.7900  -23.7430 O   0  0  0  0  0  0  0  0  0  0  0  0
  -26.4970  -31.6890  -23.7610 C   0  0  0  0  0  0  0  0  0  0  0  0
  -26.7060  -30.6990  -24.6870 N   0  0  0  0  0  0  0  0  0  0  0  0
  -25.9630  -29.5610  -24.4020 C   0  0  0  0  0  0  0  0  0  0  0  0
  -25.9710  -28.5220  -25.0550 O   0  0  0  0  0  0  0  0  0  0  0  0
  -25.2560  -29.8060  -23.2780 N   0  0  0  0  0  0  0  0  0  0  0  0
  -25.4950  -31.1470  -22.7390 C   0  0  2  0  0  0  0  0  0  0  0  0
  -24.2050  -31.9720  -22.7210 C   0  0  0  0  0  0  0  0  0  0  0  0
  -26.1140  -31.1110  -21.3450 C   0  0  0  0  0  0  0  0  0  0  0  0
  -27.2380  -30.0820  -21.1900 C   0  0  0  0  0  0  0  0  0  0  0  0
  -27.7710  -30.0780  -19.7820 C   0  0  0  0  0  0  0  0  0  0  0  0
  -29.0850  -30.4210  -19.5110 C   0  0  0  0  0  0  0  0  0  0  0  0
  -29.5550  -30.4840  -18.2110 C   0  0  0  0  0  0  0  0  0  0  0  0
  -26.9350  -29.7890  -18.7170 C   0  0  0  0  0  0  0  0  0  0  0  0
  -27.3860  -29.8490  -17.4130 C   0  0  0  0  0  0  0  0  0  0  0  0
  -28.7000  -30.1960  -17.1580 C   0  0  0  0  0  0  0  0  0  0  0  0
  -29.1520  -30.2400  -15.8650 O   0  0  0  0  0  0  0  0  0  0  0  0
  -28.2380  -30.6540  -14.8460 C   0  0  0  0  0  0  0  0  0  0  0  0
 18 17  1  0
 17 16  1  0
 16 13  1  0
 13 12  2  0
 12 11  1  0
 11 10  1  0
 10  9  1  0
  9  7  1  0
  7  8  1  1
  7  6  1  0
  6  4  1  0
  5  4  2  0
  4  3  1  0
  3  2  1  0
  7  2  1  0
  2  1  2  0
 14 11  2  0
 15 14  1  0
 16 15  2  0
M  END
>  <id>  (22) 
140

>  <inchikey>  (22) 
HYRDVXQOZUFAFW-ZDUSSCGKSA-N

>  <alias>  (22) 
z0519a

>  <name>  (22) 
z0519a

>  <smiles>  (22) 
COc1ccc(CC[C@]2(C)NC(=O)NC2=O)cc1

>  <path>  (22) 
/opt/xchem-fragalysis-2/maxwin/BulkDock/TARGETS/Flavi_NS5_RdRp/aligned_files/z0519a/z0519a.pdb

>  <distance_score>  (22) 
None

>  <energy_score>  (22) 
None

>  <compound>  (22) 
HYRDVXQOZUFAFW-UHFFFAOYSA-N

>  <compound_id>  (22) 
106

>  <target>  (22) 
Flavi_NS5_RdRp

$$$$
Zika_NS5A-x0521_A_1112_1_Zika_NS5A-x0351+A+1112+1
     RDKit          3D

 15 16  0  0  0  0  0  0  0  0999 V2000
  -23.6500  -32.2510  -21.0470 C   0  0  0  0  0  0  0  0  0  0  0  0
  -24.9600  -31.6670  -20.6230 C   0  0  0  0  0  0  0  0  0  0  0  0
  -25.2400  -31.5020  -19.2520 C   0  0  0  0  0  0  0  0  0  0  0  0
  -25.7790  -31.2700  -21.5910 N   0  0  0  0  0  0  0  0  0  0  0  0
  -26.9060  -30.6550  -21.1980 C   0  0  0  0  0  0  0  0  0  0  0  0
  -27.2160  -30.4560  -19.8740 N   0  0  0  0  0  0  0  0  0  0  0  0
  -28.4100  -29.7860  -19.7700 N   0  0  0  0  0  0  0  0  0  0  0  0
  -28.7230  -29.6260  -21.0370 C   0  0  0  0  0  0  0  0  0  0  0  0
  -27.8600  -30.1260  -21.9580 N   0  0  0  0  0  0  0  0  0  0  0  0
  -26.4000  -30.8680  -18.8430 C   0  0  0  0  0  0  0  0  0  0  0  0
  -26.7210  -30.6310  -17.5040 N   0  0  0  0  0  0  0  0  0  0  0  0
  -25.6540  -30.7520  -16.4980 C   0  0  0  0  0  0  0  0  0  0  0  0
  -24.5430  -29.7450  -16.7020 C   0  0  0  0  0  0  0  0  0  0  0  0
  -27.8750  -29.8010  -17.1030 C   0  0  0  0  0  0  0  0  0  0  0  0
  -29.1800  -30.5550  -17.1140 C   0  0  0  0  0  0  0  0  0  0  0  0
 15 14  1  0
 14 11  1  0
 12 11  1  0
 13 12  1  0
 11 10  1  0
 10  3  2  0
  3  2  1  0
  2  1  1  0
  4  2  2  0
  5  4  1  0
  5  9  2  0
  9  8  1  0
  8  7  2  0
  7  6  1  0
 10  6  1  0
  6  5  1  0
M  END
>  <id>  (23) 
141

>  <inchikey>  (23) 
GSNOZLZNQMLSKJ-UHFFFAOYSA-N

>  <alias>  (23) 
z0521a

>  <name>  (23) 
z0521a

>  <smiles>  (23) 
CCN(CC)c1cc(C)nc2ncnn12

>  <path>  (23) 
/opt/xchem-fragalysis-2/maxwin/BulkDock/TARGETS/Flavi_NS5_RdRp/aligned_files/z0521a/z0521a.pdb

>  <distance_score>  (23) 
None

>  <energy_score>  (23) 
None

>  <compound>  (23) 
GSNOZLZNQMLSKJ-UHFFFAOYSA-N

>  <compound_id>  (23) 
107

>  <target>  (23) 
Flavi_NS5_RdRp

$$$$
Zika_NS5A-x0581_A_1201_1_Zika_NS5A-x0351+A+1112+1
     RDKit          3D

 14 15  0  0  0  0  0  0  0  0999 V2000
  -26.7400  -32.6010  -20.4590 O   0  0  0  0  0  0  0  0  0  0  0  0
  -26.0810  -31.5830  -20.3280 C   0  0  0  0  0  0  0  0  0  0  0  0
  -24.5830  -31.6270  -20.2760 C   0  0  0  0  0  0  0  0  0  0  0  0
  -26.6890  -30.3820  -20.1940 N   0  0  0  0  0  0  0  0  0  0  0  0
  -26.5690  -29.6140  -18.9480 C   0  0  0  0  0  0  0  0  0  0  0  0
  -27.6510  -29.9690  -17.9560 C   0  0  0  0  0  0  0  0  0  0  0  0
  -27.3570  -29.9190  -16.5950 C   0  0  0  0  0  0  0  0  0  0  0  0
  -28.3260  -30.1930  -15.6470 C   0  0  0  0  0  0  0  0  0  0  0  0
  -29.6050  -30.5180  -16.0390 C   0  0  0  0  0  0  0  0  0  0  0  0
  -29.9270  -30.5860  -17.3840 C   0  0  0  0  0  0  0  0  0  0  0  0
  -28.9520  -30.3250  -18.3320 C   0  0  0  0  0  0  0  0  0  0  0  0
  -29.3330  -30.5220  -19.6470 O   0  0  0  0  0  0  0  0  0  0  0  0
  -28.9520  -29.5270  -20.6230 C   0  0  0  0  0  0  0  0  0  0  0  0
  -27.5780  -29.7750  -21.1880 C   0  0  0  0  0  0  0  0  0  0  0  0
  3  2  1  0
  2  1  2  0
  4  2  1  0
  4 14  1  0
 14 13  1  0
 13 12  1  0
 12 11  1  0
 11 10  2  0
 10  9  1  0
  9  8  2  0
  8  7  1  0
  7  6  2  0
 11  6  1  0
  6  5  1  0
  5  4  1  0
M  END
>  <id>  (24) 
144

>  <inchikey>  (24) 
SCYVZWVJHDZYSQ-UHFFFAOYSA-N

>  <alias>  (24) 
z0581a

>  <name>  (24) 
z0581a

>  <smiles>  (24) 
CC(=O)N1CCOc2ccccc2C1

>  <path>  (24) 
/opt/xchem-fragalysis-2/maxwin/BulkDock/TARGETS/Flavi_NS5_RdRp/aligned_files/z0581a/z0581a.pdb

>  <distance_score>  (24) 
None

>  <energy_score>  (24) 
None

>  <compound>  (24) 
SCYVZWVJHDZYSQ-UHFFFAOYSA-N

>  <compound_id>  (24) 
109

>  <target>  (24) 
Flavi_NS5_RdRp

$$$$
Zika_NS5A-x0625_A_1301_1_Zika_NS5A-x0351+A+1112+1
     RDKit          3D

 13 13  0  0  0  0  0  0  0  0999 V2000
  -24.6910  -28.0300  -19.1820 O   0  0  0  0  0  0  0  0  0  0  0  0
  -25.7190  -27.9080  -20.1660 S   0  0  0  0  0  0  0  0  0  0  0  0
  -25.3630  -27.6990  -21.5340 O   0  0  0  0  0  0  0  0  0  0  0  0
  -26.6960  -26.7230  -19.7190 N   0  0  0  0  0  0  0  0  0  0  0  0
  -26.7590  -29.3650  -20.0860 C   0  0  0  0  0  0  0  0  0  0  0  0
  -27.4610  -29.5670  -18.7660 C   0  0  0  0  0  0  0  0  0  0  0  0
  -28.8380  -29.8290  -18.6860 C   0  0  0  0  0  0  0  0  0  0  0  0
  -29.6970  -29.9780  -19.9140 C   0  0  0  0  0  0  0  0  0  0  0  0
  -26.7100  -29.4870  -17.5950 C   0  0  0  0  0  0  0  0  0  0  0  0
  -27.2950  -29.6410  -16.3560 C   0  0  0  0  0  0  0  0  0  0  0  0
  -28.6300  -29.8890  -16.3080 C   0  0  0  0  0  0  0  0  0  0  0  0
  -29.2030  -30.1120  -15.0970 F   0  0  0  0  0  0  0  0  0  0  0  0
  -29.4160  -29.9820  -17.4280 C   0  0  0  0  0  0  0  0  0  0  0  0
  8  7  1  0
  7 13  2  0
 13 11  1  0
 12 11  1  0
 11 10  2  0
 10  9  1  0
  9  6  2  0
  7  6  1  0
  6  5  1  0
  5  2  1  0
  3  2  2  0
  2  1  2  0
  4  2  1  0
M  END
>  <id>  (25) 
148

>  <inchikey>  (25) 
NSTXYAFVZNXQTB-UHFFFAOYSA-N

>  <alias>  (25) 
z0625a

>  <name>  (25) 
z0625a

>  <smiles>  (25) 
Cc1cc(F)ccc1CS(N)(=O)=O

>  <path>  (25) 
/opt/xchem-fragalysis-2/maxwin/BulkDock/TARGETS/Flavi_NS5_RdRp/aligned_files/z0625a/z0625a.pdb

>  <distance_score>  (25) 
None

>  <energy_score>  (25) 
None

>  <compound>  (25) 
NSTXYAFVZNXQTB-UHFFFAOYSA-N

>  <compound_id>  (25) 
111

>  <target>  (25) 
Flavi_NS5_RdRp

$$$$
Zika_NS5A-x0628_A_1112_1_Zika_NS5A-x0351+A+1112+1
     RDKit          3D

 10 10  0  0  0  0  0  0  0  0999 V2000
  -29.1830  -29.3890  -20.8360 O   0  0  0  0  0  0  0  0  0  0  0  0
  -28.1970  -29.5270  -20.1600 C   0  0  0  0  0  0  0  0  0  0  0  0
  -26.9720  -29.6660  -20.6670 O   0  0  0  0  0  0  0  0  0  0  0  0
  -26.4790  -31.0340  -20.7950 C   0  0  0  0  0  0  0  0  0  0  0  0
  -26.0580  -31.2330  -22.1800 C   0  0  0  0  0  0  0  0  0  0  0  0
  -28.1980  -29.5800  -18.6890 C   0  0  0  0  0  0  0  0  0  0  0  0
  -27.1200  -29.2890  -17.8670 C   0  0  0  0  0  0  0  0  0  0  0  0
  -27.5350  -29.4600  -16.6080 N   0  0  0  0  0  0  0  0  0  0  0  0
  -28.8280  -29.8460  -16.5440 N   0  0  0  0  0  0  0  0  0  0  0  0
  -29.2380  -29.9220  -17.8060 C   0  0  0  0  0  0  0  0  0  0  0  0
  5  4  1  0
  4  3  1  0
  3  2  1  0
  2  1  2  0
  6  2  1  0
  6 10  1  0
 10  9  2  0
  9  8  1  0
  8  7  1  0
  7  6  2  0
M  END
>  <id>  (26) 
150

>  <inchikey>  (26) 
KACZQOKEFKFNDB-UHFFFAOYSA-N

>  <alias>  (26) 
z0628a

>  <name>  (26) 
z0628a

>  <smiles>  (26) 
CCOC(=O)c1cn[nH]c1

>  <path>  (26) 
/opt/xchem-fragalysis-2/maxwin/BulkDock/TARGETS/Flavi_NS5_RdRp/aligned_files/z0628a/z0628a.pdb

>  <distance_score>  (26) 
None

>  <energy_score>  (26) 
None

>  <compound>  (26) 
KACZQOKEFKFNDB-UHFFFAOYSA-N

>  <compound_id>  (26) 
112

>  <target>  (26) 
Flavi_NS5_RdRp

$$$$
Zika_NS5A-x0637_A_1013_1_Zika_NS5A-x0351+A+1112+1
     RDKit          3D

 14 15  0  0  0  0  0  0  0  0999 V2000
  -29.6920  -30.0390  -19.3490 C   0  0  0  0  0  0  0  0  0  0  0  0
  -28.5950  -29.8640  -18.3510 C   0  0  0  0  0  0  0  0  0  0  0  0
  -27.3390  -29.9320  -18.8240 N   0  0  0  0  0  0  0  0  0  0  0  0
  -26.3240  -29.9050  -17.9430 C   0  0  0  0  0  0  0  0  0  0  0  0
  -26.5060  -29.7820  -16.5610 C   0  0  0  0  0  0  0  0  0  0  0  0
  -27.8040  -29.6930  -16.0930 C   0  0  0  0  0  0  0  0  0  0  0  0
  -28.8610  -29.7290  -16.9880 C   0  0  0  0  0  0  0  0  0  0  0  0
  -25.0850  -30.1020  -18.4480 N   0  0  0  0  0  0  0  0  0  0  0  0
  -24.6730  -31.3810  -18.9680 C   0  0  0  0  0  0  0  0  0  0  0  0
  -23.2240  -31.6790  -18.6300 C   0  0  2  0  0  0  0  0  0  0  0  0
  -22.7780  -33.0850  -19.0340 C   0  0  0  0  0  0  0  0  0  0  0  0
  -21.9460  -33.6580  -17.9330 N   0  0  0  0  0  0  0  0  0  0  0  0
  -21.7130  -32.5810  -16.9560 C   0  0  0  0  0  0  0  0  0  0  0  0
  -22.9510  -31.6590  -17.1210 C   0  0  0  0  0  0  0  0  0  0  0  0
  2  1  1  0
  2  7  2  0
  7  6  1  0
  6  5  2  0
  5  4  1  0
  8  4  1  0
  9  8  1  0
 10  9  1  1
 10 14  1  0
 14 13  1  0
 13 12  1  0
 12 11  1  0
 11 10  1  0
  4  3  2  0
  3  2  1  0
M  END
>  <id>  (27) 
151

>  <inchikey>  (27) 
GOGVDMSQODUATE-JTQLQIEISA-N

>  <alias>  (27) 
z0637a

>  <name>  (27) 
z0637a

>  <smiles>  (27) 
Cc1cccc(NC[C@H]2CCNC2)n1

>  <path>  (27) 
/opt/xchem-fragalysis-2/maxwin/BulkDock/TARGETS/Flavi_NS5_RdRp/aligned_files/z0637a/z0637a.pdb

>  <distance_score>  (27) 
None

>  <energy_score>  (27) 
None

>  <compound>  (27) 
GOGVDMSQODUATE-UHFFFAOYSA-N

>  <compound_id>  (27) 
113

>  <target>  (27) 
Flavi_NS5_RdRp

$$$$
Zika_NS5A-x0764_A_1112_1_Zika_NS5A-x0351+A+1112+1
     RDKit          3D

 11 11  0  0  0  0  0  0  0  0999 V2000
  -26.6470  -31.6540  -21.9150 O   0  0  0  0  0  0  0  0  0  0  0  0
  -27.4330  -30.4630  -21.7500 S   0  0  0  0  0  0  0  0  0  0  0  0
  -28.6430  -30.3350  -22.5100 O   0  0  0  0  0  0  0  0  0  0  0  0
  -26.4190  -29.0730  -22.0780 C   0  0  0  0  0  0  0  0  0  0  0  0
  -27.8360  -30.2980  -20.0390 C   0  0  0  0  0  0  0  0  0  0  0  0
  -29.1640  -30.2660  -19.6450 C   0  0  0  0  0  0  0  0  0  0  0  0
  -29.4680  -30.1500  -18.3020 C   0  0  0  0  0  0  0  0  0  0  0  0
  -26.8140  -30.2020  -19.1110 C   0  0  0  0  0  0  0  0  0  0  0  0
  -27.1220  -30.0800  -17.7720 C   0  0  0  0  0  0  0  0  0  0  0  0
  -28.4390  -30.0660  -17.3870 C   0  0  0  0  0  0  0  0  0  0  0  0
  -28.8450  -29.9860  -15.5420 Br  0  0  0  0  0  0  0  0  0  0  0  0
 11 10  1  0
 10  7  2  0
  7  6  1  0
  6  5  2  0
  5  2  1  0
  4  2  1  0
  3  2  2  0
  2  1  2  0
  8  5  1  0
  9  8  2  0
 10  9  1  0
M  END
>  <id>  (28) 
161

>  <inchikey>  (28) 
FJLFSYRGFJDJMQ-UHFFFAOYSA-N

>  <alias>  (28) 
z0764a

>  <name>  (28) 
z0764a

>  <smiles>  (28) 
CS(=O)(=O)c1ccc(Br)cc1

>  <path>  (28) 
/opt/xchem-fragalysis-2/maxwin/BulkDock/TARGETS/Flavi_NS5_RdRp/aligned_files/z0764a/z0764a.pdb

>  <distance_score>  (28) 
None

>  <energy_score>  (28) 
None

>  <compound>  (28) 
FJLFSYRGFJDJMQ-UHFFFAOYSA-N

>  <compound_id>  (28) 
121

>  <target>  (28) 
Flavi_NS5_RdRp

$$$$
None
     RDKit          3D

 15 16  0  0  0  0  0  0  0  0999 V2000
  -28.7730  -29.3910  -16.4600 Cl  0  0  0  0  0  0  0  0  0  0  0  0
  -27.6650  -29.9220  -17.6940 C   0  0  0  0  0  0  0  0  0  0  0  0
  -28.1570  -30.3030  -18.9250 C   0  0  0  0  0  0  0  0  0  0  0  0
  -27.2810  -30.7690  -19.8880 C   0  0  0  0  0  0  0  0  0  0  0  0
  -26.3150  -29.9740  -17.4110 C   0  0  0  0  0  0  0  0  0  0  0  0
  -25.4370  -30.4280  -18.3790 C   0  0  0  0  0  0  0  0  0  0  0  0
  -25.9140  -30.8420  -19.6210 C   0  0  0  0  0  0  0  0  0  0  0  0
  -25.0130  -31.3770  -20.5990 N   0  0  0  0  0  0  0  0  0  0  0  0
  -25.1770  -31.2280  -21.9770 C   0  0  0  0  0  0  0  0  0  0  0  0
  -26.2220  -30.9260  -22.5450 O   0  0  0  0  0  0  0  0  0  0  0  0
  -23.9410  -31.4720  -22.5580 N   0  0  0  0  0  0  0  0  0  0  0  0
  -22.9750  -31.7810  -21.6340 C   0  0  0  0  0  0  0  0  0  0  0  0
  -21.7890  -31.9820  -21.8840 O   0  0  0  0  0  0  0  0  0  0  0  0
  -23.6360  -31.7670  -20.2680 C   0  0  2  0  0  0  0  0  0  0  0  0
  -23.5420  -33.0990  -19.5370 C   0  0  0  0  0  0  0  0  0  0  0  0
 14 15  1  6
 14  8  1  0
  9  8  1  0
 10  9  2  0
 11  9  1  0
 12 11  1  0
 14 12  1  0
 13 12  2  0
  8  7  1  0
  7  4  2  0
  4  3  1  0
  3  2  2  0
  2  1  1  0
  5  2  1  0
  6  5  2  0
  7  6  1  0
M  END
>  <id>  (29) 
180

>  <inchikey>  (29) 
YRTFBBSKIRZNAW-LURJTMIESA-N

>  <alias>  (29) 
z0900b

>  <name>  (29) 
z0900b

>  <smiles>  (29) 
C[C@H]1C(=O)NC(=O)N1c1ccc(Cl)cc1

>  <path>  (29) 
/opt/xchem-fragalysis-2/maxwin/BulkDock/TARGETS/Flavi_NS5_RdRp/aligned_files/z0900b/z0900b.pdb

>  <distance_score>  (29) 
None

>  <energy_score>  (29) 
None

>  <compound>  (29) 
YRTFBBSKIRZNAW-UHFFFAOYSA-N

>  <compound_id>  (29) 
130

>  <target>  (29) 
Flavi_NS5_RdRp

$$$$
Zika_NS5A-x0903_A_1302_1_Zika_NS5A-x0351+A+1112+1
     RDKit          3D

 15 17  0  0  0  0  0  0  0  0999 V2000
  -27.2450  -31.9190  -20.2890 O   0  0  0  0  0  0  0  0  0  0  0  0
  -26.9860  -30.7270  -20.3570 C   0  0  0  0  0  0  0  0  0  0  0  0
  -25.9740  -30.1520  -21.0690 N   0  0  0  0  0  0  0  0  0  0  0  0
  -27.7350  -29.6010  -19.6210 C   0  0  2  0  0  0  0  0  0  0  0  0
  -26.9310  -28.4520  -20.0250 N   0  0  0  0  0  0  0  0  0  0  0  0
  -25.9320  -28.7740  -20.8790 C   0  0  0  0  0  0  0  0  0  0  0  0
  -25.1460  -27.9920  -21.4170 O   0  0  0  0  0  0  0  0  0  0  0  0
  -27.8800  -29.7770  -18.1210 C   0  0  0  0  0  0  0  0  0  0  0  0
  -29.2140  -29.9260  -17.7720 C   0  0  0  0  0  0  0  0  0  0  0  0
  -30.0720  -30.0710  -18.9960 C   0  0  0  0  0  0  0  0  0  0  0  0
  -29.2000  -29.4940  -20.1170 C   0  0  0  0  0  0  0  0  0  0  0  0
  -26.8930  -29.7790  -17.1430 C   0  0  0  0  0  0  0  0  0  0  0  0
  -27.2560  -29.9040  -15.8070 C   0  0  0  0  0  0  0  0  0  0  0  0
  -28.5850  -30.0110  -15.4530 C   0  0  0  0  0  0  0  0  0  0  0  0
  -29.5660  -30.0210  -16.4310 C   0  0  0  0  0  0  0  0  0  0  0  0
  7  6  2  0
  6  3  1  0
  3  2  1  0
  2  1  2  0
  4  2  1  0
  4 11  1  6
 11 10  1  0
 10  9  1  0
  9 15  2  0
 15 14  1  0
 14 13  2  0
 13 12  1  0
 12  8  2  0
  9  8  1  0
  8  4  1  0
  5  4  1  0
  6  5  1  0
M  END
>  <id>  (30) 
184

>  <inchikey>  (30) 
CDALGRHRPPTQPM-LLVKDONJSA-N

>  <alias>  (30) 
z0903a

>  <name>  (30) 
z0903a

>  <smiles>  (30) 
O=C1NC(=O)[C@]2(CCc3ccccc32)N1

>  <path>  (30) 
/opt/xchem-fragalysis-2/maxwin/BulkDock/TARGETS/Flavi_NS5_RdRp/aligned_files/z0903a/z0903a.pdb

>  <distance_score>  (30) 
None

>  <energy_score>  (30) 
None

>  <compound>  (30) 
CDALGRHRPPTQPM-UHFFFAOYSA-N

>  <compound_id>  (30) 
131

>  <target>  (30) 
Flavi_NS5_RdRp

$$$$
Zika_NS5A-x0922_A_1202_1_Zika_NS5A-x0351+A+1112+1
     RDKit          3D

 15 16  0  0  0  0  0  0  0  0999 V2000
  -28.9260  -30.0490  -15.6170 Br  0  0  0  0  0  0  0  0  0  0  0  0
  -27.9170  -29.9510  -17.2030 C   0  0  0  0  0  0  0  0  0  0  0  0
  -28.5840  -29.9260  -18.4100 C   0  0  0  0  0  0  0  0  0  0  0  0
  -26.5270  -29.8750  -17.1330 C   0  0  0  0  0  0  0  0  0  0  0  0
  -25.8740  -29.9980  -15.9500 O   0  0  0  0  0  0  0  0  0  0  0  0
  -25.8080  -29.7110  -18.3040 C   0  0  0  0  0  0  0  0  0  0  0  0
  -26.4830  -29.6450  -19.5030 C   0  0  0  0  0  0  0  0  0  0  0  0
  -27.8550  -29.7870  -19.5810 C   0  0  0  0  0  0  0  0  0  0  0  0
  -28.4870  -29.8590  -20.8880 C   0  0  0  0  0  0  0  0  0  0  0  0
  -29.6490  -30.0850  -21.0890 O   0  0  0  0  0  0  0  0  0  0  0  0
  -27.6870  -29.6720  -21.9730 O   0  0  0  0  0  0  0  0  0  0  0  0
  -25.7620  -29.3440  -20.6310 O   0  0  0  0  0  0  0  0  0  0  0  0
  -26.2660  -29.9210  -21.8550 C   0  0  0  0  0  0  0  0  0  0  0  0
  -25.9600  -31.3960  -21.8260 C   0  0  0  0  0  0  0  0  0  0  0  0
  -25.5980  -29.2050  -23.0050 C   0  0  0  0  0  0  0  0  0  0  0  0
 15 13  1  0
 14 13  1  0
 13 11  1  0
 11  9  1  0
 10  9  2  0
  9  8  1  0
  8  3  1  0
  3  2  2  0
  2  1  1  0
  4  2  1  0
  5  4  1  0
  6  4  2  0
  7  6  1  0
  8  7  2  0
 12  7  1  0
 13 12  1  0
M  END
>  <id>  (31) 
191

>  <inchikey>  (31) 
FOZVJTHORLMHQD-UHFFFAOYSA-N

>  <alias>  (31) 
z0922a

>  <name>  (31) 
z0922a

>  <smiles>  (31) 
CC1(C)OC(=O)c2cc(Br)c(O)cc2O1

>  <path>  (31) 
/opt/xchem-fragalysis-2/maxwin/BulkDock/TARGETS/Flavi_NS5_RdRp/aligned_files/z0922a/z0922a.pdb

>  <distance_score>  (31) 
None

>  <energy_score>  (31) 
None

>  <compound>  (31) 
FOZVJTHORLMHQD-UHFFFAOYSA-N

>  <compound_id>  (31) 
134

>  <target>  (31) 
Flavi_NS5_RdRp

$$$$
Zika_NS5A-x0995_A_1112_1_Zika_NS5A-x0351+A+1112+1
     RDKit          3D

 14 15  0  0  0  0  0  0  0  0999 V2000
  -24.8410  -32.5670  -23.3220 N   0  0  0  0  0  0  0  0  0  0  0  0
  -24.5020  -31.5210  -22.3550 C   0  0  2  0  0  0  0  0  0  0  0  0
  -23.3120  -31.9480  -21.4990 C   0  0  0  0  0  0  0  0  0  0  0  0
  -25.6780  -31.1130  -21.5130 C   0  0  0  0  0  0  0  0  0  0  0  0
  -26.7340  -30.3940  -22.0070 N   0  0  0  0  0  0  0  0  0  0  0  0
  -27.5380  -30.0810  -21.0200 N   0  0  0  0  0  0  0  0  0  0  0  0
  -27.0020  -30.6040  -19.8900 N   0  0  0  0  0  0  0  0  0  0  0  0
  -25.8600  -31.2710  -20.1730 C   0  0  0  0  0  0  0  0  0  0  0  0
  -27.5890  -30.3310  -18.6200 C   0  0  0  0  0  0  0  0  0  0  0  0
  -28.9530  -30.0930  -18.5240 C   0  0  0  0  0  0  0  0  0  0  0  0
  -29.5080  -29.8040  -17.2890 C   0  0  0  0  0  0  0  0  0  0  0  0
  -28.7160  -29.7650  -16.1570 C   0  0  0  0  0  0  0  0  0  0  0  0
  -27.3610  -30.0140  -16.2530 C   0  0  0  0  0  0  0  0  0  0  0  0
  -26.7870  -30.2910  -17.4820 C   0  0  0  0  0  0  0  0  0  0  0  0
  2  3  1  1
  2  1  1  0
  4  2  1  0
  4  8  2  0
  8  7  1  0
  7  6  1  0
  6  5  2  0
  5  4  1  0
  9  7  1  0
  9 14  2  0
 14 13  1  0
 13 12  2  0
 12 11  1  0
 11 10  2  0
 10  9  1  0
M  END
>  <id>  (32) 
203

>  <inchikey>  (32) 
WHLMWNCAOOBOTJ-MRVPVSSYSA-N

>  <alias>  (32) 
z0995a

>  <name>  (32) 
z0995a

>  <smiles>  (32) 
C[C@@H](N)c1cn(-c2ccccc2)nn1

>  <path>  (32) 
/opt/xchem-fragalysis-2/maxwin/BulkDock/TARGETS/Flavi_NS5_RdRp/aligned_files/z0995a/z0995a.pdb

>  <distance_score>  (32) 
None

>  <energy_score>  (32) 
None

>  <compound>  (32) 
WHLMWNCAOOBOTJ-UHFFFAOYSA-N

>  <compound_id>  (32) 
141

>  <target>  (32) 
Flavi_NS5_RdRp

$$$$
Zika_NS5A-x1018_A_1112_1_Zika_NS5A-x0351+A+1112+1
     RDKit          3D

 18 19  0  0  0  0  0  0  0  0999 V2000
  -24.6370  -32.9720  -24.2020 O   0  0  0  0  0  0  0  0  0  0  0  0
  -23.4380  -33.0890  -24.0000 C   0  0  0  0  0  0  0  0  0  0  0  0
  -22.4420  -33.7780  -24.8910 C   0  0  0  0  0  0  0  0  0  0  0  0
  -21.0850  -33.4100  -24.3100 C   0  0  0  0  0  0  0  0  0  0  0  0
  -21.3630  -32.9570  -22.8880 C   0  0  0  0  0  0  0  0  0  0  0  0
  -22.7850  -32.6050  -22.9240 N   0  0  0  0  0  0  0  0  0  0  0  0
  -23.4200  -31.7770  -21.8880 C   0  0  0  0  0  0  0  0  0  0  0  0
  -24.3470  -32.5530  -20.9610 C   0  0  0  0  0  0  0  0  0  0  0  0
  -25.4880  -31.7690  -20.4960 N   0  0  0  0  0  0  0  0  0  0  0  0
  -26.3340  -31.1610  -21.3620 C   0  0  0  0  0  0  0  0  0  0  0  0
  -26.1830  -31.2570  -22.5750 O   0  0  0  0  0  0  0  0  0  0  0  0
  -27.3860  -30.4590  -20.8200 N   0  0  0  0  0  0  0  0  0  0  0  0
  -27.8020  -30.2930  -19.4750 C   0  0  0  0  0  0  0  0  0  0  0  0
  -26.9510  -30.0480  -18.4030 C   0  0  0  0  0  0  0  0  0  0  0  0
  -27.4770  -29.8290  -17.1390 C   0  0  0  0  0  0  0  0  0  0  0  0
  -28.8380  -29.8380  -16.9390 C   0  0  0  0  0  0  0  0  0  0  0  0
  -29.6850  -30.0770  -17.9990 C   0  0  0  0  0  0  0  0  0  0  0  0
  -29.1740  -30.3100  -19.2640 C   0  0  0  0  0  0  0  0  0  0  0  0
 11 10  2  0
 10  9  1  0
  9  8  1  0
  8  7  1  0
  7  6  1  0
  6  5  1  0
  5  4  1  0
  4  3  1  0
  3  2  1  0
  6  2  1  0
  2  1  2  0
 12 10  1  0
 13 12  1  0
 13 18  2  0
 18 17  1  0
 17 16  2  0
 16 15  1  0
 15 14  2  0
 14 13  1  0
M  END
>  <id>  (33) 
206

>  <inchikey>  (33) 
OYRHWZOYGOUXNC-UHFFFAOYSA-N

>  <alias>  (33) 
z1018a

>  <name>  (33) 
z1018a

>  <smiles>  (33) 
O=C(NCCN1CCCC1=O)Nc1ccccc1

>  <path>  (33) 
/opt/xchem-fragalysis-2/maxwin/BulkDock/TARGETS/Flavi_NS5_RdRp/aligned_files/z1018a/z1018a.pdb

>  <distance_score>  (33) 
None

>  <energy_score>  (33) 
None

>  <compound>  (33) 
OYRHWZOYGOUXNC-UHFFFAOYSA-N

>  <compound_id>  (33) 
144

>  <target>  (33) 
Flavi_NS5_RdRp

$$$$
Zika_NS5A-x1040_A_1204_1_Zika_NS5A-x0351+A+1112+1
     RDKit          3D

 12 13  0  0  0  0  0  0  0  0999 V2000
  -24.4130  -30.4810  -16.2440 C   0  0  0  0  0  0  0  0  0  0  0  0
  -25.0350  -30.4490  -17.5480 N   0  0  0  0  0  0  0  0  0  0  0  0
  -26.3820  -30.3770  -17.7220 C   0  0  0  0  0  0  0  0  0  0  0  0
  -26.7710  -30.2300  -18.9810 N   0  0  0  0  0  0  0  0  0  0  0  0
  -28.1160  -30.1920  -19.2360 C   0  0  0  0  0  0  0  0  0  0  0  0
  -29.0760  -30.3170  -18.2040 C   0  0  0  0  0  0  0  0  0  0  0  0
  -28.6080  -30.4480  -16.8770 C   0  0  0  0  0  0  0  0  0  0  0  0
  -27.2710  -30.4820  -16.6230 C   0  0  0  0  0  0  0  0  0  0  0  0
  -28.5520  -30.0240  -20.5700 C   0  0  0  0  0  0  0  0  0  0  0  0
  -29.8820  -30.0300  -20.8630 C   0  0  0  0  0  0  0  0  0  0  0  0
  -30.8250  -30.1900  -19.8590 C   0  0  0  0  0  0  0  0  0  0  0  0
  -30.4410  -30.3200  -18.5540 C   0  0  0  0  0  0  0  0  0  0  0  0
  2  1  1  0
  3  2  1  0
  3  8  2  0
  8  7  1  0
  7  6  2  0
  6 12  1  0
 12 11  2  0
 11 10  1  0
 10  9  2  0
  9  5  1  0
  6  5  1  0
  5  4  2  0
  4  3  1  0
M  END
>  <id>  (34) 
208

>  <inchikey>  (34) 
POVSMFKXVSNGSU-UHFFFAOYSA-N

>  <alias>  (34) 
z1040a

>  <name>  (34) 
z1040a

>  <smiles>  (34) 
CNc1ccc2ccccc2n1

>  <path>  (34) 
/opt/xchem-fragalysis-2/maxwin/BulkDock/TARGETS/Flavi_NS5_RdRp/aligned_files/z1040a/z1040a.pdb

>  <distance_score>  (34) 
None

>  <energy_score>  (34) 
None

>  <compound>  (34) 
POVSMFKXVSNGSU-UHFFFAOYSA-N

>  <compound_id>  (34) 
146

>  <target>  (34) 
Flavi_NS5_RdRp

$$$$
None
     RDKit          3D

 12 12  0  0  0  0  0  0  0  0999 V2000
  -23.9330  -29.6860  -17.6410 S   0  0  0  0  0  0  0  0  0  0  0  0
  -25.4060  -30.1430  -18.3170 C   0  0  0  0  0  0  0  0  0  0  0  0
  -25.5560  -31.2410  -19.0330 N   0  0  0  0  0  0  0  0  0  0  0  0
  -26.4910  -29.4180  -18.0590 N   0  0  0  0  0  0  0  0  0  0  0  0
  -27.8490  -29.7150  -18.2990 C   0  0  0  0  0  0  0  0  0  0  0  0
  -28.2480  -30.0130  -19.6090 C   0  0  0  0  0  0  0  0  0  0  0  0
  -27.2600  -29.9130  -20.5490 O   0  0  0  0  0  0  0  0  0  0  0  0
  -27.6060  -29.3380  -21.8080 C   0  0  0  0  0  0  0  0  0  0  0  0
  -28.7880  -29.7650  -17.2720 C   0  0  0  0  0  0  0  0  0  0  0  0
  -30.0960  -30.1170  -17.5590 C   0  0  0  0  0  0  0  0  0  0  0  0
  -30.4740  -30.4150  -18.8510 C   0  0  0  0  0  0  0  0  0  0  0  0
  -29.5560  -30.3680  -19.8830 C   0  0  0  0  0  0  0  0  0  0  0  0
  8  7  1  0
  7  6  1  0
  6 12  2  0
 12 11  1  0
 11 10  2  0
 10  9  1  0
  9  5  2  0
  6  5  1  0
  5  4  1  0
  4  2  1  0
  2  1  2  0
  3  2  1  0
M  END
>  <id>  (35) 
210

>  <inchikey>  (35) 
HXCHZMHFZXNFIX-UHFFFAOYSA-N

>  <alias>  (35) 
z1041a

>  <name>  (35) 
z1041a

>  <smiles>  (35) 
COc1ccccc1NC(N)=S

>  <path>  (35) 
/opt/xchem-fragalysis-2/maxwin/BulkDock/TARGETS/Flavi_NS5_RdRp/aligned_files/z1041a/z1041a.pdb

>  <distance_score>  (35) 
None

>  <energy_score>  (35) 
None

>  <compound>  (35) 
HXCHZMHFZXNFIX-UHFFFAOYSA-N

>  <compound_id>  (35) 
147

>  <target>  (35) 
Flavi_NS5_RdRp

$$$$
3vws_A_1004_1_3vws+A+1003+1
     RDKit          3D

 24 26  0  0  0  0  0  0  0  0999 V2000
  -23.4650  -28.6480  -15.5860 Cl  0  0  0  0  0  0  0  0  0  0  0  0
  -22.3660  -28.8730  -16.9970 C   0  0  0  0  0  0  0  0  0  0  0  0
  -22.9060  -29.5530  -18.1020 C   0  0  0  0  0  0  0  0  0  0  0  0
  -22.0950  -29.7410  -19.2230 C   0  0  0  0  0  0  0  0  0  0  0  0
  -21.0090  -28.3900  -17.0180 C   0  0  0  0  0  0  0  0  0  0  0  0
  -20.2010  -28.6030  -18.1730 C   0  0  0  0  0  0  0  0  0  0  0  0
  -20.7490  -29.2990  -19.3230 C   0  0  0  0  0  0  0  0  0  0  0  0
  -19.9610  -29.6120  -20.7660 S   0  0  0  0  0  0  0  0  0  0  0  0
  -20.2550  -28.6020  -21.8330 O   0  0  0  0  0  0  0  0  0  0  0  0
  -18.6660  -29.0470  -20.4310 O   0  0  0  0  0  0  0  0  0  0  0  0
  -19.1620  -31.0130  -20.9470 N   0  0  0  0  0  0  0  0  0  0  0  0
  -19.7970  -32.2470  -20.9910 C   0  0  0  0  0  0  0  0  0  0  0  0
  -19.1610  -33.3930  -20.4120 C   0  0  0  0  0  0  0  0  0  0  0  0
  -19.8070  -34.6650  -20.4470 C   0  0  0  0  0  0  0  0  0  0  0  0
  -21.0890  -32.3890  -21.6070 C   0  0  0  0  0  0  0  0  0  0  0  0
  -21.7270  -33.6590  -21.6310 C   0  0  0  0  0  0  0  0  0  0  0  0
  -22.9550  -34.1670  -22.1330 C   0  0  0  0  0  0  0  0  0  0  0  0
  -23.9950  -33.2800  -22.8450 C   0  0  0  0  0  0  0  0  0  0  0  0
  -25.0570  -33.8360  -23.2630 O   0  0  0  0  0  0  0  0  0  0  0  0
  -23.8250  -32.0220  -23.0110 O   0  0  0  0  0  0  0  0  0  0  0  0
  -21.0960  -34.7900  -21.0600 C   0  0  0  0  0  0  0  0  0  0  0  0
  -21.8390  -35.9000  -21.1800 O   0  0  0  0  0  0  0  0  0  0  0  0
  -23.0070  -35.5580  -21.8460 C   0  0  0  0  0  0  0  0  0  0  0  0
  -23.9950  -36.6710  -22.0870 C   0  0  0  0  0  0  0  0  0  0  0  0
  9  8  2  0
 10  8  2  0
  8  7  1  0
  8 11  1  0
  7  4  2  0
  7  6  1  0
  4  3  1  0
  6  5  2  0
 11 12  1  0
  3  2  2  0
  5  2  1  0
  2  1  1  0
 12 13  2  0
 12 15  1  0
 13 14  1  0
 15 16  2  0
 14 21  2  0
 16 21  1  0
 16 17  1  0
 21 22  1  0
 19 18  2  0
 17 18  1  0
 17 23  2  0
 22 23  1  0
 18 20  1  0
 23 24  1  0
M  END
>  <id>  (36) 
217

>  <inchikey>  (36) 
UZVVWRBCUSWUON-UHFFFAOYSA-N

>  <alias>  (36) 
3vws-b

>  <name>  (36) 
3vws-b

>  <smiles>  (36) 
Cc1oc2ccc(NS(=O)(=O)c3ccc(Cl)cc3)cc2c1C(=O)O

>  <path>  (36) 
/opt/xchem-fragalysis-2/maxwin/BulkDock/TARGETS/Flavi_NS5_RdRp/aligned_files/3vws-b/3vws-b.pdb

>  <distance_score>  (36) 
None

>  <energy_score>  (36) 
None

>  <compound>  (36) 
UZVVWRBCUSWUON-UHFFFAOYSA-N

>  <compound_id>  (36) 
154

>  <target>  (36) 
Flavi_NS5_RdRp

$$$$
5iq6_A_1003_1_3vws+A+1003+1
     RDKit          3D

 42 47  0  0  0  0  0  0  0  0999 V2000
  -21.8670  -30.1690  -19.6590 O   0  0  0  0  0  0  0  0  0  0  0  0
  -21.8620  -31.2730  -13.7260 C   0  0  0  0  0  0  0  0  0  0  0  0
  -23.1170  -30.5000  -15.7300 C   0  0  0  0  0  0  0  0  0  0  0  0
  -19.0010  -31.5900  -15.8010 O   0  0  0  0  0  0  0  0  0  0  0  0
  -24.0040  -30.1280  -16.7360 C   0  0  0  0  0  0  0  0  0  0  0  0
  -21.0620  -31.1710  -14.8650 N   0  0  0  0  0  0  0  0  0  0  0  0
  -23.5510  -30.0090  -18.0370 C   0  0  0  0  0  0  0  0  0  0  0  0
  -22.2160  -30.2470  -18.3270 C   0  0  0  0  0  0  0  0  0  0  0  0
  -20.6860  -30.9060  -20.1270 C   0  0  0  0  0  0  0  0  0  0  0  0
  -22.0580  -34.3350  -17.1820 O   0  0  0  0  0  0  0  0  0  0  0  0
  -21.1110  -31.5840  -21.4100 C   0  0  0  0  0  0  0  0  0  0  0  0
  -21.5080  -30.5580  -22.4680 C   0  0  0  0  0  0  0  0  0  0  0  0
  -20.3990  -29.5470  -22.7050 C   0  0  0  0  0  0  0  0  0  0  0  0
  -19.9730  -28.8890  -21.4070 C   0  0  0  0  0  0  0  0  0  0  0  0
  -19.5640  -29.9240  -20.3660 C   0  0  0  0  0  0  0  0  0  0  0  0
  -21.3140  -30.5830  -17.3260 C   0  0  0  0  0  0  0  0  0  0  0  0
  -19.6890  -31.5390  -14.7900 C   0  0  0  0  0  0  0  0  0  0  0  0
  -21.7660  -30.7360  -16.0170 C   0  0  0  0  0  0  0  0  0  0  0  0
  -23.4960  -30.7810  -14.0510 S   0  0  0  0  0  0  0  0  0  0  0  0
  -19.1710  -31.8700  -13.4660 C   0  0  0  0  0  0  0  0  0  0  0  0
  -17.7100  -32.0440  -13.2650 C   0  0  0  0  0  0  0  0  0  0  0  0
  -16.9630  -31.0640  -12.6130 C   0  0  0  0  0  0  0  0  0  0  0  0
  -15.5970  -31.2170  -12.4470 C   0  0  0  0  0  0  0  0  0  0  0  0
  -14.9600  -32.3440  -12.9250 C   0  0  0  0  0  0  0  0  0  0  0  0
  -15.6890  -33.3240  -13.5690 C   0  0  0  0  0  0  0  0  0  0  0  0
  -17.0560  -33.1790  -13.7380 C   0  0  0  0  0  0  0  0  0  0  0  0
  -20.0240  -31.9960  -12.4260 C   0  0  0  0  0  0  0  0  0  0  0  0
  -21.4130  -31.7130  -12.5200 C   0  0  0  0  0  0  0  0  0  0  0  0
  -22.2920  -31.9330  -11.3360 C   0  0  0  0  0  0  0  0  0  0  0  0
  -23.0220  -31.0390  -10.9090 O   0  0  0  0  0  0  0  0  0  0  0  0
  -22.2080  -33.1540  -10.7760 N   0  0  0  0  0  0  0  0  0  0  0  0
  -23.3000  -34.1210  -10.7470 C   0  0  2  0  0  0  0  0  0  0  0  0
  -22.7920  -35.5490  -10.5690 C   0  0  0  0  0  0  0  0  0  0  0  0
  -21.6110  -35.8230  -10.4830 O   0  0  0  0  0  0  0  0  0  0  0  0
  -23.7510  -36.4280  -10.5030 O   0  0  0  0  0  0  0  0  0  0  0  0
  -24.2500  -34.0020  -11.9600 C   0  0  0  0  0  0  0  0  0  0  0  0
  -23.6620  -34.1440  -13.3470 C   0  0  0  0  0  0  0  0  0  0  0  0
  -24.4210  -33.8060  -14.4590 C   0  0  0  0  0  0  0  0  0  0  0  0
  -23.8920  -33.8680  -15.7360 C   0  0  0  0  0  0  0  0  0  0  0  0
  -22.5840  -34.2850  -15.9240 C   0  0  0  0  0  0  0  0  0  0  0  0
  -21.8160  -34.6450  -14.8250 C   0  0  0  0  0  0  0  0  0  0  0  0
  -22.3550  -34.5730  -13.5520 C   0  0  0  0  0  0  0  0  0  0  0  0
 39 38  2  0
 39 40  1  0
 38 37  1  0
 10 40  1  0
 40 41  2  0
 35 33  2  0
 12 11  1  0
 12 13  1  0
 11  9  1  0
 37 36  1  0
 37 42  2  0
 41 42  1  0
 32 36  1  6
 33 32  1  0
 33 34  1  0
  7  5  2  0
  7  8  1  0
  5  3  1  0
  1  9  1  0
  1  8  1  0
  9 15  1  0
 13 14  1  0
 32 31  1  0
  8 16  2  0
  3 19  1  0
  3 18  2  0
 19  2  1  0
 16 18  1  0
 18  6  1  0
 14 15  1  0
 31 29  1  0
  2  6  1  0
  2 28  2  0
  6 17  1  0
 29 28  1  0
 29 30  2  0
 28 27  1  0
  4 17  2  0
 17 20  1  0
 27 20  2  0
 20 21  1  0
 26 21  1  0
 26 25  2  0
 21 22  2  0
 25 24  1  0
 22 23  1  0
 24 23  2  0
M  END
>  <id>  (37) 
222

>  <inchikey>  (37) 
PTUWWNGMUPSKDC-MHZLTWQESA-N

>  <alias>  (37) 
5iq6-a

>  <name>  (37) 
5iq6-a

>  <smiles>  (37) 
O=C(N[C@@H](Cc1ccc(O)cc1)C(=O)O)c1cc(-c2ccccc2)c(=O)n2c1sc1ccc(OC3CCCCC3)cc12

>  <path>  (37) 
/opt/xchem-fragalysis-2/maxwin/BulkDock/TARGETS/Flavi_NS5_RdRp/aligned_files/5iq6-a/5iq6-a.pdb

>  <distance_score>  (37) 
None

>  <energy_score>  (37) 
None

>  <compound>  (37) 
PTUWWNGMUPSKDC-UHFFFAOYSA-N

>  <compound_id>  (37) 
157

>  <target>  (37) 
Flavi_NS5_RdRp

$$$$
