Zika_NS5A-x0397_A_1112_1_Zika_NS5A-x0136+A+1016+1
     RDKit          3D

 17 18  0  0  0  0  0  0  0  0999 V2000
  -24.9990  -53.9830    3.6980 O   0  0  0  0  0  0  0  0  0  0  0  0
  -24.8630  -53.8690    2.4810 C   0  0  0  0  0  0  0  0  0  0  0  0
  -25.3000  -52.8020    1.8290 N   0  0  0  0  0  0  0  0  0  0  0  0
  -25.1210  -52.5120    0.4090 C   0  0  0  0  0  0  0  0  0  0  0  0
  -24.1250  -53.4460   -0.2470 C   0  0  0  0  0  0  0  0  0  0  0  0
  -24.1790  -54.9470    1.6840 C   0  0  0  0  0  0  0  0  0  0  0  0
  -24.3150  -54.8190    0.2360 N   0  0  0  0  0  0  0  0  0  0  0  0
  -24.5790  -55.8680   -0.5730 C   0  0  0  0  0  0  0  0  0  0  0  0
  -23.7220  -56.3890   -1.2720 O   0  0  0  0  0  0  0  0  0  0  0  0
  -25.9950  -56.3900   -0.5760 C   0  0  0  0  0  0  0  0  0  0  0  0
  -26.2180  -56.9700   -1.8490 O   0  0  0  0  0  0  0  0  0  0  0  0
  -26.0620  -58.3140   -2.0450 C   0  0  0  0  0  0  0  0  0  0  0  0
  -25.2620  -59.1600   -1.3020 C   0  0  0  0  0  0  0  0  0  0  0  0
  -25.2440  -60.5080   -1.6110 C   0  0  0  0  0  0  0  0  0  0  0  0
  -26.0010  -61.0010   -2.6580 C   0  0  0  0  0  0  0  0  0  0  0  0
  -26.7760  -60.1500   -3.4030 C   0  0  0  0  0  0  0  0  0  0  0  0
  -26.8180  -58.8000   -3.1000 C   0  0  0  0  0  0  0  0  0  0  0  0
  9  8  2  0
 10  8  1  0
 11 10  1  0
 12 11  1  0
 12 17  2  0
 17 16  1  0
 16 15  2  0
 15 14  1  0
 14 13  2  0
 13 12  1  0
  8  7  1  0
  7  5  1  0
  5  4  1  0
  4  3  1  0
  3  2  1  0
  2  1  2  0
  6  2  1  0
  7  6  1  0
M  END
$$$$

