DNV2_NS5A-x0283_A_1608_1_DNV2_NS5A-x0249+A+1707+1
     RDKit          3D

 12 12  0  0  0  0  0  0  0  0999 V2000
  -13.2080  -68.3640  -20.0420 O   0  0  0  0  0  0  0  0  0  0  0  0
  -13.6940  -69.7030  -20.1560 S   0  0  0  0  0  0  0  0  0  0  0  0
  -14.0570  -70.4140  -18.9670 O   0  0  0  0  0  0  0  0  0  0  0  0
  -14.9850  -69.6520  -21.1110 N   0  0  0  0  0  0  0  0  0  0  0  0
  -14.8170  -69.1760  -22.4830 C   0  0  0  0  0  0  0  0  0  0  0  0
  -12.5030  -70.6670  -21.0630 C   0  0  0  0  0  0  0  0  0  0  0  0
  -11.1890  -71.1850  -20.4640 C   0  0  0  0  0  0  0  0  0  0  0  0
  -11.0950  -71.1650  -18.9500 C   0  0  0  0  0  0  0  0  0  0  0  0
   -9.8520  -71.9160  -18.4740 C   0  0  0  0  0  0  0  0  0  0  0  0
   -8.5690  -71.3610  -19.1100 C   0  0  0  0  0  0  0  0  0  0  0  0
   -8.6910  -71.2430  -20.6230 C   0  0  0  0  0  0  0  0  0  0  0  0
   -9.9560  -70.4990  -21.0270 C   0  0  0  0  0  0  0  0  0  0  0  0
  5  4  1  0
  4  2  1  0
  3  2  2  0
  2  1  2  0
  6  2  1  0
  7  6  1  0
  7 12  1  0
 12 11  1  0
 11 10  1  0
 10  9  1  0
  9  8  1  0
  8  7  1  0
M  END
$$$$

