Zika_NS5A-x0486_A_1100_1_Zika_NS5A-x0411+A+1104+1
     RDKit          3D

 16 17  0  0  0  0  0  0  0  0999 V2000
  -15.0550  -24.9490  -19.8890 O   0  0  0  0  0  0  0  0  0  0  0  0
  -14.6760  -24.2030  -20.7820 C   0  0  0  0  0  0  0  0  0  0  0  0
  -15.4360  -23.1700  -21.2460 N   0  0  0  0  0  0  0  0  0  0  0  0
  -16.7660  -22.8560  -20.8850 C   0  0  0  0  0  0  0  0  0  0  0  0
  -17.2660  -21.5720  -21.0890 C   0  0  0  0  0  0  0  0  0  0  0  0
  -18.5480  -21.2350  -20.8880 N   0  0  0  0  0  0  0  0  0  0  0  0
  -19.3750  -22.1940  -20.4530 C   0  0  0  0  0  0  0  0  0  0  0  0
  -18.9690  -23.4840  -20.1940 C   0  0  0  0  0  0  0  0  0  0  0  0
  -17.6480  -23.8200  -20.4170 C   0  0  0  0  0  0  0  0  0  0  0  0
  -13.4400  -24.2830  -21.3910 N   0  0  0  0  0  0  0  0  0  0  0  0
  -12.4070  -25.2380  -21.1800 C   0  0  0  0  0  0  0  0  0  0  0  0
  -12.5950  -26.4090  -20.4470 C   0  0  0  0  0  0  0  0  0  0  0  0
  -11.5370  -27.2870  -20.2460 C   0  0  0  0  0  0  0  0  0  0  0  0
  -10.2990  -27.0190  -20.7880 C   0  0  0  0  0  0  0  0  0  0  0  0
  -10.1100  -25.8710  -21.5300 C   0  0  0  0  0  0  0  0  0  0  0  0
  -11.1550  -24.9740  -21.7210 C   0  0  0  0  0  0  0  0  0  0  0  0
  2  1  2  0
 10  2  1  0
 11 10  1  0
 11 16  2  0
 16 15  1  0
 15 14  2  0
 14 13  1  0
 13 12  2  0
 12 11  1  0
  3  2  1  0
  4  3  1  0
  4  9  2  0
  9  8  1  0
  8  7  2  0
  7  6  1  0
  6  5  2  0
  5  4  1  0
M  END
$$$$

