Zika_NS5A-x0668_A_1112_1_Zika_NS5A-x0668+A+1112+1
     RDKit          3D

 13 13  0  0  0  0  0  0  0  0999 V2000
  -14.9190  -54.7490  -42.7360 O   0  0  0  0  0  0  0  0  0  0  0  0
  -14.8940  -55.8270  -43.6690 S   0  0  0  0  0  0  0  0  0  0  0  0
  -14.7620  -57.1580  -43.1750 O   0  0  0  0  0  0  0  0  0  0  0  0
  -13.6050  -55.5370  -44.8200 C   0  0  0  0  0  0  0  0  0  0  0  0
  -16.2910  -55.7640  -44.5030 N   0  0  0  0  0  0  0  0  0  0  0  0
  -17.1500  -56.9660  -44.5580 C   0  0  0  0  0  0  0  0  0  0  0  0
  -18.5620  -56.3840  -44.6170 C   0  0  0  0  0  0  0  0  0  0  0  0
  -18.3970  -54.8640  -44.7100 C   0  0  0  0  0  0  0  0  0  0  0  0
  -16.9740  -54.6720  -45.2600 C   0  0  2  0  0  0  0  0  0  0  0  0
  -16.9240  -54.9180  -46.7660 C   0  0  0  0  0  0  0  0  0  0  0  0
  -16.4870  -53.2250  -45.0380 C   0  0  0  0  0  0  0  0  0  0  0  0
  -15.3030  -52.9120  -45.1310 O   0  0  0  0  0  0  0  0  0  0  0  0
  -17.4460  -52.3520  -44.7800 N   0  0  0  0  0  0  0  0  0  0  0  0
  9 10  1  6
 11  9  1  0
 13 11  1  0
 12 11  2  0
  9  5  1  0
  5  2  1  0
  3  2  2  0
  4  2  1  0
  2  1  2  0
  6  5  1  0
  7  6  1  0
  8  7  1  0
  9  8  1  0
M  END
$$$$

