Zika_NS5A-x0418_A_1013_1_Zika_NS5A-x0111+A+1112+1
     RDKit          3D

 14 15  0  0  0  0  0  0  0  0999 V2000
   -3.1640  -38.9720  -46.9790 O   0  0  0  0  0  0  0  0  0  0  0  0
   -3.7230  -40.0660  -46.9810 C   0  0  0  0  0  0  0  0  0  0  0  0
   -3.4990  -41.2140  -47.9340 C   0  0  0  0  0  0  0  0  0  0  0  0
   -4.4290  -42.2260  -47.3320 C   0  0  0  0  0  0  0  0  0  0  0  0
   -4.5520  -43.6350  -47.8200 C   0  0  0  0  0  0  0  0  0  0  0  0
   -4.7050  -40.4820  -46.0840 N   0  0  0  0  0  0  0  0  0  0  0  0
   -5.1000  -41.7990  -46.3320 N   0  0  0  0  0  0  0  0  0  0  0  0
   -5.2840  -39.7690  -44.9790 C   0  0  0  0  0  0  0  0  0  0  0  0
   -5.1740  -38.3770  -44.9210 C   0  0  0  0  0  0  0  0  0  0  0  0
   -5.6190  -37.6800  -43.7960 C   0  0  0  0  0  0  0  0  0  0  0  0
   -5.4710  -36.3280  -43.7290 N   0  0  0  0  0  0  0  0  0  0  0  0
   -6.1910  -38.3920  -42.7310 C   0  0  0  0  0  0  0  0  0  0  0  0
   -6.3270  -39.7710  -42.7990 C   0  0  0  0  0  0  0  0  0  0  0  0
   -5.8850  -40.4680  -43.9160 C   0  0  0  0  0  0  0  0  0  0  0  0
  5  4  1  0
  4  7  2  0
  7  6  1  0
  6  2  1  0
  2  1  2  0
  3  2  1  0
  4  3  1  0
  8  6  1  0
  8 14  2  0
 14 13  1  0
 13 12  2  0
 12 10  1  0
 11 10  1  0
 10  9  2  0
  9  8  1  0
M  END
$$$$

