DNV2_NS5A-x0843_A_1707_1_DNV2_NS5A-x0249+A+1707+1
     RDKit          3D

 15 16  0  0  0  0  0  0  0  0999 V2000
   -8.0160  -71.6520  -21.0260 O   0  0  0  0  0  0  0  0  0  0  0  0
   -8.4250  -71.3040  -19.9230 C   0  0  0  0  0  0  0  0  0  0  0  0
   -7.5520  -71.3710  -18.6870 C   0  0  0  0  0  0  0  0  0  0  0  0
   -6.0650  -71.4560  -18.8900 C   0  0  0  0  0  0  0  0  0  0  0  0
   -6.8070  -72.6520  -18.4340 C   0  0  0  0  0  0  0  0  0  0  0  0
   -9.6800  -70.8540  -19.6930 N   0  0  0  0  0  0  0  0  0  0  0  0
  -10.7520  -70.7210  -20.6050 C   0  0  0  0  0  0  0  0  0  0  0  0
  -12.0250  -71.0640  -20.1690 C   0  0  0  0  0  0  0  0  0  0  0  0
  -13.1130  -70.9150  -21.0090 C   0  0  0  0  0  0  0  0  0  0  0  0
  -10.5900  -70.2360  -21.8980 C   0  0  0  0  0  0  0  0  0  0  0  0
  -11.6840  -70.0960  -22.7290 C   0  0  0  0  0  0  0  0  0  0  0  0
  -12.9600  -70.4280  -22.2980 C   0  0  0  0  0  0  0  0  0  0  0  0
  -14.1550  -70.2380  -23.1960 C   0  0  1  0  0  0  0  0  0  0  0  0
  -14.4270  -68.8020  -23.2270 N   0  0  0  0  0  0  0  0  0  0  0  0
  -13.8840  -70.7390  -24.6110 C   0  0  0  0  0  0  0  0  0  0  0  0
 13 15  1  6
 14 13  1  0
 13 12  1  0
 12  9  1  0
  9  8  2  0
  8  7  1  0
  7  6  1  0
  6  2  1  0
  2  1  2  0
  3  2  1  0
  3  5  1  0
  5  4  1  0
  4  3  1  0
 10  7  2  0
 11 10  1  0
 12 11  2  0
M  END
$$$$

