Zika_NS5A-x0107_A_1108_1_Zika_NS5A-x0107+A+1108+1
     RDKit          3D

 11 12  0  0  0  0  0  0  0  0999 V2000
  -11.4920  -65.9990  -37.2110 C   0  0  0  0  0  0  0  0  0  0  0  0
  -11.7640  -65.6400  -35.8700 O   0  0  0  0  0  0  0  0  0  0  0  0
  -12.9110  -66.1200  -35.3080 C   0  0  0  0  0  0  0  0  0  0  0  0
  -12.8320  -67.4190  -34.7930 C   0  0  0  0  0  0  0  0  0  0  0  0
  -11.8700  -68.4760  -34.8800 C   0  0  0  0  0  0  0  0  0  0  0  0
  -12.3700  -69.5170  -34.1700 C   0  0  0  0  0  0  0  0  0  0  0  0
  -13.5860  -69.1830  -33.6380 N   0  0  0  0  0  0  0  0  0  0  0  0
  -13.8970  -67.8970  -34.0080 C   0  0  0  0  0  0  0  0  0  0  0  0
  -15.0150  -67.1240  -33.7450 C   0  0  0  0  0  0  0  0  0  0  0  0
  -15.0770  -65.8540  -34.2990 C   0  0  0  0  0  0  0  0  0  0  0  0
  -14.0410  -65.3600  -35.0830 C   0  0  0  0  0  0  0  0  0  0  0  0
  2  1  1  0
  3  2  1  0
  3 11  2  0
 11 10  1  0
 10  9  2  0
  9  8  1  0
  8  7  1  0
  7  6  1  0
  6  5  2  0
  5  4  1  0
  4  3  1  0
  8  4  2  0
M  END
$$$$

