Zika_NS5A-x0386_A_1112_1_Zika_NS5A-x0351+A+1112+1
     RDKit          3D

 17 18  0  0  0  0  0  0  0  0999 V2000
  -26.5950  -27.8360  -19.6220 O   0  0  0  0  0  0  0  0  0  0  0  0
  -26.7690  -28.8050  -20.3600 C   0  0  0  0  0  0  0  0  0  0  0  0
  -26.2180  -28.8150  -21.7500 C   0  0  0  0  0  0  0  0  0  0  0  0
  -25.0050  -28.1910  -22.0180 C   0  0  0  0  0  0  0  0  0  0  0  0
  -24.5640  -28.1300  -23.3250 C   0  0  0  0  0  0  0  0  0  0  0  0
  -25.2410  -28.6330  -24.3630 N   0  0  0  0  0  0  0  0  0  0  0  0
  -26.3970  -29.2450  -24.0900 C   0  0  0  0  0  0  0  0  0  0  0  0
  -26.9190  -29.3660  -22.8160 C   0  0  0  0  0  0  0  0  0  0  0  0
  -27.4790  -29.8990  -19.9940 N   0  0  0  0  0  0  0  0  0  0  0  0
  -28.1380  -30.0670  -18.7540 C   0  0  0  0  0  0  0  0  0  0  0  0
  -29.5270  -30.2500  -18.7600 C   0  0  0  0  0  0  0  0  0  0  0  0
  -30.3020  -30.3550  -20.0470 C   0  0  0  0  0  0  0  0  0  0  0  0
  -27.4320  -30.0220  -17.5510 C   0  0  0  0  0  0  0  0  0  0  0  0
  -28.1290  -30.1700  -16.3760 C   0  0  0  0  0  0  0  0  0  0  0  0
  -27.4250  -30.2480  -15.2080 F   0  0  0  0  0  0  0  0  0  0  0  0
  -29.4840  -30.3130  -16.3330 C   0  0  0  0  0  0  0  0  0  0  0  0
  -30.1720  -30.3540  -17.5300 C   0  0  0  0  0  0  0  0  0  0  0  0
 12 11  1  0
 11 17  2  0
 17 16  1  0
 16 14  2  0
 15 14  1  0
 14 13  1  0
 13 10  2  0
 11 10  1  0
 10  9  1  0
  9  2  1  0
  2  1  2  0
  3  2  1  0
  3  8  2  0
  8  7  1  0
  7  6  2  0
  6  5  1  0
  5  4  2  0
  4  3  1  0
M  END
$$$$

