ver_1.2
     RDKit          3D

 26 27  0  0  0  0  0  0  0  0999 V2000
   -5.8939    1.6683    1.5543 C   0  0  0  0  0  0  0  0  0  0  0  0
   -6.2209    0.2920    1.2348 N   0  0  0  0  0  0  0  0  0  0  0  0
   -4.7703   -0.6417    1.4192 S   0  0  0  0  0  0  0  0  0  0  0  0
   -4.2282   -0.5793    2.8128 O   0  0  0  0  0  0  0  0  0  0  0  0
   -5.0572   -2.0932    1.0631 O   0  0  0  0  0  0  0  0  0  0  0  0
   -3.5244   -0.1086    0.3259 C   0  0  0  0  0  0  0  0  0  0  0  0
   -2.3157    0.3576    0.7841 C   0  0  0  0  0  0  0  0  0  0  0  0
   -1.3430    0.7737   -0.0626 C   0  0  0  0  0  0  0  0  0  0  0  0
   -1.4690    0.7696   -1.4330 C   0  0  0  0  0  0  0  0  0  0  0  0
   -0.6519    1.1319   -2.5252 N   0  0  0  0  0  0  0  0  0  0  0  0
    0.6808    1.6522   -2.4733 C   0  0  0  0  0  0  0  0  0  0  0  0
    1.6643    0.6830   -1.8761 C   0  0  0  0  0  0  0  0  0  0  0  0
    1.3419    0.3198   -0.5363 N   0  0  0  0  0  0  0  0  0  0  0  0
    2.4319   -0.7834    0.1908 S   0  0  0  0  0  0  0  0  0  0  0  0
    1.8910   -1.1259    1.5509 O   0  0  0  0  0  0  0  0  0  0  0  0
    2.4721   -2.0319   -0.6571 O   0  0  0  0  0  0  0  0  0  0  0  0
    4.0521   -0.1093    0.2965 C   0  0  0  0  0  0  0  0  0  0  0  0
    4.2484    1.1649   -0.1931 C   0  0  0  0  0  0  0  0  0  0  0  0
    5.5036    1.7339   -0.1309 C   0  0  0  0  0  0  0  0  0  0  0  0
    6.5266    1.0124    0.4192 C   0  0  0  0  0  0  0  0  0  0  0  0
    6.3798   -0.2790    0.9279 C   0  0  0  0  0  0  0  0  0  0  0  0
    5.0989   -0.8190    0.8472 C   0  0  0  0  0  0  0  0  0  0  0  0
    4.7948   -2.4351    1.4550 Cl  0  0  0  0  0  0  0  0  0  0  0  0
   -2.6870    0.3010   -1.9361 C   0  0  0  0  0  0  0  0  0  0  0  0
   -3.6793   -0.1243   -1.0453 C   0  0  0  0  0  0  0  0  0  0  0  0
   -5.2454   -0.7296   -1.6059 Cl  0  0  0  0  0  0  0  0  0  0  0  0
  1  2  1  0
  2  3  1  0
  3  4  2  0
  3  5  2  0
  3  6  1  0
  6  7  2  0
  7  8  1  0
  8  9  2  0
  9 10  1  0
 10 11  1  0
 11 12  1  0
 12 13  1  0
 13 14  1  0
 14 15  2  0
 14 16  2  0
 14 17  1  0
 17 18  2  0
 18 19  1  0
 19 20  2  0
 20 21  1  0
 21 22  2  0
 22 23  1  0
  9 24  1  0
 24 25  2  0
 25 26  1  0
 25  6  1  0
 22 17  1  0
M  END
>  <ref_url>  (1) 
https://github.com/mwinokan/BulkDock

>  <submitter_name>  (1) 
Max Winokan

>  <submitter_email>  (1) 
max.winokan@diamond.ac.uk

>  <submitter_institution>  (1) 
DLS

>  <generation_date>  (1) 
2024-12-03

>  <method>  (1) 
Fstein_Thumb

>  <SLURM_JOB_ID>  (1) 
SLURM_JOB_ID

>  <SLURM_JOB_NAME>  (1) 
SLURM_JOB_NAME

>  <csv_name>  (1) 
csv_name

>  <scratch_subdir>  (1) 
scratch_subdir

>  <fragmenstein_runtime>  (1) 
fragmenstein_runtime

>  <fragmenstein_outcome>  (1) 
fragmenstein_outcome

>  <fragmenstein_mode>  (1) 
fragmenstein_mode

>  <fragmenstein_error>  (1) 
fragmenstein_error

>  <exports>  (1) 
exports

>  <HIPPO Pose ID>  (1) 
HIPPO Pose ID

>  <HIPPO Compound ID>  (1) 
HIPPO Compound ID

>  <smiles>  (1) 
smiles

>  <ref_pdb>  (1) 
protein reference

>  <ref_mols>  (1) 
fragment inspirations

>  <original ID>  (1) 
original ID

>  <compound inchikey>  (1) 
compound inchikey

$$$$
77309
     RDKit          3D

 26 27  0  0  0  0  0  0  0  0999 V2000
  -13.5855  -73.5999  -19.9519 C   0  0  0  0  0  0  0  0  0  0  0  0
  -12.6887  -72.7237  -19.1757 N   0  0  0  0  0  0  0  0  0  0  0  0
  -12.1434  -71.3506  -20.0120 S   0  0  0  0  0  0  0  0  0  0  0  0
  -12.2877  -71.6544  -21.4160 O   0  0  0  0  0  0  0  0  0  0  0  0
  -12.8205  -70.2383  -19.3809 O   0  0  0  0  0  0  0  0  0  0  0  0
  -10.4359  -71.2753  -19.5646 C   0  0  0  0  0  0  0  0  0  0  0  0
  -10.0284  -71.7160  -18.2943 C   0  0  0  0  0  0  0  0  0  0  0  0
   -8.6891  -71.6004  -17.9026 C   0  0  0  0  0  0  0  0  0  0  0  0
   -7.7566  -71.0178  -18.7596 C   0  0  0  0  0  0  0  0  0  0  0  0
   -6.4428  -70.7517  -18.3618 N   0  0  0  0  0  0  0  0  0  0  0  0
   -5.5899  -71.9127  -18.1115 C   0  0  0  0  0  0  0  0  0  0  0  0
   -4.1105  -71.4613  -18.0455 C   0  0  0  0  0  0  0  0  0  0  0  0
   -3.4488  -71.6201  -19.3505 N   0  0  0  0  0  0  0  0  0  0  0  0
   -3.6936  -70.5219  -20.5920 S   0  0  0  0  0  0  0  0  0  0  0  0
   -3.8323  -71.3029  -21.8004 O   0  0  0  0  0  0  0  0  0  0  0  0
   -4.7317  -69.6039  -20.1730 O   0  0  0  0  0  0  0  0  0  0  0  0
   -2.1663  -69.6541  -20.6910 C   0  0  0  0  0  0  0  0  0  0  0  0
   -2.1934  -68.2562  -20.6148 C   0  0  0  0  0  0  0  0  0  0  0  0
   -1.0049  -67.5399  -20.7125 C   0  0  0  0  0  0  0  0  0  0  0  0
    0.2049  -68.2052  -20.8776 C   0  0  0  0  0  0  0  0  0  0  0  0
    0.2319  -69.5946  -20.9688 C   0  0  0  0  0  0  0  0  0  0  0  0
   -0.9550  -70.3282  -20.8812 C   0  0  0  0  0  0  0  0  0  0  0  0
   -0.8089  -72.0454  -21.0191 Cl  0  0  0  0  0  0  0  0  0  0  0  0
   -8.1686  -70.6254  -20.0360 C   0  0  0  0  0  0  0  0  0  0  0  0
   -9.4973  -70.7506  -20.4440 C   0  0  0  0  0  0  0  0  0  0  0  0
   -9.8748  -70.1805  -22.0178 Cl  0  0  0  0  0  0  0  0  0  0  0  0
  1  2  1  0
  2  3  1  0
  3  4  2  0
  3  5  2  0
  3  6  1  0
  6  7  2  0
  7  8  1  0
  8  9  2  0
  9 10  1  0
 10 11  1  0
 11 12  1  0
 12 13  1  0
 13 14  1  0
 14 15  2  0
 14 16  2  0
 14 17  1  0
 17 18  2  0
 18 19  1  0
 19 20  2  0
 20 21  1  0
 21 22  2  0
 22 23  1  0
  9 24  1  0
 24 25  2  0
 25 26  1  0
 25  6  1  0
 22 17  1  0
M  END
>  <inchikey>  (1) 
AALDGRRBNDTXMU-UHFFFAOYSA-N

>  <alias>  (1) 
None

>  <name>  (1) 
AALDGRRBNDTXMU-UHFFFAOYSA-N

>  <original ID>  (1) 
AALDGRRBNDTXMU-UHFFFAOYSA-N

>  <csv_name>  (1) 
thumb_site_2_fstein_bulkdock_input_split1000_batch000.csv

>  <fragmenstein_error>  (1) 
None

>  <fragmenstein_mode>  (1) 
expansion

>  <ref_pdb>  (1) 
d0153b

>  <exports>  (1) 
['/opt/xchem-fragalysis-2/maxwin/BulkDock/OUTPUTS/thumb_site_2_fstein_bulkdock_input_split1000_batch000_217914.sdf']

>  <SLURM_JOB_ID>  (1) 
217914

>  <HIPPO Pose ID>  (1) 
77309

>  <energy_score>  (1) 
-69.399437

>  <fragmenstein_runtime>  (1) 
6.352942

>  <original SMILES>  (1) 
CNS(=O)(=O)c1ccc(NCCNS(=O)(=O)c2ccccc2Cl)cc1Cl

>  <scratch_subdir>  (1) 
/opt/xchem-fragalysis-2/maxwin/BulkDock/SCRATCH/217914/C68584-P9

>  <HIPPO Compound ID>  (1) 
68584

>  <fragmenstein_outcome>  (1) 
acceptable

>  <SLURM_JOB_NAME>  (1) 
BulkDock.place:Flavi_NS5_RdRp:thumb_site_2_fstein_bulkdock_input_split1000_batch000

>  <distance_score>  (1) 
0.5248

>  <ref_mols>  (1) 
d0153b,d0153a

>  <tags>  (1) 
['Fragmenstein placed']

$$$$
77312
     RDKit          3D

 26 27  0  0  0  0  0  0  0  0999 V2000
  -13.3987  -73.2760  -19.8619 C   0  0  0  0  0  0  0  0  0  0  0  0
  -13.2480  -71.9095  -19.3416 N   0  0  0  0  0  0  0  0  0  0  0  0
  -12.1351  -70.9220  -20.1608 S   0  0  0  0  0  0  0  0  0  0  0  0
  -12.0917  -71.4232  -21.5151 O   0  0  0  0  0  0  0  0  0  0  0  0
  -12.5660  -69.5801  -19.8386 O   0  0  0  0  0  0  0  0  0  0  0  0
  -10.5814  -71.1910  -19.3701 C   0  0  0  0  0  0  0  0  0  0  0  0
  -10.5011  -71.8049  -18.1206 C   0  0  0  0  0  0  0  0  0  0  0  0
   -9.2450  -72.0812  -17.5632 C   0  0  0  0  0  0  0  0  0  0  0  0
   -8.0553  -71.7824  -18.2448 C   0  0  0  0  0  0  0  0  0  0  0  0
   -6.8370  -72.1130  -17.6445 N   0  0  0  0  0  0  0  0  0  0  0  0
   -5.6283  -72.2541  -18.4752 C   0  0  0  0  0  0  0  0  0  0  0  0
   -4.5886  -71.1958  -18.0839 C   0  0  0  0  0  0  0  0  0  0  0  0
   -3.4567  -71.1460  -19.0233 N   0  0  0  0  0  0  0  0  0  0  0  0
   -3.7511  -70.3984  -20.5158 S   0  0  0  0  0  0  0  0  0  0  0  0
   -3.9463  -71.4207  -21.5167 O   0  0  0  0  0  0  0  0  0  0  0  0
   -4.7604  -69.3878  -20.2838 O   0  0  0  0  0  0  0  0  0  0  0  0
   -2.2095  -69.5895  -20.7975 C   0  0  0  0  0  0  0  0  0  0  0  0
   -2.1822  -68.1907  -20.7352 C   0  0  0  0  0  0  0  0  0  0  0  0
   -0.9647  -67.5255  -20.8123 C   0  0  0  0  0  0  0  0  0  0  0  0
    0.2161  -68.2417  -20.9668 C   0  0  0  0  0  0  0  0  0  0  0  0
    0.1875  -69.6300  -21.0672 C   0  0  0  0  0  0  0  0  0  0  0  0
   -1.0269  -70.3146  -20.9776 C   0  0  0  0  0  0  0  0  0  0  0  0
   -0.9405  -72.0381  -21.0256 Cl  0  0  0  0  0  0  0  0  0  0  0  0
   -8.1624  -71.0674  -19.4394 C   0  0  0  0  0  0  0  0  0  0  0  0
   -9.4118  -70.7976  -20.0131 C   0  0  0  0  0  0  0  0  0  0  0  0
   -9.4217  -69.9505  -21.5028 Cl  0  0  0  0  0  0  0  0  0  0  0  0
  1  2  1  0
  2  3  1  0
  3  4  2  0
  3  5  2  0
  3  6  1  0
  6  7  2  0
  7  8  1  0
  8  9  2  0
  9 10  1  0
 10 11  1  0
 11 12  1  0
 12 13  1  0
 13 14  1  0
 14 15  2  0
 14 16  2  0
 14 17  1  0
 17 18  2  0
 18 19  1  0
 19 20  2  0
 20 21  1  0
 21 22  2  0
 22 23  1  0
  9 24  1  0
 24 25  2  0
 25 26  1  0
 25  6  1  0
 22 17  1  0
M  END
>  <inchikey>  (2) 
AALDGRRBNDTXMU-UHFFFAOYSA-N

>  <alias>  (2) 
None

>  <name>  (2) 
AALDGRRBNDTXMU-UHFFFAOYSA-N

>  <original ID>  (2) 
AALDGRRBNDTXMU-UHFFFAOYSA-N

>  <csv_name>  (2) 
thumb_site_2_fstein_bulkdock_input_split1000_batch000.csv

>  <fragmenstein_error>  (2) 
None

>  <fragmenstein_mode>  (2) 
expansion

>  <ref_pdb>  (2) 
d0153a

>  <exports>  (2) 
['/opt/xchem-fragalysis-2/maxwin/BulkDock/OUTPUTS/thumb_site_2_fstein_bulkdock_input_split1000_batch000_217914.sdf']

>  <SLURM_JOB_ID>  (2) 
217914

>  <HIPPO Pose ID>  (2) 
77312

>  <energy_score>  (2) 
-64.579666

>  <fragmenstein_runtime>  (2) 
6.866135

>  <original SMILES>  (2) 
CNS(=O)(=O)c1ccc(NCCNS(=O)(=O)c2ccccc2Cl)cc1Cl

>  <scratch_subdir>  (2) 
/opt/xchem-fragalysis-2/maxwin/BulkDock/SCRATCH/217914/C68584-P10

>  <HIPPO Compound ID>  (2) 
68584

>  <fragmenstein_outcome>  (2) 
acceptable

>  <SLURM_JOB_NAME>  (2) 
BulkDock.place:Flavi_NS5_RdRp:thumb_site_2_fstein_bulkdock_input_split1000_batch000

>  <distance_score>  (2) 
0.441237

>  <ref_mols>  (2) 
d0153b,d0153a

>  <tags>  (2) 
['Fragmenstein placed']

$$$$
77314
     RDKit          3D

 25 27  0  0  0  0  0  0  0  0999 V2000
  -13.5731  -73.1764  -20.0697 C   0  0  0  0  0  0  0  0  0  0  0  0
  -13.4402  -71.8068  -19.5553 N   0  0  0  0  0  0  0  0  0  0  0  0
  -12.4619  -70.7619  -20.4702 S   0  0  0  0  0  0  0  0  0  0  0  0
  -12.7000  -71.1122  -21.8472 O   0  0  0  0  0  0  0  0  0  0  0  0
  -12.7580  -69.4443  -19.9546 O   0  0  0  0  0  0  0  0  0  0  0  0
  -10.8444  -71.1905  -19.9391 C   0  0  0  0  0  0  0  0  0  0  0  0
  -10.6080  -71.1534  -18.5538 C   0  0  0  0  0  0  0  0  0  0  0  0
   -9.3693  -71.5254  -18.0490 C   0  0  0  0  0  0  0  0  0  0  0  0
   -8.3564  -71.9159  -18.9242 C   0  0  0  0  0  0  0  0  0  0  0  0
   -7.1016  -72.2565  -18.4129 N   0  0  0  0  0  0  0  0  0  0  0  0
   -5.8405  -71.7637  -18.7852 C   0  0  0  0  0  0  0  0  0  0  0  0
   -4.7058  -72.4859  -18.4015 C   0  0  0  0  0  0  0  0  0  0  0  0
   -3.4263  -72.0552  -18.7588 C   0  0  0  0  0  0  0  0  0  0  0  0
   -3.2593  -70.8897  -19.5125 C   0  0  0  0  0  0  0  0  0  0  0  0
   -1.9432  -70.3900  -19.8773 C   0  0  0  0  0  0  0  0  0  0  0  0
   -0.8305  -71.1785  -20.0898 C   0  0  0  0  0  0  0  0  0  0  0  0
    0.4983  -70.1918  -20.5444 S   0  0  0  0  0  0  0  0  0  0  0  0
   -0.4995  -68.7992  -20.4141 C   0  0  0  0  0  0  0  0  0  0  0  0
   -0.0352  -67.5656  -20.6594 N   0  0  0  0  0  0  0  0  0  0  0  0
   -1.7365  -69.0355  -20.0586 N   0  0  0  0  0  0  0  0  0  0  0  0
   -4.3940  -70.1717  -19.9078 C   0  0  0  0  0  0  0  0  0  0  0  0
   -5.6718  -70.6154  -19.5637 C   0  0  0  0  0  0  0  0  0  0  0  0
   -8.5882  -71.9041  -20.3049 C   0  0  0  0  0  0  0  0  0  0  0  0
   -9.8359  -71.5646  -20.8224 C   0  0  0  0  0  0  0  0  0  0  0  0
   -9.9953  -71.6758  -22.5332 Cl  0  0  0  0  0  0  0  0  0  0  0  0
  1  2  1  0
  2  3  1  0
  3  4  2  0
  3  5  2  0
  3  6  1  0
  6  7  2  0
  7  8  1  0
  8  9  2  0
  9 10  1  0
 10 11  1  0
 11 12  2  0
 12 13  1  0
 13 14  2  0
 14 15  1  0
 15 16  2  0
 16 17  1  0
 17 18  1  0
 18 19  1  0
 18 20  2  0
 14 21  1  0
 21 22  2  0
  9 23  1  0
 23 24  2  0
 24 25  1  0
 24  6  1  0
 22 11  1  0
 20 15  1  0
M  END
>  <inchikey>  (3) 
LDVCWUHBZGDXKA-UHFFFAOYSA-N

>  <alias>  (3) 
None

>  <name>  (3) 
LDVCWUHBZGDXKA-UHFFFAOYSA-N

>  <original ID>  (3) 
LDVCWUHBZGDXKA-UHFFFAOYSA-N

>  <csv_name>  (3) 
thumb_site_2_fstein_bulkdock_input_split1000_batch000.csv

>  <fragmenstein_error>  (3) 
None

>  <fragmenstein_mode>  (3) 
expansion

>  <ref_pdb>  (3) 
d0153b

>  <exports>  (3) 
['/opt/xchem-fragalysis-2/maxwin/BulkDock/OUTPUTS/thumb_site_2_fstein_bulkdock_input_split1000_batch000_217914.sdf']

>  <SLURM_JOB_ID>  (3) 
217914

>  <HIPPO Pose ID>  (3) 
77314

>  <energy_score>  (3) 
-93.015354

>  <fragmenstein_runtime>  (3) 
4.567041

>  <original SMILES>  (3) 
CNS(=O)(=O)c1ccc(Nc2ccc(-c3csc(N)n3)cc2)cc1Cl

>  <scratch_subdir>  (3) 
/opt/xchem-fragalysis-2/maxwin/BulkDock/SCRATCH/217914/C68585-P9

>  <HIPPO Compound ID>  (3) 
68585

>  <fragmenstein_outcome>  (3) 
acceptable

>  <SLURM_JOB_NAME>  (3) 
BulkDock.place:Flavi_NS5_RdRp:thumb_site_2_fstein_bulkdock_input_split1000_batch000

>  <distance_score>  (3) 
0.926545

>  <ref_mols>  (3) 
d0153b,d0162a

>  <tags>  (3) 
['Fragmenstein placed']

$$$$
77319
     RDKit          3D

 25 27  0  0  0  0  0  0  0  0999 V2000
  -13.5959  -73.1420  -20.1294 C   0  0  0  0  0  0  0  0  0  0  0  0
  -13.4817  -71.7599  -19.6414 N   0  0  0  0  0  0  0  0  0  0  0  0
  -12.4528  -70.7403  -20.5261 S   0  0  0  0  0  0  0  0  0  0  0  0
  -12.6702  -71.0815  -21.9086 O   0  0  0  0  0  0  0  0  0  0  0  0
  -12.7259  -69.4161  -20.0152 O   0  0  0  0  0  0  0  0  0  0  0  0
  -10.8599  -71.2078  -19.9603 C   0  0  0  0  0  0  0  0  0  0  0  0
  -10.6534  -71.1811  -18.5694 C   0  0  0  0  0  0  0  0  0  0  0  0
   -9.4330  -71.5793  -18.0407 C   0  0  0  0  0  0  0  0  0  0  0  0
   -8.4098  -71.9832  -18.8976 C   0  0  0  0  0  0  0  0  0  0  0  0
   -7.1687  -72.3377  -18.3647 N   0  0  0  0  0  0  0  0  0  0  0  0
   -5.8961  -71.8736  -18.7303 C   0  0  0  0  0  0  0  0  0  0  0  0
   -4.7767  -72.6213  -18.3489 C   0  0  0  0  0  0  0  0  0  0  0  0
   -3.4872  -72.2188  -18.7046 C   0  0  0  0  0  0  0  0  0  0  0  0
   -3.2976  -71.0583  -19.4567 C   0  0  0  0  0  0  0  0  0  0  0  0
   -1.9783  -70.5729  -19.8252 C   0  0  0  0  0  0  0  0  0  0  0  0
   -0.8338  -71.3354  -19.9354 C   0  0  0  0  0  0  0  0  0  0  0  0
    0.4736  -70.3421  -20.4482 S   0  0  0  0  0  0  0  0  0  0  0  0
   -0.5798  -68.9894  -20.4851 C   0  0  0  0  0  0  0  0  0  0  0  0
   -0.1901  -67.7677  -20.8625 N   0  0  0  0  0  0  0  0  0  0  0  0
   -1.8088  -69.2368  -20.1162 N   0  0  0  0  0  0  0  0  0  0  0  0
   -4.4194  -70.3154  -19.8496 C   0  0  0  0  0  0  0  0  0  0  0  0
   -5.7050  -70.7261  -19.5034 C   0  0  0  0  0  0  0  0  0  0  0  0
   -8.6136  -71.9642  -20.2829 C   0  0  0  0  0  0  0  0  0  0  0  0
   -9.8422  -71.5988  -20.8249 C   0  0  0  0  0  0  0  0  0  0  0  0
   -9.9673  -71.6964  -22.5395 Cl  0  0  0  0  0  0  0  0  0  0  0  0
  1  2  1  0
  2  3  1  0
  3  4  2  0
  3  5  2  0
  3  6  1  0
  6  7  2  0
  7  8  1  0
  8  9  2  0
  9 10  1  0
 10 11  1  0
 11 12  2  0
 12 13  1  0
 13 14  2  0
 14 15  1  0
 15 16  2  0
 16 17  1  0
 17 18  1  0
 18 19  1  0
 18 20  2  0
 14 21  1  0
 21 22  2  0
  9 23  1  0
 23 24  2  0
 24 25  1  0
 24  6  1  0
 22 11  1  0
 20 15  1  0
M  END
>  <inchikey>  (4) 
LDVCWUHBZGDXKA-UHFFFAOYSA-N

>  <alias>  (4) 
None

>  <name>  (4) 
LDVCWUHBZGDXKA-UHFFFAOYSA-N

>  <original ID>  (4) 
LDVCWUHBZGDXKA-UHFFFAOYSA-N

>  <csv_name>  (4) 
thumb_site_2_fstein_bulkdock_input_split1000_batch000.csv

>  <fragmenstein_error>  (4) 
None

>  <fragmenstein_mode>  (4) 
expansion

>  <ref_pdb>  (4) 
d0162a

>  <exports>  (4) 
['/opt/xchem-fragalysis-2/maxwin/BulkDock/OUTPUTS/thumb_site_2_fstein_bulkdock_input_split1000_batch000_217914.sdf']

>  <SLURM_JOB_ID>  (4) 
217914

>  <HIPPO Pose ID>  (4) 
77319

>  <energy_score>  (4) 
-92.303142

>  <fragmenstein_runtime>  (4) 
4.922842

>  <original SMILES>  (4) 
CNS(=O)(=O)c1ccc(Nc2ccc(-c3csc(N)n3)cc2)cc1Cl

>  <scratch_subdir>  (4) 
/opt/xchem-fragalysis-2/maxwin/BulkDock/SCRATCH/217914/C68585-P15

>  <HIPPO Compound ID>  (4) 
68585

>  <fragmenstein_outcome>  (4) 
acceptable

>  <SLURM_JOB_NAME>  (4) 
BulkDock.place:Flavi_NS5_RdRp:thumb_site_2_fstein_bulkdock_input_split1000_batch000

>  <distance_score>  (4) 
0.939781

>  <ref_mols>  (4) 
d0153b,d0162a

>  <tags>  (4) 
['Fragmenstein placed']

$$$$
77332
     RDKit          3D

 29 31  0  0  0  0  0  0  0  0999 V2000
  -13.2903  -73.2745  -19.8304 C   0  0  0  0  0  0  0  0  0  0  0  0
  -13.0657  -71.9132  -19.3228 N   0  0  0  0  0  0  0  0  0  0  0  0
  -11.9141  -70.9878  -20.1625 S   0  0  0  0  0  0  0  0  0  0  0  0
  -12.3421  -69.6257  -19.9339 O   0  0  0  0  0  0  0  0  0  0  0  0
  -11.8214  -71.5648  -21.4838 O   0  0  0  0  0  0  0  0  0  0  0  0
  -10.3793  -71.2109  -19.3078 C   0  0  0  0  0  0  0  0  0  0  0  0
  -10.3498  -71.7975  -18.0400 C   0  0  0  0  0  0  0  0  0  0  0  0
   -9.1281  -71.9714  -17.3872 C   0  0  0  0  0  0  0  0  0  0  0  0
   -7.9380  -71.5613  -17.9941 C   0  0  0  0  0  0  0  0  0  0  0  0
   -7.9461  -70.9402  -19.2498 C   0  0  0  0  0  0  0  0  0  0  0  0
   -6.7075  -70.5364  -19.8382 N   0  0  0  0  0  0  0  0  0  0  0  0
   -5.7622  -69.9455  -18.9778 O   0  0  0  0  0  0  0  0  0  0  0  0
   -4.5497  -69.7678  -19.6044 C   0  0  0  0  0  0  0  0  0  0  0  0
   -3.8546  -70.8193  -20.2019 C   0  0  0  0  0  0  0  0  0  0  0  0
   -2.5660  -70.6021  -20.7072 C   0  0  0  0  0  0  0  0  0  0  0  0
   -1.9810  -69.3318  -20.6095 C   0  0  0  0  0  0  0  0  0  0  0  0
   -0.3424  -69.0585  -21.2599 S   0  0  0  0  0  0  0  0  0  0  0  0
   -0.1504  -70.0333  -22.3161 O   0  0  0  0  0  0  0  0  0  0  0  0
   -0.2026  -67.6455  -21.5162 O   0  0  0  0  0  0  0  0  0  0  0  0
    0.6322  -69.5019  -19.9334 N   0  0  0  0  0  0  0  0  0  0  0  0
    1.9223  -70.1523  -20.2932 C   0  0  0  0  0  0  0  0  0  0  0  0
    2.6015  -70.7017  -19.0240 C   0  0  0  0  0  0  0  0  0  0  0  0
    2.8635  -69.6561  -18.0233 N   0  0  0  0  0  0  0  0  0  0  0  0
    1.6087  -68.9495  -17.7023 C   0  0  0  0  0  0  0  0  0  0  0  0
    0.8634  -68.4025  -18.9379 C   0  0  0  0  0  0  0  0  0  0  0  0
   -2.6889  -68.2713  -20.0465 C   0  0  0  0  0  0  0  0  0  0  0  0
   -3.9618  -68.5025  -19.5208 C   0  0  0  0  0  0  0  0  0  0  0  0
   -9.1865  -70.7807  -19.9093 C   0  0  0  0  0  0  0  0  0  0  0  0
   -9.2143  -69.9481  -21.4140 Cl  0  0  0  0  0  0  0  0  0  0  0  0
  1  2  1  0
  2  3  1  0
  3  4  2  0
  3  5  2  0
  3  6  1  0
  6  7  2  0
  7  8  1  0
  8  9  2  0
  9 10  1  0
 10 11  1  0
 11 12  1  0
 12 13  1  0
 13 14  2  0
 14 15  1  0
 15 16  2  0
 16 17  1  0
 17 18  2  0
 17 19  2  0
 17 20  1  0
 20 21  1  0
 21 22  1  0
 22 23  1  0
 23 24  1  0
 24 25  1  0
 16 26  1  0
 26 27  2  0
 10 28  2  0
 28 29  1  0
 28  6  1  0
 27 13  1  0
 25 20  1  0
M  END
>  <inchikey>  (5) 
QZGFLAHSQXQMBO-UHFFFAOYSA-N

>  <alias>  (5) 
None

>  <name>  (5) 
QZGFLAHSQXQMBO-UHFFFAOYSA-N

>  <original ID>  (5) 
QZGFLAHSQXQMBO-UHFFFAOYSA-N

>  <csv_name>  (5) 
thumb_site_2_fstein_bulkdock_input_split1000_batch000.csv

>  <fragmenstein_error>  (5) 
None

>  <fragmenstein_mode>  (5) 
expansion

>  <ref_pdb>  (5) 
d0153b

>  <exports>  (5) 
['/opt/xchem-fragalysis-2/maxwin/BulkDock/OUTPUTS/thumb_site_2_fstein_bulkdock_input_split1000_batch000_217914.sdf']

>  <SLURM_JOB_ID>  (5) 
217914

>  <HIPPO Pose ID>  (5) 
77332

>  <energy_score>  (5) 
-121.063116

>  <fragmenstein_runtime>  (5) 
10.972489

>  <original SMILES>  (5) 
CNS(=O)(=O)c1cccc(NOc2ccc(S(=O)(=O)N3CCNCC3)cc2)c1Cl

>  <scratch_subdir>  (5) 
/opt/xchem-fragalysis-2/maxwin/BulkDock/SCRATCH/217914/C68587-P9

>  <HIPPO Compound ID>  (5) 
68587

>  <fragmenstein_outcome>  (5) 
acceptable

>  <SLURM_JOB_NAME>  (5) 
BulkDock.place:Flavi_NS5_RdRp:thumb_site_2_fstein_bulkdock_input_split1000_batch000

>  <distance_score>  (5) 
0.447717

>  <ref_mols>  (5) 
d0153b,d0210a

>  <tags>  (5) 
['Fragmenstein placed']

$$$$
77337
     RDKit          3D

 29 31  0  0  0  0  0  0  0  0999 V2000
  -13.3029  -73.5162  -19.8496 C   0  0  0  0  0  0  0  0  0  0  0  0
  -13.0871  -72.1126  -19.4778 N   0  0  0  0  0  0  0  0  0  0  0  0
  -11.7805  -71.3360  -20.2326 S   0  0  0  0  0  0  0  0  0  0  0  0
  -12.1005  -69.9304  -20.0815 O   0  0  0  0  0  0  0  0  0  0  0  0
  -11.6553  -71.9526  -21.5290 O   0  0  0  0  0  0  0  0  0  0  0  0
  -10.4011  -71.6660  -19.1574 C   0  0  0  0  0  0  0  0  0  0  0  0
  -10.5317  -71.2674  -17.8236 C   0  0  0  0  0  0  0  0  0  0  0  0
   -9.4183  -71.2728  -16.9923 C   0  0  0  0  0  0  0  0  0  0  0  0
   -8.1551  -71.4922  -17.5430 C   0  0  0  0  0  0  0  0  0  0  0  0
   -7.9872  -71.7621  -18.8985 C   0  0  0  0  0  0  0  0  0  0  0  0
   -6.6618  -71.6770  -19.4562 N   0  0  0  0  0  0  0  0  0  0  0  0
   -5.9421  -70.5150  -19.0456 O   0  0  0  0  0  0  0  0  0  0  0  0
   -4.6881  -70.3246  -19.5929 C   0  0  0  0  0  0  0  0  0  0  0  0
   -3.9578  -71.2361  -20.3490 C   0  0  0  0  0  0  0  0  0  0  0  0
   -2.6763  -70.8882  -20.8300 C   0  0  0  0  0  0  0  0  0  0  0  0
   -2.1228  -69.6275  -20.5535 C   0  0  0  0  0  0  0  0  0  0  0  0
   -0.5207  -69.1657  -21.2157 S   0  0  0  0  0  0  0  0  0  0  0  0
   -0.2456  -70.0836  -22.3036 O   0  0  0  0  0  0  0  0  0  0  0  0
   -0.5427  -67.7376  -21.4321 O   0  0  0  0  0  0  0  0  0  0  0  0
    0.5058  -69.5447  -19.9099 N   0  0  0  0  0  0  0  0  0  0  0  0
    1.7113  -70.3451  -20.2577 C   0  0  0  0  0  0  0  0  0  0  0  0
    2.4385  -70.7963  -18.9771 C   0  0  0  0  0  0  0  0  0  0  0  0
    2.8362  -69.6690  -18.1207 N   0  0  0  0  0  0  0  0  0  0  0  0
    1.6500  -68.8531  -17.7972 C   0  0  0  0  0  0  0  0  0  0  0  0
    0.8604  -68.3806  -19.0349 C   0  0  0  0  0  0  0  0  0  0  0  0
   -2.8513  -68.7055  -19.8103 C   0  0  0  0  0  0  0  0  0  0  0  0
   -4.1101  -69.0721  -19.3167 C   0  0  0  0  0  0  0  0  0  0  0  0
   -9.1485  -72.0744  -19.6312 C   0  0  0  0  0  0  0  0  0  0  0  0
   -8.9835  -73.0790  -21.0111 Cl  0  0  0  0  0  0  0  0  0  0  0  0
  1  2  1  0
  2  3  1  0
  3  4  2  0
  3  5  2  0
  3  6  1  0
  6  7  2  0
  7  8  1  0
  8  9  2  0
  9 10  1  0
 10 11  1  0
 11 12  1  0
 12 13  1  0
 13 14  2  0
 14 15  1  0
 15 16  2  0
 16 17  1  0
 17 18  2  0
 17 19  2  0
 17 20  1  0
 20 21  1  0
 21 22  1  0
 22 23  1  0
 23 24  1  0
 24 25  1  0
 16 26  1  0
 26 27  2  0
 10 28  2  0
 28 29  1  0
 28  6  1  0
 27 13  1  0
 25 20  1  0
M  END
>  <inchikey>  (6) 
QZGFLAHSQXQMBO-UHFFFAOYSA-N

>  <alias>  (6) 
None

>  <name>  (6) 
QZGFLAHSQXQMBO-UHFFFAOYSA-N

>  <original ID>  (6) 
QZGFLAHSQXQMBO-UHFFFAOYSA-N

>  <csv_name>  (6) 
thumb_site_2_fstein_bulkdock_input_split1000_batch000.csv

>  <fragmenstein_error>  (6) 
None

>  <fragmenstein_mode>  (6) 
expansion

>  <ref_pdb>  (6) 
d0210a

>  <exports>  (6) 
['/opt/xchem-fragalysis-2/maxwin/BulkDock/OUTPUTS/thumb_site_2_fstein_bulkdock_input_split1000_batch000_217914.sdf']

>  <SLURM_JOB_ID>  (6) 
217914

>  <HIPPO Pose ID>  (6) 
77337

>  <energy_score>  (6) 
-102.115594

>  <fragmenstein_runtime>  (6) 
12.47785

>  <original SMILES>  (6) 
CNS(=O)(=O)c1cccc(NOc2ccc(S(=O)(=O)N3CCNCC3)cc2)c1Cl

>  <scratch_subdir>  (6) 
/opt/xchem-fragalysis-2/maxwin/BulkDock/SCRATCH/217914/C68587-P21

>  <HIPPO Compound ID>  (6) 
68587

>  <fragmenstein_outcome>  (6) 
acceptable

>  <SLURM_JOB_NAME>  (6) 
BulkDock.place:Flavi_NS5_RdRp:thumb_site_2_fstein_bulkdock_input_split1000_batch000

>  <distance_score>  (6) 
0.862134

>  <ref_mols>  (6) 
d0153b,d0210a

>  <tags>  (6) 
['Fragmenstein placed']

$$$$
77354
     RDKit          3D

 19 20  0  0  0  0  0  0  0  0999 V2000
  -13.3724  -73.8675  -19.7670 C   0  0  0  0  0  0  0  0  0  0  0  0
  -12.1893  -73.1376  -19.2742 N   0  0  0  0  0  0  0  0  0  0  0  0
  -12.0707  -71.5627  -19.8320 S   0  0  0  0  0  0  0  0  0  0  0  0
  -12.6006  -71.5728  -21.1816 O   0  0  0  0  0  0  0  0  0  0  0  0
  -12.6618  -70.7136  -18.8215 O   0  0  0  0  0  0  0  0  0  0  0  0
  -10.3642  -71.1561  -19.9719 C   0  0  0  0  0  0  0  0  0  0  0  0
  -10.1644  -70.1691  -20.9386 C   0  0  0  0  0  0  0  0  0  0  0  0
   -8.9049  -69.6933  -21.1872 C   0  0  0  0  0  0  0  0  0  0  0  0
   -7.8183  -70.2439  -20.5308 C   0  0  0  0  0  0  0  0  0  0  0  0
   -7.9448  -71.2856  -19.6121 C   0  0  0  0  0  0  0  0  0  0  0  0
   -6.7873  -71.7917  -18.9669 N   0  0  0  0  0  0  0  0  0  0  0  0
   -5.4916  -71.6962  -19.6796 C   0  0  0  0  0  0  0  0  0  0  0  0
   -4.7019  -70.4589  -19.2316 C   0  0  0  0  0  0  0  0  0  0  0  0
   -3.3809  -70.4025  -19.9878 C   0  0  0  0  0  0  0  0  0  0  0  0
   -2.6221  -71.5900  -19.7589 O   0  0  0  0  0  0  0  0  0  0  0  0
   -3.3012  -72.7749  -20.1705 C   0  0  0  0  0  0  0  0  0  0  0  0
   -4.6293  -72.9359  -19.4348 C   0  0  0  0  0  0  0  0  0  0  0  0
   -9.2667  -71.7015  -19.2789 C   0  0  0  0  0  0  0  0  0  0  0  0
   -9.4316  -72.8535  -17.9950 Cl  0  0  0  0  0  0  0  0  0  0  0  0
  1  2  1  0
  2  3  1  0
  3  4  2  0
  3  5  2  0
  3  6  1  0
  6  7  2  0
  7  8  1  0
  8  9  2  0
  9 10  1  0
 10 11  1  0
 11 12  1  0
 12 13  1  0
 13 14  1  0
 14 15  1  0
 15 16  1  0
 16 17  1  0
 10 18  2  0
 18 19  1  0
 18  6  1  0
 17 12  1  0
M  END
>  <inchikey>  (7) 
LBYOSQKDKOKAKC-UHFFFAOYSA-N

>  <alias>  (7) 
None

>  <name>  (7) 
LBYOSQKDKOKAKC-UHFFFAOYSA-N

>  <original ID>  (7) 
LBYOSQKDKOKAKC-UHFFFAOYSA-N

>  <csv_name>  (7) 
thumb_site_2_fstein_bulkdock_input_split1000_batch000.csv

>  <fragmenstein_error>  (7) 
None

>  <fragmenstein_mode>  (7) 
expansion

>  <ref_pdb>  (7) 
d0153b

>  <exports>  (7) 
['/opt/xchem-fragalysis-2/maxwin/BulkDock/OUTPUTS/thumb_site_2_fstein_bulkdock_input_split1000_batch000_217914.sdf']

>  <SLURM_JOB_ID>  (7) 
217914

>  <HIPPO Pose ID>  (7) 
77354

>  <energy_score>  (7) 
-39.079411

>  <fragmenstein_runtime>  (7) 
3.693345

>  <original SMILES>  (7) 
CNS(=O)(=O)c1cccc(NC2CCOCC2)c1Cl

>  <scratch_subdir>  (7) 
/opt/xchem-fragalysis-2/maxwin/BulkDock/SCRATCH/217914/C68591-P9

>  <HIPPO Compound ID>  (7) 
68591

>  <fragmenstein_outcome>  (7) 
acceptable

>  <SLURM_JOB_NAME>  (7) 
BulkDock.place:Flavi_NS5_RdRp:thumb_site_2_fstein_bulkdock_input_split1000_batch000

>  <distance_score>  (7) 
0.914858

>  <ref_mols>  (7) 
d0153b,d0279a

>  <tags>  (7) 
['Fragmenstein placed']

$$$$
77357
     RDKit          3D

 19 20  0  0  0  0  0  0  0  0999 V2000
  -13.3733  -73.8163  -19.7008 C   0  0  0  0  0  0  0  0  0  0  0  0
  -12.1441  -73.1172  -19.2724 N   0  0  0  0  0  0  0  0  0  0  0  0
  -12.0174  -71.5518  -19.8544 S   0  0  0  0  0  0  0  0  0  0  0  0
  -12.5276  -71.5842  -21.2110 O   0  0  0  0  0  0  0  0  0  0  0  0
  -12.6266  -70.6878  -18.8661 O   0  0  0  0  0  0  0  0  0  0  0  0
  -10.3114  -71.1304  -19.9766 C   0  0  0  0  0  0  0  0  0  0  0  0
  -10.1143  -70.1269  -20.9262 C   0  0  0  0  0  0  0  0  0  0  0  0
   -8.8680  -69.5903  -21.1270 C   0  0  0  0  0  0  0  0  0  0  0  0
   -7.7779  -70.1174  -20.4628 C   0  0  0  0  0  0  0  0  0  0  0  0
   -7.8961  -71.1947  -19.5804 C   0  0  0  0  0  0  0  0  0  0  0  0
   -6.7330  -71.6984  -18.9340 N   0  0  0  0  0  0  0  0  0  0  0  0
   -5.4592  -71.6376  -19.6938 C   0  0  0  0  0  0  0  0  0  0  0  0
   -4.6177  -70.4216  -19.2825 C   0  0  0  0  0  0  0  0  0  0  0  0
   -3.3290  -70.4073  -20.0955 C   0  0  0  0  0  0  0  0  0  0  0  0
   -2.5927  -71.6113  -19.8777 O   0  0  0  0  0  0  0  0  0  0  0  0
   -3.3162  -72.7822  -20.2517 C   0  0  0  0  0  0  0  0  0  0  0  0
   -4.6230  -72.9001  -19.4715 C   0  0  0  0  0  0  0  0  0  0  0  0
   -9.2126  -71.6561  -19.2758 C   0  0  0  0  0  0  0  0  0  0  0  0
   -9.3665  -72.8377  -18.0185 Cl  0  0  0  0  0  0  0  0  0  0  0  0
  1  2  1  0
  2  3  1  0
  3  4  2  0
  3  5  2  0
  3  6  1  0
  6  7  2  0
  7  8  1  0
  8  9  2  0
  9 10  1  0
 10 11  1  0
 11 12  1  0
 12 13  1  0
 13 14  1  0
 14 15  1  0
 15 16  1  0
 16 17  1  0
 10 18  2  0
 18 19  1  0
 18  6  1  0
 17 12  1  0
M  END
>  <inchikey>  (8) 
LBYOSQKDKOKAKC-UHFFFAOYSA-N

>  <alias>  (8) 
None

>  <name>  (8) 
LBYOSQKDKOKAKC-UHFFFAOYSA-N

>  <original ID>  (8) 
LBYOSQKDKOKAKC-UHFFFAOYSA-N

>  <csv_name>  (8) 
thumb_site_2_fstein_bulkdock_input_split1000_batch000.csv

>  <fragmenstein_error>  (8) 
None

>  <fragmenstein_mode>  (8) 
expansion

>  <ref_pdb>  (8) 
d0279a

>  <exports>  (8) 
['/opt/xchem-fragalysis-2/maxwin/BulkDock/OUTPUTS/thumb_site_2_fstein_bulkdock_input_split1000_batch000_217914.sdf']

>  <SLURM_JOB_ID>  (8) 
217914

>  <HIPPO Pose ID>  (8) 
77357

>  <energy_score>  (8) 
-38.58548

>  <fragmenstein_runtime>  (8) 
4.217252

>  <original SMILES>  (8) 
CNS(=O)(=O)c1cccc(NC2CCOCC2)c1Cl

>  <scratch_subdir>  (8) 
/opt/xchem-fragalysis-2/maxwin/BulkDock/SCRATCH/217914/C68591-P29

>  <HIPPO Compound ID>  (8) 
68591

>  <fragmenstein_outcome>  (8) 
acceptable

>  <SLURM_JOB_NAME>  (8) 
BulkDock.place:Flavi_NS5_RdRp:thumb_site_2_fstein_bulkdock_input_split1000_batch000

>  <distance_score>  (8) 
0.887345

>  <ref_mols>  (8) 
d0153b,d0279a

>  <tags>  (8) 
['Fragmenstein placed']

$$$$
77373
     RDKit          3D

 20 21  0  0  0  0  0  0  0  0999 V2000
  -11.7821  -71.7208  -21.7325 C   0  0  0  0  0  0  0  0  0  0  0  0
  -11.8946  -72.0241  -20.3091 N   0  0  0  0  0  0  0  0  0  0  0  0
  -11.3342  -70.9019  -19.1956 S   0  0  0  0  0  0  0  0  0  0  0  0
  -11.4821  -69.5858  -19.7609 O   0  0  0  0  0  0  0  0  0  0  0  0
  -12.0237  -71.2531  -17.9682 O   0  0  0  0  0  0  0  0  0  0  0  0
   -9.6274  -71.3504  -18.9593 C   0  0  0  0  0  0  0  0  0  0  0  0
   -9.3510  -72.2015  -17.8785 C   0  0  0  0  0  0  0  0  0  0  0  0
   -8.0411  -72.5488  -17.5690 C   0  0  0  0  0  0  0  0  0  0  0  0
   -6.9866  -72.0426  -18.3259 C   0  0  0  0  0  0  0  0  0  0  0  0
   -7.2284  -71.1825  -19.4043 C   0  0  0  0  0  0  0  0  0  0  0  0
   -6.2216  -70.6297  -20.1725 O   0  0  0  0  0  0  0  0  0  0  0  0
   -4.8641  -70.7938  -19.7629 C   0  0  2  0  0  0  0  0  0  0  0  0
   -4.5271  -69.8802  -18.5797 C   0  0  0  0  0  0  0  0  0  0  0  0
   -3.9605  -68.6347  -19.2235 C   0  0  0  0  0  0  0  0  0  0  0  0
   -3.2673  -69.1418  -20.3685 N   0  0  0  0  0  0  0  0  0  0  0  0
   -2.4350  -68.2760  -21.1725 C   0  0  0  0  0  0  0  0  0  0  0  0
   -3.8432  -70.3216  -20.8199 C   0  0  0  0  0  0  0  0  0  0  0  0
   -3.5839  -70.8905  -21.8707 O   0  0  0  0  0  0  0  0  0  0  0  0
   -8.5702  -70.8452  -19.7267 C   0  0  0  0  0  0  0  0  0  0  0  0
   -8.8606  -69.8203  -21.0745 Cl  0  0  0  0  0  0  0  0  0  0  0  0
  1  2  1  0
  2  3  1  0
  3  4  2  0
  3  5  2  0
  3  6  1  0
  6  7  2  0
  7  8  1  0
  8  9  2  0
  9 10  1  0
 10 11  1  0
 12 11  1  6
 12 13  1  0
 13 14  1  0
 14 15  1  0
 15 16  1  0
 15 17  1  0
 17 18  2  0
 10 19  2  0
 19 20  1  0
 19  6  1  0
 17 12  1  0
M  END
>  <inchikey>  (9) 
GULNTVFOIXCSOS-SECBINFHSA-N

>  <alias>  (9) 
None

>  <name>  (9) 
GULNTVFOIXCSOS-SECBINFHSA-N

>  <original ID>  (9) 
GULNTVFOIXCSOS-SECBINFHSA-N

>  <csv_name>  (9) 
thumb_site_2_fstein_bulkdock_input_split1000_batch000.csv

>  <fragmenstein_error>  (9) 
None

>  <fragmenstein_mode>  (9) 
expansion

>  <ref_pdb>  (9) 
d0153b

>  <exports>  (9) 
['/opt/xchem-fragalysis-2/maxwin/BulkDock/OUTPUTS/thumb_site_2_fstein_bulkdock_input_split1000_batch000_217914.sdf']

>  <SLURM_JOB_ID>  (9) 
217914

>  <HIPPO Pose ID>  (9) 
77373

>  <energy_score>  (9) 
-69.99622

>  <fragmenstein_runtime>  (9) 
2.893738

>  <original SMILES>  (9) 
CNS(=O)(=O)c1cccc(O[C@@H]2CCN(C)C2=O)c1Cl

>  <scratch_subdir>  (9) 
/opt/xchem-fragalysis-2/maxwin/BulkDock/SCRATCH/217914/C68596-P9

>  <HIPPO Compound ID>  (9) 
68596

>  <fragmenstein_outcome>  (9) 
acceptable

>  <SLURM_JOB_NAME>  (9) 
BulkDock.place:Flavi_NS5_RdRp:thumb_site_2_fstein_bulkdock_input_split1000_batch000

>  <distance_score>  (9) 
0.617436

>  <ref_mols>  (9) 
d0153b,d0566a

>  <tags>  (9) 
['Fragmenstein placed']

$$$$
77374
     RDKit          3D

 20 21  0  0  0  0  0  0  0  0999 V2000
  -11.6713  -71.6877  -21.8567 C   0  0  0  0  0  0  0  0  0  0  0  0
  -11.7922  -71.9720  -20.4312 N   0  0  0  0  0  0  0  0  0  0  0  0
  -11.2528  -70.8308  -19.3299 S   0  0  0  0  0  0  0  0  0  0  0  0
  -11.3827  -69.5237  -19.9203 O   0  0  0  0  0  0  0  0  0  0  0  0
  -11.9714  -71.1590  -18.1126 O   0  0  0  0  0  0  0  0  0  0  0  0
   -9.5511  -71.2698  -19.0530 C   0  0  0  0  0  0  0  0  0  0  0  0
   -9.2967  -72.1063  -17.9544 C   0  0  0  0  0  0  0  0  0  0  0  0
   -7.9922  -72.4314  -17.5995 C   0  0  0  0  0  0  0  0  0  0  0  0
   -6.9213  -71.9136  -18.3249 C   0  0  0  0  0  0  0  0  0  0  0  0
   -7.1431  -71.0708  -19.4204 C   0  0  0  0  0  0  0  0  0  0  0  0
   -6.1276  -70.5001  -20.1596 O   0  0  0  0  0  0  0  0  0  0  0  0
   -4.7757  -70.6626  -19.7379 C   0  0  2  0  0  0  0  0  0  0  0  0
   -4.4358  -69.7313  -18.5697 C   0  0  0  0  0  0  0  0  0  0  0  0
   -3.8269  -68.5097  -19.2245 C   0  0  0  0  0  0  0  0  0  0  0  0
   -3.1442  -69.0517  -20.3613 N   0  0  0  0  0  0  0  0  0  0  0  0
   -2.3166  -68.2068  -21.1920 C   0  0  0  0  0  0  0  0  0  0  0  0
   -3.7684  -70.2089  -20.8106 C   0  0  0  0  0  0  0  0  0  0  0  0
   -3.5590  -70.7695  -21.8763 O   0  0  0  0  0  0  0  0  0  0  0  0
   -8.4770  -70.7604  -19.7958 C   0  0  0  0  0  0  0  0  0  0  0  0
   -8.7163  -69.7631  -21.1803 Cl  0  0  0  0  0  0  0  0  0  0  0  0
  1  2  1  0
  2  3  1  0
  3  4  2  0
  3  5  2  0
  3  6  1  0
  6  7  2  0
  7  8  1  0
  8  9  2  0
  9 10  1  0
 10 11  1  0
 12 11  1  6
 12 13  1  0
 13 14  1  0
 14 15  1  0
 15 16  1  0
 15 17  1  0
 17 18  2  0
 10 19  2  0
 19 20  1  0
 19  6  1  0
 17 12  1  0
M  END
>  <inchikey>  (10) 
GULNTVFOIXCSOS-SECBINFHSA-N

>  <alias>  (10) 
None

>  <name>  (10) 
GULNTVFOIXCSOS-SECBINFHSA-N

>  <original ID>  (10) 
GULNTVFOIXCSOS-SECBINFHSA-N

>  <csv_name>  (10) 
thumb_site_2_fstein_bulkdock_input_split1000_batch000.csv

>  <fragmenstein_error>  (10) 
None

>  <fragmenstein_mode>  (10) 
expansion

>  <ref_pdb>  (10) 
d0566a

>  <exports>  (10) 
['/opt/xchem-fragalysis-2/maxwin/BulkDock/OUTPUTS/thumb_site_2_fstein_bulkdock_input_split1000_batch000_217914.sdf']

>  <SLURM_JOB_ID>  (10) 
217914

>  <HIPPO Pose ID>  (10) 
77374

>  <energy_score>  (10) 
-70.50007

>  <fragmenstein_runtime>  (10) 
2.823804

>  <original SMILES>  (10) 
CNS(=O)(=O)c1cccc(O[C@@H]2CCN(C)C2=O)c1Cl

>  <scratch_subdir>  (10) 
/opt/xchem-fragalysis-2/maxwin/BulkDock/SCRATCH/217914/C68596-P45

>  <HIPPO Compound ID>  (10) 
68596

>  <fragmenstein_outcome>  (10) 
acceptable

>  <SLURM_JOB_NAME>  (10) 
BulkDock.place:Flavi_NS5_RdRp:thumb_site_2_fstein_bulkdock_input_split1000_batch000

>  <distance_score>  (10) 
0.578177

>  <ref_mols>  (10) 
d0153b,d0566a

>  <tags>  (10) 
['Fragmenstein placed']

$$$$
77375
     RDKit          3D

 17 17  0  0  0  0  0  0  0  0999 V2000
  -12.1037  -72.3162  -15.3076 C   0  0  0  0  0  0  0  0  0  0  0  0
  -10.9786  -71.3894  -15.2424 N   0  0  0  0  0  0  0  0  0  0  0  0
   -9.5072  -71.9677  -15.8083 S   0  0  0  0  0  0  0  0  0  0  0  0
   -8.5151  -71.1603  -15.1404 O   0  0  0  0  0  0  0  0  0  0  0  0
   -9.5342  -73.4077  -15.7495 O   0  0  0  0  0  0  0  0  0  0  0  0
   -9.4838  -71.4875  -17.5085 C   0  0  0  0  0  0  0  0  0  0  0  0
   -8.2713  -71.2859  -18.1682 C   0  0  0  0  0  0  0  0  0  0  0  0
   -8.2860  -70.8798  -19.5070 C   0  0  0  0  0  0  0  0  0  0  0  0
   -9.5021  -70.7152  -20.1857 C   0  0  0  0  0  0  0  0  0  0  0  0
   -9.4711  -70.0862  -21.7670 Cl  0  0  0  0  0  0  0  0  0  0  0  0
  -10.6932  -70.9816  -19.5336 C   0  0  0  0  0  0  0  0  0  0  0  0
  -12.2601  -71.0279  -20.3409 S   0  0  0  0  0  0  0  0  0  0  0  0
  -12.0973  -71.2908  -21.7501 O   0  0  0  0  0  0  0  0  0  0  0  0
  -13.0579  -69.9412  -19.8227 O   0  0  0  0  0  0  0  0  0  0  0  0
  -12.9044  -72.4792  -19.7074 N   0  0  0  0  0  0  0  0  0  0  0  0
  -14.0400  -73.0075  -20.4823 C   0  0  0  0  0  0  0  0  0  0  0  0
  -10.6850  -71.3054  -18.1819 C   0  0  0  0  0  0  0  0  0  0  0  0
  1  2  1  0
  2  3  1  0
  3  4  2  0
  3  5  2  0
  3  6  1  0
  6  7  2  0
  7  8  1  0
  8  9  2  0
  9 10  1  0
  9 11  1  0
 11 12  1  0
 12 13  2  0
 12 14  2  0
 12 15  1  0
 15 16  1  0
 11 17  2  0
 17  6  1  0
M  END
>  <inchikey>  (11) 
ZLMRZOHMHKRTFQ-UHFFFAOYSA-N

>  <alias>  (11) 
None

>  <name>  (11) 
ZLMRZOHMHKRTFQ-UHFFFAOYSA-N

>  <original ID>  (11) 
ZLMRZOHMHKRTFQ-UHFFFAOYSA-N

>  <csv_name>  (11) 
thumb_site_2_fstein_bulkdock_input_split1000_batch000.csv

>  <fragmenstein_error>  (11) 
None

>  <fragmenstein_mode>  (11) 
expansion

>  <ref_pdb>  (11) 
d0153b

>  <exports>  (11) 
['/opt/xchem-fragalysis-2/maxwin/BulkDock/OUTPUTS/thumb_site_2_fstein_bulkdock_input_split1000_batch000_217914.sdf']

>  <SLURM_JOB_ID>  (11) 
217914

>  <HIPPO Pose ID>  (11) 
77375

>  <energy_score>  (11) 
-26.414171

>  <fragmenstein_runtime>  (11) 
2.357075

>  <original SMILES>  (11) 
CNS(=O)(=O)c1ccc(Cl)c(S(=O)(=O)NC)c1

>  <scratch_subdir>  (11) 
/opt/xchem-fragalysis-2/maxwin/BulkDock/SCRATCH/217914/C68597-P9

>  <HIPPO Compound ID>  (11) 
68597

>  <fragmenstein_outcome>  (11) 
acceptable

>  <SLURM_JOB_NAME>  (11) 
BulkDock.place:Flavi_NS5_RdRp:thumb_site_2_fstein_bulkdock_input_split1000_batch000

>  <distance_score>  (11) 
0.670553

>  <ref_mols>  (11) 
d0153b,d0567a

>  <tags>  (11) 
['Fragmenstein placed']

$$$$
77378
     RDKit          3D

 17 17  0  0  0  0  0  0  0  0999 V2000
  -12.1040  -71.4105  -15.3692 C   0  0  0  0  0  0  0  0  0  0  0  0
  -10.6937  -71.0634  -15.2497 N   0  0  0  0  0  0  0  0  0  0  0  0
   -9.5432  -72.1311  -15.8451 S   0  0  0  0  0  0  0  0  0  0  0  0
   -8.3142  -71.7100  -15.2149 O   0  0  0  0  0  0  0  0  0  0  0  0
  -10.0533  -73.4761  -15.7545 O   0  0  0  0  0  0  0  0  0  0  0  0
   -9.4157  -71.6970  -17.5571 C   0  0  0  0  0  0  0  0  0  0  0  0
   -8.1985  -71.3464  -18.1398 C   0  0  0  0  0  0  0  0  0  0  0  0
   -8.1731  -70.9368  -19.4787 C   0  0  0  0  0  0  0  0  0  0  0  0
   -9.3554  -70.8771  -20.2308 C   0  0  0  0  0  0  0  0  0  0  0  0
   -9.2482  -70.2941  -21.8357 Cl  0  0  0  0  0  0  0  0  0  0  0  0
  -10.5527  -71.2696  -19.6472 C   0  0  0  0  0  0  0  0  0  0  0  0
  -12.0945  -71.2536  -20.5017 S   0  0  0  0  0  0  0  0  0  0  0  0
  -11.8929  -71.5156  -21.9057 O   0  0  0  0  0  0  0  0  0  0  0  0
  -12.8560  -70.1290  -20.0084 O   0  0  0  0  0  0  0  0  0  0  0  0
  -12.8307  -72.6700  -19.9048 N   0  0  0  0  0  0  0  0  0  0  0  0
  -14.0156  -73.0834  -20.6708 C   0  0  0  0  0  0  0  0  0  0  0  0
  -10.5756  -71.7013  -18.3202 C   0  0  0  0  0  0  0  0  0  0  0  0
  1  2  1  0
  2  3  1  0
  3  4  2  0
  3  5  2  0
  3  6  1  0
  6  7  2  0
  7  8  1  0
  8  9  2  0
  9 10  1  0
  9 11  1  0
 11 12  1  0
 12 13  2  0
 12 14  2  0
 12 15  1  0
 15 16  1  0
 11 17  2  0
 17  6  1  0
M  END
>  <inchikey>  (12) 
ZLMRZOHMHKRTFQ-UHFFFAOYSA-N

>  <alias>  (12) 
None

>  <name>  (12) 
ZLMRZOHMHKRTFQ-UHFFFAOYSA-N

>  <original ID>  (12) 
ZLMRZOHMHKRTFQ-UHFFFAOYSA-N

>  <csv_name>  (12) 
thumb_site_2_fstein_bulkdock_input_split1000_batch000.csv

>  <fragmenstein_error>  (12) 
None

>  <fragmenstein_mode>  (12) 
expansion

>  <ref_pdb>  (12) 
d0567a

>  <exports>  (12) 
['/opt/xchem-fragalysis-2/maxwin/BulkDock/OUTPUTS/thumb_site_2_fstein_bulkdock_input_split1000_batch000_217914.sdf']

>  <SLURM_JOB_ID>  (12) 
217914

>  <HIPPO Pose ID>  (12) 
77378

>  <energy_score>  (12) 
-28.258118

>  <fragmenstein_runtime>  (12) 
2.265574

>  <original SMILES>  (12) 
CNS(=O)(=O)c1ccc(Cl)c(S(=O)(=O)NC)c1

>  <scratch_subdir>  (12) 
/opt/xchem-fragalysis-2/maxwin/BulkDock/SCRATCH/217914/C68597-P46

>  <HIPPO Compound ID>  (12) 
68597

>  <fragmenstein_outcome>  (12) 
acceptable

>  <SLURM_JOB_NAME>  (12) 
BulkDock.place:Flavi_NS5_RdRp:thumb_site_2_fstein_bulkdock_input_split1000_batch000

>  <distance_score>  (12) 
0.69285

>  <ref_mols>  (12) 
d0153b,d0567a

>  <tags>  (12) 
['Fragmenstein placed']

$$$$
77410
     RDKit          3D

 21 22  0  0  0  0  0  0  0  0999 V2000
  -13.4276  -73.8982  -19.5323 C   0  0  0  0  0  0  0  0  0  0  0  0
  -12.3396  -73.0147  -19.0934 N   0  0  0  0  0  0  0  0  0  0  0  0
  -12.2632  -71.5322  -19.8544 S   0  0  0  0  0  0  0  0  0  0  0  0
  -12.8857  -70.5499  -18.9948 O   0  0  0  0  0  0  0  0  0  0  0  0
  -12.7648  -71.7571  -21.1970 O   0  0  0  0  0  0  0  0  0  0  0  0
  -10.5718  -71.0766  -20.0598 C   0  0  0  0  0  0  0  0  0  0  0  0
  -10.4386  -70.2035  -21.1372 C   0  0  0  0  0  0  0  0  0  0  0  0
   -9.2047  -69.7294  -21.4628 C   0  0  0  0  0  0  0  0  0  0  0  0
   -8.0947  -70.1364  -20.7548 C   0  0  0  0  0  0  0  0  0  0  0  0
   -8.1440  -71.0448  -19.6985 C   0  0  0  0  0  0  0  0  0  0  0  0
   -6.7993  -71.4682  -19.0669 C   0  0  0  0  0  0  0  0  0  0  0  0
   -5.5963  -70.6129  -19.5638 C   0  0  0  0  0  0  0  0  0  0  0  0
   -4.2666  -70.9898  -19.0840 N   0  0  0  0  0  0  0  0  0  0  0  0
   -3.2158  -70.2446  -19.7050 C   0  0  0  0  0  0  0  0  0  0  0  0
   -1.9417  -70.8225  -19.7596 C   0  0  0  0  0  0  0  0  0  0  0  0
   -0.8478  -70.1208  -20.2855 C   0  0  0  0  0  0  0  0  0  0  0  0
   -1.0026  -68.8125  -20.7378 C   0  0  0  0  0  0  0  0  0  0  0  0
   -2.2505  -68.2062  -20.6563 C   0  0  0  0  0  0  0  0  0  0  0  0
   -3.3423  -68.9119  -20.1360 C   0  0  0  0  0  0  0  0  0  0  0  0
   -9.4362  -71.5025  -19.3318 C   0  0  0  0  0  0  0  0  0  0  0  0
   -9.5873  -72.5317  -17.9702 Cl  0  0  0  0  0  0  0  0  0  0  0  0
  1  2  1  0
  2  3  1  0
  3  4  2  0
  3  5  2  0
  3  6  1  0
  6  7  2  0
  7  8  1  0
  8  9  2  0
  9 10  1  0
 10 11  1  0
 11 12  1  0
 12 13  1  0
 13 14  1  0
 14 15  2  0
 15 16  1  0
 16 17  2  0
 17 18  1  0
 18 19  2  0
 10 20  2  0
 20 21  1  0
 20  6  1  0
 19 14  1  0
M  END
>  <inchikey>  (13) 
XNAZHTXJGLOOCU-UHFFFAOYSA-N

>  <alias>  (13) 
None

>  <name>  (13) 
XNAZHTXJGLOOCU-UHFFFAOYSA-N

>  <original ID>  (13) 
XNAZHTXJGLOOCU-UHFFFAOYSA-N

>  <csv_name>  (13) 
thumb_site_2_fstein_bulkdock_input_split1000_batch000.csv

>  <fragmenstein_error>  (13) 
None

>  <fragmenstein_mode>  (13) 
expansion

>  <ref_pdb>  (13) 
d0153b

>  <exports>  (13) 
['/opt/xchem-fragalysis-2/maxwin/BulkDock/OUTPUTS/thumb_site_2_fstein_bulkdock_input_split1000_batch000_217914.sdf']

>  <SLURM_JOB_ID>  (13) 
217914

>  <HIPPO Pose ID>  (13) 
77410

>  <energy_score>  (13) 
-10.14222

>  <fragmenstein_runtime>  (13) 
4.580449

>  <original SMILES>  (13) 
CNS(=O)(=O)c1cccc(CCNc2ccccc2)c1Cl

>  <scratch_subdir>  (13) 
/opt/xchem-fragalysis-2/maxwin/BulkDock/SCRATCH/217914/C68608-P9

>  <HIPPO Compound ID>  (13) 
68608

>  <fragmenstein_outcome>  (13) 
acceptable

>  <SLURM_JOB_NAME>  (13) 
BulkDock.place:Flavi_NS5_RdRp:thumb_site_2_fstein_bulkdock_input_split1000_batch000

>  <distance_score>  (13) 
0.880325

>  <ref_mols>  (13) 
d0153b,d1212a

>  <tags>  (13) 
['Fragmenstein placed']

$$$$
77413
     RDKit          3D

 21 22  0  0  0  0  0  0  0  0999 V2000
  -13.2083  -73.4188  -19.8281 C   0  0  0  0  0  0  0  0  0  0  0  0
  -12.5614  -72.2719  -19.2032 N   0  0  0  0  0  0  0  0  0  0  0  0
  -12.0777  -70.9963  -20.1724 S   0  0  0  0  0  0  0  0  0  0  0  0
  -12.1033  -69.8065  -19.3580 O   0  0  0  0  0  0  0  0  0  0  0  0
  -12.8630  -71.0693  -21.3859 O   0  0  0  0  0  0  0  0  0  0  0  0
  -10.4034  -71.4010  -20.5784 C   0  0  0  0  0  0  0  0  0  0  0  0
  -10.1766  -71.7427  -21.9174 C   0  0  0  0  0  0  0  0  0  0  0  0
   -8.9058  -72.0781  -22.3343 C   0  0  0  0  0  0  0  0  0  0  0  0
   -7.8484  -72.0375  -21.4353 C   0  0  0  0  0  0  0  0  0  0  0  0
   -8.0281  -71.6527  -20.0950 C   0  0  0  0  0  0  0  0  0  0  0  0
   -6.7689  -71.6137  -19.2396 C   0  0  0  0  0  0  0  0  0  0  0  0
   -5.7354  -70.5840  -19.7486 C   0  0  0  0  0  0  0  0  0  0  0  0
   -4.3733  -70.9495  -19.3457 N   0  0  0  0  0  0  0  0  0  0  0  0
   -3.3037  -70.3069  -19.9969 C   0  0  0  0  0  0  0  0  0  0  0  0
   -2.0125  -70.8410  -19.8713 C   0  0  0  0  0  0  0  0  0  0  0  0
   -0.8984  -70.1947  -20.4193 C   0  0  0  0  0  0  0  0  0  0  0  0
   -1.0597  -68.9933  -21.0978 C   0  0  0  0  0  0  0  0  0  0  0  0
   -2.3274  -68.4441  -21.2264 C   0  0  0  0  0  0  0  0  0  0  0  0
   -3.4293  -69.0779  -20.6490 C   0  0  0  0  0  0  0  0  0  0  0  0
   -9.3413  -71.3695  -19.6541 C   0  0  0  0  0  0  0  0  0  0  0  0
   -9.6295  -71.0610  -17.9830 Cl  0  0  0  0  0  0  0  0  0  0  0  0
  1  2  1  0
  2  3  1  0
  3  4  2  0
  3  5  2  0
  3  6  1  0
  6  7  2  0
  7  8  1  0
  8  9  2  0
  9 10  1  0
 10 11  1  0
 11 12  1  0
 12 13  1  0
 13 14  1  0
 14 15  2  0
 15 16  1  0
 16 17  2  0
 17 18  1  0
 18 19  2  0
 10 20  2  0
 20 21  1  0
 20  6  1  0
 19 14  1  0
M  END
>  <inchikey>  (14) 
XNAZHTXJGLOOCU-UHFFFAOYSA-N

>  <alias>  (14) 
None

>  <name>  (14) 
XNAZHTXJGLOOCU-UHFFFAOYSA-N

>  <original ID>  (14) 
XNAZHTXJGLOOCU-UHFFFAOYSA-N

>  <csv_name>  (14) 
thumb_site_2_fstein_bulkdock_input_split1000_batch000.csv

>  <fragmenstein_error>  (14) 
None

>  <fragmenstein_mode>  (14) 
expansion

>  <ref_pdb>  (14) 
d1212a

>  <exports>  (14) 
['/opt/xchem-fragalysis-2/maxwin/BulkDock/OUTPUTS/thumb_site_2_fstein_bulkdock_input_split1000_batch000_217914.sdf']

>  <SLURM_JOB_ID>  (14) 
217914

>  <HIPPO Pose ID>  (14) 
77413

>  <energy_score>  (14) 
-29.800615

>  <fragmenstein_runtime>  (14) 
4.39118

>  <original SMILES>  (14) 
CNS(=O)(=O)c1cccc(CCNc2ccccc2)c1Cl

>  <scratch_subdir>  (14) 
/opt/xchem-fragalysis-2/maxwin/BulkDock/SCRATCH/217914/C68608-P79

>  <HIPPO Compound ID>  (14) 
68608

>  <fragmenstein_outcome>  (14) 
acceptable

>  <SLURM_JOB_NAME>  (14) 
BulkDock.place:Flavi_NS5_RdRp:thumb_site_2_fstein_bulkdock_input_split1000_batch000

>  <distance_score>  (14) 
0.9204

>  <ref_mols>  (14) 
d0153b,d1212a

>  <tags>  (14) 
['Fragmenstein placed']

$$$$
77429
     RDKit          3D

 26 27  0  0  0  0  0  0  0  0999 V2000
  -13.5134  -73.7012  -19.9067 C   0  0  0  0  0  0  0  0  0  0  0  0
  -12.6872  -72.7775  -19.1102 N   0  0  0  0  0  0  0  0  0  0  0  0
  -12.2752  -71.3307  -19.8890 S   0  0  0  0  0  0  0  0  0  0  0  0
  -12.5416  -71.5397  -21.2922 O   0  0  0  0  0  0  0  0  0  0  0  0
  -12.9304  -70.2886  -19.1291 O   0  0  0  0  0  0  0  0  0  0  0  0
  -10.5404  -71.2226  -19.5841 C   0  0  0  0  0  0  0  0  0  0  0  0
  -10.0279  -71.5768  -18.3144 C   0  0  0  0  0  0  0  0  0  0  0  0
   -8.6516  -71.4904  -18.0387 C   0  0  0  0  0  0  0  0  0  0  0  0
   -7.7901  -71.0412  -19.0315 C   0  0  0  0  0  0  0  0  0  0  0  0
   -6.3192  -70.7655  -18.9170 C   0  0  0  0  0  0  0  0  0  0  0  0
   -5.4992  -71.5501  -18.0054 N   0  0  0  0  0  0  0  0  0  0  0  0
   -4.1182  -71.0640  -18.1259 C   0  0  0  0  0  0  0  0  0  0  0  0
   -3.5356  -71.4142  -19.3985 N   0  0  0  0  0  0  0  0  0  0  0  0
   -3.4600  -70.3297  -20.6757 S   0  0  0  0  0  0  0  0  0  0  0  0
   -4.3941  -69.2556  -20.4152 O   0  0  0  0  0  0  0  0  0  0  0  0
   -3.5720  -71.1202  -21.8826 O   0  0  0  0  0  0  0  0  0  0  0  0
   -1.8433  -69.6524  -20.6283 C   0  0  0  0  0  0  0  0  0  0  0  0
   -1.7192  -68.2562  -20.5813 C   0  0  0  0  0  0  0  0  0  0  0  0
   -0.4570  -67.6759  -20.6049 C   0  0  0  0  0  0  0  0  0  0  0  0
    0.6757  -68.4791  -20.6642 C   0  0  0  0  0  0  0  0  0  0  0  0
    0.5530  -69.8660  -20.7277 C   0  0  0  0  0  0  0  0  0  0  0  0
   -0.7103  -70.4620  -20.7160 C   0  0  0  0  0  0  0  0  0  0  0  0
   -0.7571  -72.1859  -20.8073 Cl  0  0  0  0  0  0  0  0  0  0  0  0
   -8.3310  -70.6718  -20.2756 C   0  0  0  0  0  0  0  0  0  0  0  0
   -9.6809  -70.7746  -20.5717 C   0  0  0  0  0  0  0  0  0  0  0  0
  -10.1278  -70.2895  -22.1561 Cl  0  0  0  0  0  0  0  0  0  0  0  0
  1  2  1  0
  2  3  1  0
  3  4  2  0
  3  5  2  0
  3  6  1  0
  6  7  2  0
  7  8  1  0
  8  9  2  0
  9 10  1  0
 10 11  1  0
 11 12  1  0
 12 13  1  0
 13 14  1  0
 14 15  2  0
 14 16  2  0
 14 17  1  0
 17 18  2  0
 18 19  1  0
 19 20  2  0
 20 21  1  0
 21 22  2  0
 22 23  1  0
  9 24  1  0
 24 25  2  0
 25 26  1  0
 25  6  1  0
 22 17  1  0
M  END
>  <inchikey>  (15) 
AHEJCLXARJQJRI-UHFFFAOYSA-N

>  <alias>  (15) 
None

>  <name>  (15) 
AHEJCLXARJQJRI-UHFFFAOYSA-N

>  <original ID>  (15) 
AHEJCLXARJQJRI-UHFFFAOYSA-N

>  <csv_name>  (15) 
thumb_site_2_fstein_bulkdock_input_split1000_batch000.csv

>  <fragmenstein_error>  (15) 
None

>  <fragmenstein_mode>  (15) 
expansion

>  <ref_pdb>  (15) 
d0153b

>  <exports>  (15) 
['/opt/xchem-fragalysis-2/maxwin/BulkDock/OUTPUTS/thumb_site_2_fstein_bulkdock_input_split1000_batch000_217914.sdf']

>  <SLURM_JOB_ID>  (15) 
217914

>  <HIPPO Pose ID>  (15) 
77429

>  <energy_score>  (15) 
-71.445756

>  <fragmenstein_runtime>  (15) 
6.313514

>  <original SMILES>  (15) 
CNS(=O)(=O)c1ccc(CNCNS(=O)(=O)c2ccccc2Cl)cc1Cl

>  <scratch_subdir>  (15) 
/opt/xchem-fragalysis-2/maxwin/BulkDock/SCRATCH/217914/C68612-P9

>  <HIPPO Compound ID>  (15) 
68612

>  <fragmenstein_outcome>  (15) 
acceptable

>  <SLURM_JOB_NAME>  (15) 
BulkDock.place:Flavi_NS5_RdRp:thumb_site_2_fstein_bulkdock_input_split1000_batch000

>  <distance_score>  (15) 
0.640219

>  <ref_mols>  (15) 
d0153b,d0153a

>  <tags>  (15) 
['Fragmenstein placed']

$$$$
77432
     RDKit          3D

 26 27  0  0  0  0  0  0  0  0999 V2000
  -13.7719  -73.5276  -19.8542 C   0  0  0  0  0  0  0  0  0  0  0  0
  -12.7125  -72.7670  -19.1629 N   0  0  0  0  0  0  0  0  0  0  0  0
  -12.2808  -71.3183  -19.9368 S   0  0  0  0  0  0  0  0  0  0  0  0
  -12.4727  -71.5876  -21.3435 O   0  0  0  0  0  0  0  0  0  0  0  0
  -12.9718  -70.2451  -19.2584 O   0  0  0  0  0  0  0  0  0  0  0  0
  -10.5561  -71.1788  -19.5810 C   0  0  0  0  0  0  0  0  0  0  0  0
  -10.0673  -71.5056  -18.2955 C   0  0  0  0  0  0  0  0  0  0  0  0
   -8.6908  -71.4387  -18.0085 C   0  0  0  0  0  0  0  0  0  0  0  0
   -7.8084  -71.0293  -19.0023 C   0  0  0  0  0  0  0  0  0  0  0  0
   -6.3370  -70.7566  -18.8732 C   0  0  0  0  0  0  0  0  0  0  0  0
   -5.5137  -71.5775  -17.9967 N   0  0  0  0  0  0  0  0  0  0  0  0
   -4.1297  -71.0975  -18.1234 C   0  0  0  0  0  0  0  0  0  0  0  0
   -3.5609  -71.4372  -19.4049 N   0  0  0  0  0  0  0  0  0  0  0  0
   -3.4792  -70.3407  -20.6714 S   0  0  0  0  0  0  0  0  0  0  0  0
   -4.4073  -69.2644  -20.3993 O   0  0  0  0  0  0  0  0  0  0  0  0
   -3.5967  -71.1201  -21.8850 O   0  0  0  0  0  0  0  0  0  0  0  0
   -1.8592  -69.6718  -20.6207 C   0  0  0  0  0  0  0  0  0  0  0  0
   -1.7286  -68.2764  -20.5721 C   0  0  0  0  0  0  0  0  0  0  0  0
   -0.4637  -67.7022  -20.5913 C   0  0  0  0  0  0  0  0  0  0  0  0
    0.6653  -68.5107  -20.6466 C   0  0  0  0  0  0  0  0  0  0  0  0
    0.5364  -69.8966  -20.7132 C   0  0  0  0  0  0  0  0  0  0  0  0
   -0.7297  -70.4865  -20.7068 C   0  0  0  0  0  0  0  0  0  0  0  0
   -0.7842  -72.2098  -20.8029 Cl  0  0  0  0  0  0  0  0  0  0  0  0
   -8.3304  -70.6731  -20.2581 C   0  0  0  0  0  0  0  0  0  0  0  0
   -9.6784  -70.7553  -20.5648 C   0  0  0  0  0  0  0  0  0  0  0  0
  -10.1041  -70.2677  -22.1547 Cl  0  0  0  0  0  0  0  0  0  0  0  0
  1  2  1  0
  2  3  1  0
  3  4  2  0
  3  5  2  0
  3  6  1  0
  6  7  2  0
  7  8  1  0
  8  9  2  0
  9 10  1  0
 10 11  1  0
 11 12  1  0
 12 13  1  0
 13 14  1  0
 14 15  2  0
 14 16  2  0
 14 17  1  0
 17 18  2  0
 18 19  1  0
 19 20  2  0
 20 21  1  0
 21 22  2  0
 22 23  1  0
  9 24  1  0
 24 25  2  0
 25 26  1  0
 25  6  1  0
 22 17  1  0
M  END
>  <inchikey>  (16) 
AHEJCLXARJQJRI-UHFFFAOYSA-N

>  <alias>  (16) 
None

>  <name>  (16) 
AHEJCLXARJQJRI-UHFFFAOYSA-N

>  <original ID>  (16) 
AHEJCLXARJQJRI-UHFFFAOYSA-N

>  <csv_name>  (16) 
thumb_site_2_fstein_bulkdock_input_split1000_batch000.csv

>  <fragmenstein_error>  (16) 
None

>  <fragmenstein_mode>  (16) 
expansion

>  <ref_pdb>  (16) 
d0153a

>  <exports>  (16) 
['/opt/xchem-fragalysis-2/maxwin/BulkDock/OUTPUTS/thumb_site_2_fstein_bulkdock_input_split1000_batch000_217914.sdf']

>  <SLURM_JOB_ID>  (16) 
217914

>  <HIPPO Pose ID>  (16) 
77432

>  <energy_score>  (16) 
-67.203602

>  <fragmenstein_runtime>  (16) 
6.78707

>  <original SMILES>  (16) 
CNS(=O)(=O)c1ccc(CNCNS(=O)(=O)c2ccccc2Cl)cc1Cl

>  <scratch_subdir>  (16) 
/opt/xchem-fragalysis-2/maxwin/BulkDock/SCRATCH/217914/C68612-P10

>  <HIPPO Compound ID>  (16) 
68612

>  <fragmenstein_outcome>  (16) 
acceptable

>  <SLURM_JOB_NAME>  (16) 
BulkDock.place:Flavi_NS5_RdRp:thumb_site_2_fstein_bulkdock_input_split1000_batch000

>  <distance_score>  (16) 
0.607166

>  <ref_mols>  (16) 
d0153b,d0153a

>  <tags>  (16) 
['Fragmenstein placed']

$$$$
77435
     RDKit          3D

 29 31  0  0  0  0  0  0  0  0999 V2000
  -14.7187  -69.4841  -22.8430 C   0  0  0  0  0  0  0  0  0  0  0  0
  -15.2501  -69.6450  -21.4346 C   0  0  0  0  0  0  0  0  0  0  0  0
  -13.9521  -69.7791  -20.2159 S   0  0  0  0  0  0  0  0  0  0  0  0
  -13.1435  -68.5872  -20.2540 O   0  0  0  0  0  0  0  0  0  0  0  0
  -14.5339  -70.2526  -18.9742 O   0  0  0  0  0  0  0  0  0  0  0  0
  -13.0583  -71.0699  -20.8011 N   0  0  0  0  0  0  0  0  0  0  0  0
  -11.6815  -70.8145  -21.2556 C   0  0  0  0  0  0  0  0  0  0  0  0
  -10.6260  -71.0198  -20.1921 C   0  0  0  0  0  0  0  0  0  0  0  0
  -10.9365  -71.0002  -18.8110 C   0  0  0  0  0  0  0  0  0  0  0  0
   -9.9579  -71.1908  -17.8386 C   0  0  0  0  0  0  0  0  0  0  0  0
   -8.6743  -71.3936  -18.2711 C   0  0  0  0  0  0  0  0  0  0  0  0
   -8.3422  -71.3994  -19.6037 C   0  0  0  0  0  0  0  0  0  0  0  0
   -9.2890  -71.2050  -20.5857 C   0  0  0  0  0  0  0  0  0  0  0  0
   -7.0153  -71.6276  -19.7910 O   0  0  0  0  0  0  0  0  0  0  0  0
   -6.6046  -71.9352  -18.4388 C   0  0  1  0  0  0  0  0  0  0  0  0
   -5.3682  -71.2643  -18.1086 N   0  0  0  0  0  0  0  0  0  0  0  0
   -4.2823  -71.9642  -18.7245 C   0  0  0  0  0  0  0  0  0  0  0  0
   -3.2511  -71.0436  -19.1188 N   0  0  0  0  0  0  0  0  0  0  0  0
   -3.5373  -70.2600  -20.5903 S   0  0  0  0  0  0  0  0  0  0  0  0
   -3.6796  -71.2548  -21.6299 O   0  0  0  0  0  0  0  0  0  0  0  0
   -4.5836  -69.2942  -20.3338 O   0  0  0  0  0  0  0  0  0  0  0  0
   -2.0059  -69.4339  -20.8110 C   0  0  0  0  0  0  0  0  0  0  0  0
   -2.0011  -68.0390  -20.7660 C   0  0  0  0  0  0  0  0  0  0  0  0
   -0.7863  -67.3709  -20.7762 C   0  0  0  0  0  0  0  0  0  0  0  0
    0.4078  -68.0805  -20.8378 C   0  0  0  0  0  0  0  0  0  0  0  0
    0.4020  -69.4679  -20.9317 C   0  0  0  0  0  0  0  0  0  0  0  0
   -0.8096  -70.1550  -20.9145 C   0  0  0  0  0  0  0  0  0  0  0  0
   -0.7182  -71.8826  -20.9374 Cl  0  0  0  0  0  0  0  0  0  0  0  0
   -7.6062  -71.5983  -17.4630 O   0  0  0  0  0  0  0  0  0  0  0  0
  1  2  1  0
  2  3  1  0
  3  4  2  0
  3  5  2  0
  3  6  1  0
  6  7  1  0
  7  8  1  0
  8  9  2  0
  9 10  1  0
 10 11  2  0
 11 12  1  0
 12 13  2  0
 12 14  1  0
 14 15  1  0
 15 16  1  1
 16 17  1  0
 17 18  1  0
 18 19  1  0
 19 20  2  0
 19 21  2  0
 19 22  1  0
 22 23  2  0
 23 24  1  0
 24 25  2  0
 25 26  1  0
 26 27  2  0
 27 28  1  0
 15 29  1  0
 13  8  1  0
 27 22  1  0
 29 11  1  0
M  END
>  <inchikey>  (17) 
LUWQMNMHDSRBNQ-KRWDZBQOSA-N

>  <alias>  (17) 
None

>  <name>  (17) 
LUWQMNMHDSRBNQ-KRWDZBQOSA-N

>  <original ID>  (17) 
LUWQMNMHDSRBNQ-KRWDZBQOSA-N

>  <csv_name>  (17) 
thumb_site_2_fstein_bulkdock_input_split1000_batch000.csv

>  <fragmenstein_error>  (17) 
None

>  <fragmenstein_mode>  (17) 
expansion

>  <ref_pdb>  (17) 
d0153a

>  <exports>  (17) 
['/opt/xchem-fragalysis-2/maxwin/BulkDock/OUTPUTS/thumb_site_2_fstein_bulkdock_input_split1000_batch000_217914.sdf']

>  <SLURM_JOB_ID>  (17) 
217914

>  <HIPPO Pose ID>  (17) 
77435

>  <energy_score>  (17) 
-52.772684

>  <fragmenstein_runtime>  (17) 
6.119923

>  <original SMILES>  (17) 
CCS(=O)(=O)NCc1ccc2c(c1)O[C@@H](NCNS(=O)(=O)c1ccccc1Cl)O2

>  <scratch_subdir>  (17) 
/opt/xchem-fragalysis-2/maxwin/BulkDock/SCRATCH/217914/C68613-P10

>  <HIPPO Compound ID>  (17) 
68613

>  <fragmenstein_outcome>  (17) 
acceptable

>  <SLURM_JOB_NAME>  (17) 
BulkDock.place:Flavi_NS5_RdRp:thumb_site_2_fstein_bulkdock_input_split1000_batch000

>  <distance_score>  (17) 
0.634803

>  <ref_mols>  (17) 
d0153a,d0174a

>  <tags>  (17) 
['Fragmenstein placed']

$$$$
77438
     RDKit          3D

 29 31  0  0  0  0  0  0  0  0999 V2000
  -14.6313  -69.3730  -22.9386 C   0  0  0  0  0  0  0  0  0  0  0  0
  -15.1762  -69.4829  -21.5298 C   0  0  0  0  0  0  0  0  0  0  0  0
  -13.9078  -69.7341  -20.3008 S   0  0  0  0  0  0  0  0  0  0  0  0
  -13.0171  -68.6022  -20.3073 O   0  0  0  0  0  0  0  0  0  0  0  0
  -14.5305  -70.1840  -19.0698 O   0  0  0  0  0  0  0  0  0  0  0  0
  -13.1012  -71.0718  -20.9010 N   0  0  0  0  0  0  0  0  0  0  0  0
  -11.7166  -70.8947  -21.3653 C   0  0  0  0  0  0  0  0  0  0  0  0
  -10.6667  -71.0659  -20.2912 C   0  0  0  0  0  0  0  0  0  0  0  0
  -11.0002  -71.1384  -18.9151 C   0  0  0  0  0  0  0  0  0  0  0  0
  -10.0281  -71.3081  -17.9345 C   0  0  0  0  0  0  0  0  0  0  0  0
   -8.7309  -71.4157  -18.3565 C   0  0  0  0  0  0  0  0  0  0  0  0
   -8.3793  -71.3438  -19.6837 C   0  0  0  0  0  0  0  0  0  0  0  0
   -9.3162  -71.1501  -20.6734 C   0  0  0  0  0  0  0  0  0  0  0  0
   -7.0416  -71.5055  -19.8586 O   0  0  0  0  0  0  0  0  0  0  0  0
   -6.6480  -71.8758  -18.5201 C   0  0  1  0  0  0  0  0  0  0  0  0
   -5.4356  -71.1900  -18.1478 N   0  0  0  0  0  0  0  0  0  0  0  0
   -4.3204  -71.9159  -18.6670 C   0  0  0  0  0  0  0  0  0  0  0  0
   -3.3161  -70.9879  -19.0864 N   0  0  0  0  0  0  0  0  0  0  0  0
   -3.4507  -70.4250  -20.6764 S   0  0  0  0  0  0  0  0  0  0  0  0
   -3.7609  -71.5191  -21.5661 O   0  0  0  0  0  0  0  0  0  0  0  0
   -4.3040  -69.2611  -20.5953 O   0  0  0  0  0  0  0  0  0  0  0  0
   -1.7813  -69.9452  -20.9469 C   0  0  0  0  0  0  0  0  0  0  0  0
   -1.5046  -68.5905  -21.0859 C   0  0  0  0  0  0  0  0  0  0  0  0
   -0.2127  -68.1444  -20.8379 C   0  0  0  0  0  0  0  0  0  0  0  0
    0.7856  -69.0453  -20.4794 C   0  0  0  0  0  0  0  0  0  0  0  0
    0.5414  -70.4090  -20.5055 C   0  0  0  0  0  0  0  0  0  0  0  0
   -0.7485  -70.8674  -20.7456 C   0  0  0  0  0  0  0  0  0  0  0  0
   -0.9796  -72.5739  -20.6539 Cl  0  0  0  0  0  0  0  0  0  0  0  0
   -7.6649  -71.6014  -17.5416 O   0  0  0  0  0  0  0  0  0  0  0  0
  1  2  1  0
  2  3  1  0
  3  4  2  0
  3  5  2  0
  3  6  1  0
  6  7  1  0
  7  8  1  0
  8  9  2  0
  9 10  1  0
 10 11  2  0
 11 12  1  0
 12 13  2  0
 12 14  1  0
 14 15  1  0
 15 16  1  1
 16 17  1  0
 17 18  1  0
 18 19  1  0
 19 20  2  0
 19 21  2  0
 19 22  1  0
 22 23  2  0
 23 24  1  0
 24 25  2  0
 25 26  1  0
 26 27  2  0
 27 28  1  0
 15 29  1  0
 13  8  1  0
 27 22  1  0
 29 11  1  0
M  END
>  <inchikey>  (18) 
LUWQMNMHDSRBNQ-KRWDZBQOSA-N

>  <alias>  (18) 
None

>  <name>  (18) 
LUWQMNMHDSRBNQ-KRWDZBQOSA-N

>  <original ID>  (18) 
LUWQMNMHDSRBNQ-KRWDZBQOSA-N

>  <csv_name>  (18) 
thumb_site_2_fstein_bulkdock_input_split1000_batch000.csv

>  <fragmenstein_error>  (18) 
None

>  <fragmenstein_mode>  (18) 
expansion

>  <ref_pdb>  (18) 
d0174a

>  <exports>  (18) 
['/opt/xchem-fragalysis-2/maxwin/BulkDock/OUTPUTS/thumb_site_2_fstein_bulkdock_input_split1000_batch000_217914.sdf']

>  <SLURM_JOB_ID>  (18) 
217914

>  <HIPPO Pose ID>  (18) 
77438

>  <energy_score>  (18) 
-45.103039

>  <fragmenstein_runtime>  (18) 
5.325093

>  <original SMILES>  (18) 
CCS(=O)(=O)NCc1ccc2c(c1)O[C@@H](NCNS(=O)(=O)c1ccccc1Cl)O2

>  <scratch_subdir>  (18) 
/opt/xchem-fragalysis-2/maxwin/BulkDock/SCRATCH/217914/C68613-P17

>  <HIPPO Compound ID>  (18) 
68613

>  <fragmenstein_outcome>  (18) 
acceptable

>  <SLURM_JOB_NAME>  (18) 
BulkDock.place:Flavi_NS5_RdRp:thumb_site_2_fstein_bulkdock_input_split1000_batch000

>  <distance_score>  (18) 
0.71194

>  <ref_mols>  (18) 
d0153a,d0174a

>  <tags>  (18) 
['Fragmenstein placed']

$$$$
77465
     RDKit          3D

 29 30  0  0  0  0  0  0  0  0999 V2000
   -3.5168  -71.2078  -17.4671 C   0  0  0  0  0  0  0  0  0  0  0  0
   -3.0866  -71.4036  -18.8183 N   0  0  0  0  0  0  0  0  0  0  0  0
   -3.7434  -70.5605  -20.1126 S   0  0  2  0  0  0  0  0  0  0  0  0
   -4.6334  -69.6047  -19.4908 O   0  0  0  0  0  0  0  0  0  0  0  0
   -4.1971  -71.6678  -21.0627 N   0  0  0  0  0  0  0  0  0  0  0  0
   -5.0699  -72.7828  -20.6454 C   0  0  0  0  0  0  0  0  0  0  0  0
   -6.3282  -72.3996  -19.8539 C   0  0  0  0  0  0  0  0  0  0  0  0
   -7.2570  -71.5112  -20.6655 C   0  0  0  0  0  0  0  0  0  0  0  0
   -8.6684  -71.3094  -20.1726 C   0  0  0  0  0  0  0  0  0  0  0  0
   -9.0510  -71.3014  -18.8305 C   0  0  0  0  0  0  0  0  0  0  0  0
  -10.3721  -70.9941  -18.4749 C   0  0  0  0  0  0  0  0  0  0  0  0
  -11.3215  -70.6752  -19.4532 C   0  0  0  0  0  0  0  0  0  0  0  0
  -10.9498  -70.6866  -20.7966 C   0  0  0  0  0  0  0  0  0  0  0  0
  -11.8492  -70.3042  -21.9243 C   0  0  0  0  0  0  0  0  0  0  0  0
  -11.3717  -69.7491  -22.8274 O   0  0  0  0  0  0  0  0  0  0  0  0
  -13.2913  -70.7565  -21.6883 N   0  0  0  0  0  0  0  0  0  0  0  0
  -14.4560  -70.7075  -22.5656 C   0  0  0  0  0  0  0  0  0  0  0  0
  -14.6639  -69.2714  -23.0462 C   0  0  0  0  0  0  0  0  0  0  0  0
  -15.6851  -71.1393  -21.7710 C   0  0  0  0  0  0  0  0  0  0  0  0
  -14.2582  -71.6644  -23.7724 C   0  0  0  0  0  0  0  0  0  0  0  0
  -13.2032  -71.2896  -24.6537 O   0  0  0  0  0  0  0  0  0  0  0  0
   -9.6347  -71.0036  -21.1399 C   0  0  0  0  0  0  0  0  0  0  0  0
   -2.3528  -69.6854  -20.7698 C   0  0  0  0  0  0  0  0  0  0  0  0
   -2.3865  -68.2859  -20.7018 C   0  0  0  0  0  0  0  0  0  0  0  0
   -1.2189  -67.5579  -20.9019 C   0  0  0  0  0  0  0  0  0  0  0  0
   -0.0311  -68.2091  -21.2092 C   0  0  0  0  0  0  0  0  0  0  0  0
   -0.0032  -69.5953  -21.3310 C   0  0  0  0  0  0  0  0  0  0  0  0
   -1.1600  -70.3450  -21.0951 C   0  0  0  0  0  0  0  0  0  0  0  0
   -0.9774  -72.0636  -21.1745 Cl  0  0  0  0  0  0  0  0  0  0  0  0
  1  2  1  0
  3  2  1  1
  3  4  2  0
  3  5  2  0
  5  6  1  0
  6  7  1  0
  7  8  1  0
  8  9  1  0
  9 10  2  0
 10 11  1  0
 11 12  2  0
 12 13  1  0
 13 14  1  0
 14 15  2  0
 14 16  1  0
 16 17  1  0
 17 18  1  0
 17 19  1  0
 17 20  1  0
 20 21  1  0
 13 22  2  0
  3 23  1  0
 23 24  2  0
 24 25  1  0
 25 26  2  0
 26 27  1  0
 27 28  2  0
 28 29  1  0
 22  9  1  0
 28 23  1  0
M  END
>  <inchikey>  (19) 
YHFHQZKZGYDEJV-LJAQVGFWSA-N

>  <alias>  (19) 
None

>  <name>  (19) 
YHFHQZKZGYDEJV-LJAQVGFWSA-N

>  <original ID>  (19) 
YHFHQZKZGYDEJV-LJAQVGFWSA-N

>  <csv_name>  (19) 
thumb_site_2_fstein_bulkdock_input_split1000_batch000.csv

>  <fragmenstein_error>  (19) 
None

>  <fragmenstein_mode>  (19) 
expansion

>  <ref_pdb>  (19) 
d0153a

>  <exports>  (19) 
['/opt/xchem-fragalysis-2/maxwin/BulkDock/OUTPUTS/thumb_site_2_fstein_bulkdock_input_split1000_batch000_217914.sdf']

>  <SLURM_JOB_ID>  (19) 
217914

>  <HIPPO Pose ID>  (19) 
77465

>  <energy_score>  (19) 
-31.155872

>  <fragmenstein_runtime>  (19) 
8.963201

>  <original SMILES>  (19) 
CN[S@](=O)(=NCCCc1cccc(C(=O)NC(C)(C)CO)c1)c1ccccc1Cl

>  <scratch_subdir>  (19) 
/opt/xchem-fragalysis-2/maxwin/BulkDock/SCRATCH/217914/C68616-P10

>  <HIPPO Compound ID>  (19) 
68616

>  <fragmenstein_outcome>  (19) 
acceptable

>  <SLURM_JOB_NAME>  (19) 
BulkDock.place:Flavi_NS5_RdRp:thumb_site_2_fstein_bulkdock_input_split1000_batch000

>  <distance_score>  (19) 
0.448256

>  <ref_mols>  (19) 
d0153a,d0248a

>  <tags>  (19) 
['Fragmenstein placed']

$$$$
77470
     RDKit          3D

 29 30  0  0  0  0  0  0  0  0999 V2000
   -3.9111  -71.1028  -17.6726 C   0  0  0  0  0  0  0  0  0  0  0  0
   -3.4628  -71.5753  -18.9456 N   0  0  0  0  0  0  0  0  0  0  0  0
   -3.8461  -70.7978  -20.3839 S   0  0  2  0  0  0  0  0  0  0  0  0
   -4.6525  -69.6769  -19.9520 O   0  0  0  0  0  0  0  0  0  0  0  0
   -4.3160  -71.9158  -21.3047 N   0  0  0  0  0  0  0  0  0  0  0  0
   -5.2748  -72.9709  -20.9400 C   0  0  0  0  0  0  0  0  0  0  0  0
   -6.5112  -72.5263  -20.1497 C   0  0  0  0  0  0  0  0  0  0  0  0
   -7.3452  -71.5074  -20.9100 C   0  0  0  0  0  0  0  0  0  0  0  0
   -8.7567  -71.2771  -20.4378 C   0  0  0  0  0  0  0  0  0  0  0  0
   -9.1478  -71.2464  -19.0986 C   0  0  0  0  0  0  0  0  0  0  0  0
  -10.4705  -70.9353  -18.7611 C   0  0  0  0  0  0  0  0  0  0  0  0
  -11.4134  -70.6466  -19.7558 C   0  0  0  0  0  0  0  0  0  0  0  0
  -11.0355  -70.6857  -21.0994 C   0  0  0  0  0  0  0  0  0  0  0  0
  -11.9315  -70.3553  -22.2516 C   0  0  0  0  0  0  0  0  0  0  0  0
  -11.4323  -69.8646  -23.1801 O   0  0  0  0  0  0  0  0  0  0  0  0
  -13.3922  -70.7293  -21.9926 N   0  0  0  0  0  0  0  0  0  0  0  0
  -14.5575  -70.6666  -22.8697 C   0  0  0  0  0  0  0  0  0  0  0  0
  -14.7423  -69.2257  -23.3594 C   0  0  0  0  0  0  0  0  0  0  0  0
  -15.7910  -71.0910  -22.0751 C   0  0  0  0  0  0  0  0  0  0  0  0
  -14.3671  -71.6344  -24.0693 C   0  0  0  0  0  0  0  0  0  0  0  0
  -13.3194  -71.2630  -24.9599 O   0  0  0  0  0  0  0  0  0  0  0  0
   -9.7085  -70.9832  -21.4227 C   0  0  0  0  0  0  0  0  0  0  0  0
   -2.2973  -70.1754  -20.9607 C   0  0  0  0  0  0  0  0  0  0  0  0
   -2.2255  -68.8177  -21.2771 C   0  0  0  0  0  0  0  0  0  0  0  0
   -0.9857  -68.1961  -21.2865 C   0  0  0  0  0  0  0  0  0  0  0  0
    0.1468  -68.9062  -20.9144 C   0  0  0  0  0  0  0  0  0  0  0  0
    0.0991  -70.2796  -20.7439 C   0  0  0  0  0  0  0  0  0  0  0  0
   -1.1289  -70.9285  -20.7938 C   0  0  0  0  0  0  0  0  0  0  0  0
   -1.0851  -72.6451  -20.6219 Cl  0  0  0  0  0  0  0  0  0  0  0  0
  1  2  1  0
  3  2  1  1
  3  4  2  0
  3  5  2  0
  5  6  1  0
  6  7  1  0
  7  8  1  0
  8  9  1  0
  9 10  2  0
 10 11  1  0
 11 12  2  0
 12 13  1  0
 13 14  1  0
 14 15  2  0
 14 16  1  0
 16 17  1  0
 17 18  1  0
 17 19  1  0
 17 20  1  0
 20 21  1  0
 13 22  2  0
  3 23  1  0
 23 24  2  0
 24 25  1  0
 25 26  2  0
 26 27  1  0
 27 28  2  0
 28 29  1  0
 22  9  1  0
 28 23  1  0
M  END
>  <inchikey>  (20) 
YHFHQZKZGYDEJV-LJAQVGFWSA-N

>  <alias>  (20) 
None

>  <name>  (20) 
YHFHQZKZGYDEJV-LJAQVGFWSA-N

>  <original ID>  (20) 
YHFHQZKZGYDEJV-LJAQVGFWSA-N

>  <csv_name>  (20) 
thumb_site_2_fstein_bulkdock_input_split1000_batch000.csv

>  <fragmenstein_error>  (20) 
None

>  <fragmenstein_mode>  (20) 
expansion

>  <ref_pdb>  (20) 
d0248a

>  <exports>  (20) 
['/opt/xchem-fragalysis-2/maxwin/BulkDock/OUTPUTS/thumb_site_2_fstein_bulkdock_input_split1000_batch000_217914.sdf']

>  <SLURM_JOB_ID>  (20) 
217914

>  <HIPPO Pose ID>  (20) 
77470

>  <energy_score>  (20) 
-25.292169

>  <fragmenstein_runtime>  (20) 
8.932299

>  <original SMILES>  (20) 
CN[S@](=O)(=NCCCc1cccc(C(=O)NC(C)(C)CO)c1)c1ccccc1Cl

>  <scratch_subdir>  (20) 
/opt/xchem-fragalysis-2/maxwin/BulkDock/SCRATCH/217914/C68616-P22

>  <HIPPO Compound ID>  (20) 
68616

>  <fragmenstein_outcome>  (20) 
acceptable

>  <SLURM_JOB_NAME>  (20) 
BulkDock.place:Flavi_NS5_RdRp:thumb_site_2_fstein_bulkdock_input_split1000_batch000

>  <distance_score>  (20) 
0.502524

>  <ref_mols>  (20) 
d0153a,d0248a

>  <tags>  (20) 
['Fragmenstein placed']

$$$$
77488
     RDKit          3D

 27 28  0  0  0  0  0  0  0  0999 V2000
  -14.8909  -68.8641  -22.2228 C   0  0  0  0  0  0  0  0  0  0  0  0
  -15.0807  -69.6771  -21.0160 N   0  0  0  0  0  0  0  0  0  0  0  0
  -13.7146  -69.9282  -20.0585 S   0  0  0  0  0  0  0  0  0  0  0  0
  -14.2364  -70.3918  -18.7873 O   0  0  0  0  0  0  0  0  0  0  0  0
  -12.9012  -68.7424  -20.1574 O   0  0  0  0  0  0  0  0  0  0  0  0
  -12.9367  -71.2954  -20.9140 C   0  0  0  0  0  0  0  0  0  0  0  0
  -11.6281  -71.8255  -20.3111 C   0  0  2  0  0  0  0  0  0  0  0  0
  -11.7181  -72.1478  -18.8167 C   0  0  0  0  0  0  0  0  0  0  0  0
  -10.4331  -72.7983  -18.3198 C   0  0  0  0  0  0  0  0  0  0  0  0
   -9.2255  -71.9111  -18.5802 C   0  0  0  0  0  0  0  0  0  0  0  0
   -9.1084  -71.5036  -20.0551 C   0  0  2  0  0  0  0  0  0  0  0  0
   -8.0284  -70.4427  -20.2329 C   0  0  0  0  0  0  0  0  0  0  0  0
   -6.6120  -70.8245  -19.8032 C   0  0  0  0  0  0  0  0  0  0  0  0
   -5.7261  -69.5862  -19.8991 C   0  0  0  0  0  0  0  0  0  0  0  0
   -4.3585  -69.7948  -19.5116 N   0  0  0  0  0  0  0  0  0  0  0  0
   -3.4548  -70.6860  -20.3466 S   0  0  2  0  0  0  0  0  0  0  0  0
   -3.7983  -71.3435  -21.5859 O   0  0  0  0  0  0  0  0  0  0  0  0
   -3.2426  -71.9443  -19.2411 N   0  0  0  0  0  0  0  0  0  0  0  0
   -3.0465  -71.6616  -17.8321 C   0  0  0  0  0  0  0  0  0  0  0  0
   -1.9477  -69.8144  -20.6017 C   0  0  0  0  0  0  0  0  0  0  0  0
   -1.9854  -68.4119  -20.5769 C   0  0  0  0  0  0  0  0  0  0  0  0
   -0.8088  -67.6856  -20.7056 C   0  0  0  0  0  0  0  0  0  0  0  0
    0.4009  -68.3507  -20.8590 C   0  0  0  0  0  0  0  0  0  0  0  0
    0.4374  -69.7423  -20.9279 C   0  0  0  0  0  0  0  0  0  0  0  0
   -0.7407  -70.4826  -20.8049 C   0  0  0  0  0  0  0  0  0  0  0  0
   -0.5985  -72.1987  -20.9225 Cl  0  0  0  0  0  0  0  0  0  0  0  0
  -10.4337  -70.9107  -20.5850 C   0  0  0  0  0  0  0  0  0  0  0  0
  1  2  1  0
  2  3  1  0
  3  4  2  0
  3  5  2  0
  3  6  1  0
  7  6  1  1
  7  8  1  0
  8  9  1  0
  9 10  1  0
 10 11  1  0
 11 12  1  1
 12 13  1  0
 13 14  1  0
 14 15  1  0
 15 16  2  0
 16 17  2  0
 16 18  1  1
 18 19  1  0
 16 20  1  0
 20 21  2  0
 21 22  1  0
 22 23  2  0
 23 24  1  0
 24 25  2  0
 25 26  1  0
 11 27  1  0
 27  7  1  0
 25 20  1  0
M  END
>  <inchikey>  (21) 
PIYDNEAIQNESKL-FICWAZMISA-N

>  <alias>  (21) 
None

>  <name>  (21) 
PIYDNEAIQNESKL-FICWAZMISA-N

>  <original ID>  (21) 
PIYDNEAIQNESKL-FICWAZMISA-N

>  <csv_name>  (21) 
thumb_site_2_fstein_bulkdock_input_split1000_batch000.csv

>  <fragmenstein_error>  (21) 
None

>  <fragmenstein_mode>  (21) 
expansion

>  <ref_pdb>  (21) 
d0153a

>  <exports>  (21) 
['/opt/xchem-fragalysis-2/maxwin/BulkDock/OUTPUTS/thumb_site_2_fstein_bulkdock_input_split1000_batch000_217914.sdf']

>  <SLURM_JOB_ID>  (21) 
217914

>  <HIPPO Pose ID>  (21) 
77488

>  <energy_score>  (21) 
-122.271981

>  <fragmenstein_runtime>  (21) 
8.890483

>  <original SMILES>  (21) 
CNS(=O)(=O)C[C@@H]1CCC[C@H](CCCN=[S@](=O)(NC)c2ccccc2Cl)C1

>  <scratch_subdir>  (21) 
/opt/xchem-fragalysis-2/maxwin/BulkDock/SCRATCH/217914/C68621-P10

>  <HIPPO Compound ID>  (21) 
68621

>  <fragmenstein_outcome>  (21) 
acceptable

>  <SLURM_JOB_NAME>  (21) 
BulkDock.place:Flavi_NS5_RdRp:thumb_site_2_fstein_bulkdock_input_split1000_batch000

>  <distance_score>  (21) 
0.698938

>  <ref_mols>  (21) 
d0153a,d0283a

>  <tags>  (21) 
['Fragmenstein placed']

$$$$
77490
     RDKit          3D

 27 28  0  0  0  0  0  0  0  0999 V2000
  -14.9469  -68.8568  -22.3676 C   0  0  0  0  0  0  0  0  0  0  0  0
  -15.1292  -69.6615  -21.1517 N   0  0  0  0  0  0  0  0  0  0  0  0
  -13.7654  -69.8904  -20.1914 S   0  0  0  0  0  0  0  0  0  0  0  0
  -14.2701  -70.3624  -18.9178 O   0  0  0  0  0  0  0  0  0  0  0  0
  -12.9739  -68.6903  -20.2792 O   0  0  0  0  0  0  0  0  0  0  0  0
  -12.9669  -71.2462  -21.0431 C   0  0  0  0  0  0  0  0  0  0  0  0
  -11.6556  -71.7519  -20.4324 C   0  0  2  0  0  0  0  0  0  0  0  0
  -11.7594  -72.1127  -18.9474 C   0  0  0  0  0  0  0  0  0  0  0  0
  -10.4600  -72.7120  -18.4284 C   0  0  0  0  0  0  0  0  0  0  0  0
   -9.2866  -71.7743  -18.6638 C   0  0  0  0  0  0  0  0  0  0  0  0
   -9.1666  -71.3641  -20.1381 C   0  0  2  0  0  0  0  0  0  0  0  0
   -8.0863  -70.3072  -20.3441 C   0  0  0  0  0  0  0  0  0  0  0  0
   -6.7138  -70.7040  -19.8086 C   0  0  0  0  0  0  0  0  0  0  0  0
   -5.7400  -69.5547  -19.9995 C   0  0  0  0  0  0  0  0  0  0  0  0
   -4.3872  -69.8308  -19.5642 N   0  0  0  0  0  0  0  0  0  0  0  0
   -3.5699  -70.8873  -20.3037 S   0  0  2  0  0  0  0  0  0  0  0  0
   -4.0334  -71.7564  -21.3557 O   0  0  0  0  0  0  0  0  0  0  0  0
   -3.2364  -71.8575  -18.9603 N   0  0  0  0  0  0  0  0  0  0  0  0
   -4.2929  -72.4225  -18.1553 C   0  0  0  0  0  0  0  0  0  0  0  0
   -2.0468  -70.1553  -20.8018 C   0  0  0  0  0  0  0  0  0  0  0  0
   -2.0224  -68.7760  -21.0293 C   0  0  0  0  0  0  0  0  0  0  0  0
   -0.8139  -68.1027  -20.9389 C   0  0  0  0  0  0  0  0  0  0  0  0
    0.3361  -68.8061  -20.6037 C   0  0  0  0  0  0  0  0  0  0  0  0
    0.3402  -70.1929  -20.5664 C   0  0  0  0  0  0  0  0  0  0  0  0
   -0.8595  -70.8798  -20.6941 C   0  0  0  0  0  0  0  0  0  0  0  0
   -0.7723  -72.5996  -20.6980 Cl  0  0  0  0  0  0  0  0  0  0  0  0
  -10.4919  -70.7914  -20.6696 C   0  0  0  0  0  0  0  0  0  0  0  0
  1  2  1  0
  2  3  1  0
  3  4  2  0
  3  5  2  0
  3  6  1  0
  7  6  1  1
  7  8  1  0
  8  9  1  0
  9 10  1  0
 10 11  1  0
 11 12  1  1
 12 13  1  0
 13 14  1  0
 14 15  1  0
 15 16  2  0
 16 17  2  0
 16 18  1  1
 18 19  1  0
 16 20  1  0
 20 21  2  0
 21 22  1  0
 22 23  2  0
 23 24  1  0
 24 25  2  0
 25 26  1  0
 11 27  1  0
 27  7  1  0
 25 20  1  0
M  END
>  <inchikey>  (22) 
PIYDNEAIQNESKL-FICWAZMISA-N

>  <alias>  (22) 
None

>  <name>  (22) 
PIYDNEAIQNESKL-FICWAZMISA-N

>  <original ID>  (22) 
PIYDNEAIQNESKL-FICWAZMISA-N

>  <csv_name>  (22) 
thumb_site_2_fstein_bulkdock_input_split1000_batch000.csv

>  <fragmenstein_error>  (22) 
None

>  <fragmenstein_mode>  (22) 
expansion

>  <ref_pdb>  (22) 
d0283a

>  <exports>  (22) 
['/opt/xchem-fragalysis-2/maxwin/BulkDock/OUTPUTS/thumb_site_2_fstein_bulkdock_input_split1000_batch000_217914.sdf']

>  <SLURM_JOB_ID>  (22) 
217914

>  <HIPPO Pose ID>  (22) 
77490

>  <energy_score>  (22) 
-116.090887

>  <fragmenstein_runtime>  (22) 
11.542882

>  <original SMILES>  (22) 
CNS(=O)(=O)C[C@@H]1CCC[C@H](CCCN=[S@](=O)(NC)c2ccccc2Cl)C1

>  <scratch_subdir>  (22) 
/opt/xchem-fragalysis-2/maxwin/BulkDock/SCRATCH/217914/C68621-P30

>  <HIPPO Compound ID>  (22) 
68621

>  <fragmenstein_outcome>  (22) 
acceptable

>  <SLURM_JOB_NAME>  (22) 
BulkDock.place:Flavi_NS5_RdRp:thumb_site_2_fstein_bulkdock_input_split1000_batch000

>  <distance_score>  (22) 
0.779851

>  <ref_mols>  (22) 
d0153a,d0283a

>  <tags>  (22) 
['Fragmenstein placed']

$$$$
77505
     RDKit          3D

 27 28  0  0  0  0  0  0  0  0999 V2000
  -12.2964  -72.2080  -15.3726 C   0  0  0  0  0  0  0  0  0  0  0  0
  -11.1967  -71.2680  -15.2816 N   0  0  0  0  0  0  0  0  0  0  0  0
   -9.7466  -71.8219  -15.9172 S   0  0  0  0  0  0  0  0  0  0  0  0
   -8.7544  -70.9874  -15.2774 O   0  0  0  0  0  0  0  0  0  0  0  0
   -9.7464  -73.2616  -15.8135 O   0  0  0  0  0  0  0  0  0  0  0  0
   -9.8092  -71.3747  -17.6078 C   0  0  0  0  0  0  0  0  0  0  0  0
  -10.9570  -70.9243  -18.2607 C   0  0  0  0  0  0  0  0  0  0  0  0
  -10.8870  -70.5518  -19.6055 C   0  0  0  0  0  0  0  0  0  0  0  0
   -9.6655  -70.5915  -20.2816 C   0  0  0  0  0  0  0  0  0  0  0  0
   -8.5142  -71.0174  -19.6133 C   0  0  0  0  0  0  0  0  0  0  0  0
   -7.1484  -70.9657  -20.2344 C   0  0  0  0  0  0  0  0  0  0  0  0
   -6.7114  -72.2542  -20.9246 C   0  0  0  0  0  0  0  0  0  0  0  0
   -5.2218  -72.5947  -20.8038 C   0  0  0  0  0  0  0  0  0  0  0  0
   -4.2554  -71.5693  -21.2593 N   0  0  0  0  0  0  0  0  0  0  0  0
   -3.7808  -70.4323  -20.3457 S   0  0  1  0  0  0  0  0  0  0  0  0
   -4.6254  -69.3711  -19.8442 O   0  0  0  0  0  0  0  0  0  0  0  0
   -3.2565  -71.2306  -18.9593 N   0  0  0  0  0  0  0  0  0  0  0  0
   -3.9295  -71.0845  -17.7013 C   0  0  0  0  0  0  0  0  0  0  0  0
   -2.2944  -69.6773  -20.9440 C   0  0  0  0  0  0  0  0  0  0  0  0
   -2.2392  -68.2749  -20.9023 C   0  0  0  0  0  0  0  0  0  0  0  0
   -1.0137  -67.6272  -20.9989 C   0  0  0  0  0  0  0  0  0  0  0  0
    0.1490  -68.3636  -21.1818 C   0  0  0  0  0  0  0  0  0  0  0  0
    0.0942  -69.7512  -21.2869 C   0  0  0  0  0  0  0  0  0  0  0  0
   -1.1261  -70.4198  -21.1482 C   0  0  0  0  0  0  0  0  0  0  0  0
   -1.0538  -72.1467  -21.1748 Cl  0  0  0  0  0  0  0  0  0  0  0  0
   -8.6087  -71.4361  -18.2855 C   0  0  0  0  0  0  0  0  0  0  0  0
   -7.5034  -71.8688  -17.6619 F   0  0  0  0  0  0  0  0  0  0  0  0
  1  2  1  0
  2  3  1  0
  3  4  2  0
  3  5  2  0
  3  6  1  0
  6  7  2  0
  7  8  1  0
  8  9  2  0
  9 10  1  0
 10 11  1  0
 11 12  1  0
 12 13  1  0
 13 14  1  0
 14 15  2  0
 15 16  2  0
 15 17  1  1
 17 18  1  0
 15 19  1  0
 19 20  2  0
 20 21  1  0
 21 22  2  0
 22 23  1  0
 23 24  2  0
 24 25  1  0
 10 26  2  0
 26 27  1  0
 26  6  1  0
 24 19  1  0
M  END
>  <inchikey>  (23) 
LUUBWJJIRHUCDM-SANMLTNESA-N

>  <alias>  (23) 
None

>  <name>  (23) 
LUUBWJJIRHUCDM-SANMLTNESA-N

>  <original ID>  (23) 
LUUBWJJIRHUCDM-SANMLTNESA-N

>  <csv_name>  (23) 
thumb_site_2_fstein_bulkdock_input_split1000_batch000.csv

>  <fragmenstein_error>  (23) 
None

>  <fragmenstein_mode>  (23) 
expansion

>  <ref_pdb>  (23) 
d0153a

>  <exports>  (23) 
['/opt/xchem-fragalysis-2/maxwin/BulkDock/OUTPUTS/thumb_site_2_fstein_bulkdock_input_split1000_batch000_217914.sdf']

>  <SLURM_JOB_ID>  (23) 
217914

>  <HIPPO Pose ID>  (23) 
77505

>  <energy_score>  (23) 
-56.098825

>  <fragmenstein_runtime>  (23) 
4.252098

>  <original SMILES>  (23) 
CNS(=O)(=O)c1cccc(CCCN=[S@@](=O)(NC)c2ccccc2Cl)c1F

>  <scratch_subdir>  (23) 
/opt/xchem-fragalysis-2/maxwin/BulkDock/SCRATCH/217914/C68625-P10

>  <HIPPO Compound ID>  (23) 
68625

>  <fragmenstein_outcome>  (23) 
acceptable

>  <SLURM_JOB_NAME>  (23) 
BulkDock.place:Flavi_NS5_RdRp:thumb_site_2_fstein_bulkdock_input_split1000_batch000

>  <distance_score>  (23) 
0.51342

>  <ref_mols>  (23) 
d0153a,d0567a

>  <tags>  (23) 
['Fragmenstein placed']

$$$$
77507
     RDKit          3D

 27 28  0  0  0  0  0  0  0  0999 V2000
  -12.3695  -71.9000  -15.4084 C   0  0  0  0  0  0  0  0  0  0  0  0
  -11.1676  -71.1124  -15.2580 N   0  0  0  0  0  0  0  0  0  0  0  0
   -9.7930  -71.7962  -15.9128 S   0  0  0  0  0  0  0  0  0  0  0  0
   -8.7141  -71.0757  -15.2756 O   0  0  0  0  0  0  0  0  0  0  0  0
   -9.9261  -73.2309  -15.8349 O   0  0  0  0  0  0  0  0  0  0  0  0
   -9.8280  -71.3088  -17.5932 C   0  0  0  0  0  0  0  0  0  0  0  0
  -10.9219  -70.7083  -18.2194 C   0  0  0  0  0  0  0  0  0  0  0  0
  -10.8295  -70.3391  -19.5636 C   0  0  0  0  0  0  0  0  0  0  0  0
   -9.6304  -70.5121  -20.2587 C   0  0  0  0  0  0  0  0  0  0  0  0
   -8.5249  -71.0681  -19.6095 C   0  0  0  0  0  0  0  0  0  0  0  0
   -7.1633  -71.1430  -20.2364 C   0  0  0  0  0  0  0  0  0  0  0  0
   -6.7818  -72.5220  -20.7638 C   0  0  0  0  0  0  0  0  0  0  0  0
   -5.2805  -72.8343  -20.8509 C   0  0  0  0  0  0  0  0  0  0  0  0
   -4.3621  -71.7739  -21.3399 N   0  0  0  0  0  0  0  0  0  0  0  0
   -3.8593  -70.6351  -20.4472 S   0  0  1  0  0  0  0  0  0  0  0  0
   -4.6549  -69.5173  -19.9891 O   0  0  0  0  0  0  0  0  0  0  0  0
   -3.4085  -71.4174  -19.0342 N   0  0  0  0  0  0  0  0  0  0  0  0
   -3.9842  -71.1329  -17.7638 C   0  0  0  0  0  0  0  0  0  0  0  0
   -2.3077  -69.9762  -21.0158 C   0  0  0  0  0  0  0  0  0  0  0  0
   -2.2405  -68.5810  -21.1099 C   0  0  0  0  0  0  0  0  0  0  0  0
   -1.0561  -67.9427  -20.7754 C   0  0  0  0  0  0  0  0  0  0  0  0
    0.0205  -68.6884  -20.3057 C   0  0  0  0  0  0  0  0  0  0  0  0
    0.0168  -70.0739  -20.3978 C   0  0  0  0  0  0  0  0  0  0  0  0
   -1.1475  -70.7263  -20.7880 C   0  0  0  0  0  0  0  0  0  0  0  0
   -1.0816  -72.4496  -20.8810 Cl  0  0  0  0  0  0  0  0  0  0  0  0
   -8.6490  -71.4902  -18.2863 C   0  0  0  0  0  0  0  0  0  0  0  0
   -7.5808  -72.0236  -17.6754 F   0  0  0  0  0  0  0  0  0  0  0  0
  1  2  1  0
  2  3  1  0
  3  4  2  0
  3  5  2  0
  3  6  1  0
  6  7  2  0
  7  8  1  0
  8  9  2  0
  9 10  1  0
 10 11  1  0
 11 12  1  0
 12 13  1  0
 13 14  1  0
 14 15  2  0
 15 16  2  0
 15 17  1  1
 17 18  1  0
 15 19  1  0
 19 20  2  0
 20 21  1  0
 21 22  2  0
 22 23  1  0
 23 24  2  0
 24 25  1  0
 10 26  2  0
 26 27  1  0
 26  6  1  0
 24 19  1  0
M  END
>  <inchikey>  (24) 
LUUBWJJIRHUCDM-SANMLTNESA-N

>  <alias>  (24) 
None

>  <name>  (24) 
LUUBWJJIRHUCDM-SANMLTNESA-N

>  <original ID>  (24) 
LUUBWJJIRHUCDM-SANMLTNESA-N

>  <csv_name>  (24) 
thumb_site_2_fstein_bulkdock_input_split1000_batch000.csv

>  <fragmenstein_error>  (24) 
None

>  <fragmenstein_mode>  (24) 
expansion

>  <ref_pdb>  (24) 
d0567a

>  <exports>  (24) 
['/opt/xchem-fragalysis-2/maxwin/BulkDock/OUTPUTS/thumb_site_2_fstein_bulkdock_input_split1000_batch000_217914.sdf']

>  <SLURM_JOB_ID>  (24) 
217914

>  <HIPPO Pose ID>  (24) 
77507

>  <energy_score>  (24) 
-41.321613

>  <fragmenstein_runtime>  (24) 
5.199325

>  <original SMILES>  (24) 
CNS(=O)(=O)c1cccc(CCCN=[S@@](=O)(NC)c2ccccc2Cl)c1F

>  <scratch_subdir>  (24) 
/opt/xchem-fragalysis-2/maxwin/BulkDock/SCRATCH/217914/C68625-P46

>  <HIPPO Compound ID>  (24) 
68625

>  <fragmenstein_outcome>  (24) 
acceptable

>  <SLURM_JOB_NAME>  (24) 
BulkDock.place:Flavi_NS5_RdRp:thumb_site_2_fstein_bulkdock_input_split1000_batch000

>  <distance_score>  (24) 
0.589542

>  <ref_mols>  (24) 
d0153a,d0567a

>  <tags>  (24) 
['Fragmenstein placed']

$$$$
77508
     RDKit          3D

 26 28  0  0  0  0  0  0  0  0999 V2000
   -2.1545  -70.3289  -23.2740 C   0  0  0  0  0  0  0  0  0  0  0  0
   -3.3337  -70.1062  -22.4089 N   0  0  0  0  0  0  0  0  0  0  0  0
   -3.1113  -70.5457  -20.9587 C   0  0  2  0  0  0  0  0  0  0  0  0
   -1.8169  -69.8427  -20.4997 C   0  0  0  0  0  0  0  0  0  0  0  0
   -1.8196  -68.4187  -20.5814 C   0  0  0  0  0  0  0  0  0  0  0  0
   -0.6537  -67.6658  -20.4802 C   0  0  0  0  0  0  0  0  0  0  0  0
    0.5541  -68.2945  -20.2435 C   0  0  0  0  0  0  0  0  0  0  0  0
    0.5865  -69.6758  -20.0954 C   0  0  0  0  0  0  0  0  0  0  0  0
   -0.5808  -70.4489  -20.2170 C   0  0  0  0  0  0  0  0  0  0  0  0
   -0.3296  -72.1425  -20.0375 Cl  0  0  0  0  0  0  0  0  0  0  0  0
   -3.2659  -72.1086  -21.0366 C   0  0  2  0  0  0  0  0  0  0  0  0
   -4.2037  -72.4929  -22.0683 O   0  0  0  0  0  0  0  0  0  0  0  0
   -3.8830  -72.5376  -19.7240 C   0  0  0  0  0  0  0  0  0  0  0  0
   -4.9889  -71.5078  -19.4848 C   0  0  2  0  0  0  0  0  0  0  0  0
   -6.3175  -71.8423  -20.2030 C   0  0  0  0  0  0  0  0  0  0  0  0
   -7.4259  -71.8858  -19.2114 N   0  0  0  0  0  0  0  0  0  0  0  0
   -7.5421  -73.1966  -18.5577 C   0  0  0  0  0  0  0  0  0  0  0  0
   -8.6715  -71.4400  -19.7212 C   0  0  0  0  0  0  0  0  0  0  0  0
   -8.8317  -71.3813  -21.0634 N   0  0  0  0  0  0  0  0  0  0  0  0
   -9.9920  -70.9080  -21.5464 C   0  0  0  0  0  0  0  0  0  0  0  0
  -11.0324  -70.4871  -20.8215 N   0  0  0  0  0  0  0  0  0  0  0  0
  -10.8581  -70.5613  -19.4884 C   0  0  0  0  0  0  0  0  0  0  0  0
   -9.7042  -71.0193  -18.8776 C   0  0  0  0  0  0  0  0  0  0  0  0
   -9.6020  -70.9406  -17.1570 Cl  0  0  0  0  0  0  0  0  0  0  0  0
   -4.3592  -70.1830  -19.9890 C   0  0  1  0  0  0  0  0  0  0  0  0
   -4.0069  -69.4877  -18.7835 O   0  0  0  0  0  0  0  0  0  0  0  0
  1  2  1  0
  3  2  1  6
  3  4  1  0
  4  5  2  0
  5  6  1  0
  6  7  2  0
  7  8  1  0
  8  9  2  0
  9 10  1  0
  3 11  1  0
 11 12  1  6
 11 13  1  0
 13 14  1  0
 14 15  1  6
 15 16  1  0
 16 17  1  0
 16 18  1  0
 18 19  2  0
 19 20  1  0
 20 21  2  0
 21 22  1  0
 22 23  2  0
 23 24  1  0
 14 25  1  0
 25 26  1  1
 25  3  1  0
  9  4  1  0
 23 18  1  0
M  END
>  <inchikey>  (25) 
ANESUVGOULWTQU-NFBAFIMDSA-N

>  <alias>  (25) 
None

>  <name>  (25) 
ANESUVGOULWTQU-NFBAFIMDSA-N

>  <original ID>  (25) 
ANESUVGOULWTQU-NFBAFIMDSA-N

>  <csv_name>  (25) 
thumb_site_2_fstein_bulkdock_input_split1000_batch000.csv

>  <fragmenstein_error>  (25) 
None

>  <fragmenstein_mode>  (25) 
expansion

>  <ref_pdb>  (25) 
d0153a

>  <exports>  (25) 
['/opt/xchem-fragalysis-2/maxwin/BulkDock/OUTPUTS/thumb_site_2_fstein_bulkdock_input_split1000_batch000_217914.sdf']

>  <SLURM_JOB_ID>  (25) 
217914

>  <HIPPO Pose ID>  (25) 
77508

>  <energy_score>  (25) 
-58.337418

>  <fragmenstein_runtime>  (25) 
5.557516

>  <original SMILES>  (25) 
CN[C@]1(c2ccccc2Cl)[C@H](O)C[C@H](CN(C)c2ncncc2Cl)[C@H]1O

>  <scratch_subdir>  (25) 
/opt/xchem-fragalysis-2/maxwin/BulkDock/SCRATCH/217914/C68626-P10

>  <HIPPO Compound ID>  (25) 
68626

>  <fragmenstein_outcome>  (25) 
acceptable

>  <SLURM_JOB_NAME>  (25) 
BulkDock.place:Flavi_NS5_RdRp:thumb_site_2_fstein_bulkdock_input_split1000_batch000

>  <distance_score>  (25) 
0.763494

>  <ref_mols>  (25) 
d0153a,d0587a

>  <tags>  (25) 
['Fragmenstein placed']

$$$$
77510
     RDKit          3D

 26 28  0  0  0  0  0  0  0  0999 V2000
   -2.1206  -70.5752  -23.1113 C   0  0  0  0  0  0  0  0  0  0  0  0
   -3.1428  -70.1436  -22.1556 N   0  0  0  0  0  0  0  0  0  0  0  0
   -2.9912  -70.7185  -20.7842 C   0  0  2  0  0  0  0  0  0  0  0  0
   -1.6367  -70.1872  -20.2478 C   0  0  0  0  0  0  0  0  0  0  0  0
   -1.4424  -68.7779  -20.3109 C   0  0  0  0  0  0  0  0  0  0  0  0
   -0.2284  -68.1754  -19.9964 C   0  0  0  0  0  0  0  0  0  0  0  0
    0.8230  -68.9371  -19.5321 C   0  0  0  0  0  0  0  0  0  0  0  0
    0.6813  -70.3107  -19.4695 C   0  0  0  0  0  0  0  0  0  0  0  0
   -0.5230  -70.9373  -19.8295 C   0  0  0  0  0  0  0  0  0  0  0  0
   -0.4373  -72.6518  -19.7127 Cl  0  0  0  0  0  0  0  0  0  0  0  0
   -3.2474  -72.2750  -20.8847 C   0  0  2  0  0  0  0  0  0  0  0  0
   -4.1329  -72.6836  -21.9411 O   0  0  0  0  0  0  0  0  0  0  0  0
   -3.9474  -72.6493  -19.5927 C   0  0  0  0  0  0  0  0  0  0  0  0
   -4.9808  -71.5371  -19.3998 C   0  0  2  0  0  0  0  0  0  0  0  0
   -6.2887  -71.7495  -20.1959 C   0  0  0  0  0  0  0  0  0  0  0  0
   -7.4347  -71.8431  -19.2510 N   0  0  0  0  0  0  0  0  0  0  0  0
   -7.5875  -73.1814  -18.6667 C   0  0  0  0  0  0  0  0  0  0  0  0
   -8.6523  -71.3730  -19.8060 C   0  0  0  0  0  0  0  0  0  0  0  0
   -8.7504  -71.2858  -21.1534 N   0  0  0  0  0  0  0  0  0  0  0  0
   -9.8830  -70.7901  -21.6737 C   0  0  0  0  0  0  0  0  0  0  0  0
  -10.9499  -70.3751  -20.9821 N   0  0  0  0  0  0  0  0  0  0  0  0
  -10.8332  -70.4736  -19.6432 C   0  0  0  0  0  0  0  0  0  0  0  0
   -9.7132  -70.9593  -18.9948 C   0  0  0  0  0  0  0  0  0  0  0  0
   -9.6781  -70.9321  -17.2693 Cl  0  0  0  0  0  0  0  0  0  0  0  0
   -4.2236  -70.2661  -19.8483 C   0  0  1  0  0  0  0  0  0  0  0  0
   -3.8584  -69.6185  -18.6209 O   0  0  0  0  0  0  0  0  0  0  0  0
  1  2  1  0
  3  2  1  6
  3  4  1  0
  4  5  2  0
  5  6  1  0
  6  7  2  0
  7  8  1  0
  8  9  2  0
  9 10  1  0
  3 11  1  0
 11 12  1  6
 11 13  1  0
 13 14  1  0
 14 15  1  6
 15 16  1  0
 16 17  1  0
 16 18  1  0
 18 19  2  0
 19 20  1  0
 20 21  2  0
 21 22  1  0
 22 23  2  0
 23 24  1  0
 14 25  1  0
 25 26  1  1
 25  3  1  0
  9  4  1  0
 23 18  1  0
M  END
>  <inchikey>  (26) 
ANESUVGOULWTQU-NFBAFIMDSA-N

>  <alias>  (26) 
None

>  <name>  (26) 
ANESUVGOULWTQU-NFBAFIMDSA-N

>  <original ID>  (26) 
ANESUVGOULWTQU-NFBAFIMDSA-N

>  <csv_name>  (26) 
thumb_site_2_fstein_bulkdock_input_split1000_batch000.csv

>  <fragmenstein_error>  (26) 
None

>  <fragmenstein_mode>  (26) 
expansion

>  <ref_pdb>  (26) 
d0587a

>  <exports>  (26) 
['/opt/xchem-fragalysis-2/maxwin/BulkDock/OUTPUTS/thumb_site_2_fstein_bulkdock_input_split1000_batch000_217914.sdf']

>  <SLURM_JOB_ID>  (26) 
217914

>  <HIPPO Pose ID>  (26) 
77510

>  <energy_score>  (26) 
-52.017364

>  <fragmenstein_runtime>  (26) 
5.774731

>  <original SMILES>  (26) 
CN[C@]1(c2ccccc2Cl)[C@H](O)C[C@H](CN(C)c2ncncc2Cl)[C@H]1O

>  <scratch_subdir>  (26) 
/opt/xchem-fragalysis-2/maxwin/BulkDock/SCRATCH/217914/C68626-P48

>  <HIPPO Compound ID>  (26) 
68626

>  <fragmenstein_outcome>  (26) 
acceptable

>  <SLURM_JOB_NAME>  (26) 
BulkDock.place:Flavi_NS5_RdRp:thumb_site_2_fstein_bulkdock_input_split1000_batch000

>  <distance_score>  (26) 
0.981096

>  <ref_mols>  (26) 
d0153a,d0587a

>  <tags>  (26) 
['Fragmenstein placed']

$$$$
77532
     RDKit          3D

 30 32  0  0  0  0  0  0  0  0999 V2000
   -3.7182  -70.9745  -22.1232 O   0  0  0  0  0  0  0  0  0  0  0  0
   -3.6259  -70.3084  -20.8433 S   0  0  0  0  0  0  0  0  0  0  0  0
   -4.6441  -69.3905  -20.3808 O   0  0  0  0  0  0  0  0  0  0  0  0
   -3.4954  -71.4951  -19.6941 N   0  0  0  0  0  0  0  0  0  0  0  0
   -3.5473  -71.1561  -18.3001 C   0  0  0  0  0  0  0  0  0  0  0  0
   -3.3535  -72.3948  -17.5793 N   0  0  0  0  0  0  0  0  0  0  0  0
   -4.3695  -73.3820  -17.9082 C   0  0  0  0  0  0  0  0  0  0  0  0
   -5.0269  -73.7844  -16.7038 N   0  0  0  0  0  0  0  0  0  0  0  0
   -6.1236  -73.4719  -16.2932 C   0  0  0  0  0  0  0  0  0  0  0  0
   -7.0331  -72.4951  -17.0948 C   0  0  0  0  0  0  0  0  0  0  0  0
   -7.7529  -72.9950  -18.3428 C   0  0  0  0  0  0  0  0  0  0  0  0
   -8.4665  -71.8117  -19.0396 C   0  0  0  0  0  0  0  0  0  0  0  0
   -8.7305  -72.0892  -20.5227 C   0  0  0  0  0  0  0  0  0  0  0  0
   -9.4712  -70.9119  -21.1526 C   0  0  0  0  0  0  0  0  0  0  0  0
  -10.7905  -70.5916  -20.4548 C   0  0  0  0  0  0  0  0  0  0  0  0
  -10.9959  -71.3560  -19.1541 C   0  0  0  0  0  0  0  0  0  0  0  0
   -9.7430  -71.3800  -18.2838 C   0  0  0  0  0  0  0  0  0  0  0  0
   -6.8121  -73.8036  -14.9880 N   0  0  0  0  0  0  0  0  0  0  0  0
   -7.6657  -75.1625  -15.1056 C   0  0  0  0  0  0  0  0  0  0  0  0
   -8.8200  -75.2335  -14.1006 C   0  0  0  0  0  0  0  0  0  0  0  0
   -8.3293  -75.4092  -12.7742 O   0  0  0  0  0  0  0  0  0  0  0  0
   -7.2639  -74.4857  -12.5563 C   0  0  0  0  0  0  0  0  0  0  0  0
   -6.2992  -74.5493  -13.7384 C   0  0  0  0  0  0  0  0  0  0  0  0
   -2.0649  -69.5000  -20.8097 C   0  0  0  0  0  0  0  0  0  0  0  0
   -2.0522  -68.1058  -20.7154 C   0  0  0  0  0  0  0  0  0  0  0  0
   -0.8348  -67.4376  -20.7028 C   0  0  0  0  0  0  0  0  0  0  0  0
    0.3600  -68.1463  -20.7641 C   0  0  0  0  0  0  0  0  0  0  0  0
    0.3478  -69.5330  -20.8764 C   0  0  0  0  0  0  0  0  0  0  0  0
   -0.8673  -70.2189  -20.9081 C   0  0  0  0  0  0  0  0  0  0  0  0
   -0.7736  -71.9388  -21.0615 Cl  0  0  0  0  0  0  0  0  0  0  0  0
  1  2  2  0
  2  3  2  0
  2  4  1  0
  4  5  1  0
  5  6  1  0
  6  7  1  0
  7  8  1  0
  8  9  2  3
  9 10  1  0
 10 11  1  0
 11 12  1  0
 12 13  1  0
 13 14  1  0
 14 15  1  0
 15 16  1  0
 16 17  1  0
  9 18  1  0
 18 19  1  0
 19 20  1  0
 20 21  1  0
 21 22  1  0
 22 23  1  0
  2 24  1  0
 24 25  2  0
 25 26  1  0
 26 27  2  0
 27 28  1  0
 28 29  2  0
 29 30  1  0
 17 12  1  0
 23 18  1  0
 29 24  1  0
M  END
>  <inchikey>  (27) 
FIFVPQOXPLPNCQ-UHFFFAOYSA-N

>  <alias>  (27) 
None

>  <name>  (27) 
FIFVPQOXPLPNCQ-UHFFFAOYSA-N

>  <original ID>  (27) 
FIFVPQOXPLPNCQ-UHFFFAOYSA-N

>  <csv_name>  (27) 
thumb_site_2_fstein_bulkdock_input_split1000_batch000.csv

>  <fragmenstein_error>  (27) 
None

>  <fragmenstein_mode>  (27) 
expansion

>  <ref_pdb>  (27) 
d0153a

>  <exports>  (27) 
['/opt/xchem-fragalysis-2/maxwin/BulkDock/OUTPUTS/thumb_site_2_fstein_bulkdock_input_split1000_batch000_217914.sdf']

>  <SLURM_JOB_ID>  (27) 
217914

>  <HIPPO Pose ID>  (27) 
77532

>  <energy_score>  (27) 
-13.749127

>  <fragmenstein_runtime>  (27) 
58.987415

>  <original SMILES>  (27) 
O=S(=O)(NCNCN=C(CCC1CCCCC1)N1CCOCC1)c1ccccc1Cl

>  <scratch_subdir>  (27) 
/opt/xchem-fragalysis-2/maxwin/BulkDock/SCRATCH/217914/C68631-P10

>  <HIPPO Compound ID>  (27) 
68631

>  <fragmenstein_outcome>  (27) 
acceptable

>  <SLURM_JOB_NAME>  (27) 
BulkDock.place:Flavi_NS5_RdRp:thumb_site_2_fstein_bulkdock_input_split1000_batch000

>  <distance_score>  (27) 
0.609907

>  <ref_mols>  (27) 
d0153a,d0771a

>  <tags>  (27) 
['Fragmenstein placed']

$$$$
77538
     RDKit          3D

 30 32  0  0  0  0  0  0  0  0999 V2000
   -3.8334  -70.9060  -22.1420 O   0  0  0  0  0  0  0  0  0  0  0  0
   -3.6555  -70.2456  -20.8704 S   0  0  0  0  0  0  0  0  0  0  0  0
   -4.5168  -69.1686  -20.4377 O   0  0  0  0  0  0  0  0  0  0  0  0
   -3.7477  -71.4219  -19.6992 N   0  0  0  0  0  0  0  0  0  0  0  0
   -3.6877  -71.0400  -18.3122 C   0  0  0  0  0  0  0  0  0  0  0  0
   -3.4010  -72.2459  -17.5656 N   0  0  0  0  0  0  0  0  0  0  0  0
   -4.3819  -73.2883  -17.8018 C   0  0  0  0  0  0  0  0  0  0  0  0
   -5.0003  -73.6603  -16.5681 N   0  0  0  0  0  0  0  0  0  0  0  0
   -6.1166  -73.4072  -16.1697 C   0  0  0  0  0  0  0  0  0  0  0  0
   -7.0650  -72.4765  -16.9814 C   0  0  0  0  0  0  0  0  0  0  0  0
   -7.7510  -73.0601  -18.2131 C   0  0  0  0  0  0  0  0  0  0  0  0
   -8.4083  -71.9424  -19.0529 C   0  0  0  0  0  0  0  0  0  0  0  0
   -8.7309  -72.4131  -20.4720 C   0  0  0  0  0  0  0  0  0  0  0  0
   -9.2439  -71.2599  -21.3358 C   0  0  0  0  0  0  0  0  0  0  0  0
  -10.1233  -70.2674  -20.5828 C   0  0  0  0  0  0  0  0  0  0  0  0
  -10.7331  -70.8673  -19.3263 C   0  0  0  0  0  0  0  0  0  0  0  0
   -9.6628  -71.3731  -18.3567 C   0  0  0  0  0  0  0  0  0  0  0  0
   -6.8014  -73.7786  -14.8751 N   0  0  0  0  0  0  0  0  0  0  0  0
   -7.5821  -75.1819  -15.0069 C   0  0  0  0  0  0  0  0  0  0  0  0
   -8.7455  -75.3211  -14.0222 C   0  0  0  0  0  0  0  0  0  0  0  0
   -8.2624  -75.4795  -12.6920 O   0  0  0  0  0  0  0  0  0  0  0  0
   -7.2501  -74.5033  -12.4560 C   0  0  0  0  0  0  0  0  0  0  0  0
   -6.2652  -74.5003  -13.6218 C   0  0  0  0  0  0  0  0  0  0  0  0
   -1.9774  -69.7241  -20.7973 C   0  0  0  0  0  0  0  0  0  0  0  0
   -1.7171  -68.3558  -20.7232 C   0  0  0  0  0  0  0  0  0  0  0  0
   -0.4149  -67.9262  -20.4963 C   0  0  0  0  0  0  0  0  0  0  0  0
    0.6030  -68.8504  -20.2914 C   0  0  0  0  0  0  0  0  0  0  0  0
    0.3616  -70.2067  -20.4561 C   0  0  0  0  0  0  0  0  0  0  0  0
   -0.9300  -70.6503  -20.7314 C   0  0  0  0  0  0  0  0  0  0  0  0
   -1.1146  -72.3539  -20.9459 Cl  0  0  0  0  0  0  0  0  0  0  0  0
  1  2  2  0
  2  3  2  0
  2  4  1  0
  4  5  1  0
  5  6  1  0
  6  7  1  0
  7  8  1  0
  8  9  2  3
  9 10  1  0
 10 11  1  0
 11 12  1  0
 12 13  1  0
 13 14  1  0
 14 15  1  0
 15 16  1  0
 16 17  1  0
  9 18  1  0
 18 19  1  0
 19 20  1  0
 20 21  1  0
 21 22  1  0
 22 23  1  0
  2 24  1  0
 24 25  2  0
 25 26  1  0
 26 27  2  0
 27 28  1  0
 28 29  2  0
 29 30  1  0
 17 12  1  0
 23 18  1  0
 29 24  1  0
M  END
>  <inchikey>  (28) 
FIFVPQOXPLPNCQ-UHFFFAOYSA-N

>  <alias>  (28) 
None

>  <name>  (28) 
FIFVPQOXPLPNCQ-UHFFFAOYSA-N

>  <original ID>  (28) 
FIFVPQOXPLPNCQ-UHFFFAOYSA-N

>  <csv_name>  (28) 
thumb_site_2_fstein_bulkdock_input_split1000_batch000.csv

>  <fragmenstein_error>  (28) 
None

>  <fragmenstein_mode>  (28) 
expansion

>  <ref_pdb>  (28) 
d0771a

>  <exports>  (28) 
['/opt/xchem-fragalysis-2/maxwin/BulkDock/OUTPUTS/thumb_site_2_fstein_bulkdock_input_split1000_batch000_217914.sdf']

>  <SLURM_JOB_ID>  (28) 
217914

>  <HIPPO Pose ID>  (28) 
77538

>  <energy_score>  (28) 
-14.153645

>  <fragmenstein_runtime>  (28) 
53.916846

>  <original SMILES>  (28) 
O=S(=O)(NCNCN=C(CCC1CCCCC1)N1CCOCC1)c1ccccc1Cl

>  <scratch_subdir>  (28) 
/opt/xchem-fragalysis-2/maxwin/BulkDock/SCRATCH/217914/C68631-P57

>  <HIPPO Compound ID>  (28) 
68631

>  <fragmenstein_outcome>  (28) 
acceptable

>  <SLURM_JOB_NAME>  (28) 
BulkDock.place:Flavi_NS5_RdRp:thumb_site_2_fstein_bulkdock_input_split1000_batch000

>  <distance_score>  (28) 
0.692634

>  <ref_mols>  (28) 
d0153a,d0771a

>  <tags>  (28) 
['Fragmenstein placed']

$$$$
77548
     RDKit          3D

 20 21  0  0  0  0  0  0  0  0999 V2000
   -3.7923  -72.5692  -21.9562 C   0  0  0  0  0  0  0  0  0  0  0  0
   -3.6627  -72.6933  -20.5214 N   0  0  0  0  0  0  0  0  0  0  0  0
   -3.8053  -71.3122  -19.5419 S   0  0  2  0  0  0  0  0  0  0  0  0
   -3.3082  -71.7944  -18.2734 O   0  0  0  0  0  0  0  0  0  0  0  0
   -5.2649  -70.9568  -19.8379 N   0  0  0  0  0  0  0  0  0  0  0  0
   -6.2631  -71.6743  -19.0262 C   0  0  0  0  0  0  0  0  0  0  0  0
   -7.6952  -71.3805  -19.3889 C   0  0  0  0  0  0  0  0  0  0  0  0
   -8.0898  -70.5138  -20.4024 C   0  0  0  0  0  0  0  0  0  0  0  0
   -9.4407  -70.3157  -20.6780 C   0  0  0  0  0  0  0  0  0  0  0  0
  -10.3869  -70.9727  -19.9021 C   0  0  0  0  0  0  0  0  0  0  0  0
  -11.8482  -70.7515  -20.1534 C   0  0  0  0  0  0  0  0  0  0  0  0
  -10.0430  -71.8103  -18.8960 N   0  0  0  0  0  0  0  0  0  0  0  0
   -8.7186  -72.0005  -18.6772 C   0  0  0  0  0  0  0  0  0  0  0  0
   -2.6171  -70.1430  -20.1430 C   0  0  0  0  0  0  0  0  0  0  0  0
   -1.3191  -70.6221  -20.4044 C   0  0  0  0  0  0  0  0  0  0  0  0
   -0.3181  -69.7607  -20.8572 C   0  0  0  0  0  0  0  0  0  0  0  0
   -0.5963  -68.4116  -21.0351 C   0  0  0  0  0  0  0  0  0  0  0  0
   -1.8719  -67.9306  -20.7503 C   0  0  0  0  0  0  0  0  0  0  0  0
   -2.8819  -68.7903  -20.3023 C   0  0  0  0  0  0  0  0  0  0  0  0
   -4.3716  -68.0646  -19.9214 Cl  0  0  0  0  0  0  0  0  0  0  0  0
  1  2  1  0
  3  2  1  6
  3  4  2  0
  3  5  2  0
  5  6  1  0
  6  7  1  0
  7  8  2  0
  8  9  1  0
  9 10  2  0
 10 11  1  0
 10 12  1  0
 12 13  2  0
  3 14  1  0
 14 15  2  0
 15 16  1  0
 16 17  2  0
 17 18  1  0
 18 19  2  0
 19 20  1  0
 13  7  1  0
 19 14  1  0
M  END
>  <inchikey>  (29) 
QFBKVXCIIDISQY-FQEVSTJZSA-N

>  <alias>  (29) 
None

>  <name>  (29) 
QFBKVXCIIDISQY-FQEVSTJZSA-N

>  <original ID>  (29) 
QFBKVXCIIDISQY-FQEVSTJZSA-N

>  <csv_name>  (29) 
thumb_site_2_fstein_bulkdock_input_split1000_batch000.csv

>  <fragmenstein_error>  (29) 
None

>  <fragmenstein_mode>  (29) 
expansion

>  <ref_pdb>  (29) 
d0153a

>  <exports>  (29) 
['/opt/xchem-fragalysis-2/maxwin/BulkDock/OUTPUTS/thumb_site_2_fstein_bulkdock_input_split1000_batch000_217914.sdf']

>  <SLURM_JOB_ID>  (29) 
217914

>  <HIPPO Pose ID>  (29) 
77548

>  <energy_score>  (29) 
-56.8884

>  <fragmenstein_runtime>  (29) 
1.732539

>  <original SMILES>  (29) 
CN[S@](=O)(=NCc1ccc(C)nc1)c1ccccc1Cl

>  <scratch_subdir>  (29) 
/opt/xchem-fragalysis-2/maxwin/BulkDock/SCRATCH/217914/C68634-P10

>  <HIPPO Compound ID>  (29) 
68634

>  <fragmenstein_outcome>  (29) 
acceptable

>  <SLURM_JOB_NAME>  (29) 
BulkDock.place:Flavi_NS5_RdRp:thumb_site_2_fstein_bulkdock_input_split1000_batch000

>  <distance_score>  (29) 
0.699376

>  <ref_mols>  (29) 
d0153a,d1212a

>  <tags>  (29) 
['Fragmenstein placed']

$$$$
77550
     RDKit          3D

 20 21  0  0  0  0  0  0  0  0999 V2000
   -3.8666  -72.8616  -21.9446 C   0  0  0  0  0  0  0  0  0  0  0  0
   -3.7651  -73.0426  -20.5092 N   0  0  0  0  0  0  0  0  0  0  0  0
   -3.9243  -71.6891  -19.4965 S   0  0  2  0  0  0  0  0  0  0  0  0
   -3.4326  -72.1740  -18.2283 O   0  0  0  0  0  0  0  0  0  0  0  0
   -5.3691  -71.3043  -19.7935 N   0  0  0  0  0  0  0  0  0  0  0  0
   -6.4238  -72.0483  -19.1105 C   0  0  0  0  0  0  0  0  0  0  0  0
   -7.8073  -71.5488  -19.4395 C   0  0  0  0  0  0  0  0  0  0  0  0
   -8.1209  -70.7556  -20.5443 C   0  0  0  0  0  0  0  0  0  0  0  0
   -9.4446  -70.3988  -20.7933 C   0  0  0  0  0  0  0  0  0  0  0  0
  -10.4375  -70.8423  -19.9260 C   0  0  0  0  0  0  0  0  0  0  0  0
  -11.8710  -70.4763  -20.1691 C   0  0  0  0  0  0  0  0  0  0  0  0
  -10.1672  -71.6057  -18.8414 N   0  0  0  0  0  0  0  0  0  0  0  0
   -8.8729  -71.9460  -18.6364 C   0  0  0  0  0  0  0  0  0  0  0  0
   -2.7391  -70.5215  -20.0907 C   0  0  0  0  0  0  0  0  0  0  0  0
   -1.3909  -70.9183  -20.0929 C   0  0  0  0  0  0  0  0  0  0  0  0
   -0.4077  -70.0613  -20.5819 C   0  0  0  0  0  0  0  0  0  0  0  0
   -0.7745  -68.8260  -21.1006 C   0  0  0  0  0  0  0  0  0  0  0  0
   -2.1102  -68.4457  -21.1220 C   0  0  0  0  0  0  0  0  0  0  0  0
   -3.0849  -69.2665  -20.5605 C   0  0  0  0  0  0  0  0  0  0  0  0
   -4.6282  -68.5884  -20.3541 Cl  0  0  0  0  0  0  0  0  0  0  0  0
  1  2  1  0
  3  2  1  6
  3  4  2  0
  3  5  2  0
  5  6  1  0
  6  7  1  0
  7  8  2  0
  8  9  1  0
  9 10  2  0
 10 11  1  0
 10 12  1  0
 12 13  2  0
  3 14  1  0
 14 15  2  0
 15 16  1  0
 16 17  2  0
 17 18  1  0
 18 19  2  0
 19 20  1  0
 13  7  1  0
 19 14  1  0
M  END
>  <inchikey>  (30) 
QFBKVXCIIDISQY-FQEVSTJZSA-N

>  <alias>  (30) 
None

>  <name>  (30) 
QFBKVXCIIDISQY-FQEVSTJZSA-N

>  <original ID>  (30) 
QFBKVXCIIDISQY-FQEVSTJZSA-N

>  <csv_name>  (30) 
thumb_site_2_fstein_bulkdock_input_split1000_batch000.csv

>  <fragmenstein_error>  (30) 
None

>  <fragmenstein_mode>  (30) 
expansion

>  <ref_pdb>  (30) 
d1212a

>  <exports>  (30) 
['/opt/xchem-fragalysis-2/maxwin/BulkDock/OUTPUTS/thumb_site_2_fstein_bulkdock_input_split1000_batch000_217914.sdf']

>  <SLURM_JOB_ID>  (30) 
217914

>  <HIPPO Pose ID>  (30) 
77550

>  <energy_score>  (30) 
-54.542781

>  <fragmenstein_runtime>  (30) 
2.334638

>  <original SMILES>  (30) 
CN[S@](=O)(=NCc1ccc(C)nc1)c1ccccc1Cl

>  <scratch_subdir>  (30) 
/opt/xchem-fragalysis-2/maxwin/BulkDock/SCRATCH/217914/C68634-P79

>  <HIPPO Compound ID>  (30) 
68634

>  <fragmenstein_outcome>  (30) 
acceptable

>  <SLURM_JOB_NAME>  (30) 
BulkDock.place:Flavi_NS5_RdRp:thumb_site_2_fstein_bulkdock_input_split1000_batch000

>  <distance_score>  (30) 
0.803437

>  <ref_mols>  (30) 
d0153a,d1212a

>  <tags>  (30) 
['Fragmenstein placed']

$$$$
77553
     RDKit          3D

 34 36  0  0  0  0  0  0  0  0999 V2000
  -12.0732  -69.1480  -26.4230 O   0  0  0  0  0  0  0  0  0  0  0  0
  -11.5426  -69.6987  -25.4719 C   0  0  0  0  0  0  0  0  0  0  0  0
  -10.3119  -69.3699  -25.0321 O   0  0  0  0  0  0  0  0  0  0  0  0
  -12.1631  -70.7897  -24.6353 C   0  0  0  0  0  0  0  0  0  0  0  0
  -12.3506  -70.3754  -23.1920 C   0  0  0  0  0  0  0  0  0  0  0  0
  -13.4525  -69.5955  -22.8219 C   0  0  0  0  0  0  0  0  0  0  0  0
  -13.6072  -69.1675  -21.5014 C   0  0  0  0  0  0  0  0  0  0  0  0
  -14.8028  -68.3453  -21.0919 C   0  0  0  0  0  0  0  0  0  0  0  0
  -15.7548  -69.0908  -20.1987 C   0  0  0  0  0  0  0  0  0  0  0  0
  -16.8172  -69.5874  -20.5371 O   0  0  0  0  0  0  0  0  0  0  0  0
  -15.3235  -69.1933  -18.9215 O   0  0  0  0  0  0  0  0  0  0  0  0
  -12.6329  -69.5250  -20.5540 C   0  0  0  0  0  0  0  0  0  0  0  0
  -11.5226  -70.3262  -20.8804 C   0  0  0  0  0  0  0  0  0  0  0  0
  -10.5716  -70.7397  -19.8160 C   0  0  0  0  0  0  0  0  0  0  0  0
  -10.7040  -70.5915  -18.4439 C   0  0  0  0  0  0  0  0  0  0  0  0
   -9.6443  -71.1706  -17.6963 C   0  0  0  0  0  0  0  0  0  0  0  0
   -8.7171  -71.7879  -18.5056 C   0  0  0  0  0  0  0  0  0  0  0  0
   -7.5889  -72.6760  -18.0539 C   0  0  0  0  0  0  0  0  0  0  0  0
   -6.1878  -72.3513  -18.5770 C   0  0  0  0  0  0  0  0  0  0  0  0
   -5.6927  -71.0411  -18.1330 N   0  0  0  0  0  0  0  0  0  0  0  0
   -4.2451  -70.9285  -18.2254 C   0  0  0  0  0  0  0  0  0  0  0  0
   -3.7505  -71.4099  -19.4914 N   0  0  0  0  0  0  0  0  0  0  0  0
   -3.7260  -70.3547  -20.7880 S   0  0  0  0  0  0  0  0  0  0  0  0
   -3.7204  -71.1550  -21.9926 O   0  0  0  0  0  0  0  0  0  0  0  0
   -4.7515  -69.3638  -20.5414 O   0  0  0  0  0  0  0  0  0  0  0  0
   -2.1519  -69.5691  -20.6990 C   0  0  0  0  0  0  0  0  0  0  0  0
   -2.1134  -68.1707  -20.6833 C   0  0  0  0  0  0  0  0  0  0  0  0
   -0.8846  -67.5194  -20.6955 C   0  0  0  0  0  0  0  0  0  0  0  0
    0.2997  -68.2485  -20.7188 C   0  0  0  0  0  0  0  0  0  0  0  0
    0.2628  -69.6400  -20.7404 C   0  0  0  0  0  0  0  0  0  0  0  0
   -0.9645  -70.3085  -20.7322 C   0  0  0  0  0  0  0  0  0  0  0  0
   -0.9015  -72.0356  -20.7382 Cl  0  0  0  0  0  0  0  0  0  0  0  0
   -9.0829  -71.5390  -20.1587 S   0  0  0  0  0  0  0  0  0  0  0  0
  -11.3974  -70.7311  -22.2187 C   0  0  0  0  0  0  0  0  0  0  0  0
  1  2  2  0
  2  3  1  0
  2  4  1  0
  4  5  1  0
  5  6  2  0
  6  7  1  0
  7  8  1  0
  8  9  1  0
  9 10  2  0
  9 11  1  0
  7 12  2  0
 12 13  1  0
 13 14  1  0
 14 15  2  0
 15 16  1  0
 16 17  2  0
 17 18  1  0
 18 19  1  0
 19 20  1  0
 20 21  1  0
 21 22  1  0
 22 23  1  0
 23 24  2  0
 23 25  2  0
 23 26  1  0
 26 27  2  0
 27 28  1  0
 28 29  2  0
 29 30  1  0
 30 31  2  0
 31 32  1  0
 17 33  1  0
 13 34  2  0
 34  5  1  0
 33 14  1  0
 31 26  1  0
M  END
>  <inchikey>  (31) 
YZVNFYOSDYISGW-UHFFFAOYSA-N

>  <alias>  (31) 
None

>  <name>  (31) 
YZVNFYOSDYISGW-UHFFFAOYSA-N

>  <original ID>  (31) 
YZVNFYOSDYISGW-UHFFFAOYSA-N

>  <csv_name>  (31) 
thumb_site_2_fstein_bulkdock_input_split1000_batch000.csv

>  <fragmenstein_error>  (31) 
None

>  <fragmenstein_mode>  (31) 
expansion

>  <ref_pdb>  (31) 
d0153a

>  <exports>  (31) 
['/opt/xchem-fragalysis-2/maxwin/BulkDock/OUTPUTS/thumb_site_2_fstein_bulkdock_input_split1000_batch000_217914.sdf']

>  <SLURM_JOB_ID>  (31) 
217914

>  <HIPPO Pose ID>  (31) 
77553

>  <energy_score>  (31) 
-211.447342

>  <fragmenstein_runtime>  (31) 
7.504212

>  <original SMILES>  (31) 
O=C(O)Cc1cc(CC(=O)O)cc(-c2ccc(CCNCNS(=O)(=O)c3ccccc3Cl)s2)c1

>  <scratch_subdir>  (31) 
/opt/xchem-fragalysis-2/maxwin/BulkDock/SCRATCH/217914/C68635-P10

>  <HIPPO Compound ID>  (31) 
68635

>  <fragmenstein_outcome>  (31) 
acceptable

>  <SLURM_JOB_NAME>  (31) 
BulkDock.place:Flavi_NS5_RdRp:thumb_site_2_fstein_bulkdock_input_split1000_batch000

>  <distance_score>  (31) 
0.408906

>  <ref_mols>  (31) 
d0153a,5hmx-a

>  <tags>  (31) 
['Fragmenstein placed']

$$$$
77569
     RDKit          3D

 25 27  0  0  0  0  0  0  0  0999 V2000
  -13.5498  -73.1641  -20.0315 C   0  0  0  0  0  0  0  0  0  0  0  0
  -13.4584  -71.7858  -19.5315 N   0  0  0  0  0  0  0  0  0  0  0  0
  -12.4796  -70.7339  -20.4463 S   0  0  0  0  0  0  0  0  0  0  0  0
  -12.8264  -69.4151  -19.9659 O   0  0  0  0  0  0  0  0  0  0  0  0
  -12.6738  -71.1333  -21.8201 O   0  0  0  0  0  0  0  0  0  0  0  0
  -10.8603  -71.1094  -19.8789 C   0  0  0  0  0  0  0  0  0  0  0  0
  -10.6551  -71.2656  -18.5023 C   0  0  0  0  0  0  0  0  0  0  0  0
   -9.4052  -71.6539  -18.0348 C   0  0  0  0  0  0  0  0  0  0  0  0
   -8.3617  -71.8811  -18.9376 C   0  0  0  0  0  0  0  0  0  0  0  0
   -7.1041  -72.2421  -18.4446 N   0  0  0  0  0  0  0  0  0  0  0  0
   -5.8370  -71.7527  -18.7954 C   0  0  0  0  0  0  0  0  0  0  0  0
   -4.7122  -72.5196  -18.4752 C   0  0  0  0  0  0  0  0  0  0  0  0
   -3.4285  -72.0931  -18.8255 C   0  0  0  0  0  0  0  0  0  0  0  0
   -3.2467  -70.8880  -19.5110 C   0  0  0  0  0  0  0  0  0  0  0  0
   -1.9274  -70.3926  -19.8733 C   0  0  0  0  0  0  0  0  0  0  0  0
   -0.8152  -71.1811  -20.0880 C   0  0  0  0  0  0  0  0  0  0  0  0
    0.5146  -70.1947  -20.5424 S   0  0  0  0  0  0  0  0  0  0  0  0
   -0.4815  -68.8016  -20.4094 C   0  0  0  0  0  0  0  0  0  0  0  0
   -0.0184  -67.5679  -20.6554 N   0  0  0  0  0  0  0  0  0  0  0  0
   -1.7178  -69.0377  -20.0523 N   0  0  0  0  0  0  0  0  0  0  0  0
   -4.3721  -70.1239  -19.8409 C   0  0  0  0  0  0  0  0  0  0  0  0
   -5.6525  -70.5599  -19.4995 C   0  0  0  0  0  0  0  0  0  0  0  0
   -8.5716  -71.6806  -20.3084 C   0  0  0  0  0  0  0  0  0  0  0  0
   -9.8202  -71.3017  -20.7795 C   0  0  0  0  0  0  0  0  0  0  0  0
   -9.9996  -71.1166  -22.1145 O   0  0  0  0  0  0  0  0  0  0  0  0
  1  2  1  0
  2  3  1  0
  3  4  2  0
  3  5  2  0
  3  6  1  0
  6  7  2  0
  7  8  1  0
  8  9  2  0
  9 10  1  0
 10 11  1  0
 11 12  2  0
 12 13  1  0
 13 14  2  0
 14 15  1  0
 15 16  2  0
 16 17  1  0
 17 18  1  0
 18 19  1  0
 18 20  2  0
 14 21  1  0
 21 22  2  0
  9 23  1  0
 23 24  2  0
 24 25  1  0
 24  6  1  0
 22 11  1  0
 20 15  1  0
M  END
>  <inchikey>  (32) 
QYFOLIDYQVUYFQ-UHFFFAOYSA-N

>  <alias>  (32) 
None

>  <name>  (32) 
QYFOLIDYQVUYFQ-UHFFFAOYSA-N

>  <original ID>  (32) 
QYFOLIDYQVUYFQ-UHFFFAOYSA-N

>  <csv_name>  (32) 
thumb_site_2_fstein_bulkdock_input_split1000_batch000.csv

>  <fragmenstein_error>  (32) 
None

>  <fragmenstein_mode>  (32) 
expansion

>  <ref_pdb>  (32) 
d0153b

>  <exports>  (32) 
['/opt/xchem-fragalysis-2/maxwin/BulkDock/OUTPUTS/thumb_site_2_fstein_bulkdock_input_split1000_batch000_217914.sdf']

>  <SLURM_JOB_ID>  (32) 
217914

>  <HIPPO Pose ID>  (32) 
77569

>  <energy_score>  (32) 
-87.248783

>  <fragmenstein_runtime>  (32) 
4.787003

>  <original SMILES>  (32) 
CNS(=O)(=O)c1ccc(Nc2ccc(-c3csc(N)n3)cc2)cc1O

>  <scratch_subdir>  (32) 
/opt/xchem-fragalysis-2/maxwin/BulkDock/SCRATCH/217914/C68637-P9

>  <HIPPO Compound ID>  (32) 
68637

>  <fragmenstein_outcome>  (32) 
acceptable

>  <SLURM_JOB_NAME>  (32) 
BulkDock.place:Flavi_NS5_RdRp:thumb_site_2_fstein_bulkdock_input_split1000_batch000

>  <distance_score>  (32) 
0.837742

>  <ref_mols>  (32) 
d0153b,d0162a

>  <tags>  (32) 
['Fragmenstein placed']

$$$$
77571
     RDKit          3D

 25 27  0  0  0  0  0  0  0  0999 V2000
  -13.5768  -73.1261  -20.1088 C   0  0  0  0  0  0  0  0  0  0  0  0
  -13.5010  -71.7381  -19.6300 N   0  0  0  0  0  0  0  0  0  0  0  0
  -12.4679  -70.7095  -20.5084 S   0  0  0  0  0  0  0  0  0  0  0  0
  -12.7870  -69.3838  -20.0286 O   0  0  0  0  0  0  0  0  0  0  0  0
  -12.6393  -71.0933  -21.8894 O   0  0  0  0  0  0  0  0  0  0  0  0
  -10.8748  -71.1306  -19.9043 C   0  0  0  0  0  0  0  0  0  0  0  0
  -10.7022  -71.2756  -18.5214 C   0  0  0  0  0  0  0  0  0  0  0  0
   -9.4720  -71.6886  -18.0239 C   0  0  0  0  0  0  0  0  0  0  0  0
   -8.4175  -71.9503  -18.9038 C   0  0  0  0  0  0  0  0  0  0  0  0
   -7.1739  -72.3206  -18.3842 N   0  0  0  0  0  0  0  0  0  0  0  0
   -5.8969  -71.8600  -18.7351 C   0  0  0  0  0  0  0  0  0  0  0  0
   -4.7860  -72.6450  -18.4086 C   0  0  0  0  0  0  0  0  0  0  0  0
   -3.4940  -72.2465  -18.7617 C   0  0  0  0  0  0  0  0  0  0  0  0
   -3.2930  -71.0533  -19.4583 C   0  0  0  0  0  0  0  0  0  0  0  0
   -1.9715  -70.5720  -19.8264 C   0  0  0  0  0  0  0  0  0  0  0  0
   -0.8271  -71.3346  -19.9368 C   0  0  0  0  0  0  0  0  0  0  0  0
    0.4816  -70.3414  -20.4480 S   0  0  0  0  0  0  0  0  0  0  0  0
   -0.5707  -68.9881  -20.4841 C   0  0  0  0  0  0  0  0  0  0  0  0
   -0.1817  -67.7659  -20.8600 N   0  0  0  0  0  0  0  0  0  0  0  0
   -1.7998  -69.2358  -20.1168 N   0  0  0  0  0  0  0  0  0  0  0  0
   -4.4070  -70.2720  -19.7954 C   0  0  0  0  0  0  0  0  0  0  0  0
   -5.6936  -70.6751  -19.4463 C   0  0  0  0  0  0  0  0  0  0  0  0
   -8.5967  -71.7663  -20.2815 C   0  0  0  0  0  0  0  0  0  0  0  0
   -9.8237  -71.3609  -20.7824 C   0  0  0  0  0  0  0  0  0  0  0  0
   -9.9699  -71.1838  -22.1223 O   0  0  0  0  0  0  0  0  0  0  0  0
  1  2  1  0
  2  3  1  0
  3  4  2  0
  3  5  2  0
  3  6  1  0
  6  7  2  0
  7  8  1  0
  8  9  2  0
  9 10  1  0
 10 11  1  0
 11 12  2  0
 12 13  1  0
 13 14  2  0
 14 15  1  0
 15 16  2  0
 16 17  1  0
 17 18  1  0
 18 19  1  0
 18 20  2  0
 14 21  1  0
 21 22  2  0
  9 23  1  0
 23 24  2  0
 24 25  1  0
 24  6  1  0
 22 11  1  0
 20 15  1  0
M  END
>  <inchikey>  (33) 
QYFOLIDYQVUYFQ-UHFFFAOYSA-N

>  <alias>  (33) 
None

>  <name>  (33) 
QYFOLIDYQVUYFQ-UHFFFAOYSA-N

>  <original ID>  (33) 
QYFOLIDYQVUYFQ-UHFFFAOYSA-N

>  <csv_name>  (33) 
thumb_site_2_fstein_bulkdock_input_split1000_batch000.csv

>  <fragmenstein_error>  (33) 
None

>  <fragmenstein_mode>  (33) 
expansion

>  <ref_pdb>  (33) 
d0162a

>  <exports>  (33) 
['/opt/xchem-fragalysis-2/maxwin/BulkDock/OUTPUTS/thumb_site_2_fstein_bulkdock_input_split1000_batch000_217914.sdf']

>  <SLURM_JOB_ID>  (33) 
217914

>  <HIPPO Pose ID>  (33) 
77571

>  <energy_score>  (33) 
-86.422457

>  <fragmenstein_runtime>  (33) 
4.79956

>  <original SMILES>  (33) 
CNS(=O)(=O)c1ccc(Nc2ccc(-c3csc(N)n3)cc2)cc1O

>  <scratch_subdir>  (33) 
/opt/xchem-fragalysis-2/maxwin/BulkDock/SCRATCH/217914/C68637-P15

>  <HIPPO Compound ID>  (33) 
68637

>  <fragmenstein_outcome>  (33) 
acceptable

>  <SLURM_JOB_NAME>  (33) 
BulkDock.place:Flavi_NS5_RdRp:thumb_site_2_fstein_bulkdock_input_split1000_batch000

>  <distance_score>  (33) 
0.84955

>  <ref_mols>  (33) 
d0153b,d0162a

>  <tags>  (33) 
['Fragmenstein placed']

$$$$
77574
     RDKit          3D

 26 29  0  0  0  0  0  0  0  0999 V2000
  -15.1092  -70.0187  -22.5736 C   0  0  0  0  0  0  0  0  0  0  0  0
  -14.5358  -68.9838  -21.6330 C   0  0  0  0  0  0  0  0  0  0  0  0
  -13.5528  -69.6792  -20.3093 S   0  0  0  0  0  0  0  0  0  0  0  0
  -14.4232  -70.4104  -19.4113 O   0  0  0  0  0  0  0  0  0  0  0  0
  -12.6733  -68.6553  -19.8076 O   0  0  0  0  0  0  0  0  0  0  0  0
  -12.6300  -70.8265  -21.0928 N   0  0  0  0  0  0  0  0  0  0  0  0
  -11.2201  -70.5482  -21.4069 C   0  0  0  0  0  0  0  0  0  0  0  0
  -10.2133  -70.9492  -20.3426 C   0  0  0  0  0  0  0  0  0  0  0  0
  -10.6268  -71.7455  -19.2671 C   0  0  0  0  0  0  0  0  0  0  0  0
   -9.7119  -72.2935  -18.3835 C   0  0  0  0  0  0  0  0  0  0  0  0
   -8.3710  -72.0318  -18.6274 C   0  0  0  0  0  0  0  0  0  0  0  0
   -7.3821  -72.6053  -17.9155 O   0  0  0  0  0  0  0  0  0  0  0  0
   -6.2132  -72.1631  -18.4209 C   0  0  0  0  0  0  0  0  0  0  0  0
   -4.9819  -72.6139  -17.9600 C   0  0  0  0  0  0  0  0  0  0  0  0
   -3.8533  -72.0628  -18.5488 C   0  0  0  0  0  0  0  0  0  0  0  0
   -3.9586  -71.0812  -19.5423 C   0  0  0  0  0  0  0  0  0  0  0  0
   -2.7069  -70.6082  -20.1263 C   0  0  0  0  0  0  0  0  0  0  0  0
   -1.8225  -71.4623  -20.7596 C   0  0  0  0  0  0  0  0  0  0  0  0
   -0.3872  -70.6226  -21.1683 S   0  0  0  0  0  0  0  0  0  0  0  0
   -1.0379  -69.1965  -20.4671 C   0  0  0  0  0  0  0  0  0  0  0  0
   -0.3190  -68.0659  -20.4190 N   0  0  0  0  0  0  0  0  0  0  0  0
   -2.2484  -69.3179  -19.9670 N   0  0  0  0  0  0  0  0  0  0  0  0
   -5.2379  -70.6159  -19.9571 C   0  0  0  0  0  0  0  0  0  0  0  0
   -6.4169  -71.2146  -19.4213 C   0  0  0  0  0  0  0  0  0  0  0  0
   -7.8642  -71.1904  -19.6132 C   0  0  0  0  0  0  0  0  0  0  0  0
   -8.8300  -70.6082  -20.4795 C   0  0  0  0  0  0  0  0  0  0  0  0
  1  2  1  0
  2  3  1  0
  3  4  2  0
  3  5  2  0
  3  6  1  0
  6  7  1  0
  7  8  1  0
  8  9  2  0
  9 10  1  0
 10 11  2  0
 11 12  1  0
 12 13  1  0
 13 14  2  0
 14 15  1  0
 15 16  2  0
 16 17  1  0
 17 18  2  0
 18 19  1  0
 19 20  1  0
 20 21  1  0
 20 22  2  0
 16 23  1  0
 23 24  2  0
 24 25  1  0
 25 26  2  0
 26  8  1  0
 25 11  1  0
 24 13  1  0
 22 17  1  0
M  END
>  <inchikey>  (34) 
RWFDJFLZXJVUFR-UHFFFAOYSA-N

>  <alias>  (34) 
None

>  <name>  (34) 
RWFDJFLZXJVUFR-UHFFFAOYSA-N

>  <original ID>  (34) 
RWFDJFLZXJVUFR-UHFFFAOYSA-N

>  <csv_name>  (34) 
thumb_site_2_fstein_bulkdock_input_split1000_batch000.csv

>  <fragmenstein_error>  (34) 
None

>  <fragmenstein_mode>  (34) 
expansion

>  <ref_pdb>  (34) 
d0162a

>  <exports>  (34) 
['/opt/xchem-fragalysis-2/maxwin/BulkDock/OUTPUTS/thumb_site_2_fstein_bulkdock_input_split1000_batch000_217914.sdf']

>  <SLURM_JOB_ID>  (34) 
217914

>  <HIPPO Pose ID>  (34) 
77574

>  <energy_score>  (34) 
-79.73989

>  <fragmenstein_runtime>  (34) 
5.47637

>  <original SMILES>  (34) 
CCS(=O)(=O)NCc1ccc2oc3ccc(-c4csc(N)n4)cc3c2c1

>  <scratch_subdir>  (34) 
/opt/xchem-fragalysis-2/maxwin/BulkDock/SCRATCH/217914/C68639-P15

>  <HIPPO Compound ID>  (34) 
68639

>  <fragmenstein_outcome>  (34) 
acceptable

>  <SLURM_JOB_NAME>  (34) 
BulkDock.place:Flavi_NS5_RdRp:thumb_site_2_fstein_bulkdock_input_split1000_batch000

>  <distance_score>  (34) 
0.907087

>  <ref_mols>  (34) 
d0162a,d0174a

>  <tags>  (34) 
['Fragmenstein placed']

$$$$
77577
     RDKit          3D

 26 29  0  0  0  0  0  0  0  0999 V2000
  -14.4680  -69.3031  -22.9349 C   0  0  0  0  0  0  0  0  0  0  0  0
  -14.9475  -69.6327  -21.5380 C   0  0  0  0  0  0  0  0  0  0  0  0
  -13.6202  -69.8110  -20.3555 S   0  0  0  0  0  0  0  0  0  0  0  0
  -14.1691  -70.4379  -19.1670 O   0  0  0  0  0  0  0  0  0  0  0  0
  -12.9039  -68.5650  -20.2683 O   0  0  0  0  0  0  0  0  0  0  0  0
  -12.6473  -70.9538  -21.0978 N   0  0  0  0  0  0  0  0  0  0  0  0
  -11.2481  -70.6117  -21.4435 C   0  0  0  0  0  0  0  0  0  0  0  0
  -10.2076  -70.9428  -20.3855 C   0  0  0  0  0  0  0  0  0  0  0  0
  -10.6100  -71.5556  -19.1906 C   0  0  0  0  0  0  0  0  0  0  0  0
   -9.6860  -72.0359  -18.2787 C   0  0  0  0  0  0  0  0  0  0  0  0
   -8.3470  -71.8672  -18.5976 C   0  0  0  0  0  0  0  0  0  0  0  0
   -7.3571  -72.3801  -17.8423 O   0  0  0  0  0  0  0  0  0  0  0  0
   -6.1900  -72.0313  -18.4192 C   0  0  0  0  0  0  0  0  0  0  0  0
   -4.9589  -72.4466  -17.9255 C   0  0  0  0  0  0  0  0  0  0  0  0
   -3.8309  -71.9651  -18.5723 C   0  0  0  0  0  0  0  0  0  0  0  0
   -3.9397  -71.0940  -19.6628 C   0  0  0  0  0  0  0  0  0  0  0  0
   -2.6880  -70.6405  -20.2551 C   0  0  0  0  0  0  0  0  0  0  0  0
   -1.8134  -71.5000  -20.8915 C   0  0  0  0  0  0  0  0  0  0  0  0
   -0.3638  -70.6723  -21.2801 S   0  0  0  0  0  0  0  0  0  0  0  0
   -0.9975  -69.2470  -20.5619 C   0  0  0  0  0  0  0  0  0  0  0  0
   -0.2690  -68.1224  -20.4925 N   0  0  0  0  0  0  0  0  0  0  0  0
   -2.2096  -69.3614  -20.0671 N   0  0  0  0  0  0  0  0  0  0  0  0
   -5.2177  -70.6923  -20.1415 C   0  0  0  0  0  0  0  0  0  0  0  0
   -6.3953  -71.2112  -19.5275 C   0  0  0  0  0  0  0  0  0  0  0  0
   -7.8441  -71.1859  -19.7025 C   0  0  0  0  0  0  0  0  0  0  0  0
   -8.8146  -70.7040  -20.6254 C   0  0  0  0  0  0  0  0  0  0  0  0
  1  2  1  0
  2  3  1  0
  3  4  2  0
  3  5  2  0
  3  6  1  0
  6  7  1  0
  7  8  1  0
  8  9  2  0
  9 10  1  0
 10 11  2  0
 11 12  1  0
 12 13  1  0
 13 14  2  0
 14 15  1  0
 15 16  2  0
 16 17  1  0
 17 18  2  0
 18 19  1  0
 19 20  1  0
 20 21  1  0
 20 22  2  0
 16 23  1  0
 23 24  2  0
 24 25  1  0
 25 26  2  0
 26  8  1  0
 25 11  1  0
 24 13  1  0
 22 17  1  0
M  END
>  <inchikey>  (35) 
RWFDJFLZXJVUFR-UHFFFAOYSA-N

>  <alias>  (35) 
None

>  <name>  (35) 
RWFDJFLZXJVUFR-UHFFFAOYSA-N

>  <original ID>  (35) 
RWFDJFLZXJVUFR-UHFFFAOYSA-N

>  <csv_name>  (35) 
thumb_site_2_fstein_bulkdock_input_split1000_batch000.csv

>  <fragmenstein_error>  (35) 
None

>  <fragmenstein_mode>  (35) 
expansion

>  <ref_pdb>  (35) 
d0174a

>  <exports>  (35) 
['/opt/xchem-fragalysis-2/maxwin/BulkDock/OUTPUTS/thumb_site_2_fstein_bulkdock_input_split1000_batch000_217914.sdf']

>  <SLURM_JOB_ID>  (35) 
217914

>  <HIPPO Pose ID>  (35) 
77577

>  <energy_score>  (35) 
-79.374998

>  <fragmenstein_runtime>  (35) 
3.862093

>  <original SMILES>  (35) 
CCS(=O)(=O)NCc1ccc2oc3ccc(-c4csc(N)n4)cc3c2c1

>  <scratch_subdir>  (35) 
/opt/xchem-fragalysis-2/maxwin/BulkDock/SCRATCH/217914/C68639-P17

>  <HIPPO Compound ID>  (35) 
68639

>  <fragmenstein_outcome>  (35) 
acceptable

>  <SLURM_JOB_NAME>  (35) 
BulkDock.place:Flavi_NS5_RdRp:thumb_site_2_fstein_bulkdock_input_split1000_batch000

>  <distance_score>  (35) 
0.841129

>  <ref_mols>  (35) 
d0162a,d0174a

>  <tags>  (35) 
['Fragmenstein placed']

$$$$
77584
     RDKit          3D

 27 29  0  0  0  0  0  0  0  0999 V2000
  -14.2686  -69.3562  -22.9273 C   0  0  0  0  0  0  0  0  0  0  0  0
  -14.0766  -70.8307  -22.5795 C   0  0  0  0  0  0  0  0  0  0  0  0
  -15.3400  -71.3232  -21.8663 C   0  0  0  0  0  0  0  0  0  0  0  0
  -13.8575  -71.6895  -23.8519 C   0  0  0  0  0  0  0  0  0  0  0  0
  -12.8658  -71.1698  -24.7270 O   0  0  0  0  0  0  0  0  0  0  0  0
  -12.9529  -70.9594  -21.6557 N   0  0  0  0  0  0  0  0  0  0  0  0
  -11.4671  -70.6032  -21.8336 C   0  0  0  0  0  0  0  0  0  0  0  0
  -10.8896  -70.2228  -22.7696 O   0  0  0  0  0  0  0  0  0  0  0  0
  -10.7322  -70.7809  -20.5488 C   0  0  0  0  0  0  0  0  0  0  0  0
  -11.2797  -70.3134  -19.3476 C   0  0  0  0  0  0  0  0  0  0  0  0
  -10.6088  -70.5318  -18.1475 C   0  0  0  0  0  0  0  0  0  0  0  0
   -9.3930  -71.2097  -18.1476 C   0  0  0  0  0  0  0  0  0  0  0  0
   -8.8292  -71.6632  -19.3452 C   0  0  0  0  0  0  0  0  0  0  0  0
   -7.6318  -72.4046  -19.3103 N   0  0  0  0  0  0  0  0  0  0  0  0
   -6.3187  -71.8809  -19.3012 C   0  0  0  0  0  0  0  0  0  0  0  0
   -5.2542  -72.7380  -18.9854 C   0  0  0  0  0  0  0  0  0  0  0  0
   -3.9216  -72.3213  -19.1009 C   0  0  0  0  0  0  0  0  0  0  0  0
   -3.6199  -71.0381  -19.5623 C   0  0  0  0  0  0  0  0  0  0  0  0
   -2.2515  -70.5892  -19.8111 C   0  0  0  0  0  0  0  0  0  0  0  0
   -1.1278  -71.3917  -19.8467 C   0  0  0  0  0  0  0  0  0  0  0  0
    0.2451  -70.4608  -20.3039 S   0  0  0  0  0  0  0  0  0  0  0  0
   -0.7497  -69.0697  -20.4183 C   0  0  0  0  0  0  0  0  0  0  0  0
   -0.2850  -67.8769  -20.8091 N   0  0  0  0  0  0  0  0  0  0  0  0
   -2.0038  -69.2605  -20.0965 N   0  0  0  0  0  0  0  0  0  0  0  0
   -4.6863  -70.1722  -19.8533 C   0  0  0  0  0  0  0  0  0  0  0  0
   -6.0175  -70.5915  -19.7371 C   0  0  0  0  0  0  0  0  0  0  0  0
   -9.4902  -71.4233  -20.5540 C   0  0  0  0  0  0  0  0  0  0  0  0
  1  2  1  0
  2  3  1  0
  2  4  1  0
  4  5  1  0
  2  6  1  0
  6  7  1  0
  7  8  2  0
  7  9  1  0
  9 10  2  0
 10 11  1  0
 11 12  2  0
 12 13  1  0
 13 14  1  0
 14 15  1  0
 15 16  2  0
 16 17  1  0
 17 18  2  0
 18 19  1  0
 19 20  2  0
 20 21  1  0
 21 22  1  0
 22 23  1  0
 22 24  2  0
 18 25  1  0
 25 26  2  0
 13 27  2  0
 27  9  1  0
 26 15  1  0
 24 19  1  0
M  END
>  <inchikey>  (36) 
MLFVYAAZYPOSSA-UHFFFAOYSA-N

>  <alias>  (36) 
None

>  <name>  (36) 
MLFVYAAZYPOSSA-UHFFFAOYSA-N

>  <original ID>  (36) 
MLFVYAAZYPOSSA-UHFFFAOYSA-N

>  <csv_name>  (36) 
thumb_site_2_fstein_bulkdock_input_split1000_batch000.csv

>  <fragmenstein_error>  (36) 
None

>  <fragmenstein_mode>  (36) 
expansion

>  <ref_pdb>  (36) 
d0162a

>  <exports>  (36) 
['/opt/xchem-fragalysis-2/maxwin/BulkDock/OUTPUTS/thumb_site_2_fstein_bulkdock_input_split1000_batch000_217914.sdf']

>  <SLURM_JOB_ID>  (36) 
217914

>  <HIPPO Pose ID>  (36) 
77584

>  <energy_score>  (36) 
-83.184368

>  <fragmenstein_runtime>  (36) 
8.435351

>  <original SMILES>  (36) 
CC(C)(CO)NC(=O)c1cccc(Nc2ccc(-c3csc(N)n3)cc2)c1

>  <scratch_subdir>  (36) 
/opt/xchem-fragalysis-2/maxwin/BulkDock/SCRATCH/217914/C68641-P15

>  <HIPPO Compound ID>  (36) 
68641

>  <fragmenstein_outcome>  (36) 
acceptable

>  <SLURM_JOB_NAME>  (36) 
BulkDock.place:Flavi_NS5_RdRp:thumb_site_2_fstein_bulkdock_input_split1000_batch000

>  <distance_score>  (36) 
0.509589

>  <ref_mols>  (36) 
d0162a,d0248a

>  <tags>  (36) 
['Fragmenstein placed']

$$$$
77587
     RDKit          3D

 27 29  0  0  0  0  0  0  0  0999 V2000
  -14.2000  -69.2222  -23.2865 C   0  0  0  0  0  0  0  0  0  0  0  0
  -14.1411  -70.6788  -22.8084 C   0  0  0  0  0  0  0  0  0  0  0  0
  -15.4544  -71.0194  -22.0871 C   0  0  0  0  0  0  0  0  0  0  0  0
  -13.9685  -71.6467  -24.0082 C   0  0  0  0  0  0  0  0  0  0  0  0
  -12.8952  -71.2971  -24.8733 O   0  0  0  0  0  0  0  0  0  0  0  0
  -13.0379  -70.8385  -21.8558 N   0  0  0  0  0  0  0  0  0  0  0  0
  -11.5259  -70.6042  -22.0281 C   0  0  0  0  0  0  0  0  0  0  0  0
  -10.9094  -70.3214  -22.9741 O   0  0  0  0  0  0  0  0  0  0  0  0
  -10.8003  -70.8057  -20.7349 C   0  0  0  0  0  0  0  0  0  0  0  0
  -11.3445  -70.3489  -19.5288 C   0  0  0  0  0  0  0  0  0  0  0  0
  -10.6690  -70.5740  -18.3308 C   0  0  0  0  0  0  0  0  0  0  0  0
   -9.4508  -71.2442  -18.3319 C   0  0  0  0  0  0  0  0  0  0  0  0
   -8.8883  -71.6893  -19.5307 C   0  0  0  0  0  0  0  0  0  0  0  0
   -7.6920  -72.4328  -19.4943 N   0  0  0  0  0  0  0  0  0  0  0  0
   -6.3786  -71.9109  -19.4581 C   0  0  0  0  0  0  0  0  0  0  0  0
   -5.3256  -72.7647  -19.0955 C   0  0  0  0  0  0  0  0  0  0  0  0
   -3.9895  -72.3566  -19.1882 C   0  0  0  0  0  0  0  0  0  0  0  0
   -3.6737  -71.0864  -19.6740 C   0  0  0  0  0  0  0  0  0  0  0  0
   -2.2992  -70.6498  -19.9031 C   0  0  0  0  0  0  0  0  0  0  0  0
   -1.1783  -71.4570  -19.9118 C   0  0  0  0  0  0  0  0  0  0  0  0
    0.2051  -70.5347  -20.3574 S   0  0  0  0  0  0  0  0  0  0  0  0
   -0.7845  -69.1438  -20.5036 C   0  0  0  0  0  0  0  0  0  0  0  0
   -0.3187  -67.9555  -20.9030 N   0  0  0  0  0  0  0  0  0  0  0  0
   -2.0428  -69.3269  -20.1978 N   0  0  0  0  0  0  0  0  0  0  0  0
   -4.7291  -70.2217  -20.0104 C   0  0  0  0  0  0  0  0  0  0  0  0
   -6.0639  -70.6317  -19.9154 C   0  0  0  0  0  0  0  0  0  0  0  0
   -9.5530  -71.4450  -20.7385 C   0  0  0  0  0  0  0  0  0  0  0  0
  1  2  1  0
  2  3  1  0
  2  4  1  0
  4  5  1  0
  2  6  1  0
  6  7  1  0
  7  8  2  0
  7  9  1  0
  9 10  2  0
 10 11  1  0
 11 12  2  0
 12 13  1  0
 13 14  1  0
 14 15  1  0
 15 16  2  0
 16 17  1  0
 17 18  2  0
 18 19  1  0
 19 20  2  0
 20 21  1  0
 21 22  1  0
 22 23  1  0
 22 24  2  0
 18 25  1  0
 25 26  2  0
 13 27  2  0
 27  9  1  0
 26 15  1  0
 24 19  1  0
M  END
>  <inchikey>  (37) 
MLFVYAAZYPOSSA-UHFFFAOYSA-N

>  <alias>  (37) 
None

>  <name>  (37) 
MLFVYAAZYPOSSA-UHFFFAOYSA-N

>  <original ID>  (37) 
MLFVYAAZYPOSSA-UHFFFAOYSA-N

>  <csv_name>  (37) 
thumb_site_2_fstein_bulkdock_input_split1000_batch000.csv

>  <fragmenstein_error>  (37) 
None

>  <fragmenstein_mode>  (37) 
expansion

>  <ref_pdb>  (37) 
d0248a

>  <exports>  (37) 
['/opt/xchem-fragalysis-2/maxwin/BulkDock/OUTPUTS/thumb_site_2_fstein_bulkdock_input_split1000_batch000_217914.sdf']

>  <SLURM_JOB_ID>  (37) 
217914

>  <HIPPO Pose ID>  (37) 
77587

>  <energy_score>  (37) 
-83.307972

>  <fragmenstein_runtime>  (37) 
8.085865

>  <original SMILES>  (37) 
CC(C)(CO)NC(=O)c1cccc(Nc2ccc(-c3csc(N)n3)cc2)c1

>  <scratch_subdir>  (37) 
/opt/xchem-fragalysis-2/maxwin/BulkDock/SCRATCH/217914/C68641-P22

>  <HIPPO Compound ID>  (37) 
68641

>  <fragmenstein_outcome>  (37) 
acceptable

>  <SLURM_JOB_NAME>  (37) 
BulkDock.place:Flavi_NS5_RdRp:thumb_site_2_fstein_bulkdock_input_split1000_batch000

>  <distance_score>  (37) 
0.427249

>  <ref_mols>  (37) 
d0162a,d0248a

>  <tags>  (37) 
['Fragmenstein placed']

$$$$
77590
     RDKit          3D

 19 21  0  0  0  0  0  0  0  0999 V2000
   -0.2108  -67.8851  -20.8029 N   0  0  0  0  0  0  0  0  0  0  0  0
   -0.6686  -69.0851  -20.4291 C   0  0  0  0  0  0  0  0  0  0  0  0
   -1.9133  -69.2675  -20.0766 N   0  0  0  0  0  0  0  0  0  0  0  0
   -2.1708  -70.5960  -19.8018 C   0  0  0  0  0  0  0  0  0  0  0  0
   -3.5339  -71.0013  -19.4802 C   0  0  0  0  0  0  0  0  0  0  0  0
   -3.8578  -72.2256  -18.8886 C   0  0  0  0  0  0  0  0  0  0  0  0
   -5.1950  -72.5439  -18.6010 C   0  0  0  0  0  0  0  0  0  0  0  0
   -6.2338  -71.6596  -18.9194 C   0  0  0  0  0  0  0  0  0  0  0  0
   -7.5660  -71.9609  -18.5427 N   0  0  0  0  0  0  0  0  0  0  0  0
   -8.7277  -71.4017  -19.1270 C   0  0  0  0  0  0  0  0  0  0  0  0
   -9.8301  -71.1252  -18.3151 C   0  0  0  0  0  0  0  0  0  0  0  0
  -11.0117  -70.6292  -18.8697 C   0  0  0  0  0  0  0  0  0  0  0  0
  -11.1104  -70.4328  -20.2462 C   0  0  0  0  0  0  0  0  0  0  0  0
  -10.0335  -70.7456  -21.0702 C   0  0  0  0  0  0  0  0  0  0  0  0
   -8.8578  -71.2470  -20.5115 C   0  0  0  0  0  0  0  0  0  0  0  0
   -5.8967  -70.4210  -19.4689 C   0  0  0  0  0  0  0  0  0  0  0  0
   -4.5722  -70.1030  -19.7603 C   0  0  0  0  0  0  0  0  0  0  0  0
   -1.0663  -71.4178  -19.8921 C   0  0  0  0  0  0  0  0  0  0  0  0
    0.3060  -70.4948  -20.3776 S   0  0  0  0  0  0  0  0  0  0  0  0
  1  2  1  0
  2  3  2  0
  3  4  1  0
  4  5  1  0
  5  6  2  0
  6  7  1  0
  7  8  2  0
  8  9  1  0
  9 10  1  0
 10 11  2  0
 11 12  1  0
 12 13  2  0
 13 14  1  0
 14 15  2  0
  8 16  1  0
 16 17  2  0
  4 18  2  0
 18 19  1  0
 19  2  1  0
 17  5  1  0
 15 10  1  0
M  END
>  <inchikey>  (38) 
GJMVTWFDMFYHEH-UHFFFAOYSA-N

>  <alias>  (38) 
None

>  <name>  (38) 
GJMVTWFDMFYHEH-UHFFFAOYSA-N

>  <original ID>  (38) 
GJMVTWFDMFYHEH-UHFFFAOYSA-N

>  <csv_name>  (38) 
thumb_site_2_fstein_bulkdock_input_split1000_batch000.csv

>  <fragmenstein_error>  (38) 
None

>  <fragmenstein_mode>  (38) 
expansion

>  <ref_pdb>  (38) 
d0162a

>  <exports>  (38) 
['/opt/xchem-fragalysis-2/maxwin/BulkDock/OUTPUTS/thumb_site_2_fstein_bulkdock_input_split1000_batch000_217914.sdf']

>  <SLURM_JOB_ID>  (38) 
217914

>  <HIPPO Pose ID>  (38) 
77590

>  <energy_score>  (38) 
-72.33141

>  <fragmenstein_runtime>  (38) 
2.838236

>  <original SMILES>  (38) 
Nc1nc(-c2ccc(Nc3ccccc3)cc2)cs1

>  <scratch_subdir>  (38) 
/opt/xchem-fragalysis-2/maxwin/BulkDock/SCRATCH/217914/C68642-P15

>  <HIPPO Compound ID>  (38) 
68642

>  <fragmenstein_outcome>  (38) 
acceptable

>  <SLURM_JOB_NAME>  (38) 
BulkDock.place:Flavi_NS5_RdRp:thumb_site_2_fstein_bulkdock_input_split1000_batch000

>  <distance_score>  (38) 
0.482836

>  <ref_mols>  (38) 
d0162a,d0249a

>  <tags>  (38) 
['Fragmenstein placed']

$$$$
77593
     RDKit          3D

 19 21  0  0  0  0  0  0  0  0999 V2000
   -0.1649  -67.8974  -20.7970 N   0  0  0  0  0  0  0  0  0  0  0  0
   -0.6238  -69.1012  -20.4402 C   0  0  0  0  0  0  0  0  0  0  0  0
   -1.8724  -69.2812  -20.1058 N   0  0  0  0  0  0  0  0  0  0  0  0
   -2.1371  -70.6068  -19.8335 C   0  0  0  0  0  0  0  0  0  0  0  0
   -3.5055  -70.9992  -19.5242 C   0  0  0  0  0  0  0  0  0  0  0  0
   -3.8524  -72.2413  -18.9864 C   0  0  0  0  0  0  0  0  0  0  0  0
   -5.1960  -72.5475  -18.7216 C   0  0  0  0  0  0  0  0  0  0  0  0
   -6.2164  -71.6323  -19.0111 C   0  0  0  0  0  0  0  0  0  0  0  0
   -7.5583  -71.9363  -18.6820 N   0  0  0  0  0  0  0  0  0  0  0  0
   -8.7052  -71.3689  -19.2879 C   0  0  0  0  0  0  0  0  0  0  0  0
   -9.8551  -71.1976  -18.5120 C   0  0  0  0  0  0  0  0  0  0  0  0
  -11.0292  -70.7057  -19.0834 C   0  0  0  0  0  0  0  0  0  0  0  0
  -11.0723  -70.4077  -20.4437 C   0  0  0  0  0  0  0  0  0  0  0  0
   -9.9434  -70.6046  -21.2344 C   0  0  0  0  0  0  0  0  0  0  0  0
   -8.7712  -71.0970  -20.6608 C   0  0  0  0  0  0  0  0  0  0  0  0
   -5.8558  -70.3741  -19.4964 C   0  0  0  0  0  0  0  0  0  0  0  0
   -4.5256  -70.0684  -19.7664 C   0  0  0  0  0  0  0  0  0  0  0  0
   -1.0355  -71.4332  -19.9157 C   0  0  0  0  0  0  0  0  0  0  0  0
    0.3453  -70.5133  -20.3852 S   0  0  0  0  0  0  0  0  0  0  0  0
  1  2  1  0
  2  3  2  0
  3  4  1  0
  4  5  1  0
  5  6  2  0
  6  7  1  0
  7  8  2  0
  8  9  1  0
  9 10  1  0
 10 11  2  0
 11 12  1  0
 12 13  2  0
 13 14  1  0
 14 15  2  0
  8 16  1  0
 16 17  2  0
  4 18  2  0
 18 19  1  0
 19  2  1  0
 17  5  1  0
 15 10  1  0
M  END
>  <inchikey>  (39) 
GJMVTWFDMFYHEH-UHFFFAOYSA-N

>  <alias>  (39) 
None

>  <name>  (39) 
GJMVTWFDMFYHEH-UHFFFAOYSA-N

>  <original ID>  (39) 
GJMVTWFDMFYHEH-UHFFFAOYSA-N

>  <csv_name>  (39) 
thumb_site_2_fstein_bulkdock_input_split1000_batch000.csv

>  <fragmenstein_error>  (39) 
None

>  <fragmenstein_mode>  (39) 
expansion

>  <ref_pdb>  (39) 
d0249a

>  <exports>  (39) 
['/opt/xchem-fragalysis-2/maxwin/BulkDock/OUTPUTS/thumb_site_2_fstein_bulkdock_input_split1000_batch000_217914.sdf']

>  <SLURM_JOB_ID>  (39) 
217914

>  <HIPPO Pose ID>  (39) 
77593

>  <energy_score>  (39) 
-72.27355

>  <fragmenstein_runtime>  (39) 
3.021577

>  <original SMILES>  (39) 
Nc1nc(-c2ccc(Nc3ccccc3)cc2)cs1

>  <scratch_subdir>  (39) 
/opt/xchem-fragalysis-2/maxwin/BulkDock/SCRATCH/217914/C68642-P23

>  <HIPPO Compound ID>  (39) 
68642

>  <fragmenstein_outcome>  (39) 
acceptable

>  <SLURM_JOB_NAME>  (39) 
BulkDock.place:Flavi_NS5_RdRp:thumb_site_2_fstein_bulkdock_input_split1000_batch000

>  <distance_score>  (39) 
0.441985

>  <ref_mols>  (39) 
d0162a,d0249a

>  <tags>  (39) 
['Fragmenstein placed']

$$$$
77600
     RDKit          3D

 25 27  0  0  0  0  0  0  0  0999 V2000
  -14.8719  -69.1769  -22.2825 C   0  0  0  0  0  0  0  0  0  0  0  0
  -15.0143  -69.7458  -20.9488 N   0  0  0  0  0  0  0  0  0  0  0  0
  -13.6560  -69.9242  -19.9906 S   0  0  0  0  0  0  0  0  0  0  0  0
  -12.8780  -68.7156  -20.0779 O   0  0  0  0  0  0  0  0  0  0  0  0
  -14.1451  -70.4366  -18.7253 O   0  0  0  0  0  0  0  0  0  0  0  0
  -12.7899  -71.2400  -20.8304 C   0  0  0  0  0  0  0  0  0  0  0  0
  -11.4042  -71.6085  -20.2840 C   0  0  2  0  0  0  0  0  0  0  0  0
  -11.2713  -71.5835  -18.7575 C   0  0  0  0  0  0  0  0  0  0  0  0
   -9.9114  -72.1184  -18.3155 C   0  0  0  0  0  0  0  0  0  0  0  0
   -8.7283  -71.3973  -18.9899 C   0  0  1  0  0  0  0  0  0  0  0  0
   -7.5146  -72.1339  -18.6286 N   0  0  0  0  0  0  0  0  0  0  0  0
   -6.2285  -71.7250  -18.9692 C   0  0  0  0  0  0  0  0  0  0  0  0
   -5.1728  -72.6260  -18.7646 C   0  0  0  0  0  0  0  0  0  0  0  0
   -3.8436  -72.2843  -19.0471 C   0  0  0  0  0  0  0  0  0  0  0  0
   -3.5318  -71.0129  -19.5292 C   0  0  0  0  0  0  0  0  0  0  0  0
   -2.1690  -70.6144  -19.8567 C   0  0  0  0  0  0  0  0  0  0  0  0
   -1.1713  -71.4695  -20.2797 C   0  0  0  0  0  0  0  0  0  0  0  0
    0.2462  -70.5721  -20.6502 S   0  0  0  0  0  0  0  0  0  0  0  0
   -0.5571  -69.1277  -20.1891 C   0  0  0  0  0  0  0  0  0  0  0  0
    0.0469  -67.9320  -20.2215 N   0  0  0  0  0  0  0  0  0  0  0  0
   -1.7947  -69.2858  -19.7898 N   0  0  0  0  0  0  0  0  0  0  0  0
   -4.5727  -70.0901  -19.6844 C   0  0  0  0  0  0  0  0  0  0  0  0
   -5.8967  -70.4380  -19.3882 C   0  0  0  0  0  0  0  0  0  0  0  0
   -8.9162  -71.3368  -20.5109 C   0  0  0  0  0  0  0  0  0  0  0  0
  -10.2804  -70.7744  -20.9084 C   0  0  0  0  0  0  0  0  0  0  0  0
  1  2  1  0
  2  3  1  0
  3  4  2  0
  3  5  2  0
  3  6  1  0
  7  6  1  1
  7  8  1  0
  8  9  1  0
  9 10  1  0
 10 11  1  6
 11 12  1  0
 12 13  2  0
 13 14  1  0
 14 15  2  0
 15 16  1  0
 16 17  2  0
 17 18  1  0
 18 19  1  0
 19 20  1  0
 19 21  2  0
 15 22  1  0
 22 23  2  0
 10 24  1  0
 24 25  1  0
 25  7  1  0
 23 12  1  0
 21 16  1  0
M  END
>  <inchikey>  (40) 
QZORINOTGKHCOK-MQMHXKEQSA-N

>  <alias>  (40) 
None

>  <name>  (40) 
QZORINOTGKHCOK-MQMHXKEQSA-N

>  <original ID>  (40) 
QZORINOTGKHCOK-MQMHXKEQSA-N

>  <csv_name>  (40) 
thumb_site_2_fstein_bulkdock_input_split1000_batch000.csv

>  <fragmenstein_error>  (40) 
None

>  <fragmenstein_mode>  (40) 
expansion

>  <ref_pdb>  (40) 
d0162a

>  <exports>  (40) 
['/opt/xchem-fragalysis-2/maxwin/BulkDock/OUTPUTS/thumb_site_2_fstein_bulkdock_input_split1000_batch000_217914.sdf']

>  <SLURM_JOB_ID>  (40) 
217914

>  <HIPPO Pose ID>  (40) 
77600

>  <energy_score>  (40) 
-113.874625

>  <fragmenstein_runtime>  (40) 
7.083474

>  <original SMILES>  (40) 
CNS(=O)(=O)C[C@H]1CC[C@H](Nc2ccc(-c3csc(N)n3)cc2)CC1

>  <scratch_subdir>  (40) 
/opt/xchem-fragalysis-2/maxwin/BulkDock/SCRATCH/217914/C68645-P15

>  <HIPPO Compound ID>  (40) 
68645

>  <fragmenstein_outcome>  (40) 
acceptable

>  <SLURM_JOB_NAME>  (40) 
BulkDock.place:Flavi_NS5_RdRp:thumb_site_2_fstein_bulkdock_input_split1000_batch000

>  <distance_score>  (40) 
0.414885

>  <ref_mols>  (40) 
d0162a,d0283a

>  <tags>  (40) 
['Fragmenstein placed']

$$$$
77603
     RDKit          3D

 25 27  0  0  0  0  0  0  0  0999 V2000
  -14.8438  -69.1400  -22.5171 C   0  0  0  0  0  0  0  0  0  0  0  0
  -15.0098  -69.6769  -21.1699 N   0  0  0  0  0  0  0  0  0  0  0  0
  -13.6708  -69.8824  -20.1926 S   0  0  0  0  0  0  0  0  0  0  0  0
  -12.8956  -68.6700  -20.2353 O   0  0  0  0  0  0  0  0  0  0  0  0
  -14.1726  -70.4134  -18.9403 O   0  0  0  0  0  0  0  0  0  0  0  0
  -12.7910  -71.1862  -21.0362 C   0  0  0  0  0  0  0  0  0  0  0  0
  -11.4176  -71.5754  -20.4710 C   0  0  2  0  0  0  0  0  0  0  0  0
  -11.2907  -71.5357  -18.9441 C   0  0  0  0  0  0  0  0  0  0  0  0
   -9.9402  -72.0836  -18.4870 C   0  0  0  0  0  0  0  0  0  0  0  0
   -8.7462  -71.3864  -19.1674 C   0  0  1  0  0  0  0  0  0  0  0  0
   -7.5378  -72.1113  -18.7694 N   0  0  0  0  0  0  0  0  0  0  0  0
   -6.2467  -71.7072  -19.0953 C   0  0  0  0  0  0  0  0  0  0  0  0
   -5.1915  -72.5980  -18.8430 C   0  0  0  0  0  0  0  0  0  0  0  0
   -3.8588  -72.2636  -19.1181 C   0  0  0  0  0  0  0  0  0  0  0  0
   -3.5448  -71.0097  -19.6410 C   0  0  0  0  0  0  0  0  0  0  0  0
   -2.1787  -70.6193  -19.9607 C   0  0  0  0  0  0  0  0  0  0  0  0
   -1.2034  -71.4706  -20.4380 C   0  0  0  0  0  0  0  0  0  0  0  0
    0.2204  -70.5775  -20.7953 S   0  0  0  0  0  0  0  0  0  0  0  0
   -0.5459  -69.1443  -20.2424 C   0  0  0  0  0  0  0  0  0  0  0  0
    0.0854  -67.9603  -20.2162 N   0  0  0  0  0  0  0  0  0  0  0  0
   -1.7788  -69.3027  -19.8303 N   0  0  0  0  0  0  0  0  0  0  0  0
   -4.5849  -70.0953  -19.8450 C   0  0  0  0  0  0  0  0  0  0  0  0
   -5.9123  -70.4331  -19.5523 C   0  0  0  0  0  0  0  0  0  0  0  0
   -8.9225  -71.3653  -20.6915 C   0  0  0  0  0  0  0  0  0  0  0  0
  -10.2722  -70.7754  -21.1031 C   0  0  0  0  0  0  0  0  0  0  0  0
  1  2  1  0
  2  3  1  0
  3  4  2  0
  3  5  2  0
  3  6  1  0
  7  6  1  1
  7  8  1  0
  8  9  1  0
  9 10  1  0
 10 11  1  6
 11 12  1  0
 12 13  2  0
 13 14  1  0
 14 15  2  0
 15 16  1  0
 16 17  2  0
 17 18  1  0
 18 19  1  0
 19 20  1  0
 19 21  2  0
 15 22  1  0
 22 23  2  0
 10 24  1  0
 24 25  1  0
 25  7  1  0
 23 12  1  0
 21 16  1  0
M  END
>  <inchikey>  (41) 
QZORINOTGKHCOK-MQMHXKEQSA-N

>  <alias>  (41) 
None

>  <name>  (41) 
QZORINOTGKHCOK-MQMHXKEQSA-N

>  <original ID>  (41) 
QZORINOTGKHCOK-MQMHXKEQSA-N

>  <csv_name>  (41) 
thumb_site_2_fstein_bulkdock_input_split1000_batch000.csv

>  <fragmenstein_error>  (41) 
None

>  <fragmenstein_mode>  (41) 
expansion

>  <ref_pdb>  (41) 
d0283a

>  <exports>  (41) 
['/opt/xchem-fragalysis-2/maxwin/BulkDock/OUTPUTS/thumb_site_2_fstein_bulkdock_input_split1000_batch000_217914.sdf']

>  <SLURM_JOB_ID>  (41) 
217914

>  <HIPPO Pose ID>  (41) 
77603

>  <energy_score>  (41) 
-112.755951

>  <fragmenstein_runtime>  (41) 
7.082862

>  <original SMILES>  (41) 
CNS(=O)(=O)C[C@H]1CC[C@H](Nc2ccc(-c3csc(N)n3)cc2)CC1

>  <scratch_subdir>  (41) 
/opt/xchem-fragalysis-2/maxwin/BulkDock/SCRATCH/217914/C68645-P30

>  <HIPPO Compound ID>  (41) 
68645

>  <fragmenstein_outcome>  (41) 
acceptable

>  <SLURM_JOB_NAME>  (41) 
BulkDock.place:Flavi_NS5_RdRp:thumb_site_2_fstein_bulkdock_input_split1000_batch000

>  <distance_score>  (41) 
0.374327

>  <ref_mols>  (41) 
d0162a,d0283a

>  <tags>  (41) 
['Fragmenstein placed']

$$$$
77615
     RDKit          3D

 23 25  0  0  0  0  0  0  0  0999 V2000
   -0.0669  -68.1484  -20.1677 N   0  0  0  0  0  0  0  0  0  0  0  0
   -0.7272  -69.3115  -20.0625 C   0  0  0  0  0  0  0  0  0  0  0  0
   -1.9848  -69.3805  -19.7031 N   0  0  0  0  0  0  0  0  0  0  0  0
   -2.4340  -70.6903  -19.6998 C   0  0  0  0  0  0  0  0  0  0  0  0
   -3.8495  -70.9741  -19.4857 C   0  0  0  0  0  0  0  0  0  0  0  0
   -4.3305  -72.1297  -18.8572 C   0  0  0  0  0  0  0  0  0  0  0  0
   -5.7182  -72.3455  -18.7146 C   0  0  0  0  0  0  0  0  0  0  0  0
   -6.6349  -71.4206  -19.2223 C   0  0  0  0  0  0  0  0  0  0  0  0
   -8.0134  -71.6158  -19.0978 N   0  0  0  0  0  0  0  0  0  0  0  0
   -9.2170  -70.7849  -19.6743 C   0  0  0  0  0  0  0  0  0  0  0  0
   -9.2249  -69.8629  -20.3999 O   0  0  0  0  0  0  0  0  0  0  0  0
  -10.5199  -71.3227  -19.0197 C   0  0  0  0  0  0  0  0  0  0  0  0
  -11.6515  -71.4837  -19.9592 N   0  0  0  0  0  0  0  0  0  0  0  0
  -11.8679  -70.1876  -20.6008 O   0  0  0  0  0  0  0  0  0  0  0  0
  -13.1638  -69.8123  -20.5465 C   0  0  0  0  0  0  0  0  0  0  0  0
  -13.8511  -69.0314  -21.4921 C   0  0  0  0  0  0  0  0  0  0  0  0
  -15.1137  -68.7875  -21.1220 N   0  0  0  0  0  0  0  0  0  0  0  0
  -15.2062  -69.3646  -19.9140 N   0  0  0  0  0  0  0  0  0  0  0  0
  -14.0657  -70.0088  -19.5319 C   0  0  0  0  0  0  0  0  0  0  0  0
   -6.1533  -70.2755  -19.8440 C   0  0  0  0  0  0  0  0  0  0  0  0
   -4.7807  -70.0420  -19.9537 C   0  0  0  0  0  0  0  0  0  0  0  0
   -1.4643  -71.6262  -19.9943 C   0  0  0  0  0  0  0  0  0  0  0  0
    0.0154  -70.8283  -20.3707 S   0  0  0  0  0  0  0  0  0  0  0  0
  1  2  1  0
  2  3  2  0
  3  4  1  0
  4  5  1  0
  5  6  2  0
  6  7  1  0
  7  8  2  0
  8  9  1  0
  9 10  1  0
 10 11  2  0
 10 12  1  0
 12 13  1  0
 13 14  1  0
 14 15  1  0
 15 16  1  0
 16 17  2  0
 17 18  1  0
 18 19  1  0
  8 20  1  0
 20 21  2  0
  4 22  2  0
 22 23  1  0
 23  2  1  0
 21  5  1  0
 19 15  2  0
M  END
>  <inchikey>  (42) 
SBONPMYVUSUHBP-UHFFFAOYSA-N

>  <alias>  (42) 
None

>  <name>  (42) 
SBONPMYVUSUHBP-UHFFFAOYSA-N

>  <original ID>  (42) 
SBONPMYVUSUHBP-UHFFFAOYSA-N

>  <csv_name>  (42) 
thumb_site_2_fstein_bulkdock_input_split1000_batch000.csv

>  <fragmenstein_error>  (42) 
None

>  <fragmenstein_mode>  (42) 
expansion

>  <ref_pdb>  (42) 
d0162a

>  <exports>  (42) 
['/opt/xchem-fragalysis-2/maxwin/BulkDock/OUTPUTS/thumb_site_2_fstein_bulkdock_input_split1000_batch000_217914.sdf']

>  <SLURM_JOB_ID>  (42) 
217914

>  <HIPPO Pose ID>  (42) 
77615

>  <energy_score>  (42) 
-111.103851

>  <fragmenstein_runtime>  (42) 
4.104894

>  <original SMILES>  (42) 
Nc1nc(-c2ccc(NC(=O)CNOc3cn[nH]c3)cc2)cs1

>  <scratch_subdir>  (42) 
/opt/xchem-fragalysis-2/maxwin/BulkDock/SCRATCH/217914/C68648-P15

>  <HIPPO Compound ID>  (42) 
68648

>  <fragmenstein_outcome>  (42) 
acceptable

>  <SLURM_JOB_NAME>  (42) 
BulkDock.place:Flavi_NS5_RdRp:thumb_site_2_fstein_bulkdock_input_split1000_batch000

>  <distance_score>  (42) 
0.629493

>  <ref_mols>  (42) 
d0162a,d0414a

>  <tags>  (42) 
['Fragmenstein placed']

$$$$
77620
     RDKit          3D

 23 25  0  0  0  0  0  0  0  0999 V2000
   -2.3840  -72.8755  -17.1950 C   0  0  0  0  0  0  0  0  0  0  0  0
   -2.7762  -73.1565  -18.5425 O   0  0  0  0  0  0  0  0  0  0  0  0
   -3.7552  -72.2807  -18.9382 C   0  0  0  0  0  0  0  0  0  0  0  0
   -5.0789  -72.6999  -18.7860 C   0  0  0  0  0  0  0  0  0  0  0  0
   -6.1560  -71.8749  -19.1606 C   0  0  0  0  0  0  0  0  0  0  0  0
   -7.5611  -72.4048  -19.0025 N   0  0  1  0  0  4  0  0  0  0  0  0
   -7.6525  -73.5986  -19.6189 O   0  0  0  0  0  1  0  0  0  0  0  0
   -7.7745  -72.7080  -17.6421 O   0  0  0  0  0  0  0  0  0  0  0  0
   -8.5933  -71.4972  -19.4879 N   0  0  0  0  0  0  0  0  0  0  0  0
   -9.8064  -71.4183  -18.6826 C   0  0  0  0  0  0  0  0  0  0  0  0
  -10.8129  -70.7455  -19.6174 C   0  0  0  0  0  0  0  0  0  0  0  0
  -10.1253  -70.7165  -20.9833 C   0  0  0  0  0  0  0  0  0  0  0  0
   -9.0456  -71.7743  -20.8419 C   0  0  2  0  0  0  0  0  0  0  0  0
   -9.6609  -73.0437  -20.9860 O   0  0  0  0  0  0  0  0  0  0  0  0
   -5.8622  -70.5988  -19.6625 C   0  0  0  0  0  0  0  0  0  0  0  0
   -4.5326  -70.1942  -19.8463 C   0  0  0  0  0  0  0  0  0  0  0  0
   -3.4620  -71.0448  -19.5244 C   0  0  0  0  0  0  0  0  0  0  0  0
   -2.1076  -70.6102  -19.8415 C   0  0  0  0  0  0  0  0  0  0  0  0
   -1.1098  -71.4361  -20.3196 C   0  0  0  0  0  0  0  0  0  0  0  0
    0.2908  -70.5130  -20.6745 S   0  0  0  0  0  0  0  0  0  0  0  0
   -0.5262  -69.0937  -20.1624 C   0  0  0  0  0  0  0  0  0  0  0  0
    0.0634  -67.8906  -20.1847 N   0  0  0  0  0  0  0  0  0  0  0  0
   -1.7539  -69.2783  -19.7397 N   0  0  0  0  0  0  0  0  0  0  0  0
  1  2  1  0
  2  3  1  0
  3  4  2  0
  4  5  1  0
  5  6  1  0
  6  7  1  6
  6  8  1  0
  6  9  1  0
  9 10  1  0
 10 11  1  0
 11 12  1  0
 12 13  1  0
 13 14  1  1
  5 15  2  0
 15 16  1  0
 16 17  2  0
 17 18  1  0
 18 19  2  0
 19 20  1  0
 20 21  1  0
 21 22  1  0
 21 23  2  0
 17  3  1  0
 23 18  1  0
 13  9  1  0
M  CHG  2   6   1   7  -1
M  END
>  <inchikey>  (43) 
MACBGQMXTMGLTB-ZDUSSCGKSA-N

>  <alias>  (43) 
None

>  <name>  (43) 
MACBGQMXTMGLTB-ZDUSSCGKSA-N

>  <original ID>  (43) 
MACBGQMXTMGLTB-ZDUSSCGKSA-N

>  <csv_name>  (43) 
thumb_site_2_fstein_bulkdock_input_split1000_batch000.csv

>  <fragmenstein_error>  (43) 
None

>  <fragmenstein_mode>  (43) 
expansion

>  <ref_pdb>  (43) 
d0162a

>  <exports>  (43) 
['/opt/xchem-fragalysis-2/maxwin/BulkDock/OUTPUTS/thumb_site_2_fstein_bulkdock_input_split1000_batch000_217914.sdf']

>  <SLURM_JOB_ID>  (43) 
217914

>  <HIPPO Pose ID>  (43) 
77620

>  <energy_score>  (43) 
-142.286662

>  <fragmenstein_runtime>  (43) 
4.768731

>  <original SMILES>  (43) 
COc1cc([N@@+]([O-])(O)N2CCC[C@@H]2O)ccc1-c1csc(N)n1

>  <scratch_subdir>  (43) 
/opt/xchem-fragalysis-2/maxwin/BulkDock/SCRATCH/217914/C68649-P15

>  <HIPPO Compound ID>  (43) 
68649

>  <fragmenstein_outcome>  (43) 
acceptable

>  <SLURM_JOB_NAME>  (43) 
BulkDock.place:Flavi_NS5_RdRp:thumb_site_2_fstein_bulkdock_input_split1000_batch000

>  <distance_score>  (43) 
0.69449

>  <ref_mols>  (43) 
d0162a,d0503a

>  <tags>  (43) 
['Fragmenstein placed']

$$$$
77623
     RDKit          3D

 23 25  0  0  0  0  0  0  0  0999 V2000
   -3.0636  -74.5077  -18.2608 C   0  0  0  0  0  0  0  0  0  0  0  0
   -2.7707  -73.2549  -18.8670 O   0  0  0  0  0  0  0  0  0  0  0  0
   -3.8099  -72.3972  -19.1201 C   0  0  0  0  0  0  0  0  0  0  0  0
   -5.1542  -72.7596  -18.9852 C   0  0  0  0  0  0  0  0  0  0  0  0
   -6.2025  -71.8480  -19.2304 C   0  0  0  0  0  0  0  0  0  0  0  0
   -7.6241  -72.3353  -19.0982 N   0  0  1  0  0  4  0  0  0  0  0  0
   -7.7693  -73.4865  -19.7811 O   0  0  0  0  0  1  0  0  0  0  0  0
   -7.8416  -72.7048  -17.7544 O   0  0  0  0  0  0  0  0  0  0  0  0
   -8.6294  -71.3697  -19.5129 N   0  0  0  0  0  0  0  0  0  0  0  0
   -9.9348  -71.5217  -18.8809 C   0  0  0  0  0  0  0  0  0  0  0  0
  -10.8517  -70.6699  -19.7566 C   0  0  0  0  0  0  0  0  0  0  0  0
  -10.0213  -70.3410  -20.9976 C   0  0  0  0  0  0  0  0  0  0  0  0
   -8.8898  -71.3522  -20.9457 C   0  0  2  0  0  0  0  0  0  0  0  0
   -9.3835  -72.5759  -21.4580 O   0  0  0  0  0  0  0  0  0  0  0  0
   -5.8712  -70.5319  -19.5706 C   0  0  0  0  0  0  0  0  0  0  0  0
   -4.5346  -70.1646  -19.7335 C   0  0  0  0  0  0  0  0  0  0  0  0
   -3.4937  -71.0929  -19.5423 C   0  0  0  0  0  0  0  0  0  0  0  0
   -2.1316  -70.6382  -19.8109 C   0  0  0  0  0  0  0  0  0  0  0  0
   -1.1156  -71.4256  -20.3148 C   0  0  0  0  0  0  0  0  0  0  0  0
    0.2875  -70.4798  -20.5690 S   0  0  0  0  0  0  0  0  0  0  0  0
   -0.5587  -69.0929  -20.0178 C   0  0  0  0  0  0  0  0  0  0  0  0
    0.0250  -67.8839  -19.9606 N   0  0  0  0  0  0  0  0  0  0  0  0
   -1.7956  -69.3053  -19.6477 N   0  0  0  0  0  0  0  0  0  0  0  0
  1  2  1  0
  2  3  1  0
  3  4  2  0
  4  5  1  0
  5  6  1  0
  6  7  1  6
  6  8  1  0
  6  9  1  0
  9 10  1  0
 10 11  1  0
 11 12  1  0
 12 13  1  0
 13 14  1  1
  5 15  2  0
 15 16  1  0
 16 17  2  0
 17 18  1  0
 18 19  2  0
 19 20  1  0
 20 21  1  0
 21 22  1  0
 21 23  2  0
 17  3  1  0
 23 18  1  0
 13  9  1  0
M  CHG  2   6   1   7  -1
M  END
>  <inchikey>  (44) 
MACBGQMXTMGLTB-ZDUSSCGKSA-N

>  <alias>  (44) 
None

>  <name>  (44) 
MACBGQMXTMGLTB-ZDUSSCGKSA-N

>  <original ID>  (44) 
MACBGQMXTMGLTB-ZDUSSCGKSA-N

>  <csv_name>  (44) 
thumb_site_2_fstein_bulkdock_input_split1000_batch000.csv

>  <fragmenstein_error>  (44) 
None

>  <fragmenstein_mode>  (44) 
expansion

>  <ref_pdb>  (44) 
d0503a

>  <exports>  (44) 
['/opt/xchem-fragalysis-2/maxwin/BulkDock/OUTPUTS/thumb_site_2_fstein_bulkdock_input_split1000_batch000_217914.sdf']

>  <SLURM_JOB_ID>  (44) 
217914

>  <HIPPO Pose ID>  (44) 
77623

>  <energy_score>  (44) 
-141.804763

>  <fragmenstein_runtime>  (44) 
3.897122

>  <original SMILES>  (44) 
COc1cc([N@@+]([O-])(O)N2CCC[C@@H]2O)ccc1-c1csc(N)n1

>  <scratch_subdir>  (44) 
/opt/xchem-fragalysis-2/maxwin/BulkDock/SCRATCH/217914/C68649-P44

>  <HIPPO Compound ID>  (44) 
68649

>  <fragmenstein_outcome>  (44) 
acceptable

>  <SLURM_JOB_NAME>  (44) 
BulkDock.place:Flavi_NS5_RdRp:thumb_site_2_fstein_bulkdock_input_split1000_batch000

>  <distance_score>  (44) 
0.666472

>  <ref_mols>  (44) 
d0162a,d0503a

>  <tags>  (44) 
['Fragmenstein placed']

$$$$
77629
     RDKit          3D

 25 27  0  0  0  0  0  0  0  0999 V2000
   -9.8324  -74.9433  -17.0266 C   0  0  0  0  0  0  0  0  0  0  0  0
   -9.6723  -73.7360  -16.2152 N   0  0  0  0  0  0  0  0  0  0  0  0
   -8.4279  -72.6737  -16.6643 S   0  0  0  0  0  0  0  0  0  0  0  0
   -8.2998  -71.7713  -15.5401 O   0  0  0  0  0  0  0  0  0  0  0  0
   -7.3322  -73.5002  -17.1037 O   0  0  0  0  0  0  0  0  0  0  0  0
   -9.2038  -71.7375  -17.9458 C   0  0  0  0  0  0  0  0  0  0  0  0
  -10.3782  -71.0516  -17.5782 C   0  0  0  0  0  0  0  0  0  0  0  0
  -11.1490  -70.4079  -18.5402 C   0  0  0  0  0  0  0  0  0  0  0  0
  -10.7573  -70.4427  -19.8726 C   0  0  0  0  0  0  0  0  0  0  0  0
   -9.5785  -71.1002  -20.2216 C   0  0  0  0  0  0  0  0  0  0  0  0
   -9.2012  -71.1861  -21.5343 O   0  0  0  0  0  0  0  0  0  0  0  0
   -8.7694  -71.7441  -19.2689 C   0  0  0  0  0  0  0  0  0  0  0  0
   -7.5804  -72.3759  -19.7062 N   0  0  0  0  0  0  0  0  0  0  0  0
   -6.2674  -71.8634  -19.5085 C   0  0  0  0  0  0  0  0  0  0  0  0
   -5.2288  -72.7814  -19.3219 C   0  0  0  0  0  0  0  0  0  0  0  0
   -3.8908  -72.3801  -19.3596 C   0  0  0  0  0  0  0  0  0  0  0  0
   -3.5596  -71.0507  -19.6364 C   0  0  0  0  0  0  0  0  0  0  0  0
   -2.1771  -70.6287  -19.8521 C   0  0  0  0  0  0  0  0  0  0  0  0
   -1.1472  -71.4728  -20.2220 C   0  0  0  0  0  0  0  0  0  0  0  0
    0.2731  -70.5644  -20.5418 S   0  0  0  0  0  0  0  0  0  0  0  0
   -0.5676  -69.1270  -20.1319 C   0  0  0  0  0  0  0  0  0  0  0  0
    0.0274  -67.9259  -20.1695 N   0  0  0  0  0  0  0  0  0  0  0  0
   -1.8173  -69.2952  -19.7725 N   0  0  0  0  0  0  0  0  0  0  0  0
   -4.6027  -70.1218  -19.7835 C   0  0  0  0  0  0  0  0  0  0  0  0
   -5.9446  -70.5233  -19.7202 C   0  0  0  0  0  0  0  0  0  0  0  0
  1  2  1  0
  2  3  1  0
  3  4  2  0
  3  5  2  0
  3  6  1  0
  6  7  2  0
  7  8  1  0
  8  9  2  0
  9 10  1  0
 10 11  1  0
 10 12  2  0
 12 13  1  0
 13 14  1  0
 14 15  2  0
 15 16  1  0
 16 17  2  0
 17 18  1  0
 18 19  2  0
 19 20  1  0
 20 21  1  0
 21 22  1  0
 21 23  2  0
 17 24  1  0
 24 25  2  0
 12  6  1  0
 25 14  1  0
 23 18  1  0
M  END
>  <inchikey>  (45) 
VZGLIUWDWUIXMI-UHFFFAOYSA-N

>  <alias>  (45) 
None

>  <name>  (45) 
VZGLIUWDWUIXMI-UHFFFAOYSA-N

>  <original ID>  (45) 
VZGLIUWDWUIXMI-UHFFFAOYSA-N

>  <csv_name>  (45) 
thumb_site_2_fstein_bulkdock_input_split1000_batch000.csv

>  <fragmenstein_error>  (45) 
None

>  <fragmenstein_mode>  (45) 
expansion

>  <ref_pdb>  (45) 
d0162a

>  <exports>  (45) 
['/opt/xchem-fragalysis-2/maxwin/BulkDock/OUTPUTS/thumb_site_2_fstein_bulkdock_input_split1000_batch000_217914.sdf']

>  <SLURM_JOB_ID>  (45) 
217914

>  <HIPPO Pose ID>  (45) 
77629

>  <energy_score>  (45) 
-107.748041

>  <fragmenstein_runtime>  (45) 
7.787161

>  <original SMILES>  (45) 
CNS(=O)(=O)c1cccc(O)c1Nc1ccc(-c2csc(N)n2)cc1

>  <scratch_subdir>  (45) 
/opt/xchem-fragalysis-2/maxwin/BulkDock/SCRATCH/217914/C68651-P15

>  <HIPPO Compound ID>  (45) 
68651

>  <fragmenstein_outcome>  (45) 
acceptable

>  <SLURM_JOB_NAME>  (45) 
BulkDock.place:Flavi_NS5_RdRp:thumb_site_2_fstein_bulkdock_input_split1000_batch000

>  <distance_score>  (45) 
0.804819

>  <ref_mols>  (45) 
d0162a,d0567a

>  <tags>  (45) 
['Fragmenstein placed']

$$$$
77633
     RDKit          3D

 25 27  0  0  0  0  0  0  0  0999 V2000
  -10.2909  -74.7844  -16.8633 C   0  0  0  0  0  0  0  0  0  0  0  0
   -9.8407  -73.5841  -16.1558 N   0  0  0  0  0  0  0  0  0  0  0  0
   -8.5161  -72.7545  -16.8217 S   0  0  0  0  0  0  0  0  0  0  0  0
   -8.1107  -71.8313  -15.7841 O   0  0  0  0  0  0  0  0  0  0  0  0
   -7.6365  -73.7760  -17.3345 O   0  0  0  0  0  0  0  0  0  0  0  0
   -9.2833  -71.7709  -18.0714 C   0  0  0  0  0  0  0  0  0  0  0  0
  -10.4511  -71.0798  -17.7001 C   0  0  0  0  0  0  0  0  0  0  0  0
  -11.1747  -70.3661  -18.6498 C   0  0  0  0  0  0  0  0  0  0  0  0
  -10.7284  -70.3199  -19.9678 C   0  0  0  0  0  0  0  0  0  0  0  0
   -9.5493  -70.9760  -20.3189 C   0  0  0  0  0  0  0  0  0  0  0  0
   -9.0876  -70.9411  -21.6091 O   0  0  0  0  0  0  0  0  0  0  0  0
   -8.8122  -71.7208  -19.3830 C   0  0  0  0  0  0  0  0  0  0  0  0
   -7.6273  -72.3677  -19.8094 N   0  0  0  0  0  0  0  0  0  0  0  0
   -6.3169  -71.8756  -19.5699 C   0  0  0  0  0  0  0  0  0  0  0  0
   -5.3011  -72.8030  -19.3253 C   0  0  0  0  0  0  0  0  0  0  0  0
   -3.9612  -72.4117  -19.2926 C   0  0  0  0  0  0  0  0  0  0  0  0
   -3.6072  -71.0833  -19.5463 C   0  0  0  0  0  0  0  0  0  0  0  0
   -2.2163  -70.6477  -19.6229 C   0  0  0  0  0  0  0  0  0  0  0  0
   -1.1098  -71.4724  -19.5504 C   0  0  0  0  0  0  0  0  0  0  0  0
    0.3259  -70.5440  -19.6982 S   0  0  0  0  0  0  0  0  0  0  0  0
   -0.6248  -69.1256  -19.8442 C   0  0  0  0  0  0  0  0  0  0  0  0
   -0.0674  -67.9128  -19.9591 N   0  0  0  0  0  0  0  0  0  0  0  0
   -1.9174  -69.3112  -19.8096 N   0  0  0  0  0  0  0  0  0  0  0  0
   -4.6325  -70.1495  -19.7705 C   0  0  0  0  0  0  0  0  0  0  0  0
   -5.9740  -70.5418  -19.7835 C   0  0  0  0  0  0  0  0  0  0  0  0
  1  2  1  0
  2  3  1  0
  3  4  2  0
  3  5  2  0
  3  6  1  0
  6  7  2  0
  7  8  1  0
  8  9  2  0
  9 10  1  0
 10 11  1  0
 10 12  2  0
 12 13  1  0
 13 14  1  0
 14 15  2  0
 15 16  1  0
 16 17  2  0
 17 18  1  0
 18 19  2  0
 19 20  1  0
 20 21  1  0
 21 22  1  0
 21 23  2  0
 17 24  1  0
 24 25  2  0
 12  6  1  0
 25 14  1  0
 23 18  1  0
M  END
>  <inchikey>  (46) 
VZGLIUWDWUIXMI-UHFFFAOYSA-N

>  <alias>  (46) 
None

>  <name>  (46) 
VZGLIUWDWUIXMI-UHFFFAOYSA-N

>  <original ID>  (46) 
VZGLIUWDWUIXMI-UHFFFAOYSA-N

>  <csv_name>  (46) 
thumb_site_2_fstein_bulkdock_input_split1000_batch000.csv

>  <fragmenstein_error>  (46) 
None

>  <fragmenstein_mode>  (46) 
expansion

>  <ref_pdb>  (46) 
d0567a

>  <exports>  (46) 
['/opt/xchem-fragalysis-2/maxwin/BulkDock/OUTPUTS/thumb_site_2_fstein_bulkdock_input_split1000_batch000_217914.sdf']

>  <SLURM_JOB_ID>  (46) 
217914

>  <HIPPO Pose ID>  (46) 
77633

>  <energy_score>  (46) 
-109.325185

>  <fragmenstein_runtime>  (46) 
7.503169

>  <original SMILES>  (46) 
CNS(=O)(=O)c1cccc(O)c1Nc1ccc(-c2csc(N)n2)cc1

>  <scratch_subdir>  (46) 
/opt/xchem-fragalysis-2/maxwin/BulkDock/SCRATCH/217914/C68651-P46

>  <HIPPO Compound ID>  (46) 
68651

>  <fragmenstein_outcome>  (46) 
acceptable

>  <SLURM_JOB_NAME>  (46) 
BulkDock.place:Flavi_NS5_RdRp:thumb_site_2_fstein_bulkdock_input_split1000_batch000

>  <distance_score>  (46) 
0.846834

>  <ref_mols>  (46) 
d0162a,d0567a

>  <tags>  (46) 
['Fragmenstein placed']

$$$$
77637
     RDKit          3D

 21 23  0  0  0  0  0  0  0  0999 V2000
   -7.8110  -73.9105  -19.8160 C   0  0  0  0  0  0  0  0  0  0  0  0
   -7.7203  -72.5511  -19.0649 C   0  0  0  0  0  0  0  0  0  0  0  0
   -7.9505  -72.8518  -17.5666 C   0  0  0  0  0  0  0  0  0  0  0  0
   -6.2904  -71.9772  -19.2045 C   0  0  0  0  0  0  0  0  0  0  0  0
   -5.1775  -72.7746  -18.8645 C   0  0  0  0  0  0  0  0  0  0  0  0
   -3.8625  -72.3258  -19.0319 C   0  0  0  0  0  0  0  0  0  0  0  0
   -3.6082  -71.0564  -19.5487 C   0  0  0  0  0  0  0  0  0  0  0  0
   -2.2549  -70.5856  -19.8360 C   0  0  0  0  0  0  0  0  0  0  0  0
   -1.1216  -71.3747  -19.8851 C   0  0  0  0  0  0  0  0  0  0  0  0
    0.2338  -70.4311  -20.3620 S   0  0  0  0  0  0  0  0  0  0  0  0
   -0.7792  -69.0526  -20.4699 C   0  0  0  0  0  0  0  0  0  0  0  0
   -0.3262  -67.8556  -20.8635 N   0  0  0  0  0  0  0  0  0  0  0  0
   -2.0294  -69.2567  -20.1389 N   0  0  0  0  0  0  0  0  0  0  0  0
   -4.7060  -70.2307  -19.8327 C   0  0  0  0  0  0  0  0  0  0  0  0
   -6.0250  -70.6805  -19.6632 C   0  0  0  0  0  0  0  0  0  0  0  0
   -8.8442  -71.6704  -19.6586 C   0  0  0  0  0  0  0  0  0  0  0  0
   -9.8283  -71.0712  -18.8865 C   0  0  0  0  0  0  0  0  0  0  0  0
  -10.8198  -70.3827  -19.5550 C   0  0  0  0  0  0  0  0  0  0  0  0
  -10.8645  -70.2460  -20.8882 N   0  0  0  0  0  0  0  0  0  0  0  0
   -9.8679  -70.8367  -21.5546 C   0  0  0  0  0  0  0  0  0  0  0  0
   -8.8667  -71.5454  -21.0074 N   0  0  0  0  0  0  0  0  0  0  0  0
  1  2  1  0
  2  3  1  0
  2  4  1  0
  4  5  2  0
  5  6  1  0
  6  7  2  0
  7  8  1  0
  8  9  2  0
  9 10  1  0
 10 11  1  0
 11 12  1  0
 11 13  2  0
  7 14  1  0
 14 15  2  0
  2 16  1  0
 16 17  2  0
 17 18  1  0
 18 19  2  0
 19 20  1  0
 20 21  2  0
 15  4  1  0
 21 16  1  0
 13  8  1  0
M  END
>  <inchikey>  (47) 
KSQGPIONHDAEBN-UHFFFAOYSA-N

>  <alias>  (47) 
None

>  <name>  (47) 
KSQGPIONHDAEBN-UHFFFAOYSA-N

>  <original ID>  (47) 
KSQGPIONHDAEBN-UHFFFAOYSA-N

>  <csv_name>  (47) 
thumb_site_2_fstein_bulkdock_input_split1000_batch000.csv

>  <fragmenstein_error>  (47) 
None

>  <fragmenstein_mode>  (47) 
expansion

>  <ref_pdb>  (47) 
d0162a

>  <exports>  (47) 
['/opt/xchem-fragalysis-2/maxwin/BulkDock/OUTPUTS/thumb_site_2_fstein_bulkdock_input_split1000_batch000_217914.sdf']

>  <SLURM_JOB_ID>  (47) 
217914

>  <HIPPO Pose ID>  (47) 
77637

>  <energy_score>  (47) 
-64.726353

>  <fragmenstein_runtime>  (47) 
2.682051

>  <original SMILES>  (47) 
CC(C)(c1ccc(-c2csc(N)n2)cc1)c1ccncn1

>  <scratch_subdir>  (47) 
/opt/xchem-fragalysis-2/maxwin/BulkDock/SCRATCH/217914/C68652-P15

>  <HIPPO Compound ID>  (47) 
68652

>  <fragmenstein_outcome>  (47) 
acceptable

>  <SLURM_JOB_NAME>  (47) 
BulkDock.place:Flavi_NS5_RdRp:thumb_site_2_fstein_bulkdock_input_split1000_batch000

>  <distance_score>  (47) 
0.506309

>  <ref_mols>  (47) 
d0162a,d0587a

>  <tags>  (47) 
['Fragmenstein placed']

$$$$
77638
     RDKit          3D

 21 23  0  0  0  0  0  0  0  0999 V2000
   -7.8640  -73.9271  -19.8286 C   0  0  0  0  0  0  0  0  0  0  0  0
   -7.7724  -72.5433  -19.1280 C   0  0  0  0  0  0  0  0  0  0  0  0
   -8.0086  -72.7790  -17.6201 C   0  0  0  0  0  0  0  0  0  0  0  0
   -6.3466  -71.9642  -19.2678 C   0  0  0  0  0  0  0  0  0  0  0  0
   -5.2216  -72.7563  -18.9592 C   0  0  0  0  0  0  0  0  0  0  0  0
   -3.9170  -72.2747  -19.1102 C   0  0  0  0  0  0  0  0  0  0  0  0
   -3.6963  -70.9790  -19.5733 C   0  0  0  0  0  0  0  0  0  0  0  0
   -2.3647  -70.4479  -19.8295 C   0  0  0  0  0  0  0  0  0  0  0  0
   -1.1996  -71.1823  -19.9289 C   0  0  0  0  0  0  0  0  0  0  0  0
    0.1005  -70.1486  -20.3749 S   0  0  0  0  0  0  0  0  0  0  0  0
   -0.9803  -68.8168  -20.3999 C   0  0  0  0  0  0  0  0  0  0  0  0
   -0.6199  -67.5770  -20.7470 N   0  0  0  0  0  0  0  0  0  0  0  0
   -2.2077  -69.0972  -20.0550 N   0  0  0  0  0  0  0  0  0  0  0  0
   -4.8080  -70.1651  -19.8329 C   0  0  0  0  0  0  0  0  0  0  0  0
   -6.1104  -70.6457  -19.6792 C   0  0  0  0  0  0  0  0  0  0  0  0
   -8.8739  -71.6762  -19.7791 C   0  0  0  0  0  0  0  0  0  0  0  0
   -9.9003  -71.0859  -19.0580 C   0  0  0  0  0  0  0  0  0  0  0  0
  -10.8323  -70.3641  -19.7739 C   0  0  0  0  0  0  0  0  0  0  0  0
  -10.7854  -70.1958  -21.1045 N   0  0  0  0  0  0  0  0  0  0  0  0
   -9.7543  -70.7854  -21.7195 C   0  0  0  0  0  0  0  0  0  0  0  0
   -8.8041  -71.5238  -21.1256 N   0  0  0  0  0  0  0  0  0  0  0  0
  1  2  1  0
  2  3  1  0
  2  4  1  0
  4  5  2  0
  5  6  1  0
  6  7  2  0
  7  8  1  0
  8  9  2  0
  9 10  1  0
 10 11  1  0
 11 12  1  0
 11 13  2  0
  7 14  1  0
 14 15  2  0
  2 16  1  0
 16 17  2  0
 17 18  1  0
 18 19  2  0
 19 20  1  0
 20 21  2  0
 15  4  1  0
 21 16  1  0
 13  8  1  0
M  END
>  <inchikey>  (48) 
KSQGPIONHDAEBN-UHFFFAOYSA-N

>  <alias>  (48) 
None

>  <name>  (48) 
KSQGPIONHDAEBN-UHFFFAOYSA-N

>  <original ID>  (48) 
KSQGPIONHDAEBN-UHFFFAOYSA-N

>  <csv_name>  (48) 
thumb_site_2_fstein_bulkdock_input_split1000_batch000.csv

>  <fragmenstein_error>  (48) 
None

>  <fragmenstein_mode>  (48) 
expansion

>  <ref_pdb>  (48) 
d0587a

>  <exports>  (48) 
['/opt/xchem-fragalysis-2/maxwin/BulkDock/OUTPUTS/thumb_site_2_fstein_bulkdock_input_split1000_batch000_217914.sdf']

>  <SLURM_JOB_ID>  (48) 
217914

>  <HIPPO Pose ID>  (48) 
77638

>  <energy_score>  (48) 
-63.527725

>  <fragmenstein_runtime>  (48) 
2.930734

>  <original SMILES>  (48) 
CC(C)(c1ccc(-c2csc(N)n2)cc1)c1ccncn1

>  <scratch_subdir>  (48) 
/opt/xchem-fragalysis-2/maxwin/BulkDock/SCRATCH/217914/C68652-P48

>  <HIPPO Compound ID>  (48) 
68652

>  <fragmenstein_outcome>  (48) 
acceptable

>  <SLURM_JOB_NAME>  (48) 
BulkDock.place:Flavi_NS5_RdRp:thumb_site_2_fstein_bulkdock_input_split1000_batch000

>  <distance_score>  (48) 
0.550933

>  <ref_mols>  (48) 
d0162a,d0587a

>  <tags>  (48) 
['Fragmenstein placed']

$$$$
77640
     RDKit          3D

 24 27  0  0  0  0  0  0  0  0999 V2000
   -9.4329  -72.1880  -18.2791 C   0  0  0  0  0  0  0  0  0  0  0  0
   -8.8939  -71.8321  -19.6603 C   0  0  2  0  0  0  0  0  0  0  0  0
   -8.4131  -73.0043  -20.2764 O   0  0  0  0  0  0  0  0  0  0  0  0
   -7.8238  -70.8653  -19.5302 N   0  0  0  0  0  0  0  0  0  0  0  0
   -6.4536  -71.0405  -19.4363 C   0  0  0  0  0  0  0  0  0  0  0  0
   -5.7974  -72.1120  -18.8016 C   0  0  0  0  0  0  0  0  0  0  0  0
   -4.3868  -72.2109  -18.7742 C   0  0  0  0  0  0  0  0  0  0  0  0
   -3.6522  -71.2366  -19.4185 C   0  0  0  0  0  0  0  0  0  0  0  0
   -4.2815  -70.1699  -20.0806 C   0  0  0  0  0  0  0  0  0  0  0  0
   -5.6604  -70.0692  -20.0616 C   0  0  0  0  0  0  0  0  0  0  0  0
   -3.3271  -69.2220  -20.8065 C   0  0  0  0  0  0  0  0  0  0  0  0
   -2.0529  -69.8048  -20.2982 C   0  0  0  0  0  0  0  0  0  0  0  0
   -2.2526  -70.9996  -19.5611 C   0  0  0  0  0  0  0  0  0  0  0  0
   -1.0997  -71.5918  -19.1444 C   0  0  0  0  0  0  0  0  0  0  0  0
    0.2562  -70.6384  -19.6551 S   0  0  0  0  0  0  0  0  0  0  0  0
   -0.7409  -69.4229  -20.3583 C   0  0  0  0  0  0  0  0  0  0  0  0
   -0.2582  -68.2755  -20.8772 N   0  0  0  0  0  0  0  0  0  0  0  0
   -9.9636  -71.2636  -20.5865 C   0  0  0  0  0  0  0  0  0  0  0  0
  -11.0933  -70.5810  -20.1345 C   0  0  0  0  0  0  0  0  0  0  0  0
  -12.0515  -70.0532  -20.9398 N   0  0  0  0  0  0  0  0  0  0  0  0
  -11.8718  -70.1861  -22.2743 C   0  0  0  0  0  0  0  0  0  0  0  0
  -10.7749  -70.8130  -22.8269 C   0  0  0  0  0  0  0  0  0  0  0  0
  -10.5962  -70.8563  -24.1520 F   0  0  0  0  0  0  0  0  0  0  0  0
   -9.8295  -71.3691  -21.9812 C   0  0  0  0  0  0  0  0  0  0  0  0
  2  1  1  1
  2  3  1  0
  2  4  1  0
  4  5  1  0
  5  6  2  0
  6  7  1  0
  7  8  2  0
  8  9  1  0
  9 10  2  0
  9 11  1  0
 11 12  1  0
 12 13  1  0
 13 14  2  0
 14 15  1  0
 15 16  1  0
 16 17  1  0
  2 18  1  0
 18 19  2  0
 19 20  1  0
 20 21  2  0
 21 22  1  0
 22 23  1  0
 22 24  2  0
 10  5  1  0
 16 12  2  0
 24 18  1  0
 13  8  1  0
M  END
>  <inchikey>  (49) 
HJBOJDHUEBMGIW-GOSISDBHSA-N

>  <alias>  (49) 
None

>  <name>  (49) 
HJBOJDHUEBMGIW-GOSISDBHSA-N

>  <original ID>  (49) 
HJBOJDHUEBMGIW-GOSISDBHSA-N

>  <csv_name>  (49) 
thumb_site_2_fstein_bulkdock_input_split1000_batch000.csv

>  <fragmenstein_error>  (49) 
None

>  <fragmenstein_mode>  (49) 
expansion

>  <ref_pdb>  (49) 
d0162a

>  <exports>  (49) 
['/opt/xchem-fragalysis-2/maxwin/BulkDock/OUTPUTS/thumb_site_2_fstein_bulkdock_input_split1000_batch000_217914.sdf']

>  <SLURM_JOB_ID>  (49) 
217914

>  <HIPPO Pose ID>  (49) 
77640

>  <energy_score>  (49) 
-61.414188

>  <fragmenstein_runtime>  (49) 
2.467009

>  <original SMILES>  (49) 
C[C@](O)(Nc1ccc2c(c1)Cc1c-2csc1N)c1cncc(F)c1

>  <scratch_subdir>  (49) 
/opt/xchem-fragalysis-2/maxwin/BulkDock/SCRATCH/217914/C68653-P15

>  <HIPPO Compound ID>  (49) 
68653

>  <fragmenstein_outcome>  (49) 
acceptable

>  <SLURM_JOB_NAME>  (49) 
BulkDock.place:Flavi_NS5_RdRp:thumb_site_2_fstein_bulkdock_input_split1000_batch000

>  <distance_score>  (49) 
0.898737

>  <ref_mols>  (49) 
d0162a,d0615a

>  <tags>  (49) 
['Fragmenstein placed']

$$$$
77641
     RDKit          3D

 24 27  0  0  0  0  0  0  0  0999 V2000
   -9.4024  -71.9270  -18.3032 C   0  0  0  0  0  0  0  0  0  0  0  0
   -8.9139  -71.7346  -19.7341 C   0  0  2  0  0  0  0  0  0  0  0  0
   -8.5434  -72.9816  -20.2706 O   0  0  0  0  0  0  0  0  0  0  0  0
   -7.7725  -70.8562  -19.7490 N   0  0  0  0  0  0  0  0  0  0  0  0
   -6.4272  -71.0536  -19.5345 C   0  0  0  0  0  0  0  0  0  0  0  0
   -5.8294  -72.2272  -19.0399 C   0  0  0  0  0  0  0  0  0  0  0  0
   -4.4294  -72.3740  -18.9706 C   0  0  0  0  0  0  0  0  0  0  0  0
   -3.6466  -71.3329  -19.4233 C   0  0  0  0  0  0  0  0  0  0  0  0
   -4.2091  -70.1462  -19.9181 C   0  0  0  0  0  0  0  0  0  0  0  0
   -5.5828  -70.0181  -19.9634 C   0  0  0  0  0  0  0  0  0  0  0  0
   -3.1918  -69.1020  -20.3806 C   0  0  0  0  0  0  0  0  0  0  0  0
   -1.9588  -69.8334  -19.9549 C   0  0  0  0  0  0  0  0  0  0  0  0
   -2.2385  -71.1358  -19.4666 C   0  0  0  0  0  0  0  0  0  0  0  0
   -1.1424  -71.8551  -19.1014 C   0  0  0  0  0  0  0  0  0  0  0  0
    0.2708  -70.8862  -19.3148 S   0  0  0  0  0  0  0  0  0  0  0  0
   -0.6354  -69.5119  -19.8277 C   0  0  0  0  0  0  0  0  0  0  0  0
   -0.0491  -68.3127  -20.0159 N   0  0  0  0  0  0  0  0  0  0  0  0
   -9.9594  -71.1737  -20.6850 C   0  0  0  0  0  0  0  0  0  0  0  0
  -11.2014  -70.6858  -20.2781 C   0  0  0  0  0  0  0  0  0  0  0  0
  -12.1564  -70.2099  -21.1173 N   0  0  0  0  0  0  0  0  0  0  0  0
  -11.8664  -70.2220  -22.4387 C   0  0  0  0  0  0  0  0  0  0  0  0
  -10.6584  -70.6594  -22.9442 C   0  0  0  0  0  0  0  0  0  0  0  0
  -10.3996  -70.6048  -24.2552 F   0  0  0  0  0  0  0  0  0  0  0  0
   -9.6967  -71.1281  -22.0662 C   0  0  0  0  0  0  0  0  0  0  0  0
  2  1  1  1
  2  3  1  0
  2  4  1  0
  4  5  1  0
  5  6  2  0
  6  7  1  0
  7  8  2  0
  8  9  1  0
  9 10  2  0
  9 11  1  0
 11 12  1  0
 12 13  1  0
 13 14  2  0
 14 15  1  0
 15 16  1  0
 16 17  1  0
  2 18  1  0
 18 19  2  0
 19 20  1  0
 20 21  2  0
 21 22  1  0
 22 23  1  0
 22 24  2  0
 10  5  1  0
 16 12  2  0
 24 18  1  0
 13  8  1  0
M  END
>  <inchikey>  (50) 
HJBOJDHUEBMGIW-GOSISDBHSA-N

>  <alias>  (50) 
None

>  <name>  (50) 
HJBOJDHUEBMGIW-GOSISDBHSA-N

>  <original ID>  (50) 
HJBOJDHUEBMGIW-GOSISDBHSA-N

>  <csv_name>  (50) 
thumb_site_2_fstein_bulkdock_input_split1000_batch000.csv

>  <fragmenstein_error>  (50) 
None

>  <fragmenstein_mode>  (50) 
expansion

>  <ref_pdb>  (50) 
d0615a

>  <exports>  (50) 
['/opt/xchem-fragalysis-2/maxwin/BulkDock/OUTPUTS/thumb_site_2_fstein_bulkdock_input_split1000_batch000_217914.sdf']

>  <SLURM_JOB_ID>  (50) 
217914

>  <HIPPO Pose ID>  (50) 
77641

>  <energy_score>  (50) 
-63.334601

>  <fragmenstein_runtime>  (50) 
2.5187

>  <original SMILES>  (50) 
C[C@](O)(Nc1ccc2c(c1)Cc1c-2csc1N)c1cncc(F)c1

>  <scratch_subdir>  (50) 
/opt/xchem-fragalysis-2/maxwin/BulkDock/SCRATCH/217914/C68653-P50

>  <HIPPO Compound ID>  (50) 
68653

>  <fragmenstein_outcome>  (50) 
acceptable

>  <SLURM_JOB_NAME>  (50) 
BulkDock.place:Flavi_NS5_RdRp:thumb_site_2_fstein_bulkdock_input_split1000_batch000

>  <distance_score>  (50) 
0.907563

>  <ref_mols>  (50) 
d0162a,d0615a

>  <tags>  (50) 
['Fragmenstein placed']

$$$$
77655
     RDKit          3D

 28 31  0  0  0  0  0  0  0  0999 V2000
  -12.4673  -69.3870  -24.5450 N   0  0  0  0  0  0  0  0  0  0  0  0
  -12.4574  -69.7438  -23.2496 C   0  0  0  0  0  0  0  0  0  0  0  0
  -11.3766  -70.1879  -22.6698 N   0  0  0  0  0  0  0  0  0  0  0  0
  -11.6028  -70.4149  -21.3222 C   0  0  0  0  0  0  0  0  0  0  0  0
  -10.5140  -70.9102  -20.4943 C   0  0  0  0  0  0  0  0  0  0  0  0
   -9.4197  -71.4983  -21.1368 C   0  0  0  0  0  0  0  0  0  0  0  0
   -8.3247  -71.9756  -20.4197 C   0  0  0  0  0  0  0  0  0  0  0  0
   -8.2684  -71.8462  -19.0350 C   0  0  0  0  0  0  0  0  0  0  0  0
   -7.1577  -72.2334  -18.2725 N   0  0  0  0  0  0  0  0  0  0  0  0
   -7.3176  -73.6352  -17.7833 C   0  0  0  0  0  0  0  0  0  0  0  0
   -6.1976  -74.0908  -16.8047 C   0  0  0  0  0  0  0  0  0  0  0  0
   -5.1265  -74.4059  -17.1777 O   0  0  0  0  0  0  0  0  0  0  0  0
   -6.7540  -73.9804  -15.3960 N   0  0  0  0  0  0  0  0  0  0  0  0
   -7.3827  -75.3012  -14.9437 C   0  0  0  0  0  0  0  0  0  0  0  0
   -8.4544  -75.2003  -13.8464 C   0  0  0  0  0  0  0  0  0  0  0  0
   -7.8392  -74.9060  -12.5992 O   0  0  0  0  0  0  0  0  0  0  0  0
   -6.9191  -73.8378  -12.8073 C   0  0  0  0  0  0  0  0  0  0  0  0
   -6.0722  -74.1418  -14.0481 C   0  0  0  0  0  0  0  0  0  0  0  0
   -5.7942  -71.8189  -18.7075 C   0  0  0  0  0  0  0  0  0  0  0  0
   -5.6968  -70.3444  -19.1657 C   0  0  0  0  0  0  0  0  0  0  0  0
   -4.3864  -70.0470  -19.9053 C   0  0  0  0  0  0  0  0  0  0  0  0
   -3.2511  -70.9580  -19.4621 C   0  0  0  0  0  0  0  0  0  0  0  0
   -3.5835  -72.4325  -19.7172 C   0  0  0  0  0  0  0  0  0  0  0  0
   -5.0922  -72.7199  -19.7283 C   0  0  0  0  0  0  0  0  0  0  0  0
   -9.3832  -71.2905  -18.3853 C   0  0  0  0  0  0  0  0  0  0  0  0
  -10.4960  -70.8238  -19.1021 C   0  0  0  0  0  0  0  0  0  0  0  0
  -12.8851  -70.1323  -20.8981 C   0  0  0  0  0  0  0  0  0  0  0  0
  -13.8167  -69.5552  -22.2231 S   0  0  0  0  0  0  0  0  0  0  0  0
  1  2  1  0
  2  3  2  0
  3  4  1  0
  4  5  1  0
  5  6  2  0
  6  7  1  0
  7  8  2  0
  8  9  1  0
  9 10  1  0
 10 11  1  0
 11 12  2  0
 11 13  1  0
 13 14  1  0
 14 15  1  0
 15 16  1  0
 16 17  1  0
 17 18  1  0
  9 19  1  0
 19 20  1  0
 20 21  1  0
 21 22  1  0
 22 23  1  0
 23 24  1  0
  8 25  1  0
 25 26  2  0
  4 27  2  0
 27 28  1  0
 28  2  1  0
 26  5  1  0
 18 13  1  0
 24 19  1  0
M  END
>  <inchikey>  (51) 
MQVROZJOLUQYFG-UHFFFAOYSA-N

>  <alias>  (51) 
None

>  <name>  (51) 
MQVROZJOLUQYFG-UHFFFAOYSA-N

>  <original ID>  (51) 
MQVROZJOLUQYFG-UHFFFAOYSA-N

>  <csv_name>  (51) 
thumb_site_2_fstein_bulkdock_input_split1000_batch000.csv

>  <fragmenstein_error>  (51) 
None

>  <fragmenstein_mode>  (51) 
expansion

>  <ref_pdb>  (51) 
d0162a

>  <exports>  (51) 
['/opt/xchem-fragalysis-2/maxwin/BulkDock/OUTPUTS/thumb_site_2_fstein_bulkdock_input_split1000_batch000_217914.sdf']

>  <SLURM_JOB_ID>  (51) 
217914

>  <HIPPO Pose ID>  (51) 
77655

>  <energy_score>  (51) 
-167.191929

>  <fragmenstein_runtime>  (51) 
31.356249

>  <original SMILES>  (51) 
Nc1nc(-c2ccc(N(CC(=O)N3CCOCC3)C3CCCCC3)cc2)cs1

>  <scratch_subdir>  (51) 
/opt/xchem-fragalysis-2/maxwin/BulkDock/SCRATCH/217914/C68657-P15

>  <HIPPO Compound ID>  (51) 
68657

>  <fragmenstein_outcome>  (51) 
acceptable

>  <SLURM_JOB_NAME>  (51) 
BulkDock.place:Flavi_NS5_RdRp:thumb_site_2_fstein_bulkdock_input_split1000_batch000

>  <distance_score>  (51) 
0.883148

>  <ref_mols>  (51) 
d0162a,d0771a

>  <tags>  (51) 
['Fragmenstein placed']

$$$$
77664
     RDKit          3D

 28 31  0  0  0  0  0  0  0  0999 V2000
  -12.5816  -69.2531  -24.8395 N   0  0  0  0  0  0  0  0  0  0  0  0
  -12.5467  -69.6293  -23.5504 C   0  0  0  0  0  0  0  0  0  0  0  0
  -11.4381  -70.0069  -22.9731 N   0  0  0  0  0  0  0  0  0  0  0  0
  -11.6605  -70.3069  -21.6400 C   0  0  0  0  0  0  0  0  0  0  0  0
  -10.5673  -70.8151  -20.8258 C   0  0  0  0  0  0  0  0  0  0  0  0
   -9.5131  -71.4661  -21.4754 C   0  0  0  0  0  0  0  0  0  0  0  0
   -8.4645  -72.0275  -20.7540 C   0  0  0  0  0  0  0  0  0  0  0  0
   -8.4017  -71.9041  -19.3645 C   0  0  0  0  0  0  0  0  0  0  0  0
   -7.2875  -72.4599  -18.7038 N   0  0  0  0  0  0  0  0  0  0  0  0
   -7.6989  -73.2124  -17.4899 C   0  0  0  0  0  0  0  0  0  0  0  0
   -6.7753  -74.3997  -17.1215 C   0  0  0  0  0  0  0  0  0  0  0  0
   -6.2262  -75.0922  -17.8984 O   0  0  0  0  0  0  0  0  0  0  0  0
   -6.7043  -74.3764  -15.5972 N   0  0  0  0  0  0  0  0  0  0  0  0
   -7.7630  -75.2942  -14.9798 C   0  0  0  0  0  0  0  0  0  0  0  0
   -8.1985  -74.9469  -13.5509 C   0  0  0  0  0  0  0  0  0  0  0  0
   -7.1714  -75.2927  -12.6349 O   0  0  0  0  0  0  0  0  0  0  0  0
   -5.9478  -74.7778  -13.1514 C   0  0  0  0  0  0  0  0  0  0  0  0
   -5.8323  -75.1649  -14.6372 C   0  0  0  0  0  0  0  0  0  0  0  0
   -6.0969  -71.5529  -18.5823 C   0  0  0  0  0  0  0  0  0  0  0  0
   -5.9200  -70.5788  -19.7718 C   0  0  0  0  0  0  0  0  0  0  0  0
   -4.6598  -69.7268  -19.6656 C   0  0  0  0  0  0  0  0  0  0  0  0
   -3.4202  -70.5997  -19.5702 C   0  0  0  0  0  0  0  0  0  0  0  0
   -3.5304  -71.5512  -18.3922 C   0  0  0  0  0  0  0  0  0  0  0  0
   -4.8065  -72.3866  -18.4350 C   0  0  0  0  0  0  0  0  0  0  0  0
   -9.4442  -71.2260  -18.7132 C   0  0  0  0  0  0  0  0  0  0  0  0
  -10.5264  -70.6984  -19.4341 C   0  0  0  0  0  0  0  0  0  0  0  0
  -12.9593  -70.1140  -21.2146 C   0  0  0  0  0  0  0  0  0  0  0  0
  -13.9205  -69.5600  -22.5276 S   0  0  0  0  0  0  0  0  0  0  0  0
  1  2  1  0
  2  3  2  0
  3  4  1  0
  4  5  1  0
  5  6  2  0
  6  7  1  0
  7  8  2  0
  8  9  1  0
  9 10  1  0
 10 11  1  0
 11 12  2  0
 11 13  1  0
 13 14  1  0
 14 15  1  0
 15 16  1  0
 16 17  1  0
 17 18  1  0
  9 19  1  0
 19 20  1  0
 20 21  1  0
 21 22  1  0
 22 23  1  0
 23 24  1  0
  8 25  1  0
 25 26  2  0
  4 27  2  0
 27 28  1  0
 28  2  1  0
 26  5  1  0
 18 13  1  0
 24 19  1  0
M  END
>  <inchikey>  (52) 
MQVROZJOLUQYFG-UHFFFAOYSA-N

>  <alias>  (52) 
None

>  <name>  (52) 
MQVROZJOLUQYFG-UHFFFAOYSA-N

>  <original ID>  (52) 
MQVROZJOLUQYFG-UHFFFAOYSA-N

>  <csv_name>  (52) 
thumb_site_2_fstein_bulkdock_input_split1000_batch000.csv

>  <fragmenstein_error>  (52) 
None

>  <fragmenstein_mode>  (52) 
expansion

>  <ref_pdb>  (52) 
d0771a

>  <exports>  (52) 
['/opt/xchem-fragalysis-2/maxwin/BulkDock/OUTPUTS/thumb_site_2_fstein_bulkdock_input_split1000_batch000_217914.sdf']

>  <SLURM_JOB_ID>  (52) 
217914

>  <HIPPO Pose ID>  (52) 
77664

>  <energy_score>  (52) 
-170.938928

>  <fragmenstein_runtime>  (52) 
31.647022

>  <original SMILES>  (52) 
Nc1nc(-c2ccc(N(CC(=O)N3CCOCC3)C3CCCCC3)cc2)cs1

>  <scratch_subdir>  (52) 
/opt/xchem-fragalysis-2/maxwin/BulkDock/SCRATCH/217914/C68657-P57

>  <HIPPO Compound ID>  (52) 
68657

>  <fragmenstein_outcome>  (52) 
acceptable

>  <SLURM_JOB_NAME>  (52) 
BulkDock.place:Flavi_NS5_RdRp:thumb_site_2_fstein_bulkdock_input_split1000_batch000

>  <distance_score>  (52) 
0.869463

>  <ref_mols>  (52) 
d0162a,d0771a

>  <tags>  (52) 
['Fragmenstein placed']

$$$$
77668
     RDKit          3D

 26 28  0  0  0  0  0  0  0  0999 V2000
  -14.3419  -71.3876  -24.1802 C   0  0  0  0  0  0  0  0  0  0  0  0
  -13.9616  -70.1212  -23.4205 C   0  0  1  0  0  0  0  0  0  0  0  0
  -15.1517  -69.4851  -22.8484 N   0  0  0  0  0  0  0  0  0  0  0  0
  -12.9136  -70.3991  -22.3686 C   0  0  0  0  0  0  0  0  0  0  0  0
  -11.5664  -70.3534  -22.7349 C   0  0  0  0  0  0  0  0  0  0  0  0
  -10.5637  -70.5512  -21.7878 C   0  0  0  0  0  0  0  0  0  0  0  0
  -10.8784  -70.8758  -20.4641 C   0  0  0  0  0  0  0  0  0  0  0  0
   -9.8019  -71.1026  -19.4262 C   0  0  0  0  0  0  0  0  0  0  0  0
   -8.6629  -72.0279  -19.8416 C   0  0  0  0  0  0  0  0  0  0  0  0
   -8.4841  -72.3693  -21.0142 O   0  0  0  0  0  0  0  0  0  0  0  0
   -7.6663  -72.4891  -18.7731 C   0  0  2  0  0  0  0  0  0  0  0  0
   -8.1339  -72.2940  -17.3336 C   0  0  0  0  0  0  0  0  0  0  0  0
   -6.2634  -71.9362  -18.9758 C   0  0  0  0  0  0  0  0  0  0  0  0
   -5.1653  -72.7308  -18.6075 C   0  0  0  0  0  0  0  0  0  0  0  0
   -3.8519  -72.3032  -18.8310 C   0  0  0  0  0  0  0  0  0  0  0  0
   -3.6008  -71.0664  -19.4298 C   0  0  0  0  0  0  0  0  0  0  0  0
   -2.2516  -70.6127  -19.7583 C   0  0  0  0  0  0  0  0  0  0  0  0
   -1.1309  -71.4156  -19.8454 C   0  0  0  0  0  0  0  0  0  0  0  0
    0.2205  -70.4846  -20.3587 S   0  0  0  0  0  0  0  0  0  0  0  0
   -0.7793  -69.0938  -20.4324 C   0  0  0  0  0  0  0  0  0  0  0  0
   -0.3261  -67.9016  -20.8387 N   0  0  0  0  0  0  0  0  0  0  0  0
   -2.0208  -69.2845  -20.0625 N   0  0  0  0  0  0  0  0  0  0  0  0
   -4.6967  -70.2495  -19.7502 C   0  0  0  0  0  0  0  0  0  0  0  0
   -6.0120  -70.6746  -19.5262 C   0  0  0  0  0  0  0  0  0  0  0  0
  -12.2293  -70.9520  -20.1005 C   0  0  0  0  0  0  0  0  0  0  0  0
  -13.2345  -70.7195  -21.0428 C   0  0  0  0  0  0  0  0  0  0  0  0
  2  1  1  1
  2  3  1  0
  2  4  1  0
  4  5  2  0
  5  6  1  0
  6  7  2  0
  7  8  1  0
  8  9  1  0
  9 10  2  0
  9 11  1  0
 11 12  1  1
 11 13  1  0
 13 14  2  0
 14 15  1  0
 15 16  2  0
 16 17  1  0
 17 18  2  0
 18 19  1  0
 19 20  1  0
 20 21  1  0
 20 22  2  0
 16 23  1  0
 23 24  2  0
  7 25  1  0
 25 26  2  0
 26  4  1  0
 24 13  1  0
 22 17  1  0
M  END
>  <inchikey>  (53) 
JSRWLLFBPHZAOI-ZIAGYGMSSA-N

>  <alias>  (53) 
None

>  <name>  (53) 
JSRWLLFBPHZAOI-ZIAGYGMSSA-N

>  <original ID>  (53) 
JSRWLLFBPHZAOI-ZIAGYGMSSA-N

>  <csv_name>  (53) 
thumb_site_2_fstein_bulkdock_input_split1000_batch000.csv

>  <fragmenstein_error>  (53) 
None

>  <fragmenstein_mode>  (53) 
expansion

>  <ref_pdb>  (53) 
d0162a

>  <exports>  (53) 
['/opt/xchem-fragalysis-2/maxwin/BulkDock/OUTPUTS/thumb_site_2_fstein_bulkdock_input_split1000_batch000_217914.sdf']

>  <SLURM_JOB_ID>  (53) 
217914

>  <HIPPO Pose ID>  (53) 
77668

>  <energy_score>  (53) 
-92.500456

>  <fragmenstein_runtime>  (53) 
4.248464

>  <original SMILES>  (53) 
C[C@@H](N)c1ccc(CC(=O)[C@H](C)c2ccc(-c3csc(N)n3)cc2)cc1

>  <scratch_subdir>  (53) 
/opt/xchem-fragalysis-2/maxwin/BulkDock/SCRATCH/217914/C68659-P15

>  <HIPPO Compound ID>  (53) 
68659

>  <fragmenstein_outcome>  (53) 
acceptable

>  <SLURM_JOB_NAME>  (53) 
BulkDock.place:Flavi_NS5_RdRp:thumb_site_2_fstein_bulkdock_input_split1000_batch000

>  <distance_score>  (53) 
0.51668

>  <ref_mols>  (53) 
d0162a,d0843a

>  <tags>  (53) 
['Fragmenstein placed']

$$$$
77670
     RDKit          3D

 26 28  0  0  0  0  0  0  0  0999 V2000
  -14.3021  -71.2674  -24.3046 C   0  0  0  0  0  0  0  0  0  0  0  0
  -13.8966  -70.0006  -23.5591 C   0  0  1  0  0  0  0  0  0  0  0  0
  -15.0793  -69.3277  -23.0153 N   0  0  0  0  0  0  0  0  0  0  0  0
  -12.8731  -70.2967  -22.4879 C   0  0  0  0  0  0  0  0  0  0  0  0
  -11.5153  -70.2744  -22.8233 C   0  0  0  0  0  0  0  0  0  0  0  0
  -10.5372  -70.4886  -21.8545 C   0  0  0  0  0  0  0  0  0  0  0  0
  -10.8932  -70.8099  -20.5399 C   0  0  0  0  0  0  0  0  0  0  0  0
   -9.8562  -71.0425  -19.4667 C   0  0  0  0  0  0  0  0  0  0  0  0
   -8.6874  -71.9433  -19.8413 C   0  0  0  0  0  0  0  0  0  0  0  0
   -8.4768  -72.3074  -21.0013 O   0  0  0  0  0  0  0  0  0  0  0  0
   -7.7175  -72.3670  -18.7336 C   0  0  2  0  0  0  0  0  0  0  0  0
   -8.1418  -71.9780  -17.3182 C   0  0  0  0  0  0  0  0  0  0  0  0
   -6.2869  -71.9199  -18.9887 C   0  0  0  0  0  0  0  0  0  0  0  0
   -5.2434  -72.7622  -18.5781 C   0  0  0  0  0  0  0  0  0  0  0  0
   -3.9100  -72.4056  -18.7818 C   0  0  0  0  0  0  0  0  0  0  0  0
   -3.5833  -71.1963  -19.4036 C   0  0  0  0  0  0  0  0  0  0  0  0
   -2.1959  -70.7989  -19.6096 C   0  0  0  0  0  0  0  0  0  0  0  0
   -1.1255  -71.6714  -19.6610 C   0  0  0  0  0  0  0  0  0  0  0  0
    0.3380  -70.7933  -19.8139 S   0  0  0  0  0  0  0  0  0  0  0  0
   -0.5593  -69.3333  -19.8474 C   0  0  0  0  0  0  0  0  0  0  0  0
    0.0534  -68.1431  -19.9332 N   0  0  0  0  0  0  0  0  0  0  0  0
   -1.8569  -69.4660  -19.7511 N   0  0  0  0  0  0  0  0  0  0  0  0
   -4.6233  -70.3421  -19.7973 C   0  0  0  0  0  0  0  0  0  0  0  0
   -5.9621  -70.6973  -19.5914 C   0  0  0  0  0  0  0  0  0  0  0  0
  -12.2538  -70.8656  -20.2080 C   0  0  0  0  0  0  0  0  0  0  0  0
  -13.2319  -70.6148  -21.1715 C   0  0  0  0  0  0  0  0  0  0  0  0
  2  1  1  1
  2  3  1  0
  2  4  1  0
  4  5  2  0
  5  6  1  0
  6  7  2  0
  7  8  1  0
  8  9  1  0
  9 10  2  0
  9 11  1  0
 11 12  1  1
 11 13  1  0
 13 14  2  0
 14 15  1  0
 15 16  2  0
 16 17  1  0
 17 18  2  0
 18 19  1  0
 19 20  1  0
 20 21  1  0
 20 22  2  0
 16 23  1  0
 23 24  2  0
  7 25  1  0
 25 26  2  0
 26  4  1  0
 24 13  1  0
 22 17  1  0
M  END
>  <inchikey>  (54) 
JSRWLLFBPHZAOI-ZIAGYGMSSA-N

>  <alias>  (54) 
None

>  <name>  (54) 
JSRWLLFBPHZAOI-ZIAGYGMSSA-N

>  <original ID>  (54) 
JSRWLLFBPHZAOI-ZIAGYGMSSA-N

>  <csv_name>  (54) 
thumb_site_2_fstein_bulkdock_input_split1000_batch000.csv

>  <fragmenstein_error>  (54) 
None

>  <fragmenstein_mode>  (54) 
expansion

>  <ref_pdb>  (54) 
d0843a

>  <exports>  (54) 
['/opt/xchem-fragalysis-2/maxwin/BulkDock/OUTPUTS/thumb_site_2_fstein_bulkdock_input_split1000_batch000_217914.sdf']

>  <SLURM_JOB_ID>  (54) 
217914

>  <HIPPO Pose ID>  (54) 
77670

>  <energy_score>  (54) 
-91.693206

>  <fragmenstein_runtime>  (54) 
4.274779

>  <original SMILES>  (54) 
C[C@@H](N)c1ccc(CC(=O)[C@H](C)c2ccc(-c3csc(N)n3)cc2)cc1

>  <scratch_subdir>  (54) 
/opt/xchem-fragalysis-2/maxwin/BulkDock/SCRATCH/217914/C68659-P65

>  <HIPPO Compound ID>  (54) 
68659

>  <fragmenstein_outcome>  (54) 
acceptable

>  <SLURM_JOB_NAME>  (54) 
BulkDock.place:Flavi_NS5_RdRp:thumb_site_2_fstein_bulkdock_input_split1000_batch000

>  <distance_score>  (54) 
0.525961

>  <ref_mols>  (54) 
d0162a,d0843a

>  <tags>  (54) 
['Fragmenstein placed']

$$$$
77672
     RDKit          3D

 20 22  0  0  0  0  0  0  0  0999 V2000
   -0.3063  -67.8713  -20.8485 N   0  0  0  0  0  0  0  0  0  0  0  0
   -0.7588  -69.0657  -20.4460 C   0  0  0  0  0  0  0  0  0  0  0  0
   -2.0096  -69.2654  -20.1170 N   0  0  0  0  0  0  0  0  0  0  0  0
   -2.2378  -70.5900  -19.7975 C   0  0  0  0  0  0  0  0  0  0  0  0
   -3.5942  -71.0475  -19.5056 C   0  0  0  0  0  0  0  0  0  0  0  0
   -3.8654  -72.3072  -18.9698 C   0  0  0  0  0  0  0  0  0  0  0  0
   -5.1889  -72.7321  -18.7893 C   0  0  0  0  0  0  0  0  0  0  0  0
   -6.2853  -71.9242  -19.1448 C   0  0  0  0  0  0  0  0  0  0  0  0
   -7.6317  -72.4045  -19.0102 N   0  0  0  0  0  0  0  0  0  0  0  0
   -7.7613  -73.8239  -19.0437 N   0  0  0  0  0  0  0  0  0  0  0  0
   -8.7670  -71.7422  -19.5664 C   0  0  0  0  0  0  0  0  0  0  0  0
   -9.7420  -71.2063  -18.7165 C   0  0  0  0  0  0  0  0  0  0  0  0
  -10.8756  -70.5859  -19.2447 C   0  0  0  0  0  0  0  0  0  0  0  0
  -11.0416  -70.4927  -20.6262 C   0  0  0  0  0  0  0  0  0  0  0  0
  -10.0812  -71.0272  -21.4818 C   0  0  0  0  0  0  0  0  0  0  0  0
   -8.9574  -71.6629  -20.9523 C   0  0  0  0  0  0  0  0  0  0  0  0
   -6.0014  -70.6341  -19.6120 C   0  0  0  0  0  0  0  0  0  0  0  0
   -4.6790  -70.2065  -19.7955 C   0  0  0  0  0  0  0  0  0  0  0  0
   -1.1070  -71.3824  -19.8356 C   0  0  0  0  0  0  0  0  0  0  0  0
    0.2506  -70.4458  -20.3240 S   0  0  0  0  0  0  0  0  0  0  0  0
  1  2  1  0
  2  3  2  0
  3  4  1  0
  4  5  1  0
  5  6  2  0
  6  7  1  0
  7  8  2  0
  8  9  1  0
  9 10  1  0
  9 11  1  0
 11 12  2  0
 12 13  1  0
 13 14  2  0
 14 15  1  0
 15 16  2  0
  8 17  1  0
 17 18  2  0
  4 19  2  0
 19 20  1  0
 20  2  1  0
 18  5  1  0
 16 11  1  0
M  END
>  <inchikey>  (55) 
VPYKNYUMCPMOGH-UHFFFAOYSA-N

>  <alias>  (55) 
None

>  <name>  (55) 
VPYKNYUMCPMOGH-UHFFFAOYSA-N

>  <original ID>  (55) 
VPYKNYUMCPMOGH-UHFFFAOYSA-N

>  <csv_name>  (55) 
thumb_site_2_fstein_bulkdock_input_split1000_batch000.csv

>  <fragmenstein_error>  (55) 
None

>  <fragmenstein_mode>  (55) 
expansion

>  <ref_pdb>  (55) 
d0162a

>  <exports>  (55) 
['/opt/xchem-fragalysis-2/maxwin/BulkDock/OUTPUTS/thumb_site_2_fstein_bulkdock_input_split1000_batch000_217914.sdf']

>  <SLURM_JOB_ID>  (55) 
217914

>  <HIPPO Pose ID>  (55) 
77672

>  <energy_score>  (55) 
-70.145946

>  <fragmenstein_runtime>  (55) 
3.540234

>  <original SMILES>  (55) 
Nc1nc(-c2ccc(N(N)c3ccccc3)cc2)cs1

>  <scratch_subdir>  (55) 
/opt/xchem-fragalysis-2/maxwin/BulkDock/SCRATCH/217914/C68660-P15

>  <HIPPO Compound ID>  (55) 
68660

>  <fragmenstein_outcome>  (55) 
acceptable

>  <SLURM_JOB_NAME>  (55) 
BulkDock.place:Flavi_NS5_RdRp:thumb_site_2_fstein_bulkdock_input_split1000_batch000

>  <distance_score>  (55) 
0.430746

>  <ref_mols>  (55) 
d0162a,d1149a

>  <tags>  (55) 
['Fragmenstein placed']

$$$$
77673
     RDKit          3D

 20 22  0  0  0  0  0  0  0  0999 V2000
   -0.0770  -68.0490  -20.1634 N   0  0  0  0  0  0  0  0  0  0  0  0
   -0.6786  -69.2487  -20.1544 C   0  0  0  0  0  0  0  0  0  0  0  0
   -1.9191  -69.4230  -19.7708 N   0  0  0  0  0  0  0  0  0  0  0  0
   -2.2736  -70.7545  -19.8557 C   0  0  0  0  0  0  0  0  0  0  0  0
   -3.6331  -71.1937  -19.5652 C   0  0  0  0  0  0  0  0  0  0  0  0
   -3.9034  -72.4881  -19.1207 C   0  0  0  0  0  0  0  0  0  0  0  0
   -5.2242  -72.9170  -18.9416 C   0  0  0  0  0  0  0  0  0  0  0  0
   -6.3247  -72.0807  -19.2092 C   0  0  0  0  0  0  0  0  0  0  0  0
   -7.6714  -72.5676  -19.0788 N   0  0  0  0  0  0  0  0  0  0  0  0
   -7.7895  -73.9871  -19.0123 N   0  0  0  0  0  0  0  0  0  0  0  0
   -8.8476  -71.9541  -19.6111 C   0  0  0  0  0  0  0  0  0  0  0  0
  -10.0290  -71.9251  -18.8541 C   0  0  0  0  0  0  0  0  0  0  0  0
  -11.1956  -71.3464  -19.3632 C   0  0  0  0  0  0  0  0  0  0  0  0
  -11.2021  -70.8026  -20.6446 C   0  0  0  0  0  0  0  0  0  0  0  0
  -10.0516  -70.8607  -21.4236 C   0  0  0  0  0  0  0  0  0  0  0  0
   -8.8896  -71.4428  -20.9107 C   0  0  0  0  0  0  0  0  0  0  0  0
   -6.0336  -70.7562  -19.5683 C   0  0  0  0  0  0  0  0  0  0  0  0
   -4.7103  -70.3192  -19.7520 C   0  0  0  0  0  0  0  0  0  0  0  0
   -1.2596  -71.5905  -20.2830 C   0  0  0  0  0  0  0  0  0  0  0  0
    0.1481  -70.6747  -20.6290 S   0  0  0  0  0  0  0  0  0  0  0  0
  1  2  1  0
  2  3  2  0
  3  4  1  0
  4  5  1  0
  5  6  2  0
  6  7  1  0
  7  8  2  0
  8  9  1  0
  9 10  1  0
  9 11  1  0
 11 12  2  0
 12 13  1  0
 13 14  2  0
 14 15  1  0
 15 16  2  0
  8 17  1  0
 17 18  2  0
  4 19  2  0
 19 20  1  0
 20  2  1  0
 18  5  1  0
 16 11  1  0
M  END
>  <inchikey>  (56) 
VPYKNYUMCPMOGH-UHFFFAOYSA-N

>  <alias>  (56) 
None

>  <name>  (56) 
VPYKNYUMCPMOGH-UHFFFAOYSA-N

>  <original ID>  (56) 
VPYKNYUMCPMOGH-UHFFFAOYSA-N

>  <csv_name>  (56) 
thumb_site_2_fstein_bulkdock_input_split1000_batch000.csv

>  <fragmenstein_error>  (56) 
None

>  <fragmenstein_mode>  (56) 
expansion

>  <ref_pdb>  (56) 
d1149a

>  <exports>  (56) 
['/opt/xchem-fragalysis-2/maxwin/BulkDock/OUTPUTS/thumb_site_2_fstein_bulkdock_input_split1000_batch000_217914.sdf']

>  <SLURM_JOB_ID>  (56) 
217914

>  <HIPPO Pose ID>  (56) 
77673

>  <energy_score>  (56) 
-69.470096

>  <fragmenstein_runtime>  (56) 
3.552294

>  <original SMILES>  (56) 
Nc1nc(-c2ccc(N(N)c3ccccc3)cc2)cs1

>  <scratch_subdir>  (56) 
/opt/xchem-fragalysis-2/maxwin/BulkDock/SCRATCH/217914/C68660-P76

>  <HIPPO Compound ID>  (56) 
68660

>  <fragmenstein_outcome>  (56) 
acceptable

>  <SLURM_JOB_NAME>  (56) 
BulkDock.place:Flavi_NS5_RdRp:thumb_site_2_fstein_bulkdock_input_split1000_batch000

>  <distance_score>  (56) 
0.540667

>  <ref_mols>  (56) 
d0162a,d1149a

>  <tags>  (56) 
['Fragmenstein placed']

$$$$
77677
     RDKit          3D

 20 22  0  0  0  0  0  0  0  0999 V2000
  -12.2349  -70.1266  -21.8763 C   0  0  0  0  0  0  0  0  0  0  0  0
  -11.0466  -70.6006  -21.0930 C   0  0  0  0  0  0  0  0  0  0  0  0
  -11.1742  -70.8782  -19.7354 C   0  0  0  0  0  0  0  0  0  0  0  0
  -10.0644  -71.3388  -19.0306 C   0  0  0  0  0  0  0  0  0  0  0  0
   -8.8417  -71.4796  -19.6803 C   0  0  0  0  0  0  0  0  0  0  0  0
   -7.7335  -71.9911  -18.9720 N   0  0  0  0  0  0  0  0  0  0  0  0
   -6.3774  -71.6666  -19.2087 C   0  0  0  0  0  0  0  0  0  0  0  0
   -5.3649  -72.5716  -18.8598 C   0  0  0  0  0  0  0  0  0  0  0  0
   -4.0117  -72.2534  -19.0493 C   0  0  0  0  0  0  0  0  0  0  0  0
   -3.6509  -71.0077  -19.5660 C   0  0  0  0  0  0  0  0  0  0  0  0
   -2.2765  -70.6072  -19.8281 C   0  0  0  0  0  0  0  0  0  0  0  0
   -1.1672  -71.4241  -19.9009 C   0  0  0  0  0  0  0  0  0  0  0  0
    0.2082  -70.4895  -20.3636 S   0  0  0  0  0  0  0  0  0  0  0  0
   -0.7772  -69.0901  -20.4293 C   0  0  0  0  0  0  0  0  0  0  0  0
   -0.3502  -67.8859  -20.8121 N   0  0  0  0  0  0  0  0  0  0  0  0
   -2.0188  -69.2789  -20.0813 N   0  0  0  0  0  0  0  0  0  0  0  0
   -4.6653  -70.0823  -19.8540 C   0  0  0  0  0  0  0  0  0  0  0  0
   -6.0052  -70.4015  -19.6649 C   0  0  0  0  0  0  0  0  0  0  0  0
   -8.8253  -71.2113  -21.0494 C   0  0  0  0  0  0  0  0  0  0  0  0
   -9.8885  -70.7711  -21.7631 N   0  0  0  0  0  0  0  0  0  0  0  0
  1  2  1  0
  2  3  2  0
  3  4  1  0
  4  5  2  0
  5  6  1  0
  6  7  1  0
  7  8  2  0
  8  9  1  0
  9 10  2  0
 10 11  1  0
 11 12  2  0
 12 13  1  0
 13 14  1  0
 14 15  1  0
 14 16  2  0
 10 17  1  0
 17 18  2  0
  5 19  1  0
 19 20  2  0
 20  2  1  0
 18  7  1  0
 16 11  1  0
M  END
>  <inchikey>  (57) 
ZQNBUZXZLXTGKJ-UHFFFAOYSA-N

>  <alias>  (57) 
None

>  <name>  (57) 
ZQNBUZXZLXTGKJ-UHFFFAOYSA-N

>  <original ID>  (57) 
ZQNBUZXZLXTGKJ-UHFFFAOYSA-N

>  <csv_name>  (57) 
thumb_site_2_fstein_bulkdock_input_split1000_batch000.csv

>  <fragmenstein_error>  (57) 
None

>  <fragmenstein_mode>  (57) 
expansion

>  <ref_pdb>  (57) 
d1212a

>  <exports>  (57) 
['/opt/xchem-fragalysis-2/maxwin/BulkDock/OUTPUTS/thumb_site_2_fstein_bulkdock_input_split1000_batch000_217914.sdf']

>  <SLURM_JOB_ID>  (57) 
217914

>  <HIPPO Pose ID>  (57) 
77677

>  <energy_score>  (57) 
-53.901344

>  <fragmenstein_runtime>  (57) 
2.763059

>  <original SMILES>  (57) 
Cc1ccc(Nc2ccc(-c3csc(N)n3)cc2)cn1

>  <scratch_subdir>  (57) 
/opt/xchem-fragalysis-2/maxwin/BulkDock/SCRATCH/217914/C68661-P79

>  <HIPPO Compound ID>  (57) 
68661

>  <fragmenstein_outcome>  (57) 
acceptable

>  <SLURM_JOB_NAME>  (57) 
BulkDock.place:Flavi_NS5_RdRp:thumb_site_2_fstein_bulkdock_input_split1000_batch000

>  <distance_score>  (57) 
0.959993

>  <ref_mols>  (57) 
d0162a,d1212a

>  <tags>  (57) 
['Fragmenstein placed']

$$$$
77688
     RDKit          3D

 34 37  0  0  0  0  0  0  0  0999 V2000
    1.9148  -71.9941  -19.5209 N   0  0  0  0  0  0  0  0  0  0  0  0
    0.8055  -71.2514  -19.6856 C   0  0  0  0  0  0  0  0  0  0  0  0
   -0.3998  -71.7198  -19.4933 N   0  0  0  0  0  0  0  0  0  0  0  0
   -1.3415  -70.7276  -19.7180 C   0  0  0  0  0  0  0  0  0  0  0  0
   -2.7593  -71.0056  -19.5403 C   0  0  0  0  0  0  0  0  0  0  0  0
   -3.1651  -72.2211  -18.9552 C   0  0  0  0  0  0  0  0  0  0  0  0
   -4.5157  -72.5281  -18.7810 C   0  0  0  0  0  0  0  0  0  0  0  0
   -5.4604  -71.6012  -19.1832 C   0  0  0  0  0  0  0  0  0  0  0  0
   -6.8090  -71.8688  -19.0924 N   0  0  0  0  0  0  0  0  0  0  0  0
   -8.0187  -70.9874  -19.3985 C   0  0  0  0  0  0  0  0  0  0  0  0
   -8.0772  -69.8679  -19.7036 O   0  0  0  0  0  0  0  0  0  0  0  0
   -9.2787  -71.7188  -19.3909 C   0  0  0  0  0  0  0  0  0  0  0  0
   -9.5032  -73.0669  -19.5978 C   0  0  0  0  0  0  0  0  0  0  0  0
  -11.0952  -73.3220  -20.2161 S   0  0  0  0  0  0  0  0  0  0  0  0
  -11.3814  -71.6394  -20.2296 C   0  0  0  0  0  0  0  0  0  0  0  0
  -12.3281  -70.9872  -21.1121 C   0  0  0  0  0  0  0  0  0  0  0  0
  -13.2261  -70.0556  -20.5960 C   0  0  0  0  0  0  0  0  0  0  0  0
  -14.0700  -69.3364  -21.4415 C   0  0  0  0  0  0  0  0  0  0  0  0
  -15.0743  -68.3723  -20.8674 C   0  0  0  0  0  0  0  0  0  0  0  0
  -15.9873  -69.0210  -19.8691 C   0  0  0  0  0  0  0  0  0  0  0  0
  -17.1062  -69.4484  -20.0976 O   0  0  0  0  0  0  0  0  0  0  0  0
  -15.4191  -69.1659  -18.6520 O   0  0  0  0  0  0  0  0  0  0  0  0
  -13.9512  -69.5270  -22.8235 C   0  0  0  0  0  0  0  0  0  0  0  0
  -13.0074  -70.4064  -23.3704 C   0  0  0  0  0  0  0  0  0  0  0  0
  -12.8375  -70.5565  -24.8657 C   0  0  0  0  0  0  0  0  0  0  0  0
  -11.8507  -69.6114  -25.5121 C   0  0  0  0  0  0  0  0  0  0  0  0
  -11.9742  -69.1658  -26.6437 O   0  0  0  0  0  0  0  0  0  0  0  0
  -10.7672  -69.3391  -24.7622 O   0  0  0  0  0  0  0  0  0  0  0  0
  -12.2034  -71.1396  -22.4980 C   0  0  0  0  0  0  0  0  0  0  0  0
  -10.5089  -70.9907  -19.3949 C   0  0  0  0  0  0  0  0  0  0  0  0
   -5.0714  -70.3840  -19.7476 C   0  0  0  0  0  0  0  0  0  0  0  0
   -3.7316  -70.0922  -19.9421 C   0  0  0  0  0  0  0  0  0  0  0  0
   -0.8127  -69.5075  -20.0951 C   0  0  0  0  0  0  0  0  0  0  0  0
    0.8961  -69.6018  -20.1335 S   0  0  0  0  0  0  0  0  0  0  0  0
  1  2  1  0
  2  3  2  0
  3  4  1  0
  4  5  1  0
  5  6  2  0
  6  7  1  0
  7  8  2  0
  8  9  1  0
  9 10  1  0
 10 11  2  0
 10 12  1  0
 12 13  2  0
 13 14  1  0
 14 15  1  0
 15 16  1  0
 16 17  2  0
 17 18  1  0
 18 19  1  0
 19 20  1  0
 20 21  2  0
 20 22  1  0
 18 23  2  0
 23 24  1  0
 24 25  1  0
 25 26  1  0
 26 27  2  0
 26 28  1  0
 24 29  2  0
 15 30  2  0
  8 31  1  0
 31 32  2  0
  4 33  2  0
 33 34  1  0
 34  2  1  0
 32  5  1  0
 30 12  1  0
 29 16  1  0
M  END
>  <inchikey>  (58) 
ATSWPPNPCFKYBE-UHFFFAOYSA-N

>  <alias>  (58) 
None

>  <name>  (58) 
ATSWPPNPCFKYBE-UHFFFAOYSA-N

>  <original ID>  (58) 
ATSWPPNPCFKYBE-UHFFFAOYSA-N

>  <csv_name>  (58) 
thumb_site_2_fstein_bulkdock_input_split1000_batch000.csv

>  <fragmenstein_error>  (58) 
None

>  <fragmenstein_mode>  (58) 
expansion

>  <ref_pdb>  (58) 
d0162a

>  <exports>  (58) 
['/opt/xchem-fragalysis-2/maxwin/BulkDock/OUTPUTS/thumb_site_2_fstein_bulkdock_input_split1000_batch000_217914.sdf']

>  <SLURM_JOB_ID>  (58) 
217914

>  <HIPPO Pose ID>  (58) 
77688

>  <energy_score>  (58) 
-110.30562

>  <fragmenstein_runtime>  (58) 
10.408299

>  <original SMILES>  (58) 
Nc1nc(-c2ccc(NC(=O)c3csc(-c4cc(CC(=O)O)cc(CC(=O)O)c4)c3)cc2)cs1

>  <scratch_subdir>  (58) 
/opt/xchem-fragalysis-2/maxwin/BulkDock/SCRATCH/217914/C68663-P15

>  <HIPPO Compound ID>  (58) 
68663

>  <fragmenstein_outcome>  (58) 
acceptable

>  <SLURM_JOB_NAME>  (58) 
BulkDock.place:Flavi_NS5_RdRp:thumb_site_2_fstein_bulkdock_input_split1000_batch000

>  <distance_score>  (58) 
0.961827

>  <ref_mols>  (58) 
d0162a,5hmx-a

>  <tags>  (58) 
['Fragmenstein placed']

$$$$
77701
     RDKit          3D

 32 35  0  0  0  0  0  0  0  0999 V2000
  -14.5803  -69.3453  -22.8032 C   0  0  0  0  0  0  0  0  0  0  0  0
  -15.1039  -69.4672  -21.3872 C   0  0  0  0  0  0  0  0  0  0  0  0
  -13.8238  -69.7638  -20.1769 S   0  0  0  0  0  0  0  0  0  0  0  0
  -12.9009  -68.6579  -20.1895 O   0  0  0  0  0  0  0  0  0  0  0  0
  -14.4505  -70.2003  -18.9432 O   0  0  0  0  0  0  0  0  0  0  0  0
  -13.0659  -71.1178  -20.7864 N   0  0  0  0  0  0  0  0  0  0  0  0
  -11.7340  -70.9716  -21.3806 C   0  0  0  0  0  0  0  0  0  0  0  0
  -10.5771  -71.1406  -20.4218 C   0  0  0  0  0  0  0  0  0  0  0  0
  -10.7459  -71.5221  -19.0684 C   0  0  0  0  0  0  0  0  0  0  0  0
   -9.6473  -71.7302  -18.2292 C   0  0  0  0  0  0  0  0  0  0  0  0
   -8.3940  -71.5488  -18.7632 C   0  0  0  0  0  0  0  0  0  0  0  0
   -8.2139  -71.1643  -20.0679 C   0  0  0  0  0  0  0  0  0  0  0  0
   -9.2758  -70.9491  -20.9183 C   0  0  0  0  0  0  0  0  0  0  0  0
   -6.9045  -71.0510  -20.3998 O   0  0  0  0  0  0  0  0  0  0  0  0
   -6.2651  -71.3930  -19.1467 C   0  0  1  0  0  0  0  0  0  0  0  0
   -5.4485  -70.3173  -18.6761 O   0  0  0  0  0  0  0  0  0  0  0  0
   -4.2932  -70.2274  -19.3937 C   0  0  0  0  0  0  0  0  0  0  0  0
   -4.1538  -69.1607  -20.2710 C   0  0  0  0  0  0  0  0  0  0  0  0
   -2.9267  -68.9044  -20.8719 C   0  0  0  0  0  0  0  0  0  0  0  0
   -1.8478  -69.7318  -20.5754 C   0  0  0  0  0  0  0  0  0  0  0  0
   -0.2425  -69.3095  -21.1815 S   0  0  0  0  0  0  0  0  0  0  0  0
    0.0728  -70.3162  -22.1746 O   0  0  0  0  0  0  0  0  0  0  0  0
   -0.2662  -67.9028  -21.4906 O   0  0  0  0  0  0  0  0  0  0  0  0
    0.7343  -69.5726  -19.8153 N   0  0  0  0  0  0  0  0  0  0  0  0
    0.8830  -68.4024  -18.8965 C   0  0  0  0  0  0  0  0  0  0  0  0
    1.5689  -68.8428  -17.5860 C   0  0  0  0  0  0  0  0  0  0  0  0
    2.8422  -69.5614  -17.7878 N   0  0  0  0  0  0  0  0  0  0  0  0
    2.6356  -70.6962  -18.6989 C   0  0  0  0  0  0  0  0  0  0  0  0
    2.0271  -70.2655  -20.0452 C   0  0  0  0  0  0  0  0  0  0  0  0
   -1.9975  -70.8440  -19.7439 C   0  0  0  0  0  0  0  0  0  0  0  0
   -3.2274  -71.0845  -19.1386 C   0  0  0  0  0  0  0  0  0  0  0  0
   -7.2216  -71.7271  -18.1045 O   0  0  0  0  0  0  0  0  0  0  0  0
  1  2  1  0
  2  3  1  0
  3  4  2  0
  3  5  2  0
  3  6  1  0
  6  7  1  0
  7  8  1  0
  8  9  2  0
  9 10  1  0
 10 11  2  0
 11 12  1  0
 12 13  2  0
 12 14  1  0
 14 15  1  0
 15 16  1  1
 16 17  1  0
 17 18  2  0
 18 19  1  0
 19 20  2  0
 20 21  1  0
 21 22  2  0
 21 23  2  0
 21 24  1  0
 24 25  1  0
 25 26  1  0
 26 27  1  0
 27 28  1  0
 28 29  1  0
 20 30  1  0
 30 31  2  0
 15 32  1  0
 13  8  1  0
 31 17  1  0
 32 11  1  0
 29 24  1  0
M  END
>  <inchikey>  (59) 
FAQQMENBAAMZPE-FQEVSTJZSA-N

>  <alias>  (59) 
None

>  <name>  (59) 
FAQQMENBAAMZPE-FQEVSTJZSA-N

>  <original ID>  (59) 
FAQQMENBAAMZPE-FQEVSTJZSA-N

>  <csv_name>  (59) 
thumb_site_2_fstein_bulkdock_input_split1000_batch000.csv

>  <fragmenstein_error>  (59) 
None

>  <fragmenstein_mode>  (59) 
expansion

>  <ref_pdb>  (59) 
d0174a

>  <exports>  (59) 
['/opt/xchem-fragalysis-2/maxwin/BulkDock/OUTPUTS/thumb_site_2_fstein_bulkdock_input_split1000_batch000_217914.sdf']

>  <SLURM_JOB_ID>  (59) 
217914

>  <HIPPO Pose ID>  (59) 
77701

>  <energy_score>  (59) 
-86.265168

>  <fragmenstein_runtime>  (59) 
15.31891

>  <original SMILES>  (59) 
CCS(=O)(=O)NCc1ccc2c(c1)O[C@@H](Oc1ccc(S(=O)(=O)N3CCNCC3)cc1)O2

>  <scratch_subdir>  (59) 
/opt/xchem-fragalysis-2/maxwin/BulkDock/SCRATCH/217914/C68667-P17

>  <HIPPO Compound ID>  (59) 
68667

>  <fragmenstein_outcome>  (59) 
acceptable

>  <SLURM_JOB_NAME>  (59) 
BulkDock.place:Flavi_NS5_RdRp:thumb_site_2_fstein_bulkdock_input_split1000_batch000

>  <distance_score>  (59) 
0.6072

>  <ref_mols>  (59) 
d0174a,d0210a

>  <tags>  (59) 
['Fragmenstein placed']

$$$$
77709
     RDKit          3D

 20 21  0  0  0  0  0  0  0  0999 V2000
  -11.4108  -70.2554  -22.1706 O   0  0  0  0  0  0  0  0  0  0  0  0
  -11.4027  -70.4497  -21.0184 C   0  0  0  0  0  0  0  0  0  0  0  0
  -12.5192  -70.2348  -19.9500 N   0  0  0  0  0  0  0  0  0  0  0  0
  -13.9996  -69.5753  -20.0878 S   0  0  0  0  0  0  0  0  0  0  0  0
  -13.8282  -68.1637  -20.3032 O   0  0  0  0  0  0  0  0  0  0  0  0
  -14.6762  -70.0509  -18.8931 O   0  0  0  0  0  0  0  0  0  0  0  0
  -14.7694  -70.3379  -21.5174 C   0  0  0  0  0  0  0  0  0  0  0  0
  -14.6184  -69.5193  -22.7960 C   0  0  0  0  0  0  0  0  0  0  0  0
  -14.9668  -70.3243  -24.0521 C   0  0  0  0  0  0  0  0  0  0  0  0
  -16.4470  -70.6605  -24.1999 C   0  0  0  0  0  0  0  0  0  0  0  0
  -17.2194  -69.5054  -24.5268 O   0  0  0  0  0  0  0  0  0  0  0  0
  -10.1663  -70.9471  -20.3415 C   0  0  0  0  0  0  0  0  0  0  0  0
  -10.2309  -71.8609  -19.2614 C   0  0  0  0  0  0  0  0  0  0  0  0
   -9.0790  -72.1967  -18.5454 C   0  0  0  0  0  0  0  0  0  0  0  0
   -7.8921  -71.6225  -18.9433 C   0  0  0  0  0  0  0  0  0  0  0  0
   -7.8214  -70.7704  -20.0214 C   0  0  0  0  0  0  0  0  0  0  0  0
   -8.9371  -70.4139  -20.7475 C   0  0  0  0  0  0  0  0  0  0  0  0
   -6.5590  -70.3157  -20.2345 O   0  0  0  0  0  0  0  0  0  0  0  0
   -5.8319  -71.0186  -19.2071 C   0  0  0  0  0  0  0  0  0  0  0  0
   -6.6856  -71.8021  -18.3438 O   0  0  0  0  0  0  0  0  0  0  0  0
  1  2  2  0
  2  3  1  0
  3  4  1  0
  4  5  2  0
  4  6  2  0
  4  7  1  0
  7  8  1  0
  8  9  1  0
  9 10  1  0
 10 11  1  0
  2 12  1  0
 12 13  2  0
 13 14  1  0
 14 15  2  0
 15 16  1  0
 16 17  2  0
 16 18  1  0
 18 19  1  0
 19 20  1  0
 17 12  1  0
 20 15  1  0
M  END
>  <inchikey>  (60) 
ONKIHGWYPMAERL-UHFFFAOYSA-N

>  <alias>  (60) 
None

>  <name>  (60) 
ONKIHGWYPMAERL-UHFFFAOYSA-N

>  <original ID>  (60) 
ONKIHGWYPMAERL-UHFFFAOYSA-N

>  <csv_name>  (60) 
thumb_site_2_fstein_bulkdock_input_split1000_batch000.csv

>  <fragmenstein_error>  (60) 
None

>  <fragmenstein_mode>  (60) 
expansion

>  <ref_pdb>  (60) 
d0174a

>  <exports>  (60) 
['/opt/xchem-fragalysis-2/maxwin/BulkDock/OUTPUTS/thumb_site_2_fstein_bulkdock_input_split1000_batch000_217914.sdf']

>  <SLURM_JOB_ID>  (60) 
217914

>  <HIPPO Pose ID>  (60) 
77709

>  <energy_score>  (60) 
-29.853291

>  <fragmenstein_runtime>  (60) 
2.542836

>  <original SMILES>  (60) 
O=C(NS(=O)(=O)CCCCO)c1ccc2c(c1)OCO2

>  <scratch_subdir>  (60) 
/opt/xchem-fragalysis-2/maxwin/BulkDock/SCRATCH/217914/C68668-P17

>  <HIPPO Compound ID>  (60) 
68668

>  <fragmenstein_outcome>  (60) 
acceptable

>  <SLURM_JOB_NAME>  (60) 
BulkDock.place:Flavi_NS5_RdRp:thumb_site_2_fstein_bulkdock_input_split1000_batch000

>  <distance_score>  (60) 
0.930814

>  <ref_mols>  (60) 
d0174a,d0248a

>  <tags>  (60) 
['Fragmenstein placed']

$$$$
77711
     RDKit          3D

 20 21  0  0  0  0  0  0  0  0999 V2000
  -11.4730  -70.3862  -22.1659 O   0  0  0  0  0  0  0  0  0  0  0  0
  -11.4432  -70.4950  -21.0028 C   0  0  0  0  0  0  0  0  0  0  0  0
  -12.5445  -70.2151  -19.9337 N   0  0  0  0  0  0  0  0  0  0  0  0
  -14.0369  -69.5843  -20.0938 S   0  0  0  0  0  0  0  0  0  0  0  0
  -13.8737  -68.1707  -20.3100 O   0  0  0  0  0  0  0  0  0  0  0  0
  -14.7235  -70.0616  -18.9093 O   0  0  0  0  0  0  0  0  0  0  0  0
  -14.7679  -70.3636  -21.5342 C   0  0  0  0  0  0  0  0  0  0  0  0
  -14.6169  -69.5379  -22.8077 C   0  0  0  0  0  0  0  0  0  0  0  0
  -14.8519  -70.3608  -24.0777 C   0  0  0  0  0  0  0  0  0  0  0  0
  -16.2684  -70.9006  -24.2405 C   0  0  0  0  0  0  0  0  0  0  0  0
  -17.2074  -69.8492  -24.4631 O   0  0  0  0  0  0  0  0  0  0  0  0
  -10.1936  -70.9426  -20.3164 C   0  0  0  0  0  0  0  0  0  0  0  0
  -10.2397  -71.7972  -19.1881 C   0  0  0  0  0  0  0  0  0  0  0  0
   -9.0748  -72.1021  -18.4800 C   0  0  0  0  0  0  0  0  0  0  0  0
   -7.8942  -71.5557  -18.9319 C   0  0  0  0  0  0  0  0  0  0  0  0
   -7.8423  -70.7584  -20.0525 C   0  0  0  0  0  0  0  0  0  0  0  0
   -8.9714  -70.4337  -20.7732 C   0  0  0  0  0  0  0  0  0  0  0  0
   -6.5814  -70.3266  -20.3171 O   0  0  0  0  0  0  0  0  0  0  0  0
   -5.8382  -70.9719  -19.2636 C   0  0  0  0  0  0  0  0  0  0  0  0
   -6.6759  -71.7154  -18.3507 O   0  0  0  0  0  0  0  0  0  0  0  0
  1  2  2  0
  2  3  1  0
  3  4  1  0
  4  5  2  0
  4  6  2  0
  4  7  1  0
  7  8  1  0
  8  9  1  0
  9 10  1  0
 10 11  1  0
  2 12  1  0
 12 13  2  0
 13 14  1  0
 14 15  2  0
 15 16  1  0
 16 17  2  0
 16 18  1  0
 18 19  1  0
 19 20  1  0
 17 12  1  0
 20 15  1  0
M  END
>  <inchikey>  (61) 
ONKIHGWYPMAERL-UHFFFAOYSA-N

>  <alias>  (61) 
None

>  <name>  (61) 
ONKIHGWYPMAERL-UHFFFAOYSA-N

>  <original ID>  (61) 
ONKIHGWYPMAERL-UHFFFAOYSA-N

>  <csv_name>  (61) 
thumb_site_2_fstein_bulkdock_input_split1000_batch000.csv

>  <fragmenstein_error>  (61) 
None

>  <fragmenstein_mode>  (61) 
expansion

>  <ref_pdb>  (61) 
d0248a

>  <exports>  (61) 
['/opt/xchem-fragalysis-2/maxwin/BulkDock/OUTPUTS/thumb_site_2_fstein_bulkdock_input_split1000_batch000_217914.sdf']

>  <SLURM_JOB_ID>  (61) 
217914

>  <HIPPO Pose ID>  (61) 
77711

>  <energy_score>  (61) 
-30.459994

>  <fragmenstein_runtime>  (61) 
3.574221

>  <original SMILES>  (61) 
O=C(NS(=O)(=O)CCCCO)c1ccc2c(c1)OCO2

>  <scratch_subdir>  (61) 
/opt/xchem-fragalysis-2/maxwin/BulkDock/SCRATCH/217914/C68668-P22

>  <HIPPO Compound ID>  (61) 
68668

>  <fragmenstein_outcome>  (61) 
acceptable

>  <SLURM_JOB_NAME>  (61) 
BulkDock.place:Flavi_NS5_RdRp:thumb_site_2_fstein_bulkdock_input_split1000_batch000

>  <distance_score>  (61) 
0.923889

>  <ref_mols>  (61) 
d0174a,d0248a

>  <tags>  (61) 
['Fragmenstein placed']

$$$$
77719
     RDKit          3D

 25 27  0  0  0  0  0  0  0  0999 V2000
  -14.4573  -69.3887  -22.8166 C   0  0  0  0  0  0  0  0  0  0  0  0
  -15.0029  -69.5170  -21.4108 C   0  0  0  0  0  0  0  0  0  0  0  0
  -13.7443  -69.7668  -20.1663 S   0  0  0  0  0  0  0  0  0  0  0  0
  -12.8154  -68.6656  -20.2045 O   0  0  0  0  0  0  0  0  0  0  0  0
  -14.4142  -70.1417  -18.9366 O   0  0  0  0  0  0  0  0  0  0  0  0
  -12.9726  -71.1465  -20.6886 N   0  0  0  0  0  0  0  0  0  0  0  0
  -11.7091  -71.0415  -21.4309 C   0  0  0  0  0  0  0  0  0  0  0  0
  -10.4739  -71.2659  -20.5961 C   0  0  0  0  0  0  0  0  0  0  0  0
  -10.4190  -72.2777  -19.6140 C   0  0  0  0  0  0  0  0  0  0  0  0
   -9.2489  -72.5507  -18.8794 C   0  0  0  0  0  0  0  0  0  0  0  0
   -9.1904  -73.7130  -17.9226 C   0  0  0  0  0  0  0  0  0  0  0  0
   -9.9159  -73.4518  -16.6549 N   0  0  0  0  0  0  0  0  0  0  0  0
   -9.2131  -73.9917  -15.4603 C   0  0  0  0  0  0  0  0  0  0  0  0
   -9.7384  -75.4118  -15.2797 C   0  0  0  0  0  0  0  0  0  0  0  0
  -11.2484  -75.3395  -15.4368 C   0  0  0  0  0  0  0  0  0  0  0  0
  -11.5534  -74.0015  -16.5822 S   0  0  0  0  0  0  0  0  0  0  0  0
  -11.9415  -74.5331  -17.8675 O   0  0  0  0  0  0  0  0  0  0  0  0
  -12.3160  -72.9784  -15.9002 O   0  0  0  0  0  0  0  0  0  0  0  0
   -8.1469  -71.7554  -19.1440 C   0  0  0  0  0  0  0  0  0  0  0  0
   -8.1692  -70.7884  -20.1231 C   0  0  0  0  0  0  0  0  0  0  0  0
   -9.3089  -70.5444  -20.8647 C   0  0  0  0  0  0  0  0  0  0  0  0
   -9.2917  -69.6581  -21.8677 F   0  0  0  0  0  0  0  0  0  0  0  0
   -6.9642  -70.1712  -20.2671 O   0  0  0  0  0  0  0  0  0  0  0  0
   -6.1749  -70.8644  -19.2851 C   0  0  0  0  0  0  0  0  0  0  0  0
   -6.9262  -71.8477  -18.5437 O   0  0  0  0  0  0  0  0  0  0  0  0
  1  2  1  0
  2  3  1  0
  3  4  2  0
  3  5  2  0
  3  6  1  0
  6  7  1  0
  7  8  1  0
  8  9  2  0
  9 10  1  0
 10 11  1  0
 11 12  1  0
 12 13  1  0
 13 14  1  0
 14 15  1  0
 15 16  1  0
 16 17  2  0
 16 18  2  0
 10 19  2  0
 19 20  1  0
 20 21  2  0
 21 22  1  0
 20 23  1  0
 23 24  1  0
 24 25  1  0
 21  8  1  0
 16 12  1  0
 25 19  1  0
M  END
>  <inchikey>  (62) 
LCWLETUHZBNSMP-UHFFFAOYSA-N

>  <alias>  (62) 
None

>  <name>  (62) 
LCWLETUHZBNSMP-UHFFFAOYSA-N

>  <original ID>  (62) 
LCWLETUHZBNSMP-UHFFFAOYSA-N

>  <csv_name>  (62) 
thumb_site_2_fstein_bulkdock_input_split1000_batch000.csv

>  <fragmenstein_error>  (62) 
None

>  <fragmenstein_mode>  (62) 
expansion

>  <ref_pdb>  (62) 
d0174a

>  <exports>  (62) 
['/opt/xchem-fragalysis-2/maxwin/BulkDock/OUTPUTS/thumb_site_2_fstein_bulkdock_input_split1000_batch000_217914.sdf']

>  <SLURM_JOB_ID>  (62) 
217914

>  <HIPPO Pose ID>  (62) 
77719

>  <energy_score>  (62) 
-73.503154

>  <fragmenstein_runtime>  (62) 
4.457475

>  <original SMILES>  (62) 
CCS(=O)(=O)NCc1cc(CN2CCCS2(=O)=O)c2c(c1F)OCO2

>  <scratch_subdir>  (62) 
/opt/xchem-fragalysis-2/maxwin/BulkDock/SCRATCH/217914/C68670-P17

>  <HIPPO Compound ID>  (62) 
68670

>  <fragmenstein_outcome>  (62) 
acceptable

>  <SLURM_JOB_NAME>  (62) 
BulkDock.place:Flavi_NS5_RdRp:thumb_site_2_fstein_bulkdock_input_split1000_batch000

>  <distance_score>  (62) 
0.45603

>  <ref_mols>  (62) 
d0174a,d0258a

>  <tags>  (62) 
['Fragmenstein placed']

$$$$
77721
     RDKit          3D

 25 27  0  0  0  0  0  0  0  0999 V2000
  -14.4876  -69.6630  -22.7739 C   0  0  0  0  0  0  0  0  0  0  0  0
  -14.9875  -69.8002  -21.3535 C   0  0  0  0  0  0  0  0  0  0  0  0
  -13.6829  -69.8484  -20.1311 S   0  0  0  0  0  0  0  0  0  0  0  0
  -12.8517  -68.6791  -20.2721 O   0  0  0  0  0  0  0  0  0  0  0  0
  -14.2994  -70.1725  -18.8579 O   0  0  0  0  0  0  0  0  0  0  0  0
  -12.7951  -71.1917  -20.5599 N   0  0  0  0  0  0  0  0  0  0  0  0
  -11.6447  -71.0668  -21.4797 C   0  0  0  0  0  0  0  0  0  0  0  0
  -10.3305  -71.3832  -20.8151 C   0  0  0  0  0  0  0  0  0  0  0  0
  -10.1950  -72.5454  -20.0387 C   0  0  0  0  0  0  0  0  0  0  0  0
   -9.0707  -72.7834  -19.2330 C   0  0  0  0  0  0  0  0  0  0  0  0
   -9.0823  -73.9251  -18.2584 C   0  0  0  0  0  0  0  0  0  0  0  0
   -9.7690  -73.6068  -17.0081 N   0  0  0  0  0  0  0  0  0  0  0  0
   -9.1173  -72.7150  -16.0387 C   0  0  0  0  0  0  0  0  0  0  0  0
  -10.1915  -71.7224  -15.6051 C   0  0  0  0  0  0  0  0  0  0  0  0
  -11.4738  -72.5298  -15.4887 C   0  0  0  0  0  0  0  0  0  0  0  0
  -11.4565  -73.6057  -16.8950 S   0  0  0  0  0  0  0  0  0  0  0  0
  -11.8833  -74.9293  -16.5164 O   0  0  0  0  0  0  0  0  0  0  0  0
  -12.0528  -72.8782  -17.9928 O   0  0  0  0  0  0  0  0  0  0  0  0
   -8.0220  -71.8938  -19.3482 C   0  0  0  0  0  0  0  0  0  0  0  0
   -8.0792  -70.8244  -20.2101 C   0  0  0  0  0  0  0  0  0  0  0  0
   -9.2207  -70.5532  -20.9428 C   0  0  0  0  0  0  0  0  0  0  0  0
   -9.2631  -69.5189  -21.7864 F   0  0  0  0  0  0  0  0  0  0  0  0
   -6.9226  -70.1075  -20.2074 O   0  0  0  0  0  0  0  0  0  0  0  0
   -6.1163  -70.8700  -19.2942 C   0  0  0  0  0  0  0  0  0  0  0  0
   -6.8404  -71.9502  -18.6730 O   0  0  0  0  0  0  0  0  0  0  0  0
  1  2  1  0
  2  3  1  0
  3  4  2  0
  3  5  2  0
  3  6  1  0
  6  7  1  0
  7  8  1  0
  8  9  2  0
  9 10  1  0
 10 11  1  0
 11 12  1  0
 12 13  1  0
 13 14  1  0
 14 15  1  0
 15 16  1  0
 16 17  2  0
 16 18  2  0
 10 19  2  0
 19 20  1  0
 20 21  2  0
 21 22  1  0
 20 23  1  0
 23 24  1  0
 24 25  1  0
 21  8  1  0
 16 12  1  0
 25 19  1  0
M  END
>  <inchikey>  (63) 
LCWLETUHZBNSMP-UHFFFAOYSA-N

>  <alias>  (63) 
None

>  <name>  (63) 
LCWLETUHZBNSMP-UHFFFAOYSA-N

>  <original ID>  (63) 
LCWLETUHZBNSMP-UHFFFAOYSA-N

>  <csv_name>  (63) 
thumb_site_2_fstein_bulkdock_input_split1000_batch000.csv

>  <fragmenstein_error>  (63) 
None

>  <fragmenstein_mode>  (63) 
expansion

>  <ref_pdb>  (63) 
d0258a

>  <exports>  (63) 
['/opt/xchem-fragalysis-2/maxwin/BulkDock/OUTPUTS/thumb_site_2_fstein_bulkdock_input_split1000_batch000_217914.sdf']

>  <SLURM_JOB_ID>  (63) 
217914

>  <HIPPO Pose ID>  (63) 
77721

>  <energy_score>  (63) 
-75.669489

>  <fragmenstein_runtime>  (63) 
3.881038

>  <original SMILES>  (63) 
CCS(=O)(=O)NCc1cc(CN2CCCS2(=O)=O)c2c(c1F)OCO2

>  <scratch_subdir>  (63) 
/opt/xchem-fragalysis-2/maxwin/BulkDock/SCRATCH/217914/C68670-P27

>  <HIPPO Compound ID>  (63) 
68670

>  <fragmenstein_outcome>  (63) 
acceptable

>  <SLURM_JOB_NAME>  (63) 
BulkDock.place:Flavi_NS5_RdRp:thumb_site_2_fstein_bulkdock_input_split1000_batch000

>  <distance_score>  (63) 
0.588236

>  <ref_mols>  (63) 
d0174a,d0258a

>  <tags>  (63) 
['Fragmenstein placed']

$$$$
77722
     RDKit          3D

 21 23  0  0  0  0  0  0  0  0999 V2000
  -14.3517  -69.4695  -22.8061 C   0  0  0  0  0  0  0  0  0  0  0  0
  -14.9360  -69.7101  -21.4307 C   0  0  0  0  0  0  0  0  0  0  0  0
  -13.7027  -69.8266  -20.1395 S   0  0  0  0  0  0  0  0  0  0  0  0
  -12.8830  -68.6423  -20.1574 O   0  0  0  0  0  0  0  0  0  0  0  0
  -14.3682  -70.2511  -18.9218 O   0  0  0  0  0  0  0  0  0  0  0  0
  -12.7811  -71.1309  -20.6088 N   0  0  0  0  0  0  0  0  0  0  0  0
  -11.4913  -70.9143  -21.2709 C   0  0  0  0  0  0  0  0  0  0  0  0
  -10.2682  -71.0652  -20.3879 C   0  0  0  0  0  0  0  0  0  0  0  0
  -10.3362  -71.1905  -18.9806 C   0  0  0  0  0  0  0  0  0  0  0  0
   -9.1751  -71.3308  -18.2043 C   0  0  0  0  0  0  0  0  0  0  0  0
   -7.9577  -71.3223  -18.8496 C   0  0  0  0  0  0  0  0  0  0  0  0
   -7.8773  -71.1980  -20.2118 C   0  0  0  0  0  0  0  0  0  0  0  0
   -9.0016  -71.0650  -21.0030 C   0  0  0  0  0  0  0  0  0  0  0  0
   -6.5936  -71.2245  -20.6565 O   0  0  0  0  0  0  0  0  0  0  0  0
   -5.8444  -71.3366  -19.4198 C   0  0  0  0  0  0  0  0  0  0  0  0
   -4.9924  -72.6122  -19.4643 C   0  0  0  0  0  0  0  0  0  0  0  0
   -3.8809  -72.4954  -20.4970 C   0  0  0  0  0  0  0  0  0  0  0  0
   -3.0835  -71.3405  -20.2437 O   0  0  0  0  0  0  0  0  0  0  0  0
   -3.8411  -70.1369  -20.3548 C   0  0  0  0  0  0  0  0  0  0  0  0
   -4.9369  -70.1063  -19.2974 C   0  0  0  0  0  0  0  0  0  0  0  0
   -6.7304  -71.4068  -18.2644 O   0  0  0  0  0  0  0  0  0  0  0  0
  1  2  1  0
  2  3  1  0
  3  4  2  0
  3  5  2  0
  3  6  1  0
  6  7  1  0
  7  8  1  0
  8  9  2  0
  9 10  1  0
 10 11  2  0
 11 12  1  0
 12 13  2  0
 12 14  1  0
 14 15  1  0
 15 16  1  0
 16 17  1  0
 17 18  1  0
 18 19  1  0
 19 20  1  0
 15 21  1  0
 13  8  1  0
 20 15  1  0
 21 11  1  0
M  END
>  <inchikey>  (64) 
ZJLSDJCOOUHNTK-UHFFFAOYSA-N

>  <alias>  (64) 
None

>  <name>  (64) 
ZJLSDJCOOUHNTK-UHFFFAOYSA-N

>  <original ID>  (64) 
ZJLSDJCOOUHNTK-UHFFFAOYSA-N

>  <csv_name>  (64) 
thumb_site_2_fstein_bulkdock_input_split1000_batch000.csv

>  <fragmenstein_error>  (64) 
None

>  <fragmenstein_mode>  (64) 
expansion

>  <ref_pdb>  (64) 
d0174a

>  <exports>  (64) 
['/opt/xchem-fragalysis-2/maxwin/BulkDock/OUTPUTS/thumb_site_2_fstein_bulkdock_input_split1000_batch000_217914.sdf']

>  <SLURM_JOB_ID>  (64) 
217914

>  <HIPPO Pose ID>  (64) 
77722

>  <energy_score>  (64) 
-56.7873

>  <fragmenstein_runtime>  (64) 
3.531418

>  <original SMILES>  (64) 
CCS(=O)(=O)NCc1ccc2c(c1)OC1(CCOCC1)O2

>  <scratch_subdir>  (64) 
/opt/xchem-fragalysis-2/maxwin/BulkDock/SCRATCH/217914/C68671-P17

>  <HIPPO Compound ID>  (64) 
68671

>  <fragmenstein_outcome>  (64) 
acceptable

>  <SLURM_JOB_NAME>  (64) 
BulkDock.place:Flavi_NS5_RdRp:thumb_site_2_fstein_bulkdock_input_split1000_batch000

>  <distance_score>  (64) 
0.705813

>  <ref_mols>  (64) 
d0174a,d0279a

>  <tags>  (64) 
['Fragmenstein placed']

$$$$
77723
     RDKit          3D

 21 23  0  0  0  0  0  0  0  0999 V2000
  -14.4429  -69.6084  -22.7154 C   0  0  0  0  0  0  0  0  0  0  0  0
  -15.0175  -69.7956  -21.3275 C   0  0  0  0  0  0  0  0  0  0  0  0
  -13.7690  -69.8622  -20.0467 S   0  0  0  0  0  0  0  0  0  0  0  0
  -12.9511  -68.6790  -20.1208 O   0  0  0  0  0  0  0  0  0  0  0  0
  -14.4143  -70.2478  -18.8058 O   0  0  0  0  0  0  0  0  0  0  0  0
  -12.8520  -71.1831  -20.4766 N   0  0  0  0  0  0  0  0  0  0  0  0
  -11.5605  -70.9859  -21.1351 C   0  0  0  0  0  0  0  0  0  0  0  0
  -10.3403  -71.1266  -20.2473 C   0  0  0  0  0  0  0  0  0  0  0  0
  -10.3891  -71.2327  -18.8411 C   0  0  0  0  0  0  0  0  0  0  0  0
   -9.2131  -71.3607  -18.0820 C   0  0  0  0  0  0  0  0  0  0  0  0
   -8.0018  -71.3501  -18.7428 C   0  0  0  0  0  0  0  0  0  0  0  0
   -7.9391  -71.2365  -20.1051 C   0  0  0  0  0  0  0  0  0  0  0  0
   -9.0817  -71.1331  -20.8735 C   0  0  0  0  0  0  0  0  0  0  0  0
   -6.6602  -71.2396  -20.5684 O   0  0  0  0  0  0  0  0  0  0  0  0
   -5.8925  -71.3408  -19.3406 C   0  0  0  0  0  0  0  0  0  0  0  0
   -5.0287  -72.6080  -19.3988 C   0  0  0  0  0  0  0  0  0  0  0  0
   -3.9195  -72.4681  -20.4306 C   0  0  0  0  0  0  0  0  0  0  0  0
   -3.1192  -71.3227  -20.1474 O   0  0  0  0  0  0  0  0  0  0  0  0
   -3.8707  -70.1123  -20.2377 C   0  0  0  0  0  0  0  0  0  0  0  0
   -4.9944  -70.1029  -19.2101 C   0  0  0  0  0  0  0  0  0  0  0  0
   -6.7663  -71.4251  -18.1743 O   0  0  0  0  0  0  0  0  0  0  0  0
  1  2  1  0
  2  3  1  0
  3  4  2  0
  3  5  2  0
  3  6  1  0
  6  7  1  0
  7  8  1  0
  8  9  2  0
  9 10  1  0
 10 11  2  0
 11 12  1  0
 12 13  2  0
 12 14  1  0
 14 15  1  0
 15 16  1  0
 16 17  1  0
 17 18  1  0
 18 19  1  0
 19 20  1  0
 15 21  1  0
 13  8  1  0
 20 15  1  0
 21 11  1  0
M  END
>  <inchikey>  (65) 
ZJLSDJCOOUHNTK-UHFFFAOYSA-N

>  <alias>  (65) 
None

>  <name>  (65) 
ZJLSDJCOOUHNTK-UHFFFAOYSA-N

>  <original ID>  (65) 
ZJLSDJCOOUHNTK-UHFFFAOYSA-N

>  <csv_name>  (65) 
thumb_site_2_fstein_bulkdock_input_split1000_batch000.csv

>  <fragmenstein_error>  (65) 
None

>  <fragmenstein_mode>  (65) 
expansion

>  <ref_pdb>  (65) 
d0279a

>  <exports>  (65) 
['/opt/xchem-fragalysis-2/maxwin/BulkDock/OUTPUTS/thumb_site_2_fstein_bulkdock_input_split1000_batch000_217914.sdf']

>  <SLURM_JOB_ID>  (65) 
217914

>  <HIPPO Pose ID>  (65) 
77723

>  <energy_score>  (65) 
-56.458947

>  <fragmenstein_runtime>  (65) 
3.600315

>  <original SMILES>  (65) 
CCS(=O)(=O)NCc1ccc2c(c1)OC1(CCOCC1)O2

>  <scratch_subdir>  (65) 
/opt/xchem-fragalysis-2/maxwin/BulkDock/SCRATCH/217914/C68671-P29

>  <HIPPO Compound ID>  (65) 
68671

>  <fragmenstein_outcome>  (65) 
acceptable

>  <SLURM_JOB_NAME>  (65) 
BulkDock.place:Flavi_NS5_RdRp:thumb_site_2_fstein_bulkdock_input_split1000_batch000

>  <distance_score>  (65) 
0.735717

>  <ref_mols>  (65) 
d0174a,d0279a

>  <tags>  (65) 
['Fragmenstein placed']

$$$$
77725
     RDKit          3D

 25 27  0  0  0  0  0  0  0  0999 V2000
  -14.5664  -69.3885  -22.8522 C   0  0  0  0  0  0  0  0  0  0  0  0
  -15.1123  -69.5993  -21.4560 C   0  0  0  0  0  0  0  0  0  0  0  0
  -13.8422  -69.7647  -20.2112 S   0  0  0  0  0  0  0  0  0  0  0  0
  -13.0183  -68.5827  -20.2078 O   0  0  0  0  0  0  0  0  0  0  0  0
  -14.4561  -70.2376  -18.9848 O   0  0  0  0  0  0  0  0  0  0  0  0
  -12.9424  -71.0497  -20.7748 N   0  0  0  0  0  0  0  0  0  0  0  0
  -11.6525  -70.7842  -21.4251 C   0  0  0  0  0  0  0  0  0  0  0  0
  -10.4620  -71.0589  -20.5333 C   0  0  0  0  0  0  0  0  0  0  0  0
  -10.5271  -70.8692  -19.1334 C   0  0  0  0  0  0  0  0  0  0  0  0
   -9.4410  -71.1676  -18.3187 C   0  0  0  0  0  0  0  0  0  0  0  0
   -8.3028  -71.6353  -18.9421 C   0  0  0  0  0  0  0  0  0  0  0  0
   -8.1741  -71.8208  -20.3161 C   0  0  0  0  0  0  0  0  0  0  0  0
   -9.2550  -71.4965  -21.1211 C   0  0  0  0  0  0  0  0  0  0  0  0
   -6.9251  -72.3449  -20.7219 N   0  0  0  0  0  0  0  0  0  0  0  0
   -6.9393  -73.3091  -21.8142 C   0  0  0  0  0  0  0  0  0  0  0  0
   -6.2760  -72.7757  -19.4459 C   0  0  1  0  0  0  0  0  0  0  0  0
   -4.7819  -72.4996  -19.3592 C   0  0  0  0  0  0  0  0  0  0  0  0
   -4.3312  -71.2126  -19.9337 C   0  0  0  0  0  0  0  0  0  0  0  0
   -3.2951  -70.8708  -20.7685 C   0  0  0  0  0  0  0  0  0  0  0  0
   -3.3865  -69.4695  -20.8799 C   0  0  0  0  0  0  0  0  0  0  0  0
   -2.4862  -68.5530  -21.6154 C   0  0  0  0  0  0  0  0  0  0  0  0
   -4.4380  -69.0029  -20.1968 N   0  0  0  0  0  0  0  0  0  0  0  0
   -5.0104  -70.0934  -19.5778 O   0  0  0  0  0  0  0  0  0  0  0  0
   -7.0955  -72.1454  -18.3355 C   0  0  0  0  0  0  0  0  0  0  0  0
   -6.8862  -72.1542  -17.1369 O   0  0  0  0  0  0  0  0  0  0  0  0
  1  2  1  0
  2  3  1  0
  3  4  2  0
  3  5  2  0
  3  6  1  0
  6  7  1  0
  7  8  1  0
  8  9  2  0
  9 10  1  0
 10 11  2  0
 11 12  1  0
 12 13  2  0
 12 14  1  0
 14 15  1  0
 14 16  1  0
 16 17  1  6
 17 18  1  0
 18 19  2  0
 19 20  1  0
 20 21  1  0
 20 22  2  0
 22 23  1  0
 16 24  1  0
 24 25  2  0
 13  8  1  0
 23 18  1  0
 24 11  1  0
M  END
>  <inchikey>  (66) 
BFXOVJIBVJOUSQ-INIZCTEOSA-N

>  <alias>  (66) 
None

>  <name>  (66) 
BFXOVJIBVJOUSQ-INIZCTEOSA-N

>  <original ID>  (66) 
BFXOVJIBVJOUSQ-INIZCTEOSA-N

>  <csv_name>  (66) 
thumb_site_2_fstein_bulkdock_input_split1000_batch000.csv

>  <fragmenstein_error>  (66) 
None

>  <fragmenstein_mode>  (66) 
expansion

>  <ref_pdb>  (66) 
d0174a

>  <exports>  (66) 
['/opt/xchem-fragalysis-2/maxwin/BulkDock/OUTPUTS/thumb_site_2_fstein_bulkdock_input_split1000_batch000_217914.sdf']

>  <SLURM_JOB_ID>  (66) 
217914

>  <HIPPO Pose ID>  (66) 
77725

>  <energy_score>  (66) 
-49.463566

>  <fragmenstein_runtime>  (66) 
5.326097

>  <original SMILES>  (66) 
CCS(=O)(=O)NCc1ccc2c(c1)N(C)[C@@H](Cc1cc(C)no1)C2=O

>  <scratch_subdir>  (66) 
/opt/xchem-fragalysis-2/maxwin/BulkDock/SCRATCH/217914/C68672-P17

>  <HIPPO Compound ID>  (66) 
68672

>  <fragmenstein_outcome>  (66) 
acceptable

>  <SLURM_JOB_NAME>  (66) 
BulkDock.place:Flavi_NS5_RdRp:thumb_site_2_fstein_bulkdock_input_split1000_batch000

>  <distance_score>  (66) 
0.825877

>  <ref_mols>  (66) 
d0174a,d0379a

>  <tags>  (66) 
['Fragmenstein placed']

$$$$
77728
     RDKit          3D

 25 27  0  0  0  0  0  0  0  0999 V2000
  -14.6860  -69.4500  -22.7717 C   0  0  0  0  0  0  0  0  0  0  0  0
  -15.1913  -69.6689  -21.3611 C   0  0  0  0  0  0  0  0  0  0  0  0
  -13.8770  -69.7669  -20.1531 S   0  0  0  0  0  0  0  0  0  0  0  0
  -13.1047  -68.5512  -20.1887 O   0  0  0  0  0  0  0  0  0  0  0  0
  -14.4309  -70.2612  -18.9076 O   0  0  0  0  0  0  0  0  0  0  0  0
  -12.9386  -71.0168  -20.7428 N   0  0  0  0  0  0  0  0  0  0  0  0
  -11.6590  -70.6924  -21.3897 C   0  0  0  0  0  0  0  0  0  0  0  0
  -10.4603  -70.9674  -20.5095 C   0  0  0  0  0  0  0  0  0  0  0  0
  -10.5038  -70.7372  -19.1150 C   0  0  0  0  0  0  0  0  0  0  0  0
   -9.4138  -71.0373  -18.3051 C   0  0  0  0  0  0  0  0  0  0  0  0
   -8.2915  -71.5427  -18.9282 C   0  0  0  0  0  0  0  0  0  0  0  0
   -8.1850  -71.7680  -20.2985 C   0  0  0  0  0  0  0  0  0  0  0  0
   -9.2705  -71.4462  -21.0989 C   0  0  0  0  0  0  0  0  0  0  0  0
   -6.9506  -72.3278  -20.7075 N   0  0  0  0  0  0  0  0  0  0  0  0
   -7.0090  -73.3234  -21.7714 C   0  0  0  0  0  0  0  0  0  0  0  0
   -6.3064  -72.7537  -19.4250 C   0  0  1  0  0  0  0  0  0  0  0  0
   -4.7999  -72.5543  -19.3768 C   0  0  0  0  0  0  0  0  0  0  0  0
   -4.3148  -71.2569  -19.8955 C   0  0  0  0  0  0  0  0  0  0  0  0
   -3.4689  -70.9013  -20.9189 C   0  0  0  0  0  0  0  0  0  0  0  0
   -3.3422  -69.5029  -20.7924 C   0  0  0  0  0  0  0  0  0  0  0  0
   -2.4919  -68.5779  -21.5742 C   0  0  0  0  0  0  0  0  0  0  0  0
   -4.0975  -69.0443  -19.7893 N   0  0  0  0  0  0  0  0  0  0  0  0
   -4.7011  -70.1448  -19.2233 O   0  0  0  0  0  0  0  0  0  0  0  0
   -7.0849  -72.0581  -18.3229 C   0  0  0  0  0  0  0  0  0  0  0  0
   -6.8517  -72.0197  -17.1294 O   0  0  0  0  0  0  0  0  0  0  0  0
  1  2  1  0
  2  3  1  0
  3  4  2  0
  3  5  2  0
  3  6  1  0
  6  7  1  0
  7  8  1  0
  8  9  2  0
  9 10  1  0
 10 11  2  0
 11 12  1  0
 12 13  2  0
 12 14  1  0
 14 15  1  0
 14 16  1  0
 16 17  1  6
 17 18  1  0
 18 19  2  0
 19 20  1  0
 20 21  1  0
 20 22  2  0
 22 23  1  0
 16 24  1  0
 24 25  2  0
 13  8  1  0
 23 18  1  0
 24 11  1  0
M  END
>  <inchikey>  (67) 
BFXOVJIBVJOUSQ-INIZCTEOSA-N

>  <alias>  (67) 
None

>  <name>  (67) 
BFXOVJIBVJOUSQ-INIZCTEOSA-N

>  <original ID>  (67) 
BFXOVJIBVJOUSQ-INIZCTEOSA-N

>  <csv_name>  (67) 
thumb_site_2_fstein_bulkdock_input_split1000_batch000.csv

>  <fragmenstein_error>  (67) 
None

>  <fragmenstein_mode>  (67) 
expansion

>  <ref_pdb>  (67) 
d0379a

>  <exports>  (67) 
['/opt/xchem-fragalysis-2/maxwin/BulkDock/OUTPUTS/thumb_site_2_fstein_bulkdock_input_split1000_batch000_217914.sdf']

>  <SLURM_JOB_ID>  (67) 
217914

>  <HIPPO Pose ID>  (67) 
77728

>  <energy_score>  (67) 
-50.275275

>  <fragmenstein_runtime>  (67) 
4.85079

>  <original SMILES>  (67) 
CCS(=O)(=O)NCc1ccc2c(c1)N(C)[C@@H](Cc1cc(C)no1)C2=O

>  <scratch_subdir>  (67) 
/opt/xchem-fragalysis-2/maxwin/BulkDock/SCRATCH/217914/C68672-P35

>  <HIPPO Compound ID>  (67) 
68672

>  <fragmenstein_outcome>  (67) 
acceptable

>  <SLURM_JOB_NAME>  (67) 
BulkDock.place:Flavi_NS5_RdRp:thumb_site_2_fstein_bulkdock_input_split1000_batch000

>  <distance_score>  (67) 
0.819944

>  <ref_mols>  (67) 
d0174a,d0379a

>  <tags>  (67) 
['Fragmenstein placed']

$$$$
77729
     RDKit          3D

 19 21  0  0  0  0  0  0  0  0999 V2000
  -14.8006  -70.1617  -24.1778 C   0  0  0  0  0  0  0  0  0  0  0  0
  -13.7898  -70.0129  -23.0513 C   0  0  0  0  0  0  0  0  0  0  0  0
  -14.3444  -69.9024  -21.6657 C   0  0  0  0  0  0  0  0  0  0  0  0
  -13.6370  -69.7885  -20.4287 C   0  0  0  0  0  0  0  0  0  0  0  0
  -12.3025  -69.8264  -20.2530 N   0  0  0  0  0  0  0  0  0  0  0  0
  -11.4643  -70.7520  -20.9891 C   0  0  0  0  0  0  0  0  0  0  0  0
  -10.1996  -71.0219  -20.2099 C   0  0  0  0  0  0  0  0  0  0  0  0
  -10.2610  -71.7693  -19.0081 C   0  0  0  0  0  0  0  0  0  0  0  0
   -9.1108  -72.0181  -18.2564 C   0  0  0  0  0  0  0  0  0  0  0  0
   -7.9194  -71.5175  -18.7318 C   0  0  0  0  0  0  0  0  0  0  0  0
   -7.8482  -70.7996  -19.9026 C   0  0  0  0  0  0  0  0  0  0  0  0
   -8.9660  -70.5280  -20.6609 C   0  0  0  0  0  0  0  0  0  0  0  0
   -6.5823  -70.3936  -20.1845 O   0  0  0  0  0  0  0  0  0  0  0  0
   -5.8563  -70.9764  -19.0848 C   0  0  0  0  0  0  0  0  0  0  0  0
   -6.7074  -71.6468  -18.1291 O   0  0  0  0  0  0  0  0  0  0  0  0
  -14.4579  -69.6256  -19.3873 N   0  0  0  0  0  0  0  0  0  0  0  0
  -15.6707  -69.5738  -19.9576 N   0  0  0  0  0  0  0  0  0  0  0  0
  -15.6676  -69.9007  -21.2842 C   0  0  0  0  0  0  0  0  0  0  0  0
  -16.7623  -70.1216  -22.0008 O   0  0  0  0  0  0  0  0  0  0  0  0
  1  2  1  0
  2  3  1  0
  3  4  1  0
  4  5  1  0
  5  6  1  0
  6  7  1  0
  7  8  2  0
  8  9  1  0
  9 10  2  0
 10 11  1  0
 11 12  2  0
 11 13  1  0
 13 14  1  0
 14 15  1  0
  4 16  2  0
 16 17  1  0
 17 18  1  0
 18 19  1  0
 18  3  2  0
 12  7  1  0
 15 10  1  0
M  END
>  <inchikey>  (68) 
SVDVXQUBHCNNMO-UHFFFAOYSA-N

>  <alias>  (68) 
None

>  <name>  (68) 
SVDVXQUBHCNNMO-UHFFFAOYSA-N

>  <original ID>  (68) 
SVDVXQUBHCNNMO-UHFFFAOYSA-N

>  <csv_name>  (68) 
thumb_site_2_fstein_bulkdock_input_split1000_batch000.csv

>  <fragmenstein_error>  (68) 
None

>  <fragmenstein_mode>  (68) 
expansion

>  <ref_pdb>  (68) 
d0174a

>  <exports>  (68) 
['/opt/xchem-fragalysis-2/maxwin/BulkDock/OUTPUTS/thumb_site_2_fstein_bulkdock_input_split1000_batch000_217914.sdf']

>  <SLURM_JOB_ID>  (68) 
217914

>  <HIPPO Pose ID>  (68) 
77729

>  <energy_score>  (68) 
-37.286941

>  <fragmenstein_runtime>  (68) 
1.930167

>  <original SMILES>  (68) 
CCc1c(NCc2ccc3c(c2)OCO3)n[nH]c1O

>  <scratch_subdir>  (68) 
/opt/xchem-fragalysis-2/maxwin/BulkDock/SCRATCH/217914/C68673-P17

>  <HIPPO Compound ID>  (68) 
68673

>  <fragmenstein_outcome>  (68) 
acceptable

>  <SLURM_JOB_NAME>  (68) 
BulkDock.place:Flavi_NS5_RdRp:thumb_site_2_fstein_bulkdock_input_split1000_batch000

>  <distance_score>  (68) 
0.622948

>  <ref_mols>  (68) 
d0174a,d0414a

>  <tags>  (68) 
['Fragmenstein placed']

$$$$
77737
     RDKit          3D

 23 25  0  0  0  0  0  0  0  0999 V2000
  -15.2973  -69.8519  -22.4861 C   0  0  0  0  0  0  0  0  0  0  0  0
  -14.5325  -68.8815  -21.6163 C   0  0  0  0  0  0  0  0  0  0  0  0
  -13.6330  -69.6522  -20.2734 S   0  0  0  0  0  0  0  0  0  0  0  0
  -12.5704  -68.7745  -19.8597 O   0  0  0  0  0  0  0  0  0  0  0  0
  -14.5825  -70.1481  -19.2940 O   0  0  0  0  0  0  0  0  0  0  0  0
  -12.9963  -71.0169  -20.9677 N   0  0  0  0  0  0  0  0  0  0  0  0
  -11.6832  -71.0220  -21.5670 C   0  0  1  0  0  0  0  0  0  0  0  0
  -11.6126  -69.9637  -22.4957 O   0  0  0  0  0  0  0  0  0  0  0  0
  -10.4983  -71.1090  -20.6234 C   0  0  0  0  0  0  0  0  0  0  0  0
  -10.6076  -71.7764  -19.3759 C   0  0  0  0  0  0  0  0  0  0  0  0
   -9.4767  -72.0988  -18.6156 C   0  0  0  0  0  0  0  0  0  0  0  0
   -8.2381  -71.7661  -19.1202 C   0  0  0  0  0  0  0  0  0  0  0  0
   -8.1288  -71.0406  -20.2899 C   0  0  0  0  0  0  0  0  0  0  0  0
   -9.2249  -70.6969  -21.0561 C   0  0  0  0  0  0  0  0  0  0  0  0
   -6.8254  -70.7665  -20.6055 O   0  0  0  0  0  0  0  0  0  0  0  0
   -6.0540  -71.3678  -19.5134 C   0  0  0  0  0  0  0  0  0  0  0  0
   -5.0491  -72.3553  -20.1357 C   0  0  0  0  0  0  0  0  0  0  0  0
   -3.7370  -71.6546  -20.4691 C   0  0  0  0  0  0  0  0  0  0  0  0
   -3.0817  -71.0761  -19.2980 N   0  0  0  0  0  0  0  0  0  0  0  0
   -4.0088  -70.7105  -18.2292 C   0  0  0  0  0  0  0  0  0  0  0  0
   -5.3401  -70.2255  -18.7839 C   0  0  0  0  0  0  0  0  0  0  0  0
   -6.9790  -72.1451  -18.6407 N   0  0  0  0  0  0  0  0  0  0  0  0
   -6.7259  -72.1997  -17.2813 O   0  0  0  0  0  0  0  0  0  0  0  0
  1  2  1  0
  2  3  1  0
  3  4  2  0
  3  5  2  0
  3  6  1  0
  6  7  1  0
  7  8  1  1
  7  9  1  0
  9 10  2  0
 10 11  1  0
 11 12  2  0
 12 13  1  0
 13 14  2  0
 13 15  1  0
 15 16  1  0
 16 17  1  0
 17 18  1  0
 18 19  1  0
 19 20  1  0
 20 21  1  0
 16 22  1  0
 22 23  1  0
 14  9  1  0
 21 16  1  0
 22 12  1  0
M  END
>  <inchikey>  (69) 
BAWAGVBXIULOFL-ZDUSSCGKSA-N

>  <alias>  (69) 
None

>  <name>  (69) 
BAWAGVBXIULOFL-ZDUSSCGKSA-N

>  <original ID>  (69) 
BAWAGVBXIULOFL-ZDUSSCGKSA-N

>  <csv_name>  (69) 
thumb_site_2_fstein_bulkdock_input_split1000_batch000.csv

>  <fragmenstein_error>  (69) 
None

>  <fragmenstein_mode>  (69) 
expansion

>  <ref_pdb>  (69) 
d0174a

>  <exports>  (69) 
['/opt/xchem-fragalysis-2/maxwin/BulkDock/OUTPUTS/thumb_site_2_fstein_bulkdock_input_split1000_batch000_217914.sdf']

>  <SLURM_JOB_ID>  (69) 
217914

>  <HIPPO Pose ID>  (69) 
77737

>  <energy_score>  (69) 
-49.497833

>  <fragmenstein_runtime>  (69) 
4.753996

>  <original SMILES>  (69) 
CCS(=O)(=O)N[C@@H](O)c1ccc2c(c1)OC1(CCNCC1)N2O

>  <scratch_subdir>  (69) 
/opt/xchem-fragalysis-2/maxwin/BulkDock/SCRATCH/217914/C68678-P17

>  <HIPPO Compound ID>  (69) 
68678

>  <fragmenstein_outcome>  (69) 
acceptable

>  <SLURM_JOB_NAME>  (69) 
BulkDock.place:Flavi_NS5_RdRp:thumb_site_2_fstein_bulkdock_input_split1000_batch000

>  <distance_score>  (69) 
0.807571

>  <ref_mols>  (69) 
d0174a,d0615a

>  <tags>  (69) 
['Fragmenstein placed']

$$$$
77739
     RDKit          3D

 23 25  0  0  0  0  0  0  0  0999 V2000
  -15.3347  -69.9033  -22.5241 C   0  0  0  0  0  0  0  0  0  0  0  0
  -14.6208  -68.9191  -21.6265 C   0  0  0  0  0  0  0  0  0  0  0  0
  -13.6838  -69.6803  -20.3040 S   0  0  0  0  0  0  0  0  0  0  0  0
  -12.6444  -68.7767  -19.8868 O   0  0  0  0  0  0  0  0  0  0  0  0
  -14.6085  -70.2216  -19.3268 O   0  0  0  0  0  0  0  0  0  0  0  0
  -13.0145  -71.0159  -21.0238 N   0  0  0  0  0  0  0  0  0  0  0  0
  -11.6926  -70.9920  -21.6000 C   0  0  1  0  0  0  0  0  0  0  0  0
  -11.6124  -69.9104  -22.4999 O   0  0  0  0  0  0  0  0  0  0  0  0
  -10.5212  -71.0918  -20.6425 C   0  0  0  0  0  0  0  0  0  0  0  0
  -10.6572  -71.6996  -19.3675 C   0  0  0  0  0  0  0  0  0  0  0  0
   -9.5398  -72.0307  -18.5900 C   0  0  0  0  0  0  0  0  0  0  0  0
   -8.2895  -71.7657  -19.1046 C   0  0  0  0  0  0  0  0  0  0  0  0
   -8.1539  -71.0993  -20.3058 C   0  0  0  0  0  0  0  0  0  0  0  0
   -9.2335  -70.7480  -21.0892 C   0  0  0  0  0  0  0  0  0  0  0  0
   -6.8427  -70.8945  -20.6345 O   0  0  0  0  0  0  0  0  0  0  0  0
   -6.0936  -71.4394  -19.4996 C   0  0  0  0  0  0  0  0  0  0  0  0
   -5.0895  -72.4670  -20.0514 C   0  0  0  0  0  0  0  0  0  0  0  0
   -3.7781  -71.7930  -20.4322 C   0  0  0  0  0  0  0  0  0  0  0  0
   -3.1239  -71.1396  -19.3046 N   0  0  0  0  0  0  0  0  0  0  0  0
   -4.0441  -70.6955  -18.2605 C   0  0  0  0  0  0  0  0  0  0  0  0
   -5.3866  -70.2574  -18.8268 C   0  0  0  0  0  0  0  0  0  0  0  0
   -7.0431  -72.1621  -18.6085 N   0  0  0  0  0  0  0  0  0  0  0  0
   -6.7938  -72.1955  -17.2502 O   0  0  0  0  0  0  0  0  0  0  0  0
  1  2  1  0
  2  3  1  0
  3  4  2  0
  3  5  2  0
  3  6  1  0
  6  7  1  0
  7  8  1  1
  7  9  1  0
  9 10  2  0
 10 11  1  0
 11 12  2  0
 12 13  1  0
 13 14  2  0
 13 15  1  0
 15 16  1  0
 16 17  1  0
 17 18  1  0
 18 19  1  0
 19 20  1  0
 20 21  1  0
 16 22  1  0
 22 23  1  0
 14  9  1  0
 21 16  1  0
 22 12  1  0
M  END
>  <inchikey>  (70) 
BAWAGVBXIULOFL-ZDUSSCGKSA-N

>  <alias>  (70) 
None

>  <name>  (70) 
BAWAGVBXIULOFL-ZDUSSCGKSA-N

>  <original ID>  (70) 
BAWAGVBXIULOFL-ZDUSSCGKSA-N

>  <csv_name>  (70) 
thumb_site_2_fstein_bulkdock_input_split1000_batch000.csv

>  <fragmenstein_error>  (70) 
None

>  <fragmenstein_mode>  (70) 
expansion

>  <ref_pdb>  (70) 
d0615a

>  <exports>  (70) 
['/opt/xchem-fragalysis-2/maxwin/BulkDock/OUTPUTS/thumb_site_2_fstein_bulkdock_input_split1000_batch000_217914.sdf']

>  <SLURM_JOB_ID>  (70) 
217914

>  <HIPPO Pose ID>  (70) 
77739

>  <energy_score>  (70) 
-49.446702

>  <fragmenstein_runtime>  (70) 
4.161204

>  <original SMILES>  (70) 
CCS(=O)(=O)N[C@@H](O)c1ccc2c(c1)OC1(CCNCC1)N2O

>  <scratch_subdir>  (70) 
/opt/xchem-fragalysis-2/maxwin/BulkDock/SCRATCH/217914/C68678-P50

>  <HIPPO Compound ID>  (70) 
68678

>  <fragmenstein_outcome>  (70) 
acceptable

>  <SLURM_JOB_NAME>  (70) 
BulkDock.place:Flavi_NS5_RdRp:thumb_site_2_fstein_bulkdock_input_split1000_batch000

>  <distance_score>  (70) 
0.838603

>  <ref_mols>  (70) 
d0174a,d0615a

>  <tags>  (70) 
['Fragmenstein placed']

$$$$
77741
     RDKit          3D

 23 24  0  0  0  0  0  0  0  0999 V2000
  -14.5579  -69.4486  -22.6874 C   0  0  0  0  0  0  0  0  0  0  0  0
  -15.1240  -69.4911  -21.2865 C   0  0  0  0  0  0  0  0  0  0  0  0
  -13.9041  -69.7793  -20.0112 S   0  0  0  0  0  0  0  0  0  0  0  0
  -12.8626  -68.7872  -20.1029 O   0  0  0  0  0  0  0  0  0  0  0  0
  -14.6061  -70.0081  -18.7618 O   0  0  0  0  0  0  0  0  0  0  0  0
  -13.2814  -71.2702  -20.3885 N   0  0  0  0  0  0  0  0  0  0  0  0
  -12.0225  -71.3519  -21.1166 C   0  0  0  0  0  0  0  0  0  0  0  0
  -10.7676  -71.3905  -20.2631 C   0  0  0  0  0  0  0  0  0  0  0  0
  -10.7891  -71.8690  -18.9305 C   0  0  0  0  0  0  0  0  0  0  0  0
   -9.6257  -71.9273  -18.1545 C   0  0  0  0  0  0  0  0  0  0  0  0
   -8.4474  -71.5115  -18.7285 C   0  0  0  0  0  0  0  0  0  0  0  0
   -8.3981  -71.0589  -20.0253 C   0  0  0  0  0  0  0  0  0  0  0  0
   -9.5319  -70.9931  -20.8293 C   0  0  0  0  0  0  0  0  0  0  0  0
   -9.4472  -70.4470  -22.2326 C   0  0  0  0  0  0  0  0  0  0  0  0
   -9.9769  -71.3470  -23.2817 N   0  0  0  0  0  0  0  0  0  0  0  0
   -9.1996  -72.5742  -23.5230 C   0  0  0  0  0  0  0  0  0  0  0  0
  -10.7459  -70.6673  -24.6029 S   0  0  0  0  0  0  0  0  0  0  0  0
   -9.5015  -69.9056  -25.3959 N   0  0  0  0  0  0  0  0  0  0  0  0
  -11.6145  -69.6218  -24.1281 O   0  0  0  0  0  0  0  0  0  0  0  0
  -11.2222  -71.7171  -25.4673 O   0  0  0  0  0  0  0  0  0  0  0  0
   -7.1330  -70.6972  -20.3838 O   0  0  0  0  0  0  0  0  0  0  0  0
   -6.3996  -70.9880  -19.1778 C   0  0  0  0  0  0  0  0  0  0  0  0
   -7.2342  -71.4877  -18.1131 O   0  0  0  0  0  0  0  0  0  0  0  0
  1  2  1  0
  2  3  1  0
  3  4  2  0
  3  5  2  0
  3  6  1  0
  6  7  1  0
  7  8  1  0
  8  9  2  0
  9 10  1  0
 10 11  2  0
 11 12  1  0
 12 13  2  0
 13 14  1  0
 14 15  1  0
 15 16  1  0
 15 17  1  0
 17 18  1  0
 17 19  2  0
 17 20  2  0
 12 21  1  0
 21 22  1  0
 22 23  1  0
 13  8  1  0
 23 11  1  0
M  END
>  <inchikey>  (71) 
NJMDVCOPBURRRB-UHFFFAOYSA-N

>  <alias>  (71) 
None

>  <name>  (71) 
NJMDVCOPBURRRB-UHFFFAOYSA-N

>  <original ID>  (71) 
NJMDVCOPBURRRB-UHFFFAOYSA-N

>  <csv_name>  (71) 
thumb_site_2_fstein_bulkdock_input_split1000_batch000.csv

>  <fragmenstein_error>  (71) 
None

>  <fragmenstein_mode>  (71) 
expansion

>  <ref_pdb>  (71) 
d0174a

>  <exports>  (71) 
['/opt/xchem-fragalysis-2/maxwin/BulkDock/OUTPUTS/thumb_site_2_fstein_bulkdock_input_split1000_batch000_217914.sdf']

>  <SLURM_JOB_ID>  (71) 
217914

>  <HIPPO Pose ID>  (71) 
77741

>  <energy_score>  (71) 
-98.134561

>  <fragmenstein_runtime>  (71) 
3.737775

>  <original SMILES>  (71) 
CCS(=O)(=O)NCc1ccc2c(c1CN(C)S(N)(=O)=O)OCO2

>  <scratch_subdir>  (71) 
/opt/xchem-fragalysis-2/maxwin/BulkDock/SCRATCH/217914/C68680-P17

>  <HIPPO Compound ID>  (71) 
68680

>  <fragmenstein_outcome>  (71) 
acceptable

>  <SLURM_JOB_NAME>  (71) 
BulkDock.place:Flavi_NS5_RdRp:thumb_site_2_fstein_bulkdock_input_split1000_batch000

>  <distance_score>  (71) 
0.706358

>  <ref_mols>  (71) 
d0174a,d0693a

>  <tags>  (71) 
['Fragmenstein placed']

$$$$
77743
     RDKit          3D

 23 24  0  0  0  0  0  0  0  0999 V2000
  -14.7369  -69.6039  -22.7584 C   0  0  0  0  0  0  0  0  0  0  0  0
  -15.2975  -69.7124  -21.3601 C   0  0  0  0  0  0  0  0  0  0  0  0
  -14.0477  -69.8556  -20.0908 S   0  0  0  0  0  0  0  0  0  0  0  0
  -13.1124  -68.7630  -20.1879 O   0  0  0  0  0  0  0  0  0  0  0  0
  -14.7051  -70.1397  -18.8306 O   0  0  0  0  0  0  0  0  0  0  0  0
  -13.2741  -71.2751  -20.4347 N   0  0  0  0  0  0  0  0  0  0  0  0
  -12.0407  -71.2641  -21.2001 C   0  0  0  0  0  0  0  0  0  0  0  0
  -10.7576  -71.3631  -20.4011 C   0  0  0  0  0  0  0  0  0  0  0  0
  -10.7674  -71.7108  -19.0261 C   0  0  0  0  0  0  0  0  0  0  0  0
   -9.5901  -71.7663  -18.2754 C   0  0  0  0  0  0  0  0  0  0  0  0
   -8.4114  -71.4634  -18.9125 C   0  0  0  0  0  0  0  0  0  0  0  0
   -8.3739  -71.1413  -20.2505 C   0  0  0  0  0  0  0  0  0  0  0  0
   -9.5211  -71.1034  -21.0438 C   0  0  0  0  0  0  0  0  0  0  0  0
   -9.4271  -70.6649  -22.4899 C   0  0  0  0  0  0  0  0  0  0  0  0
  -10.2479  -71.4159  -23.4724 N   0  0  0  0  0  0  0  0  0  0  0  0
   -9.5928  -72.6390  -23.9704 C   0  0  0  0  0  0  0  0  0  0  0  0
  -11.1180  -70.5371  -24.6119 S   0  0  0  0  0  0  0  0  0  0  0  0
   -9.9292  -69.8542  -25.5371 N   0  0  0  0  0  0  0  0  0  0  0  0
  -11.7669  -69.4465  -23.9359 O   0  0  0  0  0  0  0  0  0  0  0  0
  -11.8465  -71.4498  -25.4565 O   0  0  0  0  0  0  0  0  0  0  0  0
   -7.1017  -70.8588  -20.6579 O   0  0  0  0  0  0  0  0  0  0  0  0
   -6.3652  -70.9998  -19.4240 C   0  0  0  0  0  0  0  0  0  0  0  0
   -7.1877  -71.4248  -18.3196 O   0  0  0  0  0  0  0  0  0  0  0  0
  1  2  1  0
  2  3  1  0
  3  4  2  0
  3  5  2  0
  3  6  1  0
  6  7  1  0
  7  8  1  0
  8  9  2  0
  9 10  1  0
 10 11  2  0
 11 12  1  0
 12 13  2  0
 13 14  1  0
 14 15  1  0
 15 16  1  0
 15 17  1  0
 17 18  1  0
 17 19  2  0
 17 20  2  0
 12 21  1  0
 21 22  1  0
 22 23  1  0
 13  8  1  0
 23 11  1  0
M  END
>  <inchikey>  (72) 
NJMDVCOPBURRRB-UHFFFAOYSA-N

>  <alias>  (72) 
None

>  <name>  (72) 
NJMDVCOPBURRRB-UHFFFAOYSA-N

>  <original ID>  (72) 
NJMDVCOPBURRRB-UHFFFAOYSA-N

>  <csv_name>  (72) 
thumb_site_2_fstein_bulkdock_input_split1000_batch000.csv

>  <fragmenstein_error>  (72) 
None

>  <fragmenstein_mode>  (72) 
expansion

>  <ref_pdb>  (72) 
d0693a

>  <exports>  (72) 
['/opt/xchem-fragalysis-2/maxwin/BulkDock/OUTPUTS/thumb_site_2_fstein_bulkdock_input_split1000_batch000_217914.sdf']

>  <SLURM_JOB_ID>  (72) 
217914

>  <HIPPO Pose ID>  (72) 
77743

>  <energy_score>  (72) 
-96.010733

>  <fragmenstein_runtime>  (72) 
4.480051

>  <original SMILES>  (72) 
CCS(=O)(=O)NCc1ccc2c(c1CN(C)S(N)(=O)=O)OCO2

>  <scratch_subdir>  (72) 
/opt/xchem-fragalysis-2/maxwin/BulkDock/SCRATCH/217914/C68680-P53

>  <HIPPO Compound ID>  (72) 
68680

>  <fragmenstein_outcome>  (72) 
acceptable

>  <SLURM_JOB_NAME>  (72) 
BulkDock.place:Flavi_NS5_RdRp:thumb_site_2_fstein_bulkdock_input_split1000_batch000

>  <distance_score>  (72) 
0.739407

>  <ref_mols>  (72) 
d0174a,d0693a

>  <tags>  (72) 
['Fragmenstein placed']

$$$$
77814
     RDKit          3D

 24 26  0  0  0  0  0  0  0  0999 V2000
   -6.6817  -73.4441  -18.3930 O   0  0  0  0  0  0  0  0  0  0  0  0
   -6.6367  -72.3047  -18.7663 C   0  0  0  0  0  0  0  0  0  0  0  0
   -5.3542  -71.8285  -19.3867 C   0  0  0  0  0  0  0  0  0  0  0  0
   -4.9932  -70.4780  -19.4342 C   0  0  0  0  0  0  0  0  0  0  0  0
   -5.7163  -69.5340  -18.8142 F   0  0  0  0  0  0  0  0  0  0  0  0
   -3.8654  -70.0565  -20.1446 C   0  0  0  0  0  0  0  0  0  0  0  0
   -3.0485  -70.9847  -20.7834 C   0  0  0  0  0  0  0  0  0  0  0  0
   -3.3756  -72.3353  -20.7204 C   0  0  0  0  0  0  0  0  0  0  0  0
   -4.5227  -72.7473  -20.0364 C   0  0  0  0  0  0  0  0  0  0  0  0
   -4.8205  -74.0537  -20.0771 F   0  0  0  0  0  0  0  0  0  0  0  0
   -7.6508  -71.3047  -18.8117 N   0  0  0  0  0  0  0  0  0  0  0  0
   -8.3466  -71.3419  -20.1370 C   0  0  0  0  0  0  0  0  0  0  0  0
   -9.2173  -70.1773  -20.6272 C   0  0  0  0  0  0  0  0  0  0  0  0
  -10.6075  -70.7091  -20.9071 C   0  0  0  0  0  0  0  0  0  0  0  0
  -11.2818  -71.1894  -19.6198 C   0  0  1  0  0  0  0  0  0  0  0  0
  -12.5762  -71.8482  -19.8574 N   0  0  0  0  0  0  0  0  0  0  0  0
  -13.2408  -71.2051  -20.9939 O   0  0  0  0  0  0  0  0  0  0  0  0
  -14.0946  -70.2570  -20.5603 C   0  0  0  0  0  0  0  0  0  0  0  0
  -13.8245  -69.0774  -19.8557 C   0  0  0  0  0  0  0  0  0  0  0  0
  -14.9285  -68.3640  -19.6232 N   0  0  0  0  0  0  0  0  0  0  0  0
  -15.8895  -69.0582  -20.2602 N   0  0  0  0  0  0  0  0  0  0  0  0
  -15.4274  -70.1886  -20.8771 C   0  0  0  0  0  0  0  0  0  0  0  0
  -10.3628  -72.0935  -18.7579 C   0  0  0  0  0  0  0  0  0  0  0  0
   -9.0865  -71.3194  -18.2966 C   0  0  0  0  0  0  0  0  0  0  0  0
  1  2  2  0
  2  3  1  0
  3  4  2  0
  4  5  1  0
  4  6  1  0
  6  7  2  0
  7  8  1  0
  8  9  2  0
  9 10  1  0
  2 11  1  0
 11 12  1  0
 12 13  1  0
 13 14  1  0
 14 15  1  0
 15 16  1  6
 16 17  1  0
 17 18  1  0
 18 19  1  0
 19 20  2  0
 20 21  1  0
 21 22  1  0
 15 23  1  0
 23 24  1  0
  9  3  1  0
 24 11  1  0
 22 18  2  0
M  END
>  <inchikey>  (73) 
YSPPODLJSNUTBO-LLVKDONJSA-N

>  <alias>  (73) 
None

>  <name>  (73) 
YSPPODLJSNUTBO-LLVKDONJSA-N

>  <original ID>  (73) 
YSPPODLJSNUTBO-LLVKDONJSA-N

>  <csv_name>  (73) 
thumb_site_2_fstein_bulkdock_input_split1000_batch000.csv

>  <fragmenstein_error>  (73) 
None

>  <fragmenstein_mode>  (73) 
expansion

>  <ref_pdb>  (73) 
d0176a

>  <exports>  (73) 
['/opt/xchem-fragalysis-2/maxwin/BulkDock/OUTPUTS/thumb_site_2_fstein_bulkdock_input_split1000_batch000_217914.sdf']

>  <SLURM_JOB_ID>  (73) 
217914

>  <HIPPO Pose ID>  (73) 
77814

>  <energy_score>  (73) 
-22.903473

>  <fragmenstein_runtime>  (73) 
17.78685

>  <original SMILES>  (73) 
O=C(c1c(F)cccc1F)N1CCC[C@@H](NOc2cn[nH]c2)CC1

>  <scratch_subdir>  (73) 
/opt/xchem-fragalysis-2/maxwin/BulkDock/SCRATCH/217914/C68701-P18

>  <HIPPO Compound ID>  (73) 
68701

>  <fragmenstein_outcome>  (73) 
acceptable

>  <SLURM_JOB_NAME>  (73) 
BulkDock.place:Flavi_NS5_RdRp:thumb_site_2_fstein_bulkdock_input_split1000_batch000

>  <distance_score>  (73) 
0.988017

>  <ref_mols>  (73) 
d0176a,d0283a

>  <tags>  (73) 
['Fragmenstein placed']

$$$$
77841
     RDKit          3D

 19 21  0  0  0  0  0  0  0  0999 V2000
   -6.6577  -70.8612  -17.8828 O   0  0  0  0  0  0  0  0  0  0  0  0
   -6.5129  -71.5846  -18.7952 C   0  0  0  0  0  0  0  0  0  0  0  0
   -5.2906  -71.3899  -19.6201 C   0  0  0  0  0  0  0  0  0  0  0  0
   -4.7926  -70.0923  -19.7741 C   0  0  0  0  0  0  0  0  0  0  0  0
   -5.4125  -69.0488  -19.2056 F   0  0  0  0  0  0  0  0  0  0  0  0
   -3.6570  -69.8350  -20.5442 C   0  0  0  0  0  0  0  0  0  0  0  0
   -2.9898  -70.8861  -21.1657 C   0  0  0  0  0  0  0  0  0  0  0  0
   -3.4657  -72.1872  -21.0079 C   0  0  0  0  0  0  0  0  0  0  0  0
   -4.6075  -72.4330  -20.2378 C   0  0  0  0  0  0  0  0  0  0  0  0
   -4.9913  -73.7084  -20.0913 F   0  0  0  0  0  0  0  0  0  0  0  0
   -7.4236  -72.6453  -19.3501 N   0  0  0  0  0  0  0  0  0  0  0  0
   -8.7477  -73.1693  -18.8440 C   0  0  0  0  0  0  0  0  0  0  0  0
   -9.6242  -72.1644  -18.0593 C   0  0  0  0  0  0  0  0  0  0  0  0
  -10.1311  -71.0566  -18.9576 C   0  0  2  0  0  0  0  0  0  0  0  0
  -11.4038  -71.3887  -19.7077 C   0  0  0  0  0  0  0  0  0  0  0  0
  -11.3049  -70.4862  -20.9130 C   0  0  0  0  0  0  0  0  0  0  0  0
   -9.9132  -70.4114  -21.2362 O   0  0  0  0  0  0  0  0  0  0  0  0
   -9.1479  -70.7967  -20.0780 C   0  0  2  0  0  0  0  0  0  0  0  0
   -8.3486  -72.0760  -20.4103 C   0  0  0  0  0  0  0  0  0  0  0  0
  1  2  2  0
  2  3  1  0
  3  4  2  0
  4  5  1  0
  4  6  1  0
  6  7  2  0
  7  8  1  0
  8  9  2  0
  9 10  1  0
  2 11  1  0
 11 12  1  0
 12 13  1  0
 14 13  1  6
 14 15  1  0
 15 16  1  0
 16 17  1  0
 17 18  1  0
 18 19  1  6
  9  3  1  0
 19 11  1  0
 18 14  1  0
M  END
>  <inchikey>  (74) 
GSEHWMCATPMGSP-BXKDBHETSA-N

>  <alias>  (74) 
None

>  <name>  (74) 
GSEHWMCATPMGSP-BXKDBHETSA-N

>  <original ID>  (74) 
GSEHWMCATPMGSP-BXKDBHETSA-N

>  <csv_name>  (74) 
thumb_site_2_fstein_bulkdock_input_split1000_batch000.csv

>  <fragmenstein_error>  (74) 
None

>  <fragmenstein_mode>  (74) 
expansion

>  <ref_pdb>  (74) 
d0176a

>  <exports>  (74) 
['/opt/xchem-fragalysis-2/maxwin/BulkDock/OUTPUTS/thumb_site_2_fstein_bulkdock_input_split1000_batch000_217914.sdf']

>  <SLURM_JOB_ID>  (74) 
217914

>  <HIPPO Pose ID>  (74) 
77841

>  <energy_score>  (74) 
-1.698942

>  <fragmenstein_runtime>  (74) 
4.595086

>  <original SMILES>  (74) 
O=C(c1c(F)cccc1F)N1CC[C@@H]2CCO[C@@H]2C1

>  <scratch_subdir>  (74) 
/opt/xchem-fragalysis-2/maxwin/BulkDock/SCRATCH/217914/C68710-P18

>  <HIPPO Compound ID>  (74) 
68710

>  <fragmenstein_outcome>  (74) 
acceptable

>  <SLURM_JOB_NAME>  (74) 
BulkDock.place:Flavi_NS5_RdRp:thumb_site_2_fstein_bulkdock_input_split1000_batch000

>  <distance_score>  (74) 
0.899708

>  <ref_mols>  (74) 
d0176a,d0693a

>  <tags>  (74) 
['Fragmenstein placed']

$$$$
77843
     RDKit          3D

 19 21  0  0  0  0  0  0  0  0999 V2000
   -6.6444  -70.9021  -17.8850 O   0  0  0  0  0  0  0  0  0  0  0  0
   -6.4760  -71.5387  -18.8574 C   0  0  0  0  0  0  0  0  0  0  0  0
   -5.2298  -71.2994  -19.6349 C   0  0  0  0  0  0  0  0  0  0  0  0
   -4.7111  -70.0035  -19.6838 C   0  0  0  0  0  0  0  0  0  0  0  0
   -5.3197  -69.0002  -19.0411 F   0  0  0  0  0  0  0  0  0  0  0  0
   -3.5645  -69.7041  -20.4188 C   0  0  0  0  0  0  0  0  0  0  0  0
   -2.9107  -70.7146  -21.1178 C   0  0  0  0  0  0  0  0  0  0  0  0
   -3.4027  -72.0188  -21.0601 C   0  0  0  0  0  0  0  0  0  0  0  0
   -4.5516  -72.3059  -20.3169 C   0  0  0  0  0  0  0  0  0  0  0  0
   -4.9484  -73.5851  -20.2578 F   0  0  0  0  0  0  0  0  0  0  0  0
   -7.3728  -72.5443  -19.5314 N   0  0  0  0  0  0  0  0  0  0  0  0
   -8.7079  -73.1112  -19.1088 C   0  0  0  0  0  0  0  0  0  0  0  0
   -9.6033  -72.1902  -18.2485 C   0  0  0  0  0  0  0  0  0  0  0  0
  -10.1158  -71.0224  -19.0602 C   0  0  2  0  0  0  0  0  0  0  0  0
  -11.3657  -71.3156  -19.8630 C   0  0  0  0  0  0  0  0  0  0  0  0
  -11.2606  -70.3115  -20.9839 C   0  0  0  0  0  0  0  0  0  0  0  0
   -9.8644  -70.1889  -21.2721 O   0  0  0  0  0  0  0  0  0  0  0  0
   -9.1153  -70.6554  -20.1331 C   0  0  2  0  0  0  0  0  0  0  0  0
   -8.2748  -71.8764  -20.5601 C   0  0  0  0  0  0  0  0  0  0  0  0
  1  2  2  0
  2  3  1  0
  3  4  2  0
  4  5  1  0
  4  6  1  0
  6  7  2  0
  7  8  1  0
  8  9  2  0
  9 10  1  0
  2 11  1  0
 11 12  1  0
 12 13  1  0
 14 13  1  6
 14 15  1  0
 15 16  1  0
 16 17  1  0
 17 18  1  0
 18 19  1  6
  9  3  1  0
 19 11  1  0
 18 14  1  0
M  END
>  <inchikey>  (75) 
GSEHWMCATPMGSP-BXKDBHETSA-N

>  <alias>  (75) 
None

>  <name>  (75) 
GSEHWMCATPMGSP-BXKDBHETSA-N

>  <original ID>  (75) 
GSEHWMCATPMGSP-BXKDBHETSA-N

>  <csv_name>  (75) 
thumb_site_2_fstein_bulkdock_input_split1000_batch000.csv

>  <fragmenstein_error>  (75) 
None

>  <fragmenstein_mode>  (75) 
expansion

>  <ref_pdb>  (75) 
d0693a

>  <exports>  (75) 
['/opt/xchem-fragalysis-2/maxwin/BulkDock/OUTPUTS/thumb_site_2_fstein_bulkdock_input_split1000_batch000_217914.sdf']

>  <SLURM_JOB_ID>  (75) 
217914

>  <HIPPO Pose ID>  (75) 
77843

>  <energy_score>  (75) 
-2.003405

>  <fragmenstein_runtime>  (75) 
4.783697

>  <original SMILES>  (75) 
O=C(c1c(F)cccc1F)N1CC[C@@H]2CCO[C@@H]2C1

>  <scratch_subdir>  (75) 
/opt/xchem-fragalysis-2/maxwin/BulkDock/SCRATCH/217914/C68710-P53

>  <HIPPO Compound ID>  (75) 
68710

>  <fragmenstein_outcome>  (75) 
acceptable

>  <SLURM_JOB_NAME>  (75) 
BulkDock.place:Flavi_NS5_RdRp:thumb_site_2_fstein_bulkdock_input_split1000_batch000

>  <distance_score>  (75) 
0.899068

>  <ref_mols>  (75) 
d0176a,d0693a

>  <tags>  (75) 
['Fragmenstein placed']

$$$$
78011
     RDKit          3D

 26 29  0  0  0  0  0  0  0  0999 V2000
   -5.9659  -71.8325  -17.6933 O   0  0  0  0  0  0  0  0  0  0  0  0
   -5.9953  -71.2876  -18.7951 C   0  0  0  0  0  0  0  0  0  0  0  0
   -4.7211  -70.8035  -19.3831 C   0  0  0  0  0  0  0  0  0  0  0  0
   -3.5842  -71.5963  -19.1805 C   0  0  0  0  0  0  0  0  0  0  0  0
   -2.3338  -71.1770  -19.6302 C   0  0  0  0  0  0  0  0  0  0  0  0
   -2.2154  -69.9454  -20.2674 C   0  0  0  0  0  0  0  0  0  0  0  0
   -0.6262  -69.4468  -20.8553 S   0  0  0  0  0  0  0  0  0  0  0  0
   -0.2765  -70.4022  -21.8890 O   0  0  0  0  0  0  0  0  0  0  0  0
   -0.6898  -68.0373  -21.1303 O   0  0  0  0  0  0  0  0  0  0  0  0
    0.4119  -69.7229  -19.5324 N   0  0  0  0  0  0  0  0  0  0  0  0
    1.7098  -70.3876  -19.8562 C   0  0  0  0  0  0  0  0  0  0  0  0
    2.4414  -70.8002  -18.5684 C   0  0  0  0  0  0  0  0  0  0  0  0
    2.6836  -69.6621  -17.6726 N   0  0  0  0  0  0  0  0  0  0  0  0
    1.4040  -69.0038  -17.3538 C   0  0  0  0  0  0  0  0  0  0  0  0
    0.5971  -68.5704  -18.5954 C   0  0  0  0  0  0  0  0  0  0  0  0
   -3.3398  -69.1444  -20.4850 C   0  0  0  0  0  0  0  0  0  0  0  0
   -4.5959  -69.5757  -20.0360 C   0  0  0  0  0  0  0  0  0  0  0  0
   -7.3098  -71.2074  -19.4650 C   0  0  0  0  0  0  0  0  0  0  0  0
   -7.4491  -71.4968  -20.8290 C   0  0  0  0  0  0  0  0  0  0  0  0
   -8.6964  -71.3760  -21.4563 C   0  0  0  0  0  0  0  0  0  0  0  0
   -9.7721  -70.9857  -20.6920 C   0  0  0  0  0  0  0  0  0  0  0  0
   -9.6567  -70.7986  -19.3384 C   0  0  0  0  0  0  0  0  0  0  0  0
   -8.4463  -70.9307  -18.6911 C   0  0  0  0  0  0  0  0  0  0  0  0
  -10.8417  -70.4671  -18.7603 O   0  0  0  0  0  0  0  0  0  0  0  0
  -11.7076  -70.4203  -19.9183 C   0  0  0  0  0  0  0  0  0  0  0  0
  -11.0328  -70.7631  -21.1459 O   0  0  0  0  0  0  0  0  0  0  0  0
  1  2  2  0
  2  3  1  0
  3  4  2  0
  4  5  1  0
  5  6  2  0
  6  7  1  0
  7  8  2  0
  7  9  2  0
  7 10  1  0
 10 11  1  0
 11 12  1  0
 12 13  1  0
 13 14  1  0
 14 15  1  0
  6 16  1  0
 16 17  2  0
  2 18  1  0
 18 19  2  0
 19 20  1  0
 20 21  2  0
 21 22  1  0
 22 23  2  0
 22 24  1  0
 24 25  1  0
 25 26  1  0
 17  3  1  0
 23 18  1  0
 15 10  1  0
 26 21  1  0
M  END
>  <inchikey>  (76) 
MIAHDCINURIQMS-UHFFFAOYSA-N

>  <alias>  (76) 
None

>  <name>  (76) 
MIAHDCINURIQMS-UHFFFAOYSA-N

>  <original ID>  (76) 
MIAHDCINURIQMS-UHFFFAOYSA-N

>  <csv_name>  (76) 
thumb_site_2_fstein_bulkdock_input_split1000_batch000.csv

>  <fragmenstein_error>  (76) 
None

>  <fragmenstein_mode>  (76) 
expansion

>  <ref_pdb>  (76) 
d0644a

>  <exports>  (76) 
['/opt/xchem-fragalysis-2/maxwin/BulkDock/OUTPUTS/thumb_site_2_fstein_bulkdock_input_split1000_batch000_217914.sdf']

>  <SLURM_JOB_ID>  (76) 
217914

>  <HIPPO Pose ID>  (76) 
78011

>  <energy_score>  (76) 
-62.462862

>  <fragmenstein_runtime>  (76) 
22.493888

>  <original SMILES>  (76) 
O=C(c1ccc(S(=O)(=O)N2CCNCC2)cc1)c1ccc2c(c1)OCO2

>  <scratch_subdir>  (76) 
/opt/xchem-fragalysis-2/maxwin/BulkDock/SCRATCH/217914/C68734-P52

>  <HIPPO Compound ID>  (76) 
68734

>  <fragmenstein_outcome>  (76) 
acceptable

>  <SLURM_JOB_NAME>  (76) 
BulkDock.place:Flavi_NS5_RdRp:thumb_site_2_fstein_bulkdock_input_split1000_batch000

>  <distance_score>  (76) 
0.959681

>  <ref_mols>  (76) 
d0210a,d0644a

>  <tags>  (76) 
['Fragmenstein placed']

$$$$
78140
     RDKit          3D

 25 26  0  0  0  0  0  0  0  0999 V2000
   -1.2544  -74.0810  -15.4899 C   0  0  0  0  0  0  0  0  0  0  0  0
   -2.4323  -74.2294  -16.4272 C   0  0  0  0  0  0  0  0  0  0  0  0
   -2.9448  -75.2529  -16.6663 O   0  0  0  0  0  0  0  0  0  0  0  0
   -2.7370  -72.7973  -16.9640 N   0  0  0  0  0  0  0  0  0  0  0  0
   -3.7548  -72.3427  -17.7968 C   0  0  0  0  0  0  0  0  0  0  0  0
   -4.7253  -73.2034  -18.2994 C   0  0  0  0  0  0  0  0  0  0  0  0
   -5.7518  -72.7050  -19.1050 C   0  0  0  0  0  0  0  0  0  0  0  0
   -5.8290  -71.3378  -19.4090 C   0  0  0  0  0  0  0  0  0  0  0  0
   -6.9694  -70.8112  -20.2531 C   0  0  0  0  0  0  0  0  0  0  0  0
   -8.3613  -70.9529  -19.6665 C   0  0  0  0  0  0  0  0  0  0  0  0
   -8.5816  -71.3094  -18.3261 C   0  0  0  0  0  0  0  0  0  0  0  0
   -9.8695  -71.5092  -17.8386 C   0  0  0  0  0  0  0  0  0  0  0  0
  -10.9644  -71.3129  -18.6732 C   0  0  0  0  0  0  0  0  0  0  0  0
  -10.7776  -70.8805  -19.9921 C   0  0  0  0  0  0  0  0  0  0  0  0
  -11.9540  -70.6570  -20.8945 C   0  0  0  0  0  0  0  0  0  0  0  0
  -11.8798  -70.9995  -22.0056 O   0  0  0  0  0  0  0  0  0  0  0  0
  -13.1390  -70.0619  -20.1102 N   0  0  0  0  0  0  0  0  0  0  0  0
  -14.4775  -69.6680  -20.5605 C   0  0  0  0  0  0  0  0  0  0  0  0
  -14.4158  -68.2504  -21.1032 C   0  0  0  0  0  0  0  0  0  0  0  0
  -15.4132  -69.7097  -19.3479 C   0  0  0  0  0  0  0  0  0  0  0  0
  -15.0272  -70.6041  -21.6615 C   0  0  0  0  0  0  0  0  0  0  0  0
  -14.4229  -70.3785  -22.9330 O   0  0  0  0  0  0  0  0  0  0  0  0
   -9.4774  -70.7231  -20.4930 C   0  0  0  0  0  0  0  0  0  0  0  0
   -4.8395  -70.4818  -18.9142 C   0  0  0  0  0  0  0  0  0  0  0  0
   -3.8059  -70.9848  -18.1166 C   0  0  0  0  0  0  0  0  0  0  0  0
  1  2  1  0
  2  3  2  0
  2  4  1  0
  4  5  1  0
  5  6  2  0
  6  7  1  0
  7  8  2  0
  8  9  1  0
  9 10  1  0
 10 11  2  0
 11 12  1  0
 12 13  2  0
 13 14  1  0
 14 15  1  0
 15 16  2  0
 15 17  1  0
 17 18  1  0
 18 19  1  0
 18 20  1  0
 18 21  1  0
 21 22  1  0
 14 23  2  0
  8 24  1  0
 24 25  2  0
 25  5  1  0
 23 10  1  0
M  END
>  <inchikey>  (77) 
JABKVAACCKXYBC-UHFFFAOYSA-N

>  <alias>  (77) 
None

>  <name>  (77) 
JABKVAACCKXYBC-UHFFFAOYSA-N

>  <original ID>  (77) 
JABKVAACCKXYBC-UHFFFAOYSA-N

>  <csv_name>  (77) 
thumb_site_2_fstein_bulkdock_input_split1000_batch000.csv

>  <fragmenstein_error>  (77) 
None

>  <fragmenstein_mode>  (77) 
expansion

>  <ref_pdb>  (77) 
d0248a

>  <exports>  (77) 
['/opt/xchem-fragalysis-2/maxwin/BulkDock/OUTPUTS/thumb_site_2_fstein_bulkdock_input_split1000_batch000_217914.sdf']

>  <SLURM_JOB_ID>  (77) 
217914

>  <HIPPO Pose ID>  (77) 
78140

>  <energy_score>  (77) 
-8.060849

>  <fragmenstein_runtime>  (77) 
8.731393

>  <original SMILES>  (77) 
CC(=O)Nc1ccc(Cc2cccc(C(=O)NC(C)(C)CO)c2)cc1

>  <scratch_subdir>  (77) 
/opt/xchem-fragalysis-2/maxwin/BulkDock/SCRATCH/217914/C68744-P22

>  <HIPPO Compound ID>  (77) 
68744

>  <fragmenstein_outcome>  (77) 
acceptable

>  <SLURM_JOB_NAME>  (77) 
BulkDock.place:Flavi_NS5_RdRp:thumb_site_2_fstein_bulkdock_input_split1000_batch000

>  <distance_score>  (77) 
0.971164

>  <ref_mols>  (77) 
d0174a,d0248a

>  <tags>  (77) 
['Fragmenstein placed']

$$$$
78415
     RDKit          3D

 23 24  0  0  0  0  0  0  0  0999 V2000
  -14.0221  -69.3661  -23.4719 C   0  0  0  0  0  0  0  0  0  0  0  0
  -14.0973  -70.8107  -22.9577 C   0  0  0  0  0  0  0  0  0  0  0  0
  -15.4666  -71.0278  -22.2907 C   0  0  0  0  0  0  0  0  0  0  0  0
  -13.9465  -71.8194  -24.1223 C   0  0  0  0  0  0  0  0  0  0  0  0
  -12.8420  -71.5347  -24.9711 O   0  0  0  0  0  0  0  0  0  0  0  0
  -13.0628  -71.0097  -21.9391 N   0  0  0  0  0  0  0  0  0  0  0  0
  -11.5303  -71.1281  -22.0766 C   0  0  0  0  0  0  0  0  0  0  0  0
  -10.8583  -71.1631  -23.0274 O   0  0  0  0  0  0  0  0  0  0  0  0
  -10.8813  -71.1336  -20.7280 C   0  0  0  0  0  0  0  0  0  0  0  0
  -11.3823  -70.2906  -19.7339 C   0  0  0  0  0  0  0  0  0  0  0  0
  -10.7968  -70.2845  -18.4795 C   0  0  0  0  0  0  0  0  0  0  0  0
   -9.7014  -71.0878  -18.2085 C   0  0  0  0  0  0  0  0  0  0  0  0
   -9.1749  -71.9489  -19.1790 C   0  0  0  0  0  0  0  0  0  0  0  0
   -8.0267  -72.8908  -18.8363 C   0  0  0  0  0  0  0  0  0  0  0  0
   -7.8092  -73.0754  -17.3183 C   0  0  0  0  0  0  0  0  0  0  0  0
   -6.8166  -74.1057  -16.9842 N   0  0  0  0  0  0  0  0  0  0  0  0
   -6.9103  -74.4453  -15.6087 C   0  0  0  0  0  0  0  0  0  0  0  0
   -8.0118  -75.1762  -15.1421 C   0  0  0  0  0  0  0  0  0  0  0  0
   -8.2051  -75.3908  -13.7760 C   0  0  0  0  0  0  0  0  0  0  0  0
   -7.2962  -74.8739  -12.8566 C   0  0  0  0  0  0  0  0  0  0  0  0
   -6.1898  -74.1560  -13.3066 C   0  0  0  0  0  0  0  0  0  0  0  0
   -5.9927  -73.9505  -14.6763 C   0  0  0  0  0  0  0  0  0  0  0  0
   -9.7579  -71.9373  -20.4634 C   0  0  0  0  0  0  0  0  0  0  0  0
  1  2  1  0
  2  3  1  0
  2  4  1  0
  4  5  1  0
  2  6  1  0
  6  7  1  0
  7  8  2  0
  7  9  1  0
  9 10  2  0
 10 11  1  0
 11 12  2  0
 12 13  1  0
 13 14  1  0
 14 15  1  0
 15 16  1  0
 16 17  1  0
 17 18  2  0
 18 19  1  0
 19 20  2  0
 20 21  1  0
 21 22  2  0
 13 23  2  0
 23  9  1  0
 22 17  1  0
M  END
>  <inchikey>  (78) 
MGTHCJZTDZZOJQ-UHFFFAOYSA-N

>  <alias>  (78) 
None

>  <name>  (78) 
MGTHCJZTDZZOJQ-UHFFFAOYSA-N

>  <original ID>  (78) 
MGTHCJZTDZZOJQ-UHFFFAOYSA-N

>  <csv_name>  (78) 
thumb_site_2_fstein_bulkdock_input_split1000_batch000.csv

>  <fragmenstein_error>  (78) 
None

>  <fragmenstein_mode>  (78) 
expansion

>  <ref_pdb>  (78) 
d0248a

>  <exports>  (78) 
['/opt/xchem-fragalysis-2/maxwin/BulkDock/OUTPUTS/thumb_site_2_fstein_bulkdock_input_split1000_batch000_217914.sdf']

>  <SLURM_JOB_ID>  (78) 
217914

>  <HIPPO Pose ID>  (78) 
78415

>  <energy_score>  (78) 
-18.218029

>  <fragmenstein_runtime>  (78) 
9.742676

>  <original SMILES>  (78) 
CC(C)(CO)NC(=O)c1cccc(CCNc2ccccc2)c1

>  <scratch_subdir>  (78) 
/opt/xchem-fragalysis-2/maxwin/BulkDock/SCRATCH/217914/C68762-P22

>  <HIPPO Compound ID>  (78) 
68762

>  <fragmenstein_outcome>  (78) 
acceptable

>  <SLURM_JOB_NAME>  (78) 
BulkDock.place:Flavi_NS5_RdRp:thumb_site_2_fstein_bulkdock_input_split1000_batch000

>  <distance_score>  (78) 
0.918056

>  <ref_mols>  (78) 
d0248a,d0771a

>  <tags>  (78) 
['Fragmenstein placed']

$$$$
78417
     RDKit          3D

 23 24  0  0  0  0  0  0  0  0999 V2000
  -14.0108  -69.2854  -23.1408 C   0  0  0  0  0  0  0  0  0  0  0  0
  -14.0610  -70.7388  -22.6657 C   0  0  0  0  0  0  0  0  0  0  0  0
  -15.4101  -70.9805  -21.9678 C   0  0  0  0  0  0  0  0  0  0  0  0
  -13.9467  -71.7057  -23.8642 C   0  0  0  0  0  0  0  0  0  0  0  0
  -12.8583  -71.4314  -24.7362 O   0  0  0  0  0  0  0  0  0  0  0  0
  -12.9979  -70.9574  -21.6936 N   0  0  0  0  0  0  0  0  0  0  0  0
  -11.4688  -70.9977  -21.8750 C   0  0  0  0  0  0  0  0  0  0  0  0
  -10.8220  -70.9392  -22.8411 O   0  0  0  0  0  0  0  0  0  0  0  0
  -10.7995  -71.0441  -20.5441 C   0  0  0  0  0  0  0  0  0  0  0  0
  -11.3016  -70.2387  -19.5191 C   0  0  0  0  0  0  0  0  0  0  0  0
  -10.7106  -70.2720  -18.2692 C   0  0  0  0  0  0  0  0  0  0  0  0
   -9.6119  -71.0818  -18.0383 C   0  0  0  0  0  0  0  0  0  0  0  0
   -9.0889  -71.9084  -19.0433 C   0  0  0  0  0  0  0  0  0  0  0  0
   -7.9462  -72.8685  -18.7392 C   0  0  0  0  0  0  0  0  0  0  0  0
   -7.7106  -73.0740  -17.2288 C   0  0  0  0  0  0  0  0  0  0  0  0
   -6.7374  -74.1274  -16.9143 N   0  0  0  0  0  0  0  0  0  0  0  0
   -6.8292  -74.4589  -15.5352 C   0  0  0  0  0  0  0  0  0  0  0  0
   -7.9280  -75.1937  -15.0677 C   0  0  0  0  0  0  0  0  0  0  0  0
   -8.1296  -75.3914  -13.7005 C   0  0  0  0  0  0  0  0  0  0  0  0
   -7.2319  -74.8534  -12.7819 C   0  0  0  0  0  0  0  0  0  0  0  0
   -6.1302  -74.1282  -13.2329 C   0  0  0  0  0  0  0  0  0  0  0  0
   -5.9256  -73.9374  -14.6034 C   0  0  0  0  0  0  0  0  0  0  0  0
   -9.6751  -71.8538  -20.3224 C   0  0  0  0  0  0  0  0  0  0  0  0
  1  2  1  0
  2  3  1  0
  2  4  1  0
  4  5  1  0
  2  6  1  0
  6  7  1  0
  7  8  2  0
  7  9  1  0
  9 10  2  0
 10 11  1  0
 11 12  2  0
 12 13  1  0
 13 14  1  0
 14 15  1  0
 15 16  1  0
 16 17  1  0
 17 18  2  0
 18 19  1  0
 19 20  2  0
 20 21  1  0
 21 22  2  0
 13 23  2  0
 23  9  1  0
 22 17  1  0
M  END
>  <inchikey>  (79) 
MGTHCJZTDZZOJQ-UHFFFAOYSA-N

>  <alias>  (79) 
None

>  <name>  (79) 
MGTHCJZTDZZOJQ-UHFFFAOYSA-N

>  <original ID>  (79) 
MGTHCJZTDZZOJQ-UHFFFAOYSA-N

>  <csv_name>  (79) 
thumb_site_2_fstein_bulkdock_input_split1000_batch000.csv

>  <fragmenstein_error>  (79) 
None

>  <fragmenstein_mode>  (79) 
expansion

>  <ref_pdb>  (79) 
d0771a

>  <exports>  (79) 
['/opt/xchem-fragalysis-2/maxwin/BulkDock/OUTPUTS/thumb_site_2_fstein_bulkdock_input_split1000_batch000_217914.sdf']

>  <SLURM_JOB_ID>  (79) 
217914

>  <HIPPO Pose ID>  (79) 
78417

>  <energy_score>  (79) 
-17.417211

>  <fragmenstein_runtime>  (79) 
12.044518

>  <original SMILES>  (79) 
CC(C)(CO)NC(=O)c1cccc(CCNc2ccccc2)c1

>  <scratch_subdir>  (79) 
/opt/xchem-fragalysis-2/maxwin/BulkDock/SCRATCH/217914/C68762-P57

>  <HIPPO Compound ID>  (79) 
68762

>  <fragmenstein_outcome>  (79) 
acceptable

>  <SLURM_JOB_NAME>  (79) 
BulkDock.place:Flavi_NS5_RdRp:thumb_site_2_fstein_bulkdock_input_split1000_batch000

>  <distance_score>  (79) 
0.911869

>  <ref_mols>  (79) 
d0248a,d0771a

>  <tags>  (79) 
['Fragmenstein placed']

$$$$
78515
     RDKit          3D

 23 24  0  0  0  0  0  0  0  0999 V2000
  -15.5148  -70.2943  -21.2661 C   0  0  0  0  0  0  0  0  0  0  0  0
  -14.3594  -70.7924  -21.9955 N   0  0  0  0  0  0  0  0  0  0  0  0
  -13.1052  -71.5398  -21.1675 S   0  0  0  0  0  0  0  0  0  0  0  0
  -12.3798  -72.2651  -22.1888 O   0  0  0  0  0  0  0  0  0  0  0  0
  -13.6705  -72.2102  -20.0169 O   0  0  0  0  0  0  0  0  0  0  0  0
  -12.1523  -70.1114  -20.6425 C   0  0  0  0  0  0  0  0  0  0  0  0
  -10.8370  -70.5521  -20.0585 C   0  0  0  0  0  0  0  0  0  0  0  0
  -10.6738  -70.7320  -18.6794 C   0  0  0  0  0  0  0  0  0  0  0  0
   -9.4274  -71.0906  -18.1491 C   0  0  0  0  0  0  0  0  0  0  0  0
   -8.3208  -71.2532  -18.9831 C   0  0  0  0  0  0  0  0  0  0  0  0
   -7.0594  -71.5969  -18.4395 N   0  0  0  0  0  0  0  0  0  0  0  0
   -5.8065  -71.1586  -18.9480 C   0  0  0  0  0  0  0  0  0  0  0  0
   -5.6756  -69.9318  -19.6071 C   0  0  0  0  0  0  0  0  0  0  0  0
   -4.4331  -69.4564  -20.0230 C   0  0  0  0  0  0  0  0  0  0  0  0
   -3.2807  -70.1801  -19.7384 C   0  0  0  0  0  0  0  0  0  0  0  0
   -2.0526  -69.6056  -20.0526 N   0  0  0  0  0  0  0  0  0  0  0  0
   -0.6038  -70.0914  -19.7543 C   0  0  0  0  0  0  0  0  0  0  0  0
    0.3085  -68.9694  -20.1892 C   0  0  0  0  0  0  0  0  0  0  0  0
   -0.2229  -71.0840  -19.2683 O   0  0  0  0  0  0  0  0  0  0  0  0
   -3.3839  -71.3987  -19.0743 C   0  0  0  0  0  0  0  0  0  0  0  0
   -4.6391  -71.8768  -18.6694 C   0  0  0  0  0  0  0  0  0  0  0  0
   -8.5159  -71.1720  -20.3599 C   0  0  0  0  0  0  0  0  0  0  0  0
   -9.7441  -70.7923  -20.8950 C   0  0  0  0  0  0  0  0  0  0  0  0
  1  2  1  0
  2  3  1  0
  3  4  2  0
  3  5  2  0
  3  6  1  0
  6  7  1  0
  7  8  2  0
  8  9  1  0
  9 10  2  0
 10 11  1  0
 11 12  1  0
 12 13  2  0
 13 14  1  0
 14 15  2  0
 15 16  1  0
 16 17  1  0
 17 18  1  0
 17 19  2  0
 15 20  1  0
 20 21  2  0
 10 22  1  0
 22 23  2  0
 23  7  1  0
 21 12  1  0
M  END
>  <inchikey>  (80) 
KWOALRMZHLDTRX-UHFFFAOYSA-N

>  <alias>  (80) 
None

>  <name>  (80) 
KWOALRMZHLDTRX-UHFFFAOYSA-N

>  <original ID>  (80) 
KWOALRMZHLDTRX-UHFFFAOYSA-N

>  <csv_name>  (80) 
thumb_site_2_fstein_bulkdock_input_split1000_batch000.csv

>  <fragmenstein_error>  (80) 
None

>  <fragmenstein_mode>  (80) 
expansion

>  <ref_pdb>  (80) 
d0176a

>  <exports>  (80) 
['/opt/xchem-fragalysis-2/maxwin/BulkDock/OUTPUTS/thumb_site_2_fstein_bulkdock_input_split1000_batch000_217914.sdf']

>  <SLURM_JOB_ID>  (80) 
217914

>  <HIPPO Pose ID>  (80) 
78515

>  <energy_score>  (80) 
-43.03219

>  <fragmenstein_runtime>  (80) 
4.984286

>  <original SMILES>  (80) 
CNS(=O)(=O)Cc1ccc(Nc2ccc(NC(C)=O)cc2)cc1

>  <scratch_subdir>  (80) 
/opt/xchem-fragalysis-2/maxwin/BulkDock/SCRATCH/217914/C68774-P18

>  <HIPPO Compound ID>  (80) 
68774

>  <fragmenstein_outcome>  (80) 
acceptable

>  <SLURM_JOB_NAME>  (80) 
BulkDock.place:Flavi_NS5_RdRp:thumb_site_2_fstein_bulkdock_input_split1000_batch000

>  <distance_score>  (80) 
0.810195

>  <ref_mols>  (80) 
d0176a,d0249a

>  <tags>  (80) 
['Fragmenstein placed']

$$$$
78516
     RDKit          3D

 23 24  0  0  0  0  0  0  0  0999 V2000
  -15.4320  -70.4677  -21.4727 C   0  0  0  0  0  0  0  0  0  0  0  0
  -14.2834  -71.0637  -22.1399 N   0  0  0  0  0  0  0  0  0  0  0  0
  -13.0216  -71.6811  -21.2174 S   0  0  0  0  0  0  0  0  0  0  0  0
  -12.2685  -72.5086  -22.1348 O   0  0  0  0  0  0  0  0  0  0  0  0
  -13.5897  -72.2218  -20.0009 O   0  0  0  0  0  0  0  0  0  0  0  0
  -12.1018  -70.1819  -20.8489 C   0  0  0  0  0  0  0  0  0  0  0  0
  -10.7529  -70.5343  -20.2808 C   0  0  0  0  0  0  0  0  0  0  0  0
  -10.5948  -70.8892  -18.9355 C   0  0  0  0  0  0  0  0  0  0  0  0
   -9.3300  -71.2218  -18.4340 C   0  0  0  0  0  0  0  0  0  0  0  0
   -8.1986  -71.1771  -19.2551 C   0  0  0  0  0  0  0  0  0  0  0  0
   -6.9362  -71.5385  -18.7245 N   0  0  0  0  0  0  0  0  0  0  0  0
   -5.6721  -71.0548  -19.1479 C   0  0  0  0  0  0  0  0  0  0  0  0
   -5.5247  -69.7819  -19.7056 C   0  0  0  0  0  0  0  0  0  0  0  0
   -4.2717  -69.2631  -20.0266 C   0  0  0  0  0  0  0  0  0  0  0  0
   -3.1229  -69.9904  -19.7373 C   0  0  0  0  0  0  0  0  0  0  0  0
   -1.8927  -69.3685  -19.9282 N   0  0  0  0  0  0  0  0  0  0  0  0
   -0.4461  -69.9072  -19.7273 C   0  0  0  0  0  0  0  0  0  0  0  0
    0.4755  -68.7809  -20.1351 C   0  0  0  0  0  0  0  0  0  0  0  0
   -0.0707  -70.9279  -19.2982 O   0  0  0  0  0  0  0  0  0  0  0  0
   -3.2409  -71.2602  -19.1795 C   0  0  0  0  0  0  0  0  0  0  0  0
   -4.5082  -71.7820  -18.8748 C   0  0  0  0  0  0  0  0  0  0  0  0
   -8.3723  -70.8628  -20.6038 C   0  0  0  0  0  0  0  0  0  0  0  0
   -9.6254  -70.5261  -21.1088 C   0  0  0  0  0  0  0  0  0  0  0  0
  1  2  1  0
  2  3  1  0
  3  4  2  0
  3  5  2  0
  3  6  1  0
  6  7  1  0
  7  8  2  0
  8  9  1  0
  9 10  2  0
 10 11  1  0
 11 12  1  0
 12 13  2  0
 13 14  1  0
 14 15  2  0
 15 16  1  0
 16 17  1  0
 17 18  1  0
 17 19  2  0
 15 20  1  0
 20 21  2  0
 10 22  1  0
 22 23  2  0
 23  7  1  0
 21 12  1  0
M  END
>  <inchikey>  (81) 
KWOALRMZHLDTRX-UHFFFAOYSA-N

>  <alias>  (81) 
None

>  <name>  (81) 
KWOALRMZHLDTRX-UHFFFAOYSA-N

>  <original ID>  (81) 
KWOALRMZHLDTRX-UHFFFAOYSA-N

>  <csv_name>  (81) 
thumb_site_2_fstein_bulkdock_input_split1000_batch000.csv

>  <fragmenstein_error>  (81) 
None

>  <fragmenstein_mode>  (81) 
expansion

>  <ref_pdb>  (81) 
d0249a

>  <exports>  (81) 
['/opt/xchem-fragalysis-2/maxwin/BulkDock/OUTPUTS/thumb_site_2_fstein_bulkdock_input_split1000_batch000_217914.sdf']

>  <SLURM_JOB_ID>  (81) 
217914

>  <HIPPO Pose ID>  (81) 
78516

>  <energy_score>  (81) 
-43.520431

>  <fragmenstein_runtime>  (81) 
5.964484

>  <original SMILES>  (81) 
CNS(=O)(=O)Cc1ccc(Nc2ccc(NC(C)=O)cc2)cc1

>  <scratch_subdir>  (81) 
/opt/xchem-fragalysis-2/maxwin/BulkDock/SCRATCH/217914/C68774-P23

>  <HIPPO Compound ID>  (81) 
68774

>  <fragmenstein_outcome>  (81) 
acceptable

>  <SLURM_JOB_NAME>  (81) 
BulkDock.place:Flavi_NS5_RdRp:thumb_site_2_fstein_bulkdock_input_split1000_batch000

>  <distance_score>  (81) 
0.791227

>  <ref_mols>  (81) 
d0176a,d0249a

>  <tags>  (81) 
['Fragmenstein placed']

$$$$
78531
     RDKit          3D

 20 21  0  0  0  0  0  0  0  0999 V2000
  -13.0193  -69.7347  -20.3136 C   0  0  0  0  0  0  0  0  0  0  0  0
  -11.9051  -70.1116  -21.1140 O   0  0  0  0  0  0  0  0  0  0  0  0
  -10.7691  -70.4891  -20.4540 C   0  0  0  0  0  0  0  0  0  0  0  0
  -10.6496  -70.7006  -19.0801 C   0  0  0  0  0  0  0  0  0  0  0  0
   -9.4198  -71.0865  -18.5343 C   0  0  0  0  0  0  0  0  0  0  0  0
   -8.2990  -71.2472  -19.3574 C   0  0  0  0  0  0  0  0  0  0  0  0
   -7.0059  -71.6280  -18.7335 C   0  0  0  0  0  0  0  0  0  0  0  0
   -7.0206  -72.3841  -17.7646 O   0  0  0  0  0  0  0  0  0  0  0  0
   -5.7060  -71.0717  -19.1982 C   0  0  0  0  0  0  0  0  0  0  0  0
   -5.6229  -69.8028  -19.7724 C   0  0  0  0  0  0  0  0  0  0  0  0
   -4.3819  -69.2491  -20.0930 C   0  0  0  0  0  0  0  0  0  0  0  0
   -3.2080  -69.9567  -19.8396 C   0  0  0  0  0  0  0  0  0  0  0  0
   -1.9910  -69.3212  -20.0768 N   0  0  0  0  0  0  0  0  0  0  0  0
   -0.5320  -69.8075  -19.8313 C   0  0  0  0  0  0  0  0  0  0  0  0
    0.3612  -68.6263  -20.1342 C   0  0  0  0  0  0  0  0  0  0  0  0
   -0.1301  -70.8428  -19.4655 O   0  0  0  0  0  0  0  0  0  0  0  0
   -3.2834  -71.2369  -19.2942 C   0  0  0  0  0  0  0  0  0  0  0  0
   -4.5284  -71.7881  -18.9613 C   0  0  0  0  0  0  0  0  0  0  0  0
   -8.4276  -71.0701  -20.7354 C   0  0  0  0  0  0  0  0  0  0  0  0
   -9.6562  -70.6841  -21.2763 C   0  0  0  0  0  0  0  0  0  0  0  0
  1  2  1  0
  2  3  1  0
  3  4  2  0
  4  5  1  0
  5  6  2  0
  6  7  1  0
  7  8  2  0
  7  9  1  0
  9 10  2  0
 10 11  1  0
 11 12  2  0
 12 13  1  0
 13 14  1  0
 14 15  1  0
 14 16  2  0
 12 17  1  0
 17 18  2  0
  6 19  1  0
 19 20  2  0
 20  3  1  0
 18  9  1  0
M  END
>  <inchikey>  (82) 
HEVLHYOMJRCYDO-UHFFFAOYSA-N

>  <alias>  (82) 
None

>  <name>  (82) 
HEVLHYOMJRCYDO-UHFFFAOYSA-N

>  <original ID>  (82) 
HEVLHYOMJRCYDO-UHFFFAOYSA-N

>  <csv_name>  (82) 
thumb_site_2_fstein_bulkdock_input_split1000_batch000.csv

>  <fragmenstein_error>  (82) 
None

>  <fragmenstein_mode>  (82) 
expansion

>  <ref_pdb>  (82) 
d0249a

>  <exports>  (82) 
['/opt/xchem-fragalysis-2/maxwin/BulkDock/OUTPUTS/thumb_site_2_fstein_bulkdock_input_split1000_batch000_217914.sdf']

>  <SLURM_JOB_ID>  (82) 
217914

>  <HIPPO Pose ID>  (82) 
78531

>  <energy_score>  (82) 
-34.823461

>  <fragmenstein_runtime>  (82) 
4.691224

>  <original SMILES>  (82) 
COc1ccc(C(=O)c2ccc(NC(C)=O)cc2)cc1

>  <scratch_subdir>  (82) 
/opt/xchem-fragalysis-2/maxwin/BulkDock/SCRATCH/217914/C68783-P23

>  <HIPPO Compound ID>  (82) 
68783

>  <fragmenstein_outcome>  (82) 
acceptable

>  <SLURM_JOB_NAME>  (82) 
BulkDock.place:Flavi_NS5_RdRp:thumb_site_2_fstein_bulkdock_input_split1000_batch000

>  <distance_score>  (82) 
0.535452

>  <ref_mols>  (82) 
d0249a,d0503a

>  <tags>  (82) 
['Fragmenstein placed']

$$$$
78532
     RDKit          3D

 20 21  0  0  0  0  0  0  0  0999 V2000
  -12.9171  -69.4238  -20.4252 C   0  0  0  0  0  0  0  0  0  0  0  0
  -11.8344  -69.9357  -21.1920 O   0  0  0  0  0  0  0  0  0  0  0  0
  -10.7376  -70.3686  -20.5008 C   0  0  0  0  0  0  0  0  0  0  0  0
  -10.6519  -70.5354  -19.1181 C   0  0  0  0  0  0  0  0  0  0  0  0
   -9.4563  -70.9718  -18.5363 C   0  0  0  0  0  0  0  0  0  0  0  0
   -8.3373  -71.2291  -19.3350 C   0  0  0  0  0  0  0  0  0  0  0  0
   -7.0759  -71.6501  -18.6825 C   0  0  0  0  0  0  0  0  0  0  0  0
   -7.1419  -72.4465  -17.7489 O   0  0  0  0  0  0  0  0  0  0  0  0
   -5.7543  -71.0771  -19.0594 C   0  0  0  0  0  0  0  0  0  0  0  0
   -5.6376  -69.8003  -19.6128 C   0  0  0  0  0  0  0  0  0  0  0  0
   -4.3806  -69.2110  -19.7851 C   0  0  0  0  0  0  0  0  0  0  0  0
   -3.2281  -69.9022  -19.4118 C   0  0  0  0  0  0  0  0  0  0  0  0
   -2.0027  -69.2456  -19.4698 N   0  0  0  0  0  0  0  0  0  0  0  0
   -0.5626  -69.7665  -19.1879 C   0  0  0  0  0  0  0  0  0  0  0  0
    0.3722  -68.6098  -19.4553 C   0  0  0  0  0  0  0  0  0  0  0  0
   -0.1963  -70.8035  -18.7903 O   0  0  0  0  0  0  0  0  0  0  0  0
   -3.3345  -71.2015  -18.9184 C   0  0  0  0  0  0  0  0  0  0  0  0
   -4.5936  -71.7818  -18.7281 C   0  0  0  0  0  0  0  0  0  0  0  0
   -8.4365  -71.1116  -20.7197 C   0  0  0  0  0  0  0  0  0  0  0  0
   -9.6304  -70.6729  -21.2967 C   0  0  0  0  0  0  0  0  0  0  0  0
  1  2  1  0
  2  3  1  0
  3  4  2  0
  4  5  1  0
  5  6  2  0
  6  7  1  0
  7  8  2  0
  7  9  1  0
  9 10  2  0
 10 11  1  0
 11 12  2  0
 12 13  1  0
 13 14  1  0
 14 15  1  0
 14 16  2  0
 12 17  1  0
 17 18  2  0
  6 19  1  0
 19 20  2  0
 20  3  1  0
 18  9  1  0
M  END
>  <inchikey>  (83) 
HEVLHYOMJRCYDO-UHFFFAOYSA-N

>  <alias>  (83) 
None

>  <name>  (83) 
HEVLHYOMJRCYDO-UHFFFAOYSA-N

>  <original ID>  (83) 
HEVLHYOMJRCYDO-UHFFFAOYSA-N

>  <csv_name>  (83) 
thumb_site_2_fstein_bulkdock_input_split1000_batch000.csv

>  <fragmenstein_error>  (83) 
None

>  <fragmenstein_mode>  (83) 
expansion

>  <ref_pdb>  (83) 
d0503a

>  <exports>  (83) 
['/opt/xchem-fragalysis-2/maxwin/BulkDock/OUTPUTS/thumb_site_2_fstein_bulkdock_input_split1000_batch000_217914.sdf']

>  <SLURM_JOB_ID>  (83) 
217914

>  <HIPPO Pose ID>  (83) 
78532

>  <energy_score>  (83) 
-34.177038

>  <fragmenstein_runtime>  (83) 
6.074934

>  <original SMILES>  (83) 
COc1ccc(C(=O)c2ccc(NC(C)=O)cc2)cc1

>  <scratch_subdir>  (83) 
/opt/xchem-fragalysis-2/maxwin/BulkDock/SCRATCH/217914/C68783-P44

>  <HIPPO Compound ID>  (83) 
68783

>  <fragmenstein_outcome>  (83) 
acceptable

>  <SLURM_JOB_NAME>  (83) 
BulkDock.place:Flavi_NS5_RdRp:thumb_site_2_fstein_bulkdock_input_split1000_batch000

>  <distance_score>  (83) 
0.80079

>  <ref_mols>  (83) 
d0249a,d0503a

>  <tags>  (83) 
['Fragmenstein placed']

$$$$
78535
     RDKit          3D

 21 22  0  0  0  0  0  0  0  0999 V2000
  -13.7003  -68.8182  -21.0374 C   0  0  0  0  0  0  0  0  0  0  0  0
  -12.6731  -69.7958  -21.5194 C   0  0  0  0  0  0  0  0  0  0  0  0
  -12.2961  -69.9091  -22.6760 O   0  0  0  0  0  0  0  0  0  0  0  0
  -12.1680  -70.7812  -20.5226 C   0  0  0  0  0  0  0  0  0  0  0  0
  -10.7653  -70.7993  -20.0841 C   0  0  0  0  0  0  0  0  0  0  0  0
   -9.7268  -70.4404  -20.9381 C   0  0  0  0  0  0  0  0  0  0  0  0
   -8.3984  -70.6343  -20.5381 C   0  0  0  0  0  0  0  0  0  0  0  0
   -8.0808  -71.2026  -19.2985 C   0  0  0  0  0  0  0  0  0  0  0  0
   -6.7580  -71.4797  -18.8941 N   0  0  0  0  0  0  0  0  0  0  0  0
   -5.5104  -70.9890  -19.3176 C   0  0  0  0  0  0  0  0  0  0  0  0
   -5.3408  -69.7201  -19.8691 C   0  0  0  0  0  0  0  0  0  0  0  0
   -4.0808  -69.2593  -20.2567 C   0  0  0  0  0  0  0  0  0  0  0  0
   -2.9585  -70.0582  -20.0756 C   0  0  0  0  0  0  0  0  0  0  0  0
   -3.0992  -71.3158  -19.5004 C   0  0  0  0  0  0  0  0  0  0  0  0
   -4.3647  -71.7741  -19.1220 C   0  0  0  0  0  0  0  0  0  0  0  0
   -9.1361  -71.5088  -18.4170 C   0  0  0  0  0  0  0  0  0  0  0  0
   -8.8714  -72.1530  -17.0840 C   0  0  0  0  0  0  0  0  0  0  0  0
  -10.4665  -71.2963  -18.8133 C   0  0  0  0  0  0  0  0  0  0  0  0
  -13.3191  -71.9441  -19.9457 S   0  0  2  0  0  6  0  0  0  0  0  0
  -14.4728  -72.3053  -21.1152 N   0  0  0  0  0  0  0  0  0  0  0  0
  -14.0756  -70.9992  -18.8258 O   0  0  0  0  0  0  0  0  0  0  0  0
  1  2  1  0
  2  3  2  0
  2  4  1  0
  4  5  1  0
  5  6  2  0
  6  7  1  0
  7  8  2  0
  8  9  1  0
  9 10  1  0
 10 11  2  0
 11 12  1  0
 12 13  2  0
 13 14  1  0
 14 15  2  0
  8 16  1  0
 16 17  1  0
 16 18  2  0
  4 19  2  0
 19 20  1  6
 19 21  2  0
 18  5  1  0
 15 10  1  0
M  END
>  <inchikey>  (84) 
OQXUHPVDMVWKOG-UHFFFAOYSA-N

>  <alias>  (84) 
None

>  <name>  (84) 
OQXUHPVDMVWKOG-UHFFFAOYSA-N

>  <original ID>  (84) 
OQXUHPVDMVWKOG-UHFFFAOYSA-N

>  <csv_name>  (84) 
thumb_site_2_fstein_bulkdock_input_split1000_batch000.csv

>  <fragmenstein_error>  (84) 
None

>  <fragmenstein_mode>  (84) 
expansion

>  <ref_pdb>  (84) 
d0249a

>  <exports>  (84) 
['/opt/xchem-fragalysis-2/maxwin/BulkDock/OUTPUTS/thumb_site_2_fstein_bulkdock_input_split1000_batch000_217914.sdf']

>  <SLURM_JOB_ID>  (84) 
217914

>  <HIPPO Pose ID>  (84) 
78535

>  <energy_score>  (84) 
-68.576638

>  <fragmenstein_runtime>  (84) 
6.115103

>  <original SMILES>  (84) 
CC(=O)/C(c1ccc(Nc2ccccc2)c(C)c1)=[S@H](\N)=O

>  <scratch_subdir>  (84) 
/opt/xchem-fragalysis-2/maxwin/BulkDock/SCRATCH/217914/C68784-P23

>  <HIPPO Compound ID>  (84) 
68784

>  <fragmenstein_outcome>  (84) 
acceptable

>  <SLURM_JOB_NAME>  (84) 
BulkDock.place:Flavi_NS5_RdRp:thumb_site_2_fstein_bulkdock_input_split1000_batch000

>  <distance_score>  (84) 
0.881204

>  <ref_mols>  (84) 
d0249a,d0566a

>  <tags>  (84) 
['Fragmenstein placed']

$$$$
78538
     RDKit          3D

 21 22  0  0  0  0  0  0  0  0999 V2000
  -13.6989  -68.7897  -20.9295 C   0  0  0  0  0  0  0  0  0  0  0  0
  -12.6400  -69.7197  -21.4367 C   0  0  0  0  0  0  0  0  0  0  0  0
  -12.2331  -69.7623  -22.5879 O   0  0  0  0  0  0  0  0  0  0  0  0
  -12.1319  -70.7435  -20.4792 C   0  0  0  0  0  0  0  0  0  0  0  0
  -10.7296  -70.7755  -20.0400 C   0  0  0  0  0  0  0  0  0  0  0  0
   -9.6928  -70.3759  -20.8781 C   0  0  0  0  0  0  0  0  0  0  0  0
   -8.3641  -70.5797  -20.4868 C   0  0  0  0  0  0  0  0  0  0  0  0
   -8.0440  -71.1908  -19.2693 C   0  0  0  0  0  0  0  0  0  0  0  0
   -6.7197  -71.5195  -18.9009 N   0  0  0  0  0  0  0  0  0  0  0  0
   -5.4828  -70.9586  -19.2770 C   0  0  0  0  0  0  0  0  0  0  0  0
   -5.3476  -69.6220  -19.6504 C   0  0  0  0  0  0  0  0  0  0  0  0
   -4.1034  -69.0622  -19.9497 C   0  0  0  0  0  0  0  0  0  0  0  0
   -2.9576  -69.8424  -19.8602 C   0  0  0  0  0  0  0  0  0  0  0  0
   -3.0619  -71.1723  -19.4616 C   0  0  0  0  0  0  0  0  0  0  0  0
   -4.3137  -71.7216  -19.1631 C   0  0  0  0  0  0  0  0  0  0  0  0
   -9.0957  -71.5466  -18.4047 C   0  0  0  0  0  0  0  0  0  0  0  0
   -8.8173  -72.2421  -17.1012 C   0  0  0  0  0  0  0  0  0  0  0  0
  -10.4278  -71.3255  -18.7914 C   0  0  0  0  0  0  0  0  0  0  0  0
  -13.2796  -71.9366  -19.9573 S   0  0  2  0  0  6  0  0  0  0  0  0
  -14.3811  -72.2993  -21.1795 N   0  0  0  0  0  0  0  0  0  0  0  0
  -14.0892  -71.0219  -18.8494 O   0  0  0  0  0  0  0  0  0  0  0  0
  1  2  1  0
  2  3  2  0
  2  4  1  0
  4  5  1  0
  5  6  2  0
  6  7  1  0
  7  8  2  0
  8  9  1  0
  9 10  1  0
 10 11  2  0
 11 12  1  0
 12 13  2  0
 13 14  1  0
 14 15  2  0
  8 16  1  0
 16 17  1  0
 16 18  2  0
  4 19  2  0
 19 20  1  6
 19 21  2  0
 18  5  1  0
 15 10  1  0
M  END
>  <inchikey>  (85) 
OQXUHPVDMVWKOG-UHFFFAOYSA-N

>  <alias>  (85) 
None

>  <name>  (85) 
OQXUHPVDMVWKOG-UHFFFAOYSA-N

>  <original ID>  (85) 
OQXUHPVDMVWKOG-UHFFFAOYSA-N

>  <csv_name>  (85) 
thumb_site_2_fstein_bulkdock_input_split1000_batch000.csv

>  <fragmenstein_error>  (85) 
None

>  <fragmenstein_mode>  (85) 
expansion

>  <ref_pdb>  (85) 
d0566a

>  <exports>  (85) 
['/opt/xchem-fragalysis-2/maxwin/BulkDock/OUTPUTS/thumb_site_2_fstein_bulkdock_input_split1000_batch000_217914.sdf']

>  <SLURM_JOB_ID>  (85) 
217914

>  <HIPPO Pose ID>  (85) 
78538

>  <energy_score>  (85) 
-68.097273

>  <fragmenstein_runtime>  (85) 
6.966821

>  <original SMILES>  (85) 
CC(=O)/C(c1ccc(Nc2ccccc2)c(C)c1)=[S@H](\N)=O

>  <scratch_subdir>  (85) 
/opt/xchem-fragalysis-2/maxwin/BulkDock/SCRATCH/217914/C68784-P45

>  <HIPPO Compound ID>  (85) 
68784

>  <fragmenstein_outcome>  (85) 
acceptable

>  <SLURM_JOB_NAME>  (85) 
BulkDock.place:Flavi_NS5_RdRp:thumb_site_2_fstein_bulkdock_input_split1000_batch000

>  <distance_score>  (85) 
0.870992

>  <ref_mols>  (85) 
d0249a,d0566a

>  <tags>  (85) 
['Fragmenstein placed']

$$$$
78557
     RDKit          3D

 26 28  0  0  0  0  0  0  0  0999 V2000
    0.3530  -68.4891  -20.2119 C   0  0  0  0  0  0  0  0  0  0  0  0
   -0.5123  -69.7201  -20.0981 C   0  0  0  0  0  0  0  0  0  0  0  0
   -0.0853  -70.8028  -19.9845 O   0  0  0  0  0  0  0  0  0  0  0  0
   -1.9846  -69.2134  -20.1186 N   0  0  0  0  0  0  0  0  0  0  0  0
   -3.1789  -69.8988  -19.9159 C   0  0  0  0  0  0  0  0  0  0  0  0
   -4.3797  -69.2017  -20.0265 C   0  0  0  0  0  0  0  0  0  0  0  0
   -5.5868  -69.8111  -19.6769 C   0  0  0  0  0  0  0  0  0  0  0  0
   -5.6244  -71.1390  -19.2567 C   0  0  0  0  0  0  0  0  0  0  0  0
   -6.8845  -71.8401  -18.8107 C   0  0  0  0  0  0  0  0  0  0  0  0
   -8.2672  -71.3151  -19.2656 C   0  0  2  0  0  0  0  0  0  0  0  0
   -9.3485  -72.2326  -18.6503 C   0  0  0  0  0  0  0  0  0  0  0  0
  -10.5294  -72.5397  -19.5726 C   0  0  0  0  0  0  0  0  0  0  0  0
  -11.0092  -71.3181  -20.3692 C   0  0  1  0  0  0  0  0  0  0  0  0
  -12.1838  -71.7042  -21.3165 C   0  0  0  0  0  0  0  0  0  0  0  0
  -13.5586  -71.6857  -20.6387 C   0  0  0  0  0  0  0  0  0  0  0  0
  -13.9024  -70.3101  -20.0250 C   0  0  2  0  0  0  0  0  0  0  0  0
  -15.0642  -69.5801  -20.7412 C   0  0  2  0  0  0  0  0  0  0  0  0
  -14.7862  -69.2351  -22.2045 C   0  0  0  0  0  0  0  0  0  0  0  0
  -15.3789  -68.3521  -20.0022 N   0  0  0  0  0  0  0  0  0  0  0  0
  -12.6418  -69.4380  -19.9066 C   0  0  0  0  0  0  0  0  0  0  0  0
  -11.4926  -70.2603  -19.3526 C   0  0  0  0  0  0  0  0  0  0  0  0
   -9.8319  -70.7726  -21.2338 C   0  0  0  0  0  0  0  0  0  0  0  0
   -8.4182  -71.1810  -20.7847 C   0  0  2  0  0  0  0  0  0  0  0  0
   -8.0704  -72.4137  -21.4037 O   0  0  0  0  0  0  0  0  0  0  0  0
   -4.4111  -71.8406  -19.1830 C   0  0  0  0  0  0  0  0  0  0  0  0
   -3.1982  -71.2284  -19.5131 C   0  0  0  0  0  0  0  0  0  0  0  0
  1  2  1  0
  2  3  2  0
  2  4  1  0
  4  5  1  0
  5  6  2  0
  6  7  1  0
  7  8  2  0
  8  9  1  0
 10  9  1  6
 10 11  1  0
 11 12  1  0
 13 12  1  1
 13 14  1  0
 14 15  1  0
 16 15  1  6
 16 17  1  0
 17 18  1  6
 17 19  1  0
 16 20  1  0
 20 21  1  0
 13 22  1  0
 22 23  1  0
 23 24  1  6
  8 25  1  0
 25 26  2  0
 26  5  1  0
 23 10  1  0
 21 13  1  0
M  END
>  <inchikey>  (86) 
LGKHSRYEGMCAEZ-PJMHPDBPSA-N

>  <alias>  (86) 
None

>  <name>  (86) 
LGKHSRYEGMCAEZ-PJMHPDBPSA-N

>  <original ID>  (86) 
LGKHSRYEGMCAEZ-PJMHPDBPSA-N

>  <csv_name>  (86) 
thumb_site_2_fstein_bulkdock_input_split1000_batch000.csv

>  <fragmenstein_error>  (86) 
None

>  <fragmenstein_mode>  (86) 
expansion

>  <ref_pdb>  (86) 
d0249a

>  <exports>  (86) 
['/opt/xchem-fragalysis-2/maxwin/BulkDock/OUTPUTS/thumb_site_2_fstein_bulkdock_input_split1000_batch000_217914.sdf']

>  <SLURM_JOB_ID>  (86) 
217914

>  <HIPPO Pose ID>  (86) 
78557

>  <energy_score>  (86) 
-62.282317

>  <fragmenstein_runtime>  (86) 
52.459832

>  <original SMILES>  (86) 
CC(=O)Nc1ccc(C[C@@H]2CC[C@]3(CC[C@H]([C@H](C)N)CC3)C[C@@H]2O)cc1

>  <scratch_subdir>  (86) 
/opt/xchem-fragalysis-2/maxwin/BulkDock/SCRATCH/217914/C68788-P23

>  <HIPPO Compound ID>  (86) 
68788

>  <fragmenstein_outcome>  (86) 
acceptable

>  <SLURM_JOB_NAME>  (86) 
BulkDock.place:Flavi_NS5_RdRp:thumb_site_2_fstein_bulkdock_input_split1000_batch000

>  <distance_score>  (86) 
0.919855

>  <ref_mols>  (86) 
d0249a,d0644a

>  <tags>  (86) 
['Fragmenstein placed']

$$$$
78569
     RDKit          3D

 18 19  0  0  0  0  0  0  0  0999 V2000
    0.3757  -68.5275  -20.1626 C   0  0  0  0  0  0  0  0  0  0  0  0
   -0.5038  -69.7391  -19.9654 C   0  0  0  0  0  0  0  0  0  0  0  0
   -0.0905  -70.7987  -19.6934 O   0  0  0  0  0  0  0  0  0  0  0  0
   -1.9687  -69.2446  -20.1501 N   0  0  0  0  0  0  0  0  0  0  0  0
   -3.1777  -69.9061  -19.9517 C   0  0  0  0  0  0  0  0  0  0  0  0
   -4.3600  -69.1923  -20.1034 C   0  0  0  0  0  0  0  0  0  0  0  0
   -5.5846  -69.7851  -19.7846 C   0  0  0  0  0  0  0  0  0  0  0  0
   -5.6755  -71.1055  -19.3261 C   0  0  0  0  0  0  0  0  0  0  0  0
   -6.9358  -71.6495  -18.9192 N   0  0  0  0  0  0  0  0  0  0  0  0
   -6.9292  -72.7846  -18.0859 N   0  0  0  0  0  0  0  0  0  0  0  0
   -8.2336  -71.2437  -19.3618 C   0  0  0  0  0  0  0  0  0  0  0  0
   -9.3344  -71.2600  -18.4869 C   0  0  0  0  0  0  0  0  0  0  0  0
  -10.6054  -70.8608  -18.9122 C   0  0  0  0  0  0  0  0  0  0  0  0
  -10.8043  -70.4593  -20.2302 C   0  0  0  0  0  0  0  0  0  0  0  0
   -9.7343  -70.4557  -21.1197 C   0  0  0  0  0  0  0  0  0  0  0  0
   -8.4644  -70.8442  -20.6862 C   0  0  0  0  0  0  0  0  0  0  0  0
   -4.4706  -71.8221  -19.2270 C   0  0  0  0  0  0  0  0  0  0  0  0
   -3.2354  -71.2316  -19.5376 C   0  0  0  0  0  0  0  0  0  0  0  0
  1  2  1  0
  2  3  2  0
  2  4  1  0
  4  5  1  0
  5  6  2  0
  6  7  1  0
  7  8  2  0
  8  9  1  0
  9 10  1  0
  9 11  1  0
 11 12  2  0
 12 13  1  0
 13 14  2  0
 14 15  1  0
 15 16  2  0
  8 17  1  0
 17 18  2  0
 18  5  1  0
 16 11  1  0
M  END
>  <inchikey>  (87) 
OXSUNYASGXJSAK-UHFFFAOYSA-N

>  <alias>  (87) 
None

>  <name>  (87) 
OXSUNYASGXJSAK-UHFFFAOYSA-N

>  <original ID>  (87) 
OXSUNYASGXJSAK-UHFFFAOYSA-N

>  <csv_name>  (87) 
thumb_site_2_fstein_bulkdock_input_split1000_batch000.csv

>  <fragmenstein_error>  (87) 
None

>  <fragmenstein_mode>  (87) 
expansion

>  <ref_pdb>  (87) 
d0249a

>  <exports>  (87) 
['/opt/xchem-fragalysis-2/maxwin/BulkDock/OUTPUTS/thumb_site_2_fstein_bulkdock_input_split1000_batch000_217914.sdf']

>  <SLURM_JOB_ID>  (87) 
217914

>  <HIPPO Pose ID>  (87) 
78569

>  <energy_score>  (87) 
-24.866944

>  <fragmenstein_runtime>  (87) 
4.957763

>  <original SMILES>  (87) 
CC(=O)Nc1ccc(N(N)c2ccccc2)cc1

>  <scratch_subdir>  (87) 
/opt/xchem-fragalysis-2/maxwin/BulkDock/SCRATCH/217914/C68789-P23

>  <HIPPO Compound ID>  (87) 
68789

>  <fragmenstein_outcome>  (87) 
acceptable

>  <SLURM_JOB_NAME>  (87) 
BulkDock.place:Flavi_NS5_RdRp:thumb_site_2_fstein_bulkdock_input_split1000_batch000

>  <distance_score>  (87) 
0.948072

>  <ref_mols>  (87) 
d0249a,d0693a

>  <tags>  (87) 
['Fragmenstein placed']

$$$$
78576
     RDKit          3D

 33 36  0  0  0  0  0  0  0  0999 V2000
    0.4257  -68.5796  -20.0887 C   0  0  0  0  0  0  0  0  0  0  0  0
   -0.4604  -69.7925  -19.9268 C   0  0  0  0  0  0  0  0  0  0  0  0
   -0.0530  -70.8698  -19.7253 O   0  0  0  0  0  0  0  0  0  0  0  0
   -1.9233  -69.2754  -20.0575 N   0  0  0  0  0  0  0  0  0  0  0  0
   -3.1347  -69.9370  -19.8788 C   0  0  0  0  0  0  0  0  0  0  0  0
   -4.3120  -69.2266  -20.0901 C   0  0  0  0  0  0  0  0  0  0  0  0
   -5.5451  -69.8085  -19.7930 C   0  0  0  0  0  0  0  0  0  0  0  0
   -5.6380  -71.1212  -19.3262 C   0  0  0  0  0  0  0  0  0  0  0  0
   -6.8658  -71.6761  -18.8921 N   0  0  0  0  0  0  0  0  0  0  0  0
   -8.1622  -71.2424  -19.2468 C   0  0  0  0  0  0  0  0  0  0  0  0
   -9.1534  -71.2283  -18.2637 C   0  0  0  0  0  0  0  0  0  0  0  0
  -10.4517  -70.8191  -18.5714 C   0  0  0  0  0  0  0  0  0  0  0  0
  -10.7935  -70.4444  -19.8749 C   0  0  0  0  0  0  0  0  0  0  0  0
  -12.1288  -70.0779  -20.1407 N   0  0  0  0  0  0  0  0  0  0  0  0
  -12.4620  -69.5599  -21.3945 O   0  0  0  0  0  0  0  0  0  0  0  0
  -13.5831  -70.2078  -21.8497 C   0  0  0  0  0  0  0  0  0  0  0  0
  -13.4034  -71.1475  -22.8675 C   0  0  0  0  0  0  0  0  0  0  0  0
  -14.5081  -71.7953  -23.4167 C   0  0  0  0  0  0  0  0  0  0  0  0
  -15.7827  -71.5132  -22.9476 C   0  0  0  0  0  0  0  0  0  0  0  0
  -15.9714  -70.5636  -21.9341 C   0  0  0  0  0  0  0  0  0  0  0  0
  -14.8681  -69.9064  -21.3874 C   0  0  0  0  0  0  0  0  0  0  0  0
  -15.1696  -68.6252  -20.0236 Br  0  0  0  0  0  0  0  0  0  0  0  0
  -16.9338  -72.2482  -23.4880 C   0  0  0  0  0  0  0  0  0  0  0  0
  -18.0605  -72.0880  -23.0430 O   0  0  0  0  0  0  0  0  0  0  0  0
  -16.6535  -73.1304  -24.4665 O   0  0  0  0  0  0  0  0  0  0  0  0
  -15.4169  -73.0235  -25.1863 C   0  0  0  0  0  0  0  0  0  0  0  0
  -15.1522  -74.4077  -25.7814 C   0  0  0  0  0  0  0  0  0  0  0  0
  -15.5741  -72.0069  -26.3232 C   0  0  0  0  0  0  0  0  0  0  0  0
  -14.2640  -72.7005  -24.4018 O   0  0  0  0  0  0  0  0  0  0  0  0
   -9.8282  -70.5554  -20.8778 C   0  0  0  0  0  0  0  0  0  0  0  0
   -8.5237  -70.9501  -20.5650 C   0  0  0  0  0  0  0  0  0  0  0  0
   -4.4463  -71.8281  -19.1270 C   0  0  0  0  0  0  0  0  0  0  0  0
   -3.2028  -71.2466  -19.4137 C   0  0  0  0  0  0  0  0  0  0  0  0
  1  2  1  0
  2  3  2  0
  2  4  1  0
  4  5  1  0
  5  6  2  0
  6  7  1  0
  7  8  2  0
  8  9  1  0
  9 10  1  0
 10 11  2  0
 11 12  1  0
 12 13  2  0
 13 14  1  0
 14 15  1  0
 15 16  1  0
 16 17  2  0
 17 18  1  0
 18 19  2  0
 19 20  1  0
 20 21  2  0
 21 22  1  0
 19 23  1  0
 23 24  2  0
 23 25  1  0
 25 26  1  0
 26 27  1  0
 26 28  1  0
 26 29  1  0
 13 30  1  0
 30 31  2  0
  8 32  1  0
 32 33  2  0
 33  5  1  0
 31 10  1  0
 21 16  1  0
 29 18  1  0
M  END
>  <inchikey>  (88) 
ISFYPUDPYZHJOQ-UHFFFAOYSA-N

>  <alias>  (88) 
None

>  <name>  (88) 
ISFYPUDPYZHJOQ-UHFFFAOYSA-N

>  <original ID>  (88) 
ISFYPUDPYZHJOQ-UHFFFAOYSA-N

>  <csv_name>  (88) 
thumb_site_2_fstein_bulkdock_input_split1000_batch000.csv

>  <fragmenstein_error>  (88) 
None

>  <fragmenstein_mode>  (88) 
expansion

>  <ref_pdb>  (88) 
d0249a

>  <exports>  (88) 
['/opt/xchem-fragalysis-2/maxwin/BulkDock/OUTPUTS/thumb_site_2_fstein_bulkdock_input_split1000_batch000_217914.sdf']

>  <SLURM_JOB_ID>  (88) 
217914

>  <HIPPO Pose ID>  (88) 
78576

>  <energy_score>  (88) 
-102.759652

>  <fragmenstein_runtime>  (88) 
19.238413

>  <original SMILES>  (88) 
CC(=O)Nc1ccc(Nc2ccc(NOc3cc4c(cc3Br)C(=O)OC(C)(C)O4)cc2)cc1

>  <scratch_subdir>  (88) 
/opt/xchem-fragalysis-2/maxwin/BulkDock/SCRATCH/217914/C68791-P23

>  <HIPPO Compound ID>  (88) 
68791

>  <fragmenstein_outcome>  (88) 
acceptable

>  <SLURM_JOB_NAME>  (88) 
BulkDock.place:Flavi_NS5_RdRp:thumb_site_2_fstein_bulkdock_input_split1000_batch000

>  <distance_score>  (88) 
0.742415

>  <ref_mols>  (88) 
d0249a,d0759a

>  <tags>  (88) 
['Fragmenstein placed']

$$$$
79588
     RDKit          3D

 28 31  0  0  0  0  0  0  0  0999 V2000
   -6.9036  -74.3939  -17.4632 C   0  0  0  0  0  0  0  0  0  0  0  0
   -5.5458  -73.9490  -17.0652 C   0  0  0  0  0  0  0  0  0  0  0  0
   -5.1200  -74.1332  -15.8109 N   0  0  0  0  0  0  0  0  0  0  0  0
   -3.8898  -73.5869  -15.7920 N   0  0  0  0  0  0  0  0  0  0  0  0
   -3.1666  -73.5370  -14.5420 C   0  0  0  0  0  0  0  0  0  0  0  0
   -3.4800  -73.1029  -17.0124 C   0  0  0  0  0  0  0  0  0  0  0  0
   -2.1641  -72.4545  -17.2279 C   0  0  0  0  0  0  0  0  0  0  0  0
   -4.5577  -73.3017  -17.8446 C   0  0  0  0  0  0  0  0  0  0  0  0
   -4.6510  -72.9119  -19.1366 N   0  0  0  0  0  0  0  0  0  0  0  0
   -5.5914  -71.5185  -19.4455 S   0  0  2  0  0  0  0  0  0  0  0  0
   -6.3426  -71.2519  -18.2409 O   0  0  0  0  0  0  0  0  0  0  0  0
   -6.1701  -71.8020  -20.8179 N   0  0  0  0  0  0  0  0  0  0  0  0
   -7.5710  -72.1791  -20.9856 N   0  0  0  0  0  0  0  0  0  0  0  0
   -7.9217  -73.0369  -21.9894 C   0  0  0  0  0  0  0  0  0  0  0  0
   -9.2047  -72.9809  -22.2600 N   0  0  0  0  0  0  0  0  0  0  0  0
   -9.6955  -72.0496  -21.3770 C   0  0  0  0  0  0  0  0  0  0  0  0
  -11.0154  -71.5896  -21.2558 C   0  0  0  0  0  0  0  0  0  0  0  0
  -11.3451  -70.7124  -20.2232 C   0  0  0  0  0  0  0  0  0  0  0  0
  -10.3690  -70.2843  -19.3339 C   0  0  0  0  0  0  0  0  0  0  0  0
   -9.0290  -70.6642  -19.4869 C   0  0  0  0  0  0  0  0  0  0  0  0
   -8.7070  -71.5612  -20.5176 C   0  0  0  0  0  0  0  0  0  0  0  0
   -4.4252  -70.1875  -19.6466 C   0  0  0  0  0  0  0  0  0  0  0  0
   -4.2669  -69.2627  -18.6128 C   0  0  0  0  0  0  0  0  0  0  0  0
   -3.4273  -68.1623  -18.7773 C   0  0  0  0  0  0  0  0  0  0  0  0
   -2.7427  -67.9966  -19.9768 C   0  0  0  0  0  0  0  0  0  0  0  0
   -2.8780  -68.9426  -20.9859 C   0  0  0  0  0  0  0  0  0  0  0  0
   -2.1996  -68.7731  -22.1272 F   0  0  0  0  0  0  0  0  0  0  0  0
   -3.7145  -70.0427  -20.8389 C   0  0  0  0  0  0  0  0  0  0  0  0
  1  2  1  0
  2  3  2  0
  3  4  1  0
  4  5  1  0
  4  6  1  0
  6  7  1  0
  6  8  2  0
  8  9  1  0
 10  9  1  1
 10 11  2  0
 10 12  2  0
 12 13  1  0
 13 14  1  0
 14 15  2  0
 15 16  1  0
 16 17  2  0
 17 18  1  0
 18 19  2  0
 19 20  1  0
 20 21  2  0
 10 22  1  0
 22 23  2  0
 23 24  1  0
 24 25  2  0
 25 26  1  0
 26 27  1  0
 26 28  2  0
  8  2  1  0
 21 13  1  0
 28 22  1  0
 21 16  1  0
M  END
>  <inchikey>  (89) 
LLRWMCVSJHKREO-NDEPHWFRSA-N

>  <alias>  (89) 
None

>  <name>  (89) 
LLRWMCVSJHKREO-NDEPHWFRSA-N

>  <original ID>  (89) 
LLRWMCVSJHKREO-NDEPHWFRSA-N

>  <csv_name>  (89) 
thumb_site_2_fstein_bulkdock_input_split1000_batch000.csv

>  <fragmenstein_error>  (89) 
None

>  <fragmenstein_mode>  (89) 
expansion

>  <ref_pdb>  (89) 
d0253a

>  <exports>  (89) 
['/opt/xchem-fragalysis-2/maxwin/BulkDock/OUTPUTS/thumb_site_2_fstein_bulkdock_input_split1000_batch000_217914.sdf']

>  <SLURM_JOB_ID>  (89) 
217914

>  <HIPPO Pose ID>  (89) 
79588

>  <energy_score>  (89) 
-58.273662

>  <fragmenstein_runtime>  (89) 
18.910127

>  <original SMILES>  (89) 
Cc1nn(C)c(C)c1N[S@](=O)(=Nn1cnc2ccccc21)c1cccc(F)c1

>  <scratch_subdir>  (89) 
/opt/xchem-fragalysis-2/maxwin/BulkDock/SCRATCH/217914/C68805-P25

>  <HIPPO Compound ID>  (89) 
68805

>  <fragmenstein_outcome>  (89) 
acceptable

>  <SLURM_JOB_NAME>  (89) 
BulkDock.place:Flavi_NS5_RdRp:thumb_site_2_fstein_bulkdock_input_split1000_batch000

>  <distance_score>  (89) 
0.977966

>  <ref_mols>  (89) 
d0249a,d0253a

>  <tags>  (89) 
['Fragmenstein placed']

$$$$
79640
     RDKit          3D

 32 36  0  0  0  0  0  0  0  0999 V2000
   -1.8311  -72.3194  -17.1636 C   0  0  0  0  0  0  0  0  0  0  0  0
   -3.0261  -73.1808  -17.0057 C   0  0  0  0  0  0  0  0  0  0  0  0
   -3.8857  -73.7243  -17.9257 C   0  0  0  0  0  0  0  0  0  0  0  0
   -4.8705  -74.4201  -17.1986 C   0  0  0  0  0  0  0  0  0  0  0  0
   -4.6665  -74.2901  -15.8805 N   0  0  0  0  0  0  0  0  0  0  0  0
   -3.5195  -73.5862  -15.7888 N   0  0  0  0  0  0  0  0  0  0  0  0
   -2.9721  -73.3004  -14.4821 C   0  0  0  0  0  0  0  0  0  0  0  0
   -6.0999  -75.0383  -17.8328 C   0  0  1  0  0  0  0  0  0  0  0  0
   -6.6644  -76.1890  -17.0718 N   0  0  0  0  0  0  0  0  0  0  0  0
   -5.6221  -77.1428  -16.6112 C   0  0  0  0  0  0  0  0  0  0  0  0
   -6.1949  -78.5383  -16.3170 C   0  0  0  0  0  0  0  0  0  0  0  0
   -6.7181  -79.1776  -17.4878 O   0  0  0  0  0  0  0  0  0  0  0  0
   -7.2119  -78.2451  -18.4537 C   0  0  0  0  0  0  0  0  0  0  0  0
   -7.7049  -76.9276  -17.8305 C   0  0  0  0  0  0  0  0  0  0  0  0
   -7.1220  -73.8938  -17.9949 C   0  0  0  0  0  0  0  0  0  0  0  0
   -6.7788  -72.7623  -19.0480 C   0  0  0  0  0  0  0  0  0  0  0  0
   -8.1087  -72.0211  -19.4705 C   0  0  0  0  0  0  0  0  0  0  0  0
   -8.9936  -71.6666  -18.2586 C   0  0  0  0  0  0  0  0  0  0  0  0
  -10.1171  -70.6759  -18.5631 C   0  0  0  0  0  0  0  0  0  0  0  0
  -10.4319  -70.5844  -20.0477 C   0  0  0  0  0  0  0  0  0  0  0  0
   -9.2007  -70.2029  -20.8666 C   0  0  0  0  0  0  0  0  0  0  0  0
   -7.8924  -70.7839  -20.3271 C   0  0  0  0  0  0  0  0  0  0  0  0
   -5.1244  -72.4677  -19.7576 S   0  0  1  0  0  0  0  0  0  0  0  0
   -5.4549  -72.8298  -21.3254 O   0  0  0  0  0  0  0  0  0  0  0  0
   -4.5426  -70.8387  -19.8450 C   0  0  0  0  0  0  0  0  0  0  0  0
   -4.5741  -70.0405  -18.7039 C   0  0  0  0  0  0  0  0  0  0  0  0
   -3.9356  -68.7967  -18.7150 C   0  0  0  0  0  0  0  0  0  0  0  0
   -3.2818  -68.3518  -19.8642 C   0  0  0  0  0  0  0  0  0  0  0  0
   -3.2523  -69.1649  -20.9897 C   0  0  0  0  0  0  0  0  0  0  0  0
   -2.6082  -68.7457  -22.0873 F   0  0  0  0  0  0  0  0  0  0  0  0
   -3.8713  -70.4094  -20.9906 C   0  0  0  0  0  0  0  0  0  0  0  0
   -3.8960  -73.5197  -19.2588 N   0  0  0  0  0  0  0  0  0  0  0  0
  1  2  1  0
  2  3  2  0
  3  4  1  0
  4  5  2  0
  5  6  1  0
  6  7  1  0
  4  8  1  0
  8  9  1  1
  9 10  1  0
 10 11  1  0
 11 12  1  0
 12 13  1  0
 13 14  1  0
  8 15  1  0
 15 16  1  0
 16 17  1  0
 17 18  1  0
 18 19  1  0
 19 20  1  0
 20 21  1  0
 21 22  1  0
 16 23  2  0
 23 24  2  0
 23 25  1  6
 25 26  2  0
 26 27  1  0
 27 28  2  0
 28 29  1  0
 29 30  1  0
 29 31  2  0
 23 32  1  0
  6  2  1  0
 14  9  1  0
 22 17  1  0
 31 25  1  0
 32  3  1  0
M  END
>  <inchikey>  (90) 
BCLQEVXBOFTDQV-MNAQKMTRSA-N

>  <alias>  (90) 
None

>  <name>  (90) 
BCLQEVXBOFTDQV-MNAQKMTRSA-N

>  <original ID>  (90) 
BCLQEVXBOFTDQV-MNAQKMTRSA-N

>  <csv_name>  (90) 
thumb_site_2_fstein_bulkdock_input_split1000_batch000.csv

>  <fragmenstein_error>  (90) 
None

>  <fragmenstein_mode>  (90) 
expansion

>  <ref_pdb>  (90) 
d0253a

>  <exports>  (90) 
['/opt/xchem-fragalysis-2/maxwin/BulkDock/OUTPUTS/thumb_site_2_fstein_bulkdock_input_split1000_batch000_217914.sdf']

>  <SLURM_JOB_ID>  (90) 
217914

>  <HIPPO Pose ID>  (90) 
79640

>  <energy_score>  (90) 
-93.022334

>  <fragmenstein_runtime>  (90) 
187.906612

>  <original SMILES>  (90) 
Cc1c2c(nn1C)[C@@H](N1CCOCC1)CC(C1CCCCC1)=[S@@](=O)(c1cccc(F)c1)N2

>  <scratch_subdir>  (90) 
/opt/xchem-fragalysis-2/maxwin/BulkDock/SCRATCH/217914/C68807-P25

>  <HIPPO Compound ID>  (90) 
68807

>  <fragmenstein_outcome>  (90) 
acceptable

>  <SLURM_JOB_NAME>  (90) 
BulkDock.place:Flavi_NS5_RdRp:thumb_site_2_fstein_bulkdock_input_split1000_batch000

>  <distance_score>  (90) 
0.953105

>  <ref_mols>  (90) 
d0253a,d0283a

>  <tags>  (90) 
['Fragmenstein placed']

$$$$
79908
     RDKit          3D

 16 17  0  0  0  0  0  0  0  0999 V2000
    3.8123  -71.8232  -19.6448 C   0  0  0  0  0  0  0  0  0  0  0  0
    2.6294  -71.0141  -19.1305 C   0  0  2  0  0  0  0  0  0  0  0  0
    1.7036  -70.6092  -20.2766 C   0  0  0  0  0  0  0  0  0  0  0  0
    0.5714  -69.7407  -19.7317 C   0  0  2  0  0  0  0  0  0  0  0  0
   -0.2734  -69.2845  -20.8459 N   0  0  0  0  0  0  0  0  0  0  0  0
   -1.6589  -69.3442  -20.5312 C   0  0  0  0  0  0  0  0  0  0  0  0
   -2.3236  -68.1511  -20.2005 C   0  0  0  0  0  0  0  0  0  0  0  0
   -3.6519  -68.1786  -19.7898 C   0  0  0  0  0  0  0  0  0  0  0  0
   -4.3243  -69.3877  -19.7158 C   0  0  0  0  0  0  0  0  0  0  0  0
   -5.6013  -69.4306  -19.3153 F   0  0  0  0  0  0  0  0  0  0  0  0
   -3.6894  -70.5669  -20.0472 C   0  0  0  0  0  0  0  0  0  0  0  0
   -2.3662  -70.5773  -20.4410 N   0  0  0  0  0  4  0  0  0  0  0  0
   -1.8303  -71.7135  -20.6889 O   0  0  0  0  0  1  0  0  0  0  0  0
    1.1533  -68.5481  -18.9679 C   0  0  0  0  0  0  0  0  0  0  0  0
    2.1269  -69.0357  -17.9060 C   0  0  0  0  0  0  0  0  0  0  0  0
    3.1494  -69.8477  -18.4830 O   0  0  0  0  0  0  0  0  0  0  0  0
  2  1  1  6
  2  3  1  0
  3  4  1  0
  4  5  1  6
  5  6  1  0
  6  7  2  0
  7  8  1  0
  8  9  2  0
  9 10  1  0
  9 11  1  0
 11 12  2  0
 12 13  1  0
  4 14  1  0
 14 15  1  0
 15 16  1  0
 16  2  1  0
 12  6  1  0
M  CHG  2  12   1  13  -1
M  END
>  <inchikey>  (91) 
CXGJWWKUVNWMBN-PSASIEDQSA-N

>  <alias>  (91) 
None

>  <name>  (91) 
CXGJWWKUVNWMBN-PSASIEDQSA-N

>  <original ID>  (91) 
CXGJWWKUVNWMBN-PSASIEDQSA-N

>  <csv_name>  (91) 
thumb_site_2_fstein_bulkdock_input_split1000_batch000.csv

>  <fragmenstein_error>  (91) 
None

>  <fragmenstein_mode>  (91) 
expansion

>  <ref_pdb>  (91) 
d0210a

>  <exports>  (91) 
['/opt/xchem-fragalysis-2/maxwin/BulkDock/OUTPUTS/thumb_site_2_fstein_bulkdock_input_split1000_batch000_217914.sdf']

>  <SLURM_JOB_ID>  (91) 
217914

>  <HIPPO Pose ID>  (91) 
79908

>  <energy_score>  (91) 
-42.342107

>  <fragmenstein_runtime>  (91) 
2.295948

>  <original SMILES>  (91) 
C[C@@H]1C[C@H](Nc2ccc(F)c[n+]2[O-])CCO1

>  <scratch_subdir>  (91) 
/opt/xchem-fragalysis-2/maxwin/BulkDock/SCRATCH/217914/C68843-P21

>  <HIPPO Compound ID>  (91) 
68843

>  <fragmenstein_outcome>  (91) 
acceptable

>  <SLURM_JOB_NAME>  (91) 
BulkDock.place:Flavi_NS5_RdRp:thumb_site_2_fstein_bulkdock_input_split1000_batch000

>  <distance_score>  (91) 
0.696932

>  <ref_mols>  (91) 
d0210a,d0279a

>  <tags>  (91) 
['Fragmenstein placed']

$$$$
79910
     RDKit          3D

 16 17  0  0  0  0  0  0  0  0999 V2000
    3.9849  -71.6044  -19.0630 C   0  0  0  0  0  0  0  0  0  0  0  0
    2.6097  -71.0781  -18.6758 C   0  0  2  0  0  0  0  0  0  0  0  0
    1.7978  -70.7004  -19.9115 C   0  0  0  0  0  0  0  0  0  0  0  0
    0.4472  -70.1204  -19.4855 C   0  0  2  0  0  0  0  0  0  0  0  0
   -0.3011  -69.6784  -20.6847 N   0  0  0  0  0  0  0  0  0  0  0  0
   -1.7217  -69.8542  -20.5664 C   0  0  0  0  0  0  0  0  0  0  0  0
   -2.5347  -68.7454  -20.8347 C   0  0  0  0  0  0  0  0  0  0  0  0
   -3.8864  -68.7589  -20.5039 C   0  0  0  0  0  0  0  0  0  0  0  0
   -4.4634  -69.9109  -20.0161 C   0  0  0  0  0  0  0  0  0  0  0  0
   -5.7529  -69.9191  -19.6581 F   0  0  0  0  0  0  0  0  0  0  0  0
   -3.7149  -71.0623  -19.9131 C   0  0  0  0  0  0  0  0  0  0  0  0
   -2.3578  -71.0643  -20.1913 N   0  0  0  0  0  4  0  0  0  0  0  0
   -1.7389  -72.1780  -20.0893 O   0  0  0  0  0  1  0  0  0  0  0  0
    0.6522  -68.9648  -18.4966 C   0  0  0  0  0  0  0  0  0  0  0  0
    1.5723  -69.3927  -17.3616 C   0  0  0  0  0  0  0  0  0  0  0  0
    2.8007  -69.9184  -17.8596 O   0  0  0  0  0  0  0  0  0  0  0  0
  2  1  1  6
  2  3  1  0
  3  4  1  0
  4  5  1  6
  5  6  1  0
  6  7  2  0
  7  8  1  0
  8  9  2  0
  9 10  1  0
  9 11  1  0
 11 12  2  0
 12 13  1  0
  4 14  1  0
 14 15  1  0
 15 16  1  0
 16  2  1  0
 12  6  1  0
M  CHG  2  12   1  13  -1
M  END
>  <inchikey>  (92) 
CXGJWWKUVNWMBN-PSASIEDQSA-N

>  <alias>  (92) 
None

>  <name>  (92) 
CXGJWWKUVNWMBN-PSASIEDQSA-N

>  <original ID>  (92) 
CXGJWWKUVNWMBN-PSASIEDQSA-N

>  <csv_name>  (92) 
thumb_site_2_fstein_bulkdock_input_split1000_batch000.csv

>  <fragmenstein_error>  (92) 
None

>  <fragmenstein_mode>  (92) 
expansion

>  <ref_pdb>  (92) 
d0279a

>  <exports>  (92) 
['/opt/xchem-fragalysis-2/maxwin/BulkDock/OUTPUTS/thumb_site_2_fstein_bulkdock_input_split1000_batch000_217914.sdf']

>  <SLURM_JOB_ID>  (92) 
217914

>  <HIPPO Pose ID>  (92) 
79910

>  <energy_score>  (92) 
-41.472484

>  <fragmenstein_runtime>  (92) 
2.308733

>  <original SMILES>  (92) 
C[C@@H]1C[C@H](Nc2ccc(F)c[n+]2[O-])CCO1

>  <scratch_subdir>  (92) 
/opt/xchem-fragalysis-2/maxwin/BulkDock/SCRATCH/217914/C68843-P29

>  <HIPPO Compound ID>  (92) 
68843

>  <fragmenstein_outcome>  (92) 
acceptable

>  <SLURM_JOB_NAME>  (92) 
BulkDock.place:Flavi_NS5_RdRp:thumb_site_2_fstein_bulkdock_input_split1000_batch000

>  <distance_score>  (92) 
0.883194

>  <ref_mols>  (92) 
d0210a,d0279a

>  <tags>  (92) 
['Fragmenstein placed']

$$$$
79916
     RDKit          3D

 18 19  0  0  0  0  0  0  0  0999 V2000
   -1.5013  -69.1758  -20.1623 C   0  0  0  0  0  0  0  0  0  0  0  0
   -2.7185  -69.6325  -19.5667 O   0  0  0  0  0  0  0  0  0  0  0  0
   -3.7340  -69.7859  -20.5537 C   0  0  2  0  0  0  0  0  0  0  0  0
   -5.0866  -70.0733  -19.8943 C   0  0  0  0  0  0  0  0  0  0  0  0
   -5.4544  -71.5644  -20.0190 C   0  0  2  0  0  0  0  0  0  0  0  0
   -6.6113  -71.9892  -19.1255 N   0  0  1  0  0  4  0  0  0  0  0  0
   -6.7396  -73.3402  -19.0475 O   0  0  0  0  0  1  0  0  0  0  0  0
   -6.3577  -71.6287  -17.7762 O   0  0  0  0  0  0  0  0  0  0  0  0
   -7.9464  -71.4035  -19.5705 C   0  0  0  0  0  0  0  0  0  0  0  0
   -9.1033  -71.7604  -18.8647 C   0  0  0  0  0  0  0  0  0  0  0  0
  -10.3413  -71.2763  -19.2802 C   0  0  0  0  0  0  0  0  0  0  0  0
  -10.3951  -70.4556  -20.3921 C   0  0  0  0  0  0  0  0  0  0  0  0
  -11.5696  -69.9850  -20.8258 F   0  0  0  0  0  0  0  0  0  0  0  0
   -9.2194  -70.1330  -21.0412 C   0  0  0  0  0  0  0  0  0  0  0  0
   -8.0019  -70.5776  -20.6509 N   0  0  0  0  0  0  0  0  0  0  0  0
   -4.2010  -72.3987  -19.7559 C   0  0  0  0  0  0  0  0  0  0  0  0
   -3.1594  -72.0744  -20.8139 C   0  0  0  0  0  0  0  0  0  0  0  0
   -3.4022  -70.8265  -21.4681 O   0  0  0  0  0  0  0  0  0  0  0  0
  1  2  1  0
  3  2  1  1
  3  4  1  0
  5  4  1  1
  5  6  1  0
  6  7  1  1
  6  8  1  0
  6  9  1  0
  9 10  2  0
 10 11  1  0
 11 12  2  0
 12 13  1  0
 12 14  1  0
 14 15  2  0
  5 16  1  0
 16 17  1  0
 17 18  1  0
 18  3  1  0
 15  9  1  0
M  CHG  2   6   1   7  -1
M  END
>  <inchikey>  (93) 
PNPURIVVRYODJT-KOLCDFICSA-N

>  <alias>  (93) 
None

>  <name>  (93) 
PNPURIVVRYODJT-KOLCDFICSA-N

>  <original ID>  (93) 
PNPURIVVRYODJT-KOLCDFICSA-N

>  <csv_name>  (93) 
thumb_site_2_fstein_bulkdock_input_split1000_batch000.csv

>  <fragmenstein_error>  (93) 
None

>  <fragmenstein_mode>  (93) 
expansion

>  <ref_pdb>  (93) 
d0249a

>  <exports>  (93) 
['/opt/xchem-fragalysis-2/maxwin/BulkDock/OUTPUTS/thumb_site_2_fstein_bulkdock_input_split1000_batch000_217914.sdf']

>  <SLURM_JOB_ID>  (93) 
217914

>  <HIPPO Pose ID>  (93) 
79916

>  <energy_score>  (93) 
-46.991297

>  <fragmenstein_runtime>  (93) 
3.101542

>  <original SMILES>  (93) 
CO[C@@H]1C[C@H]([N@@+]([O-])(O)c2ccc(F)cn2)CCO1

>  <scratch_subdir>  (93) 
/opt/xchem-fragalysis-2/maxwin/BulkDock/SCRATCH/217914/C68845-P23

>  <HIPPO Compound ID>  (93) 
68845

>  <fragmenstein_outcome>  (93) 
acceptable

>  <SLURM_JOB_NAME>  (93) 
BulkDock.place:Flavi_NS5_RdRp:thumb_site_2_fstein_bulkdock_input_split1000_batch000

>  <distance_score>  (93) 
0.948215

>  <ref_mols>  (93) 
d0249a,d0279a

>  <tags>  (93) 
['Fragmenstein placed']

$$$$
79917
     RDKit          3D

 18 19  0  0  0  0  0  0  0  0999 V2000
   -1.5138  -69.1864  -20.1819 C   0  0  0  0  0  0  0  0  0  0  0  0
   -2.7227  -69.6394  -19.5676 O   0  0  0  0  0  0  0  0  0  0  0  0
   -3.7513  -69.7953  -20.5412 C   0  0  2  0  0  0  0  0  0  0  0  0
   -5.0906  -70.0919  -19.8587 C   0  0  0  0  0  0  0  0  0  0  0  0
   -5.4692  -71.5771  -20.0039 C   0  0  2  0  0  0  0  0  0  0  0  0
   -6.6171  -72.0156  -19.1033 N   0  0  1  0  0  4  0  0  0  0  0  0
   -6.7393  -73.3699  -19.0480 O   0  0  0  0  0  1  0  0  0  0  0  0
   -6.3502  -71.6783  -17.7503 O   0  0  0  0  0  0  0  0  0  0  0  0
   -7.9605  -71.4275  -19.5213 C   0  0  0  0  0  0  0  0  0  0  0  0
   -9.1191  -71.8605  -18.8626 C   0  0  0  0  0  0  0  0  0  0  0  0
  -10.3630  -71.3751  -19.2611 C   0  0  0  0  0  0  0  0  0  0  0  0
  -10.4213  -70.4733  -20.3078 C   0  0  0  0  0  0  0  0  0  0  0  0
  -11.5994  -69.9959  -20.7240 F   0  0  0  0  0  0  0  0  0  0  0  0
   -9.2439  -70.0736  -20.9073 C   0  0  0  0  0  0  0  0  0  0  0  0
   -8.0221  -70.5213  -20.5325 N   0  0  0  0  0  0  0  0  0  0  0  0
   -4.2161  -72.4202  -19.7653 C   0  0  0  0  0  0  0  0  0  0  0  0
   -3.1772  -72.0819  -20.8206 C   0  0  0  0  0  0  0  0  0  0  0  0
   -3.4288  -70.8325  -21.4662 O   0  0  0  0  0  0  0  0  0  0  0  0
  1  2  1  0
  3  2  1  1
  3  4  1  0
  5  4  1  1
  5  6  1  0
  6  7  1  1
  6  8  1  0
  6  9  1  0
  9 10  2  0
 10 11  1  0
 11 12  2  0
 12 13  1  0
 12 14  1  0
 14 15  2  0
  5 16  1  0
 16 17  1  0
 17 18  1  0
 18  3  1  0
 15  9  1  0
M  CHG  2   6   1   7  -1
M  END
>  <inchikey>  (94) 
PNPURIVVRYODJT-KOLCDFICSA-N

>  <alias>  (94) 
None

>  <name>  (94) 
PNPURIVVRYODJT-KOLCDFICSA-N

>  <original ID>  (94) 
PNPURIVVRYODJT-KOLCDFICSA-N

>  <csv_name>  (94) 
thumb_site_2_fstein_bulkdock_input_split1000_batch000.csv

>  <fragmenstein_error>  (94) 
None

>  <fragmenstein_mode>  (94) 
expansion

>  <ref_pdb>  (94) 
d0279a

>  <exports>  (94) 
['/opt/xchem-fragalysis-2/maxwin/BulkDock/OUTPUTS/thumb_site_2_fstein_bulkdock_input_split1000_batch000_217914.sdf']

>  <SLURM_JOB_ID>  (94) 
217914

>  <HIPPO Pose ID>  (94) 
79917

>  <energy_score>  (94) 
-46.744153

>  <fragmenstein_runtime>  (94) 
3.126727

>  <original SMILES>  (94) 
CO[C@@H]1C[C@H]([N@@+]([O-])(O)c2ccc(F)cn2)CCO1

>  <scratch_subdir>  (94) 
/opt/xchem-fragalysis-2/maxwin/BulkDock/SCRATCH/217914/C68845-P29

>  <HIPPO Compound ID>  (94) 
68845

>  <fragmenstein_outcome>  (94) 
acceptable

>  <SLURM_JOB_NAME>  (94) 
BulkDock.place:Flavi_NS5_RdRp:thumb_site_2_fstein_bulkdock_input_split1000_batch000

>  <distance_score>  (94) 
0.958712

>  <ref_mols>  (94) 
d0249a,d0279a

>  <tags>  (94) 
['Fragmenstein placed']

$$$$
79999
     RDKit          3D

 15 16  0  0  0  0  0  0  0  0999 V2000
   -6.4239  -72.6461  -17.8410 N   0  0  0  0  0  0  0  0  0  0  0  0
   -6.4432  -71.6956  -18.9101 N   0  0  0  0  0  0  0  0  0  0  0  0
   -7.7228  -71.3000  -19.3601 C   0  0  0  0  0  0  0  0  0  0  0  0
   -7.8988  -70.3671  -20.3827 C   0  0  0  0  0  0  0  0  0  0  0  0
   -9.1774  -70.0283  -20.8239 C   0  0  0  0  0  0  0  0  0  0  0  0
  -10.2683  -70.6003  -20.2066 C   0  0  0  0  0  0  0  0  0  0  0  0
  -11.5098  -70.2820  -20.5901 F   0  0  0  0  0  0  0  0  0  0  0  0
  -10.0446  -71.4844  -19.1726 C   0  0  0  0  0  0  0  0  0  0  0  0
   -8.8087  -71.8379  -18.7343 N   0  0  0  0  0  0  0  0  0  0  0  0
   -5.2610  -71.5404  -19.7946 C   0  0  0  0  0  0  0  0  0  0  0  0
   -4.5225  -70.2334  -19.4844 C   0  0  0  0  0  0  0  0  0  0  0  0
   -3.3097  -70.0977  -20.3966 C   0  0  0  0  0  0  0  0  0  0  0  0
   -2.4447  -71.2256  -20.2635 O   0  0  0  0  0  0  0  0  0  0  0  0
   -3.0821  -72.4543  -20.6029 C   0  0  0  0  0  0  0  0  0  0  0  0
   -4.2747  -72.7127  -19.6946 C   0  0  0  0  0  0  0  0  0  0  0  0
  1  2  1  0
  2  3  1  0
  3  4  2  0
  4  5  1  0
  5  6  2  0
  6  7  1  0
  6  8  1  0
  8  9  2  0
  2 10  1  0
 10 11  1  0
 11 12  1  0
 12 13  1  0
 13 14  1  0
 14 15  1  0
  9  3  1  0
 15 10  1  0
M  END
>  <inchikey>  (95) 
YHUNEUUBKJWLKI-UHFFFAOYSA-N

>  <alias>  (95) 
None

>  <name>  (95) 
YHUNEUUBKJWLKI-UHFFFAOYSA-N

>  <original ID>  (95) 
YHUNEUUBKJWLKI-UHFFFAOYSA-N

>  <csv_name>  (95) 
thumb_site_2_fstein_bulkdock_input_split1000_batch000.csv

>  <fragmenstein_error>  (95) 
None

>  <fragmenstein_mode>  (95) 
expansion

>  <ref_pdb>  (95) 
d0279a

>  <exports>  (95) 
['/opt/xchem-fragalysis-2/maxwin/BulkDock/OUTPUTS/thumb_site_2_fstein_bulkdock_input_split1000_batch000_217914.sdf']

>  <SLURM_JOB_ID>  (95) 
217914

>  <HIPPO Pose ID>  (95) 
79999

>  <energy_score>  (95) 
-37.636242

>  <fragmenstein_runtime>  (95) 
1.908713

>  <original SMILES>  (95) 
NN(c1ccc(F)cn1)C1CCOCC1

>  <scratch_subdir>  (95) 
/opt/xchem-fragalysis-2/maxwin/BulkDock/SCRATCH/217914/C68857-P29

>  <HIPPO Compound ID>  (95) 
68857

>  <fragmenstein_outcome>  (95) 
acceptable

>  <SLURM_JOB_NAME>  (95) 
BulkDock.place:Flavi_NS5_RdRp:thumb_site_2_fstein_bulkdock_input_split1000_batch000

>  <distance_score>  (95) 
0.603398

>  <ref_mols>  (95) 
d0279a,d0644a

>  <tags>  (95) 
['Fragmenstein placed']

$$$$
80000
     RDKit          3D

 15 16  0  0  0  0  0  0  0  0999 V2000
   -6.4282  -72.6248  -17.8307 N   0  0  0  0  0  0  0  0  0  0  0  0
   -6.4399  -71.7084  -18.9287 N   0  0  0  0  0  0  0  0  0  0  0  0
   -7.7151  -71.3057  -19.3827 C   0  0  0  0  0  0  0  0  0  0  0  0
   -7.8850  -70.4245  -20.4514 C   0  0  0  0  0  0  0  0  0  0  0  0
   -9.1611  -70.0818  -20.8931 C   0  0  0  0  0  0  0  0  0  0  0  0
  -10.2557  -70.5938  -20.2306 C   0  0  0  0  0  0  0  0  0  0  0  0
  -11.4952  -70.2664  -20.6128 F   0  0  0  0  0  0  0  0  0  0  0  0
  -10.0375  -71.4279  -19.1549 C   0  0  0  0  0  0  0  0  0  0  0  0
   -8.8037  -71.7867  -18.7158 N   0  0  0  0  0  0  0  0  0  0  0  0
   -5.2521  -71.5770  -19.8084 C   0  0  0  0  0  0  0  0  0  0  0  0
   -4.5250  -70.2552  -19.5363 C   0  0  0  0  0  0  0  0  0  0  0  0
   -3.3088  -70.1422  -20.4460 C   0  0  0  0  0  0  0  0  0  0  0  0
   -2.4364  -71.2565  -20.2674 O   0  0  0  0  0  0  0  0  0  0  0  0
   -3.0602  -72.5024  -20.5676 C   0  0  0  0  0  0  0  0  0  0  0  0
   -4.2586  -72.7381  -19.6604 C   0  0  0  0  0  0  0  0  0  0  0  0
  1  2  1  0
  2  3  1  0
  3  4  2  0
  4  5  1  0
  5  6  2  0
  6  7  1  0
  6  8  1  0
  8  9  2  0
  2 10  1  0
 10 11  1  0
 11 12  1  0
 12 13  1  0
 13 14  1  0
 14 15  1  0
  9  3  1  0
 15 10  1  0
M  END
>  <inchikey>  (96) 
YHUNEUUBKJWLKI-UHFFFAOYSA-N

>  <alias>  (96) 
None

>  <name>  (96) 
YHUNEUUBKJWLKI-UHFFFAOYSA-N

>  <original ID>  (96) 
YHUNEUUBKJWLKI-UHFFFAOYSA-N

>  <csv_name>  (96) 
thumb_site_2_fstein_bulkdock_input_split1000_batch000.csv

>  <fragmenstein_error>  (96) 
None

>  <fragmenstein_mode>  (96) 
expansion

>  <ref_pdb>  (96) 
d0644a

>  <exports>  (96) 
['/opt/xchem-fragalysis-2/maxwin/BulkDock/OUTPUTS/thumb_site_2_fstein_bulkdock_input_split1000_batch000_217914.sdf']

>  <SLURM_JOB_ID>  (96) 
217914

>  <HIPPO Pose ID>  (96) 
80000

>  <energy_score>  (96) 
-37.560967

>  <fragmenstein_runtime>  (96) 
1.923007

>  <original SMILES>  (96) 
NN(c1ccc(F)cn1)C1CCOCC1

>  <scratch_subdir>  (96) 
/opt/xchem-fragalysis-2/maxwin/BulkDock/SCRATCH/217914/C68857-P52

>  <HIPPO Compound ID>  (96) 
68857

>  <fragmenstein_outcome>  (96) 
acceptable

>  <SLURM_JOB_NAME>  (96) 
BulkDock.place:Flavi_NS5_RdRp:thumb_site_2_fstein_bulkdock_input_split1000_batch000

>  <distance_score>  (96) 
0.582712

>  <ref_mols>  (96) 
d0279a,d0644a

>  <tags>  (96) 
['Fragmenstein placed']

$$$$
80002
     RDKit          3D

 19 21  0  0  0  0  0  0  0  0999 V2000
  -11.6699  -70.3940  -20.6427 F   0  0  0  0  0  0  0  0  0  0  0  0
  -10.4209  -70.6832  -20.2623 C   0  0  0  0  0  0  0  0  0  0  0  0
   -9.3494  -70.0504  -20.8529 C   0  0  0  0  0  0  0  0  0  0  0  0
   -8.0681  -70.3471  -20.4037 C   0  0  0  0  0  0  0  0  0  0  0  0
   -7.8802  -71.3085  -19.4172 C   0  0  0  0  0  0  0  0  0  0  0  0
   -6.6338  -71.6634  -18.9286 N   0  0  0  0  0  0  0  0  0  0  0  0
   -5.4906  -71.7095  -19.8428 C   0  0  2  0  0  0  0  0  0  0  0  0
   -4.5974  -72.8931  -19.5000 C   0  0  0  0  0  0  0  0  0  0  0  0
   -3.4012  -72.9369  -20.4415 C   0  0  0  0  0  0  0  0  0  0  0  0
   -3.0344  -71.6644  -20.9659 O   0  0  0  0  0  0  0  0  0  0  0  0
   -3.2118  -70.5391  -20.0922 C   0  0  0  0  0  0  0  0  0  0  0  0
   -2.3305  -70.6652  -18.8183 C   0  0  0  0  0  0  0  0  0  0  0  0
   -0.9060  -70.1336  -18.9704 C   0  0  0  0  0  0  0  0  0  0  0  0
   -0.4370  -70.1388  -20.4091 C   0  0  0  0  0  0  0  0  0  0  0  0
   -1.3292  -69.2769  -21.3016 C   0  0  0  0  0  0  0  0  0  0  0  0
   -2.8041  -69.3076  -20.9185 C   0  0  0  0  0  0  0  0  0  0  0  0
   -4.7042  -70.4001  -19.7285 C   0  0  0  0  0  0  0  0  0  0  0  0
   -8.9241  -71.9283  -18.8305 N   0  0  0  0  0  0  0  0  0  0  0  0
  -10.1698  -71.6025  -19.2634 C   0  0  0  0  0  0  0  0  0  0  0  0
  1  2  1  0
  2  3  2  0
  3  4  1  0
  4  5  2  0
  5  6  1  0
  7  6  1  1
  7  8  1  0
  8  9  1  0
  9 10  1  0
 10 11  1  0
 11 12  1  0
 12 13  1  0
 13 14  1  0
 14 15  1  0
 15 16  1  0
 11 17  1  0
  5 18  1  0
 18 19  2  0
 19  2  1  0
 17  7  1  0
 16 11  1  0
M  END
>  <inchikey>  (97) 
PVTLGNALXGMKHO-CYBMUJFWSA-N

>  <alias>  (97) 
None

>  <name>  (97) 
PVTLGNALXGMKHO-CYBMUJFWSA-N

>  <original ID>  (97) 
PVTLGNALXGMKHO-CYBMUJFWSA-N

>  <csv_name>  (97) 
thumb_site_2_fstein_bulkdock_input_split1000_batch000.csv

>  <fragmenstein_error>  (97) 
None

>  <fragmenstein_mode>  (97) 
expansion

>  <ref_pdb>  (97) 
d0279a

>  <exports>  (97) 
['/opt/xchem-fragalysis-2/maxwin/BulkDock/OUTPUTS/thumb_site_2_fstein_bulkdock_input_split1000_batch000_217914.sdf']

>  <SLURM_JOB_ID>  (97) 
217914

>  <HIPPO Pose ID>  (97) 
80002

>  <energy_score>  (97) 
-29.084642

>  <fragmenstein_runtime>  (97) 
3.071657

>  <original SMILES>  (97) 
Fc1ccc(N[C@@H]2CCOC3(CCCCC3)C2)nc1

>  <scratch_subdir>  (97) 
/opt/xchem-fragalysis-2/maxwin/BulkDock/SCRATCH/217914/C68858-P29

>  <HIPPO Compound ID>  (97) 
68858

>  <fragmenstein_outcome>  (97) 
acceptable

>  <SLURM_JOB_NAME>  (97) 
BulkDock.place:Flavi_NS5_RdRp:thumb_site_2_fstein_bulkdock_input_split1000_batch000

>  <distance_score>  (97) 
0.925007

>  <ref_mols>  (97) 
d0279a,d0693a

>  <tags>  (97) 
['Fragmenstein placed']

$$$$
80005
     RDKit          3D

 19 21  0  0  0  0  0  0  0  0999 V2000
  -11.6735  -69.8644  -20.3031 F   0  0  0  0  0  0  0  0  0  0  0  0
  -10.4492  -70.3545  -20.0797 C   0  0  0  0  0  0  0  0  0  0  0  0
   -9.5523  -70.4873  -21.1158 C   0  0  0  0  0  0  0  0  0  0  0  0
   -8.3021  -71.0343  -20.8407 C   0  0  0  0  0  0  0  0  0  0  0  0
   -7.9646  -71.4063  -19.5436 C   0  0  0  0  0  0  0  0  0  0  0  0
   -6.7716  -72.0043  -19.2143 N   0  0  0  0  0  0  0  0  0  0  0  0
   -5.5398  -71.8221  -19.9711 C   0  0  2  0  0  0  0  0  0  0  0  0
   -4.5332  -72.8752  -19.5260 C   0  0  0  0  0  0  0  0  0  0  0  0
   -3.2175  -72.7109  -20.2707 C   0  0  0  0  0  0  0  0  0  0  0  0
   -3.0416  -71.4091  -20.8187 O   0  0  0  0  0  0  0  0  0  0  0  0
   -3.4676  -70.3178  -19.9920 C   0  0  0  0  0  0  0  0  0  0  0  0
   -2.7287  -70.2914  -18.6398 C   0  0  0  0  0  0  0  0  0  0  0  0
   -1.2139  -70.1539  -18.7666 C   0  0  0  0  0  0  0  0  0  0  0  0
   -0.7467  -69.7079  -20.1442 C   0  0  0  0  0  0  0  0  0  0  0  0
   -1.6517  -68.6530  -20.7690 C   0  0  0  0  0  0  0  0  0  0  0  0
   -3.1344  -69.0235  -20.7619 C   0  0  0  0  0  0  0  0  0  0  0  0
   -4.9930  -70.4042  -19.7872 C   0  0  0  0  0  0  0  0  0  0  0  0
   -8.8334  -71.2581  -18.5226 N   0  0  0  0  0  0  0  0  0  0  0  0
  -10.0564  -70.7466  -18.8152 C   0  0  0  0  0  0  0  0  0  0  0  0
  1  2  1  0
  2  3  2  0
  3  4  1  0
  4  5  2  0
  5  6  1  0
  7  6  1  1
  7  8  1  0
  8  9  1  0
  9 10  1  0
 10 11  1  0
 11 12  1  0
 12 13  1  0
 13 14  1  0
 14 15  1  0
 15 16  1  0
 11 17  1  0
  5 18  1  0
 18 19  2  0
 19  2  1  0
 17  7  1  0
 16 11  1  0
M  END
>  <inchikey>  (98) 
PVTLGNALXGMKHO-CYBMUJFWSA-N

>  <alias>  (98) 
None

>  <name>  (98) 
PVTLGNALXGMKHO-CYBMUJFWSA-N

>  <original ID>  (98) 
PVTLGNALXGMKHO-CYBMUJFWSA-N

>  <csv_name>  (98) 
thumb_site_2_fstein_bulkdock_input_split1000_batch000.csv

>  <fragmenstein_error>  (98) 
None

>  <fragmenstein_mode>  (98) 
expansion

>  <ref_pdb>  (98) 
d0693a

>  <exports>  (98) 
['/opt/xchem-fragalysis-2/maxwin/BulkDock/OUTPUTS/thumb_site_2_fstein_bulkdock_input_split1000_batch000_217914.sdf']

>  <SLURM_JOB_ID>  (98) 
217914

>  <HIPPO Pose ID>  (98) 
80005

>  <energy_score>  (98) 
-30.639998

>  <fragmenstein_runtime>  (98) 
3.195578

>  <original SMILES>  (98) 
Fc1ccc(N[C@@H]2CCOC3(CCCCC3)C2)nc1

>  <scratch_subdir>  (98) 
/opt/xchem-fragalysis-2/maxwin/BulkDock/SCRATCH/217914/C68858-P53

>  <HIPPO Compound ID>  (98) 
68858

>  <fragmenstein_outcome>  (98) 
acceptable

>  <SLURM_JOB_NAME>  (98) 
BulkDock.place:Flavi_NS5_RdRp:thumb_site_2_fstein_bulkdock_input_split1000_batch000

>  <distance_score>  (98) 
0.821698

>  <ref_mols>  (98) 
d0279a,d0693a

>  <tags>  (98) 
['Fragmenstein placed']

$$$$
80267
     RDKit          3D

 21 22  0  0  0  0  0  0  0  0999 V2000
  -14.8420  -68.8802  -22.2846 C   0  0  0  0  0  0  0  0  0  0  0  0
  -15.0091  -69.6744  -21.0659 N   0  0  0  0  0  0  0  0  0  0  0  0
  -13.6402  -69.9224  -20.1254 S   0  0  0  0  0  0  0  0  0  0  0  0
  -14.1466  -70.3592  -18.8383 O   0  0  0  0  0  0  0  0  0  0  0  0
  -12.8049  -68.7539  -20.2463 O   0  0  0  0  0  0  0  0  0  0  0  0
  -12.8842  -71.3126  -20.9640 C   0  0  0  0  0  0  0  0  0  0  0  0
  -11.5173  -71.7694  -20.4324 C   0  0  1  0  0  0  0  0  0  0  0  0
  -10.3404  -71.0268  -21.0844 C   0  0  0  0  0  0  0  0  0  0  0  0
   -9.0541  -71.0518  -20.2487 C   0  0  0  0  0  0  0  0  0  0  0  0
   -8.8993  -72.3135  -19.3550 C   0  0  1  0  0  0  0  0  0  0  0  0
   -7.5992  -72.2560  -18.6330 N   0  0  0  0  0  0  0  0  0  0  0  0
   -7.5705  -71.2300  -17.6027 C   0  0  0  0  0  0  0  0  0  0  0  0
   -7.1477  -73.5697  -18.1061 C   0  0  0  0  0  0  0  0  0  0  0  0
   -5.8043  -73.4934  -17.3714 C   0  0  2  0  0  0  0  0  0  0  0  0
   -4.6221  -73.0300  -18.1964 C   0  0  0  0  0  0  0  0  0  0  0  0
   -3.4625  -73.4343  -17.3089 C   0  0  0  0  0  0  0  0  0  0  0  0
   -3.8950  -74.5779  -16.5530 O   0  0  0  0  0  0  0  0  0  0  0  0
   -5.2850  -74.8100  -16.8356 C   0  0  0  0  0  0  0  0  0  0  0  0
  -10.1484  -72.5308  -18.4456 C   0  0  2  0  0  0  0  0  0  0  0  0
  -10.5554  -74.2885  -18.3680 Cl  0  0  0  0  0  0  0  0  0  0  0  0
  -11.3881  -71.7591  -18.9095 C   0  0  0  0  0  0  0  0  0  0  0  0
  1  2  1  0
  2  3  1  0
  3  4  2  0
  3  5  2  0
  3  6  1  0
  7  6  1  1
  7  8  1  0
  8  9  1  0
  9 10  1  0
 10 11  1  1
 11 12  1  0
 11 13  1  0
 14 13  1  6
 14 15  1  0
 15 16  1  0
 16 17  1  0
 17 18  1  0
 10 19  1  0
 19 20  1  6
 19 21  1  0
 21  7  1  0
 18 14  1  0
M  END
>  <inchikey>  (99) 
YYGWQADUVVBMIJ-IGQOVBAYSA-N

>  <alias>  (99) 
None

>  <name>  (99) 
YYGWQADUVVBMIJ-IGQOVBAYSA-N

>  <original ID>  (99) 
YYGWQADUVVBMIJ-IGQOVBAYSA-N

>  <csv_name>  (99) 
thumb_site_2_fstein_bulkdock_input_split1000_batch000.csv

>  <fragmenstein_error>  (99) 
None

>  <fragmenstein_mode>  (99) 
expansion

>  <ref_pdb>  (99) 
d0253a

>  <exports>  (99) 
['/opt/xchem-fragalysis-2/maxwin/BulkDock/OUTPUTS/thumb_site_2_fstein_bulkdock_input_split1000_batch000_217914.sdf']

>  <SLURM_JOB_ID>  (99) 
217914

>  <HIPPO Pose ID>  (99) 
80267

>  <energy_score>  (99) 
-74.263905

>  <fragmenstein_runtime>  (99) 
7.961205

>  <original SMILES>  (99) 
CNS(=O)(=O)C[C@H]1CC[C@@H](N(C)C[C@@H]2CCOC2)[C@H](Cl)C1

>  <scratch_subdir>  (99) 
/opt/xchem-fragalysis-2/maxwin/BulkDock/SCRATCH/217914/C68873-P25

>  <HIPPO Compound ID>  (99) 
68873

>  <fragmenstein_outcome>  (99) 
acceptable

>  <SLURM_JOB_NAME>  (99) 
BulkDock.place:Flavi_NS5_RdRp:thumb_site_2_fstein_bulkdock_input_split1000_batch000

>  <distance_score>  (99) 
0.838372

>  <ref_mols>  (99) 
d0253a,d0283a

>  <tags>  (99) 
['Fragmenstein placed']

$$$$
80268
     RDKit          3D

 21 22  0  0  0  0  0  0  0  0999 V2000
  -14.8421  -68.9157  -22.2868 C   0  0  0  0  0  0  0  0  0  0  0  0
  -14.8838  -69.7515  -21.0845 N   0  0  0  0  0  0  0  0  0  0  0  0
  -13.4720  -69.9245  -20.1833 S   0  0  0  0  0  0  0  0  0  0  0  0
  -13.8386  -70.7435  -19.0472 O   0  0  0  0  0  0  0  0  0  0  0  0
  -12.8982  -68.6147  -20.0119 O   0  0  0  0  0  0  0  0  0  0  0  0
  -12.4642  -70.8680  -21.3072 C   0  0  0  0  0  0  0  0  0  0  0  0
  -11.1363  -71.4352  -20.8041 C   0  0  1  0  0  0  0  0  0  0  0  0
  -10.0817  -70.4148  -20.3952 C   0  0  0  0  0  0  0  0  0  0  0  0
   -8.7083  -71.0836  -20.2798 C   0  0  0  0  0  0  0  0  0  0  0  0
   -8.6392  -72.4455  -19.5335 C   0  0  1  0  0  0  0  0  0  0  0  0
   -7.9763  -72.3228  -18.2043 N   0  0  0  0  0  0  0  0  0  0  0  0
   -8.8381  -71.7442  -17.1765 C   0  0  0  0  0  0  0  0  0  0  0  0
   -7.4065  -73.6270  -17.7652 C   0  0  0  0  0  0  0  0  0  0  0  0
   -6.1075  -73.4205  -16.9907 C   0  0  2  0  0  0  0  0  0  0  0  0
   -4.9965  -72.7569  -17.7838 C   0  0  0  0  0  0  0  0  0  0  0  0
   -3.7689  -73.1139  -16.9732 C   0  0  0  0  0  0  0  0  0  0  0  0
   -4.0495  -74.3592  -16.3186 O   0  0  0  0  0  0  0  0  0  0  0  0
   -5.4238  -74.7014  -16.5547 C   0  0  0  0  0  0  0  0  0  0  0  0
   -9.9624  -73.2732  -19.5444 C   0  0  2  0  0  0  0  0  0  0  0  0
   -9.9139  -74.4609  -20.9147 Cl  0  0  0  0  0  0  0  0  0  0  0  0
  -11.2527  -72.4486  -19.6646 C   0  0  0  0  0  0  0  0  0  0  0  0
  1  2  1  0
  2  3  1  0
  3  4  2  0
  3  5  2  0
  3  6  1  0
  7  6  1  1
  7  8  1  0
  8  9  1  0
  9 10  1  0
 10 11  1  1
 11 12  1  0
 11 13  1  0
 14 13  1  6
 14 15  1  0
 15 16  1  0
 16 17  1  0
 17 18  1  0
 10 19  1  0
 19 20  1  6
 19 21  1  0
 21  7  1  0
 18 14  1  0
M  END
>  <inchikey>  (100) 
YYGWQADUVVBMIJ-IGQOVBAYSA-N

>  <alias>  (100) 
None

>  <name>  (100) 
YYGWQADUVVBMIJ-IGQOVBAYSA-N

>  <original ID>  (100) 
YYGWQADUVVBMIJ-IGQOVBAYSA-N

>  <csv_name>  (100) 
thumb_site_2_fstein_bulkdock_input_split1000_batch000.csv

>  <fragmenstein_error>  (100) 
None

>  <fragmenstein_mode>  (100) 
expansion

>  <ref_pdb>  (100) 
d0283a

>  <exports>  (100) 
['/opt/xchem-fragalysis-2/maxwin/BulkDock/OUTPUTS/thumb_site_2_fstein_bulkdock_input_split1000_batch000_217914.sdf']

>  <SLURM_JOB_ID>  (100) 
217914

>  <HIPPO Pose ID>  (100) 
80268

>  <energy_score>  (100) 
-73.732391

>  <fragmenstein_runtime>  (100) 
8.562395

>  <original SMILES>  (100) 
CNS(=O)(=O)C[C@H]1CC[C@@H](N(C)C[C@@H]2CCOC2)[C@H](Cl)C1

>  <scratch_subdir>  (100) 
/opt/xchem-fragalysis-2/maxwin/BulkDock/SCRATCH/217914/C68873-P30

>  <HIPPO Compound ID>  (100) 
68873

>  <fragmenstein_outcome>  (100) 
acceptable

>  <SLURM_JOB_NAME>  (100) 
BulkDock.place:Flavi_NS5_RdRp:thumb_site_2_fstein_bulkdock_input_split1000_batch000

>  <distance_score>  (100) 
0.959925

>  <ref_mols>  (100) 
d0253a,d0283a

>  <tags>  (100) 
['Fragmenstein placed']

$$$$
80276
     RDKit          3D

 24 25  0  0  0  0  0  0  0  0999 V2000
   -7.3855  -75.9545  -19.5788 C   0  0  0  0  0  0  0  0  0  0  0  0
   -7.6048  -74.6257  -19.0179 N   0  0  0  0  0  0  0  0  0  0  0  0
   -8.1113  -73.7013  -20.0341 C   0  0  0  0  0  0  0  0  0  0  0  0
   -8.2376  -72.2159  -19.5522 C   0  0  1  0  0  0  0  0  0  0  0  0
   -6.8958  -71.7247  -18.8716 C   0  0  0  0  0  0  0  0  0  0  0  0
   -5.6755  -71.3183  -19.6794 C   0  0  0  0  0  0  0  0  0  0  0  0
   -5.0897  -70.0679  -19.4305 C   0  0  0  0  0  0  0  0  0  0  0  0
   -4.0835  -69.5530  -20.2549 C   0  0  0  0  0  0  0  0  0  0  0  0
   -3.5632  -70.3215  -21.2839 C   0  0  0  0  0  0  0  0  0  0  0  0
   -2.6336  -69.7526  -22.2156 C   0  0  0  0  0  0  0  0  0  0  0  0
   -1.9428  -69.3400  -23.0522 N   0  0  0  0  0  0  0  0  0  0  0  0
   -4.0229  -71.6303  -21.4406 C   0  0  0  0  0  0  0  0  0  0  0  0
   -5.0708  -72.1227  -20.6435 C   0  0  0  0  0  0  0  0  0  0  0  0
   -8.6326  -71.3808  -20.8099 C   0  0  0  0  0  0  0  0  0  0  0  0
   -9.5436  -70.1940  -20.5219 C   0  0  0  0  0  0  0  0  0  0  0  0
  -10.8782  -70.5796  -19.8491 C   0  0  1  0  0  0  0  0  0  0  0  0
  -12.0736  -70.5815  -20.8276 C   0  0  0  0  0  0  0  0  0  0  0  0
  -13.5560  -69.8965  -20.0581 S   0  0  0  0  0  0  0  0  0  0  0  0
  -13.9737  -70.7410  -18.9571 O   0  0  0  0  0  0  0  0  0  0  0  0
  -13.3896  -68.4768  -19.8745 O   0  0  0  0  0  0  0  0  0  0  0  0
  -14.7187  -70.1005  -21.2567 N   0  0  0  0  0  0  0  0  0  0  0  0
  -14.7654  -69.0803  -22.3120 C   0  0  0  0  0  0  0  0  0  0  0  0
  -10.7690  -71.9160  -19.0962 C   0  0  0  0  0  0  0  0  0  0  0  0
   -9.3797  -72.0969  -18.4793 C   0  0  0  0  0  0  0  0  0  0  0  0
  1  2  1  0
  2  3  1  0
  4  3  1  6
  4  5  1  0
  5  6  1  0
  6  7  2  0
  7  8  1  0
  8  9  2  0
  9 10  1  0
 10 11  3  0
  9 12  1  0
 12 13  2  0
  4 14  1  0
 14 15  1  0
 15 16  1  0
 16 17  1  6
 17 18  1  0
 18 19  2  0
 18 20  2  0
 18 21  1  0
 21 22  1  0
 16 23  1  0
 23 24  1  0
 24  4  1  0
 13  6  1  0
M  END
>  <inchikey>  (101) 
YZQGBJSPTYQODW-HDICACEKSA-N

>  <alias>  (101) 
None

>  <name>  (101) 
YZQGBJSPTYQODW-HDICACEKSA-N

>  <original ID>  (101) 
YZQGBJSPTYQODW-HDICACEKSA-N

>  <csv_name>  (101) 
thumb_site_2_fstein_bulkdock_input_split1000_batch000.csv

>  <fragmenstein_error>  (101) 
None

>  <fragmenstein_mode>  (101) 
expansion

>  <ref_pdb>  (101) 
d0379a

>  <exports>  (101) 
['/opt/xchem-fragalysis-2/maxwin/BulkDock/OUTPUTS/thumb_site_2_fstein_bulkdock_input_split1000_batch000_217914.sdf']

>  <SLURM_JOB_ID>  (101) 
217914

>  <HIPPO Pose ID>  (101) 
80276

>  <energy_score>  (101) 
-50.121565

>  <fragmenstein_runtime>  (101) 
18.392774

>  <original SMILES>  (101) 
CNC[C@]1(Cc2ccc(C#N)cc2)CC[C@H](CS(=O)(=O)NC)CC1

>  <scratch_subdir>  (101) 
/opt/xchem-fragalysis-2/maxwin/BulkDock/SCRATCH/217914/C68876-P35

>  <HIPPO Compound ID>  (101) 
68876

>  <fragmenstein_outcome>  (101) 
acceptable

>  <SLURM_JOB_NAME>  (101) 
BulkDock.place:Flavi_NS5_RdRp:thumb_site_2_fstein_bulkdock_input_split1000_batch000

>  <distance_score>  (101) 
0.951952

>  <ref_mols>  (101) 
d0283a,d0379a

>  <tags>  (101) 
['Fragmenstein placed']

$$$$
80513
     RDKit          3D

 21 22  0  0  0  0  0  0  0  0999 V2000
  -13.3673  -73.6911  -19.9501 C   0  0  0  0  0  0  0  0  0  0  0  0
  -12.5368  -72.7679  -19.1438 N   0  0  0  0  0  0  0  0  0  0  0  0
  -12.3499  -71.2543  -19.8567 S   0  0  0  0  0  0  0  0  0  0  0  0
  -13.5554  -70.5288  -19.5095 O   0  0  0  0  0  0  0  0  0  0  0  0
  -11.9673  -71.4613  -21.2324 O   0  0  0  0  0  0  0  0  0  0  0  0
  -11.0322  -70.5145  -18.9156 C   0  0  0  0  0  0  0  0  0  0  0  0
   -9.6707  -71.0848  -19.1465 C   0  0  0  0  0  0  0  0  0  0  0  0
   -9.0015  -71.7240  -18.1771 C   0  0  0  0  0  0  0  0  0  0  0  0
   -7.5853  -72.1263  -18.3141 C   0  0  0  0  0  0  0  0  0  0  0  0
   -7.0371  -72.6589  -17.3534 O   0  0  0  0  0  0  0  0  0  0  0  0
   -6.9953  -71.8446  -19.5288 N   0  0  0  0  0  0  0  0  0  0  0  0
   -5.5865  -72.1700  -19.7503 C   0  0  0  0  0  0  0  0  0  0  0  0
   -4.7664  -70.9441  -19.9223 C   0  0  0  0  0  0  0  0  0  0  0  0
   -3.8553  -70.5298  -20.8659 C   0  0  0  0  0  0  0  0  0  0  0  0
   -3.4640  -69.2409  -20.4384 C   0  0  0  0  0  0  0  0  0  0  0  0
   -2.5236  -68.2993  -21.0909 C   0  0  0  0  0  0  0  0  0  0  0  0
   -4.0628  -68.9153  -19.2869 N   0  0  0  0  0  0  0  0  0  0  0  0
   -4.8800  -69.9827  -18.9663 O   0  0  0  0  0  0  0  0  0  0  0  0
   -7.6458  -71.1941  -20.5500 N   0  0  0  0  0  0  0  0  0  0  0  0
   -8.8710  -70.8076  -20.3702 C   0  0  0  0  0  0  0  0  0  0  0  0
   -9.4695  -70.0087  -21.4984 C   0  0  0  0  0  0  0  0  0  0  0  0
  1  2  1  0
  2  3  1  0
  3  4  2  0
  3  5  2  0
  3  6  1  0
  6  7  1  0
  7  8  2  0
  8  9  1  0
  9 10  2  0
  9 11  1  0
 11 12  1  0
 12 13  1  0
 13 14  2  0
 14 15  1  0
 15 16  1  0
 15 17  2  0
 17 18  1  0
 11 19  1  0
 19 20  2  0
 20 21  1  0
 20  7  1  0
 18 13  1  0
M  END
>  <inchikey>  (102) 
SXHAFBAFBGCRRZ-UHFFFAOYSA-N

>  <alias>  (102) 
None

>  <name>  (102) 
SXHAFBAFBGCRRZ-UHFFFAOYSA-N

>  <original ID>  (102) 
SXHAFBAFBGCRRZ-UHFFFAOYSA-N

>  <csv_name>  (102) 
thumb_site_2_fstein_bulkdock_input_split1000_batch000.csv

>  <fragmenstein_error>  (102) 
None

>  <fragmenstein_mode>  (102) 
expansion

>  <ref_pdb>  (102) 
d0153b

>  <exports>  (102) 
['/opt/xchem-fragalysis-2/maxwin/BulkDock/OUTPUTS/thumb_site_2_fstein_bulkdock_input_split1000_batch000_217914.sdf']

>  <SLURM_JOB_ID>  (102) 
217914

>  <HIPPO Pose ID>  (102) 
80513

>  <energy_score>  (102) 
-54.567755

>  <fragmenstein_runtime>  (102) 
1.83823

>  <original SMILES>  (102) 
CNS(=O)(=O)Cc1cc(=O)n(Cc2cc(C)no2)nc1C

>  <scratch_subdir>  (102) 
/opt/xchem-fragalysis-2/maxwin/BulkDock/SCRATCH/217914/C68919-P9

>  <HIPPO Compound ID>  (102) 
68919

>  <fragmenstein_outcome>  (102) 
acceptable

>  <SLURM_JOB_NAME>  (102) 
BulkDock.place:Flavi_NS5_RdRp:thumb_site_2_fstein_bulkdock_input_split1000_batch000

>  <distance_score>  (102) 
0.598782

>  <ref_mols>  (102) 
d0153b,d0379a

>  <tags>  (102) 
['Fragmenstein placed']

$$$$
80515
     RDKit          3D

 21 22  0  0  0  0  0  0  0  0999 V2000
  -13.2349  -73.5529  -19.8529 C   0  0  0  0  0  0  0  0  0  0  0  0
  -12.4086  -72.5724  -19.1109 N   0  0  0  0  0  0  0  0  0  0  0  0
  -12.2994  -71.0776  -19.8789 S   0  0  0  0  0  0  0  0  0  0  0  0
  -13.4974  -70.3695  -19.4752 O   0  0  0  0  0  0  0  0  0  0  0  0
  -12.0054  -71.3218  -21.2711 O   0  0  0  0  0  0  0  0  0  0  0  0
  -10.9247  -70.2762  -19.0669 C   0  0  0  0  0  0  0  0  0  0  0  0
   -9.6126  -70.9671  -19.2463 C   0  0  0  0  0  0  0  0  0  0  0  0
   -8.9830  -71.5790  -18.2339 C   0  0  0  0  0  0  0  0  0  0  0  0
   -7.6064  -72.1051  -18.3562 C   0  0  0  0  0  0  0  0  0  0  0  0
   -7.0730  -72.5770  -17.3565 O   0  0  0  0  0  0  0  0  0  0  0  0
   -7.0293  -71.9961  -19.6049 N   0  0  0  0  0  0  0  0  0  0  0  0
   -5.6469  -72.4259  -19.8130 C   0  0  0  0  0  0  0  0  0  0  0  0
   -4.7716  -71.2557  -20.0652 C   0  0  0  0  0  0  0  0  0  0  0  0
   -3.9271  -70.8891  -21.0875 C   0  0  0  0  0  0  0  0  0  0  0  0
   -3.4393  -69.6213  -20.7022 C   0  0  0  0  0  0  0  0  0  0  0  0
   -2.5096  -68.7229  -21.4279 C   0  0  0  0  0  0  0  0  0  0  0  0
   -3.9335  -69.2635  -19.5116 N   0  0  0  0  0  0  0  0  0  0  0  0
   -4.7630  -70.2869  -19.1126 O   0  0  0  0  0  0  0  0  0  0  0  0
   -7.6344  -71.3609  -20.6622 N   0  0  0  0  0  0  0  0  0  0  0  0
   -8.8143  -70.8514  -20.4944 C   0  0  0  0  0  0  0  0  0  0  0  0
   -9.3307  -70.0463  -21.6558 C   0  0  0  0  0  0  0  0  0  0  0  0
  1  2  1  0
  2  3  1  0
  3  4  2  0
  3  5  2  0
  3  6  1  0
  6  7  1  0
  7  8  2  0
  8  9  1  0
  9 10  2  0
  9 11  1  0
 11 12  1  0
 12 13  1  0
 13 14  2  0
 14 15  1  0
 15 16  1  0
 15 17  2  0
 17 18  1  0
 11 19  1  0
 19 20  2  0
 20 21  1  0
 20  7  1  0
 18 13  1  0
M  END
>  <inchikey>  (103) 
SXHAFBAFBGCRRZ-UHFFFAOYSA-N

>  <alias>  (103) 
None

>  <name>  (103) 
SXHAFBAFBGCRRZ-UHFFFAOYSA-N

>  <original ID>  (103) 
SXHAFBAFBGCRRZ-UHFFFAOYSA-N

>  <csv_name>  (103) 
thumb_site_2_fstein_bulkdock_input_split1000_batch000.csv

>  <fragmenstein_error>  (103) 
None

>  <fragmenstein_mode>  (103) 
expansion

>  <ref_pdb>  (103) 
d0379a

>  <exports>  (103) 
['/opt/xchem-fragalysis-2/maxwin/BulkDock/OUTPUTS/thumb_site_2_fstein_bulkdock_input_split1000_batch000_217914.sdf']

>  <SLURM_JOB_ID>  (103) 
217914

>  <HIPPO Pose ID>  (103) 
80515

>  <energy_score>  (103) 
-55.665477

>  <fragmenstein_runtime>  (103) 
2.071419

>  <original SMILES>  (103) 
CNS(=O)(=O)Cc1cc(=O)n(Cc2cc(C)no2)nc1C

>  <scratch_subdir>  (103) 
/opt/xchem-fragalysis-2/maxwin/BulkDock/SCRATCH/217914/C68919-P35

>  <HIPPO Compound ID>  (103) 
68919

>  <fragmenstein_outcome>  (103) 
acceptable

>  <SLURM_JOB_NAME>  (103) 
BulkDock.place:Flavi_NS5_RdRp:thumb_site_2_fstein_bulkdock_input_split1000_batch000

>  <distance_score>  (103) 
0.579226

>  <ref_mols>  (103) 
d0153b,d0379a

>  <tags>  (103) 
['Fragmenstein placed']

$$$$
80525
     RDKit          3D

 16 17  0  0  0  0  0  0  0  0999 V2000
  -11.1118  -70.9353  -21.3291 C   0  0  0  0  0  0  0  0  0  0  0  0
   -9.7046  -70.3595  -21.2907 C   0  0  0  0  0  0  0  0  0  0  0  0
   -8.8549  -70.9985  -20.2124 C   0  0  0  0  0  0  0  0  0  0  0  0
   -9.3769  -70.9889  -18.8306 C   0  0  0  0  0  0  0  0  0  0  0  0
   -8.6270  -71.5693  -17.8964 C   0  0  0  0  0  0  0  0  0  0  0  0
   -7.3027  -72.1286  -18.2295 C   0  0  0  0  0  0  0  0  0  0  0  0
   -6.6321  -72.6106  -17.3215 O   0  0  0  0  0  0  0  0  0  0  0  0
   -6.9209  -72.0461  -19.5577 N   0  0  0  0  0  0  0  0  0  0  0  0
   -5.5587  -72.4155  -19.9390 C   0  0  0  0  0  0  0  0  0  0  0  0
   -4.7552  -71.2112  -20.2763 C   0  0  0  0  0  0  0  0  0  0  0  0
   -3.6412  -70.9886  -21.0543 C   0  0  0  0  0  0  0  0  0  0  0  0
   -3.4324  -69.5929  -20.9788 C   0  0  0  0  0  0  0  0  0  0  0  0
   -2.3744  -68.7701  -21.6109 C   0  0  0  0  0  0  0  0  0  0  0  0
   -4.3655  -69.0159  -20.2167 N   0  0  0  0  0  0  0  0  0  0  0  0
   -5.1611  -70.0279  -19.7426 O   0  0  0  0  0  0  0  0  0  0  0  0
   -7.7117  -71.5022  -20.5534 N   0  0  0  0  0  0  0  0  0  0  0  0
  1  2  1  0
  2  3  1  0
  3  4  1  0
  4  5  2  0
  5  6  1  0
  6  7  2  0
  6  8  1  0
  8  9  1  0
  9 10  1  0
 10 11  2  0
 11 12  1  0
 12 13  1  0
 12 14  2  0
 14 15  1  0
  8 16  1  0
 16  3  2  0
 15 10  1  0
M  END
>  <inchikey>  (104) 
MKWUNOYKUUHWRR-UHFFFAOYSA-N

>  <alias>  (104) 
None

>  <name>  (104) 
MKWUNOYKUUHWRR-UHFFFAOYSA-N

>  <original ID>  (104) 
MKWUNOYKUUHWRR-UHFFFAOYSA-N

>  <csv_name>  (104) 
thumb_site_2_fstein_bulkdock_input_split1000_batch000.csv

>  <fragmenstein_error>  (104) 
None

>  <fragmenstein_mode>  (104) 
expansion

>  <ref_pdb>  (104) 
d0283a

>  <exports>  (104) 
['/opt/xchem-fragalysis-2/maxwin/BulkDock/OUTPUTS/thumb_site_2_fstein_bulkdock_input_split1000_batch000_217914.sdf']

>  <SLURM_JOB_ID>  (104) 
217914

>  <HIPPO Pose ID>  (104) 
80525

>  <energy_score>  (104) 
-30.25281

>  <fragmenstein_runtime>  (104) 
1.664568

>  <original SMILES>  (104) 
CCc1ccc(=O)n(Cc2cc(C)no2)n1

>  <scratch_subdir>  (104) 
/opt/xchem-fragalysis-2/maxwin/BulkDock/SCRATCH/217914/C68927-P30

>  <HIPPO Compound ID>  (104) 
68927

>  <fragmenstein_outcome>  (104) 
acceptable

>  <SLURM_JOB_NAME>  (104) 
BulkDock.place:Flavi_NS5_RdRp:thumb_site_2_fstein_bulkdock_input_split1000_batch000

>  <distance_score>  (104) 
0.738167

>  <ref_mols>  (104) 
d0283a,d0379a

>  <tags>  (104) 
['Fragmenstein placed']

$$$$
80527
     RDKit          3D

 16 17  0  0  0  0  0  0  0  0999 V2000
  -11.0820  -70.9734  -21.3515 C   0  0  0  0  0  0  0  0  0  0  0  0
   -9.6881  -70.3656  -21.3184 C   0  0  0  0  0  0  0  0  0  0  0  0
   -8.8266  -70.9683  -20.2307 C   0  0  0  0  0  0  0  0  0  0  0  0
   -9.3547  -70.9495  -18.8511 C   0  0  0  0  0  0  0  0  0  0  0  0
   -8.6113  -71.5287  -17.9114 C   0  0  0  0  0  0  0  0  0  0  0  0
   -7.2878  -72.0928  -18.2377 C   0  0  0  0  0  0  0  0  0  0  0  0
   -6.6284  -72.5853  -17.3275 O   0  0  0  0  0  0  0  0  0  0  0  0
   -6.8934  -72.0013  -19.5626 N   0  0  0  0  0  0  0  0  0  0  0  0
   -5.5463  -72.4183  -19.9394 C   0  0  0  0  0  0  0  0  0  0  0  0
   -4.6908  -71.2315  -20.1785 C   0  0  0  0  0  0  0  0  0  0  0  0
   -3.8167  -70.8607  -21.1739 C   0  0  0  0  0  0  0  0  0  0  0  0
   -3.3673  -69.5794  -20.7856 C   0  0  0  0  0  0  0  0  0  0  0  0
   -2.4232  -68.6724  -21.4793 C   0  0  0  0  0  0  0  0  0  0  0  0
   -3.9173  -69.2149  -19.6228 N   0  0  0  0  0  0  0  0  0  0  0  0
   -4.7337  -70.2516  -19.2379 O   0  0  0  0  0  0  0  0  0  0  0  0
   -7.6733  -71.4546  -20.5642 N   0  0  0  0  0  0  0  0  0  0  0  0
  1  2  1  0
  2  3  1  0
  3  4  1  0
  4  5  2  0
  5  6  1  0
  6  7  2  0
  6  8  1  0
  8  9  1  0
  9 10  1  0
 10 11  2  0
 11 12  1  0
 12 13  1  0
 12 14  2  0
 14 15  1  0
  8 16  1  0
 16  3  2  0
 15 10  1  0
M  END
>  <inchikey>  (105) 
MKWUNOYKUUHWRR-UHFFFAOYSA-N

>  <alias>  (105) 
None

>  <name>  (105) 
MKWUNOYKUUHWRR-UHFFFAOYSA-N

>  <original ID>  (105) 
MKWUNOYKUUHWRR-UHFFFAOYSA-N

>  <csv_name>  (105) 
thumb_site_2_fstein_bulkdock_input_split1000_batch000.csv

>  <fragmenstein_error>  (105) 
None

>  <fragmenstein_mode>  (105) 
expansion

>  <ref_pdb>  (105) 
d0379a

>  <exports>  (105) 
['/opt/xchem-fragalysis-2/maxwin/BulkDock/OUTPUTS/thumb_site_2_fstein_bulkdock_input_split1000_batch000_217914.sdf']

>  <SLURM_JOB_ID>  (105) 
217914

>  <HIPPO Pose ID>  (105) 
80527

>  <energy_score>  (105) 
-31.851307

>  <fragmenstein_runtime>  (105) 
1.614356

>  <original SMILES>  (105) 
CCc1ccc(=O)n(Cc2cc(C)no2)n1

>  <scratch_subdir>  (105) 
/opt/xchem-fragalysis-2/maxwin/BulkDock/SCRATCH/217914/C68927-P35

>  <HIPPO Compound ID>  (105) 
68927

>  <fragmenstein_outcome>  (105) 
acceptable

>  <SLURM_JOB_NAME>  (105) 
BulkDock.place:Flavi_NS5_RdRp:thumb_site_2_fstein_bulkdock_input_split1000_batch000

>  <distance_score>  (105) 
0.726038

>  <ref_mols>  (105) 
d0283a,d0379a

>  <tags>  (105) 
['Fragmenstein placed']

$$$$
80533
     RDKit          3D

 17 19  0  0  0  0  0  0  0  0999 V2000
   -2.4629  -68.6835  -21.4713 C   0  0  0  0  0  0  0  0  0  0  0  0
   -3.4278  -69.5589  -20.7647 C   0  0  0  0  0  0  0  0  0  0  0  0
   -3.9304  -70.8207  -21.1495 C   0  0  0  0  0  0  0  0  0  0  0  0
   -4.8038  -71.1617  -20.1423 C   0  0  0  0  0  0  0  0  0  0  0  0
   -5.6741  -72.3267  -19.8832 C   0  0  0  0  0  0  0  0  0  0  0  0
   -7.0177  -71.9267  -19.5321 N   0  0  0  0  0  0  0  0  0  0  0  0
   -7.8958  -71.3169  -20.4495 N   0  0  0  0  0  0  0  0  0  0  0  0
   -9.0470  -71.0575  -19.7237 C   0  0  0  0  0  0  0  0  0  0  0  0
   -8.9143  -71.3134  -18.4143 C   0  0  0  0  0  0  0  0  0  0  0  0
   -7.5550  -71.8677  -18.2555 C   0  0  0  0  0  0  0  0  0  0  0  0
   -7.0667  -72.2286  -17.2005 O   0  0  0  0  0  0  0  0  0  0  0  0
   -9.9906  -71.2791  -17.4026 C   0  0  0  0  0  0  0  0  0  0  0  0
  -11.3547  -71.3782  -18.0987 C   0  0  0  0  0  0  0  0  0  0  0  0
  -11.4569  -70.4336  -19.3042 C   0  0  0  0  0  0  0  0  0  0  0  0
  -10.3491  -70.6722  -20.3469 C   0  0  0  0  0  0  0  0  0  0  0  0
   -4.7948  -70.1871  -19.1974 O   0  0  0  0  0  0  0  0  0  0  0  0
   -3.9419  -69.1832  -19.5895 N   0  0  0  0  0  0  0  0  0  0  0  0
  1  2  1  0
  2  3  1  0
  3  4  2  0
  4  5  1  0
  5  6  1  0
  6  7  1  0
  7  8  1  0
  8  9  2  0
  9 10  1  0
 10 11  2  0
  9 12  1  0
 12 13  1  0
 13 14  1  0
 14 15  1  0
  4 16  1  0
 16 17  1  0
 17  2  2  0
 10  6  1  0
 15  8  1  0
M  END
>  <inchikey>  (106) 
PRYCZZKOYFDPQN-UHFFFAOYSA-N

>  <alias>  (106) 
None

>  <name>  (106) 
PRYCZZKOYFDPQN-UHFFFAOYSA-N

>  <original ID>  (106) 
PRYCZZKOYFDPQN-UHFFFAOYSA-N

>  <csv_name>  (106) 
thumb_site_2_fstein_bulkdock_input_split1000_batch000.csv

>  <fragmenstein_error>  (106) 
None

>  <fragmenstein_mode>  (106) 
expansion

>  <ref_pdb>  (106) 
d0379a

>  <exports>  (106) 
['/opt/xchem-fragalysis-2/maxwin/BulkDock/OUTPUTS/thumb_site_2_fstein_bulkdock_input_split1000_batch000_217914.sdf']

>  <SLURM_JOB_ID>  (106) 
217914

>  <HIPPO Pose ID>  (106) 
80533

>  <energy_score>  (106) 
-37.935655

>  <fragmenstein_runtime>  (106) 
2.104749

>  <original SMILES>  (106) 
Cc1cc(Cn2[nH]c3c(c2=O)CCCC3)on1

>  <scratch_subdir>  (106) 
/opt/xchem-fragalysis-2/maxwin/BulkDock/SCRATCH/217914/C68932-P35

>  <HIPPO Compound ID>  (106) 
68932

>  <fragmenstein_outcome>  (106) 
acceptable

>  <SLURM_JOB_NAME>  (106) 
BulkDock.place:Flavi_NS5_RdRp:thumb_site_2_fstein_bulkdock_input_split1000_batch000

>  <distance_score>  (106) 
0.912024

>  <ref_mols>  (106) 
d0379a,d0567a

>  <tags>  (106) 
['Fragmenstein placed']

$$$$
80534
     RDKit          3D

 17 19  0  0  0  0  0  0  0  0999 V2000
   -2.4127  -68.3781  -21.1016 C   0  0  0  0  0  0  0  0  0  0  0  0
   -3.4726  -69.2331  -20.5160 C   0  0  0  0  0  0  0  0  0  0  0  0
   -3.7149  -70.6090  -20.7285 C   0  0  0  0  0  0  0  0  0  0  0  0
   -4.8430  -70.8810  -19.9876 C   0  0  0  0  0  0  0  0  0  0  0  0
   -5.6498  -72.1057  -19.7692 C   0  0  0  0  0  0  0  0  0  0  0  0
   -7.0359  -71.8312  -19.4571 N   0  0  0  0  0  0  0  0  0  0  0  0
   -7.9239  -71.2383  -20.3748 N   0  0  0  0  0  0  0  0  0  0  0  0
   -9.1037  -71.0570  -19.6722 C   0  0  0  0  0  0  0  0  0  0  0  0
   -8.9933  -71.3533  -18.3704 C   0  0  0  0  0  0  0  0  0  0  0  0
   -7.6189  -71.8664  -18.2007 C   0  0  0  0  0  0  0  0  0  0  0  0
   -7.1499  -72.2682  -17.1520 O   0  0  0  0  0  0  0  0  0  0  0  0
  -10.0821  -71.3443  -17.3720 C   0  0  0  0  0  0  0  0  0  0  0  0
  -11.4474  -71.3786  -18.0732 C   0  0  0  0  0  0  0  0  0  0  0  0
  -11.5171  -70.4301  -19.2779 C   0  0  0  0  0  0  0  0  0  0  0  0
  -10.3984  -70.6727  -20.3084 C   0  0  0  0  0  0  0  0  0  0  0  0
   -5.2108  -69.7546  -19.3212 O   0  0  0  0  0  0  0  0  0  0  0  0
   -4.3613  -68.7221  -19.6590 N   0  0  0  0  0  0  0  0  0  0  0  0
  1  2  1  0
  2  3  1  0
  3  4  2  0
  4  5  1  0
  5  6  1  0
  6  7  1  0
  7  8  1  0
  8  9  2  0
  9 10  1  0
 10 11  2  0
  9 12  1  0
 12 13  1  0
 13 14  1  0
 14 15  1  0
  4 16  1  0
 16 17  1  0
 17  2  2  0
 10  6  1  0
 15  8  1  0
M  END
>  <inchikey>  (107) 
PRYCZZKOYFDPQN-UHFFFAOYSA-N

>  <alias>  (107) 
None

>  <name>  (107) 
PRYCZZKOYFDPQN-UHFFFAOYSA-N

>  <original ID>  (107) 
PRYCZZKOYFDPQN-UHFFFAOYSA-N

>  <csv_name>  (107) 
thumb_site_2_fstein_bulkdock_input_split1000_batch000.csv

>  <fragmenstein_error>  (107) 
None

>  <fragmenstein_mode>  (107) 
expansion

>  <ref_pdb>  (107) 
d0567a

>  <exports>  (107) 
['/opt/xchem-fragalysis-2/maxwin/BulkDock/OUTPUTS/thumb_site_2_fstein_bulkdock_input_split1000_batch000_217914.sdf']

>  <SLURM_JOB_ID>  (107) 
217914

>  <HIPPO Pose ID>  (107) 
80534

>  <energy_score>  (107) 
-37.482937

>  <fragmenstein_runtime>  (107) 
2.114656

>  <original SMILES>  (107) 
Cc1cc(Cn2[nH]c3c(c2=O)CCCC3)on1

>  <scratch_subdir>  (107) 
/opt/xchem-fragalysis-2/maxwin/BulkDock/SCRATCH/217914/C68932-P46

>  <HIPPO Compound ID>  (107) 
68932

>  <fragmenstein_outcome>  (107) 
acceptable

>  <SLURM_JOB_NAME>  (107) 
BulkDock.place:Flavi_NS5_RdRp:thumb_site_2_fstein_bulkdock_input_split1000_batch000

>  <distance_score>  (107) 
0.889492

>  <ref_mols>  (107) 
d0379a,d0567a

>  <tags>  (107) 
['Fragmenstein placed']

$$$$
80772
     RDKit          3D

 21 23  0  0  0  0  0  0  0  0999 V2000
   -2.1624  -69.3443  -21.2086 C   0  0  0  0  0  0  0  0  0  0  0  0
   -3.4983  -69.2650  -20.7380 O   0  0  0  0  0  0  0  0  0  0  0  0
   -3.9021  -70.2524  -19.7626 C   0  0  0  0  0  0  0  0  0  0  0  0
   -5.2776  -70.0141  -19.1074 C   0  0  0  0  0  0  0  0  0  0  0  0
   -5.8690  -71.1270  -19.8905 N   0  0  0  0  0  0  0  0  0  0  0  0
   -7.1206  -72.1150  -19.4033 S   0  0  0  0  0  0  0  0  0  0  0  0
   -6.9914  -72.3605  -17.9853 O   0  0  0  0  0  0  0  0  0  0  0  0
   -7.2484  -73.1942  -20.3528 O   0  0  0  0  0  0  0  0  0  0  0  0
   -8.4053  -71.0524  -19.6270 N   0  0  0  0  0  0  0  0  0  0  0  0
   -8.5568  -70.4856  -20.9976 C   0  0  0  0  0  0  0  0  0  0  0  0
  -10.0193  -70.6636  -21.3659 C   0  0  0  0  0  0  0  0  0  0  0  0
  -10.7178  -70.6818  -20.0156 C   0  0  1  0  0  0  0  0  0  0  0  0
  -12.0957  -71.1639  -20.1131 N   0  0  0  0  0  0  0  0  0  0  0  0
  -12.8368  -70.0469  -20.7038 O   0  0  0  0  0  0  0  0  0  0  0  0
  -13.4752  -70.4101  -21.8406 C   0  0  0  0  0  0  0  0  0  0  0  0
  -14.3022  -69.5768  -22.6195 C   0  0  0  0  0  0  0  0  0  0  0  0
  -14.8047  -70.2165  -23.6801 N   0  0  0  0  0  0  0  0  0  0  0  0
  -14.2488  -71.4404  -23.6076 N   0  0  0  0  0  0  0  0  0  0  0  0
  -13.4630  -71.6155  -22.5035 C   0  0  0  0  0  0  0  0  0  0  0  0
   -9.7440  -71.5497  -19.2010 C   0  0  0  0  0  0  0  0  0  0  0  0
   -4.5088  -71.5711  -20.2892 C   0  0  0  0  0  0  0  0  0  0  0  0
  1  2  1  0
  2  3  1  0
  3  4  1  0
  4  5  1  0
  5  6  1  0
  6  7  2  0
  6  8  2  0
  6  9  1  0
  9 10  1  0
 10 11  1  0
 11 12  1  0
 12 13  1  6
 13 14  1  0
 14 15  1  0
 15 16  1  0
 16 17  2  0
 17 18  1  0
 18 19  1  0
 12 20  1  0
  5 21  1  0
 21  3  1  0
 20  9  1  0
 19 15  2  0
M  END
>  <inchikey>  (108) 
HNHDIMZFMYZVIW-SECBINFHSA-N

>  <alias>  (108) 
None

>  <name>  (108) 
HNHDIMZFMYZVIW-SECBINFHSA-N

>  <original ID>  (108) 
HNHDIMZFMYZVIW-SECBINFHSA-N

>  <csv_name>  (108) 
thumb_site_2_fstein_bulkdock_input_split1000_batch000.csv

>  <fragmenstein_error>  (108) 
None

>  <fragmenstein_mode>  (108) 
expansion

>  <ref_pdb>  (108) 
d0248a

>  <exports>  (108) 
['/opt/xchem-fragalysis-2/maxwin/BulkDock/OUTPUTS/thumb_site_2_fstein_bulkdock_input_split1000_batch000_217914.sdf']

>  <SLURM_JOB_ID>  (108) 
217914

>  <HIPPO Pose ID>  (108) 
80772

>  <energy_score>  (108) 
-89.423176

>  <fragmenstein_runtime>  (108) 
122.217916

>  <original SMILES>  (108) 
COC1CN(S(=O)(=O)N2CC[C@@H](NOc3cn[nH]c3)C2)C1

>  <scratch_subdir>  (108) 
/opt/xchem-fragalysis-2/maxwin/BulkDock/SCRATCH/217914/C68976-P22

>  <HIPPO Compound ID>  (108) 
68976

>  <fragmenstein_outcome>  (108) 
acceptable

>  <SLURM_JOB_NAME>  (108) 
BulkDock.place:Flavi_NS5_RdRp:thumb_site_2_fstein_bulkdock_input_split1000_batch000

>  <distance_score>  (108) 
0.85196

>  <ref_mols>  (108) 
d0248a,d0503a

>  <tags>  (108) 
['Fragmenstein placed']

$$$$
80779
     RDKit          3D

 21 23  0  0  0  0  0  0  0  0999 V2000
   -2.1443  -69.2278  -21.0939 C   0  0  0  0  0  0  0  0  0  0  0  0
   -3.5142  -69.2097  -20.7268 O   0  0  0  0  0  0  0  0  0  0  0  0
   -3.9153  -70.1398  -19.6944 C   0  0  0  0  0  0  0  0  0  0  0  0
   -5.3201  -69.9146  -19.1050 C   0  0  0  0  0  0  0  0  0  0  0  0
   -5.8453  -71.1003  -19.8275 N   0  0  0  0  0  0  0  0  0  0  0  0
   -7.0843  -72.0924  -19.3138 S   0  0  0  0  0  0  0  0  0  0  0  0
   -6.9601  -72.2901  -17.8882 O   0  0  0  0  0  0  0  0  0  0  0  0
   -7.1991  -73.2020  -20.2291 O   0  0  0  0  0  0  0  0  0  0  0  0
   -8.3820  -71.0524  -19.5725 N   0  0  0  0  0  0  0  0  0  0  0  0
   -8.5536  -70.5627  -20.9678 C   0  0  0  0  0  0  0  0  0  0  0  0
  -10.0389  -70.6545  -21.2721 C   0  0  0  0  0  0  0  0  0  0  0  0
  -10.6838  -70.6296  -19.8970 C   0  0  1  0  0  0  0  0  0  0  0  0
  -12.0814  -71.0646  -19.9301 N   0  0  0  0  0  0  0  0  0  0  0  0
  -12.8032  -69.9539  -20.5554 O   0  0  0  0  0  0  0  0  0  0  0  0
  -13.4625  -70.3453  -21.6711 C   0  0  0  0  0  0  0  0  0  0  0  0
  -14.3022  -69.5312  -22.4565 C   0  0  0  0  0  0  0  0  0  0  0  0
  -14.8243  -70.1967  -23.4921 N   0  0  0  0  0  0  0  0  0  0  0  0
  -14.2508  -71.4125  -23.4095 N   0  0  0  0  0  0  0  0  0  0  0  0
  -13.4577  -71.5650  -22.3069 C   0  0  0  0  0  0  0  0  0  0  0  0
   -9.7119  -71.5213  -19.1047 C   0  0  0  0  0  0  0  0  0  0  0  0
   -4.4551  -71.5171  -20.1473 C   0  0  0  0  0  0  0  0  0  0  0  0
  1  2  1  0
  2  3  1  0
  3  4  1  0
  4  5  1  0
  5  6  1  0
  6  7  2  0
  6  8  2  0
  6  9  1  0
  9 10  1  0
 10 11  1  0
 11 12  1  0
 12 13  1  6
 13 14  1  0
 14 15  1  0
 15 16  1  0
 16 17  2  0
 17 18  1  0
 18 19  1  0
 12 20  1  0
  5 21  1  0
 21  3  1  0
 20  9  1  0
 19 15  2  0
M  END
>  <inchikey>  (109) 
HNHDIMZFMYZVIW-SECBINFHSA-N

>  <alias>  (109) 
None

>  <name>  (109) 
HNHDIMZFMYZVIW-SECBINFHSA-N

>  <original ID>  (109) 
HNHDIMZFMYZVIW-SECBINFHSA-N

>  <csv_name>  (109) 
thumb_site_2_fstein_bulkdock_input_split1000_batch000.csv

>  <fragmenstein_error>  (109) 
None

>  <fragmenstein_mode>  (109) 
expansion

>  <ref_pdb>  (109) 
d0503a

>  <exports>  (109) 
['/opt/xchem-fragalysis-2/maxwin/BulkDock/OUTPUTS/thumb_site_2_fstein_bulkdock_input_split1000_batch000_217914.sdf']

>  <SLURM_JOB_ID>  (109) 
217914

>  <HIPPO Pose ID>  (109) 
80779

>  <energy_score>  (109) 
-89.143381

>  <fragmenstein_runtime>  (109) 
132.576826

>  <original SMILES>  (109) 
COC1CN(S(=O)(=O)N2CC[C@@H](NOc3cn[nH]c3)C2)C1

>  <scratch_subdir>  (109) 
/opt/xchem-fragalysis-2/maxwin/BulkDock/SCRATCH/217914/C68976-P44

>  <HIPPO Compound ID>  (109) 
68976

>  <fragmenstein_outcome>  (109) 
acceptable

>  <SLURM_JOB_NAME>  (109) 
BulkDock.place:Flavi_NS5_RdRp:thumb_site_2_fstein_bulkdock_input_split1000_batch000

>  <distance_score>  (109) 
0.854612

>  <ref_mols>  (109) 
d0248a,d0503a

>  <tags>  (109) 
['Fragmenstein placed']

$$$$
80786
     RDKit          3D

 23 25  0  0  0  0  0  0  0  0999 V2000
   -2.2554  -68.3414  -20.7329 C   0  0  0  0  0  0  0  0  0  0  0  0
   -2.7455  -69.5068  -20.0702 O   0  0  0  0  0  0  0  0  0  0  0  0
   -4.0501  -69.9409  -20.4946 C   0  0  0  0  0  0  0  0  0  0  0  0
   -5.2480  -69.6658  -19.5417 C   0  0  0  0  0  0  0  0  0  0  0  0
   -5.8352  -70.9015  -20.0859 N   0  0  0  0  0  0  0  0  0  0  0  0
   -7.0676  -71.7817  -19.4174 S   0  0  1  0  0  0  0  0  0  0  0  0
   -7.1774  -72.9698  -20.2303 O   0  0  0  0  0  0  0  0  0  0  0  0
   -6.8914  -71.7496  -17.9097 N   0  0  0  0  0  0  0  0  0  0  0  0
   -7.2441  -72.9994  -17.1957 C   0  0  0  0  0  0  0  0  0  0  0  0
   -7.7139  -72.6866  -15.7489 C   0  0  0  0  0  0  0  0  0  0  0  0
   -8.4893  -71.8372  -15.4826 O   0  0  0  0  0  0  0  0  0  0  0  0
   -6.9644  -73.6609  -14.8407 N   0  0  0  0  0  0  0  0  0  0  0  0
   -7.7608  -74.9549  -14.6384 C   0  0  0  0  0  0  0  0  0  0  0  0
   -6.9433  -76.2034  -14.2470 C   0  0  0  0  0  0  0  0  0  0  0  0
   -6.4862  -76.0857  -12.9043 O   0  0  0  0  0  0  0  0  0  0  0  0
   -5.9302  -74.7830  -12.7497 C   0  0  0  0  0  0  0  0  0  0  0  0
   -6.9138  -73.7599  -13.3286 C   0  0  0  0  0  0  0  0  0  0  0  0
   -8.4990  -70.9292  -19.6873 N   0  0  0  0  0  0  0  0  0  0  0  0
   -8.8464  -70.4991  -21.0415 C   0  0  0  0  0  0  0  0  0  0  0  0
  -10.3603  -70.5722  -21.1549 C   0  0  0  0  0  0  0  0  0  0  0  0
  -10.8392  -70.6185  -19.7243 C   0  0  0  0  0  0  0  0  0  0  0  0
   -9.7276  -71.3731  -19.0315 C   0  0  0  0  0  0  0  0  0  0  0  0
   -4.4585  -71.4163  -20.2489 C   0  0  0  0  0  0  0  0  0  0  0  0
  1  2  1  0
  2  3  1  0
  3  4  1  0
  4  5  1  0
  6  5  1  6
  6  7  2  0
  6  8  2  0
  8  9  1  0
  9 10  1  0
 10 11  2  0
 10 12  1  0
 12 13  1  0
 13 14  1  0
 14 15  1  0
 15 16  1  0
 16 17  1  0
  6 18  1  0
 18 19  1  0
 19 20  1  0
 20 21  1  0
 21 22  1  0
  5 23  1  0
 23  3  1  0
 17 12  1  0
 22 18  1  0
M  END
>  <inchikey>  (110) 
POZQEXATJPHDLX-HSZRJFAPSA-N

>  <alias>  (110) 
None

>  <name>  (110) 
POZQEXATJPHDLX-HSZRJFAPSA-N

>  <original ID>  (110) 
POZQEXATJPHDLX-HSZRJFAPSA-N

>  <csv_name>  (110) 
thumb_site_2_fstein_bulkdock_input_split1000_batch000.csv

>  <fragmenstein_error>  (110) 
None

>  <fragmenstein_mode>  (110) 
expansion

>  <ref_pdb>  (110) 
d0503a

>  <exports>  (110) 
['/opt/xchem-fragalysis-2/maxwin/BulkDock/OUTPUTS/thumb_site_2_fstein_bulkdock_input_split1000_batch000_217914.sdf']

>  <SLURM_JOB_ID>  (110) 
217914

>  <HIPPO Pose ID>  (110) 
80786

>  <energy_score>  (110) 
-6.812726

>  <fragmenstein_runtime>  (110) 
60.804595

>  <original SMILES>  (110) 
COC1CN([S@@](=O)(=NCC(=O)N2CCOCC2)N2CCCC2)C1

>  <scratch_subdir>  (110) 
/opt/xchem-fragalysis-2/maxwin/BulkDock/SCRATCH/217914/C68984-P44

>  <HIPPO Compound ID>  (110) 
68984

>  <fragmenstein_outcome>  (110) 
acceptable

>  <SLURM_JOB_NAME>  (110) 
BulkDock.place:Flavi_NS5_RdRp:thumb_site_2_fstein_bulkdock_input_split1000_batch000

>  <distance_score>  (110) 
0.993966

>  <ref_mols>  (110) 
d0503a,d0566a

>  <tags>  (110) 
['Fragmenstein placed']

$$$$
80791
     RDKit          3D

 23 25  0  0  0  0  0  0  0  0999 V2000
   -2.4005  -68.0620  -20.3741 C   0  0  0  0  0  0  0  0  0  0  0  0
   -2.7234  -69.4047  -20.0129 O   0  0  0  0  0  0  0  0  0  0  0  0
   -3.9994  -69.8735  -20.4873 C   0  0  0  0  0  0  0  0  0  0  0  0
   -5.2395  -69.6178  -19.5893 C   0  0  0  0  0  0  0  0  0  0  0  0
   -5.7754  -70.8812  -20.1249 N   0  0  0  0  0  0  0  0  0  0  0  0
   -6.9947  -71.7741  -19.4329 S   0  0  1  0  0  0  0  0  0  0  0  0
   -7.1499  -72.9247  -20.2917 O   0  0  0  0  0  0  0  0  0  0  0  0
   -6.7078  -71.8056  -17.9407 N   0  0  0  0  0  0  0  0  0  0  0  0
   -6.6352  -73.1427  -17.2976 C   0  0  0  0  0  0  0  0  0  0  0  0
   -8.0324  -73.6509  -16.8343 C   0  0  0  0  0  0  0  0  0  0  0  0
   -8.8503  -72.9506  -16.3531 O   0  0  0  0  0  0  0  0  0  0  0  0
   -8.0267  -75.1642  -17.0433 N   0  0  0  0  0  0  0  0  0  0  0  0
   -8.6259  -75.5385  -18.4052 C   0  0  0  0  0  0  0  0  0  0  0  0
   -8.1883  -76.8911  -18.9970 C   0  0  0  0  0  0  0  0  0  0  0  0
   -8.8021  -77.9521  -18.2744 O   0  0  0  0  0  0  0  0  0  0  0  0
   -8.6361  -77.6845  -16.8867 C   0  0  0  0  0  0  0  0  0  0  0  0
   -9.0181  -76.2241  -16.6051 C   0  0  0  0  0  0  0  0  0  0  0  0
   -8.4165  -70.8885  -19.6204 N   0  0  0  0  0  0  0  0  0  0  0  0
   -8.8016  -70.4010  -20.9457 C   0  0  0  0  0  0  0  0  0  0  0  0
  -10.2934  -70.6395  -21.0870 C   0  0  0  0  0  0  0  0  0  0  0  0
  -10.7867  -70.6746  -19.6620 C   0  0  0  0  0  0  0  0  0  0  0  0
   -9.6296  -71.3155  -18.9246 C   0  0  0  0  0  0  0  0  0  0  0  0
   -4.3809  -71.3575  -20.2452 C   0  0  0  0  0  0  0  0  0  0  0  0
  1  2  1  0
  2  3  1  0
  3  4  1  0
  4  5  1  0
  6  5  1  6
  6  7  2  0
  6  8  2  0
  8  9  1  0
  9 10  1  0
 10 11  2  0
 10 12  1  0
 12 13  1  0
 13 14  1  0
 14 15  1  0
 15 16  1  0
 16 17  1  0
  6 18  1  0
 18 19  1  0
 19 20  1  0
 20 21  1  0
 21 22  1  0
  5 23  1  0
 23  3  1  0
 17 12  1  0
 22 18  1  0
M  END
>  <inchikey>  (111) 
POZQEXATJPHDLX-HSZRJFAPSA-N

>  <alias>  (111) 
None

>  <name>  (111) 
POZQEXATJPHDLX-HSZRJFAPSA-N

>  <original ID>  (111) 
POZQEXATJPHDLX-HSZRJFAPSA-N

>  <csv_name>  (111) 
thumb_site_2_fstein_bulkdock_input_split1000_batch000.csv

>  <fragmenstein_error>  (111) 
None

>  <fragmenstein_mode>  (111) 
expansion

>  <ref_pdb>  (111) 
d0566a

>  <exports>  (111) 
['/opt/xchem-fragalysis-2/maxwin/BulkDock/OUTPUTS/thumb_site_2_fstein_bulkdock_input_split1000_batch000_217914.sdf']

>  <SLURM_JOB_ID>  (111) 
217914

>  <HIPPO Pose ID>  (111) 
80791

>  <energy_score>  (111) 
-13.01198

>  <fragmenstein_runtime>  (111) 
57.89636

>  <original SMILES>  (111) 
COC1CN([S@@](=O)(=NCC(=O)N2CCOCC2)N2CCCC2)C1

>  <scratch_subdir>  (111) 
/opt/xchem-fragalysis-2/maxwin/BulkDock/SCRATCH/217914/C68984-P45

>  <HIPPO Compound ID>  (111) 
68984

>  <fragmenstein_outcome>  (111) 
acceptable

>  <SLURM_JOB_NAME>  (111) 
BulkDock.place:Flavi_NS5_RdRp:thumb_site_2_fstein_bulkdock_input_split1000_batch000

>  <distance_score>  (111) 
0.994559

>  <ref_mols>  (111) 
d0503a,d0566a

>  <tags>  (111) 
['Fragmenstein placed']

$$$$
80900
     RDKit          3D

 19 21  0  0  0  0  0  0  0  0999 V2000
  -11.1260  -70.4279  -21.7339 C   0  0  0  0  0  0  0  0  0  0  0  0
  -10.2623  -71.1633  -20.7333 C   0  0  2  0  0  0  0  0  0  0  0  0
  -10.7482  -71.0199  -19.3009 C   0  0  0  0  0  0  0  0  0  0  0  0
   -9.5496  -71.5229  -18.5133 C   0  0  0  0  0  0  0  0  0  0  0  0
   -8.3663  -71.0544  -19.2828 N   0  0  0  0  0  0  0  0  0  0  0  0
   -7.0513  -72.1129  -19.2458 S   0  0  0  0  0  0  0  0  0  0  0  0
   -6.7050  -72.3331  -17.8610 O   0  0  0  0  0  0  0  0  0  0  0  0
   -7.3233  -73.2100  -20.1441 O   0  0  0  0  0  0  0  0  0  0  0  0
   -5.9005  -71.1322  -19.9392 N   0  0  0  0  0  0  0  0  0  0  0  0
   -5.1778  -70.0123  -19.2733 C   0  0  0  0  0  0  0  0  0  0  0  0
   -4.0522  -70.1582  -20.3270 C   0  0  0  0  0  0  0  0  0  0  0  0
   -2.5563  -69.9333  -19.8965 C   0  0  0  0  0  0  0  0  0  0  0  0
   -1.7968  -68.8953  -20.4649 C   0  0  0  0  0  0  0  0  0  0  0  0
   -0.4804  -68.6433  -20.0722 C   0  0  0  0  0  0  0  0  0  0  0  0
    0.1299  -69.4405  -19.1119 C   0  0  0  0  0  0  0  0  0  0  0  0
   -0.5822  -70.4868  -18.5399 C   0  0  0  0  0  0  0  0  0  0  0  0
   -1.9054  -70.7225  -18.9248 C   0  0  0  0  0  0  0  0  0  0  0  0
   -4.6021  -71.5959  -20.5001 C   0  0  0  0  0  0  0  0  0  0  0  0
   -8.8325  -70.6411  -20.6399 C   0  0  0  0  0  0  0  0  0  0  0  0
  2  1  1  6
  2  3  1  0
  3  4  1  0
  4  5  1  0
  5  6  1  0
  6  7  2  0
  6  8  2  0
  6  9  1  0
  9 10  1  0
 10 11  1  0
 11 12  1  0
 12 13  2  0
 13 14  1  0
 14 15  2  0
 15 16  1  0
 16 17  2  0
 11 18  1  0
  5 19  1  0
 19  2  1  0
 18  9  1  0
 17 12  1  0
M  END
>  <inchikey>  (112) 
OBILXVZHRBQCQW-GFCCVEGCSA-N

>  <alias>  (112) 
None

>  <name>  (112) 
OBILXVZHRBQCQW-GFCCVEGCSA-N

>  <original ID>  (112) 
OBILXVZHRBQCQW-GFCCVEGCSA-N

>  <csv_name>  (112) 
thumb_site_2_fstein_bulkdock_input_split1000_batch000.csv

>  <fragmenstein_error>  (112) 
None

>  <fragmenstein_mode>  (112) 
expansion

>  <ref_pdb>  (112) 
d0503a

>  <exports>  (112) 
['/opt/xchem-fragalysis-2/maxwin/BulkDock/OUTPUTS/thumb_site_2_fstein_bulkdock_input_split1000_batch000_217914.sdf']

>  <SLURM_JOB_ID>  (112) 
217914

>  <HIPPO Pose ID>  (112) 
80900

>  <energy_score>  (112) 
-61.315403

>  <fragmenstein_runtime>  (112) 
9.179862

>  <original SMILES>  (112) 
C[C@@H]1CCN(S(=O)(=O)N2CC(c3ccccc3)C2)C1

>  <scratch_subdir>  (112) 
/opt/xchem-fragalysis-2/maxwin/BulkDock/SCRATCH/217914/C68987-P44

>  <HIPPO Compound ID>  (112) 
68987

>  <fragmenstein_outcome>  (112) 
acceptable

>  <SLURM_JOB_NAME>  (112) 
BulkDock.place:Flavi_NS5_RdRp:thumb_site_2_fstein_bulkdock_input_split1000_batch000

>  <distance_score>  (112) 
0.914928

>  <ref_mols>  (112) 
d0503a,d0644a

>  <tags>  (112) 
['Fragmenstein placed']

$$$$
80972
     RDKit          3D

 19 20  0  0  0  0  0  0  0  0999 V2000
  -12.2080  -72.1172  -15.3271 C   0  0  0  0  0  0  0  0  0  0  0  0
  -11.0674  -71.2363  -15.2006 N   0  0  0  0  0  0  0  0  0  0  0  0
   -9.6661  -71.8312  -15.8991 S   0  0  0  0  0  0  0  0  0  0  0  0
   -8.6203  -71.0232  -15.3190 O   0  0  0  0  0  0  0  0  0  0  0  0
   -9.7102  -73.2687  -15.7805 O   0  0  0  0  0  0  0  0  0  0  0  0
   -9.8092  -71.3815  -17.5819 C   0  0  0  0  0  0  0  0  0  0  0  0
  -10.8952  -70.6951  -18.1189 C   0  0  0  0  0  0  0  0  0  0  0  0
  -10.9192  -70.3619  -19.4720 C   0  0  0  0  0  0  0  0  0  0  0  0
   -9.8432  -70.7045  -20.2846 C   0  0  0  0  0  0  0  0  0  0  0  0
   -8.7569  -71.4028  -19.7451 C   0  0  0  0  0  0  0  0  0  0  0  0
   -7.5857  -71.8002  -20.5856 C   0  0  0  0  0  0  0  0  0  0  0  0
   -6.4157  -70.8278  -20.5112 C   0  0  0  0  0  0  0  0  0  0  0  0
   -5.7644  -70.5905  -19.1535 C   0  0  2  0  0  0  0  0  0  0  0  0
   -4.6652  -69.5602  -19.2670 C   0  0  0  0  0  0  0  0  0  0  0  0
   -3.4777  -70.3529  -19.7639 C   0  0  0  0  0  0  0  0  0  0  0  0
   -3.6731  -71.6989  -19.3057 O   0  0  0  0  0  0  0  0  0  0  0  0
   -4.9638  -71.7932  -18.6849 C   0  0  0  0  0  0  0  0  0  0  0  0
   -8.7571  -71.7368  -18.3916 C   0  0  0  0  0  0  0  0  0  0  0  0
   -7.7035  -72.3787  -17.8717 F   0  0  0  0  0  0  0  0  0  0  0  0
  1  2  1  0
  2  3  1  0
  3  4  2  0
  3  5  2  0
  3  6  1  0
  6  7  2  0
  7  8  1  0
  8  9  2  0
  9 10  1  0
 10 11  1  0
 11 12  1  0
 13 12  1  6
 13 14  1  0
 14 15  1  0
 15 16  1  0
 16 17  1  0
 10 18  2  0
 18 19  1  0
 18  6  1  0
 17 13  1  0
M  END
>  <inchikey>  (113) 
XTQYPOVZNWOBFD-SNVBAGLBSA-N

>  <alias>  (113) 
None

>  <name>  (113) 
XTQYPOVZNWOBFD-SNVBAGLBSA-N

>  <original ID>  (113) 
XTQYPOVZNWOBFD-SNVBAGLBSA-N

>  <csv_name>  (113) 
thumb_site_2_fstein_bulkdock_input_split1000_batch000.csv

>  <fragmenstein_error>  (113) 
None

>  <fragmenstein_mode>  (113) 
expansion

>  <ref_pdb>  (113) 
d0249a

>  <exports>  (113) 
['/opt/xchem-fragalysis-2/maxwin/BulkDock/OUTPUTS/thumb_site_2_fstein_bulkdock_input_split1000_batch000_217914.sdf']

>  <SLURM_JOB_ID>  (113) 
217914

>  <HIPPO Pose ID>  (113) 
80972

>  <energy_score>  (113) 
-27.718664

>  <fragmenstein_runtime>  (113) 
29.363809

>  <original SMILES>  (113) 
CNS(=O)(=O)c1cccc(CC[C@@H]2CCOC2)c1F

>  <scratch_subdir>  (113) 
/opt/xchem-fragalysis-2/maxwin/BulkDock/SCRATCH/217914/C69028-P23

>  <HIPPO Compound ID>  (113) 
69028

>  <fragmenstein_outcome>  (113) 
acceptable

>  <SLURM_JOB_NAME>  (113) 
BulkDock.place:Flavi_NS5_RdRp:thumb_site_2_fstein_bulkdock_input_split1000_batch000

>  <distance_score>  (113) 
0.992113

>  <ref_mols>  (113) 
d0249a,d0567a

>  <tags>  (113) 
['Fragmenstein placed']

$$$$
80978
     RDKit          3D

 19 20  0  0  0  0  0  0  0  0999 V2000
  -12.3618  -71.8739  -15.3902 C   0  0  0  0  0  0  0  0  0  0  0  0
  -11.1547  -71.1006  -15.1974 N   0  0  0  0  0  0  0  0  0  0  0  0
   -9.7792  -71.7710  -15.8655 S   0  0  0  0  0  0  0  0  0  0  0  0
   -8.6922  -71.0552  -15.2411 O   0  0  0  0  0  0  0  0  0  0  0  0
   -9.9148  -73.2062  -15.8031 O   0  0  0  0  0  0  0  0  0  0  0  0
   -9.8395  -71.2587  -17.5356 C   0  0  0  0  0  0  0  0  0  0  0  0
  -10.9086  -70.5562  -18.0960 C   0  0  0  0  0  0  0  0  0  0  0  0
  -10.8812  -70.2205  -19.4478 C   0  0  0  0  0  0  0  0  0  0  0  0
   -9.7705  -70.5517  -20.2208 C   0  0  0  0  0  0  0  0  0  0  0  0
   -8.6902  -71.2354  -19.6460 C   0  0  0  0  0  0  0  0  0  0  0  0
   -7.4888  -71.6166  -20.4543 C   0  0  0  0  0  0  0  0  0  0  0  0
   -6.3894  -70.5550  -20.4742 C   0  0  0  0  0  0  0  0  0  0  0  0
   -5.6319  -70.3079  -19.1677 C   0  0  2  0  0  0  0  0  0  0  0  0
   -4.5269  -69.2863  -19.3773 C   0  0  0  0  0  0  0  0  0  0  0  0
   -3.3689  -70.1127  -19.8966 C   0  0  0  0  0  0  0  0  0  0  0  0
   -3.5951  -71.4644  -19.4645 O   0  0  0  0  0  0  0  0  0  0  0  0
   -4.8180  -71.5067  -18.7207 C   0  0  0  0  0  0  0  0  0  0  0  0
   -8.7375  -71.5794  -18.3001 C   0  0  0  0  0  0  0  0  0  0  0  0
   -7.6864  -72.1987  -17.7465 F   0  0  0  0  0  0  0  0  0  0  0  0
  1  2  1  0
  2  3  1  0
  3  4  2  0
  3  5  2  0
  3  6  1  0
  6  7  2  0
  7  8  1  0
  8  9  2  0
  9 10  1  0
 10 11  1  0
 11 12  1  0
 13 12  1  6
 13 14  1  0
 14 15  1  0
 15 16  1  0
 16 17  1  0
 10 18  2  0
 18 19  1  0
 18  6  1  0
 17 13  1  0
M  END
>  <inchikey>  (114) 
XTQYPOVZNWOBFD-SNVBAGLBSA-N

>  <alias>  (114) 
None

>  <name>  (114) 
XTQYPOVZNWOBFD-SNVBAGLBSA-N

>  <original ID>  (114) 
XTQYPOVZNWOBFD-SNVBAGLBSA-N

>  <csv_name>  (114) 
thumb_site_2_fstein_bulkdock_input_split1000_batch000.csv

>  <fragmenstein_error>  (114) 
None

>  <fragmenstein_mode>  (114) 
expansion

>  <ref_pdb>  (114) 
d0567a

>  <exports>  (114) 
['/opt/xchem-fragalysis-2/maxwin/BulkDock/OUTPUTS/thumb_site_2_fstein_bulkdock_input_split1000_batch000_217914.sdf']

>  <SLURM_JOB_ID>  (114) 
217914

>  <HIPPO Pose ID>  (114) 
80978

>  <energy_score>  (114) 
-29.083879

>  <fragmenstein_runtime>  (114) 
29.421253

>  <original SMILES>  (114) 
CNS(=O)(=O)c1cccc(CC[C@@H]2CCOC2)c1F

>  <scratch_subdir>  (114) 
/opt/xchem-fragalysis-2/maxwin/BulkDock/SCRATCH/217914/C69028-P46

>  <HIPPO Compound ID>  (114) 
69028

>  <fragmenstein_outcome>  (114) 
acceptable

>  <SLURM_JOB_NAME>  (114) 
BulkDock.place:Flavi_NS5_RdRp:thumb_site_2_fstein_bulkdock_input_split1000_batch000

>  <distance_score>  (114) 
0.917575

>  <ref_mols>  (114) 
d0249a,d0567a

>  <tags>  (114) 
['Fragmenstein placed']

$$$$
81027
     RDKit          3D

 24 25  0  0  0  0  0  0  0  0999 V2000
  -12.3387  -72.0837  -15.2926 C   0  0  0  0  0  0  0  0  0  0  0  0
  -11.1996  -71.2024  -15.1666 N   0  0  0  0  0  0  0  0  0  0  0  0
   -9.8296  -71.7141  -15.9573 S   0  0  0  0  0  0  0  0  0  0  0  0
   -8.7730  -70.9066  -15.3971 O   0  0  0  0  0  0  0  0  0  0  0  0
   -9.8138  -73.1566  -15.9206 O   0  0  0  0  0  0  0  0  0  0  0  0
  -10.1000  -71.1804  -17.6011 C   0  0  0  0  0  0  0  0  0  0  0  0
  -11.2961  -70.6029  -18.0360 C   0  0  0  0  0  0  0  0  0  0  0  0
  -11.4838  -70.2882  -19.3806 C   0  0  0  0  0  0  0  0  0  0  0  0
  -12.7605  -69.6583  -19.8513 C   0  0  0  0  0  0  0  0  0  0  0  0
  -10.4343  -70.5217  -20.2661 C   0  0  0  0  0  0  0  0  0  0  0  0
   -9.2107  -71.0619  -19.8244 C   0  0  0  0  0  0  0  0  0  0  0  0
   -8.1518  -71.2880  -20.8569 C   0  0  0  0  0  0  0  0  0  0  0  0
   -6.8028  -71.4664  -20.3672 N   0  0  0  0  0  0  0  0  0  0  0  0
   -6.3917  -72.8704  -20.2314 C   0  0  0  0  0  0  0  0  0  0  0  0
   -4.8884  -72.8974  -19.8787 C   0  0  0  0  0  0  0  0  0  0  0  0
   -4.1955  -72.0418  -20.8541 N   0  0  0  0  0  0  0  0  0  0  0  0
   -3.2055  -71.2237  -20.2820 C   0  0  0  0  0  0  0  0  0  0  0  0
   -2.1363  -71.7529  -19.5519 C   0  0  0  0  0  0  0  0  0  0  0  0
   -1.1671  -70.9104  -19.0043 C   0  0  0  0  0  0  0  0  0  0  0  0
   -1.2560  -69.5350  -19.2009 C   0  0  0  0  0  0  0  0  0  0  0  0
   -2.3079  -69.0079  -19.9482 C   0  0  0  0  0  0  0  0  0  0  0  0
   -3.2685  -69.8455  -20.4940 C   0  0  0  0  0  0  0  0  0  0  0  0
   -9.0598  -71.3840  -18.4789 C   0  0  0  0  0  0  0  0  0  0  0  0
   -7.8978  -71.8571  -18.0074 F   0  0  0  0  0  0  0  0  0  0  0  0
  1  2  1  0
  2  3  1  0
  3  4  2  0
  3  5  2  0
  3  6  1  0
  6  7  2  0
  7  8  1  0
  8  9  1  0
  8 10  2  0
 10 11  1  0
 11 12  1  0
 12 13  1  0
 13 14  1  0
 14 15  1  0
 15 16  1  0
 16 17  1  0
 17 18  2  0
 18 19  1  0
 19 20  2  0
 20 21  1  0
 21 22  2  0
 11 23  2  0
 23 24  1  0
 23  6  1  0
 22 17  1  0
M  END
>  <inchikey>  (115) 
GZBKHLODNZBHLN-UHFFFAOYSA-N

>  <alias>  (115) 
None

>  <name>  (115) 
GZBKHLODNZBHLN-UHFFFAOYSA-N

>  <original ID>  (115) 
GZBKHLODNZBHLN-UHFFFAOYSA-N

>  <csv_name>  (115) 
thumb_site_2_fstein_bulkdock_input_split1000_batch000.csv

>  <fragmenstein_error>  (115) 
None

>  <fragmenstein_mode>  (115) 
expansion

>  <ref_pdb>  (115) 
d0567a

>  <exports>  (115) 
['/opt/xchem-fragalysis-2/maxwin/BulkDock/OUTPUTS/thumb_site_2_fstein_bulkdock_input_split1000_batch000_217914.sdf']

>  <SLURM_JOB_ID>  (115) 
217914

>  <HIPPO Pose ID>  (115) 
81027

>  <energy_score>  (115) 
-41.923182

>  <fragmenstein_runtime>  (115) 
22.772074

>  <original SMILES>  (115) 
CNS(=O)(=O)c1cc(C)cc(CNCCNc2ccccc2)c1F

>  <scratch_subdir>  (115) 
/opt/xchem-fragalysis-2/maxwin/BulkDock/SCRATCH/217914/C69038-P46

>  <HIPPO Compound ID>  (115) 
69038

>  <fragmenstein_outcome>  (115) 
acceptable

>  <SLURM_JOB_NAME>  (115) 
BulkDock.place:Flavi_NS5_RdRp:thumb_site_2_fstein_bulkdock_input_split1000_batch000

>  <distance_score>  (115) 
0.904041

>  <ref_mols>  (115) 
d0567a,d0587a

>  <tags>  (115) 
['Fragmenstein placed']

$$$$
81055
     RDKit          3D

 16 17  0  0  0  0  0  0  0  0999 V2000
  -11.9404  -70.1895  -21.9278 C   0  0  0  0  0  0  0  0  0  0  0  0
  -10.7545  -70.5499  -21.0900 C   0  0  0  0  0  0  0  0  0  0  0  0
   -9.4994  -70.7716  -21.6441 C   0  0  0  0  0  0  0  0  0  0  0  0
   -8.4135  -71.1878  -20.9443 N   0  0  0  0  0  0  0  0  0  0  0  0
   -8.5600  -71.4071  -19.6186 C   0  0  0  0  0  0  0  0  0  0  0  0
   -7.4937  -71.9749  -18.8998 N   0  0  0  0  0  0  0  0  0  0  0  0
   -7.5793  -73.4290  -18.8882 C   0  0  0  0  0  0  0  0  0  0  0  0
   -6.1866  -71.3411  -19.0727 C   0  0  0  0  0  0  0  0  0  0  0  0
   -5.2986  -71.8197  -20.2185 C   0  0  1  0  0  0  0  0  0  0  0  0
   -4.0938  -70.9053  -20.3948 C   0  0  0  0  0  0  0  0  0  0  0  0
   -3.0938  -71.7884  -21.1066 C   0  0  0  0  0  0  0  0  0  0  0  0
   -3.3809  -73.1368  -20.7245 O   0  0  0  0  0  0  0  0  0  0  0  0
   -4.6063  -73.1522  -19.9796 C   0  0  0  0  0  0  0  0  0  0  0  0
   -9.7805  -71.1393  -18.9687 C   0  0  0  0  0  0  0  0  0  0  0  0
   -9.9592  -71.2871  -17.2521 Cl  0  0  0  0  0  0  0  0  0  0  0  0
  -10.8807  -70.7154  -19.7126 C   0  0  0  0  0  0  0  0  0  0  0  0
  1  2  1  0
  2  3  2  0
  3  4  1  0
  4  5  2  0
  5  6  1  0
  6  7  1  0
  6  8  1  0
  9  8  1  1
  9 10  1  0
 10 11  1  0
 11 12  1  0
 12 13  1  0
  5 14  1  0
 14 15  1  0
 14 16  2  0
 16  2  1  0
 13  9  1  0
M  END
>  <inchikey>  (116) 
YCYARQWXNBKXND-SNVBAGLBSA-N

>  <alias>  (116) 
None

>  <name>  (116) 
YCYARQWXNBKXND-SNVBAGLBSA-N

>  <original ID>  (116) 
YCYARQWXNBKXND-SNVBAGLBSA-N

>  <csv_name>  (116) 
thumb_site_2_fstein_bulkdock_input_split1000_batch000.csv

>  <fragmenstein_error>  (116) 
None

>  <fragmenstein_mode>  (116) 
expansion

>  <ref_pdb>  (116) 
d0258a

>  <exports>  (116) 
['/opt/xchem-fragalysis-2/maxwin/BulkDock/OUTPUTS/thumb_site_2_fstein_bulkdock_input_split1000_batch000_217914.sdf']

>  <SLURM_JOB_ID>  (116) 
217914

>  <HIPPO Pose ID>  (116) 
81055

>  <energy_score>  (116) 
-44.189834

>  <fragmenstein_runtime>  (116) 
1.514105

>  <original SMILES>  (116) 
Cc1cnc(N(C)C[C@H]2CCOC2)c(Cl)c1

>  <scratch_subdir>  (116) 
/opt/xchem-fragalysis-2/maxwin/BulkDock/SCRATCH/217914/C69057-P27

>  <HIPPO Compound ID>  (116) 
69057

>  <fragmenstein_outcome>  (116) 
acceptable

>  <SLURM_JOB_NAME>  (116) 
BulkDock.place:Flavi_NS5_RdRp:thumb_site_2_fstein_bulkdock_input_split1000_batch000

>  <distance_score>  (116) 
0.882206

>  <ref_mols>  (116) 
d0258a,d0587a

>  <tags>  (116) 
['Fragmenstein placed']

$$$$
81056
     RDKit          3D

 16 17  0  0  0  0  0  0  0  0999 V2000
  -12.0399  -70.0616  -21.6947 C   0  0  0  0  0  0  0  0  0  0  0  0
  -10.8107  -70.4880  -20.9553 C   0  0  0  0  0  0  0  0  0  0  0  0
   -9.6832  -70.9549  -21.6195 C   0  0  0  0  0  0  0  0  0  0  0  0
   -8.5973  -71.4869  -21.0050 N   0  0  0  0  0  0  0  0  0  0  0  0
   -8.6093  -71.5692  -19.6545 C   0  0  0  0  0  0  0  0  0  0  0  0
   -7.6080  -72.3166  -19.0148 N   0  0  0  0  0  0  0  0  0  0  0  0
   -7.6509  -73.7175  -19.4108 C   0  0  0  0  0  0  0  0  0  0  0  0
   -6.3101  -71.6639  -18.8472 C   0  0  0  0  0  0  0  0  0  0  0  0
   -5.3837  -71.6387  -20.0593 C   0  0  1  0  0  0  0  0  0  0  0  0
   -4.1439  -70.7930  -19.8126 C   0  0  0  0  0  0  0  0  0  0  0  0
   -3.1668  -71.3287  -20.8351 C   0  0  0  0  0  0  0  0  0  0  0  0
   -3.4701  -72.7164  -21.0011 O   0  0  0  0  0  0  0  0  0  0  0  0
   -4.7569  -72.9764  -20.4223 C   0  0  0  0  0  0  0  0  0  0  0  0
   -9.6806  -71.0530  -18.9033 C   0  0  0  0  0  0  0  0  0  0  0  0
   -9.7004  -71.1035  -17.1728 Cl  0  0  0  0  0  0  0  0  0  0  0  0
  -10.7879  -70.5193  -19.5623 C   0  0  0  0  0  0  0  0  0  0  0  0
  1  2  1  0
  2  3  2  0
  3  4  1  0
  4  5  2  0
  5  6  1  0
  6  7  1  0
  6  8  1  0
  9  8  1  1
  9 10  1  0
 10 11  1  0
 11 12  1  0
 12 13  1  0
  5 14  1  0
 14 15  1  0
 14 16  2  0
 16  2  1  0
 13  9  1  0
M  END
>  <inchikey>  (117) 
YCYARQWXNBKXND-SNVBAGLBSA-N

>  <alias>  (117) 
None

>  <name>  (117) 
YCYARQWXNBKXND-SNVBAGLBSA-N

>  <original ID>  (117) 
YCYARQWXNBKXND-SNVBAGLBSA-N

>  <csv_name>  (117) 
thumb_site_2_fstein_bulkdock_input_split1000_batch000.csv

>  <fragmenstein_error>  (117) 
None

>  <fragmenstein_mode>  (117) 
expansion

>  <ref_pdb>  (117) 
d0587a

>  <exports>  (117) 
['/opt/xchem-fragalysis-2/maxwin/BulkDock/OUTPUTS/thumb_site_2_fstein_bulkdock_input_split1000_batch000_217914.sdf']

>  <SLURM_JOB_ID>  (117) 
217914

>  <HIPPO Pose ID>  (117) 
81056

>  <energy_score>  (117) 
-43.430298

>  <fragmenstein_runtime>  (117) 
1.46965

>  <original SMILES>  (117) 
Cc1cnc(N(C)C[C@H]2CCOC2)c(Cl)c1

>  <scratch_subdir>  (117) 
/opt/xchem-fragalysis-2/maxwin/BulkDock/SCRATCH/217914/C69057-P48

>  <HIPPO Compound ID>  (117) 
69057

>  <fragmenstein_outcome>  (117) 
acceptable

>  <SLURM_JOB_NAME>  (117) 
BulkDock.place:Flavi_NS5_RdRp:thumb_site_2_fstein_bulkdock_input_split1000_batch000

>  <distance_score>  (117) 
0.81124

>  <ref_mols>  (117) 
d0258a,d0587a

>  <tags>  (117) 
['Fragmenstein placed']

$$$$
81066
     RDKit          3D

 23 25  0  0  0  0  0  0  0  0999 V2000
  -15.8952  -69.7151  -20.2391 C   0  0  0  0  0  0  0  0  0  0  0  0
  -14.8735  -68.9961  -21.1055 C   0  0  2  0  0  0  0  0  0  0  0  0
  -15.2898  -69.0660  -22.5022 N   0  0  0  0  0  0  0  0  0  0  0  0
  -13.5412  -69.6591  -20.8455 C   0  0  0  0  0  0  0  0  0  0  0  0
  -12.6983  -69.1956  -19.9063 C   0  0  0  0  0  0  0  0  0  0  0  0
  -11.5471  -69.8877  -19.3556 C   0  0  0  0  0  0  0  0  0  0  0  0
  -10.6772  -70.6965  -20.0018 C   0  0  0  0  0  0  0  0  0  0  0  0
   -9.4686  -71.1914  -19.3151 C   0  0  0  0  0  0  0  0  0  0  0  0
   -9.4299  -71.2303  -17.5692 Cl  0  0  0  0  0  0  0  0  0  0  0  0
   -8.4339  -71.6608  -20.0536 C   0  0  0  0  0  0  0  0  0  0  0  0
   -7.1424  -72.1621  -19.4318 C   0  0  0  0  0  0  0  0  0  0  0  0
   -5.9127  -71.9403  -20.3274 C   0  0  0  0  0  0  0  0  0  0  0  0
   -4.5441  -72.0909  -19.6152 C   0  0  1  0  0  0  0  0  0  0  0  0
   -4.4688  -73.3847  -18.8017 C   0  0  0  0  0  0  0  0  0  0  0  0
   -3.4105  -72.0091  -20.6372 C   0  0  0  0  0  0  0  0  0  0  0  0
   -3.2118  -70.5186  -20.8341 C   0  0  0  0  0  0  0  0  0  0  0  0
   -3.6913  -69.8687  -19.6510 O   0  0  0  0  0  0  0  0  0  0  0  0
   -4.2269  -70.8587  -18.7669 C   0  0  0  0  0  0  0  0  0  0  0  0
   -8.4633  -71.7272  -21.4391 N   0  0  0  0  0  0  0  0  0  0  0  0
   -9.6001  -71.4470  -21.9935 C   0  0  0  0  0  0  0  0  0  0  0  0
  -10.7717  -71.0537  -21.3712 N   0  0  0  0  0  0  0  0  0  0  0  0
  -11.9649  -70.8795  -22.1050 C   0  0  0  0  0  0  0  0  0  0  0  0
  -13.1772  -70.9072  -21.5123 C   0  0  0  0  0  0  0  0  0  0  0  0
  2  1  1  1
  2  3  1  0
  2  4  1  0
  4  5  2  0
  5  6  1  0
  6  7  2  0
  7  8  1  0
  8  9  1  0
  8 10  2  0
 10 11  1  0
 11 12  1  0
 12 13  1  0
 13 14  1  1
 13 15  1  0
 15 16  1  0
 16 17  1  0
 17 18  1  0
 10 19  1  0
 19 20  2  0
 20 21  1  0
 21 22  1  0
 22 23  2  0
 23  4  1  0
 21  7  1  0
 18 13  1  0
M  END
>  <inchikey>  (118) 
SOTMVWIYEDARLO-UGSOOPFHSA-N

>  <alias>  (118) 
None

>  <name>  (118) 
SOTMVWIYEDARLO-UGSOOPFHSA-N

>  <original ID>  (118) 
SOTMVWIYEDARLO-UGSOOPFHSA-N

>  <csv_name>  (118) 
thumb_site_2_fstein_bulkdock_input_split1000_batch000.csv

>  <fragmenstein_error>  (118) 
None

>  <fragmenstein_mode>  (118) 
expansion

>  <ref_pdb>  (118) 
d0587a

>  <exports>  (118) 
['/opt/xchem-fragalysis-2/maxwin/BulkDock/OUTPUTS/thumb_site_2_fstein_bulkdock_input_split1000_batch000_217914.sdf']

>  <SLURM_JOB_ID>  (118) 
217914

>  <HIPPO Pose ID>  (118) 
81066

>  <energy_score>  (118) 
-63.185789

>  <fragmenstein_runtime>  (118) 
15.996485

>  <original SMILES>  (118) 
C[C@H](N)C1=CC=C2C(Cl)=C(CC[C@@]3(C)CCOC3)N=CN2C=C1

>  <scratch_subdir>  (118) 
/opt/xchem-fragalysis-2/maxwin/BulkDock/SCRATCH/217914/C69062-P48

>  <HIPPO Compound ID>  (118) 
69062

>  <fragmenstein_outcome>  (118) 
acceptable

>  <SLURM_JOB_NAME>  (118) 
BulkDock.place:Flavi_NS5_RdRp:thumb_site_2_fstein_bulkdock_input_split1000_batch000

>  <distance_score>  (118) 
0.887292

>  <ref_mols>  (118) 
d0414a,d0587a

>  <tags>  (118) 
['Fragmenstein placed']

$$$$
81129
     RDKit          3D

 29 33  0  0  0  0  0  0  0  0999 V2000
   -3.0825  -69.6125  -20.0704 C   0  0  0  0  0  0  0  0  0  0  0  0
   -4.2047  -70.5852  -20.1589 C   0  0  0  0  0  0  0  0  0  0  0  0
   -4.2023  -71.6441  -20.9396 N   0  0  0  0  0  0  0  0  0  0  0  0
   -5.3816  -72.3356  -20.7836 C   0  0  0  0  0  0  0  0  0  0  0  0
   -6.2866  -71.7960  -19.8898 C   0  0  0  0  0  0  0  0  0  0  0  0
   -7.5860  -72.3924  -19.4715 C   0  0  0  0  0  0  0  0  0  0  0  0
   -8.8086  -71.4961  -19.3689 C   0  0  0  0  0  0  0  0  0  0  0  0
   -9.2403  -71.1727  -18.0754 C   0  0  0  0  0  0  0  0  0  0  0  0
  -10.4837  -70.6012  -17.8808 C   0  0  0  0  0  0  0  0  0  0  0  0
  -11.3298  -70.4080  -18.9709 C   0  0  0  0  0  0  0  0  0  0  0  0
  -10.9440  -70.7086  -20.2962 C   0  0  0  0  0  0  0  0  0  0  0  0
   -9.6145  -71.1637  -20.4968 C   0  0  0  0  0  0  0  0  0  0  0  0
   -9.1665  -71.3141  -21.8177 C   0  0  0  0  0  0  0  0  0  0  0  0
  -10.0134  -71.0676  -22.8977 C   0  0  0  0  0  0  0  0  0  0  0  0
  -11.3508  -70.7704  -22.7231 C   0  0  0  0  0  0  0  0  0  0  0  0
  -12.1798  -70.6830  -23.8450 C   0  0  0  0  0  0  0  0  0  0  0  0
  -13.5602  -70.5673  -23.6749 C   0  0  0  0  0  0  0  0  0  0  0  0
  -14.1080  -70.5056  -22.3940 C   0  0  0  0  0  0  0  0  0  0  0  0
  -15.6027  -70.4631  -22.2125 C   0  0  0  0  0  0  0  0  0  0  0  0
  -16.1904  -69.1916  -22.7426 C   0  0  0  0  0  0  0  0  0  0  0  0
  -16.9429  -69.0941  -23.7022 O   0  0  0  0  0  0  0  0  0  0  0  0
  -15.7775  -68.1099  -22.0467 O   0  0  0  0  0  0  0  0  0  0  0  0
  -13.2527  -70.4791  -21.2835 C   0  0  0  0  0  0  0  0  0  0  0  0
  -11.8512  -70.6226  -21.4099 C   0  0  0  0  0  0  0  0  0  0  0  0
  -11.6113  -70.7207  -25.2352 C   0  0  0  0  0  0  0  0  0  0  0  0
  -10.1505  -71.0514  -25.3518 C   0  0  0  0  0  0  0  0  0  0  0  0
   -9.5959  -71.1792  -26.4417 O   0  0  0  0  0  0  0  0  0  0  0  0
   -9.4450  -71.2263  -24.1750 O   0  0  0  0  0  0  0  0  0  0  0  0
   -5.6195  -70.3789  -19.1988 S   0  0  0  0  0  0  0  0  0  0  0  0
  1  2  1  0
  2  3  2  0
  3  4  1  0
  4  5  2  0
  5  6  1  0
  6  7  1  0
  7  8  2  0
  8  9  1  0
  9 10  2  0
 10 11  1  0
 11 12  2  0
 12 13  1  0
 13 14  2  0
 14 15  1  0
 15 16  2  0
 16 17  1  0
 17 18  2  0
 18 19  1  0
 19 20  1  0
 20 21  2  0
 20 22  1  0
 18 23  1  0
 23 24  2  0
 16 25  1  0
 25 26  1  0
 26 27  2  0
 26 28  1  0
  5 29  1  0
 29  2  1  0
 12  7  1  0
 28 14  1  0
 24 11  1  0
 24 15  1  0
M  END
>  <inchikey>  (119) 
STLLUGHHIQHZSY-UHFFFAOYSA-N

>  <alias>  (119) 
None

>  <name>  (119) 
STLLUGHHIQHZSY-UHFFFAOYSA-N

>  <original ID>  (119) 
STLLUGHHIQHZSY-UHFFFAOYSA-N

>  <csv_name>  (119) 
thumb_site_2_fstein_bulkdock_input_split1000_batch000.csv

>  <fragmenstein_error>  (119) 
None

>  <fragmenstein_mode>  (119) 
expansion

>  <ref_pdb>  (119) 
d0615a

>  <exports>  (119) 
['/opt/xchem-fragalysis-2/maxwin/BulkDock/OUTPUTS/thumb_site_2_fstein_bulkdock_input_split1000_batch000_217914.sdf']

>  <SLURM_JOB_ID>  (119) 
217914

>  <HIPPO Pose ID>  (119) 
81129

>  <energy_score>  (119) 
-85.824303

>  <fragmenstein_runtime>  (119) 
4.67856

>  <original SMILES>  (119) 
Cc1ncc(Cc2cccc3c2cc2c4c(cc(CC(=O)O)cc43)CC(=O)O2)s1

>  <scratch_subdir>  (119) 
/opt/xchem-fragalysis-2/maxwin/BulkDock/SCRATCH/217914/C69089-P50

>  <HIPPO Compound ID>  (119) 
69089

>  <fragmenstein_outcome>  (119) 
acceptable

>  <SLURM_JOB_NAME>  (119) 
BulkDock.place:Flavi_NS5_RdRp:thumb_site_2_fstein_bulkdock_input_split1000_batch000

>  <distance_score>  (119) 
0.996525

>  <ref_mols>  (119) 
d0615a,d0644a

>  <tags>  (119) 
['Fragmenstein placed']

$$$$
81197
     RDKit          3D

 28 31  0  0  0  0  0  0  0  0999 V2000
   -1.2857  -74.2143  -19.2889 C   0  0  0  0  0  0  0  0  0  0  0  0
   -1.1962  -73.1633  -18.2427 C   0  0  0  0  0  0  0  0  0  0  0  0
   -0.0313  -73.0554  -17.5921 N   0  0  0  0  0  0  0  0  0  0  0  0
   -0.2277  -72.0751  -16.7037 N   0  0  0  0  0  0  0  0  0  0  0  0
    0.8515  -71.7221  -15.8089 C   0  0  0  0  0  0  0  0  0  0  0  0
   -1.4756  -71.5106  -16.7746 C   0  0  0  0  0  0  0  0  0  0  0  0
   -1.8735  -70.3788  -15.9019 C   0  0  0  0  0  0  0  0  0  0  0  0
   -2.1501  -72.2114  -17.7584 C   0  0  0  0  0  0  0  0  0  0  0  0
   -3.4535  -71.9499  -18.0922 N   0  0  0  0  0  0  0  0  0  0  0  0
   -4.0368  -72.1505  -19.4138 C   0  0  2  0  0  0  0  0  0  0  0  0
   -4.0676  -73.5380  -19.6211 O   0  0  0  0  0  0  0  0  0  0  0  0
   -3.2169  -71.4559  -20.5303 C   0  0  0  0  0  0  0  0  0  0  0  0
   -3.7373  -70.0583  -20.8842 C   0  0  2  0  0  0  0  0  0  0  0  0
   -2.7035  -69.1993  -21.4741 C   0  0  0  0  0  0  0  0  0  0  0  0
   -1.9391  -68.5284  -22.0286 N   0  0  0  0  0  0  0  0  0  0  0  0
   -4.4084  -69.3913  -19.6987 C   0  0  0  0  0  0  0  0  0  0  0  0
   -5.6274  -70.1606  -19.2124 C   0  0  0  0  0  0  0  0  0  0  0  0
   -5.5142  -71.6664  -19.4843 C   0  0  2  0  0  0  0  0  0  0  0  0
   -6.5014  -72.5219  -18.6619 C   0  0  0  0  0  0  0  0  0  0  0  0
   -7.8391  -71.9695  -18.5150 N   0  0  0  0  0  0  0  0  0  0  0  0
   -8.4495  -71.7596  -17.3068 C   0  0  0  0  0  0  0  0  0  0  0  0
   -9.5882  -71.1210  -17.4351 N   0  0  0  0  0  0  0  0  0  0  0  0
   -9.7806  -71.0091  -18.7920 C   0  0  0  0  0  0  0  0  0  0  0  0
  -10.8601  -70.4510  -19.4944 C   0  0  0  0  0  0  0  0  0  0  0  0
  -10.8316  -70.4515  -20.8936 C   0  0  0  0  0  0  0  0  0  0  0  0
   -9.7503  -70.9996  -21.5819 C   0  0  0  0  0  0  0  0  0  0  0  0
   -8.6694  -71.5712  -20.8995 C   0  0  0  0  0  0  0  0  0  0  0  0
   -8.7062  -71.5522  -19.4987 C   0  0  0  0  0  0  0  0  0  0  0  0
  1  2  1  0
  2  3  2  0
  3  4  1  0
  4  5  1  0
  4  6  1  0
  6  7  1  0
  6  8  2  0
  8  9  1  0
  9 10  1  0
 10 11  1  6
 10 12  1  0
 12 13  1  0
 13 14  1  1
 14 15  3  0
 13 16  1  0
 16 17  1  0
 17 18  1  0
 18 19  1  1
 19 20  1  0
 20 21  1  0
 21 22  2  0
 22 23  1  0
 23 24  2  0
 24 25  1  0
 25 26  2  0
 26 27  1  0
 27 28  2  0
  8  2  1  0
 18 10  1  0
 28 20  1  0
 28 23  1  0
M  END
>  <inchikey>  (120) 
NEAWWQGUOPPYLH-LZJOCLMNSA-N

>  <alias>  (120) 
None

>  <name>  (120) 
NEAWWQGUOPPYLH-LZJOCLMNSA-N

>  <original ID>  (120) 
NEAWWQGUOPPYLH-LZJOCLMNSA-N

>  <csv_name>  (120) 
thumb_site_2_fstein_bulkdock_input_split1000_batch000.csv

>  <fragmenstein_error>  (120) 
None

>  <fragmenstein_mode>  (120) 
expansion

>  <ref_pdb>  (120) 
d0644a

>  <exports>  (120) 
['/opt/xchem-fragalysis-2/maxwin/BulkDock/OUTPUTS/thumb_site_2_fstein_bulkdock_input_split1000_batch000_217914.sdf']

>  <SLURM_JOB_ID>  (120) 
217914

>  <HIPPO Pose ID>  (120) 
81197

>  <energy_score>  (120) 
-56.75086

>  <fragmenstein_runtime>  (120) 
10.714261

>  <original SMILES>  (120) 
Cc1nn(C)c(C)c1N[C@]1(O)C[C@H](C#N)CC[C@@H]1Cn1cnc2ccccc21

>  <scratch_subdir>  (120) 
/opt/xchem-fragalysis-2/maxwin/BulkDock/SCRATCH/217914/C69115-P52

>  <HIPPO Compound ID>  (120) 
69115

>  <fragmenstein_outcome>  (120) 
acceptable

>  <SLURM_JOB_NAME>  (120) 
BulkDock.place:Flavi_NS5_RdRp:thumb_site_2_fstein_bulkdock_input_split1000_batch000

>  <distance_score>  (120) 
0.742259

>  <ref_mols>  (120) 
d0644a,d0693a

>  <tags>  (120) 
['Fragmenstein placed']

$$$$
81198
     RDKit          3D

 28 31  0  0  0  0  0  0  0  0999 V2000
   -1.2298  -74.0476  -19.6268 C   0  0  0  0  0  0  0  0  0  0  0  0
   -1.1177  -73.1411  -18.4553 C   0  0  0  0  0  0  0  0  0  0  0  0
    0.0540  -73.1269  -17.8075 N   0  0  0  0  0  0  0  0  0  0  0  0
   -0.1262  -72.2680  -16.7967 N   0  0  0  0  0  0  0  0  0  0  0  0
    0.9662  -72.0356  -15.8791 C   0  0  0  0  0  0  0  0  0  0  0  0
   -1.3755  -71.7040  -16.7718 C   0  0  0  0  0  0  0  0  0  0  0  0
   -1.7844  -70.7176  -15.7412 C   0  0  0  0  0  0  0  0  0  0  0  0
   -2.0572  -72.2545  -17.8416 C   0  0  0  0  0  0  0  0  0  0  0  0
   -3.3577  -71.9341  -18.1203 N   0  0  0  0  0  0  0  0  0  0  0  0
   -3.9900  -72.0145  -19.4289 C   0  0  2  0  0  0  0  0  0  0  0  0
   -4.0557  -73.3791  -19.7508 O   0  0  0  0  0  0  0  0  0  0  0  0
   -3.2099  -71.2360  -20.5190 C   0  0  0  0  0  0  0  0  0  0  0  0
   -3.7683  -69.8279  -20.7710 C   0  0  2  0  0  0  0  0  0  0  0  0
   -2.7897  -68.9460  -21.4157 C   0  0  0  0  0  0  0  0  0  0  0  0
   -2.0816  -68.2391  -21.9989 N   0  0  0  0  0  0  0  0  0  0  0  0
   -4.3076  -69.2146  -19.4868 C   0  0  0  0  0  0  0  0  0  0  0  0
   -5.5005  -70.0170  -18.9685 C   0  0  0  0  0  0  0  0  0  0  0  0
   -5.4523  -71.4958  -19.3906 C   0  0  2  0  0  0  0  0  0  0  0  0
   -6.4356  -72.3965  -18.6135 C   0  0  0  0  0  0  0  0  0  0  0  0
   -7.7862  -71.8638  -18.5058 N   0  0  0  0  0  0  0  0  0  0  0  0
   -8.4262  -71.6187  -17.3205 C   0  0  0  0  0  0  0  0  0  0  0  0
   -9.5581  -70.9782  -17.4973 N   0  0  0  0  0  0  0  0  0  0  0  0
   -9.7078  -70.8913  -18.8618 C   0  0  0  0  0  0  0  0  0  0  0  0
  -10.7472  -70.3211  -19.6129 C   0  0  0  0  0  0  0  0  0  0  0  0
  -10.6842  -70.3650  -21.0098 C   0  0  0  0  0  0  0  0  0  0  0  0
   -9.6049  -70.9693  -21.6509 C   0  0  0  0  0  0  0  0  0  0  0  0
   -8.5576  -71.5445  -20.9210 C   0  0  0  0  0  0  0  0  0  0  0  0
   -8.6272  -71.4748  -19.5233 C   0  0  0  0  0  0  0  0  0  0  0  0
  1  2  1  0
  2  3  2  0
  3  4  1  0
  4  5  1  0
  4  6  1  0
  6  7  1  0
  6  8  2  0
  8  9  1  0
  9 10  1  0
 10 11  1  6
 10 12  1  0
 12 13  1  0
 13 14  1  1
 14 15  3  0
 13 16  1  0
 16 17  1  0
 17 18  1  0
 18 19  1  1
 19 20  1  0
 20 21  1  0
 21 22  2  0
 22 23  1  0
 23 24  2  0
 24 25  1  0
 25 26  2  0
 26 27  1  0
 27 28  2  0
  8  2  1  0
 18 10  1  0
 28 20  1  0
 28 23  1  0
M  END
>  <inchikey>  (121) 
NEAWWQGUOPPYLH-LZJOCLMNSA-N

>  <alias>  (121) 
None

>  <name>  (121) 
NEAWWQGUOPPYLH-LZJOCLMNSA-N

>  <original ID>  (121) 
NEAWWQGUOPPYLH-LZJOCLMNSA-N

>  <csv_name>  (121) 
thumb_site_2_fstein_bulkdock_input_split1000_batch000.csv

>  <fragmenstein_error>  (121) 
None

>  <fragmenstein_mode>  (121) 
expansion

>  <ref_pdb>  (121) 
d0693a

>  <exports>  (121) 
['/opt/xchem-fragalysis-2/maxwin/BulkDock/OUTPUTS/thumb_site_2_fstein_bulkdock_input_split1000_batch000_217914.sdf']

>  <SLURM_JOB_ID>  (121) 
217914

>  <HIPPO Pose ID>  (121) 
81198

>  <energy_score>  (121) 
-57.874073

>  <fragmenstein_runtime>  (121) 
10.175415

>  <original SMILES>  (121) 
Cc1nn(C)c(C)c1N[C@]1(O)C[C@H](C#N)CC[C@@H]1Cn1cnc2ccccc21

>  <scratch_subdir>  (121) 
/opt/xchem-fragalysis-2/maxwin/BulkDock/SCRATCH/217914/C69115-P53

>  <HIPPO Compound ID>  (121) 
69115

>  <fragmenstein_outcome>  (121) 
acceptable

>  <SLURM_JOB_NAME>  (121) 
BulkDock.place:Flavi_NS5_RdRp:thumb_site_2_fstein_bulkdock_input_split1000_batch000

>  <distance_score>  (121) 
0.703057

>  <ref_mols>  (121) 
d0644a,d0693a

>  <tags>  (121) 
['Fragmenstein placed']

$$$$
81200
     RDKit          3D

 19 21  0  0  0  0  0  0  0  0999 V2000
  -11.5270  -69.9822  -22.2124 N   0  0  0  0  0  0  0  0  0  0  0  0
  -10.7265  -70.4216  -21.4972 C   0  0  0  0  0  0  0  0  0  0  0  0
   -9.7786  -70.9660  -20.5793 C   0  0  0  0  0  0  0  0  0  0  0  0
   -8.6572  -71.6232  -21.0893 C   0  0  0  0  0  0  0  0  0  0  0  0
   -7.7227  -72.2016  -20.2312 C   0  0  0  0  0  0  0  0  0  0  0  0
   -7.8714  -72.1019  -18.8430 C   0  0  0  0  0  0  0  0  0  0  0  0
   -6.8842  -72.7107  -17.8761 C   0  0  0  0  0  0  0  0  0  0  0  0
   -5.5125  -72.8263  -18.3480 N   0  0  0  0  0  0  0  0  0  0  0  0
   -4.7716  -73.9716  -18.2022 C   0  0  0  0  0  0  0  0  0  0  0  0
   -3.5472  -73.8239  -18.6446 N   0  0  0  0  0  0  0  0  0  0  0  0
   -3.4827  -72.5305  -19.0937 C   0  0  0  0  0  0  0  0  0  0  0  0
   -2.3996  -71.8541  -19.6736 C   0  0  0  0  0  0  0  0  0  0  0  0
   -2.5760  -70.5340  -20.0967 C   0  0  0  0  0  0  0  0  0  0  0  0
   -3.8037  -69.8939  -19.9278 C   0  0  0  0  0  0  0  0  0  0  0  0
   -4.8875  -70.5391  -19.3170 C   0  0  0  0  0  0  0  0  0  0  0  0
   -4.7005  -71.8700  -18.9176 C   0  0  0  0  0  0  0  0  0  0  0  0
   -9.0199  -71.4694  -18.3374 C   0  0  0  0  0  0  0  0  0  0  0  0
   -9.9621  -70.9040  -19.1972 C   0  0  0  0  0  0  0  0  0  0  0  0
  -11.0397  -70.3238  -18.5879 O   0  0  0  0  0  0  0  0  0  0  0  0
  1  2  3  0
  2  3  1  0
  3  4  2  0
  4  5  1  0
  5  6  2  0
  6  7  1  0
  7  8  1  0
  8  9  1  0
  9 10  2  0
 10 11  1  0
 11 12  2  0
 12 13  1  0
 13 14  2  0
 14 15  1  0
 15 16  2  0
  6 17  1  0
 17 18  2  0
 18 19  1  0
 18  3  1  0
 16  8  1  0
 16 11  1  0
M  END
>  <inchikey>  (122) 
PANZNSUBQUNTNU-UHFFFAOYSA-N

>  <alias>  (122) 
None

>  <name>  (122) 
PANZNSUBQUNTNU-UHFFFAOYSA-N

>  <original ID>  (122) 
PANZNSUBQUNTNU-UHFFFAOYSA-N

>  <csv_name>  (122) 
thumb_site_2_fstein_bulkdock_input_split1000_batch000.csv

>  <fragmenstein_error>  (122) 
None

>  <fragmenstein_mode>  (122) 
expansion

>  <ref_pdb>  (122) 
d0644a

>  <exports>  (122) 
['/opt/xchem-fragalysis-2/maxwin/BulkDock/OUTPUTS/thumb_site_2_fstein_bulkdock_input_split1000_batch000_217914.sdf']

>  <SLURM_JOB_ID>  (122) 
217914

>  <HIPPO Pose ID>  (122) 
81200

>  <energy_score>  (122) 
-15.178786

>  <fragmenstein_runtime>  (122) 
7.674559

>  <original SMILES>  (122) 
N#Cc1ccc(Cn2cnc3ccccc32)cc1O

>  <scratch_subdir>  (122) 
/opt/xchem-fragalysis-2/maxwin/BulkDock/SCRATCH/217914/C69116-P52

>  <HIPPO Compound ID>  (122) 
69116

>  <fragmenstein_outcome>  (122) 
acceptable

>  <SLURM_JOB_NAME>  (122) 
BulkDock.place:Flavi_NS5_RdRp:thumb_site_2_fstein_bulkdock_input_split1000_batch000

>  <distance_score>  (122) 
0.94423

>  <ref_mols>  (122) 
d0644a,d0749a

>  <tags>  (122) 
['Fragmenstein placed']

$$$$
81223
     RDKit          3D

 17 18  0  0  0  0  0  0  0  0999 V2000
   -1.5845  -71.4654  -20.9064 N   0  0  0  0  0  0  0  0  0  0  0  0
   -2.7853  -71.0155  -20.3277 C   0  0  0  0  0  0  0  0  0  0  0  0
   -2.9164  -69.6809  -19.9475 C   0  0  0  0  0  0  0  0  0  0  0  0
   -4.1437  -69.1913  -19.5005 C   0  0  0  0  0  0  0  0  0  0  0  0
   -5.2520  -70.0288  -19.4107 C   0  0  0  0  0  0  0  0  0  0  0  0
   -5.1567  -71.3559  -19.8385 C   0  0  0  0  0  0  0  0  0  0  0  0
   -6.3281  -72.2675  -19.7644 C   0  0  0  0  0  0  0  0  0  0  0  0
   -6.1795  -73.4813  -19.8806 O   0  0  0  0  0  0  0  0  0  0  0  0
   -7.6876  -71.7448  -19.5521 C   0  0  0  0  0  0  0  0  0  0  0  0
   -8.3368  -71.9853  -18.3369 C   0  0  0  0  0  0  0  0  0  0  0  0
   -9.6228  -71.4804  -18.1331 C   0  0  0  0  0  0  0  0  0  0  0  0
  -10.2525  -70.7559  -19.1473 C   0  0  0  0  0  0  0  0  0  0  0  0
   -9.5997  -70.5507  -20.3595 C   0  0  0  0  0  0  0  0  0  0  0  0
  -10.2164  -69.8723  -21.3351 F   0  0  0  0  0  0  0  0  0  0  0  0
   -8.3202  -71.0397  -20.5745 C   0  0  0  0  0  0  0  0  0  0  0  0
   -3.9281  -71.8301  -20.3262 C   0  0  0  0  0  0  0  0  0  0  0  0
   -3.7746  -73.1094  -20.8106 O   0  0  0  0  0  0  0  0  0  0  0  0
  1  2  1  0
  2  3  2  0
  3  4  1  0
  4  5  2  0
  5  6  1  0
  6  7  1  0
  7  8  2  0
  7  9  1  0
  9 10  2  0
 10 11  1  0
 11 12  2  0
 12 13  1  0
 13 14  1  0
 13 15  2  0
  6 16  2  0
 16 17  1  0
 16  2  1  0
 15  9  1  0
M  END
>  <inchikey>  (123) 
OTCDZLXUWPEYDX-UHFFFAOYSA-N

>  <alias>  (123) 
None

>  <name>  (123) 
OTCDZLXUWPEYDX-UHFFFAOYSA-N

>  <original ID>  (123) 
OTCDZLXUWPEYDX-UHFFFAOYSA-N

>  <csv_name>  (123) 
thumb_site_2_fstein_bulkdock_input_split1000_batch000.csv

>  <fragmenstein_error>  (123) 
None

>  <fragmenstein_mode>  (123) 
expansion

>  <ref_pdb>  (123) 
d0693a

>  <exports>  (123) 
['/opt/xchem-fragalysis-2/maxwin/BulkDock/OUTPUTS/thumb_site_2_fstein_bulkdock_input_split1000_batch000_217914.sdf']

>  <SLURM_JOB_ID>  (123) 
217914

>  <HIPPO Pose ID>  (123) 
81223

>  <energy_score>  (123) 
-55.181292

>  <fragmenstein_runtime>  (123) 
1.914814

>  <original SMILES>  (123) 
Nc1cccc(C(=O)c2cccc(F)c2)c1O

>  <scratch_subdir>  (123) 
/opt/xchem-fragalysis-2/maxwin/BulkDock/SCRATCH/217914/C69135-P53

>  <HIPPO Compound ID>  (123) 
69135

>  <fragmenstein_outcome>  (123) 
acceptable

>  <SLURM_JOB_NAME>  (123) 
BulkDock.place:Flavi_NS5_RdRp:thumb_site_2_fstein_bulkdock_input_split1000_batch000

>  <distance_score>  (123) 
0.72906

>  <ref_mols>  (123) 
d0693a,d0749a

>  <tags>  (123) 
['Fragmenstein placed']

$$$$
81342
     RDKit          3D

 19 21  0  0  0  0  0  0  0  0999 V2000
   -1.2721  -68.0500  -20.2359 C   0  0  0  0  0  0  0  0  0  0  0  0
   -2.4089  -68.9119  -19.7045 C   0  0  0  0  0  0  0  0  0  0  0  0
   -3.5487  -68.9907  -20.7214 C   0  0  0  0  0  0  0  0  0  0  0  0
   -4.2598  -70.3453  -20.7266 C   0  0  0  0  0  0  0  0  0  0  0  0
   -4.4086  -70.8590  -19.3715 N   0  0  0  0  0  0  0  0  0  0  0  0
   -5.3836  -71.9201  -19.2023 C   0  0  0  0  0  0  0  0  0  0  0  0
   -5.2368  -72.5426  -17.9411 O   0  0  0  0  0  0  0  0  0  0  0  0
   -5.2188  -72.9386  -20.1544 O   0  0  0  0  0  0  0  0  0  0  0  0
   -6.8266  -71.4716  -19.3153 C   0  0  0  0  0  0  0  0  0  0  0  0
   -7.5752  -70.8712  -20.3137 C   0  0  0  0  0  0  0  0  0  0  0  0
   -8.9231  -70.8538  -19.8930 C   0  0  0  0  0  0  0  0  0  0  0  0
  -10.1395  -70.4404  -20.4593 C   0  0  0  0  0  0  0  0  0  0  0  0
  -11.3100  -70.5842  -19.7056 C   0  0  0  0  0  0  0  0  0  0  0  0
  -11.2700  -71.1314  -18.4204 C   0  0  0  0  0  0  0  0  0  0  0  0
  -10.0668  -71.5543  -17.8433 C   0  0  0  0  0  0  0  0  0  0  0  0
   -8.9227  -71.4013  -18.6198 C   0  0  0  0  0  0  0  0  0  0  0  0
   -7.6628  -71.7725  -18.2600 O   0  0  0  0  0  0  0  0  0  0  0  0
   -3.1000  -71.1550  -18.7663 C   0  0  0  0  0  0  0  0  0  0  0  0
   -1.9390  -70.3140  -19.3248 C   0  0  0  0  0  0  0  0  0  0  0  0
  1  2  1  0
  2  3  1  0
  3  4  1  0
  4  5  1  0
  5  6  1  0
  6  7  1  0
  6  8  1  0
  6  9  1  0
  9 10  2  0
 10 11  1  0
 11 12  2  0
 12 13  1  0
 13 14  2  0
 14 15  1  0
 15 16  2  0
 16 17  1  0
  5 18  1  0
 18 19  1  0
 19  2  1  0
 17  9  1  0
 16 11  1  0
M  END
>  <inchikey>  (124) 
MDMQHHZZLPBEMN-UHFFFAOYSA-N

>  <alias>  (124) 
None

>  <name>  (124) 
MDMQHHZZLPBEMN-UHFFFAOYSA-N

>  <original ID>  (124) 
MDMQHHZZLPBEMN-UHFFFAOYSA-N

>  <csv_name>  (124) 
thumb_site_2_fstein_bulkdock_input_split1000_batch000.csv

>  <fragmenstein_error>  (124) 
None

>  <fragmenstein_mode>  (124) 
expansion

>  <ref_pdb>  (124) 
d0787a

>  <exports>  (124) 
['/opt/xchem-fragalysis-2/maxwin/BulkDock/OUTPUTS/thumb_site_2_fstein_bulkdock_input_split1000_batch000_217914.sdf']

>  <SLURM_JOB_ID>  (124) 
217914

>  <HIPPO Pose ID>  (124) 
81342

>  <energy_score>  (124) 
-36.081167

>  <fragmenstein_runtime>  (124) 
3.312843

>  <original SMILES>  (124) 
CC1CCN(C(O)(O)c2cc3ccccc3o2)CC1

>  <scratch_subdir>  (124) 
/opt/xchem-fragalysis-2/maxwin/BulkDock/SCRATCH/217914/C69215-P59

>  <HIPPO Compound ID>  (124) 
69215

>  <fragmenstein_outcome>  (124) 
acceptable

>  <SLURM_JOB_NAME>  (124) 
BulkDock.place:Flavi_NS5_RdRp:thumb_site_2_fstein_bulkdock_input_split1000_batch000

>  <distance_score>  (124) 
0.921565

>  <ref_mols>  (124) 
d0253a,d0787a

>  <tags>  (124) 
['Fragmenstein placed']

$$$$
81672
     RDKit          3D

 27 29  0  0  0  0  0  0  0  0999 V2000
   -7.4210  -73.2401  -17.5008 N   0  0  0  0  0  0  0  0  0  0  0  0
   -7.3963  -72.5906  -18.8225 C   0  0  2  0  0  0  0  0  0  0  0  0
   -6.0688  -71.8687  -19.0536 C   0  0  0  0  0  0  0  0  0  0  0  0
   -5.9731  -70.5198  -19.4318 C   0  0  0  0  0  0  0  0  0  0  0  0
   -4.7329  -69.9284  -19.6895 C   0  0  0  0  0  0  0  0  0  0  0  0
   -3.5620  -70.6680  -19.5608 C   0  0  0  0  0  0  0  0  0  0  0  0
   -3.6291  -72.0027  -19.1797 C   0  0  0  0  0  0  0  0  0  0  0  0
   -4.8686  -72.5986  -18.9396 C   0  0  0  0  0  0  0  0  0  0  0  0
   -8.6491  -71.7593  -18.9769 C   0  0  0  0  0  0  0  0  0  0  0  0
   -9.4749  -71.1892  -18.0276 C   0  0  0  0  0  0  0  0  0  0  0  0
  -10.6356  -70.5948  -18.6051 C   0  0  0  0  0  0  0  0  0  0  0  0
  -10.6779  -70.7121  -19.9851 C   0  0  0  0  0  0  0  0  0  0  0  0
  -11.7204  -70.2815  -20.9401 C   0  0  0  0  0  0  0  0  0  0  0  0
  -12.7991  -69.4984  -20.5057 C   0  0  0  0  0  0  0  0  0  0  0  0
  -13.8007  -69.0804  -21.3936 C   0  0  0  0  0  0  0  0  0  0  0  0
  -14.9776  -68.2875  -20.8867 C   0  0  0  0  0  0  0  0  0  0  0  0
  -16.1504  -69.1723  -20.5418 C   0  0  0  0  0  0  0  0  0  0  0  0
  -16.4585  -70.1958  -21.1335 O   0  0  0  0  0  0  0  0  0  0  0  0
  -16.8719  -68.7195  -19.4944 O   0  0  0  0  0  0  0  0  0  0  0  0
  -13.7260  -69.4573  -22.7390 C   0  0  0  0  0  0  0  0  0  0  0  0
  -12.6605  -70.2239  -23.2095 C   0  0  0  0  0  0  0  0  0  0  0  0
  -12.5348  -70.5836  -24.6738 C   0  0  0  0  0  0  0  0  0  0  0  0
  -11.6473  -69.6445  -25.4574 C   0  0  0  0  0  0  0  0  0  0  0  0
  -11.9325  -69.1590  -26.5408 O   0  0  0  0  0  0  0  0  0  0  0  0
  -10.4668  -69.4096  -24.8513 O   0  0  0  0  0  0  0  0  0  0  0  0
  -11.6764  -70.6333  -22.3009 C   0  0  0  0  0  0  0  0  0  0  0  0
   -9.2584  -71.4916  -20.5483 S   0  0  0  0  0  0  0  0  0  0  0  0
  2  1  1  1
  2  3  1  0
  3  4  2  0
  4  5  1  0
  5  6  2  0
  6  7  1  0
  7  8  2  0
  2  9  1  0
  9 10  2  0
 10 11  1  0
 11 12  2  0
 12 13  1  0
 13 14  2  0
 14 15  1  0
 15 16  1  0
 16 17  1  0
 17 18  2  0
 17 19  1  0
 15 20  2  0
 20 21  1  0
 21 22  1  0
 22 23  1  0
 23 24  2  0
 23 25  1  0
 21 26  2  0
 12 27  1  0
  8  3  1  0
 27  9  1  0
 26 13  1  0
M  END
>  <inchikey>  (125) 
YCJFKKPTJKKHNY-OAQYLSRUSA-N

>  <alias>  (125) 
None

>  <name>  (125) 
YCJFKKPTJKKHNY-OAQYLSRUSA-N

>  <original ID>  (125) 
YCJFKKPTJKKHNY-OAQYLSRUSA-N

>  <csv_name>  (125) 
thumb_site_2_fstein_bulkdock_input_split1000_batch000.csv

>  <fragmenstein_error>  (125) 
None

>  <fragmenstein_mode>  (125) 
expansion

>  <ref_pdb>  (125) 
d0162a

>  <exports>  (125) 
['/opt/xchem-fragalysis-2/maxwin/BulkDock/OUTPUTS/thumb_site_2_fstein_bulkdock_input_split1000_batch000_217914.sdf']

>  <SLURM_JOB_ID>  (125) 
217914

>  <HIPPO Pose ID>  (125) 
81672

>  <energy_score>  (125) 
-69.07784

>  <fragmenstein_runtime>  (125) 
16.322268

>  <original SMILES>  (125) 
N[C@H](c1ccccc1)c1ccc(-c2cc(CC(=O)O)cc(CC(=O)O)c2)s1

>  <scratch_subdir>  (125) 
/opt/xchem-fragalysis-2/maxwin/BulkDock/SCRATCH/217914/C69322-P15

>  <HIPPO Compound ID>  (125) 
69322

>  <fragmenstein_outcome>  (125) 
acceptable

>  <SLURM_JOB_NAME>  (125) 
BulkDock.place:Flavi_NS5_RdRp:thumb_site_2_fstein_bulkdock_input_split1000_batch000

>  <distance_score>  (125) 
0.748453

>  <ref_mols>  (125) 
d0162a,5hmx-a

>  <tags>  (125) 
['Fragmenstein placed']

$$$$
81675
     RDKit          3D

 27 29  0  0  0  0  0  0  0  0999 V2000
   -7.7539  -73.6927  -17.5358 N   0  0  0  0  0  0  0  0  0  0  0  0
   -7.5707  -72.8504  -18.7249 C   0  0  2  0  0  0  0  0  0  0  0  0
   -6.2240  -72.1441  -18.6639 C   0  0  0  0  0  0  0  0  0  0  0  0
   -6.0676  -70.7595  -18.7851 C   0  0  0  0  0  0  0  0  0  0  0  0
   -4.7943  -70.1891  -18.8825 C   0  0  0  0  0  0  0  0  0  0  0  0
   -3.6542  -70.9825  -18.8148 C   0  0  0  0  0  0  0  0  0  0  0  0
   -3.7861  -72.3533  -18.6345 C   0  0  0  0  0  0  0  0  0  0  0  0
   -5.0568  -72.9271  -18.5634 C   0  0  0  0  0  0  0  0  0  0  0  0
   -8.7845  -71.9723  -18.9379 C   0  0  0  0  0  0  0  0  0  0  0  0
   -9.6857  -71.4558  -18.0289 C   0  0  0  0  0  0  0  0  0  0  0  0
  -10.7837  -70.8119  -18.6703 C   0  0  0  0  0  0  0  0  0  0  0  0
  -10.7000  -70.8183  -20.0537 C   0  0  0  0  0  0  0  0  0  0  0  0
  -11.6684  -70.3149  -21.0544 C   0  0  0  0  0  0  0  0  0  0  0  0
  -12.8006  -69.6011  -20.6343 C   0  0  0  0  0  0  0  0  0  0  0  0
  -13.7545  -69.1289  -21.5467 C   0  0  0  0  0  0  0  0  0  0  0  0
  -14.9868  -68.4238  -21.0390 C   0  0  0  0  0  0  0  0  0  0  0  0
  -16.1060  -69.3779  -20.6759 C   0  0  0  0  0  0  0  0  0  0  0  0
  -16.3741  -70.4067  -21.2793 O   0  0  0  0  0  0  0  0  0  0  0  0
  -16.8593  -68.9489  -19.6364 O   0  0  0  0  0  0  0  0  0  0  0  0
  -13.5718  -69.3712  -22.9127 C   0  0  0  0  0  0  0  0  0  0  0  0
  -12.4707  -70.1004  -23.3701 C   0  0  0  0  0  0  0  0  0  0  0  0
  -12.3030  -70.4160  -24.8431 C   0  0  0  0  0  0  0  0  0  0  0  0
  -11.4173  -69.4610  -25.6057 C   0  0  0  0  0  0  0  0  0  0  0  0
  -11.6875  -68.9714  -26.6914 O   0  0  0  0  0  0  0  0  0  0  0  0
  -10.2438  -69.2248  -24.9880 O   0  0  0  0  0  0  0  0  0  0  0  0
  -11.5275  -70.5552  -22.4340 C   0  0  0  0  0  0  0  0  0  0  0  0
   -9.2240  -71.5463  -20.5377 S   0  0  0  0  0  0  0  0  0  0  0  0
  2  1  1  1
  2  3  1  0
  3  4  2  0
  4  5  1  0
  5  6  2  0
  6  7  1  0
  7  8  2  0
  2  9  1  0
  9 10  2  0
 10 11  1  0
 11 12  2  0
 12 13  1  0
 13 14  2  0
 14 15  1  0
 15 16  1  0
 16 17  1  0
 17 18  2  0
 17 19  1  0
 15 20  2  0
 20 21  1  0
 21 22  1  0
 22 23  1  0
 23 24  2  0
 23 25  1  0
 21 26  2  0
 12 27  1  0
  8  3  1  0
 27  9  1  0
 26 13  1  0
M  END
>  <inchikey>  (126) 
YCJFKKPTJKKHNY-OAQYLSRUSA-N

>  <alias>  (126) 
None

>  <name>  (126) 
YCJFKKPTJKKHNY-OAQYLSRUSA-N

>  <original ID>  (126) 
YCJFKKPTJKKHNY-OAQYLSRUSA-N

>  <csv_name>  (126) 
thumb_site_2_fstein_bulkdock_input_split1000_batch000.csv

>  <fragmenstein_error>  (126) 
None

>  <fragmenstein_mode>  (126) 
expansion

>  <ref_pdb>  (126) 
5hmx-a

>  <exports>  (126) 
['/opt/xchem-fragalysis-2/maxwin/BulkDock/OUTPUTS/thumb_site_2_fstein_bulkdock_input_split1000_batch000_217914.sdf']

>  <SLURM_JOB_ID>  (126) 
217914

>  <HIPPO Pose ID>  (126) 
81675

>  <energy_score>  (126) 
-70.93952

>  <fragmenstein_runtime>  (126) 
16.101909

>  <original SMILES>  (126) 
N[C@H](c1ccccc1)c1ccc(-c2cc(CC(=O)O)cc(CC(=O)O)c2)s1

>  <scratch_subdir>  (126) 
/opt/xchem-fragalysis-2/maxwin/BulkDock/SCRATCH/217914/C69322-P224

>  <HIPPO Compound ID>  (126) 
69322

>  <fragmenstein_outcome>  (126) 
acceptable

>  <SLURM_JOB_NAME>  (126) 
BulkDock.place:Flavi_NS5_RdRp:thumb_site_2_fstein_bulkdock_input_split1000_batch000

>  <distance_score>  (126) 
0.894133

>  <ref_mols>  (126) 
d0162a,5hmx-a

>  <tags>  (126) 
['Fragmenstein placed']

$$$$
